0:0
     RDKit          3D

 71 75  0  0  0  0  0  0  0  0999 V2000
   -0.7580   30.8520  -37.5610 C   0  0  0  0  0  0  0  0  0  0  0  0
    0.2620   29.8360  -37.2560 N   0  0  0  0  0  0  0  0  0  0  0  0
    0.3250   28.8330  -38.3420 C   0  0  0  0  0  0  0  0  0  0  0  0
    1.1580   27.6160  -37.9320 C   0  0  0  0  0  0  0  0  0  0  0  0
    0.6210   27.0290  -36.7030 N   0  0  0  0  0  0  0  0  0  0  0  0
    1.1710   25.8010  -36.2060 C   0  0  0  0  0  0  0  0  0  0  0  0
    0.3690   24.6480  -36.2130 C   0  0  0  0  0  0  0  0  0  0  0  0
    0.8820   23.4150  -35.7710 C   0  0  0  0  0  0  0  0  0  0  0  0
    0.1160   22.1990  -35.8390 N   0  0  0  0  0  0  0  0  0  0  0  0
   -0.1080   21.3520  -34.8780 C   0  0  0  0  0  0  0  0  0  0  0  0
   -0.9120   20.2830  -35.1140 N   0  0  0  0  0  0  0  0  0  0  0  0
   -1.1740   19.3610  -34.1480 C   0  0  0  0  0  0  0  0  0  0  0  0
   -2.0050   18.2610  -34.4050 O   0  0  0  0  0  0  0  0  0  0  0  0
   -3.2610   18.0280  -33.8220 C   0  0  0  0  0  0  0  0  0  0  0  0
   -3.7770   16.7330  -33.6380 C   0  0  0  0  0  0  0  0  0  0  0  0
   -5.0450   16.5560  -33.0780 C   0  0  0  0  0  0  0  0  0  0  0  0
   -5.8110   17.6620  -32.7090 C   0  0  0  0  0  0  0  0  0  0  0  0
   -5.3160   18.9580  -32.8910 C   0  0  0  0  0  0  0  0  0  0  0  0
   -6.1610   20.0680  -32.5540 N   0  0  0  0  0  0  0  0  0  0  0  0
   -7.5070   20.0050  -32.0700 C   0  0  0  0  0  0  0  0  0  0  0  0
   -8.2110   18.9770  -32.2600 O   0  0  0  0  0  0  0  0  0  0  0  0
   -8.0390   21.1180  -31.4110 O   0  0  0  0  0  0  0  0  0  0  0  0
   -7.9520   22.4470  -31.9190 C   0  0  0  0  0  0  0  0  0  0  0  0
   -6.7960   23.1730  -31.2880 C   0  0  0  0  0  0  0  0  0  0  0  0
   -5.4750   22.7490  -31.5110 C   0  0  0  0  0  0  0  0  0  0  0  0
   -4.4080   23.4270  -30.9130 C   0  0  0  0  0  0  0  0  0  0  0  0
   -4.6530   24.5260  -30.0830 C   0  0  0  0  0  0  0  0  0  0  0  0
   -5.9640   24.9490  -29.8490 C   0  0  0  0  0  0  0  0  0  0  0  0
   -7.0340   24.2720  -30.4460 C   0  0  0  0  0  0  0  0  0  0  0  0
   -4.0440   19.1340  -33.4670 C   0  0  0  0  0  0  0  0  0  0  0  0
   -0.5760   19.4960  -32.8900 C   0  0  0  0  0  0  0  0  0  0  0  0
   -0.8620   18.3230  -31.6130 Cl  0  0  0  0  0  0  0  0  0  0  0  0
    0.2590   20.5910  -32.6660 C   0  0  0  0  0  0  0  0  0  0  0  0
    0.4780   21.4930  -33.6550 N   0  0  0  0  0  0  0  0  0  0  0  0
    2.2160   23.3420  -35.3580 C   0  0  0  0  0  0  0  0  0  0  0  0
    3.0200   24.4830  -35.3460 C   0  0  0  0  0  0  0  0  0  0  0  0
    2.5090   25.7200  -35.7640 C   0  0  0  0  0  0  0  0  0  0  0  0
    3.5710   27.1340  -35.7610 S   0  0  0  0  0  0  0  0  0  0  0  0
    2.8230   28.4450  -34.9190 N   0  0  0  0  0  0  0  0  0  0  0  0
    3.8600   27.5420  -37.1790 O   0  0  0  0  0  0  0  0  0  0  0  0
    4.8660   26.8020  -35.0750 O   0  0  0  0  0  0  0  0  0  0  0  0
   -0.3300   27.7890  -35.8910 C   0  0  0  0  0  0  0  0  0  0  0  0
    0.0700   29.2710  -35.8920 C   0  0  0  0  0  0  0  0  0  0  0  0
   -1.1644   31.2568  -36.6224 H   0  0  0  0  0  0  0  0  0  0  0  0
   -0.3022   31.6656  -38.1443 H   0  0  0  0  0  0  0  0  0  0  0  0
   -1.5698   30.3930  -38.1443 H   0  0  0  0  0  0  0  0  0  0  0  0
   -0.6961   28.5027  -38.5835 H   0  0  0  0  0  0  0  0  0  0  0  0
    0.8019   29.2997  -39.2165 H   0  0  0  0  0  0  0  0  0  0  0  0
    1.1274   26.8665  -38.7366 H   0  0  0  0  0  0  0  0  0  0  0  0
    2.1962   27.9336  -37.7552 H   0  0  0  0  0  0  0  0  0  0  0  0
   -0.6704   24.7098  -36.5676 H   0  0  0  0  0  0  0  0  0  0  0  0
   -3.1813   15.8574  -33.9355 H   0  0  0  0  0  0  0  0  0  0  0  0
   -5.4407   15.5407  -32.9276 H   0  0  0  0  0  0  0  0  0  0  0  0
   -6.8098   17.5144  -32.2725 H   0  0  0  0  0  0  0  0  0  0  0  0
   -7.8059   22.4100  -33.0086 H   0  0  0  0  0  0  0  0  0  0  0  0
   -8.8831   22.9823  -31.6813 H   0  0  0  0  0  0  0  0  0  0  0  0
   -5.2796   21.8811  -32.1579 H   0  0  0  0  0  0  0  0  0  0  0  0
   -3.3751   23.0957  -31.0955 H   0  0  0  0  0  0  0  0  0  0  0  0
   -3.8123   25.0580  -29.6138 H   0  0  0  0  0  0  0  0  0  0  0  0
   -6.1552   25.8134  -29.1961 H   0  0  0  0  0  0  0  0  0  0  0  0
   -8.0658   24.6021  -30.2549 H   0  0  0  0  0  0  0  0  0  0  0  0
   -3.6607   20.1504  -33.6402 H   0  0  0  0  0  0  0  0  0  0  0  0
    0.7405   20.7230  -31.6858 H   0  0  0  0  0  0  0  0  0  0  0  0
    2.6357   22.3764  -35.0396 H   0  0  0  0  0  0  0  0  0  0  0  0
    4.0635   24.4111  -35.0057 H   0  0  0  0  0  0  0  0  0  0  0  0
    2.1880   28.0250  -34.2040 H   0  0  0  0  0  0  0  0  0  0  0  0
    2.2180   28.9460  -35.6070 H   0  0  0  0  0  0  0  0  0  0  0  0
   -1.3405   27.6812  -36.3120 H   0  0  0  0  0  0  0  0  0  0  0  0
   -0.3210   27.4064  -34.8597 H   0  0  0  0  0  0  0  0  0  0  0  0
   -0.7204   29.8448  -35.3861 H   0  0  0  0  0  0  0  0  0  0  0  0
    1.0374   29.3442  -35.3736 H   0  0  0  0  0  0  0  0  0  0  0  0
  1  2  1  0
  2  3  1  0
  3  4  1  0
  4  5  1  0
  5  6  1  0
  6  7  2  0
  7  8  1  0
  8  9  1  0
  9 10  2  3
 10 11  1  0
 11 12  2  0
 12 13  1  0
 13 14  1  0
 14 15  2  0
 15 16  1  0
 16 17  2  0
 17 18  1  0
 18 19  1  0
 19 20  1  0
 20 21  2  0
 20 22  1  0
 22 23  1  0
 23 24  1  0
 24 25  2  0
 25 26  1  0
 26 27  2  0
 27 28  1  0
 28 29  2  0
 18 30  2  0
 12 31  1  0
 31 32  1  0
 31 33  2  0
 33 34  1  0
  8 35  2  0
 35 36  1  0
 36 37  2  0
 37 38  1  0
 38 39  1  0
 38 40  2  0
 38 41  2  0
  5 42  1  0
 42 43  1  0
 43  2  1  0
 37  6  1  0
 34 10  1  0
 30 14  1  0
 29 24  1  0
  1 44  1  0
  1 45  1  0
  1 46  1  0
  3 47  1  0
  3 48  1  0
  4 49  1  0
  4 50  1  0
  7 51  1  0
 15 52  1  0
 16 53  1  0
 17 54  1  0
 23 55  1  0
 23 56  1  0
 25 57  1  0
 26 58  1  0
 27 59  1  0
 28 60  1  0
 29 61  1  0
 30 62  1  0
 33 63  1  0
 35 64  1  0
 36 65  1  0
 39 66  1  0
 39 67  1  0
 42 68  1  0
 42 69  1  0
 43 70  1  0
 43 71  1  0
M  CHG  2  19  -1  34  -1
M  END
>  <UniqueID>  (1) 
1

>  <SMILES>  (1) 
CN1CCN(c2cc(N=c3nc(Oc4cccc([N-]C(=O)OCc5ccccc5)c4)c(Cl)c[n-]3)ccc2S(N)(=O)=O)CC1

>  <Energy>  (1) 
101.0458016560823

>  <Genealogy>  (1) 
CN1CCN(c2cc(N=c3nc(Oc4cccc([N-]C(=O)OCc5ccccc5)c4)c(Cl)c[n-]3)ccc2S(N)(=O)=O)CC1 (protonated)
CN1CCN(c2cc(N=c3nc(Oc4cccc([N-]C(=O)OCc5ccccc5)c4)c(Cl)c[n-]3)ccc2S(N)(=O)=O)CC1 (3D coordinates assigned)
CN1CCN(c2cc(N=c3nc(Oc4cccc([N-]C(=O)OCc5ccccc5)c4)c(Cl)c[n-]3)ccc2S(N)(=O)=O)CC1 (nonaromatic ring conformer: 101.0458016560823 kcal/mol)

>  <smiles>  (1) 
CN1CCN(c2cc(N=c3nc(Oc4cccc(NC(=O)OCc5ccccc5)c4)c(Cl)c[nH]3)ccc2S(N)(=O)=O)CC1

>  <score_type>  (1) 
oracle

>  <origin>  (1) 
adgpu

>  <m_score__min__energy>  (1) 
-10.51

>  <m_primary>  (1) 
energy

$$$$
1:0
     RDKit          3D

 45 47  0  0  1  0  0  0  0  0999 V2000
   -5.3740   20.4210  -33.8250 C   0  0  0  0  0  0  0  0  0  0  0  0
   -5.9220   19.2880  -33.0660 C   0  0  0  0  0  0  0  0  0  0  0  0
   -5.0940   18.2370  -32.7310 C   0  0  0  0  0  0  0  0  0  0  0  0
   -5.5470   17.1440  -32.0200 C   0  0  0  0  0  0  0  0  0  0  0  0
   -6.8840   17.1330  -31.6460 C   0  0  0  0  0  0  0  0  0  0  0  0
   -7.7030   18.1910  -31.9860 C   0  0  0  0  0  0  0  0  0  0  0  0
   -9.1240   18.1530  -31.5730 C   0  0  0  0  0  0  0  0  0  0  0  0
   -7.2590   19.2870  -32.6960 C   0  0  0  0  0  0  0  0  0  0  0  0
   -8.0900   20.3810  -33.0520 N   0  0  0  0  0  0  0  0  0  0  0  0
   -8.4840   21.5590  -31.8850 S   0  0  0  0  0  0  0  0  0  0  0  0
   -9.4750   22.5620  -32.4150 O   0  0  0  0  0  0  0  0  0  0  0  0
   -9.1010   20.9440  -30.6480 O   0  0  0  0  0  0  0  0  0  0  0  0
   -7.0550   22.4700  -31.4530 C   0  0  0  0  0  0  0  0  0  0  0  0
   -5.8440   21.8480  -31.2050 C   0  0  0  0  0  0  0  0  0  0  0  0
   -4.7160   22.5830  -30.8660 C   0  0  0  0  0  0  0  0  0  0  0  0
   -4.7510   23.9610  -30.7600 C   0  0  0  0  0  0  0  0  0  0  0  0
   -3.6070   24.7310  -30.4130 N   0  0  0  0  0  0  0  0  0  0  0  0
   -2.9470   24.5030  -29.3420 C   0  0  0  0  0  0  0  0  0  0  0  0
   -3.3060   23.5250  -28.4970 N   0  0  0  0  0  0  0  0  0  0  0  0
   -2.5920   23.3120  -27.3850 C   0  0  0  0  0  0  0  0  0  0  0  0
   -1.5010   24.1040  -27.1270 C   0  0  0  0  0  0  0  0  0  0  0  0
   -1.1220   25.1110  -27.9860 C   0  0  0  0  0  0  0  0  0  0  0  0
   -0.1170   25.8830  -27.8030 N   0  0  0  0  0  0  0  0  0  0  0  0
   -1.8770   25.2870  -29.0990 N   0  0  0  0  0  0  0  0  0  0  0  0
   -5.9670   24.5840  -31.0080 C   0  0  0  0  0  0  0  0  0  0  0  0
   -7.0810   23.8400  -31.3450 C   0  0  0  0  0  0  0  0  0  0  0  0
   -5.0041   21.1858  -33.1263 H   0  0  0  0  0  0  0  0  0  0  0  0
   -4.5453   20.0715  -34.4584 H   0  0  0  0  0  0  0  0  0  0  0  0
   -6.1624   20.8537  -34.4584 H   0  0  0  0  0  0  0  0  0  0  0  0
   -4.0389   18.2709  -33.0403 H   0  0  0  0  0  0  0  0  0  0  0  0
   -4.8744   16.3134  -31.7597 H   0  0  0  0  0  0  0  0  0  0  0  0
   -7.2903   16.2822  -31.0794 H   0  0  0  0  0  0  0  0  0  0  0  0
   -9.1867   18.1513  -30.4748 H   0  0  0  0  0  0  0  0  0  0  0  0
   -9.6446   19.0375  -31.9687 H   0  0  0  0  0  0  0  0  0  0  0  0
   -9.5966   17.2419  -31.9687 H   0  0  0  0  0  0  0  0  0  0  0  0
   -8.4580   20.4590  -34.0270 H   0  0  0  0  0  0  0  0  0  0  0  0
   -5.7739   20.7526  -31.2777 H   0  0  0  0  0  0  0  0  0  0  0  0
   -3.7697   22.0551  -30.6768 H   0  0  0  0  0  0  0  0  0  0  0  0
   -4.1460   22.9660  -28.7620 H   0  0  0  0  0  0  0  0  0  0  0  0
   -2.8762   22.5116  -26.6861 H   0  0  0  0  0  0  0  0  0  0  0  0
   -0.9155   23.9300  -26.2121 H   0  0  0  0  0  0  0  0  0  0  0  0
    0.5010   25.7970  -26.9660 H   0  0  0  0  0  0  0  0  0  0  0  0
   -1.6150   26.0350  -29.7600 H   0  0  0  0  0  0  0  0  0  0  0  0
   -6.0438   25.6789  -30.9355 H   0  0  0  0  0  0  0  0  0  0  0  0
   -8.0284   24.3658  -31.5348 H   0  0  0  0  0  0  0  0  0  0  0  0
  1  2  1  0
  2  3  2  0
  3  4  1  0
  4  5  2  0
  5  6  1  0
  6  7  1  0
  6  8  2  0
  8  9  1  0
  9 10  1  0
 10 11  2  0
 10 12  2  0
 10 13  1  0
 13 14  2  0
 14 15  1  0
 15 16  2  0
 16 17  1  0
 17 18  2  0
 18 19  1  0
 19 20  1  0
 20 21  2  0
 21 22  1  0
 22 23  2  3
 22 24  1  0
 16 25  1  0
 25 26  2  0
  8  2  1  0
 26 13  1  0
 24 18  1  0
  1 27  1  0
  1 28  1  0
  1 29  1  0
  3 30  1  0
  4 31  1  0
  5 32  1  0
  7 33  1  0
  7 34  1  0
  7 35  1  0
  9 36  1  0
 14 37  1  0
 15 38  1  0
 19 39  1  0
 20 40  1  0
 21 41  1  0
 23 42  1  0
 24 43  1  0
 25 44  1  0
 26 45  1  0
M  END
>  <smiles>  (2) 
Cc1cccc(C)c1NS(=O)(=O)c1ccc(N=c2[nH]ccc(=N)[nH]2)cc1

>  <score_type>  (2) 
oracle

>  <origin>  (2) 
adgpu

>  <m_score__min__energy>  (2) 
-10.369999999999999

>  <m_primary>  (2) 
energy

$$$$
2:0
     RDKit          3D

 28 29  0  0  0  0  0  0  0  0999 V2000
   -5.1370   24.8290  -28.6060 N   0  0  0  0  0  0  0  0  0  0  0  0
   -4.1980   24.0210  -29.3300 C   0  0  0  0  0  0  0  0  0  0  0  0
   -2.8300   24.1600  -29.0490 C   0  0  0  0  0  0  0  0  0  0  0  0
   -1.8820   23.4260  -29.7620 C   0  0  0  0  0  0  0  0  0  0  0  0
   -2.2860   22.5420  -30.7600 C   0  0  0  0  0  0  0  0  0  0  0  0
   -3.6440   22.3810  -31.0520 C   0  0  0  0  0  0  0  0  0  0  0  0
   -4.0920   21.1970  -32.2790 Cl  0  0  0  0  0  0  0  0  0  0  0  0
   -4.6160   23.1200  -30.3400 C   0  0  0  0  0  0  0  0  0  0  0  0
   -6.0500   22.9270  -30.6360 C   0  0  0  0  0  0  0  0  0  0  0  0
   -6.8700   22.8090  -29.6850 O   0  0  0  0  0  0  0  0  0  0  0  0
   -6.5060   22.8730  -31.9950 N   0  0  0  0  0  0  0  0  0  0  0  0
   -7.8780   22.5160  -32.3470 C   0  0  0  0  0  0  0  0  0  0  0  0
   -8.0540   21.0290  -32.2850 C   0  0  0  0  0  0  0  0  0  0  0  0
   -7.2190   20.1320  -32.9680 C   0  0  0  0  0  0  0  0  0  0  0  0
   -7.5270   18.7990  -32.7340 C   0  0  0  0  0  0  0  0  0  0  0  0
   -8.8300   18.7450  -31.6740 S   0  0  0  0  0  0  0  0  0  0  0  0
   -9.0190   20.4050  -31.5010 C   0  0  0  0  0  0  0  0  0  0  0  0
   -6.1460   24.5590  -28.5650 H   0  0  0  0  0  0  0  0  0  0  0  0
   -4.8440   25.6680  -28.0600 H   0  0  0  0  0  0  0  0  0  0  0  0
   -2.5027   24.8533  -28.2602 H   0  0  0  0  0  0  0  0  0  0  0  0
   -0.8122   23.5456  -29.5355 H   0  0  0  0  0  0  0  0  0  0  0  0
   -1.5335   21.9682  -31.3208 H   0  0  0  0  0  0  0  0  0  0  0  0
   -5.8340   23.0900  -32.7650 H   0  0  0  0  0  0  0  0  0  0  0  0
   -8.5715   22.9945  -31.6398 H   0  0  0  0  0  0  0  0  0  0  0  0
   -8.0895   22.8618  -33.3696 H   0  0  0  0  0  0  0  0  0  0  0  0
   -6.3986   20.4543  -33.6261 H   0  0  0  0  0  0  0  0  0  0  0  0
   -7.0091   17.9303  -33.1665 H   0  0  0  0  0  0  0  0  0  0  0  0
   -9.7724   20.9094  -30.8781 H   0  0  0  0  0  0  0  0  0  0  0  0
  1  2  1  0
  2  3  2  0
  3  4  1  0
  4  5  2  0
  5  6  1  0
  6  7  1  0
  6  8  2  0
  8  9  1  0
  9 10  2  0
  9 11  1  0
 11 12  1  0
 12 13  1  0
 13 14  1  0
 14 15  2  0
 15 16  1  0
 16 17  1  0
  8  2  1  0
 17 13  2  0
  1 18  1  0
  1 19  1  0
  3 20  1  0
  4 21  1  0
  5 22  1  0
 11 23  1  0
 12 24  1  0
 12 25  1  0
 14 26  1  0
 15 27  1  0
 17 28  1  0
M  END
>  <UniqueID>  (3) 
2

>  <SMILES>  (3) 
Nc1cccc(Cl)c1C(=O)NCc1ccsc1

>  <Energy>  (3) 
57.77536412804283

>  <Genealogy>  (3) 
Nc1cccc(Cl)c1C(=O)NCc1ccsc1 (3D coordinates assigned)
Nc1cccc(Cl)c1C(=O)NCc1ccsc1 (optimized conformer: 57.77536412804283 kcal/mol)

>  <smiles>  (3) 
Nc1cccc(Cl)c1C(=O)NCc1ccsc1

>  <score_type>  (3) 
oracle

>  <origin>  (3) 
adgpu

>  <m_score__min__energy>  (3) 
-6.6799999999999997

>  <m_primary>  (3) 
energy

$$$$
3:0
     RDKit          3D

 55 56  0  0  0  0  0  0  0  0999 V2000
   -2.9280   20.6510  -27.8010 C   0  0  0  0  0  0  0  0  0  0  0  0
   -1.7060   20.1710  -26.9960 C   0  0  0  0  0  0  0  0  0  0  0  0
   -1.8340   18.6640  -26.7330 C   0  0  0  0  0  0  0  0  0  0  0  0
   -0.3760   20.4900  -27.7350 C   0  0  0  0  0  0  0  0  0  0  0  0
    0.3490   19.2400  -28.2690 C   0  0  0  0  0  0  0  0  0  0  0  0
    1.4070   19.6070  -29.2200 N   0  0  0  0  0  0  0  0  0  0  0  0
    1.3230   18.7770  -30.4300 C   0  0  0  0  0  0  0  0  0  0  0  0
    0.1050   19.1610  -31.2310 C   0  0  0  0  0  0  0  0  0  0  0  0
   -0.5800   18.1920  -31.9780 C   0  0  0  0  0  0  0  0  0  0  0  0
   -1.6880   18.5470  -32.7500 C   0  0  0  0  0  0  0  0  0  0  0  0
   -2.1420   19.8740  -32.7680 C   0  0  0  0  0  0  0  0  0  0  0  0
   -3.2580   20.2520  -33.5270 O   0  0  0  0  0  0  0  0  0  0  0  0
   -4.4030   20.8470  -32.9820 C   0  0  0  0  0  0  0  0  0  0  0  0
   -5.6130   20.1450  -32.9910 C   0  0  0  0  0  0  0  0  0  0  0  0
   -6.7710   20.7310  -32.4720 C   0  0  0  0  0  0  0  0  0  0  0  0
   -6.7200   22.0150  -31.9200 C   0  0  0  0  0  0  0  0  0  0  0  0
   -5.5080   22.7220  -31.8890 C   0  0  0  0  0  0  0  0  0  0  0  0
   -5.4150   24.0070  -31.2620 N   0  0  0  0  0  0  0  0  0  0  0  0
   -4.2790   24.4900  -30.5330 C   0  0  0  0  0  0  0  0  0  0  0  0
   -3.8760   25.6620  -30.7490 O   0  0  0  0  0  0  0  0  0  0  0  0
   -3.6600   23.6970  -29.4120 C   0  0  0  0  0  0  0  0  0  0  0  0
   -2.2050   23.3270  -29.7260 C   0  0  0  0  0  0  0  0  0  0  0  0
   -1.2430   24.3400  -29.1790 C   0  0  0  0  0  0  0  0  0  0  0  0
   -1.6740   25.6760  -28.9330 N   0  0  0  0  0  0  0  0  0  0  0  0
   -0.0600   24.0000  -28.9090 O   0  0  0  0  0  0  0  0  0  0  0  0
   -4.3500   22.1270  -32.4020 C   0  0  0  0  0  0  0  0  0  0  0  0
   -1.4860   20.8350  -31.9920 C   0  0  0  0  0  0  0  0  0  0  0  0
   -0.3600   20.4880  -31.2370 C   0  0  0  0  0  0  0  0  0  0  0  0
   -3.7235   20.9635  -27.1085 H   0  0  0  0  0  0  0  0  0  0  0  0
   -2.6383   21.5022  -28.4347 H   0  0  0  0  0  0  0  0  0  0  0  0
   -3.2950   19.8302  -28.4347 H   0  0  0  0  0  0  0  0  0  0  0  0
   -1.6813   20.7099  -26.0374 H   0  0  0  0  0  0  0  0  0  0  0  0
   -1.8495   18.4811  -25.6484 H   0  0  0  0  0  0  0  0  0  0  0  0
   -2.7670   18.2915  -27.1811 H   0  0  0  0  0  0  0  0  0  0  0  0
   -0.9772   18.1395  -27.1811 H   0  0  0  0  0  0  0  0  0  0  0  0
   -0.6006   21.1512  -28.5849 H   0  0  0  0  0  0  0  0  0  0  0  0
    0.2944   20.9628  -27.0022 H   0  0  0  0  0  0  0  0  0  0  0  0
    0.7980   18.6970  -27.4243 H   0  0  0  0  0  0  0  0  0  0  0  0
   -0.3844   18.6071  -28.7900 H   0  0  0  0  0  0  0  0  0  0  0  0
    2.3220   19.3800  -28.7630 H   0  0  0  0  0  0  0  0  0  0  0  0
    2.2248   18.9303  -31.0410 H   0  0  0  0  0  0  0  0  0  0  0  0
    1.2469   17.7189  -30.1392 H   0  0  0  0  0  0  0  0  0  0  0  0
   -0.2423   17.1454  -31.9557 H   0  0  0  0  0  0  0  0  0  0  0  0
   -2.2072   17.7826  -33.3467 H   0  0  0  0  0  0  0  0  0  0  0  0
   -5.6533   19.1279  -33.4081 H   0  0  0  0  0  0  0  0  0  0  0  0
   -7.7236   20.1816  -32.4978 H   0  0  0  0  0  0  0  0  0  0  0  0
   -7.6323   22.4720  -31.5090 H   0  0  0  0  0  0  0  0  0  0  0  0
   -3.6858   24.2984  -28.4913 H   0  0  0  0  0  0  0  0  0  0  0  0
   -4.2346   22.7674  -29.2869 H   0  0  0  0  0  0  0  0  0  0  0  0
   -1.9823   22.3468  -29.2793 H   0  0  0  0  0  0  0  0  0  0  0  0
   -2.0873   23.2986  -30.8193 H   0  0  0  0  0  0  0  0  0  0  0  0
   -2.6850   25.9290  -28.9660 H   0  0  0  0  0  0  0  0  0  0  0  0
   -3.3915   22.6643  -32.3512 H   0  0  0  0  0  0  0  0  0  0  0  0
   -1.8575   21.8702  -31.9750 H   0  0  0  0  0  0  0  0  0  0  0  0
    0.1626   21.2552  -30.6468 H   0  0  0  0  0  0  0  0  0  0  0  0
  1  2  1  0
  2  3  1  0
  2  4  1  0
  4  5  1  0
  5  6  1  0
  6  7  1  0
  7  8  1  0
  8  9  2  0
  9 10  1  0
 10 11  2  0
 11 12  1  0
 12 13  1  0
 13 14  2  0
 14 15  1  0
 15 16  2  0
 16 17  1  0
 17 18  1  0
 18 19  1  0
 19 20  2  0
 19 21  1  0
 21 22  1  0
 22 23  1  0
 23 24  1  0
 23 25  2  0
 17 26  2  0
 11 27  1  0
 27 28  2  0
 28  8  1  0
 26 13  1  0
  1 29  1  0
  1 30  1  0
  1 31  1  0
  2 32  1  0
  3 33  1  0
  3 34  1  0
  3 35  1  0
  4 36  1  0
  4 37  1  0
  5 38  1  0
  5 39  1  0
  6 40  1  0
  7 41  1  0
  7 42  1  0
  9 43  1  0
 10 44  1  0
 14 45  1  0
 15 46  1  0
 16 47  1  0
 21 48  1  0
 21 49  1  0
 22 50  1  0
 22 51  1  0
 24 52  1  0
 26 53  1  0
 27 54  1  0
 28 55  1  0
M  CHG  2  18  -1  24  -1
M  END
>  <UniqueID>  (4) 
3

>  <SMILES>  (4) 
CC(C)CCNCc1ccc(Oc2cccc([N-]C(=O)CCC([NH-])=O)c2)cc1

>  <Energy>  (4) 
55.19943927128525

>  <Genealogy>  (4) 
CC(C)CCNCc1ccc(Oc2cccc([N-]C(=O)CCC([NH-])=O)c2)cc1 (protonated)
CC(C)CCNCc1ccc(Oc2cccc([N-]C(=O)CCC([NH-])=O)c2)cc1 (3D coordinates assigned)
CC(C)CCNCc1ccc(Oc2cccc([N-]C(=O)CCC([NH-])=O)c2)cc1 (optimized conformer: 55.19943927128525 kcal/mol)

>  <smiles>  (4) 
CC(C)CCNCc1ccc(Oc2cccc(NC(=O)CCC(N)=O)c2)cc1

>  <score_type>  (4) 
oracle

>  <origin>  (4) 
adgpu

>  <m_score__min__energy>  (4) 
-11.67

>  <m_primary>  (4) 
energy

$$$$
4:0
     RDKit          3D

 41 43  0  0  0  0  0  0  0  0999 V2000
   -0.5640   26.8130  -27.7650 C   0  0  0  0  0  0  0  0  0  0  0  0
   -0.3610   25.3860  -28.0280 N   0  0  0  0  0  0  0  0  0  0  0  0
    0.8300   24.6970  -27.5210 C   0  0  0  0  0  0  0  0  0  0  0  0
   -1.3420   24.6530  -28.7860 C   0  0  0  0  0  0  0  0  0  0  0  0
   -1.0750   23.3880  -29.2140 N   0  0  0  0  0  0  0  0  0  0  0  0
   -1.9790   22.6720  -29.9310 C   0  0  0  0  0  0  0  0  0  0  0  0
   -1.6850   21.5040  -30.3040 O   0  0  0  0  0  0  0  0  0  0  0  0
   -3.2260   23.2380  -30.2440 C   0  0  0  0  0  0  0  0  0  0  0  0
   -4.2050   22.5490  -30.9830 C   0  0  0  0  0  0  0  0  0  0  0  0
   -5.4430   23.1590  -31.2610 C   0  0  0  0  0  0  0  0  0  0  0  0
   -6.4510   22.4850  -32.0330 N   0  0  0  0  0  0  0  0  0  0  0  0
   -7.6650   21.9520  -31.4820 C   0  0  0  0  0  0  0  0  0  0  0  0
   -8.0150   22.2350  -30.3030 O   0  0  0  0  0  0  0  0  0  0  0  0
   -8.5750   21.1240  -32.3360 C   0  0  0  0  0  0  0  0  0  0  0  0
   -7.8870   19.8480  -32.7400 C   0  0  0  0  0  0  0  0  0  0  0  0
   -6.8170   19.8790  -33.6490 C   0  0  0  0  0  0  0  0  0  0  0  0
   -6.1560   18.6980  -34.0000 C   0  0  0  0  0  0  0  0  0  0  0  0
   -6.5530   17.4790  -33.4400 C   0  0  0  0  0  0  0  0  0  0  0  0
   -5.7220   15.9980  -33.8800 Cl  0  0  0  0  0  0  0  0  0  0  0  0
   -7.6110   17.4430  -32.5250 C   0  0  0  0  0  0  0  0  0  0  0  0
   -8.2740   18.6220  -32.1720 C   0  0  0  0  0  0  0  0  0  0  0  0
   -5.6750   24.4720  -30.8270 C   0  0  0  0  0  0  0  0  0  0  0  0
   -4.7060   25.1610  -30.0920 C   0  0  0  0  0  0  0  0  0  0  0  0
   -3.4850   24.5490  -29.7960 C   0  0  0  0  0  0  0  0  0  0  0  0
   -2.5430   25.2200  -29.0830 N   0  0  0  0  0  0  0  0  0  0  0  0
   -0.5886   26.9858  -26.6789 H   0  0  0  0  0  0  0  0  0  0  0  0
    0.2613   27.3888  -28.2093 H   0  0  0  0  0  0  0  0  0  0  0  0
   -1.5171   27.1358  -28.2093 H   0  0  0  0  0  0  0  0  0  0  0  0
    0.8174   24.7043  -26.4211 H   0  0  0  0  0  0  0  0  0  0  0  0
    0.8333   23.6575  -27.8808 H   0  0  0  0  0  0  0  0  0  0  0  0
    1.7327   25.2124  -27.8808 H   0  0  0  0  0  0  0  0  0  0  0  0
   -4.0025   21.5302  -31.3448 H   0  0  0  0  0  0  0  0  0  0  0  0
   -6.3390   22.4630  -33.0720 H   0  0  0  0  0  0  0  0  0  0  0  0
   -9.4859   20.8822  -31.7687 H   0  0  0  0  0  0  0  0  0  0  0  0
   -8.8368   21.6934  -33.2400 H   0  0  0  0  0  0  0  0  0  0  0  0
   -6.4976   20.8363  -34.0866 H   0  0  0  0  0  0  0  0  0  0  0  0
   -5.3227   18.7274  -34.7174 H   0  0  0  0  0  0  0  0  0  0  0  0
   -7.9217   16.4850  -32.0826 H   0  0  0  0  0  0  0  0  0  0  0  0
   -9.1011   18.5901  -31.4475 H   0  0  0  0  0  0  0  0  0  0  0  0
   -6.6288   24.9646  -31.0673 H   0  0  0  0  0  0  0  0  0  0  0  0
   -4.9048   26.1861  -29.7462 H   0  0  0  0  0  0  0  0  0  0  0  0
  1  2  1  0
  2  3  1  0
  2  4  1  0
  4  5  2  0
  5  6  1  0
  6  7  2  0
  6  8  1  0
  8  9  2  0
  9 10  1  0
 10 11  1  0
 11 12  1  0
 12 13  2  0
 12 14  1  0
 14 15  1  0
 15 16  2  0
 16 17  1  0
 17 18  2  0
 18 19  1  0
 18 20  1  0
 20 21  2  0
 10 22  2  0
 22 23  1  0
 23 24  2  0
 24 25  1  0
 25  4  1  0
 24  8  1  0
 21 15  1  0
  1 26  1  0
  1 27  1  0
  1 28  1  0
  3 29  1  0
  3 30  1  0
  3 31  1  0
  9 32  1  0
 11 33  1  0
 14 34  1  0
 14 35  1  0
 16 36  1  0
 17 37  1  0
 20 38  1  0
 21 39  1  0
 22 40  1  0
 23 41  1  0
M  CHG  1  25  -1
M  END
>  <UniqueID>  (5) 
4

>  <SMILES>  (5) 
CN(C)c1nc(=O)c2cc(NC(=O)Cc3ccc(Cl)cc3)ccc2[n-]1

>  <Energy>  (5) 
46.21046765759407

>  <Genealogy>  (5) 
CN(C)c1nc(=O)c2cc(NC(=O)Cc3ccc(Cl)cc3)ccc2[n-]1 (protonated)
CN(C)c1nc(=O)c2cc(NC(=O)Cc3ccc(Cl)cc3)ccc2[n-]1 (3D coordinates assigned)
CN(C)c1nc(=O)c2cc(NC(=O)Cc3ccc(Cl)cc3)ccc2[n-]1 (optimized conformer: 46.21046765759407 kcal/mol)

>  <smiles>  (5) 
CN(C)c1nc(=O)c2cc(NC(=O)Cc3ccc(Cl)cc3)ccc2[nH]1

>  <score_type>  (5) 
oracle

>  <origin>  (5) 
adgpu

>  <m_score__min__energy>  (5) 
-9.5899999999999999

>  <m_primary>  (5) 
energy

$$$$
5:0
     RDKit          3D

 39 41  0  0  0  0  0  0  0  0999 V2000
   -2.7330   20.1540  -27.1490 C   0  0  0  0  0  0  0  0  0  0  0  0
   -2.5130   21.5070  -27.7590 C   0  0  0  0  0  0  0  0  0  0  0  0
   -1.2280   21.9050  -28.1530 C   0  0  0  0  0  0  0  0  0  0  0  0
   -1.0210   23.1770  -28.6880 C   0  0  0  0  0  0  0  0  0  0  0  0
   -2.0880   24.0690  -28.8180 C   0  0  0  0  0  0  0  0  0  0  0  0
   -1.8570   25.3040  -29.3330 F   0  0  0  0  0  0  0  0  0  0  0  0
   -3.3800   23.6990  -28.4040 C   0  0  0  0  0  0  0  0  0  0  0  0
   -4.4620   24.6420  -28.5250 N   0  0  0  0  0  0  0  0  0  0  0  0
   -5.3920   24.8610  -29.9740 S   0  0  0  0  0  0  0  0  0  0  0  0
   -6.6550   25.6040  -29.6460 O   0  0  0  0  0  0  0  0  0  0  0  0
   -4.5890   25.6690  -30.9550 O   0  0  0  0  0  0  0  0  0  0  0  0
   -5.8180   23.2940  -30.6560 C   0  0  0  0  0  0  0  0  0  0  0  0
   -4.8590   22.5220  -31.3210 C   0  0  0  0  0  0  0  0  0  0  0  0
   -5.1990   21.2680  -31.8390 C   0  0  0  0  0  0  0  0  0  0  0  0
   -6.5070   20.7710  -31.7010 C   0  0  0  0  0  0  0  0  0  0  0  0
   -6.8910   19.4450  -32.2360 C   0  0  0  0  0  0  0  0  0  0  0  0
   -8.0480   18.7310  -31.9910 C   0  0  0  0  0  0  0  0  0  0  0  0
   -8.0000   17.5720  -32.6760 N   0  0  0  0  0  0  0  0  0  0  0  0
   -6.8090   17.6300  -33.3060 C   0  0  0  0  0  0  0  0  0  0  0  0
   -6.3110   16.5640  -34.2210 C   0  0  0  0  0  0  0  0  0  0  0  0
   -6.1500   18.7370  -33.0540 O   0  0  0  0  0  0  0  0  0  0  0  0
   -7.4670   21.5560  -31.0380 C   0  0  0  0  0  0  0  0  0  0  0  0
   -7.1240   22.8080  -30.5220 C   0  0  0  0  0  0  0  0  0  0  0  0
   -3.5830   22.4080  -27.8770 C   0  0  0  0  0  0  0  0  0  0  0  0
   -2.7191   20.2395  -26.0524 H   0  0  0  0  0  0  0  0  0  0  0  0
   -3.7071   19.7594  -27.4737 H   0  0  0  0  0  0  0  0  0  0  0  0
   -1.9341   19.4711  -27.4737 H   0  0  0  0  0  0  0  0  0  0  0  0
   -0.3806   21.2128  -28.0401 H   0  0  0  0  0  0  0  0  0  0  0  0
   -0.0130   23.4786  -29.0088 H   0  0  0  0  0  0  0  0  0  0  0  0
   -4.7850   25.1630  -27.6780 H   0  0  0  0  0  0  0  0  0  0  0  0
   -3.8336   22.9028  -31.4369 H   0  0  0  0  0  0  0  0  0  0  0  0
   -4.4380   20.6666  -32.3578 H   0  0  0  0  0  0  0  0  0  0  0  0
   -8.8744   19.0561  -31.3419 H   0  0  0  0  0  0  0  0  0  0  0  0
   -5.9190   15.7249  -33.6274 H   0  0  0  0  0  0  0  0  0  0  0  0
   -7.1370   16.2100  -34.8554 H   0  0  0  0  0  0  0  0  0  0  0  0
   -5.5095   16.9703  -34.8554 H   0  0  0  0  0  0  0  0  0  0  0  0
   -8.4951   21.1816  -30.9249 H   0  0  0  0  0  0  0  0  0  0  0  0
   -7.8838   23.4150  -30.0079 H   0  0  0  0  0  0  0  0  0  0  0  0
   -4.5897   22.1033  -27.5549 H   0  0  0  0  0  0  0  0  0  0  0  0
  1  2  1  0
  2  3  2  0
  3  4  1  0
  4  5  2  0
  5  6  1  0
  5  7  1  0
  7  8  1  0
  8  9  1  0
  9 10  2  0
  9 11  2  0
  9 12  1  0
 12 13  2  0
 13 14  1  0
 14 15  2  0
 15 16  1  0
 16 17  2  0
 17 18  1  0
 18 19  2  0
 19 20  1  0
 19 21  1  0
 15 22  1  0
 22 23  2  0
  7 24  2  0
 24  2  1  0
 23 12  1  0
 21 16  1  0
  1 25  1  0
  1 26  1  0
  1 27  1  0
  3 28  1  0
  4 29  1  0
  8 30  1  0
 13 31  1  0
 14 32  1  0
 17 33  1  0
 20 34  1  0
 20 35  1  0
 20 36  1  0
 22 37  1  0
 23 38  1  0
 24 39  1  0
M  END
>  <UniqueID>  (6) 
5

>  <SMILES>  (6) 
Cc1ccc(F)c(NS(=O)(=O)c2ccc(-c3cnc(C)o3)cc2)c1

>  <Energy>  (6) 
72.34616727932506

>  <Genealogy>  (6) 
Cc1ccc(F)c(NS(=O)(=O)c2ccc(-c3cnc(C)o3)cc2)c1 (3D coordinates assigned)
Cc1ccc(F)c(NS(=O)(=O)c2ccc(-c3cnc(C)o3)cc2)c1 (optimized conformer: 72.34616727932506 kcal/mol)

>  <smiles>  (6) 
Cc1ccc(F)c(NS(=O)(=O)c2ccc(-c3cnc(C)o3)cc2)c1

>  <score_type>  (6) 
oracle

>  <origin>  (6) 
adgpu

>  <m_score__min__energy>  (6) 
-9.0999999999999996

>  <m_primary>  (6) 
energy

$$$$
6:0
     RDKit          3D

 39 42  0  0  0  0  0  0  0  0999 V2000
    1.0250   24.4710  -27.7820 O   0  0  0  0  0  0  0  0  0  0  0  0
   -0.0740   24.0120  -27.3690 C   0  0  0  0  0  0  0  0  0  0  0  0
   -0.1960   23.5940  -25.9620 C   0  0  0  0  0  0  0  0  0  0  0  0
   -0.5080   24.4190  -24.9000 C   0  0  0  0  0  0  0  0  0  0  0  0
   -0.5130   23.6060  -23.7860 C   0  0  0  0  0  0  0  0  0  0  0  0
   -0.2120   22.3370  -24.2380 C   0  0  0  0  0  0  0  0  0  0  0  0
   -0.0320   22.3620  -25.5380 O   0  0  0  0  0  0  0  0  0  0  0  0
   -1.2190   23.9440  -28.3010 C   0  0  0  0  0  0  0  0  0  0  0  0
   -1.7600   25.0150  -28.9820 C   0  0  0  0  0  0  0  0  0  0  0  0
   -1.3220   26.3350  -28.9240 O   0  0  0  0  0  0  0  0  0  0  0  0
   -2.8140   24.5350  -29.7250 C   0  0  0  0  0  0  0  0  0  0  0  0
   -3.5990   25.3000  -30.5810 O   0  0  0  0  0  0  0  0  0  0  0  0
   -2.9540   23.2050  -29.5410 N   0  0  0  0  0  0  0  0  0  0  0  0
   -3.8820   22.3490  -30.2300 C   0  0  0  0  0  0  0  0  0  0  0  0
   -5.2320   22.7100  -30.3620 C   0  0  0  0  0  0  0  0  0  0  0  0
   -6.1110   21.8550  -31.0300 C   0  0  0  0  0  0  0  0  0  0  0  0
   -5.6410   20.6500  -31.5580 C   0  0  0  0  0  0  0  0  0  0  0  0
   -6.7330   19.5630  -32.3960 Cl  0  0  0  0  0  0  0  0  0  0  0  0
   -4.2920   20.3200  -31.4080 C   0  0  0  0  0  0  0  0  0  0  0  0
   -3.4530   21.1660  -30.7550 N   0  0  0  0  0  0  0  0  0  0  0  0
   -1.9720   22.8300  -28.6790 C   0  0  0  0  0  0  0  0  0  0  0  0
   -1.7280   21.4340  -28.2500 C   0  0  0  0  0  0  0  0  0  0  0  0
   -0.5630   20.7630  -28.6580 C   0  0  0  0  0  0  0  0  0  0  0  0
   -0.3430   19.4370  -28.2710 C   0  0  0  0  0  0  0  0  0  0  0  0
   -1.2820   18.7740  -27.4780 C   0  0  0  0  0  0  0  0  0  0  0  0
   -2.4430   19.4360  -27.0680 C   0  0  0  0  0  0  0  0  0  0  0  0
   -2.6660   20.7610  -27.4500 C   0  0  0  0  0  0  0  0  0  0  0  0
   -0.7104   25.4996  -24.9350 H   0  0  0  0  0  0  0  0  0  0  0  0
   -0.7157   23.9077  -22.7478 H   0  0  0  0  0  0  0  0  0  0  0  0
   -0.1347   21.4408  -23.6049 H   0  0  0  0  0  0  0  0  0  0  0  0
   -1.2400   26.8950  -29.7640 H   0  0  0  0  0  0  0  0  0  0  0  0
   -5.5950   23.6597  -29.9422 H   0  0  0  0  0  0  0  0  0  0  0  0
   -7.1705   22.1295  -31.1402 H   0  0  0  0  0  0  0  0  0  0  0  0
   -3.9086   19.3744  -31.8189 H   0  0  0  0  0  0  0  0  0  0  0  0
    0.1782   21.2819  -29.2836 H   0  0  0  0  0  0  0  0  0  0  0  0
    0.5710   18.9157  -28.5918 H   0  0  0  0  0  0  0  0  0  0  0  0
   -1.1081   17.7307  -27.1759 H   0  0  0  0  0  0  0  0  0  0  0  0
   -3.1821   18.9127  -26.4436 H   0  0  0  0  0  0  0  0  0  0  0  0
   -3.5796   21.2792  -27.1231 H   0  0  0  0  0  0  0  0  0  0  0  0
  1  2  2  0
  2  3  1  0
  3  4  2  0
  4  5  1  0
  5  6  2  0
  6  7  1  0
  2  8  1  0
  8  9  1  0
  9 10  1  0
  9 11  2  0
 11 12  1  0
 11 13  1  0
 13 14  1  0
 14 15  2  0
 15 16  1  0
 16 17  2  0
 17 18  1  0
 17 19  1  0
 19 20  2  0
 13 21  1  0
 21 22  1  0
 22 23  2  0
 23 24  1  0
 24 25  2  0
 25 26  1  0
 26 27  2  0
  7  3  1  0
 21  8  2  0
 27 22  1  0
 20 14  1  0
  4 28  1  0
  5 29  1  0
  6 30  1  0
 10 31  1  0
 15 32  1  0
 16 33  1  0
 19 34  1  0
 23 35  1  0
 24 36  1  0
 25 37  1  0
 26 38  1  0
 27 39  1  0
M  CHG  1  12  -1
M  END
>  <UniqueID>  (7) 
6

>  <SMILES>  (7) 
O=C(c1ccco1)c1c(O)c([O-])n(-c2ccc(Cl)cn2)c1-c1ccccc1

>  <Energy>  (7) 
110.80026531699835

>  <Genealogy>  (7) 
O=C(c1ccco1)c1c(O)c([O-])n(-c2ccc(Cl)cn2)c1-c1ccccc1 (protonated)
O=C(c1ccco1)c1c(O)c([O-])n(-c2ccc(Cl)cn2)c1-c1ccccc1 (3D coordinates assigned)
O=C(c1ccco1)c1c(O)c([O-])n(-c2ccc(Cl)cn2)c1-c1ccccc1 (optimized conformer: 110.80026531699835 kcal/mol)

>  <smiles>  (7) 
O=C(c1ccco1)c1c(O)c(O)n(-c2ccc(Cl)cn2)c1-c1ccccc1

>  <score_type>  (7) 
oracle

>  <origin>  (7) 
adgpu

>  <m_score__min__energy>  (7) 
-11.56

>  <m_primary>  (7) 
energy

$$$$
7:0
     RDKit          3D

 31 32  0  0  0  0  0  0  0  0999 V2000
   -9.5790   21.3140  -31.7980 C   0  0  0  0  0  0  0  0  0  0  0  0
   -8.8760   22.5470  -31.9160 O   0  0  0  0  0  0  0  0  0  0  0  0
   -7.4780   22.6670  -31.8920 C   0  0  0  0  0  0  0  0  0  0  0  0
   -6.6270   21.6690  -32.4010 C   0  0  0  0  0  0  0  0  0  0  0  0
   -5.2410   21.8370  -32.3520 C   0  0  0  0  0  0  0  0  0  0  0  0
   -4.6910   22.9940  -31.7980 C   0  0  0  0  0  0  0  0  0  0  0  0
   -5.5240   24.0030  -31.2850 C   0  0  0  0  0  0  0  0  0  0  0  0
   -4.9440   25.2330  -30.6960 C   0  0  0  0  0  0  0  0  0  0  0  0
   -5.6450   26.2780  -30.6050 O   0  0  0  0  0  0  0  0  0  0  0  0
   -3.5720   25.2500  -30.2770 N   0  0  0  0  0  0  0  0  0  0  0  0
   -2.9960   24.5130  -29.1870 C   0  0  0  0  0  0  0  0  0  0  0  0
   -3.5990   23.3370  -28.7010 C   0  0  0  0  0  0  0  0  0  0  0  0
   -3.0110   22.6210  -27.6560 C   0  0  0  0  0  0  0  0  0  0  0  0
   -1.8110   23.0590  -27.0950 C   0  0  0  0  0  0  0  0  0  0  0  0
   -1.1890   24.2090  -27.5850 C   0  0  0  0  0  0  0  0  0  0  0  0
   -1.7700   24.9380  -28.6350 C   0  0  0  0  0  0  0  0  0  0  0  0
   -1.1090   26.1120  -29.1240 N   0  0  0  0  0  0  0  0  0  0  0  0
   -6.9200   23.8250  -31.3380 C   0  0  0  0  0  0  0  0  0  0  0  0
   -9.7174   21.0712  -30.7341 H   0  0  0  0  0  0  0  0  0  0  0  0
  -10.5615   21.4041  -32.2844 H   0  0  0  0  0  0  0  0  0  0  0  0
   -9.0010   20.5144  -32.2844 H   0  0  0  0  0  0  0  0  0  0  0  0
   -7.0539   20.7545  -32.8385 H   0  0  0  0  0  0  0  0  0  0  0  0
   -4.5801   21.0538  -32.7519 H   0  0  0  0  0  0  0  0  0  0  0  0
   -3.5985   23.1169  -31.7627 H   0  0  0  0  0  0  0  0  0  0  0  0
   -4.5390   22.9801  -29.1472 H   0  0  0  0  0  0  0  0  0  0  0  0
   -3.4950   21.7099  -27.2744 H   0  0  0  0  0  0  0  0  0  0  0  0
   -1.3546   22.4980  -26.2661 H   0  0  0  0  0  0  0  0  0  0  0  0
   -0.2383   24.5458  -27.1459 H   0  0  0  0  0  0  0  0  0  0  0  0
   -0.4810   26.6680  -28.5010 H   0  0  0  0  0  0  0  0  0  0  0  0
   -1.2350   26.4420  -30.1070 H   0  0  0  0  0  0  0  0  0  0  0  0
   -7.5816   24.6075  -30.9381 H   0  0  0  0  0  0  0  0  0  0  0  0
  1  2  1  0
  2  3  1  0
  3  4  2  0
  4  5  1  0
  5  6  2  0
  6  7  1  0
  7  8  1  0
  8  9  2  0
  8 10  1  0
 10 11  1  0
 11 12  2  0
 12 13  1  0
 13 14  2  0
 14 15  1  0
 15 16  2  0
 16 17  1  0
  7 18  2  0
 18  3  1  0
 16 11  1  0
  1 19  1  0
  1 20  1  0
  1 21  1  0
  4 22  1  0
  5 23  1  0
  6 24  1  0
 12 25  1  0
 13 26  1  0
 14 27  1  0
 15 28  1  0
 17 29  1  0
 17 30  1  0
 18 31  1  0
M  CHG  1  10  -1
M  END
>  <UniqueID>  (8) 
7

>  <SMILES>  (8) 
COc1cccc(C(=O)[N-]c2ccccc2N)c1

>  <Energy>  (8) 
35.29245626967017

>  <Genealogy>  (8) 
COc1cccc(C(=O)[N-]c2ccccc2N)c1 (protonated)
COc1cccc(C(=O)[N-]c2ccccc2N)c1 (3D coordinates assigned)
COc1cccc(C(=O)[N-]c2ccccc2N)c1 (optimized conformer: 35.29245626967017 kcal/mol)

>  <smiles>  (8) 
COc1cccc(C(=O)Nc2ccccc2N)c1

>  <score_type>  (8) 
oracle

>  <origin>  (8) 
adgpu

>  <m_score__min__energy>  (8) 
-8.6600000000000001

>  <m_primary>  (8) 
energy

$$$$
8:0
     RDKit          3D

 37 39  0  0  0  0  0  0  0  0999 V2000
   -5.3740   23.2780  -32.3220 N   0  0  0  0  0  0  0  0  0  0  0  0
   -6.2110   22.9820  -31.2330 N   0  0  0  0  0  0  0  0  0  0  0  0
   -6.6550   23.8360  -30.2960 C   0  0  0  0  0  0  0  0  0  0  0  0
   -6.1780   25.5620  -30.1630 S   0  0  0  0  0  0  0  0  0  0  0  0
   -4.4670   25.2940  -30.7410 C   0  0  0  0  0  0  0  0  0  0  0  0
   -3.6860   24.5050  -29.7410 C   0  0  0  0  0  0  0  0  0  0  0  0
   -4.2120   23.4960  -29.1970 O   0  0  0  0  0  0  0  0  0  0  0  0
   -2.3850   24.9590  -29.3470 N   0  0  0  0  0  0  0  0  0  0  0  0
   -1.9880   25.3800  -28.0340 C   0  0  0  0  0  0  0  0  0  0  0  0
   -0.8570   26.1960  -27.9040 C   0  0  0  0  0  0  0  0  0  0  0  0
   -0.4290   26.6200  -26.6420 C   0  0  0  0  0  0  0  0  0  0  0  0
   -1.1220   26.2170  -25.4970 C   0  0  0  0  0  0  0  0  0  0  0  0
   -0.5360   26.7930  -23.7730 Br  0  0  0  0  0  0  0  0  0  0  0  0
   -2.2380   25.3820  -25.6140 C   0  0  0  0  0  0  0  0  0  0  0  0
   -2.6680   24.9580  -26.8760 C   0  0  0  0  0  0  0  0  0  0  0  0
   -7.5570   23.2460  -29.4890 N   0  0  0  0  0  0  0  0  0  0  0  0
   -7.7000   21.9980  -29.9160 N   0  0  0  0  0  0  0  0  0  0  0  0
   -6.8800   21.8410  -30.9780 C   0  0  0  0  0  0  0  0  0  0  0  0
   -6.7540   20.5730  -31.7240 C   0  0  0  0  0  0  0  0  0  0  0  0
   -7.7980   19.6340  -31.7370 C   0  0  0  0  0  0  0  0  0  0  0  0
   -7.6720   18.4480  -32.4680 C   0  0  0  0  0  0  0  0  0  0  0  0
   -6.5080   18.1960  -33.2010 C   0  0  0  0  0  0  0  0  0  0  0  0
   -6.3380   16.5770  -34.1980 Br  0  0  0  0  0  0  0  0  0  0  0  0
   -5.4730   19.1360  -33.2100 C   0  0  0  0  0  0  0  0  0  0  0  0
   -5.5970   20.3240  -32.4820 C   0  0  0  0  0  0  0  0  0  0  0  0
   -4.3510   23.4260  -32.1810 H   0  0  0  0  0  0  0  0  0  0  0  0
   -5.7660   23.4330  -33.2760 H   0  0  0  0  0  0  0  0  0  0  0  0
   -4.4902   24.7456  -31.6943 H   0  0  0  0  0  0  0  0  0  0  0  0
   -3.9826   26.2726  -30.8737 H   0  0  0  0  0  0  0  0  0  0  0  0
   -0.3013   26.5056  -28.8014 H   0  0  0  0  0  0  0  0  0  0  0  0
    0.4531   27.2707  -26.5504 H   0  0  0  0  0  0  0  0  0  0  0  0
   -2.7785   25.0582  -24.7123 H   0  0  0  0  0  0  0  0  0  0  0  0
   -3.5399   24.2930  -26.9636 H   0  0  0  0  0  0  0  0  0  0  0  0
   -8.7193   19.8320  -31.1696 H   0  0  0  0  0  0  0  0  0  0  0  0
   -8.4898   17.7124  -32.4663 H   0  0  0  0  0  0  0  0  0  0  0  0
   -4.5594   18.9409  -33.7907 H   0  0  0  0  0  0  0  0  0  0  0  0
   -4.7856   21.0664  -32.5029 H   0  0  0  0  0  0  0  0  0  0  0  0
  1  2  1  0
  2  3  1  0
  3  4  1  0
  4  5  1  0
  5  6  1  0
  6  7  2  0
  6  8  1  0
  8  9  1  0
  9 10  2  0
 10 11  1  0
 11 12  2  0
 12 13  1  0
 12 14  1  0
 14 15  2  0
  3 16  2  0
 16 17  1  0
 17 18  2  0
 18 19  1  0
 19 20  2  0
 20 21  1  0
 21 22  2  0
 22 23  1  0
 22 24  1  0
 24 25  2  0
 18  2  1  0
 25 19  1  0
 15  9  1  0
  1 26  1  0
  1 27  1  0
  5 28  1  0
  5 29  1  0
 10 30  1  0
 11 31  1  0
 14 32  1  0
 15 33  1  0
 20 34  1  0
 21 35  1  0
 24 36  1  0
 25 37  1  0
M  CHG  1   8  -1
M  END
>  <UniqueID>  (9) 
8

>  <SMILES>  (9) 
Nn1c(SCC(=O)[N-]c2ccc(Br)cc2)nnc1-c1ccc(Br)cc1

>  <Energy>  (9) 
77.83723070486042

>  <Genealogy>  (9) 
Nn1c(SCC(=O)[N-]c2ccc(Br)cc2)nnc1-c1ccc(Br)cc1 (protonated)
Nn1c(SCC(=O)[N-]c2ccc(Br)cc2)nnc1-c1ccc(Br)cc1 (3D coordinates assigned)
Nn1c(SCC(=O)[N-]c2ccc(Br)cc2)nnc1-c1ccc(Br)cc1 (optimized conformer: 77.83723070486042 kcal/mol)

>  <smiles>  (9) 
Nn1c(SCC(=O)Nc2ccc(Br)cc2)nnc1-c1ccc(Br)cc1

>  <score_type>  (9) 
oracle

>  <origin>  (9) 
adgpu

>  <m_score__min__energy>  (9) 
-10.67

>  <m_primary>  (9) 
energy

$$$$
9:0
     RDKit          3D

 43 45  0  0  0  0  0  0  0  0999 V2000
   -0.5690   21.1960  -32.3810 C   0  0  0  0  0  0  0  0  0  0  0  0
   -1.8810   20.6560  -32.8380 C   0  0  0  0  0  0  0  0  0  0  0  0
   -2.2090   19.3230  -32.9710 C   0  0  0  0  0  0  0  0  0  0  0  0
   -3.5050   19.3720  -33.4300 C   0  0  0  0  0  0  0  0  0  0  0  0
   -4.2210   18.3280  -33.7270 N   0  0  0  0  0  0  0  0  0  0  0  0
   -5.5850   18.3530  -34.1750 C   0  0  0  0  0  0  0  0  0  0  0  0
   -5.8360   17.9860  -35.3540 O   0  0  0  0  0  0  0  0  0  0  0  0
   -6.7060   18.7370  -33.2830 C   0  0  0  0  0  0  0  0  0  0  0  0
   -7.6120   17.7710  -32.8120 C   0  0  0  0  0  0  0  0  0  0  0  0
   -8.6760   18.1440  -31.9860 C   0  0  0  0  0  0  0  0  0  0  0  0
   -8.8530   19.4830  -31.6340 C   0  0  0  0  0  0  0  0  0  0  0  0
   -7.9710   20.4600  -32.1130 C   0  0  0  0  0  0  0  0  0  0  0  0
   -8.2210   22.1490  -31.6820 S   0  0  0  0  0  0  0  0  0  0  0  0
   -9.4830   22.6330  -32.3380 O   0  0  0  0  0  0  0  0  0  0  0  0
   -8.3510   22.3080  -30.1930 O   0  0  0  0  0  0  0  0  0  0  0  0
   -6.8820   23.1050  -32.2390 N   0  0  0  0  0  0  0  0  0  0  0  0
   -5.7120   23.3820  -31.4490 C   0  0  0  0  0  0  0  0  0  0  0  0
   -5.4300   24.6740  -30.9660 C   0  0  0  0  0  0  0  0  0  0  0  0
   -4.2880   24.9060  -30.1940 C   0  0  0  0  0  0  0  0  0  0  0  0
   -3.4070   23.8590  -29.9020 C   0  0  0  0  0  0  0  0  0  0  0  0
   -1.9820   24.1590  -28.9120 S   0  0  0  0  0  0  0  0  0  0  0  0
   -1.5940   25.8430  -28.9560 N   0  0  0  0  0  0  0  0  0  0  0  0
   -0.8240   23.3610  -29.4420 O   0  0  0  0  0  0  0  0  0  0  0  0
   -2.2450   23.7460  -27.4910 O   0  0  0  0  0  0  0  0  0  0  0  0
   -3.6810   22.5720  -30.3820 C   0  0  0  0  0  0  0  0  0  0  0  0
   -4.8220   22.3370  -31.1540 C   0  0  0  0  0  0  0  0  0  0  0  0
   -6.9020   20.0860  -32.9380 C   0  0  0  0  0  0  0  0  0  0  0  0
   -3.9090   20.6500  -33.5740 N   0  0  0  0  0  0  0  0  0  0  0  0
   -2.9050   21.3920  -33.2070 O   0  0  0  0  0  0  0  0  0  0  0  0
   -0.5403   21.2078  -31.2814 H   0  0  0  0  0  0  0  0  0  0  0  0
    0.2426   20.5588  -32.7622 H   0  0  0  0  0  0  0  0  0  0  0  0
   -0.4411   22.2199  -32.7622 H   0  0  0  0  0  0  0  0  0  0  0  0
   -1.5881   18.4394  -32.7619 H   0  0  0  0  0  0  0  0  0  0  0  0
   -7.4829   16.7159  -33.0950 H   0  0  0  0  0  0  0  0  0  0  0  0
   -9.3750   17.3811  -31.6127 H   0  0  0  0  0  0  0  0  0  0  0  0
   -9.6877   19.7719  -30.9784 H   0  0  0  0  0  0  0  0  0  0  0  0
   -6.9040   23.4120  -33.2370 H   0  0  0  0  0  0  0  0  0  0  0  0
   -6.1120   25.5054  -31.1974 H   0  0  0  0  0  0  0  0  0  0  0  0
   -4.0808   25.9173  -29.8140 H   0  0  0  0  0  0  0  0  0  0  0  0
   -1.2450   26.0500  -29.9190 H   0  0  0  0  0  0  0  0  0  0  0  0
   -2.9957   21.7433  -30.1505 H   0  0  0  0  0  0  0  0  0  0  0  0
   -5.0245   21.3247  -31.5337 H   0  0  0  0  0  0  0  0  0  0  0  0
   -6.2113   20.8530  -33.3184 H   0  0  0  0  0  0  0  0  0  0  0  0
  1  2  1  0
  2  3  2  0
  3  4  1  0
  4  5  2  3
  5  6  1  0
  6  7  2  0
  6  8  1  0
  8  9  2  0
  9 10  1  0
 10 11  2  0
 11 12  1  0
 12 13  1  0
 13 14  2  0
 13 15  2  0
 13 16  1  0
 16 17  1  0
 17 18  2  0
 18 19  1  0
 19 20  2  0
 20 21  1  0
 21 22  1  0
 21 23  2  0
 21 24  2  0
 20 25  1  0
 25 26  2  0
 12 27  2  0
  4 28  1  0
 28 29  1  0
 29  2  1  0
 27  8  1  0
 26 17  1  0
  1 30  1  0
  1 31  1  0
  1 32  1  0
  3 33  1  0
  9 34  1  0
 10 35  1  0
 11 36  1  0
 16 37  1  0
 18 38  1  0
 19 39  1  0
 22 40  1  0
 25 41  1  0
 26 42  1  0
 27 43  1  0
M  CHG  2  22  -1  28  -1
M  END
>  <UniqueID>  (10) 
9

>  <SMILES>  (10) 
Cc1cc(=NC(=O)c2cccc(S(=O)(=O)Nc3ccc(S([NH-])(=O)=O)cc3)c2)[n-]o1

>  <Energy>  (10) 
84.98297634463925

>  <Genealogy>  (10) 
Cc1cc(=NC(=O)c2cccc(S(=O)(=O)Nc3ccc(S([NH-])(=O)=O)cc3)c2)[n-]o1 (protonated)
Cc1cc(=NC(=O)c2cccc(S(=O)(=O)Nc3ccc(S([NH-])(=O)=O)cc3)c2)[n-]o1 (3D coordinates assigned)
Cc1cc(=NC(=O)c2cccc(S(=O)(=O)Nc3ccc(S([NH-])(=O)=O)cc3)c2)[n-]o1 (optimized conformer: 84.98297634463925 kcal/mol)

>  <smiles>  (10) 
Cc1cc(=NC(=O)c2cccc(S(=O)(=O)Nc3ccc(S(N)(=O)=O)cc3)c2)[nH]o1

>  <score_type>  (10) 
oracle

>  <origin>  (10) 
adgpu

>  <m_score__min__energy>  (10) 
-12.880000000000001

>  <m_primary>  (10) 
energy

$$$$
10:0
     RDKit          3D

 30 31  0  0  0  0  0  0  0  0999 V2000
   -8.9570   21.6050  -30.4520 C   0  0  0  0  0  0  0  0  0  0  0  0
   -7.6560   21.5420  -31.1190 N   0  0  0  0  0  0  0  0  0  0  0  0
   -6.6890   22.5990  -30.9390 C   0  0  0  0  0  0  0  0  0  0  0  0
   -5.5760   22.4160  -30.0960 C   0  0  0  0  0  0  0  0  0  0  0  0
   -4.6360   23.4380  -29.9270 C   0  0  0  0  0  0  0  0  0  0  0  0
   -4.7930   24.6520  -30.6000 C   0  0  0  0  0  0  0  0  0  0  0  0
   -3.8570   25.6660  -30.4320 O   0  0  0  0  0  0  0  0  0  0  0  0
   -5.8890   24.8450  -31.4440 C   0  0  0  0  0  0  0  0  0  0  0  0
   -6.8310   23.8270  -31.6140 C   0  0  0  0  0  0  0  0  0  0  0  0
   -7.2910   20.1630  -32.1220 S   0  0  0  0  0  0  0  0  0  0  0  0
   -8.1220   20.2370  -33.3730 O   0  0  0  0  0  0  0  0  0  0  0  0
   -7.6380   18.8970  -31.3910 O   0  0  0  0  0  0  0  0  0  0  0  0
   -5.5820   20.1390  -32.5460 C   0  0  0  0  0  0  0  0  0  0  0  0
   -4.9500   21.2970  -33.0250 C   0  0  0  0  0  0  0  0  0  0  0  0
   -3.5920   21.2670  -33.3610 C   0  0  0  0  0  0  0  0  0  0  0  0
   -2.8610   20.0850  -33.2180 C   0  0  0  0  0  0  0  0  0  0  0  0
   -3.4860   18.9310  -32.7370 C   0  0  0  0  0  0  0  0  0  0  0  0
   -4.8430   18.9570  -32.4010 C   0  0  0  0  0  0  0  0  0  0  0  0
   -8.8108   21.5979  -29.3618 H   0  0  0  0  0  0  0  0  0  0  0  0
   -9.4756   22.5293  -30.7464 H   0  0  0  0  0  0  0  0  0  0  0  0
   -9.5625   20.7351  -30.7464 H   0  0  0  0  0  0  0  0  0  0  0  0
   -5.4446   21.4612  -29.5658 H   0  0  0  0  0  0  0  0  0  0  0  0
   -3.7721   23.2855  -29.2633 H   0  0  0  0  0  0  0  0  0  0  0  0
   -6.0108   25.8001  -31.9759 H   0  0  0  0  0  0  0  0  0  0  0  0
   -7.6911   23.9861  -32.2810 H   0  0  0  0  0  0  0  0  0  0  0  0
   -5.5230   22.2294  -33.1364 H   0  0  0  0  0  0  0  0  0  0  0  0
   -3.0993   22.1753  -33.7382 H   0  0  0  0  0  0  0  0  0  0  0  0
   -1.7939   20.0625  -33.4839 H   0  0  0  0  0  0  0  0  0  0  0  0
   -2.9095   18.0012  -32.6226 H   0  0  0  0  0  0  0  0  0  0  0  0
   -5.3318   18.0474  -32.0219 H   0  0  0  0  0  0  0  0  0  0  0  0
  1  2  1  0
  2  3  1  0
  3  4  2  0
  4  5  1  0
  5  6  2  0
  6  7  1  0
  6  8  1  0
  8  9  2  0
  2 10  1  0
 10 11  2  0
 10 12  2  0
 10 13  1  0
 13 14  2  0
 14 15  1  0
 15 16  2  0
 16 17  1  0
 17 18  2  0
  9  3  1  0
 18 13  1  0
  1 19  1  0
  1 20  1  0
  1 21  1  0
  4 22  1  0
  5 23  1  0
  8 24  1  0
  9 25  1  0
 14 26  1  0
 15 27  1  0
 16 28  1  0
 17 29  1  0
 18 30  1  0
M  CHG  1   7  -1
M  END
>  <UniqueID>  (11) 
10

>  <SMILES>  (11) 
CN(c1ccc([O-])cc1)S(=O)(=O)c1ccccc1

>  <Energy>  (11) 
34.84416891320526

>  <Genealogy>  (11) 
CN(c1ccc([O-])cc1)S(=O)(=O)c1ccccc1 (protonated)
CN(c1ccc([O-])cc1)S(=O)(=O)c1ccccc1 (3D coordinates assigned)
CN(c1ccc([O-])cc1)S(=O)(=O)c1ccccc1 (optimized conformer: 34.84416891320526 kcal/mol)

>  <smiles>  (11) 
CN(c1ccc(O)cc1)S(=O)(=O)c1ccccc1

>  <score_type>  (11) 
oracle

>  <origin>  (11) 
adgpu

>  <m_score__min__energy>  (11) 
-9.8499999999999996

>  <m_primary>  (11) 
energy

$$$$
11:0
     RDKit          3D

 29 31  0  0  0  0  0  0  0  0999 V2000
   -2.8920   22.5620  -31.1220 C   0  0  0  0  0  0  0  0  0  0  0  0
   -4.1170   23.3500  -31.0720 N   0  0  0  0  0  0  0  0  0  0  0  0
   -4.1560   24.6540  -30.8170 N   0  0  0  0  0  0  0  0  0  0  0  0
   -5.4510   25.0530  -30.8440 C   0  0  0  0  0  0  0  0  0  0  0  0
   -6.2370   23.9550  -31.1250 C   0  0  0  0  0  0  0  0  0  0  0  0
   -7.6130   23.8020  -31.2550 C   0  0  0  0  0  0  0  0  0  0  0  0
   -8.1000   22.5140  -31.5420 C   0  0  0  0  0  0  0  0  0  0  0  0
   -7.2140   21.4200  -31.7040 C   0  0  0  0  0  0  0  0  0  0  0  0
   -7.7530   20.1550  -31.9730 O   0  0  0  0  0  0  0  0  0  0  0  0
   -7.1270   19.1460  -32.7200 C   0  0  0  0  0  0  0  0  0  0  0  0
   -7.1930   17.7910  -32.3430 C   0  0  0  0  0  0  0  0  0  0  0  0
   -6.5420   16.8160  -33.1060 C   0  0  0  0  0  0  0  0  0  0  0  0
   -5.8120   17.1860  -34.2390 C   0  0  0  0  0  0  0  0  0  0  0  0
   -5.7260   18.5320  -34.6070 C   0  0  0  0  0  0  0  0  0  0  0  0
   -6.3760   19.5080  -33.8450 C   0  0  0  0  0  0  0  0  0  0  0  0
   -5.8200   21.6170  -31.5440 C   0  0  0  0  0  0  0  0  0  0  0  0
   -5.3740   22.9080  -31.2620 C   0  0  0  0  0  0  0  0  0  0  0  0
   -2.5539   22.3445  -30.0981 H   0  0  0  0  0  0  0  0  0  0  0  0
   -3.0847   21.6180  -31.6528 H   0  0  0  0  0  0  0  0  0  0  0  0
   -2.1129   23.1287  -31.6528 H   0  0  0  0  0  0  0  0  0  0  0  0
   -5.8132   26.0772  -30.6714 H   0  0  0  0  0  0  0  0  0  0  0  0
   -8.2954   24.6567  -31.1377 H   0  0  0  0  0  0  0  0  0  0  0  0
   -9.1837   22.3537  -31.6421 H   0  0  0  0  0  0  0  0  0  0  0  0
   -7.7582   17.4983  -31.4458 H   0  0  0  0  0  0  0  0  0  0  0  0
   -6.6046   15.7573  -32.8141 H   0  0  0  0  0  0  0  0  0  0  0  0
   -5.3049   16.4179  -34.8414 H   0  0  0  0  0  0  0  0  0  0  0  0
   -5.1471   18.8233  -35.4958 H   0  0  0  0  0  0  0  0  0  0  0  0
   -6.2968   20.5671  -34.1313 H   0  0  0  0  0  0  0  0  0  0  0  0
   -5.1131   20.7796  -31.6390 H   0  0  0  0  0  0  0  0  0  0  0  0
  1  2  1  0
  2  3  1  0
  3  4  2  0
  4  5  1  0
  5  6  2  0
  6  7  1  0
  7  8  2  0
  8  9  1  0
  9 10  1  0
 10 11  2  0
 11 12  1  0
 12 13  2  0
 13 14  1  0
 14 15  2  0
  8 16  1  0
 16 17  2  0
 17  2  1  0
 17  5  1  0
 15 10  1  0
  1 18  1  0
  1 19  1  0
  1 20  1  0
  4 21  1  0
  6 22  1  0
  7 23  1  0
 11 24  1  0
 12 25  1  0
 13 26  1  0
 14 27  1  0
 15 28  1  0
 16 29  1  0
M  END
>  <UniqueID>  (12) 
11

>  <SMILES>  (12) 
Cn1ncc2ccc(Oc3ccccc3)cc21

>  <Energy>  (12) 
75.88668831574313

>  <Genealogy>  (12) 
Cn1ncc2ccc(Oc3ccccc3)cc21 (3D coordinates assigned)
Cn1ncc2ccc(Oc3ccccc3)cc21 (optimized conformer: 75.88668831574313 kcal/mol)

>  <smiles>  (12) 
Cn1ncc2ccc(Oc3ccccc3)cc21

>  <score_type>  (12) 
oracle

>  <origin>  (12) 
adgpu

>  <m_score__min__energy>  (12) 
-7.1200000000000001

>  <m_primary>  (12) 
energy

$$$$
12:0
     RDKit          3D

 46 50  0  0  0  0  0  0  0  0999 V2000
    0.5690   24.6110  -27.3340 C   0  0  0  0  0  0  0  0  0  0  0  0
    0.1810   23.3610  -27.8280 C   0  0  0  0  0  0  0  0  0  0  0  0
   -1.0590   23.2110  -28.4630 C   0  0  0  0  0  0  0  0  0  0  0  0
   -1.9150   24.3200  -28.6220 C   0  0  0  0  0  0  0  0  0  0  0  0
   -3.1930   24.1780  -29.3530 C   0  0  0  0  0  0  0  0  0  0  0  0
   -3.5040   24.8770  -30.4730 N   0  0  0  0  0  0  0  0  0  0  0  0
   -4.7450   24.6590  -30.9070 N   0  0  0  0  0  0  0  0  0  0  0  0
   -5.4400   23.7860  -30.1350 C   0  0  0  0  0  0  0  0  0  0  0  0
   -6.8690   23.4150  -30.3670 C   0  0  0  0  0  0  0  0  0  0  0  0
   -7.2390   23.4520  -32.1550 S   0  0  0  0  0  0  0  0  0  0  0  0
   -7.4640   21.6770  -32.3160 C   0  0  0  0  0  0  0  0  0  0  0  0
   -8.6800   21.1000  -32.3580 N   0  0  0  0  0  0  0  0  0  0  0  0
   -8.4850   19.7950  -32.4610 N   0  0  0  0  0  0  0  0  0  0  0  0
   -7.1500   19.5910  -32.4920 C   0  0  0  0  0  0  0  0  0  0  0  0
   -6.5550   18.2420  -32.6400 C   0  0  0  0  0  0  0  0  0  0  0  0
   -6.4790   17.6060  -33.8920 C   0  0  0  0  0  0  0  0  0  0  0  0
   -5.9300   16.3240  -33.9800 C   0  0  0  0  0  0  0  0  0  0  0  0
   -5.4910   15.6890  -32.8590 N   0  0  0  0  0  0  0  0  0  0  0  0
   -5.5670   16.2720  -31.6340 C   0  0  0  0  0  0  0  0  0  0  0  0
   -6.1050   17.5550  -31.5010 C   0  0  0  0  0  0  0  0  0  0  0  0
   -6.4740   20.7620  -32.4080 N   0  0  0  0  0  0  0  0  0  0  0  0
   -5.0560   20.9830  -32.2990 C   0  0  0  0  0  0  0  0  0  0  0  0
   -4.3090   21.3700  -33.4230 C   0  0  0  0  0  0  0  0  0  0  0  0
   -2.9290   21.5650  -33.3200 C   0  0  0  0  0  0  0  0  0  0  0  0
   -2.2850   21.3710  -32.0960 C   0  0  0  0  0  0  0  0  0  0  0  0
   -3.0190   20.9820  -30.9750 C   0  0  0  0  0  0  0  0  0  0  0  0
   -4.3980   20.7930  -31.0740 C   0  0  0  0  0  0  0  0  0  0  0  0
   -4.5020   23.2330  -28.8510 S   0  0  0  0  0  0  0  0  0  0  0  0
   -1.5170   25.5720  -28.1140 C   0  0  0  0  0  0  0  0  0  0  0  0
   -0.2820   25.7120  -27.4700 C   0  0  0  0  0  0  0  0  0  0  0  0
    1.5440   24.7277  -26.8383 H   0  0  0  0  0  0  0  0  0  0  0  0
    0.8501   22.4949  -27.7178 H   0  0  0  0  0  0  0  0  0  0  0  0
   -1.3659   22.2239  -28.8390 H   0  0  0  0  0  0  0  0  0  0  0  0
   -7.0506   22.4023  -29.9779 H   0  0  0  0  0  0  0  0  0  0  0  0
   -7.5187   24.1350  -29.8480 H   0  0  0  0  0  0  0  0  0  0  0  0
   -6.8488   18.1138  -34.7950 H   0  0  0  0  0  0  0  0  0  0  0  0
   -5.8524   15.8266  -34.9580 H   0  0  0  0  0  0  0  0  0  0  0  0
   -5.2046   15.7335  -30.7459 H   0  0  0  0  0  0  0  0  0  0  0  0
   -6.1756   18.0245  -30.5087 H   0  0  0  0  0  0  0  0  0  0  0  0
   -4.8124   21.5205  -34.3894 H   0  0  0  0  0  0  0  0  0  0  0  0
   -2.3497   21.8715  -34.2035 H   0  0  0  0  0  0  0  0  0  0  0  0
   -1.1988   21.5249  -32.0157 H   0  0  0  0  0  0  0  0  0  0  0  0
   -2.5103   20.8242  -30.0126 H   0  0  0  0  0  0  0  0  0  0  0  0
   -4.9733   20.4930  -30.1857 H   0  0  0  0  0  0  0  0  0  0  0  0
   -2.1794   26.4433  -28.2238 H   0  0  0  0  0  0  0  0  0  0  0  0
    0.0198   26.6911  -27.0697 H   0  0  0  0  0  0  0  0  0  0  0  0
  1  2  2  0
  2  3  1  0
  3  4  2  0
  4  5  1  0
  5  6  2  0
  6  7  1  0
  7  8  2  0
  8  9  1  0
  9 10  1  0
 10 11  1  0
 11 12  2  0
 12 13  1  0
 13 14  2  0
 14 15  1  0
 15 16  2  0
 16 17  1  0
 17 18  2  0
 18 19  1  0
 19 20  2  0
 14 21  1  0
 21 22  1  0
 22 23  2  0
 23 24  1  0
 24 25  2  0
 25 26  1  0
 26 27  2  0
  8 28  1  0
  4 29  1  0
 29 30  2  0
 30  1  1  0
 28  5  1  0
 21 11  1  0
 27 22  1  0
 20 15  1  0
  1 31  1  0
  2 32  1  0
  3 33  1  0
  9 34  1  0
  9 35  1  0
 16 36  1  0
 17 37  1  0
 19 38  1  0
 20 39  1  0
 23 40  1  0
 24 41  1  0
 25 42  1  0
 26 43  1  0
 27 44  1  0
 29 45  1  0
 30 46  1  0
M  END
>  <UniqueID>  (13) 
12

>  <SMILES>  (13) 
c1ccc(-c2nnc(CSc3nnc(-c4ccncc4)n3-c3ccccc3)s2)cc1

>  <Energy>  (13) 
123.97937994169375

>  <Genealogy>  (13) 
c1ccc(-c2nnc(CSc3nnc(-c4ccncc4)n3-c3ccccc3)s2)cc1 (3D coordinates assigned)
c1ccc(-c2nnc(CSc3nnc(-c4ccncc4)n3-c3ccccc3)s2)cc1 (optimized conformer: 123.97937994169375 kcal/mol)

>  <smiles>  (13) 
c1ccc(-c2nnc(CSc3nnc(-c4ccncc4)n3-c3ccccc3)s2)cc1

>  <score_type>  (13) 
oracle

>  <origin>  (13) 
adgpu

>  <m_score__min__energy>  (13) 
-10.18

>  <m_primary>  (13) 
energy

$$$$
13:0
     RDKit          3D

 51 54  0  0  0  0  0  0  0  0999 V2000
   -5.7728   19.5743  -33.6677 H   0  0  0  0  0  0  0  0  0  0  0  0
   -5.0660   18.7980  -33.9960 C   0  0  0  0  0  0  0  0  0  0  0  0
   -3.7280   18.9970  -33.8610 N   0  0  0  0  0  0  0  0  0  0  0  0
   -2.8170   18.0630  -34.2540 C   0  0  0  0  0  0  0  0  0  0  0  0
   -1.5420   18.2850  -34.1440 N   0  0  0  0  0  0  0  0  0  0  0  0
   -0.8660   19.7580  -33.5180 S   0  0  0  0  0  0  0  0  0  0  0  0
   -1.3930   20.9160  -34.3150 O   0  0  0  0  0  0  0  0  0  0  0  0
    0.6310   19.7030  -33.6530 O   0  0  0  0  0  0  0  0  0  0  0  0
   -1.3160   19.9730  -31.8280 C   0  0  0  0  0  0  0  0  0  0  0  0
   -2.6160   20.3690  -31.4900 C   0  0  0  0  0  0  0  0  0  0  0  0
   -3.3434   20.5944  -32.2838 H   0  0  0  0  0  0  0  0  0  0  0  0
   -2.9930   20.4790  -30.1510 C   0  0  0  0  0  0  0  0  0  0  0  0
   -4.0177   20.7841  -29.8923 H   0  0  0  0  0  0  0  0  0  0  0  0
   -2.0670   20.2010  -29.1340 C   0  0  0  0  0  0  0  0  0  0  0  0
   -2.4420   20.3070  -27.7530 N   0  0  0  0  0  0  0  0  0  0  0  0
   -2.3930   21.3840  -27.0630 N   0  0  0  0  0  0  0  0  0  0  0  0
   -2.1260   22.6930  -27.5890 C   0  0  0  0  0  0  0  0  0  0  0  0
   -1.0130   23.4340  -27.1590 C   0  0  0  0  0  0  0  0  0  0  0  0
   -0.3662   23.0390  -26.3618 H   0  0  0  0  0  0  0  0  0  0  0  0
   -0.7250   24.6700  -27.7400 C   0  0  0  0  0  0  0  0  0  0  0  0
    0.1449   25.2482  -27.3952 H   0  0  0  0  0  0  0  0  0  0  0  0
   -1.5370   25.1750  -28.7570 C   0  0  0  0  0  0  0  0  0  0  0  0
   -1.2360   26.4060  -29.3280 O   0  0  0  0  0  0  0  0  0  0  0  0
   -2.6530   24.4470  -29.1980 C   0  0  0  0  0  0  0  0  0  0  0  0
   -3.4590   24.9860  -30.2530 N   0  0  0  0  0  0  0  0  0  0  0  0
   -5.1950   24.9810  -30.2910 S   0  0  0  0  0  0  0  0  0  0  0  0
   -5.6890   24.9350  -28.8720 O   0  0  0  0  0  0  0  0  0  0  0  0
   -5.7350   26.2230  -30.9390 O   0  0  0  0  0  0  0  0  0  0  0  0
   -5.7560   23.5530  -31.1610 C   0  0  0  0  0  0  0  0  0  0  0  0
   -4.8780   22.8250  -31.9790 C   0  0  0  0  0  0  0  0  0  0  0  0
   -3.8263   23.1352  -32.0671 H   0  0  0  0  0  0  0  0  0  0  0  0
   -5.3360   21.7070  -32.6820 C   0  0  0  0  0  0  0  0  0  0  0  0
   -4.6443   21.1383  -33.3208 H   0  0  0  0  0  0  0  0  0  0  0  0
   -6.6720   21.3110  -32.5740 C   0  0  0  0  0  0  0  0  0  0  0  0
   -7.0319   20.4331  -33.1306 H   0  0  0  0  0  0  0  0  0  0  0  0
   -7.5510   22.0300  -31.7590 C   0  0  0  0  0  0  0  0  0  0  0  0
   -9.3770   21.4940  -31.6250 Br  0  0  0  0  0  0  0  0  0  0  0  0
   -7.0940   23.1470  -31.0500 C   0  0  0  0  0  0  0  0  0  0  0  0
   -7.7858   23.7077  -30.4042 H   0  0  0  0  0  0  0  0  0  0  0  0
   -2.9270   23.1920  -28.6240 C   0  0  0  0  0  0  0  0  0  0  0  0
   -3.7770   22.5980  -28.9910 H   0  0  0  0  0  0  0  0  0  0  0  0
   -0.7500   19.8690  -29.4710 C   0  0  0  0  0  0  0  0  0  0  0  0
   -0.0049   19.7090  -28.6778 H   0  0  0  0  0  0  0  0  0  0  0  0
   -0.3780   19.7400  -30.8130 C   0  0  0  0  0  0  0  0  0  0  0  0
    0.6524   19.4552  -31.0723 H   0  0  0  0  0  0  0  0  0  0  0  0
   -3.2620   16.8550  -34.8050 C   0  0  0  0  0  0  0  0  0  0  0  0
   -2.5382   16.0876  -35.1169 H   0  0  0  0  0  0  0  0  0  0  0  0
   -4.6320   16.6330  -34.9550 C   0  0  0  0  0  0  0  0  0  0  0  0
   -4.9923   15.6897  -35.3912 H   0  0  0  0  0  0  0  0  0  0  0  0
   -5.5440   17.6090  -34.5510 C   0  0  0  0  0  0  0  0  0  0  0  0
   -6.6252   17.4439  -34.6682 H   0  0  0  0  0  0  0  0  0  0  0  0
  1  2  1  0
  2  3  1  0
  3  4  1  0
  4  5  2  0
  5  6  1  0
  6  7  2  0
  6  8  2  0
  6  9  1  0
  9 10  2  0
 10 11  1  0
 10 12  1  0
 12 13  1  0
 12 14  2  0
 14 15  1  0
 15 16  2  3
 16 17  1  0
 17 18  2  0
 18 19  1  0
 18 20  1  0
 20 21  1  0
 20 22  2  0
 22 23  1  0
 22 24  1  0
 24 25  1  0
 25 26  1  0
 26 27  2  0
 26 28  2  0
 26 29  1  0
 29 30  2  0
 30 31  1  0
 30 32  1  0
 32 33  1  0
 32 34  2  0
 34 35  1  0
 34 36  1  0
 36 37  1  0
 36 38  2  0
 38 39  1  0
 24 40  2  0
 40 41  1  0
 14 42  1  0
 42 43  1  0
 42 44  2  0
 44 45  1  0
  4 46  1  0
 46 47  1  0
 46 48  2  0
 48 49  1  0
 48 50  1  0
 50 51  1  0
 50  2  2  0
 44  9  1  0
 40 17  1  0
 38 29  1  0
M  CHG  3   3  -1  23  -1  25  -1
M  END
>  <UniqueID>  (14) 
13

>  <SMILES>  (14) 
O=S(=O)(/N=c1/cccc[n-]1)c1ccc(N=Nc2ccc([O-])c([N-]S(=O)(=O)c3cccc(Br)c3)c2)cc1

>  <Energy>  (14) 
76.64745146543571

>  <Genealogy>  (14) 
O=S(=O)(N=c1cccc[n-]1)c1ccc(N=Nc2ccc([O-])c([N-]S(=O)(=O)c3cccc(Br)c3)c2)cc1 (protonated)
O=S(=O)(/N=c1/cccc[n-]1)c1ccc(N=Nc2ccc([O-])c([N-]S(=O)(=O)c3cccc(Br)c3)c2)cc1 (cis-trans isomerization)
O=S(=O)(/N=c1/cccc[n-]1)c1ccc(N=Nc2ccc([O-])c([N-]S(=O)(=O)c3cccc(Br)c3)c2)cc1 (3D coordinates assigned)
O=S(=O)(/N=c1/cccc[n-]1)c1ccc(N=Nc2ccc([O-])c([N-]S(=O)(=O)c3cccc(Br)c3)c2)cc1 (optimized conformer: 76.64745146543571 kcal/mol)

>  <smiles>  (14) 
O=S(=O)(N=c1cccc[nH]1)c1ccc(N=Nc2ccc(O)c(NS(=O)(=O)c3cccc(Br)c3)c2)cc1

>  <score_type>  (14) 
oracle

>  <origin>  (14) 
adgpu

>  <m_score__min__energy>  (14) 
-15.82

>  <m_primary>  (14) 
energy

$$$$
14:0
     RDKit          3D

 45 48  0  0  0  0  0  0  0  0999 V2000
   -3.8030   25.6670  -30.8250 O   0  0  0  0  0  0  0  0  0  0  0  0
   -3.7860   24.5590  -29.9880 C   0  0  0  0  0  0  0  0  0  0  0  0
   -4.9830   24.0460  -29.4830 C   0  0  0  0  0  0  0  0  0  0  0  0
   -4.9640   22.9370  -28.6350 C   0  0  0  0  0  0  0  0  0  0  0  0
   -3.7510   22.3320  -28.2950 C   0  0  0  0  0  0  0  0  0  0  0  0
   -2.5410   22.8270  -28.8140 C   0  0  0  0  0  0  0  0  0  0  0  0
   -1.2410   22.2110  -28.4650 C   0  0  0  0  0  0  0  0  0  0  0  0
   -0.3340   22.8150  -27.6720 N   0  0  0  0  0  0  0  0  0  0  0  0
    0.7450   22.0500  -27.5990 N   0  0  0  0  0  0  0  0  0  0  0  0
    0.5460   20.9530  -28.3520 C   0  0  0  0  0  0  0  0  0  0  0  0
   -0.7060   21.0150  -28.9250 C   0  0  0  0  0  0  0  0  0  0  0  0
   -1.2750   20.0350  -29.9140 C   0  0  0  0  0  0  0  0  0  0  0  0
   -0.5640   20.0940  -31.2130 N   0  0  0  0  0  0  0  0  0  0  0  0
   -1.0240   19.0330  -32.1490 C   0  0  0  0  0  0  0  0  0  0  0  0
   -2.0430   19.5220  -33.1970 C   0  0  0  0  0  0  0  0  0  0  0  0
   -2.7720   20.6920  -32.7000 N   0  0  0  0  0  0  0  0  0  0  0  0
   -4.2120   20.7130  -32.6500 C   0  0  0  0  0  0  0  0  0  0  0  0
   -4.9510   19.5480  -32.9250 C   0  0  0  0  0  0  0  0  0  0  0  0
   -6.3480   19.5750  -32.8920 C   0  0  0  0  0  0  0  0  0  0  0  0
   -7.0210   20.7620  -32.5920 C   0  0  0  0  0  0  0  0  0  0  0  0
   -6.2970   21.9290  -32.3290 C   0  0  0  0  0  0  0  0  0  0  0  0
   -7.1410   23.4220  -31.9690 Cl  0  0  0  0  0  0  0  0  0  0  0  0
   -4.8980   21.9060  -32.3600 C   0  0  0  0  0  0  0  0  0  0  0  0
   -2.0000   21.8570  -32.2550 C   0  0  0  0  0  0  0  0  0  0  0  0
   -0.5800   21.4360  -31.8390 C   0  0  0  0  0  0  0  0  0  0  0  0
   -2.5680   23.9570  -29.6500 C   0  0  0  0  0  0  0  0  0  0  0  0
   -5.9403   24.5156  -29.7533 H   0  0  0  0  0  0  0  0  0  0  0  0
   -5.9071   22.5381  -28.2331 H   0  0  0  0  0  0  0  0  0  0  0  0
   -3.7424   21.4647  -27.6184 H   0  0  0  0  0  0  0  0  0  0  0  0
    1.2688   20.1352  -28.4888 H   0  0  0  0  0  0  0  0  0  0  0  0
   -1.1829   19.0189  -29.5027 H   0  0  0  0  0  0  0  0  0  0  0  0
   -2.3296   20.2952  -30.0875 H   0  0  0  0  0  0  0  0  0  0  0  0
   -0.1463   18.6348  -32.6791 H   0  0  0  0  0  0  0  0  0  0  0  0
   -1.5329   18.2704  -31.5412 H   0  0  0  0  0  0  0  0  0  0  0  0
   -1.5102   19.7933  -34.1203 H   0  0  0  0  0  0  0  0  0  0  0  0
   -2.7623   18.7141  -33.3965 H   0  0  0  0  0  0  0  0  0  0  0  0
   -4.4270   18.6116  -33.1671 H   0  0  0  0  0  0  0  0  0  0  0  0
   -6.9193   18.6589  -33.1029 H   0  0  0  0  0  0  0  0  0  0  0  0
   -8.1205   20.7785  -32.5627 H   0  0  0  0  0  0  0  0  0  0  0  0
   -4.3315   22.8266  -32.1563 H   0  0  0  0  0  0  0  0  0  0  0  0
   -1.9354   22.5842  -33.0778 H   0  0  0  0  0  0  0  0  0  0  0  0
   -2.5052   22.3085  -31.3884 H   0  0  0  0  0  0  0  0  0  0  0  0
    0.0622   21.4198  -32.7319 H   0  0  0  0  0  0  0  0  0  0  0  0
   -0.2117   22.1621  -31.0993 H   0  0  0  0  0  0  0  0  0  0  0  0
   -1.6266   24.3706  -30.0408 H   0  0  0  0  0  0  0  0  0  0  0  0
  1  2  1  0
  2  3  2  0
  3  4  1  0
  4  5  2  0
  5  6  1  0
  6  7  1  0
  7  8  1  0
  8  9  1  0
  9 10  2  0
 10 11  1  0
 11 12  1  0
 12 13  1  0
 13 14  1  0
 14 15  1  0
 15 16  1  0
 16 17  1  0
 17 18  2  0
 18 19  1  0
 19 20  2  0
 20 21  1  0
 21 22  1  0
 21 23  2  0
 16 24  1  0
 24 25  1  0
  6 26  2  0
 26  2  1  0
 11  7  2  0
 25 13  1  0
 23 17  1  0
  3 27  1  0
  4 28  1  0
  5 29  1  0
 10 30  1  0
 12 31  1  0
 12 32  1  0
 14 33  1  0
 14 34  1  0
 15 35  1  0
 15 36  1  0
 18 37  1  0
 19 38  1  0
 20 39  1  0
 23 40  1  0
 24 41  1  0
 24 42  1  0
 25 43  1  0
 25 44  1  0
 26 45  1  0
M  CHG  2   1  -1   8  -1
M  END
>  <UniqueID>  (15) 
14

>  <SMILES>  (15) 
[O-]c1cccc(-c2[n-]ncc2CN2CCN(c3cccc(Cl)c3)CC2)c1

>  <Energy>  (15) 
94.88703903875079

>  <Genealogy>  (15) 
[O-]c1cccc(-c2[n-]ncc2CN2CCN(c3cccc(Cl)c3)CC2)c1 (protonated)
[O-]c1cccc(-c2[n-]ncc2CN2CCN(c3cccc(Cl)c3)CC2)c1 (3D coordinates assigned)
[O-]c1cccc(-c2[n-]ncc2CN2CCN(c3cccc(Cl)c3)CC2)c1 (nonaromatic ring conformer: 94.88703903875079 kcal/mol)

>  <smiles>  (15) 
Oc1cccc(-c2[nH]ncc2CN2CCN(c3cccc(Cl)c3)CC2)c1

>  <score_type>  (15) 
oracle

>  <origin>  (15) 
adgpu

>  <m_score__min__energy>  (15) 
-11.27

>  <m_primary>  (15) 
energy

$$$$
15:0
     RDKit          3D

 29 30  0  0  0  0  0  0  0  0999 V2000
   -0.2356   25.8221  -28.2619 H   0  0  0  0  0  0  0  0  0  0  0  0
   -1.0120   25.0610  -28.4290 C   0  0  0  0  0  0  0  0  0  0  0  0
   -1.9930   25.2800  -29.3430 N   0  0  0  0  0  0  0  0  0  0  0  0
   -2.9600   24.3530  -29.5720 C   0  0  0  0  0  0  0  0  0  0  0  0
   -3.8950   24.6140  -30.4390 N   0  0  0  0  0  0  0  0  0  0  0  0
   -4.9640   23.7420  -30.8440 C   0  0  0  0  0  0  0  0  0  0  0  0
   -6.3170   24.0740  -30.6420 C   0  0  0  0  0  0  0  0  0  0  0  0
   -6.5816   25.0388  -30.1847 H   0  0  0  0  0  0  0  0  0  0  0  0
   -7.3260   23.1830  -31.0200 C   0  0  0  0  0  0  0  0  0  0  0  0
   -8.3814   23.4577  -30.8759 H   0  0  0  0  0  0  0  0  0  0  0  0
   -6.9990   21.9430  -31.5810 C   0  0  0  0  0  0  0  0  0  0  0  0
   -8.2710   20.8290  -32.0720 S   0  0  0  0  0  0  0  0  0  0  0  0
   -8.5670   19.8690  -30.9540 O   0  0  0  0  0  0  0  0  0  0  0  0
   -9.5230   21.5960  -32.3920 O   0  0  0  0  0  0  0  0  0  0  0  0
   -7.7630   19.9470  -33.4690 N   0  0  0  0  0  0  0  0  0  0  0  0
   -8.1980   20.4100  -34.2970 H   0  0  0  0  0  0  0  0  0  0  0  0
   -8.1860   18.9950  -33.3990 H   0  0  0  0  0  0  0  0  0  0  0  0
   -5.6530   21.6000  -31.7620 C   0  0  0  0  0  0  0  0  0  0  0  0
   -5.3896   20.6276  -32.2036 H   0  0  0  0  0  0  0  0  0  0  0  0
   -4.6430   22.4900  -31.3830 C   0  0  0  0  0  0  0  0  0  0  0  0
   -3.5883   22.2044  -31.5093 H   0  0  0  0  0  0  0  0  0  0  0  0
   -2.9570   23.1900  -28.8630 N   0  0  0  0  0  0  0  0  0  0  0  0
   -1.9910   22.9260  -27.9420 C   0  0  0  0  0  0  0  0  0  0  0  0
   -2.0230   21.6430  -27.1760 C   0  0  0  0  0  0  0  0  0  0  0  0
   -2.0176   21.8596  -26.0976 H   0  0  0  0  0  0  0  0  0  0  0  0
   -2.9353   21.0850  -27.4333 H   0  0  0  0  0  0  0  0  0  0  0  0
   -1.1396   21.0402  -27.4333 H   0  0  0  0  0  0  0  0  0  0  0  0
   -0.9900   23.8710  -27.7030 C   0  0  0  0  0  0  0  0  0  0  0  0
   -0.2025   23.6804  -26.9590 H   0  0  0  0  0  0  0  0  0  0  0  0
  1  2  1  0
  2  3  1  0
  3  4  1  0
  4  5  2  0
  5  6  1  0
  6  7  2  0
  7  8  1  0
  7  9  1  0
  9 10  1  0
  9 11  2  0
 11 12  1  0
 12 13  2  0
 12 14  2  0
 12 15  1  0
 15 16  1  0
 15 17  1  0
 11 18  1  0
 18 19  1  0
 18 20  2  0
 20 21  1  0
  4 22  1  0
 22 23  2  0
 23 24  1  0
 24 25  1  0
 24 26  1  0
 24 27  1  0
 23 28  1  0
 28 29  1  0
 28  2  2  0
 20  6  1  0
M  CHG  1   3  -1
M  END
>  <UniqueID>  (16) 
15

>  <SMILES>  (16) 
Cc1cc[n-]/c(=N/c2ccc(S(N)(=O)=O)cc2)n1

>  <Energy>  (16) 
33.93471794537989

>  <Genealogy>  (16) 
Cc1cc[n-]c(=Nc2ccc(S(N)(=O)=O)cc2)n1 (protonated)
Cc1cc[n-]/c(=N/c2ccc(S(N)(=O)=O)cc2)n1 (cis-trans isomerization)
Cc1cc[n-]/c(=N/c2ccc(S(N)(=O)=O)cc2)n1 (3D coordinates assigned)
Cc1cc[n-]/c(=N/c2ccc(S(N)(=O)=O)cc2)n1 (optimized conformer: 33.93471794537989 kcal/mol)

>  <smiles>  (16) 
Cc1cc[nH]c(=Nc2ccc(S(N)(=O)=O)cc2)n1

>  <score_type>  (16) 
oracle

>  <origin>  (16) 
adgpu

>  <m_score__min__energy>  (16) 
-8.6300000000000008

>  <m_primary>  (16) 
energy

$$$$
16:0
     RDKit          3D

 36 38  0  0  0  0  0  0  0  0999 V2000
   -6.4190   17.0720  -32.2590 C   0  0  0  0  0  0  0  0  0  0  0  0
   -7.2850   18.3050  -32.2900 C   0  0  0  0  0  0  0  0  0  0  0  0
   -8.6460   18.1870  -31.9530 C   0  0  0  0  0  0  0  0  0  0  0  0
   -9.4790   19.3080  -31.9580 C   0  0  0  0  0  0  0  0  0  0  0  0
   -8.9640   20.5580  -32.2960 C   0  0  0  0  0  0  0  0  0  0  0  0
   -7.6150   20.6950  -32.6240 C   0  0  0  0  0  0  0  0  0  0  0  0
   -6.7600   19.5800  -32.6170 C   0  0  0  0  0  0  0  0  0  0  0  0
   -5.0520   19.8050  -33.0340 S   0  0  0  0  0  0  0  0  0  0  0  0
   -4.7850   19.1740  -34.3710 O   0  0  0  0  0  0  0  0  0  0  0  0
   -4.1920   19.1710  -31.9770 O   0  0  0  0  0  0  0  0  0  0  0  0
   -4.6790   21.4970  -33.1190 N   0  0  0  0  0  0  0  0  0  0  0  0
   -4.9260   22.4540  -32.0800 C   0  0  0  0  0  0  0  0  0  0  0  0
   -5.6880   23.6160  -32.2990 C   0  0  0  0  0  0  0  0  0  0  0  0
   -5.9050   24.5200  -31.2570 C   0  0  0  0  0  0  0  0  0  0  0  0
   -5.3670   24.2790  -29.9860 C   0  0  0  0  0  0  0  0  0  0  0  0
   -5.5840   25.1830  -28.9470 O   0  0  0  0  0  0  0  0  0  0  0  0
   -4.6080   23.1210  -29.7620 C   0  0  0  0  0  0  0  0  0  0  0  0
   -3.9090   22.7840  -28.1440 S   0  0  0  0  0  0  0  0  0  0  0  0
   -2.5770   23.9540  -28.3820 C   0  0  0  0  0  0  0  0  0  0  0  0
   -1.3100   23.7310  -27.9840 N   0  0  0  0  0  0  0  0  0  0  0  0
   -0.6980   24.8640  -28.3780 C   0  0  0  0  0  0  0  0  0  0  0  0
   -1.5430   25.7220  -28.9770 N   0  0  0  0  0  0  0  0  0  0  0  0
   -2.7330   25.1460  -28.9800 N   0  0  0  0  0  0  0  0  0  0  0  0
   -4.3890   22.2170  -30.8090 C   0  0  0  0  0  0  0  0  0  0  0  0
   -6.2206   16.7895  -31.2146 H   0  0  0  0  0  0  0  0  0  0  0  0
   -6.9371   16.2471  -32.7699 H   0  0  0  0  0  0  0  0  0  0  0  0
   -5.4672   17.2795  -32.7699 H   0  0  0  0  0  0  0  0  0  0  0  0
   -9.0575   17.2032  -31.6832 H   0  0  0  0  0  0  0  0  0  0  0  0
  -10.5420   19.2042  -31.6950 H   0  0  0  0  0  0  0  0  0  0  0  0
   -9.6228   21.4389  -32.3042 H   0  0  0  0  0  0  0  0  0  0  0  0
   -7.2169   21.6852  -32.8906 H   0  0  0  0  0  0  0  0  0  0  0  0
   -6.1141   23.8131  -33.2938 H   0  0  0  0  0  0  0  0  0  0  0  0
   -6.5019   25.4267  -31.4351 H   0  0  0  0  0  0  0  0  0  0  0  0
   -4.8140   25.5800  -28.4200 H   0  0  0  0  0  0  0  0  0  0  0  0
    0.3728   25.0652  -28.2269 H   0  0  0  0  0  0  0  0  0  0  0  0
   -3.7894   21.3121  -30.6310 H   0  0  0  0  0  0  0  0  0  0  0  0
  1  2  1  0
  2  3  2  0
  3  4  1  0
  4  5  2  0
  5  6  1  0
  6  7  2  0
  7  8  1  0
  8  9  2  0
  8 10  2  0
  8 11  1  0
 11 12  1  0
 12 13  2  0
 13 14  1  0
 14 15  2  0
 15 16  1  0
 15 17  1  0
 17 18  1  0
 18 19  1  0
 19 20  1  0
 20 21  2  0
 21 22  1  0
 22 23  1  0
 17 24  2  0
  7  2  1  0
 24 12  1  0
 23 19  2  0
  1 25  1  0
  1 26  1  0
  1 27  1  0
  3 28  1  0
  4 29  1  0
  5 30  1  0
  6 31  1  0
 13 32  1  0
 14 33  1  0
 16 34  1  0
 21 35  1  0
 24 36  1  0
M  CHG  2  11  -1  22  -1
M  END
>  <UniqueID>  (17) 
16

>  <SMILES>  (17) 
Cc1ccccc1S(=O)(=O)[N-]c1ccc(O)c(Sc2nc[n-]n2)c1

>  <Energy>  (17) 
71.80062864290475

>  <Genealogy>  (17) 
Cc1ccccc1S(=O)(=O)[N-]c1ccc(O)c(Sc2nc[n-]n2)c1 (protonated)
Cc1ccccc1S(=O)(=O)[N-]c1ccc(O)c(Sc2nc[n-]n2)c1 (3D coordinates assigned)
Cc1ccccc1S(=O)(=O)[N-]c1ccc(O)c(Sc2nc[n-]n2)c1 (optimized conformer: 71.80062864290475 kcal/mol)

>  <smiles>  (17) 
Cc1ccccc1S(=O)(=O)Nc1ccc(O)c(Sc2nc[nH]n2)c1

>  <score_type>  (17) 
oracle

>  <origin>  (17) 
adgpu

>  <m_score__min__energy>  (17) 
-9.4499999999999993

>  <m_primary>  (17) 
energy

$$$$
17:0
     RDKit          3D

 43 45  0  0  0  0  0  0  0  0999 V2000
    0.8640   18.7310  -27.7700 O   0  0  0  0  0  0  0  0  0  0  0  0
   -0.4340   19.1780  -27.5630 C   0  0  0  0  0  0  0  0  0  0  0  0
   -1.3100   18.4380  -26.7620 C   0  0  0  0  0  0  0  0  0  0  0  0
   -2.6170   18.8850  -26.5570 C   0  0  0  0  0  0  0  0  0  0  0  0
   -3.0540   20.0730  -27.1520 C   0  0  0  0  0  0  0  0  0  0  0  0
   -2.1830   20.8280  -27.9590 C   0  0  0  0  0  0  0  0  0  0  0  0
   -2.6350   22.1060  -28.5680 C   0  0  0  0  0  0  0  0  0  0  0  0
   -1.7410   23.1760  -28.7420 C   0  0  0  0  0  0  0  0  0  0  0  0
   -2.1620   24.3550  -29.3620 C   0  0  0  0  0  0  0  0  0  0  0  0
   -3.4750   24.4830  -29.8230 C   0  0  0  0  0  0  0  0  0  0  0  0
   -3.8590   25.6540  -30.4700 O   0  0  0  0  0  0  0  0  0  0  0  0
   -4.3890   23.4300  -29.6390 C   0  0  0  0  0  0  0  0  0  0  0  0
   -5.7820   23.4870  -30.2010 C   0  0  0  0  0  0  0  0  0  0  0  0
   -5.6910   23.7550  -31.6410 N   0  0  0  0  0  0  0  0  0  0  0  0
   -6.9810   23.6340  -32.3380 C   0  0  0  0  0  0  0  0  0  0  0  0
   -7.9400   22.7930  -31.4910 C   0  0  0  0  0  0  0  0  0  0  0  0
   -7.9100   21.3430  -31.9130 C   0  0  0  0  0  0  0  0  0  0  0  0
   -9.1000   20.6010  -31.9770 C   0  0  0  0  0  0  0  0  0  0  0  0
   -9.0670   19.2420  -32.3080 C   0  0  0  0  0  0  0  0  0  0  0  0
   -7.8460   18.6150  -32.5710 C   0  0  0  0  0  0  0  0  0  0  0  0
   -6.6560   19.3430  -32.4960 C   0  0  0  0  0  0  0  0  0  0  0  0
   -6.6840   20.7020  -32.1650 C   0  0  0  0  0  0  0  0  0  0  0  0
   -3.9600   22.2460  -29.0140 C   0  0  0  0  0  0  0  0  0  0  0  0
   -0.8660   20.3670  -28.1580 C   0  0  0  0  0  0  0  0  0  0  0  0
   -0.9691   17.5031  -26.2932 H   0  0  0  0  0  0  0  0  0  0  0  0
   -3.3041   18.3017  -25.9264 H   0  0  0  0  0  0  0  0  0  0  0  0
   -4.0851   20.4193  -26.9880 H   0  0  0  0  0  0  0  0  0  0  0  0
   -0.7035   23.0848  -28.3879 H   0  0  0  0  0  0  0  0  0  0  0  0
   -1.4551   25.1883  -29.4882 H   0  0  0  0  0  0  0  0  0  0  0  0
   -6.2896   22.5256  -30.0336 H   0  0  0  0  0  0  0  0  0  0  0  0
   -6.3571   24.2825  -29.7046 H   0  0  0  0  0  0  0  0  0  0  0  0
   -5.3150   24.7220  -31.7810 H   0  0  0  0  0  0  0  0  0  0  0  0
   -7.4098   24.6351  -32.4928 H   0  0  0  0  0  0  0  0  0  0  0  0
   -6.8278   23.1469  -33.3123 H   0  0  0  0  0  0  0  0  0  0  0  0
   -7.6438   22.8657  -30.4341 H   0  0  0  0  0  0  0  0  0  0  0  0
   -8.9607   23.1772  -31.6340 H   0  0  0  0  0  0  0  0  0  0  0  0
  -10.0624   21.0901  -31.7660 H   0  0  0  0  0  0  0  0  0  0  0  0
  -10.0029   18.6665  -32.3613 H   0  0  0  0  0  0  0  0  0  0  0  0
   -7.8219   17.5480  -32.8371 H   0  0  0  0  0  0  0  0  0  0  0  0
   -5.6952   18.8468  -32.6976 H   0  0  0  0  0  0  0  0  0  0  0  0
   -5.7445   21.2706  -32.1017 H   0  0  0  0  0  0  0  0  0  0  0  0
   -4.6708   21.4186  -28.8723 H   0  0  0  0  0  0  0  0  0  0  0  0
   -0.1733   20.9468  -28.7858 H   0  0  0  0  0  0  0  0  0  0  0  0
  1  2  1  0
  2  3  2  0
  3  4  1  0
  4  5  2  0
  5  6  1  0
  6  7  1  0
  7  8  2  0
  8  9  1  0
  9 10  2  0
 10 11  1  0
 10 12  1  0
 12 13  1  0
 13 14  1  0
 14 15  1  0
 15 16  1  0
 16 17  1  0
 17 18  2  0
 18 19  1  0
 19 20  2  0
 20 21  1  0
 21 22  2  0
 12 23  2  0
  6 24  2  0
 24  2  1  0
 23  7  1  0
 22 17  1  0
  3 25  1  0
  4 26  1  0
  5 27  1  0
  8 28  1  0
  9 29  1  0
 13 30  1  0
 13 31  1  0
 14 32  1  0
 15 33  1  0
 15 34  1  0
 16 35  1  0
 16 36  1  0
 18 37  1  0
 19 38  1  0
 20 39  1  0
 21 40  1  0
 22 41  1  0
 23 42  1  0
 24 43  1  0
M  CHG  2   1  -1  11  -1
M  END
>  <UniqueID>  (18) 
17

>  <SMILES>  (18) 
[O-]c1cccc(-c2ccc([O-])c(CNCCc3ccccc3)c2)c1

>  <Energy>  (18) 
46.121444333966

>  <Genealogy>  (18) 
[O-]c1cccc(-c2ccc([O-])c(CNCCc3ccccc3)c2)c1 (protonated)
[O-]c1cccc(-c2ccc([O-])c(CNCCc3ccccc3)c2)c1 (3D coordinates assigned)
[O-]c1cccc(-c2ccc([O-])c(CNCCc3ccccc3)c2)c1 (optimized conformer: 46.121444333966 kcal/mol)

>  <smiles>  (18) 
Oc1cccc(-c2ccc(O)c(CNCCc3ccccc3)c2)c1

>  <score_type>  (18) 
oracle

>  <origin>  (18) 
adgpu

>  <m_score__min__energy>  (18) 
-12.039999999999999

>  <m_primary>  (18) 
energy

$$$$
18:0
     RDKit          3D

 42 46  0  0  0  0  0  0  0  0999 V2000
    1.0880   24.9940  -23.3600 H   0  0  0  0  0  0  0  0  0  0  0  0
    1.2750   25.3270  -24.3000 O   0  0  0  0  0  0  0  0  0  0  0  0
    1.3300   26.6890  -24.5960 C   0  0  0  0  0  0  0  0  0  0  0  0
    2.3070   27.4890  -23.9830 C   0  0  0  0  0  0  0  0  0  0  0  0
    3.0276   27.0346  -23.2871 H   0  0  0  0  0  0  0  0  0  0  0  0
    2.3700   28.8580  -24.2510 C   0  0  0  0  0  0  0  0  0  0  0  0
    3.3390   29.6420  -23.6380 O   0  0  0  0  0  0  0  0  0  0  0  0
    1.4590   29.4370  -25.1340 C   0  0  0  0  0  0  0  0  0  0  0  0
    1.5085   30.5156  -25.3443 H   0  0  0  0  0  0  0  0  0  0  0  0
    0.4840   28.6510  -25.7520 C   0  0  0  0  0  0  0  0  0  0  0  0
   -0.2295   29.1161  -26.4481 H   0  0  0  0  0  0  0  0  0  0  0  0
    0.4050   27.2690  -25.4930 C   0  0  0  0  0  0  0  0  0  0  0  0
   -0.6290   26.4410  -26.1680 C   0  0  0  0  0  0  0  0  0  0  0  0
   -0.6740   26.3100  -27.5240 N   0  0  0  0  0  0  0  0  0  0  0  0
   -1.6850   25.5160  -27.9280 C   0  0  0  0  0  0  0  0  0  0  0  0
   -1.9300   25.2960  -29.1860 N   0  0  0  0  0  0  0  0  0  0  0  0
   -2.9500   24.4380  -29.7220 C   0  0  0  0  0  0  0  0  0  0  0  0
   -4.2190   24.9300  -30.0690 C   0  0  0  0  0  0  0  0  0  0  0  0
   -4.4385   26.0026  -29.9630 H   0  0  0  0  0  0  0  0  0  0  0  0
   -5.2050   24.0610  -30.5490 C   0  0  0  0  0  0  0  0  0  0  0  0
   -6.1903   24.4575  -30.8352 H   0  0  0  0  0  0  0  0  0  0  0  0
   -4.9450   22.6850  -30.6680 C   0  0  0  0  0  0  0  0  0  0  0  0
   -5.9880   21.7650  -31.1760 C   0  0  0  0  0  0  0  0  0  0  0  0
   -7.2580   22.1680  -31.4540 N   0  0  0  0  0  0  0  0  0  0  0  0
   -7.8400   21.0380  -31.8770 C   0  0  0  0  0  0  0  0  0  0  0  0
   -9.1560   20.8610  -32.2990 C   0  0  0  0  0  0  0  0  0  0  0  0
   -9.8664   21.7006  -32.3167 H   0  0  0  0  0  0  0  0  0  0  0  0
   -9.5440   19.5690  -32.7020 C   0  0  0  0  0  0  0  0  0  0  0  0
  -10.5746   19.3887  -33.0415 H   0  0  0  0  0  0  0  0  0  0  0  0
   -8.6170   18.5020  -32.6730 C   0  0  0  0  0  0  0  0  0  0  0  0
   -8.9303   17.4962  -32.9896 H   0  0  0  0  0  0  0  0  0  0  0  0
   -7.2950   18.7200  -32.2410 C   0  0  0  0  0  0  0  0  0  0  0  0
   -6.5622   17.9001  -32.2130 H   0  0  0  0  0  0  0  0  0  0  0  0
   -6.9480   20.0120  -31.8500 C   0  0  0  0  0  0  0  0  0  0  0  0
   -5.7590   20.4430  -31.4070 N   0  0  0  0  0  0  0  0  0  0  0  0
   -3.6860   22.1940  -30.2860 C   0  0  0  0  0  0  0  0  0  0  0  0
   -3.4727   21.1178  -30.3651 H   0  0  0  0  0  0  0  0  0  0  0  0
   -2.7020   23.0630  -29.8060 C   0  0  0  0  0  0  0  0  0  0  0  0
   -1.7263   22.6636  -29.4922 H   0  0  0  0  0  0  0  0  0  0  0  0
   -2.5900   24.9540  -26.6210 S   0  0  0  0  0  0  0  0  0  0  0  0
   -1.6330   25.7450  -25.4870 C   0  0  0  0  0  0  0  0  0  0  0  0
   -1.7727   25.7194  -24.3962 H   0  0  0  0  0  0  0  0  0  0  0  0
  1  2  1  0
  2  3  1  0
  3  4  2  0
  4  5  1  0
  4  6  1  0
  6  7  1  0
  6  8  2  0
  8  9  1  0
  8 10  1  0
 10 11  1  0
 10 12  2  0
 12 13  1  0
 13 14  1  0
 14 15  1  0
 15 16  2  0
 16 17  1  0
 17 18  2  0
 18 19  1  0
 18 20  1  0
 20 21  1  0
 20 22  2  0
 22 23  1  0
 23 24  2  0
 24 25  1  0
 25 26  2  0
 26 27  1  0
 26 28  1  0
 28 29  1  0
 28 30  2  0
 30 31  1  0
 30 32  1  0
 32 33  1  0
 32 34  2  0
 34 35  1  0
 22 36  1  0
 36 37  1  0
 36 38  2  0
 38 39  1  0
 15 40  1  0
 40 41  1  0
 41 42  1  0
 12  3  1  0
 41 13  2  0
 38 17  1  0
 35 23  1  0
 34 25  1  0
M  CHG  3   7  -1  14  -1  35  -1
M  END
>  <UniqueID>  (19) 
18

>  <SMILES>  (19) 
[O-]c1ccc(-c2cs/c(=N\c3ccc(-c4nc5ccccc5[n-]4)cc3)[n-]2)c(O)c1

>  <Energy>  (19) 
125.67810820389475

>  <Genealogy>  (19) 
[O-]c1ccc(-c2csc(=Nc3ccc(-c4nc5ccccc5[n-]4)cc3)[n-]2)c(O)c1 (protonated)
[O-]c1ccc(-c2cs/c(=N\c3ccc(-c4nc5ccccc5[n-]4)cc3)[n-]2)c(O)c1 (cis-trans isomerization)
[O-]c1ccc(-c2cs/c(=N\c3ccc(-c4nc5ccccc5[n-]4)cc3)[n-]2)c(O)c1 (3D coordinates assigned)
[O-]c1ccc(-c2cs/c(=N\c3ccc(-c4nc5ccccc5[n-]4)cc3)[n-]2)c(O)c1 (optimized conformer: 125.67810820389475 kcal/mol)

>  <smiles>  (19) 
Oc1ccc(-c2csc(=Nc3ccc(-c4nc5ccccc5[nH]4)cc3)[nH]2)c(O)c1

>  <score_type>  (19) 
oracle

>  <origin>  (19) 
adgpu

>  <m_score__min__energy>  (19) 
-9.1500000000000004

>  <m_primary>  (19) 
energy

$$$$
19:0
     RDKit          3D

 33 34  0  0  0  0  0  0  0  0999 V2000
   -5.8040   25.6550  -30.4370 C   0  0  0  0  0  0  0  0  0  0  0  0
   -4.7460   24.6290  -30.2060 C   0  0  0  0  0  0  0  0  0  0  0  0
   -3.4620   24.9270  -29.9180 N   0  0  0  0  0  0  0  0  0  0  0  0
   -2.8160   23.7840  -29.7260 N   0  0  0  0  0  0  0  0  0  0  0  0
   -1.4130   23.7100  -29.3360 C   0  0  0  0  0  0  0  0  0  0  0  0
   -3.6620   22.7430  -29.8830 C   0  0  0  0  0  0  0  0  0  0  0  0
   -3.3350   21.3110  -29.5860 C   0  0  0  0  0  0  0  0  0  0  0  0
   -4.9070   23.2570  -30.1760 C   0  0  0  0  0  0  0  0  0  0  0  0
   -6.1290   22.5260  -30.2870 N   0  0  0  0  0  0  0  0  0  0  0  0
   -6.9340   22.4370  -31.8150 S   0  0  0  0  0  0  0  0  0  0  0  0
   -8.4070   22.6660  -31.6290 O   0  0  0  0  0  0  0  0  0  0  0  0
   -6.4230   23.5320  -32.7080 O   0  0  0  0  0  0  0  0  0  0  0  0
   -6.5910   20.8480  -32.5440 C   0  0  0  0  0  0  0  0  0  0  0  0
   -5.3170   20.5920  -33.1110 C   0  0  0  0  0  0  0  0  0  0  0  0
   -4.0110   21.7740  -33.0890 Cl  0  0  0  0  0  0  0  0  0  0  0  0
   -5.0360   19.3420  -33.6750 C   0  0  0  0  0  0  0  0  0  0  0  0
   -5.9930   18.3320  -33.6650 C   0  0  0  0  0  0  0  0  0  0  0  0
   -7.2350   18.5550  -33.0770 C   0  0  0  0  0  0  0  0  0  0  0  0
   -7.5410   19.7960  -32.5080 C   0  0  0  0  0  0  0  0  0  0  0  0
   -9.1090   19.9400  -31.7210 Cl  0  0  0  0  0  0  0  0  0  0  0  0
   -6.1793   26.0190  -29.4692 H   0  0  0  0  0  0  0  0  0  0  0  0
   -5.3811   26.4960  -31.0061 H   0  0  0  0  0  0  0  0  0  0  0  0
   -6.6317   25.2065  -31.0061 H   0  0  0  0  0  0  0  0  0  0  0  0
   -1.3372   23.7060  -28.2386 H   0  0  0  0  0  0  0  0  0  0  0  0
   -0.9690   22.7872  -29.7376 H   0  0  0  0  0  0  0  0  0  0  0  0
   -0.8744   24.5810  -29.7376 H   0  0  0  0  0  0  0  0  0  0  0  0
   -3.3007   21.1610  -28.4968 H   0  0  0  0  0  0  0  0  0  0  0  0
   -4.1077   20.6605  -30.0216 H   0  0  0  0  0  0  0  0  0  0  0  0
   -2.3565   21.0604  -30.0216 H   0  0  0  0  0  0  0  0  0  0  0  0
   -6.7200   22.4240  -29.4330 H   0  0  0  0  0  0  0  0  0  0  0  0
   -4.0515   19.1569  -34.1294 H   0  0  0  0  0  0  0  0  0  0  0  0
   -5.7681   17.3570  -34.1219 H   0  0  0  0  0  0  0  0  0  0  0  0
   -7.9825   17.7482  -33.0596 H   0  0  0  0  0  0  0  0  0  0  0  0
  1  2  1  0
  2  3  2  0
  3  4  1  0
  4  5  1  0
  4  6  1  0
  6  7  1  0
  6  8  2  0
  8  9  1  0
  9 10  1  0
 10 11  2  0
 10 12  2  0
 10 13  1  0
 13 14  2  0
 14 15  1  0
 14 16  1  0
 16 17  2  0
 17 18  1  0
 18 19  2  0
 19 20  1  0
  8  2  1  0
 19 13  1  0
  1 21  1  0
  1 22  1  0
  1 23  1  0
  5 24  1  0
  5 25  1  0
  5 26  1  0
  7 27  1  0
  7 28  1  0
  7 29  1  0
  9 30  1  0
 16 31  1  0
 17 32  1  0
 18 33  1  0
M  END
>  <UniqueID>  (20) 
19

>  <SMILES>  (20) 
Cc1nn(C)c(C)c1NS(=O)(=O)c1c(Cl)cccc1Cl

>  <Energy>  (20) 
72.46065056084869

>  <Genealogy>  (20) 
Cc1nn(C)c(C)c1NS(=O)(=O)c1c(Cl)cccc1Cl (3D coordinates assigned)
Cc1nn(C)c(C)c1NS(=O)(=O)c1c(Cl)cccc1Cl (optimized conformer: 72.46065056084869 kcal/mol)

>  <smiles>  (20) 
Cc1nn(C)c(C)c1NS(=O)(=O)c1c(Cl)cccc1Cl

>  <score_type>  (20) 
oracle

>  <origin>  (20) 
adgpu

>  <m_score__min__energy>  (20) 
-8

>  <m_primary>  (20) 
energy

$$$$
20:0
     RDKit          3D

 51 54  0  0  0  0  0  0  0  0999 V2000
   -2.1880   17.2010  -34.5180 C   0  0  0  0  0  0  0  0  0  0  0  0
   -3.5570   17.8210  -34.4060 C   0  0  0  0  0  0  0  0  0  0  0  0
   -4.6570   17.1440  -34.9550 C   0  0  0  0  0  0  0  0  0  0  0  0
   -5.9320   17.7060  -34.8960 C   0  0  0  0  0  0  0  0  0  0  0  0
   -6.1040   18.9450  -34.2860 C   0  0  0  0  0  0  0  0  0  0  0  0
   -5.0400   19.5870  -33.7380 N   0  0  0  0  0  0  0  0  0  0  0  0
   -3.7820   19.0640  -33.7600 C   0  0  0  0  0  0  0  0  0  0  0  0
   -2.7000   19.8310  -33.1060 C   0  0  0  0  0  0  0  0  0  0  0  0
   -1.9740   20.7780  -33.8430 C   0  0  0  0  0  0  0  0  0  0  0  0
   -0.9740   21.5320  -33.2270 C   0  0  0  0  0  0  0  0  0  0  0  0
   -0.7060   21.3660  -31.8670 C   0  0  0  0  0  0  0  0  0  0  0  0
   -1.4430   20.4480  -31.1030 C   0  0  0  0  0  0  0  0  0  0  0  0
   -1.1850   20.3430  -29.6880 N   0  0  0  0  0  0  0  0  0  0  0  0
   -2.0590   20.8970  -28.6490 C   0  0  0  0  0  0  0  0  0  0  0  0
   -1.9890   22.4030  -28.6340 C   0  0  0  0  0  0  0  0  0  0  0  0
   -1.2520   23.0710  -27.6430 C   0  0  0  0  0  0  0  0  0  0  0  0
   -1.2510   24.4660  -27.5840 C   0  0  0  0  0  0  0  0  0  0  0  0
   -1.9910   25.2060  -28.5100 C   0  0  0  0  0  0  0  0  0  0  0  0
   -2.7240   24.5510  -29.5130 C   0  0  0  0  0  0  0  0  0  0  0  0
   -3.5140   25.2860  -30.4570 N   0  0  0  0  0  0  0  0  0  0  0  0
   -4.9440   25.2310  -30.5430 C   0  0  0  0  0  0  0  0  0  0  0  0
   -5.6140   26.2350  -30.1810 O   0  0  0  0  0  0  0  0  0  0  0  0
   -5.6500   24.0480  -31.0760 C   0  0  0  0  0  0  0  0  0  0  0  0
   -7.0070   23.8130  -30.7920 C   0  0  0  0  0  0  0  0  0  0  0  0
   -7.6320   22.6770  -31.3110 C   0  0  0  0  0  0  0  0  0  0  0  0
   -6.9070   21.7830  -32.0990 C   0  0  0  0  0  0  0  0  0  0  0  0
   -5.5550   22.0350  -32.3480 C   0  0  0  0  0  0  0  0  0  0  0  0
   -4.9620   23.1460  -31.8330 N   0  0  0  0  0  0  0  0  0  0  0  0
   -2.6900   23.1550  -29.5930 C   0  0  0  0  0  0  0  0  0  0  0  0
   -2.4370   19.6770  -31.7340 C   0  0  0  0  0  0  0  0  0  0  0  0
   -1.7847   17.0184  -33.5110 H   0  0  0  0  0  0  0  0  0  0  0  0
   -2.2605   16.2479  -35.0624 H   0  0  0  0  0  0  0  0  0  0  0  0
   -1.5195   17.8842  -35.0624 H   0  0  0  0  0  0  0  0  0  0  0  0
   -4.5127   16.1646  -35.4345 H   0  0  0  0  0  0  0  0  0  0  0  0
   -6.7934   17.1751  -35.3274 H   0  0  0  0  0  0  0  0  0  0  0  0
   -7.1026   19.4047  -34.2477 H   0  0  0  0  0  0  0  0  0  0  0  0
   -2.1936   20.9270  -34.9105 H   0  0  0  0  0  0  0  0  0  0  0  0
   -0.3951   22.2594  -33.8150 H   0  0  0  0  0  0  0  0  0  0  0  0
    0.0886   21.9591  -31.3908 H   0  0  0  0  0  0  0  0  0  0  0  0
   -0.2750   19.9350  -29.3760 H   0  0  0  0  0  0  0  0  0  0  0  0
   -3.0955   20.5866  -28.8471 H   0  0  0  0  0  0  0  0  0  0  0  0
   -1.7253   20.5198  -27.6711 H   0  0  0  0  0  0  0  0  0  0  0  0
   -0.6722   22.4921  -26.9090 H   0  0  0  0  0  0  0  0  0  0  0  0
   -0.6673   24.9829  -26.8080 H   0  0  0  0  0  0  0  0  0  0  0  0
   -1.9994   26.3045  -28.4532 H   0  0  0  0  0  0  0  0  0  0  0  0
   -7.5722   24.5188  -30.1656 H   0  0  0  0  0  0  0  0  0  0  0  0
   -8.6945   22.4875  -31.0987 H   0  0  0  0  0  0  0  0  0  0  0  0
   -7.3935   20.8905  -32.5193 H   0  0  0  0  0  0  0  0  0  0  0  0
   -4.9695   21.3341  -32.9612 H   0  0  0  0  0  0  0  0  0  0  0  0
   -3.2154   22.6419  -30.4120 H   0  0  0  0  0  0  0  0  0  0  0  0
   -3.0138   18.9466  -31.1476 H   0  0  0  0  0  0  0  0  0  0  0  0
  1  2  1  0
  2  3  2  0
  3  4  1  0
  4  5  2  0
  5  6  1  0
  6  7  2  0
  7  8  1  0
  8  9  2  0
  9 10  1  0
 10 11  2  0
 11 12  1  0
 12 13  1  0
 13 14  1  0
 14 15  1  0
 15 16  2  0
 16 17  1  0
 17 18  2  0
 18 19  1  0
 19 20  1  0
 20 21  1  0
 21 22  2  0
 21 23  1  0
 23 24  2  0
 24 25  1  0
 25 26  2  0
 26 27  1  0
 27 28  2  0
 19 29  2  0
 12 30  2  0
  7  2  1  0
 30  8  1  0
 29 15  1  0
 28 23  1  0
  1 31  1  0
  1 32  1  0
  1 33  1  0
  3 34  1  0
  4 35  1  0
  5 36  1  0
  9 37  1  0
 10 38  1  0
 11 39  1  0
 13 40  1  0
 14 41  1  0
 14 42  1  0
 16 43  1  0
 17 44  1  0
 18 45  1  0
 24 46  1  0
 25 47  1  0
 26 48  1  0
 27 49  1  0
 29 50  1  0
 30 51  1  0
M  CHG  1  20  -1
M  END
>  <UniqueID>  (21) 
20

>  <SMILES>  (21) 
Cc1cccnc1-c1cccc(NCc2cccc([N-]C(=O)c3ccccn3)c2)c1

>  <Energy>  (21) 
67.4190840843151

>  <Genealogy>  (21) 
Cc1cccnc1-c1cccc(NCc2cccc([N-]C(=O)c3ccccn3)c2)c1 (protonated)
Cc1cccnc1-c1cccc(NCc2cccc([N-]C(=O)c3ccccn3)c2)c1 (3D coordinates assigned)
Cc1cccnc1-c1cccc(NCc2cccc([N-]C(=O)c3ccccn3)c2)c1 (optimized conformer: 67.4190840843151 kcal/mol)

>  <smiles>  (21) 
Cc1cccnc1-c1cccc(NCc2cccc(NC(=O)c3ccccn3)c2)c1

>  <score_type>  (21) 
oracle

>  <origin>  (21) 
adgpu

>  <m_score__min__energy>  (21) 
-12.59

>  <m_primary>  (21) 
energy

$$$$
21:0
     RDKit          3D

 22 24  0  0  0  0  0  0  0  0999 V2000
   -2.2630   20.5840  -32.0750 C   0  0  0  0  0  0  0  0  0  0  0  0
   -3.3120   20.1630  -32.8820 C   0  0  0  0  0  0  0  0  0  0  0  0
   -4.5620   21.2770  -32.7390 S   0  0  0  0  0  0  0  0  0  0  0  0
   -3.7930   22.2860  -31.6310 C   0  0  0  0  0  0  0  0  0  0  0  0
   -4.3030   23.5710  -31.1200 C   0  0  0  0  0  0  0  0  0  0  0  0
   -3.4920   24.5960  -30.7930 N   0  0  0  0  0  0  0  0  0  0  0  0
   -4.2390   25.6420  -30.4730 N   0  0  0  0  0  0  0  0  0  0  0  0
   -5.5350   25.3010  -30.5980 C   0  0  0  0  0  0  0  0  0  0  0  0
   -5.6200   23.9850  -30.9960 C   0  0  0  0  0  0  0  0  0  0  0  0
   -6.8650   23.2110  -31.1310 C   0  0  0  0  0  0  0  0  0  0  0  0
   -7.5020   22.6580  -30.0760 N   0  0  0  0  0  0  0  0  0  0  0  0
   -8.5360   21.9940  -30.6290 C   0  0  0  0  0  0  0  0  0  0  0  0
   -8.4960   22.1380  -31.9970 C   0  0  0  0  0  0  0  0  0  0  0  0
   -7.4380   22.9000  -32.3100 N   0  0  0  0  0  0  0  0  0  0  0  0
   -2.5240   21.7750  -31.3870 C   0  0  0  0  0  0  0  0  0  0  0  0
   -1.3153   20.0329  -31.9848 H   0  0  0  0  0  0  0  0  0  0  0  0
   -3.3227   19.2575  -33.5064 H   0  0  0  0  0  0  0  0  0  0  0  0
   -6.3903   25.9672  -30.4119 H   0  0  0  0  0  0  0  0  0  0  0  0
   -9.2951   21.4246  -30.0726 H   0  0  0  0  0  0  0  0  0  0  0  0
   -9.2099   21.7025  -32.7116 H   0  0  0  0  0  0  0  0  0  0  0  0
   -7.1090   23.1470  -33.2690 H   0  0  0  0  0  0  0  0  0  0  0  0
   -1.7961   22.2587  -30.7190 H   0  0  0  0  0  0  0  0  0  0  0  0
  1  2  2  0
  2  3  1  0
  3  4  1  0
  4  5  1  0
  5  6  2  0
  6  7  1  0
  7  8  1  0
  8  9  2  0
  9 10  1  0
 10 11  2  0
 11 12  1  0
 12 13  2  0
 13 14  1  0
  4 15  2  0
 15  1  1  0
  9  5  1  0
 14 10  1  0
  1 16  1  0
  2 17  1  0
  8 18  1  0
 12 19  1  0
 13 20  1  0
 14 21  1  0
 15 22  1  0
M  CHG  1   7  -1
M  END
>  <UniqueID>  (22) 
21

>  <SMILES>  (22) 
c1csc(-c2n[n-]cc2-c2ncc[nH]2)c1

>  <Energy>  (22) 
113.66702951973862

>  <Genealogy>  (22) 
c1csc(-c2n[n-]cc2-c2ncc[nH]2)c1 (protonated)
c1csc(-c2n[n-]cc2-c2ncc[nH]2)c1 (3D coordinates assigned)
c1csc(-c2n[n-]cc2-c2ncc[nH]2)c1 (optimized conformer: 113.66702951973862 kcal/mol)

>  <smiles>  (22) 
c1csc(-c2n[nH]cc2-c2ncc[nH]2)c1

>  <score_type>  (22) 
oracle

>  <origin>  (22) 
adgpu

>  <m_score__min__energy>  (22) 
-7.7000000000000002

>  <m_primary>  (22) 
energy

$$$$
22:0
     RDKit          3D

 39 41  0  0  0  0  0  0  0  0999 V2000
   -3.8540   24.5450  -27.4440 C   0  0  0  0  0  0  0  0  0  0  0  0
   -2.9260   24.6220  -28.5210 O   0  0  0  0  0  0  0  0  0  0  0  0
   -2.1250   23.5570  -28.9650 C   0  0  0  0  0  0  0  0  0  0  0  0
   -0.8180   23.3640  -28.4740 C   0  0  0  0  0  0  0  0  0  0  0  0
   -0.0200   22.3300  -28.9690 C   0  0  0  0  0  0  0  0  0  0  0  0
   -0.5110   21.4800  -29.9600 C   0  0  0  0  0  0  0  0  0  0  0  0
   -1.8050   21.6540  -30.4510 C   0  0  0  0  0  0  0  0  0  0  0  0
   -2.6310   22.6750  -29.9490 C   0  0  0  0  0  0  0  0  0  0  0  0
   -4.0000   22.8130  -30.4950 C   0  0  0  0  0  0  0  0  0  0  0  0
   -4.7640   21.6890  -30.8430 C   0  0  0  0  0  0  0  0  0  0  0  0
   -6.0530   21.8640  -31.3620 C   0  0  0  0  0  0  0  0  0  0  0  0
   -6.8500   20.6670  -31.7280 C   0  0  0  0  0  0  0  0  0  0  0  0
   -8.1490   20.5040  -31.2180 C   0  0  0  0  0  0  0  0  0  0  0  0
   -8.9030   19.3780  -31.5570 C   0  0  0  0  0  0  0  0  0  0  0  0
   -8.3650   18.3990  -32.3940 C   0  0  0  0  0  0  0  0  0  0  0  0
   -7.0570   18.5310  -32.8870 C   0  0  0  0  0  0  0  0  0  0  0  0
   -6.4890   17.4950  -33.8120 C   0  0  0  0  0  0  0  0  0  0  0  0
   -6.3080   19.6720  -32.5590 C   0  0  0  0  0  0  0  0  0  0  0  0
   -6.5480   23.1750  -31.5170 C   0  0  0  0  0  0  0  0  0  0  0  0
   -7.8940   23.4260  -31.9850 C   0  0  0  0  0  0  0  0  0  0  0  0
   -8.9700   23.6260  -32.3590 N   0  0  0  0  0  0  0  0  0  0  0  0
   -5.7170   24.2520  -31.1630 C   0  0  0  0  0  0  0  0  0  0  0  0
   -6.1180   25.4400  -31.2960 O   0  0  0  0  0  0  0  0  0  0  0  0
   -4.4990   24.0320  -30.6800 O   0  0  0  0  0  0  0  0  0  0  0  0
   -3.3112   24.5900  -26.4883 H   0  0  0  0  0  0  0  0  0  0  0  0
   -4.5582   25.3878  -27.5058 H   0  0  0  0  0  0  0  0  0  0  0  0
   -4.4096   23.5977  -27.5058 H   0  0  0  0  0  0  0  0  0  0  0  0
   -0.4234   24.0328  -27.6950 H   0  0  0  0  0  0  0  0  0  0  0  0
    0.9975   22.1858  -28.5766 H   0  0  0  0  0  0  0  0  0  0  0  0
    0.1226   20.6720  -30.3546 H   0  0  0  0  0  0  0  0  0  0  0  0
   -2.1829   20.9857  -31.2388 H   0  0  0  0  0  0  0  0  0  0  0  0
   -4.3535   20.6773  -30.7092 H   0  0  0  0  0  0  0  0  0  0  0  0
   -8.5742   21.2665  -30.5488 H   0  0  0  0  0  0  0  0  0  0  0  0
   -9.9236   19.2625  -31.1632 H   0  0  0  0  0  0  0  0  0  0  0  0
   -8.9680   17.5209  -32.6684 H   0  0  0  0  0  0  0  0  0  0  0  0
   -6.0429   16.6813  -33.2214 H   0  0  0  0  0  0  0  0  0  0  0  0
   -7.2914   17.0904  -34.4463 H   0  0  0  0  0  0  0  0  0  0  0  0
   -5.7163   17.9539  -34.4463 H   0  0  0  0  0  0  0  0  0  0  0  0
   -5.2886   19.7881  -32.9557 H   0  0  0  0  0  0  0  0  0  0  0  0
  1  2  1  0
  2  3  1  0
  3  4  2  0
  4  5  1  0
  5  6  2  0
  6  7  1  0
  7  8  2  0
  8  9  1  0
  9 10  2  0
 10 11  1  0
 11 12  1  0
 12 13  2  0
 13 14  1  0
 14 15  2  0
 15 16  1  0
 16 17  1  0
 16 18  2  0
 11 19  2  0
 19 20  1  0
 20 21  3  0
 19 22  1  0
 22 23  2  0
 22 24  1  0
  8  3  1  0
 24  9  1  0
 18 12  1  0
  1 25  1  0
  1 26  1  0
  1 27  1  0
  4 28  1  0
  5 29  1  0
  6 30  1  0
  7 31  1  0
 10 32  1  0
 13 33  1  0
 14 34  1  0
 15 35  1  0
 17 36  1  0
 17 37  1  0
 17 38  1  0
 18 39  1  0
M  END
>  <UniqueID>  (23) 
22

>  <SMILES>  (23) 
COc1ccccc1-c1cc(-c2cccc(C)c2)c(C#N)c(=O)o1

>  <Energy>  (23) 
54.688383717499526

>  <Genealogy>  (23) 
COc1ccccc1-c1cc(-c2cccc(C)c2)c(C#N)c(=O)o1 (3D coordinates assigned)
COc1ccccc1-c1cc(-c2cccc(C)c2)c(C#N)c(=O)o1 (optimized conformer: 54.688383717499526 kcal/mol)

>  <smiles>  (23) 
COc1ccccc1-c1cc(-c2cccc(C)c2)c(C#N)c(=O)o1

>  <score_type>  (23) 
oracle

>  <origin>  (23) 
adgpu

>  <m_score__min__energy>  (23) 
-8.7100000000000009

>  <m_primary>  (23) 
energy

$$$$
23:0
     RDKit          3D

 46 48  0  0  0  0  0  0  0  0999 V2000
   -2.7260   21.9380  -31.9220 C   0  0  0  0  0  0  0  0  0  0  0  0
   -2.3430   22.4690  -30.5800 C   0  0  0  0  0  0  0  0  0  0  0  0
   -1.4450   21.8750  -29.7670 N   0  0  0  0  0  0  0  0  0  0  0  0
   -1.2970   22.6460  -28.6960 N   0  0  0  0  0  0  0  0  0  0  0  0
   -0.3650   22.3510  -27.6140 C   0  0  0  0  0  0  0  0  0  0  0  0
   -2.0870   23.7380  -28.8010 C   0  0  0  0  0  0  0  0  0  0  0  0
   -2.0700   24.9110  -27.8690 C   0  0  0  0  0  0  0  0  0  0  0  0
   -2.7570   23.6550  -30.0030 C   0  0  0  0  0  0  0  0  0  0  0  0
   -3.5700   24.6720  -30.5890 N   0  0  0  0  0  0  0  0  0  0  0  0
   -5.2120   24.8980  -30.0940 S   0  0  0  0  0  0  0  0  0  0  0  0
   -5.3020   24.9000  -28.5930 O   0  0  0  0  0  0  0  0  0  0  0  0
   -5.7100   26.2150  -30.6120 O   0  0  0  0  0  0  0  0  0  0  0  0
   -6.1950   23.6070  -30.7760 C   0  0  0  0  0  0  0  0  0  0  0  0
   -7.4630   23.8790  -31.3110 C   0  0  0  0  0  0  0  0  0  0  0  0
   -8.2560   22.8380  -31.8020 C   0  0  0  0  0  0  0  0  0  0  0  0
   -7.7870   21.5190  -31.7620 C   0  0  0  0  0  0  0  0  0  0  0  0
   -8.7970   20.1860  -32.4070 S   0  0  0  0  0  0  0  0  0  0  0  0
   -7.3700   19.2020  -32.8610 C   0  0  0  0  0  0  0  0  0  0  0  0
   -7.1270   17.9830  -32.2200 C   0  0  0  0  0  0  0  0  0  0  0  0
   -6.0240   17.2060  -32.5860 C   0  0  0  0  0  0  0  0  0  0  0  0
   -5.1380   17.6500  -33.5830 C   0  0  0  0  0  0  0  0  0  0  0  0
   -3.9860   16.7820  -34.0210 C   0  0  0  0  0  0  0  0  0  0  0  0
   -4.4060   15.4670  -34.0830 F   0  0  0  0  0  0  0  0  0  0  0  0
   -3.5270   17.1690  -35.2680 F   0  0  0  0  0  0  0  0  0  0  0  0
   -2.9350   16.8790  -33.1250 F   0  0  0  0  0  0  0  0  0  0  0  0
   -5.3990   18.8700  -34.2340 C   0  0  0  0  0  0  0  0  0  0  0  0
   -6.5030   19.6450  -33.8650 C   0  0  0  0  0  0  0  0  0  0  0  0
   -6.5270   21.2440  -31.2210 C   0  0  0  0  0  0  0  0  0  0  0  0
   -5.7340   22.2840  -30.7280 C   0  0  0  0  0  0  0  0  0  0  0  0
   -3.3653   21.0517  -31.7968 H   0  0  0  0  0  0  0  0  0  0  0  0
   -3.2759   22.7110  -32.4789 H   0  0  0  0  0  0  0  0  0  0  0  0
   -1.8190   21.6602  -32.4789 H   0  0  0  0  0  0  0  0  0  0  0  0
   -0.8643   22.5090  -26.6467 H   0  0  0  0  0  0  0  0  0  0  0  0
   -0.0349   21.3044  -27.6896 H   0  0  0  0  0  0  0  0  0  0  0  0
    0.5072   23.0170  -27.6896 H   0  0  0  0  0  0  0  0  0  0  0  0
   -2.0752   24.5530  -26.8289 H   0  0  0  0  0  0  0  0  0  0  0  0
   -1.1631   25.5076  -28.0469 H   0  0  0  0  0  0  0  0  0  0  0  0
   -2.9592   25.5336  -28.0469 H   0  0  0  0  0  0  0  0  0  0  0  0
   -7.8340   24.9140  -31.3442 H   0  0  0  0  0  0  0  0  0  0  0  0
   -9.2499   23.0551  -32.2204 H   0  0  0  0  0  0  0  0  0  0  0  0
   -7.8048   17.6351  -31.4266 H   0  0  0  0  0  0  0  0  0  0  0  0
   -5.8481   16.2400  -32.0901 H   0  0  0  0  0  0  0  0  0  0  0  0
   -4.7314   19.2157  -35.0370 H   0  0  0  0  0  0  0  0  0  0  0  0
   -6.6901   20.6062  -34.3661 H   0  0  0  0  0  0  0  0  0  0  0  0
   -6.1596   20.2079  -31.1834 H   0  0  0  0  0  0  0  0  0  0  0  0
   -4.7446   22.0636  -30.3008 H   0  0  0  0  0  0  0  0  0  0  0  0
  1  2  1  0
  2  3  2  0
  3  4  1  0
  4  5  1  0
  4  6  1  0
  6  7  1  0
  6  8  2  0
  8  9  1  0
  9 10  1  0
 10 11  2  0
 10 12  2  0
 10 13  1  0
 13 14  2  0
 14 15  1  0
 15 16  2  0
 16 17  1  0
 17 18  1  0
 18 19  2  0
 19 20  1  0
 20 21  2  0
 21 22  1  0
 22 23  1  0
 22 24  1  0
 22 25  1  0
 21 26  1  0
 26 27  2  0
 16 28  1  0
 28 29  2  0
  8  2  1  0
 29 13  1  0
 27 18  1  0
  1 30  1  0
  1 31  1  0
  1 32  1  0
  5 33  1  0
  5 34  1  0
  5 35  1  0
  7 36  1  0
  7 37  1  0
  7 38  1  0
 14 39  1  0
 15 40  1  0
 19 41  1  0
 20 42  1  0
 26 43  1  0
 27 44  1  0
 28 45  1  0
 29 46  1  0
M  CHG  1   9  -1
M  END
>  <UniqueID>  (24) 
23

>  <SMILES>  (24) 
Cc1nn(C)c(C)c1[N-]S(=O)(=O)c1ccc(Sc2ccc(C(F)(F)F)cc2)cc1

>  <Energy>  (24) 
80.06294343081488

>  <Genealogy>  (24) 
Cc1nn(C)c(C)c1[N-]S(=O)(=O)c1ccc(Sc2ccc(C(F)(F)F)cc2)cc1 (protonated)
Cc1nn(C)c(C)c1[N-]S(=O)(=O)c1ccc(Sc2ccc(C(F)(F)F)cc2)cc1 (3D coordinates assigned)
Cc1nn(C)c(C)c1[N-]S(=O)(=O)c1ccc(Sc2ccc(C(F)(F)F)cc2)cc1 (optimized conformer: 80.06294343081488 kcal/mol)

>  <smiles>  (24) 
Cc1nn(C)c(C)c1NS(=O)(=O)c1ccc(Sc2ccc(C(F)(F)F)cc2)cc1

>  <score_type>  (24) 
oracle

>  <origin>  (24) 
adgpu

>  <m_score__min__energy>  (24) 
-10.880000000000001

>  <m_primary>  (24) 
energy

$$$$
24:0
     RDKit          3D

 56 58  0  0  0  0  0  0  0  0999 V2000
   -4.6030   19.1080  -32.4490 C   0  0  0  0  0  0  0  0  0  0  0  0
   -4.3540   20.4870  -32.7080 O   0  0  0  0  0  0  0  0  0  0  0  0
   -5.2020   21.5430  -32.3250 C   0  0  0  0  0  0  0  0  0  0  0  0
   -4.6830   22.7510  -31.8150 C   0  0  0  0  0  0  0  0  0  0  0  0
   -5.5340   23.7840  -31.3900 C   0  0  0  0  0  0  0  0  0  0  0  0
   -4.9860   25.0430  -30.8250 C   0  0  0  0  0  0  0  0  0  0  0  0
   -5.7300   26.0520  -30.6970 O   0  0  0  0  0  0  0  0  0  0  0  0
   -3.5990   25.1360  -30.4660 N   0  0  0  0  0  0  0  0  0  0  0  0
   -2.9160   24.2160  -29.6010 C   0  0  0  0  0  0  0  0  0  0  0  0
   -2.7510   24.5470  -28.2480 C   0  0  0  0  0  0  0  0  0  0  0  0
   -2.0900   23.6720  -27.3780 C   0  0  0  0  0  0  0  0  0  0  0  0
   -1.5610   22.4730  -27.8650 C   0  0  0  0  0  0  0  0  0  0  0  0
   -1.6950   22.1370  -29.2230 C   0  0  0  0  0  0  0  0  0  0  0  0
   -0.9990   20.6440  -29.8520 S   0  0  0  0  0  0  0  0  0  0  0  0
    0.5020   20.7130  -29.7580 O   0  0  0  0  0  0  0  0  0  0  0  0
   -1.4940   19.4970  -29.0090 O   0  0  0  0  0  0  0  0  0  0  0  0
   -1.4510   20.3900  -31.5230 N   0  0  0  0  0  0  0  0  0  0  0  0
   -0.9080   21.4800  -32.3700 C   0  0  0  0  0  0  0  0  0  0  0  0
   -0.8310   21.1060  -33.8710 C   0  0  0  0  0  0  0  0  0  0  0  0
   -1.7960   19.9690  -34.2210 C   0  0  0  0  0  0  0  0  0  0  0  0
   -1.5040   18.7210  -33.3740 C   0  0  0  0  0  0  0  0  0  0  0  0
   -0.9790   19.0650  -31.9660 C   0  0  0  0  0  0  0  0  0  0  0  0
   -2.3640   23.0190  -30.0880 C   0  0  0  0  0  0  0  0  0  0  0  0
   -6.9210   23.5970  -31.4790 C   0  0  0  0  0  0  0  0  0  0  0  0
   -7.4590   22.4000  -31.9830 C   0  0  0  0  0  0  0  0  0  0  0  0
   -8.8450   22.1920  -32.0730 O   0  0  0  0  0  0  0  0  0  0  0  0
   -9.6480   21.6300  -31.0340 C   0  0  0  0  0  0  0  0  0  0  0  0
   -6.6020   21.3790  -32.4210 C   0  0  0  0  0  0  0  0  0  0  0  0
   -7.1970   20.2110  -32.9180 O   0  0  0  0  0  0  0  0  0  0  0  0
   -7.8420   19.2170  -32.1230 C   0  0  0  0  0  0  0  0  0  0  0  0
   -4.6336   18.9387  -31.3625 H   0  0  0  0  0  0  0  0  0  0  0  0
   -5.5677   18.8200  -32.8923 H   0  0  0  0  0  0  0  0  0  0  0  0
   -3.8000   18.5008  -32.8923 H   0  0  0  0  0  0  0  0  0  0  0  0
   -3.5934   22.8863  -31.7490 H   0  0  0  0  0  0  0  0  0  0  0  0
   -3.1440   25.5014  -27.8677 H   0  0  0  0  0  0  0  0  0  0  0  0
   -1.9870   23.9273  -26.3130 H   0  0  0  0  0  0  0  0  0  0  0  0
   -1.0370   21.7888  -27.1814 H   0  0  0  0  0  0  0  0  0  0  0  0
   -2.4970   20.4030  -31.5630 H   0  0  0  0  0  0  0  0  0  0  0  0
   -1.5562   22.3622  -32.2624 H   0  0  0  0  0  0  0  0  0  0  0  0
    0.1191   21.6777  -32.0294 H   0  0  0  0  0  0  0  0  0  0  0  0
   -1.0886   21.9902  -34.4725 H   0  0  0  0  0  0  0  0  0  0  0  0
    0.1925   20.7666  -34.0881 H   0  0  0  0  0  0  0  0  0  0  0  0
   -2.8273   20.3005  -34.0300 H   0  0  0  0  0  0  0  0  0  0  0  0
   -1.6651   19.7115  -35.2824 H   0  0  0  0  0  0  0  0  0  0  0  0
   -2.4329   18.1409  -33.2709 H   0  0  0  0  0  0  0  0  0  0  0  0
   -0.7198   18.1468  -33.8891 H   0  0  0  0  0  0  0  0  0  0  0  0
   -1.3337   18.3033  -31.2561 H   0  0  0  0  0  0  0  0  0  0  0  0
    0.1202   19.0841  -32.0022 H   0  0  0  0  0  0  0  0  0  0  0  0
   -2.4565   22.7705  -31.1556 H   0  0  0  0  0  0  0  0  0  0  0  0
   -7.5981   24.3989  -31.1495 H   0  0  0  0  0  0  0  0  0  0  0  0
   -9.2361   21.9183  -30.0556 H   0  0  0  0  0  0  0  0  0  0  0  0
  -10.6782   22.0053  -31.1231 H   0  0  0  0  0  0  0  0  0  0  0  0
   -9.6482   20.5336  -31.1231 H   0  0  0  0  0  0  0  0  0  0  0  0
   -7.6932   19.4463  -31.0575 H   0  0  0  0  0  0  0  0  0  0  0  0
   -8.9184   19.2081  -32.3493 H   0  0  0  0  0  0  0  0  0  0  0  0
   -7.4116   18.2303  -32.3493 H   0  0  0  0  0  0  0  0  0  0  0  0
  1  2  1  0
  2  3  1  0
  3  4  2  0
  4  5  1  0
  5  6  1  0
  6  7  2  0
  6  8  1  0
  8  9  1  0
  9 10  2  0
 10 11  1  0
 11 12  2  0
 12 13  1  0
 13 14  1  0
 14 15  2  0
 14 16  2  0
 14 17  1  0
 17 18  1  0
 18 19  1  0
 19 20  1  0
 20 21  1  0
 21 22  1  0
 13 23  2  0
  5 24  2  0
 24 25  1  0
 25 26  1  0
 26 27  1  0
 25 28  2  0
 28 29  1  0
 29 30  1  0
 28  3  1  0
 23  9  1  0
 22 17  1  0
  1 31  1  0
  1 32  1  0
  1 33  1  0
  4 34  1  0
 10 35  1  0
 11 36  1  0
 12 37  1  0
 17 38  1  0
 18 39  1  0
 18 40  1  0
 19 41  1  0
 19 42  1  0
 20 43  1  0
 20 44  1  0
 21 45  1  0
 21 46  1  0
 22 47  1  0
 22 48  1  0
 23 49  1  0
 24 50  1  0
 27 51  1  0
 27 52  1  0
 27 53  1  0
 30 54  1  0
 30 55  1  0
 30 56  1  0
M  CHG  2   8  -1  17   1
M  END
>  <UniqueID>  (25) 
24

>  <SMILES>  (25) 
COc1cc(C(=O)[N-]c2cccc(S(=O)(=O)[NH+]3CCCCC3)c2)cc(OC)c1OC

>  <Energy>  (25) 
68.62791336536993

>  <Genealogy>  (25) 
COc1cc(C(=O)[N-]c2cccc(S(=O)(=O)[NH+]3CCCCC3)c2)cc(OC)c1OC (protonated)
COc1cc(C(=O)[N-]c2cccc(S(=O)(=O)[NH+]3CCCCC3)c2)cc(OC)c1OC (3D coordinates assigned)
COc1cc(C(=O)[N-]c2cccc(S(=O)(=O)[NH+]3CCCCC3)c2)cc(OC)c1OC (nonaromatic ring conformer: 68.62791336536993 kcal/mol)

>  <smiles>  (25) 
COc1cc(C(=O)Nc2cccc(S(=O)(=O)N3CCCCC3)c2)cc(OC)c1OC

>  <score_type>  (25) 
oracle

>  <origin>  (25) 
adgpu

>  <m_score__min__energy>  (25) 
-9.8699999999999992

>  <m_primary>  (25) 
energy

$$$$
25:0
     RDKit          3D

 69 74  0  0  0  0  0  0  0  0999 V2000
   -5.6423   24.4721  -31.7487 H   0  0  0  0  0  0  0  0  0  0  0  0
   -5.0060   23.5850  -31.6140 C   0  0  0  0  0  0  0  0  0  0  0  0
   -4.0600   23.5680  -30.6390 N   0  0  0  0  0  0  0  0  0  0  0  0
   -3.2640   22.4800  -30.4500 C   0  0  0  0  0  0  0  0  0  0  0  0
   -2.3450   22.4660  -29.5290 N   0  0  0  0  0  0  0  0  0  0  0  0
   -2.0920   23.4850  -28.5470 C   0  0  0  0  0  0  0  0  0  0  0  0
   -3.1130   23.9990  -27.7270 C   0  0  0  0  0  0  0  0  0  0  0  0
   -4.1459   23.6409  -27.8488 H   0  0  0  0  0  0  0  0  0  0  0  0
   -2.8200   24.9630  -26.7580 C   0  0  0  0  0  0  0  0  0  0  0  0
   -3.6281   25.3737  -26.1349 H   0  0  0  0  0  0  0  0  0  0  0  0
   -1.5020   25.4110  -26.5740 C   0  0  0  0  0  0  0  0  0  0  0  0
   -1.2020   26.4170  -25.5860 N   0  0  0  0  0  0  0  0  0  0  0  0
   -1.2240   26.0800  -24.1590 C   0  0  0  0  0  0  0  0  0  0  0  0
   -2.2633   26.1007  -23.7991 H   0  0  0  0  0  0  0  0  0  0  0  0
   -0.7938   25.0764  -24.0262 H   0  0  0  0  0  0  0  0  0  0  0  0
   -0.3890   27.0870  -23.3490 C   0  0  0  0  0  0  0  0  0  0  0  0
   -1.0080   27.9706  -23.1343 H   0  0  0  0  0  0  0  0  0  0  0  0
   -0.0665   26.5929  -22.4206 H   0  0  0  0  0  0  0  0  0  0  0  0
    0.8240   27.5190  -24.0840 N   0  0  0  0  0  0  0  0  0  0  0  0
    1.3110   28.2210  -23.4770 H   0  0  0  0  0  0  0  0  0  0  0  0
    1.7710   26.4010  -24.2690 C   0  0  0  0  0  0  0  0  0  0  0  0
    2.0901   26.0243  -23.2860 H   0  0  0  0  0  0  0  0  0  0  0  0
    1.2788   25.5925  -24.8294 H   0  0  0  0  0  0  0  0  0  0  0  0
    2.6495   26.7535  -24.8294 H   0  0  0  0  0  0  0  0  0  0  0  0
    0.5090   28.1860  -25.3810 C   0  0  0  0  0  0  0  0  0  0  0  0
    0.5121   29.2742  -25.2205 H   0  0  0  0  0  0  0  0  0  0  0  0
    1.2757   27.8629  -26.1006 H   0  0  0  0  0  0  0  0  0  0  0  0
   -0.8560   27.7870  -25.9730 C   0  0  0  0  0  0  0  0  0  0  0  0
   -1.6282   28.4750  -25.5984 H   0  0  0  0  0  0  0  0  0  0  0  0
   -0.7983   27.8431  -27.0700 H   0  0  0  0  0  0  0  0  0  0  0  0
   -0.4820   24.8800  -27.3800 C   0  0  0  0  0  0  0  0  0  0  0  0
    0.5540   25.2259  -27.2492 H   0  0  0  0  0  0  0  0  0  0  0  0
   -0.7750   23.9150  -28.3470 C   0  0  0  0  0  0  0  0  0  0  0  0
    0.0361   23.4896  -28.9563 H   0  0  0  0  0  0  0  0  0  0  0  0
   -3.4010   21.4010  -31.2640 N   0  0  0  0  0  0  0  0  0  0  0  0
   -4.3340   21.3710  -32.2530 C   0  0  0  0  0  0  0  0  0  0  0  0
   -4.4640   20.1670  -33.0980 C   0  0  0  0  0  0  0  0  0  0  0  0
   -3.4560   19.5370  -33.8240 C   0  0  0  0  0  0  0  0  0  0  0  0
   -2.0180   19.8810  -33.8860 C   0  0  0  0  0  0  0  0  0  0  0  0
   -1.5920   21.2180  -33.7970 C   0  0  0  0  0  0  0  0  0  0  0  0
   -2.3340   22.0226  -33.6875 H   0  0  0  0  0  0  0  0  0  0  0  0
   -0.2300   21.5300  -33.8470 C   0  0  0  0  0  0  0  0  0  0  0  0
    0.0960   22.5787  -33.7840 H   0  0  0  0  0  0  0  0  0  0  0  0
    0.7180   20.5110  -33.9770 C   0  0  0  0  0  0  0  0  0  0  0  0
    2.0380   20.8160  -34.0260 F   0  0  0  0  0  0  0  0  0  0  0  0
    0.3050   19.1790  -34.0500 C   0  0  0  0  0  0  0  0  0  0  0  0
    1.0518   18.3773  -34.1478 H   0  0  0  0  0  0  0  0  0  0  0  0
   -1.0570   18.8620  -33.9990 C   0  0  0  0  0  0  0  0  0  0  0  0
   -1.3768   17.8106  -34.0476 H   0  0  0  0  0  0  0  0  0  0  0  0
   -4.0350   18.4390  -34.4330 C   0  0  0  0  0  0  0  0  0  0  0  0
   -3.5085   17.7327  -35.0918 H   0  0  0  0  0  0  0  0  0  0  0  0
   -5.3360   18.3610  -34.1020 N   0  0  0  0  0  0  0  0  0  0  0  0
   -6.0040   17.6260  -34.4250 H   0  0  0  0  0  0  0  0  0  0  0  0
   -5.6150   19.4080  -33.3020 C   0  0  0  0  0  0  0  0  0  0  0  0
   -6.9720   19.6670  -32.7770 C   0  0  0  0  0  0  0  0  0  0  0  0
   -7.3840   20.9560  -32.6210 N   0  0  0  0  0  0  0  0  0  0  0  0
   -8.6120   21.2710  -32.1270 C   0  0  0  0  0  0  0  0  0  0  0  0
   -9.0080   22.7060  -31.9750 C   0  0  0  0  0  0  0  0  0  0  0  0
   -9.0770   22.9561  -30.9060 H   0  0  0  0  0  0  0  0  0  0  0  0
   -8.2533   23.3473  -32.4536 H   0  0  0  0  0  0  0  0  0  0  0  0
   -9.9848   22.8695  -32.4536 H   0  0  0  0  0  0  0  0  0  0  0  0
   -9.4900   20.2500  -31.7470 C   0  0  0  0  0  0  0  0  0  0  0  0
  -10.4876   20.4930  -31.3523 H   0  0  0  0  0  0  0  0  0  0  0  0
   -9.0870   18.9210  -31.8740 C   0  0  0  0  0  0  0  0  0  0  0  0
   -9.7656   18.1090  -31.5737 H   0  0  0  0  0  0  0  0  0  0  0  0
   -7.8230   18.6220  -32.3820 C   0  0  0  0  0  0  0  0  0  0  0  0
   -7.4952   17.5759  -32.4726 H   0  0  0  0  0  0  0  0  0  0  0  0
   -5.1690   22.4770  -32.4430 C   0  0  0  0  0  0  0  0  0  0  0  0
   -5.9377   22.4722  -33.2298 H   0  0  0  0  0  0  0  0  0  0  0  0
  1  2  1  0
  2  3  1  0
  3  4  1  0
  4  5  2  0
  5  6  1  0
  6  7  2  0
  7  8  1  0
  7  9  1  0
  9 10  1  0
  9 11  2  0
 11 12  1  0
 12 13  1  0
 13 14  1  0
 13 15  1  0
 13 16  1  0
 16 17  1  0
 16 18  1  0
 16 19  1  0
 19 20  1  0
 19 21  1  0
 21 22  1  0
 21 23  1  0
 21 24  1  0
 19 25  1  0
 25 26  1  0
 25 27  1  0
 25 28  1  0
 28 29  1  0
 28 30  1  0
 11 31  1  0
 31 32  1  0
 31 33  2  0
 33 34  1  0
  4 35  1  0
 35 36  2  0
 36 37  1  0
 37 38  1  0
 38 39  1  0
 39 40  2  0
 40 41  1  0
 40 42  1  0
 42 43  1  0
 42 44  2  0
 44 45  1  0
 44 46  1  0
 46 47  1  0
 46 48  2  0
 48 49  1  0
 38 50  2  0
 50 51  1  0
 50 52  1  0
 52 53  1  0
 52 54  1  0
 54 55  1  0
 55 56  2  0
 56 57  1  0
 57 58  1  0
 58 59  1  0
 58 60  1  0
 58 61  1  0
 57 62  2  0
 62 63  1  0
 62 64  1  0
 64 65  1  0
 64 66  2  0
 66 67  1  0
 36 68  1  0
 68 69  1  0
 68  2  2  0
 33  6  1  0
 54 37  2  0
 66 55  1  0
 28 12  1  0
 48 39  1  0
M  CHG  2   3  -1  19   1
M  END
>  <UniqueID>  (26) 
25

>  <SMILES>  (26) 
Cc1cccc(-c2[nH]cc(-c3ccc(F)cc3)c2-c2cc[n-]/c(=N\c3ccc(N4CC[NH+](C)CC4)cc3)n2)n1

>  <Energy>  (26) 
131.9861163494715

>  <Genealogy>  (26) 
Cc1cccc(-c2[nH]cc(-c3ccc(F)cc3)c2-c2cc[n-]c(=Nc3ccc(N4CC[NH+](C)CC4)cc3)n2)n1 (protonated)
Cc1cccc(-c2[nH]cc(-c3ccc(F)cc3)c2-c2cc[n-]/c(=N\c3ccc(N4CC[NH+](C)CC4)cc3)n2)n1 (cis-trans isomerization)
Cc1cccc(-c2[nH]cc(-c3ccc(F)cc3)c2-c2cc[n-]/c(=N\c3ccc(N4CC[NH+](C)CC4)cc3)n2)n1 (3D coordinates assigned)
Cc1cccc(-c2[nH]cc(-c3ccc(F)cc3)c2-c2cc[n-]/c(=N\c3ccc(N4CC[NH+](C)CC4)cc3)n2)n1 (nonaromatic ring conformer: 131.9861163494715 kcal/mol)

>  <smiles>  (26) 
Cc1cccc(-c2[nH]cc(-c3ccc(F)cc3)c2-c2cc[nH]c(=Nc3ccc(N4CCN(C)CC4)cc3)n2)n1

>  <score_type>  (26) 
oracle

>  <origin>  (26) 
adgpu

>  <m_score__min__energy>  (26) 
-11.42

>  <m_primary>  (26) 
energy

$$$$
26:0
     RDKit          3D

 49 51  0  0  0  0  0  0  0  0999 V2000
   -3.2650   24.5230  -27.3940 C   0  0  0  0  0  0  0  0  0  0  0  0
   -3.2110   24.4860  -28.8660 N   0  0  0  0  0  0  0  0  0  0  0  0
   -4.4670   23.9150  -29.4070 C   0  0  0  0  0  0  0  0  0  0  0  0
   -4.3090   23.4370  -30.8550 C   0  0  0  0  0  0  0  0  0  0  0  0
   -3.2240   22.4530  -30.9500 N   0  0  0  0  0  0  0  0  0  0  0  0
   -3.1900   21.5150  -32.0430 C   0  0  0  0  0  0  0  0  0  0  0  0
   -2.0540   21.3450  -32.7680 N   0  0  0  0  0  0  0  0  0  0  0  0
   -2.0140   20.4570  -33.7960 C   0  0  0  0  0  0  0  0  0  0  0  0
   -0.8080   20.2820  -34.5630 N   0  0  0  0  0  0  0  0  0  0  0  0
   -0.3090   18.9310  -34.8340 C   0  0  0  0  0  0  0  0  0  0  0  0
   -0.0850   21.4580  -35.0570 C   0  0  0  0  0  0  0  0  0  0  0  0
   -3.1270   19.7360  -34.0940 N   0  0  0  0  0  0  0  0  0  0  0  0
   -4.2730   19.9000  -33.3840 C   0  0  0  0  0  0  0  0  0  0  0  0
   -5.4450   19.1190  -33.6980 N   0  0  0  0  0  0  0  0  0  0  0  0
   -5.4110   18.1760  -34.8210 C   0  0  0  0  0  0  0  0  0  0  0  0
   -6.6930   19.3660  -33.0180 C   0  0  0  0  0  0  0  0  0  0  0  0
   -7.1950   20.6750  -32.9080 C   0  0  0  0  0  0  0  0  0  0  0  0
   -8.4010   20.9140  -32.2410 C   0  0  0  0  0  0  0  0  0  0  0  0
   -9.1190   19.8490  -31.6860 C   0  0  0  0  0  0  0  0  0  0  0  0
   -8.6300   18.5440  -31.7990 C   0  0  0  0  0  0  0  0  0  0  0  0
   -7.4250   18.3010  -32.4630 C   0  0  0  0  0  0  0  0  0  0  0  0
   -4.2960   20.7900  -32.3570 N   0  0  0  0  0  0  0  0  0  0  0  0
   -2.2060   22.4100  -29.8940 C   0  0  0  0  0  0  0  0  0  0  0  0
   -1.9690   23.8200  -29.3410 C   0  0  0  0  0  0  0  0  0  0  0  0
   -2.4238   23.9466  -26.9816 H   0  0  0  0  0  0  0  0  0  0  0  0
   -3.1981   25.5659  -27.0507 H   0  0  0  0  0  0  0  0  0  0  0  0
   -4.2134   24.0841  -27.0507 H   0  0  0  0  0  0  0  0  0  0  0  0
   -4.7655   23.0602  -28.7823 H   0  0  0  0  0  0  0  0  0  0  0  0
   -5.2309   24.7063  -29.3940 H   0  0  0  0  0  0  0  0  0  0  0  0
   -5.2492   22.9741  -31.1892 H   0  0  0  0  0  0  0  0  0  0  0  0
   -4.0669   24.2999  -31.4928 H   0  0  0  0  0  0  0  0  0  0  0  0
   -0.1177   18.4131  -33.8826 H   0  0  0  0  0  0  0  0  0  0  0  0
   -1.0599   18.3717  -35.4114 H   0  0  0  0  0  0  0  0  0  0  0  0
    0.6251   18.9941  -35.4114 H   0  0  0  0  0  0  0  0  0  0  0  0
    0.2788   22.0498  -34.2041 H   0  0  0  0  0  0  0  0  0  0  0  0
    0.7694   21.1329  -35.6688 H   0  0  0  0  0  0  0  0  0  0  0  0
   -0.7608   22.0737  -35.6688 H   0  0  0  0  0  0  0  0  0  0  0  0
   -5.3739   17.1468  -34.4345 H   0  0  0  0  0  0  0  0  0  0  0  0
   -6.3144   18.3047  -35.4353 H   0  0  0  0  0  0  0  0  0  0  0  0
   -4.5192   18.3694  -35.4353 H   0  0  0  0  0  0  0  0  0  0  0  0
   -6.6369   21.5144  -33.3483 H   0  0  0  0  0  0  0  0  0  0  0  0
   -8.7856   21.9408  -32.1526 H   0  0  0  0  0  0  0  0  0  0  0  0
  -10.0671   20.0382  -31.1614 H   0  0  0  0  0  0  0  0  0  0  0  0
   -9.1954   17.7066  -31.3641 H   0  0  0  0  0  0  0  0  0  0  0  0
   -7.0470   17.2718  -32.5521 H   0  0  0  0  0  0  0  0  0  0  0  0
   -2.5502   21.7527  -29.0819 H   0  0  0  0  0  0  0  0  0  0  0  0
   -1.2657   22.0221  -30.3126 H   0  0  0  0  0  0  0  0  0  0  0  0
   -1.2667   23.7499  -28.4973 H   0  0  0  0  0  0  0  0  0  0  0  0
   -1.5698   24.4288  -30.1657 H   0  0  0  0  0  0  0  0  0  0  0  0
  1  2  1  0
  2  3  1  0
  3  4  1  0
  4  5  1  0
  5  6  1  0
  6  7  2  0
  7  8  1  0
  8  9  1  0
  9 10  1  0
  9 11  1  0
  8 12  2  0
 12 13  1  0
 13 14  1  0
 14 15  1  0
 14 16  1  0
 16 17  2  0
 17 18  1  0
 18 19  2  0
 19 20  1  0
 20 21  2  0
 13 22  2  0
  5 23  1  0
 23 24  1  0
 24  2  1  0
 22  6  1  0
 21 16  1  0
  1 25  1  0
  1 26  1  0
  1 27  1  0
  3 28  1  0
  3 29  1  0
  4 30  1  0
  4 31  1  0
 10 32  1  0
 10 33  1  0
 10 34  1  0
 11 35  1  0
 11 36  1  0
 11 37  1  0
 15 38  1  0
 15 39  1  0
 15 40  1  0
 17 41  1  0
 18 42  1  0
 19 43  1  0
 20 44  1  0
 21 45  1  0
 23 46  1  0
 23 47  1  0
 24 48  1  0
 24 49  1  0
M  END
>  <UniqueID>  (27) 
26

>  <SMILES>  (27) 
CN1CCN(c2nc(N(C)C)nc(N(C)c3ccccc3)n2)CC1

>  <Energy>  (27) 
58.353626059485265

>  <Genealogy>  (27) 
CN1CCN(c2nc(N(C)C)nc(N(C)c3ccccc3)n2)CC1 (3D coordinates assigned)
CN1CCN(c2nc(N(C)C)nc(N(C)c3ccccc3)n2)CC1 (nonaromatic ring conformer: 58.353626059485265 kcal/mol)

>  <smiles>  (27) 
CN1CCN(c2nc(N(C)C)nc(N(C)c3ccccc3)n2)CC1

>  <score_type>  (27) 
oracle

>  <origin>  (27) 
adgpu

>  <m_score__min__energy>  (27) 
-7.1600000000000001

>  <m_primary>  (27) 
energy

$$$$
27:0
     RDKit          3D

 52 54  0  0  0  0  0  0  0  0999 V2000
   -9.0360   18.3710  -31.6460 C   0  0  0  0  0  0  0  0  0  0  0  0
   -8.9860   19.8910  -31.7150 C   0  0  0  0  0  0  0  0  0  0  0  0
   -7.6180   20.3610  -32.1300 C   0  0  0  0  0  0  0  0  0  0  0  0
   -7.1750   21.6480  -31.7850 C   0  0  0  0  0  0  0  0  0  0  0  0
   -5.9190   22.0970  -32.2020 C   0  0  0  0  0  0  0  0  0  0  0  0
   -5.0860   21.2640  -32.9690 C   0  0  0  0  0  0  0  0  0  0  0  0
   -3.7620   21.7770  -33.4730 C   0  0  0  0  0  0  0  0  0  0  0  0
   -2.6620   21.4560  -32.4860 C   0  0  0  0  0  0  0  0  0  0  0  0
   -2.7130   22.0470  -31.2120 C   0  0  0  0  0  0  0  0  0  0  0  0
   -1.7550   21.7440  -30.2320 C   0  0  0  0  0  0  0  0  0  0  0  0
   -1.8940   22.2770  -28.8210 C   0  0  1  0  0  0  0  0  0  0  0  0
   -0.7520   23.0730  -28.5130 O   0  0  0  0  0  0  0  0  0  0  0  0
   -0.9890   23.9040  -27.3950 C   0  0  1  0  0  0  0  0  0  0  0  0
    0.3450   24.4060  -26.8210 C   0  0  0  0  0  0  0  0  0  0  0  0
    1.1370   24.9830  -27.8250 O   0  0  0  0  0  0  0  0  0  0  0  0
   -1.9660   25.0510  -27.7850 C   0  0  1  0  0  0  0  0  0  0  0  0
   -1.2950   26.1820  -28.2950 O   0  0  0  0  0  0  0  0  0  0  0  0
   -3.0650   24.5590  -28.7710 C   0  0  1  0  0  0  0  0  0  0  0  0
   -2.7440   24.9090  -30.0940 O   0  0  0  0  0  0  0  0  0  0  0  0
   -3.2600   23.0320  -28.6700 C   0  0  2  0  0  0  0  0  0  0  0  0
   -3.8360   22.7310  -27.4230 O   0  0  0  0  0  0  0  0  0  0  0  0
   -0.7180   20.8550  -30.5470 C   0  0  0  0  0  0  0  0  0  0  0  0
   -0.6360   20.2870  -31.8190 C   0  0  0  0  0  0  0  0  0  0  0  0
   -1.6020   20.5710  -32.7900 C   0  0  0  0  0  0  0  0  0  0  0  0
   -1.4470   19.7870  -34.3590 Cl  0  0  0  0  0  0  0  0  0  0  0  0
   -5.5350   19.9820  -33.3270 C   0  0  0  0  0  0  0  0  0  0  0  0
   -6.7940   19.5360  -32.9140 C   0  0  0  0  0  0  0  0  0  0  0  0
   -9.0465   18.0519  -30.5934 H   0  0  0  0  0  0  0  0  0  0  0  0
   -9.9465   18.0109  -32.1474 H   0  0  0  0  0  0  0  0  0  0  0  0
   -8.1512   17.9519  -32.1474 H   0  0  0  0  0  0  0  0  0  0  0  0
   -9.7265   20.2435  -32.4481 H   0  0  0  0  0  0  0  0  0  0  0  0
   -9.2117   20.2974  -30.7181 H   0  0  0  0  0  0  0  0  0  0  0  0
   -7.8196   22.3059  -31.1837 H   0  0  0  0  0  0  0  0  0  0  0  0
   -5.5805   23.1073  -31.9287 H   0  0  0  0  0  0  0  0  0  0  0  0
   -3.5329   21.3019  -34.4383 H   0  0  0  0  0  0  0  0  0  0  0  0
   -3.8251   22.8684  -33.5945 H   0  0  0  0  0  0  0  0  0  0  0  0
   -3.5179   22.7596  -30.9787 H   0  0  0  0  0  0  0  0  0  0  0  0
   -1.9197   21.4596  -28.0853 H   0  0  0  0  0  0  0  0  0  0  0  0
   -1.4791   23.3330  -26.5927 H   0  0  0  0  0  0  0  0  0  0  0  0
    0.1425   25.1588  -26.0450 H   0  0  0  0  0  0  0  0  0  0  0  0
    0.8879   23.5500  -26.3939 H   0  0  0  0  0  0  0  0  0  0  0  0
    0.5720   25.0100  -28.6440 H   0  0  0  0  0  0  0  0  0  0  0  0
   -2.4623   25.3649  -26.8549 H   0  0  0  0  0  0  0  0  0  0  0  0
   -0.5150   26.3620  -27.7080 H   0  0  0  0  0  0  0  0  0  0  0  0
   -4.0062   25.0536  -28.4890 H   0  0  0  0  0  0  0  0  0  0  0  0
   -2.1110   25.6700  -30.0480 H   0  0  0  0  0  0  0  0  0  0  0  0
   -3.9208   22.7013  -29.4849 H   0  0  0  0  0  0  0  0  0  0  0  0
   -4.7230   23.1820  -27.3990 H   0  0  0  0  0  0  0  0  0  0  0  0
    0.0360   20.6035  -29.7866 H   0  0  0  0  0  0  0  0  0  0  0  0
    0.1963   19.6094  -32.0604 H   0  0  0  0  0  0  0  0  0  0  0  0
   -4.8936   19.3266  -33.9345 H   0  0  0  0  0  0  0  0  0  0  0  0
   -7.1415   18.5336  -33.2045 H   0  0  0  0  0  0  0  0  0  0  0  0
  1  2  1  0
  2  3  1  0
  3  4  2  0
  4  5  1  0
  5  6  2  0
  6  7  1  0
  7  8  1  0
  8  9  2  0
  9 10  1  0
 10 11  1  0
 11 12  1  0
 12 13  1  0
 13 14  1  0
 14 15  1  0
 13 16  1  0
 16 17  1  0
 16 18  1  0
 18 19  1  0
 18 20  1  0
 20 21  1  0
 10 22  2  0
 22 23  1  0
 23 24  2  0
 24 25  1  0
  6 26  1  0
 26 27  2  0
 27  3  1  0
 24  8  1  0
 20 11  1  0
  1 28  1  0
  1 29  1  0
  1 30  1  0
  2 31  1  0
  2 32  1  0
  4 33  1  0
  5 34  1  0
  7 35  1  0
  7 36  1  0
  9 37  1  0
 11 38  1  1
 13 39  1  1
 14 40  1  0
 14 41  1  0
 15 42  1  0
 16 43  1  1
 17 44  1  0
 18 45  1  1
 19 46  1  0
 20 47  1  6
 21 48  1  0
 22 49  1  0
 23 50  1  0
 26 51  1  0
 27 52  1  0
M  END
>  <UniqueID>  (28) 
27

>  <SMILES>  (28) 
CCc1ccc(Cc2cc([C@H]3O[C@@H](CO)C(O)C(O)C3O)ccc2Cl)cc1

>  <Energy>  (28) 
61.53703013558004

>  <Genealogy>  (28) 
CCc1ccc(Cc2cc([C@H]3O[C@@H](CO)C(O)C(O)C3O)ccc2Cl)cc1 (chirality)
CCc1ccc(Cc2cc([C@H]3O[C@@H](CO)C(O)C(O)C3O)ccc2Cl)cc1 (3D coordinates assigned)
CCc1ccc(Cc2cc([C@H]3O[C@@H](CO)C(O)C(O)C3O)ccc2Cl)cc1 (nonaromatic ring conformer: 61.53703013558004 kcal/mol)

>  <smiles>  (28) 
CCc1ccc(Cc2cc(C3OC(CO)C(O)C(O)C3O)ccc2Cl)cc1

>  <score_type>  (28) 
oracle

>  <origin>  (28) 
adgpu

>  <m_score__min__energy>  (28) 
-8.2699999999999996

>  <m_primary>  (28) 
energy

$$$$
28:0
     RDKit          3D

 47 48  0  0  0  0  0  0  0  0999 V2000
   -8.3580   22.4660  -31.6140 C   0  0  0  0  0  0  0  0  0  0  0  0
   -9.0770   21.1910  -31.1760 C   0  0  0  0  0  0  0  0  0  0  0  0
   -8.3370   19.9130  -31.6090 C   0  0  0  0  0  0  0  0  0  0  0  0
   -7.8460   19.9360  -33.0690 C   0  0  0  0  0  0  0  0  0  0  0  0
   -6.4640   19.4140  -33.1870 N   0  0  0  0  0  0  0  0  0  0  0  0
   -5.3600   20.2170  -32.9800 C   0  0  0  0  0  0  0  0  0  0  0  0
   -5.4930   21.6360  -32.7950 N   0  0  0  0  0  0  0  0  0  0  0  0
   -4.0740   19.6420  -32.9230 C   0  0  0  0  0  0  0  0  0  0  0  0
   -2.9160   20.4450  -32.6210 N   0  0  0  0  0  0  0  0  0  0  0  0
   -2.2530   21.2000  -33.6910 C   0  0  0  0  0  0  0  0  0  0  0  0
   -0.7340   21.1510  -33.5340 C   0  0  0  0  0  0  0  0  0  0  0  0
   -0.1280   21.9810  -34.4860 O   0  0  0  0  0  0  0  0  0  0  0  0
   -2.3590   20.4460  -31.2600 C   0  0  0  0  0  0  0  0  0  0  0  0
   -2.3360   21.8440  -30.7030 C   0  0  0  0  0  0  0  0  0  0  0  0
   -1.2060   22.3150  -30.0140 C   0  0  0  0  0  0  0  0  0  0  0  0
   -1.2090   23.5930  -29.4470 C   0  0  0  0  0  0  0  0  0  0  0  0
   -2.3440   24.4040  -29.5470 C   0  0  0  0  0  0  0  0  0  0  0  0
   -2.3390   25.6670  -28.9670 O   0  0  0  0  0  0  0  0  0  0  0  0
   -3.4790   23.9370  -30.2230 C   0  0  0  0  0  0  0  0  0  0  0  0
   -4.9220   24.9320  -30.3390 Cl  0  0  0  0  0  0  0  0  0  0  0  0
   -3.4720   22.6620  -30.8020 C   0  0  0  0  0  0  0  0  0  0  0  0
   -3.9470   18.2690  -33.1420 C   0  0  0  0  0  0  0  0  0  0  0  0
   -2.8150   17.7160  -33.1230 O   0  0  0  0  0  0  0  0  0  0  0  0
   -5.0460   17.5230  -33.3890 N   0  0  0  0  0  0  0  0  0  0  0  0
   -6.2860   18.0680  -33.4100 C   0  0  0  0  0  0  0  0  0  0  0  0
   -7.2720   17.3130  -33.6280 O   0  0  0  0  0  0  0  0  0  0  0  0
   -8.0394   23.0309  -30.7255 H   0  0  0  0  0  0  0  0  0  0  0  0
   -7.4761   22.2013  -32.2159 H   0  0  0  0  0  0  0  0  0  0  0  0
   -9.0408   23.0837  -32.2159 H   0  0  0  0  0  0  0  0  0  0  0  0
   -9.1619   21.1940  -30.0793 H   0  0  0  0  0  0  0  0  0  0  0  0
  -10.0645   21.1834  -31.6606 H   0  0  0  0  0  0  0  0  0  0  0  0
   -7.4642   19.7798  -30.9529 H   0  0  0  0  0  0  0  0  0  0  0  0
   -9.0579   19.0860  -31.5292 H   0  0  0  0  0  0  0  0  0  0  0  0
   -8.5161   19.3144  -33.6810 H   0  0  0  0  0  0  0  0  0  0  0  0
   -7.8512   20.9792  -33.4178 H   0  0  0  0  0  0  0  0  0  0  0  0
   -5.1300   22.3170  -33.4950 H   0  0  0  0  0  0  0  0  0  0  0  0
   -5.7710   22.0350  -31.8720 H   0  0  0  0  0  0  0  0  0  0  0  0
   -2.5286   20.7645  -34.6628 H   0  0  0  0  0  0  0  0  0  0  0  0
   -2.5781   22.2493  -33.6334 H   0  0  0  0  0  0  0  0  0  0  0  0
   -0.4606   21.4935  -32.5251 H   0  0  0  0  0  0  0  0  0  0  0  0
   -0.3883   20.1174  -33.6830 H   0  0  0  0  0  0  0  0  0  0  0  0
   -0.8630   22.3310  -35.0520 H   0  0  0  0  0  0  0  0  0  0  0  0
   -2.9803   19.8086  -30.6137 H   0  0  0  0  0  0  0  0  0  0  0  0
   -1.3298   20.0594  -31.2956 H   0  0  0  0  0  0  0  0  0  0  0  0
   -0.3156   21.6760  -29.9202 H   0  0  0  0  0  0  0  0  0  0  0  0
   -0.3161   23.9616  -28.9208 H   0  0  0  0  0  0  0  0  0  0  0  0
   -4.3619   22.2996  -31.3374 H   0  0  0  0  0  0  0  0  0  0  0  0
  1  2  1  0
  2  3  1  0
  3  4  1  0
  4  5  1  0
  5  6  1  0
  6  7  1  0
  6  8  2  0
  8  9  1  0
  9 10  1  0
 10 11  1  0
 11 12  1  0
  9 13  1  0
 13 14  1  0
 14 15  2  0
 15 16  1  0
 16 17  2  0
 17 18  1  0
 17 19  1  0
 19 20  1  0
 19 21  2  0
  8 22  1  0
 22 23  2  0
 22 24  1  0
 24 25  1  0
 25 26  2  0
 25  5  1  0
 21 14  1  0
  1 27  1  0
  1 28  1  0
  1 29  1  0
  2 30  1  0
  2 31  1  0
  3 32  1  0
  3 33  1  0
  4 34  1  0
  4 35  1  0
  7 36  1  0
  7 37  1  0
 10 38  1  0
 10 39  1  0
 11 40  1  0
 11 41  1  0
 12 42  1  0
 13 43  1  0
 13 44  1  0
 15 45  1  0
 16 46  1  0
 21 47  1  0
M  CHG  2  18  -1  24  -1
M  END
>  <UniqueID>  (29) 
28

>  <SMILES>  (29) 
CCCCn1c(N)c(N(CCO)Cc2ccc([O-])c(Cl)c2)c(=O)[n-]c1=O

>  <Energy>  (29) 
48.00916773689321

>  <Genealogy>  (29) 
CCCCn1c(N)c(N(CCO)Cc2ccc([O-])c(Cl)c2)c(=O)[n-]c1=O (protonated)
CCCCn1c(N)c(N(CCO)Cc2ccc([O-])c(Cl)c2)c(=O)[n-]c1=O (3D coordinates assigned)
CCCCn1c(N)c(N(CCO)Cc2ccc([O-])c(Cl)c2)c(=O)[n-]c1=O (optimized conformer: 48.00916773689321 kcal/mol)

>  <smiles>  (29) 
CCCCn1c(N)c(N(CCO)Cc2ccc(O)c(Cl)c2)c(=O)[nH]c1=O

>  <score_type>  (29) 
oracle

>  <origin>  (29) 
adgpu

>  <m_score__min__energy>  (29) 
-10

>  <m_primary>  (29) 
energy

$$$$
29:0
     RDKit          3D

 55 58  0  0  0  0  0  0  0  0999 V2000
   -0.1423   25.6001  -28.5297 H   0  0  0  0  0  0  0  0  0  0  0  0
   -0.8860   24.9030  -28.9430 C   0  0  0  0  0  0  0  0  0  0  0  0
   -2.1820   25.2890  -29.0670 N   0  0  0  0  0  0  0  0  0  0  0  0
   -3.1170   24.4500  -29.5790 C   0  0  0  0  0  0  0  0  0  0  0  0
   -4.3540   24.8450  -29.6530 N   0  0  0  0  0  0  0  0  0  0  0  0
   -5.4580   24.1060  -30.2030 C   0  0  0  0  0  0  0  0  0  0  0  0
   -6.1070   23.0860  -29.4810 C   0  0  0  0  0  0  0  0  0  0  0  0
   -5.7802   22.8459  -28.4585 H   0  0  0  0  0  0  0  0  0  0  0  0
   -7.1650   22.3770  -30.0580 C   0  0  0  0  0  0  0  0  0  0  0  0
   -7.6783   21.5940  -29.4806 H   0  0  0  0  0  0  0  0  0  0  0  0
   -7.5750   22.6590  -31.3690 C   0  0  0  0  0  0  0  0  0  0  0  0
   -8.7380   21.9140  -31.9710 C   0  0  0  0  0  0  0  0  0  0  0  0
   -9.3772   21.5311  -31.1618 H   0  0  0  0  0  0  0  0  0  0  0  0
   -9.3018   22.6061  -32.6137 H   0  0  0  0  0  0  0  0  0  0  0  0
   -8.2720   20.7790  -32.7970 N   0  0  0  0  0  0  0  0  0  0  0  0
   -9.1070   19.5690  -32.5790 C   0  0  0  0  0  0  0  0  0  0  0  0
  -10.0607   19.8742  -32.1237 H   0  0  0  0  0  0  0  0  0  0  0  0
   -9.2650   19.0877  -33.5554 H   0  0  0  0  0  0  0  0  0  0  0  0
   -8.4230   18.5500  -31.6570 C   0  0  0  0  0  0  0  0  0  0  0  0
   -8.2191   19.0249  -30.6860 H   0  0  0  0  0  0  0  0  0  0  0  0
   -9.0937   17.6869  -31.5334 H   0  0  0  0  0  0  0  0  0  0  0  0
   -7.1470   18.0730  -32.2390 N   0  0  0  0  0  0  0  0  0  0  0  0
   -6.2880   17.5030  -31.1890 C   0  0  0  0  0  0  0  0  0  0  0  0
   -6.6906   17.7701  -30.2008 H   0  0  0  0  0  0  0  0  0  0  0  0
   -6.2622   16.4080  -31.2906 H   0  0  0  0  0  0  0  0  0  0  0  0
   -5.2690   17.9048  -31.2906 H   0  0  0  0  0  0  0  0  0  0  0  0
   -6.4290   19.1090  -33.0230 C   0  0  0  0  0  0  0  0  0  0  0  0
   -5.3471   18.9802  -32.8720 H   0  0  0  0  0  0  0  0  0  0  0  0
   -6.7051   18.9823  -34.0802 H   0  0  0  0  0  0  0  0  0  0  0  0
   -6.8200   20.5330  -32.6030 C   0  0  0  0  0  0  0  0  0  0  0  0
   -6.5728   20.6727  -31.5403 H   0  0  0  0  0  0  0  0  0  0  0  0
   -6.2628   21.2432  -33.2316 H   0  0  0  0  0  0  0  0  0  0  0  0
   -6.9090   23.6560  -32.0990 C   0  0  0  0  0  0  0  0  0  0  0  0
   -7.2211   23.8810  -33.1295 H   0  0  0  0  0  0  0  0  0  0  0  0
   -5.8510   24.3640  -31.5220 C   0  0  0  0  0  0  0  0  0  0  0  0
   -5.3228   25.1300  -32.1087 H   0  0  0  0  0  0  0  0  0  0  0  0
   -2.7530   23.1950  -29.9610 N   0  0  0  0  0  0  0  0  0  0  0  0
   -1.4670   22.7580  -29.8690 C   0  0  0  0  0  0  0  0  0  0  0  0
   -1.1380   21.3770  -30.3090 C   0  0  0  0  0  0  0  0  0  0  0  0
   -0.3690   20.5110  -29.5080 C   0  0  0  0  0  0  0  0  0  0  0  0
   -0.0055   20.8543  -28.5282 H   0  0  0  0  0  0  0  0  0  0  0  0
   -0.0630   19.2190  -29.9460 C   0  0  0  0  0  0  0  0  0  0  0  0
    0.5336   18.5516  -29.3067 H   0  0  0  0  0  0  0  0  0  0  0  0
   -0.5140   18.7680  -31.2000 C   0  0  0  0  0  0  0  0  0  0  0  0
   -0.2350   17.4810  -31.6820 O   0  0  0  0  0  0  0  0  0  0  0  0
   -0.8670   16.8900  -32.8120 C   0  0  0  0  0  0  0  0  0  0  0  0
   -1.6312   16.1753  -32.4726 H   0  0  0  0  0  0  0  0  0  0  0  0
   -1.3426   17.6749  -33.4184 H   0  0  0  0  0  0  0  0  0  0  0  0
   -0.1157   16.3629  -33.4184 H   0  0  0  0  0  0  0  0  0  0  0  0
   -1.2670   19.6310  -32.0020 C   0  0  0  0  0  0  0  0  0  0  0  0
   -1.6206   19.2895  -32.9861 H   0  0  0  0  0  0  0  0  0  0  0  0
   -1.5750   20.9220  -31.5670 C   0  0  0  0  0  0  0  0  0  0  0  0
   -2.1643   21.5890  -32.2134 H   0  0  0  0  0  0  0  0  0  0  0  0
   -0.4970   23.6240  -29.3390 C   0  0  0  0  0  0  0  0  0  0  0  0
    0.5493   23.2997  -29.2382 H   0  0  0  0  0  0  0  0  0  0  0  0
  1  2  1  0
  2  3  1  0
  3  4  1  0
  4  5  2  0
  5  6  1  0
  6  7  2  0
  7  8  1  0
  7  9  1  0
  9 10  1  0
  9 11  2  0
 11 12  1  0
 12 13  1  0
 12 14  1  0
 12 15  1  0
 15 16  1  0
 16 17  1  0
 16 18  1  0
 16 19  1  0
 19 20  1  0
 19 21  1  0
 19 22  1  0
 22 23  1  0
 23 24  1  0
 23 25  1  0
 23 26  1  0
 22 27  1  0
 27 28  1  0
 27 29  1  0
 27 30  1  0
 30 31  1  0
 30 32  1  0
 11 33  1  0
 33 34  1  0
 33 35  2  0
 35 36  1  0
  4 37  1  0
 37 38  2  0
 38 39  1  0
 39 40  2  0
 40 41  1  0
 40 42  1  0
 42 43  1  0
 42 44  2  0
 44 45  1  0
 45 46  1  0
 46 47  1  0
 46 48  1  0
 46 49  1  0
 44 50  1  0
 50 51  1  0
 50 52  2  0
 52 53  1  0
 38 54  1  0
 54 55  1  0
 54  2  2  0
 35  6  1  0
 52 39  1  0
 30 15  1  0
M  CHG  1   3  -1
M  END
>  <UniqueID>  (30) 
29

>  <SMILES>  (30) 
COc1ccc(-c2cc[n-]/c(=N/c3ccc(CN4CCN(C)CC4)cc3)n2)cc1

>  <Energy>  (30) 
80.12912076001986

>  <Genealogy>  (30) 
COc1ccc(-c2cc[n-]c(=Nc3ccc(CN4CCN(C)CC4)cc3)n2)cc1 (protonated)
COc1ccc(-c2cc[n-]/c(=N/c3ccc(CN4CCN(C)CC4)cc3)n2)cc1 (cis-trans isomerization)
COc1ccc(-c2cc[n-]/c(=N/c3ccc(CN4CCN(C)CC4)cc3)n2)cc1 (3D coordinates assigned)
COc1ccc(-c2cc[n-]/c(=N/c3ccc(CN4CCN(C)CC4)cc3)n2)cc1 (nonaromatic ring conformer: 80.12912076001986 kcal/mol)

>  <smiles>  (30) 
COc1ccc(-c2cc[nH]c(=Nc3ccc(CN4CCN(C)CC4)cc3)n2)cc1

>  <score_type>  (30) 
oracle

>  <origin>  (30) 
adgpu

>  <m_score__min__energy>  (30) 
-10.75

>  <m_primary>  (30) 
energy

$$$$
30:0
     RDKit          3D

 49 51  0  0  1  0  0  0  0  0999 V2000
   -7.7710   23.4160  -32.3040 C   0  0  0  0  0  0  0  0  0  0  0  0
   -8.4640   22.2680  -32.2970 C   0  0  0  0  0  0  0  0  0  0  0  0
   -7.6600   21.0560  -32.1260 C   0  0  0  0  0  0  0  0  0  0  0  0
   -6.9480   21.0210  -31.0690 O   0  0  0  0  0  0  0  0  0  0  0  0
   -7.6670   19.9920  -33.0690 N   0  0  0  0  0  0  0  0  0  0  0  0
   -6.8310   18.8710  -32.7720 C   0  0  0  0  0  0  0  0  0  0  0  0
   -7.1200   18.2050  -31.5820 C   0  0  0  0  0  0  0  0  0  0  0  0
   -6.3580   17.1150  -31.2280 C   0  0  0  0  0  0  0  0  0  0  0  0
   -5.3390   16.7260  -32.0630 C   0  0  0  0  0  0  0  0  0  0  0  0
   -5.0240   17.3580  -33.2420 C   0  0  0  0  0  0  0  0  0  0  0  0
   -3.9590   16.9240  -34.0810 N   0  0  0  0  0  0  0  0  0  0  0  0
   -2.9580   17.7240  -34.2310 C   0  0  0  0  0  0  0  0  0  0  0  0
   -2.8680   18.9590  -33.6300 C   0  0  0  0  0  0  0  0  0  0  0  0
   -1.7480   19.7230  -33.8670 C   0  0  0  0  0  0  0  0  0  0  0  0
   -1.5980   20.9950  -33.2810 O   0  0  0  0  0  0  0  0  0  0  0  0
   -2.2880   21.2360  -32.0980 C   0  0  0  0  0  0  0  0  0  0  0  0
   -1.8530   20.5090  -30.9830 C   0  0  0  0  0  0  0  0  0  0  0  0
   -2.4730   20.6760  -29.7620 C   0  0  0  0  0  0  0  0  0  0  0  0
   -3.5260   21.5680  -29.6530 C   0  0  0  0  0  0  0  0  0  0  0  0
   -3.9440   22.2830  -30.7790 C   0  0  0  0  0  0  0  0  0  0  0  0
   -5.0300   23.1850  -30.6040 N   0  0  0  0  0  0  0  0  0  0  0  0
   -4.7600   24.5590  -30.4560 C   0  0  0  0  0  0  0  0  0  0  0  0
   -3.5380   24.9070  -30.4900 O   0  0  0  0  0  0  0  0  0  0  0  0
   -5.7930   25.5690  -30.2710 C   0  0  0  0  0  0  0  0  0  0  0  0
   -6.8950   25.3000  -29.5900 C   0  0  0  0  0  0  0  0  0  0  0  0
   -3.3370   22.1300  -32.0070 C   0  0  0  0  0  0  0  0  0  0  0  0
   -0.7560   19.2570  -34.6820 N   0  0  0  0  0  0  0  0  0  0  0  0
   -0.8520   18.0460  -35.2670 C   0  0  0  0  0  0  0  0  0  0  0  0
   -1.9570   17.3200  -35.0190 N   0  0  0  0  0  0  0  0  0  0  0  0
   -5.8030   18.4650  -33.5980 C   0  0  0  0  0  0  0  0  0  0  0  0
   -8.2961   24.3747  -32.4274 H   0  0  0  0  0  0  0  0  0  0  0  0
   -6.6774   23.3990  -32.1863 H   0  0  0  0  0  0  0  0  0  0  0  0
   -9.5576   22.2388  -32.4115 H   0  0  0  0  0  0  0  0  0  0  0  0
   -8.2600   20.0560  -33.9230 H   0  0  0  0  0  0  0  0  0  0  0  0
   -7.9434   18.5450  -30.9367 H   0  0  0  0  0  0  0  0  0  0  0  0
   -6.5607   16.5669  -30.2961 H   0  0  0  0  0  0  0  0  0  0  0  0
   -4.7370   15.8534  -31.7694 H   0  0  0  0  0  0  0  0  0  0  0  0
   -3.6722   19.3267  -32.9757 H   0  0  0  0  0  0  0  0  0  0  0  0
   -1.0150   19.8032  -31.0810 H   0  0  0  0  0  0  0  0  0  0  0  0
   -2.1342   20.1063  -28.8842 H   0  0  0  0  0  0  0  0  0  0  0  0
   -4.0306   21.7132  -28.6864 H   0  0  0  0  0  0  0  0  0  0  0  0
   -6.0090   22.8280  -30.5870 H   0  0  0  0  0  0  0  0  0  0  0  0
   -5.6549   26.5707  -30.7041 H   0  0  0  0  0  0  0  0  0  0  0  0
   -7.6645   26.0753  -29.4604 H   0  0  0  0  0  0  0  0  0  0  0  0
   -7.0417   24.3011  -29.1534 H   0  0  0  0  0  0  0  0  0  0  0  0
   -3.6763   22.7002  -32.8843 H   0  0  0  0  0  0  0  0  0  0  0  0
   -0.0555   17.6654  -35.9233 H   0  0  0  0  0  0  0  0  0  0  0  0
   -2.0060   16.3770  -35.4890 H   0  0  0  0  0  0  0  0  0  0  0  0
   -5.5967   19.0087  -34.5317 H   0  0  0  0  0  0  0  0  0  0  0  0
  1  2  2  0
  2  3  1  0
  3  4  2  0
  3  5  1  0
  5  6  1  0
  6  7  2  0
  7  8  1  0
  8  9  2  0
  9 10  1  0
 10 11  1  0
 11 12  2  0
 12 13  1  0
 13 14  2  0
 14 15  1  0
 15 16  1  0
 16 17  2  0
 17 18  1  0
 18 19  2  0
 19 20  1  0
 20 21  1  0
 21 22  1  0
 22 23  2  0
 22 24  1  0
 24 25  2  0
 20 26  2  0
 14 27  1  0
 27 28  2  0
 28 29  1  0
 10 30  2  0
 30  6  1  0
 29 12  1  0
 26 16  1  0
  1 31  1  0
  1 32  1  0
  2 33  1  0
  5 34  1  0
  7 35  1  0
  8 36  1  0
  9 37  1  0
 13 38  1  0
 17 39  1  0
 18 40  1  0
 19 41  1  0
 21 42  1  0
 24 43  1  0
 25 44  1  0
 25 45  1  0
 26 46  1  0
 28 47  1  0
 29 48  1  0
 30 49  1  0
M  END
>  <smiles>  (31) 
C=CC(=O)Nc1cccc(N=c2cc(Oc3cccc(NC(=O)C=C)c3)nc[nH]2)c1

>  <score_type>  (31) 
oracle

>  <origin>  (31) 
adgpu

>  <m_score__min__energy>  (31) 
-9.3399999999999999

>  <m_primary>  (31) 
energy

$$$$
31:0
     RDKit          3D

 43 45  0  0  0  0  0  0  0  0999 V2000
   -1.6150   21.1450  -33.2890 C   0  0  0  0  0  0  0  0  0  0  0  0
   -2.9720   20.5400  -33.0340 C   0  0  0  0  0  0  0  0  0  0  0  0
   -3.4110   19.4840  -33.8490 C   0  0  0  0  0  0  0  0  0  0  0  0
   -4.6650   18.8790  -33.6430 C   0  0  0  0  0  0  0  0  0  0  0  0
   -5.1230   17.7330  -34.5210 C   0  0  0  0  0  0  0  0  0  0  0  0
   -4.0900   17.2310  -35.2930 F   0  0  0  0  0  0  0  0  0  0  0  0
   -5.6130   16.7090  -33.7310 F   0  0  0  0  0  0  0  0  0  0  0  0
   -6.1250   18.1690  -35.3690 F   0  0  0  0  0  0  0  0  0  0  0  0
   -5.4890   19.3520  -32.5980 C   0  0  0  0  0  0  0  0  0  0  0  0
   -6.7700   18.7580  -32.3450 N   0  0  0  0  0  0  0  0  0  0  0  0
   -7.9700   19.4990  -32.7270 C   0  0  0  0  0  0  0  0  0  0  0  0
   -6.8760   17.7520  -31.2910 C   0  0  0  0  0  0  0  0  0  0  0  0
   -5.0610   20.4170  -31.7970 C   0  0  0  0  0  0  0  0  0  0  0  0
   -3.8200   21.0280  -32.0150 C   0  0  0  0  0  0  0  0  0  0  0  0
   -3.4320   22.1660  -31.1570 C   0  0  0  0  0  0  0  0  0  0  0  0
   -2.1940   22.1770  -30.4830 C   0  0  0  0  0  0  0  0  0  0  0  0
   -1.8300   23.2380  -29.6820 N   0  0  0  0  0  0  0  0  0  0  0  0
   -0.5310   23.2140  -28.9970 C   0  0  0  0  0  0  0  0  0  0  0  0
   -2.6760   24.3090  -29.5050 C   0  0  0  0  0  0  0  0  0  0  0  0
   -2.3550   25.2780  -28.7640 O   0  0  0  0  0  0  0  0  0  0  0  0
   -3.9080   24.3030  -30.1560 C   0  0  0  0  0  0  0  0  0  0  0  0
   -4.8780   25.2320  -30.0990 N   0  0  0  0  0  0  0  0  0  0  0  0
   -5.8810   24.7640  -30.8750 C   0  0  0  0  0  0  0  0  0  0  0  0
   -5.5440   23.5330  -31.4260 C   0  0  0  0  0  0  0  0  0  0  0  0
   -4.2740   23.2600  -30.9570 C   0  0  0  0  0  0  0  0  0  0  0  0
   -1.1247   21.3636  -32.3289 H   0  0  0  0  0  0  0  0  0  0  0  0
   -0.9993   20.4361  -33.8621 H   0  0  0  0  0  0  0  0  0  0  0  0
   -1.7308   22.0767  -33.8621 H   0  0  0  0  0  0  0  0  0  0  0  0
   -2.7638   19.1235  -34.6622 H   0  0  0  0  0  0  0  0  0  0  0  0
   -8.5018   19.8274  -31.8218 H   0  0  0  0  0  0  0  0  0  0  0  0
   -7.6839   20.3779  -33.3234 H   0  0  0  0  0  0  0  0  0  0  0  0
   -8.6277   18.8495  -33.3234 H   0  0  0  0  0  0  0  0  0  0  0  0
   -6.8242   18.2436  -30.3083 H   0  0  0  0  0  0  0  0  0  0  0  0
   -7.8350   17.2216  -31.3855 H   0  0  0  0  0  0  0  0  0  0  0  0
   -6.0486   17.0333  -31.3855 H   0  0  0  0  0  0  0  0  0  0  0  0
   -5.7085   20.7791  -30.9849 H   0  0  0  0  0  0  0  0  0  0  0  0
   -1.5075   21.3253  -30.5981 H   0  0  0  0  0  0  0  0  0  0  0  0
   -0.6903   23.2169  -27.9086 H   0  0  0  0  0  0  0  0  0  0  0  0
    0.0185   22.3055  -29.2847 H   0  0  0  0  0  0  0  0  0  0  0  0
    0.0517   24.1015  -29.2847 H   0  0  0  0  0  0  0  0  0  0  0  0
   -4.8690   26.1260  -29.5600 H   0  0  0  0  0  0  0  0  0  0  0  0
   -6.8339   25.2860  -31.0470 H   0  0  0  0  0  0  0  0  0  0  0  0
   -6.1577   22.9096  -32.0930 H   0  0  0  0  0  0  0  0  0  0  0  0
  1  2  1  0
  2  3  2  0
  3  4  1  0
  4  5  1  0
  5  6  1  0
  5  7  1  0
  5  8  1  0
  4  9  2  0
  9 10  1  0
 10 11  1  0
 10 12  1  0
  9 13  1  0
 13 14  2  0
 14 15  1  0
 15 16  2  0
 16 17  1  0
 17 18  1  0
 17 19  1  0
 19 20  2  0
 19 21  1  0
 21 22  1  0
 22 23  1  0
 23 24  2  0
 24 25  1  0
 14  2  1  0
 25 15  1  0
 25 21  2  0
  1 26  1  0
  1 27  1  0
  1 28  1  0
  3 29  1  0
 11 30  1  0
 11 31  1  0
 11 32  1  0
 12 33  1  0
 12 34  1  0
 12 35  1  0
 13 36  1  0
 16 37  1  0
 18 38  1  0
 18 39  1  0
 18 40  1  0
 22 41  1  0
 23 42  1  0
 24 43  1  0
M  END
>  <UniqueID>  (32) 
30

>  <SMILES>  (32) 
Cc1cc(C(F)(F)F)c(N(C)C)cc1-c1cn(C)c(=O)c2[nH]ccc12

>  <Energy>  (32) 
92.88446250479493

>  <Genealogy>  (32) 
Cc1cc(C(F)(F)F)c(N(C)C)cc1-c1cn(C)c(=O)c2[nH]ccc12 (3D coordinates assigned)
Cc1cc(C(F)(F)F)c(N(C)C)cc1-c1cn(C)c(=O)c2[nH]ccc12 (optimized conformer: 92.88446250479493 kcal/mol)

>  <smiles>  (32) 
Cc1cc(C(F)(F)F)c(N(C)C)cc1-c1cn(C)c(=O)c2[nH]ccc12

>  <score_type>  (32) 
oracle

>  <origin>  (32) 
adgpu

>  <m_score__min__energy>  (32) 
-7.7400000000000002

>  <m_primary>  (32) 
energy

$$$$
32:0
     RDKit          3D

 41 42  0  0  0  0  0  0  0  0999 V2000
   -9.4520   18.7010  -31.9980 C   0  0  0  0  0  0  0  0  0  0  0  0
   -9.3170   20.0430  -32.7250 C   0  0  0  0  0  0  0  0  0  0  0  0
   -8.0550   20.7530  -32.4040 N   0  0  2  0  0  0  0  0  0  0  0  0
   -7.1520   19.8440  -31.6540 C   0  0  0  0  0  0  0  0  0  0  0  0
   -6.4440   18.8520  -32.5540 C   0  0  0  0  0  0  0  0  0  0  0  0
   -6.0150   19.2370  -33.8370 C   0  0  0  0  0  0  0  0  0  0  0  0
   -5.3780   18.3150  -34.6740 C   0  0  0  0  0  0  0  0  0  0  0  0
   -5.1780   17.0010  -34.2460 C   0  0  0  0  0  0  0  0  0  0  0  0
   -5.6220   16.6030  -32.9830 C   0  0  0  0  0  0  0  0  0  0  0  0
   -6.2590   17.5210  -32.1420 C   0  0  0  0  0  0  0  0  0  0  0  0
   -8.3700   22.2160  -31.4770 S   0  0  0  0  0  0  0  0  0  0  0  0
   -9.2470   23.1470  -32.2700 O   0  0  0  0  0  0  0  0  0  0  0  0
   -9.0670   21.9010  -30.1840 O   0  0  0  0  0  0  0  0  0  0  0  0
   -6.8500   23.0120  -31.0730 C   0  0  0  0  0  0  0  0  0  0  0  0
   -6.8690   24.2800  -30.4820 C   0  0  0  0  0  0  0  0  0  0  0  0
   -5.6720   24.9230  -30.1530 C   0  0  0  0  0  0  0  0  0  0  0  0
   -4.4350   24.3060  -30.4190 C   0  0  0  0  0  0  0  0  0  0  0  0
   -3.2120   24.9170  -30.1020 O   0  0  0  0  0  0  0  0  0  0  0  0
   -2.4190   24.5920  -28.9650 C   0  0  0  0  0  0  0  0  0  0  0  0
   -4.4210   23.0390  -31.0220 C   0  0  0  0  0  0  0  0  0  0  0  0
   -2.7640   22.1620  -31.4060 Br  0  0  0  0  0  0  0  0  0  0  0  0
   -5.6210   22.3980  -31.3500 C   0  0  0  0  0  0  0  0  0  0  0  0
   -9.4351   18.8695  -30.9111 H   0  0  0  0  0  0  0  0  0  0  0  0
  -10.4026   18.2249  -32.2805 H   0  0  0  0  0  0  0  0  0  0  0  0
   -8.6153   18.0452  -32.2805 H   0  0  0  0  0  0  0  0  0  0  0  0
   -9.3494   19.8590  -33.8090 H   0  0  0  0  0  0  0  0  0  0  0  0
  -10.1476   20.6823  -32.3913 H   0  0  0  0  0  0  0  0  0  0  0  0
   -7.6030   21.0250  -33.3060 H   0  0  0  0  0  0  0  0  0  0  0  0
   -6.3955   20.4497  -31.1336 H   0  0  0  0  0  0  0  0  0  0  0  0
   -7.7694   19.2703  -30.9471 H   0  0  0  0  0  0  0  0  0  0  0  0
   -6.1812   20.2676  -34.1836 H   0  0  0  0  0  0  0  0  0  0  0  0
   -5.0339   18.6257  -35.6715 H   0  0  0  0  0  0  0  0  0  0  0  0
   -4.6709   16.2795  -34.9034 H   0  0  0  0  0  0  0  0  0  0  0  0
   -5.4704   15.5659  -32.6493 H   0  0  0  0  0  0  0  0  0  0  0  0
   -6.6172   17.1997  -31.1528 H   0  0  0  0  0  0  0  0  0  0  0  0
   -7.8302   24.7733  -30.2753 H   0  0  0  0  0  0  0  0  0  0  0  0
   -5.6969   25.9174  -29.6833 H   0  0  0  0  0  0  0  0  0  0  0  0
   -2.9811   24.8224  -28.0480 H   0  0  0  0  0  0  0  0  0  0  0  0
   -2.1722   23.5202  -28.9843 H   0  0  0  0  0  0  0  0  0  0  0  0
   -1.4910   25.1823  -28.9843 H   0  0  0  0  0  0  0  0  0  0  0  0
   -5.5995   21.4073  -31.8276 H   0  0  0  0  0  0  0  0  0  0  0  0
  1  2  1  0
  2  3  1  0
  3  4  1  0
  4  5  1  0
  5  6  2  0
  6  7  1  0
  7  8  2  0
  8  9  1  0
  9 10  2  0
  3 11  1  0
 11 12  2  0
 11 13  2  0
 11 14  1  0
 14 15  2  0
 15 16  1  0
 16 17  2  0
 17 18  1  0
 18 19  1  0
 17 20  1  0
 20 21  1  0
 20 22  2  0
 10  5  1  0
 22 14  1  0
  1 23  1  0
  1 24  1  0
  1 25  1  0
  2 26  1  0
  2 27  1  0
  3 28  1  6
  4 29  1  0
  4 30  1  0
  6 31  1  0
  7 32  1  0
  8 33  1  0
  9 34  1  0
 10 35  1  0
 15 36  1  0
 16 37  1  0
 19 38  1  0
 19 39  1  0
 19 40  1  0
 22 41  1  0
M  CHG  1   3   1
M  END
>  <UniqueID>  (33) 
31

>  <SMILES>  (33) 
CC[N@H+](Cc1ccccc1)S(=O)(=O)c1ccc(OC)c(Br)c1

>  <Energy>  (33) 
41.76382505102734

>  <Genealogy>  (33) 
CC[NH+](Cc1ccccc1)S(=O)(=O)c1ccc(OC)c(Br)c1 (protonated)
CC[N@H+](Cc1ccccc1)S(=O)(=O)c1ccc(OC)c(Br)c1 (chirality)
CC[N@H+](Cc1ccccc1)S(=O)(=O)c1ccc(OC)c(Br)c1 (3D coordinates assigned)
CC[N@H+](Cc1ccccc1)S(=O)(=O)c1ccc(OC)c(Br)c1 (optimized conformer: 41.76382505102734 kcal/mol)

>  <smiles>  (33) 
CCN(Cc1ccccc1)S(=O)(=O)c1ccc(OC)c(Br)c1

>  <score_type>  (33) 
oracle

>  <origin>  (33) 
adgpu

>  <m_score__min__energy>  (33) 
-8.4499999999999993

>  <m_primary>  (33) 
energy

$$$$
33:0
     RDKit          3D

 44 45  0  0  0  0  0  0  0  0999 V2000
   -2.7560   21.9110  -27.8340 C   0  0  0  0  0  0  0  0  0  0  0  0
   -3.9010   22.8830  -27.5540 C   0  0  0  0  0  0  0  0  0  0  0  0
   -3.4180   24.3060  -27.2300 C   0  0  0  0  0  0  0  0  0  0  0  0
   -2.2480   24.7650  -28.1040 C   0  0  0  0  0  0  0  0  0  0  0  0
   -2.7340   25.2970  -29.3350 O   0  0  0  0  0  0  0  0  0  0  0  0
   -3.7210   24.6920  -30.1260 C   0  0  0  0  0  0  0  0  0  0  0  0
   -4.9800   25.2970  -30.1930 C   0  0  0  0  0  0  0  0  0  0  0  0
   -6.0010   24.7320  -30.9600 C   0  0  0  0  0  0  0  0  0  0  0  0
   -5.7820   23.5420  -31.6710 C   0  0  0  0  0  0  0  0  0  0  0  0
   -6.8560   22.9720  -32.4370 N   0  0  0  0  0  0  0  0  0  0  0  0
   -8.2090   22.1520  -31.7240 S   0  0  0  0  0  0  0  0  0  0  0  0
   -8.2290   22.4180  -30.2450 O   0  0  0  0  0  0  0  0  0  0  0  0
   -9.4770   22.6820  -32.3330 O   0  0  0  0  0  0  0  0  0  0  0  0
   -8.0700   20.4090  -31.9820 C   0  0  0  0  0  0  0  0  0  0  0  0
   -9.0580   19.5510  -31.4730 C   0  0  0  0  0  0  0  0  0  0  0  0
   -8.9740   18.1740  -31.6880 C   0  0  0  0  0  0  0  0  0  0  0  0
   -7.9050   17.6430  -32.4100 C   0  0  0  0  0  0  0  0  0  0  0  0
   -6.9140   18.4860  -32.9170 C   0  0  0  0  0  0  0  0  0  0  0  0
   -6.9840   19.8780  -32.7050 C   0  0  0  0  0  0  0  0  0  0  0  0
   -6.0020   20.7520  -33.1980 O   0  0  0  0  0  0  0  0  0  0  0  0
   -4.6480   20.3910  -33.4450 C   0  0  0  0  0  0  0  0  0  0  0  0
   -4.5120   22.9400  -31.6160 C   0  0  0  0  0  0  0  0  0  0  0  0
   -3.4920   23.5070  -30.8480 C   0  0  0  0  0  0  0  0  0  0  0  0
   -2.3363   21.5547  -26.8817 H   0  0  0  0  0  0  0  0  0  0  0  0
   -3.1349   21.0545  -28.4110 H   0  0  0  0  0  0  0  0  0  0  0  0
   -1.9724   22.4239  -28.4110 H   0  0  0  0  0  0  0  0  0  0  0  0
   -4.5483   22.9267  -28.4423 H   0  0  0  0  0  0  0  0  0  0  0  0
   -4.4393   22.5100  -26.6702 H   0  0  0  0  0  0  0  0  0  0  0  0
   -4.2575   25.0013  -27.3780 H   0  0  0  0  0  0  0  0  0  0  0  0
   -3.0624   24.2989  -26.1891 H   0  0  0  0  0  0  0  0  0  0  0  0
   -1.6791   25.5415  -27.5716 H   0  0  0  0  0  0  0  0  0  0  0  0
   -1.5979   23.9034  -28.3162 H   0  0  0  0  0  0  0  0  0  0  0  0
   -5.1678   26.2269  -29.6362 H   0  0  0  0  0  0  0  0  0  0  0  0
   -6.9841   25.2232  -31.0073 H   0  0  0  0  0  0  0  0  0  0  0  0
   -6.9140   23.1800  -33.4600 H   0  0  0  0  0  0  0  0  0  0  0  0
   -9.9020   19.9655  -30.9023 H   0  0  0  0  0  0  0  0  0  0  0  0
   -9.7517   17.5070  -31.2876 H   0  0  0  0  0  0  0  0  0  0  0  0
   -7.8426   16.5580  -32.5803 H   0  0  0  0  0  0  0  0  0  0  0  0
   -6.0734   18.0613  -33.4854 H   0  0  0  0  0  0  0  0  0  0  0  0
   -4.1251   20.2516  -32.4873 H   0  0  0  0  0  0  0  0  0  0  0  0
   -4.6174   19.4533  -34.0193 H   0  0  0  0  0  0  0  0  0  0  0  0
   -4.1547   21.1890  -34.0193 H   0  0  0  0  0  0  0  0  0  0  0  0
   -4.3206   22.0162  -32.1817 H   0  0  0  0  0  0  0  0  0  0  0  0
   -2.5045   23.0240  -30.8078 H   0  0  0  0  0  0  0  0  0  0  0  0
  1  2  1  0
  2  3  1  0
  3  4  1  0
  4  5  1  0
  5  6  1  0
  6  7  2  0
  7  8  1  0
  8  9  2  0
  9 10  1  0
 10 11  1  0
 11 12  2  0
 11 13  2  0
 11 14  1  0
 14 15  2  0
 15 16  1  0
 16 17  2  0
 17 18  1  0
 18 19  2  0
 19 20  1  0
 20 21  1  0
  9 22  1  0
 22 23  2  0
 23  6  1  0
 19 14  1  0
  1 24  1  0
  1 25  1  0
  1 26  1  0
  2 27  1  0
  2 28  1  0
  3 29  1  0
  3 30  1  0
  4 31  1  0
  4 32  1  0
  7 33  1  0
  8 34  1  0
 10 35  1  0
 15 36  1  0
 16 37  1  0
 17 38  1  0
 18 39  1  0
 21 40  1  0
 21 41  1  0
 21 42  1  0
 22 43  1  0
 23 44  1  0
M  END
>  <UniqueID>  (34) 
32

>  <SMILES>  (34) 
CCCCOc1ccc(NS(=O)(=O)c2ccccc2OC)cc1

>  <Energy>  (34) 
39.99353837149813

>  <Genealogy>  (34) 
CCCCOc1ccc(NS(=O)(=O)c2ccccc2OC)cc1 (3D coordinates assigned)
CCCCOc1ccc(NS(=O)(=O)c2ccccc2OC)cc1 (optimized conformer: 39.99353837149813 kcal/mol)

>  <smiles>  (34) 
CCCCOc1ccc(NS(=O)(=O)c2ccccc2OC)cc1

>  <score_type>  (34) 
oracle

>  <origin>  (34) 
adgpu

>  <m_score__min__energy>  (34) 
-8.25

>  <m_primary>  (34) 
energy

$$$$
34:0
     RDKit          3D

 36 38  0  0  0  0  0  0  0  0999 V2000
   -3.1990   23.7960  -31.9500 H   0  0  0  0  0  0  0  0  0  0  0  0
   -3.7990   22.9820  -31.9690 O   0  0  0  0  0  0  0  0  0  0  0  0
   -5.1760   23.0480  -31.7440 C   0  0  0  0  0  0  0  0  0  0  0  0
   -5.9730   22.0000  -32.2190 C   0  0  0  0  0  0  0  0  0  0  0  0
   -5.5152   21.1862  -32.8006 H   0  0  0  0  0  0  0  0  0  0  0  0
   -7.3450   21.9800  -31.9600 C   0  0  0  0  0  0  0  0  0  0  0  0
   -7.9641   21.1538  -32.3398 H   0  0  0  0  0  0  0  0  0  0  0  0
   -7.9310   23.0070  -31.2200 C   0  0  0  0  0  0  0  0  0  0  0  0
   -9.0086   22.9797  -31.0006 H   0  0  0  0  0  0  0  0  0  0  0  0
   -7.1520   24.0700  -30.7570 C   0  0  0  0  0  0  0  0  0  0  0  0
   -7.6197   24.8758  -30.1723 H   0  0  0  0  0  0  0  0  0  0  0  0
   -5.7750   24.1170  -31.0330 C   0  0  0  0  0  0  0  0  0  0  0  0
   -5.0060   25.3110  -30.6090 C   0  0  0  0  0  0  0  0  0  0  0  0
   -5.6180   26.3890  -30.3910 O   0  0  0  0  0  0  0  0  0  0  0  0
   -3.5820   25.2740  -30.4340 N   0  0  0  0  0  0  0  0  0  0  0  0
   -2.8960   24.6120  -29.3630 C   0  0  0  0  0  0  0  0  0  0  0  0
   -3.5270   23.5540  -28.6990 C   0  0  0  0  0  0  0  0  0  0  0  0
   -4.5599   23.2816  -28.9615 H   0  0  0  0  0  0  0  0  0  0  0  0
   -2.8510   22.8410  -27.7030 C   0  0  0  0  0  0  0  0  0  0  0  0
   -3.3472   22.0000  -27.1966 H   0  0  0  0  0  0  0  0  0  0  0  0
   -1.5430   23.1970  -27.3500 C   0  0  0  0  0  0  0  0  0  0  0  0
   -0.6410   22.2380  -26.1820 S   0  0  0  0  0  0  0  0  0  0  0  0
    0.8220   22.3050  -26.5180 O   0  0  0  0  0  0  0  0  0  0  0  0
   -0.8520   22.7670  -24.7910 O   0  0  0  0  0  0  0  0  0  0  0  0
   -1.1660   20.5830  -26.2410 N   0  0  0  0  0  0  0  0  0  0  0  0
   -0.7290   19.7050  -27.0930 C   0  0  0  0  0  0  0  0  0  0  0  0
   -1.1410   18.4250  -27.0940 N   0  0  0  0  0  0  0  0  0  0  0  0
   -0.4940   17.8320  -28.0560 O   0  0  0  0  0  0  0  0  0  0  0  0
    0.3140   18.6630  -28.6760 C   0  0  0  0  0  0  0  0  0  0  0  0
    0.9696   18.4074  -29.5215 H   0  0  0  0  0  0  0  0  0  0  0  0
    0.2050   19.9070  -28.0930 C   0  0  0  0  0  0  0  0  0  0  0  0
    0.7326   20.8350  -28.3584 H   0  0  0  0  0  0  0  0  0  0  0  0
   -0.9340   24.2980  -27.9670 C   0  0  0  0  0  0  0  0  0  0  0  0
    0.0778   24.6058  -27.6644 H   0  0  0  0  0  0  0  0  0  0  0  0
   -1.6070   25.0050  -28.9640 C   0  0  0  0  0  0  0  0  0  0  0  0
   -1.1270   25.8731  -29.4394 H   0  0  0  0  0  0  0  0  0  0  0  0
  1  2  1  0
  2  3  1  0
  3  4  2  0
  4  5  1  0
  4  6  1  0
  6  7  1  0
  6  8  2  0
  8  9  1  0
  8 10  1  0
 10 11  1  0
 10 12  2  0
 12 13  1  0
 13 14  2  0
 13 15  1  0
 15 16  1  0
 16 17  2  0
 17 18  1  0
 17 19  1  0
 19 20  1  0
 19 21  2  0
 21 22  1  0
 22 23  2  0
 22 24  2  0
 22 25  1  0
 25 26  2  0
 26 27  1  0
 27 28  1  0
 28 29  1  0
 29 30  1  0
 29 31  2  0
 31 32  1  0
 21 33  1  0
 33 34  1  0
 33 35  2  0
 35 36  1  0
 12  3  1  0
 35 16  1  0
 31 26  1  0
M  CHG  2  15  -1  27  -1
M  END
>  <UniqueID>  (35) 
33

>  <SMILES>  (35) 
O=C([N-]c1ccc(S(=O)(=O)/N=c2\cco[n-]2)cc1)c1ccccc1O

>  <Energy>  (35) 
81.89030552621045

>  <Genealogy>  (35) 
O=C([N-]c1ccc(S(=O)(=O)N=c2cco[n-]2)cc1)c1ccccc1O (protonated)
O=C([N-]c1ccc(S(=O)(=O)/N=c2\cco[n-]2)cc1)c1ccccc1O (cis-trans isomerization)
O=C([N-]c1ccc(S(=O)(=O)/N=c2\cco[n-]2)cc1)c1ccccc1O (3D coordinates assigned)
O=C([N-]c1ccc(S(=O)(=O)/N=c2\cco[n-]2)cc1)c1ccccc1O (optimized conformer: 81.89030552621045 kcal/mol)

>  <smiles>  (35) 
O=C(Nc1ccc(S(=O)(=O)N=c2cco[nH]2)cc1)c1ccccc1O

>  <score_type>  (35) 
oracle

>  <origin>  (35) 
adgpu

>  <m_score__min__energy>  (35) 
-10.42

>  <m_primary>  (35) 
energy

$$$$
35:0
     RDKit          3D

 41 43  0  0  1  0  0  0  0  0999 V2000
   -6.9210   25.2380  -29.7160 C   0  0  0  0  0  0  0  0  0  0  0  0
   -6.0190   23.8160  -30.2190 S   0  0  0  0  0  0  0  0  0  0  0  0
   -4.9710   24.1360  -31.2470 O   0  0  0  0  0  0  0  0  0  0  0  0
   -5.2730   23.2940  -29.0030 O   0  0  0  0  0  0  0  0  0  0  0  0
   -7.0500   22.5730  -30.8910 C   0  0  0  0  0  0  0  0  0  0  0  0
   -8.2600   22.2850  -30.2980 C   0  0  0  0  0  0  0  0  0  0  0  0
   -9.0520   21.3010  -30.8520 C   0  0  0  0  0  0  0  0  0  0  0  0
   -8.6350   20.6200  -31.9780 C   0  0  0  0  0  0  0  0  0  0  0  0
   -7.4140   20.8910  -32.5990 C   0  0  0  0  0  0  0  0  0  0  0  0
   -7.0800   20.1680  -33.7600 N   0  0  0  0  0  0  0  0  0  0  0  0
   -5.9830   19.3310  -33.9590 C   0  0  0  0  0  0  0  0  0  0  0  0
   -4.7830   19.6100  -33.2910 C   0  0  0  0  0  0  0  0  0  0  0  0
   -3.6530   18.8400  -33.4570 C   0  0  0  0  0  0  0  0  0  0  0  0
   -2.5720   19.1700  -32.7920 N   0  0  0  0  0  0  0  0  0  0  0  0
   -2.6090   20.3210  -31.9200 C   0  0  0  0  0  0  0  0  0  0  0  0
   -2.6970   21.5450  -32.5370 C   0  0  0  0  0  0  0  0  0  0  0  0
   -2.7370   22.6570  -31.7100 C   0  0  0  0  0  0  0  0  0  0  0  0
   -2.6960   22.5620  -30.3340 C   0  0  0  0  0  0  0  0  0  0  0  0
   -2.7420   23.7200  -29.5400 O   0  0  0  0  0  0  0  0  0  0  0  0
   -2.6080   21.3000  -29.7770 C   0  0  0  0  0  0  0  0  0  0  0  0
   -2.5470   21.1410  -27.8630 Br  0  0  0  0  0  0  0  0  0  0  0  0
   -2.5630   20.1510  -30.5500 C   0  0  0  0  0  0  0  0  0  0  0  0
   -3.7190   17.8040  -34.2790 N   0  0  0  0  0  0  0  0  0  0  0  0
   -4.8660   17.4870  -34.9560 C   0  0  0  0  0  0  0  0  0  0  0  0
   -5.9500   18.2620  -34.7690 N   0  0  0  0  0  0  0  0  0  0  0  0
   -6.6510   21.8740  -32.0260 C   0  0  0  0  0  0  0  0  0  0  0  0
   -6.9502   25.2840  -28.6174 H   0  0  0  0  0  0  0  0  0  0  0  0
   -6.4303   26.1411  -30.1079 H   0  0  0  0  0  0  0  0  0  0  0  0
   -7.9471   25.1789  -30.1079 H   0  0  0  0  0  0  0  0  0  0  0  0
   -8.5880   22.8293  -29.4001 H   0  0  0  0  0  0  0  0  0  0  0  0
  -10.0219   21.0574  -30.3937 H   0  0  0  0  0  0  0  0  0  0  0  0
   -9.2851   19.8391  -32.3994 H   0  0  0  0  0  0  0  0  0  0  0  0
   -7.7610   20.2850  -34.5760 H   0  0  0  0  0  0  0  0  0  0  0  0
   -4.7421   20.4735  -32.6108 H   0  0  0  0  0  0  0  0  0  0  0  0
   -2.7339   21.6383  -33.6324 H   0  0  0  0  0  0  0  0  0  0  0  0
   -2.8041   23.6545  -32.1689 H   0  0  0  0  0  0  0  0  0  0  0  0
   -3.6380   24.2000  -29.4930 H   0  0  0  0  0  0  0  0  0  0  0  0
   -2.4940   19.1520  -30.0948 H   0  0  0  0  0  0  0  0  0  0  0  0
   -4.9005   16.6220  -35.6346 H   0  0  0  0  0  0  0  0  0  0  0  0
   -6.7990   17.9990  -35.3140 H   0  0  0  0  0  0  0  0  0  0  0  0
   -5.6814   22.1213  -32.4828 H   0  0  0  0  0  0  0  0  0  0  0  0
  1  2  1  0
  2  3  2  0
  2  4  2  0
  2  5  1  0
  5  6  2  0
  6  7  1  0
  7  8  2  0
  8  9  1  0
  9 10  1  0
 10 11  1  0
 11 12  2  0
 12 13  1  0
 13 14  2  0
 14 15  1  0
 15 16  2  0
 16 17  1  0
 17 18  2  0
 18 19  1  0
 18 20  1  0
 20 21  1  0
 20 22  2  0
 13 23  1  0
 23 24  2  0
 24 25  1  0
  9 26  2  0
 26  5  1  0
 25 11  1  0
 22 15  1  0
  1 27  1  0
  1 28  1  0
  1 29  1  0
  6 30  1  0
  7 31  1  0
  8 32  1  0
 10 33  1  0
 12 34  1  0
 16 35  1  0
 17 36  1  0
 19 37  1  0
 22 38  1  0
 24 39  1  0
 25 40  1  0
 26 41  1  0
M  END
>  <smiles>  (36) 
CS(=O)(=O)c1cccc(Nc2cc(=Nc3ccc(O)c(Br)c3)nc[nH]2)c1

>  <score_type>  (36) 
oracle

>  <origin>  (36) 
adgpu

>  <m_score__min__energy>  (36) 
-9.8699999999999992

>  <m_primary>  (36) 
energy

$$$$
36:0
     RDKit          3D

 40 42  0  0  0  0  0  0  0  0999 V2000
   -8.1820   19.9960  -32.2920 C   0  0  0  0  0  0  0  0  0  0  0  0
   -7.4770   21.2340  -31.8230 C   0  0  0  0  0  0  0  0  0  0  0  0
   -7.8980   21.8840  -30.6540 C   0  0  0  0  0  0  0  0  0  0  0  0
   -7.2380   23.0320  -30.2100 C   0  0  0  0  0  0  0  0  0  0  0  0
   -6.1430   23.5360  -30.9220 C   0  0  0  0  0  0  0  0  0  0  0  0
   -5.3320   24.9910  -30.3550 S   0  0  0  0  0  0  0  0  0  0  0  0
   -5.7280   25.2850  -28.9340 O   0  0  0  0  0  0  0  0  0  0  0  0
   -5.7320   26.1550  -31.2170 O   0  0  0  0  0  0  0  0  0  0  0  0
   -3.6150   24.7750  -30.4450 N   0  0  0  0  0  0  0  0  0  0  0  0
   -2.9570   23.5590  -30.0710 C   0  0  0  0  0  0  0  0  0  0  0  0
   -2.6230   22.6500  -31.0820 C   0  0  0  0  0  0  0  0  0  0  0  0
   -1.9130   21.4850  -30.7830 C   0  0  0  0  0  0  0  0  0  0  0  0
   -1.5370   21.2150  -29.4650 C   0  0  0  0  0  0  0  0  0  0  0  0
   -0.6360   19.7570  -29.0920 Cl  0  0  0  0  0  0  0  0  0  0  0  0
   -1.8920   22.0980  -28.4420 C   0  0  0  0  0  0  0  0  0  0  0  0
   -2.6270   23.2620  -28.7260 C   0  0  0  0  0  0  0  0  0  0  0  0
   -3.0660   24.1070  -27.5960 C   0  0  0  0  0  0  0  0  0  0  0  0
   -4.2120   23.9140  -27.1060 O   0  0  0  0  0  0  0  0  0  0  0  0
   -2.2230   25.2120  -27.0840 C   0  0  0  0  0  0  0  0  0  0  0  0
   -2.3520   25.6660  -25.7600 C   0  0  0  0  0  0  0  0  0  0  0  0
   -1.5530   26.7200  -25.3130 C   0  0  0  0  0  0  0  0  0  0  0  0
   -0.6350   27.3130  -26.1800 C   0  0  0  0  0  0  0  0  0  0  0  0
   -0.5350   26.8440  -27.4910 C   0  0  0  0  0  0  0  0  0  0  0  0
   -1.3240   25.8200  -27.9110 N   0  0  0  0  0  0  0  0  0  0  0  0
   -5.7000   22.8730  -32.0750 C   0  0  0  0  0  0  0  0  0  0  0  0
   -6.3620   21.7250  -32.5210 C   0  0  0  0  0  0  0  0  0  0  0  0
   -8.5148   19.4116  -31.4216 H   0  0  0  0  0  0  0  0  0  0  0  0
   -9.0546   20.2787  -32.8992 H   0  0  0  0  0  0  0  0  0  0  0  0
   -7.4936   19.3898  -32.8992 H   0  0  0  0  0  0  0  0  0  0  0  0
   -8.7516   21.4881  -30.0843 H   0  0  0  0  0  0  0  0  0  0  0  0
   -7.5799   23.5421  -29.2974 H   0  0  0  0  0  0  0  0  0  0  0  0
   -2.9222   22.8550  -32.1205 H   0  0  0  0  0  0  0  0  0  0  0  0
   -1.6499   20.7801  -31.5854 H   0  0  0  0  0  0  0  0  0  0  0  0
   -1.5938   21.8804  -27.4058 H   0  0  0  0  0  0  0  0  0  0  0  0
   -3.0774   25.1942  -25.0809 H   0  0  0  0  0  0  0  0  0  0  0  0
   -1.6472   27.0823  -24.2787 H   0  0  0  0  0  0  0  0  0  0  0  0
    0.0025   28.1403  -25.8347 H   0  0  0  0  0  0  0  0  0  0  0  0
    0.1836   27.3039  -28.1854 H   0  0  0  0  0  0  0  0  0  0  0  0
   -4.8307   23.2563  -32.6294 H   0  0  0  0  0  0  0  0  0  0  0  0
   -6.0077   21.2042  -33.4228 H   0  0  0  0  0  0  0  0  0  0  0  0
  1  2  1  0
  2  3  2  0
  3  4  1  0
  4  5  2  0
  5  6  1  0
  6  7  2  0
  6  8  2  0
  6  9  1  0
  9 10  1  0
 10 11  2  0
 11 12  1  0
 12 13  2  0
 13 14  1  0
 13 15  1  0
 15 16  2  0
 16 17  1  0
 17 18  2  0
 17 19  1  0
 19 20  2  0
 20 21  1  0
 21 22  2  0
 22 23  1  0
 23 24  2  0
  5 25  1  0
 25 26  2  0
 26  2  1  0
 16 10  1  0
 24 19  1  0
  1 27  1  0
  1 28  1  0
  1 29  1  0
  3 30  1  0
  4 31  1  0
 11 32  1  0
 12 33  1  0
 15 34  1  0
 20 35  1  0
 21 36  1  0
 22 37  1  0
 23 38  1  0
 25 39  1  0
 26 40  1  0
M  CHG  1   9  -1
M  END
>  <UniqueID>  (37) 
34

>  <SMILES>  (37) 
Cc1ccc(S(=O)(=O)[N-]c2ccc(Cl)cc2C(=O)c2ccccn2)cc1

>  <Energy>  (37) 
53.590942857421915

>  <Genealogy>  (37) 
Cc1ccc(S(=O)(=O)[N-]c2ccc(Cl)cc2C(=O)c2ccccn2)cc1 (protonated)
Cc1ccc(S(=O)(=O)[N-]c2ccc(Cl)cc2C(=O)c2ccccn2)cc1 (3D coordinates assigned)
Cc1ccc(S(=O)(=O)[N-]c2ccc(Cl)cc2C(=O)c2ccccn2)cc1 (optimized conformer: 53.590942857421915 kcal/mol)

>  <smiles>  (37) 
Cc1ccc(S(=O)(=O)Nc2ccc(Cl)cc2C(=O)c2ccccn2)cc1

>  <score_type>  (37) 
oracle

>  <origin>  (37) 
adgpu

>  <m_score__min__energy>  (37) 
-10.630000000000001

>  <m_primary>  (37) 
energy

$$$$
37:0
     RDKit          3D

 37 39  0  0  1  0  0  0  0  0999 V2000
   -7.0680   23.0480  -31.9490 Cl  0  0  0  0  0  0  0  0  0  0  0  0
   -5.7040   23.5030  -30.9650 C   0  0  0  0  0  0  0  0  0  0  0  0
   -5.6870   24.5750  -30.1140 C   0  0  0  0  0  0  0  0  0  0  0  0
   -4.5700   24.8370  -29.3950 N   0  0  0  0  0  0  0  0  0  0  0  0
   -3.4570   24.0890  -29.4730 C   0  0  0  0  0  0  0  0  0  0  0  0
   -2.2610   24.3810  -28.6930 C   0  0  0  0  0  0  0  0  0  0  0  0
   -2.2880   24.9270  -27.4500 C   0  0  0  0  0  0  0  0  0  0  0  0
   -1.1010   25.1630  -26.8010 C   0  0  0  0  0  0  0  0  0  0  0  0
    0.1330   24.8760  -27.3450 C   0  0  0  0  0  0  0  0  0  0  0  0
    0.1350   24.3300  -28.5910 N   0  0  0  0  0  0  0  0  0  0  0  0
   -1.0190   24.0920  -29.2400 C   0  0  0  0  0  0  0  0  0  0  0  0
   -3.4830   23.0380  -30.3110 N   0  0  0  0  0  0  0  0  0  0  0  0
   -4.5670   22.7340  -31.0480 C   0  0  0  0  0  0  0  0  0  0  0  0
   -4.5540   21.7440  -31.8210 N   0  0  0  0  0  0  0  0  0  0  0  0
   -5.5060   21.1900  -32.6940 C   0  0  0  0  0  0  0  0  0  0  0  0
   -5.0520   20.0610  -33.5400 C   0  0  0  0  0  0  0  0  0  0  0  0
   -5.9410   18.8600  -33.5090 C   0  0  0  0  0  0  0  0  0  0  0  0
   -7.2030   19.0090  -32.7750 C   0  0  0  0  0  0  0  0  0  0  0  0
   -8.2690   19.8630  -33.0070 C   0  0  0  0  0  0  0  0  0  0  0  0
   -9.1900   19.6030  -32.0380 N   0  0  0  0  0  0  0  0  0  0  0  0
   -8.7500   18.6390  -31.2260 C   0  0  0  0  0  0  0  0  0  0  0  0
   -7.5280   18.2750  -31.6810 N   0  0  0  0  0  0  0  0  0  0  0  0
   -6.5737   25.2184  -30.0150 H   0  0  0  0  0  0  0  0  0  0  0  0
   -4.6220   25.6670  -28.7680 H   0  0  0  0  0  0  0  0  0  0  0  0
   -3.2460   25.1764  -26.9703 H   0  0  0  0  0  0  0  0  0  0  0  0
   -1.1366   25.6043  -25.7940 H   0  0  0  0  0  0  0  0  0  0  0  0
    1.0669   25.0779  -26.8000 H   0  0  0  0  0  0  0  0  0  0  0  0
   -0.9763   23.6498  -30.2463 H   0  0  0  0  0  0  0  0  0  0  0  0
   -6.3494   20.8327  -32.0850 H   0  0  0  0  0  0  0  0  0  0  0  0
   -5.7587   21.9968  -33.3977 H   0  0  0  0  0  0  0  0  0  0  0  0
   -4.9906   20.4150  -34.5797 H   0  0  0  0  0  0  0  0  0  0  0  0
   -4.0815   19.7395  -33.1341 H   0  0  0  0  0  0  0  0  0  0  0  0
   -6.1860   18.5965  -34.5485 H   0  0  0  0  0  0  0  0  0  0  0  0
   -5.3746   18.0873  -32.9685 H   0  0  0  0  0  0  0  0  0  0  0  0
   -8.3546   20.6048  -33.8147 H   0  0  0  0  0  0  0  0  0  0  0  0
  -10.1250   20.0790  -31.9230 H   0  0  0  0  0  0  0  0  0  0  0  0
   -9.2780   18.2214  -30.3560 H   0  0  0  0  0  0  0  0  0  0  0  0
  1  2  1  0
  2  3  2  0
  3  4  1  0
  4  5  1  0
  5  6  1  0
  6  7  2  0
  7  8  1  0
  8  9  2  0
  9 10  1  0
 10 11  2  0
  5 12  2  0
 12 13  1  0
 13 14  2  0
 14 15  1  0
 15 16  1  0
 16 17  1  0
 17 18  1  0
 18 19  2  0
 19 20  1  0
 20 21  1  0
 21 22  2  0
 13  2  1  0
 22 18  1  0
 11  6  1  0
  3 23  1  0
  4 24  1  0
  7 25  1  0
  8 26  1  0
  9 27  1  0
 11 28  1  0
 15 29  1  0
 15 30  1  0
 16 31  1  0
 16 32  1  0
 17 33  1  0
 17 34  1  0
 19 35  1  0
 20 36  1  0
 21 37  1  0
M  END
>  <smiles>  (38) 
Clc1c[nH]c(-c2cccnc2)nc1=NCCCc1c[nH]cn1

>  <score_type>  (38) 
oracle

>  <origin>  (38) 
adgpu

>  <m_score__min__energy>  (38) 
-7.7599999999999998

>  <m_primary>  (38) 
energy

$$$$
38:0
     RDKit          3D

 57 60  0  0  0  0  0  0  0  0999 V2000
    4.5050   20.3930  -37.4210 C   0  0  0  0  0  0  0  0  0  0  0  0
    3.2900   21.1340  -37.4040 O   0  0  0  0  0  0  0  0  0  0  0  0
    2.3590   21.1090  -36.3530 C   0  0  0  0  0  0  0  0  0  0  0  0
    2.1220   19.9500  -35.5920 C   0  0  0  0  0  0  0  0  0  0  0  0
    1.1890   19.9620  -34.5540 C   0  0  0  0  0  0  0  0  0  0  0  0
    0.4700   21.1300  -34.2540 C   0  0  0  0  0  0  0  0  0  0  0  0
   -0.5250   21.1600  -33.1530 C   0  0  0  0  0  0  0  0  0  0  0  0
   -0.3450   20.7200  -31.8490 C   0  0  0  0  0  0  0  0  0  0  0  0
   -1.5510   20.9690  -31.2330 C   0  0  0  0  0  0  0  0  0  0  0  0
   -1.9070   20.5970  -29.5120 S   0  0  0  0  0  0  0  0  0  0  0  0
   -1.8830   22.3450  -29.0100 C   0  0  0  0  0  0  0  0  0  0  0  0
   -2.3980   21.5250  -32.1290 N   0  0  0  0  0  0  0  0  0  0  0  0
   -3.7560   21.9520  -31.9340 C   0  0  0  0  0  0  0  0  0  0  0  0
   -4.0370   23.1960  -31.4620 N   0  0  0  0  0  0  0  0  0  0  0  0
   -5.3180   23.6120  -31.2840 C   0  0  0  0  0  0  0  0  0  0  0  0
   -5.5870   25.0010  -30.7990 C   0  0  0  0  0  0  0  0  0  0  0  0
   -6.3740   22.7540  -31.5980 C   0  0  0  0  0  0  0  0  0  0  0  0
   -6.0790   21.4660  -32.0680 C   0  0  0  0  0  0  0  0  0  0  0  0
   -7.1240   20.5410  -32.4240 N   0  0  0  0  0  0  0  0  0  0  0  0
   -8.5260   20.9690  -32.2970 C   0  0  0  0  0  0  0  0  0  0  0  0
   -9.4980   19.8120  -32.5670 C   0  0  0  0  0  0  0  0  0  0  0  0
   -9.0150   18.5340  -31.8680 C   0  0  0  0  0  0  0  0  0  0  0  0
   -7.5910   18.1180  -32.3000 C   0  0  0  0  0  0  0  0  0  0  0  0
   -6.8220   19.2330  -33.0260 C   0  0  0  0  0  0  0  0  0  0  0  0
   -4.7770   21.1060  -32.2350 N   0  0  0  0  0  0  0  0  0  0  0  0
   -1.7770   21.6420  -33.2930 N   0  0  0  0  0  0  0  0  0  0  0  0
    0.7070   22.2870  -35.0160 C   0  0  0  0  0  0  0  0  0  0  0  0
    1.6470   22.2830  -36.0640 C   0  0  0  0  0  0  0  0  0  0  0  0
    1.9030   23.4240  -36.8410 O   0  0  0  0  0  0  0  0  0  0  0  0
    1.7440   24.7640  -36.3860 C   0  0  0  0  0  0  0  0  0  0  0  0
    4.8286   20.1956  -36.3884 H   0  0  0  0  0  0  0  0  0  0  0  0
    4.3451   19.4385  -37.9439 H   0  0  0  0  0  0  0  0  0  0  0  0
    5.2804   20.9721  -37.9439 H   0  0  0  0  0  0  0  0  0  0  0  0
    2.6764   19.0269  -35.8167 H   0  0  0  0  0  0  0  0  0  0  0  0
    1.0156   19.0487  -33.9660 H   0  0  0  0  0  0  0  0  0  0  0  0
    0.5578   20.2730  -31.4072 H   0  0  0  0  0  0  0  0  0  0  0  0
   -1.8821   22.4112  -27.9120 H   0  0  0  0  0  0  0  0  0  0  0  0
   -0.9781   22.8282  -29.4072 H   0  0  0  0  0  0  0  0  0  0  0  0
   -2.7743   22.8528  -29.4072 H   0  0  0  0  0  0  0  0  0  0  0  0
   -5.5890   25.0113  -29.6991 H   0  0  0  0  0  0  0  0  0  0  0  0
   -4.8032   25.6774  -31.1706 H   0  0  0  0  0  0  0  0  0  0  0  0
   -6.5667   25.3358  -31.1706 H   0  0  0  0  0  0  0  0  0  0  0  0
   -7.4172   23.0820  -31.4790 H   0  0  0  0  0  0  0  0  0  0  0  0
   -8.6933   21.3448  -31.2768 H   0  0  0  0  0  0  0  0  0  0  0  0
   -8.7137   21.7563  -33.0420 H   0  0  0  0  0  0  0  0  0  0  0  0
  -10.4946   20.0793  -32.1857 H   0  0  0  0  0  0  0  0  0  0  0  0
   -9.5445   19.6303  -33.6509 H   0  0  0  0  0  0  0  0  0  0  0  0
   -9.0168   18.7054  -30.7814 H   0  0  0  0  0  0  0  0  0  0  0  0
   -9.6989   17.7212  -32.1536 H   0  0  0  0  0  0  0  0  0  0  0  0
   -7.0241   17.8315  -31.4019 H   0  0  0  0  0  0  0  0  0  0  0  0
   -7.6980   17.2835  -33.0087 H   0  0  0  0  0  0  0  0  0  0  0  0
   -5.7421   19.0387  -32.9476 H   0  0  0  0  0  0  0  0  0  0  0  0
   -7.1280   19.2476  -34.0825 H   0  0  0  0  0  0  0  0  0  0  0  0
    0.1503   23.2085  -34.7904 H   0  0  0  0  0  0  0  0  0  0  0  0
    1.7421   24.7800  -35.2861 H   0  0  0  0  0  0  0  0  0  0  0  0
    2.5754   25.3794  -36.7602 H   0  0  0  0  0  0  0  0  0  0  0  0
    0.7916   25.1677  -36.7602 H   0  0  0  0  0  0  0  0  0  0  0  0
  1  2  1  0
  2  3  1  0
  3  4  2  0
  4  5  1  0
  5  6  2  0
  6  7  1  0
  7  8  1  0
  8  9  2  0
  9 10  1  0
 10 11  1  0
  9 12  1  0
 12 13  1  0
 13 14  2  0
 14 15  1  0
 15 16  1  0
 15 17  2  0
 17 18  1  0
 18 19  1  0
 19 20  1  0
 20 21  1  0
 21 22  1  0
 22 23  1  0
 23 24  1  0
 18 25  2  0
 12 26  1  0
  6 27  1  0
 27 28  2  0
 28 29  1  0
 29 30  1  0
 28  3  1  0
 26  7  2  0
 25 13  1  0
 24 19  1  0
  1 31  1  0
  1 32  1  0
  1 33  1  0
  4 34  1  0
  5 35  1  0
  8 36  1  0
 11 37  1  0
 11 38  1  0
 11 39  1  0
 16 40  1  0
 16 41  1  0
 16 42  1  0
 17 43  1  0
 20 44  1  0
 20 45  1  0
 21 46  1  0
 21 47  1  0
 22 48  1  0
 22 49  1  0
 23 50  1  0
 23 51  1  0
 24 52  1  0
 24 53  1  0
 27 54  1  0
 30 55  1  0
 30 56  1  0
 30 57  1  0
M  END
>  <UniqueID>  (39) 
35

>  <SMILES>  (39) 
COc1ccc(-c2cc(SC)n(-c3nc(C)cc(N4CCCCC4)n3)n2)cc1OC

>  <Energy>  (39) 
90.6624516360696

>  <Genealogy>  (39) 
COc1ccc(-c2cc(SC)n(-c3nc(C)cc(N4CCCCC4)n3)n2)cc1OC (3D coordinates assigned)
COc1ccc(-c2cc(SC)n(-c3nc(C)cc(N4CCCCC4)n3)n2)cc1OC (nonaromatic ring conformer: 90.6624516360696 kcal/mol)

>  <smiles>  (39) 
COc1ccc(-c2cc(SC)n(-c3nc(C)cc(N4CCCCC4)n3)n2)cc1OC

>  <score_type>  (39) 
oracle

>  <origin>  (39) 
adgpu

>  <m_score__min__energy>  (39) 
-8.7899999999999991

>  <m_primary>  (39) 
energy

$$$$
39:0
     RDKit          3D

 60 64  0  0  0  0  0  0  0  0999 V2000
   -1.7560   26.6690  -26.6500 C   0  0  0  0  0  0  0  0  0  0  0  0
   -2.1270   25.3170  -27.0490 N   0  0  0  0  0  0  0  0  0  0  0  0
   -2.0340   24.8810  -28.4110 C   0  0  0  0  0  0  0  0  0  0  0  0
   -1.6110   25.6650  -29.3030 O   0  0  0  0  0  0  0  0  0  0  0  0
   -2.4770   23.5230  -28.7850 C   0  0  0  0  0  0  0  0  0  0  0  0
   -1.9150   22.4240  -28.0900 C   0  0  0  0  0  0  0  0  0  0  0  0
   -0.9230   22.6080  -27.0060 C   0  0  0  0  0  0  0  0  0  0  0  0
   -1.2060   22.1400  -25.7140 C   0  0  0  0  0  0  0  0  0  0  0  0
   -0.2790   22.3150  -24.6830 C   0  0  0  0  0  0  0  0  0  0  0  0
    0.9390   22.9510  -24.9360 C   0  0  0  0  0  0  0  0  0  0  0  0
    1.8370   23.1180  -23.9350 F   0  0  0  0  0  0  0  0  0  0  0  0
    1.2340   23.4080  -26.2230 C   0  0  0  0  0  0  0  0  0  0  0  0
    0.3110   23.2360  -27.2600 C   0  0  0  0  0  0  0  0  0  0  0  0
    0.6240   23.6640  -28.5090 F   0  0  0  0  0  0  0  0  0  0  0  0
   -2.2820   21.1210  -28.4290 C   0  0  0  0  0  0  0  0  0  0  0  0
   -3.1690   20.8820  -29.4680 C   0  0  0  0  0  0  0  0  0  0  0  0
   -3.7410   21.9460  -30.1870 C   0  0  0  0  0  0  0  0  0  0  0  0
   -4.6470   21.7030  -31.2460 C   0  0  0  0  0  0  0  0  0  0  0  0
   -4.9750   20.3390  -31.7200 C   0  0  0  0  0  0  0  0  0  0  0  0
   -6.2840   19.8570  -31.5820 C   0  0  0  0  0  0  0  0  0  0  0  0
   -6.6150   18.5770  -32.0270 C   0  0  0  0  0  0  0  0  0  0  0  0
   -5.6510   17.7670  -32.6330 C   0  0  0  0  0  0  0  0  0  0  0  0
   -6.0220   16.4810  -33.0550 O   0  0  0  0  0  0  0  0  0  0  0  0
   -5.1700   15.3690  -33.1190 C   0  0  0  0  0  0  0  0  0  0  0  0
   -4.6640   14.7490  -31.9610 C   0  0  0  0  0  0  0  0  0  0  0  0
   -3.8020   13.6530  -32.0690 C   0  0  0  0  0  0  0  0  0  0  0  0
   -3.4220   13.1810  -33.3280 C   0  0  0  0  0  0  0  0  0  0  0  0
   -3.9060   13.8050  -34.4820 C   0  0  0  0  0  0  0  0  0  0  0  0
   -4.7730   14.8980  -34.3770 C   0  0  0  0  0  0  0  0  0  0  0  0
   -4.3340   18.2400  -32.7640 C   0  0  0  0  0  0  0  0  0  0  0  0
   -3.9890   19.5320  -32.3210 C   0  0  0  0  0  0  0  0  0  0  0  0
   -2.6890   20.0430  -32.4630 O   0  0  0  0  0  0  0  0  0  0  0  0
   -2.2910   20.9750  -33.4630 C   0  0  0  0  0  0  0  0  0  0  0  0
   -5.2570   22.7830  -31.8850 C   0  0  0  0  0  0  0  0  0  0  0  0
   -4.9670   24.0780  -31.4830 C   0  0  0  0  0  0  0  0  0  0  0  0
   -4.0820   24.3210  -30.4780 N   0  0  0  0  0  0  0  0  0  0  0  0
   -3.9160   25.6370  -30.1150 O   0  0  0  0  0  0  0  0  0  0  0  0
   -3.4310   23.2920  -29.8270 C   0  0  0  0  0  0  0  0  0  0  0  0
   -1.7378   26.7353  -25.5522 H   0  0  0  0  0  0  0  0  0  0  0  0
   -0.7590   26.9083  -27.0484 H   0  0  0  0  0  0  0  0  0  0  0  0
   -2.4912   27.3836  -27.0484 H   0  0  0  0  0  0  0  0  0  0  0  0
   -2.4920   24.6590  -26.3250 H   0  0  0  0  0  0  0  0  0  0  0  0
   -2.1612   21.6334  -25.5118 H   0  0  0  0  0  0  0  0  0  0  0  0
   -0.5087   21.9514  -23.6706 H   0  0  0  0  0  0  0  0  0  0  0  0
    2.1952   23.9047  -26.4214 H   0  0  0  0  0  0  0  0  0  0  0  0
   -1.8631   20.2740  -27.8658 H   0  0  0  0  0  0  0  0  0  0  0  0
   -3.4283   19.8464  -29.7329 H   0  0  0  0  0  0  0  0  0  0  0  0
   -7.0546   20.4917  -31.1202 H   0  0  0  0  0  0  0  0  0  0  0  0
   -7.6416   18.2028  -31.9000 H   0  0  0  0  0  0  0  0  0  0  0  0
   -4.9475   15.1278  -30.9679 H   0  0  0  0  0  0  0  0  0  0  0  0
   -3.4224   13.1616  -31.1610 H   0  0  0  0  0  0  0  0  0  0  0  0
   -2.7430   12.3196  -33.4113 H   0  0  0  0  0  0  0  0  0  0  0  0
   -3.6047   13.4361  -35.4735 H   0  0  0  0  0  0  0  0  0  0  0  0
   -5.1450   15.3903  -35.2876 H   0  0  0  0  0  0  0  0  0  0  0  0
   -3.5658   17.5956  -33.2165 H   0  0  0  0  0  0  0  0  0  0  0  0
   -1.9024   21.8849  -32.9823 H   0  0  0  0  0  0  0  0  0  0  0  0
   -1.5056   20.5273  -34.0896 H   0  0  0  0  0  0  0  0  0  0  0  0
   -3.1575   21.2328  -34.0896 H   0  0  0  0  0  0  0  0  0  0  0  0
   -5.9670   22.6074  -32.7066 H   0  0  0  0  0  0  0  0  0  0  0  0
   -5.4606   24.9233  -31.9849 H   0  0  0  0  0  0  0  0  0  0  0  0
  1  2  1  0
  2  3  1  0
  3  4  2  0
  3  5  1  0
  5  6  2  0
  6  7  1  0
  7  8  2  0
  8  9  1  0
  9 10  2  0
 10 11  1  0
 10 12  1  0
 12 13  2  0
 13 14  1  0
  6 15  1  0
 15 16  2  0
 16 17  1  0
 17 18  2  0
 18 19  1  0
 19 20  2  0
 20 21  1  0
 21 22  2  0
 22 23  1  0
 23 24  1  0
 24 25  2  0
 25 26  1  0
 26 27  2  0
 27 28  1  0
 28 29  2  0
 22 30  1  0
 30 31  2  0
 31 32  1  0
 32 33  1  0
 18 34  1  0
 34 35  2  0
 35 36  1  0
 36 37  1  0
 36 38  2  0
 38  5  1  0
 13  7  1  0
 38 17  1  0
 31 19  1  0
 29 24  1  0
  1 39  1  0
  1 40  1  0
  1 41  1  0
  2 42  1  0
  8 43  1  0
  9 44  1  0
 12 45  1  0
 15 46  1  0
 16 47  1  0
 20 48  1  0
 21 49  1  0
 25 50  1  0
 26 51  1  0
 27 52  1  0
 28 53  1  0
 29 54  1  0
 30 55  1  0
 33 56  1  0
 33 57  1  0
 33 58  1  0
 34 59  1  0
 35 60  1  0
M  CHG  2  36   1  37  -1
M  END
>  <UniqueID>  (40) 
36

>  <SMILES>  (40) 
CNC(=O)c1c(-c2ccc(F)cc2F)ccc2c(-c3ccc(Oc4ccccc4)cc3OC)cc[n+]([O-])c12

>  <Energy>  (40) 
102.90073907540278

>  <Genealogy>  (40) 
CNC(=O)c1c(-c2ccc(F)cc2F)ccc2c(-c3ccc(Oc4ccccc4)cc3OC)cc[n+]([O-])c12 (3D coordinates assigned)
CNC(=O)c1c(-c2ccc(F)cc2F)ccc2c(-c3ccc(Oc4ccccc4)cc3OC)cc[n+]([O-])c12 (optimized conformer: 102.90073907540278 kcal/mol)

>  <smiles>  (40) 
CNC(=O)c1c(-c2ccc(F)cc2F)ccc2c(-c3ccc(Oc4ccccc4)cc3OC)cc[n+]([O-])c12

>  <score_type>  (40) 
oracle

>  <origin>  (40) 
adgpu

>  <m_score__min__energy>  (40) 
-10.43

>  <m_primary>  (40) 
energy

$$$$
40:0
     RDKit          3D

 36 37  0  0  0  0  0  0  0  0999 V2000
   -5.9760   18.8300  -34.1850 C   0  0  0  0  0  0  0  0  0  0  0  0
   -6.5150   19.4700  -32.9480 C   0  0  0  0  0  0  0  0  0  0  0  0
   -5.8330   19.4460  -31.8880 O   0  0  0  0  0  0  0  0  0  0  0  0
   -7.8140   20.0760  -32.9640 N   0  0  0  0  0  0  0  0  0  0  0  0
   -8.3800   20.7520  -31.7980 C   0  0  0  0  0  0  0  0  0  0  0  0
   -7.6160   22.0150  -31.5070 C   0  0  0  0  0  0  0  0  0  0  0  0
   -6.8920   22.6480  -32.5290 C   0  0  0  0  0  0  0  0  0  0  0  0
   -6.1540   23.8040  -32.2590 C   0  0  0  0  0  0  0  0  0  0  0  0
   -6.1190   24.3350  -30.9600 C   0  0  0  0  0  0  0  0  0  0  0  0
   -5.3230   25.5780  -30.6620 C   0  0  0  0  0  0  0  0  0  0  0  0
   -3.9450   25.2620  -30.4590 O   0  0  0  0  0  0  0  0  0  0  0  0
   -3.4640   24.1010  -29.8320 C   0  0  0  0  0  0  0  0  0  0  0  0
   -3.3830   23.9700  -28.4310 C   0  0  0  0  0  0  0  0  0  0  0  0
   -2.8860   22.7930  -27.8610 C   0  0  0  0  0  0  0  0  0  0  0  0
   -2.4730   21.7390  -28.6790 C   0  0  0  0  0  0  0  0  0  0  0  0
   -2.5560   21.8590  -30.0680 C   0  0  0  0  0  0  0  0  0  0  0  0
   -2.1560   20.8340  -30.8620 F   0  0  0  0  0  0  0  0  0  0  0  0
   -3.0510   23.0350  -30.6410 C   0  0  0  0  0  0  0  0  0  0  0  0
   -6.8530   23.7080  -29.9410 C   0  0  0  0  0  0  0  0  0  0  0  0
   -7.5910   22.5520  -30.2100 C   0  0  0  0  0  0  0  0  0  0  0  0
   -5.2903   18.0158  -33.9076 H   0  0  0  0  0  0  0  0  0  0  0  0
   -6.8073   18.4228  -34.7792 H   0  0  0  0  0  0  0  0  0  0  0  0
   -5.4334   19.5800  -34.7792 H   0  0  0  0  0  0  0  0  0  0  0  0
   -8.3820   20.0330  -33.8400 H   0  0  0  0  0  0  0  0  0  0  0  0
   -9.4323   21.0021  -31.9984 H   0  0  0  0  0  0  0  0  0  0  0  0
   -8.3118   20.0830  -30.9275 H   0  0  0  0  0  0  0  0  0  0  0  0
   -6.9053   22.2325  -33.5474 H   0  0  0  0  0  0  0  0  0  0  0  0
   -5.5980   24.3000  -33.0683 H   0  0  0  0  0  0  0  0  0  0  0  0
   -5.4122   26.2748  -31.5085 H   0  0  0  0  0  0  0  0  0  0  0  0
   -5.7180   26.0377  -29.7440 H   0  0  0  0  0  0  0  0  0  0  0  0
   -3.7117   24.7962  -27.7834 H   0  0  0  0  0  0  0  0  0  0  0  0
   -2.8204   22.6976  -26.7671 H   0  0  0  0  0  0  0  0  0  0  0  0
   -2.0823   20.8143  -28.2292 H   0  0  0  0  0  0  0  0  0  0  0  0
   -3.1164   23.1233  -31.7355 H   0  0  0  0  0  0  0  0  0  0  0  0
   -6.8473   24.1289  -28.9247 H   0  0  0  0  0  0  0  0  0  0  0  0
   -8.1543   22.0611  -29.4027 H   0  0  0  0  0  0  0  0  0  0  0  0
  1  2  1  0
  2  3  2  0
  2  4  1  0
  4  5  1  0
  5  6  1  0
  6  7  2  0
  7  8  1  0
  8  9  2  0
  9 10  1  0
 10 11  1  0
 11 12  1  0
 12 13  2  0
 13 14  1  0
 14 15  2  0
 15 16  1  0
 16 17  1  0
 16 18  2  0
  9 19  1  0
 19 20  2  0
 20  6  1  0
 18 12  1  0
  1 21  1  0
  1 22  1  0
  1 23  1  0
  4 24  1  0
  5 25  1  0
  5 26  1  0
  7 27  1  0
  8 28  1  0
 10 29  1  0
 10 30  1  0
 13 31  1  0
 14 32  1  0
 15 33  1  0
 18 34  1  0
 19 35  1  0
 20 36  1  0
M  END
>  <UniqueID>  (41) 
37

>  <SMILES>  (41) 
CC(=O)NCc1ccc(COc2cccc(F)c2)cc1

>  <Energy>  (41) 
31.39933695835738

>  <Genealogy>  (41) 
CC(=O)NCc1ccc(COc2cccc(F)c2)cc1 (3D coordinates assigned)
CC(=O)NCc1ccc(COc2cccc(F)c2)cc1 (optimized conformer: 31.39933695835738 kcal/mol)

>  <smiles>  (41) 
CC(=O)NCc1ccc(COc2cccc(F)c2)cc1

>  <score_type>  (41) 
oracle

>  <origin>  (41) 
adgpu

>  <m_score__min__energy>  (41) 
-7.7300000000000004

>  <m_primary>  (41) 
energy

$$$$
41:0
     RDKit          3D

 44 47  0  0  0  0  0  0  0  0999 V2000
   -8.9691   19.5135  -33.3499 H   0  0  0  0  0  0  0  0  0  0  0  0
   -7.9710   19.8670  -33.0520 C   0  0  0  0  0  0  0  0  0  0  0  0
   -6.8740   19.1230  -33.3450 N   0  0  0  0  0  0  0  0  0  0  0  0
   -5.6140   19.5070  -32.9980 C   0  0  0  0  0  0  0  0  0  0  0  0
   -4.4900   18.6300  -33.3930 C   0  0  0  0  0  0  0  0  0  0  0  0
   -3.2730   19.1990  -33.8060 C   0  0  0  0  0  0  0  0  0  0  0  0
   -3.1552   20.2926  -33.8136 H   0  0  0  0  0  0  0  0  0  0  0  0
   -2.2120   18.3830  -34.2070 C   0  0  0  0  0  0  0  0  0  0  0  0
   -0.6910   19.1030  -34.7080 Cl  0  0  0  0  0  0  0  0  0  0  0  0
   -2.3630   16.9950  -34.2100 C   0  0  0  0  0  0  0  0  0  0  0  0
   -1.5264   16.3531  -34.5231 H   0  0  0  0  0  0  0  0  0  0  0  0
   -3.5750   16.4180  -33.8160 C   0  0  0  0  0  0  0  0  0  0  0  0
   -3.6881   15.3239  -33.8255 H   0  0  0  0  0  0  0  0  0  0  0  0
   -4.6520   17.2300  -33.4070 C   0  0  0  0  0  0  0  0  0  0  0  0
   -5.8810   16.6830  -33.0020 O   0  0  0  0  0  0  0  0  0  0  0  0
   -6.8560   16.1440  -33.8880 C   0  0  0  0  0  0  0  0  0  0  0  0
   -7.6721   15.6928  -33.3045 H   0  0  0  0  0  0  0  0  0  0  0  0
   -7.2592   16.9473  -34.5221 H   0  0  0  0  0  0  0  0  0  0  0  0
   -6.3901   15.3753  -34.5221 H   0  0  0  0  0  0  0  0  0  0  0  0
   -5.4250   20.7190  -32.2870 C   0  0  0  0  0  0  0  0  0  0  0  0
   -4.1580   21.1520  -31.8470 C   0  0  0  0  0  0  0  0  0  0  0  0
   -3.2694   20.5377  -32.0545 H   0  0  0  0  0  0  0  0  0  0  0  0
   -4.0210   22.3540  -31.1500 C   0  0  0  0  0  0  0  0  0  0  0  0
   -3.0249   22.6846  -30.8205 H   0  0  0  0  0  0  0  0  0  0  0  0
   -5.1440   23.1410  -30.8680 C   0  0  0  0  0  0  0  0  0  0  0  0
   -4.9780   24.6500  -29.9770 S   0  0  0  0  0  0  0  0  0  0  0  0
   -4.2340   25.6710  -30.7930 O   0  0  0  0  0  0  0  0  0  0  0  0
   -6.3470   25.1810  -29.6590 O   0  0  0  0  0  0  0  0  0  0  0  0
   -4.1160   24.3700  -28.4980 N   0  0  0  0  0  0  0  0  0  0  0  0
   -2.8440   24.5850  -28.3690 C   0  0  0  0  0  0  0  0  0  0  0  0
   -2.0440   25.0480  -29.3500 N   0  0  0  0  0  0  0  0  0  0  0  0
   -0.8500   25.1250  -28.8370 O   0  0  0  0  0  0  0  0  0  0  0  0
   -0.8450   24.7330  -27.5820 C   0  0  0  0  0  0  0  0  0  0  0  0
    0.3590   24.7230  -26.6980 C   0  0  0  0  0  0  0  0  0  0  0  0
    0.5310   23.4640  -26.1500 F   0  0  0  0  0  0  0  0  0  0  0  0
    0.1990   25.6410  -25.6770 F   0  0  0  0  0  0  0  0  0  0  0  0
    1.4780   25.0520  -27.4390 F   0  0  0  0  0  0  0  0  0  0  0  0
   -2.1260   24.3700  -27.2160 C   0  0  0  0  0  0  0  0  0  0  0  0
   -2.4834   24.0005  -26.2435 H   0  0  0  0  0  0  0  0  0  0  0  0
   -6.4100   22.7170  -31.2850 C   0  0  0  0  0  0  0  0  0  0  0  0
   -7.2930   23.3344  -31.0633 H   0  0  0  0  0  0  0  0  0  0  0  0
   -6.5620   21.5100  -31.9840 C   0  0  0  0  0  0  0  0  0  0  0  0
   -7.8360   21.0770  -32.3750 C   0  0  0  0  0  0  0  0  0  0  0  0
   -8.7226   21.6877  -32.1491 H   0  0  0  0  0  0  0  0  0  0  0  0
  1  2  1  0
  2  3  2  0
  3  4  1  0
  4  5  1  0
  5  6  2  0
  6  7  1  0
  6  8  1  0
  8  9  1  0
  8 10  2  0
 10 11  1  0
 10 12  1  0
 12 13  1  0
 12 14  2  0
 14 15  1  0
 15 16  1  0
 16 17  1  0
 16 18  1  0
 16 19  1  0
  4 20  2  0
 20 21  1  0
 21 22  1  0
 21 23  2  0
 23 24  1  0
 23 25  1  0
 25 26  1  0
 26 27  2  0
 26 28  2  0
 26 29  1  0
 29 30  2  0
 30 31  1  0
 31 32  1  0
 32 33  1  0
 33 34  1  0
 34 35  1  0
 34 36  1  0
 34 37  1  0
 33 38  2  0
 38 39  1  0
 25 40  2  0
 40 41  1  0
 40 42  1  0
 42 43  2  0
 43 44  1  0
 43  2  1  0
 14  5  1  0
 42 20  1  0
 38 30  1  0
M  CHG  1  31  -1
M  END
>  <UniqueID>  (42) 
38

>  <SMILES>  (42) 
COc1ccc(Cl)cc1-c1nccc2cc(S(=O)(=O)/N=c3/cc(C(F)(F)F)o[n-]3)ccc12

>  <Energy>  (42) 
92.97211490673476

>  <Genealogy>  (42) 
COc1ccc(Cl)cc1-c1nccc2cc(S(=O)(=O)N=c3cc(C(F)(F)F)o[n-]3)ccc12 (protonated)
COc1ccc(Cl)cc1-c1nccc2cc(S(=O)(=O)/N=c3/cc(C(F)(F)F)o[n-]3)ccc12 (cis-trans isomerization)
COc1ccc(Cl)cc1-c1nccc2cc(S(=O)(=O)/N=c3/cc(C(F)(F)F)o[n-]3)ccc12 (3D coordinates assigned)
COc1ccc(Cl)cc1-c1nccc2cc(S(=O)(=O)/N=c3/cc(C(F)(F)F)o[n-]3)ccc12 (optimized conformer: 92.97211490673476 kcal/mol)

>  <smiles>  (42) 
COc1ccc(Cl)cc1-c1nccc2cc(S(=O)(=O)N=c3cc(C(F)(F)F)o[nH]3)ccc12

>  <score_type>  (42) 
oracle

>  <origin>  (42) 
adgpu

>  <m_score__min__energy>  (42) 
-11.09

>  <m_primary>  (42) 
energy

$$$$
42:0
     RDKit          3D

 23 24  0  0  0  0  0  0  0  0999 V2000
   -3.8650   25.2910  -30.4680 O   0  0  0  0  0  0  0  0  0  0  0  0
   -4.6350   24.4630  -29.9100 C   0  0  0  0  0  0  0  0  0  0  0  0
   -4.5230   24.2130  -28.4990 N   0  0  0  0  0  0  0  0  0  0  0  0
   -3.3610   24.5410  -27.7170 C   0  0  0  0  0  0  0  0  0  0  0  0
   -2.0610   24.3390  -28.2160 C   0  0  0  0  0  0  0  0  0  0  0  0
   -0.9470   24.6430  -27.4270 C   0  0  0  0  0  0  0  0  0  0  0  0
   -1.1200   25.1400  -26.1310 C   0  0  0  0  0  0  0  0  0  0  0  0
    0.4030   25.5540  -25.0540 Br  0  0  0  0  0  0  0  0  0  0  0  0
   -2.4080   25.3240  -25.6210 C   0  0  0  0  0  0  0  0  0  0  0  0
   -3.5230   25.0190  -26.4070 C   0  0  0  0  0  0  0  0  0  0  0  0
   -5.6710   23.7940  -30.7160 C   0  0  0  0  0  0  0  0  0  0  0  0
   -7.0500   23.9370  -30.5870 C   0  0  0  0  0  0  0  0  0  0  0  0
   -7.7740   23.1530  -31.4930 C   0  0  0  0  0  0  0  0  0  0  0  0
   -6.9770   22.3890  -32.3340 C   0  0  0  0  0  0  0  0  0  0  0  0
   -5.3690   22.6880  -31.9480 S   0  0  0  0  0  0  0  0  0  0  0  0
   -5.3690   23.8710  -27.9900 H   0  0  0  0  0  0  0  0  0  0  0  0
   -1.9202   23.9401  -29.2314 H   0  0  0  0  0  0  0  0  0  0  0  0
    0.0667   24.4910  -27.8262 H   0  0  0  0  0  0  0  0  0  0  0  0
   -2.5446   25.7093  -24.5998 H   0  0  0  0  0  0  0  0  0  0  0  0
   -4.5344   25.1545  -25.9962 H   0  0  0  0  0  0  0  0  0  0  0  0
   -7.5231   24.5996  -29.8473 H   0  0  0  0  0  0  0  0  0  0  0  0
   -8.8732   23.1434  -31.5345 H   0  0  0  0  0  0  0  0  0  0  0  0
   -7.3359   21.7058  -33.1178 H   0  0  0  0  0  0  0  0  0  0  0  0
  1  2  2  0
  2  3  1  0
  3  4  1  0
  4  5  2  0
  5  6  1  0
  6  7  2  0
  7  8  1  0
  7  9  1  0
  9 10  2  0
  2 11  1  0
 11 12  2  0
 12 13  1  0
 13 14  2  0
 14 15  1  0
 10  4  1  0
 15 11  1  0
  3 16  1  0
  5 17  1  0
  6 18  1  0
  9 19  1  0
 10 20  1  0
 12 21  1  0
 13 22  1  0
 14 23  1  0
M  END
>  <UniqueID>  (43) 
39

>  <SMILES>  (43) 
O=C(Nc1ccc(Br)cc1)c1cccs1

>  <Energy>  (43) 
52.7231919340783

>  <Genealogy>  (43) 
O=C(Nc1ccc(Br)cc1)c1cccs1 (3D coordinates assigned)
O=C(Nc1ccc(Br)cc1)c1cccs1 (optimized conformer: 52.7231919340783 kcal/mol)

>  <smiles>  (43) 
O=C(Nc1ccc(Br)cc1)c1cccs1

>  <score_type>  (43) 
oracle

>  <origin>  (43) 
adgpu

>  <m_score__min__energy>  (43) 
-6.7699999999999996

>  <m_primary>  (43) 
energy

$$$$
43:0
     RDKit          3D

 35 37  0  0  0  0  0  0  0  0999 V2000
   -6.8100   15.8900  -33.8760 C   0  0  0  0  0  0  0  0  0  0  0  0
   -6.0270   17.1580  -33.8790 C   0  0  0  0  0  0  0  0  0  0  0  0
   -5.6100   17.8540  -32.7640 C   0  0  0  0  0  0  0  0  0  0  0  0
   -4.9990   18.9780  -33.2930 C   0  0  0  0  0  0  0  0  0  0  0  0
   -4.3570   20.0880  -32.5530 C   0  0  0  0  0  0  0  0  0  0  0  0
   -3.4050   20.8940  -33.1990 C   0  0  0  0  0  0  0  0  0  0  0  0
   -2.7840   21.9460  -32.5200 C   0  0  0  0  0  0  0  0  0  0  0  0
   -3.0960   22.2010  -31.1730 C   0  0  0  0  0  0  0  0  0  0  0  0
   -2.5010   23.2850  -30.4430 N   0  0  0  0  0  0  0  0  0  0  0  0
   -3.1180   24.5340  -30.1040 C   0  0  0  0  0  0  0  0  0  0  0  0
   -2.6160   25.2770  -29.2210 O   0  0  0  0  0  0  0  0  0  0  0  0
   -4.3110   24.9600  -30.7700 N   0  0  0  0  0  0  0  0  0  0  0  0
   -5.5000   24.1810  -30.9620 C   0  0  0  0  0  0  0  0  0  0  0  0
   -6.1950   23.7240  -29.8340 C   0  0  0  0  0  0  0  0  0  0  0  0
   -7.3470   22.9440  -29.9800 C   0  0  0  0  0  0  0  0  0  0  0  0
   -7.8030   22.5990  -31.2570 C   0  0  0  0  0  0  0  0  0  0  0  0
   -9.2450   21.6180  -31.4390 Cl  0  0  0  0  0  0  0  0  0  0  0  0
   -7.0990   23.0280  -32.3870 C   0  0  0  0  0  0  0  0  0  0  0  0
   -5.9480   23.8090  -32.2430 C   0  0  0  0  0  0  0  0  0  0  0  0
   -4.0620   21.4160  -30.5350 C   0  0  0  0  0  0  0  0  0  0  0  0
   -4.6820   20.3620  -31.2140 C   0  0  0  0  0  0  0  0  0  0  0  0
   -5.0810   18.9160  -34.6040 O   0  0  0  0  0  0  0  0  0  0  0  0
   -5.6990   17.8390  -34.9930 N   0  0  0  0  0  0  0  0  0  0  0  0
   -7.0015   15.5798  -32.8382 H   0  0  0  0  0  0  0  0  0  0  0  0
   -7.7674   16.0490  -34.3938 H   0  0  0  0  0  0  0  0  0  0  0  0
   -6.2390   15.1052  -34.3938 H   0  0  0  0  0  0  0  0  0  0  0  0
   -5.7335   17.5810  -31.7056 H   0  0  0  0  0  0  0  0  0  0  0  0
   -3.1458   20.6953  -34.2494 H   0  0  0  0  0  0  0  0  0  0  0  0
   -2.0487   22.5766  -33.0412 H   0  0  0  0  0  0  0  0  0  0  0  0
   -5.8323   23.9803  -28.8276 H   0  0  0  0  0  0  0  0  0  0  0  0
   -7.8950   22.6015  -29.0898 H   0  0  0  0  0  0  0  0  0  0  0  0
   -7.4516   22.7504  -33.3913 H   0  0  0  0  0  0  0  0  0  0  0  0
   -5.3909   24.1337  -33.1342 H   0  0  0  0  0  0  0  0  0  0  0  0
   -4.3362   21.6292  -29.4913 H   0  0  0  0  0  0  0  0  0  0  0  0
   -5.4294   19.7432  -30.6959 H   0  0  0  0  0  0  0  0  0  0  0  0
  1  2  1  0
  2  3  1  0
  3  4  2  0
  4  5  1  0
  5  6  2  0
  6  7  1  0
  7  8  2  0
  8  9  1  0
  9 10  1  0
 10 11  2  0
 10 12  1  0
 12 13  1  0
 13 14  2  0
 14 15  1  0
 15 16  2  0
 16 17  1  0
 16 18  1  0
 18 19  2  0
  8 20  1  0
 20 21  2  0
  4 22  1  0
 22 23  1  0
 23  2  2  0
 21  5  1  0
 19 13  1  0
  1 24  1  0
  1 25  1  0
  1 26  1  0
  3 27  1  0
  6 28  1  0
  7 29  1  0
 14 30  1  0
 15 31  1  0
 18 32  1  0
 19 33  1  0
 20 34  1  0
 21 35  1  0
M  CHG  2   9  -1  12  -1
M  END
>  <UniqueID>  (44) 
40

>  <SMILES>  (44) 
Cc1cc(-c2ccc([N-]C(=O)[N-]c3ccc(Cl)cc3)cc2)on1

>  <Energy>  (44) 
74.27808085153933

>  <Genealogy>  (44) 
Cc1cc(-c2ccc([N-]C(=O)[N-]c3ccc(Cl)cc3)cc2)on1 (protonated)
Cc1cc(-c2ccc([N-]C(=O)[N-]c3ccc(Cl)cc3)cc2)on1 (3D coordinates assigned)
Cc1cc(-c2ccc([N-]C(=O)[N-]c3ccc(Cl)cc3)cc2)on1 (optimized conformer: 74.27808085153933 kcal/mol)

>  <smiles>  (44) 
Cc1cc(-c2ccc(NC(=O)Nc3ccc(Cl)cc3)cc2)on1

>  <score_type>  (44) 
oracle

>  <origin>  (44) 
adgpu

>  <m_score__min__energy>  (44) 
-11.550000000000001

>  <m_primary>  (44) 
energy

$$$$
44:0
     RDKit          3D

 21 22  0  0  0  0  0  0  0  0999 V2000
   -0.2060   21.3700  -28.9250 S   0  0  0  0  0  0  0  0  0  0  0  0
   -1.1440   22.6990  -29.0850 C   0  0  0  0  0  0  0  0  0  0  0  0
   -2.4070   22.6060  -29.6730 C   0  0  0  0  0  0  0  0  0  0  0  0
   -3.1750   23.7710  -29.7980 C   0  0  0  0  0  0  0  0  0  0  0  0
   -4.5220   23.7100  -30.4130 C   0  0  0  0  0  0  0  0  0  0  0  0
   -5.5850   24.4050  -29.8090 C   0  0  0  0  0  0  0  0  0  0  0  0
   -6.8610   24.3790  -30.3760 C   0  0  0  0  0  0  0  0  0  0  0  0
   -7.0910   23.6560  -31.5480 C   0  0  0  0  0  0  0  0  0  0  0  0
   -6.0460   22.9530  -32.1520 C   0  0  0  0  0  0  0  0  0  0  0  0
   -4.7630   22.9720  -31.5930 C   0  0  0  0  0  0  0  0  0  0  0  0
   -3.5060   22.0060  -32.3590 Cl  0  0  0  0  0  0  0  0  0  0  0  0
   -2.6830   24.9550  -29.3300 N   0  0  0  0  0  0  0  0  0  0  0  0
   -1.4460   25.0200  -28.7610 C   0  0  0  0  0  0  0  0  0  0  0  0
   -0.8650   26.4450  -28.2070 S   0  0  0  0  0  0  0  0  0  0  0  0
   -0.6900   23.8990  -28.6440 N   0  0  0  0  0  0  0  0  0  0  0  0
   -2.7907   21.6390  -30.0303 H   0  0  0  0  0  0  0  0  0  0  0  0
   -5.4102   24.9731  -28.8834 H   0  0  0  0  0  0  0  0  0  0  0  0
   -7.6856   24.9287  -29.8987 H   0  0  0  0  0  0  0  0  0  0  0  0
   -8.0955   23.6400  -31.9959 H   0  0  0  0  0  0  0  0  0  0  0  0
   -6.2326   22.3808  -33.0728 H   0  0  0  0  0  0  0  0  0  0  0  0
   -3.2670   25.8200  -29.3950 H   0  0  0  0  0  0  0  0  0  0  0  0
  1  2  2  0
  2  3  1  0
  3  4  2  0
  4  5  1  0
  5  6  2  0
  6  7  1  0
  7  8  2  0
  8  9  1  0
  9 10  2  0
 10 11  1  0
  4 12  1  0
 12 13  1  0
 13 14  2  0
 13 15  1  0
 15  2  1  0
 10  5  1  0
  3 16  1  0
  6 17  1  0
  7 18  1  0
  8 19  1  0
  9 20  1  0
 12 21  1  0
M  CHG  1  15  -1
M  END
>  <UniqueID>  (45) 
41

>  <SMILES>  (45) 
S=c1cc(-c2ccccc2Cl)[nH]c(=S)[n-]1

>  <Energy>  (45) 
29.52310625890732

>  <Genealogy>  (45) 
S=c1cc(-c2ccccc2Cl)[nH]c(=S)[n-]1 (protonated)
S=c1cc(-c2ccccc2Cl)[nH]c(=S)[n-]1 (3D coordinates assigned)
S=c1cc(-c2ccccc2Cl)[nH]c(=S)[n-]1 (optimized conformer: 29.52310625890732 kcal/mol)

>  <smiles>  (45) 
S=c1cc(-c2ccccc2Cl)[nH]c(=S)[nH]1

>  <score_type>  (45) 
oracle

>  <origin>  (45) 
adgpu

>  <m_score__min__energy>  (45) 
-7.5700000000000003

>  <m_primary>  (45) 
energy

$$$$
45:0
     RDKit          3D

 29 31  0  0  1  0  0  0  0  0999 V2000
   -2.7890   21.5510  -33.4670 N   0  0  0  0  0  0  0  0  0  0  0  0
   -3.5090   20.3350  -33.3710 C   0  0  0  0  0  0  0  0  0  0  0  0
   -2.9700   19.2120  -33.5010 O   0  0  0  0  0  0  0  0  0  0  0  0
   -4.9270   20.3950  -33.1140 C   0  0  0  0  0  0  0  0  0  0  0  0
   -5.6720   21.2720  -32.3340 C   0  0  0  0  0  0  0  0  0  0  0  0
   -6.9870   21.0880  -32.2790 C   0  0  0  0  0  0  0  0  0  0  0  0
   -7.9500   21.8440  -31.5590 C   0  0  0  0  0  0  0  0  0  0  0  0
   -7.6760   22.8300  -30.8480 N   0  0  0  0  0  0  0  0  0  0  0  0
   -6.4800   23.4610  -30.5460 C   0  0  0  0  0  0  0  0  0  0  0  0
   -6.1250   24.6600  -31.1890 C   0  0  0  0  0  0  0  0  0  0  0  0
   -4.9580   25.3000  -30.8300 C   0  0  0  0  0  0  0  0  0  0  0  0
   -4.1300   24.7650  -29.8380 C   0  0  0  0  0  0  0  0  0  0  0  0
   -4.4760   23.5880  -29.2060 C   0  0  0  0  0  0  0  0  0  0  0  0
   -3.4000   22.7950  -27.8430 Br  0  0  0  0  0  0  0  0  0  0  0  0
   -5.6420   22.9300  -29.5490 C   0  0  0  0  0  0  0  0  0  0  0  0
   -9.2560   21.4850  -31.6390 N   0  0  0  0  0  0  0  0  0  0  0  0
   -9.7290   20.4700  -32.3420 C   0  0  0  0  0  0  0  0  0  0  0  0
   -8.8450   19.7320  -33.0350 N   0  0  0  0  0  0  0  0  0  0  0  0
   -7.5400   20.0590  -32.9800 C   0  0  0  0  0  0  0  0  0  0  0  0
   -6.1510   19.2320  -33.8180 S   0  0  0  0  0  0  0  0  0  0  0  0
   -2.0200   21.7980  -32.8060 H   0  0  0  0  0  0  0  0  0  0  0  0
   -3.0560   22.2170  -34.2420 H   0  0  0  0  0  0  0  0  0  0  0  0
   -5.1891   22.0910  -31.7807 H   0  0  0  0  0  0  0  0  0  0  0  0
   -6.7724   25.0833  -31.9711 H   0  0  0  0  0  0  0  0  0  0  0  0
   -4.6757   26.2393  -31.3279 H   0  0  0  0  0  0  0  0  0  0  0  0
   -3.2005   25.2838  -29.5608 H   0  0  0  0  0  0  0  0  0  0  0  0
   -5.9143   21.9921  -29.0428 H   0  0  0  0  0  0  0  0  0  0  0  0
  -10.8042   20.2386  -32.3590 H   0  0  0  0  0  0  0  0  0  0  0  0
   -9.1390   18.9180  -33.6120 H   0  0  0  0  0  0  0  0  0  0  0  0
  1  2  1  0
  2  3  2  0
  2  4  1  0
  4  5  2  0
  5  6  1  0
  6  7  1  0
  7  8  2  0
  8  9  1  0
  9 10  2  0
 10 11  1  0
 11 12  2  0
 12 13  1  0
 13 14  1  0
 13 15  2  0
  7 16  1  0
 16 17  2  0
 17 18  1  0
 18 19  1  0
 19 20  1  0
 20  4  1  0
 19  6  2  0
 15  9  1  0
  1 21  1  0
  1 22  1  0
  5 23  1  0
 10 24  1  0
 11 25  1  0
 12 26  1  0
 15 27  1  0
 17 28  1  0
 18 29  1  0
M  END
>  <smiles>  (46) 
NC(=O)c1cc2c(=Nc3cccc(Br)c3)nc[nH]c2s1

>  <score_type>  (46) 
oracle

>  <origin>  (46) 
adgpu

>  <m_score__min__energy>  (46) 
-7.9299999999999997

>  <m_primary>  (46) 
energy

$$$$
46:0
     RDKit          3D

 49 51  0  0  0  0  0  0  0  0999 V2000
   -9.1170   18.6350  -31.3130 C   0  0  0  0  0  0  0  0  0  0  0  0
   -8.3450   19.0130  -32.5720 C   0  0  0  0  0  0  0  0  0  0  0  0
   -6.9380   18.9040  -32.3550 O   0  0  0  0  0  0  0  0  0  0  0  0
   -6.0580   18.0710  -33.0680 C   0  0  0  0  0  0  0  0  0  0  0  0
   -6.5140   16.9970  -33.8590 C   0  0  0  0  0  0  0  0  0  0  0  0
   -5.6070   16.1950  -34.5550 C   0  0  0  0  0  0  0  0  0  0  0  0
   -4.2400   16.4470  -34.4680 C   0  0  0  0  0  0  0  0  0  0  0  0
   -3.7720   17.5080  -33.6900 C   0  0  0  0  0  0  0  0  0  0  0  0
   -4.6740   18.3370  -32.9970 C   0  0  0  0  0  0  0  0  0  0  0  0
   -4.1930   19.4130  -32.1700 N   0  0  0  0  0  0  0  0  0  0  0  0
   -3.0950   20.2670  -32.5360 C   0  0  0  0  0  0  0  0  0  0  0  0
   -2.7520   20.3580  -33.7470 O   0  0  0  0  0  0  0  0  0  0  0  0
   -2.3950   21.0810  -31.5150 C   0  0  0  0  0  0  0  0  0  0  0  0
   -1.1550   20.6620  -31.0040 C   0  0  0  0  0  0  0  0  0  0  0  0
   -0.4890   21.4280  -30.0440 C   0  0  0  0  0  0  0  0  0  0  0  0
   -1.0500   22.6200  -29.5800 C   0  0  0  0  0  0  0  0  0  0  0  0
   -0.3840   23.3380  -28.6410 F   0  0  0  0  0  0  0  0  0  0  0  0
   -2.2910   23.0520  -30.0760 C   0  0  0  0  0  0  0  0  0  0  0  0
   -3.0390   24.5480  -29.5100 S   0  0  0  0  0  0  0  0  0  0  0  0
   -4.0050   24.2130  -28.4110 O   0  0  0  0  0  0  0  0  0  0  0  0
   -2.0020   25.4930  -28.9680 O   0  0  0  0  0  0  0  0  0  0  0  0
   -3.9050   25.3320  -30.8020 N   0  0  0  0  0  0  0  0  0  0  0  0
   -5.3320   25.4590  -30.4940 C   0  0  0  0  0  0  0  0  0  0  0  0
   -6.0650   24.1780  -30.7890 C   0  0  0  0  0  0  0  0  0  0  0  0
   -6.0940   23.6500  -32.0880 C   0  0  0  0  0  0  0  0  0  0  0  0
   -6.7880   22.4650  -32.3440 C   0  0  0  0  0  0  0  0  0  0  0  0
   -7.4480   21.8200  -31.2960 C   0  0  0  0  0  0  0  0  0  0  0  0
   -7.4110   22.3430  -30.0420 N   0  0  0  0  0  0  0  0  0  0  0  0
   -6.7420   23.4950  -29.7690 C   0  0  0  0  0  0  0  0  0  0  0  0
   -2.9630   22.2740  -31.0310 C   0  0  0  0  0  0  0  0  0  0  0  0
   -8.5334   18.9207  -30.4254 H   0  0  0  0  0  0  0  0  0  0  0  0
  -10.0823   19.1624  -31.3026 H   0  0  0  0  0  0  0  0  0  0  0  0
   -9.2923   17.5491  -31.3026 H   0  0  0  0  0  0  0  0  0  0  0  0
   -8.6371   18.3386  -33.3904 H   0  0  0  0  0  0  0  0  0  0  0  0
   -8.5823   20.0552  -32.8319 H   0  0  0  0  0  0  0  0  0  0  0  0
   -7.5919   16.7891  -33.9285 H   0  0  0  0  0  0  0  0  0  0  0  0
   -5.9731   15.3622  -35.1734 H   0  0  0  0  0  0  0  0  0  0  0  0
   -3.5281   15.8095  -35.0128 H   0  0  0  0  0  0  0  0  0  0  0  0
   -2.6908   17.6972  -33.6182 H   0  0  0  0  0  0  0  0  0  0  0  0
   -4.7320   19.6520  -31.3080 H   0  0  0  0  0  0  0  0  0  0  0  0
   -0.7054   19.7242  -31.3624 H   0  0  0  0  0  0  0  0  0  0  0  0
    0.4818   21.0908  -29.6517 H   0  0  0  0  0  0  0  0  0  0  0  0
   -5.4493   25.7029  -29.4278 H   0  0  0  0  0  0  0  0  0  0  0  0
   -5.7557   26.2570  -31.1215 H   0  0  0  0  0  0  0  0  0  0  0  0
   -5.5706   24.1687  -32.9047 H   0  0  0  0  0  0  0  0  0  0  0  0
   -6.8143   22.0445  -33.3601 H   0  0  0  0  0  0  0  0  0  0  0  0
   -7.9989   20.8869  -31.4857 H   0  0  0  0  0  0  0  0  0  0  0  0
   -6.7320   23.8926  -28.7434 H   0  0  0  0  0  0  0  0  0  0  0  0
   -3.9445   22.6002  -31.4054 H   0  0  0  0  0  0  0  0  0  0  0  0
  1  2  1  0
  2  3  1  0
  3  4  1  0
  4  5  2  0
  5  6  1  0
  6  7  2  0
  7  8  1  0
  8  9  2  0
  9 10  1  0
 10 11  1  0
 11 12  2  0
 11 13  1  0
 13 14  2  0
 14 15  1  0
 15 16  2  0
 16 17  1  0
 16 18  1  0
 18 19  1  0
 19 20  2  0
 19 21  2  0
 19 22  1  0
 22 23  1  0
 23 24  1  0
 24 25  2  0
 25 26  1  0
 26 27  2  0
 27 28  1  0
 28 29  2  0
 18 30  2  0
  9  4  1  0
 30 13  1  0
 29 24  1  0
  1 31  1  0
  1 32  1  0
  1 33  1  0
  2 34  1  0
  2 35  1  0
  5 36  1  0
  6 37  1  0
  7 38  1  0
  8 39  1  0
 10 40  1  0
 14 41  1  0
 15 42  1  0
 23 43  1  0
 23 44  1  0
 25 45  1  0
 26 46  1  0
 27 47  1  0
 29 48  1  0
 30 49  1  0
M  CHG  1  22  -1
M  END
>  <UniqueID>  (47) 
42

>  <SMILES>  (47) 
CCOc1ccccc1NC(=O)c1ccc(F)c(S(=O)(=O)[N-]Cc2cccnc2)c1

>  <Energy>  (47) 
55.79750457125601

>  <Genealogy>  (47) 
CCOc1ccccc1NC(=O)c1ccc(F)c(S(=O)(=O)[N-]Cc2cccnc2)c1 (protonated)
CCOc1ccccc1NC(=O)c1ccc(F)c(S(=O)(=O)[N-]Cc2cccnc2)c1 (3D coordinates assigned)
CCOc1ccccc1NC(=O)c1ccc(F)c(S(=O)(=O)[N-]Cc2cccnc2)c1 (optimized conformer: 55.79750457125601 kcal/mol)

>  <smiles>  (47) 
CCOc1ccccc1NC(=O)c1ccc(F)c(S(=O)(=O)NCc2cccnc2)c1

>  <score_type>  (47) 
oracle

>  <origin>  (47) 
adgpu

>  <m_score__min__energy>  (47) 
-10.529999999999999

>  <m_primary>  (47) 
energy

$$$$
47:0
     RDKit          3D

 45 47  0  0  0  0  0  0  0  0999 V2000
   -5.1410   16.0720  -32.5960 C   0  0  0  0  0  0  0  0  0  0  0  0
   -5.6050   16.5100  -33.9040 N   0  0  0  0  0  0  0  0  0  0  0  0
   -6.1490   17.8050  -34.1940 C   0  0  0  0  0  0  0  0  0  0  0  0
   -5.7880   18.3910  -35.2480 O   0  0  0  0  0  0  0  0  0  0  0  0
   -7.0740   18.4990  -33.2800 C   0  0  0  0  0  0  0  0  0  0  0  0
   -7.0620   19.8970  -33.1520 C   0  0  0  0  0  0  0  0  0  0  0  0
   -7.9290   20.5180  -32.2480 C   0  0  0  0  0  0  0  0  0  0  0  0
   -7.9160   21.9180  -32.1550 O   0  0  0  0  0  0  0  0  0  0  0  0
   -6.8360   22.6930  -31.7060 C   0  0  0  0  0  0  0  0  0  0  0  0
   -7.0890   23.9770  -31.2140 C   0  0  0  0  0  0  0  0  0  0  0  0
   -6.0390   24.7880  -30.7710 C   0  0  0  0  0  0  0  0  0  0  0  0
   -4.7120   24.3290  -30.8430 C   0  0  0  0  0  0  0  0  0  0  0  0
   -3.6070   25.1160  -30.3760 N   0  0  0  0  0  0  0  0  0  0  0  0
   -2.5890   24.7020  -29.4560 C   0  0  0  0  0  0  0  0  0  0  0  0
   -2.5870   23.5320  -28.9910 O   0  0  0  0  0  0  0  0  0  0  0  0
   -1.6280   25.6430  -28.9650 N   0  0  0  0  0  0  0  0  0  0  0  0
   -1.3310   25.9060  -27.5860 C   0  0  0  0  0  0  0  0  0  0  0  0
   -1.5800   24.9600  -26.5810 C   0  0  0  0  0  0  0  0  0  0  0  0
   -1.2990   25.2600  -25.2480 C   0  0  0  0  0  0  0  0  0  0  0  0
   -0.7820   26.5100  -24.8960 C   0  0  0  0  0  0  0  0  0  0  0  0
   -0.4520   26.8180  -23.1930 Cl  0  0  0  0  0  0  0  0  0  0  0  0
   -0.5510   27.4870  -25.8910 C   0  0  0  0  0  0  0  0  0  0  0  0
   -0.0040   28.8490  -25.5240 C   0  0  0  0  0  0  0  0  0  0  0  0
    1.1680   28.7560  -24.7930 F   0  0  0  0  0  0  0  0  0  0  0  0
   -0.9350   29.5350  -24.7640 F   0  0  0  0  0  0  0  0  0  0  0  0
    0.2620   29.5690  -26.6760 F   0  0  0  0  0  0  0  0  0  0  0  0
   -0.8400   27.1690  -27.2340 C   0  0  0  0  0  0  0  0  0  0  0  0
   -4.4590   23.0430  -31.3330 C   0  0  0  0  0  0  0  0  0  0  0  0
   -5.5090   22.2330  -31.7760 C   0  0  0  0  0  0  0  0  0  0  0  0
   -8.8140   19.7310  -31.4950 C   0  0  0  0  0  0  0  0  0  0  0  0
   -8.7790   18.3420  -31.6300 C   0  0  0  0  0  0  0  0  0  0  0  0
   -7.9150   17.7630  -32.5040 N   0  0  0  0  0  0  0  0  0  0  0  0
   -5.7019   16.6015  -31.8118 H   0  0  0  0  0  0  0  0  0  0  0  0
   -5.3017   14.9886  -32.4938 H   0  0  0  0  0  0  0  0  0  0  0  0
   -4.0687   16.2949  -32.4938 H   0  0  0  0  0  0  0  0  0  0  0  0
   -6.3732   20.5013  -33.7605 H   0  0  0  0  0  0  0  0  0  0  0  0
   -8.1222   24.3525  -31.1750 H   0  0  0  0  0  0  0  0  0  0  0  0
   -6.2521   25.7879  -30.3651 H   0  0  0  0  0  0  0  0  0  0  0  0
   -1.9985   23.9776  -26.8450 H   0  0  0  0  0  0  0  0  0  0  0  0
   -1.4857   24.5072  -24.4680 H   0  0  0  0  0  0  0  0  0  0  0  0
   -0.6773   27.9245  -28.0168 H   0  0  0  0  0  0  0  0  0  0  0  0
   -3.4261   22.6664  -31.3700 H   0  0  0  0  0  0  0  0  0  0  0  0
   -5.2963   21.2325  -32.1807 H   0  0  0  0  0  0  0  0  0  0  0  0
   -9.5283   20.2041  -30.8051 H   0  0  0  0  0  0  0  0  0  0  0  0
   -9.4525   17.7149  -31.0274 H   0  0  0  0  0  0  0  0  0  0  0  0
  1  2  1  0
  2  3  1  0
  3  4  2  0
  3  5  1  0
  5  6  2  0
  6  7  1  0
  7  8  1  0
  8  9  1  0
  9 10  2  0
 10 11  1  0
 11 12  2  0
 12 13  1  0
 13 14  1  0
 14 15  2  0
 14 16  1  0
 16 17  1  0
 17 18  2  0
 18 19  1  0
 19 20  2  0
 20 21  1  0
 20 22  1  0
 22 23  1  0
 23 24  1  0
 23 25  1  0
 23 26  1  0
 22 27  2  0
 12 28  1  0
 28 29  2  0
  7 30  2  0
 30 31  1  0
 31 32  2  0
 32  5  1  0
 29  9  1  0
 27 17  1  0
  1 33  1  0
  1 34  1  0
  1 35  1  0
  6 36  1  0
 10 37  1  0
 11 38  1  0
 18 39  1  0
 19 40  1  0
 27 41  1  0
 28 42  1  0
 29 43  1  0
 30 44  1  0
 31 45  1  0
M  CHG  3   2  -1  13  -1  16  -1
M  END
>  <UniqueID>  (48) 
43

>  <SMILES>  (48) 
C[N-]C(=O)c1cc(Oc2ccc([N-]C(=O)[N-]c3ccc(Cl)c(C(F)(F)F)c3)cc2)ccn1

>  <Energy>  (48) 
67.19041763159572

>  <Genealogy>  (48) 
C[N-]C(=O)c1cc(Oc2ccc([N-]C(=O)[N-]c3ccc(Cl)c(C(F)(F)F)c3)cc2)ccn1 (protonated)
C[N-]C(=O)c1cc(Oc2ccc([N-]C(=O)[N-]c3ccc(Cl)c(C(F)(F)F)c3)cc2)ccn1 (3D coordinates assigned)
C[N-]C(=O)c1cc(Oc2ccc([N-]C(=O)[N-]c3ccc(Cl)c(C(F)(F)F)c3)cc2)ccn1 (optimized conformer: 67.19041763159572 kcal/mol)

>  <smiles>  (48) 
CNC(=O)c1cc(Oc2ccc(NC(=O)Nc3ccc(Cl)c(C(F)(F)F)c3)cc2)ccn1

>  <score_type>  (48) 
oracle

>  <origin>  (48) 
adgpu

>  <m_score__min__energy>  (48) 
-12.119999999999999

>  <m_primary>  (48) 
energy

$$$$
48:0
     RDKit          3D

 41 44  0  0  0  0  0  0  0  0999 V2000
   -0.8720   26.8150  -23.5670 C   0  0  0  0  0  0  0  0  0  0  0  0
   -0.8170   25.7090  -24.5660 C   0  0  0  0  0  0  0  0  0  0  0  0
   -1.3930   25.7250  -25.8160 C   0  0  0  0  0  0  0  0  0  0  0  0
   -1.1910   24.5190  -26.3770 N   0  0  0  0  0  0  0  0  0  0  0  0
   -1.6360   24.0820  -27.6770 C   0  0  0  0  0  0  0  0  0  0  0  0
   -2.4820   24.8960  -28.4450 C   0  0  0  0  0  0  0  0  0  0  0  0
   -2.9690   24.4580  -29.6860 C   0  0  0  0  0  0  0  0  0  0  0  0
   -3.8550   25.2660  -30.4760 N   0  0  0  0  0  0  0  0  0  0  0  0
   -5.2770   25.1110  -30.5900 C   0  0  0  0  0  0  0  0  0  0  0  0
   -6.0180   26.0660  -30.2350 O   0  0  0  0  0  0  0  0  0  0  0  0
   -5.8960   23.8840  -31.1430 C   0  0  0  0  0  0  0  0  0  0  0  0
   -5.1390   23.0310  -31.9920 C   0  0  0  0  0  0  0  0  0  0  0  0
   -5.7210   21.8830  -32.5610 C   0  0  0  0  0  0  0  0  0  0  0  0
   -7.0500   21.6150  -32.2530 C   0  0  0  0  0  0  0  0  0  0  0  0
   -7.8150   20.6010  -32.6750 N   0  0  0  0  0  0  0  0  0  0  0  0
   -9.0100   20.8210  -32.0760 C   0  0  0  0  0  0  0  0  0  0  0  0
   -9.0290   21.9320  -31.2950 N   0  0  0  0  0  0  0  0  0  0  0  0
   -7.7790   22.4120  -31.4260 C   0  0  0  0  0  0  0  0  0  0  0  0
   -7.2380   23.5530  -30.8400 C   0  0  0  0  0  0  0  0  0  0  0  0
   -2.5520   23.2220  -30.1900 C   0  0  0  0  0  0  0  0  0  0  0  0
   -1.7070   22.3890  -29.4390 C   0  0  0  0  0  0  0  0  0  0  0  0
   -1.2340   21.0720  -30.0020 C   0  0  0  0  0  0  0  0  0  0  0  0
   -0.8180   20.2280  -28.9870 F   0  0  0  0  0  0  0  0  0  0  0  0
   -0.1750   21.2980  -30.8610 F   0  0  0  0  0  0  0  0  0  0  0  0
   -2.2510   20.4410  -30.6970 F   0  0  0  0  0  0  0  0  0  0  0  0
   -1.2420   22.8330  -28.1890 C   0  0  0  0  0  0  0  0  0  0  0  0
   -0.5120   23.8020  -25.4550 C   0  0  0  0  0  0  0  0  0  0  0  0
   -0.2710   24.5000  -24.3260 N   0  0  0  0  0  0  0  0  0  0  0  0
   -0.8510   26.3931  -22.5513 H   0  0  0  0  0  0  0  0  0  0  0  0
   -0.0057   27.4784  -23.7064 H   0  0  0  0  0  0  0  0  0  0  0  0
   -1.7998   27.3892  -23.7064 H   0  0  0  0  0  0  0  0  0  0  0  0
   -1.9237   26.5725  -26.2744 H   0  0  0  0  0  0  0  0  0  0  0  0
   -2.7671   25.8899  -28.0697 H   0  0  0  0  0  0  0  0  0  0  0  0
   -4.0871   23.2710  -32.2064 H   0  0  0  0  0  0  0  0  0  0  0  0
   -5.1453   21.2217  -33.2253 H   0  0  0  0  0  0  0  0  0  0  0  0
   -7.5530   19.8190  -33.3160 H   0  0  0  0  0  0  0  0  0  0  0  0
   -9.8813   20.1630  -32.2094 H   0  0  0  0  0  0  0  0  0  0  0  0
   -7.8361   24.1789  -30.1614 H   0  0  0  0  0  0  0  0  0  0  0  0
   -2.8896   22.8987  -31.1857 H   0  0  0  0  0  0  0  0  0  0  0  0
   -0.5619   22.1960  -27.6045 H   0  0  0  0  0  0  0  0  0  0  0  0
   -0.1904   22.7613  -25.6083 H   0  0  0  0  0  0  0  0  0  0  0  0
  1  2  1  0
  2  3  2  0
  3  4  1  0
  4  5  1  0
  5  6  2  0
  6  7  1  0
  7  8  1  0
  8  9  1  0
  9 10  2  0
  9 11  1  0
 11 12  2  0
 12 13  1  0
 13 14  2  0
 14 15  1  0
 15 16  1  0
 16 17  2  0
 17 18  1  0
 18 19  2  0
  7 20  2  0
 20 21  1  0
 21 22  1  0
 22 23  1  0
 22 24  1  0
 22 25  1  0
 21 26  2  0
  4 27  1  0
 27 28  2  0
 28  2  1  0
 26  5  1  0
 19 11  1  0
 18 14  1  0
  1 29  1  0
  1 30  1  0
  1 31  1  0
  3 32  1  0
  6 33  1  0
 12 34  1  0
 13 35  1  0
 15 36  1  0
 16 37  1  0
 19 38  1  0
 20 39  1  0
 26 40  1  0
 27 41  1  0
M  CHG  1   8  -1
M  END
>  <UniqueID>  (49) 
44

>  <SMILES>  (49) 
Cc1cn(-c2cc([N-]C(=O)c3ccc4[nH]cnc4c3)cc(C(F)(F)F)c2)cn1

>  <Energy>  (49) 
119.32160147235184

>  <Genealogy>  (49) 
Cc1cn(-c2cc([N-]C(=O)c3ccc4[nH]cnc4c3)cc(C(F)(F)F)c2)cn1 (protonated)
Cc1cn(-c2cc([N-]C(=O)c3ccc4[nH]cnc4c3)cc(C(F)(F)F)c2)cn1 (3D coordinates assigned)
Cc1cn(-c2cc([N-]C(=O)c3ccc4[nH]cnc4c3)cc(C(F)(F)F)c2)cn1 (optimized conformer: 119.32160147235184 kcal/mol)

>  <smiles>  (49) 
Cc1cn(-c2cc(NC(=O)c3ccc4[nH]cnc4c3)cc(C(F)(F)F)c2)cn1

>  <score_type>  (49) 
oracle

>  <origin>  (49) 
adgpu

>  <m_score__min__energy>  (49) 
-9.5299999999999994

>  <m_primary>  (49) 
energy

$$$$
