0:0
     RDKit          3D

 45 48  0  0  0  0  0  0  0  0999 V2000
   -1.0780   23.3740  -29.8410 O   0  0  0  0  0  0  0  0  0  0  0  0
   -1.9720   22.6490  -28.8740 S   0  0  0  0  0  0  0  0  0  0  0  0
   -2.0800   23.4660  -27.6160 O   0  0  0  0  0  0  0  0  0  0  0  0
   -1.2580   21.0790  -28.5150 C   0  0  0  0  0  0  0  0  0  0  0  0
   -1.7660   20.3090  -27.4590 C   0  0  0  0  0  0  0  0  0  0  0  0
   -1.1950   19.0710  -27.1530 C   0  0  0  0  0  0  0  0  0  0  0  0
   -0.1110   18.5950  -27.8970 C   0  0  0  0  0  0  0  0  0  0  0  0
    0.6060   17.0420  -27.5110 Cl  0  0  0  0  0  0  0  0  0  0  0  0
    0.4030   19.3630  -28.9480 C   0  0  0  0  0  0  0  0  0  0  0  0
   -0.1670   20.6010  -29.2560 C   0  0  0  0  0  0  0  0  0  0  0  0
   -3.5530   22.4270  -29.5810 N   0  0  0  0  0  0  0  0  0  0  0  0
   -4.3690   23.6380  -29.3840 C   0  0  0  0  0  0  0  0  0  0  0  0
   -5.8230   23.3550  -29.7760 C   0  0  0  0  0  0  0  0  0  0  0  0
   -5.8880   22.4720  -30.9440 N   0  0  0  0  0  0  0  0  0  0  0  0
   -7.1730   22.0260  -31.3960 C   0  0  0  0  0  0  0  0  0  0  0  0
   -8.2120   22.9550  -31.5410 C   0  0  0  0  0  0  0  0  0  0  0  0
   -9.4700   22.5270  -31.9660 C   0  0  0  0  0  0  0  0  0  0  0  0
   -9.6890   21.2150  -32.2420 N   0  0  0  0  0  0  0  0  0  0  0  0
   -8.7060   20.2840  -32.1200 C   0  0  0  0  0  0  0  0  0  0  0  0
   -8.9750   18.9430  -32.4220 C   0  0  0  0  0  0  0  0  0  0  0  0
   -7.9660   17.9830  -32.3080 C   0  0  0  0  0  0  0  0  0  0  0  0
   -6.6850   18.3560  -31.8960 C   0  0  0  0  0  0  0  0  0  0  0  0
   -6.4030   19.6920  -31.5920 C   0  0  0  0  0  0  0  0  0  0  0  0
   -7.4120   20.6690  -31.6940 C   0  0  0  0  0  0  0  0  0  0  0  0
   -4.7240   22.3100  -31.8210 C   0  0  0  0  0  0  0  0  0  0  0  0
   -3.4230   22.0900  -31.0160 C   0  0  0  0  0  0  0  0  0  0  0  0
   -2.6170   20.6808  -26.8694 H   0  0  0  0  0  0  0  0  0  0  0  0
   -1.5990   18.4697  -26.3252 H   0  0  0  0  0  0  0  0  0  0  0  0
    1.2574   18.9913  -29.5327 H   0  0  0  0  0  0  0  0  0  0  0  0
    0.2409   21.2024  -30.0818 H   0  0  0  0  0  0  0  0  0  0  0  0
   -4.0020   21.6230  -29.0810 H   0  0  0  0  0  0  0  0  0  0  0  0
   -4.3278   23.9378  -28.3264 H   0  0  0  0  0  0  0  0  0  0  0  0
   -3.9743   24.4479  -30.0150 H   0  0  0  0  0  0  0  0  0  0  0  0
   -6.3364   22.8728  -28.9311 H   0  0  0  0  0  0  0  0  0  0  0  0
   -6.3105   24.3081  -30.0287 H   0  0  0  0  0  0  0  0  0  0  0  0
   -8.0363   24.0182  -31.3205 H   0  0  0  0  0  0  0  0  0  0  0  0
  -10.2875   23.2545  -32.0780 H   0  0  0  0  0  0  0  0  0  0  0  0
   -9.9820   18.6451  -32.7494 H   0  0  0  0  0  0  0  0  0  0  0  0
   -8.1815   16.9303  -32.5435 H   0  0  0  0  0  0  0  0  0  0  0  0
   -5.8943   17.5961  -31.8101 H   0  0  0  0  0  0  0  0  0  0  0  0
   -5.3906   19.9801  -31.2725 H   0  0  0  0  0  0  0  0  0  0  0  0
   -4.8892   21.4408  -32.4746 H   0  0  0  0  0  0  0  0  0  0  0  0
   -4.6093   23.2322  -32.4096 H   0  0  0  0  0  0  0  0  0  0  0  0
   -3.1360   21.0315  -31.1005 H   0  0  0  0  0  0  0  0  0  0  0  0
   -2.6629   22.7632  -31.4390 H   0  0  0  0  0  0  0  0  0  0  0  0
  1  2  2  0
  2  3  2  0
  2  4  1  0
  4  5  2  0
  5  6  1  0
  6  7  2  0
  7  8  1  0
  7  9  1  0
  9 10  2  0
  2 11  1  0
 11 12  1  0
 12 13  1  0
 13 14  1  0
 14 15  1  0
 15 16  2  0
 16 17  1  0
 17 18  2  0
 18 19  1  0
 19 20  2  0
 20 21  1  0
 21 22  2  0
 22 23  1  0
 23 24  2  0
 14 25  1  0
 25 26  1  0
 10  4  1  0
 26 11  1  0
 24 15  1  0
 24 19  1  0
  5 27  1  0
  6 28  1  0
  9 29  1  0
 10 30  1  0
 11 31  1  0
 12 32  1  0
 12 33  1  0
 13 34  1  0
 13 35  1  0
 16 36  1  0
 17 37  1  0
 20 38  1  0
 21 39  1  0
 22 40  1  0
 23 41  1  0
 25 42  1  0
 25 43  1  0
 26 44  1  0
 26 45  1  0
M  CHG  1  11   1
M  END
>  <UniqueID>  (1) 
1

>  <SMILES>  (1) 
O=S(=O)(c1ccc(Cl)cc1)[NH+]1CCN(c2ccnc3ccccc23)CC1

>  <Energy>  (1) 
61.231573121835595

>  <Genealogy>  (1) 
O=S(=O)(c1ccc(Cl)cc1)[NH+]1CCN(c2ccnc3ccccc23)CC1 (protonated)
O=S(=O)(c1ccc(Cl)cc1)[NH+]1CCN(c2ccnc3ccccc23)CC1 (3D coordinates assigned)
O=S(=O)(c1ccc(Cl)cc1)[NH+]1CCN(c2ccnc3ccccc23)CC1 (nonaromatic ring conformer: 61.231573121835595 kcal/mol)

>  <smiles>  (1) 
O=S(=O)(c1ccc(Cl)cc1)N1CCN(c2ccnc3ccccc23)CC1

>  <score_type>  (1) 
oracle

>  <origin>  (1) 
adgpu

>  <m_score__min__energy>  (1) 
-8.4700000000000006

>  <m_primary>  (1) 
energy

$$$$
1:0
     RDKit          3D

 53 56  0  0  0  0  0  0  0  0999 V2000
   -3.2880   17.5950  -34.7760 N   0  0  0  0  0  0  0  0  0  0  0  0
   -4.0160   16.3980  -34.4750 C   0  0  0  0  0  0  0  0  0  0  0  0
   -3.4910   15.1570  -34.8700 C   0  0  0  0  0  0  0  0  0  0  0  0
   -4.1670   13.9730  -34.5670 C   0  0  0  0  0  0  0  0  0  0  0  0
   -5.3660   14.0170  -33.8560 C   0  0  0  0  0  0  0  0  0  0  0  0
   -5.8980   15.2450  -33.4520 C   0  0  0  0  0  0  0  0  0  0  0  0
   -5.2390   16.4490  -33.7730 C   0  0  0  0  0  0  0  0  0  0  0  0
   -5.7380   17.7240  -33.3370 N   0  0  0  0  0  0  0  0  0  0  0  0
   -5.8410   18.9390  -34.0900 C   0  0  0  0  0  0  0  0  0  0  0  0
   -5.7970   18.9160  -35.3510 O   0  0  0  0  0  0  0  0  0  0  0  0
   -5.9390   20.2330  -33.3770 C   0  0  0  0  0  0  0  0  0  0  0  0
   -7.1510   20.6430  -32.7910 C   0  0  0  0  0  0  0  0  0  0  0  0
   -7.2520   21.8920  -32.1720 C   0  0  0  0  0  0  0  0  0  0  0  0
   -6.1450   22.7540  -32.1280 C   0  0  0  0  0  0  0  0  0  0  0  0
   -6.2790   24.1380  -31.5520 C   0  0  0  0  0  0  0  0  0  0  0  0
   -4.9780   24.6880  -31.1730 N   0  0  0  0  0  0  0  0  0  0  0  0
   -4.3040   24.4360  -29.9310 C   0  0  0  0  0  0  0  0  0  0  0  0
   -4.8560   24.7750  -28.8500 O   0  0  0  0  0  0  0  0  0  0  0  0
   -2.9750   23.8090  -29.8870 C   0  0  0  0  0  0  0  0  0  0  0  0
   -2.8270   22.4790  -30.3080 C   0  0  0  0  0  0  0  0  0  0  0  0
   -1.5920   21.8250  -30.1770 C   0  0  0  0  0  0  0  0  0  0  0  0
   -1.4490   20.3820  -30.5720 C   0  0  0  0  0  0  0  0  0  0  0  0
   -1.3130   20.2600  -32.0560 C   0  0  0  0  0  0  0  0  0  0  0  0
   -0.2070   21.1130  -33.0020 S   0  0  0  0  0  0  0  0  0  0  0  0
   -0.7720   20.4170  -34.4250 C   0  0  0  0  0  0  0  0  0  0  0  0
   -0.3050   20.6650  -35.5660 O   0  0  0  0  0  0  0  0  0  0  0  0
   -1.7910   19.5540  -34.2170 N   0  0  0  0  0  0  0  0  0  0  0  0
   -2.0980   19.4700  -32.8970 C   0  0  0  0  0  0  0  0  0  0  0  0
   -3.1190   18.6540  -32.4290 O   0  0  0  0  0  0  0  0  0  0  0  0
   -0.4880   22.5350  -29.6770 C   0  0  0  0  0  0  0  0  0  0  0  0
   -0.6270   23.8690  -29.2840 C   0  0  0  0  0  0  0  0  0  0  0  0
   -1.8680   24.5050  -29.3770 C   0  0  0  0  0  0  0  0  0  0  0  0
   -1.9950   25.8250  -28.9540 O   0  0  0  0  0  0  0  0  0  0  0  0
   -4.9230   22.3270  -32.6690 C   0  0  0  0  0  0  0  0  0  0  0  0
   -4.8230   21.0830  -33.2930 C   0  0  0  0  0  0  0  0  0  0  0  0
   -3.7060   18.5330  -34.5910 H   0  0  0  0  0  0  0  0  0  0  0  0
   -2.3260   17.5650  -35.1770 H   0  0  0  0  0  0  0  0  0  0  0  0
   -2.5404   15.1171  -35.4221 H   0  0  0  0  0  0  0  0  0  0  0  0
   -3.7537   13.0058  -34.8891 H   0  0  0  0  0  0  0  0  0  0  0  0
   -5.8942   13.0833  -33.6126 H   0  0  0  0  0  0  0  0  0  0  0  0
   -6.8371   15.2719  -32.8798 H   0  0  0  0  0  0  0  0  0  0  0  0
   -8.0250   19.9758  -32.8203 H   0  0  0  0  0  0  0  0  0  0  0  0
   -8.2044   22.2013  -31.7167 H   0  0  0  0  0  0  0  0  0  0  0  0
   -6.7398   24.7953  -32.3041 H   0  0  0  0  0  0  0  0  0  0  0  0
   -6.9048   24.0776  -30.6494 H   0  0  0  0  0  0  0  0  0  0  0  0
   -3.6845   21.9452  -30.7436 H   0  0  0  0  0  0  0  0  0  0  0  0
   -0.5543   19.9610  -30.0900 H   0  0  0  0  0  0  0  0  0  0  0  0
   -2.3456   19.8326  -30.2490 H   0  0  0  0  0  0  0  0  0  0  0  0
   -3.9380   18.4730  -32.9960 H   0  0  0  0  0  0  0  0  0  0  0  0
    0.4903   22.0389  -29.5944 H   0  0  0  0  0  0  0  0  0  0  0  0
    0.2438   24.4205  -28.9000 H   0  0  0  0  0  0  0  0  0  0  0  0
   -4.0382   22.9770  -32.6008 H   0  0  0  0  0  0  0  0  0  0  0  0
   -3.8619   20.7647  -33.7231 H   0  0  0  0  0  0  0  0  0  0  0  0
  1  2  1  0
  2  3  2  0
  3  4  1  0
  4  5  2  0
  5  6  1  0
  6  7  2  0
  7  8  1  0
  8  9  1  0
  9 10  2  0
  9 11  1  0
 11 12  2  0
 12 13  1  0
 13 14  2  0
 14 15  1  0
 15 16  1  0
 16 17  1  0
 17 18  2  0
 17 19  1  0
 19 20  2  0
 20 21  1  0
 21 22  1  0
 22 23  1  0
 23 24  1  0
 24 25  1  0
 25 26  2  0
 25 27  1  0
 27 28  1  0
 28 29  1  0
 21 30  2  0
 30 31  1  0
 31 32  2  0
 32 33  1  0
 14 34  1  0
 34 35  2  0
  7  2  1  0
 35 11  1  0
 32 19  1  0
 28 23  2  0
  1 36  1  0
  1 37  1  0
  3 38  1  0
  4 39  1  0
  5 40  1  0
  6 41  1  0
 12 42  1  0
 13 43  1  0
 15 44  1  0
 15 45  1  0
 20 46  1  0
 22 47  1  0
 22 48  1  0
 29 49  1  0
 30 50  1  0
 31 51  1  0
 34 52  1  0
 35 53  1  0
M  CHG  4   8  -1  16  -1  27  -1  33  -1
M  END
>  <UniqueID>  (2) 
2

>  <SMILES>  (2) 
Nc1ccccc1[N-]C(=O)c1ccc(C[N-]C(=O)c2cc(Cc3sc(=O)[n-]c3O)ccc2[O-])cc1

>  <Energy>  (2) 
91.62520503021362

>  <Genealogy>  (2) 
Nc1ccccc1[N-]C(=O)c1ccc(C[N-]C(=O)c2cc(Cc3sc(=O)[n-]c3O)ccc2[O-])cc1 (protonated)
Nc1ccccc1[N-]C(=O)c1ccc(C[N-]C(=O)c2cc(Cc3sc(=O)[n-]c3O)ccc2[O-])cc1 (3D coordinates assigned)
Nc1ccccc1[N-]C(=O)c1ccc(C[N-]C(=O)c2cc(Cc3sc(=O)[n-]c3O)ccc2[O-])cc1 (optimized conformer: 91.62520503021362 kcal/mol)

>  <smiles>  (2) 
Nc1ccccc1NC(=O)c1ccc(CNC(=O)c2cc(Cc3sc(=O)[nH]c3O)ccc2O)cc1

>  <score_type>  (2) 
oracle

>  <origin>  (2) 
adgpu

>  <m_score__min__energy>  (2) 
-15.31

>  <m_primary>  (2) 
energy

$$$$
2:0
     RDKit          3D

 65 69  0  0  0  0  0  0  0  0999 V2000
    1.4520   27.5540  -23.7220 C   0  0  0  0  0  0  0  0  0  0  0  0
    1.4550   27.0830  -25.4370 S   0  0  0  0  0  0  0  0  0  0  0  0
    2.5200   26.0490  -25.6750 O   0  0  0  0  0  0  0  0  0  0  0  0
    1.7540   28.2870  -26.2850 O   0  0  0  0  0  0  0  0  0  0  0  0
   -0.1200   26.4190  -25.8630 C   0  0  0  0  0  0  0  0  0  0  0  0
   -1.1360   26.3310  -24.9010 C   0  0  0  0  0  0  0  0  0  0  0  0
   -2.3780   25.7830  -25.2380 C   0  0  0  0  0  0  0  0  0  0  0  0
   -2.6190   25.3250  -26.5420 C   0  0  0  0  0  0  0  0  0  0  0  0
   -3.9470   24.6970  -26.8950 C   0  0  0  0  0  0  0  0  0  0  0  0
   -3.8860   23.5910  -27.9480 C   0  0  0  0  0  0  0  0  0  0  0  0
   -3.1130   22.4300  -27.7360 C   0  0  0  0  0  0  0  0  0  0  0  0
   -3.0580   21.4190  -28.6910 C   0  0  0  0  0  0  0  0  0  0  0  0
   -3.7660   21.5320  -29.8800 C   0  0  0  0  0  0  0  0  0  0  0  0
   -4.5400   22.6760  -30.1460 C   0  0  0  0  0  0  0  0  0  0  0  0
   -5.2680   22.7920  -31.3580 C   0  0  0  0  0  0  0  0  0  0  0  0
   -5.1780   21.7790  -32.3740 N   0  0  0  0  0  0  0  0  0  0  0  0
   -5.8140   20.4940  -32.2520 C   0  0  0  0  0  0  0  0  0  0  0  0
   -6.6270   20.2830  -31.3110 O   0  0  0  0  0  0  0  0  0  0  0  0
   -5.5150   19.4330  -33.1800 N   0  0  0  0  0  0  0  0  0  0  0  0
   -4.2280   19.3890  -33.8930 C   0  0  0  0  0  0  0  0  0  0  0  0
   -3.6920   17.9490  -33.9680 C   0  0  0  0  0  0  0  0  0  0  0  0
   -4.7540   16.9780  -34.2780 N   0  0  0  0  0  0  0  0  0  0  0  0
   -4.4700   15.5650  -34.1990 C   0  0  0  0  0  0  0  0  0  0  0  0
   -4.9770   14.7940  -33.1380 C   0  0  0  0  0  0  0  0  0  0  0  0
   -4.7000   13.4270  -33.0630 C   0  0  0  0  0  0  0  0  0  0  0  0
   -3.9070   12.8180  -34.0380 C   0  0  0  0  0  0  0  0  0  0  0  0
   -3.3860   13.5760  -35.0890 C   0  0  0  0  0  0  0  0  0  0  0  0
   -3.6610   14.9450  -35.1690 C   0  0  0  0  0  0  0  0  0  0  0  0
   -6.1130   17.4590  -34.5570 C   0  0  0  0  0  0  0  0  0  0  0  0
   -6.5470   18.4180  -33.4460 C   0  0  0  0  0  0  0  0  0  0  0  0
   -6.0450   23.9340  -31.5920 C   0  0  0  0  0  0  0  0  0  0  0  0
   -6.1140   24.9500  -30.6440 C   0  0  0  0  0  0  0  0  0  0  0  0
   -5.4050   24.8490  -29.4480 C   0  0  0  0  0  0  0  0  0  0  0  0
   -4.6090   23.7160  -29.1710 C   0  0  0  0  0  0  0  0  0  0  0  0
   -1.5950   25.4000  -27.4990 C   0  0  0  0  0  0  0  0  0  0  0  0
   -0.3510   25.9420  -27.1610 C   0  0  0  0  0  0  0  0  0  0  0  0
    1.4578   26.6511  -23.0938 H   0  0  0  0  0  0  0  0  0  0  0  0
    2.3463   28.1568  -23.5058 H   0  0  0  0  0  0  0  0  0  0  0  0
    0.5501   28.1454  -23.5058 H   0  0  0  0  0  0  0  0  0  0  0  0
   -0.9559   26.6939  -23.8783 H   0  0  0  0  0  0  0  0  0  0  0  0
   -3.1693   25.7108  -24.4773 H   0  0  0  0  0  0  0  0  0  0  0  0
   -4.3755   24.2690  -25.9768 H   0  0  0  0  0  0  0  0  0  0  0  0
   -4.5574   25.5008  -27.3325 H   0  0  0  0  0  0  0  0  0  0  0  0
   -2.5444   22.3220  -26.8006 H   0  0  0  0  0  0  0  0  0  0  0  0
   -2.4485   20.5230  -28.5022 H   0  0  0  0  0  0  0  0  0  0  0  0
   -3.7212   20.7198  -30.6205 H   0  0  0  0  0  0  0  0  0  0  0  0
   -4.5920   21.9800  -33.2130 H   0  0  0  0  0  0  0  0  0  0  0  0
   -4.3681   19.7749  -34.9135 H   0  0  0  0  0  0  0  0  0  0  0  0
   -3.5011   20.0069  -33.3454 H   0  0  0  0  0  0  0  0  0  0  0  0
   -2.9237   17.8970  -34.7535 H   0  0  0  0  0  0  0  0  0  0  0  0
   -3.2745   17.6914  -32.9834 H   0  0  0  0  0  0  0  0  0  0  0  0
   -5.5953   15.2701  -32.3627 H   0  0  0  0  0  0  0  0  0  0  0  0
   -5.1072   12.8290  -32.2344 H   0  0  0  0  0  0  0  0  0  0  0  0
   -3.6926   11.7408  -33.9782 H   0  0  0  0  0  0  0  0  0  0  0  0
   -2.7588   13.0959  -35.8546 H   0  0  0  0  0  0  0  0  0  0  0  0
   -3.2428   15.5399  -35.9943 H   0  0  0  0  0  0  0  0  0  0  0  0
   -6.1256   17.9854  -35.5228 H   0  0  0  0  0  0  0  0  0  0  0  0
   -6.8053   16.6052  -34.5987 H   0  0  0  0  0  0  0  0  0  0  0  0
   -7.4754   18.9229  -33.7513 H   0  0  0  0  0  0  0  0  0  0  0  0
   -6.7043   17.8347  -32.5267 H   0  0  0  0  0  0  0  0  0  0  0  0
   -6.6056   24.0283  -32.5337 H   0  0  0  0  0  0  0  0  0  0  0  0
   -6.7320   25.8387  -30.8395 H   0  0  0  0  0  0  0  0  0  0  0  0
   -5.4664   25.6626  -28.7103 H   0  0  0  0  0  0  0  0  0  0  0  0
   -1.7719   25.0306  -28.5199 H   0  0  0  0  0  0  0  0  0  0  0  0
    0.4481   25.9942  -27.9152 H   0  0  0  0  0  0  0  0  0  0  0  0
  1  2  1  0
  2  3  2  0
  2  4  2  0
  2  5  1  0
  5  6  2  0
  6  7  1  0
  7  8  2  0
  8  9  1  0
  9 10  1  0
 10 11  2  0
 11 12  1  0
 12 13  2  0
 13 14  1  0
 14 15  2  0
 15 16  1  0
 16 17  1  0
 17 18  2  0
 17 19  1  0
 19 20  1  0
 20 21  1  0
 21 22  1  0
 22 23  1  0
 23 24  2  0
 24 25  1  0
 25 26  2  0
 26 27  1  0
 27 28  2  0
 22 29  1  0
 29 30  1  0
 15 31  1  0
 31 32  2  0
 32 33  1  0
 33 34  2  0
  8 35  1  0
 35 36  2  0
 36  5  1  0
 34 10  1  0
 34 14  1  0
 30 19  1  0
 28 23  1  0
  1 37  1  0
  1 38  1  0
  1 39  1  0
  6 40  1  0
  7 41  1  0
  9 42  1  0
  9 43  1  0
 11 44  1  0
 12 45  1  0
 13 46  1  0
 16 47  1  0
 20 48  1  0
 20 49  1  0
 21 50  1  0
 21 51  1  0
 24 52  1  0
 25 53  1  0
 26 54  1  0
 27 55  1  0
 28 56  1  0
 29 57  1  0
 29 58  1  0
 30 59  1  0
 30 60  1  0
 31 61  1  0
 32 62  1  0
 33 63  1  0
 35 64  1  0
 36 65  1  0
M  END
>  <UniqueID>  (3) 
3

>  <SMILES>  (3) 
CS(=O)(=O)c1ccc(Cc2cccc3c(NC(=O)N4CCN(c5ccccc5)CC4)cccc23)cc1

>  <Energy>  (3) 
88.3407931784493

>  <Genealogy>  (3) 
CS(=O)(=O)c1ccc(Cc2cccc3c(NC(=O)N4CCN(c5ccccc5)CC4)cccc23)cc1 (3D coordinates assigned)
CS(=O)(=O)c1ccc(Cc2cccc3c(NC(=O)N4CCN(c5ccccc5)CC4)cccc23)cc1 (nonaromatic ring conformer: 88.3407931784493 kcal/mol)

>  <smiles>  (3) 
CS(=O)(=O)c1ccc(Cc2cccc3c(NC(=O)N4CCN(c5ccccc5)CC4)cccc23)cc1

>  <score_type>  (3) 
oracle

>  <origin>  (3) 
adgpu

>  <m_score__min__energy>  (3) 
-10.050000000000001

>  <m_primary>  (3) 
energy

$$$$
3:0
     RDKit          3D

 40 43  0  0  0  0  0  0  0  0999 V2000
   -2.1860   23.4070  -30.2670 O   0  0  0  0  0  0  0  0  0  0  0  0
   -3.3300   23.9080  -30.4210 C   0  0  0  0  0  0  0  0  0  0  0  0
   -3.6090   25.2980  -30.2990 N   0  0  0  0  0  0  0  0  0  0  0  0
   -5.0430   25.4840  -30.5510 C   0  0  0  0  0  0  0  0  0  0  0  0
   -5.5480   24.0980  -30.8230 C   0  0  0  0  0  0  0  0  0  0  0  0
   -6.8480   23.6970  -31.1360 C   0  0  0  0  0  0  0  0  0  0  0  0
   -7.0930   22.3280  -31.3730 C   0  0  0  0  0  0  0  0  0  0  0  0
   -8.7050   21.7760  -31.8150 S   0  0  0  0  0  0  0  0  0  0  0  0
   -9.3850   21.2310  -30.5900 O   0  0  0  0  0  0  0  0  0  0  0  0
   -9.5270   22.9070  -32.3670 O   0  0  0  0  0  0  0  0  0  0  0  0
   -8.5880   20.5240  -33.0080 N   0  0  0  0  0  0  0  0  0  0  0  0
   -7.6740   19.4160  -32.9640 C   0  0  0  0  0  0  0  0  0  0  0  0
   -6.5810   19.3300  -33.8440 C   0  0  0  0  0  0  0  0  0  0  0  0
   -5.6870   18.2520  -33.7730 C   0  0  0  0  0  0  0  0  0  0  0  0
   -5.8740   17.2550  -32.7970 C   0  0  0  0  0  0  0  0  0  0  0  0
   -6.9800   17.3250  -31.9400 C   0  0  0  0  0  0  0  0  0  0  0  0
   -7.8740   18.3980  -32.0140 C   0  0  0  0  0  0  0  0  0  0  0  0
   -8.9540   18.4320  -31.1310 O   0  0  0  0  0  0  0  0  0  0  0  0
   -4.9540   16.0580  -32.7320 C   0  0  0  0  0  0  0  0  0  0  0  0
   -3.6470   16.3250  -33.3460 N   0  0  0  0  0  0  0  0  0  0  0  0
   -3.8090   16.8550  -34.7050 C   0  0  0  0  0  0  0  0  0  0  0  0
   -4.4830   18.2320  -34.6800 C   0  0  0  0  0  0  0  0  0  0  0  0
   -6.0350   21.3950  -31.2840 C   0  0  0  0  0  0  0  0  0  0  0  0
   -4.7350   21.8210  -30.9680 C   0  0  0  0  0  0  0  0  0  0  0  0
   -4.5290   23.1800  -30.7440 C   0  0  0  0  0  0  0  0  0  0  0  0
   -5.5416   25.9158  -29.6707 H   0  0  0  0  0  0  0  0  0  0  0  0
   -5.2397   26.1764  -31.3828 H   0  0  0  0  0  0  0  0  0  0  0  0
   -7.6637   24.4325  -31.1965 H   0  0  0  0  0  0  0  0  0  0  0  0
   -6.4254   20.1170  -34.5966 H   0  0  0  0  0  0  0  0  0  0  0  0
   -7.1471   16.5275  -31.2010 H   0  0  0  0  0  0  0  0  0  0  0  0
   -9.5460   19.2460  -31.0270 H   0  0  0  0  0  0  0  0  0  0  0  0
   -4.8004   15.7869  -31.6771 H   0  0  0  0  0  0  0  0  0  0  0  0
   -5.4279   15.2388  -33.2927 H   0  0  0  0  0  0  0  0  0  0  0  0
   -3.1340   17.0290  -32.7620 H   0  0  0  0  0  0  0  0  0  0  0  0
   -2.8191   16.9473  -35.1757 H   0  0  0  0  0  0  0  0  0  0  0  0
   -4.4445   16.1636  -35.2778 H   0  0  0  0  0  0  0  0  0  0  0  0
   -3.7566   18.9771  -34.3233 H   0  0  0  0  0  0  0  0  0  0  0  0
   -4.8210   18.4648  -35.7006 H   0  0  0  0  0  0  0  0  0  0  0  0
   -6.2315   20.3277  -31.4636 H   0  0  0  0  0  0  0  0  0  0  0  0
   -3.9044   21.1031  -30.8994 H   0  0  0  0  0  0  0  0  0  0  0  0
  1  2  2  0
  2  3  1  0
  3  4  1  0
  4  5  1  0
  5  6  2  0
  6  7  1  0
  7  8  1  0
  8  9  2  0
  8 10  2  0
  8 11  1  0
 11 12  1  0
 12 13  2  0
 13 14  1  0
 14 15  2  0
 15 16  1  0
 16 17  2  0
 17 18  1  0
 15 19  1  0
 19 20  1  0
 20 21  1  0
 21 22  1  0
  7 23  2  0
 23 24  1  0
 24 25  2  0
 25  2  1  0
 25  5  1  0
 17 12  1  0
 22 14  1  0
  4 26  1  0
  4 27  1  0
  6 28  1  0
 13 29  1  0
 16 30  1  0
 18 31  1  0
 19 32  1  0
 19 33  1  0
 20 34  1  0
 21 35  1  0
 21 36  1  0
 22 37  1  0
 22 38  1  0
 23 39  1  0
 24 40  1  0
M  CHG  2   3  -1  11  -1
M  END
>  <UniqueID>  (4) 
4

>  <SMILES>  (4) 
O=C1[N-]Cc2cc(S(=O)(=O)[N-]c3cc4c(cc3O)CNCC4)ccc21

>  <Energy>  (4) 
70.61235506033975

>  <Genealogy>  (4) 
O=C1[N-]Cc2cc(S(=O)(=O)[N-]c3cc4c(cc3O)CNCC4)ccc21 (protonated)
O=C1[N-]Cc2cc(S(=O)(=O)[N-]c3cc4c(cc3O)CNCC4)ccc21 (3D coordinates assigned)
O=C1[N-]Cc2cc(S(=O)(=O)[N-]c3cc4c(cc3O)CNCC4)ccc21 (nonaromatic ring conformer: 70.61235506033975 kcal/mol)

>  <smiles>  (4) 
O=C1NCc2cc(S(=O)(=O)Nc3cc4c(cc3O)CNCC4)ccc21

>  <score_type>  (4) 
oracle

>  <origin>  (4) 
adgpu

>  <m_score__min__energy>  (4) 
-11.81

>  <m_primary>  (4) 
energy

$$$$
4:0
     RDKit          3D

 50 53  0  0  0  0  0  0  0  0999 V2000
   -1.9470   25.2950  -29.3360 O   0  0  0  0  0  0  0  0  0  0  0  0
   -2.8850   24.5130  -29.6330 C   0  0  0  0  0  0  0  0  0  0  0  0
   -2.8690   23.1900  -29.1760 C   0  0  0  0  0  0  0  0  0  0  0  0
   -3.9170   22.3330  -29.5160 C   0  0  0  0  0  0  0  0  0  0  0  0
   -4.9690   22.8010  -30.3140 C   0  0  0  0  0  0  0  0  0  0  0  0
   -6.0330   21.9650  -30.6830 C   0  0  0  0  0  0  0  0  0  0  0  0
   -7.0730   22.4590  -31.4840 C   0  0  0  0  0  0  0  0  0  0  0  0
   -8.4220   21.4060  -31.9050 S   0  0  0  0  0  0  0  0  0  0  0  0
   -8.9600   20.7130  -30.6860 O   0  0  0  0  0  0  0  0  0  0  0  0
   -9.5100   22.2400  -32.5190 O   0  0  0  0  0  0  0  0  0  0  0  0
   -7.8920   20.2140  -33.0500 N   0  0  0  0  0  0  0  0  0  0  0  0
   -7.0640   19.1000  -32.6810 C   0  0  0  0  0  0  0  0  0  0  0  0
   -7.4210   18.2390  -31.6270 C   0  0  0  0  0  0  0  0  0  0  0  0
   -6.5860   17.1790  -31.2690 C   0  0  0  0  0  0  0  0  0  0  0  0
   -5.3930   16.9620  -31.9610 C   0  0  0  0  0  0  0  0  0  0  0  0
   -5.0320   17.8030  -33.0220 C   0  0  0  0  0  0  0  0  0  0  0  0
   -3.5120   17.5520  -33.8790 S   0  0  0  0  0  0  0  0  0  0  0  0
   -3.7230   17.8640  -35.3360 O   0  0  0  0  0  0  0  0  0  0  0  0
   -3.0930   16.1100  -33.7540 O   0  0  0  0  0  0  0  0  0  0  0  0
   -2.2740   18.6000  -33.2240 N   0  0  0  0  0  0  0  0  0  0  0  0
   -1.4790   19.1920  -34.3240 C   0  0  0  0  0  0  0  0  0  0  0  0
   -0.7230   20.4430  -33.8650 C   0  0  0  0  0  0  0  0  0  0  0  0
   -1.6990   21.5450  -33.4130 C   0  0  0  0  0  0  0  0  0  0  0  0
   -3.0400   20.9810  -32.9110 C   0  0  0  0  0  0  0  0  0  0  0  0
   -2.8570   19.5890  -32.2830 C   0  0  0  0  0  0  0  0  0  0  0  0
   -5.8700   18.8690  -33.3770 C   0  0  0  0  0  0  0  0  0  0  0  0
   -7.0500   23.7940  -31.9160 C   0  0  0  0  0  0  0  0  0  0  0  0
   -5.9930   24.6330  -31.5520 C   0  0  0  0  0  0  0  0  0  0  0  0
   -4.9500   24.1440  -30.7540 C   0  0  0  0  0  0  0  0  0  0  0  0
   -3.9170   24.9570  -30.4020 N   0  0  0  0  0  0  0  0  0  0  0  0
   -2.0370   22.8285  -28.5538 H   0  0  0  0  0  0  0  0  0  0  0  0
   -3.9168   21.2928  -29.1583 H   0  0  0  0  0  0  0  0  0  0  0  0
   -6.0519   20.9190  -30.3432 H   0  0  0  0  0  0  0  0  0  0  0  0
   -8.0430   20.4220  -34.0600 H   0  0  0  0  0  0  0  0  0  0  0  0
   -8.3627   18.4019  -31.0824 H   0  0  0  0  0  0  0  0  0  0  0  0
   -6.8686   16.5134  -30.4400 H   0  0  0  0  0  0  0  0  0  0  0  0
   -4.7350   16.1290  -31.6727 H   0  0  0  0  0  0  0  0  0  0  0  0
   -0.7526   18.4468  -34.6803 H   0  0  0  0  0  0  0  0  0  0  0  0
   -2.1699   19.4840  -35.1287 H   0  0  0  0  0  0  0  0  0  0  0  0
   -0.0661   20.1775  -33.0236 H   0  0  0  0  0  0  0  0  0  0  0  0
   -0.1322   20.8245  -34.7108 H   0  0  0  0  0  0  0  0  0  0  0  0
   -1.2309   22.1173  -32.5985 H   0  0  0  0  0  0  0  0  0  0  0  0
   -1.9113   22.1795  -34.2861 H   0  0  0  0  0  0  0  0  0  0  0  0
   -3.4562   21.6637  -32.1555 H   0  0  0  0  0  0  0  0  0  0  0  0
   -3.7226   20.8895  -33.7687 H   0  0  0  0  0  0  0  0  0  0  0  0
   -2.1892   19.6817  -31.4138 H   0  0  0  0  0  0  0  0  0  0  0  0
   -3.8544   19.2232  -31.9976 H   0  0  0  0  0  0  0  0  0  0  0  0
   -5.5878   19.5302  -34.2095 H   0  0  0  0  0  0  0  0  0  0  0  0
   -7.8665   24.1814  -32.5431 H   0  0  0  0  0  0  0  0  0  0  0  0
   -5.9798   25.6789  -31.8925 H   0  0  0  0  0  0  0  0  0  0  0  0
  1  2  2  0
  2  3  1  0
  3  4  2  0
  4  5  1  0
  5  6  2  0
  6  7  1  0
  7  8  1  0
  8  9  2  0
  8 10  2  0
  8 11  1  0
 11 12  1  0
 12 13  2  0
 13 14  1  0
 14 15  2  0
 15 16  1  0
 16 17  1  0
 17 18  2  0
 17 19  2  0
 17 20  1  0
 20 21  1  0
 21 22  1  0
 22 23  1  0
 23 24  1  0
 24 25  1  0
 16 26  2  0
  7 27  2  0
 27 28  1  0
 28 29  2  0
 29 30  1  0
 30  2  1  0
 29  5  1  0
 26 12  1  0
 25 20  1  0
  3 31  1  0
  4 32  1  0
  6 33  1  0
 11 34  1  0
 13 35  1  0
 14 36  1  0
 15 37  1  0
 21 38  1  0
 21 39  1  0
 22 40  1  0
 22 41  1  0
 23 42  1  0
 23 43  1  0
 24 44  1  0
 24 45  1  0
 25 46  1  0
 25 47  1  0
 26 48  1  0
 27 49  1  0
 28 50  1  0
M  CHG  1  30  -1
M  END
>  <UniqueID>  (5) 
5

>  <SMILES>  (5) 
O=c1ccc2cc(S(=O)(=O)Nc3cccc(S(=O)(=O)N4CCCCC4)c3)ccc2[n-]1

>  <Energy>  (5) 
63.77792883245693

>  <Genealogy>  (5) 
O=c1ccc2cc(S(=O)(=O)Nc3cccc(S(=O)(=O)N4CCCCC4)c3)ccc2[n-]1 (protonated)
O=c1ccc2cc(S(=O)(=O)Nc3cccc(S(=O)(=O)N4CCCCC4)c3)ccc2[n-]1 (3D coordinates assigned)
O=c1ccc2cc(S(=O)(=O)Nc3cccc(S(=O)(=O)N4CCCCC4)c3)ccc2[n-]1 (nonaromatic ring conformer: 63.77792883245693 kcal/mol)

>  <smiles>  (5) 
O=c1ccc2cc(S(=O)(=O)Nc3cccc(S(=O)(=O)N4CCCCC4)c3)ccc2[nH]1

>  <score_type>  (5) 
oracle

>  <origin>  (5) 
adgpu

>  <m_score__min__energy>  (5) 
-12.039999999999999

>  <m_primary>  (5) 
energy

$$$$
5:0
     RDKit          3D

 50 52  0  0  0  0  0  0  0  0999 V2000
   -0.1140   22.8800  -28.8400 C   0  0  0  0  0  0  0  0  0  0  0  0
    0.6300   24.0560  -28.5410 O   0  0  0  0  0  0  0  0  0  0  0  0
    0.2920   24.9830  -27.5420 C   0  0  0  0  0  0  0  0  0  0  0  0
    1.0250   25.0780  -26.3410 C   0  0  0  0  0  0  0  0  0  0  0  0
    0.6270   25.9630  -25.3370 C   0  0  0  0  0  0  0  0  0  0  0  0
   -0.5070   26.7570  -25.5130 C   0  0  0  0  0  0  0  0  0  0  0  0
   -1.2350   26.6800  -26.7010 C   0  0  0  0  0  0  0  0  0  0  0  0
   -0.8280   25.8230  -27.7310 C   0  0  0  0  0  0  0  0  0  0  0  0
   -1.6110   25.7730  -28.9310 N   0  0  0  0  0  0  0  0  0  0  0  0
   -2.7450   24.9240  -29.1260 C   0  0  0  0  0  0  0  0  0  0  0  0
   -2.9700   24.0060  -28.2960 O   0  0  0  0  0  0  0  0  0  0  0  0
   -3.6020   25.1180  -30.2610 N   0  0  0  0  0  0  0  0  0  0  0  0
   -4.5540   24.1940  -30.8120 C   0  0  0  0  0  0  0  0  0  0  0  0
   -5.9240   24.4880  -30.8540 C   0  0  0  0  0  0  0  0  0  0  0  0
   -6.8280   23.5640  -31.3690 C   0  0  0  0  0  0  0  0  0  0  0  0
   -6.3920   22.3300  -31.8730 C   0  0  0  0  0  0  0  0  0  0  0  0
   -7.4300   21.3650  -32.3780 C   0  0  0  0  0  0  0  0  0  0  0  0
   -5.0010   22.0470  -31.9060 C   0  0  0  0  0  0  0  0  0  0  0  0
   -4.3320   20.5300  -32.5610 S   0  0  0  0  0  0  0  0  0  0  0  0
   -3.5550   20.7430  -33.8310 O   0  0  0  0  0  0  0  0  0  0  0  0
   -3.3900   19.9500  -31.5420 O   0  0  0  0  0  0  0  0  0  0  0  0
   -5.6410   19.4100  -32.8430 N   0  0  0  0  0  0  0  0  0  0  0  0
   -5.3050   18.5110  -33.9570 C   0  0  0  0  0  0  0  0  0  0  0  0
   -6.4520   17.5040  -34.1900 C   0  0  0  0  0  0  0  0  0  0  0  0
   -7.4620   17.6050  -33.2010 O   0  0  0  0  0  0  0  0  0  0  0  0
   -6.8870   17.4740  -31.9160 C   0  0  0  0  0  0  0  0  0  0  0  0
   -5.9080   18.6310  -31.6230 C   0  0  0  0  0  0  0  0  0  0  0  0
   -4.0930   22.9830  -31.3630 C   0  0  0  0  0  0  0  0  0  0  0  0
   -2.7260   22.6910  -31.3690 O   0  0  0  0  0  0  0  0  0  0  0  0
   -0.4221   22.3929  -27.9031 H   0  0  0  0  0  0  0  0  0  0  0  0
   -1.0064   23.1493  -29.4240 H   0  0  0  0  0  0  0  0  0  0  0  0
    0.5116   22.1889  -29.4240 H   0  0  0  0  0  0  0  0  0  0  0  0
    1.9165   24.4505  -26.1941 H   0  0  0  0  0  0  0  0  0  0  0  0
    1.2083   26.0344  -24.4059 H   0  0  0  0  0  0  0  0  0  0  0  0
   -0.8270   27.4435  -24.7153 H   0  0  0  0  0  0  0  0  0  0  0  0
   -2.1361   27.2977  -26.8295 H   0  0  0  0  0  0  0  0  0  0  0  0
   -6.2869   25.4557  -30.4773 H   0  0  0  0  0  0  0  0  0  0  0  0
   -7.9012   23.8052  -31.3810 H   0  0  0  0  0  0  0  0  0  0  0  0
   -7.9379   20.8928  -31.5241 H   0  0  0  0  0  0  0  0  0  0  0  0
   -8.1670   21.9061  -32.9895 H   0  0  0  0  0  0  0  0  0  0  0  0
   -6.9440   20.5905  -32.9895 H   0  0  0  0  0  0  0  0  0  0  0  0
   -5.1510   19.1048  -34.8701 H   0  0  0  0  0  0  0  0  0  0  0  0
   -4.3859   17.9593  -33.7101 H   0  0  0  0  0  0  0  0  0  0  0  0
   -6.9002   17.6993  -35.1754 H   0  0  0  0  0  0  0  0  0  0  0  0
   -6.0276   16.4905  -34.1371 H   0  0  0  0  0  0  0  0  0  0  0  0
   -7.6878   17.4817  -31.1619 H   0  0  0  0  0  0  0  0  0  0  0  0
   -6.3288   16.5269  -31.8786 H   0  0  0  0  0  0  0  0  0  0  0  0
   -6.3481   19.2921  -30.8619 H   0  0  0  0  0  0  0  0  0  0  0  0
   -4.9599   18.2078  -31.2598 H   0  0  0  0  0  0  0  0  0  0  0  0
   -2.3480   21.8330  -31.7490 H   0  0  0  0  0  0  0  0  0  0  0  0
  1  2  1  0
  2  3  1  0
  3  4  2  0
  4  5  1  0
  5  6  2  0
  6  7  1  0
  7  8  2  0
  8  9  1  0
  9 10  1  0
 10 11  2  0
 10 12  1  0
 12 13  1  0
 13 14  2  0
 14 15  1  0
 15 16  2  0
 16 17  1  0
 16 18  1  0
 18 19  1  0
 19 20  2  0
 19 21  2  0
 19 22  1  0
 22 23  1  0
 23 24  1  0
 24 25  1  0
 25 26  1  0
 26 27  1  0
 18 28  2  0
 28 29  1  0
  8  3  1  0
 28 13  1  0
 27 22  1  0
  1 30  1  0
  1 31  1  0
  1 32  1  0
  4 33  1  0
  5 34  1  0
  6 35  1  0
  7 36  1  0
 14 37  1  0
 15 38  1  0
 17 39  1  0
 17 40  1  0
 17 41  1  0
 23 42  1  0
 23 43  1  0
 24 44  1  0
 24 45  1  0
 26 46  1  0
 26 47  1  0
 27 48  1  0
 27 49  1  0
 29 50  1  0
M  CHG  2   9  -1  12  -1
M  END
>  <UniqueID>  (6) 
6

>  <SMILES>  (6) 
COc1ccccc1[N-]C(=O)[N-]c1ccc(C)c(S(=O)(=O)N2CCOCC2)c1O

>  <Energy>  (6) 
70.2518315137809

>  <Genealogy>  (6) 
COc1ccccc1[N-]C(=O)[N-]c1ccc(C)c(S(=O)(=O)N2CCOCC2)c1O (protonated)
COc1ccccc1[N-]C(=O)[N-]c1ccc(C)c(S(=O)(=O)N2CCOCC2)c1O (3D coordinates assigned)
COc1ccccc1[N-]C(=O)[N-]c1ccc(C)c(S(=O)(=O)N2CCOCC2)c1O (nonaromatic ring conformer: 70.2518315137809 kcal/mol)

>  <smiles>  (6) 
COc1ccccc1NC(=O)Nc1ccc(C)c(S(=O)(=O)N2CCOCC2)c1O

>  <score_type>  (6) 
oracle

>  <origin>  (6) 
adgpu

>  <m_score__min__energy>  (6) 
-12.01

>  <m_primary>  (6) 
energy

$$$$
6:0
     RDKit          3D

 48 49  0  0  0  0  0  0  0  0999 V2000
   -7.2150   23.2930  -30.8060 C   0  0  0  0  0  0  0  0  0  0  0  0
   -8.0790   22.8910  -32.0020 C   0  0  0  0  0  0  0  0  0  0  0  0
   -9.3450   22.1260  -31.5880 C   0  0  0  0  0  0  0  0  0  0  0  0
   -9.4630   20.7640  -32.2930 C   0  0  0  0  0  0  0  0  0  0  0  0
   -8.6820   19.6590  -31.5670 C   0  0  0  0  0  0  0  0  0  0  0  0
   -7.9210   18.4360  -32.7020 S   0  0  0  0  0  0  0  0  0  0  0  0
   -6.2600   19.1270  -32.6310 C   0  0  0  0  0  0  0  0  0  0  0  0
   -6.0610   20.3420  -31.9640 C   0  0  0  0  0  0  0  0  0  0  0  0
   -4.7840   20.9000  -31.8780 C   0  0  0  0  0  0  0  0  0  0  0  0
   -3.6870   20.2460  -32.4560 C   0  0  0  0  0  0  0  0  0  0  0  0
   -2.3290   20.8210  -32.3650 C   0  0  0  0  0  0  0  0  0  0  0  0
   -2.1260   21.9830  -32.8040 O   0  0  0  0  0  0  0  0  0  0  0  0
   -1.2230   20.0820  -31.8330 N   0  0  0  0  0  0  0  0  0  0  0  0
   -0.8500   20.0300  -30.4230 C   0  0  0  0  0  0  0  0  0  0  0  0
   -1.9520   20.6510  -29.5630 C   0  0  0  0  0  0  0  0  0  0  0  0
   -1.7500   22.1350  -29.4010 C   0  0  0  0  0  0  0  0  0  0  0  0
   -0.6320   22.6290  -28.7080 C   0  0  0  0  0  0  0  0  0  0  0  0
   -0.4650   24.0050  -28.5290 C   0  0  0  0  0  0  0  0  0  0  0  0
   -1.4180   24.9010  -29.0330 C   0  0  0  0  0  0  0  0  0  0  0  0
   -1.2570   26.2760  -28.8570 O   0  0  0  0  0  0  0  0  0  0  0  0
   -2.5390   24.4140  -29.7150 C   0  0  0  0  0  0  0  0  0  0  0  0
   -3.4910   25.2960  -30.2130 O   0  0  0  0  0  0  0  0  0  0  0  0
   -2.7070   23.0360  -29.8950 C   0  0  0  0  0  0  0  0  0  0  0  0
   -3.8930   19.0520  -33.1650 C   0  0  0  0  0  0  0  0  0  0  0  0
   -5.1710   18.4890  -33.2540 C   0  0  0  0  0  0  0  0  0  0  0  0
   -5.3750   16.9870  -34.1460 Cl  0  0  0  0  0  0  0  0  0  0  0  0
   -7.7432   23.0472  -29.8730 H   0  0  0  0  0  0  0  0  0  0  0  0
   -6.2613   22.7462  -30.8424 H   0  0  0  0  0  0  0  0  0  0  0  0
   -7.0190   24.3748  -30.8424 H   0  0  0  0  0  0  0  0  0  0  0  0
   -8.3786   23.8015  -32.5416 H   0  0  0  0  0  0  0  0  0  0  0  0
   -7.4786   22.2217  -32.6357 H   0  0  0  0  0  0  0  0  0  0  0  0
   -9.3180   21.9601  -30.5009 H   0  0  0  0  0  0  0  0  0  0  0  0
  -10.2147   22.7323  -31.8813 H   0  0  0  0  0  0  0  0  0  0  0  0
  -10.5244   20.4780  -32.3335 H   0  0  0  0  0  0  0  0  0  0  0  0
   -9.0352   20.8700  -33.3008 H   0  0  0  0  0  0  0  0  0  0  0  0
   -7.8830   20.1288  -30.9747 H   0  0  0  0  0  0  0  0  0  0  0  0
   -9.4012   19.1137  -30.9382 H   0  0  0  0  0  0  0  0  0  0  0  0
   -6.9160   20.8600  -31.5050 H   0  0  0  0  0  0  0  0  0  0  0  0
   -4.6382   21.8565  -31.3547 H   0  0  0  0  0  0  0  0  0  0  0  0
   -0.7030   18.9816  -30.1242 H   0  0  0  0  0  0  0  0  0  0  0  0
    0.0819   20.5958  -30.2767 H   0  0  0  0  0  0  0  0  0  0  0  0
   -2.9251   20.4723  -30.0438 H   0  0  0  0  0  0  0  0  0  0  0  0
   -1.9184   20.1856  -28.5669 H   0  0  0  0  0  0  0  0  0  0  0  0
    0.1151   21.9297  -28.3046 H   0  0  0  0  0  0  0  0  0  0  0  0
    0.4160   24.3857  -27.9915 H   0  0  0  0  0  0  0  0  0  0  0  0
   -2.0190   26.9230  -29.0210 H   0  0  0  0  0  0  0  0  0  0  0  0
   -3.5928   22.6572  -30.4259 H   0  0  0  0  0  0  0  0  0  0  0  0
   -3.0427   18.5548  -33.6547 H   0  0  0  0  0  0  0  0  0  0  0  0
  1  2  1  0
  2  3  1  0
  3  4  1  0
  4  5  1  0
  5  6  1  0
  6  7  1  0
  7  8  2  0
  8  9  1  0
  9 10  2  0
 10 11  1  0
 11 12  2  0
 11 13  1  0
 13 14  1  0
 14 15  1  0
 15 16  1  0
 16 17  2  0
 17 18  1  0
 18 19  2  0
 19 20  1  0
 19 21  1  0
 21 22  1  0
 21 23  2  0
 10 24  1  0
 24 25  2  0
 25 26  1  0
 25  7  1  0
 23 16  1  0
  1 27  1  0
  1 28  1  0
  1 29  1  0
  2 30  1  0
  2 31  1  0
  3 32  1  0
  3 33  1  0
  4 34  1  0
  4 35  1  0
  5 36  1  0
  5 37  1  0
  8 38  1  0
  9 39  1  0
 14 40  1  0
 14 41  1  0
 15 42  1  0
 15 43  1  0
 17 44  1  0
 18 45  1  0
 20 46  1  0
 23 47  1  0
 24 48  1  0
M  CHG  2  13  -1  22  -1
M  END
>  <UniqueID>  (7) 
7

>  <SMILES>  (7) 
CCCCCSc1ccc(C(=O)[N-]CCc2ccc(O)c([O-])c2)cc1Cl

>  <Energy>  (7) 
37.99540761068246

>  <Genealogy>  (7) 
CCCCCSc1ccc(C(=O)[N-]CCc2ccc(O)c([O-])c2)cc1Cl (protonated)
CCCCCSc1ccc(C(=O)[N-]CCc2ccc(O)c([O-])c2)cc1Cl (3D coordinates assigned)
CCCCCSc1ccc(C(=O)[N-]CCc2ccc(O)c([O-])c2)cc1Cl (optimized conformer: 37.99540761068246 kcal/mol)

>  <smiles>  (7) 
CCCCCSc1ccc(C(=O)NCCc2ccc(O)c(O)c2)cc1Cl

>  <score_type>  (7) 
oracle

>  <origin>  (7) 
adgpu

>  <m_score__min__energy>  (7) 
-11.65

>  <m_primary>  (7) 
energy

$$$$
7:0
     RDKit          3D

 61 64  0  0  0  0  0  0  0  0999 V2000
   -0.1760   25.4970  -26.8950 C   0  0  0  0  0  0  0  0  0  0  0  0
   -1.6080   25.7820  -27.3640 C   0  0  0  0  0  0  0  0  0  0  0  0
   -2.6810   25.1860  -26.4470 C   0  0  0  0  0  0  0  0  0  0  0  0
   -1.8170   25.4430  -28.7410 O   0  0  0  0  0  0  0  0  0  0  0  0
   -1.9240   24.1730  -29.3420 C   0  0  0  0  0  0  0  0  0  0  0  0
   -1.0370   23.1010  -29.0720 C   0  0  0  0  0  0  0  0  0  0  0  0
   -1.2290   21.9010  -29.7560 C   0  0  0  0  0  0  0  0  0  0  0  0
   -2.2370   21.7370  -30.6650 C   0  0  0  0  0  0  0  0  0  0  0  0
   -3.1370   22.7590  -30.9510 C   0  0  0  0  0  0  0  0  0  0  0  0
   -2.9770   23.9850  -30.2760 C   0  0  0  0  0  0  0  0  0  0  0  0
   -3.8570   25.0680  -30.5700 N   0  0  0  0  0  0  0  0  0  0  0  0
   -5.4230   25.1380  -29.8440 S   0  0  0  0  0  0  0  0  0  0  0  0
   -6.0160   26.5000  -30.0680 O   0  0  0  0  0  0  0  0  0  0  0  0
   -5.3160   24.8940  -28.3650 O   0  0  0  0  0  0  0  0  0  0  0  0
   -6.4420   23.9150  -30.5950 C   0  0  0  0  0  0  0  0  0  0  0  0
   -7.1930   23.0430  -29.7980 C   0  0  0  0  0  0  0  0  0  0  0  0
   -7.9440   22.0230  -30.3860 C   0  0  0  0  0  0  0  0  0  0  0  0
   -7.9610   21.8650  -31.7770 C   0  0  0  0  0  0  0  0  0  0  0  0
   -8.7050   20.7710  -32.3340 N   0  0  0  0  0  0  0  0  0  0  0  0
   -8.4070   19.3750  -32.2050 C   0  0  0  0  0  0  0  0  0  0  0  0
   -9.0630   18.6520  -31.4090 O   0  0  0  0  0  0  0  0  0  0  0  0
   -7.3190   18.8090  -32.9480 N   0  0  0  0  0  0  0  0  0  0  0  0
   -6.9450   17.4080  -32.8820 C   0  0  0  0  0  0  0  0  0  0  0  0
   -5.8840   17.2190  -33.9590 C   0  0  0  0  0  0  0  0  0  0  0  0
   -5.3990   18.6220  -34.3220 C   0  0  0  0  0  0  0  0  0  0  0  0
   -6.4950   19.5750  -33.8660 C   0  0  0  0  0  0  0  0  0  0  0  0
   -7.1860   22.7260  -32.5760 C   0  0  0  0  0  0  0  0  0  0  0  0
   -6.4340   23.7460  -31.9860 C   0  0  0  0  0  0  0  0  0  0  0  0
   -2.1900   20.4870  -31.1680 N   0  0  0  0  0  0  0  0  0  0  0  0
   -3.1180   19.8640  -32.1080 C   0  0  0  0  0  0  0  0  0  0  0  0
   -1.1440   19.9110  -30.5230 C   0  0  0  0  0  0  0  0  0  0  0  0
   -0.7870   18.7150  -30.7070 O   0  0  0  0  0  0  0  0  0  0  0  0
   -0.5290   20.7530  -29.6570 N   0  0  0  0  0  0  0  0  0  0  0  0
    0.6300   20.4850  -28.8080 C   0  0  0  0  0  0  0  0  0  0  0  0
   -0.1447   25.4908  -25.7955 H   0  0  0  0  0  0  0  0  0  0  0  0
    0.1466   24.5170  -27.2766 H   0  0  0  0  0  0  0  0  0  0  0  0
    0.4972   26.2788  -27.2766 H   0  0  0  0  0  0  0  0  0  0  0  0
   -1.7259   26.8730  -27.2883 H   0  0  0  0  0  0  0  0  0  0  0  0
   -2.3952   25.3448  -25.3967 H   0  0  0  0  0  0  0  0  0  0  0  0
   -3.6452   25.6778  -26.6430 H   0  0  0  0  0  0  0  0  0  0  0  0
   -2.7730   24.1075  -26.6430 H   0  0  0  0  0  0  0  0  0  0  0  0
   -0.2203   23.2124  -28.3436 H   0  0  0  0  0  0  0  0  0  0  0  0
   -3.9473   22.6142  -31.6807 H   0  0  0  0  0  0  0  0  0  0  0  0
   -7.1916   23.1617  -28.7044 H   0  0  0  0  0  0  0  0  0  0  0  0
   -8.5265   21.3387  -29.7516 H   0  0  0  0  0  0  0  0  0  0  0  0
   -6.5340   17.1661  -31.8908 H   0  0  0  0  0  0  0  0  0  0  0  0
   -7.8097   16.7468  -33.0404 H   0  0  0  0  0  0  0  0  0  0  0  0
   -5.0503   16.6143  -33.5725 H   0  0  0  0  0  0  0  0  0  0  0  0
   -6.2889   16.6928  -34.8360 H   0  0  0  0  0  0  0  0  0  0  0  0
   -4.4560   18.8470  -33.8022 H   0  0  0  0  0  0  0  0  0  0  0  0
   -5.2065   18.7155  -35.4010 H   0  0  0  0  0  0  0  0  0  0  0  0
   -6.0588   20.4462  -33.3554 H   0  0  0  0  0  0  0  0  0  0  0  0
   -7.0796   19.9600  -34.7145 H   0  0  0  0  0  0  0  0  0  0  0  0
   -7.1719   22.5960  -33.6682 H   0  0  0  0  0  0  0  0  0  0  0  0
   -5.8336   24.4186  -32.6161 H   0  0  0  0  0  0  0  0  0  0  0  0
   -3.9052   19.3355  -31.5503 H   0  0  0  0  0  0  0  0  0  0  0  0
   -3.5745   20.6393  -32.7409 H   0  0  0  0  0  0  0  0  0  0  0  0
   -2.5733   19.1479  -32.7409 H   0  0  0  0  0  0  0  0  0  0  0  0
    0.3338   20.5535  -27.7508 H   0  0  0  0  0  0  0  0  0  0  0  0
    1.0119   19.4748  -29.0171 H   0  0  0  0  0  0  0  0  0  0  0  0
    1.4166   21.2250  -29.0171 H   0  0  0  0  0  0  0  0  0  0  0  0
  1  2  1  0
  2  3  1  0
  2  4  1  0
  4  5  1  0
  5  6  2  0
  6  7  1  0
  7  8  2  0
  8  9  1  0
  9 10  2  0
 10 11  1  0
 11 12  1  0
 12 13  2  0
 12 14  2  0
 12 15  1  0
 15 16  2  0
 16 17  1  0
 17 18  2  0
 18 19  1  0
 19 20  1  0
 20 21  2  0
 20 22  1  0
 22 23  1  0
 23 24  1  0
 24 25  1  0
 25 26  1  0
 18 27  1  0
 27 28  2  0
  8 29  1  0
 29 30  1  0
 29 31  1  0
 31 32  2  0
 31 33  1  0
 33 34  1  0
 10  5  1  0
 28 15  1  0
 33  7  1  0
 26 22  1  0
  1 35  1  0
  1 36  1  0
  1 37  1  0
  2 38  1  0
  3 39  1  0
  3 40  1  0
  3 41  1  0
  6 42  1  0
  9 43  1  0
 16 44  1  0
 17 45  1  0
 23 46  1  0
 23 47  1  0
 24 48  1  0
 24 49  1  0
 25 50  1  0
 25 51  1  0
 26 52  1  0
 26 53  1  0
 27 54  1  0
 28 55  1  0
 30 56  1  0
 30 57  1  0
 30 58  1  0
 34 59  1  0
 34 60  1  0
 34 61  1  0
M  CHG  2  11  -1  19  -1
M  END
>  <UniqueID>  (8) 
8

>  <SMILES>  (8) 
CC(C)Oc1cc2c(cc1[N-]S(=O)(=O)c1ccc([N-]C(=O)N3CCCC3)cc1)n(C)c(=O)n2C

>  <Energy>  (8) 
113.20670677130313

>  <Genealogy>  (8) 
CC(C)Oc1cc2c(cc1[N-]S(=O)(=O)c1ccc([N-]C(=O)N3CCCC3)cc1)n(C)c(=O)n2C (protonated)
CC(C)Oc1cc2c(cc1[N-]S(=O)(=O)c1ccc([N-]C(=O)N3CCCC3)cc1)n(C)c(=O)n2C (3D coordinates assigned)
CC(C)Oc1cc2c(cc1[N-]S(=O)(=O)c1ccc([N-]C(=O)N3CCCC3)cc1)n(C)c(=O)n2C (nonaromatic ring conformer: 113.20670677130313 kcal/mol)

>  <smiles>  (8) 
CC(C)Oc1cc2c(cc1NS(=O)(=O)c1ccc(NC(=O)N3CCCC3)cc1)n(C)c(=O)n2C

>  <score_type>  (8) 
oracle

>  <origin>  (8) 
adgpu

>  <m_score__min__energy>  (8) 
-12.050000000000001

>  <m_primary>  (8) 
energy

$$$$
8:0
     RDKit          3D

 44 46  0  0  0  0  0  0  0  0999 V2000
    0.7660   18.7560  -28.7670 C   0  0  0  0  0  0  0  0  0  0  0  0
   -0.5630   18.9200  -29.2510 O   0  0  0  0  0  0  0  0  0  0  0  0
   -1.0770   20.1170  -29.7780 C   0  0  0  0  0  0  0  0  0  0  0  0
   -0.8380   20.5030  -31.1060 C   0  0  0  0  0  0  0  0  0  0  0  0
   -1.3620   21.6950  -31.5950 C   0  0  0  0  0  0  0  0  0  0  0  0
   -2.1150   22.5280  -30.7680 C   0  0  0  0  0  0  0  0  0  0  0  0
   -2.3910   22.1640  -29.4350 C   0  0  0  0  0  0  0  0  0  0  0  0
   -3.2400   23.0550  -28.5250 C   0  0  1  0  0  0  0  0  0  0  0  0
   -3.2390   24.5210  -28.9920 C   0  0  0  0  0  0  0  0  0  0  0  0
   -4.1800   24.7490  -30.1350 C   0  0  0  0  0  0  0  0  0  0  0  0
   -3.8640   25.5380  -31.0120 O   0  0  0  0  0  0  0  0  0  0  0  0
   -5.5940   24.2320  -30.0610 C   0  0  1  0  0  0  0  0  0  0  0  0
   -6.4090   24.1850  -31.7210 S   0  0  0  0  0  0  0  0  0  0  0  0
   -6.1680   22.4520  -32.1800 C   0  0  0  0  0  0  0  0  0  0  0  0
   -4.8540   22.0140  -32.4110 C   0  0  0  0  0  0  0  0  0  0  0  0
   -4.5860   20.6730  -32.6840 C   0  0  0  0  0  0  0  0  0  0  0  0
   -5.6240   19.7430  -32.6960 C   0  0  0  0  0  0  0  0  0  0  0  0
   -6.9310   20.1520  -32.4270 C   0  0  0  0  0  0  0  0  0  0  0  0
   -7.2170   21.5000  -32.1460 C   0  0  0  0  0  0  0  0  0  0  0  0
   -8.6410   21.8760  -31.8470 C   0  0  0  0  0  0  0  0  0  0  0  0
   -5.7050   22.9440  -29.2740 C   0  0  0  0  0  0  0  0  0  0  0  0
   -6.7430   22.3030  -29.3250 O   0  0  0  0  0  0  0  0  0  0  0  0
   -4.6730   22.5440  -28.2430 C   0  0  0  0  0  0  0  0  0  0  0  0
   -1.8550   20.9420  -28.9470 C   0  0  0  0  0  0  0  0  0  0  0  0
   -2.1530   20.4000  -27.2910 Cl  0  0  0  0  0  0  0  0  0  0  0  0
    0.7584   18.7569  -27.6670 H   0  0  0  0  0  0  0  0  0  0  0  0
    1.1732   17.8008  -29.1300 H   0  0  0  0  0  0  0  0  0  0  0  0
    1.3932   19.5836  -29.1300 H   0  0  0  0  0  0  0  0  0  0  0  0
   -0.2337   19.8601  -31.7629 H   0  0  0  0  0  0  0  0  0  0  0  0
   -1.1812   21.9826  -32.6412 H   0  0  0  0  0  0  0  0  0  0  0  0
   -2.4983   23.4811  -31.1612 H   0  0  0  0  0  0  0  0  0  0  0  0
   -2.7347   22.9999  -27.5495 H   0  0  0  0  0  0  0  0  0  0  0  0
   -2.2215   24.7909  -29.3110 H   0  0  0  0  0  0  0  0  0  0  0  0
   -3.5719   25.1451  -28.1496 H   0  0  0  0  0  0  0  0  0  0  0  0
   -6.1743   24.9619  -29.4775 H   0  0  0  0  0  0  0  0  0  0  0  0
   -4.0261   22.7374  -32.3762 H   0  0  0  0  0  0  0  0  0  0  0  0
   -3.5551   20.3491  -32.8899 H   0  0  0  0  0  0  0  0  0  0  0  0
   -5.4131   18.6864  -32.9175 H   0  0  0  0  0  0  0  0  0  0  0  0
   -7.7455   19.4127  -32.4348 H   0  0  0  0  0  0  0  0  0  0  0  0
   -8.7889   21.9151  -30.7577 H   0  0  0  0  0  0  0  0  0  0  0  0
   -8.8589   22.8625  -32.2822 H   0  0  0  0  0  0  0  0  0  0  0  0
   -9.3175   21.1257  -32.2822 H   0  0  0  0  0  0  0  0  0  0  0  0
   -4.6417   21.4453  -28.1989 H   0  0  0  0  0  0  0  0  0  0  0  0
   -4.9859   23.0084  -27.2962 H   0  0  0  0  0  0  0  0  0  0  0  0
  1  2  1  0
  2  3  1  0
  3  4  2  0
  4  5  1  0
  5  6  2  0
  6  7  1  0
  7  8  1  0
  8  9  1  0
  9 10  1  0
 10 11  2  0
 10 12  1  0
 12 13  1  0
 13 14  1  0
 14 15  2  0
 15 16  1  0
 16 17  2  0
 17 18  1  0
 18 19  2  0
 19 20  1  0
 12 21  1  0
 21 22  2  0
 21 23  1  0
  7 24  2  0
 24 25  1  0
 24  3  1  0
 23  8  1  0
 19 14  1  0
  1 26  1  0
  1 27  1  0
  1 28  1  0
  4 29  1  0
  5 30  1  0
  6 31  1  0
  8 32  1  1
  9 33  1  0
  9 34  1  0
 12 35  1  1
 15 36  1  0
 16 37  1  0
 17 38  1  0
 18 39  1  0
 20 40  1  0
 20 41  1  0
 20 42  1  0
 23 43  1  0
 23 44  1  0
M  END
>  <UniqueID>  (9) 
9

>  <SMILES>  (9) 
COc1cccc(C2CC(=O)C(Sc3ccccc3C)C(=O)C2)c1Cl

>  <Energy>  (9) 
52.20235829364083

>  <Genealogy>  (9) 
COc1cccc(C2CC(=O)C(Sc3ccccc3C)C(=O)C2)c1Cl (3D coordinates assigned)
COc1cccc(C2CC(=O)C(Sc3ccccc3C)C(=O)C2)c1Cl (nonaromatic ring conformer: 52.20235829364083 kcal/mol)

>  <smiles>  (9) 
COc1cccc(C2CC(=O)C(Sc3ccccc3C)C(=O)C2)c1Cl

>  <score_type>  (9) 
oracle

>  <origin>  (9) 
adgpu

>  <m_score__min__energy>  (9) 
-8.4499999999999993

>  <m_primary>  (9) 
energy

$$$$
9:0
     RDKit          3D

 39 41  0  0  0  0  0  0  0  0999 V2000
   -1.9720   25.5560  -28.8850 N   0  0  0  0  0  0  0  0  0  0  0  0
   -1.5530   25.0270  -27.6200 C   0  0  0  0  0  0  0  0  0  0  0  0
   -1.7080   25.8270  -26.4750 C   0  0  0  0  0  0  0  0  0  0  0  0
   -1.2350   25.3940  -25.2350 C   0  0  0  0  0  0  0  0  0  0  0  0
   -0.6030   24.1590  -25.1220 C   0  0  0  0  0  0  0  0  0  0  0  0
   -0.4560   23.3420  -26.2450 C   0  0  0  0  0  0  0  0  0  0  0  0
   -0.9410   23.7510  -27.5010 C   0  0  0  0  0  0  0  0  0  0  0  0
   -0.8340   22.8090  -28.6390 C   0  0  0  0  0  0  0  0  0  0  0  0
   -0.0240   21.7320  -28.6530 N   0  0  0  0  0  0  0  0  0  0  0  0
   -0.2260   21.1280  -29.8130 N   0  0  0  0  0  0  0  0  0  0  0  0
   -1.1520   21.8540  -30.4660 C   0  0  0  0  0  0  0  0  0  0  0  0
   -1.6970   21.5490  -31.8040 C   0  0  0  0  0  0  0  0  0  0  0  0
   -0.9920   21.8230  -32.8100 O   0  0  0  0  0  0  0  0  0  0  0  0
   -2.9910   20.9650  -32.0190 N   0  0  0  0  0  0  0  0  0  0  0  0
   -3.9600   21.3150  -33.0530 C   0  0  0  0  0  0  0  0  0  0  0  0
   -5.3820   21.3050  -32.4860 C   0  0  0  0  0  0  0  0  0  0  0  0
   -5.5880   22.4660  -31.5530 C   0  0  0  0  0  0  0  0  0  0  0  0
   -6.7690   22.5730  -30.8030 C   0  0  0  0  0  0  0  0  0  0  0  0
   -6.9730   23.6700  -29.9600 C   0  0  0  0  0  0  0  0  0  0  0  0
   -6.0050   24.6760  -29.8640 C   0  0  0  0  0  0  0  0  0  0  0  0
   -6.2320   25.7580  -29.0150 O   0  0  0  0  0  0  0  0  0  0  0  0
   -4.8260   24.5810  -30.6220 C   0  0  0  0  0  0  0  0  0  0  0  0
   -3.8550   25.5740  -30.5440 O   0  0  0  0  0  0  0  0  0  0  0  0
   -4.6230   23.4830  -31.4650 C   0  0  0  0  0  0  0  0  0  0  0  0
   -1.5330   22.8820  -29.7460 O   0  0  0  0  0  0  0  0  0  0  0  0
   -1.8590   24.9900  -29.7560 H   0  0  0  0  0  0  0  0  0  0  0  0
   -2.5300   26.4320  -28.9610 H   0  0  0  0  0  0  0  0  0  0  0  0
   -2.2069   26.8039  -26.5567 H   0  0  0  0  0  0  0  0  0  0  0  0
   -1.3619   26.0295  -24.3462 H   0  0  0  0  0  0  0  0  0  0  0  0
   -0.2187   23.8260  -24.1466 H   0  0  0  0  0  0  0  0  0  0  0  0
    0.0447   22.3675  -26.1466 H   0  0  0  0  0  0  0  0  0  0  0  0
   -3.7313   22.3200  -33.4372 H   0  0  0  0  0  0  0  0  0  0  0  0
   -3.8966   20.5738  -33.8633 H   0  0  0  0  0  0  0  0  0  0  0  0
   -6.1021   21.3750  -33.3146 H   0  0  0  0  0  0  0  0  0  0  0  0
   -5.5344   20.3698  -31.9273 H   0  0  0  0  0  0  0  0  0  0  0  0
   -7.5381   21.7902  -30.8785 H   0  0  0  0  0  0  0  0  0  0  0  0
   -7.8984   23.7424  -29.3698 H   0  0  0  0  0  0  0  0  0  0  0  0
   -5.5040   26.4220  -28.7820 H   0  0  0  0  0  0  0  0  0  0  0  0
   -3.7020   23.4157  -32.0626 H   0  0  0  0  0  0  0  0  0  0  0  0
  1  2  1  0
  2  3  2  0
  3  4  1  0
  4  5  2  0
  5  6  1  0
  6  7  2  0
  7  8  1  0
  8  9  2  0
  9 10  1  0
 10 11  2  0
 11 12  1  0
 12 13  2  0
 12 14  1  0
 14 15  1  0
 15 16  1  0
 16 17  1  0
 17 18  2  0
 18 19  1  0
 19 20  2  0
 20 21  1  0
 20 22  1  0
 22 23  1  0
 22 24  2  0
 11 25  1  0
  7  2  1  0
 25  8  1  0
 24 17  1  0
  1 26  1  0
  1 27  1  0
  3 28  1  0
  4 29  1  0
  5 30  1  0
  6 31  1  0
 15 32  1  0
 15 33  1  0
 16 34  1  0
 16 35  1  0
 18 36  1  0
 19 37  1  0
 21 38  1  0
 24 39  1  0
M  CHG  2  14  -1  23  -1
M  END
>  <UniqueID>  (10) 
10

>  <SMILES>  (10) 
Nc1ccccc1-c1nnc(C(=O)[N-]CCc2ccc(O)c([O-])c2)o1

>  <Energy>  (10) 
77.5147468443039

>  <Genealogy>  (10) 
Nc1ccccc1-c1nnc(C(=O)[N-]CCc2ccc(O)c([O-])c2)o1 (protonated)
Nc1ccccc1-c1nnc(C(=O)[N-]CCc2ccc(O)c([O-])c2)o1 (3D coordinates assigned)
Nc1ccccc1-c1nnc(C(=O)[N-]CCc2ccc(O)c([O-])c2)o1 (optimized conformer: 77.5147468443039 kcal/mol)

>  <smiles>  (10) 
Nc1ccccc1-c1nnc(C(=O)NCCc2ccc(O)c(O)c2)o1

>  <score_type>  (10) 
oracle

>  <origin>  (10) 
adgpu

>  <m_score__min__energy>  (10) 
-10.949999999999999

>  <m_primary>  (10) 
energy

$$$$
10:0
     RDKit          3D

 57 60  0  0  0  0  0  0  0  0999 V2000
   -2.9330   19.1190  -34.5740 O   0  0  0  0  0  0  0  0  0  0  0  0
   -3.2720   19.6060  -33.4610 C   0  0  0  0  0  0  0  0  0  0  0  0
   -2.2630   20.0360  -32.5270 N   0  0  0  0  0  0  0  0  0  0  0  0
   -0.8530   20.0210  -32.8070 C   0  0  0  0  0  0  0  0  0  0  0  0
    0.0350   19.2290  -32.0600 C   0  0  0  0  0  0  0  0  0  0  0  0
    1.3980   19.2150  -32.3700 C   0  0  0  0  0  0  0  0  0  0  0  0
    1.8820   19.9740  -33.4370 C   0  0  0  0  0  0  0  0  0  0  0  0
    1.0040   20.7420  -34.2140 C   0  0  0  0  0  0  0  0  0  0  0  0
    1.6140   21.6970  -35.5690 S   0  0  0  0  0  0  0  0  0  0  0  0
    3.0710   21.3820  -35.7720 O   0  0  0  0  0  0  0  0  0  0  0  0
    0.8760   21.3020  -36.8170 O   0  0  0  0  0  0  0  0  0  0  0  0
    1.4340   23.4180  -35.3230 N   0  0  0  0  0  0  0  0  0  0  0  0
    2.6110   24.1630  -35.7610 C   0  0  0  0  0  0  0  0  0  0  0  0
    2.1320   25.5670  -36.0960 C   0  0  0  0  0  0  0  0  0  0  0  0
    0.6290   25.4410  -36.3020 C   0  0  0  0  0  0  0  0  0  0  0  0
    0.3160   23.9690  -36.0860 C   0  0  0  0  0  0  0  0  0  0  0  0
   -0.3620   20.7620  -33.8930 C   0  0  0  0  0  0  0  0  0  0  0  0
   -4.7150   19.7160  -33.1360 C   0  0  0  0  0  0  0  0  0  0  0  0
   -5.5680   18.6310  -33.3920 C   0  0  0  0  0  0  0  0  0  0  0  0
   -6.9280   18.7120  -33.0870 C   0  0  0  0  0  0  0  0  0  0  0  0
   -7.4580   19.8720  -32.5160 C   0  0  0  0  0  0  0  0  0  0  0  0
   -9.1780   19.9060  -32.1430 Cl  0  0  0  0  0  0  0  0  0  0  0  0
   -6.6140   20.9660  -32.2410 C   0  0  0  0  0  0  0  0  0  0  0  0
   -7.2470   22.4360  -31.4850 S   0  0  0  0  0  0  0  0  0  0  0  0
   -7.8390   22.0770  -30.1500 O   0  0  0  0  0  0  0  0  0  0  0  0
   -8.3280   23.0380  -32.3420 O   0  0  0  0  0  0  0  0  0  0  0  0
   -5.9530   23.5880  -31.2700 N   0  0  0  0  0  0  0  0  0  0  0  0
   -6.4910   24.8600  -30.7580 C   0  0  0  0  0  0  0  0  0  0  0  0
   -5.3540   25.7870  -30.2830 C   0  0  0  0  0  0  0  0  0  0  0  0
   -4.0980   25.3220  -30.7370 O   0  0  0  0  0  0  0  0  0  0  0  0
   -3.8080   24.0690  -30.1430 C   0  0  0  0  0  0  0  0  0  0  0  0
   -4.9490   23.0480  -30.3420 C   0  0  0  0  0  0  0  0  0  0  0  0
   -5.2460   20.8770  -32.5470 C   0  0  0  0  0  0  0  0  0  0  0  0
   -2.5490   20.3300  -31.5670 H   0  0  0  0  0  0  0  0  0  0  0  0
   -0.3438   18.6174  -31.2278 H   0  0  0  0  0  0  0  0  0  0  0  0
    2.0906   18.6046  -31.7719 H   0  0  0  0  0  0  0  0  0  0  0  0
    2.9572   19.9693  -33.6690 H   0  0  0  0  0  0  0  0  0  0  0  0
    3.3597   24.1987  -34.9559 H   0  0  0  0  0  0  0  0  0  0  0  0
    3.0835   23.6851  -36.6318 H   0  0  0  0  0  0  0  0  0  0  0  0
    2.3507   26.2566  -35.2673 H   0  0  0  0  0  0  0  0  0  0  0  0
    2.6354   25.9700  -36.9872 H   0  0  0  0  0  0  0  0  0  0  0  0
    0.0869   26.0611  -35.5729 H   0  0  0  0  0  0  0  0  0  0  0  0
    0.3221   25.7830  -37.3015 H   0  0  0  0  0  0  0  0  0  0  0  0
   -0.6215   23.8581  -35.5214 H   0  0  0  0  0  0  0  0  0  0  0  0
    0.1888   23.4432  -37.0438 H   0  0  0  0  0  0  0  0  0  0  0  0
   -1.0549   21.3645  -34.4987 H   0  0  0  0  0  0  0  0  0  0  0  0
   -5.1620   17.7102  -33.8362 H   0  0  0  0  0  0  0  0  0  0  0  0
   -7.5869   17.8567  -33.2977 H   0  0  0  0  0  0  0  0  0  0  0  0
   -7.0536   25.3616  -31.5592 H   0  0  0  0  0  0  0  0  0  0  0  0
   -7.1490   24.6446  -29.9032 H   0  0  0  0  0  0  0  0  0  0  0  0
   -5.5268   26.7993  -30.6772 H   0  0  0  0  0  0  0  0  0  0  0  0
   -5.3470   25.7978  -29.1831 H   0  0  0  0  0  0  0  0  0  0  0  0
   -2.8901   23.6666  -30.5964 H   0  0  0  0  0  0  0  0  0  0  0  0
   -3.6850   24.2296  -29.0618 H   0  0  0  0  0  0  0  0  0  0  0  0
   -4.5356   22.1161  -30.7551 H   0  0  0  0  0  0  0  0  0  0  0  0
   -5.4264   22.8474  -29.3715 H   0  0  0  0  0  0  0  0  0  0  0  0
   -4.5825   21.7254  -32.3233 H   0  0  0  0  0  0  0  0  0  0  0  0
  1  2  2  0
  2  3  1  0
  3  4  1  0
  4  5  2  0
  5  6  1  0
  6  7  2  0
  7  8  1  0
  8  9  1  0
  9 10  2  0
  9 11  2  0
  9 12  1  0
 12 13  1  0
 13 14  1  0
 14 15  1  0
 15 16  1  0
  8 17  2  0
  2 18  1  0
 18 19  2  0
 19 20  1  0
 20 21  2  0
 21 22  1  0
 21 23  1  0
 23 24  1  0
 24 25  2  0
 24 26  2  0
 24 27  1  0
 27 28  1  0
 28 29  1  0
 29 30  1  0
 30 31  1  0
 31 32  1  0
 23 33  2  0
 17  4  1  0
 33 18  1  0
 16 12  1  0
 32 27  1  0
  3 34  1  0
  5 35  1  0
  6 36  1  0
  7 37  1  0
 13 38  1  0
 13 39  1  0
 14 40  1  0
 14 41  1  0
 15 42  1  0
 15 43  1  0
 16 44  1  0
 16 45  1  0
 17 46  1  0
 19 47  1  0
 20 48  1  0
 28 49  1  0
 28 50  1  0
 29 51  1  0
 29 52  1  0
 31 53  1  0
 31 54  1  0
 32 55  1  0
 32 56  1  0
 33 57  1  0
M  END
>  <UniqueID>  (11) 
11

>  <SMILES>  (11) 
O=C(Nc1cccc(S(=O)(=O)N2CCCC2)c1)c1ccc(Cl)c(S(=O)(=O)N2CCOCC2)c1

>  <Energy>  (11) 
75.34905706442161

>  <Genealogy>  (11) 
O=C(Nc1cccc(S(=O)(=O)N2CCCC2)c1)c1ccc(Cl)c(S(=O)(=O)N2CCOCC2)c1 (3D coordinates assigned)
O=C(Nc1cccc(S(=O)(=O)N2CCCC2)c1)c1ccc(Cl)c(S(=O)(=O)N2CCOCC2)c1 (nonaromatic ring conformer: 75.34905706442161 kcal/mol)

>  <smiles>  (11) 
O=C(Nc1cccc(S(=O)(=O)N2CCCC2)c1)c1ccc(Cl)c(S(=O)(=O)N2CCOCC2)c1

>  <score_type>  (11) 
oracle

>  <origin>  (11) 
adgpu

>  <m_score__min__energy>  (11) 
-11.76

>  <m_primary>  (11) 
energy

$$$$
11:0
     RDKit          3D

 62 66  0  0  0  0  0  0  0  0999 V2000
   -0.8400   21.5100  -33.7530 C   0  0  0  0  0  0  0  0  0  0  0  0
   -0.7250   20.0820  -33.3970 N   0  0  0  0  0  0  0  0  0  0  0  0
   -0.6490   19.8640  -31.9380 C   0  0  0  0  0  0  0  0  0  0  0  0
   -1.9530   20.2380  -31.2090 C   0  0  0  0  0  0  0  0  0  0  0  0
   -3.1950   19.8410  -31.9710 C   0  0  0  0  0  0  0  0  0  0  0  0
   -4.4460   19.9490  -31.3420 C   0  0  0  0  0  0  0  0  0  0  0  0
   -5.6310   19.6820  -32.0520 C   0  0  0  0  0  0  0  0  0  0  0  0
   -6.9140   19.8120  -31.4300 N   0  0  0  0  0  0  0  0  0  0  0  0
   -7.8010   21.2960  -31.3450 S   0  0  0  0  0  0  0  0  0  0  0  0
   -8.5810   21.5230  -32.6080 O   0  0  0  0  0  0  0  0  0  0  0  0
   -8.7680   21.2280  -30.1980 O   0  0  0  0  0  0  0  0  0  0  0  0
   -6.6700   22.6110  -31.0560 C   0  0  0  0  0  0  0  0  0  0  0  0
   -6.7090   23.7670  -31.8390 C   0  0  0  0  0  0  0  0  0  0  0  0
   -5.7870   24.7920  -31.6170 C   0  0  0  0  0  0  0  0  0  0  0  0
   -4.8110   24.6690  -30.6230 C   0  0  0  0  0  0  0  0  0  0  0  0
   -3.8810   25.6940  -30.4620 O   0  0  0  0  0  0  0  0  0  0  0  0
   -4.7650   23.5110  -29.8190 C   0  0  0  0  0  0  0  0  0  0  0  0
   -3.7440   23.3470  -28.7480 C   0  0  0  0  0  0  0  0  0  0  0  0
   -3.4130   24.4290  -27.9120 C   0  0  0  0  0  0  0  0  0  0  0  0
   -2.4340   24.2700  -26.9270 C   0  0  0  0  0  0  0  0  0  0  0  0
   -1.8150   23.0720  -26.7680 N   0  0  0  0  0  0  0  0  0  0  0  0
   -2.1140   21.9920  -27.5470 C   0  0  0  0  0  0  0  0  0  0  0  0
   -1.4170   20.7490  -27.3350 N   0  0  0  0  0  0  0  0  0  0  0  0
   -0.1050   20.5560  -27.9750 C   0  0  0  0  0  0  0  0  0  0  0  0
    0.4060   19.1320  -27.7520 C   0  0  0  0  0  0  0  0  0  0  0  0
   -0.7180   18.1930  -27.8600 N   0  0  0  0  0  0  0  0  0  0  0  0
   -1.6640   18.3440  -26.7350 C   0  0  0  0  0  0  0  0  0  0  0  0
   -1.8390   19.8100  -26.2830 C   0  0  0  0  0  0  0  0  0  0  0  0
   -3.0680   22.1270  -28.5750 C   0  0  0  0  0  0  0  0  0  0  0  0
   -5.7020   22.4860  -30.0530 C   0  0  0  0  0  0  0  0  0  0  0  0
   -5.5630   19.3130  -33.4020 C   0  0  0  0  0  0  0  0  0  0  0  0
   -6.7410   19.0520  -34.1140 O   0  0  0  0  0  0  0  0  0  0  0  0
   -4.3150   19.1890  -34.0270 C   0  0  0  0  0  0  0  0  0  0  0  0
   -3.1310   19.4650  -33.3270 C   0  0  0  0  0  0  0  0  0  0  0  0
   -1.7970   19.2650  -34.0060 C   0  0  0  0  0  0  0  0  0  0  0  0
   -0.8886   22.1140  -32.8349 H   0  0  0  0  0  0  0  0  0  0  0  0
    0.0367   21.8121  -34.3447 H   0  0  0  0  0  0  0  0  0  0  0  0
   -1.7538   21.6680  -34.3447 H   0  0  0  0  0  0  0  0  0  0  0  0
   -0.4352   18.8011  -31.7523 H   0  0  0  0  0  0  0  0  0  0  0  0
    0.1468   20.5152  -31.5473 H   0  0  0  0  0  0  0  0  0  0  0  0
   -1.9652   19.7319  -30.2324 H   0  0  0  0  0  0  0  0  0  0  0  0
   -1.9680   21.3331  -31.1068 H   0  0  0  0  0  0  0  0  0  0  0  0
   -4.4999   20.2452  -30.2840 H   0  0  0  0  0  0  0  0  0  0  0  0
   -7.4660   23.8700  -32.6305 H   0  0  0  0  0  0  0  0  0  0  0  0
   -5.8288   25.7046  -32.2297 H   0  0  0  0  0  0  0  0  0  0  0  0
   -3.9226   25.3963  -28.0330 H   0  0  0  0  0  0  0  0  0  0  0  0
   -2.1645   25.1172  -26.2793 H   0  0  0  0  0  0  0  0  0  0  0  0
   -0.2007   20.7394  -29.0554 H   0  0  0  0  0  0  0  0  0  0  0  0
    0.6115   21.2608  -27.5280 H   0  0  0  0  0  0  0  0  0  0  0  0
    1.1625   18.8893  -28.5127 H   0  0  0  0  0  0  0  0  0  0  0  0
    0.8579   19.0539  -26.7522 H   0  0  0  0  0  0  0  0  0  0  0  0
   -0.3400   17.2200  -27.8360 H   0  0  0  0  0  0  0  0  0  0  0  0
   -2.6442   17.9546  -27.0473 H   0  0  0  0  0  0  0  0  0  0  0  0
   -1.2512   17.7850  -25.8823 H   0  0  0  0  0  0  0  0  0  0  0  0
   -2.8987   19.9882  -26.0479 H   0  0  0  0  0  0  0  0  0  0  0  0
   -1.2097   19.9770  -25.3964 H   0  0  0  0  0  0  0  0  0  0  0  0
   -3.2834   21.2787  -29.2413 H   0  0  0  0  0  0  0  0  0  0  0  0
   -5.6726   21.5740  -29.4386 H   0  0  0  0  0  0  0  0  0  0  0  0
   -7.6310   19.4430  -33.8300 H   0  0  0  0  0  0  0  0  0  0  0  0
   -4.2631   18.8715  -35.0789 H   0  0  0  0  0  0  0  0  0  0  0  0
   -1.5181   18.2036  -33.9306 H   0  0  0  0  0  0  0  0  0  0  0  0
   -1.9041   19.5807  -35.0543 H   0  0  0  0  0  0  0  0  0  0  0  0
  1  2  1  0
  2  3  1  0
  3  4  1  0
  4  5  1  0
  5  6  2  0
  6  7  1  0
  7  8  1  0
  8  9  1  0
  9 10  2  0
  9 11  2  0
  9 12  1  0
 12 13  2  0
 13 14  1  0
 14 15  2  0
 15 16  1  0
 15 17  1  0
 17 18  1  0
 18 19  2  0
 19 20  1  0
 20 21  2  0
 21 22  1  0
 22 23  1  0
 23 24  1  0
 24 25  1  0
 25 26  1  0
 26 27  1  0
 27 28  1  0
 22 29  2  0
 17 30  2  0
  7 31  2  0
 31 32  1  0
 31 33  1  0
 33 34  2  0
 34 35  1  0
 35  2  1  0
 34  5  1  0
 30 12  1  0
 29 18  1  0
 28 23  1  0
  1 36  1  0
  1 37  1  0
  1 38  1  0
  3 39  1  0
  3 40  1  0
  4 41  1  0
  4 42  1  0
  6 43  1  0
 13 44  1  0
 14 45  1  0
 19 46  1  0
 20 47  1  0
 24 48  1  0
 24 49  1  0
 25 50  1  0
 25 51  1  0
 26 52  1  0
 27 53  1  0
 27 54  1  0
 28 55  1  0
 28 56  1  0
 29 57  1  0
 30 58  1  0
 32 59  1  0
 33 60  1  0
 35 61  1  0
 35 62  1  0
M  CHG  2   8  -1  16  -1
M  END
>  <UniqueID>  (12) 
12

>  <SMILES>  (12) 
CN1CCc2cc([N-]S(=O)(=O)c3ccc([O-])c(-c4ccnc(N5CCNCC5)c4)c3)c(O)cc2C1

>  <Energy>  (12) 
92.7054957353113

>  <Genealogy>  (12) 
CN1CCc2cc([N-]S(=O)(=O)c3ccc([O-])c(-c4ccnc(N5CCNCC5)c4)c3)c(O)cc2C1 (protonated)
CN1CCc2cc([N-]S(=O)(=O)c3ccc([O-])c(-c4ccnc(N5CCNCC5)c4)c3)c(O)cc2C1 (3D coordinates assigned)
CN1CCc2cc([N-]S(=O)(=O)c3ccc([O-])c(-c4ccnc(N5CCNCC5)c4)c3)c(O)cc2C1 (nonaromatic ring conformer: 92.7054957353113 kcal/mol)

>  <smiles>  (12) 
CN1CCc2cc(NS(=O)(=O)c3ccc(O)c(-c4ccnc(N5CCNCC5)c4)c3)c(O)cc2C1

>  <score_type>  (12) 
oracle

>  <origin>  (12) 
adgpu

>  <m_score__min__energy>  (12) 
-12.94

>  <m_primary>  (12) 
energy

$$$$
12:0
     RDKit          3D

 75 79  0  0  0  0  0  0  0  0999 V2000
   -4.2720   21.9190  -29.7700 O   0  0  0  0  0  0  0  0  0  0  0  0
   -5.2480   22.7080  -29.6430 C   0  0  0  0  0  0  0  0  0  0  0  0
   -5.1980   23.7800  -28.6840 N   0  0  0  0  0  0  0  0  0  0  0  0
   -4.0360   24.1060  -27.9020 C   0  0  0  0  0  0  0  0  0  0  0  0
   -4.1730   24.9310  -26.7830 C   0  0  0  0  0  0  0  0  0  0  0  0
   -3.0580   25.2870  -26.0240 C   0  0  0  0  0  0  0  0  0  0  0  0
   -1.7800   24.8260  -26.3740 C   0  0  0  0  0  0  0  0  0  0  0  0
   -0.6520   25.2550  -25.5950 N   0  0  0  0  0  0  0  0  0  0  0  0
   -0.6320   25.0340  -24.1460 C   0  0  0  0  0  0  0  0  0  0  0  0
   -0.8350   26.3650  -23.4090 C   0  0  0  0  0  0  0  0  0  0  0  0
    0.1460   27.4310  -23.9160 C   0  0  0  0  0  0  0  0  0  0  0  0
    0.0450   27.6000  -25.4380 C   0  0  0  0  0  0  0  0  0  0  0  0
    0.2630   26.2600  -26.1450 C   0  0  0  0  0  0  0  0  0  0  0  0
   -1.6250   23.9980  -27.5120 C   0  0  0  0  0  0  0  0  0  0  0  0
   -0.0520   23.3460  -28.0230 S   0  0  0  0  0  0  0  0  0  0  0  0
    0.7020   22.7890  -26.8480 O   0  0  0  0  0  0  0  0  0  0  0  0
    0.7680   24.4700  -28.5930 O   0  0  0  0  0  0  0  0  0  0  0  0
   -0.2160   22.0900  -29.2270 N   0  0  0  0  0  0  0  0  0  0  0  0
   -0.8690   20.9060  -28.6530 C   0  0  0  0  0  0  0  0  0  0  0  0
   -1.0320   19.8130  -29.7300 C   0  0  0  0  0  0  0  0  0  0  0  0
   -0.5460   20.2380  -30.9920 O   0  0  0  0  0  0  0  0  0  0  0  0
   -1.2180   21.4190  -31.3900 C   0  0  0  0  0  0  0  0  0  0  0  0
   -0.9780   22.5710  -30.3900 C   0  0  0  0  0  0  0  0  0  0  0  0
   -2.7540   23.6700  -28.2770 C   0  0  0  0  0  0  0  0  0  0  0  0
   -6.4360   22.5200  -30.5000 C   0  0  0  0  0  0  0  0  0  0  0  0
   -6.7860   21.2210  -30.9060 C   0  0  0  0  0  0  0  0  0  0  0  0
   -7.9080   21.0040  -31.7180 C   0  0  0  0  0  0  0  0  0  0  0  0
   -8.3470   19.3640  -32.2050 S   0  0  0  0  0  0  0  0  0  0  0  0
   -9.5810   19.4160  -33.0620 O   0  0  0  0  0  0  0  0  0  0  0  0
   -8.6630   18.5510  -30.9800 O   0  0  0  0  0  0  0  0  0  0  0  0
   -7.0550   18.5950  -33.0990 N   0  0  0  0  0  0  0  0  0  0  0  0
   -6.2410   17.7490  -32.1990 C   0  0  0  0  0  0  0  0  0  0  0  0
   -4.8840   17.4100  -32.8240 C   0  0  0  0  0  0  0  0  0  0  0  0
   -4.0550   18.6840  -33.0710 C   0  0  0  0  0  0  0  0  0  0  0  0
   -4.9290   19.9350  -33.2570 C   0  0  0  0  0  0  0  0  0  0  0  0
   -6.2800   19.5780  -33.8960 C   0  0  0  0  0  0  0  0  0  0  0  0
   -8.6840   22.0950  -32.1300 C   0  0  0  0  0  0  0  0  0  0  0  0
   -8.3530   23.3880  -31.7190 C   0  0  0  0  0  0  0  0  0  0  0  0
   -7.2430   23.6050  -30.8980 C   0  0  0  0  0  0  0  0  0  0  0  0
   -6.9690   24.8970  -30.4600 O   0  0  0  0  0  0  0  0  0  0  0  0
   -6.0620   24.3410  -28.5130 H   0  0  0  0  0  0  0  0  0  0  0  0
   -5.1682   25.3029  -26.4980 H   0  0  0  0  0  0  0  0  0  0  0  0
   -3.1819   25.9347  -25.1436 H   0  0  0  0  0  0  0  0  0  0  0  0
   -1.4397   24.3392  -23.8723 H   0  0  0  0  0  0  0  0  0  0  0  0
    0.3404   24.6072  -23.8593 H   0  0  0  0  0  0  0  0  0  0  0  0
   -1.8643   26.7151  -23.5761 H   0  0  0  0  0  0  0  0  0  0  0  0
   -0.6519   26.2027  -22.3366 H   0  0  0  0  0  0  0  0  0  0  0  0
   -0.0863   28.3912  -23.4323 H   0  0  0  0  0  0  0  0  0  0  0  0
    1.1683   27.1090  -23.6686 H   0  0  0  0  0  0  0  0  0  0  0  0
   -0.9532   27.9852  -25.6934 H   0  0  0  0  0  0  0  0  0  0  0  0
    0.8215   28.3056  -25.7685 H   0  0  0  0  0  0  0  0  0  0  0  0
    0.0705   26.3792  -27.2214 H   0  0  0  0  0  0  0  0  0  0  0  0
    1.3010   25.9310  -25.9889 H   0  0  0  0  0  0  0  0  0  0  0  0
   -0.2539   20.5154  -27.8290 H   0  0  0  0  0  0  0  0  0  0  0  0
   -1.8628   21.1908  -28.2772 H   0  0  0  0  0  0  0  0  0  0  0  0
   -0.4734   18.9187  -29.4166 H   0  0  0  0  0  0  0  0  0  0  0  0
   -2.1050   19.5940  -29.8339 H   0  0  0  0  0  0  0  0  0  0  0  0
   -0.8497   21.7232  -32.3808 H   0  0  0  0  0  0  0  0  0  0  0  0
   -2.2972   21.2082  -31.4212 H   0  0  0  0  0  0  0  0  0  0  0  0
   -0.4118   23.3716  -30.8884 H   0  0  0  0  0  0  0  0  0  0  0  0
   -1.9504   22.9535  -30.0462 H   0  0  0  0  0  0  0  0  0  0  0  0
   -2.6338   23.0615  -29.1854 H   0  0  0  0  0  0  0  0  0  0  0  0
   -6.1736   20.3660  -30.5835 H   0  0  0  0  0  0  0  0  0  0  0  0
   -6.0751   18.2880  -31.2545 H   0  0  0  0  0  0  0  0  0  0  0  0
   -6.7847   16.8092  -32.0226 H   0  0  0  0  0  0  0  0  0  0  0  0
   -4.3301   16.7471  -32.1430 H   0  0  0  0  0  0  0  0  0  0  0  0
   -5.0580   16.9130  -33.7898 H   0  0  0  0  0  0  0  0  0  0  0  0
   -3.3907   18.8440  -32.2089 H   0  0  0  0  0  0  0  0  0  0  0  0
   -3.4867   18.5350  -34.0010 H   0  0  0  0  0  0  0  0  0  0  0  0
   -5.1074   20.3975  -32.2750 H   0  0  0  0  0  0  0  0  0  0  0  0
   -4.4015   20.6329  -33.9238 H   0  0  0  0  0  0  0  0  0  0  0  0
   -6.8756   20.4976  -33.9941 H   0  0  0  0  0  0  0  0  0  0  0  0
   -6.0713   19.1186  -34.8735 H   0  0  0  0  0  0  0  0  0  0  0  0
   -9.5569   21.9328  -32.7794 H   0  0  0  0  0  0  0  0  0  0  0  0
   -8.9690   24.2398  -32.0430 H   0  0  0  0  0  0  0  0  0  0  0  0
  1  2  2  0
  2  3  1  0
  3  4  1  0
  4  5  2  0
  5  6  1  0
  6  7  2  0
  7  8  1  0
  8  9  1  0
  9 10  1  0
 10 11  1  0
 11 12  1  0
 12 13  1  0
  7 14  1  0
 14 15  1  0
 15 16  2  0
 15 17  2  0
 15 18  1  0
 18 19  1  0
 19 20  1  0
 20 21  1  0
 21 22  1  0
 22 23  1  0
 14 24  2  0
  2 25  1  0
 25 26  2  0
 26 27  1  0
 27 28  1  0
 28 29  2  0
 28 30  2  0
 28 31  1  0
 31 32  1  0
 32 33  1  0
 33 34  1  0
 34 35  1  0
 35 36  1  0
 27 37  2  0
 37 38  1  0
 38 39  2  0
 39 40  1  0
 24  4  1  0
 39 25  1  0
 13  8  1  0
 23 18  1  0
 36 31  1  0
  3 41  1  0
  5 42  1  0
  6 43  1  0
  9 44  1  0
  9 45  1  0
 10 46  1  0
 10 47  1  0
 11 48  1  0
 11 49  1  0
 12 50  1  0
 12 51  1  0
 13 52  1  0
 13 53  1  0
 19 54  1  0
 19 55  1  0
 20 56  1  0
 20 57  1  0
 22 58  1  0
 22 59  1  0
 23 60  1  0
 23 61  1  0
 24 62  1  0
 26 63  1  0
 32 64  1  0
 32 65  1  0
 33 66  1  0
 33 67  1  0
 34 68  1  0
 34 69  1  0
 35 70  1  0
 35 71  1  0
 36 72  1  0
 36 73  1  0
 37 74  1  0
 38 75  1  0
M  CHG  1  40  -1
M  END
>  <UniqueID>  (13) 
13

>  <SMILES>  (13) 
O=C(Nc1ccc(N2CCCCC2)c(S(=O)(=O)N2CCOCC2)c1)c1cc(S(=O)(=O)N2CCCCC2)ccc1[O-]

>  <Energy>  (13) 
100.02049687494024

>  <Genealogy>  (13) 
O=C(Nc1ccc(N2CCCCC2)c(S(=O)(=O)N2CCOCC2)c1)c1cc(S(=O)(=O)N2CCCCC2)ccc1[O-] (protonated)
O=C(Nc1ccc(N2CCCCC2)c(S(=O)(=O)N2CCOCC2)c1)c1cc(S(=O)(=O)N2CCCCC2)ccc1[O-] (3D coordinates assigned)
O=C(Nc1ccc(N2CCCCC2)c(S(=O)(=O)N2CCOCC2)c1)c1cc(S(=O)(=O)N2CCCCC2)ccc1[O-] (nonaromatic ring conformer: 100.02049687494024 kcal/mol)

>  <smiles>  (13) 
O=C(Nc1ccc(N2CCCCC2)c(S(=O)(=O)N2CCOCC2)c1)c1cc(S(=O)(=O)N2CCCCC2)ccc1O

>  <score_type>  (13) 
oracle

>  <origin>  (13) 
adgpu

>  <m_score__min__energy>  (13) 
-14.1

>  <m_primary>  (13) 
energy

$$$$
13:0
     RDKit          3D

 50 53  0  0  0  0  0  0  0  0999 V2000
   -4.7730   20.8000  -32.9460 C   0  0  0  0  0  0  0  0  0  0  0  0
   -5.6980   20.6010  -31.8830 O   0  0  0  0  0  0  0  0  0  0  0  0
   -7.0910   20.5060  -32.0420 C   0  0  0  0  0  0  0  0  0  0  0  0
   -7.7080   19.3040  -32.4450 C   0  0  0  0  0  0  0  0  0  0  0  0
   -9.0950   19.2350  -32.5930 C   0  0  0  0  0  0  0  0  0  0  0  0
   -9.8830   20.3570  -32.3420 C   0  0  0  0  0  0  0  0  0  0  0  0
   -9.2870   21.5550  -31.9430 C   0  0  0  0  0  0  0  0  0  0  0  0
   -7.8930   21.6420  -31.7920 C   0  0  0  0  0  0  0  0  0  0  0  0
   -7.2900   22.9490  -31.3380 C   0  0  0  0  0  0  0  0  0  0  0  0
   -6.0760   22.7050  -30.5610 N   0  0  0  0  0  0  0  0  0  0  0  0
   -4.9770   23.6310  -30.5420 C   0  0  0  0  0  0  0  0  0  0  0  0
   -5.0090   24.6530  -31.2800 O   0  0  0  0  0  0  0  0  0  0  0  0
   -3.7930   23.3980  -29.6800 C   0  0  0  0  0  0  0  0  0  0  0  0
   -3.8890   23.5870  -28.2900 C   0  0  0  0  0  0  0  0  0  0  0  0
   -2.7840   23.3650  -27.4640 C   0  0  0  0  0  0  0  0  0  0  0  0
   -1.5600   22.9520  -28.0130 C   0  0  0  0  0  0  0  0  0  0  0  0
   -0.3840   22.6680  -27.1200 C   0  0  0  0  0  0  0  0  0  0  0  0
   -0.0470   23.8550  -26.3380 N   0  0  0  0  0  0  0  0  0  0  0  0
    0.1010   25.1860  -26.8410 C   0  0  0  0  0  0  0  0  0  0  0  0
    0.2440   25.4720  -28.0600 O   0  0  0  0  0  0  0  0  0  0  0  0
    0.0380   26.1460  -25.7450 C   0  0  0  0  0  0  0  0  0  0  0  0
    0.1350   27.5360  -25.7460 C   0  0  0  0  0  0  0  0  0  0  0  0
    0.0180   28.2070  -24.5150 C   0  0  0  0  0  0  0  0  0  0  0  0
   -0.1950   27.4810  -23.3230 C   0  0  0  0  0  0  0  0  0  0  0  0
   -0.2930   26.0790  -23.3490 C   0  0  0  0  0  0  0  0  0  0  0  0
   -0.1700   25.4380  -24.5810 C   0  0  0  0  0  0  0  0  0  0  0  0
   -0.2410   24.0240  -24.9300 C   0  0  0  0  0  0  0  0  0  0  0  0
   -0.4580   23.0800  -24.1270 O   0  0  0  0  0  0  0  0  0  0  0  0
   -1.4660   22.7400  -29.3960 C   0  0  0  0  0  0  0  0  0  0  0  0
   -2.5710   22.9620  -30.2230 C   0  0  0  0  0  0  0  0  0  0  0  0
   -3.7773   21.0142  -32.5304 H   0  0  0  0  0  0  0  0  0  0  0  0
   -4.7244   19.8918  -33.5647 H   0  0  0  0  0  0  0  0  0  0  0  0
   -5.1022   21.6479  -33.5647 H   0  0  0  0  0  0  0  0  0  0  0  0
   -7.0926   18.4143  -32.6442 H   0  0  0  0  0  0  0  0  0  0  0  0
   -9.5668   18.2927  -32.9085 H   0  0  0  0  0  0  0  0  0  0  0  0
  -10.9753   20.2986  -32.4583 H   0  0  0  0  0  0  0  0  0  0  0  0
   -9.9136   22.4372  -31.7454 H   0  0  0  0  0  0  0  0  0  0  0  0
   -7.0406   23.5589  -32.2188 H   0  0  0  0  0  0  0  0  0  0  0  0
   -8.0184   23.4789  -30.7066 H   0  0  0  0  0  0  0  0  0  0  0  0
   -5.9980   21.7910  -30.0620 H   0  0  0  0  0  0  0  0  0  0  0  0
   -4.8426   23.9126  -27.8488 H   0  0  0  0  0  0  0  0  0  0  0  0
   -2.8738   23.5147  -26.3779 H   0  0  0  0  0  0  0  0  0  0  0  0
   -0.6365   21.8429  -26.4378 H   0  0  0  0  0  0  0  0  0  0  0  0
    0.4800   22.3899  -27.7414 H   0  0  0  0  0  0  0  0  0  0  0  0
    0.2981   28.0919  -26.6811 H   0  0  0  0  0  0  0  0  0  0  0  0
    0.0929   29.3039  -24.4810 H   0  0  0  0  0  0  0  0  0  0  0  0
   -0.2850   28.0167  -22.3665 H   0  0  0  0  0  0  0  0  0  0  0  0
   -0.4615   25.5053  -22.4257 H   0  0  0  0  0  0  0  0  0  0  0  0
   -0.5166   22.3968  -29.8329 H   0  0  0  0  0  0  0  0  0  0  0  0
   -2.4841   22.7944  -31.3067 H   0  0  0  0  0  0  0  0  0  0  0  0
  1  2  1  0
  2  3  1  0
  3  4  2  0
  4  5  1  0
  5  6  2  0
  6  7  1  0
  7  8  2  0
  8  9  1  0
  9 10  1  0
 10 11  1  0
 11 12  2  0
 11 13  1  0
 13 14  2  0
 14 15  1  0
 15 16  2  0
 16 17  1  0
 17 18  1  0
 18 19  1  0
 19 20  2  0
 19 21  1  0
 21 22  2  0
 22 23  1  0
 23 24  2  0
 24 25  1  0
 25 26  2  0
 26 27  1  0
 27 28  2  0
 16 29  1  0
 29 30  2  0
  8  3  1  0
 30 13  1  0
 27 18  1  0
 26 21  1  0
  1 31  1  0
  1 32  1  0
  1 33  1  0
  4 34  1  0
  5 35  1  0
  6 36  1  0
  7 37  1  0
  9 38  1  0
  9 39  1  0
 10 40  1  0
 14 41  1  0
 15 42  1  0
 17 43  1  0
 17 44  1  0
 22 45  1  0
 23 46  1  0
 24 47  1  0
 25 48  1  0
 29 49  1  0
 30 50  1  0
M  END
>  <UniqueID>  (14) 
14

>  <SMILES>  (14) 
COc1ccccc1CNC(=O)c1ccc(CN2C(=O)c3ccccc3C2=O)cc1

>  <Energy>  (14) 
85.0121077244772

>  <Genealogy>  (14) 
COc1ccccc1CNC(=O)c1ccc(CN2C(=O)c3ccccc3C2=O)cc1 (3D coordinates assigned)
COc1ccccc1CNC(=O)c1ccc(CN2C(=O)c3ccccc3C2=O)cc1 (nonaromatic ring conformer: 85.0121077244772 kcal/mol)

>  <smiles>  (14) 
COc1ccccc1CNC(=O)c1ccc(CN2C(=O)c3ccccc3C2=O)cc1

>  <score_type>  (14) 
oracle

>  <origin>  (14) 
adgpu

>  <m_score__min__energy>  (14) 
-9.7699999999999996

>  <m_primary>  (14) 
energy

$$$$
14:0
     RDKit          3D

 44 47  0  0  0  0  0  0  0  0999 V2000
   -9.4450   18.9760  -32.5730 C   0  0  0  0  0  0  0  0  0  0  0  0
   -8.4080   20.0360  -32.3790 C   0  0  0  0  0  0  0  0  0  0  0  0
   -8.6200   21.1330  -31.6010 N   0  0  0  0  0  0  0  0  0  0  0  0
   -7.4470   21.7880  -31.6760 C   0  0  0  0  0  0  0  0  0  0  0  0
   -7.0970   22.9730  -31.0360 C   0  0  0  0  0  0  0  0  0  0  0  0
   -5.7870   23.4660  -31.2280 C   0  0  0  0  0  0  0  0  0  0  0  0
   -5.2700   24.9630  -30.4630 S   0  0  0  0  0  0  0  0  0  0  0  0
   -5.7610   26.1590  -31.2300 O   0  0  0  0  0  0  0  0  0  0  0  0
   -5.8350   25.0190  -29.0720 O   0  0  0  0  0  0  0  0  0  0  0  0
   -3.5390   25.0060  -30.3770 N   0  0  0  0  0  0  0  0  0  0  0  0
   -2.7400   24.3040  -29.4150 C   0  0  0  0  0  0  0  0  0  0  0  0
   -3.0850   23.0220  -28.9520 C   0  0  0  0  0  0  0  0  0  0  0  0
   -2.2800   22.3570  -28.0160 C   0  0  0  0  0  0  0  0  0  0  0  0
   -1.1330   22.9970  -27.5020 C   0  0  0  0  0  0  0  0  0  0  0  0
   -0.7870   24.2730  -27.9680 C   0  0  0  0  0  0  0  0  0  0  0  0
   -1.5880   24.9240  -28.9110 C   0  0  0  0  0  0  0  0  0  0  0  0
   -1.2300   26.1950  -29.3480 O   0  0  0  0  0  0  0  0  0  0  0  0
   -0.2110   22.2730  -26.5480 C   0  0  0  0  0  0  0  0  0  0  0  0
   -0.8880   21.1810  -25.8350 N   0  0  0  0  0  0  0  0  0  0  0  0
   -1.5590   20.2830  -26.7850 C   0  0  0  0  0  0  0  0  0  0  0  0
   -2.7070   21.0050  -27.5020 C   0  0  0  0  0  0  0  0  0  0  0  0
   -4.8760   22.7550  -32.0480 C   0  0  0  0  0  0  0  0  0  0  0  0
   -5.2610   21.5530  -32.6710 C   0  0  0  0  0  0  0  0  0  0  0  0
   -6.5660   21.1060  -32.4640 C   0  0  0  0  0  0  0  0  0  0  0  0
   -7.1670   19.9990  -32.9320 N   0  0  0  0  0  0  0  0  0  0  0  0
   -6.5630   18.9300  -33.7290 C   0  0  0  0  0  0  0  0  0  0  0  0
   -9.7933   18.6200  -31.5922 H   0  0  0  0  0  0  0  0  0  0  0  0
  -10.2942   19.3923  -33.1347 H   0  0  0  0  0  0  0  0  0  0  0  0
   -9.0102   18.1361  -33.1347 H   0  0  0  0  0  0  0  0  0  0  0  0
   -7.8175   23.5090  -30.4007 H   0  0  0  0  0  0  0  0  0  0  0  0
   -3.9968   22.5351  -29.3283 H   0  0  0  0  0  0  0  0  0  0  0  0
    0.1208   24.7654  -27.5892 H   0  0  0  0  0  0  0  0  0  0  0  0
    0.6302   21.8537  -27.1195 H   0  0  0  0  0  0  0  0  0  0  0  0
    0.1339   23.0001  -25.7981 H   0  0  0  0  0  0  0  0  0  0  0  0
   -1.6010   21.5880  -25.1830 H   0  0  0  0  0  0  0  0  0  0  0  0
   -0.8287   19.9374  -27.5315 H   0  0  0  0  0  0  0  0  0  0  0  0
   -1.9732   19.4289  -26.2292 H   0  0  0  0  0  0  0  0  0  0  0  0
   -3.0404   20.3898  -28.3508 H   0  0  0  0  0  0  0  0  0  0  0  0
   -3.5229   21.1545  -26.7795 H   0  0  0  0  0  0  0  0  0  0  0  0
   -3.8589   23.1459  -32.1990 H   0  0  0  0  0  0  0  0  0  0  0  0
   -4.5577   20.9862  -33.2988 H   0  0  0  0  0  0  0  0  0  0  0  0
   -6.1339   18.1706  -33.0587 H   0  0  0  0  0  0  0  0  0  0  0  0
   -7.3326   18.4662  -34.3636 H   0  0  0  0  0  0  0  0  0  0  0  0
   -5.7686   19.3499  -34.3636 H   0  0  0  0  0  0  0  0  0  0  0  0
  1  2  1  0
  2  3  2  0
  3  4  1  0
  4  5  2  0
  5  6  1  0
  6  7  1  0
  7  8  2  0
  7  9  2  0
  7 10  1  0
 10 11  1  0
 11 12  2  0
 12 13  1  0
 13 14  2  0
 14 15  1  0
 15 16  2  0
 16 17  1  0
 14 18  1  0
 18 19  1  0
 19 20  1  0
 20 21  1  0
  6 22  2  0
 22 23  1  0
 23 24  2  0
 24 25  1  0
 25 26  1  0
 25  2  1  0
 24  4  1  0
 16 11  1  0
 21 13  1  0
  1 27  1  0
  1 28  1  0
  1 29  1  0
  5 30  1  0
 12 31  1  0
 15 32  1  0
 18 33  1  0
 18 34  1  0
 19 35  1  0
 20 36  1  0
 20 37  1  0
 21 38  1  0
 21 39  1  0
 22 40  1  0
 23 41  1  0
 26 42  1  0
 26 43  1  0
 26 44  1  0
M  CHG  2  10  -1  17  -1
M  END
>  <UniqueID>  (15) 
15

>  <SMILES>  (15) 
Cc1nc2cc(S(=O)(=O)[N-]c3cc4c(cc3[O-])CNCC4)ccc2n1C

>  <Energy>  (15) 
88.38510125380559

>  <Genealogy>  (15) 
Cc1nc2cc(S(=O)(=O)[N-]c3cc4c(cc3[O-])CNCC4)ccc2n1C (protonated)
Cc1nc2cc(S(=O)(=O)[N-]c3cc4c(cc3[O-])CNCC4)ccc2n1C (3D coordinates assigned)
Cc1nc2cc(S(=O)(=O)[N-]c3cc4c(cc3[O-])CNCC4)ccc2n1C (nonaromatic ring conformer: 88.38510125380559 kcal/mol)

>  <smiles>  (15) 
Cc1nc2cc(S(=O)(=O)Nc3cc4c(cc3O)CNCC4)ccc2n1C

>  <score_type>  (15) 
oracle

>  <origin>  (15) 
adgpu

>  <m_score__min__energy>  (15) 
-14.4

>  <m_primary>  (15) 
energy

$$$$
15:0
     RDKit          3D

 64 68  0  0  0  0  0  0  0  0999 V2000
   -2.6530   15.7510  -35.3140 C   0  0  0  0  0  0  0  0  0  0  0  0
   -3.5970   16.6930  -34.8150 O   0  0  0  0  0  0  0  0  0  0  0  0
   -3.3050   17.7000  -33.8830 C   0  0  0  0  0  0  0  0  0  0  0  0
   -2.0030   17.8950  -33.3860 C   0  0  0  0  0  0  0  0  0  0  0  0
   -1.7410   18.9050  -32.4590 C   0  0  0  0  0  0  0  0  0  0  0  0
   -2.7690   19.7490  -32.0140 C   0  0  0  0  0  0  0  0  0  0  0  0
   -2.4840   20.8140  -31.0220 C   0  0  0  0  0  0  0  0  0  0  0  0
   -1.9580   21.8950  -31.4040 O   0  0  0  0  0  0  0  0  0  0  0  0
   -2.8350   20.6440  -29.6400 N   0  0  0  0  0  0  0  0  0  0  0  0
   -2.2050   21.3760  -28.5720 C   0  0  0  0  0  0  0  0  0  0  0  0
   -1.8690   22.7310  -28.7420 C   0  0  0  0  0  0  0  0  0  0  0  0
   -1.2380   23.4450  -27.7160 C   0  0  0  0  0  0  0  0  0  0  0  0
   -0.8500   25.1530  -27.9340 S   0  0  0  0  0  0  0  0  0  0  0  0
    0.6380   25.3400  -27.8190 O   0  0  0  0  0  0  0  0  0  0  0  0
   -1.2650   25.5830  -29.3140 O   0  0  0  0  0  0  0  0  0  0  0  0
   -1.6510   26.1620  -26.7480 N   0  0  0  0  0  0  0  0  0  0  0  0
   -0.8140   27.3060  -26.3730 C   0  0  0  0  0  0  0  0  0  0  0  0
   -0.1020   26.9740  -25.0710 C   0  0  0  0  0  0  0  0  0  0  0  0
   -0.8220   25.7680  -24.5030 C   0  0  0  0  0  0  0  0  0  0  0  0
   -1.9090   25.4210  -25.5090 C   0  0  0  0  0  0  0  0  0  0  0  0
   -0.9190   22.7960  -26.5180 C   0  0  0  0  0  0  0  0  0  0  0  0
   -1.2330   21.4470  -26.3440 C   0  0  0  0  0  0  0  0  0  0  0  0
   -1.8710   20.7320  -27.3650 C   0  0  0  0  0  0  0  0  0  0  0  0
   -2.2700   19.0410  -27.0830 Cl  0  0  0  0  0  0  0  0  0  0  0  0
   -4.0720   19.5520  -32.5040 C   0  0  0  0  0  0  0  0  0  0  0  0
   -4.3440   18.5340  -33.4320 C   0  0  0  0  0  0  0  0  0  0  0  0
   -5.9890   18.3250  -34.0410 S   0  0  0  0  0  0  0  0  0  0  0  0
   -6.0990   18.9180  -35.4160 O   0  0  0  0  0  0  0  0  0  0  0  0
   -6.3230   16.8620  -34.1430 O   0  0  0  0  0  0  0  0  0  0  0  0
   -7.1090   19.0680  -32.9400 N   0  0  0  0  0  0  0  0  0  0  0  0
   -8.0950   18.2940  -32.1890 C   0  0  0  0  0  0  0  0  0  0  0  0
   -8.7380   19.2770  -31.1840 C   0  0  0  0  0  0  0  0  0  0  0  0
   -8.0070   20.5490  -31.4310 C   0  0  0  0  0  0  0  0  0  0  0  0
   -8.1720   21.7700  -30.7750 C   0  0  0  0  0  0  0  0  0  0  0  0
   -7.3730   22.8550  -31.1660 C   0  0  0  0  0  0  0  0  0  0  0  0
   -6.4310   22.7030  -32.1990 C   0  0  0  0  0  0  0  0  0  0  0  0
   -6.2840   21.4660  -32.8470 C   0  0  0  0  0  0  0  0  0  0  0  0
   -7.0880   20.3950  -32.4360 C   0  0  0  0  0  0  0  0  0  0  0  0
   -2.1526   15.2517  -34.4712 H   0  0  0  0  0  0  0  0  0  0  0  0
   -3.1730   15.0010  -35.9282 H   0  0  0  0  0  0  0  0  0  0  0  0
   -1.9041   16.2725  -35.9282 H   0  0  0  0  0  0  0  0  0  0  0  0
   -1.1847   17.2459  -33.7310 H   0  0  0  0  0  0  0  0  0  0  0  0
   -0.7194   19.0402  -32.0741 H   0  0  0  0  0  0  0  0  0  0  0  0
   -3.6260   20.0030  -29.4070 H   0  0  0  0  0  0  0  0  0  0  0  0
   -2.1044   23.2352  -29.6909 H   0  0  0  0  0  0  0  0  0  0  0  0
   -0.0731   27.4988  -27.1628 H   0  0  0  0  0  0  0  0  0  0  0  0
   -1.4366   28.2037  -26.2448 H   0  0  0  0  0  0  0  0  0  0  0  0
    0.9544   26.7345  -25.2624 H   0  0  0  0  0  0  0  0  0  0  0  0
   -0.1201   27.8229  -24.3717 H   0  0  0  0  0  0  0  0  0  0  0  0
   -0.1246   24.9253  -24.3870 H   0  0  0  0  0  0  0  0  0  0  0  0
   -1.2434   25.9796  -23.5092 H   0  0  0  0  0  0  0  0  0  0  0  0
   -1.8941   24.3402  -25.7132 H   0  0  0  0  0  0  0  0  0  0  0  0
   -2.8958   25.6929  -25.1061 H   0  0  0  0  0  0  0  0  0  0  0  0
   -0.4190   23.3509  -25.7105 H   0  0  0  0  0  0  0  0  0  0  0  0
   -0.9779   20.9431  -25.4000 H   0  0  0  0  0  0  0  0  0  0  0  0
   -4.8878   20.2029  -32.1563 H   0  0  0  0  0  0  0  0  0  0  0  0
   -8.8593   17.8883  -32.8681 H   0  0  0  0  0  0  0  0  0  0  0  0
   -7.6284   17.4413  -31.6740 H   0  0  0  0  0  0  0  0  0  0  0  0
   -9.8133   19.3959  -31.3827 H   0  0  0  0  0  0  0  0  0  0  0  0
   -8.6645   18.9347  -30.1412 H   0  0  0  0  0  0  0  0  0  0  0  0
   -8.9125   21.8792  -29.9689 H   0  0  0  0  0  0  0  0  0  0  0  0
   -7.4837   23.8271  -30.6632 H   0  0  0  0  0  0  0  0  0  0  0  0
   -5.8066   23.5569  -32.5007 H   0  0  0  0  0  0  0  0  0  0  0  0
   -5.5534   21.3407  -33.6597 H   0  0  0  0  0  0  0  0  0  0  0  0
  1  2  1  0
  2  3  1  0
  3  4  2  0
  4  5  1  0
  5  6  2  0
  6  7  1  0
  7  8  2  0
  7  9  1  0
  9 10  1  0
 10 11  2  0
 11 12  1  0
 12 13  1  0
 13 14  2  0
 13 15  2  0
 13 16  1  0
 16 17  1  0
 17 18  1  0
 18 19  1  0
 19 20  1  0
 12 21  2  0
 21 22  1  0
 22 23  2  0
 23 24  1  0
  6 25  1  0
 25 26  2  0
 26 27  1  0
 27 28  2  0
 27 29  2  0
 27 30  1  0
 30 31  1  0
 31 32  1  0
 32 33  1  0
 33 34  2  0
 34 35  1  0
 35 36  2  0
 36 37  1  0
 37 38  2  0
 26  3  1  0
 38 30  1  0
 23 10  1  0
 38 33  1  0
 20 16  1  0
  1 39  1  0
  1 40  1  0
  1 41  1  0
  4 42  1  0
  5 43  1  0
  9 44  1  0
 11 45  1  0
 17 46  1  0
 17 47  1  0
 18 48  1  0
 18 49  1  0
 19 50  1  0
 19 51  1  0
 20 52  1  0
 20 53  1  0
 21 54  1  0
 22 55  1  0
 25 56  1  0
 31 57  1  0
 31 58  1  0
 32 59  1  0
 32 60  1  0
 34 61  1  0
 35 62  1  0
 36 63  1  0
 37 64  1  0
M  END
>  <UniqueID>  (16) 
16

>  <SMILES>  (16) 
COc1ccc(C(=O)Nc2cc(S(=O)(=O)N3CCCC3)ccc2Cl)cc1S(=O)(=O)N1CCc2ccccc21

>  <Energy>  (16) 
91.21718845393815

>  <Genealogy>  (16) 
COc1ccc(C(=O)Nc2cc(S(=O)(=O)N3CCCC3)ccc2Cl)cc1S(=O)(=O)N1CCc2ccccc21 (3D coordinates assigned)
COc1ccc(C(=O)Nc2cc(S(=O)(=O)N3CCCC3)ccc2Cl)cc1S(=O)(=O)N1CCc2ccccc21 (nonaromatic ring conformer: 91.21718845393815 kcal/mol)

>  <smiles>  (16) 
COc1ccc(C(=O)Nc2cc(S(=O)(=O)N3CCCC3)ccc2Cl)cc1S(=O)(=O)N1CCc2ccccc21

>  <score_type>  (16) 
oracle

>  <origin>  (16) 
adgpu

>  <m_score__min__energy>  (16) 
-11.859999999999999

>  <m_primary>  (16) 
energy

$$$$
16:0
     RDKit          3D

 52 54  0  0  0  0  0  0  0  0999 V2000
   -6.2830   17.2360  -34.2420 C   0  0  0  0  0  0  0  0  0  0  0  0
   -5.6540   18.2310  -33.3070 C   0  0  0  0  0  0  0  0  0  0  0  0
   -4.3670   18.7260  -33.5750 C   0  0  0  0  0  0  0  0  0  0  0  0
   -3.7570   19.6240  -32.6940 C   0  0  0  0  0  0  0  0  0  0  0  0
   -2.1090   20.2400  -33.0390 S   0  0  0  0  0  0  0  0  0  0  0  0
   -2.1880   21.4470  -31.7180 C   0  0  0  0  0  0  0  0  0  0  0  0
   -2.8390   22.6600  -31.7660 C   0  0  0  0  0  0  0  0  0  0  0  0
   -2.6110   23.2420  -30.5320 C   0  0  0  0  0  0  0  0  0  0  0  0
   -3.0990   24.5560  -30.0970 C   0  0  0  0  0  0  0  0  0  0  0  0
   -4.1700   25.0260  -30.5620 O   0  0  0  0  0  0  0  0  0  0  0  0
   -2.3780   25.2860  -29.1620 O   0  0  0  0  0  0  0  0  0  0  0  0
   -1.8790   22.4490  -29.7820 O   0  0  0  0  0  0  0  0  0  0  0  0
   -1.6160   21.3570  -30.4630 C   0  0  0  0  0  0  0  0  0  0  0  0
   -0.7940   20.2260  -29.9390 C   0  0  0  0  0  0  0  0  0  0  0  0
   -4.4340   20.0400  -31.5450 C   0  0  0  0  0  0  0  0  0  0  0  0
   -5.7110   19.5500  -31.2660 C   0  0  0  0  0  0  0  0  0  0  0  0
   -6.3330   18.6360  -32.1420 C   0  0  0  0  0  0  0  0  0  0  0  0
   -7.6140   18.1120  -31.8890 O   0  0  0  0  0  0  0  0  0  0  0  0
   -8.8260   18.5540  -32.5020 C   0  0  0  0  0  0  0  0  0  0  0  0
   -9.1300   19.9810  -32.1490 C   0  0  0  0  0  0  0  0  0  0  0  0
  -10.0730   20.5840  -32.7310 O   0  0  0  0  0  0  0  0  0  0  0  0
   -8.3850   20.6350  -31.1110 N   0  0  0  0  0  0  0  0  0  0  0  0
   -8.6430   22.0270  -30.7210 C   0  0  0  0  0  0  0  0  0  0  0  0
   -8.6380   22.9510  -31.9560 C   0  0  0  0  0  0  0  0  0  0  0  0
   -7.2490   23.0640  -32.6190 C   0  0  0  0  0  0  0  0  0  0  0  0
   -6.0800   22.8750  -31.6350 C   0  0  0  0  0  0  0  0  0  0  0  0
   -6.4550   23.3290  -30.2230 C   0  0  0  0  0  0  0  0  0  0  0  0
   -7.6200   22.4990  -29.6520 C   0  0  0  0  0  0  0  0  0  0  0  0
   -6.7811   16.4481  -33.6580 H   0  0  0  0  0  0  0  0  0  0  0  0
   -7.0233   17.7458  -34.8761 H   0  0  0  0  0  0  0  0  0  0  0  0
   -5.5049   16.7860  -34.8761 H   0  0  0  0  0  0  0  0  0  0  0  0
   -3.8360   18.4052  -34.4834 H   0  0  0  0  0  0  0  0  0  0  0  0
   -3.4159   23.0762  -32.6050 H   0  0  0  0  0  0  0  0  0  0  0  0
   -0.8061   20.2427  -28.8392 H   0  0  0  0  0  0  0  0  0  0  0  0
   -1.2117   19.2730  -30.2959 H   0  0  0  0  0  0  0  0  0  0  0  0
    0.2414   20.3291  -30.2959 H   0  0  0  0  0  0  0  0  0  0  0  0
   -3.9593   20.7560  -30.8579 H   0  0  0  0  0  0  0  0  0  0  0  0
   -6.2357   19.8789  -30.3569 H   0  0  0  0  0  0  0  0  0  0  0  0
   -8.7263   18.4690  -33.5942 H   0  0  0  0  0  0  0  0  0  0  0  0
   -9.6494   17.9237  -32.1348 H   0  0  0  0  0  0  0  0  0  0  0  0
   -7.6100   20.1000  -30.6540 H   0  0  0  0  0  0  0  0  0  0  0  0
   -9.6444   22.0808  -30.2691 H   0  0  0  0  0  0  0  0  0  0  0  0
   -9.3479   22.5517  -32.6954 H   0  0  0  0  0  0  0  0  0  0  0  0
   -8.9227   23.9574  -31.6151 H   0  0  0  0  0  0  0  0  0  0  0  0
   -7.1732   22.2943  -33.4012 H   0  0  0  0  0  0  0  0  0  0  0  0
   -7.1672   24.0828  -33.0257 H   0  0  0  0  0  0  0  0  0  0  0  0
   -5.8055   21.8102  -31.6067 H   0  0  0  0  0  0  0  0  0  0  0  0
   -5.2354   23.4887  -31.9814 H   0  0  0  0  0  0  0  0  0  0  0  0
   -5.5796   23.2144  -29.5668 H   0  0  0  0  0  0  0  0  0  0  0  0
   -6.7734   24.3807  -30.2726 H   0  0  0  0  0  0  0  0  0  0  0  0
   -7.2015   21.6100  -29.1575 H   0  0  0  0  0  0  0  0  0  0  0  0
   -8.1658   23.1533  -28.9563 H   0  0  0  0  0  0  0  0  0  0  0  0
  1  2  1  0
  2  3  2  0
  3  4  1  0
  4  5  1  0
  5  6  1  0
  6  7  1  0
  7  8  2  0
  8  9  1  0
  9 10  2  0
  9 11  1  0
  8 12  1  0
 12 13  1  0
 13 14  1  0
  4 15  2  0
 15 16  1  0
 16 17  2  0
 17 18  1  0
 18 19  1  0
 19 20  1  0
 20 21  2  0
 20 22  1  0
 22 23  1  0
 23 24  1  0
 24 25  1  0
 25 26  1  0
 26 27  1  0
 27 28  1  0
 17  2  1  0
 28 23  1  0
 13  6  2  0
  1 29  1  0
  1 30  1  0
  1 31  1  0
  3 32  1  0
  7 33  1  0
 14 34  1  0
 14 35  1  0
 14 36  1  0
 15 37  1  0
 16 38  1  0
 19 39  1  0
 19 40  1  0
 22 41  1  0
 23 42  1  0
 24 43  1  0
 24 44  1  0
 25 45  1  0
 25 46  1  0
 26 47  1  0
 26 48  1  0
 27 49  1  0
 27 50  1  0
 28 51  1  0
 28 52  1  0
M  CHG  1  11  -1
M  END
>  <UniqueID>  (17) 
17

>  <SMILES>  (17) 
Cc1cc(Sc2cc(C(=O)[O-])oc2C)ccc1OCC(=O)NC1CCCCC1

>  <Energy>  (17) 
72.1828380610923

>  <Genealogy>  (17) 
Cc1cc(Sc2cc(C(=O)[O-])oc2C)ccc1OCC(=O)NC1CCCCC1 (protonated)
Cc1cc(Sc2cc(C(=O)[O-])oc2C)ccc1OCC(=O)NC1CCCCC1 (3D coordinates assigned)
Cc1cc(Sc2cc(C(=O)[O-])oc2C)ccc1OCC(=O)NC1CCCCC1 (nonaromatic ring conformer: 72.1828380610923 kcal/mol)

>  <smiles>  (17) 
Cc1cc(Sc2cc(C(=O)O)oc2C)ccc1OCC(=O)NC1CCCCC1

>  <score_type>  (17) 
oracle

>  <origin>  (17) 
adgpu

>  <m_score__min__energy>  (17) 
-10.07

>  <m_primary>  (17) 
energy

$$$$
17:0
     RDKit          3D

 41 43  0  0  1  0  0  0  0  0999 V2000
   -1.5440   25.5180  -25.2570 C   0  0  0  0  0  0  0  0  0  0  0  0
   -1.3910   25.1080  -26.6780 C   0  0  0  0  0  0  0  0  0  0  0  0
   -0.1380   24.9050  -27.2220 C   0  0  0  0  0  0  0  0  0  0  0  0
   -0.0790   24.5350  -28.5120 N   0  0  0  0  0  0  0  0  0  0  0  0
   -1.1750   24.3570  -29.2800 C   0  0  0  0  0  0  0  0  0  0  0  0
   -2.4320   24.5510  -28.7700 C   0  0  0  0  0  0  0  0  0  0  0  0
   -3.6040   24.3470  -29.6400 C   0  0  0  0  0  0  0  0  0  0  0  0
   -3.8170   25.2440  -30.4800 O   0  0  0  0  0  0  0  0  0  0  0  0
   -4.4480   23.2280  -29.5560 N   0  0  0  0  0  0  0  0  0  0  0  0
   -5.5820   22.9490  -30.3380 C   0  0  0  0  0  0  0  0  0  0  0  0
   -6.5060   23.9720  -30.5670 C   0  0  0  0  0  0  0  0  0  0  0  0
   -7.6430   23.7790  -31.3210 C   0  0  0  0  0  0  0  0  0  0  0  0
   -7.9320   22.5810  -31.8880 C   0  0  0  0  0  0  0  0  0  0  0  0
   -7.0380   21.5400  -31.6820 C   0  0  0  0  0  0  0  0  0  0  0  0
   -7.3720   19.9730  -32.3950 S   0  0  0  0  0  0  0  0  0  0  0  0
   -7.5400   18.9210  -31.3270 O   0  0  0  0  0  0  0  0  0  0  0  0
   -8.6450   20.1430  -33.1930 O   0  0  0  0  0  0  0  0  0  0  0  0
   -6.0370   19.5970  -33.4220 N   0  0  0  0  0  0  0  0  0  0  0  0
   -5.8890   18.3570  -33.7750 C   0  0  0  0  0  0  0  0  0  0  0  0
   -6.7510   17.3610  -33.3600 C   0  0  0  0  0  0  0  0  0  0  0  0
   -6.5200   16.0700  -33.7830 C   0  0  0  0  0  0  0  0  0  0  0  0
   -5.4700   15.8310  -34.5770 N   0  0  0  0  0  0  0  0  0  0  0  0
   -4.6340   16.8310  -34.9730 C   0  0  0  0  0  0  0  0  0  0  0  0
   -4.8370   18.0930  -34.5760 N   0  0  0  0  0  0  0  0  0  0  0  0
   -5.8850   21.7420  -30.9140 C   0  0  0  0  0  0  0  0  0  0  0  0
   -2.5360   24.9300  -27.4530 C   0  0  0  0  0  0  0  0  0  0  0  0
   -1.2352   24.6905  -24.6013 H   0  0  0  0  0  0  0  0  0  0  0  0
   -0.9135   26.3974  -25.0592 H   0  0  0  0  0  0  0  0  0  0  0  0
   -2.5965   25.7694  -25.0592 H   0  0  0  0  0  0  0  0  0  0  0  0
    0.7747   25.0408  -26.6232 H   0  0  0  0  0  0  0  0  0  0  0  0
   -1.0573   24.0519  -30.3302 H   0  0  0  0  0  0  0  0  0  0  0  0
   -4.1940   22.5120  -28.8130 H   0  0  0  0  0  0  0  0  0  0  0  0
   -6.3194   24.9644  -30.1308 H   0  0  0  0  0  0  0  0  0  0  0  0
   -8.3362   24.6205  -31.4674 H   0  0  0  0  0  0  0  0  0  0  0  0
   -8.8422   22.4399  -32.4894 H   0  0  0  0  0  0  0  0  0  0  0  0
   -7.6041   17.5933  -32.7055 H   0  0  0  0  0  0  0  0  0  0  0  0
   -7.1864   15.2513  -33.4737 H   0  0  0  0  0  0  0  0  0  0  0  0
   -5.2660   14.8600  -34.9160 H   0  0  0  0  0  0  0  0  0  0  0  0
   -3.7811   16.5983  -35.6275 H   0  0  0  0  0  0  0  0  0  0  0  0
   -5.1944   20.8986  -30.7667 H   0  0  0  0  0  0  0  0  0  0  0  0
   -3.5285   25.0938  -27.0079 H   0  0  0  0  0  0  0  0  0  0  0  0
  1  2  1  0
  2  3  2  0
  3  4  1  0
  4  5  2  0
  5  6  1  0
  6  7  1  0
  7  8  2  0
  7  9  1  0
  9 10  1  0
 10 11  2  0
 11 12  1  0
 12 13  2  0
 13 14  1  0
 14 15  1  0
 15 16  2  0
 15 17  2  0
 15 18  1  0
 18 19  2  0
 19 20  1  0
 20 21  2  0
 21 22  1  0
 22 23  1  0
 23 24  2  0
 14 25  2  0
  6 26  2  0
 26  2  1  0
 25 10  1  0
 24 19  1  0
  1 27  1  0
  1 28  1  0
  1 29  1  0
  3 30  1  0
  5 31  1  0
  9 32  1  0
 11 33  1  0
 12 34  1  0
 13 35  1  0
 20 36  1  0
 21 37  1  0
 22 38  1  0
 23 39  1  0
 25 40  1  0
 26 41  1  0
M  END
>  <smiles>  (18) 
Cc1cncc(C(=O)Nc2cccc(S(=O)(=O)N=c3cc[nH]cn3)c2)c1

>  <score_type>  (18) 
oracle

>  <origin>  (18) 
adgpu

>  <m_score__min__energy>  (18) 
-8.9900000000000002

>  <m_primary>  (18) 
energy

$$$$
18:0
     RDKit          3D

 53 56  0  0  0  0  0  0  0  0999 V2000
   -4.1700   24.0010  -27.1130 C   0  0  0  0  0  0  0  0  0  0  0  0
   -3.2040   23.1350  -27.8710 C   0  0  0  0  0  0  0  0  0  0  0  0
   -2.8010   21.9110  -27.3390 C   0  0  0  0  0  0  0  0  0  0  0  0
   -1.9280   21.0760  -28.0540 C   0  0  0  0  0  0  0  0  0  0  0  0
   -1.5330   19.7640  -27.4160 C   0  0  0  0  0  0  0  0  0  0  0  0
   -1.4530   21.4670  -29.2910 N   0  0  0  0  0  0  0  0  0  0  0  0
   -0.5250   20.6020  -30.0590 C   0  0  0  0  0  0  0  0  0  0  0  0
   -0.9810   20.4400  -31.4900 C   0  0  0  0  0  0  0  0  0  0  0  0
   -0.2340   20.9990  -32.5410 C   0  0  0  0  0  0  0  0  0  0  0  0
   -0.6560   20.8560  -33.8660 C   0  0  0  0  0  0  0  0  0  0  0  0
   -1.8220   20.1410  -34.1540 C   0  0  0  0  0  0  0  0  0  0  0  0
   -2.5570   19.5510  -33.1200 C   0  0  0  0  0  0  0  0  0  0  0  0
   -2.1350   19.6920  -31.7920 C   0  0  0  0  0  0  0  0  0  0  0  0
   -1.8590   22.6690  -29.8310 C   0  0  0  0  0  0  0  0  0  0  0  0
   -1.4180   23.0490  -30.9520 O   0  0  0  0  0  0  0  0  0  0  0  0
   -2.7550   23.5050  -29.1440 C   0  0  0  0  0  0  0  0  0  0  0  0
   -3.2160   24.7230  -29.7370 N   0  0  0  0  0  0  0  0  0  0  0  0
   -4.8580   24.8990  -30.2540 S   0  0  0  0  0  0  0  0  0  0  0  0
   -5.7280   25.1790  -29.0590 O   0  0  0  0  0  0  0  0  0  0  0  0
   -4.9770   26.0470  -31.2160 O   0  0  0  0  0  0  0  0  0  0  0  0
   -5.3820   23.3980  -31.0130 C   0  0  0  0  0  0  0  0  0  0  0  0
   -4.4930   22.6630  -31.8020 C   0  0  0  0  0  0  0  0  0  0  0  0
   -4.8680   21.4180  -32.3120 C   0  0  0  0  0  0  0  0  0  0  0  0
   -6.1450   20.8980  -32.0470 C   0  0  0  0  0  0  0  0  0  0  0  0
   -7.0540   21.6500  -31.2720 C   0  0  0  0  0  0  0  0  0  0  0  0
   -6.6560   22.8870  -30.7450 C   0  0  0  0  0  0  0  0  0  0  0  0
   -8.3980   21.0720  -30.8920 C   0  0  0  0  0  0  0  0  0  0  0  0
   -8.9780   20.1760  -31.9990 C   0  0  0  0  0  0  0  0  0  0  0  0
   -7.9660   19.1770  -32.4680 C   0  0  0  0  0  0  0  0  0  0  0  0
   -8.3310   18.0280  -32.8320 O   0  0  0  0  0  0  0  0  0  0  0  0
   -6.5550   19.5800  -32.5730 C   0  0  0  0  0  0  0  0  0  0  0  0
   -5.7150   18.8080  -33.1050 O   0  0  0  0  0  0  0  0  0  0  0  0
   -4.0162   23.8631  -26.0326 H   0  0  0  0  0  0  0  0  0  0  0  0
   -4.0010   25.0557  -27.3758 H   0  0  0  0  0  0  0  0  0  0  0  0
   -5.2000   23.7182  -27.3758 H   0  0  0  0  0  0  0  0  0  0  0  0
   -3.1699   21.5971  -26.3514 H   0  0  0  0  0  0  0  0  0  0  0  0
   -1.5634   19.8649  -26.3211 H   0  0  0  0  0  0  0  0  0  0  0  0
   -2.2341   18.9772  -27.7313 H   0  0  0  0  0  0  0  0  0  0  0  0
   -0.5141   19.4950  -27.7313 H   0  0  0  0  0  0  0  0  0  0  0  0
    0.4768   21.0563  -30.0517 H   0  0  0  0  0  0  0  0  0  0  0  0
   -0.5061   19.6087  -29.5867 H   0  0  0  0  0  0  0  0  0  0  0  0
    0.6899   21.5533  -32.3193 H   0  0  0  0  0  0  0  0  0  0  0  0
   -0.0708   21.3059  -34.6815 H   0  0  0  0  0  0  0  0  0  0  0  0
   -2.1623   20.0420  -35.1953 H   0  0  0  0  0  0  0  0  0  0  0  0
   -3.4663   18.9764  -33.3501 H   0  0  0  0  0  0  0  0  0  0  0  0
   -2.7073   19.2165  -30.9818 H   0  0  0  0  0  0  0  0  0  0  0  0
   -3.4937   23.0667  -32.0223 H   0  0  0  0  0  0  0  0  0  0  0  0
   -4.1590   20.8417  -32.9246 H   0  0  0  0  0  0  0  0  0  0  0  0
   -7.3520   23.4606  -30.1152 H   0  0  0  0  0  0  0  0  0  0  0  0
   -8.2803   20.4733  -29.9767 H   0  0  0  0  0  0  0  0  0  0  0  0
   -9.0940   21.9093  -30.7354 H   0  0  0  0  0  0  0  0  0  0  0  0
   -9.8554   19.6415  -31.6060 H   0  0  0  0  0  0  0  0  0  0  0  0
   -9.2626   20.8117  -32.8504 H   0  0  0  0  0  0  0  0  0  0  0  0
  1  2  1  0
  2  3  1  0
  3  4  2  0
  4  5  1  0
  4  6  1  0
  6  7  1  0
  7  8  1  0
  8  9  2  0
  9 10  1  0
 10 11  2  0
 11 12  1  0
 12 13  2  0
  6 14  1  0
 14 15  2  0
 14 16  1  0
 16 17  1  0
 17 18  1  0
 18 19  2  0
 18 20  2  0
 18 21  1  0
 21 22  2  0
 22 23  1  0
 23 24  2  0
 24 25  1  0
 25 26  2  0
 25 27  1  0
 27 28  1  0
 28 29  1  0
 29 30  2  0
 29 31  1  0
 31 32  2  0
 16  2  2  0
 26 21  1  0
 13  8  1  0
 31 24  1  0
  1 33  1  0
  1 34  1  0
  1 35  1  0
  3 36  1  0
  5 37  1  0
  5 38  1  0
  5 39  1  0
  7 40  1  0
  7 41  1  0
  9 42  1  0
 10 43  1  0
 11 44  1  0
 12 45  1  0
 13 46  1  0
 22 47  1  0
 23 48  1  0
 26 49  1  0
 27 50  1  0
 27 51  1  0
 28 52  1  0
 28 53  1  0
M  CHG  1  17  -1
M  END
>  <UniqueID>  (19) 
18

>  <SMILES>  (19) 
Cc1cc(C)n(Cc2ccccc2)c(=O)c1[N-]S(=O)(=O)c1ccc2c(c1)CCC(=O)C2=O

>  <Energy>  (19) 
69.78667742181132

>  <Genealogy>  (19) 
Cc1cc(C)n(Cc2ccccc2)c(=O)c1[N-]S(=O)(=O)c1ccc2c(c1)CCC(=O)C2=O (protonated)
Cc1cc(C)n(Cc2ccccc2)c(=O)c1[N-]S(=O)(=O)c1ccc2c(c1)CCC(=O)C2=O (3D coordinates assigned)
Cc1cc(C)n(Cc2ccccc2)c(=O)c1[N-]S(=O)(=O)c1ccc2c(c1)CCC(=O)C2=O (nonaromatic ring conformer: 69.78667742181132 kcal/mol)

>  <smiles>  (19) 
Cc1cc(C)n(Cc2ccccc2)c(=O)c1NS(=O)(=O)c1ccc2c(c1)CCC(=O)C2=O

>  <score_type>  (19) 
oracle

>  <origin>  (19) 
adgpu

>  <m_score__min__energy>  (19) 
-12.67

>  <m_primary>  (19) 
energy

$$$$
19:0
     RDKit          3D

 43 45  0  0  0  0  0  0  0  0999 V2000
   -8.6730   23.1420  -31.7120 O   0  0  0  0  0  0  0  0  0  0  0  0
   -7.5090   22.2040  -31.5670 S   0  0  0  0  0  0  0  0  0  0  0  0
   -7.8520   21.1630  -30.5390 O   0  0  0  0  0  0  0  0  0  0  0  0
   -7.2030   21.4420  -33.1030 N   0  0  0  0  0  0  0  0  0  0  0  0
   -5.9090   20.7560  -33.1220 C   0  0  0  0  0  0  0  0  0  0  0  0
   -6.0810   19.2740  -33.3730 C   0  0  0  0  0  0  0  0  0  0  0  0
   -5.1240   18.6340  -34.1840 C   0  0  0  0  0  0  0  0  0  0  0  0
   -5.2130   17.2670  -34.4510 C   0  0  0  0  0  0  0  0  0  0  0  0
   -6.2520   16.5150  -33.9060 C   0  0  0  0  0  0  0  0  0  0  0  0
   -7.2100   17.1300  -33.0980 C   0  0  0  0  0  0  0  0  0  0  0  0
   -7.1390   18.5010  -32.8220 C   0  0  0  0  0  0  0  0  0  0  0  0
   -8.1270   19.0390  -31.9930 O   0  0  0  0  0  0  0  0  0  0  0  0
   -6.1010   23.1340  -31.0590 C   0  0  0  0  0  0  0  0  0  0  0  0
   -6.2050   24.5050  -30.7940 C   0  0  0  0  0  0  0  0  0  0  0  0
   -5.0920   25.2180  -30.3460 C   0  0  0  0  0  0  0  0  0  0  0  0
   -3.8640   24.5720  -30.1690 C   0  0  0  0  0  0  0  0  0  0  0  0
   -2.7730   25.2980  -29.7070 O   0  0  0  0  0  0  0  0  0  0  0  0
   -3.7430   23.2000  -30.4550 C   0  0  0  0  0  0  0  0  0  0  0  0
   -2.1960   22.3770  -30.2390 S   0  0  0  0  0  0  0  0  0  0  0  0
   -1.1420   23.3760  -29.8520 O   0  0  0  0  0  0  0  0  0  0  0  0
   -2.3260   21.3590  -29.1410 O   0  0  0  0  0  0  0  0  0  0  0  0
   -1.6850   21.5840  -31.7280 C   0  0  0  0  0  0  0  0  0  0  0  0
   -2.6420   21.2030  -32.6790 C   0  0  0  0  0  0  0  0  0  0  0  0
   -2.2490   20.5430  -33.8470 C   0  0  0  0  0  0  0  0  0  0  0  0
   -0.8990   20.2570  -34.0690 C   0  0  0  0  0  0  0  0  0  0  0  0
    0.0590   20.6310  -33.1230 C   0  0  0  0  0  0  0  0  0  0  0  0
   -0.3310   21.2920  -31.9540 C   0  0  0  0  0  0  0  0  0  0  0  0
   -4.8690   22.4880  -30.8970 C   0  0  0  0  0  0  0  0  0  0  0  0
   -5.2865   21.1856  -33.9207 H   0  0  0  0  0  0  0  0  0  0  0  0
   -5.4282   20.8905  -32.1418 H   0  0  0  0  0  0  0  0  0  0  0  0
   -4.2964   19.2185  -34.6122 H   0  0  0  0  0  0  0  0  0  0  0  0
   -4.4621   16.7826  -35.0924 H   0  0  0  0  0  0  0  0  0  0  0  0
   -6.3173   15.4365  -34.1125 H   0  0  0  0  0  0  0  0  0  0  0  0
   -8.0294   16.5312  -32.6736 H   0  0  0  0  0  0  0  0  0  0  0  0
   -8.2690   20.0250  -31.8390 H   0  0  0  0  0  0  0  0  0  0  0  0
   -7.1656   25.0210  -30.9392 H   0  0  0  0  0  0  0  0  0  0  0  0
   -5.1809   26.2931  -30.1311 H   0  0  0  0  0  0  0  0  0  0  0  0
   -3.7055   21.4241  -32.5056 H   0  0  0  0  0  0  0  0  0  0  0  0
   -3.0029   20.2485  -34.5920 H   0  0  0  0  0  0  0  0  0  0  0  0
   -0.5907   19.7376  -34.9883 H   0  0  0  0  0  0  0  0  0  0  0  0
    1.1212   20.4052  -33.2981 H   0  0  0  0  0  0  0  0  0  0  0  0
    0.4250   21.5837  -31.2101 H   0  0  0  0  0  0  0  0  0  0  0  0
   -4.7831   21.4139  -31.1179 H   0  0  0  0  0  0  0  0  0  0  0  0
  1  2  2  0
  2  3  2  0
  2  4  1  0
  4  5  1  0
  5  6  1  0
  6  7  2  0
  7  8  1  0
  8  9  2  0
  9 10  1  0
 10 11  2  0
 11 12  1  0
  2 13  1  0
 13 14  2  0
 14 15  1  0
 15 16  2  0
 16 17  1  0
 16 18  1  0
 18 19  1  0
 19 20  2  0
 19 21  2  0
 19 22  1  0
 22 23  2  0
 23 24  1  0
 24 25  2  0
 25 26  1  0
 26 27  2  0
 18 28  2  0
 11  6  1  0
 28 13  1  0
 27 22  1  0
  5 29  1  0
  5 30  1  0
  7 31  1  0
  8 32  1  0
  9 33  1  0
 10 34  1  0
 12 35  1  0
 14 36  1  0
 15 37  1  0
 23 38  1  0
 24 39  1  0
 25 40  1  0
 26 41  1  0
 27 42  1  0
 28 43  1  0
M  CHG  2   4  -1  17  -1
M  END
>  <UniqueID>  (20) 
19

>  <SMILES>  (20) 
O=S(=O)([N-]Cc1ccccc1O)c1ccc([O-])c(S(=O)(=O)c2ccccc2)c1

>  <Energy>  (20) 
45.56645906133966

>  <Genealogy>  (20) 
O=S(=O)([N-]Cc1ccccc1O)c1ccc([O-])c(S(=O)(=O)c2ccccc2)c1 (protonated)
O=S(=O)([N-]Cc1ccccc1O)c1ccc([O-])c(S(=O)(=O)c2ccccc2)c1 (3D coordinates assigned)
O=S(=O)([N-]Cc1ccccc1O)c1ccc([O-])c(S(=O)(=O)c2ccccc2)c1 (optimized conformer: 45.56645906133966 kcal/mol)

>  <smiles>  (20) 
O=S(=O)(NCc1ccccc1O)c1ccc(O)c(S(=O)(=O)c2ccccc2)c1

>  <score_type>  (20) 
oracle

>  <origin>  (20) 
adgpu

>  <m_score__min__energy>  (20) 
-12.300000000000001

>  <m_primary>  (20) 
energy

$$$$
20:0
     RDKit          3D

 41 43  0  0  0  0  0  0  0  0999 V2000
   -1.5340   25.8770  -28.9600 N   0  0  0  0  0  0  0  0  0  0  0  0
   -1.1330   24.2410  -28.5740 S   0  0  0  0  0  0  0  0  0  0  0  0
   -1.4100   24.0050  -27.1160 O   0  0  0  0  0  0  0  0  0  0  0  0
    0.3220   23.9960  -28.8540 O   0  0  0  0  0  0  0  0  0  0  0  0
   -2.1070   23.1460  -29.5360 C   0  0  0  0  0  0  0  0  0  0  0  0
   -3.4230   22.7900  -29.2710 C   0  0  0  0  0  0  0  0  0  0  0  0
   -3.9400   21.8780  -30.1980 C   0  0  0  0  0  0  0  0  0  0  0  0
   -3.0220   21.5240  -31.1780 C   0  0  0  0  0  0  0  0  0  0  0  0
   -3.3000   20.3810  -32.4800 S   0  0  0  0  0  0  0  0  0  0  0  0
   -3.4730   21.1190  -33.7790 O   0  0  0  0  0  0  0  0  0  0  0  0
   -2.1010   19.4820  -32.5910 O   0  0  0  0  0  0  0  0  0  0  0  0
   -4.7140   19.4140  -32.1300 N   0  0  0  0  0  0  0  0  0  0  0  0
   -5.0480   18.4960  -33.2130 C   0  0  0  0  0  0  0  0  0  0  0  0
   -6.4820   18.0490  -32.9640 C   0  0  0  0  0  0  0  0  0  0  0  0
   -7.0760   19.0910  -32.0050 C   0  0  2  0  0  0  0  0  0  0  0  0
   -8.4120   19.6890  -32.5250 C   0  0  1  0  0  0  0  0  0  0  0  0
   -9.4790   18.8030  -32.2860 O   0  0  0  0  0  0  0  0  0  0  0  0
   -8.6700   21.0640  -31.8730 C   0  0  2  0  0  0  0  0  0  0  0  0
   -9.9440   21.5550  -32.2090 O   0  0  0  0  0  0  0  0  0  0  0  0
   -7.5670   22.0840  -32.2690 C   0  0  1  0  0  0  0  0  0  0  0  0
   -7.4110   23.0510  -31.2580 O   0  0  0  0  0  0  0  0  0  0  0  0
   -6.2100   21.4200  -32.6160 C   0  0  0  0  0  0  0  0  0  0  0  0
   -5.9540   20.1300  -31.7870 C   0  0  2  0  0  0  0  0  0  0  0  0
   -1.5730   22.3330  -30.9080 S   0  0  0  0  0  0  0  0  0  0  0  0
   -1.2380   26.0390  -29.9500 H   0  0  0  0  0  0  0  0  0  0  0  0
   -3.9991   23.1840  -28.4208 H   0  0  0  0  0  0  0  0  0  0  0  0
   -4.9657   21.4830  -30.1549 H   0  0  0  0  0  0  0  0  0  0  0  0
   -4.9712   19.0075  -34.1838 H   0  0  0  0  0  0  0  0  0  0  0  0
   -4.3595   17.6385  -33.2382 H   0  0  0  0  0  0  0  0  0  0  0  0
   -7.0475   18.0283  -33.9073 H   0  0  0  0  0  0  0  0  0  0  0  0
   -6.5256   17.0342  -32.5418 H   0  0  0  0  0  0  0  0  0  0  0  0
   -7.3733   18.6457  -31.0441 H   0  0  0  0  0  0  0  0  0  0  0  0
   -8.3354   19.8341  -33.6127 H   0  0  0  0  0  0  0  0  0  0  0  0
  -10.2680   19.3460  -32.0220 H   0  0  0  0  0  0  0  0  0  0  0  0
   -8.6355   20.9272  -30.7821 H   0  0  0  0  0  0  0  0  0  0  0  0
  -10.4880   20.7880  -32.5290 H   0  0  0  0  0  0  0  0  0  0  0  0
   -7.9077   22.5746  -33.1927 H   0  0  0  0  0  0  0  0  0  0  0  0
   -8.3120   23.2540  -30.8960 H   0  0  0  0  0  0  0  0  0  0  0  0
   -6.2068   21.1599  -33.6848 H   0  0  0  0  0  0  0  0  0  0  0  0
   -5.4128   22.1384  -32.3744 H   0  0  0  0  0  0  0  0  0  0  0  0
   -5.8984   20.5046  -30.7543 H   0  0  0  0  0  0  0  0  0  0  0  0
  1  2  1  0
  2  3  2  0
  2  4  2  0
  2  5  1  0
  5  6  2  0
  6  7  1  0
  7  8  2  0
  8  9  1  0
  9 10  2  0
  9 11  2  0
  9 12  1  0
 12 13  1  0
 13 14  1  0
 14 15  1  0
 15 16  1  0
 16 17  1  0
 16 18  1  0
 18 19  1  0
 18 20  1  0
 20 21  1  0
 20 22  1  0
 22 23  1  0
  8 24  1  0
 24  5  1  0
 23 12  1  0
 23 15  1  0
  1 25  1  0
  6 26  1  0
  7 27  1  0
 13 28  1  0
 13 29  1  0
 14 30  1  0
 14 31  1  0
 15 32  1  1
 16 33  1  6
 17 34  1  0
 18 35  1  1
 19 36  1  0
 20 37  1  6
 21 38  1  0
 22 39  1  0
 22 40  1  0
 23 41  1  1
M  CHG  1   1  -1
M  END
>  <UniqueID>  (21) 
20

>  <SMILES>  (21) 
[NH-]S(=O)(=O)c1ccc(S(=O)(=O)N2CC[C@H]3C2CC(O)C(O)[C@@H]3O)s1

>  <Energy>  (21) 
81.4999079725394

>  <Genealogy>  (21) 
[NH-]S(=O)(=O)c1ccc(S(=O)(=O)N2CCC3C(O)C(O)C(O)CC32)s1 (protonated)
[NH-]S(=O)(=O)c1ccc(S(=O)(=O)N2CC[C@H]3C2CC(O)C(O)[C@@H]3O)s1 (chirality)
[NH-]S(=O)(=O)c1ccc(S(=O)(=O)N2CC[C@H]3C2CC(O)C(O)[C@@H]3O)s1 (3D coordinates assigned)
[NH-]S(=O)(=O)c1ccc(S(=O)(=O)N2CC[C@H]3C2CC(O)C(O)[C@@H]3O)s1 (nonaromatic ring conformer: 81.4999079725394 kcal/mol)

>  <smiles>  (21) 
NS(=O)(=O)c1ccc(S(=O)(=O)N2CCC3C(O)C(O)C(O)CC32)s1

>  <score_type>  (21) 
oracle

>  <origin>  (21) 
adgpu

>  <m_score__min__energy>  (21) 
-11.01

>  <m_primary>  (21) 
energy

$$$$
21:0
     RDKit          3D

 58 61  0  0  0  0  0  0  0  0999 V2000
   -8.3770   19.2080  -31.9850 C   0  0  0  0  0  0  0  0  0  0  0  0
   -7.1700   18.5330  -32.5710 C   0  0  0  0  0  0  0  0  0  0  0  0
   -7.2410   17.2020  -32.9940 C   0  0  0  0  0  0  0  0  0  0  0  0
   -6.1290   16.5910  -33.5670 C   0  0  0  0  0  0  0  0  0  0  0  0
   -4.9390   17.3040  -33.7320 C   0  0  0  0  0  0  0  0  0  0  0  0
   -4.8340   18.6570  -33.3270 C   0  0  0  0  0  0  0  0  0  0  0  0
   -3.5920   19.4100  -33.5090 N   0  0  0  0  0  0  0  0  0  0  0  0
   -3.5730   20.8460  -33.1550 C   0  0  0  0  0  0  0  0  0  0  0  0
   -2.2580   21.5660  -33.4710 C   0  0  0  0  0  0  0  0  0  0  0  0
   -1.0750   20.7310  -33.2320 N   0  0  0  0  0  0  0  0  0  0  0  0
   -0.8340   20.3360  -31.5410 S   0  0  0  0  0  0  0  0  0  0  0  0
    0.6120   19.9970  -31.3080 O   0  0  0  0  0  0  0  0  0  0  0  0
   -1.6690   19.1560  -31.1310 O   0  0  0  0  0  0  0  0  0  0  0  0
   -1.2480   21.7300  -30.5480 C   0  0  0  0  0  0  0  0  0  0  0  0
   -0.3670   22.1950  -29.5600 C   0  0  0  0  0  0  0  0  0  0  0  0
   -0.7340   23.2710  -28.7470 C   0  0  0  0  0  0  0  0  0  0  0  0
   -1.9820   23.8770  -28.9050 C   0  0  0  0  0  0  0  0  0  0  0  0
   -2.8740   23.4100  -29.8800 C   0  0  0  0  0  0  0  0  0  0  0  0
   -4.4660   24.1540  -30.0640 S   0  0  0  0  0  0  0  0  0  0  0  0
   -4.3220   25.4250  -30.8560 O   0  0  0  0  0  0  0  0  0  0  0  0
   -5.0010   24.5100  -28.7060 O   0  0  0  0  0  0  0  0  0  0  0  0
   -5.6130   23.1080  -30.8680 N   0  0  0  0  0  0  0  0  0  0  0  0
   -6.7710   22.8160  -30.0280 C   0  0  0  0  0  0  0  0  0  0  0  0
   -7.8990   22.4500  -30.9760 C   0  0  0  0  0  0  0  0  0  0  0  0
   -7.5310   23.1010  -32.3010 C   0  0  0  0  0  0  0  0  0  0  0  0
   -6.1530   23.7140  -32.0840 C   0  0  0  0  0  0  0  0  0  0  0  0
   -2.4950   22.3450  -30.7100 C   0  0  0  0  0  0  0  0  0  0  0  0
   -1.1110   19.5450  -34.0940 C   0  0  0  0  0  0  0  0  0  0  0  0
   -2.3680   18.6800  -33.9050 C   0  0  0  0  0  0  0  0  0  0  0  0
   -5.9800   19.2560  -32.7500 C   0  0  0  0  0  0  0  0  0  0  0  0
   -8.3185   19.1753  -30.8870 H   0  0  0  0  0  0  0  0  0  0  0  0
   -8.4099   20.2554  -32.3194 H   0  0  0  0  0  0  0  0  0  0  0  0
   -9.2866   18.6876  -32.3194 H   0  0  0  0  0  0  0  0  0  0  0  0
   -8.1770   16.6368  -32.8738 H   0  0  0  0  0  0  0  0  0  0  0  0
   -6.1877   15.5416  -33.8915 H   0  0  0  0  0  0  0  0  0  0  0  0
   -4.0687   16.8060  -34.1842 H   0  0  0  0  0  0  0  0  0  0  0  0
   -4.3798   21.3465  -33.7105 H   0  0  0  0  0  0  0  0  0  0  0  0
   -3.7016   20.8987  -32.0638 H   0  0  0  0  0  0  0  0  0  0  0  0
   -2.2678   21.8652  -34.5295 H   0  0  0  0  0  0  0  0  0  0  0  0
   -2.1888   22.4344  -32.7994 H   0  0  0  0  0  0  0  0  0  0  0  0
   -0.2400   21.2950  -33.5190 H   0  0  0  0  0  0  0  0  0  0  0  0
    0.6124   21.7128  -29.4253 H   0  0  0  0  0  0  0  0  0  0  0  0
   -0.0376   23.6416  -27.9804 H   0  0  0  0  0  0  0  0  0  0  0  0
   -2.2659   24.7234  -28.2624 H   0  0  0  0  0  0  0  0  0  0  0  0
   -6.5511   21.9750  -29.3540 H   0  0  0  0  0  0  0  0  0  0  0  0
   -7.0387   23.6783  -29.3997 H   0  0  0  0  0  0  0  0  0  0  0  0
   -7.9696   21.3581  -31.0888 H   0  0  0  0  0  0  0  0  0  0  0  0
   -8.8761   22.7936  -30.6056 H   0  0  0  0  0  0  0  0  0  0  0  0
   -7.4952   22.3483  -33.1024 H   0  0  0  0  0  0  0  0  0  0  0  0
   -8.2708   23.8565  -32.6041 H   0  0  0  0  0  0  0  0  0  0  0  0
   -5.4998   23.4924  -32.9409 H   0  0  0  0  0  0  0  0  0  0  0  0
   -6.2162   24.8080  -31.9877 H   0  0  0  0  0  0  0  0  0  0  0  0
   -3.1817   21.9908  -31.4929 H   0  0  0  0  0  0  0  0  0  0  0  0
   -1.0722   19.8765  -35.1422 H   0  0  0  0  0  0  0  0  0  0  0  0
   -0.2478   18.9214  -33.8181 H   0  0  0  0  0  0  0  0  0  0  0  0
   -2.5725   18.1675  -34.8566 H   0  0  0  0  0  0  0  0  0  0  0  0
   -2.1416   17.9977  -33.0724 H   0  0  0  0  0  0  0  0  0  0  0  0
   -5.9370   20.3092  -32.4356 H   0  0  0  0  0  0  0  0  0  0  0  0
  1  2  1  0
  2  3  2  0
  3  4  1  0
  4  5  2  0
  5  6  1  0
  6  7  1  0
  7  8  1  0
  8  9  1  0
  9 10  1  0
 10 11  1  0
 11 12  2  0
 11 13  2  0
 11 14  1  0
 14 15  2  0
 15 16  1  0
 16 17  2  0
 17 18  1  0
 18 19  1  0
 19 20  2  0
 19 21  2  0
 19 22  1  0
 22 23  1  0
 23 24  1  0
 24 25  1  0
 25 26  1  0
 18 27  2  0
 10 28  1  0
 28 29  1  0
  6 30  2  0
 30  2  1  0
 29  7  1  0
 27 14  1  0
 26 22  1  0
  1 31  1  0
  1 32  1  0
  1 33  1  0
  3 34  1  0
  4 35  1  0
  5 36  1  0
  8 37  1  0
  8 38  1  0
  9 39  1  0
  9 40  1  0
 10 41  1  0
 15 42  1  0
 16 43  1  0
 17 44  1  0
 23 45  1  0
 23 46  1  0
 24 47  1  0
 24 48  1  0
 25 49  1  0
 25 50  1  0
 26 51  1  0
 26 52  1  0
 27 53  1  0
 28 54  1  0
 28 55  1  0
 29 56  1  0
 29 57  1  0
 30 58  1  0
M  CHG  1  10   1
M  END
>  <UniqueID>  (22) 
21

>  <SMILES>  (22) 
Cc1cccc(N2CC[NH+](S(=O)(=O)c3cccc(S(=O)(=O)N4CCCC4)c3)CC2)c1

>  <Energy>  (22) 
69.55573871252133

>  <Genealogy>  (22) 
Cc1cccc(N2CC[NH+](S(=O)(=O)c3cccc(S(=O)(=O)N4CCCC4)c3)CC2)c1 (protonated)
Cc1cccc(N2CC[NH+](S(=O)(=O)c3cccc(S(=O)(=O)N4CCCC4)c3)CC2)c1 (3D coordinates assigned)
Cc1cccc(N2CC[NH+](S(=O)(=O)c3cccc(S(=O)(=O)N4CCCC4)c3)CC2)c1 (nonaromatic ring conformer: 69.55573871252133 kcal/mol)

>  <smiles>  (22) 
Cc1cccc(N2CCN(S(=O)(=O)c3cccc(S(=O)(=O)N4CCCC4)c3)CC2)c1

>  <score_type>  (22) 
oracle

>  <origin>  (22) 
adgpu

>  <m_score__min__energy>  (22) 
-9.75

>  <m_primary>  (22) 
energy

$$$$
22:0
     RDKit          3D

 51 53  0  0  0  0  0  0  0  0999 V2000
   -0.3750   17.8430  -32.9910 C   0  0  0  0  0  0  0  0  0  0  0  0
   -0.6540   19.1560  -32.3220 C   0  0  0  0  0  0  0  0  0  0  0  0
   -0.5070   19.2960  -30.9350 C   0  0  0  0  0  0  0  0  0  0  0  0
   -0.8030   20.5130  -30.3130 C   0  0  0  0  0  0  0  0  0  0  0  0
   -1.2750   21.5990  -31.0630 C   0  0  0  0  0  0  0  0  0  0  0  0
   -1.5400   22.8500  -30.4050 N   0  0  0  0  0  0  0  0  0  0  0  0
   -2.6100   23.0570  -29.4690 C   0  0  0  0  0  0  0  0  0  0  0  0
   -3.2180   22.0730  -28.9640 O   0  0  0  0  0  0  0  0  0  0  0  0
   -2.9820   24.4550  -29.0780 C   0  0  0  0  0  0  0  0  0  0  0  0
   -3.5080   25.1930  -30.2230 N   0  0  0  0  0  0  0  0  0  0  0  0
   -4.9000   25.3090  -30.5430 C   0  0  0  0  0  0  0  0  0  0  0  0
   -5.4450   26.4420  -30.4780 O   0  0  0  0  0  0  0  0  0  0  0  0
   -5.7070   24.1460  -30.9580 C   0  0  0  0  0  0  0  0  0  0  0  0
   -7.1000   24.1480  -30.7900 C   0  0  0  0  0  0  0  0  0  0  0  0
   -7.8610   23.0550  -31.2140 C   0  0  0  0  0  0  0  0  0  0  0  0
   -7.2400   21.9590  -31.8150 C   0  0  0  0  0  0  0  0  0  0  0  0
   -5.8530   21.9510  -32.0010 C   0  0  0  0  0  0  0  0  0  0  0  0
   -5.0840   20.5780  -32.7930 S   0  0  0  0  0  0  0  0  0  0  0  0
   -4.0530   21.0680  -33.7720 O   0  0  0  0  0  0  0  0  0  0  0  0
   -4.3930   19.7500  -31.7450 O   0  0  0  0  0  0  0  0  0  0  0  0
   -6.3060   19.6220  -33.6060 N   0  0  0  0  0  0  0  0  0  0  0  0
   -7.2010   18.9530  -32.6470 C   0  0  0  0  0  0  0  0  0  0  0  0
   -6.5290   17.7400  -31.9600 C   0  0  0  0  0  0  0  0  0  0  0  0
   -5.3630   17.2870  -32.6260 O   0  0  0  0  0  0  0  0  0  0  0  0
   -5.5820   17.2480  -34.0170 C   0  0  0  0  0  0  0  0  0  0  0  0
   -5.7140   18.6760  -34.5780 C   0  0  0  0  0  0  0  0  0  0  0  0
   -5.0900   23.0510  -31.5810 C   0  0  0  0  0  0  0  0  0  0  0  0
   -1.4180   21.4580  -32.4550 C   0  0  0  0  0  0  0  0  0  0  0  0
   -1.1220   20.2420  -33.0760 C   0  0  0  0  0  0  0  0  0  0  0  0
   -0.2106   17.0695  -32.2264 H   0  0  0  0  0  0  0  0  0  0  0  0
   -1.2334   17.5616  -33.6187 H   0  0  0  0  0  0  0  0  0  0  0  0
    0.5237   17.9349  -33.6187 H   0  0  0  0  0  0  0  0  0  0  0  0
   -0.1571   18.4445  -30.3330 H   0  0  0  0  0  0  0  0  0  0  0  0
   -0.6644   20.6188  -29.2269 H   0  0  0  0  0  0  0  0  0  0  0  0
   -0.8820   23.6440  -30.5750 H   0  0  0  0  0  0  0  0  0  0  0  0
   -3.7492   24.4168  -28.2906 H   0  0  0  0  0  0  0  0  0  0  0  0
   -2.0813   24.9693  -28.7116 H   0  0  0  0  0  0  0  0  0  0  0  0
   -7.5947   25.0125  -30.3231 H   0  0  0  0  0  0  0  0  0  0  0  0
   -8.9520   23.0586  -31.0737 H   0  0  0  0  0  0  0  0  0  0  0  0
   -7.8424   21.0992  -32.1433 H   0  0  0  0  0  0  0  0  0  0  0  0
   -7.4959   19.6780  -31.8741 H   0  0  0  0  0  0  0  0  0  0  0  0
   -8.0731   18.5816  -33.2051 H   0  0  0  0  0  0  0  0  0  0  0  0
   -6.2543   18.0288  -30.9348 H   0  0  0  0  0  0  0  0  0  0  0  0
   -7.2548   16.9137  -31.9806 H   0  0  0  0  0  0  0  0  0  0  0  0
   -4.7341   16.7439  -34.5038 H   0  0  0  0  0  0  0  0  0  0  0  0
   -6.5132   16.6977  -34.2171 H   0  0  0  0  0  0  0  0  0  0  0  0
   -4.7132   19.0382  -34.8560 H   0  0  0  0  0  0  0  0  0  0  0  0
   -6.3872   18.6294  -35.4467 H   0  0  0  0  0  0  0  0  0  0  0  0
   -4.0017   23.0548  -31.7412 H   0  0  0  0  0  0  0  0  0  0  0  0
   -1.7649   22.3100  -33.0582 H   0  0  0  0  0  0  0  0  0  0  0  0
   -1.2568   20.1358  -34.1625 H   0  0  0  0  0  0  0  0  0  0  0  0
  1  2  1  0
  2  3  2  0
  3  4  1  0
  4  5  2  0
  5  6  1  0
  6  7  1  0
  7  8  2  0
  7  9  1  0
  9 10  1  0
 10 11  1  0
 11 12  2  0
 11 13  1  0
 13 14  2  0
 14 15  1  0
 15 16  2  0
 16 17  1  0
 17 18  1  0
 18 19  2  0
 18 20  2  0
 18 21  1  0
 21 22  1  0
 22 23  1  0
 23 24  1  0
 24 25  1  0
 25 26  1  0
 17 27  2  0
  5 28  1  0
 28 29  2  0
 29  2  1  0
 27 13  1  0
 26 21  1  0
  1 30  1  0
  1 31  1  0
  1 32  1  0
  3 33  1  0
  4 34  1  0
  6 35  1  0
  9 36  1  0
  9 37  1  0
 14 38  1  0
 15 39  1  0
 16 40  1  0
 22 41  1  0
 22 42  1  0
 23 43  1  0
 23 44  1  0
 25 45  1  0
 25 46  1  0
 26 47  1  0
 26 48  1  0
 27 49  1  0
 28 50  1  0
 29 51  1  0
M  CHG  1  10  -1
M  END
>  <UniqueID>  (23) 
22

>  <SMILES>  (23) 
Cc1ccc(NC(=O)C[N-]C(=O)c2cccc(S(=O)(=O)N3CCOCC3)c2)cc1

>  <Energy>  (23) 
69.34477957125496

>  <Genealogy>  (23) 
Cc1ccc(NC(=O)C[N-]C(=O)c2cccc(S(=O)(=O)N3CCOCC3)c2)cc1 (protonated)
Cc1ccc(NC(=O)C[N-]C(=O)c2cccc(S(=O)(=O)N3CCOCC3)c2)cc1 (3D coordinates assigned)
Cc1ccc(NC(=O)C[N-]C(=O)c2cccc(S(=O)(=O)N3CCOCC3)c2)cc1 (nonaromatic ring conformer: 69.34477957125496 kcal/mol)

>  <smiles>  (23) 
Cc1ccc(NC(=O)CNC(=O)c2cccc(S(=O)(=O)N3CCOCC3)c2)cc1

>  <score_type>  (23) 
oracle

>  <origin>  (23) 
adgpu

>  <m_score__min__energy>  (23) 
-11.01

>  <m_primary>  (23) 
energy

$$$$
23:0
     RDKit          3D

 48 50  0  0  0  0  0  0  0  0999 V2000
   -1.2490   26.0410  -29.0630 N   0  0  0  0  0  0  0  0  0  0  0  0
   -1.7270   24.9740  -27.7910 S   0  0  0  0  0  0  0  0  0  0  0  0
   -3.2070   24.7270  -27.8850 O   0  0  0  0  0  0  0  0  0  0  0  0
   -1.4400   25.6140  -26.4630 O   0  0  0  0  0  0  0  0  0  0  0  0
   -0.8740   23.4320  -27.9550 C   0  0  0  0  0  0  0  0  0  0  0  0
    0.1470   23.1460  -27.0350 C   0  0  0  0  0  0  0  0  0  0  0  0
    0.9000   21.9750  -27.1470 C   0  0  0  0  0  0  0  0  0  0  0  0
    0.6550   21.0850  -28.1920 C   0  0  0  0  0  0  0  0  0  0  0  0
   -0.3560   21.3550  -29.1160 C   0  0  0  0  0  0  0  0  0  0  0  0
   -1.1500   22.5050  -28.9890 C   0  0  0  0  0  0  0  0  0  0  0  0
   -2.2170   22.6950  -29.9270 N   0  0  0  0  0  0  0  0  0  0  0  0
   -3.5750   22.2690  -29.7430 C   0  0  0  0  0  0  0  0  0  0  0  0
   -3.8040   21.3210  -28.9480 O   0  0  0  0  0  0  0  0  0  0  0  0
   -4.7130   22.9450  -30.4140 C   0  0  0  0  0  0  0  0  0  0  0  0
   -5.8590   22.1990  -30.7340 C   0  0  0  0  0  0  0  0  0  0  0  0
   -6.9580   22.8010  -31.3510 C   0  0  0  0  0  0  0  0  0  0  0  0
   -8.4220   21.8570  -31.5960 S   0  0  0  0  0  0  0  0  0  0  0  0
   -8.8080   21.1560  -30.3220 O   0  0  0  0  0  0  0  0  0  0  0  0
   -9.5340   22.7870  -31.9940 O   0  0  0  0  0  0  0  0  0  0  0  0
   -8.1100   20.6920  -32.8640 N   0  0  0  0  0  0  0  0  0  0  0  0
   -6.6540   20.4760  -33.0710 C   0  0  0  0  0  0  0  0  0  0  0  0
   -6.1900   19.0350  -32.7990 C   0  0  0  0  0  0  0  0  0  0  0  0
   -6.8190   18.5030  -31.5130 C   0  0  0  0  0  0  0  0  0  0  0  0
   -8.3560   18.5640  -31.5540 C   0  0  0  0  0  0  0  0  0  0  0  0
   -8.8970   19.4560  -32.6860 C   0  0  0  0  0  0  0  0  0  0  0  0
   -6.9020   24.1520  -31.7060 C   0  0  0  0  0  0  0  0  0  0  0  0
   -5.7530   24.8970  -31.4320 C   0  0  0  0  0  0  0  0  0  0  0  0
   -4.6650   24.3160  -30.7730 C   0  0  0  0  0  0  0  0  0  0  0  0
   -3.5770   25.1330  -30.4590 O   0  0  0  0  0  0  0  0  0  0  0  0
   -1.6100   25.6360  -29.9560 H   0  0  0  0  0  0  0  0  0  0  0  0
    0.3562   23.8515  -26.2174 H   0  0  0  0  0  0  0  0  0  0  0  0
    1.6867   21.7548  -26.4104 H   0  0  0  0  0  0  0  0  0  0  0  0
    1.2583   20.1702  -28.2883 H   0  0  0  0  0  0  0  0  0  0  0  0
   -0.5317   20.6604  -29.9507 H   0  0  0  0  0  0  0  0  0  0  0  0
   -5.8916   21.1257  -30.4954 H   0  0  0  0  0  0  0  0  0  0  0  0
   -6.4122   20.7260  -34.1146 H   0  0  0  0  0  0  0  0  0  0  0  0
   -6.1311   21.1202  -32.3488 H   0  0  0  0  0  0  0  0  0  0  0  0
   -6.4898   18.3934  -33.6407 H   0  0  0  0  0  0  0  0  0  0  0  0
   -5.0956   19.0291  -32.6880 H   0  0  0  0  0  0  0  0  0  0  0  0
   -6.5089   17.4570  -31.3724 H   0  0  0  0  0  0  0  0  0  0  0  0
   -6.4763   19.1353  -30.6807 H   0  0  0  0  0  0  0  0  0  0  0  0
   -8.7428   17.5442  -31.6972 H   0  0  0  0  0  0  0  0  0  0  0  0
   -8.6914   19.0031  -30.6029 H   0  0  0  0  0  0  0  0  0  0  0  0
   -8.8726   18.8850  -33.6259 H   0  0  0  0  0  0  0  0  0  0  0  0
   -9.9215   19.7510  -32.4152 H   0  0  0  0  0  0  0  0  0  0  0  0
   -7.7618   24.6276  -32.2005 H   0  0  0  0  0  0  0  0  0  0  0  0
   -5.7032   25.9524  -31.7379 H   0  0  0  0  0  0  0  0  0  0  0  0
   -2.7310   24.7900  -30.0250 H   0  0  0  0  0  0  0  0  0  0  0  0
  1  2  1  0
  2  3  2  0
  2  4  2  0
  2  5  1  0
  5  6  2  0
  6  7  1  0
  7  8  2  0
  8  9  1  0
  9 10  2  0
 10 11  1  0
 11 12  1  0
 12 13  2  0
 12 14  1  0
 14 15  2  0
 15 16  1  0
 16 17  1  0
 17 18  2  0
 17 19  2  0
 17 20  1  0
 20 21  1  0
 21 22  1  0
 22 23  1  0
 23 24  1  0
 24 25  1  0
 16 26  2  0
 26 27  1  0
 27 28  2  0
 28 29  1  0
 10  5  1  0
 28 14  1  0
 25 20  1  0
  1 30  1  0
  6 31  1  0
  7 32  1  0
  8 33  1  0
  9 34  1  0
 15 35  1  0
 21 36  1  0
 21 37  1  0
 22 38  1  0
 22 39  1  0
 23 40  1  0
 23 41  1  0
 24 42  1  0
 24 43  1  0
 25 44  1  0
 25 45  1  0
 26 46  1  0
 27 47  1  0
 29 48  1  0
M  CHG  2   1  -1  11  -1
M  END
>  <UniqueID>  (24) 
23

>  <SMILES>  (24) 
[NH-]S(=O)(=O)c1ccccc1[N-]C(=O)c1cc(S(=O)(=O)N2CCCCC2)ccc1O

>  <Energy>  (24) 
67.00493267250572

>  <Genealogy>  (24) 
[NH-]S(=O)(=O)c1ccccc1[N-]C(=O)c1cc(S(=O)(=O)N2CCCCC2)ccc1O (protonated)
[NH-]S(=O)(=O)c1ccccc1[N-]C(=O)c1cc(S(=O)(=O)N2CCCCC2)ccc1O (3D coordinates assigned)
[NH-]S(=O)(=O)c1ccccc1[N-]C(=O)c1cc(S(=O)(=O)N2CCCCC2)ccc1O (nonaromatic ring conformer: 67.00493267250572 kcal/mol)

>  <smiles>  (24) 
NS(=O)(=O)c1ccccc1NC(=O)c1cc(S(=O)(=O)N2CCCCC2)ccc1O

>  <score_type>  (24) 
oracle

>  <origin>  (24) 
adgpu

>  <m_score__min__energy>  (24) 
-13.539999999999999

>  <m_primary>  (24) 
energy

$$$$
24:0
     RDKit          3D

 64 68  0  0  0  0  0  0  0  0999 V2000
   -3.9480   23.2440  -31.9830 O   0  0  0  0  0  0  0  0  0  0  0  0
   -5.0870   23.5730  -31.0590 S   0  0  0  0  0  0  0  0  0  0  0  0
   -5.3770   25.0450  -31.1380 O   0  0  0  0  0  0  0  0  0  0  0  0
   -4.5920   23.1860  -29.4400 N   0  0  0  0  0  0  0  0  0  0  0  0
   -3.4490   22.3700  -29.1210 C   0  0  0  0  0  0  0  0  0  0  0  0
   -3.4890   21.5530  -27.9810 C   0  0  0  0  0  0  0  0  0  0  0  0
   -2.4080   20.7300  -27.6550 C   0  0  0  0  0  0  0  0  0  0  0  0
   -1.2630   20.7090  -28.4670 C   0  0  0  0  0  0  0  0  0  0  0  0
   -0.1650   19.8400  -28.1440 N   0  0  0  0  0  0  0  0  0  0  0  0
    1.1810   20.3290  -27.9070 C   0  0  0  0  0  0  0  0  0  0  0  0
    2.0470   19.0960  -27.6770 C   0  0  0  0  0  0  0  0  0  0  0  0
    1.1550   17.8620  -27.9480 C   0  0  2  0  0  0  0  0  0  0  0  0
    1.5990   17.0290  -29.0960 N   0  0  0  0  0  0  0  0  0  0  0  0
    1.9000   15.6200  -28.7840 C   0  0  0  0  0  0  0  0  0  0  0  0
    1.0410   14.7490  -29.6870 C   0  0  0  0  0  0  0  0  0  0  0  0
    0.6420   15.6580  -30.8260 C   0  0  0  0  0  0  0  0  0  0  0  0
    0.6490   17.0480  -30.2190 C   0  0  0  0  0  0  0  0  0  0  0  0
   -0.2690   18.3910  -28.1600 C   0  0  0  0  0  0  0  0  0  0  0  0
   -1.2130   21.5310  -29.6040 C   0  0  0  0  0  0  0  0  0  0  0  0
   -0.1040   21.5640  -30.3850 F   0  0  0  0  0  0  0  0  0  0  0  0
   -2.2950   22.3550  -29.9270 C   0  0  0  0  0  0  0  0  0  0  0  0
   -6.5590   22.6740  -31.4840 C   0  0  0  0  0  0  0  0  0  0  0  0
   -7.7940   23.3040  -31.2580 C   0  0  0  0  0  0  0  0  0  0  0  0
   -8.9940   22.6420  -31.5170 C   0  0  0  0  0  0  0  0  0  0  0  0
   -8.9780   21.3410  -32.0110 C   0  0  0  0  0  0  0  0  0  0  0  0
   -7.7640   20.7060  -32.2680 C   0  0  0  0  0  0  0  0  0  0  0  0
   -6.5410   21.3620  -32.0330 C   0  0  0  0  0  0  0  0  0  0  0  0
   -5.0390   20.5080  -32.4390 S   0  0  0  0  0  0  0  0  0  0  0  0
   -4.3270   21.2030  -33.5640 O   0  0  0  0  0  0  0  0  0  0  0  0
   -4.1420   20.4780  -31.2320 O   0  0  0  0  0  0  0  0  0  0  0  0
   -5.3690   18.8560  -32.9600 C   0  0  0  0  0  0  0  0  0  0  0  0
   -5.7710   17.8950  -32.0210 C   0  0  0  0  0  0  0  0  0  0  0  0
   -6.0120   16.5770  -32.4210 C   0  0  0  0  0  0  0  0  0  0  0  0
   -5.8510   16.2120  -33.7620 C   0  0  0  0  0  0  0  0  0  0  0  0
   -6.1520   14.5580  -34.2620 Cl  0  0  0  0  0  0  0  0  0  0  0  0
   -5.4460   17.1660  -34.7010 C   0  0  0  0  0  0  0  0  0  0  0  0
   -5.2030   18.4830  -34.3020 C   0  0  0  0  0  0  0  0  0  0  0  0
   -5.1920   23.5450  -28.6640 H   0  0  0  0  0  0  0  0  0  0  0  0
   -4.3808   21.5605  -27.3371 H   0  0  0  0  0  0  0  0  0  0  0  0
   -2.4543   20.0954  -26.7577 H   0  0  0  0  0  0  0  0  0  0  0  0
    1.5420   20.8909  -28.7811 H   0  0  0  0  0  0  0  0  0  0  0  0
    1.2141   21.0090  -27.0430 H   0  0  0  0  0  0  0  0  0  0  0  0
    2.9039   19.1019  -28.3667 H   0  0  0  0  0  0  0  0  0  0  0  0
    2.4412   19.0783  -26.6502 H   0  0  0  0  0  0  0  0  0  0  0  0
    1.2169   17.1802  -27.0870 H   0  0  0  0  0  0  0  0  0  0  0  0
    2.9647   15.4151  -28.9695 H   0  0  0  0  0  0  0  0  0  0  0  0
    1.6842   15.4065  -27.7267 H   0  0  0  0  0  0  0  0  0  0  0  0
    1.6172   13.8893  -30.0598 H   0  0  0  0  0  0  0  0  0  0  0  0
    0.1695   14.3337  -29.1598 H   0  0  0  0  0  0  0  0  0  0  0  0
    1.3666   15.5897  -31.6508 H   0  0  0  0  0  0  0  0  0  0  0  0
   -0.3363   15.3914  -31.2524 H   0  0  0  0  0  0  0  0  0  0  0  0
    0.9685   17.7854  -30.9701 H   0  0  0  0  0  0  0  0  0  0  0  0
   -0.3573   17.3277  -29.8737 H   0  0  0  0  0  0  0  0  0  0  0  0
   -0.6644   18.0469  -29.1271 H   0  0  0  0  0  0  0  0  0  0  0  0
   -0.9538   18.0278  -27.3796 H   0  0  0  0  0  0  0  0  0  0  0  0
   -2.2442   22.9972  -30.8186 H   0  0  0  0  0  0  0  0  0  0  0  0
   -7.8150   24.3336  -30.8714 H   0  0  0  0  0  0  0  0  0  0  0  0
   -9.9528   23.1481  -31.3309 H   0  0  0  0  0  0  0  0  0  0  0  0
   -9.9246   20.8131  -32.1989 H   0  0  0  0  0  0  0  0  0  0  0  0
   -7.7617   19.6782  -32.6598 H   0  0  0  0  0  0  0  0  0  0  0  0
   -5.8972   18.1792  -30.9659 H   0  0  0  0  0  0  0  0  0  0  0  0
   -6.3283   15.8269  -31.6811 H   0  0  0  0  0  0  0  0  0  0  0  0
   -5.3185   16.8792  -35.7553 H   0  0  0  0  0  0  0  0  0  0  0  0
   -4.8805   19.2296  -35.0427 H   0  0  0  0  0  0  0  0  0  0  0  0
  1  2  2  0
  2  3  2  0
  2  4  1  0
  4  5  1  0
  5  6  2  0
  6  7  1  0
  7  8  2  0
  8  9  1  0
  9 10  1  0
 10 11  1  0
 11 12  1  0
 12 13  1  0
 13 14  1  0
 14 15  1  0
 15 16  1  0
 16 17  1  0
 12 18  1  0
  8 19  1  0
 19 20  1  0
 19 21  2  0
  2 22  1  0
 22 23  2  0
 23 24  1  0
 24 25  2  0
 25 26  1  0
 26 27  2  0
 27 28  1  0
 28 29  2  0
 28 30  2  0
 28 31  1  0
 31 32  2  0
 32 33  1  0
 33 34  2  0
 34 35  1  0
 34 36  1  0
 36 37  2  0
 21  5  1  0
 27 22  1  0
 37 31  1  0
 18  9  1  0
 17 13  1  0
  4 38  1  0
  6 39  1  0
  7 40  1  0
 10 41  1  0
 10 42  1  0
 11 43  1  0
 11 44  1  0
 12 45  1  1
 14 46  1  0
 14 47  1  0
 15 48  1  0
 15 49  1  0
 16 50  1  0
 16 51  1  0
 17 52  1  0
 17 53  1  0
 18 54  1  0
 18 55  1  0
 21 56  1  0
 23 57  1  0
 24 58  1  0
 25 59  1  0
 26 60  1  0
 32 61  1  0
 33 62  1  0
 36 63  1  0
 37 64  1  0
M  END
>  <UniqueID>  (25) 
24

>  <SMILES>  (25) 
O=S(=O)(Nc1ccc(N2CC[C@H](N3CCCC3)C2)c(F)c1)c1ccccc1S(=O)(=O)c1ccc(Cl)cc1

>  <Energy>  (25) 
89.96377869708641

>  <Genealogy>  (25) 
O=S(=O)(Nc1ccc(N2CC[C@H](N3CCCC3)C2)c(F)c1)c1ccccc1S(=O)(=O)c1ccc(Cl)cc1 (chirality)
O=S(=O)(Nc1ccc(N2CC[C@H](N3CCCC3)C2)c(F)c1)c1ccccc1S(=O)(=O)c1ccc(Cl)cc1 (3D coordinates assigned)
O=S(=O)(Nc1ccc(N2CC[C@H](N3CCCC3)C2)c(F)c1)c1ccccc1S(=O)(=O)c1ccc(Cl)cc1 (nonaromatic ring conformer: 89.96377869708641 kcal/mol)

>  <smiles>  (25) 
O=S(=O)(Nc1ccc(N2CCC(N3CCCC3)C2)c(F)c1)c1ccccc1S(=O)(=O)c1ccc(Cl)cc1

>  <score_type>  (25) 
oracle

>  <origin>  (25) 
adgpu

>  <m_score__min__energy>  (25) 
-10.73

>  <m_primary>  (25) 
energy

$$$$
25:0
     RDKit          3D

 45 48  0  0  0  0  0  0  0  0999 V2000
   -5.4570   24.3590  -28.9720 O   0  0  0  0  0  0  0  0  0  0  0  0
   -5.0730   23.7550  -30.2940 S   0  0  0  0  0  0  0  0  0  0  0  0
   -4.5870   24.8420  -31.2110 O   0  0  0  0  0  0  0  0  0  0  0  0
   -6.4540   22.9570  -31.0390 C   0  0  0  0  0  0  0  0  0  0  0  0
   -7.6170   23.6770  -31.3480 C   0  0  0  0  0  0  0  0  0  0  0  0
   -8.7110   23.0250  -31.9250 C   0  0  0  0  0  0  0  0  0  0  0  0
   -8.6510   21.6540  -32.1910 C   0  0  0  0  0  0  0  0  0  0  0  0
   -7.4920   20.9270  -31.8810 C   0  0  0  0  0  0  0  0  0  0  0  0
   -7.3920   19.2050  -32.2440 S   0  0  0  0  0  0  0  0  0  0  0  0
   -6.6360   18.5200  -31.1410 O   0  0  0  0  0  0  0  0  0  0  0  0
   -8.7760   18.6180  -32.3120 O   0  0  0  0  0  0  0  0  0  0  0  0
   -6.5640   18.9680  -33.7650 N   0  0  0  0  0  0  0  0  0  0  0  0
   -5.3160   19.7700  -33.8240 C   0  0  0  0  0  0  0  0  0  0  0  0
   -4.0640   18.9050  -33.5870 C   0  0  0  0  0  0  0  0  0  0  0  0
   -3.9250   17.8430  -34.5220 O   0  0  0  0  0  0  0  0  0  0  0  0
   -5.1650   17.3100  -34.9710 C   0  0  0  0  0  0  0  0  0  0  0  0
   -6.3290   17.5240  -33.9910 C   0  0  0  0  0  0  0  0  0  0  0  0
   -6.3940   21.5850  -31.3120 C   0  0  0  0  0  0  0  0  0  0  0  0
   -3.8140   22.5920  -30.0370 N   0  0  0  0  0  0  0  0  0  0  0  0
   -3.4030   22.0910  -28.8500 C   0  0  0  0  0  0  0  0  0  0  0  0
   -2.3600   21.1830  -29.0400 C   0  0  0  0  0  0  0  0  0  0  0  0
   -2.1520   21.1510  -30.4040 C   0  0  0  0  0  0  0  0  0  0  0  0
   -1.2500   20.4350  -31.1850 C   0  0  0  0  0  0  0  0  0  0  0  0
   -1.2990   20.6350  -32.5760 C   0  0  0  0  0  0  0  0  0  0  0  0
   -2.2400   21.5380  -33.1250 C   0  0  0  0  0  0  0  0  0  0  0  0
   -3.1060   22.2180  -32.3120 N   0  0  0  0  0  0  0  0  0  0  0  0
   -3.0460   22.0120  -30.9720 C   0  0  0  0  0  0  0  0  0  0  0  0
   -7.6686   24.7552  -31.1363 H   0  0  0  0  0  0  0  0  0  0  0  0
   -9.6210   23.5922  -32.1702 H   0  0  0  0  0  0  0  0  0  0  0  0
   -9.5141   21.1443  -32.6442 H   0  0  0  0  0  0  0  0  0  0  0  0
   -7.2100   19.3140  -34.5140 H   0  0  0  0  0  0  0  0  0  0  0  0
   -5.2414   20.2388  -34.8163 H   0  0  0  0  0  0  0  0  0  0  0  0
   -5.3611   20.5285  -33.0287 H   0  0  0  0  0  0  0  0  0  0  0  0
   -3.1760   19.5503  -33.6581 H   0  0  0  0  0  0  0  0  0  0  0  0
   -4.1686   18.4490  -32.5915 H   0  0  0  0  0  0  0  0  0  0  0  0
   -5.4234   17.7920  -35.9254 H   0  0  0  0  0  0  0  0  0  0  0  0
   -5.0273   16.2231  -35.0689 H   0  0  0  0  0  0  0  0  0  0  0  0
   -7.2403   17.0708  -34.4083 H   0  0  0  0  0  0  0  0  0  0  0  0
   -6.0738   17.0526  -33.0304 H   0  0  0  0  0  0  0  0  0  0  0  0
   -5.4793   21.0205  -31.0783 H   0  0  0  0  0  0  0  0  0  0  0  0
   -3.8302   22.3609  -27.8729 H   0  0  0  0  0  0  0  0  0  0  0  0
   -1.8198   20.6149  -28.2683 H   0  0  0  0  0  0  0  0  0  0  0  0
   -0.5274   19.7402  -30.7323 H   0  0  0  0  0  0  0  0  0  0  0  0
   -0.6074   20.0907  -33.2359 H   0  0  0  0  0  0  0  0  0  0  0  0
   -2.2758   21.6946  -34.2132 H   0  0  0  0  0  0  0  0  0  0  0  0
  1  2  2  0
  2  3  2  0
  2  4  1  0
  4  5  2  0
  5  6  1  0
  6  7  2  0
  7  8  1  0
  8  9  1  0
  9 10  2  0
  9 11  2  0
  9 12  1  0
 12 13  1  0
 13 14  1  0
 14 15  1  0
 15 16  1  0
 16 17  1  0
  8 18  2  0
  2 19  1  0
 19 20  1  0
 20 21  2  0
 21 22  1  0
 22 23  2  0
 23 24  1  0
 24 25  2  0
 25 26  1  0
 26 27  2  0
 18  4  1  0
 27 19  1  0
 17 12  1  0
 27 22  1  0
  5 28  1  0
  6 29  1  0
  7 30  1  0
 12 31  1  0
 13 32  1  0
 13 33  1  0
 14 34  1  0
 14 35  1  0
 16 36  1  0
 16 37  1  0
 17 38  1  0
 17 39  1  0
 18 40  1  0
 20 41  1  0
 21 42  1  0
 23 43  1  0
 24 44  1  0
 25 45  1  0
M  CHG  1  12   1
M  END
>  <UniqueID>  (26) 
25

>  <SMILES>  (26) 
O=S(=O)(c1cccc(S(=O)(=O)[NH+]2CCOCC2)c1)n1ccc2cccnc21

>  <Energy>  (26) 
97.14442470648541

>  <Genealogy>  (26) 
O=S(=O)(c1cccc(S(=O)(=O)[NH+]2CCOCC2)c1)n1ccc2cccnc21 (protonated)
O=S(=O)(c1cccc(S(=O)(=O)[NH+]2CCOCC2)c1)n1ccc2cccnc21 (3D coordinates assigned)
O=S(=O)(c1cccc(S(=O)(=O)[NH+]2CCOCC2)c1)n1ccc2cccnc21 (nonaromatic ring conformer: 97.14442470648541 kcal/mol)

>  <smiles>  (26) 
O=S(=O)(c1cccc(S(=O)(=O)n2ccc3cccnc32)c1)N1CCOCC1

>  <score_type>  (26) 
oracle

>  <origin>  (26) 
adgpu

>  <m_score__min__energy>  (26) 
-9.0800000000000001

>  <m_primary>  (26) 
energy

$$$$
26:0
     RDKit          3D

 51 54  0  0  0  0  0  0  0  0999 V2000
   -0.9657   17.8890  -28.5515 H   0  0  0  0  0  0  0  0  0  0  0  0
   -0.8730   18.8460  -28.0170 C   0  0  0  0  0  0  0  0  0  0  0  0
    0.1490   19.7380  -28.3530 C   0  0  0  0  0  0  0  0  0  0  0  0
    0.8633   19.4802  -29.1488 H   0  0  0  0  0  0  0  0  0  0  0  0
    0.2650   20.9580  -27.6790 C   0  0  0  0  0  0  0  0  0  0  0  0
    1.0780   21.6518  -27.9393 H   0  0  0  0  0  0  0  0  0  0  0  0
   -0.6490   21.3010  -26.6740 C   0  0  0  0  0  0  0  0  0  0  0  0
   -0.4910   22.5250  -26.0100 O   0  0  0  0  0  0  0  0  0  0  0  0
   -0.6240   23.7930  -26.5950 C   0  0  0  0  0  0  0  0  0  0  0  0
    0.0780   24.9120  -26.1130 C   0  0  0  0  0  0  0  0  0  0  0  0
    0.7568   24.8051  -25.2540 H   0  0  0  0  0  0  0  0  0  0  0  0
   -0.0840   26.1600  -26.7220 C   0  0  0  0  0  0  0  0  0  0  0  0
    0.4806   27.0289  -26.3527 H   0  0  0  0  0  0  0  0  0  0  0  0
   -0.9620   26.3050  -27.7990 C   0  0  0  0  0  0  0  0  0  0  0  0
   -1.0737   27.2845  -28.2871 H   0  0  0  0  0  0  0  0  0  0  0  0
   -1.7030   25.2040  -28.2610 C   0  0  0  0  0  0  0  0  0  0  0  0
   -2.5920   25.3050  -29.3400 O   0  0  0  0  0  0  0  0  0  0  0  0
   -3.7410   24.5250  -29.5100 C   0  0  0  0  0  0  0  0  0  0  0  0
   -4.3110   23.2920  -28.5310 S   0  0  0  0  0  0  0  0  0  0  0  0
   -5.6380   22.8460  -29.4210 N   0  0  0  0  0  0  0  0  0  0  0  0
   -6.3100   22.0890  -29.1680 H   0  0  0  0  0  0  0  0  0  0  0  0
   -5.6530   23.6530  -30.5200 C   0  0  0  0  0  0  0  0  0  0  0  0
   -6.5580   23.5750  -31.4500 N   0  0  0  0  0  0  0  0  0  0  0  0
   -7.8770   22.4480  -31.4580 S   0  0  0  0  0  0  0  0  0  0  0  0
   -8.3650   22.2500  -30.0500 O   0  0  0  0  0  0  0  0  0  0  0  0
   -8.9970   23.0080  -32.2880 O   0  0  0  0  0  0  0  0  0  0  0  0
   -7.3570   20.9190  -32.1600 C   0  0  0  0  0  0  0  0  0  0  0  0
   -8.1730   19.7860  -32.0430 C   0  0  0  0  0  0  0  0  0  0  0  0
   -9.1308   19.8529  -31.5062 H   0  0  0  0  0  0  0  0  0  0  0  0
   -7.7730   18.5700  -32.6070 C   0  0  0  0  0  0  0  0  0  0  0  0
   -8.4145   17.6820  -32.5075 H   0  0  0  0  0  0  0  0  0  0  0  0
   -6.5580   18.4800  -33.2980 C   0  0  0  0  0  0  0  0  0  0  0  0
   -6.0390   16.9520  -34.0020 S   0  0  0  0  0  0  0  0  0  0  0  0
   -7.2340   16.0990  -34.3250 O   0  0  0  0  0  0  0  0  0  0  0  0
   -5.2750   17.2160  -35.2700 O   0  0  0  0  0  0  0  0  0  0  0  0
   -5.0000   16.0910  -32.8420 C   0  0  0  0  0  0  0  0  0  0  0  0
   -5.3065   16.3450  -31.8165 H   0  0  0  0  0  0  0  0  0  0  0  0
   -5.0987   15.0063  -32.9962 H   0  0  0  0  0  0  0  0  0  0  0  0
   -3.9526   16.3894  -32.9962 H   0  0  0  0  0  0  0  0  0  0  0  0
   -5.7370   19.6120  -33.4060 C   0  0  0  0  0  0  0  0  0  0  0  0
   -4.7766   19.5439  -33.9380 H   0  0  0  0  0  0  0  0  0  0  0  0
   -6.1350   20.8260  -32.8400 C   0  0  0  0  0  0  0  0  0  0  0  0
   -5.4876   21.7109  -32.9284 H   0  0  0  0  0  0  0  0  0  0  0  0
   -4.6050   24.5950  -30.5960 C   0  0  0  0  0  0  0  0  0  0  0  0
   -4.4850   25.3076  -31.4253 H   0  0  0  0  0  0  0  0  0  0  0  0
   -1.5180   23.9520  -27.6610 C   0  0  0  0  0  0  0  0  0  0  0  0
   -2.0817   23.0832  -28.0316 H   0  0  0  0  0  0  0  0  0  0  0  0
   -1.6640   20.3880  -26.3260 C   0  0  0  0  0  0  0  0  0  0  0  0
   -2.3700   20.6347  -25.5194 H   0  0  0  0  0  0  0  0  0  0  0  0
   -1.7770   19.1700  -27.0020 C   0  0  0  0  0  0  0  0  0  0  0  0
   -2.5785   18.4656  -26.7347 H   0  0  0  0  0  0  0  0  0  0  0  0
  1  2  1  0
  2  3  2  0
  3  4  1  0
  3  5  1  0
  5  6  1  0
  5  7  2  0
  7  8  1  0
  8  9  1  0
  9 10  2  0
 10 11  1  0
 10 12  1  0
 12 13  1  0
 12 14  2  0
 14 15  1  0
 14 16  1  0
 16 17  1  0
 17 18  1  0
 18 19  1  0
 19 20  1  0
 20 21  1  0
 20 22  1  0
 22 23  2  0
 23 24  1  0
 24 25  2  0
 24 26  2  0
 24 27  1  0
 27 28  2  0
 28 29  1  0
 28 30  1  0
 30 31  1  0
 30 32  2  0
 32 33  1  0
 33 34  2  0
 33 35  2  0
 33 36  1  0
 36 37  1  0
 36 38  1  0
 36 39  1  0
 32 40  1  0
 40 41  1  0
 40 42  2  0
 42 43  1  0
 22 44  1  0
 44 45  1  0
 16 46  2  0
 46 47  1  0
  7 48  1  0
 48 49  1  0
 48 50  2  0
 50 51  1  0
 50  2  1  0
 46  9  1  0
 44 18  2  0
 42 27  1  0
M  END
>  <UniqueID>  (27) 
26

>  <SMILES>  (27) 
CS(=O)(=O)c1ccc(S(=O)(=O)/N=c2/cc(Oc3cccc(Oc4ccccc4)c3)s[nH]2)cc1

>  <Energy>  (27) 
102.06148511511492

>  <Genealogy>  (27) 
CS(=O)(=O)c1ccc(S(=O)(=O)/N=c2/cc(Oc3cccc(Oc4ccccc4)c3)s[nH]2)cc1 (cis-trans isomerization)
CS(=O)(=O)c1ccc(S(=O)(=O)/N=c2/cc(Oc3cccc(Oc4ccccc4)c3)s[nH]2)cc1 (3D coordinates assigned)
CS(=O)(=O)c1ccc(S(=O)(=O)/N=c2/cc(Oc3cccc(Oc4ccccc4)c3)s[nH]2)cc1 (optimized conformer: 102.06148511511492 kcal/mol)

>  <smiles>  (27) 
CS(=O)(=O)c1ccc(S(=O)(=O)N=c2cc(Oc3cccc(Oc4ccccc4)c3)s[nH]2)cc1

>  <score_type>  (27) 
oracle

>  <origin>  (27) 
adgpu

>  <m_score__min__energy>  (27) 
-10.880000000000001

>  <m_primary>  (27) 
energy

$$$$
27:0
     RDKit          3D

 47 50  0  0  0  0  0  0  0  0999 V2000
   -5.7440   25.5630  -29.8260 O   0  0  0  0  0  0  0  0  0  0  0  0
   -4.9460   24.7680  -30.3930 C   0  0  0  0  0  0  0  0  0  0  0  0
   -3.5360   25.0160  -30.3560 N   0  0  0  0  0  0  0  0  0  0  0  0
   -2.6100   24.4200  -29.4360 C   0  0  0  0  0  0  0  0  0  0  0  0
   -2.8810   23.1350  -28.9500 C   0  0  0  0  0  0  0  0  0  0  0  0
   -2.0100   22.5170  -28.0430 C   0  0  0  0  0  0  0  0  0  0  0  0
   -2.3300   20.8950  -27.4420 S   0  0  0  0  0  0  0  0  0  0  0  0
   -1.5720   20.6760  -26.1600 O   0  0  0  0  0  0  0  0  0  0  0  0
   -3.8010   20.7770  -27.1540 O   0  0  0  0  0  0  0  0  0  0  0  0
   -1.8200   19.7510  -28.6750 N   0  0  0  0  0  0  0  0  0  0  0  0
   -0.6890   18.9110  -28.2400 C   0  0  0  0  0  0  0  0  0  0  0  0
    0.6490   19.6560  -28.3580 C   0  0  0  0  0  0  0  0  0  0  0  0
    0.8480   20.1190  -29.6780 O   0  0  0  0  0  0  0  0  0  0  0  0
   -0.1590   21.0540  -30.0050 C   0  0  0  0  0  0  0  0  0  0  0  0
   -1.5480   20.3950  -29.9740 C   0  0  0  0  0  0  0  0  0  0  0  0
   -0.8660   23.1990  -27.6090 C   0  0  0  0  0  0  0  0  0  0  0  0
   -0.6060   24.4940  -28.0630 C   0  0  0  0  0  0  0  0  0  0  0  0
   -1.4800   25.1160  -28.9610 C   0  0  0  0  0  0  0  0  0  0  0  0
   -1.2330   26.4290  -29.3450 O   0  0  0  0  0  0  0  0  0  0  0  0
   -5.4410   23.5550  -31.0740 C   0  0  0  0  0  0  0  0  0  0  0  0
   -4.6620   23.0380  -32.0210 O   0  0  0  0  0  0  0  0  0  0  0  0
   -4.9470   21.9200  -32.6790 C   0  0  0  0  0  0  0  0  0  0  0  0
   -4.1460   21.5100  -33.5610 O   0  0  0  0  0  0  0  0  0  0  0  0
   -6.1200   21.2070  -32.3860 C   0  0  0  0  0  0  0  0  0  0  0  0
   -6.4450   20.0080  -33.0490 C   0  0  0  0  0  0  0  0  0  0  0  0
   -7.6270   19.3310  -32.7380 C   0  0  0  0  0  0  0  0  0  0  0  0
   -8.4920   19.8400  -31.7700 C   0  0  0  0  0  0  0  0  0  0  0  0
   -8.1830   21.0300  -31.1050 C   0  0  0  0  0  0  0  0  0  0  0  0
   -6.9930   21.7230  -31.4020 C   0  0  0  0  0  0  0  0  0  0  0  0
   -6.6680   22.9270  -30.7540 C   0  0  0  0  0  0  0  0  0  0  0  0
   -7.5800   23.4800  -29.8480 O   0  0  0  0  0  0  0  0  0  0  0  0
   -3.7860   22.6059  -29.2833 H   0  0  0  0  0  0  0  0  0  0  0  0
   -0.8438   18.6199  -27.1906 H   0  0  0  0  0  0  0  0  0  0  0  0
   -0.6479   18.0260  -28.8920 H   0  0  0  0  0  0  0  0  0  0  0  0
    0.6460   20.5148  -27.6707 H   0  0  0  0  0  0  0  0  0  0  0  0
    1.4635   18.9633  -28.0996 H   0  0  0  0  0  0  0  0  0  0  0  0
   -0.1350   21.8788  -29.2776 H   0  0  0  0  0  0  0  0  0  0  0  0
    0.0285   21.4329  -31.0205 H   0  0  0  0  0  0  0  0  0  0  0  0
   -2.3117   21.1654  -30.1563 H   0  0  0  0  0  0  0  0  0  0  0  0
   -1.5756   19.6187  -30.7529 H   0  0  0  0  0  0  0  0  0  0  0  0
   -0.1705   22.7133  -26.9087 H   0  0  0  0  0  0  0  0  0  0  0  0
    0.2901   25.0273  -27.7129 H   0  0  0  0  0  0  0  0  0  0  0  0
   -5.7662   19.6031  -33.8141 H   0  0  0  0  0  0  0  0  0  0  0  0
   -7.8758   18.3942  -33.2581 H   0  0  0  0  0  0  0  0  0  0  0  0
   -9.4212   19.3030  -31.5288 H   0  0  0  0  0  0  0  0  0  0  0  0
   -8.8726   21.4274  -30.3458 H   0  0  0  0  0  0  0  0  0  0  0  0
   -7.3420   24.2010  -29.1810 H   0  0  0  0  0  0  0  0  0  0  0  0
  1  2  2  0
  2  3  1  0
  3  4  1  0
  4  5  2  0
  5  6  1  0
  6  7  1  0
  7  8  2  0
  7  9  2  0
  7 10  1  0
 10 11  1  0
 11 12  1  0
 12 13  1  0
 13 14  1  0
 14 15  1  0
  6 16  2  0
 16 17  1  0
 17 18  2  0
 18 19  1  0
  2 20  1  0
 20 21  1  0
 21 22  1  0
 22 23  2  0
 22 24  1  0
 24 25  2  0
 25 26  1  0
 26 27  2  0
 27 28  1  0
 28 29  2  0
 29 30  1  0
 30 31  1  0
 18  4  1  0
 30 20  2  0
 15 10  1  0
 29 24  1  0
  5 32  1  0
 11 33  1  0
 11 34  1  0
 12 35  1  0
 12 36  1  0
 14 37  1  0
 14 38  1  0
 15 39  1  0
 15 40  1  0
 16 41  1  0
 17 42  1  0
 25 43  1  0
 26 44  1  0
 27 45  1  0
 28 46  1  0
 31 47  1  0
M  CHG  2   3  -1  19  -1
M  END
>  <UniqueID>  (28) 
27

>  <SMILES>  (28) 
O=C([N-]c1cc(S(=O)(=O)N2CCOCC2)ccc1[O-])c1oc(=O)c2ccccc2c1O

>  <Energy>  (28) 
74.4466584131234

>  <Genealogy>  (28) 
O=C([N-]c1cc(S(=O)(=O)N2CCOCC2)ccc1[O-])c1oc(=O)c2ccccc2c1O (protonated)
O=C([N-]c1cc(S(=O)(=O)N2CCOCC2)ccc1[O-])c1oc(=O)c2ccccc2c1O (3D coordinates assigned)
O=C([N-]c1cc(S(=O)(=O)N2CCOCC2)ccc1[O-])c1oc(=O)c2ccccc2c1O (nonaromatic ring conformer: 74.4466584131234 kcal/mol)

>  <smiles>  (28) 
O=C(Nc1cc(S(=O)(=O)N2CCOCC2)ccc1O)c1oc(=O)c2ccccc2c1O

>  <score_type>  (28) 
oracle

>  <origin>  (28) 
adgpu

>  <m_score__min__energy>  (28) 
-13.699999999999999

>  <m_primary>  (28) 
energy

$$$$
28:0
     RDKit          3D

 40 42  0  0  0  0  0  0  0  0999 V2000
   -0.0660   20.8530  -30.3450 C   0  0  0  0  0  0  0  0  0  0  0  0
   -0.6600   20.5650  -28.9910 C   0  0  0  0  0  0  0  0  0  0  0  0
   -0.5430   19.2690  -28.4610 C   0  0  0  0  0  0  0  0  0  0  0  0
   -1.0880   18.9560  -27.2140 C   0  0  0  0  0  0  0  0  0  0  0  0
   -0.9520   17.6670  -26.7110 O   0  0  0  0  0  0  0  0  0  0  0  0
   -1.7660   19.9380  -26.4790 C   0  0  0  0  0  0  0  0  0  0  0  0
   -2.3160   19.6520  -25.2290 O   0  0  0  0  0  0  0  0  0  0  0  0
   -1.8980   21.2260  -27.0010 C   0  0  0  0  0  0  0  0  0  0  0  0
   -1.3610   21.5550  -28.2570 C   0  0  0  0  0  0  0  0  0  0  0  0
   -1.5650   23.2030  -28.8730 S   0  0  0  0  0  0  0  0  0  0  0  0
   -2.4340   23.9710  -27.9160 O   0  0  0  0  0  0  0  0  0  0  0  0
   -0.2180   23.8570  -29.0010 O   0  0  0  0  0  0  0  0  0  0  0  0
   -2.3250   23.1610  -30.4330 N   0  0  0  0  0  0  0  0  0  0  0  0
   -3.7280   23.2370  -30.7350 C   0  0  0  0  0  0  0  0  0  0  0  0
   -4.3830   22.0400  -31.0460 C   0  0  0  0  0  0  0  0  0  0  0  0
   -5.7510   22.0170  -31.3550 C   0  0  0  0  0  0  0  0  0  0  0  0
   -6.4910   23.2200  -31.3210 C   0  0  0  0  0  0  0  0  0  0  0  0
   -5.8320   24.4230  -31.0360 C   0  0  0  0  0  0  0  0  0  0  0  0
   -4.4630   24.4430  -30.7480 C   0  0  0  0  0  0  0  0  0  0  0  0
   -3.8640   25.6690  -30.4930 O   0  0  0  0  0  0  0  0  0  0  0  0
   -7.9530   23.2610  -31.6970 C   0  0  0  0  0  0  0  0  0  0  0  0
   -8.6250   21.8880  -31.5980 C   0  0  0  0  0  0  0  0  0  0  0  0
   -7.7780   20.8290  -32.3020 C   0  0  0  0  0  0  0  0  0  0  0  0
   -6.4200   20.6850  -31.6080 C   0  0  0  0  0  0  0  0  0  0  0  0
    0.9174   21.3298  -30.2201 H   0  0  0  0  0  0  0  0  0  0  0  0
    0.0510   19.9116  -30.9018 H   0  0  0  0  0  0  0  0  0  0  0  0
   -0.7327   21.5279  -30.9018 H   0  0  0  0  0  0  0  0  0  0  0  0
   -0.0162   18.4923  -29.0348 H   0  0  0  0  0  0  0  0  0  0  0  0
   -2.3600   18.7090  -24.8640 H   0  0  0  0  0  0  0  0  0  0  0  0
   -2.4300   21.9943  -26.4207 H   0  0  0  0  0  0  0  0  0  0  0  0
   -3.8138   21.0987  -31.0482 H   0  0  0  0  0  0  0  0  0  0  0  0
   -6.3991   25.3655  -31.0387 H   0  0  0  0  0  0  0  0  0  0  0  0
   -8.4714   23.9566  -31.0207 H   0  0  0  0  0  0  0  0  0  0  0  0
   -8.0186   23.5895  -32.7448 H   0  0  0  0  0  0  0  0  0  0  0  0
   -8.7388   21.6156  -30.5383 H   0  0  0  0  0  0  0  0  0  0  0  0
   -9.6109   21.9372  -32.0833 H   0  0  0  0  0  0  0  0  0  0  0  0
   -8.3050   19.8640  -32.2715 H   0  0  0  0  0  0  0  0  0  0  0  0
   -7.6152   21.1373  -33.3453 H   0  0  0  0  0  0  0  0  0  0  0  0
   -6.5695   20.1773  -30.6437 H   0  0  0  0  0  0  0  0  0  0  0  0
   -5.7652   20.1053  -32.2752 H   0  0  0  0  0  0  0  0  0  0  0  0
  1  2  1  0
  2  3  2  0
  3  4  1  0
  4  5  1  0
  4  6  2  0
  6  7  1  0
  6  8  1  0
  8  9  2  0
  9 10  1  0
 10 11  2  0
 10 12  2  0
 10 13  1  0
 13 14  1  0
 14 15  2  0
 15 16  1  0
 16 17  2  0
 17 18  1  0
 18 19  2  0
 19 20  1  0
 17 21  1  0
 21 22  1  0
 22 23  1  0
 23 24  1  0
  9  2  1  0
 19 14  1  0
 24 16  1  0
  1 25  1  0
  1 26  1  0
  1 27  1  0
  3 28  1  0
  7 29  1  0
  8 30  1  0
 15 31  1  0
 18 32  1  0
 21 33  1  0
 21 34  1  0
 22 35  1  0
 22 36  1  0
 23 37  1  0
 23 38  1  0
 24 39  1  0
 24 40  1  0
M  CHG  3   5  -1  13  -1  20  -1
M  END
>  <UniqueID>  (29) 
28

>  <SMILES>  (29) 
Cc1cc([O-])c(O)cc1S(=O)(=O)[N-]c1cc2c(cc1[O-])CCCC2

>  <Energy>  (29) 
50.21386830080792

>  <Genealogy>  (29) 
Cc1cc([O-])c(O)cc1S(=O)(=O)[N-]c1cc2c(cc1[O-])CCCC2 (protonated)
Cc1cc([O-])c(O)cc1S(=O)(=O)[N-]c1cc2c(cc1[O-])CCCC2 (3D coordinates assigned)
Cc1cc([O-])c(O)cc1S(=O)(=O)[N-]c1cc2c(cc1[O-])CCCC2 (nonaromatic ring conformer: 50.21386830080792 kcal/mol)

>  <smiles>  (29) 
Cc1cc(O)c(O)cc1S(=O)(=O)Nc1cc2c(cc1O)CCCC2

>  <score_type>  (29) 
oracle

>  <origin>  (29) 
adgpu

>  <m_score__min__energy>  (29) 
-12.69

>  <m_primary>  (29) 
energy

$$$$
29:0
     RDKit          3D

 65 69  0  0  0  0  0  0  0  0999 V2000
   -5.1840   25.2570  -31.2670 O   0  0  0  0  0  0  0  0  0  0  0  0
   -5.4460   24.0270  -31.2740 C   0  0  0  0  0  0  0  0  0  0  0  0
   -4.3640   23.0930  -31.4000 N   0  0  0  0  0  0  0  0  0  0  0  0
   -3.2730   22.9090  -30.4880 C   0  0  0  0  0  0  0  0  0  0  0  0
   -2.7610   21.6190  -30.3180 C   0  0  0  0  0  0  0  0  0  0  0  0
   -1.7020   21.3920  -29.4400 C   0  0  0  0  0  0  0  0  0  0  0  0
   -1.1440   22.4500  -28.7220 C   0  0  0  0  0  0  0  0  0  0  0  0
   -1.6240   23.7580  -28.8990 C   0  0  0  0  0  0  0  0  0  0  0  0
   -0.9380   25.1180  -27.9930 S   0  0  0  0  0  0  0  0  0  0  0  0
    0.5550   24.9540  -27.9550 O   0  0  0  0  0  0  0  0  0  0  0  0
   -1.2720   26.3850  -28.7300 O   0  0  0  0  0  0  0  0  0  0  0  0
   -1.5800   25.2650  -26.3180 C   0  0  1  0  0  0  0  0  0  0  0  0
   -0.7880   24.3740  -25.3030 C   0  0  0  0  0  0  0  0  0  0  0  0
    0.0010   25.1550  -24.2350 C   0  0  1  0  0  0  0  0  0  0  0  0
    1.1810   25.9080  -24.8580 C   0  0  0  0  0  0  0  0  0  0  0  0
    0.6030   27.2530  -25.2980 C   0  0  0  0  0  0  0  0  0  0  0  0
   -0.8650   27.2120  -24.8680 C   0  0  2  0  0  0  0  0  0  0  0  0
   -0.8910   26.2490  -23.7000 C   0  0  0  0  0  0  0  0  0  0  0  0
   -1.7130   26.7070  -25.9660 N   0  0  0  0  0  0  0  0  0  0  0  0
   -2.6750   23.9900  -29.8080 C   0  0  0  0  0  0  0  0  0  0  0  0
   -3.1070   25.2900  -30.0470 O   0  0  0  0  0  0  0  0  0  0  0  0
   -6.8170   23.6110  -31.1780 N   0  0  0  0  0  0  0  0  0  0  0  0
   -7.3430   22.2940  -31.3990 C   0  0  0  0  0  0  0  0  0  0  0  0
   -8.5190   21.9410  -30.7300 C   0  0  0  0  0  0  0  0  0  0  0  0
   -9.0490   20.6580  -30.8550 C   0  0  0  0  0  0  0  0  0  0  0  0
   -8.4140   19.7160  -31.6620 C   0  0  0  0  0  0  0  0  0  0  0  0
   -7.2540   20.0550  -32.3730 C   0  0  0  0  0  0  0  0  0  0  0  0
   -6.4810   18.8190  -33.3770 S   0  0  0  0  0  0  0  0  0  0  0  0
   -6.2700   19.3510  -34.7680 O   0  0  0  0  0  0  0  0  0  0  0  0
   -7.3760   17.6140  -33.4680 O   0  0  0  0  0  0  0  0  0  0  0  0
   -4.9440   18.3700  -32.6740 N   0  0  0  0  0  0  0  0  0  0  0  0
   -4.2570   17.3960  -33.5470 C   0  0  0  0  0  0  0  0  0  0  0  0
   -2.7520   17.3680  -33.2420 C   0  0  0  0  0  0  0  0  0  0  0  0
   -2.0970   18.6140  -33.4520 O   0  0  0  0  0  0  0  0  0  0  0  0
   -2.9670   19.7360  -33.3920 C   0  0  0  0  0  0  0  0  0  0  0  0
   -4.1150   19.5630  -32.3830 C   0  0  0  0  0  0  0  0  0  0  0  0
   -6.7260   21.3590  -32.2680 C   0  0  0  0  0  0  0  0  0  0  0  0
   -5.6230   21.7130  -33.0470 O   0  0  0  0  0  0  0  0  0  0  0  0
   -3.1959   20.7791  -30.8797 H   0  0  0  0  0  0  0  0  0  0  0  0
   -1.3047   20.3742  -29.3129 H   0  0  0  0  0  0  0  0  0  0  0  0
   -0.3242   22.2589  -28.0139 H   0  0  0  0  0  0  0  0  0  0  0  0
   -2.5963   24.8486  -26.2573 H   0  0  0  0  0  0  0  0  0  0  0  0
   -1.5075   23.7210  -24.7873 H   0  0  0  0  0  0  0  0  0  0  0  0
   -0.0437   23.8196  -25.8935 H   0  0  0  0  0  0  0  0  0  0  0  0
    0.3396   24.4336  -23.4767 H   0  0  0  0  0  0  0  0  0  0  0  0
    1.9808   26.0545  -24.1172 H   0  0  0  0  0  0  0  0  0  0  0  0
    1.6274   25.3552  -25.6977 H   0  0  0  0  0  0  0  0  0  0  0  0
    1.1288   28.0813  -24.8005 H   0  0  0  0  0  0  0  0  0  0  0  0
    0.7124   27.4159  -26.3804 H   0  0  0  0  0  0  0  0  0  0  0  0
   -1.2500   28.2078  -24.6029 H   0  0  0  0  0  0  0  0  0  0  0  0
   -0.4761   26.7034  -22.7882 H   0  0  0  0  0  0  0  0  0  0  0  0
   -1.8955   25.9183  -23.3973 H   0  0  0  0  0  0  0  0  0  0  0  0
   -2.7120   26.9030  -25.7120 H   0  0  0  0  0  0  0  0  0  0  0  0
   -9.0306   22.6828  -30.0992 H   0  0  0  0  0  0  0  0  0  0  0  0
   -9.9694   20.3888  -30.3161 H   0  0  0  0  0  0  0  0  0  0  0  0
   -8.8257   18.6991  -31.7418 H   0  0  0  0  0  0  0  0  0  0  0  0
   -4.6798   16.3951  -33.3755 H   0  0  0  0  0  0  0  0  0  0  0  0
   -4.4019   17.6943  -34.5958 H   0  0  0  0  0  0  0  0  0  0  0  0
   -2.6175   17.0793  -32.1891 H   0  0  0  0  0  0  0  0  0  0  0  0
   -2.2986   16.6479  -33.9391 H   0  0  0  0  0  0  0  0  0  0  0  0
   -2.3783   20.6191  -33.1029 H   0  0  0  0  0  0  0  0  0  0  0  0
   -3.4222   19.8486  -34.3870 H   0  0  0  0  0  0  0  0  0  0  0  0
   -3.6873   19.4593  -31.3749 H   0  0  0  0  0  0  0  0  0  0  0  0
   -4.7630   20.4490  -32.4552 H   0  0  0  0  0  0  0  0  0  0  0  0
   -5.2520   22.6510  -33.0800 H   0  0  0  0  0  0  0  0  0  0  0  0
  1  2  2  0
  2  3  1  0
  3  4  1  0
  4  5  2  0
  5  6  1  0
  6  7  2  0
  7  8  1  0
  8  9  1  0
  9 10  2  0
  9 11  2  0
  9 12  1  0
 12 13  1  0
 13 14  1  0
 14 15  1  0
 15 16  1  0
 16 17  1  0
 17 18  1  0
 17 19  1  0
  8 20  2  0
 20 21  1  0
  2 22  1  0
 22 23  1  0
 23 24  2  0
 24 25  1  0
 25 26  2  0
 26 27  1  0
 27 28  1  0
 28 29  2  0
 28 30  2  0
 28 31  1  0
 31 32  1  0
 32 33  1  0
 33 34  1  0
 34 35  1  0
 35 36  1  0
 27 37  2  0
 37 38  1  0
 20  4  1  0
 37 23  1  0
 19 12  1  0
 36 31  1  0
 18 14  1  0
  5 39  1  0
  6 40  1  0
  7 41  1  0
 12 42  1  6
 13 43  1  0
 13 44  1  0
 14 45  1  1
 15 46  1  0
 15 47  1  0
 16 48  1  0
 16 49  1  0
 17 50  1  1
 18 51  1  0
 18 52  1  0
 19 53  1  0
 24 54  1  0
 25 55  1  0
 26 56  1  0
 32 57  1  0
 32 58  1  0
 33 59  1  0
 33 60  1  0
 35 61  1  0
 35 62  1  0
 36 63  1  0
 36 64  1  0
 38 65  1  0
M  CHG  3   3  -1  21  -1  22  -1
M  END
>  <UniqueID>  (30) 
29

>  <SMILES>  (30) 
O=C([N-]c1cccc(S(=O)(=O)[C@H]2C[C@H]3CCC(C3)N2)c1[O-])[N-]c1cccc(S(=O)(=O)N2CCOCC2)c1O

>  <Energy>  (30) 
106.80755058315853

>  <Genealogy>  (30) 
O=C([N-]c1cccc(S(=O)(=O)C2CC3CCC(C3)N2)c1[O-])[N-]c1cccc(S(=O)(=O)N2CCOCC2)c1O (protonated)
O=C([N-]c1cccc(S(=O)(=O)[C@H]2C[C@H]3CCC(C3)N2)c1[O-])[N-]c1cccc(S(=O)(=O)N2CCOCC2)c1O (chirality)
O=C([N-]c1cccc(S(=O)(=O)[C@H]2C[C@H]3CCC(C3)N2)c1[O-])[N-]c1cccc(S(=O)(=O)N2CCOCC2)c1O (3D coordinates assigned)
O=C([N-]c1cccc(S(=O)(=O)[C@H]2C[C@H]3CCC(C3)N2)c1[O-])[N-]c1cccc(S(=O)(=O)N2CCOCC2)c1O (nonaromatic ring conformer: 106.80755058315853 kcal/mol)

>  <smiles>  (30) 
O=C(Nc1cccc(S(=O)(=O)C2CC3CCC(C3)N2)c1O)Nc1cccc(S(=O)(=O)N2CCOCC2)c1O

>  <score_type>  (30) 
oracle

>  <origin>  (30) 
adgpu

>  <m_score__min__energy>  (30) 
-17.100000000000001

>  <m_primary>  (30) 
energy

$$$$
30:0
     RDKit          3D

 53 56  0  0  0  0  0  0  0  0999 V2000
   -2.3430   17.7700  -34.1250 C   0  0  0  0  0  0  0  0  0  0  0  0
   -3.3350   18.7850  -34.2760 O   0  0  0  0  0  0  0  0  0  0  0  0
   -4.6150   18.7360  -33.7010 C   0  0  0  0  0  0  0  0  0  0  0  0
   -5.5650   17.7600  -34.0800 C   0  0  0  0  0  0  0  0  0  0  0  0
   -6.8290   17.7350  -33.4810 C   0  0  0  0  0  0  0  0  0  0  0  0
   -7.1570   18.6720  -32.4960 C   0  0  0  0  0  0  0  0  0  0  0  0
   -8.7500   18.6460  -31.7590 Cl  0  0  0  0  0  0  0  0  0  0  0  0
   -6.2190   19.6330  -32.1010 C   0  0  0  0  0  0  0  0  0  0  0  0
   -4.9560   19.6850  -32.7110 C   0  0  0  0  0  0  0  0  0  0  0  0
   -3.7990   20.9360  -32.2340 S   0  0  0  0  0  0  0  0  0  0  0  0
   -3.4510   21.7620  -33.4430 O   0  0  0  0  0  0  0  0  0  0  0  0
   -2.5230   20.3270  -31.7120 O   0  0  0  0  0  0  0  0  0  0  0  0
   -4.4670   21.9810  -31.0170 N   0  0  0  0  0  0  0  0  0  0  0  0
   -3.7480   22.4590  -29.8700 C   0  0  0  0  0  0  0  0  0  0  0  0
   -2.6940   21.7000  -29.3090 C   0  0  0  0  0  0  0  0  0  0  0  0
   -2.0360   22.2090  -28.1920 C   0  0  0  0  0  0  0  0  0  0  0  0
   -2.3660   23.4200  -27.6460 C   0  0  0  0  0  0  0  0  0  0  0  0
   -3.3860   24.2060  -28.1700 C   0  0  0  0  0  0  0  0  0  0  0  0
   -4.1050   23.7100  -29.2860 C   0  0  0  0  0  0  0  0  0  0  0  0
   -5.4200   24.6740  -29.9720 S   0  0  0  0  0  0  0  0  0  0  0  0
   -4.8940   25.4980  -31.1150 O   0  0  0  0  0  0  0  0  0  0  0  0
   -5.9670   25.5970  -28.9170 O   0  0  0  0  0  0  0  0  0  0  0  0
   -6.7220   23.6420  -30.5640 C   0  0  0  0  0  0  0  0  0  0  0  0
   -7.2400   23.8300  -31.8560 C   0  0  0  0  0  0  0  0  0  0  0  0
   -8.3210   23.0580  -32.2960 C   0  0  0  0  0  0  0  0  0  0  0  0
   -8.8890   22.0980  -31.4500 C   0  0  0  0  0  0  0  0  0  0  0  0
   -8.3770   21.9090  -30.1620 C   0  0  0  0  0  0  0  0  0  0  0  0
   -7.2980   22.6790  -29.7190 C   0  0  0  0  0  0  0  0  0  0  0  0
   -1.5320   23.6980  -26.6200 N   0  0  0  0  0  0  0  0  0  0  0  0
   -1.4590   24.9310  -25.8340 C   0  0  0  0  0  0  0  0  0  0  0  0
   -0.6980   22.6230  -26.5800 C   0  0  0  0  0  0  0  0  0  0  0  0
    0.2600   22.5200  -25.7670 O   0  0  0  0  0  0  0  0  0  0  0  0
   -0.9890   21.6840  -27.5220 N   0  0  0  0  0  0  0  0  0  0  0  0
   -0.2820   20.4350  -27.8090 C   0  0  0  0  0  0  0  0  0  0  0  0
   -2.1648   17.5877  -33.0549 H   0  0  0  0  0  0  0  0  0  0  0  0
   -2.6921   16.8422  -34.6018 H   0  0  0  0  0  0  0  0  0  0  0  0
   -1.4075   18.0978  -34.6018 H   0  0  0  0  0  0  0  0  0  0  0  0
   -5.3091   17.0168  -34.8495 H   0  0  0  0  0  0  0  0  0  0  0  0
   -7.5660   16.9772  -33.7852 H   0  0  0  0  0  0  0  0  0  0  0  0
   -6.4732   20.3516  -31.3079 H   0  0  0  0  0  0  0  0  0  0  0  0
   -2.4018   20.7328  -29.7438 H   0  0  0  0  0  0  0  0  0  0  0  0
   -3.6281   25.1851  -27.7309 H   0  0  0  0  0  0  0  0  0  0  0  0
   -6.7958   24.5843  -32.5221 H   0  0  0  0  0  0  0  0  0  0  0  0
   -8.7252   23.2057  -33.3083 H   0  0  0  0  0  0  0  0  0  0  0  0
   -9.7384   21.4920  -31.7983 H   0  0  0  0  0  0  0  0  0  0  0  0
   -8.8236   21.1544  -29.4979 H   0  0  0  0  0  0  0  0  0  0  0  0
   -6.8984   22.5304  -28.7050 H   0  0  0  0  0  0  0  0  0  0  0  0
   -1.4736   24.6840  -24.7622 H   0  0  0  0  0  0  0  0  0  0  0  0
   -0.5277   25.4646  -26.0746 H   0  0  0  0  0  0  0  0  0  0  0  0
   -2.3208   25.5708  -26.0746 H   0  0  0  0  0  0  0  0  0  0  0  0
   -0.0047   19.9451  -26.8639 H   0  0  0  0  0  0  0  0  0  0  0  0
   -0.9366   19.7682  -28.3894 H   0  0  0  0  0  0  0  0  0  0  0  0
    0.6266   20.6530  -28.3894 H   0  0  0  0  0  0  0  0  0  0  0  0
  1  2  1  0
  2  3  1  0
  3  4  2  0
  4  5  1  0
  5  6  2  0
  6  7  1  0
  6  8  1  0
  8  9  2  0
  9 10  1  0
 10 11  2  0
 10 12  2  0
 10 13  1  0
 13 14  1  0
 14 15  2  0
 15 16  1  0
 16 17  2  0
 17 18  1  0
 18 19  2  0
 19 20  1  0
 20 21  2  0
 20 22  2  0
 20 23  1  0
 23 24  2  0
 24 25  1  0
 25 26  2  0
 26 27  1  0
 27 28  2  0
 17 29  1  0
 29 30  1  0
 29 31  1  0
 31 32  2  0
 31 33  1  0
 33 34  1  0
  9  3  1  0
 19 14  1  0
 28 23  1  0
 33 16  1  0
  1 35  1  0
  1 36  1  0
  1 37  1  0
  4 38  1  0
  5 39  1  0
  8 40  1  0
 15 41  1  0
 18 42  1  0
 24 43  1  0
 25 44  1  0
 26 45  1  0
 27 46  1  0
 28 47  1  0
 30 48  1  0
 30 49  1  0
 30 50  1  0
 34 51  1  0
 34 52  1  0
 34 53  1  0
M  CHG  1  13  -1
M  END
>  <UniqueID>  (31) 
30

>  <SMILES>  (31) 
COc1ccc(Cl)cc1S(=O)(=O)[N-]c1cc2c(cc1S(=O)(=O)c1ccccc1)n(C)c(=O)n2C

>  <Energy>  (31) 
105.16052317393698

>  <Genealogy>  (31) 
COc1ccc(Cl)cc1S(=O)(=O)[N-]c1cc2c(cc1S(=O)(=O)c1ccccc1)n(C)c(=O)n2C (protonated)
COc1ccc(Cl)cc1S(=O)(=O)[N-]c1cc2c(cc1S(=O)(=O)c1ccccc1)n(C)c(=O)n2C (3D coordinates assigned)
COc1ccc(Cl)cc1S(=O)(=O)[N-]c1cc2c(cc1S(=O)(=O)c1ccccc1)n(C)c(=O)n2C (optimized conformer: 105.16052317393698 kcal/mol)

>  <smiles>  (31) 
COc1ccc(Cl)cc1S(=O)(=O)Nc1cc2c(cc1S(=O)(=O)c1ccccc1)n(C)c(=O)n2C

>  <score_type>  (31) 
oracle

>  <origin>  (31) 
adgpu

>  <m_score__min__energy>  (31) 
-11.300000000000001

>  <m_primary>  (31) 
energy

$$$$
31:0
     RDKit          3D

 46 48  0  0  0  0  0  0  0  0999 V2000
   -3.1360   19.8670  -33.9540 C   0  0  0  0  0  0  0  0  0  0  0  0
   -3.2430   21.1710  -33.3130 N   0  0  0  0  0  0  0  0  0  0  0  0
   -3.9330   21.3430  -32.0680 C   0  0  0  0  0  0  0  0  0  0  0  0
   -4.3900   20.3380  -31.4560 O   0  0  0  0  0  0  0  0  0  0  0  0
   -4.1640   22.7000  -31.5240 C   0  0  0  0  0  0  0  0  0  0  0  0
   -5.3830   23.3550  -31.8130 C   0  0  0  0  0  0  0  0  0  0  0  0
   -6.3910   22.7100  -32.5940 N   0  0  0  0  0  0  0  0  0  0  0  0
   -7.4730   21.5810  -31.8580 S   0  0  0  0  0  0  0  0  0  0  0  0
   -7.3340   21.6380  -30.3630 O   0  0  0  0  0  0  0  0  0  0  0  0
   -8.8860   21.9360  -32.2270 O   0  0  0  0  0  0  0  0  0  0  0  0
   -7.0900   19.9680  -32.4460 C   0  0  0  0  0  0  0  0  0  0  0  0
   -7.2660   18.8620  -31.6050 C   0  0  0  0  0  0  0  0  0  0  0  0
   -6.8590   17.5910  -32.0200 C   0  0  0  0  0  0  0  0  0  0  0  0
   -6.2750   17.4140  -33.2810 C   0  0  0  0  0  0  0  0  0  0  0  0
   -5.6950   15.8270  -33.7660 S   0  0  0  0  0  0  0  0  0  0  0  0
   -4.9100   15.0450  -32.3750 C   0  0  0  0  0  0  0  0  0  0  0  0
   -6.8480   14.9860  -34.2360 O   0  0  0  0  0  0  0  0  0  0  0  0
   -4.7060   15.9620  -34.8900 O   0  0  0  0  0  0  0  0  0  0  0  0
   -6.1030   18.5200  -34.1260 C   0  0  0  0  0  0  0  0  0  0  0  0
   -6.5070   19.7920  -33.7090 C   0  0  0  0  0  0  0  0  0  0  0  0
   -5.6450   24.6220  -31.2840 C   0  0  0  0  0  0  0  0  0  0  0  0
   -4.7080   25.2530  -30.4730 C   0  0  0  0  0  0  0  0  0  0  0  0
   -3.4990   24.6240  -30.1720 C   0  0  0  0  0  0  0  0  0  0  0  0
   -3.2110   23.3400  -30.6860 C   0  0  0  0  0  0  0  0  0  0  0  0
   -1.8150   22.7770  -30.4670 C   0  0  0  0  0  0  0  0  0  0  0  0
   -1.2450   23.1520  -29.0920 C   0  0  0  0  0  0  0  0  0  0  0  0
   -1.4000   24.6190  -28.8410 C   0  0  0  0  0  0  0  0  0  0  0  0
   -0.5550   25.2410  -28.1450 O   0  0  0  0  0  0  0  0  0  0  0  0
   -2.5560   25.2970  -29.3330 N   0  0  0  0  0  0  0  0  0  0  0  0
   -3.0718   19.0841  -33.1840 H   0  0  0  0  0  0  0  0  0  0  0  0
   -4.0229   19.6927  -34.5810 H   0  0  0  0  0  0  0  0  0  0  0  0
   -2.2326   19.8397  -34.5810 H   0  0  0  0  0  0  0  0  0  0  0  0
   -2.8130   22.0000  -33.7820 H   0  0  0  0  0  0  0  0  0  0  0  0
   -7.7261   18.9941  -30.6146 H   0  0  0  0  0  0  0  0  0  0  0  0
   -6.9977   16.7265  -31.3541 H   0  0  0  0  0  0  0  0  0  0  0  0
   -5.3228   15.4563  -31.4420 H   0  0  0  0  0  0  0  0  0  0  0  0
   -5.0947   13.9612  -32.4113 H   0  0  0  0  0  0  0  0  0  0  0  0
   -3.8269   15.2338  -32.4113 H   0  0  0  0  0  0  0  0  0  0  0  0
   -5.6492   18.3865  -35.1191 H   0  0  0  0  0  0  0  0  0  0  0  0
   -6.3670   20.6572  -34.3737 H   0  0  0  0  0  0  0  0  0  0  0  0
   -6.5978   25.1228  -31.5105 H   0  0  0  0  0  0  0  0  0  0  0  0
   -4.9208   26.2528  -30.0667 H   0  0  0  0  0  0  0  0  0  0  0  0
   -1.8595   21.6806  -30.5445 H   0  0  0  0  0  0  0  0  0  0  0  0
   -1.1543   23.2073  -31.2340 H   0  0  0  0  0  0  0  0  0  0  0  0
   -1.7833   22.5928  -28.3126 H   0  0  0  0  0  0  0  0  0  0  0  0
   -0.1747   22.8992  -29.0704 H   0  0  0  0  0  0  0  0  0  0  0  0
  1  2  1  0
  2  3  1  0
  3  4  2  0
  3  5  1  0
  5  6  2  0
  6  7  1  0
  7  8  1  0
  8  9  2  0
  8 10  2  0
  8 11  1  0
 11 12  2  0
 12 13  1  0
 13 14  2  0
 14 15  1  0
 15 16  1  0
 15 17  2  0
 15 18  2  0
 14 19  1  0
 19 20  2  0
  6 21  1  0
 21 22  2  0
 22 23  1  0
 23 24  2  0
 24 25  1  0
 25 26  1  0
 26 27  1  0
 27 28  2  0
 27 29  1  0
 24  5  1  0
 20 11  1  0
 29 23  1  0
  1 30  1  0
  1 31  1  0
  1 32  1  0
  2 33  1  0
 12 34  1  0
 13 35  1  0
 16 36  1  0
 16 37  1  0
 16 38  1  0
 19 39  1  0
 20 40  1  0
 21 41  1  0
 22 42  1  0
 25 43  1  0
 25 44  1  0
 26 45  1  0
 26 46  1  0
M  CHG  2   7  -1  29  -1
M  END
>  <UniqueID>  (32) 
31

>  <SMILES>  (32) 
CNC(=O)c1c([N-]S(=O)(=O)c2ccc(S(C)(=O)=O)cc2)ccc2c1CCC(=O)[N-]2

>  <Energy>  (32) 
57.07791472634484

>  <Genealogy>  (32) 
CNC(=O)c1c([N-]S(=O)(=O)c2ccc(S(C)(=O)=O)cc2)ccc2c1CCC(=O)[N-]2 (protonated)
CNC(=O)c1c([N-]S(=O)(=O)c2ccc(S(C)(=O)=O)cc2)ccc2c1CCC(=O)[N-]2 (3D coordinates assigned)
CNC(=O)c1c([N-]S(=O)(=O)c2ccc(S(C)(=O)=O)cc2)ccc2c1CCC(=O)[N-]2 (nonaromatic ring conformer: 57.07791472634484 kcal/mol)

>  <smiles>  (32) 
CNC(=O)c1c(NS(=O)(=O)c2ccc(S(C)(=O)=O)cc2)ccc2c1CCC(=O)N2

>  <score_type>  (32) 
oracle

>  <origin>  (32) 
adgpu

>  <m_score__min__energy>  (32) 
-11.42

>  <m_primary>  (32) 
energy

$$$$
32:0
     RDKit          3D

 63 66  0  0  0  0  0  0  0  0999 V2000
  -10.2350   21.1790  -31.9730 C   0  0  0  0  0  0  0  0  0  0  0  0
   -8.5260   21.5670  -31.6710 S   0  0  0  0  0  0  0  0  0  0  0  0
   -8.1560   22.8210  -32.4110 O   0  0  0  0  0  0  0  0  0  0  0  0
   -8.3210   21.7960  -30.1990 O   0  0  0  0  0  0  0  0  0  0  0  0
   -7.5110   20.2400  -32.2180 C   0  0  0  0  0  0  0  0  0  0  0  0
   -6.5000   20.4590  -33.1620 C   0  0  0  0  0  0  0  0  0  0  0  0
   -5.6970   19.4000  -33.5930 C   0  0  0  0  0  0  0  0  0  0  0  0
   -5.8840   18.1090  -33.0670 C   0  0  0  0  0  0  0  0  0  0  0  0
   -5.1170   17.0150  -33.4910 O   0  0  0  0  0  0  0  0  0  0  0  0
   -3.7430   17.0410  -33.7830 C   0  0  0  0  0  0  0  0  0  0  0  0
   -3.2510   16.9210  -35.0940 C   0  0  0  0  0  0  0  0  0  0  0  0
   -1.8760   16.9650  -35.3390 C   0  0  0  0  0  0  0  0  0  0  0  0
   -0.9710   17.1320  -34.2820 C   0  0  0  0  0  0  0  0  0  0  0  0
    0.5040   17.2470  -34.5800 C   0  0  0  0  0  0  0  0  0  0  0  0
    0.7470   17.9070  -35.8590 N   0  0  0  0  0  0  0  0  0  0  0  0
    0.7710   19.3270  -36.0360 C   0  0  0  0  0  0  0  0  0  0  0  0
    0.6630   19.8240  -37.1880 O   0  0  0  0  0  0  0  0  0  0  0  0
    0.9910   20.1950  -34.9180 N   0  0  0  0  0  0  0  0  0  0  0  0
    0.0050   20.5540  -33.9400 C   0  0  0  0  0  0  0  0  0  0  0  0
   -1.3580   20.6470  -34.2650 C   0  0  0  0  0  0  0  0  0  0  0  0
   -2.2970   20.9630  -33.2790 C   0  0  0  0  0  0  0  0  0  0  0  0
   -1.8860   21.1970  -31.9600 C   0  0  0  0  0  0  0  0  0  0  0  0
   -3.0820   21.5090  -30.6990 S   0  0  0  0  0  0  0  0  0  0  0  0
   -2.4100   21.4530  -29.3550 O   0  0  0  0  0  0  0  0  0  0  0  0
   -4.1360   20.4390  -30.7380 O   0  0  0  0  0  0  0  0  0  0  0  0
   -3.8370   23.0750  -30.9080 N   0  0  0  0  0  0  0  0  0  0  0  0
   -4.2950   23.6370  -29.6170 C   0  0  0  0  0  0  0  0  0  0  0  0
   -5.8180   23.5280  -29.4360 C   0  0  0  0  0  0  0  0  0  0  0  0
   -6.5440   24.2320  -30.5100 N   0  0  0  0  0  0  0  0  0  0  0  0
   -5.8650   24.1860  -31.8200 C   0  0  0  0  0  0  0  0  0  0  0  0
   -4.8960   23.0010  -31.9350 C   0  0  0  0  0  0  0  0  0  0  0  0
   -0.5200   21.1580  -31.6480 C   0  0  0  0  0  0  0  0  0  0  0  0
    0.4200   20.8450  -32.6350 C   0  0  0  0  0  0  0  0  0  0  0  0
   -1.4690   17.3040  -32.9760 C   0  0  0  0  0  0  0  0  0  0  0  0
   -2.8440   17.2460  -32.7330 C   0  0  0  0  0  0  0  0  0  0  0  0
   -6.9010   17.8930  -32.1320 C   0  0  0  0  0  0  0  0  0  0  0  0
   -7.7060   18.9520  -31.7030 C   0  0  0  0  0  0  0  0  0  0  0  0
  -10.7591   21.0600  -31.0132 H   0  0  0  0  0  0  0  0  0  0  0  0
  -10.7003   21.9944  -32.5463 H   0  0  0  0  0  0  0  0  0  0  0  0
  -10.3027   20.2426  -32.5463 H   0  0  0  0  0  0  0  0  0  0  0  0
   -6.3374   21.4692  -33.5659 H   0  0  0  0  0  0  0  0  0  0  0  0
   -4.9155   19.5766  -34.3467 H   0  0  0  0  0  0  0  0  0  0  0  0
   -3.9521   16.7917  -35.9317 H   0  0  0  0  0  0  0  0  0  0  0  0
   -1.5013   16.8679  -36.3686 H   0  0  0  0  0  0  0  0  0  0  0  0
    0.9846   17.8305  -33.7809 H   0  0  0  0  0  0  0  0  0  0  0  0
    0.9230   16.2313  -34.6334 H   0  0  0  0  0  0  0  0  0  0  0  0
   -1.6879   20.4705  -35.2994 H   0  0  0  0  0  0  0  0  0  0  0  0
   -3.3637   21.0283  -33.5397 H   0  0  0  0  0  0  0  0  0  0  0  0
   -3.8023   23.0904  -28.7994 H   0  0  0  0  0  0  0  0  0  0  0  0
   -4.0320   24.7050  -29.6047 H   0  0  0  0  0  0  0  0  0  0  0  0
   -6.1039   22.4659  -29.4485 H   0  0  0  0  0  0  0  0  0  0  0  0
   -6.0849   23.9952  -28.4766 H   0  0  0  0  0  0  0  0  0  0  0  0
   -7.4890   23.7880  -30.6010 H   0  0  0  0  0  0  0  0  0  0  0  0
   -6.6259   24.0981  -32.6095 H   0  0  0  0  0  0  0  0  0  0  0  0
   -5.2787   25.1106  -31.9268 H   0  0  0  0  0  0  0  0  0  0  0  0
   -5.4577   22.0643  -31.8043 H   0  0  0  0  0  0  0  0  0  0  0  0
   -4.4219   23.0339  -32.9270 H   0  0  0  0  0  0  0  0  0  0  0  0
   -0.1860   21.3745  -30.6225 H   0  0  0  0  0  0  0  0  0  0  0  0
    1.4910   20.8274  -32.3847 H   0  0  0  0  0  0  0  0  0  0  0  0
   -0.7728   17.4847  -32.1437 H   0  0  0  0  0  0  0  0  0  0  0  0
   -3.2218   17.3627  -31.7065 H   0  0  0  0  0  0  0  0  0  0  0  0
   -7.0687   16.8824  -31.7312 H   0  0  0  0  0  0  0  0  0  0  0  0
   -8.4956   18.7734  -30.9582 H   0  0  0  0  0  0  0  0  0  0  0  0
  1  2  1  0
  2  3  2  0
  2  4  2  0
  2  5  1  0
  5  6  2  0
  6  7  1  0
  7  8  2  0
  8  9  1  0
  9 10  1  0
 10 11  2  0
 11 12  1  0
 12 13  2  0
 13 14  1  0
 14 15  1  0
 15 16  1  0
 16 17  2  0
 16 18  1  0
 18 19  1  0
 19 20  2  0
 20 21  1  0
 21 22  2  0
 22 23  1  0
 23 24  2  0
 23 25  2  0
 23 26  1  0
 26 27  1  0
 27 28  1  0
 28 29  1  0
 29 30  1  0
 30 31  1  0
 22 32  1  0
 32 33  2  0
 13 34  1  0
 34 35  2  0
  8 36  1  0
 36 37  2  0
 37  5  1  0
 35 10  1  0
 33 19  1  0
 31 26  1  0
  1 38  1  0
  1 39  1  0
  1 40  1  0
  6 41  1  0
  7 42  1  0
 11 43  1  0
 12 44  1  0
 14 45  1  0
 14 46  1  0
 20 47  1  0
 21 48  1  0
 27 49  1  0
 27 50  1  0
 28 51  1  0
 28 52  1  0
 29 53  1  0
 30 54  1  0
 30 55  1  0
 31 56  1  0
 31 57  1  0
 32 58  1  0
 33 59  1  0
 34 60  1  0
 35 61  1  0
 36 62  1  0
 37 63  1  0
M  CHG  2  15  -1  18  -1
M  END
>  <UniqueID>  (33) 
32

>  <SMILES>  (33) 
CS(=O)(=O)c1ccc(Oc2ccc(C[N-]C(=O)[N-]c3ccc(S(=O)(=O)N4CCNCC4)cc3)cc2)cc1

>  <Energy>  (33) 
80.26905031349642

>  <Genealogy>  (33) 
CS(=O)(=O)c1ccc(Oc2ccc(C[N-]C(=O)[N-]c3ccc(S(=O)(=O)N4CCNCC4)cc3)cc2)cc1 (protonated)
CS(=O)(=O)c1ccc(Oc2ccc(C[N-]C(=O)[N-]c3ccc(S(=O)(=O)N4CCNCC4)cc3)cc2)cc1 (3D coordinates assigned)
CS(=O)(=O)c1ccc(Oc2ccc(C[N-]C(=O)[N-]c3ccc(S(=O)(=O)N4CCNCC4)cc3)cc2)cc1 (nonaromatic ring conformer: 80.26905031349642 kcal/mol)

>  <smiles>  (33) 
CS(=O)(=O)c1ccc(Oc2ccc(CNC(=O)Nc3ccc(S(=O)(=O)N4CCNCC4)cc3)cc2)cc1

>  <score_type>  (33) 
oracle

>  <origin>  (33) 
adgpu

>  <m_score__min__energy>  (33) 
-12.140000000000001

>  <m_primary>  (33) 
energy

$$$$
33:0
     RDKit          3D

 52 56  0  0  0  0  0  0  0  0999 V2000
   -4.2470   25.6670  -30.4790 O   0  0  0  0  0  0  0  0  0  0  0  0
   -4.2950   24.4100  -30.5380 C   0  0  0  0  0  0  0  0  0  0  0  0
   -5.3740   23.6430  -31.1040 C   0  0  0  0  0  0  0  0  0  0  0  0
   -6.5990   24.0520  -31.6200 C   0  0  0  0  0  0  0  0  0  0  0  0
   -7.4730   23.0680  -32.1080 C   0  0  0  0  0  0  0  0  0  0  0  0
   -7.1110   21.6950  -32.0830 C   0  0  0  0  0  0  0  0  0  0  0  0
   -8.0660   20.6780  -32.6000 C   0  0  0  0  0  0  0  0  0  0  0  0
   -9.2920   20.9780  -32.6710 O   0  0  0  0  0  0  0  0  0  0  0  0
   -7.6330   19.3480  -32.9870 N   0  0  0  0  0  0  0  0  0  0  0  0
   -7.2940   18.5460  -31.7960 C   0  0  0  0  0  0  0  0  0  0  0  0
   -7.0720   17.0870  -32.2060 C   0  0  0  0  0  0  0  0  0  0  0  0
   -6.2440   16.9880  -33.4200 N   0  0  0  0  0  0  0  0  0  0  0  0
   -5.9050   15.6890  -33.9720 C   0  0  0  0  0  0  0  0  0  0  0  0
   -4.5710   15.3220  -34.2470 C   0  0  0  0  0  0  0  0  0  0  0  0
   -4.2950   14.0600  -34.7770 C   0  0  0  0  0  0  0  0  0  0  0  0
   -5.3350   13.1680  -35.0320 C   0  0  0  0  0  0  0  0  0  0  0  0
   -6.6450   13.5550  -34.7550 C   0  0  0  0  0  0  0  0  0  0  0  0
   -6.8960   14.7880  -34.2390 N   0  0  0  0  0  0  0  0  0  0  0  0
   -5.5670   18.1960  -33.9230 C   0  0  0  0  0  0  0  0  0  0  0  0
   -6.4930   19.4370  -33.9330 C   0  0  0  0  0  0  0  0  0  0  0  0
   -5.8570   21.3240  -31.5430 C   0  0  0  0  0  0  0  0  0  0  0  0
   -5.0060   22.3200  -31.0630 C   0  0  0  0  0  0  0  0  0  0  0  0
   -3.6390   22.1580  -30.4630 C   0  0  0  0  0  0  0  0  0  0  0  0
   -3.2450   23.5320  -30.1200 N   0  0  0  0  0  0  0  0  0  0  0  0
   -2.0410   23.8940  -29.4150 C   0  0  0  0  0  0  0  0  0  0  0  0
   -0.9980   22.9650  -29.2730 C   0  0  0  0  0  0  0  0  0  0  0  0
    0.1590   23.3230  -28.5780 C   0  0  0  0  0  0  0  0  0  0  0  0
    0.2720   24.5620  -28.0340 N   0  0  0  0  0  0  0  0  0  0  0  0
   -0.7220   25.4810  -28.1420 C   0  0  0  0  0  0  0  0  0  0  0  0
   -0.5830   26.6170  -27.6170 O   0  0  0  0  0  0  0  0  0  0  0  0
   -1.8980   25.1650  -28.8310 C   0  0  0  0  0  0  0  0  0  0  0  0
   -6.8752   25.1165  -31.6450 H   0  0  0  0  0  0  0  0  0  0  0  0
   -8.4510   23.3642  -32.5151 H   0  0  0  0  0  0  0  0  0  0  0  0
   -8.4280   18.8600  -33.4640 H   0  0  0  0  0  0  0  0  0  0  0  0
   -6.3756   18.9414  -31.3376 H   0  0  0  0  0  0  0  0  0  0  0  0
   -8.1198   18.6005  -31.0714 H   0  0  0  0  0  0  0  0  0  0  0  0
   -6.5669   16.5577  -31.3846 H   0  0  0  0  0  0  0  0  0  0  0  0
   -8.0521   16.6351  -32.4186 H   0  0  0  0  0  0  0  0  0  0  0  0
   -3.7514   16.0272  -34.0447 H   0  0  0  0  0  0  0  0  0  0  0  0
   -3.2563   13.7697  -34.9933 H   0  0  0  0  0  0  0  0  0  0  0  0
   -5.1246   12.1711  -35.4467 H   0  0  0  0  0  0  0  0  0  0  0  0
   -7.4764   12.8627  -34.9539 H   0  0  0  0  0  0  0  0  0  0  0  0
   -4.7006   18.4081  -33.2793 H   0  0  0  0  0  0  0  0  0  0  0  0
   -5.2624   17.9992  -34.9615 H   0  0  0  0  0  0  0  0  0  0  0  0
   -5.8918   20.3192  -33.6679 H   0  0  0  0  0  0  0  0  0  0  0  0
   -6.9228   19.5049  -34.9433 H   0  0  0  0  0  0  0  0  0  0  0  0
   -5.5575   20.2663  -31.5022 H   0  0  0  0  0  0  0  0  0  0  0  0
   -3.6774   21.5248  -29.5643 H   0  0  0  0  0  0  0  0  0  0  0  0
   -2.9288   21.6682  -31.1455 H   0  0  0  0  0  0  0  0  0  0  0  0
   -1.0919   21.9589  -29.7076 H   0  0  0  0  0  0  0  0  0  0  0  0
    0.9808   22.5997  -28.4709 H   0  0  0  0  0  0  0  0  0  0  0  0
   -2.7060   25.9066  -28.9153 H   0  0  0  0  0  0  0  0  0  0  0  0
  1  2  2  0
  2  3  1  0
  3  4  2  0
  4  5  1  0
  5  6  2  0
  6  7  1  0
  7  8  2  0
  7  9  1  0
  9 10  1  0
 10 11  1  0
 11 12  1  0
 12 13  1  0
 13 14  2  0
 14 15  1  0
 15 16  2  0
 16 17  1  0
 17 18  2  0
 12 19  1  0
 19 20  1  0
  6 21  1  0
 21 22  2  0
 22 23  1  0
 23 24  1  0
 24 25  1  0
 25 26  1  0
 26 27  2  0
 27 28  1  0
 28 29  1  0
 29 30  2  0
 29 31  1  0
 24  2  1  0
 31 25  2  0
 22  3  1  0
 20  9  1  0
 18 13  1  0
  4 32  1  0
  5 33  1  0
  9 34  1  0
 10 35  1  0
 10 36  1  0
 11 37  1  0
 11 38  1  0
 14 39  1  0
 15 40  1  0
 16 41  1  0
 17 42  1  0
 19 43  1  0
 19 44  1  0
 20 45  1  0
 20 46  1  0
 21 47  1  0
 23 48  1  0
 23 49  1  0
 26 50  1  0
 27 51  1  0
 31 52  1  0
M  CHG  2   9   1  28  -1
M  END
>  <UniqueID>  (34) 
33

>  <SMILES>  (34) 
O=C1c2ccc(C(=O)[NH+]3CCN(c4ccccn4)CC3)cc2CN1c1cc[n-]c(=O)c1

>  <Energy>  (34) 
97.96212471838821

>  <Genealogy>  (34) 
O=C1c2ccc(C(=O)[NH+]3CCN(c4ccccn4)CC3)cc2CN1c1cc[n-]c(=O)c1 (protonated)
O=C1c2ccc(C(=O)[NH+]3CCN(c4ccccn4)CC3)cc2CN1c1cc[n-]c(=O)c1 (3D coordinates assigned)
O=C1c2ccc(C(=O)[NH+]3CCN(c4ccccn4)CC3)cc2CN1c1cc[n-]c(=O)c1 (nonaromatic ring conformer: 97.96212471838821 kcal/mol)

>  <smiles>  (34) 
O=C(c1ccc2c(c1)CN(c1cc[nH]c(=O)c1)C2=O)N1CCN(c2ccccn2)CC1

>  <score_type>  (34) 
oracle

>  <origin>  (34) 
adgpu

>  <m_score__min__energy>  (34) 
-10.15

>  <m_primary>  (34) 
energy

$$$$
34:0
     RDKit          3D

 23 24  0  0  0  0  0  0  0  0999 V2000
   -5.1650   23.4160  -32.3970 O   0  0  0  0  0  0  0  0  0  0  0  0
   -5.9110   22.9230  -31.5090 C   0  0  0  0  0  0  0  0  0  0  0  0
   -5.8200   23.3650  -30.1490 N   0  0  0  0  0  0  0  0  0  0  0  0
   -4.6190   23.5200  -29.3750 C   0  0  0  0  0  0  0  0  0  0  0  0
   -4.3780   22.7360  -28.2320 C   0  0  0  0  0  0  0  0  0  0  0  0
   -3.2150   22.9200  -27.4810 C   0  0  0  0  0  0  0  0  0  0  0  0
   -2.2860   23.8960  -27.8510 C   0  0  0  0  0  0  0  0  0  0  0  0
   -0.8300   24.1130  -26.8920 Cl  0  0  0  0  0  0  0  0  0  0  0  0
   -2.5270   24.7000  -28.9730 C   0  0  0  0  0  0  0  0  0  0  0  0
   -1.6100   25.6800  -29.3370 O   0  0  0  0  0  0  0  0  0  0  0  0
   -3.6930   24.5200  -29.7320 C   0  0  0  0  0  0  0  0  0  0  0  0
   -3.9080   25.3410  -30.8410 O   0  0  0  0  0  0  0  0  0  0  0  0
   -6.9210   21.9250  -31.8840 C   0  0  0  0  0  0  0  0  0  0  0  0
   -6.6820   20.7340  -32.5610 C   0  0  0  0  0  0  0  0  0  0  0  0
   -7.8430   19.9830  -32.7810 C   0  0  0  0  0  0  0  0  0  0  0  0
   -8.9960   20.5770  -32.2820 C   0  0  0  0  0  0  0  0  0  0  0  0
   -8.5690   22.0370  -31.5660 S   0  0  0  0  0  0  0  0  0  0  0  0
   -5.1101   21.9734  -27.9279 H   0  0  0  0  0  0  0  0  0  0  0  0
   -3.0297   22.2945  -26.5953 H   0  0  0  0  0  0  0  0  0  0  0  0
   -4.5190   25.0750  -31.6040 H   0  0  0  0  0  0  0  0  0  0  0  0
   -5.6823   20.4144  -32.8902 H   0  0  0  0  0  0  0  0  0  0  0  0
   -7.8425   19.0133  -33.3003 H   0  0  0  0  0  0  0  0  0  0  0  0
  -10.0132   20.1631  -32.3447 H   0  0  0  0  0  0  0  0  0  0  0  0
  1  2  2  0
  2  3  1  0
  3  4  1  0
  4  5  2  0
  5  6  1  0
  6  7  2  0
  7  8  1  0
  7  9  1  0
  9 10  1  0
  9 11  2  0
 11 12  1  0
  2 13  1  0
 13 14  2  0
 14 15  1  0
 15 16  2  0
 16 17  1  0
 11  4  1  0
 17 13  1  0
  5 18  1  0
  6 19  1  0
 12 20  1  0
 14 21  1  0
 15 22  1  0
 16 23  1  0
M  CHG  2   3  -1  10  -1
M  END
>  <UniqueID>  (35) 
34

>  <SMILES>  (35) 
O=C([N-]c1ccc(Cl)c([O-])c1O)c1cccs1

>  <Energy>  (35) 
53.36400448461081

>  <Genealogy>  (35) 
O=C([N-]c1ccc(Cl)c([O-])c1O)c1cccs1 (protonated)
O=C([N-]c1ccc(Cl)c([O-])c1O)c1cccs1 (3D coordinates assigned)
O=C([N-]c1ccc(Cl)c([O-])c1O)c1cccs1 (optimized conformer: 53.36400448461081 kcal/mol)

>  <smiles>  (35) 
O=C(Nc1ccc(Cl)c(O)c1O)c1cccs1

>  <score_type>  (35) 
oracle

>  <origin>  (35) 
adgpu

>  <m_score__min__energy>  (35) 
-11.039999999999999

>  <m_primary>  (35) 
energy

$$$$
35:0
     RDKit          3D

 42 44  0  0  0  0  0  0  0  0999 V2000
   -8.4610   19.9430  -32.3830 C   0  0  0  0  0  0  0  0  0  0  0  0
   -8.0250   18.4840  -32.3600 C   0  0  0  0  0  0  0  0  0  0  0  0
   -6.7140   18.3380  -32.9840 N   0  0  0  0  0  0  0  0  0  0  0  0
   -5.5450   18.7740  -32.4770 C   0  0  0  0  0  0  0  0  0  0  0  0
   -4.5630   18.4950  -33.3980 C   0  0  0  0  0  0  0  0  0  0  0  0
   -2.8500   18.8230  -33.2420 S   0  0  0  0  0  0  0  0  0  0  0  0
   -2.1540   17.6210  -32.6670 O   0  0  0  0  0  0  0  0  0  0  0  0
   -2.2650   19.1050  -34.5980 O   0  0  0  0  0  0  0  0  0  0  0  0
   -2.6210   20.2110  -32.1840 C   0  0  0  0  0  0  0  0  0  0  0  0
   -1.5040   20.2750  -31.3420 C   0  0  0  0  0  0  0  0  0  0  0  0
   -1.3090   21.3870  -30.5170 C   0  0  0  0  0  0  0  0  0  0  0  0
   -2.2340   22.4460  -30.5190 C   0  0  0  0  0  0  0  0  0  0  0  0
   -2.0420   23.6110  -29.6980 N   0  0  0  0  0  0  0  0  0  0  0  0
   -2.3250   23.6530  -28.2900 C   0  0  0  0  0  0  0  0  0  0  0  0
   -3.1310   22.8220  -27.7870 O   0  0  0  0  0  0  0  0  0  0  0  0
   -1.7390   24.7090  -27.4290 C   0  0  0  0  0  0  0  0  0  0  0  0
   -1.6630   24.5040  -26.0380 C   0  0  0  0  0  0  0  0  0  0  0  0
   -1.1220   25.4870  -25.2050 C   0  0  0  0  0  0  0  0  0  0  0  0
   -0.6450   26.6810  -25.7480 C   0  0  0  0  0  0  0  0  0  0  0  0
   -0.6990   26.8910  -27.1270 C   0  0  0  0  0  0  0  0  0  0  0  0
   -1.2340   25.9110  -27.9720 C   0  0  0  0  0  0  0  0  0  0  0  0
   -1.2320   26.1340  -29.3440 O   0  0  0  0  0  0  0  0  0  0  0  0
   -3.3350   22.3880  -31.3870 C   0  0  0  0  0  0  0  0  0  0  0  0
   -3.5300   21.2760  -32.2120 C   0  0  0  0  0  0  0  0  0  0  0  0
   -5.2050   17.8840  -34.4570 C   0  0  0  0  0  0  0  0  0  0  0  0
   -6.5220   17.8080  -34.1830 N   0  0  0  0  0  0  0  0  0  0  0  0
   -8.5705   20.3093  -31.3516 H   0  0  0  0  0  0  0  0  0  0  0  0
   -7.7032   20.5439  -32.9070 H   0  0  0  0  0  0  0  0  0  0  0  0
   -9.4243   20.0296  -32.9070 H   0  0  0  0  0  0  0  0  0  0  0  0
   -7.9714   18.1376  -31.3174 H   0  0  0  0  0  0  0  0  0  0  0  0
   -8.7568   17.8827  -32.9194 H   0  0  0  0  0  0  0  0  0  0  0  0
   -5.4018   19.2644  -31.5028 H   0  0  0  0  0  0  0  0  0  0  0  0
   -0.7782   19.4485  -31.3295 H   0  0  0  0  0  0  0  0  0  0  0  0
   -0.4263   21.4336  -29.8622 H   0  0  0  0  0  0  0  0  0  0  0  0
   -1.7870   24.5080  -30.1690 H   0  0  0  0  0  0  0  0  0  0  0  0
   -2.0322   23.5632  -25.6038 H   0  0  0  0  0  0  0  0  0  0  0  0
   -1.0720   25.3194  -24.1190 H   0  0  0  0  0  0  0  0  0  0  0  0
   -0.2266   27.4564  -25.0894 H   0  0  0  0  0  0  0  0  0  0  0  0
   -0.3191   27.8317  -27.5522 H   0  0  0  0  0  0  0  0  0  0  0  0
   -4.0499   23.2234  -31.4187 H   0  0  0  0  0  0  0  0  0  0  0  0
   -4.3995   21.2376  -32.8847 H   0  0  0  0  0  0  0  0  0  0  0  0
   -4.7203   17.5189  -35.3745 H   0  0  0  0  0  0  0  0  0  0  0  0
  1  2  1  0
  2  3  1  0
  3  4  1  0
  4  5  2  0
  5  6  1  0
  6  7  2  0
  6  8  2  0
  6  9  1  0
  9 10  2  0
 10 11  1  0
 11 12  2  0
 12 13  1  0
 13 14  1  0
 14 15  2  0
 14 16  1  0
 16 17  2  0
 17 18  1  0
 18 19  2  0
 19 20  1  0
 20 21  2  0
 21 22  1  0
 12 23  1  0
 23 24  2  0
  5 25  1  0
 25 26  2  0
 26  3  1  0
 24  9  1  0
 21 16  1  0
  1 27  1  0
  1 28  1  0
  1 29  1  0
  2 30  1  0
  2 31  1  0
  4 32  1  0
 10 33  1  0
 11 34  1  0
 13 35  1  0
 17 36  1  0
 18 37  1  0
 19 38  1  0
 20 39  1  0
 23 40  1  0
 24 41  1  0
 25 42  1  0
M  CHG  1  22  -1
M  END
>  <UniqueID>  (36) 
35

>  <SMILES>  (36) 
CCn1cc(S(=O)(=O)c2ccc(NC(=O)c3ccccc3[O-])cc2)cn1

>  <Energy>  (36) 
80.13818417261942

>  <Genealogy>  (36) 
CCn1cc(S(=O)(=O)c2ccc(NC(=O)c3ccccc3[O-])cc2)cn1 (protonated)
CCn1cc(S(=O)(=O)c2ccc(NC(=O)c3ccccc3[O-])cc2)cn1 (3D coordinates assigned)
CCn1cc(S(=O)(=O)c2ccc(NC(=O)c3ccccc3[O-])cc2)cn1 (optimized conformer: 80.13818417261942 kcal/mol)

>  <smiles>  (36) 
CCn1cc(S(=O)(=O)c2ccc(NC(=O)c3ccccc3O)cc2)cn1

>  <score_type>  (36) 
oracle

>  <origin>  (36) 
adgpu

>  <m_score__min__energy>  (36) 
-11.4

>  <m_primary>  (36) 
energy

$$$$
36:0
     RDKit          3D

 60 63  0  0  0  0  0  0  0  0999 V2000
    0.8779   23.1520  -36.9755 H   0  0  0  0  0  0  0  0  0  0  0  0
    0.9650   22.4190  -36.1600 C   0  0  0  0  0  0  0  0  0  0  0  0
    2.1510   21.7110  -35.9760 C   0  0  0  0  0  0  0  0  0  0  0  0
    3.2320   21.9470  -36.8300 O   0  0  0  0  0  0  0  0  0  0  0  0
    4.5430   22.2280  -36.3530 C   0  0  0  0  0  0  0  0  0  0  0  0
    4.5409   22.2275  -35.2530 H   0  0  0  0  0  0  0  0  0  0  0  0
    5.2390   21.4586  -36.7186 H   0  0  0  0  0  0  0  0  0  0  0  0
    4.8625   23.2150  -36.7186 H   0  0  0  0  0  0  0  0  0  0  0  0
    2.2420   20.7960  -34.9720 N   0  0  0  0  0  0  0  0  0  0  0  0
    1.2110   20.5400  -34.1200 C   0  0  0  0  0  0  0  0  0  0  0  0
    1.4060   19.4830  -33.0710 C   0  0  0  0  0  0  0  0  0  0  0  0
    1.3222   19.9373  -32.0727 H   0  0  0  0  0  0  0  0  0  0  0  0
    0.6361   18.7058  -33.1860 H   0  0  0  0  0  0  0  0  0  0  0  0
    2.4026   19.0317  -33.1860 H   0  0  0  0  0  0  0  0  0  0  0  0
    0.0000   21.2640  -34.2550 C   0  0  0  0  0  0  0  0  0  0  0  0
   -1.1580   21.0630  -33.3580 C   0  0  0  0  0  0  0  0  0  0  0  0
   -2.2690   20.4480  -33.8290 N   0  0  0  0  0  0  0  0  0  0  0  0
   -3.3690   20.2450  -33.0620 C   0  0  0  0  0  0  0  0  0  0  0  0
   -4.3890   19.6440  -33.6150 N   0  0  0  0  0  0  0  0  0  0  0  0
   -5.7010   19.4270  -33.0760 C   0  0  0  0  0  0  0  0  0  0  0  0
   -6.2320   18.1310  -33.0610 C   0  0  0  0  0  0  0  0  0  0  0  0
   -5.6262   17.2861  -33.4203 H   0  0  0  0  0  0  0  0  0  0  0  0
   -7.5290   17.9080  -32.5910 C   0  0  0  0  0  0  0  0  0  0  0  0
   -7.9364   16.8865  -32.5666 H   0  0  0  0  0  0  0  0  0  0  0  0
   -8.3090   18.9810  -32.1520 C   0  0  0  0  0  0  0  0  0  0  0  0
   -9.3273   18.8012  -31.7769 H   0  0  0  0  0  0  0  0  0  0  0  0
   -7.7980   20.2860  -32.1880 C   0  0  0  0  0  0  0  0  0  0  0  0
   -8.7960   21.6350  -31.6590 S   0  0  0  0  0  0  0  0  0  0  0  0
   -9.0070   21.5590  -30.1720 O   0  0  0  0  0  0  0  0  0  0  0  0
  -10.1330   21.5670  -32.3420 O   0  0  0  0  0  0  0  0  0  0  0  0
   -7.9770   23.1660  -32.0740 C   0  0  0  0  0  0  0  0  0  0  0  0
   -8.7311   23.9595  -32.1819 H   0  0  0  0  0  0  0  0  0  0  0  0
   -7.4279   23.0252  -33.0167 H   0  0  0  0  0  0  0  0  0  0  0  0
   -6.9850   23.5660  -30.9900 C   0  0  0  0  0  0  0  0  0  0  0  0
   -7.4308   23.3862  -30.0006 H   0  0  0  0  0  0  0  0  0  0  0  0
   -6.0679   22.9674  -31.0932 H   0  0  0  0  0  0  0  0  0  0  0  0
   -6.7397   24.6333  -31.0932 H   0  0  0  0  0  0  0  0  0  0  0  0
   -6.5020   20.5080  -32.6730 C   0  0  0  0  0  0  0  0  0  0  0  0
   -6.1103   21.5338  -32.7384 H   0  0  0  0  0  0  0  0  0  0  0  0
   -3.3320   20.6610  -31.7040 C   0  0  0  0  0  0  0  0  0  0  0  0
   -4.2810   20.3780  -30.9230 O   0  0  0  0  0  0  0  0  0  0  0  0
   -2.2310   21.3370  -31.2290 N   0  0  0  0  0  0  0  0  0  0  0  0
   -2.1620   21.8040  -29.8240 C   0  0  1  0  0  0  0  0  0  0  0  0
   -2.9506   21.3544  -29.2027 H   0  0  0  0  0  0  0  0  0  0  0  0
   -0.8370   21.3350  -29.1980 C   0  0  0  0  0  0  0  0  0  0  0  0
   -0.9190   21.3640  -28.1014 H   0  0  0  0  0  0  0  0  0  0  0  0
   -0.6221   20.3062  -29.5225 H   0  0  0  0  0  0  0  0  0  0  0  0
   -0.0227   21.9995  -29.5225 H   0  0  0  0  0  0  0  0  0  0  0  0
   -2.4370   23.3340  -29.7640 C   0  0  0  0  0  0  0  0  0  0  0  0
   -1.3658   23.5825  -29.7927 H   0  0  0  0  0  0  0  0  0  0  0  0
   -3.7220   23.7700  -30.4600 C   0  0  0  0  0  0  0  0  0  0  0  0
   -3.7281   24.6743  -31.0863 H   0  0  0  0  0  0  0  0  0  0  0  0
   -4.4356   23.2896  -31.1455 H   0  0  0  0  0  0  0  0  0  0  0  0
   -3.6010   23.8930  -28.9500 C   0  0  0  0  0  0  0  0  0  0  0  0
   -3.5192   24.8861  -28.4841 H   0  0  0  0  0  0  0  0  0  0  0  0
   -4.1903   23.5384  -28.0915 H   0  0  0  0  0  0  0  0  0  0  0  0
   -1.1530   21.5400  -32.0450 C   0  0  0  0  0  0  0  0  0  0  0  0
   -0.2752   22.0830  -31.6648 H   0  0  0  0  0  0  0  0  0  0  0  0
   -0.1110   22.1910  -35.3020 C   0  0  0  0  0  0  0  0  0  0  0  0
   -1.0522   22.7414  -35.4473 H   0  0  0  0  0  0  0  0  0  0  0  0
  1  2  1  0
  2  3  2  0
  3  4  1  0
  4  5  1  0
  5  6  1  0
  5  7  1  0
  5  8  1  0
  3  9  1  0
  9 10  2  0
 10 11  1  0
 11 12  1  0
 11 13  1  0
 11 14  1  0
 10 15  1  0
 15 16  1  0
 16 17  1  0
 17 18  1  0
 18 19  2  0
 19 20  1  0
 20 21  2  0
 21 22  1  0
 21 23  1  0
 23 24  1  0
 23 25  2  0
 25 26  1  0
 25 27  1  0
 27 28  1  0
 28 29  2  0
 28 30  2  0
 28 31  1  0
 31 32  1  0
 31 33  1  0
 31 34  1  0
 34 35  1  0
 34 36  1  0
 34 37  1  0
 27 38  2  0
 38 39  1  0
 18 40  1  0
 40 41  2  0
 40 42  1  0
 42 43  1  0
 43 44  1  1
 43 45  1  0
 45 46  1  0
 45 47  1  0
 45 48  1  0
 43 49  1  0
 49 50  1  0
 49 51  1  0
 51 52  1  0
 51 53  1  0
 51 54  1  0
 54 55  1  0
 54 56  1  0
 42 57  1  0
 57 58  1  0
 15 59  2  0
 59 60  1  0
 59  2  1  0
 57 16  2  0
 38 20  1  0
 54 49  1  0
M  CHG  1  17  -1
M  END
>  <UniqueID>  (37) 
36

>  <SMILES>  (37) 
CCS(=O)(=O)c1cccc(/N=c2/[n-]c(-c3ccc(OC)nc3C)cn([C@@H](C)C3CC3)c2=O)c1

>  <Energy>  (37) 
345.6427318168675

>  <Genealogy>  (37) 
CCS(=O)(=O)c1cccc(N=c2[n-]c(-c3ccc(OC)nc3C)cn(C(C)C3CC3)c2=O)c1 (protonated)
CCS(=O)(=O)c1cccc(N=c2[n-]c(-c3ccc(OC)nc3C)cn([C@@H](C)C3CC3)c2=O)c1 (chirality)
CCS(=O)(=O)c1cccc(/N=c2/[n-]c(-c3ccc(OC)nc3C)cn([C@@H](C)C3CC3)c2=O)c1 (cis-trans isomerization)
CCS(=O)(=O)c1cccc(/N=c2/[n-]c(-c3ccc(OC)nc3C)cn([C@@H](C)C3CC3)c2=O)c1 (3D coordinates assigned)
CCS(=O)(=O)c1cccc(/N=c2/[n-]c(-c3ccc(OC)nc3C)cn([C@@H](C)C3CC3)c2=O)c1 (nonaromatic ring conformer: 345.6427318168675 kcal/mol)

>  <smiles>  (37) 
CCS(=O)(=O)c1cccc(N=c2[nH]c(-c3ccc(OC)nc3C)cn(C(C)C3CC3)c2=O)c1

>  <score_type>  (37) 
oracle

>  <origin>  (37) 
adgpu

>  <m_score__min__energy>  (37) 
-10.210000000000001

>  <m_primary>  (37) 
energy

$$$$
37:0
     RDKit          3D

 68 71  0  0  0  0  0  0  0  0999 V2000
   -2.7550   22.7960  -27.1030 C   0  0  0  0  0  0  0  0  0  0  0  0
   -1.8450   21.6210  -27.5330 C   0  0  0  0  0  0  0  0  0  0  0  0
   -2.3800   20.3440  -26.8460 C   0  0  0  0  0  0  0  0  0  0  0  0
   -0.4200   21.9180  -27.0250 C   0  0  0  0  0  0  0  0  0  0  0  0
   -1.8050   21.4160  -29.0610 C   0  0  0  0  0  0  0  0  0  0  0  0
   -0.7010   21.8080  -29.8560 C   0  0  0  0  0  0  0  0  0  0  0  0
   -0.6900   21.5770  -31.2350 C   0  0  0  0  0  0  0  0  0  0  0  0
   -1.7740   20.9470  -31.8560 C   0  0  0  0  0  0  0  0  0  0  0  0
   -1.7280   20.5950  -33.5820 S   0  0  0  0  0  0  0  0  0  0  0  0
   -3.1250   20.6160  -34.1360 O   0  0  0  0  0  0  0  0  0  0  0  0
   -0.9290   21.6620  -34.2760 O   0  0  0  0  0  0  0  0  0  0  0  0
   -1.0070   19.0520  -33.9110 N   0  0  0  0  0  0  0  0  0  0  0  0
   -1.7610   17.9010  -34.3000 C   0  0  0  0  0  0  0  0  0  0  0  0
   -1.2150   17.0040  -35.2240 C   0  0  0  0  0  0  0  0  0  0  0  0
   -1.9460   15.8890  -35.6390 C   0  0  0  0  0  0  0  0  0  0  0  0
   -3.2270   15.6510  -35.1220 C   0  0  0  0  0  0  0  0  0  0  0  0
   -3.9660   14.5540  -35.5630 O   0  0  0  0  0  0  0  0  0  0  0  0
   -3.7640   16.5250  -34.1590 C   0  0  0  0  0  0  0  0  0  0  0  0
   -5.3890   16.2640  -33.5180 S   0  0  0  0  0  0  0  0  0  0  0  0
   -6.2320   15.6400  -34.5930 O   0  0  0  0  0  0  0  0  0  0  0  0
   -5.3360   15.3300  -32.3420 O   0  0  0  0  0  0  0  0  0  0  0  0
   -6.0960   17.7980  -33.0120 C   0  0  0  0  0  0  0  0  0  0  0  0
   -6.8120   17.8770  -31.8100 C   0  0  0  0  0  0  0  0  0  0  0  0
   -7.4190   19.0790  -31.4300 C   0  0  0  0  0  0  0  0  0  0  0  0
   -7.3090   20.2140  -32.2440 C   0  0  0  0  0  0  0  0  0  0  0  0
   -8.1490   21.7010  -31.8060 S   0  0  0  0  0  0  0  0  0  0  0  0
   -9.5500   21.6660  -32.3500 O   0  0  0  0  0  0  0  0  0  0  0  0
   -8.2270   21.7990  -30.3070 O   0  0  0  0  0  0  0  0  0  0  0  0
   -7.3120   23.1370  -32.4600 C   0  0  0  0  0  0  0  0  0  0  0  0
   -6.2850   23.6500  -31.4850 C   0  0  0  0  0  0  0  0  0  0  0  0
   -6.6780   24.5090  -30.4440 C   0  0  0  0  0  0  0  0  0  0  0  0
   -5.7410   24.9610  -29.5100 C   0  0  0  0  0  0  0  0  0  0  0  0
   -4.4060   24.5650  -29.6100 C   0  0  0  0  0  0  0  0  0  0  0  0
   -4.0040   23.7170  -30.6450 C   0  0  0  0  0  0  0  0  0  0  0  0
   -4.9380   23.2570  -31.5800 C   0  0  0  0  0  0  0  0  0  0  0  0
   -4.5260   22.4390  -32.5810 F   0  0  0  0  0  0  0  0  0  0  0  0
   -6.5580   20.1460  -33.4260 C   0  0  0  0  0  0  0  0  0  0  0  0
   -5.9590   18.9430  -33.8110 C   0  0  0  0  0  0  0  0  0  0  0  0
   -3.0210   17.6380  -33.7440 C   0  0  0  0  0  0  0  0  0  0  0  0
   -2.8700   20.5500  -31.0870 C   0  0  0  0  0  0  0  0  0  0  0  0
   -2.8850   20.7750  -29.7090 C   0  0  0  0  0  0  0  0  0  0  0  0
   -2.7942   22.8466  -26.0049 H   0  0  0  0  0  0  0  0  0  0  0  0
   -2.3488   23.7384  -27.4992 H   0  0  0  0  0  0  0  0  0  0  0  0
   -3.7690   22.6385  -27.4992 H   0  0  0  0  0  0  0  0  0  0  0  0
   -2.3288   20.4662  -25.7540 H   0  0  0  0  0  0  0  0  0  0  0  0
   -3.4244   20.1755  -27.1475 H   0  0  0  0  0  0  0  0  0  0  0  0
   -1.7676   19.4814  -27.1475 H   0  0  0  0  0  0  0  0  0  0  0  0
   -0.4156   21.9189  -25.9250 H   0  0  0  0  0  0  0  0  0  0  0  0
    0.2694   21.1442  -27.3938 H   0  0  0  0  0  0  0  0  0  0  0  0
   -0.0971   22.9027  -27.3938 H   0  0  0  0  0  0  0  0  0  0  0  0
    0.1604   22.3013  -29.3821 H   0  0  0  0  0  0  0  0  0  0  0  0
    0.1761   21.8925  -31.8352 H   0  0  0  0  0  0  0  0  0  0  0  0
   -0.2057   17.1776  -35.6254 H   0  0  0  0  0  0  0  0  0  0  0  0
   -1.5147   15.1944  -36.3749 H   0  0  0  0  0  0  0  0  0  0  0  0
   -4.8510   14.3040  -35.1370 H   0  0  0  0  0  0  0  0  0  0  0  0
   -6.8971   16.9913  -31.1632 H   0  0  0  0  0  0  0  0  0  0  0  0
   -7.9849   19.1331  -30.4883 H   0  0  0  0  0  0  0  0  0  0  0  0
   -6.8112   22.8648  -33.4008 H   0  0  0  0  0  0  0  0  0  0  0  0
   -8.0559   23.9280  -32.6360 H   0  0  0  0  0  0  0  0  0  0  0  0
   -7.7279   24.8271  -30.3639 H   0  0  0  0  0  0  0  0  0  0  0  0
   -6.0561   25.6295  -28.6953 H   0  0  0  0  0  0  0  0  0  0  0  0
   -3.6704   24.9208  -28.8736 H   0  0  0  0  0  0  0  0  0  0  0  0
   -2.9507   23.4102  -30.7251 H   0  0  0  0  0  0  0  0  0  0  0  0
   -6.4397   21.0423  -34.0526 H   0  0  0  0  0  0  0  0  0  0  0  0
   -5.3781   18.8940  -34.7438 H   0  0  0  0  0  0  0  0  0  0  0  0
   -3.4295   18.3110  -32.9757 H   0  0  0  0  0  0  0  0  0  0  0  0
   -3.7267   20.0570  -31.5698 H   0  0  0  0  0  0  0  0  0  0  0  0
   -3.7527   20.4476  -29.1174 H   0  0  0  0  0  0  0  0  0  0  0  0
  1  2  1  0
  2  3  1  0
  2  4  1  0
  2  5  1  0
  5  6  2  0
  6  7  1  0
  7  8  2  0
  8  9  1  0
  9 10  2  0
  9 11  2  0
  9 12  1  0
 12 13  1  0
 13 14  2  0
 14 15  1  0
 15 16  2  0
 16 17  1  0
 16 18  1  0
 18 19  1  0
 19 20  2  0
 19 21  2  0
 19 22  1  0
 22 23  2  0
 23 24  1  0
 24 25  2  0
 25 26  1  0
 26 27  2  0
 26 28  2  0
 26 29  1  0
 29 30  1  0
 30 31  2  0
 31 32  1  0
 32 33  2  0
 33 34  1  0
 34 35  2  0
 35 36  1  0
 25 37  1  0
 37 38  2  0
 18 39  2  0
  8 40  1  0
 40 41  2  0
 41  5  1  0
 39 13  1  0
 38 22  1  0
 35 30  1  0
  1 42  1  0
  1 43  1  0
  1 44  1  0
  3 45  1  0
  3 46  1  0
  3 47  1  0
  4 48  1  0
  4 49  1  0
  4 50  1  0
  6 51  1  0
  7 52  1  0
 14 53  1  0
 15 54  1  0
 17 55  1  0
 23 56  1  0
 24 57  1  0
 29 58  1  0
 29 59  1  0
 31 60  1  0
 32 61  1  0
 33 62  1  0
 34 63  1  0
 37 64  1  0
 38 65  1  0
 39 66  1  0
 40 67  1  0
 41 68  1  0
M  CHG  1  12  -1
M  END
>  <UniqueID>  (38) 
37

>  <SMILES>  (38) 
CC(C)(C)c1ccc(S(=O)(=O)[N-]c2ccc(O)c(S(=O)(=O)c3ccc(S(=O)(=O)Cc4ccccc4F)cc3)c2)cc1

>  <Energy>  (38) 
73.812077506355

>  <Genealogy>  (38) 
CC(C)(C)c1ccc(S(=O)(=O)[N-]c2ccc(O)c(S(=O)(=O)c3ccc(S(=O)(=O)Cc4ccccc4F)cc3)c2)cc1 (protonated)
CC(C)(C)c1ccc(S(=O)(=O)[N-]c2ccc(O)c(S(=O)(=O)c3ccc(S(=O)(=O)Cc4ccccc4F)cc3)c2)cc1 (3D coordinates assigned)
CC(C)(C)c1ccc(S(=O)(=O)[N-]c2ccc(O)c(S(=O)(=O)c3ccc(S(=O)(=O)Cc4ccccc4F)cc3)c2)cc1 (optimized conformer: 73.812077506355 kcal/mol)

>  <smiles>  (38) 
CC(C)(C)c1ccc(S(=O)(=O)Nc2ccc(O)c(S(=O)(=O)c3ccc(S(=O)(=O)Cc4ccccc4F)cc3)c2)cc1

>  <score_type>  (38) 
oracle

>  <origin>  (38) 
adgpu

>  <m_score__min__energy>  (38) 
-12.19

>  <m_primary>  (38) 
energy

$$$$
38:0
     RDKit          3D

 54 57  0  0  0  0  0  0  0  0999 V2000
   -2.4150   20.0230  -27.3190 C   0  0  0  0  0  0  0  0  0  0  0  0
   -1.1210   20.3590  -27.8080 O   0  0  0  0  0  0  0  0  0  0  0  0
   -0.7820   20.4670  -29.1660 C   0  0  0  0  0  0  0  0  0  0  0  0
   -0.5680   19.3350  -29.9710 C   0  0  0  0  0  0  0  0  0  0  0  0
   -0.2140   19.4650  -31.3250 C   0  0  0  0  0  0  0  0  0  0  0  0
   -0.1170   20.7530  -31.9020 C   0  0  0  0  0  0  0  0  0  0  0  0
   -0.3180   21.8770  -31.0840 C   0  0  0  0  0  0  0  0  0  0  0  0
   -0.6420   21.7430  -29.7300 C   0  0  0  0  0  0  0  0  0  0  0  0
   -0.7800   23.1790  -28.7090 S   0  0  0  0  0  0  0  0  0  0  0  0
   -0.5990   22.8340  -27.2560 O   0  0  0  0  0  0  0  0  0  0  0  0
    0.2800   24.1660  -29.1130 O   0  0  0  0  0  0  0  0  0  0  0  0
   -2.3450   23.8910  -28.9330 N   0  0  0  0  0  0  0  0  0  0  0  0
   -3.3450   23.3860  -29.8280 C   0  0  0  0  0  0  0  0  0  0  0  0
   -3.5680   22.0060  -29.9810 C   0  0  0  0  0  0  0  0  0  0  0  0
   -4.5110   21.5310  -30.9040 C   0  0  0  0  0  0  0  0  0  0  0  0
   -5.2840   22.4490  -31.6440 C   0  0  0  0  0  0  0  0  0  0  0  0
   -5.0710   23.8250  -31.4790 C   0  0  0  0  0  0  0  0  0  0  0  0
   -4.1160   24.2900  -30.5710 C   0  0  0  0  0  0  0  0  0  0  0  0
   -3.9270   25.6580  -30.4160 O   0  0  0  0  0  0  0  0  0  0  0  0
   -6.2650   21.9640  -32.6870 C   0  0  0  0  0  0  0  0  0  0  0  0
   -6.7000   20.5800  -32.4480 N   0  0  0  0  0  0  0  0  0  0  0  0
   -5.5430   19.6920  -32.2790 C   0  0  0  0  0  0  0  0  0  0  0  0
   -4.7590   20.0480  -31.0100 C   0  0  0  0  0  0  0  0  0  0  0  0
    0.2620   21.0130  -33.3540 C   0  0  0  0  0  0  0  0  0  0  0  0
   -0.0840   19.9360  -34.4110 C   0  0  0  0  0  0  0  0  0  0  0  0
   -1.2770   19.1220  -34.1110 N   0  0  0  0  0  0  0  0  0  0  0  0
   -2.4990   19.8990  -33.8450 C   0  0  0  0  0  0  0  0  0  0  0  0
   -1.0640   17.9900  -33.1790 C   0  0  0  0  0  0  0  0  0  0  0  0
    0.0370   18.2180  -32.1290 C   0  0  0  0  0  0  0  0  0  0  0  0
   -2.4035   20.0260  -26.2191 H   0  0  0  0  0  0  0  0  0  0  0  0
   -3.1464   20.7610  -27.6800 H   0  0  0  0  0  0  0  0  0  0  0  0
   -2.6950   19.0224  -27.6800 H   0  0  0  0  0  0  0  0  0  0  0  0
   -0.6793   18.3315  -29.5345 H   0  0  0  0  0  0  0  0  0  0  0  0
   -0.2186   22.8832  -31.5171 H   0  0  0  0  0  0  0  0  0  0  0  0
   -2.9967   21.2915  -29.3702 H   0  0  0  0  0  0  0  0  0  0  0  0
   -5.6597   24.5434  -32.0684 H   0  0  0  0  0  0  0  0  0  0  0  0
   -7.1484   22.6193  -32.6726 H   0  0  0  0  0  0  0  0  0  0  0  0
   -5.7577   21.9919  -33.6626 H   0  0  0  0  0  0  0  0  0  0  0  0
   -7.2840   20.5510  -31.5770 H   0  0  0  0  0  0  0  0  0  0  0  0
   -5.8950   18.6525  -32.2049 H   0  0  0  0  0  0  0  0  0  0  0  0
   -4.8785   19.8124  -33.1473 H   0  0  0  0  0  0  0  0  0  0  0  0
   -5.3343   19.7193  -30.1319 H   0  0  0  0  0  0  0  0  0  0  0  0
   -3.7842   19.5403  -31.0561 H   0  0  0  0  0  0  0  0  0  0  0  0
   -0.2414   21.9420  -33.6599 H   0  0  0  0  0  0  0  0  0  0  0  0
    1.3617   21.0388  -33.3452 H   0  0  0  0  0  0  0  0  0  0  0  0
   -0.2516   20.4440  -35.3722 H   0  0  0  0  0  0  0  0  0  0  0  0
    0.7661   19.2380  -34.4252 H   0  0  0  0  0  0  0  0  0  0  0  0
   -2.6452   19.9920  -32.7587 H   0  0  0  0  0  0  0  0  0  0  0  0
   -2.4005   20.9007  -34.2888 H   0  0  0  0  0  0  0  0  0  0  0  0
   -3.3643   19.3849  -34.2888 H   0  0  0  0  0  0  0  0  0  0  0  0
   -2.0089   17.8008  -32.6486 H   0  0  0  0  0  0  0  0  0  0  0  0
   -0.7342   17.1399  -33.7942 H   0  0  0  0  0  0  0  0  0  0  0  0
    0.0657   17.3542  -31.4485 H   0  0  0  0  0  0  0  0  0  0  0  0
    0.9956   18.3353  -32.6556 H   0  0  0  0  0  0  0  0  0  0  0  0
  1  2  1  0
  2  3  1  0
  3  4  2  0
  4  5  1  0
  5  6  2  0
  6  7  1  0
  7  8  2  0
  8  9  1  0
  9 10  2  0
  9 11  2  0
  9 12  1  0
 12 13  1  0
 13 14  2  0
 14 15  1  0
 15 16  2  0
 16 17  1  0
 17 18  2  0
 18 19  1  0
 16 20  1  0
 20 21  1  0
 21 22  1  0
 22 23  1  0
  6 24  1  0
 24 25  1  0
 25 26  1  0
 26 27  1  0
 26 28  1  0
 28 29  1  0
  8  3  1  0
 18 13  1  0
 29  5  1  0
 23 15  1  0
  1 30  1  0
  1 31  1  0
  1 32  1  0
  4 33  1  0
  7 34  1  0
 14 35  1  0
 17 36  1  0
 20 37  1  0
 20 38  1  0
 21 39  1  0
 22 40  1  0
 22 41  1  0
 23 42  1  0
 23 43  1  0
 24 44  1  0
 24 45  1  0
 25 46  1  0
 25 47  1  0
 27 48  1  0
 27 49  1  0
 27 50  1  0
 28 51  1  0
 28 52  1  0
 29 53  1  0
 29 54  1  0
M  CHG  2  12  -1  19  -1
M  END
>  <UniqueID>  (39) 
38

>  <SMILES>  (39) 
COc1cc2c(cc1S(=O)(=O)[N-]c1cc3c(cc1[O-])CNCC3)CCN(C)CC2

>  <Energy>  (39) 
77.9840240763215

>  <Genealogy>  (39) 
COc1cc2c(cc1S(=O)(=O)[N-]c1cc3c(cc1[O-])CNCC3)CCN(C)CC2 (protonated)
COc1cc2c(cc1S(=O)(=O)[N-]c1cc3c(cc1[O-])CNCC3)CCN(C)CC2 (3D coordinates assigned)
COc1cc2c(cc1S(=O)(=O)[N-]c1cc3c(cc1[O-])CNCC3)CCN(C)CC2 (nonaromatic ring conformer: 77.9840240763215 kcal/mol)

>  <smiles>  (39) 
COc1cc2c(cc1S(=O)(=O)Nc1cc3c(cc1O)CNCC3)CCN(C)CC2

>  <score_type>  (39) 
oracle

>  <origin>  (39) 
adgpu

>  <m_score__min__energy>  (39) 
-12.039999999999999

>  <m_primary>  (39) 
energy

$$$$
39:0
     RDKit          3D

 51 54  0  0  0  0  0  0  0  0999 V2000
   -6.1220   16.9730  -31.3450 C   0  0  0  0  0  0  0  0  0  0  0  0
   -6.4010   18.3170  -31.9640 C   0  0  0  0  0  0  0  0  0  0  0  0
   -7.6620   18.8990  -31.7490 C   0  0  0  0  0  0  0  0  0  0  0  0
   -7.9650   20.1560  -32.2750 C   0  0  0  0  0  0  0  0  0  0  0  0
   -9.5470   20.8650  -32.0000 Cl  0  0  0  0  0  0  0  0  0  0  0  0
   -7.0090   20.8520  -33.0160 C   0  0  0  0  0  0  0  0  0  0  0  0
   -5.7560   20.2830  -33.2510 C   0  0  0  0  0  0  0  0  0  0  0  0
   -5.4460   19.0050  -32.7600 C   0  0  0  0  0  0  0  0  0  0  0  0
   -4.1250   18.4250  -33.1010 C   0  0  0  0  0  0  0  0  0  0  0  0
   -4.0360   17.6480  -34.0880 O   0  0  0  0  0  0  0  0  0  0  0  0
   -2.9390   18.7310  -32.3540 N   0  0  0  0  0  0  0  0  0  0  0  0
   -2.6070   19.9990  -31.7710 C   0  0  0  0  0  0  0  0  0  0  0  0
   -2.9180   21.1690  -32.4740 C   0  0  0  0  0  0  0  0  0  0  0  0
   -2.6430   22.4220  -31.9170 C   0  0  0  0  0  0  0  0  0  0  0  0
   -2.0520   22.5190  -30.6530 C   0  0  0  0  0  0  0  0  0  0  0  0
   -1.8230   23.7910  -30.1090 O   0  0  0  0  0  0  0  0  0  0  0  0
   -2.1460   24.1650  -28.7940 C   0  0  0  0  0  0  0  0  0  0  0  0
   -3.4790   24.0440  -28.3650 C   0  0  0  0  0  0  0  0  0  0  0  0
   -4.4550   23.5460  -29.2910 N   0  0  0  0  0  0  0  0  0  0  0  0
   -5.1800   24.4590  -30.5740 S   0  0  0  0  0  0  0  0  0  0  0  0
   -6.7770   25.0290  -30.0420 C   0  0  0  0  0  0  0  0  0  0  0  0
   -4.3190   25.6460  -30.9050 O   0  0  0  0  0  0  0  0  0  0  0  0
   -5.3470   23.5910  -31.7890 O   0  0  0  0  0  0  0  0  0  0  0  0
   -3.8270   24.4290  -27.0580 C   0  0  0  0  0  0  0  0  0  0  0  0
   -2.8590   24.9190  -26.1800 C   0  0  0  0  0  0  0  0  0  0  0  0
   -1.5240   25.0180  -26.5900 C   0  0  0  0  0  0  0  0  0  0  0  0
   -0.5320   25.4860  -25.7160 C   0  0  0  0  0  0  0  0  0  0  0  0
    0.7960   25.5480  -26.1420 C   0  0  0  0  0  0  0  0  0  0  0  0
    1.1210   25.1330  -27.4370 C   0  0  0  0  0  0  0  0  0  0  0  0
    2.3150   25.1720  -27.8320 O   0  0  0  0  0  0  0  0  0  0  0  0
    0.1480   24.6870  -28.2730 N   0  0  0  0  0  0  0  0  0  0  0  0
   -1.1610   24.6290  -27.8970 C   0  0  0  0  0  0  0  0  0  0  0  0
   -1.6800   21.3460  -29.9740 C   0  0  0  0  0  0  0  0  0  0  0  0
   -1.9530   20.0950  -30.5310 C   0  0  0  0  0  0  0  0  0  0  0  0
   -6.1407   17.0632  -30.2489 H   0  0  0  0  0  0  0  0  0  0  0  0
   -6.8901   16.2545  -31.6670 H   0  0  0  0  0  0  0  0  0  0  0  0
   -5.1313   16.6196  -31.6670 H   0  0  0  0  0  0  0  0  0  0  0  0
   -8.4179   18.3585  -31.1603 H   0  0  0  0  0  0  0  0  0  0  0  0
   -7.2429   21.8499  -33.4153 H   0  0  0  0  0  0  0  0  0  0  0  0
   -5.0038   20.8420  -33.8269 H   0  0  0  0  0  0  0  0  0  0  0  0
   -3.3810   21.1025  -33.4696 H   0  0  0  0  0  0  0  0  0  0  0  0
   -2.8928   23.3360  -32.4758 H   0  0  0  0  0  0  0  0  0  0  0  0
   -6.8141   25.0422  -28.9427 H   0  0  0  0  0  0  0  0  0  0  0  0
   -6.9508   26.0447  -30.4270 H   0  0  0  0  0  0  0  0  0  0  0  0
   -7.5546   24.3529  -30.4270 H   0  0  0  0  0  0  0  0  0  0  0  0
   -4.8717   24.3432  -26.7246 H   0  0  0  0  0  0  0  0  0  0  0  0
   -3.1455   25.2280  -25.1639 H   0  0  0  0  0  0  0  0  0  0  0  0
   -0.7997   25.8034  -24.6974 H   0  0  0  0  0  0  0  0  0  0  0  0
    1.5794   25.9199  -25.4652 H   0  0  0  0  0  0  0  0  0  0  0  0
   -1.1721   21.4137  -29.0006 H   0  0  0  0  0  0  0  0  0  0  0  0
   -1.6548   19.1808  -29.9968 H   0  0  0  0  0  0  0  0  0  0  0  0
  1  2  1  0
  2  3  2  0
  3  4  1  0
  4  5  1  0
  4  6  2  0
  6  7  1  0
  7  8  2  0
  8  9  1  0
  9 10  2  0
  9 11  1  0
 11 12  1  0
 12 13  2  0
 13 14  1  0
 14 15  2  0
 15 16  1  0
 16 17  1  0
 17 18  2  0
 18 19  1  0
 19 20  1  0
 20 21  1  0
 20 22  2  0
 20 23  2  0
 18 24  1  0
 24 25  2  0
 25 26  1  0
 26 27  1  0
 27 28  2  0
 28 29  1  0
 29 30  2  0
 29 31  1  0
 31 32  1  0
 15 33  1  0
 33 34  2  0
  8  2  1  0
 34 12  1  0
 32 17  1  0
 32 26  2  0
  1 35  1  0
  1 36  1  0
  1 37  1  0
  3 38  1  0
  6 39  1  0
  7 40  1  0
 13 41  1  0
 14 42  1  0
 21 43  1  0
 21 44  1  0
 21 45  1  0
 24 46  1  0
 25 47  1  0
 27 48  1  0
 28 49  1  0
 33 50  1  0
 34 51  1  0
M  CHG  3  11  -1  19  -1  31  -1
M  END
>  <UniqueID>  (40) 
39

>  <SMILES>  (40) 
Cc1cc(Cl)ccc1C(=O)[N-]c1ccc(Oc2c([N-]S(C)(=O)=O)ccc3ccc(=O)[n-]c23)cc1

>  <Energy>  (40) 
73.36979454373123

>  <Genealogy>  (40) 
Cc1cc(Cl)ccc1C(=O)[N-]c1ccc(Oc2c([N-]S(C)(=O)=O)ccc3ccc(=O)[n-]c23)cc1 (protonated)
Cc1cc(Cl)ccc1C(=O)[N-]c1ccc(Oc2c([N-]S(C)(=O)=O)ccc3ccc(=O)[n-]c23)cc1 (3D coordinates assigned)
Cc1cc(Cl)ccc1C(=O)[N-]c1ccc(Oc2c([N-]S(C)(=O)=O)ccc3ccc(=O)[n-]c23)cc1 (optimized conformer: 73.36979454373123 kcal/mol)

>  <smiles>  (40) 
Cc1cc(Cl)ccc1C(=O)Nc1ccc(Oc2c(NS(C)(=O)=O)ccc3ccc(=O)[nH]c23)cc1

>  <score_type>  (40) 
oracle

>  <origin>  (40) 
adgpu

>  <m_score__min__energy>  (40) 
-12.33

>  <m_primary>  (40) 
energy

$$$$
40:0
     RDKit          3D

 43 46  0  0  0  0  0  0  0  0999 V2000
   -3.8500   24.3000  -27.9070 O   0  0  0  0  0  0  0  0  0  0  0  0
   -2.8420   23.7060  -28.3880 C   0  0  0  0  0  0  0  0  0  0  0  0
   -1.6630   23.6080  -27.6300 C   0  0  0  0  0  0  0  0  0  0  0  0
   -1.5470   24.1560  -26.3390 C   0  0  0  0  0  0  0  0  0  0  0  0
   -0.3500   24.0290  -25.6280 C   0  0  0  0  0  0  0  0  0  0  0  0
    0.7370   23.3570  -26.1960 C   0  0  0  0  0  0  0  0  0  0  0  0
    0.6310   22.8090  -27.4770 C   0  0  0  0  0  0  0  0  0  0  0  0
   -0.5640   22.9320  -28.1950 C   0  0  0  0  0  0  0  0  0  0  0  0
   -0.6670   22.4020  -29.4370 N   0  0  0  0  0  0  0  0  0  0  0  0
   -1.8090   22.5020  -30.1630 C   0  0  0  0  0  0  0  0  0  0  0  0
   -1.8260   21.8400  -31.6680 S   0  0  0  0  0  0  0  0  0  0  0  0
   -2.9020   23.1540  -29.6430 N   0  0  0  0  0  0  0  0  0  0  0  0
   -4.1260   23.2640  -30.3990 C   0  0  0  0  0  0  0  0  0  0  0  0
   -4.8650   22.1110  -30.7000 C   0  0  0  0  0  0  0  0  0  0  0  0
   -6.0480   22.2030  -31.4450 C   0  0  0  0  0  0  0  0  0  0  0  0
   -6.9360   20.7350  -31.8500 S   0  0  0  0  0  0  0  0  0  0  0  0
   -8.0610   20.5740  -30.8660 O   0  0  0  0  0  0  0  0  0  0  0  0
   -7.5160   20.8480  -33.2330 O   0  0  0  0  0  0  0  0  0  0  0  0
   -5.8660   19.3520  -31.7590 N   0  0  0  0  0  0  0  0  0  0  0  0
   -5.0600   19.2240  -32.9800 C   0  0  0  0  0  0  0  0  0  0  0  0
   -5.7950   18.2790  -33.9200 C   0  0  0  0  0  0  0  0  0  0  0  0
   -6.8050   17.5450  -33.0560 C   0  0  0  0  0  0  0  0  0  0  0  0
   -6.6280   18.1020  -31.6510 C   0  0  0  0  0  0  0  0  0  0  0  0
   -6.4950   23.4570  -31.8840 C   0  0  0  0  0  0  0  0  0  0  0  0
   -5.7650   24.6090  -31.5780 C   0  0  0  0  0  0  0  0  0  0  0  0
   -4.5820   24.5170  -30.8400 C   0  0  0  0  0  0  0  0  0  0  0  0
   -3.8590   25.6690  -30.5500 O   0  0  0  0  0  0  0  0  0  0  0  0
   -2.3997   24.6852  -25.8885 H   0  0  0  0  0  0  0  0  0  0  0  0
   -0.2629   24.4588  -24.6192 H   0  0  0  0  0  0  0  0  0  0  0  0
    1.6772   23.2597  -25.6333 H   0  0  0  0  0  0  0  0  0  0  0  0
    1.4873   22.2806  -27.9214 H   0  0  0  0  0  0  0  0  0  0  0  0
   -4.5141   21.1292  -30.3494 H   0  0  0  0  0  0  0  0  0  0  0  0
   -5.2430   19.4690  -30.9260 H   0  0  0  0  0  0  0  0  0  0  0  0
   -4.9409   20.2086  -33.4557 H   0  0  0  0  0  0  0  0  0  0  0  0
   -4.0597   18.8325  -32.7432 H   0  0  0  0  0  0  0  0  0  0  0  0
   -6.3072   18.8463  -34.7111 H   0  0  0  0  0  0  0  0  0  0  0  0
   -5.1043   17.5828  -34.4182 H   0  0  0  0  0  0  0  0  0  0  0  0
   -7.8269   17.7330  -33.4171 H   0  0  0  0  0  0  0  0  0  0  0  0
   -6.6477   16.4567  -33.0838 H   0  0  0  0  0  0  0  0  0  0  0  0
   -7.6115   18.3006  -31.2001 H   0  0  0  0  0  0  0  0  0  0  0  0
   -6.0954   17.3799  -31.0147 H   0  0  0  0  0  0  0  0  0  0  0  0
   -7.4223   23.5346  -32.4706 H   0  0  0  0  0  0  0  0  0  0  0  0
   -6.1230   25.5915  -31.9193 H   0  0  0  0  0  0  0  0  0  0  0  0
  1  2  2  0
  2  3  1  0
  3  4  2  0
  4  5  1  0
  5  6  2  0
  6  7  1  0
  7  8  2  0
  8  9  1  0
  9 10  1  0
 10 11  2  0
 10 12  1  0
 12 13  1  0
 13 14  2  0
 14 15  1  0
 15 16  1  0
 16 17  2  0
 16 18  2  0
 16 19  1  0
 19 20  1  0
 20 21  1  0
 21 22  1  0
 22 23  1  0
 15 24  2  0
 24 25  1  0
 25 26  2  0
 26 27  1  0
 12  2  1  0
 26 13  1  0
  8  3  1  0
 23 19  1  0
  4 28  1  0
  5 29  1  0
  6 30  1  0
  7 31  1  0
 14 32  1  0
 19 33  1  0
 20 34  1  0
 20 35  1  0
 21 36  1  0
 21 37  1  0
 22 38  1  0
 22 39  1  0
 23 40  1  0
 23 41  1  0
 24 42  1  0
 25 43  1  0
M  CHG  3   9  -1  19   1  27  -1
M  END
>  <UniqueID>  (41) 
40

>  <SMILES>  (41) 
O=c1c2ccccc2[n-]c(=S)n1-c1cc(S(=O)(=O)[NH+]2CCCC2)ccc1[O-]

>  <Energy>  (41) 
63.87960596401642

>  <Genealogy>  (41) 
O=c1c2ccccc2[n-]c(=S)n1-c1cc(S(=O)(=O)[NH+]2CCCC2)ccc1[O-] (protonated)
O=c1c2ccccc2[n-]c(=S)n1-c1cc(S(=O)(=O)[NH+]2CCCC2)ccc1[O-] (3D coordinates assigned)
O=c1c2ccccc2[n-]c(=S)n1-c1cc(S(=O)(=O)[NH+]2CCCC2)ccc1[O-] (nonaromatic ring conformer: 63.87960596401642 kcal/mol)

>  <smiles>  (41) 
O=c1c2ccccc2[nH]c(=S)n1-c1cc(S(=O)(=O)N2CCCC2)ccc1O

>  <score_type>  (41) 
oracle

>  <origin>  (41) 
adgpu

>  <m_score__min__energy>  (41) 
-12.359999999999999

>  <m_primary>  (41) 
energy

$$$$
41:0
     RDKit          3D

 57 60  0  0  0  0  0  0  0  0999 V2000
   -3.6000   23.8130  -27.4080 O   0  0  0  0  0  0  0  0  0  0  0  0
   -3.4750   22.9210  -28.6100 S   0  0  0  0  0  0  0  0  0  0  0  0
   -3.6210   21.4950  -28.1570 O   0  0  0  0  0  0  0  0  0  0  0  0
   -1.9270   23.1010  -29.3760 N   0  0  0  0  0  0  0  0  0  0  0  0
   -1.1660   21.9990  -29.8910 C   0  0  0  0  0  0  0  0  0  0  0  0
   -0.4530   21.1410  -29.0380 C   0  0  0  0  0  0  0  0  0  0  0  0
    0.3030   20.0910  -29.5670 C   0  0  0  0  0  0  0  0  0  0  0  0
    0.3620   19.8950  -30.9480 C   0  0  0  0  0  0  0  0  0  0  0  0
   -0.3340   20.7520  -31.8120 C   0  0  0  0  0  0  0  0  0  0  0  0
   -0.2420   20.5200  -33.5630 S   0  0  0  0  0  0  0  0  0  0  0  0
    0.9000   19.5910  -33.8730 O   0  0  0  0  0  0  0  0  0  0  0  0
    0.0470   21.8430  -34.2170 O   0  0  0  0  0  0  0  0  0  0  0  0
   -1.7120   19.8610  -34.2400 N   0  0  0  0  0  0  0  0  0  0  0  0
   -2.9050   20.3810  -33.5750 C   0  0  0  0  0  0  0  0  0  0  0  0
   -3.9940   19.3370  -33.7720 C   0  0  0  0  0  0  0  0  0  0  0  0
   -3.2600   18.0480  -34.1090 C   0  0  0  0  0  0  0  0  0  0  0  0
   -1.7820   18.4090  -34.0920 C   0  0  0  0  0  0  0  0  0  0  0  0
   -1.0820   21.8110  -31.2790 C   0  0  0  0  0  0  0  0  0  0  0  0
   -4.7450   23.3280  -29.7670 C   0  0  0  0  0  0  0  0  0  0  0  0
   -5.8750   22.5040  -29.8910 C   0  0  0  0  0  0  0  0  0  0  0  0
   -6.8890   22.8180  -30.8060 C   0  0  0  0  0  0  0  0  0  0  0  0
   -8.3050   21.7720  -30.9610 S   0  0  0  0  0  0  0  0  0  0  0  0
   -9.1110   22.2120  -32.1510 O   0  0  0  0  0  0  0  0  0  0  0  0
   -9.1630   21.9260  -29.7360 O   0  0  0  0  0  0  0  0  0  0  0  0
   -7.8850   20.0860  -31.1510 N   0  0  0  0  0  0  0  0  0  0  0  0
   -6.7820   19.8970  -32.0910 C   0  0  0  0  0  0  0  0  0  0  0  0
   -6.9340   18.4920  -32.6580 C   0  0  0  0  0  0  0  0  0  0  0  0
   -8.3720   18.0910  -32.3640 C   0  0  0  0  0  0  0  0  0  0  0  0
   -8.9950   19.3010  -31.6870 C   0  0  0  0  0  0  0  0  0  0  0  0
   -6.7600   23.9550  -31.6160 C   0  0  0  0  0  0  0  0  0  0  0  0
   -5.6370   24.7770  -31.5000 C   0  0  0  0  0  0  0  0  0  0  0  0
   -4.6300   24.4690  -30.5810 C   0  0  0  0  0  0  0  0  0  0  0  0
   -3.5200   25.3000  -30.4840 O   0  0  0  0  0  0  0  0  0  0  0  0
   -1.6860   24.0650  -29.7030 H   0  0  0  0  0  0  0  0  0  0  0  0
   -0.4896   21.2958  -27.9496 H   0  0  0  0  0  0  0  0  0  0  0  0
    0.8529   19.4173  -28.8934 H   0  0  0  0  0  0  0  0  0  0  0  0
    0.9563   19.0658  -31.3594 H   0  0  0  0  0  0  0  0  0  0  0  0
   -2.7091   20.5292  -32.5028 H   0  0  0  0  0  0  0  0  0  0  0  0
   -3.2036   21.3535  -33.9933 H   0  0  0  0  0  0  0  0  0  0  0  0
   -4.5822   19.2155  -32.8504 H   0  0  0  0  0  0  0  0  0  0  0  0
   -4.6996   19.6258  -34.5649 H   0  0  0  0  0  0  0  0  0  0  0  0
   -3.4760   17.2743  -33.3575 H   0  0  0  0  0  0  0  0  0  0  0  0
   -3.5711   17.6425  -35.0831 H   0  0  0  0  0  0  0  0  0  0  0  0
   -1.3257   18.1009  -33.1397 H   0  0  0  0  0  0  0  0  0  0  0  0
   -1.2367   17.8984  -34.8994 H   0  0  0  0  0  0  0  0  0  0  0  0
   -1.6080   22.5010  -31.9551 H   0  0  0  0  0  0  0  0  0  0  0  0
   -5.9652   21.6043  -29.2646 H   0  0  0  0  0  0  0  0  0  0  0  0
   -6.8394   20.6412  -32.8990 H   0  0  0  0  0  0  0  0  0  0  0  0
   -5.8090   20.0223  -31.5934 H   0  0  0  0  0  0  0  0  0  0  0  0
   -6.7486   18.4924  -33.7423 H   0  0  0  0  0  0  0  0  0  0  0  0
   -6.2142   17.7905  -32.2111 H   0  0  0  0  0  0  0  0  0  0  0  0
   -8.9046   17.8547  -33.2970 H   0  0  0  0  0  0  0  0  0  0  0  0
   -8.4263   17.1933  -31.7306 H   0  0  0  0  0  0  0  0  0  0  0  0
   -9.5644   19.8951  -32.4170 H   0  0  0  0  0  0  0  0  0  0  0  0
   -9.6931   18.9998  -30.8920 H   0  0  0  0  0  0  0  0  0  0  0  0
   -7.5460   24.2005  -32.3454 H   0  0  0  0  0  0  0  0  0  0  0  0
   -5.5446   25.6707  -32.1346 H   0  0  0  0  0  0  0  0  0  0  0  0
  1  2  2  0
  2  3  2  0
  2  4  1  0
  4  5  1  0
  5  6  2  0
  6  7  1  0
  7  8  2  0
  8  9  1  0
  9 10  1  0
 10 11  2  0
 10 12  2  0
 10 13  1  0
 13 14  1  0
 14 15  1  0
 15 16  1  0
 16 17  1  0
  9 18  2  0
  2 19  1  0
 19 20  2  0
 20 21  1  0
 21 22  1  0
 22 23  2  0
 22 24  2  0
 22 25  1  0
 25 26  1  0
 26 27  1  0
 27 28  1  0
 28 29  1  0
 21 30  2  0
 30 31  1  0
 31 32  2  0
 32 33  1  0
 18  5  1  0
 32 19  1  0
 17 13  1  0
 29 25  1  0
  4 34  1  0
  6 35  1  0
  7 36  1  0
  8 37  1  0
 14 38  1  0
 14 39  1  0
 15 40  1  0
 15 41  1  0
 16 42  1  0
 16 43  1  0
 17 44  1  0
 17 45  1  0
 18 46  1  0
 20 47  1  0
 26 48  1  0
 26 49  1  0
 27 50  1  0
 27 51  1  0
 28 52  1  0
 28 53  1  0
 29 54  1  0
 29 55  1  0
 30 56  1  0
 31 57  1  0
M  CHG  1  33  -1
M  END
>  <UniqueID>  (42) 
41

>  <SMILES>  (42) 
O=S(=O)(Nc1cccc(S(=O)(=O)N2CCCC2)c1)c1cc(S(=O)(=O)N2CCCC2)ccc1[O-]

>  <Energy>  (42) 
67.97189997422946

>  <Genealogy>  (42) 
O=S(=O)(Nc1cccc(S(=O)(=O)N2CCCC2)c1)c1cc(S(=O)(=O)N2CCCC2)ccc1[O-] (protonated)
O=S(=O)(Nc1cccc(S(=O)(=O)N2CCCC2)c1)c1cc(S(=O)(=O)N2CCCC2)ccc1[O-] (3D coordinates assigned)
O=S(=O)(Nc1cccc(S(=O)(=O)N2CCCC2)c1)c1cc(S(=O)(=O)N2CCCC2)ccc1[O-] (nonaromatic ring conformer: 67.97189997422946 kcal/mol)

>  <smiles>  (42) 
O=S(=O)(Nc1cccc(S(=O)(=O)N2CCCC2)c1)c1cc(S(=O)(=O)N2CCCC2)ccc1O

>  <score_type>  (42) 
oracle

>  <origin>  (42) 
adgpu

>  <m_score__min__energy>  (42) 
-15.02

>  <m_primary>  (42) 
energy

$$$$
42:0
     RDKit          3D

 36 38  0  0  0  0  0  0  0  0999 V2000
   -4.9280   15.1540  -32.7960 C   0  0  0  0  0  0  0  0  0  0  0  0
   -6.0300   15.0260  -33.8410 C   0  0  0  0  0  0  0  0  0  0  0  0
   -6.3610   16.3030  -34.3870 O   0  0  0  0  0  0  0  0  0  0  0  0
   -6.4920   17.4950  -33.6560 C   0  0  0  0  0  0  0  0  0  0  0  0
   -7.5620   17.7270  -32.7510 C   0  0  0  0  0  0  0  0  0  0  0  0
   -7.6530   18.9370  -32.0420 C   0  0  0  0  0  0  0  0  0  0  0  0
   -6.6710   19.9060  -32.2400 C   0  0  0  0  0  0  0  0  0  0  0  0
   -6.6530   21.1160  -31.6240 N   0  0  0  0  0  0  0  0  0  0  0  0
   -5.5860   21.8440  -32.0290 C   0  0  0  0  0  0  0  0  0  0  0  0
   -5.2710   23.5130  -31.4640 S   0  0  0  0  0  0  0  0  0  0  0  0
   -5.1140   23.0510  -29.7020 C   0  0  0  0  0  0  0  0  0  0  0  0
   -3.7290   23.3530  -29.1830 C   0  0  0  0  0  0  0  0  0  0  0  0
   -3.1160   22.4530  -28.2980 C   0  0  0  0  0  0  0  0  0  0  0  0
   -1.8530   22.7280  -27.7710 C   0  0  0  0  0  0  0  0  0  0  0  0
   -1.1890   23.9080  -28.1160 C   0  0  0  0  0  0  0  0  0  0  0  0
    0.0650   24.1750  -27.5810 O   0  0  0  0  0  0  0  0  0  0  0  0
   -1.7880   24.8200  -28.9940 C   0  0  0  0  0  0  0  0  0  0  0  0
   -1.1110   25.9970  -29.3200 O   0  0  0  0  0  0  0  0  0  0  0  0
   -3.0570   24.5440  -29.5330 C   0  0  0  0  0  0  0  0  0  0  0  0
   -3.6470   25.4530  -30.4050 O   0  0  0  0  0  0  0  0  0  0  0  0
   -4.6240   21.0220  -33.1530 S   0  0  0  0  0  0  0  0  0  0  0  0
   -5.6270   19.6760  -33.1190 C   0  0  0  0  0  0  0  0  0  0  0  0
   -5.5120   18.4880  -33.8350 C   0  0  0  0  0  0  0  0  0  0  0  0
   -5.3692   15.1028  -31.7897 H   0  0  0  0  0  0  0  0  0  0  0  0
   -4.2061   14.3337  -32.9221 H   0  0  0  0  0  0  0  0  0  0  0  0
   -4.4133   16.1180  -32.9221 H   0  0  0  0  0  0  0  0  0  0  0  0
   -5.6846   14.3661  -34.6505 H   0  0  0  0  0  0  0  0  0  0  0  0
   -6.9253   14.6052  -33.3599 H   0  0  0  0  0  0  0  0  0  0  0  0
   -8.3277   16.9511  -32.6035 H   0  0  0  0  0  0  0  0  0  0  0  0
   -8.4839   19.1160  -31.3437 H   0  0  0  0  0  0  0  0  0  0  0  0
   -5.8499   23.6196  -29.1144 H   0  0  0  0  0  0  0  0  0  0  0  0
   -5.2953   21.9703  -29.6064 H   0  0  0  0  0  0  0  0  0  0  0  0
   -3.6344   21.5242  -28.0175 H   0  0  0  0  0  0  0  0  0  0  0  0
   -1.3790   22.0135  -27.0819 H   0  0  0  0  0  0  0  0  0  0  0  0
   -1.2480   26.4710  -30.2040 H   0  0  0  0  0  0  0  0  0  0  0  0
   -4.6717   18.3289  -34.5268 H   0  0  0  0  0  0  0  0  0  0  0  0
  1  2  1  0
  2  3  1  0
  3  4  1  0
  4  5  2  0
  5  6  1  0
  6  7  2  0
  7  8  1  0
  8  9  2  0
  9 10  1  0
 10 11  1  0
 11 12  1  0
 12 13  2  0
 13 14  1  0
 14 15  2  0
 15 16  1  0
 15 17  1  0
 17 18  1  0
 17 19  2  0
 19 20  1  0
  9 21  1  0
 21 22  1  0
 22 23  2  0
 23  4  1  0
 22  7  1  0
 19 12  1  0
  1 24  1  0
  1 25  1  0
  1 26  1  0
  2 27  1  0
  2 28  1  0
  5 29  1  0
  6 30  1  0
 11 31  1  0
 11 32  1  0
 13 33  1  0
 14 34  1  0
 18 35  1  0
 23 36  1  0
M  CHG  2  16  -1  20  -1
M  END
>  <UniqueID>  (43) 
42

>  <SMILES>  (43) 
CCOc1ccc2nc(SCc3ccc([O-])c(O)c3[O-])sc2c1

>  <Energy>  (43) 
66.81761613651726

>  <Genealogy>  (43) 
CCOc1ccc2nc(SCc3ccc([O-])c(O)c3[O-])sc2c1 (protonated)
CCOc1ccc2nc(SCc3ccc([O-])c(O)c3[O-])sc2c1 (3D coordinates assigned)
CCOc1ccc2nc(SCc3ccc([O-])c(O)c3[O-])sc2c1 (optimized conformer: 66.81761613651726 kcal/mol)

>  <smiles>  (43) 
CCOc1ccc2nc(SCc3ccc(O)c(O)c3O)sc2c1

>  <score_type>  (43) 
oracle

>  <origin>  (43) 
adgpu

>  <m_score__min__energy>  (43) 
-11.859999999999999

>  <m_primary>  (43) 
energy

$$$$
43:0
     RDKit          3D

 46 48  0  0  0  0  0  0  0  0999 V2000
    0.5040   20.4180  -31.4090 C   0  0  0  0  0  0  0  0  0  0  0  0
   -0.9080   20.6250  -30.9460 C   0  0  0  0  0  0  0  0  0  0  0  0
   -1.2180   20.5650  -29.5790 C   0  0  0  0  0  0  0  0  0  0  0  0
   -2.5270   20.8100  -29.1360 C   0  0  0  0  0  0  0  0  0  0  0  0
   -2.8650   20.7020  -27.6780 C   0  0  0  0  0  0  0  0  0  0  0  0
   -3.5310   21.0960  -30.0720 C   0  0  0  0  0  0  0  0  0  0  0  0
   -3.2220   21.1900  -31.4350 C   0  0  0  0  0  0  0  0  0  0  0  0
   -4.4640   21.5790  -32.6200 S   0  0  0  0  0  0  0  0  0  0  0  0
   -3.8820   22.6050  -33.5490 O   0  0  0  0  0  0  0  0  0  0  0  0
   -4.8450   20.3640  -33.4200 O   0  0  0  0  0  0  0  0  0  0  0  0
   -5.9020   22.2100  -31.8050 C   0  0  0  0  0  0  0  0  0  0  0  0
   -6.0360   23.3920  -31.0890 C   0  0  0  0  0  0  0  0  0  0  0  0
   -5.0870   24.5150  -30.9930 C   0  0  0  0  0  0  0  0  0  0  0  0
   -5.5070   25.6840  -31.1940 O   0  0  0  0  0  0  0  0  0  0  0  0
   -3.6990   24.3210  -30.6910 N   0  0  0  0  0  0  0  0  0  0  0  0
   -3.1140   24.2540  -29.3820 C   0  0  0  0  0  0  0  0  0  0  0  0
   -3.9000   24.2560  -28.2160 C   0  0  0  0  0  0  0  0  0  0  0  0
   -3.2920   24.1940  -26.9580 C   0  0  0  0  0  0  0  0  0  0  0  0
   -1.9020   24.1110  -26.8550 C   0  0  0  0  0  0  0  0  0  0  0  0
   -1.1160   24.0790  -28.0100 C   0  0  0  0  0  0  0  0  0  0  0  0
    0.6310   23.9630  -27.8820 Cl  0  0  0  0  0  0  0  0  0  0  0  0
   -1.7220   24.1410  -29.2700 C   0  0  0  0  0  0  0  0  0  0  0  0
   -7.2460   23.4180  -30.4980 N   0  0  0  0  0  0  0  0  0  0  0  0
   -7.8640   22.3240  -30.8340 O   0  0  0  0  0  0  0  0  0  0  0  0
   -7.1190   21.5750  -31.6130 C   0  0  0  0  0  0  0  0  0  0  0  0
   -7.6760   20.0470  -32.2800 S   0  0  0  0  0  0  0  0  0  0  0  0
   -6.7320   18.6970  -31.6090 C   0  0  0  0  0  0  0  0  0  0  0  0
   -7.5690   20.0530  -33.7790 O   0  0  0  0  0  0  0  0  0  0  0  0
   -9.1200   19.8620  -31.9090 O   0  0  0  0  0  0  0  0  0  0  0  0
   -1.9110   20.9540  -31.8680 C   0  0  0  0  0  0  0  0  0  0  0  0
    1.1657   20.3210  -30.5357 H   0  0  0  0  0  0  0  0  0  0  0  0
    0.5605   19.5020  -32.0154 H   0  0  0  0  0  0  0  0  0  0  0  0
    0.8210   21.2793  -32.0154 H   0  0  0  0  0  0  0  0  0  0  0  0
   -0.4302   20.3244  -28.8499 H   0  0  0  0  0  0  0  0  0  0  0  0
   -1.9877   20.9823  -27.0765 H   0  0  0  0  0  0  0  0  0  0  0  0
   -3.7009   21.3778  -27.4443 H   0  0  0  0  0  0  0  0  0  0  0  0
   -3.1542   19.6667  -27.4443 H   0  0  0  0  0  0  0  0  0  0  0  0
   -4.5668   21.2474  -29.7342 H   0  0  0  0  0  0  0  0  0  0  0  0
   -4.9961   24.3065  -28.2935 H   0  0  0  0  0  0  0  0  0  0  0  0
   -3.9099   24.2107  -26.0481 H   0  0  0  0  0  0  0  0  0  0  0  0
   -1.4255   24.0708  -25.8644 H   0  0  0  0  0  0  0  0  0  0  0  0
   -1.1018   24.1008  -30.1776 H   0  0  0  0  0  0  0  0  0  0  0  0
   -6.7616   18.7393  -30.5102 H   0  0  0  0  0  0  0  0  0  0  0  0
   -7.1614   17.7437  -31.9509 H   0  0  0  0  0  0  0  0  0  0  0  0
   -5.6893   18.7731  -31.9509 H   0  0  0  0  0  0  0  0  0  0  0  0
   -1.6672   21.0273  -32.9381 H   0  0  0  0  0  0  0  0  0  0  0  0
  1  2  1  0
  2  3  2  0
  3  4  1  0
  4  5  1  0
  4  6  2  0
  6  7  1  0
  7  8  1  0
  8  9  2  0
  8 10  2  0
  8 11  1  0
 11 12  1  0
 12 13  1  0
 13 14  2  0
 13 15  1  0
 15 16  1  0
 16 17  2  0
 17 18  1  0
 18 19  2  0
 19 20  1  0
 20 21  1  0
 20 22  2  0
 12 23  2  0
 23 24  1  0
 24 25  1  0
 25 26  1  0
 26 27  1  0
 26 28  2  0
 26 29  2  0
  7 30  2  0
 30  2  1  0
 25 11  2  0
 22 16  1  0
  1 31  1  0
  1 32  1  0
  1 33  1  0
  3 34  1  0
  5 35  1  0
  5 36  1  0
  5 37  1  0
  6 38  1  0
 17 39  1  0
 18 40  1  0
 19 41  1  0
 22 42  1  0
 27 43  1  0
 27 44  1  0
 27 45  1  0
 30 46  1  0
M  CHG  1  15  -1
M  END
>  <UniqueID>  (44) 
43

>  <SMILES>  (44) 
Cc1cc(C)cc(S(=O)(=O)c2c(C(=O)[N-]c3cccc(Cl)c3)noc2S(C)(=O)=O)c1

>  <Energy>  (44) 
83.2971666625422

>  <Genealogy>  (44) 
Cc1cc(C)cc(S(=O)(=O)c2c(C(=O)[N-]c3cccc(Cl)c3)noc2S(C)(=O)=O)c1 (protonated)
Cc1cc(C)cc(S(=O)(=O)c2c(C(=O)[N-]c3cccc(Cl)c3)noc2S(C)(=O)=O)c1 (3D coordinates assigned)
Cc1cc(C)cc(S(=O)(=O)c2c(C(=O)[N-]c3cccc(Cl)c3)noc2S(C)(=O)=O)c1 (optimized conformer: 83.2971666625422 kcal/mol)

>  <smiles>  (44) 
Cc1cc(C)cc(S(=O)(=O)c2c(C(=O)Nc3cccc(Cl)c3)noc2S(C)(=O)=O)c1

>  <score_type>  (44) 
oracle

>  <origin>  (44) 
adgpu

>  <m_score__min__energy>  (44) 
-10.59

>  <m_primary>  (44) 
energy

$$$$
44:0
     RDKit          3D

 54 57  0  0  0  0  0  0  0  0999 V2000
   -0.1530   19.8780  -35.3800 C   0  0  0  0  0  0  0  0  0  0  0  0
   -0.9890   19.9140  -34.1850 N   0  0  0  0  0  0  0  0  0  0  0  0
   -0.9900   20.9350  -33.3440 N   0  0  0  0  0  0  0  0  0  0  0  0
   -1.8620   20.6610  -32.3530 C   0  0  0  0  0  0  0  0  0  0  0  0
   -2.1330   21.5790  -31.2190 C   0  0  0  0  0  0  0  0  0  0  0  0
   -1.2520   21.6150  -30.1210 C   0  0  0  0  0  0  0  0  0  0  0  0
   -1.4940   22.4750  -29.0440 C   0  0  0  0  0  0  0  0  0  0  0  0
   -2.6140   23.3090  -29.0500 C   0  0  0  0  0  0  0  0  0  0  0  0
   -2.9400   24.4810  -27.5790 Br  0  0  0  0  0  0  0  0  0  0  0  0
   -3.4950   23.2830  -30.1350 C   0  0  0  0  0  0  0  0  0  0  0  0
   -3.2590   22.4260  -31.2130 C   0  0  0  0  0  0  0  0  0  0  0  0
   -2.4350   19.4180  -32.5750 C   0  0  0  0  0  0  0  0  0  0  0  0
   -1.8580   18.9710  -33.7490 C   0  0  0  0  0  0  0  0  0  0  0  0
   -2.1560   17.6750  -34.3960 C   0  0  0  0  0  0  0  0  0  0  0  0
   -1.2390   17.0780  -35.0220 O   0  0  0  0  0  0  0  0  0  0  0  0
   -3.4510   17.0760  -34.2700 N   0  0  0  0  0  0  0  0  0  0  0  0
   -4.6370   17.6950  -33.7520 C   0  0  0  0  0  0  0  0  0  0  0  0
   -5.3140   18.6220  -34.5560 C   0  0  0  0  0  0  0  0  0  0  0  0
   -6.4840   19.2350  -34.0980 C   0  0  0  0  0  0  0  0  0  0  0  0
   -7.0010   18.9130  -32.8360 C   0  0  0  0  0  0  0  0  0  0  0  0
   -8.4660   19.6900  -32.2380 S   0  0  0  0  0  0  0  0  0  0  0  0
   -8.7420   19.1870  -30.8480 O   0  0  0  0  0  0  0  0  0  0  0  0
   -9.6340   19.3340  -33.1170 O   0  0  0  0  0  0  0  0  0  0  0  0
   -8.2470   21.4240  -32.2100 N   0  0  0  0  0  0  0  0  0  0  0  0
   -6.8020   21.7430  -32.3270 C   0  0  0  0  0  0  0  0  0  0  0  0
   -6.4970   23.1640  -31.8420 C   0  0  0  0  0  0  0  0  0  0  0  0
   -6.8410   23.3250  -30.3510 C   0  0  0  0  0  0  0  0  0  0  0  0
   -7.9310   22.3440  -29.8830 C   0  0  0  0  0  0  0  0  0  0  0  0
   -8.9130   22.0260  -31.0220 C   0  0  0  0  0  0  0  0  0  0  0  0
   -6.3400   17.9720  -32.0390 C   0  0  0  0  0  0  0  0  0  0  0  0
   -5.1700   17.3580  -32.4940 C   0  0  0  0  0  0  0  0  0  0  0  0
    0.9059   19.8324  -35.0855 H   0  0  0  0  0  0  0  0  0  0  0  0
   -0.4059   18.9899  -35.9778 H   0  0  0  0  0  0  0  0  0  0  0  0
   -0.3286   20.7845  -35.9778 H   0  0  0  0  0  0  0  0  0  0  0  0
   -0.3668   20.9621  -30.1099 H   0  0  0  0  0  0  0  0  0  0  0  0
   -0.8003   22.4941  -28.1906 H   0  0  0  0  0  0  0  0  0  0  0  0
   -4.3774   23.9397  -30.1401 H   0  0  0  0  0  0  0  0  0  0  0  0
   -3.9571   22.4125  -32.0629 H   0  0  0  0  0  0  0  0  0  0  0  0
   -3.1827   18.9021  -31.9547 H   0  0  0  0  0  0  0  0  0  0  0  0
   -4.9223   18.8689  -35.5538 H   0  0  0  0  0  0  0  0  0  0  0  0
   -7.0003   19.9724  -34.7302 H   0  0  0  0  0  0  0  0  0  0  0  0
   -8.7250   21.7950  -33.0640 H   0  0  0  0  0  0  0  0  0  0  0  0
   -6.2282   21.0276  -31.7196 H   0  0  0  0  0  0  0  0  0  0  0  0
   -6.5191   21.6734  -33.3877 H   0  0  0  0  0  0  0  0  0  0  0  0
   -5.4268   23.3719  -31.9885 H   0  0  0  0  0  0  0  0  0  0  0  0
   -7.1102   23.8704  -32.4208 H   0  0  0  0  0  0  0  0  0  0  0  0
   -5.9309   23.1483  -29.7589 H   0  0  0  0  0  0  0  0  0  0  0  0
   -7.2282   24.3446  -30.2078 H   0  0  0  0  0  0  0  0  0  0  0  0
   -7.4549   21.4108  -29.5477 H   0  0  0  0  0  0  0  0  0  0  0  0
   -8.4904   22.8097  -29.0583 H   0  0  0  0  0  0  0  0  0  0  0  0
   -9.6682   21.3194  -30.6473 H   0  0  0  0  0  0  0  0  0  0  0  0
   -9.3651   22.9760  -31.3430 H   0  0  0  0  0  0  0  0  0  0  0  0
   -6.7435   17.7141  -31.0487 H   0  0  0  0  0  0  0  0  0  0  0  0
   -4.6642   16.6090  -31.8669 H   0  0  0  0  0  0  0  0  0  0  0  0
  1  2  1  0
  2  3  1  0
  3  4  2  0
  4  5  1  0
  5  6  2  0
  6  7  1  0
  7  8  2  0
  8  9  1  0
  8 10  1  0
 10 11  2  0
  4 12  1  0
 12 13  2  0
 13 14  1  0
 14 15  2  0
 14 16  1  0
 16 17  1  0
 17 18  2  0
 18 19  1  0
 19 20  2  0
 20 21  1  0
 21 22  2  0
 21 23  2  0
 21 24  1  0
 24 25  1  0
 25 26  1  0
 26 27  1  0
 27 28  1  0
 28 29  1  0
 20 30  1  0
 30 31  2  0
 13  2  1  0
 31 17  1  0
 11  5  1  0
 29 24  1  0
  1 32  1  0
  1 33  1  0
  1 34  1  0
  6 35  1  0
  7 36  1  0
 10 37  1  0
 11 38  1  0
 12 39  1  0
 18 40  1  0
 19 41  1  0
 24 42  1  0
 25 43  1  0
 25 44  1  0
 26 45  1  0
 26 46  1  0
 27 47  1  0
 27 48  1  0
 28 49  1  0
 28 50  1  0
 29 51  1  0
 29 52  1  0
 30 53  1  0
 31 54  1  0
M  CHG  2  16  -1  24   1
M  END
>  <UniqueID>  (45) 
44

>  <SMILES>  (45) 
Cn1nc(-c2ccc(Br)cc2)cc1C(=O)[N-]c1ccc(S(=O)(=O)[NH+]2CCCCC2)cc1

>  <Energy>  (45) 
96.93543899017799

>  <Genealogy>  (45) 
Cn1nc(-c2ccc(Br)cc2)cc1C(=O)[N-]c1ccc(S(=O)(=O)[NH+]2CCCCC2)cc1 (protonated)
Cn1nc(-c2ccc(Br)cc2)cc1C(=O)[N-]c1ccc(S(=O)(=O)[NH+]2CCCCC2)cc1 (3D coordinates assigned)
Cn1nc(-c2ccc(Br)cc2)cc1C(=O)[N-]c1ccc(S(=O)(=O)[NH+]2CCCCC2)cc1 (nonaromatic ring conformer: 96.93543899017799 kcal/mol)

>  <smiles>  (45) 
Cn1nc(-c2ccc(Br)cc2)cc1C(=O)Nc1ccc(S(=O)(=O)N2CCCCC2)cc1

>  <score_type>  (45) 
oracle

>  <origin>  (45) 
adgpu

>  <m_score__min__energy>  (45) 
-11.35

>  <m_primary>  (45) 
energy

$$$$
45:0
     RDKit          3D

 46 49  0  0  0  0  0  0  0  0999 V2000
   -0.6530   21.0930  -34.2090 O   0  0  0  0  0  0  0  0  0  0  0  0
   -1.4570   20.6220  -33.3620 C   0  0  0  0  0  0  0  0  0  0  0  0
   -1.7380   19.2170  -33.3190 N   0  0  0  0  0  0  0  0  0  0  0  0
   -2.9450   18.5720  -33.7510 C   0  0  0  0  0  0  0  0  0  0  0  0
   -2.9180   17.8170  -34.9290 C   0  0  0  0  0  0  0  0  0  0  0  0
   -4.0660   17.1580  -35.3750 C   0  0  0  0  0  0  0  0  0  0  0  0
   -5.2490   17.2360  -34.6370 C   0  0  0  0  0  0  0  0  0  0  0  0
   -5.2850   17.9630  -33.4410 C   0  0  0  0  0  0  0  0  0  0  0  0
   -6.7770   18.0210  -32.5060 S   0  0  0  0  0  0  0  0  0  0  0  0
   -6.4330   18.0880  -31.0440 O   0  0  0  0  0  0  0  0  0  0  0  0
   -7.5940   16.7840  -32.7610 O   0  0  0  0  0  0  0  0  0  0  0  0
   -7.6850   19.4410  -32.9590 N   0  0  0  0  0  0  0  0  0  0  0  0
   -9.0200   19.4320  -32.3650 C   0  0  0  0  0  0  0  0  0  0  0  0
   -9.4400   20.8860  -32.2150 C   0  0  0  0  0  0  0  0  0  0  0  0
   -8.1520   21.6900  -32.2980 C   0  0  0  0  0  0  0  0  0  0  0  0
   -7.0460   20.6610  -32.4670 C   0  0  0  0  0  0  0  0  0  0  0  0
   -4.1320   18.6270  -32.9960 C   0  0  0  0  0  0  0  0  0  0  0  0
   -2.0730   21.5170  -32.3740 C   0  0  0  0  0  0  0  0  0  0  0  0
   -3.3900   21.9250  -32.3550 C   0  0  0  0  0  0  0  0  0  0  0  0
   -3.4700   22.7400  -31.2390 C   0  0  0  0  0  0  0  0  0  0  0  0
   -4.6760   23.4270  -30.7150 C   0  0  0  0  0  0  0  0  0  0  0  0
   -5.7940   22.6540  -30.3460 C   0  0  0  0  0  0  0  0  0  0  0  0
   -6.9520   23.2640  -29.8580 C   0  0  0  0  0  0  0  0  0  0  0  0
   -7.0090   24.6520  -29.7240 C   0  0  0  0  0  0  0  0  0  0  0  0
   -5.9040   25.4320  -30.0700 C   0  0  0  0  0  0  0  0  0  0  0  0
   -4.7370   24.8300  -30.5550 C   0  0  0  0  0  0  0  0  0  0  0  0
   -3.6440   25.6370  -30.8480 O   0  0  0  0  0  0  0  0  0  0  0  0
   -2.2650   22.7900  -30.6370 N   0  0  0  0  0  0  0  0  0  0  0  0
   -1.4130   22.0510  -31.3300 N   0  0  0  0  0  0  0  0  0  0  0  0
   -1.9858   17.7420  -35.5080 H   0  0  0  0  0  0  0  0  0  0  0  0
   -4.0382   16.5769  -36.3086 H   0  0  0  0  0  0  0  0  0  0  0  0
   -6.1546   16.7251  -34.9961 H   0  0  0  0  0  0  0  0  0  0  0  0
   -9.7238   18.8997  -33.0217 H   0  0  0  0  0  0  0  0  0  0  0  0
   -9.0175   18.9180  -31.3925 H   0  0  0  0  0  0  0  0  0  0  0  0
  -10.1260   21.1738  -33.0253 H   0  0  0  0  0  0  0  0  0  0  0  0
   -9.9715   21.0623  -31.2682 H   0  0  0  0  0  0  0  0  0  0  0  0
   -8.1786   22.3720  -33.1606 H   0  0  0  0  0  0  0  0  0  0  0  0
   -7.9993   22.3126  -31.4041 H   0  0  0  0  0  0  0  0  0  0  0  0
   -6.3014   21.0193  -33.1931 H   0  0  0  0  0  0  0  0  0  0  0  0
   -6.5225   20.4802  -31.5166 H   0  0  0  0  0  0  0  0  0  0  0  0
   -4.1555   19.1930  -32.0531 H   0  0  0  0  0  0  0  0  0  0  0  0
   -4.1909   21.6636  -33.0623 H   0  0  0  0  0  0  0  0  0  0  0  0
   -5.7549   21.5590  -30.4431 H   0  0  0  0  0  0  0  0  0  0  0  0
   -7.8205   22.6493  -29.5788 H   0  0  0  0  0  0  0  0  0  0  0  0
   -7.9241   25.1312  -29.3460 H   0  0  0  0  0  0  0  0  0  0  0  0
   -5.9507   26.5256  -29.9609 H   0  0  0  0  0  0  0  0  0  0  0  0
  1  2  2  0
  2  3  1  0
  3  4  1  0
  4  5  2  0
  5  6  1  0
  6  7  2  0
  7  8  1  0
  8  9  1  0
  9 10  2  0
  9 11  2  0
  9 12  1  0
 12 13  1  0
 13 14  1  0
 14 15  1  0
 15 16  1  0
  8 17  2  0
  2 18  1  0
 18 19  1  0
 19 20  2  0
 20 21  1  0
 21 22  2  0
 22 23  1  0
 23 24  2  0
 24 25  1  0
 25 26  2  0
 26 27  1  0
 20 28  1  0
 28 29  1  0
 17  4  1  0
 29 18  2  0
 16 12  1  0
 26 21  1  0
  5 30  1  0
  6 31  1  0
  7 32  1  0
 13 33  1  0
 13 34  1  0
 14 35  1  0
 14 36  1  0
 15 37  1  0
 15 38  1  0
 16 39  1  0
 16 40  1  0
 17 41  1  0
 19 42  1  0
 22 43  1  0
 23 44  1  0
 24 45  1  0
 25 46  1  0
M  CHG  3   3  -1  27  -1  28  -1
M  END
>  <UniqueID>  (46) 
45

>  <SMILES>  (46) 
O=C([N-]c1cccc(S(=O)(=O)N2CCCC2)c1)c1cc(-c2ccccc2[O-])[n-]n1

>  <Energy>  (46) 
85.99161886142629

>  <Genealogy>  (46) 
O=C([N-]c1cccc(S(=O)(=O)N2CCCC2)c1)c1cc(-c2ccccc2[O-])[n-]n1 (protonated)
O=C([N-]c1cccc(S(=O)(=O)N2CCCC2)c1)c1cc(-c2ccccc2[O-])[n-]n1 (3D coordinates assigned)
O=C([N-]c1cccc(S(=O)(=O)N2CCCC2)c1)c1cc(-c2ccccc2[O-])[n-]n1 (nonaromatic ring conformer: 85.99161886142629 kcal/mol)

>  <smiles>  (46) 
O=C(Nc1cccc(S(=O)(=O)N2CCCC2)c1)c1cc(-c2ccccc2O)[nH]n1

>  <score_type>  (46) 
oracle

>  <origin>  (46) 
adgpu

>  <m_score__min__energy>  (46) 
-15.449999999999999

>  <m_primary>  (46) 
energy

$$$$
46:0
     RDKit          3D

 51 54  0  0  0  0  0  0  0  0999 V2000
   -9.1400   18.5540  -31.9160 C   0  0  0  0  0  0  0  0  0  0  0  0
   -8.4080   19.8570  -32.0830 C   0  0  0  0  0  0  0  0  0  0  0  0
   -9.1070   21.0560  -31.8700 C   0  0  0  0  0  0  0  0  0  0  0  0
   -8.4530   22.2870  -31.9510 C   0  0  0  0  0  0  0  0  0  0  0  0
   -7.0900   22.3510  -32.2660 C   0  0  0  0  0  0  0  0  0  0  0  0
   -6.4290   23.6320  -32.2730 N   0  0  0  0  0  0  0  0  0  0  0  0
   -5.9200   24.4820  -30.8450 S   0  0  0  0  0  0  0  0  0  0  0  0
   -5.6250   25.9050  -31.2170 O   0  0  0  0  0  0  0  0  0  0  0  0
   -7.0290   24.4570  -29.8350 O   0  0  0  0  0  0  0  0  0  0  0  0
   -4.4890   23.7340  -30.1350 C   0  0  0  0  0  0  0  0  0  0  0  0
   -4.3790   22.3360  -30.0620 C   0  0  0  0  0  0  0  0  0  0  0  0
   -3.1930   21.7520  -29.6180 C   0  0  0  0  0  0  0  0  0  0  0  0
   -2.1150   22.5550  -29.2330 C   0  0  0  0  0  0  0  0  0  0  0  0
   -2.2300   23.9490  -29.2840 C   0  0  0  0  0  0  0  0  0  0  0  0
   -3.4130   24.5380  -29.7310 C   0  0  0  0  0  0  0  0  0  0  0  0
   -1.1090   24.7580  -28.9330 N   0  0  0  0  0  0  0  0  0  0  0  0
    0.0810   24.1600  -28.4270 C   0  0  0  0  0  0  0  0  0  0  0  0
    1.0760   24.8800  -28.1490 O   0  0  0  0  0  0  0  0  0  0  0  0
    0.1100   22.6880  -28.1260 C   0  0  0  0  0  0  0  0  0  0  0  0
   -0.9110   21.9690  -28.8270 O   0  0  0  0  0  0  0  0  0  0  0  0
   -6.3980   21.1570  -32.5190 C   0  0  0  0  0  0  0  0  0  0  0  0
   -7.0240   19.9090  -32.3820 C   0  0  0  0  0  0  0  0  0  0  0  0
   -6.0360   18.4430  -32.5310 S   0  0  0  0  0  0  0  0  0  0  0  0
   -4.5870   18.8420  -32.4850 O   0  0  0  0  0  0  0  0  0  0  0  0
   -6.3350   17.5270  -31.3760 O   0  0  0  0  0  0  0  0  0  0  0  0
   -6.3840   17.6400  -34.0570 N   0  0  0  0  0  0  0  0  0  0  0  0
   -6.8380   16.2480  -33.8580 C   0  0  0  0  0  0  0  0  0  0  0  0
   -5.6850   15.2280  -33.9440 C   0  0  0  0  0  0  0  0  0  0  0  0
   -4.4650   15.8310  -33.5760 O   0  0  0  0  0  0  0  0  0  0  0  0
   -4.0850   16.7950  -34.5440 C   0  0  0  0  0  0  0  0  0  0  0  0
   -5.2510   17.7010  -34.9930 C   0  0  0  0  0  0  0  0  0  0  0  0
   -9.2621   18.3367  -30.8446 H   0  0  0  0  0  0  0  0  0  0  0  0
  -10.1297   18.6260  -32.3906 H   0  0  0  0  0  0  0  0  0  0  0  0
   -8.5636   17.7462  -32.3906 H   0  0  0  0  0  0  0  0  0  0  0  0
  -10.1816   21.0252  -31.6368 H   0  0  0  0  0  0  0  0  0  0  0  0
   -9.0136   23.2151  -31.7657 H   0  0  0  0  0  0  0  0  0  0  0  0
   -6.2320   24.0930  -33.1880 H   0  0  0  0  0  0  0  0  0  0  0  0
   -5.2284   21.7015  -30.3551 H   0  0  0  0  0  0  0  0  0  0  0  0
   -3.1053   20.6565  -29.5705 H   0  0  0  0  0  0  0  0  0  0  0  0
   -3.5020   25.6338  -29.7667 H   0  0  0  0  0  0  0  0  0  0  0  0
    1.0908   22.2862  -28.4201 H   0  0  0  0  0  0  0  0  0  0  0  0
   -0.0695   22.5617  -27.0481 H   0  0  0  0  0  0  0  0  0  0  0  0
   -5.3440   21.2003  -32.8309 H   0  0  0  0  0  0  0  0  0  0  0  0
   -7.3047   16.1686  -32.8651 H   0  0  0  0  0  0  0  0  0  0  0  0
   -7.5504   16.0127  -34.6624 H   0  0  0  0  0  0  0  0  0  0  0  0
   -5.8931   14.3880  -33.2649 H   0  0  0  0  0  0  0  0  0  0  0  0
   -5.6055   14.8668  -34.9800 H   0  0  0  0  0  0  0  0  0  0  0  0
   -3.2955   17.4291  -34.1142 H   0  0  0  0  0  0  0  0  0  0  0  0
   -3.7380   16.2462  -35.4319 H   0  0  0  0  0  0  0  0  0  0  0  0
   -4.8928   18.7394  -35.0507 H   0  0  0  0  0  0  0  0  0  0  0  0
   -5.5997   17.3470  -35.9744 H   0  0  0  0  0  0  0  0  0  0  0  0
  1  2  1  0
  2  3  2  0
  3  4  1  0
  4  5  2  0
  5  6  1  0
  6  7  1  0
  7  8  2  0
  7  9  2  0
  7 10  1  0
 10 11  2  0
 11 12  1  0
 12 13  2  0
 13 14  1  0
 14 15  2  0
 14 16  1  0
 16 17  1  0
 17 18  2  0
 17 19  1  0
 19 20  1  0
  5 21  1  0
 21 22  2  0
 22 23  1  0
 23 24  2  0
 23 25  2  0
 23 26  1  0
 26 27  1  0
 27 28  1  0
 28 29  1  0
 29 30  1  0
 30 31  1  0
 22  2  1  0
 31 26  1  0
 15 10  1  0
 20 13  1  0
  1 32  1  0
  1 33  1  0
  1 34  1  0
  3 35  1  0
  4 36  1  0
  6 37  1  0
 11 38  1  0
 12 39  1  0
 15 40  1  0
 19 41  1  0
 19 42  1  0
 21 43  1  0
 27 44  1  0
 27 45  1  0
 28 46  1  0
 28 47  1  0
 30 48  1  0
 30 49  1  0
 31 50  1  0
 31 51  1  0
M  CHG  1  16  -1
M  END
>  <UniqueID>  (47) 
46

>  <SMILES>  (47) 
Cc1ccc(NS(=O)(=O)c2ccc3c(c2)[N-]C(=O)CO3)cc1S(=O)(=O)N1CCOCC1

>  <Energy>  (47) 
68.46438742165319

>  <Genealogy>  (47) 
Cc1ccc(NS(=O)(=O)c2ccc3c(c2)[N-]C(=O)CO3)cc1S(=O)(=O)N1CCOCC1 (protonated)
Cc1ccc(NS(=O)(=O)c2ccc3c(c2)[N-]C(=O)CO3)cc1S(=O)(=O)N1CCOCC1 (3D coordinates assigned)
Cc1ccc(NS(=O)(=O)c2ccc3c(c2)[N-]C(=O)CO3)cc1S(=O)(=O)N1CCOCC1 (nonaromatic ring conformer: 68.46438742165319 kcal/mol)

>  <smiles>  (47) 
Cc1ccc(NS(=O)(=O)c2ccc3c(c2)NC(=O)CO3)cc1S(=O)(=O)N1CCOCC1

>  <score_type>  (47) 
oracle

>  <origin>  (47) 
adgpu

>  <m_score__min__energy>  (47) 
-11.6

>  <m_primary>  (47) 
energy

$$$$
47:0
     RDKit          3D

 51 53  0  0  0  0  0  0  0  0999 V2000
   -3.4730   18.9090  -26.7690 C   0  0  0  0  0  0  0  0  0  0  0  0
   -2.8020   20.2140  -26.8220 N   0  0  0  0  0  0  0  0  0  0  0  0
   -1.5840   20.1860  -26.0030 C   0  0  0  0  0  0  0  0  0  0  0  0
   -2.3790   20.5850  -28.4750 S   0  0  0  0  0  0  0  0  0  0  0  0
   -1.1320   19.8390  -28.8600 O   0  0  0  0  0  0  0  0  0  0  0  0
   -3.4890   20.1690  -29.4000 O   0  0  0  0  0  0  0  0  0  0  0  0
   -2.0760   22.3130  -28.6390 C   0  0  0  0  0  0  0  0  0  0  0  0
   -1.0610   22.9160  -27.8870 C   0  0  0  0  0  0  0  0  0  0  0  0
   -0.8300   24.2890  -27.9930 C   0  0  0  0  0  0  0  0  0  0  0  0
   -1.6230   25.0730  -28.8360 C   0  0  0  0  0  0  0  0  0  0  0  0
   -1.3460   26.3950  -28.9580 F   0  0  0  0  0  0  0  0  0  0  0  0
   -2.6670   24.4800  -29.5740 C   0  0  0  0  0  0  0  0  0  0  0  0
   -3.5130   25.2490  -30.4390 N   0  0  0  0  0  0  0  0  0  0  0  0
   -4.9450   25.1810  -30.4880 C   0  0  0  0  0  0  0  0  0  0  0  0
   -5.6050   26.2280  -30.2550 O   0  0  0  0  0  0  0  0  0  0  0  0
   -5.6600   23.9340  -30.8490 C   0  0  0  0  0  0  0  0  0  0  0  0
   -5.2380   23.1730  -31.9510 C   0  0  0  0  0  0  0  0  0  0  0  0
   -5.9090   21.9960  -32.2990 C   0  0  0  0  0  0  0  0  0  0  0  0
   -7.0050   21.5610  -31.5460 C   0  0  0  0  0  0  0  0  0  0  0  0
   -7.8280   20.0670  -31.9900 S   0  0  0  0  0  0  0  0  0  0  0  0
   -8.1390   20.1160  -33.4590 O   0  0  0  0  0  0  0  0  0  0  0  0
   -9.1200   19.9430  -31.2280 O   0  0  0  0  0  0  0  0  0  0  0  0
   -6.7900   18.7000  -31.6500 N   0  0  0  0  0  0  0  0  0  0  0  0
   -7.2680   17.5020  -32.3490 C   0  0  0  0  0  0  0  0  0  0  0  0
   -6.5430   17.4110  -33.6840 C   0  0  0  0  0  0  0  0  0  0  0  0
   -5.3510   18.3420  -33.5640 C   0  0  0  0  0  0  0  0  0  0  0  0
   -5.4380   18.9410  -32.1670 C   0  0  0  0  0  0  0  0  0  0  0  0
   -7.4180   22.3040  -30.4320 C   0  0  0  0  0  0  0  0  0  0  0  0
   -6.7490   23.4790  -30.0830 C   0  0  0  0  0  0  0  0  0  0  0  0
   -2.8710   23.0970  -29.4870 C   0  0  0  0  0  0  0  0  0  0  0  0
   -3.6234   18.6164  -25.7193 H   0  0  0  0  0  0  0  0  0  0  0  0
   -4.4479   18.9772  -27.2740 H   0  0  0  0  0  0  0  0  0  0  0  0
   -2.8504   18.1558  -27.2740 H   0  0  0  0  0  0  0  0  0  0  0  0
   -1.8582   20.1923  -24.9377 H   0  0  0  0  0  0  0  0  0  0  0  0
   -1.0112   19.2745  -26.2288 H   0  0  0  0  0  0  0  0  0  0  0  0
   -0.9699   21.0703  -26.2288 H   0  0  0  0  0  0  0  0  0  0  0  0
   -0.4436   22.3066  -27.2107 H   0  0  0  0  0  0  0  0  0  0  0  0
   -0.0213   24.7553  -27.4112 H   0  0  0  0  0  0  0  0  0  0  0  0
   -4.3736   23.5048  -32.5449 H   0  0  0  0  0  0  0  0  0  0  0  0
   -5.5738   21.4104  -33.1677 H   0  0  0  0  0  0  0  0  0  0  0  0
   -7.0521   16.6077  -31.7460 H   0  0  0  0  0  0  0  0  0  0  0  0
   -8.3545   17.5631  -32.5094 H   0  0  0  0  0  0  0  0  0  0  0  0
   -6.2079   16.3799  -33.8697 H   0  0  0  0  0  0  0  0  0  0  0  0
   -7.1968   17.6922  -34.5227 H   0  0  0  0  0  0  0  0  0  0  0  0
   -4.4123   17.7812  -33.6835 H   0  0  0  0  0  0  0  0  0  0  0  0
   -5.3623   19.1199  -34.3417 H   0  0  0  0  0  0  0  0  0  0  0  0
   -4.6969   18.4628  -31.5097 H   0  0  0  0  0  0  0  0  0  0  0  0
   -5.2307   20.0207  -32.2022 H   0  0  0  0  0  0  0  0  0  0  0  0
   -8.2723   21.9604  -29.8302 H   0  0  0  0  0  0  0  0  0  0  0  0
   -7.0756   24.0528  -29.2032 H   0  0  0  0  0  0  0  0  0  0  0  0
   -3.6606   22.6226  -30.0883 H   0  0  0  0  0  0  0  0  0  0  0  0
  1  2  1  0
  2  3  1  0
  2  4  1  0
  4  5  2  0
  4  6  2  0
  4  7  1  0
  7  8  2  0
  8  9  1  0
  9 10  2  0
 10 11  1  0
 10 12  1  0
 12 13  1  0
 13 14  1  0
 14 15  2  0
 14 16  1  0
 16 17  2  0
 17 18  1  0
 18 19  2  0
 19 20  1  0
 20 21  2  0
 20 22  2  0
 20 23  1  0
 23 24  1  0
 24 25  1  0
 25 26  1  0
 26 27  1  0
 19 28  1  0
 28 29  2  0
 12 30  2  0
 30  7  1  0
 29 16  1  0
 27 23  1  0
  1 31  1  0
  1 32  1  0
  1 33  1  0
  3 34  1  0
  3 35  1  0
  3 36  1  0
  8 37  1  0
  9 38  1  0
 17 39  1  0
 18 40  1  0
 24 41  1  0
 24 42  1  0
 25 43  1  0
 25 44  1  0
 26 45  1  0
 26 46  1  0
 27 47  1  0
 27 48  1  0
 28 49  1  0
 29 50  1  0
 30 51  1  0
M  CHG  1  13  -1
M  END
>  <UniqueID>  (48) 
47

>  <SMILES>  (48) 
CN(C)S(=O)(=O)c1ccc(F)c([N-]C(=O)c2ccc(S(=O)(=O)N3CCCC3)cc2)c1

>  <Energy>  (48) 
58.54281471616326

>  <Genealogy>  (48) 
CN(C)S(=O)(=O)c1ccc(F)c([N-]C(=O)c2ccc(S(=O)(=O)N3CCCC3)cc2)c1 (protonated)
CN(C)S(=O)(=O)c1ccc(F)c([N-]C(=O)c2ccc(S(=O)(=O)N3CCCC3)cc2)c1 (3D coordinates assigned)
CN(C)S(=O)(=O)c1ccc(F)c([N-]C(=O)c2ccc(S(=O)(=O)N3CCCC3)cc2)c1 (nonaromatic ring conformer: 58.54281471616326 kcal/mol)

>  <smiles>  (48) 
CN(C)S(=O)(=O)c1ccc(F)c(NC(=O)c2ccc(S(=O)(=O)N3CCCC3)cc2)c1

>  <score_type>  (48) 
oracle

>  <origin>  (48) 
adgpu

>  <m_score__min__energy>  (48) 
-11.970000000000001

>  <m_primary>  (48) 
energy

$$$$
48:0
     RDKit          3D

 58 61  0  0  0  0  0  0  0  0999 V2000
    0.2680   19.4960  -27.5150 C   0  0  0  0  0  0  0  0  0  0  0  0
   -0.4660   19.7840  -28.7990 C   0  0  0  0  0  0  0  0  0  0  0  0
    0.2070   19.6380  -30.0230 C   0  0  0  0  0  0  0  0  0  0  0  0
   -0.4490   19.8910  -31.2290 C   0  0  0  0  0  0  0  0  0  0  0  0
   -1.7870   20.2980  -31.2310 C   0  0  0  0  0  0  0  0  0  0  0  0
   -2.6190   20.5810  -32.7610 S   0  0  0  0  0  0  0  0  0  0  0  0
   -2.1180   21.8700  -33.3550 O   0  0  0  0  0  0  0  0  0  0  0  0
   -2.2870   19.4510  -33.6950 O   0  0  0  0  0  0  0  0  0  0  0  0
   -4.3770   20.6780  -32.5460 C   0  0  0  0  0  0  0  0  0  0  0  0
   -5.1530   19.5220  -32.7990 C   0  0  0  0  0  0  0  0  0  0  0  0
   -6.5300   19.5950  -32.6180 C   0  0  0  0  0  0  0  0  0  0  0  0
   -7.1430   20.7450  -32.2110 C   0  0  0  0  0  0  0  0  0  0  0  0
   -6.4230   21.9060  -31.9460 C   0  0  0  0  0  0  0  0  0  0  0  0
   -5.0140   21.8830  -32.0970 C   0  0  0  0  0  0  0  0  0  0  0  0
   -4.2370   23.0610  -31.7870 N   0  0  0  0  0  0  0  0  0  0  0  0
   -4.5410   24.0760  -30.4120 S   0  0  0  0  0  0  0  0  0  0  0  0
   -4.5830   25.5130  -30.8520 O   0  0  0  0  0  0  0  0  0  0  0  0
   -5.8730   23.7120  -29.8150 O   0  0  0  0  0  0  0  0  0  0  0  0
   -3.2480   23.8880  -29.2300 C   0  0  0  0  0  0  0  0  0  0  0  0
   -1.9370   23.6140  -29.6430 C   0  0  0  0  0  0  0  0  0  0  0  0
   -0.9130   23.4890  -28.6980 C   0  0  0  0  0  0  0  0  0  0  0  0
   -1.1930   23.6360  -27.3320 C   0  0  0  0  0  0  0  0  0  0  0  0
   -0.1480   23.5070  -26.3660 N   0  0  0  0  0  0  0  0  0  0  0  0
   -2.5060   23.9110  -26.9190 C   0  0  0  0  0  0  0  0  0  0  0  0
   -3.5280   24.0360  -27.8650 C   0  0  0  0  0  0  0  0  0  0  0  0
   -8.4670   20.5240  -32.0780 N   0  0  0  0  0  0  0  0  0  0  0  0
   -9.4790   21.4370  -31.5510 C   0  0  0  0  0  0  0  0  0  0  0  0
   -8.6140   19.2120  -32.3870 C   0  0  0  0  0  0  0  0  0  0  0  0
   -9.7170   18.6030  -32.3240 O   0  0  0  0  0  0  0  0  0  0  0  0
   -7.4490   18.6180  -32.7460 N   0  0  0  0  0  0  0  0  0  0  0  0
   -7.2180   17.2120  -33.0690 C   0  0  0  0  0  0  0  0  0  0  0  0
   -2.4710   20.4390  -30.0180 C   0  0  0  0  0  0  0  0  0  0  0  0
   -1.8220   20.1910  -28.7960 C   0  0  0  0  0  0  0  0  0  0  0  0
   -2.5880   20.3440  -27.5070 C   0  0  0  0  0  0  0  0  0  0  0  0
   -0.3761   19.7487  -26.6598 H   0  0  0  0  0  0  0  0  0  0  0  0
    0.5299   18.4284  -27.4739 H   0  0  0  0  0  0  0  0  0  0  0  0
    1.1860   20.1006  -27.4739 H   0  0  0  0  0  0  0  0  0  0  0  0
    1.2604   19.3215  -30.0315 H   0  0  0  0  0  0  0  0  0  0  0  0
    0.0884   19.7698  -32.1811 H   0  0  0  0  0  0  0  0  0  0  0  0
   -4.6780   18.5871  -33.1312 H   0  0  0  0  0  0  0  0  0  0  0  0
   -6.9375   22.8239  -31.6255 H   0  0  0  0  0  0  0  0  0  0  0  0
   -3.3950   23.3080  -32.3490 H   0  0  0  0  0  0  0  0  0  0  0  0
   -1.7125   23.4969  -30.7135 H   0  0  0  0  0  0  0  0  0  0  0  0
    0.1144   23.2748  -29.0275 H   0  0  0  0  0  0  0  0  0  0  0  0
   -0.1320   24.1090  -25.5110 H   0  0  0  0  0  0  0  0  0  0  0  0
    0.6090   22.7990  -26.4890 H   0  0  0  0  0  0  0  0  0  0  0  0
   -2.7314   24.0284  -25.8488 H   0  0  0  0  0  0  0  0  0  0  0  0
   -4.5555   24.2513  -27.5365 H   0  0  0  0  0  0  0  0  0  0  0  0
   -9.4552   21.4156  -30.4515 H   0  0  0  0  0  0  0  0  0  0  0  0
   -9.2701   22.4582  -31.9024 H   0  0  0  0  0  0  0  0  0  0  0  0
  -10.4734   21.1245  -31.9024 H   0  0  0  0  0  0  0  0  0  0  0  0
   -7.1229   16.6329  -32.1386 H   0  0  0  0  0  0  0  0  0  0  0  0
   -8.0649   16.8267  -33.6558 H   0  0  0  0  0  0  0  0  0  0  0  0
   -6.2923   17.1179  -33.6558 H   0  0  0  0  0  0  0  0  0  0  0  0
   -3.5270   20.7470  -30.0210 H   0  0  0  0  0  0  0  0  0  0  0  0
   -1.9046   20.2075  -26.6559 H   0  0  0  0  0  0  0  0  0  0  0  0
   -3.0333   21.3488  -27.4622 H   0  0  0  0  0  0  0  0  0  0  0  0
   -3.3852   19.5873  -27.4622 H   0  0  0  0  0  0  0  0  0  0  0  0
  1  2  1  0
  2  3  2  0
  3  4  1  0
  4  5  2  0
  5  6  1  0
  6  7  2  0
  6  8  2  0
  6  9  1  0
  9 10  2  0
 10 11  1  0
 11 12  2  0
 12 13  1  0
 13 14  2  0
 14 15  1  0
 15 16  1  0
 16 17  2  0
 16 18  2  0
 16 19  1  0
 19 20  2  0
 20 21  1  0
 21 22  2  0
 22 23  1  0
 22 24  1  0
 24 25  2  0
 12 26  1  0
 26 27  1  0
 26 28  1  0
 28 29  2  0
 28 30  1  0
 30 31  1  0
  5 32  1  0
 32 33  2  0
 33 34  1  0
 33  2  1  0
 14  9  1  0
 25 19  1  0
 30 11  1  0
  1 35  1  0
  1 36  1  0
  1 37  1  0
  3 38  1  0
  4 39  1  0
 10 40  1  0
 13 41  1  0
 15 42  1  0
 20 43  1  0
 21 44  1  0
 23 45  1  0
 23 46  1  0
 24 47  1  0
 25 48  1  0
 27 49  1  0
 27 50  1  0
 27 51  1  0
 31 52  1  0
 31 53  1  0
 31 54  1  0
 32 55  1  0
 34 56  1  0
 34 57  1  0
 34 58  1  0
M  END
>  <UniqueID>  (49) 
48

>  <SMILES>  (49) 
Cc1ccc(S(=O)(=O)c2cc3c(cc2NS(=O)(=O)c2ccc(N)cc2)n(C)c(=O)n3C)cc1C

>  <Energy>  (49) 
108.04175789013782

>  <Genealogy>  (49) 
Cc1ccc(S(=O)(=O)c2cc3c(cc2NS(=O)(=O)c2ccc(N)cc2)n(C)c(=O)n3C)cc1C (3D coordinates assigned)
Cc1ccc(S(=O)(=O)c2cc3c(cc2NS(=O)(=O)c2ccc(N)cc2)n(C)c(=O)n3C)cc1C (optimized conformer: 108.04175789013782 kcal/mol)

>  <smiles>  (49) 
Cc1ccc(S(=O)(=O)c2cc3c(cc2NS(=O)(=O)c2ccc(N)cc2)n(C)c(=O)n3C)cc1C

>  <score_type>  (49) 
oracle

>  <origin>  (49) 
adgpu

>  <m_score__min__energy>  (49) 
-11.02

>  <m_primary>  (49) 
energy

$$$$
49:0
     RDKit          3D

 64 67  0  0  0  0  0  0  0  0999 V2000
   -1.7740   18.9020  -26.7210 C   0  0  0  0  0  0  0  0  0  0  0  0
   -1.7600   20.1270  -27.5380 N   0  0  0  0  0  0  0  0  0  0  0  0
   -1.9640   21.3110  -26.6920 C   0  0  0  0  0  0  0  0  0  0  0  0
   -2.2220   22.5270  -27.5810 C   0  0  0  0  0  0  0  0  0  0  0  0
   -1.2140   22.6700  -28.6520 N   0  0  0  0  0  0  0  0  0  0  0  0
   -1.7210   23.2700  -29.9120 C   0  0  2  0  0  0  0  0  0  0  0  0
   -2.5550   24.5100  -29.6840 C   0  0  0  0  0  0  0  0  0  0  0  0
   -2.2420   25.3030  -28.7540 O   0  0  0  0  0  0  0  0  0  0  0  0
   -3.6540   24.8170  -30.5430 N   0  0  0  0  0  0  0  0  0  0  0  0
   -5.0010   25.0820  -30.0590 C   0  0  0  0  0  0  0  0  0  0  0  0
   -5.9280   24.0350  -30.6010 C   0  0  0  0  0  0  0  0  0  0  0  0
   -6.7990   23.3440  -29.7410 C   0  0  0  0  0  0  0  0  0  0  0  0
   -7.6160   22.3240  -30.2370 C   0  0  0  0  0  0  0  0  0  0  0  0
   -7.5620   21.9780  -31.5890 C   0  0  0  0  0  0  0  0  0  0  0  0
   -8.3530   20.9860  -32.0680 F   0  0  0  0  0  0  0  0  0  0  0  0
   -6.6880   22.6510  -32.4490 C   0  0  0  0  0  0  0  0  0  0  0  0
   -5.8680   23.6710  -31.9580 C   0  0  0  0  0  0  0  0  0  0  0  0
   -2.4070   22.2260  -30.7800 C   0  0  0  0  0  0  0  0  0  0  0  0
   -3.5660   21.5980  -30.2900 C   0  0  0  0  0  0  0  0  0  0  0  0
   -4.2650   20.6820  -31.0780 C   0  0  0  0  0  0  0  0  0  0  0  0
   -3.8280   20.3870  -32.3750 C   0  0  0  0  0  0  0  0  0  0  0  0
   -4.7480   19.2780  -33.3930 S   0  0  0  0  0  0  0  0  0  0  0  0
   -3.8880   18.8360  -34.5450 O   0  0  0  0  0  0  0  0  0  0  0  0
   -5.9420   19.9980  -33.9550 O   0  0  0  0  0  0  0  0  0  0  0  0
   -5.2870   17.8700  -32.5000 N   0  0  0  0  0  0  0  0  0  0  0  0
   -6.4480   18.1860  -31.6620 C   0  0  0  0  0  0  0  0  0  0  0  0
   -7.7070   17.7420  -32.3940 C   0  0  0  0  0  0  0  0  0  0  0  0
   -7.2350   16.8420  -33.5190 C   0  0  0  0  0  0  0  0  0  0  0  0
   -5.7160   16.7990  -33.4070 C   0  0  0  0  0  0  0  0  0  0  0  0
   -2.6700   21.0000  -32.8690 C   0  0  0  0  0  0  0  0  0  0  0  0
   -1.9690   21.9180  -32.0840 C   0  0  0  0  0  0  0  0  0  0  0  0
   -0.1190   21.6700  -28.7360 C   0  0  0  0  0  0  0  0  0  0  0  0
   -0.4950   20.2290  -28.2980 C   0  0  0  0  0  0  0  0  0  0  0  0
   -1.7709   19.1723  -25.6547 H   0  0  0  0  0  0  0  0  0  0  0  0
   -2.6789   18.3195  -26.9490 H   0  0  0  0  0  0  0  0  0  0  0  0
   -0.8827   18.2990  -26.9490 H   0  0  0  0  0  0  0  0  0  0  0  0
   -2.5560   20.0530  -28.2160 H   0  0  0  0  0  0  0  0  0  0  0  0
   -2.8293   21.1472  -26.0328 H   0  0  0  0  0  0  0  0  0  0  0  0
   -1.0674   21.4855  -26.0791 H   0  0  0  0  0  0  0  0  0  0  0  0
   -3.2148   22.4218  -28.0429 H   0  0  0  0  0  0  0  0  0  0  0  0
   -2.1638   23.4233  -26.9459 H   0  0  0  0  0  0  0  0  0  0  0  0
   -0.8479   23.6267  -30.4782 H   0  0  0  0  0  0  0  0  0  0  0  0
   -5.0110   25.0503  -28.9595 H   0  0  0  0  0  0  0  0  0  0  0  0
   -5.3276   26.0776  -30.3938 H   0  0  0  0  0  0  0  0  0  0  0  0
   -6.8378   23.6069  -28.6736 H   0  0  0  0  0  0  0  0  0  0  0  0
   -8.3026   21.7929  -29.5613 H   0  0  0  0  0  0  0  0  0  0  0  0
   -6.6459   22.3771  -33.5135 H   0  0  0  0  0  0  0  0  0  0  0  0
   -5.1738   24.1904  -32.6350 H   0  0  0  0  0  0  0  0  0  0  0  0
   -3.9250   21.8307  -29.2766 H   0  0  0  0  0  0  0  0  0  0  0  0
   -5.1636   20.1895  -30.6780 H   0  0  0  0  0  0  0  0  0  0  0  0
   -6.3692   17.6535  -30.7027 H   0  0  0  0  0  0  0  0  0  0  0  0
   -6.4878   19.2676  -31.4654 H   0  0  0  0  0  0  0  0  0  0  0  0
   -8.3707   17.1885  -31.7135 H   0  0  0  0  0  0  0  0  0  0  0  0
   -8.2779   18.6014  -32.7755 H   0  0  0  0  0  0  0  0  0  0  0  0
   -7.6563   15.8324  -33.4042 H   0  0  0  0  0  0  0  0  0  0  0  0
   -7.5580   17.2182  -34.5009 H   0  0  0  0  0  0  0  0  0  0  0  0
   -5.4007   15.8244  -33.0062 H   0  0  0  0  0  0  0  0  0  0  0  0
   -5.2602   16.9386  -34.3983 H   0  0  0  0  0  0  0  0  0  0  0  0
   -2.3108   20.7574  -33.8800 H   0  0  0  0  0  0  0  0  0  0  0  0
   -1.0682   22.4044  -32.4863 H   0  0  0  0  0  0  0  0  0  0  0  0
    0.2226   21.6284  -29.7808 H   0  0  0  0  0  0  0  0  0  0  0  0
    0.6538   22.0083  -28.0300 H   0  0  0  0  0  0  0  0  0  0  0  0
   -0.5866   19.6086  -29.2017 H   0  0  0  0  0  0  0  0  0  0  0  0
    0.3035   19.8903  -27.6214 H   0  0  0  0  0  0  0  0  0  0  0  0
  1  2  1  0
  2  3  1  0
  3  4  1  0
  4  5  1  0
  5  6  1  0
  6  7  1  0
  7  8  2  0
  7  9  1  0
  9 10  1  0
 10 11  1  0
 11 12  2  0
 12 13  1  0
 13 14  2  0
 14 15  1  0
 14 16  1  0
 16 17  2  0
  6 18  1  0
 18 19  2  0
 19 20  1  0
 20 21  2  0
 21 22  1  0
 22 23  2  0
 22 24  2  0
 22 25  1  0
 25 26  1  0
 26 27  1  0
 27 28  1  0
 28 29  1  0
 21 30  1  0
 30 31  2  0
  5 32  1  0
 32 33  1  0
 33  2  1  0
 17 11  1  0
 31 18  1  0
 29 25  1  0
  1 34  1  0
  1 35  1  0
  1 36  1  0
  2 37  1  0
  3 38  1  0
  3 39  1  0
  4 40  1  0
  4 41  1  0
  6 42  1  6
 10 43  1  0
 10 44  1  0
 12 45  1  0
 13 46  1  0
 16 47  1  0
 17 48  1  0
 19 49  1  0
 20 50  1  0
 26 51  1  0
 26 52  1  0
 27 53  1  0
 27 54  1  0
 28 55  1  0
 28 56  1  0
 29 57  1  0
 29 58  1  0
 30 59  1  0
 31 60  1  0
 32 61  1  0
 32 62  1  0
 33 63  1  0
 33 64  1  0
M  CHG  2   2   1   9  -1
M  END
>  <UniqueID>  (50) 
49

>  <SMILES>  (50) 
C[NH+]1CCN([C@H](C(=O)[N-]Cc2ccc(F)cc2)c2ccc(S(=O)(=O)N3CCCC3)cc2)CC1

>  <Energy>  (50) 
82.22269243546806

>  <Genealogy>  (50) 
C[NH+]1CCN(C(C(=O)[N-]Cc2ccc(F)cc2)c2ccc(S(=O)(=O)N3CCCC3)cc2)CC1 (protonated)
C[NH+]1CCN([C@H](C(=O)[N-]Cc2ccc(F)cc2)c2ccc(S(=O)(=O)N3CCCC3)cc2)CC1 (chirality)
C[NH+]1CCN([C@H](C(=O)[N-]Cc2ccc(F)cc2)c2ccc(S(=O)(=O)N3CCCC3)cc2)CC1 (3D coordinates assigned)
C[NH+]1CCN([C@H](C(=O)[N-]Cc2ccc(F)cc2)c2ccc(S(=O)(=O)N3CCCC3)cc2)CC1 (nonaromatic ring conformer: 82.22269243546806 kcal/mol)

>  <smiles>  (50) 
CN1CCN(C(C(=O)NCc2ccc(F)cc2)c2ccc(S(=O)(=O)N3CCCC3)cc2)CC1

>  <score_type>  (50) 
oracle

>  <origin>  (50) 
adgpu

>  <m_score__min__energy>  (50) 
-10.43

>  <m_primary>  (50) 
energy

$$$$
