0:0
     RDKit          3D

 35 37  0  0  0  0  0  0  0  0999 V2000
   -6.1940   14.4350  -34.2250 C   0  0  0  0  0  0  0  0  0  0  0  0
   -6.9050   15.6680  -34.1910 O   0  0  0  0  0  0  0  0  0  0  0  0
   -6.3550   16.8890  -33.7700 C   0  0  0  0  0  0  0  0  0  0  0  0
   -6.2770   17.1450  -32.3960 C   0  0  0  0  0  0  0  0  0  0  0  0
   -5.7370   18.3450  -31.9270 C   0  0  0  0  0  0  0  0  0  0  0  0
   -5.2610   19.3040  -32.8300 C   0  0  0  0  0  0  0  0  0  0  0  0
   -4.5780   20.8110  -32.2290 S   0  0  0  0  0  0  0  0  0  0  0  0
   -3.9350   20.6100  -30.8840 O   0  0  0  0  0  0  0  0  0  0  0  0
   -3.5290   21.2840  -33.1950 O   0  0  0  0  0  0  0  0  0  0  0  0
   -5.8480   22.0230  -32.0760 C   0  0  0  0  0  0  0  0  0  0  0  0
   -5.7550   23.3300  -31.5920 C   0  0  0  0  0  0  0  0  0  0  0  0
   -4.5610   24.0280  -31.2150 N   0  0  0  0  0  0  0  0  0  0  0  0
   -3.4770   23.4140  -31.1670 O   0  0  0  0  0  0  0  0  0  0  0  0
   -4.5920   25.3530  -30.8500 O   0  0  0  0  0  0  0  0  0  0  0  0
   -6.9970   23.8530  -31.4100 N   0  0  0  0  0  0  0  0  0  0  0  0
   -7.7980   22.8570  -31.8390 C   0  0  0  0  0  0  0  0  0  0  0  0
   -7.1560   21.7790  -32.2310 N   0  0  0  0  0  0  0  0  0  0  0  0
   -7.9930   20.6080  -32.3130 C   0  0  0  0  0  0  0  0  0  0  0  0
   -9.4110   21.1630  -32.0180 C   0  0  0  0  0  0  0  0  0  0  0  0
   -9.2410   22.6540  -31.6210 C   0  0  0  0  0  0  0  0  0  0  0  0
   -5.3410   19.0580  -34.2070 C   0  0  0  0  0  0  0  0  0  0  0  0
   -5.8820   17.8560  -34.6760 C   0  0  0  0  0  0  0  0  0  0  0  0
   -5.9985   14.0960  -33.1970 H   0  0  0  0  0  0  0  0  0  0  0  0
   -6.7951   13.6795  -34.7522 H   0  0  0  0  0  0  0  0  0  0  0  0
   -5.2390   14.5768  -34.7522 H   0  0  0  0  0  0  0  0  0  0  0  0
   -6.6439   16.3951  -31.6797 H   0  0  0  0  0  0  0  0  0  0  0  0
   -5.6855   18.5373  -30.8452 H   0  0  0  0  0  0  0  0  0  0  0  0
   -7.9461   20.1593  -33.3162 H   0  0  0  0  0  0  0  0  0  0  0  0
   -7.6889   19.8114  -31.6180 H   0  0  0  0  0  0  0  0  0  0  0  0
  -10.0431   21.0804  -32.9145 H   0  0  0  0  0  0  0  0  0  0  0  0
   -9.8950   20.5943  -31.2103 H   0  0  0  0  0  0  0  0  0  0  0  0
   -9.8408   23.3121  -32.2669 H   0  0  0  0  0  0  0  0  0  0  0  0
   -9.5757   22.8855  -30.5991 H   0  0  0  0  0  0  0  0  0  0  0  0
   -4.9776   19.8117  -34.9211 H   0  0  0  0  0  0  0  0  0  0  0  0
   -5.9378   17.6661  -35.7580 H   0  0  0  0  0  0  0  0  0  0  0  0
  1  2  1  0
  2  3  1  0
  3  4  2  0
  4  5  1  0
  5  6  2  0
  6  7  1  0
  7  8  2  0
  7  9  2  0
  7 10  1  0
 10 11  2  0
 11 12  1  0
 12 13  2  0
 12 14  1  0
 11 15  1  0
 15 16  2  0
 16 17  1  0
 17 18  1  0
 18 19  1  0
 19 20  1  0
  6 21  1  0
 21 22  2  0
 22  3  1  0
 17 10  1  0
 20 16  1  0
  1 23  1  0
  1 24  1  0
  1 25  1  0
  4 26  1  0
  5 27  1  0
 18 28  1  0
 18 29  1  0
 19 30  1  0
 19 31  1  0
 20 32  1  0
 20 33  1  0
 21 34  1  0
 22 35  1  0
M  CHG  2  12   1  14  -1
M  END
>  <UniqueID>  (1) 
1

>  <SMILES>  (1) 
COc1ccc(S(=O)(=O)c2c([N+](=O)[O-])nc3n2CCC3)cc1

>  <Energy>  (1) 
89.04637531782376

>  <Genealogy>  (1) 
COc1ccc(S(=O)(=O)c2c([N+](=O)[O-])nc3n2CCC3)cc1 (3D coordinates assigned)
COc1ccc(S(=O)(=O)c2c([N+](=O)[O-])nc3n2CCC3)cc1 (nonaromatic ring conformer: 89.04637531782376 kcal/mol)

>  <smiles>  (1) 
COc1ccc(S(=O)(=O)c2c([N+](=O)[O-])nc3n2CCC3)cc1

>  <score_type>  (1) 
oracle

>  <origin>  (1) 
adgpu

>  <m_score__min__energy>  (1) 
-8.5500000000000007

>  <m_primary>  (1) 
energy

$$$$
1:0
     RDKit          3D

 30 32  0  0  0  0  0  0  0  0999 V2000
    3.0241   24.2550  -28.3124 H   0  0  0  0  0  0  0  0  0  0  0  0
    2.2090   24.7510  -27.7650 C   0  0  0  0  0  0  0  0  0  0  0  0
    0.9180   24.5500  -28.1400 N   0  0  0  0  0  0  0  0  0  0  0  0
   -0.1260   25.1430  -27.4930 C   0  0  0  0  0  0  0  0  0  0  0  0
   -1.5100   24.8880  -27.9460 C   0  0  0  0  0  0  0  0  0  0  0  0
   -1.9450   25.2570  -29.1830 N   0  0  0  0  0  0  0  0  0  0  0  0
   -3.2360   24.9210  -29.3840 C   0  0  0  0  0  0  0  0  0  0  0  0
   -3.8630   25.2100  -30.4850 N   0  0  0  0  0  0  0  0  0  0  0  0
   -5.2180   24.8540  -30.7940 C   0  0  0  0  0  0  0  0  0  0  0  0
   -6.1310   25.6860  -30.5470 O   0  0  0  0  0  0  0  0  0  0  0  0
   -5.5610   23.5720  -31.4570 C   0  0  0  0  0  0  0  0  0  0  0  0
   -6.9040   23.2020  -31.6570 C   0  0  0  0  0  0  0  0  0  0  0  0
   -7.7108   23.8720  -31.3251 H   0  0  0  0  0  0  0  0  0  0  0  0
   -7.2190   21.9880  -32.2750 C   0  0  0  0  0  0  0  0  0  0  0  0
   -8.2711   21.7110  -32.4372 H   0  0  0  0  0  0  0  0  0  0  0  0
   -6.1990   21.1260  -32.6870 C   0  0  0  0  0  0  0  0  0  0  0  0
   -6.5060   19.9490  -33.2850 F   0  0  0  0  0  0  0  0  0  0  0  0
   -4.8620   21.4780  -32.4800 C   0  0  0  0  0  0  0  0  0  0  0  0
   -4.0593   20.7985  -32.8024 H   0  0  0  0  0  0  0  0  0  0  0  0
   -4.5430   22.6920  -31.8640 C   0  0  0  0  0  0  0  0  0  0  0  0
   -3.4893   22.9601  -31.6969 H   0  0  0  0  0  0  0  0  0  0  0  0
   -3.9010   24.1690  -28.0280 S   0  0  0  0  0  0  0  0  0  0  0  0
   -2.4690   24.2590  -27.1500 C   0  0  0  0  0  0  0  0  0  0  0  0
   -2.3150   23.8869  -26.1264 H   0  0  0  0  0  0  0  0  0  0  0  0
    0.1350   25.9900  -26.4030 C   0  0  0  0  0  0  0  0  0  0  0  0
   -0.6942   26.4773  -25.8691 H   0  0  0  0  0  0  0  0  0  0  0  0
    1.4550   26.2090  -26.0020 C   0  0  0  0  0  0  0  0  0  0  0  0
    1.6696   26.8704  -25.1496 H   0  0  0  0  0  0  0  0  0  0  0  0
    2.5010   25.5870  -26.6850 C   0  0  0  0  0  0  0  0  0  0  0  0
    3.5436   25.7533  -26.3763 H   0  0  0  0  0  0  0  0  0  0  0  0
  1  2  1  0
  2  3  2  0
  3  4  1  0
  4  5  1  0
  5  6  1  0
  6  7  1  0
  7  8  2  0
  8  9  1  0
  9 10  2  0
  9 11  1  0
 11 12  2  0
 12 13  1  0
 12 14  1  0
 14 15  1  0
 14 16  2  0
 16 17  1  0
 16 18  1  0
 18 19  1  0
 18 20  2  0
 20 21  1  0
  7 22  1  0
 22 23  1  0
 23 24  1  0
  4 25  2  0
 25 26  1  0
 25 27  1  0
 27 28  1  0
 27 29  2  0
 29 30  1  0
 29  2  1  0
 23  5  2  0
 20 11  1  0
M  CHG  1   6  -1
M  END
>  <UniqueID>  (2) 
2

>  <SMILES>  (2) 
O=C(/N=c1/[n-]c(-c2ccccn2)cs1)c1ccc(F)cc1

>  <Energy>  (2) 
72.7044160819231

>  <Genealogy>  (2) 
O=C(N=c1[n-]c(-c2ccccn2)cs1)c1ccc(F)cc1 (protonated)
O=C(/N=c1/[n-]c(-c2ccccn2)cs1)c1ccc(F)cc1 (cis-trans isomerization)
O=C(/N=c1/[n-]c(-c2ccccn2)cs1)c1ccc(F)cc1 (3D coordinates assigned)
O=C(/N=c1/[n-]c(-c2ccccn2)cs1)c1ccc(F)cc1 (optimized conformer: 72.7044160819231 kcal/mol)

>  <smiles>  (2) 
O=C(N=c1[nH]c(-c2ccccn2)cs1)c1ccc(F)cc1

>  <score_type>  (2) 
oracle

>  <origin>  (2) 
adgpu

>  <m_score__min__energy>  (2) 
-9.0700000000000003

>  <m_primary>  (2) 
energy

$$$$
2:0
     RDKit          3D

 30 31  0  0  0  0  0  0  0  0999 V2000
   -4.2320   19.6280  -33.3870 C   0  0  0  0  0  0  0  0  0  0  0  0
   -2.7760   20.7100  -33.5090 S   0  0  0  0  0  0  0  0  0  0  0  0
   -2.9220   21.2840  -31.8210 C   0  0  0  0  0  0  0  0  0  0  0  0
   -2.9660   20.3890  -30.8020 N   0  0  0  0  0  0  0  0  0  0  0  0
   -3.0790   20.8050  -29.5150 C   0  0  0  0  0  0  0  0  0  0  0  0
   -3.1530   22.1690  -29.2220 C   0  0  0  0  0  0  0  0  0  0  0  0
   -3.3620   22.6700  -27.5470 Cl  0  0  0  0  0  0  0  0  0  0  0  0
   -3.1090   23.0860  -30.2900 C   0  0  0  0  0  0  0  0  0  0  0  0
   -3.1650   24.5460  -30.0700 C   0  0  0  0  0  0  0  0  0  0  0  0
   -2.4300   25.0660  -29.1900 O   0  0  0  0  0  0  0  0  0  0  0  0
   -4.0170   25.4040  -30.8410 N   0  0  0  0  0  0  0  0  0  0  0  0
   -5.3420   25.8910  -30.4560 C   0  0  0  0  0  0  0  0  0  0  0  0
   -6.2490   24.7510  -29.9790 C   0  0  0  0  0  0  0  0  0  0  0  0
   -6.2820   23.6260  -30.9680 C   0  0  0  0  0  0  0  0  0  0  0  0
   -6.9710   22.4380  -30.8230 C   0  0  0  0  0  0  0  0  0  0  0  0
   -6.6420   21.7160  -31.9500 C   0  0  0  0  0  0  0  0  0  0  0  0
   -5.7990   22.4470  -32.7010 N   0  0  0  0  0  0  0  0  0  0  0  0
   -5.5680   23.6080  -32.1110 N   0  0  0  0  0  0  0  0  0  0  0  0
   -2.9930   22.6130  -31.5610 N   0  0  0  0  0  0  0  0  0  0  0  0
   -4.4698   19.4513  -32.3276 H   0  0  0  0  0  0  0  0  0  0  0  0
   -5.0893   20.1099  -33.8798 H   0  0  0  0  0  0  0  0  0  0  0  0
   -4.0179   18.6681  -33.8798 H   0  0  0  0  0  0  0  0  0  0  0  0
   -3.1124   20.0663  -28.7006 H   0  0  0  0  0  0  0  0  0  0  0  0
   -5.2303   26.6221  -29.6417 H   0  0  0  0  0  0  0  0  0  0  0  0
   -5.8075   26.3526  -31.3393 H   0  0  0  0  0  0  0  0  0  0  0  0
   -5.8710   24.3715  -29.0182 H   0  0  0  0  0  0  0  0  0  0  0  0
   -7.2702   25.1448  -29.8696 H   0  0  0  0  0  0  0  0  0  0  0  0
   -7.6316   22.1367  -29.9967 H   0  0  0  0  0  0  0  0  0  0  0  0
   -7.0084   20.7081  -32.1949 H   0  0  0  0  0  0  0  0  0  0  0  0
   -5.3760   22.1560  -33.6090 H   0  0  0  0  0  0  0  0  0  0  0  0
  1  2  1  0
  2  3  1  0
  3  4  2  0
  4  5  1  0
  5  6  2  0
  6  7  1  0
  6  8  1  0
  8  9  1  0
  9 10  2  0
  9 11  1  0
 11 12  1  0
 12 13  1  0
 13 14  1  0
 14 15  1  0
 15 16  2  0
 16 17  1  0
 17 18  1  0
  8 19  2  0
 19  3  1  0
 18 14  2  0
  1 20  1  0
  1 21  1  0
  1 22  1  0
  5 23  1  0
 12 24  1  0
 12 25  1  0
 13 26  1  0
 13 27  1  0
 15 28  1  0
 16 29  1  0
 17 30  1  0
M  CHG  1  11  -1
M  END
>  <UniqueID>  (3) 
3

>  <SMILES>  (3) 
CSc1ncc(Cl)c(C(=O)[N-]CCc2cc[nH]n2)n1

>  <Energy>  (3) 
56.89642548851237

>  <Genealogy>  (3) 
CSc1ncc(Cl)c(C(=O)[N-]CCc2cc[nH]n2)n1 (protonated)
CSc1ncc(Cl)c(C(=O)[N-]CCc2cc[nH]n2)n1 (3D coordinates assigned)
CSc1ncc(Cl)c(C(=O)[N-]CCc2cc[nH]n2)n1 (optimized conformer: 56.89642548851237 kcal/mol)

>  <smiles>  (3) 
CSc1ncc(Cl)c(C(=O)NCCc2cc[nH]n2)n1

>  <score_type>  (3) 
oracle

>  <origin>  (3) 
adgpu

>  <m_score__min__energy>  (3) 
-8.2799999999999994

>  <m_primary>  (3) 
energy

$$$$
3:0
     RDKit          3D

 29 31  0  0  0  0  0  0  0  0999 V2000
   -3.8860   25.6810  -30.4690 O   0  0  0  0  0  0  0  0  0  0  0  0
   -4.4090   24.4460  -30.8280 C   0  0  0  0  0  0  0  0  0  0  0  0
   -3.5980   23.3100  -30.8060 C   0  0  0  0  0  0  0  0  0  0  0  0
   -4.1220   22.0650  -31.1670 C   0  0  0  0  0  0  0  0  0  0  0  0
   -5.4710   21.9370  -31.5580 C   0  0  0  0  0  0  0  0  0  0  0  0
   -6.0360   20.6130  -31.9440 C   0  0  0  0  0  0  0  0  0  0  0  0
   -5.3210   19.4610  -32.2370 C   0  0  0  0  0  0  0  0  0  0  0  0
   -6.2860   18.5110  -32.5330 C   0  0  0  0  0  0  0  0  0  0  0  0
   -6.0620   17.0960  -32.9160 C   0  0  0  0  0  0  0  0  0  0  0  0
   -5.0410   16.3280  -32.3220 C   0  0  0  0  0  0  0  0  0  0  0  0
   -4.8470   14.9950  -32.6970 C   0  0  0  0  0  0  0  0  0  0  0  0
   -5.6650   14.4110  -33.6660 C   0  0  0  0  0  0  0  0  0  0  0  0
   -5.3960   12.5900  -34.1760 Br  0  0  0  0  0  0  0  0  0  0  0  0
   -6.6810   15.1620  -34.2630 C   0  0  0  0  0  0  0  0  0  0  0  0
   -6.8800   16.4950  -33.8910 C   0  0  0  0  0  0  0  0  0  0  0  0
   -7.5080   19.0690  -32.4230 N   0  0  0  0  0  0  0  0  0  0  0  0
   -7.3520   20.3340  -32.0680 N   0  0  0  0  0  0  0  0  0  0  0  0
   -6.2760   23.0960  -31.5760 C   0  0  0  0  0  0  0  0  0  0  0  0
   -5.7460   24.3380  -31.2140 C   0  0  0  0  0  0  0  0  0  0  0  0
   -2.5437   23.3946  -30.5038 H   0  0  0  0  0  0  0  0  0  0  0  0
   -3.4750   21.1756  -31.1458 H   0  0  0  0  0  0  0  0  0  0  0  0
   -4.2288   19.3302  -32.2349 H   0  0  0  0  0  0  0  0  0  0  0  0
   -4.3919   16.7803  -31.5578 H   0  0  0  0  0  0  0  0  0  0  0  0
   -4.0470   14.4043  -32.2268 H   0  0  0  0  0  0  0  0  0  0  0  0
   -7.3256   14.7034  -35.0273 H   0  0  0  0  0  0  0  0  0  0  0  0
   -7.6829   17.0791  -34.3645 H   0  0  0  0  0  0  0  0  0  0  0  0
   -8.1540   20.9820  -31.9180 H   0  0  0  0  0  0  0  0  0  0  0  0
   -7.3311   23.0214  -31.8779 H   0  0  0  0  0  0  0  0  0  0  0  0
   -6.3849   25.2332  -31.2334 H   0  0  0  0  0  0  0  0  0  0  0  0
  1  2  1  0
  2  3  2  0
  3  4  1  0
  4  5  2  0
  5  6  1  0
  6  7  2  0
  7  8  1  0
  8  9  1  0
  9 10  2  0
 10 11  1  0
 11 12  2  0
 12 13  1  0
 12 14  1  0
 14 15  2  0
  8 16  2  0
 16 17  1  0
  5 18  1  0
 18 19  2  0
 19  2  1  0
 17  6  1  0
 15  9  1  0
  3 20  1  0
  4 21  1  0
  7 22  1  0
 10 23  1  0
 11 24  1  0
 14 25  1  0
 15 26  1  0
 17 27  1  0
 18 28  1  0
 19 29  1  0
M  CHG  1   1  -1
M  END
>  <UniqueID>  (4) 
4

>  <SMILES>  (4) 
[O-]c1ccc(-c2cc(-c3ccc(Br)cc3)n[nH]2)cc1

>  <Energy>  (4) 
65.63733854992093

>  <Genealogy>  (4) 
[O-]c1ccc(-c2cc(-c3ccc(Br)cc3)n[nH]2)cc1 (protonated)
[O-]c1ccc(-c2cc(-c3ccc(Br)cc3)n[nH]2)cc1 (3D coordinates assigned)
[O-]c1ccc(-c2cc(-c3ccc(Br)cc3)n[nH]2)cc1 (optimized conformer: 65.63733854992093 kcal/mol)

>  <smiles>  (4) 
Oc1ccc(-c2cc(-c3ccc(Br)cc3)n[nH]2)cc1

>  <score_type>  (4) 
oracle

>  <origin>  (4) 
adgpu

>  <m_score__min__energy>  (4) 
-9.7400000000000002

>  <m_primary>  (4) 
energy

$$$$
4:0
     RDKit          3D

 31 32  0  0  0  0  0  0  0  0999 V2000
   -6.1030   15.6680  -33.8930 C   0  0  0  0  0  0  0  0  0  0  0  0
   -6.8170   16.4200  -32.9160 O   0  0  0  0  0  0  0  0  0  0  0  0
   -6.8680   17.8210  -32.8780 C   0  0  0  0  0  0  0  0  0  0  0  0
   -6.0820   18.5390  -33.7870 C   0  0  0  0  0  0  0  0  0  0  0  0
   -6.0990   19.9370  -33.7910 C   0  0  0  0  0  0  0  0  0  0  0  0
   -6.9070   20.6390  -32.8910 C   0  0  0  0  0  0  0  0  0  0  0  0
   -6.8880   22.0430  -32.9240 O   0  0  0  0  0  0  0  0  0  0  0  0
   -6.2250   22.8590  -31.9920 C   0  0  0  0  0  0  0  0  0  0  0  0
   -7.0590   23.5460  -31.1110 C   0  0  0  0  0  0  0  0  0  0  0  0
   -8.3940   23.3380  -31.2600 F   0  0  0  0  0  0  0  0  0  0  0  0
   -6.7080   24.4360  -30.1040 C   0  0  0  0  0  0  0  0  0  0  0  0
   -5.4670   24.8420  -29.7680 N   0  0  0  0  0  0  0  0  0  0  0  0
   -4.2420   24.5170  -30.2370 C   0  0  0  0  0  0  0  0  0  0  0  0
   -3.1190   25.1280  -29.6700 O   0  0  0  0  0  0  0  0  0  0  0  0
   -2.3780   24.5530  -28.5990 C   0  0  0  0  0  0  0  0  0  0  0  0
   -4.0200   23.6210  -31.2230 N   0  0  0  0  0  0  0  0  0  0  0  0
   -4.8200   22.8660  -32.0080 C   0  0  0  0  0  0  0  0  0  0  0  0
   -4.2440   22.0980  -32.8250 O   0  0  0  0  0  0  0  0  0  0  0  0
   -7.6910   19.9230  -31.9680 C   0  0  0  0  0  0  0  0  0  0  0  0
   -7.6750   18.5240  -31.9640 C   0  0  0  0  0  0  0  0  0  0  0  0
   -5.4296   14.9587  -33.3896 H   0  0  0  0  0  0  0  0  0  0  0  0
   -6.8154   15.1139  -34.5219 H   0  0  0  0  0  0  0  0  0  0  0  0
   -5.5128   16.3508  -34.5219 H   0  0  0  0  0  0  0  0  0  0  0  0
   -5.4459   17.9990  -34.5038 H   0  0  0  0  0  0  0  0  0  0  0  0
   -5.4723   20.4887  -34.5072 H   0  0  0  0  0  0  0  0  0  0  0  0
   -7.5357   24.8570  -29.5143 H   0  0  0  0  0  0  0  0  0  0  0  0
   -2.8035   24.8832  -27.6399 H   0  0  0  0  0  0  0  0  0  0  0  0
   -2.4296   23.4562  -28.6648 H   0  0  0  0  0  0  0  0  0  0  0  0
   -1.3283   24.8753  -28.6648 H   0  0  0  0  0  0  0  0  0  0  0  0
   -8.3194   20.4655  -31.2463 H   0  0  0  0  0  0  0  0  0  0  0  0
   -8.2957   17.9712  -31.2435 H   0  0  0  0  0  0  0  0  0  0  0  0
  1  2  1  0
  2  3  1  0
  3  4  2  0
  4  5  1  0
  5  6  2  0
  6  7  1  0
  7  8  1  0
  8  9  2  0
  9 10  1  0
  9 11  1  0
 11 12  2  0
 12 13  1  0
 13 14  1  0
 14 15  1  0
 13 16  2  0
 16 17  1  0
 17 18  2  0
  6 19  1  0
 19 20  2  0
 20  3  1  0
 17  8  1  0
  1 21  1  0
  1 22  1  0
  1 23  1  0
  4 24  1  0
  5 25  1  0
 11 26  1  0
 15 27  1  0
 15 28  1  0
 15 29  1  0
 19 30  1  0
 20 31  1  0
M  END
>  <UniqueID>  (5) 
5

>  <SMILES>  (5) 
COc1ccc(Oc2c(F)cnc(OC)nc2=O)cc1

>  <Energy>  (5) 
59.05050534301094

>  <Genealogy>  (5) 
COc1ccc(Oc2c(F)cnc(OC)nc2=O)cc1 (3D coordinates assigned)
COc1ccc(Oc2c(F)cnc(OC)nc2=O)cc1 (optimized conformer: 59.05050534301094 kcal/mol)

>  <smiles>  (5) 
COc1ccc(Oc2c(F)cnc(OC)nc2=O)cc1

>  <score_type>  (5) 
oracle

>  <origin>  (5) 
adgpu

>  <m_score__min__energy>  (5) 
-6.4500000000000002

>  <m_primary>  (5) 
energy

$$$$
5:0
     RDKit          3D

 32 33  0  0  0  0  0  0  0  0999 V2000
   -6.4860   25.6630  -29.4210 C   0  0  0  0  0  0  0  0  0  0  0  0
   -6.0390   24.5490  -30.3100 C   0  0  0  0  0  0  0  0  0  0  0  0
   -6.8830   23.6090  -30.7810 N   0  0  0  0  0  0  0  0  0  0  0  0
   -6.1700   22.7220  -31.4600 N   0  0  0  0  0  0  0  0  0  0  0  0
   -6.7480   21.5500  -32.1070 C   0  0  0  0  0  0  0  0  0  0  0  0
   -4.8610   23.0520  -31.4100 C   0  0  0  0  0  0  0  0  0  0  0  0
   -3.7570   22.3160  -32.1050 C   0  0  0  0  0  0  0  0  0  0  0  0
   -4.7440   24.2320  -30.7090 C   0  0  0  0  0  0  0  0  0  0  0  0
   -3.5120   24.9200  -30.4570 N   0  0  0  0  0  0  0  0  0  0  0  0
   -2.4310   24.6090  -29.1370 S   0  0  0  0  0  0  0  0  0  0  0  0
   -1.2310   25.5070  -29.2490 O   0  0  0  0  0  0  0  0  0  0  0  0
   -3.1440   24.9060  -27.8500 O   0  0  0  0  0  0  0  0  0  0  0  0
   -1.9490   22.9150  -29.1220 C   0  0  0  0  0  0  0  0  0  0  0  0
   -0.8840   22.4790  -29.9250 C   0  0  0  0  0  0  0  0  0  0  0  0
   -0.4930   21.1370  -29.9030 C   0  0  0  0  0  0  0  0  0  0  0  0
   -1.1680   20.2230  -29.0870 C   0  0  0  0  0  0  0  0  0  0  0  0
   -0.7860   18.9230  -29.0650 F   0  0  0  0  0  0  0  0  0  0  0  0
   -2.2380   20.6510  -28.2950 C   0  0  0  0  0  0  0  0  0  0  0  0
   -2.6300   21.9940  -28.3140 C   0  0  0  0  0  0  0  0  0  0  0  0
   -6.3659   25.3636  -28.3694 H   0  0  0  0  0  0  0  0  0  0  0  0
   -5.8771   26.5574  -29.6195 H   0  0  0  0  0  0  0  0  0  0  0  0
   -7.5442   25.8884  -29.6195 H   0  0  0  0  0  0  0  0  0  0  0  0
   -7.0969   20.8426  -31.3403 H   0  0  0  0  0  0  0  0  0  0  0  0
   -7.5971   21.8589  -32.7344 H   0  0  0  0  0  0  0  0  0  0  0  0
   -5.9861   21.0644  -32.7344 H   0  0  0  0  0  0  0  0  0  0  0  0
   -3.0864   21.8689  -31.3564 H   0  0  0  0  0  0  0  0  0  0  0  0
   -4.1851   21.5220  -32.7345 H   0  0  0  0  0  0  0  0  0  0  0  0
   -3.1887   23.0166  -32.7345 H   0  0  0  0  0  0  0  0  0  0  0  0
   -0.3560   23.1943  -30.5728 H   0  0  0  0  0  0  0  0  0  0  0  0
    0.3466   20.7993  -30.5282 H   0  0  0  0  0  0  0  0  0  0  0  0
   -2.7718   19.9315  -27.6567 H   0  0  0  0  0  0  0  0  0  0  0  0
   -3.4746   22.3279  -27.6934 H   0  0  0  0  0  0  0  0  0  0  0  0
  1  2  1  0
  2  3  2  0
  3  4  1  0
  4  5  1  0
  4  6  1  0
  6  7  1  0
  6  8  2  0
  8  9  1  0
  9 10  1  0
 10 11  2  0
 10 12  2  0
 10 13  1  0
 13 14  2  0
 14 15  1  0
 15 16  2  0
 16 17  1  0
 16 18  1  0
 18 19  2  0
  8  2  1  0
 19 13  1  0
  1 20  1  0
  1 21  1  0
  1 22  1  0
  5 23  1  0
  5 24  1  0
  5 25  1  0
  7 26  1  0
  7 27  1  0
  7 28  1  0
 14 29  1  0
 15 30  1  0
 18 31  1  0
 19 32  1  0
M  CHG  1   9  -1
M  END
>  <UniqueID>  (6) 
6

>  <SMILES>  (6) 
Cc1nn(C)c(C)c1[N-]S(=O)(=O)c1ccc(F)cc1

>  <Energy>  (6) 
66.55133494583148

>  <Genealogy>  (6) 
Cc1nn(C)c(C)c1[N-]S(=O)(=O)c1ccc(F)cc1 (protonated)
Cc1nn(C)c(C)c1[N-]S(=O)(=O)c1ccc(F)cc1 (3D coordinates assigned)
Cc1nn(C)c(C)c1[N-]S(=O)(=O)c1ccc(F)cc1 (optimized conformer: 66.55133494583148 kcal/mol)

>  <smiles>  (6) 
Cc1nn(C)c(C)c1NS(=O)(=O)c1ccc(F)cc1

>  <score_type>  (6) 
oracle

>  <origin>  (6) 
adgpu

>  <m_score__min__energy>  (6) 
-7.9199999999999999

>  <m_primary>  (6) 
energy

$$$$
6:0
     RDKit          3D

 51 54  0  0  0  0  0  0  0  0999 V2000
   -1.8370   25.3600  -28.8850 O   0  0  0  0  0  0  0  0  0  0  0  0
   -2.4760   24.5480  -29.6060 C   0  0  0  0  0  0  0  0  0  0  0  0
   -3.5060   25.0580  -30.4630 N   0  0  0  0  0  0  0  0  0  0  0  0
   -4.8460   24.5550  -30.5670 C   0  0  0  0  0  0  0  0  0  0  0  0
   -5.9510   25.2840  -30.1020 C   0  0  0  0  0  0  0  0  0  0  0  0
   -7.2060   24.7800  -30.2330 N   0  0  0  0  0  0  0  0  0  0  0  0
   -7.4370   23.5740  -30.8160 C   0  0  0  0  0  0  0  0  0  0  0  0
   -6.3690   22.8140  -31.3220 C   0  0  0  0  0  0  0  0  0  0  0  0
   -6.6100   21.5010  -31.9740 C   0  0  0  0  0  0  0  0  0  0  0  0
   -7.8990   20.9460  -32.0080 C   0  0  0  0  0  0  0  0  0  0  0  0
   -8.1060   19.7160  -32.6320 C   0  0  0  0  0  0  0  0  0  0  0  0
   -7.0630   19.0550  -33.1990 N   0  0  0  0  0  0  0  0  0  0  0  0
   -5.7940   19.5480  -33.1800 C   0  0  0  0  0  0  0  0  0  0  0  0
   -4.7320   18.8010  -33.8100 N   0  0  0  0  0  0  0  0  0  0  0  0
   -3.3410   19.2820  -33.7820 C   0  0  0  0  0  0  0  0  0  0  0  0
   -2.3170   18.1240  -33.7170 C   0  0  0  0  0  0  0  0  0  0  0  0
   -2.8250   16.8300  -34.2150 N   0  0  0  0  0  0  0  0  0  0  0  0
   -3.8520   16.9900  -35.2480 C   0  0  0  0  0  0  0  0  0  0  0  0
   -5.0950   17.6450  -34.6430 C   0  0  0  0  0  0  0  0  0  0  0  0
   -5.5520   20.7930  -32.5710 C   0  0  0  0  0  0  0  0  0  0  0  0
   -5.0670   23.3270  -31.1960 C   0  0  0  0  0  0  0  0  0  0  0  0
   -2.1070   23.1130  -29.5860 C   0  0  0  0  0  0  0  0  0  0  0  0
   -1.7240   22.4550  -30.7660 C   0  0  0  0  0  0  0  0  0  0  0  0
   -1.3770   21.1030  -30.7400 C   0  0  0  0  0  0  0  0  0  0  0  0
   -1.3960   20.3940  -29.5360 C   0  0  0  0  0  0  0  0  0  0  0  0
   -1.0580   19.0790  -29.5400 F   0  0  0  0  0  0  0  0  0  0  0  0
   -1.7580   21.0370  -28.3390 C   0  0  0  0  0  0  0  0  0  0  0  0
   -1.7750   20.2550  -27.0470 C   0  0  0  0  0  0  0  0  0  0  0  0
   -3.0200   19.6770  -26.8750 F   0  0  0  0  0  0  0  0  0  0  0  0
   -0.8170   19.2570  -27.0980 F   0  0  0  0  0  0  0  0  0  0  0  0
   -1.5080   21.0620  -25.9540 F   0  0  0  0  0  0  0  0  0  0  0  0
   -2.1100   22.4000  -28.3740 C   0  0  0  0  0  0  0  0  0  0  0  0
   -5.8009   26.2662  -29.6301 H   0  0  0  0  0  0  0  0  0  0  0  0
   -8.4654   23.1910  -30.8920 H   0  0  0  0  0  0  0  0  0  0  0  0
   -8.7422   21.4790  -31.5444 H   0  0  0  0  0  0  0  0  0  0  0  0
   -9.1154   19.2802  -32.6652 H   0  0  0  0  0  0  0  0  0  0  0  0
   -3.1522   19.8697  -34.6925 H   0  0  0  0  0  0  0  0  0  0  0  0
   -3.2154   19.8917  -32.8751 H   0  0  0  0  0  0  0  0  0  0  0  0
   -1.4415   18.4050  -34.3208 H   0  0  0  0  0  0  0  0  0  0  0  0
   -2.0764   17.9778  -32.6536 H   0  0  0  0  0  0  0  0  0  0  0  0
   -3.2200   16.2790  -33.4170 H   0  0  0  0  0  0  0  0  0  0  0  0
   -2.0280   16.2830  -34.6160 H   0  0  0  0  0  0  0  0  0  0  0  0
   -3.4612   17.6250  -36.0568 H   0  0  0  0  0  0  0  0  0  0  0  0
   -4.1205   16.0021  -35.6505 H   0  0  0  0  0  0  0  0  0  0  0  0
   -5.7556   17.9812  -35.4558 H   0  0  0  0  0  0  0  0  0  0  0  0
   -5.6066   16.9051  -34.0099 H   0  0  0  0  0  0  0  0  0  0  0  0
   -4.5352   21.2125  -32.5619 H   0  0  0  0  0  0  0  0  0  0  0  0
   -4.2150   22.7574  -31.5956 H   0  0  0  0  0  0  0  0  0  0  0  0
   -1.6972   23.0081  -31.7164 H   0  0  0  0  0  0  0  0  0  0  0  0
   -1.0875   20.5938  -31.6711 H   0  0  0  0  0  0  0  0  0  0  0  0
   -2.3906   22.9130  -27.4423 H   0  0  0  0  0  0  0  0  0  0  0  0
  1  2  2  0
  2  3  1  0
  3  4  1  0
  4  5  2  0
  5  6  1  0
  6  7  2  0
  7  8  1  0
  8  9  1  0
  9 10  2  0
 10 11  1  0
 11 12  2  0
 12 13  1  0
 13 14  1  0
 14 15  1  0
 15 16  1  0
 16 17  1  0
 17 18  1  0
 18 19  1  0
 13 20  2  0
  8 21  2  0
  2 22  1  0
 22 23  2  0
 23 24  1  0
 24 25  2  0
 25 26  1  0
 25 27  1  0
 27 28  1  0
 28 29  1  0
 28 30  1  0
 28 31  1  0
 27 32  2  0
 21  4  1  0
 32 22  1  0
 20  9  1  0
 19 14  1  0
  5 33  1  0
  7 34  1  0
 10 35  1  0
 11 36  1  0
 15 37  1  0
 15 38  1  0
 16 39  1  0
 16 40  1  0
 17 41  1  0
 17 42  1  0
 18 43  1  0
 18 44  1  0
 19 45  1  0
 19 46  1  0
 20 47  1  0
 21 48  1  0
 23 49  1  0
 24 50  1  0
 32 51  1  0
M  CHG  2   3  -1  17   1
M  END
>  <UniqueID>  (7) 
7

>  <SMILES>  (7) 
O=C([N-]c1cncc(-c2ccnc(N3CC[NH2+]CC3)c2)c1)c1ccc(F)c(C(F)(F)F)c1

>  <Energy>  (7) 
76.11074890134947

>  <Genealogy>  (7) 
O=C([N-]c1cncc(-c2ccnc(N3CC[NH2+]CC3)c2)c1)c1ccc(F)c(C(F)(F)F)c1 (protonated)
O=C([N-]c1cncc(-c2ccnc(N3CC[NH2+]CC3)c2)c1)c1ccc(F)c(C(F)(F)F)c1 (3D coordinates assigned)
O=C([N-]c1cncc(-c2ccnc(N3CC[NH2+]CC3)c2)c1)c1ccc(F)c(C(F)(F)F)c1 (nonaromatic ring conformer: 76.11074890134947 kcal/mol)

>  <smiles>  (7) 
O=C(Nc1cncc(-c2ccnc(N3CCNCC3)c2)c1)c1ccc(F)c(C(F)(F)F)c1

>  <score_type>  (7) 
oracle

>  <origin>  (7) 
adgpu

>  <m_score__min__energy>  (7) 
-10.199999999999999

>  <m_primary>  (7) 
energy

$$$$
7:0
     RDKit          3D

 54 56  0  0  0  0  0  0  0  0999 V2000
    0.0990   18.4140  -28.3390 C   0  0  0  0  0  0  0  0  0  0  0  0
    0.3050   19.5170  -29.2140 O   0  0  0  0  0  0  0  0  0  0  0  0
   -0.3150   20.7710  -29.0810 C   0  0  0  0  0  0  0  0  0  0  0  0
   -0.0760   21.5930  -27.9610 C   0  0  0  0  0  0  0  0  0  0  0  0
   -0.6620   22.8570  -27.8730 C   0  0  0  0  0  0  0  0  0  0  0  0
   -1.4990   23.3220  -28.8920 C   0  0  0  0  0  0  0  0  0  0  0  0
   -2.2020   24.9370  -28.7810 S   0  0  0  0  0  0  0  0  0  0  0  0
   -2.7580   25.1400  -27.3990 O   0  0  0  0  0  0  0  0  0  0  0  0
   -1.1460   25.9800  -29.0250 O   0  0  0  0  0  0  0  0  0  0  0  0
   -3.4780   25.1340  -29.9460 N   0  0  0  0  0  0  0  0  0  0  0  0
   -4.6570   24.3490  -29.5580 C   0  0  0  0  0  0  0  0  0  0  0  0
   -4.9110   23.2450  -30.5940 C   0  0  0  0  0  0  0  0  0  0  0  0
   -4.0000   23.3510  -31.6620 O   0  0  0  0  0  0  0  0  0  0  0  0
   -1.7650   22.5030  -29.9950 C   0  0  0  0  0  0  0  0  0  0  0  0
   -1.1770   21.2290  -30.1060 C   0  0  0  0  0  0  0  0  0  0  0  0
   -1.4540   20.4070  -31.3150 C   0  0  0  0  0  0  0  0  0  0  0  0
   -0.4050   20.0470  -32.1770 C   0  0  0  0  0  0  0  0  0  0  0  0
   -0.6690   19.2680  -33.3020 C   0  0  0  0  0  0  0  0  0  0  0  0
   -1.9360   18.8570  -33.5640 N   0  0  0  0  0  0  0  0  0  0  0  0
   -2.9890   19.1960  -32.7660 C   0  0  0  0  0  0  0  0  0  0  0  0
   -4.3010   18.6900  -33.0750 N   0  0  0  0  0  0  0  0  0  0  0  0
   -4.7050   18.3510  -34.4420 C   0  0  0  0  0  0  0  0  0  0  0  0
   -6.1030   18.9240  -34.7540 C   0  0  0  0  0  0  0  0  0  0  0  0
   -6.9780   19.0730  -33.5580 N   0  0  0  0  0  0  0  0  0  0  0  0
   -6.9910   20.4660  -33.0660 C   0  0  0  0  0  0  0  0  0  0  0  0
   -6.6380   18.1170  -32.4790 C   0  0  0  0  0  0  0  0  0  0  0  0
   -5.1960   18.3080  -31.9760 C   0  0  0  0  0  0  0  0  0  0  0  0
   -2.7590   19.9800  -31.6210 C   0  0  0  0  0  0  0  0  0  0  0  0
    0.1630   18.7567  -27.2957 H   0  0  0  0  0  0  0  0  0  0  0  0
   -0.8955   17.9812  -28.5224 H   0  0  0  0  0  0  0  0  0  0  0  0
    0.8703   17.6514  -28.5224 H   0  0  0  0  0  0  0  0  0  0  0  0
    0.5768   21.2360  -27.1508 H   0  0  0  0  0  0  0  0  0  0  0  0
   -0.4640   23.4913  -26.9964 H   0  0  0  0  0  0  0  0  0  0  0  0
   -4.4833   23.8920  -28.5726 H   0  0  0  0  0  0  0  0  0  0  0  0
   -5.5343   25.0109  -29.5103 H   0  0  0  0  0  0  0  0  0  0  0  0
   -4.7919   22.2630  -30.1129 H   0  0  0  0  0  0  0  0  0  0  0  0
   -5.9328   23.3541  -30.9863 H   0  0  0  0  0  0  0  0  0  0  0  0
   -3.5030   24.2060  -31.5400 H   0  0  0  0  0  0  0  0  0  0  0  0
   -2.4421   22.8593  -30.7853 H   0  0  0  0  0  0  0  0  0  0  0  0
    0.6220   20.3790  -31.9647 H   0  0  0  0  0  0  0  0  0  0  0  0
    0.1508   18.9856  -33.9789 H   0  0  0  0  0  0  0  0  0  0  0  0
   -3.9756   18.7725  -35.1494 H   0  0  0  0  0  0  0  0  0  0  0  0
   -4.7412   17.2559  -34.5394 H   0  0  0  0  0  0  0  0  0  0  0  0
   -5.9757   19.9147  -35.2149 H   0  0  0  0  0  0  0  0  0  0  0  0
   -6.5990   18.2057  -35.4233 H   0  0  0  0  0  0  0  0  0  0  0  0
   -7.9610   18.8560  -33.8540 H   0  0  0  0  0  0  0  0  0  0  0  0
   -6.9910   20.4664  -31.9660 H   0  0  0  0  0  0  0  0  0  0  0  0
   -6.0977   20.9928  -33.4328 H   0  0  0  0  0  0  0  0  0  0  0  0
   -7.8939   20.9760  -33.4328 H   0  0  0  0  0  0  0  0  0  0  0  0
   -7.3309   18.2686  -31.6382 H   0  0  0  0  0  0  0  0  0  0  0  0
   -6.7249   17.0988  -32.8860 H   0  0  0  0  0  0  0  0  0  0  0  0
   -5.1837   19.0983  -31.2110 H   0  0  0  0  0  0  0  0  0  0  0  0
   -4.8439   17.3558  -31.5526 H   0  0  0  0  0  0  0  0  0  0  0  0
   -3.5978   20.2586  -30.9662 H   0  0  0  0  0  0  0  0  0  0  0  0
  1  2  1  0
  2  3  1  0
  3  4  2  0
  4  5  1  0
  5  6  2  0
  6  7  1  0
  7  8  2  0
  7  9  2  0
  7 10  1  0
 10 11  1  0
 11 12  1  0
 12 13  1  0
  6 14  1  0
 14 15  2  0
 15 16  1  0
 16 17  2  0
 17 18  1  0
 18 19  2  0
 19 20  1  0
 20 21  1  0
 21 22  1  0
 22 23  1  0
 23 24  1  0
 24 25  1  0
 24 26  1  0
 26 27  1  0
 20 28  2  0
 15  3  1  0
 28 16  1  0
 27 21  1  0
  1 29  1  0
  1 30  1  0
  1 31  1  0
  4 32  1  0
  5 33  1  0
 11 34  1  0
 11 35  1  0
 12 36  1  0
 12 37  1  0
 13 38  1  0
 14 39  1  0
 17 40  1  0
 18 41  1  0
 22 42  1  0
 22 43  1  0
 23 44  1  0
 23 45  1  0
 24 46  1  0
 25 47  1  0
 25 48  1  0
 25 49  1  0
 26 50  1  0
 26 51  1  0
 27 52  1  0
 27 53  1  0
 28 54  1  0
M  CHG  2  10  -1  24   1
M  END
>  <UniqueID>  (8) 
8

>  <SMILES>  (8) 
COc1ccc(S(=O)(=O)[N-]CCO)cc1-c1ccnc(N2CC[NH+](C)CC2)c1

>  <Energy>  (8) 
69.05857815163597

>  <Genealogy>  (8) 
COc1ccc(S(=O)(=O)[N-]CCO)cc1-c1ccnc(N2CC[NH+](C)CC2)c1 (protonated)
COc1ccc(S(=O)(=O)[N-]CCO)cc1-c1ccnc(N2CC[NH+](C)CC2)c1 (3D coordinates assigned)
COc1ccc(S(=O)(=O)[N-]CCO)cc1-c1ccnc(N2CC[NH+](C)CC2)c1 (nonaromatic ring conformer: 69.05857815163597 kcal/mol)

>  <smiles>  (8) 
COc1ccc(S(=O)(=O)NCCO)cc1-c1ccnc(N2CCN(C)CC2)c1

>  <score_type>  (8) 
oracle

>  <origin>  (8) 
adgpu

>  <m_score__min__energy>  (8) 
-8.9800000000000004

>  <m_primary>  (8) 
energy

$$$$
8:0
     RDKit          3D

 30 31  0  0  0  0  0  0  0  0999 V2000
   -3.8570   24.5430  -27.0290 C   0  0  0  0  0  0  0  0  0  0  0  0
   -2.3650   24.5080  -27.3600 C   0  0  0  0  0  0  0  0  0  0  0  0
   -2.1030   24.6060  -28.8700 C   0  0  0  0  0  0  0  0  0  0  0  0
   -3.3410   24.3760  -29.6970 C   0  0  0  0  0  0  0  0  0  0  0  0
   -3.8810   25.2880  -30.5300 N   0  0  0  0  0  0  0  0  0  0  0  0
   -4.9060   24.7040  -31.1330 N   0  0  0  0  0  0  0  0  0  0  0  0
   -5.0360   23.4470  -30.7330 N   0  0  0  0  0  0  0  0  0  0  0  0
   -6.0710   22.5630  -31.2060 C   0  0  0  0  0  0  0  0  0  0  0  0
   -7.3900   22.6960  -30.7380 C   0  0  0  0  0  0  0  0  0  0  0  0
   -8.3780   21.8230  -31.1990 C   0  0  0  0  0  0  0  0  0  0  0  0
   -8.0490   20.8230  -32.1180 C   0  0  0  0  0  0  0  0  0  0  0  0
   -9.0560   19.9160  -32.6010 C   0  0  0  0  0  0  0  0  0  0  0  0
   -9.8680   19.1870  -32.9900 N   0  0  0  0  0  0  0  0  0  0  0  0
   -6.7270   20.7140  -32.5620 C   0  0  0  0  0  0  0  0  0  0  0  0
   -5.7830   21.5750  -32.1000 N   0  0  0  0  0  0  0  0  0  0  0  0
   -4.0510   23.1970  -29.8390 C   0  0  0  0  0  0  0  0  0  0  0  0
   -3.7790   21.8830  -29.1660 C   0  0  0  0  0  0  0  0  0  0  0  0
   -3.9904   24.5461  -25.9371 H   0  0  0  0  0  0  0  0  0  0  0  0
   -4.3061   25.4519  -27.4558 H   0  0  0  0  0  0  0  0  0  0  0  0
   -4.3482   23.6561  -27.4558 H   0  0  0  0  0  0  0  0  0  0  0  0
   -1.8712   25.3538  -26.8592 H   0  0  0  0  0  0  0  0  0  0  0  0
   -1.9640   23.5455  -27.0096 H   0  0  0  0  0  0  0  0  0  0  0  0
   -1.7131   25.6099  -29.0939 H   0  0  0  0  0  0  0  0  0  0  0  0
   -1.3811   23.8182  -29.1311 H   0  0  0  0  0  0  0  0  0  0  0  0
   -7.6426   23.4834  -30.0126 H   0  0  0  0  0  0  0  0  0  0  0  0
   -9.4128   21.9224  -30.8395 H   0  0  0  0  0  0  0  0  0  0  0  0
   -6.4519   19.9317  -33.2847 H   0  0  0  0  0  0  0  0  0  0  0  0
   -3.8068   22.0173  -28.0746 H   0  0  0  0  0  0  0  0  0  0  0  0
   -4.5449   21.1523  -29.4651 H   0  0  0  0  0  0  0  0  0  0  0  0
   -2.7859   21.5165  -29.4651 H   0  0  0  0  0  0  0  0  0  0  0  0
  1  2  1  0
  2  3  1  0
  3  4  1  0
  4  5  1  0
  5  6  2  0
  6  7  1  0
  7  8  1  0
  8  9  2  0
  9 10  1  0
 10 11  2  0
 11 12  1  0
 12 13  3  0
 11 14  1  0
 14 15  2  0
  7 16  1  0
 16 17  1  0
 16  4  2  0
 15  8  1  0
  1 18  1  0
  1 19  1  0
  1 20  1  0
  2 21  1  0
  2 22  1  0
  3 23  1  0
  3 24  1  0
  9 25  1  0
 10 26  1  0
 14 27  1  0
 17 28  1  0
 17 29  1  0
 17 30  1  0
M  END
>  <UniqueID>  (9) 
9

>  <SMILES>  (9) 
CCCc1nnn(-c2ccc(C#N)cn2)c1C

>  <Energy>  (9) 
63.08526679449546

>  <Genealogy>  (9) 
CCCc1nnn(-c2ccc(C#N)cn2)c1C (3D coordinates assigned)
CCCc1nnn(-c2ccc(C#N)cn2)c1C (optimized conformer: 63.08526679449546 kcal/mol)

>  <smiles>  (9) 
CCCc1nnn(-c2ccc(C#N)cn2)c1C

>  <score_type>  (9) 
oracle

>  <origin>  (9) 
adgpu

>  <m_score__min__energy>  (9) 
-7.0599999999999996

>  <m_primary>  (9) 
energy

$$$$
9:0
     RDKit          3D

 36 38  0  0  0  0  0  0  0  0999 V2000
   -6.1110   25.9960  -29.7440 C   0  0  0  0  0  0  0  0  0  0  0  0
   -5.4210   25.4310  -30.8530 O   0  0  0  0  0  0  0  0  0  0  0  0
   -4.7490   24.1980  -30.8260 C   0  0  0  0  0  0  0  0  0  0  0  0
   -5.3140   23.0220  -31.3560 C   0  0  0  0  0  0  0  0  0  0  0  0
   -4.6080   21.8070  -31.3160 C   0  0  0  0  0  0  0  0  0  0  0  0
   -5.2150   20.5700  -31.8680 C   0  0  0  0  0  0  0  0  0  0  0  0
   -6.5980   20.3660  -31.7620 C   0  0  0  0  0  0  0  0  0  0  0  0
   -7.1620   19.2640  -32.2390 O   0  0  0  0  0  0  0  0  0  0  0  0
   -6.4710   18.3020  -32.8390 C   0  0  0  0  0  0  0  0  0  0  0  0
   -7.1430   17.1720  -33.3060 C   0  0  0  0  0  0  0  0  0  0  0  0
   -6.4430   16.1400  -33.9300 C   0  0  0  0  0  0  0  0  0  0  0  0
   -7.1270   15.0150  -34.3730 O   0  0  0  0  0  0  0  0  0  0  0  0
   -5.0580   16.2310  -34.1030 C   0  0  0  0  0  0  0  0  0  0  0  0
   -4.3830   15.1660  -34.7020 O   0  0  0  0  0  0  0  0  0  0  0  0
   -4.3650   17.3790  -33.6650 C   0  0  0  0  0  0  0  0  0  0  0  0
   -2.9880   17.4750  -33.8830 O   0  0  0  0  0  0  0  0  0  0  0  0
   -2.4050   17.0820  -35.1210 C   0  0  0  0  0  0  0  0  0  0  0  0
   -5.0690   18.4170  -33.0060 C   0  0  0  0  0  0  0  0  0  0  0  0
   -4.4410   19.5810  -32.5060 C   0  0  0  0  0  0  0  0  0  0  0  0
   -3.1980   19.7500  -32.6380 O   0  0  0  0  0  0  0  0  0  0  0  0
   -3.3330   21.7750  -30.7270 C   0  0  0  0  0  0  0  0  0  0  0  0
   -2.7690   22.9390  -30.2010 C   0  0  0  0  0  0  0  0  0  0  0  0
   -3.4720   24.1460  -30.2500 C   0  0  0  0  0  0  0  0  0  0  0  0
   -2.8990   25.2960  -29.7220 O   0  0  0  0  0  0  0  0  0  0  0  0
   -5.6635   25.6295  -28.8084 H   0  0  0  0  0  0  0  0  0  0  0  0
   -6.0324   27.0925  -29.7832 H   0  0  0  0  0  0  0  0  0  0  0  0
   -7.1704   25.7027  -29.7832 H   0  0  0  0  0  0  0  0  0  0  0  0
   -6.3174   23.0544  -31.8056 H   0  0  0  0  0  0  0  0  0  0  0  0
   -7.2237   21.1297  -31.2770 H   0  0  0  0  0  0  0  0  0  0  0  0
   -8.2331   17.0946  -33.1810 H   0  0  0  0  0  0  0  0  0  0  0  0
   -4.8560   14.3240  -35.0060 H   0  0  0  0  0  0  0  0  0  0  0  0
   -1.5071   16.4767  -34.9277 H   0  0  0  0  0  0  0  0  0  0  0  0
   -3.1308   16.4881  -35.6959 H   0  0  0  0  0  0  0  0  0  0  0  0
   -2.1267   17.9776  -35.6959 H   0  0  0  0  0  0  0  0  0  0  0  0
   -2.7759   20.8277  -30.6799 H   0  0  0  0  0  0  0  0  0  0  0  0
   -1.7679   22.9059  -29.7464 H   0  0  0  0  0  0  0  0  0  0  0  0
  1  2  1  0
  2  3  1  0
  3  4  2  0
  4  5  1  0
  5  6  1  0
  6  7  2  0
  7  8  1  0
  8  9  1  0
  9 10  2  0
 10 11  1  0
 11 12  1  0
 11 13  2  0
 13 14  1  0
 13 15  1  0
 15 16  1  0
 16 17  1  0
 15 18  2  0
 18 19  1  0
 19 20  2  0
  5 21  2  0
 21 22  1  0
 22 23  2  0
 23 24  1  0
 23  3  1  0
 19  6  1  0
 18  9  1  0
  1 25  1  0
  1 26  1  0
  1 27  1  0
  4 28  1  0
  7 29  1  0
 10 30  1  0
 14 31  1  0
 17 32  1  0
 17 33  1  0
 17 34  1  0
 21 35  1  0
 22 36  1  0
M  CHG  2  12  -1  24  -1
M  END
>  <UniqueID>  (10) 
10

>  <SMILES>  (10) 
COc1cc(-c2coc3cc([O-])c(O)c(OC)c3c2=O)ccc1[O-]

>  <Energy>  (10) 
58.81715099491448

>  <Genealogy>  (10) 
COc1cc(-c2coc3cc([O-])c(O)c(OC)c3c2=O)ccc1[O-] (protonated)
COc1cc(-c2coc3cc([O-])c(O)c(OC)c3c2=O)ccc1[O-] (3D coordinates assigned)
COc1cc(-c2coc3cc([O-])c(O)c(OC)c3c2=O)ccc1[O-] (optimized conformer: 58.81715099491448 kcal/mol)

>  <smiles>  (10) 
COc1cc(-c2coc3cc(O)c(O)c(OC)c3c2=O)ccc1O

>  <score_type>  (10) 
oracle

>  <origin>  (10) 
adgpu

>  <m_score__min__energy>  (10) 
-8.9900000000000002

>  <m_primary>  (10) 
energy

$$$$
10:0
     RDKit          3D

 39 41  0  0  0  0  0  0  0  0999 V2000
   -5.4966   23.9771  -32.2210 H   0  0  0  0  0  0  0  0  0  0  0  0
   -4.9570   23.1140  -31.8040 C   0  0  0  0  0  0  0  0  0  0  0  0
   -5.3640   21.7750  -32.2680 C   0  0  0  0  0  0  0  0  0  0  0  0
   -4.4910   20.7710  -32.4740 N   0  0  0  0  0  0  0  0  0  0  0  0
   -5.2580   19.7920  -32.9960 C   0  0  0  0  0  0  0  0  0  0  0  0
   -4.8753   18.7985  -33.2725 H   0  0  0  0  0  0  0  0  0  0  0  0
   -6.5140   20.1560  -33.1380 O   0  0  0  0  0  0  0  0  0  0  0  0
   -6.6130   21.3890  -32.7090 C   0  0  0  0  0  0  0  0  0  0  0  0
   -7.5248   22.0043  -32.7015 H   0  0  0  0  0  0  0  0  0  0  0  0
   -3.9740   23.3710  -30.9070 C   0  0  0  0  0  0  0  0  0  0  0  0
   -3.7730   24.6840  -30.4280 C   0  0  0  0  0  0  0  0  0  0  0  0
   -4.5000   25.6420  -30.8090 O   0  0  0  0  0  0  0  0  0  0  0  0
   -2.7870   24.9260  -29.5290 N   0  0  0  0  0  0  0  0  0  0  0  0
   -1.9600   23.9500  -29.0700 C   0  0  0  0  0  0  0  0  0  0  0  0
   -1.0000   24.2370  -28.1650 C   0  0  0  0  0  0  0  0  0  0  0  0
   -0.3694   23.4122  -27.8014 H   0  0  0  0  0  0  0  0  0  0  0  0
   -0.7440   25.5980  -27.6310 C   0  0  0  0  0  0  0  0  0  0  0  0
   -0.8570   26.7190  -28.3720 N   0  0  0  0  0  0  0  0  0  0  0  0
   -0.5030   27.7080  -27.5310 C   0  0  0  0  0  0  0  0  0  0  0  0
   -0.4828   28.7717  -27.8105 H   0  0  0  0  0  0  0  0  0  0  0  0
   -0.1850   27.2600  -26.3410 O   0  0  0  0  0  0  0  0  0  0  0  0
   -0.3190   25.9530  -26.3490 C   0  0  0  0  0  0  0  0  0  0  0  0
   -0.0390   25.0830  -25.1260 C   0  0  0  0  0  0  0  0  0  0  0  0
   -0.8160   23.7530  -25.2100 C   0  0  0  0  0  0  0  0  0  0  0  0
   -1.0292   23.3881  -24.1944 H   0  0  0  0  0  0  0  0  0  0  0  0
   -1.7619   23.9143  -25.7477 H   0  0  0  0  0  0  0  0  0  0  0  0
   -0.2109   23.0082  -25.7477 H   0  0  0  0  0  0  0  0  0  0  0  0
    1.4740   24.8220  -24.9930 C   0  0  0  0  0  0  0  0  0  0  0  0
    1.7458   24.7751  -23.9281 H   0  0  0  0  0  0  0  0  0  0  0  0
    1.7254   23.8672  -25.4780 H   0  0  0  0  0  0  0  0  0  0  0  0
    2.0308   25.6374  -25.4780 H   0  0  0  0  0  0  0  0  0  0  0  0
   -0.5090   25.8260  -23.8550 C   0  0  0  0  0  0  0  0  0  0  0  0
   -0.1645   25.2815  -22.9635 H   0  0  0  0  0  0  0  0  0  0  0  0
   -0.0895   26.8428  -23.8484 H   0  0  0  0  0  0  0  0  0  0  0  0
   -1.6075   25.8825  -23.8484 H   0  0  0  0  0  0  0  0  0  0  0  0
   -2.1420   22.6390  -29.5610 C   0  0  0  0  0  0  0  0  0  0  0  0
   -1.3940   21.6950  -29.1830 O   0  0  0  0  0  0  0  0  0  0  0  0
   -3.1300   22.3870  -30.4640 N   0  0  0  0  0  0  0  0  0  0  0  0
   -3.1870   21.4170  -30.8440 H   0  0  0  0  0  0  0  0  0  0  0  0
  1  2  1  0
  2  3  1  0
  3  4  1  0
  4  5  2  0
  5  6  1  0
  5  7  1  0
  7  8  1  0
  8  9  1  0
  2 10  2  3
 10 11  1  0
 11 12  2  0
 11 13  1  0
 13 14  1  0
 14 15  2  0
 15 16  1  0
 15 17  1  0
 17 18  1  0
 18 19  2  0
 19 20  1  0
 19 21  1  0
 21 22  1  0
 22 23  1  0
 23 24  1  0
 24 25  1  0
 24 26  1  0
 24 27  1  0
 23 28  1  0
 28 29  1  0
 28 30  1  0
 28 31  1  0
 23 32  1  0
 32 33  1  0
 32 34  1  0
 32 35  1  0
 14 36  1  0
 36 37  2  0
 36 38  1  0
 38 39  1  0
  8  3  2  0
 38 10  1  0
 22 17  2  0
M  CHG  1  13  -1
M  END
>  <UniqueID>  (11) 
11

>  <SMILES>  (11) 
CC(C)(C)c1ocnc1/C=c1\[n-]c(=O)c(=Cc2cocn2)[nH]c1=O

>  <Energy>  (11) 
114.13717180450764

>  <Genealogy>  (11) 
CC(C)(C)c1ocnc1C=c1[n-]c(=O)c(=Cc2cocn2)[nH]c1=O (protonated)
CC(C)(C)c1ocnc1/C=c1\[n-]c(=O)c(=Cc2cocn2)[nH]c1=O (cis-trans isomerization)
CC(C)(C)c1ocnc1/C=c1\[n-]c(=O)c(=Cc2cocn2)[nH]c1=O (3D coordinates assigned)
CC(C)(C)c1ocnc1/C=c1\[n-]c(=O)c(=Cc2cocn2)[nH]c1=O (optimized conformer: 114.13717180450764 kcal/mol)

>  <smiles>  (11) 
CC(C)(C)c1ocnc1C=c1[nH]c(=O)c(=Cc2cocn2)[nH]c1=O

>  <score_type>  (11) 
oracle

>  <origin>  (11) 
adgpu

>  <m_score__min__energy>  (11) 
-8.0199999999999996

>  <m_primary>  (11) 
energy

$$$$
11:0
     RDKit          3D

 39 41  0  0  0  0  0  0  0  0999 V2000
   -2.8110   24.9250  -29.1540 N   0  0  0  0  0  0  0  0  0  0  0  0
   -3.9060   24.5930  -29.7820 C   0  0  0  0  0  0  0  0  0  0  0  0
   -5.0800   25.0470  -29.3540 N   0  0  0  0  0  0  0  0  0  0  0  0
   -6.1810   24.6980  -30.0060 C   0  0  0  0  0  0  0  0  0  0  0  0
   -6.1820   23.8690  -31.1330 C   0  0  0  0  0  0  0  0  0  0  0  0
   -7.4040   23.6070  -31.6850 O   0  0  0  0  0  0  0  0  0  0  0  0
   -7.9880   22.4060  -31.9460 C   0  0  0  0  0  0  0  0  0  0  0  0
   -9.3800   22.3320  -31.7760 C   0  0  0  0  0  0  0  0  0  0  0  0
  -10.0650   21.1580  -32.0120 C   0  0  0  0  0  0  0  0  0  0  0  0
   -9.4220   20.0040  -32.4260 C   0  0  0  0  0  0  0  0  0  0  0  0
   -8.0540   20.0740  -32.5950 C   0  0  0  0  0  0  0  0  0  0  0  0
   -7.3670   18.8900  -33.0220 N   0  0  0  0  0  0  0  0  0  0  0  0
   -6.0650   18.9050  -33.5670 C   0  0  0  0  0  0  0  0  0  0  0  0
   -5.4530   19.9970  -33.6950 O   0  0  0  0  0  0  0  0  0  0  0  0
   -5.3680   17.6990  -34.0020 C   0  0  0  0  0  0  0  0  0  0  0  0
   -5.9730   16.4800  -33.7730 C   0  0  0  0  0  0  0  0  0  0  0  0
   -5.3260   15.3090  -34.1800 C   0  0  0  0  0  0  0  0  0  0  0  0
   -4.0960   15.3350  -34.8060 C   0  0  0  0  0  0  0  0  0  0  0  0
   -3.5160   16.5710  -35.0200 C   0  0  0  0  0  0  0  0  0  0  0  0
   -2.2930   16.6150  -35.6410 F   0  0  0  0  0  0  0  0  0  0  0  0
   -4.1410   17.7180  -34.6260 C   0  0  0  0  0  0  0  0  0  0  0  0
   -7.3800   21.2500  -32.3550 C   0  0  0  0  0  0  0  0  0  0  0  0
   -4.9680   23.4160  -31.5500 C   0  0  0  0  0  0  0  0  0  0  0  0
   -4.7670   22.6440  -32.5420 N   0  0  0  0  0  0  0  0  0  0  0  0
   -3.8710   23.7990  -30.8530 N   0  0  0  0  0  0  0  0  0  0  0  0
   -2.9160   25.5520  -28.3190 H   0  0  0  0  0  0  0  0  0  0  0  0
   -5.1330   25.6680  -28.5210 H   0  0  0  0  0  0  0  0  0  0  0  0
   -7.1454   25.0810  -29.6410 H   0  0  0  0  0  0  0  0  0  0  0  0
   -9.9333   23.2248  -31.4493 H   0  0  0  0  0  0  0  0  0  0  0  0
  -11.1552   21.1382  -31.8668 H   0  0  0  0  0  0  0  0  0  0  0  0
   -9.9768   19.0726  -32.6120 H   0  0  0  0  0  0  0  0  0  0  0  0
   -7.8820   18.0000  -32.9110 H   0  0  0  0  0  0  0  0  0  0  0  0
   -6.9530   16.4300  -33.2760 H   0  0  0  0  0  0  0  0  0  0  0  0
   -5.8112   14.3391  -33.9960 H   0  0  0  0  0  0  0  0  0  0  0  0
   -3.5966   14.4074  -35.1224 H   0  0  0  0  0  0  0  0  0  0  0  0
   -3.6508   18.6850  -34.8121 H   0  0  0  0  0  0  0  0  0  0  0  0
   -6.2897   21.2613  -32.5003 H   0  0  0  0  0  0  0  0  0  0  0  0
   -5.3820   22.2140  -33.2040 H   0  0  0  0  0  0  0  0  0  0  0  0
   -2.9100   23.4650  -31.1510 H   0  0  0  0  0  0  0  0  0  0  0  0
  1  2  2  3
  2  3  1  0
  3  4  1  0
  4  5  2  0
  5  6  1  0
  6  7  1  0
  7  8  2  0
  8  9  1  0
  9 10  2  0
 10 11  1  0
 11 12  1  0
 12 13  1  0
 13 14  2  0
 13 15  1  0
 15 16  2  0
 16 17  1  0
 17 18  2  0
 18 19  1  0
 19 20  1  0
 19 21  2  0
 11 22  2  0
  5 23  1  0
 23 24  2  3
 23 25  1  0
 25  2  1  0
 22  7  1  0
 21 15  1  0
  1 26  1  0
  3 27  1  0
  4 28  1  0
  8 29  1  0
  9 30  1  0
 10 31  1  0
 12 32  1  0
 16 33  1  0
 17 34  1  0
 18 35  1  0
 21 36  1  0
 22 37  1  0
 24 38  1  0
 25 39  1  0
M  END
>  <smiles>  (12) 
N=c1[nH]cc(Oc2cccc(NC(=O)c3cccc(F)c3)c2)c(=N)[nH]1

>  <score_type>  (12) 
oracle

>  <origin>  (12) 
adgpu

>  <m_score__min__energy>  (12) 
-8.3699999999999992

>  <m_primary>  (12) 
energy

$$$$
12:0
     RDKit          3D

 37 39  0  0  0  0  0  0  0  0999 V2000
   -1.1570   26.1680  -29.1340 N   0  0  0  0  0  0  0  0  0  0  0  0
   -1.7660   24.9720  -28.6330 C   0  0  0  0  0  0  0  0  0  0  0  0
   -1.1530   24.2750  -27.5800 C   0  0  0  0  0  0  0  0  0  0  0  0
   -1.7270   23.1070  -27.0750 C   0  0  0  0  0  0  0  0  0  0  0  0
   -2.9220   22.6280  -27.6120 C   0  0  0  0  0  0  0  0  0  0  0  0
   -3.5440   23.3120  -28.6590 C   0  0  0  0  0  0  0  0  0  0  0  0
   -2.9620   24.4790  -29.1930 C   0  0  0  0  0  0  0  0  0  0  0  0
   -3.6000   25.1990  -30.2590 N   0  0  0  0  0  0  0  0  0  0  0  0
   -4.8810   24.9050  -30.8330 C   0  0  0  0  0  0  0  0  0  0  0  0
   -5.7160   25.8410  -30.9510 O   0  0  0  0  0  0  0  0  0  0  0  0
   -5.2270   23.5550  -31.3360 C   0  0  0  0  0  0  0  0  0  0  0  0
   -6.5550   23.0970  -31.3150 C   0  0  0  0  0  0  0  0  0  0  0  0
   -6.8730   21.8230  -31.7920 C   0  0  0  0  0  0  0  0  0  0  0  0
   -5.8680   20.9740  -32.2900 C   0  0  0  0  0  0  0  0  0  0  0  0
   -6.2080   19.6210  -32.8000 C   0  0  0  0  0  0  0  0  0  0  0  0
   -5.7130   19.1790  -34.0410 C   0  0  0  0  0  0  0  0  0  0  0  0
   -6.0340   17.9050  -34.5190 C   0  0  0  0  0  0  0  0  0  0  0  0
   -6.8510   17.0590  -33.7650 C   0  0  0  0  0  0  0  0  0  0  0  0
   -7.3500   17.4870  -32.5320 C   0  0  0  0  0  0  0  0  0  0  0  0
   -7.0300   18.7590  -32.0490 C   0  0  0  0  0  0  0  0  0  0  0  0
   -4.5380   21.4270  -32.2930 C   0  0  0  0  0  0  0  0  0  0  0  0
   -4.2200   22.7030  -31.8170 C   0  0  0  0  0  0  0  0  0  0  0  0
   -1.2370   26.4230  -30.1440 H   0  0  0  0  0  0  0  0  0  0  0  0
   -0.6250   26.8140  -28.5100 H   0  0  0  0  0  0  0  0  0  0  0  0
   -0.2135   24.6519  -27.1496 H   0  0  0  0  0  0  0  0  0  0  0  0
   -1.2368   22.5642  -26.2534 H   0  0  0  0  0  0  0  0  0  0  0  0
   -3.3754   21.7099  -27.2101 H   0  0  0  0  0  0  0  0  0  0  0  0
   -4.4936   22.9376  -29.0690 H   0  0  0  0  0  0  0  0  0  0  0  0
   -7.3503   23.7463  -30.9201 H   0  0  0  0  0  0  0  0  0  0  0  0
   -7.9183   21.4808  -31.7780 H   0  0  0  0  0  0  0  0  0  0  0  0
   -5.0690   19.8405  -34.6391 H   0  0  0  0  0  0  0  0  0  0  0  0
   -5.6427   17.5682  -35.4903 H   0  0  0  0  0  0  0  0  0  0  0  0
   -7.1014   16.0563  -34.1418 H   0  0  0  0  0  0  0  0  0  0  0  0
   -7.9959   16.8216  -31.9403 H   0  0  0  0  0  0  0  0  0  0  0  0
   -7.4229   19.0888  -31.0759 H   0  0  0  0  0  0  0  0  0  0  0  0
   -3.7399   20.7723  -32.6731 H   0  0  0  0  0  0  0  0  0  0  0  0
   -3.1734   23.0416  -31.8195 H   0  0  0  0  0  0  0  0  0  0  0  0
  1  2  1  0
  2  3  2  0
  3  4  1  0
  4  5  2  0
  5  6  1  0
  6  7  2  0
  7  8  1  0
  8  9  1  0
  9 10  2  0
  9 11  1  0
 11 12  2  0
 12 13  1  0
 13 14  2  0
 14 15  1  0
 15 16  2  0
 16 17  1  0
 17 18  2  0
 18 19  1  0
 19 20  2  0
 14 21  1  0
 21 22  2  0
  7  2  1  0
 22 11  1  0
 20 15  1  0
  1 23  1  0
  1 24  1  0
  3 25  1  0
  4 26  1  0
  5 27  1  0
  6 28  1  0
 12 29  1  0
 13 30  1  0
 16 31  1  0
 17 32  1  0
 18 33  1  0
 19 34  1  0
 20 35  1  0
 21 36  1  0
 22 37  1  0
M  CHG  1   8  -1
M  END
>  <UniqueID>  (13) 
12

>  <SMILES>  (13) 
Nc1ccccc1[N-]C(=O)c1ccc(-c2ccccc2)cc1

>  <Energy>  (13) 
51.970613488470654

>  <Genealogy>  (13) 
Nc1ccccc1[N-]C(=O)c1ccc(-c2ccccc2)cc1 (protonated)
Nc1ccccc1[N-]C(=O)c1ccc(-c2ccccc2)cc1 (3D coordinates assigned)
Nc1ccccc1[N-]C(=O)c1ccc(-c2ccccc2)cc1 (optimized conformer: 51.970613488470654 kcal/mol)

>  <smiles>  (13) 
Nc1ccccc1NC(=O)c1ccc(-c2ccccc2)cc1

>  <score_type>  (13) 
oracle

>  <origin>  (13) 
adgpu

>  <m_score__min__energy>  (13) 
-10.880000000000001

>  <m_primary>  (13) 
energy

$$$$
13:0
     RDKit          3D

 48 51  0  0  0  0  0  0  0  0999 V2000
   -0.8680   26.5720  -27.8450 C   0  0  0  0  0  0  0  0  0  0  0  0
   -1.6260   25.9670  -28.8890 O   0  0  0  0  0  0  0  0  0  0  0  0
   -2.3110   24.7480  -28.7660 C   0  0  0  0  0  0  0  0  0  0  0  0
   -3.0900   24.5370  -27.6220 C   0  0  0  0  0  0  0  0  0  0  0  0
   -3.7770   23.3340  -27.4470 C   0  0  0  0  0  0  0  0  0  0  0  0
   -3.7000   22.3330  -28.4170 C   0  0  0  0  0  0  0  0  0  0  0  0
   -2.9470   22.5330  -29.5840 C   0  0  0  0  0  0  0  0  0  0  0  0
   -2.8610   21.4810  -30.5580 N   0  0  0  0  0  0  0  0  0  0  0  0
   -1.6390   21.1000  -31.2110 C   0  0  0  0  0  0  0  0  0  0  0  0
   -0.6520   21.8840  -31.2120 O   0  0  0  0  0  0  0  0  0  0  0  0
   -1.5380   19.8100  -31.9210 C   0  0  0  0  0  0  0  0  0  0  0  0
   -0.3890   19.0040  -31.7840 C   0  0  0  0  0  0  0  0  0  0  0  0
   -0.2970   17.7660  -32.4470 C   0  0  0  0  0  0  0  0  0  0  0  0
   -1.3470   17.3130  -33.2590 C   0  0  0  0  0  0  0  0  0  0  0  0
   -2.4800   18.1150  -33.3940 C   0  0  0  0  0  0  0  0  0  0  0  0
   -2.5740   19.3290  -32.7410 C   0  0  0  0  0  0  0  0  0  0  0  0
   -3.8330   19.9200  -33.1490 C   0  0  0  0  0  0  0  0  0  0  0  0
   -4.2790   21.0400  -32.7850 O   0  0  0  0  0  0  0  0  0  0  0  0
   -4.5040   19.0510  -34.0570 N   0  0  0  0  0  0  0  0  0  0  0  0
   -5.8570   19.2390  -34.5810 C   0  0  0  0  0  0  0  0  0  0  0  0
   -6.8620   19.2840  -33.4540 C   0  0  0  0  0  0  0  0  0  0  0  0
   -7.3160   20.5300  -32.9870 C   0  0  0  0  0  0  0  0  0  0  0  0
   -8.2710   20.6020  -31.9690 C   0  0  0  0  0  0  0  0  0  0  0  0
   -8.7820   19.4320  -31.4070 C   0  0  0  0  0  0  0  0  0  0  0  0
   -8.3420   18.1880  -31.8600 C   0  0  0  0  0  0  0  0  0  0  0  0
   -7.3860   18.1040  -32.8810 C   0  0  0  0  0  0  0  0  0  0  0  0
   -6.8660   16.5060  -33.4030 Cl  0  0  0  0  0  0  0  0  0  0  0  0
   -3.6930   17.8450  -34.2350 C   0  0  0  0  0  0  0  0  0  0  0  0
   -2.2370   23.7380  -29.7440 C   0  0  0  0  0  0  0  0  0  0  0  0
   -1.2668   26.2537  -26.8705 H   0  0  0  0  0  0  0  0  0  0  0  0
    0.1843   26.2627  -27.9293 H   0  0  0  0  0  0  0  0  0  0  0  0
   -0.9363   27.6666  -27.9293 H   0  0  0  0  0  0  0  0  0  0  0  0
   -3.1613   25.3236  -26.8564 H   0  0  0  0  0  0  0  0  0  0  0  0
   -4.3810   23.1745  -26.5416 H   0  0  0  0  0  0  0  0  0  0  0  0
   -4.2325   21.3824  -28.2657 H   0  0  0  0  0  0  0  0  0  0  0  0
   -3.7440   20.9830  -30.8150 H   0  0  0  0  0  0  0  0  0  0  0  0
    0.4440   19.3464  -31.1524 H   0  0  0  0  0  0  0  0  0  0  0  0
    0.6056   17.1488  -32.3274 H   0  0  0  0  0  0  0  0  0  0  0  0
   -1.2784   16.3457  -33.7783 H   0  0  0  0  0  0  0  0  0  0  0  0
   -5.8995   20.1846  -35.1413 H   0  0  0  0  0  0  0  0  0  0  0  0
   -6.1022   18.3941  -35.2414 H   0  0  0  0  0  0  0  0  0  0  0  0
   -6.9163   21.4558  -33.4264 H   0  0  0  0  0  0  0  0  0  0  0  0
   -8.6198   21.5818  -31.6108 H   0  0  0  0  0  0  0  0  0  0  0  0
   -9.5330   19.4903  -30.6054 H   0  0  0  0  0  0  0  0  0  0  0  0
   -8.7477   17.2683  -31.4133 H   0  0  0  0  0  0  0  0  0  0  0  0
   -4.2294   16.9536  -33.8776 H   0  0  0  0  0  0  0  0  0  0  0  0
   -3.4491   17.6428  -35.2884 H   0  0  0  0  0  0  0  0  0  0  0  0
   -1.6190   23.8918  -30.6409 H   0  0  0  0  0  0  0  0  0  0  0  0
  1  2  1  0
  2  3  1  0
  3  4  2  0
  4  5  1  0
  5  6  2  0
  6  7  1  0
  7  8  1  0
  8  9  1  0
  9 10  2  0
  9 11  1  0
 11 12  2  0
 12 13  1  0
 13 14  2  0
 14 15  1  0
 15 16  2  0
 16 17  1  0
 17 18  2  0
 17 19  1  0
 19 20  1  0
 20 21  1  0
 21 22  2  0
 22 23  1  0
 23 24  2  0
 24 25  1  0
 25 26  2  0
 26 27  1  0
 19 28  1  0
  7 29  2  0
 29  3  1  0
 16 11  1  0
 26 21  1  0
 28 15  1  0
  1 30  1  0
  1 31  1  0
  1 32  1  0
  4 33  1  0
  5 34  1  0
  6 35  1  0
  8 36  1  0
 12 37  1  0
 13 38  1  0
 14 39  1  0
 20 40  1  0
 20 41  1  0
 22 42  1  0
 23 43  1  0
 24 44  1  0
 25 45  1  0
 28 46  1  0
 28 47  1  0
 29 48  1  0
M  END
>  <UniqueID>  (14) 
13

>  <SMILES>  (14) 
COc1cccc(NC(=O)c2cccc3c2C(=O)N(Cc2ccccc2Cl)C3)c1

>  <Energy>  (14) 
80.47298574085622

>  <Genealogy>  (14) 
COc1cccc(NC(=O)c2cccc3c2C(=O)N(Cc2ccccc2Cl)C3)c1 (3D coordinates assigned)
COc1cccc(NC(=O)c2cccc3c2C(=O)N(Cc2ccccc2Cl)C3)c1 (nonaromatic ring conformer: 80.47298574085622 kcal/mol)

>  <smiles>  (14) 
COc1cccc(NC(=O)c2cccc3c2C(=O)N(Cc2ccccc2Cl)C3)c1

>  <score_type>  (14) 
oracle

>  <origin>  (14) 
adgpu

>  <m_score__min__energy>  (14) 
-9.9700000000000006

>  <m_primary>  (14) 
energy

$$$$
14:0
     RDKit          3D

 48 50  0  0  0  0  0  0  0  0999 V2000
   -3.9420   25.6630  -30.8450 O   0  0  0  0  0  0  0  0  0  0  0  0
   -4.0230   24.4920  -30.3870 C   0  0  0  0  0  0  0  0  0  0  0  0
   -5.2570   24.0710  -29.6520 C   0  0  0  0  0  0  0  0  0  0  0  0
   -4.9100   22.6720  -28.5280 S   0  0  0  0  0  0  0  0  0  0  0  0
   -3.7110   23.5610  -27.5280 C   0  0  0  0  0  0  0  0  0  0  0  0
   -4.1140   24.6480  -26.7450 C   0  0  0  0  0  0  0  0  0  0  0  0
   -3.1790   25.3300  -25.9590 C   0  0  0  0  0  0  0  0  0  0  0  0
   -1.8400   24.9300  -25.9590 C   0  0  0  0  0  0  0  0  0  0  0  0
   -0.6680   25.7810  -24.9690 Cl  0  0  0  0  0  0  0  0  0  0  0  0
   -1.4330   23.8490  -26.7490 C   0  0  0  0  0  0  0  0  0  0  0  0
   -2.3670   23.1680  -27.5370 C   0  0  0  0  0  0  0  0  0  0  0  0
   -2.9270   23.5780  -30.5140 N   0  0  0  0  0  0  0  0  0  0  0  0
   -2.9000   22.3980  -31.3300 C   0  0  0  0  0  0  0  0  0  0  0  0
   -1.7070   21.9090  -31.8920 C   0  0  0  0  0  0  0  0  0  0  0  0
   -1.7280   20.7710  -32.7030 C   0  0  0  0  0  0  0  0  0  0  0  0
   -2.9340   20.1200  -32.9680 C   0  0  0  0  0  0  0  0  0  0  0  0
   -4.1320   20.6100  -32.4300 C   0  0  0  0  0  0  0  0  0  0  0  0
   -5.6610   19.7910  -32.7630 S   0  0  0  0  0  0  0  0  0  0  0  0
   -5.5920   18.3810  -32.2460 O   0  0  0  0  0  0  0  0  0  0  0  0
   -5.8700   19.7320  -34.2500 O   0  0  0  0  0  0  0  0  0  0  0  0
   -7.0080   20.6180  -32.0180 N   0  0  0  0  0  0  0  0  0  0  0  0
   -6.9200   22.0750  -32.2720 C   0  0  0  0  0  0  0  0  0  0  0  0
   -8.2550   22.8160  -32.0340 C   0  0  0  0  0  0  0  0  0  0  0  0
   -9.1950   22.0210  -31.1260 C   0  0  0  0  0  0  0  0  0  0  0  0
   -9.4780   20.6250  -31.7060 C   0  0  0  0  0  0  0  0  0  0  0  0
   -8.2840   20.0570  -32.5010 C   0  0  0  0  0  0  0  0  0  0  0  0
   -4.1090   21.7580  -31.6240 C   0  0  0  0  0  0  0  0  0  0  0  0
   -5.6313   24.9209  -29.0625 H   0  0  0  0  0  0  0  0  0  0  0  0
   -6.0087   23.7492  -30.3878 H   0  0  0  0  0  0  0  0  0  0  0  0
   -5.1668   24.9667  -26.7474 H   0  0  0  0  0  0  0  0  0  0  0  0
   -3.4981   26.1818  -25.3405 H   0  0  0  0  0  0  0  0  0  0  0  0
   -0.3788   23.5348  -26.7504 H   0  0  0  0  0  0  0  0  0  0  0  0
   -2.0455   22.3233  -28.1640 H   0  0  0  0  0  0  0  0  0  0  0  0
   -0.7553   22.4234  -31.6928 H   0  0  0  0  0  0  0  0  0  0  0  0
   -0.7914   20.3872  -33.1337 H   0  0  0  0  0  0  0  0  0  0  0  0
   -2.9443   19.2202  -33.6006 H   0  0  0  0  0  0  0  0  0  0  0  0
   -6.9320   20.4470  -30.9870 H   0  0  0  0  0  0  0  0  0  0  0  0
   -6.1591   22.5014  -31.6018 H   0  0  0  0  0  0  0  0  0  0  0  0
   -6.6574   22.2068  -33.3320 H   0  0  0  0  0  0  0  0  0  0  0  0
   -8.0435   23.7875  -31.5634 H   0  0  0  0  0  0  0  0  0  0  0  0
   -8.7507   22.9462  -33.0073 H   0  0  0  0  0  0  0  0  0  0  0  0
   -8.7292   21.9106  -30.1356 H   0  0  0  0  0  0  0  0  0  0  0  0
  -10.1474   22.5657  -31.0475 H   0  0  0  0  0  0  0  0  0  0  0  0
   -9.7068   19.9393  -30.8769 H   0  0  0  0  0  0  0  0  0  0  0  0
  -10.3251   20.7197  -32.4013 H   0  0  0  0  0  0  0  0  0  0  0  0
   -8.2625   18.9634  -32.3842 H   0  0  0  0  0  0  0  0  0  0  0  0
   -8.4073   20.3310  -33.5592 H   0  0  0  0  0  0  0  0  0  0  0  0
   -5.0501   22.1587  -31.2194 H   0  0  0  0  0  0  0  0  0  0  0  0
  1  2  2  0
  2  3  1  0
  3  4  1  0
  4  5  1  0
  5  6  2  0
  6  7  1  0
  7  8  2  0
  8  9  1  0
  8 10  1  0
 10 11  2  0
  2 12  1  0
 12 13  1  0
 13 14  2  0
 14 15  1  0
 15 16  2  0
 16 17  1  0
 17 18  1  0
 18 19  2  0
 18 20  2  0
 18 21  1  0
 21 22  1  0
 22 23  1  0
 23 24  1  0
 24 25  1  0
 25 26  1  0
 17 27  2  0
 11  5  1  0
 27 13  1  0
 26 21  1  0
  3 28  1  0
  3 29  1  0
  6 30  1  0
  7 31  1  0
 10 32  1  0
 11 33  1  0
 14 34  1  0
 15 35  1  0
 16 36  1  0
 21 37  1  0
 22 38  1  0
 22 39  1  0
 23 40  1  0
 23 41  1  0
 24 42  1  0
 24 43  1  0
 25 44  1  0
 25 45  1  0
 26 46  1  0
 26 47  1  0
 27 48  1  0
M  CHG  2  12  -1  21   1
M  END
>  <UniqueID>  (15) 
14

>  <SMILES>  (15) 
O=C(CSc1ccc(Cl)cc1)[N-]c1cccc(S(=O)(=O)[NH+]2CCCCC2)c1

>  <Energy>  (15) 
49.243790339457924

>  <Genealogy>  (15) 
O=C(CSc1ccc(Cl)cc1)[N-]c1cccc(S(=O)(=O)[NH+]2CCCCC2)c1 (protonated)
O=C(CSc1ccc(Cl)cc1)[N-]c1cccc(S(=O)(=O)[NH+]2CCCCC2)c1 (3D coordinates assigned)
O=C(CSc1ccc(Cl)cc1)[N-]c1cccc(S(=O)(=O)[NH+]2CCCCC2)c1 (nonaromatic ring conformer: 49.243790339457924 kcal/mol)

>  <smiles>  (15) 
O=C(CSc1ccc(Cl)cc1)Nc1cccc(S(=O)(=O)N2CCCCC2)c1

>  <score_type>  (15) 
oracle

>  <origin>  (15) 
adgpu

>  <m_score__min__energy>  (15) 
-11.17

>  <m_primary>  (15) 
energy

$$$$
15:0
     RDKit          3D

 38 39  0  0  0  0  0  0  0  0999 V2000
   -6.5760   20.4710  -32.6190 C   0  0  0  0  0  0  0  0  0  0  0  0
   -5.4890   21.3350  -32.3060 O   0  0  0  0  0  0  0  0  0  0  0  0
   -5.6110   22.5320  -31.5830 C   0  0  0  0  0  0  0  0  0  0  0  0
   -6.8890   22.9460  -31.1940 C   0  0  0  0  0  0  0  0  0  0  0  0
   -7.0630   24.1350  -30.4830 C   0  0  0  0  0  0  0  0  0  0  0  0
   -5.9570   24.9190  -30.1450 C   0  0  0  0  0  0  0  0  0  0  0  0
   -4.6620   24.5070  -30.5060 C   0  0  0  0  0  0  0  0  0  0  0  0
   -3.5010   25.2930  -30.2000 N   0  0  0  0  0  0  0  0  0  0  0  0
   -2.4220   24.9200  -29.3350 C   0  0  0  0  0  0  0  0  0  0  0  0
   -1.4050   25.6560  -29.2270 O   0  0  0  0  0  0  0  0  0  0  0  0
   -2.5650   23.7530  -28.5180 N   0  0  0  0  0  0  0  0  0  0  0  0
   -1.7730   23.4150  -27.3690 C   0  0  0  0  0  0  0  0  0  0  0  0
   -1.6330   22.0880  -26.9250 C   0  0  0  0  0  0  0  0  0  0  0  0
   -0.8850   21.8060  -25.7800 C   0  0  0  0  0  0  0  0  0  0  0  0
   -0.2740   22.8410  -25.0670 C   0  0  0  0  0  0  0  0  0  0  0  0
   -0.4030   24.1690  -25.4960 C   0  0  0  0  0  0  0  0  0  0  0  0
    0.2010   25.2210  -24.7240 N   0  0  0  0  0  0  0  0  0  0  0  0
   -0.5280   26.2840  -24.0860 C   0  0  0  0  0  0  0  0  0  0  0  0
    0.0040   26.8770  -22.8980 N   0  0  0  0  0  0  0  0  0  0  0  0
   -1.6170   26.7580  -24.6110 N   0  0  0  0  0  0  0  0  0  0  0  0
   -1.1780   24.4500  -26.6350 C   0  0  0  0  0  0  0  0  0  0  0  0
   -4.4980   23.3250  -31.2410 C   0  0  0  0  0  0  0  0  0  0  0  0
   -7.0345   20.1065  -31.6879 H   0  0  0  0  0  0  0  0  0  0  0  0
   -7.3256   21.0225  -33.2055 H   0  0  0  0  0  0  0  0  0  0  0  0
   -6.2079   19.6163  -33.2055 H   0  0  0  0  0  0  0  0  0  0  0  0
   -7.7638   22.3302  -31.4501 H   0  0  0  0  0  0  0  0  0  0  0  0
   -8.0732   24.4552  -30.1883 H   0  0  0  0  0  0  0  0  0  0  0  0
   -6.0997   25.8609  -29.5951 H   0  0  0  0  0  0  0  0  0  0  0  0
   -2.1140   21.2699  -27.4812 H   0  0  0  0  0  0  0  0  0  0  0  0
   -0.7764   20.7661  -25.4383 H   0  0  0  0  0  0  0  0  0  0  0  0
    0.3113   22.6122  -24.1642 H   0  0  0  0  0  0  0  0  0  0  0  0
    1.2390   25.2090  -24.6030 H   0  0  0  0  0  0  0  0  0  0  0  0
   -0.4850   27.6700  -22.4270 H   0  0  0  0  0  0  0  0  0  0  0  0
    0.8900   26.5150  -22.4800 H   0  0  0  0  0  0  0  0  0  0  0  0
   -2.1320   27.5440  -24.1560 H   0  0  0  0  0  0  0  0  0  0  0  0
   -1.9890   26.3930  -25.5160 H   0  0  0  0  0  0  0  0  0  0  0  0
   -1.3188   25.4935  -26.9534 H   0  0  0  0  0  0  0  0  0  0  0  0
   -3.4905   23.0135  -31.5538 H   0  0  0  0  0  0  0  0  0  0  0  0
  1  2  1  0
  2  3  1  0
  3  4  2  0
  4  5  1  0
  5  6  2  0
  6  7  1  0
  7  8  1  0
  8  9  1  0
  9 10  2  0
  9 11  1  0
 11 12  1  0
 12 13  2  0
 13 14  1  0
 14 15  2  0
 15 16  1  0
 16 17  1  0
 17 18  1  0
 18 19  1  0
 18 20  2  0
 16 21  2  0
  7 22  2  0
 22  3  1  0
 21 12  1  0
  1 23  1  0
  1 24  1  0
  1 25  1  0
  4 26  1  0
  5 27  1  0
  6 28  1  0
 13 29  1  0
 14 30  1  0
 15 31  1  0
 17 32  1  0
 19 33  1  0
 19 34  1  0
 20 35  1  0
 20 36  1  0
 21 37  1  0
 22 38  1  0
M  CHG  3   8  -1  11  -1  20   1
M  END
>  <UniqueID>  (16) 
15

>  <SMILES>  (16) 
COc1cccc([N-]C(=O)[N-]c2cccc(NC(N)=[NH2+])c2)c1

>  <Energy>  (16) 
46.89735425474717

>  <Genealogy>  (16) 
COc1cccc([N-]C(=O)[N-]c2cccc(NC(N)=[NH2+])c2)c1 (protonated)
COc1cccc([N-]C(=O)[N-]c2cccc(NC(N)=[NH2+])c2)c1 (3D coordinates assigned)
COc1cccc([N-]C(=O)[N-]c2cccc(NC(N)=[NH2+])c2)c1 (optimized conformer: 46.89735425474717 kcal/mol)

>  <smiles>  (16) 
COc1cccc(NC(=O)Nc2cccc(NC(=N)N)c2)c1

>  <score_type>  (16) 
oracle

>  <origin>  (16) 
adgpu

>  <m_score__min__energy>  (16) 
-11

>  <m_primary>  (16) 
energy

$$$$
16:0
     RDKit          3D

 32 34  0  0  0  0  0  0  0  0999 V2000
   -8.2250   16.9235  -32.0761 H   0  0  0  0  0  0  0  0  0  0  0  0
   -7.9980   17.9960  -32.1670 C   0  0  0  0  0  0  0  0  0  0  0  0
   -8.9160   18.8450  -31.8040 N   0  0  0  0  0  0  0  0  0  0  0  0
   -8.7720   20.2610  -31.6420 C   0  0  0  0  0  0  0  0  0  0  0  0
   -7.6200   20.8250  -31.2270 N   0  0  0  0  0  0  0  0  0  0  0  0
   -7.6540   22.1870  -31.3000 C   0  0  0  0  0  0  0  0  0  0  0  0
   -6.4930   23.0140  -30.8780 C   0  0  0  0  0  0  0  0  0  0  0  0
   -6.6660   24.2320  -30.1940 C   0  0  0  0  0  0  0  0  0  0  0  0
   -7.6810   24.5884  -29.9642 H   0  0  0  0  0  0  0  0  0  0  0  0
   -5.5600   24.9930  -29.8040 C   0  0  0  0  0  0  0  0  0  0  0  0
   -5.7108   25.9447  -29.2734 H   0  0  0  0  0  0  0  0  0  0  0  0
   -4.2560   24.5490  -30.0860 C   0  0  0  0  0  0  0  0  0  0  0  0
   -3.1150   25.2770  -29.7150 O   0  0  0  0  0  0  0  0  0  0  0  0
   -2.2290   24.9040  -28.6650 C   0  0  0  0  0  0  0  0  0  0  0  0
   -2.7058   25.1047  -27.6942 H   0  0  0  0  0  0  0  0  0  0  0  0
   -1.9968   23.8317  -28.7447 H   0  0  0  0  0  0  0  0  0  0  0  0
   -1.2998   25.4873  -28.7447 H   0  0  0  0  0  0  0  0  0  0  0  0
   -4.0810   23.3360  -30.7590 C   0  0  0  0  0  0  0  0  0  0  0  0
   -3.0651   22.9788  -30.9833 H   0  0  0  0  0  0  0  0  0  0  0  0
   -5.1840   22.5740  -31.1490 C   0  0  0  0  0  0  0  0  0  0  0  0
   -5.0282   21.6198  -31.6736 H   0  0  0  0  0  0  0  0  0  0  0  0
   -8.8420   22.7050  -31.8260 C   0  0  0  0  0  0  0  0  0  0  0  0
   -9.0726   23.7711  -31.9686 H   0  0  0  0  0  0  0  0  0  0  0  0
   -9.8570   21.4190  -32.2030 S   0  0  0  0  0  0  0  0  0  0  0  0
   -6.6740   18.3780  -32.6920 C   0  0  0  0  0  0  0  0  0  0  0  0
   -5.5220   18.0590  -32.1460 O   0  0  0  0  0  0  0  0  0  0  0  0
   -4.5580   18.5950  -32.8580 C   0  0  0  0  0  0  0  0  0  0  0  0
   -3.4833   18.4942  -32.6464 H   0  0  0  0  0  0  0  0  0  0  0  0
   -5.0970   19.3040  -33.9120 C   0  0  0  0  0  0  0  0  0  0  0  0
   -4.5471   19.8640  -34.6827 H   0  0  0  0  0  0  0  0  0  0  0  0
   -6.4640   19.1680  -33.8030 C   0  0  0  0  0  0  0  0  0  0  0  0
   -7.2291   19.5999  -34.4648 H   0  0  0  0  0  0  0  0  0  0  0  0
  1  2  1  0
  2  3  2  0
  3  4  1  0
  4  5  2  0
  5  6  1  0
  6  7  1  0
  7  8  2  0
  8  9  1  0
  8 10  1  0
 10 11  1  0
 10 12  2  0
 12 13  1  0
 13 14  1  0
 14 15  1  0
 14 16  1  0
 14 17  1  0
 12 18  1  0
 18 19  1  0
 18 20  2  0
 20 21  1  0
  6 22  2  0
 22 23  1  0
 22 24  1  0
  2 25  1  0
 25 26  1  0
 26 27  1  0
 27 28  1  0
 27 29  2  0
 29 30  1  0
 29 31  1  0
 31 32  1  0
 24  4  1  0
 31 25  2  0
 20  7  1  0
M  END
>  <UniqueID>  (17) 
16

>  <SMILES>  (17) 
COc1ccc(-c2csc(/N=C\c3ccco3)n2)cc1

>  <Energy>  (17) 
99.80474805500101

>  <Genealogy>  (17) 
COc1ccc(-c2csc(/N=C\c3ccco3)n2)cc1 (cis-trans isomerization)
COc1ccc(-c2csc(/N=C\c3ccco3)n2)cc1 (3D coordinates assigned)
COc1ccc(-c2csc(/N=C\c3ccco3)n2)cc1 (optimized conformer: 99.80474805500101 kcal/mol)

>  <smiles>  (17) 
COc1ccc(-c2csc(N=Cc3ccco3)n2)cc1

>  <score_type>  (17) 
oracle

>  <origin>  (17) 
adgpu

>  <m_score__min__energy>  (17) 
-7.8700000000000001

>  <m_primary>  (17) 
energy

$$$$
17:0
     RDKit          3D

 45 47  0  0  0  0  0  0  0  0999 V2000
   -2.7180   16.3920  -33.4290 C   0  0  0  0  0  0  0  0  0  0  0  0
   -3.8100   15.8240  -32.7160 O   0  0  0  0  0  0  0  0  0  0  0  0
   -4.9510   15.2640  -33.3150 C   0  0  0  0  0  0  0  0  0  0  0  0
   -5.0110   13.8980  -33.6610 C   0  0  0  0  0  0  0  0  0  0  0  0
   -6.1450   13.3760  -34.2870 C   0  0  0  0  0  0  0  0  0  0  0  0
   -7.2290   14.2050  -34.5770 C   0  0  0  0  0  0  0  0  0  0  0  0
   -7.1870   15.5570  -34.2360 C   0  0  0  0  0  0  0  0  0  0  0  0
   -6.0580   16.0950  -33.5950 C   0  0  0  0  0  0  0  0  0  0  0  0
   -6.0410   17.5330  -33.2380 C   0  0  0  0  0  0  0  0  0  0  0  0
   -6.3080   17.9280  -31.9180 C   0  0  0  0  0  0  0  0  0  0  0  0
   -6.2950   19.2800  -31.5670 C   0  0  0  0  0  0  0  0  0  0  0  0
   -6.0160   20.2660  -32.5300 C   0  0  0  0  0  0  0  0  0  0  0  0
   -5.9900   21.6630  -32.1730 N   0  0  0  0  0  0  0  0  0  0  0  0
   -7.0800   22.3990  -31.5380 C   0  0  0  0  0  0  0  0  0  0  0  0
   -6.6210   23.8860  -31.5330 C   0  0  1  0  0  0  0  0  0  0  0  0
   -6.6780   24.5280  -30.1420 C   0  0  0  0  0  0  0  0  0  0  0  0
   -5.5590   24.0680  -29.3210 N   0  0  0  0  0  0  0  0  0  0  0  0
   -4.1990   24.4610  -29.5550 C   0  0  0  0  0  0  0  0  0  0  0  0
   -3.1050   23.8780  -28.7220 C   0  0  0  0  0  0  0  0  0  0  0  0
   -3.9150   25.2770  -30.4730 O   0  0  0  0  0  0  0  0  0  0  0  0
   -5.2770   23.8650  -32.0050 O   0  0  0  0  0  0  0  0  0  0  0  0
   -4.9380   22.5880  -32.3820 C   0  0  0  0  0  0  0  0  0  0  0  0
   -3.7920   22.2750  -32.8000 O   0  0  0  0  0  0  0  0  0  0  0  0
   -5.7230   19.8660  -33.8440 C   0  0  0  0  0  0  0  0  0  0  0  0
   -5.7370   18.5130  -34.1980 C   0  0  0  0  0  0  0  0  0  0  0  0
   -5.4220   18.1600  -35.4710 F   0  0  0  0  0  0  0  0  0  0  0  0
   -1.9754   16.7783  -32.7154 H   0  0  0  0  0  0  0  0  0  0  0  0
   -2.2527   15.6217  -34.0615 H   0  0  0  0  0  0  0  0  0  0  0  0
   -3.0816   17.2153  -34.0615 H   0  0  0  0  0  0  0  0  0  0  0  0
   -4.1590   13.2395  -33.4363 H   0  0  0  0  0  0  0  0  0  0  0  0
   -6.1836   12.3091  -34.5520 H   0  0  0  0  0  0  0  0  0  0  0  0
   -8.1183   13.7918  -35.0754 H   0  0  0  0  0  0  0  0  0  0  0  0
   -8.0434   16.2064  -34.4704 H   0  0  0  0  0  0  0  0  0  0  0  0
   -6.5290   17.1676  -31.1545 H   0  0  0  0  0  0  0  0  0  0  0  0
   -6.5048   19.5759  -30.5285 H   0  0  0  0  0  0  0  0  0  0  0  0
   -8.0098   22.2844  -32.1145 H   0  0  0  0  0  0  0  0  0  0  0  0
   -7.2882   22.0300  -30.5229 H   0  0  0  0  0  0  0  0  0  0  0  0
   -7.2914   24.4908  -32.1612 H   0  0  0  0  0  0  0  0  0  0  0  0
   -6.6258   25.6219  -30.2455 H   0  0  0  0  0  0  0  0  0  0  0  0
   -7.6205   24.2385  -29.6543 H   0  0  0  0  0  0  0  0  0  0  0  0
   -5.7570   23.3740  -28.5650 H   0  0  0  0  0  0  0  0  0  0  0  0
   -3.3469   24.0069  -27.6567 H   0  0  0  0  0  0  0  0  0  0  0  0
   -3.0036   22.8062  -28.9479 H   0  0  0  0  0  0  0  0  0  0  0  0
   -2.1588   24.3915  -28.9479 H   0  0  0  0  0  0  0  0  0  0  0  0
   -5.4800   20.6246  -34.6026 H   0  0  0  0  0  0  0  0  0  0  0  0
  1  2  1  0
  2  3  1  0
  3  4  2  0
  4  5  1  0
  5  6  2  0
  6  7  1  0
  7  8  2  0
  8  9  1  0
  9 10  2  0
 10 11  1  0
 11 12  2  0
 12 13  1  0
 13 14  1  0
 14 15  1  0
 15 16  1  0
 16 17  1  0
 17 18  1  0
 18 19  1  0
 18 20  2  0
 15 21  1  0
 21 22  1  0
 22 23  2  0
 12 24  1  0
 24 25  2  0
 25 26  1  0
  8  3  1  0
 25  9  1  0
 22 13  1  0
  1 27  1  0
  1 28  1  0
  1 29  1  0
  4 30  1  0
  5 31  1  0
  6 32  1  0
  7 33  1  0
 10 34  1  0
 11 35  1  0
 14 36  1  0
 14 37  1  0
 15 38  1  6
 16 39  1  0
 16 40  1  0
 17 41  1  0
 19 42  1  0
 19 43  1  0
 19 44  1  0
 24 45  1  0
M  END
>  <UniqueID>  (18) 
17

>  <SMILES>  (18) 
COc1ccccc1-c1ccc(N2C[C@@H](CNC(C)=O)OC2=O)cc1F

>  <Energy>  (18) 
67.18386059199916

>  <Genealogy>  (18) 
COc1ccccc1-c1ccc(N2C[C@@H](CNC(C)=O)OC2=O)cc1F (chirality)
COc1ccccc1-c1ccc(N2C[C@@H](CNC(C)=O)OC2=O)cc1F (3D coordinates assigned)
COc1ccccc1-c1ccc(N2C[C@@H](CNC(C)=O)OC2=O)cc1F (nonaromatic ring conformer: 67.18386059199916 kcal/mol)

>  <smiles>  (18) 
COc1ccccc1-c1ccc(N2CC(CNC(C)=O)OC2=O)cc1F

>  <score_type>  (18) 
oracle

>  <origin>  (18) 
adgpu

>  <m_score__min__energy>  (18) 
-8.3300000000000001

>  <m_primary>  (18) 
energy

$$$$
18:0
     RDKit          3D

 54 57  0  0  0  0  0  0  0  0999 V2000
   -3.2870   25.3090  -26.3130 C   0  0  0  0  0  0  0  0  0  0  0  0
   -3.3460   24.7420  -27.6640 N   0  0  0  0  0  0  0  0  0  0  0  0
   -3.3700   23.2700  -27.6480 C   0  0  0  0  0  0  0  0  0  0  0  0
   -2.4280   22.6740  -28.6800 C   0  0  0  0  0  0  0  0  0  0  0  0
   -1.1720   22.2090  -28.2540 C   0  0  0  0  0  0  0  0  0  0  0  0
   -0.3210   21.6160  -29.1300 N   0  0  0  0  0  0  0  0  0  0  0  0
   -0.6430   21.4450  -30.4360 C   0  0  0  0  0  0  0  0  0  0  0  0
   -1.8750   21.8870  -30.9160 C   0  0  0  0  0  0  0  0  0  0  0  0
   -2.7800   22.5120  -30.0440 C   0  0  0  0  0  0  0  0  0  0  0  0
   -4.0670   22.9910  -30.5950 C   0  0  0  0  0  0  0  0  0  0  0  0
   -5.0190   22.0640  -31.0500 C   0  0  0  0  0  0  0  0  0  0  0  0
   -6.2400   22.4970  -31.5790 C   0  0  0  0  0  0  0  0  0  0  0  0
   -7.1590   21.5370  -32.0260 O   0  0  0  0  0  0  0  0  0  0  0  0
   -6.8280   20.2550  -32.4900 C   0  0  0  0  0  0  0  0  0  0  0  0
   -6.8450   19.1880  -31.5850 C   0  0  0  0  0  0  0  0  0  0  0  0
   -6.5040   17.8980  -32.0030 C   0  0  0  0  0  0  0  0  0  0  0  0
   -6.1240   17.6640  -33.3320 C   0  0  0  0  0  0  0  0  0  0  0  0
   -5.6790   16.0390  -33.8590 S   0  0  0  0  0  0  0  0  0  0  0  0
   -6.8480   15.4120  -34.5670 O   0  0  0  0  0  0  0  0  0  0  0  0
   -5.3560   15.2000  -32.6540 O   0  0  0  0  0  0  0  0  0  0  0  0
   -4.2630   16.0360  -34.9640 C   0  0  0  0  0  0  0  0  0  0  0  0
   -3.2840   17.1790  -34.7120 C   0  0  0  0  0  0  0  0  0  0  0  0
   -2.2170   16.1720  -34.3030 C   0  0  0  0  0  0  0  0  0  0  0  0
   -3.1850   15.0280  -34.5780 C   0  0  0  0  0  0  0  0  0  0  0  0
   -6.0980   18.7330  -34.2390 C   0  0  0  0  0  0  0  0  0  0  0  0
   -6.4380   20.0210  -33.8200 C   0  0  0  0  0  0  0  0  0  0  0  0
   -6.5310   23.8710  -31.6040 C   0  0  0  0  0  0  0  0  0  0  0  0
   -5.5990   24.7970  -31.1300 C   0  0  0  0  0  0  0  0  0  0  0  0
   -4.3710   24.3640  -30.6240 C   0  0  0  0  0  0  0  0  0  0  0  0
   -3.4560   25.3010  -30.1560 O   0  0  0  0  0  0  0  0  0  0  0  0
   -3.3711   24.5004  -25.5720 H   0  0  0  0  0  0  0  0  0  0  0  0
   -2.3295   25.8330  -26.1768 H   0  0  0  0  0  0  0  0  0  0  0  0
   -4.1161   26.0189  -26.1768 H   0  0  0  0  0  0  0  0  0  0  0  0
   -2.5310   25.0880  -28.2220 H   0  0  0  0  0  0  0  0  0  0  0  0
   -4.2230   25.0810  -28.1230 H   0  0  0  0  0  0  0  0  0  0  0  0
   -3.0693   22.9208  -26.6492 H   0  0  0  0  0  0  0  0  0  0  0  0
   -4.3918   22.9443  -27.8926 H   0  0  0  0  0  0  0  0  0  0  0  0
   -0.8757   22.3266  -27.2012 H   0  0  0  0  0  0  0  0  0  0  0  0
    0.0689   20.9568  -31.1178 H   0  0  0  0  0  0  0  0  0  0  0  0
   -2.1371   21.7463  -31.9750 H   0  0  0  0  0  0  0  0  0  0  0  0
   -4.8027   20.9872  -30.9899 H   0  0  0  0  0  0  0  0  0  0  0  0
   -7.1287   19.3653  -30.5371 H   0  0  0  0  0  0  0  0  0  0  0  0
   -6.5340   17.0639  -31.2866 H   0  0  0  0  0  0  0  0  0  0  0  0
   -4.7855   15.9520  -35.9284 H   0  0  0  0  0  0  0  0  0  0  0  0
   -3.0317   17.7610  -35.6107 H   0  0  0  0  0  0  0  0  0  0  0  0
   -3.5551   18.0075  -34.0411 H   0  0  0  0  0  0  0  0  0  0  0  0
   -1.3280   16.1727  -34.9508 H   0  0  0  0  0  0  0  0  0  0  0  0
   -1.7199   16.2559  -33.3253 H   0  0  0  0  0  0  0  0  0  0  0  0
   -2.8752   14.3647  -35.3990 H   0  0  0  0  0  0  0  0  0  0  0  0
   -3.3827   14.2677  -33.8080 H   0  0  0  0  0  0  0  0  0  0  0  0
   -5.8085   18.5563  -35.2854 H   0  0  0  0  0  0  0  0  0  0  0  0
   -6.4004   20.8566  -34.5344 H   0  0  0  0  0  0  0  0  0  0  0  0
   -7.4970   24.2191  -31.9986 H   0  0  0  0  0  0  0  0  0  0  0  0
   -5.8329   25.8716  -31.1552 H   0  0  0  0  0  0  0  0  0  0  0  0
  1  2  1  0
  2  3  1  0
  3  4  1  0
  4  5  2  0
  5  6  1  0
  6  7  2  0
  7  8  1  0
  8  9  2  0
  9 10  1  0
 10 11  2  0
 11 12  1  0
 12 13  1  0
 13 14  1  0
 14 15  2  0
 15 16  1  0
 16 17  2  0
 17 18  1  0
 18 19  2  0
 18 20  2  0
 18 21  1  0
 21 22  1  0
 22 23  1  0
 23 24  1  0
 17 25  1  0
 25 26  2  0
 12 27  2  0
 27 28  1  0
 28 29  2  0
 29 30  1  0
  9  4  1  0
 29 10  1  0
 26 14  1  0
 24 21  1  0
  1 31  1  0
  1 32  1  0
  1 33  1  0
  2 34  1  0
  2 35  1  0
  3 36  1  0
  3 37  1  0
  5 38  1  0
  7 39  1  0
  8 40  1  0
 11 41  1  0
 15 42  1  0
 16 43  1  0
 21 44  1  0
 22 45  1  0
 22 46  1  0
 23 47  1  0
 23 48  1  0
 24 49  1  0
 24 50  1  0
 25 51  1  0
 26 52  1  0
 27 53  1  0
 28 54  1  0
M  CHG  2   2   1  30  -1
M  END
>  <UniqueID>  (19) 
18

>  <SMILES>  (19) 
C[NH2+]Cc1cnccc1-c1cc(Oc2ccc(S(=O)(=O)C3CCC3)cc2)ccc1[O-]

>  <Energy>  (19) 
128.96785538938337

>  <Genealogy>  (19) 
C[NH2+]Cc1cnccc1-c1cc(Oc2ccc(S(=O)(=O)C3CCC3)cc2)ccc1[O-] (protonated)
C[NH2+]Cc1cnccc1-c1cc(Oc2ccc(S(=O)(=O)C3CCC3)cc2)ccc1[O-] (3D coordinates assigned)
C[NH2+]Cc1cnccc1-c1cc(Oc2ccc(S(=O)(=O)C3CCC3)cc2)ccc1[O-] (nonaromatic ring conformer: 128.96785538938337 kcal/mol)

>  <smiles>  (19) 
CNCc1cnccc1-c1cc(Oc2ccc(S(=O)(=O)C3CCC3)cc2)ccc1O

>  <score_type>  (19) 
oracle

>  <origin>  (19) 
adgpu

>  <m_score__min__energy>  (19) 
-11.460000000000001

>  <m_primary>  (19) 
energy

$$$$
19:0
     RDKit          3D

 30 32  0  0  0  0  0  0  0  0999 V2000
   -5.9280   22.3840  -30.2650 N   0  0  0  0  0  0  0  0  0  0  0  0
   -5.1430   21.7140  -31.2650 C   0  0  0  0  0  0  0  0  0  0  0  0
   -5.7450   20.7840  -32.1550 C   0  0  0  0  0  0  0  0  0  0  0  0
   -7.2070   20.5490  -32.1770 C   0  0  0  0  0  0  0  0  0  0  0  0
   -8.1260   21.4760  -31.8260 N   0  0  0  0  0  0  0  0  0  0  0  0
   -9.4000   21.0250  -31.9830 C   0  0  0  0  0  0  0  0  0  0  0  0
   -9.5110   19.7320  -32.4780 C   0  0  0  0  0  0  0  0  0  0  0  0
   -7.9560   19.1410  -32.7240 S   0  0  0  0  0  0  0  0  0  0  0  0
   -4.9420   20.1020  -33.0840 C   0  0  0  0  0  0  0  0  0  0  0  0
   -3.5740   20.3530  -33.1630 C   0  0  0  0  0  0  0  0  0  0  0  0
   -2.9830   21.2810  -32.3120 C   0  0  0  0  0  0  0  0  0  0  0  0
   -3.7500   21.9610  -31.3560 C   0  0  0  0  0  0  0  0  0  0  0  0
   -3.0590   22.8850  -30.4250 C   0  0  0  0  0  0  0  0  0  0  0  0
   -1.9560   22.4360  -29.6840 C   0  0  0  0  0  0  0  0  0  0  0  0
   -1.2920   23.3080  -28.8220 C   0  0  0  0  0  0  0  0  0  0  0  0
   -1.7310   24.6280  -28.7110 C   0  0  0  0  0  0  0  0  0  0  0  0
   -2.7980   25.0580  -29.4390 N   0  0  0  0  0  0  0  0  0  0  0  0
   -3.4670   24.2250  -30.2870 C   0  0  0  0  0  0  0  0  0  0  0  0
   -4.4540   24.6630  -30.9370 O   0  0  0  0  0  0  0  0  0  0  0  0
   -5.5510   23.1980  -29.7320 H   0  0  0  0  0  0  0  0  0  0  0  0
   -6.9250   22.1270  -30.0930 H   0  0  0  0  0  0  0  0  0  0  0  0
  -10.2782   21.6396  -31.7359 H   0  0  0  0  0  0  0  0  0  0  0  0
  -10.4486   19.1912  -32.6741 H   0  0  0  0  0  0  0  0  0  0  0  0
   -5.3986   19.3612  -33.7569 H   0  0  0  0  0  0  0  0  0  0  0  0
   -2.9595   19.8158  -33.9004 H   0  0  0  0  0  0  0  0  0  0  0  0
   -1.9045   21.4830  -32.3899 H   0  0  0  0  0  0  0  0  0  0  0  0
   -1.6145   21.3951  -29.7830 H   0  0  0  0  0  0  0  0  0  0  0  0
   -0.4300   22.9586  -28.2348 H   0  0  0  0  0  0  0  0  0  0  0  0
   -1.2135   25.3230  -28.0334 H   0  0  0  0  0  0  0  0  0  0  0  0
   -3.1070   26.0510  -29.3390 H   0  0  0  0  0  0  0  0  0  0  0  0
  1  2  1  0
  2  3  2  0
  3  4  1  0
  4  5  2  0
  5  6  1  0
  6  7  2  0
  7  8  1  0
  3  9  1  0
  9 10  2  0
 10 11  1  0
 11 12  2  0
 12 13  1  0
 13 14  2  0
 14 15  1  0
 15 16  2  0
 16 17  1  0
 17 18  1  0
 18 19  2  0
 12  2  1  0
 18 13  1  0
  8  4  1  0
  1 20  1  0
  1 21  1  0
  6 22  1  0
  7 23  1  0
  9 24  1  0
 10 25  1  0
 11 26  1  0
 14 27  1  0
 15 28  1  0
 16 29  1  0
 17 30  1  0
M  END
>  <UniqueID>  (20) 
19

>  <SMILES>  (20) 
Nc1c(-c2nccs2)cccc1-c1ccc[nH]c1=O

>  <Energy>  (20) 
77.68250471934583

>  <Genealogy>  (20) 
Nc1c(-c2nccs2)cccc1-c1ccc[nH]c1=O (3D coordinates assigned)
Nc1c(-c2nccs2)cccc1-c1ccc[nH]c1=O (optimized conformer: 77.68250471934583 kcal/mol)

>  <smiles>  (20) 
Nc1c(-c2nccs2)cccc1-c1ccc[nH]c1=O

>  <score_type>  (20) 
oracle

>  <origin>  (20) 
adgpu

>  <m_score__min__energy>  (20) 
-7.3300000000000001

>  <m_primary>  (20) 
energy

$$$$
20:0
     RDKit          3D

 56 59  0  0  0  0  0  0  0  0999 V2000
   -0.8880   26.7910  -27.8410 C   0  0  0  0  0  0  0  0  0  0  0  0
   -1.4700   26.0460  -28.9060 O   0  0  0  0  0  0  0  0  0  0  0  0
   -1.5690   24.6450  -28.9360 C   0  0  0  0  0  0  0  0  0  0  0  0
   -0.6950   23.8210  -28.2000 C   0  0  0  0  0  0  0  0  0  0  0  0
   -0.8310   22.4320  -28.2460 C   0  0  0  0  0  0  0  0  0  0  0  0
   -1.8250   21.8520  -29.0340 C   0  0  0  0  0  0  0  0  0  0  0  0
   -2.6940   22.6610  -29.7700 C   0  0  0  0  0  0  0  0  0  0  0  0
   -2.5850   24.0610  -29.7110 C   0  0  0  0  0  0  0  0  0  0  0  0
   -3.4830   24.9140  -30.4330 N   0  0  0  0  0  0  0  0  0  0  0  0
   -5.1790   25.0720  -30.0980 S   0  0  0  0  0  0  0  0  0  0  0  0
   -5.6710   26.4450  -30.4660 O   0  0  0  0  0  0  0  0  0  0  0  0
   -5.3960   24.8740  -28.6250 O   0  0  0  0  0  0  0  0  0  0  0  0
   -6.0650   23.8380  -30.9940 C   0  0  0  0  0  0  0  0  0  0  0  0
   -7.4610   23.7580  -30.9110 C   0  0  0  0  0  0  0  0  0  0  0  0
   -8.1450   22.7360  -31.5740 C   0  0  0  0  0  0  0  0  0  0  0  0
   -7.4390   21.7740  -32.3030 C   0  0  0  0  0  0  0  0  0  0  0  0
   -6.0370   21.8330  -32.3880 C   0  0  0  0  0  0  0  0  0  0  0  0
   -5.2750   20.7810  -33.0990 C   0  0  0  0  0  0  0  0  0  0  0  0
   -5.7630   19.6260  -33.2360 O   0  0  0  0  0  0  0  0  0  0  0  0
   -3.9840   21.0820  -33.6470 N   0  0  0  0  0  0  0  0  0  0  0  0
   -2.7390   20.4870  -33.2620 C   0  0  0  0  0  0  0  0  0  0  0  0
   -2.4880   19.1150  -33.4410 C   0  0  0  0  0  0  0  0  0  0  0  0
   -1.2870   18.5550  -32.9930 C   0  0  0  0  0  0  0  0  0  0  0  0
   -0.3300   19.3560  -32.3550 C   0  0  0  0  0  0  0  0  0  0  0  0
    1.1600   18.6330  -31.7530 S   0  0  0  0  0  0  0  0  0  0  0  0
    2.2500   18.8600  -32.7610 O   0  0  0  0  0  0  0  0  0  0  0  0
    0.9730   17.1550  -31.5540 O   0  0  0  0  0  0  0  0  0  0  0  0
    1.6320   19.3480  -30.2430 N   0  0  0  0  0  0  0  0  0  0  0  0
    0.8970   19.3550  -29.1720 C   0  0  0  0  0  0  0  0  0  0  0  0
   -0.3730   18.8230  -29.0330 C   0  0  0  0  0  0  0  0  0  0  0  0
   -0.6920   19.1330  -27.7280 C   0  0  0  0  0  0  0  0  0  0  0  0
   -1.9550   18.7760  -27.0200 C   0  0  0  0  0  0  0  0  0  0  0  0
    0.3150   19.7720  -27.1760 O   0  0  0  0  0  0  0  0  0  0  0  0
    1.2940   19.9280  -28.0210 N   0  0  0  0  0  0  0  0  0  0  0  0
   -0.5770   20.7240  -32.1860 C   0  0  0  0  0  0  0  0  0  0  0  0
   -1.7820   21.2810  -32.6230 C   0  0  0  0  0  0  0  0  0  0  0  0
   -5.3620   22.8860  -31.7440 C   0  0  0  0  0  0  0  0  0  0  0  0
   -1.2156   26.3716  -26.8783 H   0  0  0  0  0  0  0  0  0  0  0  0
    0.2084   26.7355  -27.9110 H   0  0  0  0  0  0  0  0  0  0  0  0
   -1.2072   27.8413  -27.9110 H   0  0  0  0  0  0  0  0  0  0  0  0
    0.0979   24.2737  -27.5865 H   0  0  0  0  0  0  0  0  0  0  0  0
   -0.1531   21.7942  -27.6598 H   0  0  0  0  0  0  0  0  0  0  0  0
   -1.9246   20.7573  -29.0759 H   0  0  0  0  0  0  0  0  0  0  0  0
   -3.4687   22.1993  -30.3999 H   0  0  0  0  0  0  0  0  0  0  0  0
   -8.0196   24.5010  -30.3229 H   0  0  0  0  0  0  0  0  0  0  0  0
   -9.2427   22.6879  -31.5224 H   0  0  0  0  0  0  0  0  0  0  0  0
   -7.9840   20.9661  -32.8131 H   0  0  0  0  0  0  0  0  0  0  0  0
   -3.2384   18.4802  -33.9348 H   0  0  0  0  0  0  0  0  0  0  0  0
   -1.0930   17.4825  -33.1419 H   0  0  0  0  0  0  0  0  0  0  0  0
   -0.9778   18.2861  -29.7786 H   0  0  0  0  0  0  0  0  0  0  0  0
   -1.7917   18.8221  -25.9332 H   0  0  0  0  0  0  0  0  0  0  0  0
   -2.7467   19.4855  -27.3023 H   0  0  0  0  0  0  0  0  0  0  0  0
   -2.2581   17.7570  -27.3023 H   0  0  0  0  0  0  0  0  0  0  0  0
    0.1802   21.3625  -31.7075 H   0  0  0  0  0  0  0  0  0  0  0  0
   -1.9788   22.3514  -32.4631 H   0  0  0  0  0  0  0  0  0  0  0  0
   -4.2681   22.9629  -31.8304 H   0  0  0  0  0  0  0  0  0  0  0  0
  1  2  1  0
  2  3  1  0
  3  4  2  0
  4  5  1  0
  5  6  2  0
  6  7  1  0
  7  8  2  0
  8  9  1  0
  9 10  1  0
 10 11  2  0
 10 12  2  0
 10 13  1  0
 13 14  2  0
 14 15  1  0
 15 16  2  0
 16 17  1  0
 17 18  1  0
 18 19  2  0
 18 20  1  0
 20 21  1  0
 21 22  2  0
 22 23  1  0
 23 24  2  0
 24 25  1  0
 25 26  2  0
 25 27  2  0
 25 28  1  0
 28 29  2  3
 29 30  1  0
 30 31  2  0
 31 32  1  0
 31 33  1  0
 33 34  1  0
 24 35  1  0
 35 36  2  0
 17 37  2  0
  8  3  1  0
 37 13  1  0
 36 21  1  0
 34 29  1  0
  1 38  1  0
  1 39  1  0
  1 40  1  0
  4 41  1  0
  5 42  1  0
  6 43  1  0
  7 44  1  0
 14 45  1  0
 15 46  1  0
 16 47  1  0
 22 48  1  0
 23 49  1  0
 30 50  1  0
 32 51  1  0
 32 52  1  0
 32 53  1  0
 35 54  1  0
 36 55  1  0
 37 56  1  0
M  CHG  3   9  -1  20  -1  34  -1
M  END
>  <UniqueID>  (21) 
20

>  <SMILES>  (21) 
COc1ccccc1[N-]S(=O)(=O)c1cccc(C(=O)[N-]c2ccc(S(=O)(=O)N=c3cc(C)o[n-]3)cc2)c1

>  <Energy>  (21) 
102.20308095222661

>  <Genealogy>  (21) 
COc1ccccc1[N-]S(=O)(=O)c1cccc(C(=O)[N-]c2ccc(S(=O)(=O)N=c3cc(C)o[n-]3)cc2)c1 (protonated)
COc1ccccc1[N-]S(=O)(=O)c1cccc(C(=O)[N-]c2ccc(S(=O)(=O)N=c3cc(C)o[n-]3)cc2)c1 (3D coordinates assigned)
COc1ccccc1[N-]S(=O)(=O)c1cccc(C(=O)[N-]c2ccc(S(=O)(=O)N=c3cc(C)o[n-]3)cc2)c1 (optimized conformer: 102.20308095222661 kcal/mol)

>  <smiles>  (21) 
COc1ccccc1NS(=O)(=O)c1cccc(C(=O)Nc2ccc(S(=O)(=O)N=c3cc(C)o[nH]3)cc2)c1

>  <score_type>  (21) 
oracle

>  <origin>  (21) 
adgpu

>  <m_score__min__energy>  (21) 
-13.16

>  <m_primary>  (21) 
energy

$$$$
21:0
     RDKit          3D

 46 48  0  0  0  0  0  0  0  0999 V2000
   -9.2500   21.5930  -32.0400 C   0  0  0  0  0  0  0  0  0  0  0  0
   -8.2340   20.4800  -32.0170 C   0  0  0  0  0  0  0  0  0  0  0  0
   -8.5360   19.2690  -32.6620 C   0  0  0  0  0  0  0  0  0  0  0  0
   -7.6060   18.2310  -32.6930 C   0  0  0  0  0  0  0  0  0  0  0  0
   -6.3580   18.3910  -32.0950 C   0  0  0  0  0  0  0  0  0  0  0  0
   -6.0340   19.5840  -31.4410 C   0  0  0  0  0  0  0  0  0  0  0  0
   -4.7060   19.7590  -30.9440 N   0  0  0  0  0  0  0  0  0  0  0  0
   -3.5700   20.7210  -31.8300 S   0  0  0  0  0  0  0  0  0  0  0  0
   -4.1560   21.1180  -33.1550 O   0  0  0  0  0  0  0  0  0  0  0  0
   -2.3260   19.9130  -32.0710 O   0  0  0  0  0  0  0  0  0  0  0  0
   -3.1840   22.1550  -30.8830 C   0  0  0  0  0  0  0  0  0  0  0  0
   -3.8820   23.3520  -31.0760 C   0  0  0  0  0  0  0  0  0  0  0  0
   -3.4740   24.5190  -30.4250 C   0  0  0  0  0  0  0  0  0  0  0  0
   -4.2010   25.6930  -30.6280 O   0  0  0  0  0  0  0  0  0  0  0  0
   -2.3410   24.5020  -29.5920 C   0  0  0  0  0  0  0  0  0  0  0  0
   -1.9420   25.6740  -28.9580 O   0  0  0  0  0  0  0  0  0  0  0  0
   -1.6220   23.3010  -29.4010 C   0  0  0  0  0  0  0  0  0  0  0  0
   -0.3610   23.2540  -28.6250 C   0  0  0  0  0  0  0  0  0  0  0  0
    0.6220   23.9570  -28.9860 O   0  0  0  0  0  0  0  0  0  0  0  0
   -0.2570   22.4280  -27.4590 N   0  0  0  0  0  0  0  0  0  0  0  0
   -0.7160   21.0730  -27.3470 C   0  0  0  0  0  0  0  0  0  0  0  0
   -1.9250   20.8220  -26.6860 C   0  0  0  0  0  0  0  0  0  0  0  0
   -2.3870   19.5110  -26.5300 C   0  0  0  0  0  0  0  0  0  0  0  0
   -1.6340   18.4410  -27.0190 C   0  0  0  0  0  0  0  0  0  0  0  0
   -0.4150   18.6800  -27.6590 C   0  0  0  0  0  0  0  0  0  0  0  0
    0.0490   19.9890  -27.8190 C   0  0  0  0  0  0  0  0  0  0  0  0
   -2.0810   22.1280  -30.0230 C   0  0  0  0  0  0  0  0  0  0  0  0
   -6.9820   20.6340  -31.3660 C   0  0  0  0  0  0  0  0  0  0  0  0
   -6.6290   21.9360  -30.6860 C   0  0  0  0  0  0  0  0  0  0  0  0
   -9.5078   21.8755  -31.0086 H   0  0  0  0  0  0  0  0  0  0  0  0
   -8.8285   22.4635  -32.5641 H   0  0  0  0  0  0  0  0  0  0  0  0
  -10.1552   21.2524  -32.5641 H   0  0  0  0  0  0  0  0  0  0  0  0
   -9.5148   19.1388  -33.1468 H   0  0  0  0  0  0  0  0  0  0  0  0
   -7.8582   17.2831  -33.1909 H   0  0  0  0  0  0  0  0  0  0  0  0
   -5.6228   17.5739  -32.1375 H   0  0  0  0  0  0  0  0  0  0  0  0
   -4.7561   23.3745  -31.7434 H   0  0  0  0  0  0  0  0  0  0  0  0
   -3.8720   26.5940  -30.3050 H   0  0  0  0  0  0  0  0  0  0  0  0
   -2.5146   21.6607  -26.2872 H   0  0  0  0  0  0  0  0  0  0  0  0
   -3.3442   19.3225  -26.0218 H   0  0  0  0  0  0  0  0  0  0  0  0
   -2.0004   17.4106  -26.9003 H   0  0  0  0  0  0  0  0  0  0  0  0
    0.1807   17.8364  -28.0377 H   0  0  0  0  0  0  0  0  0  0  0  0
    1.0137   20.1726  -28.3146 H   0  0  0  0  0  0  0  0  0  0  0  0
   -1.5660   21.1751  -29.8312 H   0  0  0  0  0  0  0  0  0  0  0  0
   -6.6655   21.8015  -29.5949 H   0  0  0  0  0  0  0  0  0  0  0  0
   -5.6154   22.2423  -30.9840 H   0  0  0  0  0  0  0  0  0  0  0  0
   -7.3491   22.7123  -30.9840 H   0  0  0  0  0  0  0  0  0  0  0  0
  1  2  1  0
  2  3  2  0
  3  4  1  0
  4  5  2  0
  5  6  1  0
  6  7  1  0
  7  8  1  0
  8  9  2  0
  8 10  2  0
  8 11  1  0
 11 12  2  0
 12 13  1  0
 13 14  1  0
 13 15  2  0
 15 16  1  0
 15 17  1  0
 17 18  1  0
 18 19  2  0
 18 20  1  0
 20 21  1  0
 21 22  2  0
 22 23  1  0
 23 24  2  0
 24 25  1  0
 25 26  2  0
 17 27  2  0
  6 28  2  0
 28 29  1  0
 28  2  1  0
 27 11  1  0
 26 21  1  0
  1 30  1  0
  1 31  1  0
  1 32  1  0
  3 33  1  0
  4 34  1  0
  5 35  1  0
 12 36  1  0
 14 37  1  0
 22 38  1  0
 23 39  1  0
 24 40  1  0
 25 41  1  0
 26 42  1  0
 27 43  1  0
 29 44  1  0
 29 45  1  0
 29 46  1  0
M  CHG  3   7  -1  16  -1  20  -1
M  END
>  <UniqueID>  (22) 
21

>  <SMILES>  (22) 
Cc1cccc([N-]S(=O)(=O)c2cc(O)c([O-])c(C(=O)[N-]c3ccccc3)c2)c1C

>  <Energy>  (22) 
63.19808778822482

>  <Genealogy>  (22) 
Cc1cccc([N-]S(=O)(=O)c2cc(O)c([O-])c(C(=O)[N-]c3ccccc3)c2)c1C (protonated)
Cc1cccc([N-]S(=O)(=O)c2cc(O)c([O-])c(C(=O)[N-]c3ccccc3)c2)c1C (3D coordinates assigned)
Cc1cccc([N-]S(=O)(=O)c2cc(O)c([O-])c(C(=O)[N-]c3ccccc3)c2)c1C (optimized conformer: 63.19808778822482 kcal/mol)

>  <smiles>  (22) 
Cc1cccc(NS(=O)(=O)c2cc(O)c(O)c(C(=O)Nc3ccccc3)c2)c1C

>  <score_type>  (22) 
oracle

>  <origin>  (22) 
adgpu

>  <m_score__min__energy>  (22) 
-13.24

>  <m_primary>  (22) 
energy

$$$$
22:0
     RDKit          3D

 33 35  0  0  0  0  0  0  0  0999 V2000
   -2.3240   20.7530  -34.3430 N   0  0  0  0  0  0  0  0  0  0  0  0
   -2.7490   19.4030  -34.1400 C   0  0  0  0  0  0  0  0  0  0  0  0
   -1.9170   18.4680  -34.2960 O   0  0  0  0  0  0  0  0  0  0  0  0
   -4.1420   19.1000  -33.7520 C   0  0  0  0  0  0  0  0  0  0  0  0
   -4.7420   17.8760  -34.0910 C   0  0  0  0  0  0  0  0  0  0  0  0
   -6.0610   17.6250  -33.7110 C   0  0  0  0  0  0  0  0  0  0  0  0
   -6.7780   18.5880  -32.9920 C   0  0  0  0  0  0  0  0  0  0  0  0
   -8.1090   18.3650  -32.6140 C   0  0  0  0  0  0  0  0  0  0  0  0
   -8.8100   19.3460  -31.9120 C   0  0  0  0  0  0  0  0  0  0  0  0
   -8.1900   20.5520  -31.5780 C   0  0  0  0  0  0  0  0  0  0  0  0
   -6.8520   20.7950  -31.9350 C   0  0  0  0  0  0  0  0  0  0  0  0
   -6.2180   22.0810  -31.5540 C   0  0  0  0  0  0  0  0  0  0  0  0
   -4.8520   22.1370  -31.2240 C   0  0  0  0  0  0  0  0  0  0  0  0
   -4.2600   23.3510  -30.8640 C   0  0  0  0  0  0  0  0  0  0  0  0
   -5.0240   24.5240  -30.8240 C   0  0  0  0  0  0  0  0  0  0  0  0
   -4.4170   25.7670  -30.4570 N   0  0  0  0  0  0  0  0  0  0  0  0
   -6.3870   24.4730  -31.1440 C   0  0  0  0  0  0  0  0  0  0  0  0
   -6.9820   23.2600  -31.5040 C   0  0  0  0  0  0  0  0  0  0  0  0
   -6.1450   19.8070  -32.6550 C   0  0  0  0  0  0  0  0  0  0  0  0
   -4.8600   20.0210  -33.0510 N   0  0  0  0  0  0  0  0  0  0  0  0
   -1.3380   20.9550  -34.6180 H   0  0  0  0  0  0  0  0  0  0  0  0
   -2.9800   21.5560  -34.2190 H   0  0  0  0  0  0  0  0  0  0  0  0
   -4.1750   17.1193  -34.6531 H   0  0  0  0  0  0  0  0  0  0  0  0
   -6.5374   16.6698  -33.9767 H   0  0  0  0  0  0  0  0  0  0  0  0
   -8.6015   17.4156  -32.8710 H   0  0  0  0  0  0  0  0  0  0  0  0
   -9.8557   19.1687  -31.6203 H   0  0  0  0  0  0  0  0  0  0  0  0
   -8.7547   21.3203  -31.0295 H   0  0  0  0  0  0  0  0  0  0  0  0
   -4.2456   21.2196  -31.2494 H   0  0  0  0  0  0  0  0  0  0  0  0
   -3.1900   23.3851  -30.6112 H   0  0  0  0  0  0  0  0  0  0  0  0
   -3.4850   26.0400  -30.8410 H   0  0  0  0  0  0  0  0  0  0  0  0
   -4.8960   26.4220  -29.8000 H   0  0  0  0  0  0  0  0  0  0  0  0
   -6.9917   25.3913  -31.1119 H   0  0  0  0  0  0  0  0  0  0  0  0
   -8.0538   23.2281  -31.7494 H   0  0  0  0  0  0  0  0  0  0  0  0
  1  2  1  0
  2  3  2  0
  2  4  1  0
  4  5  2  0
  5  6  1  0
  6  7  2  0
  7  8  1  0
  8  9  2  0
  9 10  1  0
 10 11  2  0
 11 12  1  0
 12 13  2  0
 13 14  1  0
 14 15  2  0
 15 16  1  0
 15 17  1  0
 17 18  2  0
 11 19  1  0
 19 20  2  0
 20  4  1  0
 19  7  1  0
 18 12  1  0
  1 21  1  0
  1 22  1  0
  5 23  1  0
  6 24  1  0
  8 25  1  0
  9 26  1  0
 10 27  1  0
 13 28  1  0
 14 29  1  0
 16 30  1  0
 16 31  1  0
 17 32  1  0
 18 33  1  0
M  END
>  <UniqueID>  (23) 
22

>  <SMILES>  (23) 
NC(=O)c1ccc2cccc(-c3ccc(N)cc3)c2n1

>  <Energy>  (23) 
43.04379843636776

>  <Genealogy>  (23) 
NC(=O)c1ccc2cccc(-c3ccc(N)cc3)c2n1 (3D coordinates assigned)
NC(=O)c1ccc2cccc(-c3ccc(N)cc3)c2n1 (optimized conformer: 43.04379843636776 kcal/mol)

>  <smiles>  (23) 
NC(=O)c1ccc2cccc(-c3ccc(N)cc3)c2n1

>  <score_type>  (23) 
oracle

>  <origin>  (23) 
adgpu

>  <m_score__min__energy>  (23) 
-8.8399999999999999

>  <m_primary>  (23) 
energy

$$$$
23:0
     RDKit          3D

 39 41  0  0  0  0  0  0  0  0999 V2000
   -1.5020   19.3910  -32.6910 C   0  0  0  0  0  0  0  0  0  0  0  0
   -2.6340   20.3360  -32.4220 C   0  0  0  0  0  0  0  0  0  0  0  0
   -3.2890   20.3200  -31.1810 C   0  0  0  0  0  0  0  0  0  0  0  0
   -4.3180   21.2280  -30.9140 C   0  0  0  0  0  0  0  0  0  0  0  0
   -4.6990   22.1700  -31.8810 C   0  0  0  0  0  0  0  0  0  0  0  0
   -5.7370   23.1230  -31.6020 N   0  0  0  0  0  0  0  0  0  0  0  0
   -7.0300   23.0440  -32.2890 C   0  0  0  0  0  0  0  0  0  0  0  0
   -7.6460   21.6840  -32.0900 C   0  0  0  0  0  0  0  0  0  0  0  0
   -7.2340   20.5920  -32.8680 C   0  0  0  0  0  0  0  0  0  0  0  0
   -7.7750   19.3280  -32.6390 C   0  0  0  0  0  0  0  0  0  0  0  0
   -8.7220   19.1620  -31.6260 C   0  0  0  0  0  0  0  0  0  0  0  0
   -9.1080   20.2270  -30.8750 N   0  0  0  0  0  0  0  0  0  0  0  0
   -8.5950   21.4690  -31.0790 C   0  0  0  0  0  0  0  0  0  0  0  0
   -5.4520   24.4100  -30.4680 S   0  0  0  0  0  0  0  0  0  0  0  0
   -4.9950   25.6500  -31.1850 O   0  0  0  0  0  0  0  0  0  0  0  0
   -6.7290   24.7220  -29.7410 O   0  0  0  0  0  0  0  0  0  0  0  0
   -4.2200   23.9270  -29.3190 C   0  0  0  0  0  0  0  0  0  0  0  0
   -4.4000   23.0540  -28.2570 C   0  0  0  0  0  0  0  0  0  0  0  0
   -3.2430   22.8900  -27.4850 C   0  0  0  0  0  0  0  0  0  0  0  0
   -2.1600   23.6320  -27.9390 C   0  0  0  0  0  0  0  0  0  0  0  0
   -2.6390   24.4960  -29.3000 S   0  0  0  0  0  0  0  0  0  0  0  0
   -4.0310   22.1970  -33.1150 C   0  0  0  0  0  0  0  0  0  0  0  0
   -3.0030   21.2900  -33.3820 C   0  0  0  0  0  0  0  0  0  0  0  0
   -1.0822   19.0406  -31.7365 H   0  0  0  0  0  0  0  0  0  0  0  0
   -1.8721   18.5300  -33.2669 H   0  0  0  0  0  0  0  0  0  0  0  0
   -0.7210   19.9089  -33.2669 H   0  0  0  0  0  0  0  0  0  0  0  0
   -2.9913   19.5894  -30.4145 H   0  0  0  0  0  0  0  0  0  0  0  0
   -4.8311   21.2036  -29.9413 H   0  0  0  0  0  0  0  0  0  0  0  0
   -7.7048   23.8111  -31.8814 H   0  0  0  0  0  0  0  0  0  0  0  0
   -6.8742   23.2120  -33.3649 H   0  0  0  0  0  0  0  0  0  0  0  0
   -6.4833   20.7333  -33.6595 H   0  0  0  0  0  0  0  0  0  0  0  0
   -7.4592   18.4696  -33.2501 H   0  0  0  0  0  0  0  0  0  0  0  0
   -9.1556   18.1691  -31.4359 H   0  0  0  0  0  0  0  0  0  0  0  0
   -8.9249   22.3085  -30.4494 H   0  0  0  0  0  0  0  0  0  0  0  0
   -5.3510   22.5441  -28.0434 H   0  0  0  0  0  0  0  0  0  0  0  0
   -3.1963   22.2353  -26.6023 H   0  0  0  0  0  0  0  0  0  0  0  0
   -1.1583   23.6512  -27.4850 H   0  0  0  0  0  0  0  0  0  0  0  0
   -4.3188   22.9369  -33.8764 H   0  0  0  0  0  0  0  0  0  0  0  0
   -2.4804   21.3239  -34.3493 H   0  0  0  0  0  0  0  0  0  0  0  0
  1  2  1  0
  2  3  2  0
  3  4  1  0
  4  5  2  0
  5  6  1  0
  6  7  1  0
  7  8  1  0
  8  9  2  0
  9 10  1  0
 10 11  2  0
 11 12  1  0
 12 13  2  0
  6 14  1  0
 14 15  2  0
 14 16  2  0
 14 17  1  0
 17 18  2  0
 18 19  1  0
 19 20  2  0
 20 21  1  0
  5 22  1  0
 22 23  2  0
 23  2  1  0
 13  8  1  0
 21 17  1  0
  1 24  1  0
  1 25  1  0
  1 26  1  0
  3 27  1  0
  4 28  1  0
  7 29  1  0
  7 30  1  0
  9 31  1  0
 10 32  1  0
 11 33  1  0
 13 34  1  0
 18 35  1  0
 19 36  1  0
 20 37  1  0
 22 38  1  0
 23 39  1  0
M  END
>  <UniqueID>  (24) 
23

>  <SMILES>  (24) 
Cc1ccc(N(Cc2cccnc2)S(=O)(=O)c2cccs2)cc1

>  <Energy>  (24) 
69.96233774795067

>  <Genealogy>  (24) 
Cc1ccc(N(Cc2cccnc2)S(=O)(=O)c2cccs2)cc1 (3D coordinates assigned)
Cc1ccc(N(Cc2cccnc2)S(=O)(=O)c2cccs2)cc1 (optimized conformer: 69.96233774795067 kcal/mol)

>  <smiles>  (24) 
Cc1ccc(N(Cc2cccnc2)S(=O)(=O)c2cccs2)cc1

>  <score_type>  (24) 
oracle

>  <origin>  (24) 
adgpu

>  <m_score__min__energy>  (24) 
-8.1999999999999993

>  <m_primary>  (24) 
energy

$$$$
24:0
     RDKit          3D

 37 39  0  0  0  0  0  0  0  0999 V2000
   -0.8290   26.3700  -28.1570 C   0  0  0  0  0  0  0  0  0  0  0  0
   -1.6340   25.2000  -28.6130 C   0  0  0  0  0  0  0  0  0  0  0  0
   -1.3310   23.8750  -28.3750 C   0  0  0  0  0  0  0  0  0  0  0  0
   -2.3290   23.1480  -28.9900 C   0  0  0  0  0  0  0  0  0  0  0  0
   -3.1730   24.0800  -29.5650 C   0  0  0  0  0  0  0  0  0  0  0  0
   -4.3870   23.7830  -30.3410 C   0  0  0  0  0  0  0  0  0  0  0  0
   -4.7820   24.6030  -31.2130 O   0  0  0  0  0  0  0  0  0  0  0  0
   -5.1340   22.5850  -30.0750 N   0  0  0  0  0  0  0  0  0  0  0  0
   -6.2980   22.2030  -30.8270 C   0  0  0  0  0  0  0  0  0  0  0  0
   -7.5700   22.6730  -30.4530 C   0  0  0  0  0  0  0  0  0  0  0  0
   -8.7010   22.3180  -31.1930 C   0  0  0  0  0  0  0  0  0  0  0  0
   -8.5740   21.5010  -32.3170 C   0  0  0  0  0  0  0  0  0  0  0  0
   -7.3160   21.0370  -32.7060 C   0  0  0  0  0  0  0  0  0  0  0  0
   -6.1760   21.3840  -31.9690 C   0  0  0  0  0  0  0  0  0  0  0  0
   -4.5800   20.7400  -32.4960 S   0  0  0  0  0  0  0  0  0  0  0  0
   -5.2580   19.1370  -32.9290 C   0  0  0  0  0  0  0  0  0  0  0  0
   -5.7880   18.3060  -31.9340 C   0  0  0  0  0  0  0  0  0  0  0  0
   -6.3250   17.0600  -32.2740 C   0  0  0  0  0  0  0  0  0  0  0  0
   -6.3270   16.6400  -33.6070 C   0  0  0  0  0  0  0  0  0  0  0  0
   -5.7910   17.4640  -34.6010 C   0  0  0  0  0  0  0  0  0  0  0  0
   -5.2540   18.7090  -34.2630 C   0  0  0  0  0  0  0  0  0  0  0  0
   -2.7320   25.2940  -29.3260 O   0  0  0  0  0  0  0  0  0  0  0  0
   -0.8108   26.3964  -27.0575 H   0  0  0  0  0  0  0  0  0  0  0  0
    0.1987   26.2791  -28.5386 H   0  0  0  0  0  0  0  0  0  0  0  0
   -1.2812   27.2973  -28.5386 H   0  0  0  0  0  0  0  0  0  0  0  0
   -0.4723   23.4806  -27.8120 H   0  0  0  0  0  0  0  0  0  0  0  0
   -2.4321   22.0532  -29.0173 H   0  0  0  0  0  0  0  0  0  0  0  0
   -4.8800   22.0220  -29.2340 H   0  0  0  0  0  0  0  0  0  0  0  0
   -7.6750   23.3240  -29.5726 H   0  0  0  0  0  0  0  0  0  0  0  0
   -9.6930   22.6832  -30.8889 H   0  0  0  0  0  0  0  0  0  0  0  0
   -9.4660   21.2222  -32.8972 H   0  0  0  0  0  0  0  0  0  0  0  0
   -7.2194   20.3963  -33.5949 H   0  0  0  0  0  0  0  0  0  0  0  0
   -5.7820   18.6336  -30.8839 H   0  0  0  0  0  0  0  0  0  0  0  0
   -6.7458   16.4106  -31.4922 H   0  0  0  0  0  0  0  0  0  0  0  0
   -6.7505   15.6606  -33.8741 H   0  0  0  0  0  0  0  0  0  0  0  0
   -5.7920   17.1321  -35.6497 H   0  0  0  0  0  0  0  0  0  0  0  0
   -4.8275   19.3539  -35.0454 H   0  0  0  0  0  0  0  0  0  0  0  0
  1  2  1  0
  2  3  2  0
  3  4  1  0
  4  5  2  0
  5  6  1  0
  6  7  2  0
  6  8  1  0
  8  9  1  0
  9 10  2  0
 10 11  1  0
 11 12  2  0
 12 13  1  0
 13 14  2  0
 14 15  1  0
 15 16  1  0
 16 17  2  0
 17 18  1  0
 18 19  2  0
 19 20  1  0
 20 21  2  0
  5 22  1  0
 22  2  1  0
 14  9  1  0
 21 16  1  0
  1 23  1  0
  1 24  1  0
  1 25  1  0
  3 26  1  0
  4 27  1  0
  8 28  1  0
 10 29  1  0
 11 30  1  0
 12 31  1  0
 13 32  1  0
 17 33  1  0
 18 34  1  0
 19 35  1  0
 20 36  1  0
 21 37  1  0
M  END
>  <UniqueID>  (25) 
24

>  <SMILES>  (25) 
Cc1ccc(C(=O)Nc2ccccc2Sc2ccccc2)o1

>  <Energy>  (25) 
62.00600286774671

>  <Genealogy>  (25) 
Cc1ccc(C(=O)Nc2ccccc2Sc2ccccc2)o1 (3D coordinates assigned)
Cc1ccc(C(=O)Nc2ccccc2Sc2ccccc2)o1 (optimized conformer: 62.00600286774671 kcal/mol)

>  <smiles>  (25) 
Cc1ccc(C(=O)Nc2ccccc2Sc2ccccc2)o1

>  <score_type>  (25) 
oracle

>  <origin>  (25) 
adgpu

>  <m_score__min__energy>  (25) 
-8.6799999999999997

>  <m_primary>  (25) 
energy

$$$$
25:0
     RDKit          3D

 42 44  0  0  0  0  0  0  0  0999 V2000
    0.5160   19.7440  -32.4750 O   0  0  0  0  0  0  0  0  0  0  0  0
   -0.3890   19.4940  -31.6340 C   0  0  0  0  0  0  0  0  0  0  0  0
   -0.0380   19.0660  -30.3160 N   0  0  0  0  0  0  0  0  0  0  0  0
    0.3130   19.9730  -29.2310 C   0  0  0  0  0  0  0  0  0  0  0  0
   -0.9540   20.4270  -28.5030 C   0  0  0  0  0  0  0  0  0  0  0  0
   -1.1110   21.9260  -28.5590 C   0  0  0  0  0  0  0  0  0  0  0  0
   -0.0640   22.7310  -29.0340 C   0  0  0  0  0  0  0  0  0  0  0  0
   -0.2340   24.1140  -29.1440 C   0  0  0  0  0  0  0  0  0  0  0  0
   -1.4530   24.7050  -28.7940 C   0  0  0  0  0  0  0  0  0  0  0  0
   -1.6090   26.0810  -28.9160 O   0  0  0  0  0  0  0  0  0  0  0  0
   -2.5110   23.9060  -28.3280 C   0  0  0  0  0  0  0  0  0  0  0  0
   -3.7420   24.4660  -27.9860 O   0  0  0  0  0  0  0  0  0  0  0  0
   -2.3350   22.5230  -28.2110 C   0  0  0  0  0  0  0  0  0  0  0  0
   -1.8150   19.6470  -31.9990 C   0  0  0  0  0  0  0  0  0  0  0  0
   -2.4780   18.6540  -32.7390 C   0  0  0  0  0  0  0  0  0  0  0  0
   -3.8210   18.8110  -33.0890 C   0  0  0  0  0  0  0  0  0  0  0  0
   -4.5170   19.9600  -32.7100 C   0  0  0  0  0  0  0  0  0  0  0  0
   -3.8750   20.9720  -31.9730 C   0  0  0  0  0  0  0  0  0  0  0  0
   -4.6050   22.2060  -31.5810 C   0  0  0  0  0  0  0  0  0  0  0  0
   -6.0120   22.2380  -31.5890 C   0  0  0  0  0  0  0  0  0  0  0  0
   -6.6960   23.4050  -31.2350 C   0  0  0  0  0  0  0  0  0  0  0  0
   -5.9850   24.5500  -30.8700 C   0  0  0  0  0  0  0  0  0  0  0  0
   -4.5890   24.5330  -30.8570 C   0  0  0  0  0  0  0  0  0  0  0  0
   -3.8830   25.6720  -30.4910 O   0  0  0  0  0  0  0  0  0  0  0  0
   -3.9000   23.3670  -31.2110 C   0  0  0  0  0  0  0  0  0  0  0  0
   -2.5230   20.8040  -31.6230 C   0  0  0  0  0  0  0  0  0  0  0  0
    0.9755   19.4548  -28.5220 H   0  0  0  0  0  0  0  0  0  0  0  0
    0.8279   20.8522  -29.6455 H   0  0  0  0  0  0  0  0  0  0  0  0
   -1.8279   19.9572  -28.9779 H   0  0  0  0  0  0  0  0  0  0  0  0
   -0.8752   20.1254  -27.4481 H   0  0  0  0  0  0  0  0  0  0  0  0
    0.8936   22.2720  -29.3207 H   0  0  0  0  0  0  0  0  0  0  0  0
    0.5940   24.7404  -29.5073 H   0  0  0  0  0  0  0  0  0  0  0  0
   -4.0730   25.3300  -28.3960 H   0  0  0  0  0  0  0  0  0  0  0  0
   -3.1617   21.8974  -27.8435 H   0  0  0  0  0  0  0  0  0  0  0  0
   -1.9360   17.7469  -33.0448 H   0  0  0  0  0  0  0  0  0  0  0  0
   -4.3322   18.0260  -33.6656 H   0  0  0  0  0  0  0  0  0  0  0  0
   -5.5747   20.0751  -32.9894 H   0  0  0  0  0  0  0  0  0  0  0  0
   -6.5773   21.3390  -31.8756 H   0  0  0  0  0  0  0  0  0  0  0  0
   -7.7958   23.4211  -31.2441 H   0  0  0  0  0  0  0  0  0  0  0  0
   -6.5256   25.4668  -30.5923 H   0  0  0  0  0  0  0  0  0  0  0  0
   -2.8001   23.3579  -31.2000 H   0  0  0  0  0  0  0  0  0  0  0  0
   -2.0112   21.5888  -31.0467 H   0  0  0  0  0  0  0  0  0  0  0  0
  1  2  2  0
  2  3  1  0
  3  4  1  0
  4  5  1  0
  5  6  1  0
  6  7  2  0
  7  8  1  0
  8  9  2  0
  9 10  1  0
  9 11  1  0
 11 12  1  0
 11 13  2  0
  2 14  1  0
 14 15  2  0
 15 16  1  0
 16 17  2  0
 17 18  1  0
 18 19  1  0
 19 20  2  0
 20 21  1  0
 21 22  2  0
 22 23  1  0
 23 24  1  0
 23 25  2  0
 18 26  2  0
 13  6  1  0
 26 14  1  0
 25 19  1  0
  4 27  1  0
  4 28  1  0
  5 29  1  0
  5 30  1  0
  7 31  1  0
  8 32  1  0
 12 33  1  0
 13 34  1  0
 15 35  1  0
 16 36  1  0
 17 37  1  0
 20 38  1  0
 21 39  1  0
 22 40  1  0
 25 41  1  0
 26 42  1  0
M  CHG  3   3  -1  10  -1  24  -1
M  END
>  <UniqueID>  (26) 
25

>  <SMILES>  (26) 
O=C([N-]CCc1ccc([O-])c(O)c1)c1cccc(-c2cccc([O-])c2)c1

>  <Energy>  (26) 
44.76536888270479

>  <Genealogy>  (26) 
O=C([N-]CCc1ccc([O-])c(O)c1)c1cccc(-c2cccc([O-])c2)c1 (protonated)
O=C([N-]CCc1ccc([O-])c(O)c1)c1cccc(-c2cccc([O-])c2)c1 (3D coordinates assigned)
O=C([N-]CCc1ccc([O-])c(O)c1)c1cccc(-c2cccc([O-])c2)c1 (optimized conformer: 44.76536888270479 kcal/mol)

>  <smiles>  (26) 
O=C(NCCc1ccc(O)c(O)c1)c1cccc(-c2cccc(O)c2)c1

>  <score_type>  (26) 
oracle

>  <origin>  (26) 
adgpu

>  <m_score__min__energy>  (26) 
-12.949999999999999

>  <m_primary>  (26) 
energy

$$$$
26:0
     RDKit          3D

 44 46  0  0  0  0  0  0  0  0999 V2000
   -5.1740   18.9550  -33.9150 C   0  0  0  0  0  0  0  0  0  0  0  0
   -6.5270   18.3870  -33.8650 N   0  0  0  0  0  0  0  0  0  0  0  0
   -6.4750   16.9400  -34.1100 C   0  0  0  0  0  0  0  0  0  0  0  0
   -7.2250   18.6820  -32.2920 S   0  0  0  0  0  0  0  0  0  0  0  0
   -6.2100   18.3850  -31.2220 O   0  0  0  0  0  0  0  0  0  0  0  0
   -8.4200   17.7930  -32.0890 O   0  0  0  0  0  0  0  0  0  0  0  0
   -7.7520   20.3590  -32.1790 C   0  0  0  0  0  0  0  0  0  0  0  0
   -9.1030   20.6760  -31.9860 C   0  0  0  0  0  0  0  0  0  0  0  0
   -9.5030   22.0110  -31.8830 C   0  0  0  0  0  0  0  0  0  0  0  0
   -8.5580   23.0360  -31.9830 C   0  0  0  0  0  0  0  0  0  0  0  0
   -7.2020   22.7300  -32.2040 C   0  0  0  0  0  0  0  0  0  0  0  0
   -6.1950   23.7490  -32.2900 N   0  0  0  0  0  0  0  0  0  0  0  0
   -5.3640   24.2280  -31.2220 C   0  0  0  0  0  0  0  0  0  0  0  0
   -5.6890   25.2670  -30.5850 O   0  0  0  0  0  0  0  0  0  0  0  0
   -4.0950   23.5310  -30.9020 C   0  0  0  0  0  0  0  0  0  0  0  0
   -3.7530   22.3360  -31.5610 C   0  0  0  0  0  0  0  0  0  0  0  0
   -2.5590   21.6770  -31.2560 C   0  0  0  0  0  0  0  0  0  0  0  0
   -1.6940   22.2000  -30.2950 C   0  0  0  0  0  0  0  0  0  0  0  0
   -2.0120   23.3920  -29.6270 C   0  0  0  0  0  0  0  0  0  0  0  0
   -1.1190   23.9330  -28.6380 N   0  0  0  0  0  0  0  0  0  0  0  0
   -0.9340   25.2340  -28.3290 C   0  0  0  0  0  0  0  0  0  0  0  0
   -1.5850   26.2880  -28.9590 O   0  0  0  0  0  0  0  0  0  0  0  0
    0.0070   25.3790  -27.3290 C   0  0  0  0  0  0  0  0  0  0  0  0
    0.4230   24.1010  -27.0060 C   0  0  0  0  0  0  0  0  0  0  0  0
   -0.2880   23.2470  -27.8260 C   0  0  0  0  0  0  0  0  0  0  0  0
   -0.1840   21.8600  -27.8020 O   0  0  0  0  0  0  0  0  0  0  0  0
   -3.2150   24.0520  -29.9350 C   0  0  0  0  0  0  0  0  0  0  0  0
   -6.8070   21.3890  -32.2820 C   0  0  0  0  0  0  0  0  0  0  0  0
   -4.8036   19.1105  -32.8910 H   0  0  0  0  0  0  0  0  0  0  0  0
   -4.5047   18.2619  -34.4457 H   0  0  0  0  0  0  0  0  0  0  0  0
   -5.2000   19.9181  -34.4457 H   0  0  0  0  0  0  0  0  0  0  0  0
   -6.4558   16.4058  -33.1486 H   0  0  0  0  0  0  0  0  0  0  0  0
   -7.3627   16.6329  -34.6825 H   0  0  0  0  0  0  0  0  0  0  0  0
   -5.5676   16.6974  -34.6825 H   0  0  0  0  0  0  0  0  0  0  0  0
   -9.8506   19.8722  -31.9154 H   0  0  0  0  0  0  0  0  0  0  0  0
  -10.5634   22.2556  -31.7229 H   0  0  0  0  0  0  0  0  0  0  0  0
   -8.8750   24.0851  -31.8887 H   0  0  0  0  0  0  0  0  0  0  0  0
   -4.4295   21.9179  -32.3209 H   0  0  0  0  0  0  0  0  0  0  0  0
   -2.3005   20.7426  -31.7756 H   0  0  0  0  0  0  0  0  0  0  0  0
   -0.7567   21.6747  -30.0594 H   0  0  0  0  0  0  0  0  0  0  0  0
    0.3552   26.3210  -26.8802 H   0  0  0  0  0  0  0  0  0  0  0  0
    1.1698   23.8207  -26.2485 H   0  0  0  0  0  0  0  0  0  0  0  0
   -3.4712   24.9863  -29.4141 H   0  0  0  0  0  0  0  0  0  0  0  0
   -5.7449   21.1414  -32.4255 H   0  0  0  0  0  0  0  0  0  0  0  0
  1  2  1  0
  2  3  1  0
  2  4  1  0
  4  5  2  0
  4  6  2  0
  4  7  1  0
  7  8  2  0
  8  9  1  0
  9 10  2  0
 10 11  1  0
 11 12  1  0
 12 13  1  0
 13 14  2  0
 13 15  1  0
 15 16  2  0
 16 17  1  0
 17 18  2  0
 18 19  1  0
 19 20  1  0
 20 21  1  0
 21 22  1  0
 21 23  2  0
 23 24  1  0
 24 25  2  0
 25 26  1  0
 19 27  2  0
 11 28  2  0
 28  7  1  0
 27 15  1  0
 25 20  1  0
  1 29  1  0
  1 30  1  0
  1 31  1  0
  3 32  1  0
  3 33  1  0
  3 34  1  0
  8 35  1  0
  9 36  1  0
 10 37  1  0
 16 38  1  0
 17 39  1  0
 18 40  1  0
 23 41  1  0
 24 42  1  0
 27 43  1  0
 28 44  1  0
M  CHG  3  12  -1  22  -1  26  -1
M  END
>  <UniqueID>  (27) 
26

>  <SMILES>  (27) 
CN(C)S(=O)(=O)c1cccc([N-]C(=O)c2cccc(-n3c([O-])ccc3[O-])c2)c1

>  <Energy>  (27) 
81.90477955380156

>  <Genealogy>  (27) 
CN(C)S(=O)(=O)c1cccc([N-]C(=O)c2cccc(-n3c([O-])ccc3[O-])c2)c1 (protonated)
CN(C)S(=O)(=O)c1cccc([N-]C(=O)c2cccc(-n3c([O-])ccc3[O-])c2)c1 (3D coordinates assigned)
CN(C)S(=O)(=O)c1cccc([N-]C(=O)c2cccc(-n3c([O-])ccc3[O-])c2)c1 (optimized conformer: 81.90477955380156 kcal/mol)

>  <smiles>  (27) 
CN(C)S(=O)(=O)c1cccc(NC(=O)c2cccc(-n3c(O)ccc3O)c2)c1

>  <score_type>  (27) 
oracle

>  <origin>  (27) 
adgpu

>  <m_score__min__energy>  (27) 
-12.279999999999999

>  <m_primary>  (27) 
energy

$$$$
27:0
     RDKit          3D

 40 42  0  0  0  0  0  0  0  0999 V2000
   -6.1080   17.2230  -34.1820 C   0  0  0  0  0  0  0  0  0  0  0  0
   -7.1770   17.2280  -33.0960 C   0  0  0  0  0  0  0  0  0  0  0  0
   -7.4910   18.5970  -32.7020 N   0  0  0  0  0  0  0  0  0  0  0  0
   -6.6060   19.5170  -32.2700 C   0  0  0  0  0  0  0  0  0  0  0  0
   -7.3080   20.6600  -31.9480 C   0  0  0  0  0  0  0  0  0  0  0  0
   -6.7490   21.8790  -31.4290 N   0  0  0  0  0  0  0  0  0  0  0  0
   -7.4570   22.9440  -30.9970 C   0  0  0  0  0  0  0  0  0  0  0  0
   -6.6020   23.9230  -30.5320 C   0  0  0  0  0  0  0  0  0  0  0  0
   -5.3210   23.4250  -30.6860 C   0  0  0  0  0  0  0  0  0  0  0  0
   -4.0620   24.0830  -30.2900 C   0  0  0  0  0  0  0  0  0  0  0  0
   -3.8800   25.2960  -30.5810 O   0  0  0  0  0  0  0  0  0  0  0  0
   -2.9870   23.3440  -29.6000 C   0  0  0  0  0  0  0  0  0  0  0  0
   -2.0770   22.5990  -30.3680 C   0  0  0  0  0  0  0  0  0  0  0  0
   -1.0480   21.8750  -29.7500 C   0  0  0  0  0  0  0  0  0  0  0  0
   -0.1330   21.1080  -30.5380 N   0  0  0  0  0  0  0  0  0  0  0  0
   -0.9210   21.9040  -28.3550 C   0  0  0  0  0  0  0  0  0  0  0  0
   -1.8090   22.6590  -27.5860 C   0  0  0  0  0  0  0  0  0  0  0  0
   -2.8380   23.3850  -28.1970 C   0  0  0  0  0  0  0  0  0  0  0  0
   -3.8730   24.3840  -27.1810 Cl  0  0  0  0  0  0  0  0  0  0  0  0
   -5.4450   22.1610  -31.2310 C   0  0  0  0  0  0  0  0  0  0  0  0
   -8.6410   20.3490  -32.1840 C   0  0  0  0  0  0  0  0  0  0  0  0
   -9.8390   21.2110  -31.9560 C   0  0  0  0  0  0  0  0  0  0  0  0
   -8.7220   19.0830  -32.6440 N   0  0  0  0  0  0  0  0  0  0  0  0
   -5.1117   17.2183  -33.7158 H   0  0  0  0  0  0  0  0  0  0  0  0
   -6.2245   16.3254  -34.8071 H   0  0  0  0  0  0  0  0  0  0  0  0
   -6.2161   18.1217  -34.8071 H   0  0  0  0  0  0  0  0  0  0  0  0
   -8.0867   16.7430  -33.4798 H   0  0  0  0  0  0  0  0  0  0  0  0
   -6.7997   16.6807  -32.2196 H   0  0  0  0  0  0  0  0  0  0  0  0
   -5.5175   19.3807  -32.1886 H   0  0  0  0  0  0  0  0  0  0  0  0
   -8.5542   23.0205  -31.0131 H   0  0  0  0  0  0  0  0  0  0  0  0
   -6.8835   24.9037  -30.1209 H   0  0  0  0  0  0  0  0  0  0  0  0
   -2.1726   22.5836  -31.4637 H   0  0  0  0  0  0  0  0  0  0  0  0
    0.3410   20.2670  -30.1410 H   0  0  0  0  0  0  0  0  0  0  0  0
    0.0760   21.3770  -31.5260 H   0  0  0  0  0  0  0  0  0  0  0  0
   -0.1203   21.3310  -27.8646 H   0  0  0  0  0  0  0  0  0  0  0  0
   -1.6990   22.6834  -26.4918 H   0  0  0  0  0  0  0  0  0  0  0  0
   -4.6079   21.4877  -31.4673 H   0  0  0  0  0  0  0  0  0  0  0  0
  -10.0046   21.3302  -30.8751 H   0  0  0  0  0  0  0  0  0  0  0  0
   -9.6728   22.1979  -32.4125 H   0  0  0  0  0  0  0  0  0  0  0  0
  -10.7220   20.7398  -32.4125 H   0  0  0  0  0  0  0  0  0  0  0  0
  1  2  1  0
  2  3  1  0
  3  4  1  0
  4  5  2  0
  5  6  1  0
  6  7  1  0
  7  8  2  0
  8  9  1  0
  9 10  1  0
 10 11  2  0
 10 12  1  0
 12 13  2  0
 13 14  1  0
 14 15  1  0
 14 16  2  0
 16 17  1  0
 17 18  2  0
 18 19  1  0
  9 20  2  0
  5 21  1  0
 21 22  1  0
 21 23  2  0
 23  3  1  0
 20  6  1  0
 18 12  1  0
  1 24  1  0
  1 25  1  0
  1 26  1  0
  2 27  1  0
  2 28  1  0
  4 29  1  0
  7 30  1  0
  8 31  1  0
 13 32  1  0
 15 33  1  0
 15 34  1  0
 16 35  1  0
 17 36  1  0
 20 37  1  0
 22 38  1  0
 22 39  1  0
 22 40  1  0
M  END
>  <UniqueID>  (28) 
27

>  <SMILES>  (28) 
CCn1cc(-n2ccc(C(=O)c3cc(N)ccc3Cl)c2)c(C)n1

>  <Energy>  (28) 
102.71706411645557

>  <Genealogy>  (28) 
CCn1cc(-n2ccc(C(=O)c3cc(N)ccc3Cl)c2)c(C)n1 (3D coordinates assigned)
CCn1cc(-n2ccc(C(=O)c3cc(N)ccc3Cl)c2)c(C)n1 (optimized conformer: 102.71706411645557 kcal/mol)

>  <smiles>  (28) 
CCn1cc(-n2ccc(C(=O)c3cc(N)ccc3Cl)c2)c(C)n1

>  <score_type>  (28) 
oracle

>  <origin>  (28) 
adgpu

>  <m_score__min__energy>  (28) 
-8.1300000000000008

>  <m_primary>  (28) 
energy

$$$$
28:0
     RDKit          3D

 46 49  0  0  0  0  0  0  0  0999 V2000
    1.4010   27.3200  -25.7880 C   0  0  0  0  0  0  0  0  0  0  0  0
    0.0530   26.6960  -25.9890 C   0  0  0  0  0  0  0  0  0  0  0  0
   -0.3210   26.2060  -27.2500 C   0  0  0  0  0  0  0  0  0  0  0  0
   -1.5930   25.6610  -27.4460 C   0  0  0  0  0  0  0  0  0  0  0  0
   -2.5080   25.6140  -26.3870 C   0  0  0  0  0  0  0  0  0  0  0  0
   -4.1420   24.9240  -26.6430 S   0  0  0  0  0  0  0  0  0  0  0  0
   -3.5060   23.5710  -27.6280 C   0  0  0  0  0  0  0  0  0  0  0  0
   -2.8990   22.5220  -27.1260 O   0  0  0  0  0  0  0  0  0  0  0  0
   -2.5500   21.7220  -28.1110 C   0  0  0  0  0  0  0  0  0  0  0  0
   -1.8400   20.4390  -27.9060 C   0  0  0  0  0  0  0  0  0  0  0  0
   -2.2890   19.5420  -26.9240 C   0  0  0  0  0  0  0  0  0  0  0  0
   -1.6260   18.3290  -26.7250 C   0  0  0  0  0  0  0  0  0  0  0  0
   -0.5150   18.0200  -27.5080 C   0  0  0  0  0  0  0  0  0  0  0  0
   -0.0880   18.8950  -28.4560 N   0  0  0  0  0  0  0  0  0  0  0  0
   -0.7150   20.0830  -28.6720 C   0  0  0  0  0  0  0  0  0  0  0  0
   -2.9480   22.2720  -29.3230 C   0  0  0  0  0  0  0  0  0  0  0  0
   -3.5640   23.4590  -29.0000 C   0  0  0  0  0  0  0  0  0  0  0  0
   -4.2930   24.6180  -30.1560 S   0  0  0  0  0  0  0  0  0  0  0  0
   -5.5070   23.4270  -30.7210 C   0  0  0  0  0  0  0  0  0  0  0  0
   -5.2360   22.6240  -31.8340 C   0  0  0  0  0  0  0  0  0  0  0  0
   -6.1790   21.6890  -32.2710 C   0  0  0  0  0  0  0  0  0  0  0  0
   -7.4000   21.5370  -31.5890 C   0  0  0  0  0  0  0  0  0  0  0  0
   -8.4370   20.5630  -32.0890 C   0  0  0  0  0  0  0  0  0  0  0  0
   -9.6740   21.1760  -32.1930 F   0  0  0  0  0  0  0  0  0  0  0  0
   -8.5310   19.5060  -31.2040 F   0  0  0  0  0  0  0  0  0  0  0  0
   -8.0890   20.0770  -33.3370 F   0  0  0  0  0  0  0  0  0  0  0  0
   -7.6760   22.3710  -30.4910 C   0  0  0  0  0  0  0  0  0  0  0  0
   -6.7310   23.3050  -30.0560 C   0  0  0  0  0  0  0  0  0  0  0  0
   -2.1440   26.1100  -25.1300 C   0  0  0  0  0  0  0  0  0  0  0  0
   -0.8730   26.6580  -24.9330 C   0  0  0  0  0  0  0  0  0  0  0  0
    1.6045   27.4142  -24.7111 H   0  0  0  0  0  0  0  0  0  0  0  0
    2.1711   26.6868  -26.2527 H   0  0  0  0  0  0  0  0  0  0  0  0
    1.4165   28.3169  -26.2527 H   0  0  0  0  0  0  0  0  0  0  0  0
    0.3903   26.2511  -28.0879 H   0  0  0  0  0  0  0  0  0  0  0  0
   -1.8758   25.2683  -28.4338 H   0  0  0  0  0  0  0  0  0  0  0  0
   -3.1655   19.7952  -26.3095 H   0  0  0  0  0  0  0  0  0  0  0  0
   -1.9774   17.6239  -25.9573 H   0  0  0  0  0  0  0  0  0  0  0  0
    0.0159   17.0683  -27.3586 H   0  0  0  0  0  0  0  0  0  0  0  0
   -0.3411   20.7672  -29.4479 H   0  0  0  0  0  0  0  0  0  0  0  0
   -2.8017   21.8484  -30.3276 H   0  0  0  0  0  0  0  0  0  0  0  0
   -4.2791   22.7285  -32.3663 H   0  0  0  0  0  0  0  0  0  0  0  0
   -5.9649   21.0683  -33.1536 H   0  0  0  0  0  0  0  0  0  0  0  0
   -8.6417   22.2880  -29.9709 H   0  0  0  0  0  0  0  0  0  0  0  0
   -6.9508   23.9452  -29.1889 H   0  0  0  0  0  0  0  0  0  0  0  0
   -2.8593   26.0686  -24.2954 H   0  0  0  0  0  0  0  0  0  0  0  0
   -0.5969   27.0610  -23.9474 H   0  0  0  0  0  0  0  0  0  0  0  0
  1  2  1  0
  2  3  2  0
  3  4  1  0
  4  5  2  0
  5  6  1  0
  6  7  1  0
  7  8  1  0
  8  9  1  0
  9 10  1  0
 10 11  2  0
 11 12  1  0
 12 13  2  0
 13 14  1  0
 14 15  2  0
  9 16  2  0
 16 17  1  0
 17 18  1  0
 18 19  1  0
 19 20  2  0
 20 21  1  0
 21 22  2  0
 22 23  1  0
 23 24  1  0
 23 25  1  0
 23 26  1  0
 22 27  1  0
 27 28  2  0
  5 29  1  0
 29 30  2  0
 30  2  1  0
 17  7  2  0
 28 19  1  0
 15 10  1  0
  1 31  1  0
  1 32  1  0
  1 33  1  0
  3 34  1  0
  4 35  1  0
 11 36  1  0
 12 37  1  0
 13 38  1  0
 15 39  1  0
 16 40  1  0
 20 41  1  0
 21 42  1  0
 27 43  1  0
 28 44  1  0
 29 45  1  0
 30 46  1  0
M  END
>  <UniqueID>  (29) 
28

>  <SMILES>  (29) 
Cc1ccc(Sc2oc(-c3cccnc3)cc2Sc2ccc(C(F)(F)F)cc2)cc1

>  <Energy>  (29) 
69.46170531109487

>  <Genealogy>  (29) 
Cc1ccc(Sc2oc(-c3cccnc3)cc2Sc2ccc(C(F)(F)F)cc2)cc1 (3D coordinates assigned)
Cc1ccc(Sc2oc(-c3cccnc3)cc2Sc2ccc(C(F)(F)F)cc2)cc1 (optimized conformer: 69.46170531109487 kcal/mol)

>  <smiles>  (29) 
Cc1ccc(Sc2oc(-c3cccnc3)cc2Sc2ccc(C(F)(F)F)cc2)cc1

>  <score_type>  (29) 
oracle

>  <origin>  (29) 
adgpu

>  <m_score__min__energy>  (29) 
-8.2699999999999996

>  <m_primary>  (29) 
energy

$$$$
29:0
     RDKit          3D

 37 39  0  0  0  0  0  0  0  0999 V2000
   -9.2420   23.2930  -31.4040 H   0  0  0  0  0  0  0  0  0  0  0  0
   -8.2280   23.0520  -31.3300 N   0  0  0  0  0  0  0  0  0  0  0  0
   -7.7480   21.9320  -31.7760 C   0  0  0  0  0  0  0  0  0  0  0  0
   -6.3720   21.6430  -31.6430 C   0  0  0  0  0  0  0  0  0  0  0  0
   -5.4180   22.6090  -31.0410 C   0  0  0  0  0  0  0  0  0  0  0  0
   -4.2700   22.1470  -30.3750 C   0  0  0  0  0  0  0  0  0  0  0  0
   -4.0833   21.0661  -30.2920 H   0  0  0  0  0  0  0  0  0  0  0  0
   -3.3650   23.0530  -29.8180 C   0  0  0  0  0  0  0  0  0  0  0  0
   -2.4726   22.6791  -29.2946 H   0  0  0  0  0  0  0  0  0  0  0  0
   -3.5820   24.4320  -29.9190 C   0  0  0  0  0  0  0  0  0  0  0  0
   -2.6420   25.3000  -29.3420 O   0  0  0  0  0  0  0  0  0  0  0  0
   -1.8690   24.9910  -28.1860 C   0  0  0  0  0  0  0  0  0  0  0  0
   -2.4515   25.2238  -27.2824 H   0  0  0  0  0  0  0  0  0  0  0  0
   -1.6127   23.9213  -28.1915 H   0  0  0  0  0  0  0  0  0  0  0  0
   -0.9459   25.5893  -28.1915 H   0  0  0  0  0  0  0  0  0  0  0  0
   -4.7260   24.8980  -30.5930 C   0  0  0  0  0  0  0  0  0  0  0  0
   -4.9068   25.9794  -30.6813 H   0  0  0  0  0  0  0  0  0  0  0  0
   -5.6340   23.9930  -31.1510 C   0  0  0  0  0  0  0  0  0  0  0  0
   -6.5233   24.3669  -31.6796 H   0  0  0  0  0  0  0  0  0  0  0  0
   -5.9010   20.4020  -32.0940 C   0  0  0  0  0  0  0  0  0  0  0  0
   -4.8345   20.1543  -31.9881 H   0  0  0  0  0  0  0  0  0  0  0  0
   -6.7740   19.4720  -32.6790 C   0  0  0  0  0  0  0  0  0  0  0  0
   -6.2740   18.1590  -33.1600 C   0  0  0  0  0  0  0  0  0  0  0  0
   -4.8990   17.9540  -33.3830 C   0  0  0  0  0  0  0  0  0  0  0  0
   -4.1880   18.7732  -33.2002 H   0  0  0  0  0  0  0  0  0  0  0  0
   -4.4310   16.7170  -33.8350 C   0  0  0  0  0  0  0  0  0  0  0  0
   -3.3549   16.5666  -34.0063 H   0  0  0  0  0  0  0  0  0  0  0  0
   -5.3280   15.6700  -34.0700 C   0  0  0  0  0  0  0  0  0  0  0  0
   -4.7370   14.1190  -34.6380 Cl  0  0  0  0  0  0  0  0  0  0  0  0
   -6.6950   15.8620  -33.8540 C   0  0  0  0  0  0  0  0  0  0  0  0
   -7.4011   15.0395  -34.0409 H   0  0  0  0  0  0  0  0  0  0  0  0
   -7.1670   17.0970  -33.4010 C   0  0  0  0  0  0  0  0  0  0  0  0
   -8.2443   17.2407  -33.2314 H   0  0  0  0  0  0  0  0  0  0  0  0
   -8.1280   19.8140  -32.8000 C   0  0  0  0  0  0  0  0  0  0  0  0
   -8.8307   19.1044  -33.2611 H   0  0  0  0  0  0  0  0  0  0  0  0
   -8.5800   21.0160  -32.3520 N   0  0  0  0  0  0  0  0  0  0  0  0
   -9.6000   21.2250  -32.4500 H   0  0  0  0  0  0  0  0  0  0  0  0
  1  2  1  0
  2  3  2  0
  3  4  1  0
  4  5  1  0
  5  6  2  0
  6  7  1  0
  6  8  1  0
  8  9  1  0
  8 10  2  0
 10 11  1  0
 11 12  1  0
 12 13  1  0
 12 14  1  0
 12 15  1  0
 10 16  1  0
 16 17  1  0
 16 18  2  0
 18 19  1  0
  4 20  2  0
 20 21  1  0
 20 22  1  0
 22 23  1  0
 23 24  2  0
 24 25  1  0
 24 26  1  0
 26 27  1  0
 26 28  2  0
 28 29  1  0
 28 30  1  0
 30 31  1  0
 30 32  2  0
 32 33  1  0
 22 34  2  0
 34 35  1  0
 34 36  1  0
 36 37  1  0
 36  3  1  0
 18  5  1  0
 32 23  1  0
M  END
>  <UniqueID>  (30) 
29

>  <SMILES>  (30) 
[H]/N=c1\[nH]cc(-c2ccc(Cl)cc2)cc1-c1ccc(OC)cc1

>  <Energy>  (30) 
51.9514422060491

>  <Genealogy>  (30) 
[H]/N=c1\[nH]cc(-c2ccc(Cl)cc2)cc1-c1ccc(OC)cc1 (cis-trans isomerization)
[H]/N=c1\[nH]cc(-c2ccc(Cl)cc2)cc1-c1ccc(OC)cc1 (3D coordinates assigned)
[H]/N=c1\[nH]cc(-c2ccc(Cl)cc2)cc1-c1ccc(OC)cc1 (optimized conformer: 51.9514422060491 kcal/mol)

>  <smiles>  (30) 
COc1ccc(-c2cc(-c3ccc(Cl)cc3)c[nH]c2=N)cc1

>  <score_type>  (30) 
oracle

>  <origin>  (30) 
adgpu

>  <m_score__min__energy>  (30) 
-7.9299999999999997

>  <m_primary>  (30) 
energy

$$$$
30:0
     RDKit          3D

 27 28  0  0  0  0  0  0  0  0999 V2000
   -3.6900   22.8770  -31.9610 N   0  0  0  0  0  0  0  0  0  0  0  0
   -5.1050   22.9340  -31.7260 C   0  0  0  0  0  0  0  0  0  0  0  0
   -5.8970   21.8500  -32.1340 C   0  0  0  0  0  0  0  0  0  0  0  0
   -7.2650   21.8200  -31.8490 C   0  0  0  0  0  0  0  0  0  0  0  0
   -8.2380   20.4500  -32.3560 Cl  0  0  0  0  0  0  0  0  0  0  0  0
   -7.8530   22.8730  -31.1500 C   0  0  0  0  0  0  0  0  0  0  0  0
   -7.0830   23.9670  -30.7510 C   0  0  0  0  0  0  0  0  0  0  0  0
   -5.7080   24.0230  -31.0450 C   0  0  0  0  0  0  0  0  0  0  0  0
   -4.9600   25.2440  -30.6680 C   0  0  0  0  0  0  0  0  0  0  0  0
   -5.5650   26.3410  -30.5280 O   0  0  0  0  0  0  0  0  0  0  0  0
   -3.5420   25.1680  -30.4630 N   0  0  0  0  0  0  0  0  0  0  0  0
   -2.8690   24.5390  -29.3630 C   0  0  0  0  0  0  0  0  0  0  0  0
   -1.5810   24.9300  -28.9520 C   0  0  0  0  0  0  0  0  0  0  0  0
   -0.9710   24.3050  -27.8600 C   0  0  0  0  0  0  0  0  0  0  0  0
   -1.6440   23.2980  -27.1620 C   0  0  0  0  0  0  0  0  0  0  0  0
   -2.9330   22.9220  -27.5500 C   0  0  0  0  0  0  0  0  0  0  0  0
   -3.5450   23.5450  -28.6410 C   0  0  0  0  0  0  0  0  0  0  0  0
   -3.2170   22.0030  -32.2790 H   0  0  0  0  0  0  0  0  0  0  0  0
   -3.1170   23.7490  -31.9490 H   0  0  0  0  0  0  0  0  0  0  0  0
   -5.4368   21.0156  -32.6835 H   0  0  0  0  0  0  0  0  0  0  0  0
   -8.9265   22.8418  -30.9122 H   0  0  0  0  0  0  0  0  0  0  0  0
   -7.5561   24.7939  -30.2010 H   0  0  0  0  0  0  0  0  0  0  0  0
   -1.0525   25.7298  -29.4915 H   0  0  0  0  0  0  0  0  0  0  0  0
    0.0404   24.6063  -27.5496 H   0  0  0  0  0  0  0  0  0  0  0  0
   -1.1595   22.8019  -26.3081 H   0  0  0  0  0  0  0  0  0  0  0  0
   -3.4661   22.1352  -26.9962 H   0  0  0  0  0  0  0  0  0  0  0  0
   -4.5640   23.2536  -28.9354 H   0  0  0  0  0  0  0  0  0  0  0  0
  1  2  1  0
  2  3  2  0
  3  4  1  0
  4  5  1  0
  4  6  2  0
  6  7  1  0
  7  8  2  0
  8  9  1  0
  9 10  2  0
  9 11  1  0
 11 12  1  0
 12 13  2  0
 13 14  1  0
 14 15  2  0
 15 16  1  0
 16 17  2  0
  8  2  1  0
 17 12  1  0
  1 18  1  0
  1 19  1  0
  3 20  1  0
  6 21  1  0
  7 22  1  0
 13 23  1  0
 14 24  1  0
 15 25  1  0
 16 26  1  0
 17 27  1  0
M  CHG  1  11  -1
M  END
>  <UniqueID>  (31) 
30

>  <SMILES>  (31) 
Nc1cc(Cl)ccc1C(=O)[N-]c1ccccc1

>  <Energy>  (31) 
36.51771908635653

>  <Genealogy>  (31) 
Nc1cc(Cl)ccc1C(=O)[N-]c1ccccc1 (protonated)
Nc1cc(Cl)ccc1C(=O)[N-]c1ccccc1 (3D coordinates assigned)
Nc1cc(Cl)ccc1C(=O)[N-]c1ccccc1 (optimized conformer: 36.51771908635653 kcal/mol)

>  <smiles>  (31) 
Nc1cc(Cl)ccc1C(=O)Nc1ccccc1

>  <score_type>  (31) 
oracle

>  <origin>  (31) 
adgpu

>  <m_score__min__energy>  (31) 
-8.0700000000000003

>  <m_primary>  (31) 
energy

$$$$
31:0
     RDKit          3D

 48 51  0  0  0  0  0  0  0  0999 V2000
   -5.3750   18.0060  -35.4860 C   0  0  0  0  0  0  0  0  0  0  0  0
   -5.0020   16.9130  -34.5390 C   0  0  0  0  0  0  0  0  0  0  0  0
   -4.1630   15.9060  -34.8520 N   0  0  0  0  0  0  0  0  0  0  0  0
   -4.0890   15.1310  -33.8080 O   0  0  0  0  0  0  0  0  0  0  0  0
   -4.8370   15.5810  -32.8270 C   0  0  0  0  0  0  0  0  0  0  0  0
   -4.9860   14.9030  -31.5040 C   0  0  0  0  0  0  0  0  0  0  0  0
   -5.4650   16.7340  -33.2500 C   0  0  0  0  0  0  0  0  0  0  0  0
   -6.5980   17.7340  -32.3440 S   0  0  0  0  0  0  0  0  0  0  0  0
   -7.9650   17.1150  -32.4330 O   0  0  0  0  0  0  0  0  0  0  0  0
   -6.1990   17.8260  -30.8980 O   0  0  0  0  0  0  0  0  0  0  0  0
   -6.6480   19.3320  -33.0180 N   0  0  0  0  0  0  0  0  0  0  0  0
   -5.6420   20.3330  -32.7850 C   0  0  0  0  0  0  0  0  0  0  0  0
   -4.3270   20.1960  -33.2710 C   0  0  0  0  0  0  0  0  0  0  0  0
   -3.3760   21.1910  -33.0260 C   0  0  0  0  0  0  0  0  0  0  0  0
   -3.7220   22.3270  -32.2930 C   0  0  0  0  0  0  0  0  0  0  0  0
   -5.0220   22.4720  -31.8010 C   0  0  0  0  0  0  0  0  0  0  0  0
   -5.4640   23.9230  -30.8450 S   0  0  0  0  0  0  0  0  0  0  0  0
   -3.9690   23.8260  -29.8680 C   0  0  0  0  0  0  0  0  0  0  0  0
   -3.6130   22.6490  -29.2920 N   0  0  0  0  0  0  0  0  0  0  0  0
   -2.4720   22.5290  -28.5610 C   0  0  0  0  0  0  0  0  0  0  0  0
   -2.1200   21.2110  -27.9740 C   0  0  0  0  0  0  0  0  0  0  0  0
   -3.1080   20.4550  -27.3130 C   0  0  0  0  0  0  0  0  0  0  0  0
   -2.7930   19.2150  -26.7510 C   0  0  0  0  0  0  0  0  0  0  0  0
   -1.4910   18.7170  -26.8330 C   0  0  0  0  0  0  0  0  0  0  0  0
   -0.4990   19.4630  -27.4750 C   0  0  0  0  0  0  0  0  0  0  0  0
   -0.8080   20.7030  -28.0410 C   0  0  0  0  0  0  0  0  0  0  0  0
   -1.6440   23.6540  -28.4080 C   0  0  0  0  0  0  0  0  0  0  0  0
   -2.0290   24.8560  -29.0060 C   0  0  0  0  0  0  0  0  0  0  0  0
   -1.3070   25.8810  -28.8880 O   0  0  0  0  0  0  0  0  0  0  0  0
   -3.1800   24.9210  -29.7220 N   0  0  0  0  0  0  0  0  0  0  0  0
   -5.9780   21.4810  -32.0480 C   0  0  0  0  0  0  0  0  0  0  0  0
   -5.6790   18.8967  -34.9165 H   0  0  0  0  0  0  0  0  0  0  0  0
   -4.5104   18.2532  -36.1195 H   0  0  0  0  0  0  0  0  0  0  0  0
   -6.2104   17.6731  -36.1195 H   0  0  0  0  0  0  0  0  0  0  0  0
   -4.8254   15.6336  -30.6975 H   0  0  0  0  0  0  0  0  0  0  0  0
   -5.9983   14.4809  -31.4202 H   0  0  0  0  0  0  0  0  0  0  0  0
   -4.2439   14.0954  -31.4202 H   0  0  0  0  0  0  0  0  0  0  0  0
   -7.4190   19.5360  -33.6930 H   0  0  0  0  0  0  0  0  0  0  0  0
   -4.0469   19.3013  -33.8464 H   0  0  0  0  0  0  0  0  0  0  0  0
   -2.3522   21.0782  -33.4121 H   0  0  0  0  0  0  0  0  0  0  0  0
   -2.9715   23.1083  -32.1025 H   0  0  0  0  0  0  0  0  0  0  0  0
   -4.1344   20.8435  -27.2388 H   0  0  0  0  0  0  0  0  0  0  0  0
   -3.5730   18.6294  -26.2425 H   0  0  0  0  0  0  0  0  0  0  0  0
   -1.2466   17.7390  -26.3929 H   0  0  0  0  0  0  0  0  0  0  0  0
    0.5279   19.0732  -27.5351 H   0  0  0  0  0  0  0  0  0  0  0  0
   -0.0213   21.2861  -28.5421 H   0  0  0  0  0  0  0  0  0  0  0  0
   -0.7111   23.5892  -27.8287 H   0  0  0  0  0  0  0  0  0  0  0  0
   -7.0010   21.6015  -31.6621 H   0  0  0  0  0  0  0  0  0  0  0  0
  1  2  1  0
  2  3  2  0
  3  4  1  0
  4  5  1  0
  5  6  1  0
  5  7  2  0
  7  8  1  0
  8  9  2  0
  8 10  2  0
  8 11  1  0
 11 12  1  0
 12 13  2  0
 13 14  1  0
 14 15  2  0
 15 16  1  0
 16 17  1  0
 17 18  1  0
 18 19  2  0
 19 20  1  0
 20 21  1  0
 21 22  2  0
 22 23  1  0
 23 24  2  0
 24 25  1  0
 25 26  2  0
 20 27  2  0
 27 28  1  0
 28 29  2  0
 28 30  1  0
 16 31  2  0
  7  2  1  0
 31 12  1  0
 30 18  1  0
 26 21  1  0
  1 32  1  0
  1 33  1  0
  1 34  1  0
  6 35  1  0
  6 36  1  0
  6 37  1  0
 11 38  1  0
 13 39  1  0
 14 40  1  0
 15 41  1  0
 22 42  1  0
 23 43  1  0
 24 44  1  0
 25 45  1  0
 26 46  1  0
 27 47  1  0
 31 48  1  0
M  CHG  1  30  -1
M  END
>  <UniqueID>  (32) 
31

>  <SMILES>  (32) 
Cc1noc(C)c1S(=O)(=O)Nc1cccc(Sc2nc(-c3ccccc3)cc(=O)[n-]2)c1

>  <Energy>  (32) 
83.60562808217446

>  <Genealogy>  (32) 
Cc1noc(C)c1S(=O)(=O)Nc1cccc(Sc2nc(-c3ccccc3)cc(=O)[n-]2)c1 (protonated)
Cc1noc(C)c1S(=O)(=O)Nc1cccc(Sc2nc(-c3ccccc3)cc(=O)[n-]2)c1 (3D coordinates assigned)
Cc1noc(C)c1S(=O)(=O)Nc1cccc(Sc2nc(-c3ccccc3)cc(=O)[n-]2)c1 (optimized conformer: 83.60562808217446 kcal/mol)

>  <smiles>  (32) 
Cc1noc(C)c1S(=O)(=O)Nc1cccc(Sc2nc(-c3ccccc3)cc(=O)[nH]2)c1

>  <score_type>  (32) 
oracle

>  <origin>  (32) 
adgpu

>  <m_score__min__energy>  (32) 
-10.93

>  <m_primary>  (32) 
energy

$$$$
32:0
     RDKit          3D

 34 35  0  0  1  0  0  0  0  0999 V2000
   -8.8660   20.4070  -32.0330 C   0  0  0  0  0  0  0  0  0  0  0  0
   -8.6930   21.8010  -32.1770 O   0  0  0  0  0  0  0  0  0  0  0  0
   -7.5060   22.4370  -31.8370 C   0  0  0  0  0  0  0  0  0  0  0  0
   -6.2750   22.0580  -32.3300 C   0  0  0  0  0  0  0  0  0  0  0  0
   -5.1180   22.7170  -31.9650 C   0  0  0  0  0  0  0  0  0  0  0  0
   -5.1800   23.7890  -31.0820 C   0  0  0  0  0  0  0  0  0  0  0  0
   -4.0210   24.5060  -30.6700 N   0  0  0  0  0  0  0  0  0  0  0  0
   -3.2050   24.0410  -29.8170 C   0  0  0  0  0  0  0  0  0  0  0  0
   -3.3920   22.7980  -29.2320 C   0  0  0  0  0  0  0  0  0  0  0  0
   -2.4790   22.3300  -28.3080 C   0  0  0  0  0  0  0  0  0  0  0  0
   -2.6800   20.9880  -27.6750 C   0  0  0  0  0  0  0  0  0  0  0  0
   -1.4130   23.0760  -27.9780 N   0  0  0  0  0  0  0  0  0  0  0  0
   -1.2230   24.2800  -28.5400 C   0  0  0  0  0  0  0  0  0  0  0  0
   -0.1940   25.0180  -28.2310 N   0  0  0  0  0  0  0  0  0  0  0  0
   -2.1240   24.7290  -29.4430 N   0  0  0  0  0  0  0  0  0  0  0  0
   -6.4160   24.1600  -30.5930 C   0  0  0  0  0  0  0  0  0  0  0  0
   -6.4940   25.2940  -29.6570 C   0  0  0  0  0  0  0  0  0  0  0  0
   -7.5780   23.5040  -30.9550 C   0  0  0  0  0  0  0  0  0  0  0  0
   -8.8979   20.1500  -30.9639 H   0  0  0  0  0  0  0  0  0  0  0  0
   -9.8087   20.1032  -32.5115 H   0  0  0  0  0  0  0  0  0  0  0  0
   -8.0261   19.8819  -32.5115 H   0  0  0  0  0  0  0  0  0  0  0  0
   -6.2136   21.2116  -33.0298 H   0  0  0  0  0  0  0  0  0  0  0  0
   -4.1485   22.3943  -32.3723 H   0  0  0  0  0  0  0  0  0  0  0  0
   -4.2652   22.1865  -29.5032 H   0  0  0  0  0  0  0  0  0  0  0  0
   -2.6643   21.0930  -26.5801 H   0  0  0  0  0  0  0  0  0  0  0  0
   -3.6499   20.5756  -27.9899 H   0  0  0  0  0  0  0  0  0  0  0  0
   -1.8735   20.3095  -27.9899 H   0  0  0  0  0  0  0  0  0  0  0  0
   -0.6940   22.7690  -27.2860 H   0  0  0  0  0  0  0  0  0  0  0  0
   -0.0310   25.9580  -28.6580 H   0  0  0  0  0  0  0  0  0  0  0  0
   -1.9830   25.6700  -29.8870 H   0  0  0  0  0  0  0  0  0  0  0  0
   -6.4682   24.9187  -28.6233 H   0  0  0  0  0  0  0  0  0  0  0  0
   -5.6400   25.9669  -29.8242 H   0  0  0  0  0  0  0  0  0  0  0  0
   -7.4321   25.8436  -29.8242 H   0  0  0  0  0  0  0  0  0  0  0  0
   -8.5482   23.8250  -30.5479 H   0  0  0  0  0  0  0  0  0  0  0  0
  1  2  1  0
  2  3  1  0
  3  4  2  0
  4  5  1  0
  5  6  2  0
  6  7  1  0
  7  8  2  0
  8  9  1  0
  9 10  2  0
 10 11  1  0
 10 12  1  0
 12 13  1  0
 13 14  2  3
 13 15  1  0
  6 16  1  0
 16 17  1  0
 16 18  2  0
 18  3  1  0
 15  8  1  0
  1 19  1  0
  1 20  1  0
  1 21  1  0
  4 22  1  0
  5 23  1  0
  9 24  1  0
 11 25  1  0
 11 26  1  0
 11 27  1  0
 12 28  1  0
 14 29  1  0
 15 30  1  0
 17 31  1  0
 17 32  1  0
 17 33  1  0
 18 34  1  0
M  END
>  <smiles>  (33) 
COc1ccc(N=c2cc(C)[nH]c(=N)[nH]2)c(C)c1

>  <score_type>  (33) 
oracle

>  <origin>  (33) 
adgpu

>  <m_score__min__energy>  (33) 
-7.4100000000000001

>  <m_primary>  (33) 
energy

$$$$
33:0
     RDKit          3D

 46 48  0  0  0  0  0  0  0  0999 V2000
   -4.6460   25.7710  -30.6480 O   0  0  0  0  0  0  0  0  0  0  0  0
   -4.6110   24.5350  -30.8260 N   0  0  0  0  0  0  0  0  0  0  0  0
   -3.3870   23.9120  -30.9110 O   0  0  0  0  0  0  0  0  0  0  0  0
   -5.8270   23.7740  -30.9360 C   0  0  0  0  0  0  0  0  0  0  0  0
   -6.5860   23.8140  -32.1190 C   0  0  0  0  0  0  0  0  0  0  0  0
   -7.7670   23.0740  -32.2300 C   0  0  0  0  0  0  0  0  0  0  0  0
   -8.2130   22.2860  -31.1590 C   0  0  0  0  0  0  0  0  0  0  0  0
   -9.5130   21.5270  -31.2710 C   0  0  0  0  0  0  0  0  0  0  0  0
   -9.3540   20.3740  -32.1590 N   0  0  0  0  0  0  0  0  0  0  0  0
   -8.0800   19.7740  -32.4580 C   0  0  0  0  0  0  0  0  0  0  0  0
   -7.6350   18.6210  -31.7860 C   0  0  0  0  0  0  0  0  0  0  0  0
   -6.4280   18.0170  -32.1460 C   0  0  0  0  0  0  0  0  0  0  0  0
   -5.6510   18.5540  -33.1800 C   0  0  0  0  0  0  0  0  0  0  0  0
   -4.1910   17.7390  -33.7270 S   0  0  0  0  0  0  0  0  0  0  0  0
   -3.8340   16.6640  -32.7400 O   0  0  0  0  0  0  0  0  0  0  0  0
   -4.3950   17.1080  -35.0770 O   0  0  0  0  0  0  0  0  0  0  0  0
   -2.8950   18.8860  -33.8210 N   0  0  0  0  0  0  0  0  0  0  0  0
   -2.4680   19.7360  -32.7470 C   0  0  0  0  0  0  0  0  0  0  0  0
   -1.1400   20.1820  -32.6270 C   0  0  0  0  0  0  0  0  0  0  0  0
   -0.7680   21.0170  -31.5680 C   0  0  0  0  0  0  0  0  0  0  0  0
   -1.7170   21.4210  -30.6130 C   0  0  0  0  0  0  0  0  0  0  0  0
   -1.3380   22.2950  -29.4440 C   0  0  0  0  0  0  0  0  0  0  0  0
   -0.3470   21.7140  -28.6710 F   0  0  0  0  0  0  0  0  0  0  0  0
   -2.4500   22.5070  -28.6510 F   0  0  0  0  0  0  0  0  0  0  0  0
   -0.8740   23.5140  -29.9050 F   0  0  0  0  0  0  0  0  0  0  0  0
   -3.0390   20.9600  -30.7270 C   0  0  0  0  0  0  0  0  0  0  0  0
   -3.4090   20.1260  -31.7870 C   0  0  0  0  0  0  0  0  0  0  0  0
   -6.0720   19.7220  -33.8260 C   0  0  0  0  0  0  0  0  0  0  0  0
   -7.2750   20.3330  -33.4620 C   0  0  0  0  0  0  0  0  0  0  0  0
   -7.4570   22.2380  -29.9790 C   0  0  0  0  0  0  0  0  0  0  0  0
   -6.2750   22.9770  -29.8670 C   0  0  0  0  0  0  0  0  0  0  0  0
   -6.2480   24.4323  -32.9637 H   0  0  0  0  0  0  0  0  0  0  0  0
   -8.3495   23.1100  -33.1624 H   0  0  0  0  0  0  0  0  0  0  0  0
   -9.8160   21.1772  -30.2731 H   0  0  0  0  0  0  0  0  0  0  0  0
  -10.2822   22.1947  -31.6863 H   0  0  0  0  0  0  0  0  0  0  0  0
  -10.2230   19.8720  -32.4530 H   0  0  0  0  0  0  0  0  0  0  0  0
   -8.2403   18.1931  -30.9733 H   0  0  0  0  0  0  0  0  0  0  0  0
   -6.0865   17.1161  -31.6153 H   0  0  0  0  0  0  0  0  0  0  0  0
   -0.3897   19.8728  -33.3696 H   0  0  0  0  0  0  0  0  0  0  0  0
    0.2738   21.3596  -31.4821 H   0  0  0  0  0  0  0  0  0  0  0  0
   -3.7879   21.2568  -29.9779 H   0  0  0  0  0  0  0  0  0  0  0  0
   -4.4480   19.7737  -31.8669 H   0  0  0  0  0  0  0  0  0  0  0  0
   -5.4538   20.1606  -34.6231 H   0  0  0  0  0  0  0  0  0  0  0  0
   -7.5927   21.2578  -33.9657 H   0  0  0  0  0  0  0  0  0  0  0  0
   -7.7953   21.6160  -29.1372 H   0  0  0  0  0  0  0  0  0  0  0  0
   -5.6911   22.9347  -28.9357 H   0  0  0  0  0  0  0  0  0  0  0  0
  1  2  2  0
  2  3  1  0
  2  4  1  0
  4  5  2  0
  5  6  1  0
  6  7  2  0
  7  8  1  0
  8  9  1  0
  9 10  1  0
 10 11  2  0
 11 12  1  0
 12 13  2  0
 13 14  1  0
 14 15  2  0
 14 16  2  0
 14 17  1  0
 17 18  1  0
 18 19  2  0
 19 20  1  0
 20 21  2  0
 21 22  1  0
 22 23  1  0
 22 24  1  0
 22 25  1  0
 21 26  1  0
 26 27  2  0
 13 28  1  0
 28 29  2  0
  7 30  1  0
 30 31  2  0
 31  4  1  0
 29 10  1  0
 27 18  1  0
  5 32  1  0
  6 33  1  0
  8 34  1  0
  8 35  1  0
  9 36  1  0
 11 37  1  0
 12 38  1  0
 19 39  1  0
 20 40  1  0
 26 41  1  0
 27 42  1  0
 28 43  1  0
 29 44  1  0
 30 45  1  0
 31 46  1  0
M  CHG  3   2   1   3  -1  17  -1
M  END
>  <UniqueID>  (34) 
32

>  <SMILES>  (34) 
O=[N+]([O-])c1ccc(CNc2ccc(S(=O)(=O)[N-]c3ccc(C(F)(F)F)cc3)cc2)cc1

>  <Energy>  (34) 
51.48223757653995

>  <Genealogy>  (34) 
O=[N+]([O-])c1ccc(CNc2ccc(S(=O)(=O)[N-]c3ccc(C(F)(F)F)cc3)cc2)cc1 (protonated)
O=[N+]([O-])c1ccc(CNc2ccc(S(=O)(=O)[N-]c3ccc(C(F)(F)F)cc3)cc2)cc1 (3D coordinates assigned)
O=[N+]([O-])c1ccc(CNc2ccc(S(=O)(=O)[N-]c3ccc(C(F)(F)F)cc3)cc2)cc1 (optimized conformer: 51.48223757653995 kcal/mol)

>  <smiles>  (34) 
O=[N+]([O-])c1ccc(CNc2ccc(S(=O)(=O)Nc3ccc(C(F)(F)F)cc3)cc2)cc1

>  <score_type>  (34) 
oracle

>  <origin>  (34) 
adgpu

>  <m_score__min__energy>  (34) 
-10.140000000000001

>  <m_primary>  (34) 
energy

$$$$
34:0
     RDKit          3D

 43 44  0  0  0  0  0  0  0  0999 V2000
   -4.5050   14.3190  -31.9790 C   0  0  0  0  0  0  0  0  0  0  0  0
   -3.9660   14.1210  -33.3920 C   0  0  0  0  0  0  0  0  0  0  0  0
   -3.9350   15.3600  -34.1000 O   0  0  0  0  0  0  0  0  0  0  0  0
   -4.6500   16.5180  -33.7500 C   0  0  0  0  0  0  0  0  0  0  0  0
   -6.0470   16.4830  -33.8380 C   0  0  0  0  0  0  0  0  0  0  0  0
   -6.8100   17.5990  -33.4840 C   0  0  0  0  0  0  0  0  0  0  0  0
   -6.1820   18.7680  -33.0400 C   0  0  0  0  0  0  0  0  0  0  0  0
   -7.1410   20.1610  -32.5440 S   0  0  0  0  0  0  0  0  0  0  0  0
   -7.4120   20.1150  -31.0660 O   0  0  0  0  0  0  0  0  0  0  0  0
   -8.4470   20.1310  -33.2860 O   0  0  0  0  0  0  0  0  0  0  0  0
   -6.3060   21.6370  -32.9170 N   0  0  0  0  0  0  0  0  0  0  0  0
   -6.1810   22.7350  -31.9900 C   0  0  0  0  0  0  0  0  0  0  0  0
   -4.9140   23.2710  -31.6860 C   0  0  0  0  0  0  0  0  0  0  0  0
   -4.7820   24.3540  -30.8030 C   0  0  0  0  0  0  0  0  0  0  0  0
   -3.5030   24.9230  -30.4860 N   0  0  0  0  0  0  0  0  0  0  0  0
   -2.7390   24.6720  -29.3000 C   0  0  0  0  0  0  0  0  0  0  0  0
   -3.1250   23.5440  -28.4040 C   0  0  0  0  0  0  0  0  0  0  0  0
   -1.8090   25.4490  -28.9560 O   0  0  0  0  0  0  0  0  0  0  0  0
   -5.9170   24.8620  -30.1690 C   0  0  0  0  0  0  0  0  0  0  0  0
   -7.1780   24.3360  -30.4480 C   0  0  0  0  0  0  0  0  0  0  0  0
   -7.3270   23.2840  -31.3650 C   0  0  0  0  0  0  0  0  0  0  0  0
   -8.7070   22.7590  -31.6600 C   0  0  0  0  0  0  0  0  0  0  0  0
   -4.7850   18.8210  -32.9760 C   0  0  0  0  0  0  0  0  0  0  0  0
   -4.0200   17.7050  -33.3240 C   0  0  0  0  0  0  0  0  0  0  0  0
   -3.7327   14.0353  -31.2489 H   0  0  0  0  0  0  0  0  0  0  0  0
   -4.7758   15.3753  -31.8345 H   0  0  0  0  0  0  0  0  0  0  0  0
   -5.3952   13.6892  -31.8345 H   0  0  0  0  0  0  0  0  0  0  0  0
   -2.9463   13.7123  -33.3352 H   0  0  0  0  0  0  0  0  0  0  0  0
   -4.6278   13.4247  -33.9279 H   0  0  0  0  0  0  0  0  0  0  0  0
   -6.5484   15.5689  -34.1889 H   0  0  0  0  0  0  0  0  0  0  0  0
   -7.9070   17.5584  -33.5546 H   0  0  0  0  0  0  0  0  0  0  0  0
   -5.8120   21.6690  -33.8350 H   0  0  0  0  0  0  0  0  0  0  0  0
   -4.0157   22.8346  -32.1471 H   0  0  0  0  0  0  0  0  0  0  0  0
   -3.0182   23.8562  -27.3547 H   0  0  0  0  0  0  0  0  0  0  0  0
   -4.1705   23.2627  -28.5982 H   0  0  0  0  0  0  0  0  0  0  0  0
   -2.4710   22.6811  -28.5982 H   0  0  0  0  0  0  0  0  0  0  0  0
   -5.8161   25.6832  -29.4441 H   0  0  0  0  0  0  0  0  0  0  0  0
   -8.0643   24.7495  -29.9446 H   0  0  0  0  0  0  0  0  0  0  0  0
   -9.2330   22.5589  -30.7148 H   0  0  0  0  0  0  0  0  0  0  0  0
   -9.2675   23.5067  -32.2403 H   0  0  0  0  0  0  0  0  0  0  0  0
   -8.6288   21.8278  -32.2403 H   0  0  0  0  0  0  0  0  0  0  0  0
   -4.2868   19.7460  -32.6501 H   0  0  0  0  0  0  0  0  0  0  0  0
   -2.9226   17.7527  -33.2654 H   0  0  0  0  0  0  0  0  0  0  0  0
  1  2  1  0
  2  3  1  0
  3  4  1  0
  4  5  2  0
  5  6  1  0
  6  7  2  0
  7  8  1  0
  8  9  2  0
  8 10  2  0
  8 11  1  0
 11 12  1  0
 12 13  2  0
 13 14  1  0
 14 15  1  0
 15 16  1  0
 16 17  1  0
 16 18  2  0
 14 19  2  0
 19 20  1  0
 20 21  2  0
 21 22  1  0
  7 23  1  0
 23 24  2  0
 24  4  1  0
 21 12  1  0
  1 25  1  0
  1 26  1  0
  1 27  1  0
  2 28  1  0
  2 29  1  0
  5 30  1  0
  6 31  1  0
 11 32  1  0
 13 33  1  0
 17 34  1  0
 17 35  1  0
 17 36  1  0
 19 37  1  0
 20 38  1  0
 22 39  1  0
 22 40  1  0
 22 41  1  0
 23 42  1  0
 24 43  1  0
M  CHG  1  15  -1
M  END
>  <UniqueID>  (35) 
33

>  <SMILES>  (35) 
CCOc1ccc(S(=O)(=O)Nc2cc([N-]C(C)=O)ccc2C)cc1

>  <Energy>  (35) 
44.89686667120414

>  <Genealogy>  (35) 
CCOc1ccc(S(=O)(=O)Nc2cc([N-]C(C)=O)ccc2C)cc1 (protonated)
CCOc1ccc(S(=O)(=O)Nc2cc([N-]C(C)=O)ccc2C)cc1 (3D coordinates assigned)
CCOc1ccc(S(=O)(=O)Nc2cc([N-]C(C)=O)ccc2C)cc1 (optimized conformer: 44.89686667120414 kcal/mol)

>  <smiles>  (35) 
CCOc1ccc(S(=O)(=O)Nc2cc(NC(C)=O)ccc2C)cc1

>  <score_type>  (35) 
oracle

>  <origin>  (35) 
adgpu

>  <m_score__min__energy>  (35) 
-10.17

>  <m_primary>  (35) 
energy

$$$$
35:0
     RDKit          3D

 52 55  0  0  0  0  0  0  0  0999 V2000
   -6.2160   15.7090  -34.1960 C   0  0  0  0  0  0  0  0  0  0  0  0
   -5.9350   17.0450  -34.6000 O   0  0  0  0  0  0  0  0  0  0  0  0
   -5.1450   17.9480  -33.8710 C   0  0  0  0  0  0  0  0  0  0  0  0
   -3.7430   17.9460  -33.9550 C   0  0  0  0  0  0  0  0  0  0  0  0
   -3.0170   18.8590  -33.2630 N   0  0  0  0  0  0  0  0  0  0  0  0
   -3.6170   19.7900  -32.4750 C   0  0  0  0  0  0  0  0  0  0  0  0
   -2.8040   20.7830  -31.7310 C   0  0  0  0  0  0  0  0  0  0  0  0
   -1.4090   20.8390  -31.9000 C   0  0  0  0  0  0  0  0  0  0  0  0
   -0.6440   21.7750  -31.1980 C   0  0  0  0  0  0  0  0  0  0  0  0
   -1.2570   22.6840  -30.3240 C   0  0  0  0  0  0  0  0  0  0  0  0
   -0.4440   23.6200  -29.5960 N   0  0  0  0  0  0  0  0  0  0  0  0
   -0.9560   24.8010  -28.9570 C   0  0  0  0  0  0  0  0  0  0  0  0
   -2.0510   25.2990  -29.3300 O   0  0  0  0  0  0  0  0  0  0  0  0
   -0.1860   25.4880  -27.9640 N   0  0  0  0  0  0  0  0  0  0  0  0
    0.4020   24.8980  -26.7970 C   0  0  0  0  0  0  0  0  0  0  0  0
    1.6730   25.3230  -26.3920 C   0  0  0  0  0  0  0  0  0  0  0  0
    2.2670   24.7860  -25.2440 C   0  0  0  0  0  0  0  0  0  0  0  0
    1.5840   23.8320  -24.4850 C   0  0  0  0  0  0  0  0  0  0  0  0
    2.1610   23.3150  -23.3720 F   0  0  0  0  0  0  0  0  0  0  0  0
    0.3030   23.4210  -24.8670 C   0  0  0  0  0  0  0  0  0  0  0  0
   -0.3710   22.5100  -24.1200 F   0  0  0  0  0  0  0  0  0  0  0  0
   -0.2920   23.9570  -26.0150 C   0  0  0  0  0  0  0  0  0  0  0  0
   -2.6480   22.6180  -30.1350 C   0  0  0  0  0  0  0  0  0  0  0  0
   -3.4130   21.6820  -30.8360 C   0  0  0  0  0  0  0  0  0  0  0  0
   -4.9730   19.8000  -32.3750 N   0  0  0  0  0  0  0  0  0  0  0  0
   -5.7550   18.9070  -33.0400 C   0  0  0  0  0  0  0  0  0  0  0  0
   -7.1860   18.9680  -32.8720 N   0  0  0  0  0  0  0  0  0  0  0  0
   -7.9360   17.8240  -32.3360 C   0  0  0  0  0  0  0  0  0  0  0  0
   -9.2110   18.3100  -31.6370 C   0  0  0  0  0  0  0  0  0  0  0  0
   -8.9420   19.5170  -30.9530 O   0  0  0  0  0  0  0  0  0  0  0  0
   -8.7800   20.5840  -31.8760 C   0  0  0  0  0  0  0  0  0  0  0  0
   -7.9070   20.2270  -33.1000 C   0  0  0  0  0  0  0  0  0  0  0  0
   -6.2278   15.6529  -33.0975 H   0  0  0  0  0  0  0  0  0  0  0  0
   -7.1976   15.4058  -34.5892 H   0  0  0  0  0  0  0  0  0  0  0  0
   -5.4397   15.0361  -34.5892 H   0  0  0  0  0  0  0  0  0  0  0  0
   -3.2323   17.2018  -34.5838 H   0  0  0  0  0  0  0  0  0  0  0  0
   -0.9153   20.1398  -32.5909 H   0  0  0  0  0  0  0  0  0  0  0  0
    0.4475   21.7986  -31.3323 H   0  0  0  0  0  0  0  0  0  0  0  0
    0.5930   23.4830  -29.6030 H   0  0  0  0  0  0  0  0  0  0  0  0
    2.2081   26.0836  -26.9796 H   0  0  0  0  0  0  0  0  0  0  0  0
    3.2715   25.1149  -24.9393 H   0  0  0  0  0  0  0  0  0  0  0  0
   -1.3047   23.6416  -26.3063 H   0  0  0  0  0  0  0  0  0  0  0  0
   -3.1375   23.3072  -29.4311 H   0  0  0  0  0  0  0  0  0  0  0  0
   -4.5023   21.6476  -30.6867 H   0  0  0  0  0  0  0  0  0  0  0  0
   -8.2081   17.1489  -33.1607 H   0  0  0  0  0  0  0  0  0  0  0  0
   -7.3072   17.2910  -31.6076 H   0  0  0  0  0  0  0  0  0  0  0  0
   -9.9978   18.4807  -32.3865 H   0  0  0  0  0  0  0  0  0  0  0  0
   -9.5484   17.5485  -30.9184 H   0  0  0  0  0  0  0  0  0  0  0  0
   -9.7750   20.8842  -32.2362 H   0  0  0  0  0  0  0  0  0  0  0  0
   -8.2624   21.3934  -31.3402 H   0  0  0  0  0  0  0  0  0  0  0  0
   -8.5518   20.1191  -33.9846 H   0  0  0  0  0  0  0  0  0  0  0  0
   -7.1738   21.0314  -33.2590 H   0  0  0  0  0  0  0  0  0  0  0  0
  1  2  1  0
  2  3  1  0
  3  4  2  0
  4  5  1  0
  5  6  2  0
  6  7  1  0
  7  8  2  0
  8  9  1  0
  9 10  2  0
 10 11  1  0
 11 12  1  0
 12 13  2  0
 12 14  1  0
 14 15  1  0
 15 16  2  0
 16 17  1  0
 17 18  2  0
 18 19  1  0
 18 20  1  0
 20 21  1  0
 20 22  2  0
 10 23  1  0
 23 24  2  0
  6 25  1  0
 25 26  2  0
 26 27  1  0
 27 28  1  0
 28 29  1  0
 29 30  1  0
 30 31  1  0
 31 32  1  0
 26  3  1  0
 32 27  1  0
 24  7  1  0
 22 15  1  0
  1 33  1  0
  1 34  1  0
  1 35  1  0
  4 36  1  0
  8 37  1  0
  9 38  1  0
 11 39  1  0
 16 40  1  0
 17 41  1  0
 22 42  1  0
 23 43  1  0
 24 44  1  0
 28 45  1  0
 28 46  1  0
 29 47  1  0
 29 48  1  0
 31 49  1  0
 31 50  1  0
 32 51  1  0
 32 52  1  0
M  CHG  1  14  -1
M  END
>  <UniqueID>  (36) 
34

>  <SMILES>  (36) 
COc1cnc(-c2ccc(NC(=O)[N-]c3ccc(F)c(F)c3)cc2)nc1N1CCOCC1

>  <Energy>  (36) 
75.32492007682929

>  <Genealogy>  (36) 
COc1cnc(-c2ccc(NC(=O)[N-]c3ccc(F)c(F)c3)cc2)nc1N1CCOCC1 (protonated)
COc1cnc(-c2ccc(NC(=O)[N-]c3ccc(F)c(F)c3)cc2)nc1N1CCOCC1 (3D coordinates assigned)
COc1cnc(-c2ccc(NC(=O)[N-]c3ccc(F)c(F)c3)cc2)nc1N1CCOCC1 (nonaromatic ring conformer: 75.32492007682929 kcal/mol)

>  <smiles>  (36) 
COc1cnc(-c2ccc(NC(=O)Nc3ccc(F)c(F)c3)cc2)nc1N1CCOCC1

>  <score_type>  (36) 
oracle

>  <origin>  (36) 
adgpu

>  <m_score__min__energy>  (36) 
-8.8900000000000006

>  <m_primary>  (36) 
energy

$$$$
36:0
     RDKit          3D

 52 54  0  0  0  0  0  0  0  0999 V2000
   -0.4720   27.6840  -27.4980 C   0  0  0  0  0  0  0  0  0  0  0  0
   -0.8780   26.6610  -28.4010 O   0  0  0  0  0  0  0  0  0  0  0  0
   -0.7740   25.2860  -28.1440 C   0  0  0  0  0  0  0  0  0  0  0  0
    0.2070   24.7630  -27.2760 C   0  0  0  0  0  0  0  0  0  0  0  0
    0.2660   23.3890  -27.0270 C   0  0  0  0  0  0  0  0  0  0  0  0
   -0.6450   22.5240  -27.6340 C   0  0  0  0  0  0  0  0  0  0  0  0
   -1.6120   23.0280  -28.5040 C   0  0  0  0  0  0  0  0  0  0  0  0
   -1.6880   24.4090  -28.7620 C   0  0  0  0  0  0  0  0  0  0  0  0
   -2.6610   24.9170  -29.6900 N   0  0  0  0  0  0  0  0  0  0  0  0
   -4.0330   24.4960  -29.6810 C   0  0  0  0  0  0  0  0  0  0  0  0
   -4.5680   24.1190  -28.6040 O   0  0  0  0  0  0  0  0  0  0  0  0
   -4.8310   24.5530  -30.8680 N   0  0  0  0  0  0  0  0  0  0  0  0
   -5.7710   23.5590  -31.3080 C   0  0  0  0  0  0  0  0  0  0  0  0
   -7.0700   23.9580  -31.6410 C   0  0  0  0  0  0  0  0  0  0  0  0
   -8.0360   23.0110  -32.0110 C   0  0  0  0  0  0  0  0  0  0  0  0
   -9.4360   23.4480  -32.3240 C   0  0  0  0  0  0  0  0  0  0  0  0
   -7.7030   21.6480  -32.0130 C   0  0  0  0  0  0  0  0  0  0  0  0
   -6.4070   21.2360  -31.6900 C   0  0  0  0  0  0  0  0  0  0  0  0
   -6.1010   19.8680  -31.7150 O   0  0  0  0  0  0  0  0  0  0  0  0
   -5.4910   19.2210  -32.7950 C   0  0  0  0  0  0  0  0  0  0  0  0
   -6.2870   18.5710  -33.7360 C   0  0  0  0  0  0  0  0  0  0  0  0
   -5.6870   17.9090  -34.8020 C   0  0  0  0  0  0  0  0  0  0  0  0
   -4.3330   17.9330  -34.9410 N   0  0  0  0  0  0  0  0  0  0  0  0
   -3.5210   18.5810  -34.0620 C   0  0  0  0  0  0  0  0  0  0  0  0
   -2.0940   18.6100  -34.2990 N   0  0  0  0  0  0  0  0  0  0  0  0
   -1.3580   19.8620  -34.0860 C   0  0  0  0  0  0  0  0  0  0  0  0
   -1.3700   17.4090  -34.7260 C   0  0  0  0  0  0  0  0  0  0  0  0
   -4.0980   19.2300  -32.9580 C   0  0  0  0  0  0  0  0  0  0  0  0
   -5.4490   22.1920  -31.3170 C   0  0  0  0  0  0  0  0  0  0  0  0
   -0.6101   27.3361  -26.4637 H   0  0  0  0  0  0  0  0  0  0  0  0
    0.5887   27.9219  -27.6663 H   0  0  0  0  0  0  0  0  0  0  0  0
   -1.0809   28.5845  -27.6663 H   0  0  0  0  0  0  0  0  0  0  0  0
    0.9282   25.4389  -26.7933 H   0  0  0  0  0  0  0  0  0  0  0  0
    1.0341   22.9878  -26.3495 H   0  0  0  0  0  0  0  0  0  0  0  0
   -0.6007   21.4446  -27.4266 H   0  0  0  0  0  0  0  0  0  0  0  0
   -2.3197   22.3413  -28.9915 H   0  0  0  0  0  0  0  0  0  0  0  0
   -2.3670   25.6330  -30.3860 H   0  0  0  0  0  0  0  0  0  0  0  0
   -7.3362   25.0249  -31.6123 H   0  0  0  0  0  0  0  0  0  0  0  0
   -9.9849   23.6193  -31.3863 H   0  0  0  0  0  0  0  0  0  0  0  0
   -9.4074   24.3799  -32.9077 H   0  0  0  0  0  0  0  0  0  0  0  0
   -9.9426   22.6653  -32.9077 H   0  0  0  0  0  0  0  0  0  0  0  0
   -8.4665   20.8991  -32.2703 H   0  0  0  0  0  0  0  0  0  0  0  0
   -7.3824   18.5813  -33.6365 H   0  0  0  0  0  0  0  0  0  0  0  0
   -6.3059   17.3666  -35.5319 H   0  0  0  0  0  0  0  0  0  0  0  0
   -1.2504   20.0450  -33.0067 H   0  0  0  0  0  0  0  0  0  0  0  0
   -0.3617   19.7845  -34.5458 H   0  0  0  0  0  0  0  0  0  0  0  0
   -1.9103   20.6948  -34.5458 H   0  0  0  0  0  0  0  0  0  0  0  0
   -1.0329   16.8499  -33.8407 H   0  0  0  0  0  0  0  0  0  0  0  0
   -2.0361   16.7743  -35.3289 H   0  0  0  0  0  0  0  0  0  0  0  0
   -0.4977   17.7016  -35.3289 H   0  0  0  0  0  0  0  0  0  0  0  0
   -3.4597   19.7435  -32.2239 H   0  0  0  0  0  0  0  0  0  0  0  0
   -4.4380   21.8678  -31.0295 H   0  0  0  0  0  0  0  0  0  0  0  0
  1  2  1  0
  2  3  1  0
  3  4  2  0
  4  5  1  0
  5  6  2  0
  6  7  1  0
  7  8  2  0
  8  9  1  0
  9 10  1  0
 10 11  2  0
 10 12  1  0
 12 13  1  0
 13 14  2  0
 14 15  1  0
 15 16  1  0
 15 17  2  0
 17 18  1  0
 18 19  1  0
 19 20  1  0
 20 21  2  0
 21 22  1  0
 22 23  2  0
 23 24  1  0
 24 25  1  0
 25 26  1  0
 25 27  1  0
 24 28  2  0
 18 29  2  0
  8  3  1  0
 29 13  1  0
 28 20  1  0
  1 30  1  0
  1 31  1  0
  1 32  1  0
  4 33  1  0
  5 34  1  0
  6 35  1  0
  7 36  1  0
  9 37  1  0
 14 38  1  0
 16 39  1  0
 16 40  1  0
 16 41  1  0
 17 42  1  0
 21 43  1  0
 22 44  1  0
 26 45  1  0
 26 46  1  0
 26 47  1  0
 27 48  1  0
 27 49  1  0
 27 50  1  0
 28 51  1  0
 29 52  1  0
M  CHG  1  12  -1
M  END
>  <UniqueID>  (37) 
35

>  <SMILES>  (37) 
COc1ccccc1NC(=O)[N-]c1cc(C)cc(Oc2ccnc(N(C)C)c2)c1

>  <Energy>  (37) 
62.2230732551819

>  <Genealogy>  (37) 
COc1ccccc1NC(=O)[N-]c1cc(C)cc(Oc2ccnc(N(C)C)c2)c1 (protonated)
COc1ccccc1NC(=O)[N-]c1cc(C)cc(Oc2ccnc(N(C)C)c2)c1 (3D coordinates assigned)
COc1ccccc1NC(=O)[N-]c1cc(C)cc(Oc2ccnc(N(C)C)c2)c1 (optimized conformer: 62.2230732551819 kcal/mol)

>  <smiles>  (37) 
COc1ccccc1NC(=O)Nc1cc(C)cc(Oc2ccnc(N(C)C)c2)c1

>  <score_type>  (37) 
oracle

>  <origin>  (37) 
adgpu

>  <m_score__min__energy>  (37) 
-9.8399999999999999

>  <m_primary>  (37) 
energy

$$$$
37:0
     RDKit          3D

 40 42  0  0  0  0  0  0  0  0999 V2000
   -9.5760   21.1840  -31.5860 C   0  0  0  0  0  0  0  0  0  0  0  0
   -8.4510   22.1340  -31.3000 C   0  0  0  0  0  0  0  0  0  0  0  0
   -7.8570   22.1640  -30.0270 C   0  0  0  0  0  0  0  0  0  0  0  0
   -6.7830   23.0220  -29.7740 C   0  0  0  0  0  0  0  0  0  0  0  0
   -6.2820   23.8430  -30.7900 C   0  0  0  0  0  0  0  0  0  0  0  0
   -4.8980   24.9360  -30.4660 S   0  0  0  0  0  0  0  0  0  0  0  0
   -3.7090   23.5880  -30.4550 C   0  0  0  0  0  0  0  0  0  0  0  0
   -3.8590   22.5420  -31.3740 C   0  0  0  0  0  0  0  0  0  0  0  0
   -2.9510   21.4810  -31.3870 C   0  0  0  0  0  0  0  0  0  0  0  0
   -1.8880   21.4620  -30.4840 C   0  0  0  0  0  0  0  0  0  0  0  0
   -1.7270   22.5030  -29.5660 C   0  0  0  0  0  0  0  0  0  0  0  0
   -2.6340   23.5800  -29.5480 C   0  0  0  0  0  0  0  0  0  0  0  0
   -2.4900   24.6700  -28.6250 N   0  0  0  0  0  0  0  0  0  0  0  0
   -0.9950   25.4280  -28.1850 S   0  0  0  0  0  0  0  0  0  0  0  0
    0.1470   24.5530  -28.6160 O   0  0  0  0  0  0  0  0  0  0  0  0
   -0.8840   26.7470  -28.9000 O   0  0  0  0  0  0  0  0  0  0  0  0
   -0.9180   25.6470  -26.4330 C   0  0  0  0  0  0  0  0  0  0  0  0
   -1.0140   26.9400  -25.8930 C   0  0  0  0  0  0  0  0  0  0  0  0
   -0.9700   27.1340  -24.5100 C   0  0  0  0  0  0  0  0  0  0  0  0
   -0.8260   26.0410  -23.6540 C   0  0  0  0  0  0  0  0  0  0  0  0
   -0.7240   24.7510  -24.1790 C   0  0  0  0  0  0  0  0  0  0  0  0
   -0.7680   24.5450  -25.5630 C   0  0  0  0  0  0  0  0  0  0  0  0
   -0.6240   22.8970  -26.1650 Cl  0  0  0  0  0  0  0  0  0  0  0  0
   -6.8650   23.8080  -32.0630 C   0  0  0  0  0  0  0  0  0  0  0  0
   -7.9390   22.9510  -32.3190 C   0  0  0  0  0  0  0  0  0  0  0  0
  -10.0021   20.8242  -30.6378 H   0  0  0  0  0  0  0  0  0  0  0  0
  -10.3549   21.7018  -32.1649 H   0  0  0  0  0  0  0  0  0  0  0  0
   -9.1960   20.3294  -32.1649 H   0  0  0  0  0  0  0  0  0  0  0  0
   -8.2379   21.5110  -29.2280 H   0  0  0  0  0  0  0  0  0  0  0  0
   -6.3299   23.0518  -28.7721 H   0  0  0  0  0  0  0  0  0  0  0  0
   -4.6953   22.5561  -32.0884 H   0  0  0  0  0  0  0  0  0  0  0  0
   -3.0741   20.6605  -32.1092 H   0  0  0  0  0  0  0  0  0  0  0  0
   -1.1744   20.6250  -30.4946 H   0  0  0  0  0  0  0  0  0  0  0  0
   -0.8884   22.4811  -28.8545 H   0  0  0  0  0  0  0  0  0  0  0  0
   -1.1245   27.8053  -26.5631 H   0  0  0  0  0  0  0  0  0  0  0  0
   -1.0490   28.1497  -24.0952 H   0  0  0  0  0  0  0  0  0  0  0  0
   -0.7928   26.1958  -22.5654 H   0  0  0  0  0  0  0  0  0  0  0  0
   -0.6085   23.8922  -23.5015 H   0  0  0  0  0  0  0  0  0  0  0  0
   -6.4770   24.4561  -32.8626 H   0  0  0  0  0  0  0  0  0  0  0  0
   -8.3848   22.9170  -33.3240 H   0  0  0  0  0  0  0  0  0  0  0  0
  1  2  1  0
  2  3  2  0
  3  4  1  0
  4  5  2  0
  5  6  1  0
  6  7  1  0
  7  8  2  0
  8  9  1  0
  9 10  2  0
 10 11  1  0
 11 12  2  0
 12 13  1  0
 13 14  1  0
 14 15  2  0
 14 16  2  0
 14 17  1  0
 17 18  2  0
 18 19  1  0
 19 20  2  0
 20 21  1  0
 21 22  2  0
 22 23  1  0
  5 24  1  0
 24 25  2  0
 25  2  1  0
 12  7  1  0
 22 17  1  0
  1 26  1  0
  1 27  1  0
  1 28  1  0
  3 29  1  0
  4 30  1  0
  8 31  1  0
  9 32  1  0
 10 33  1  0
 11 34  1  0
 18 35  1  0
 19 36  1  0
 20 37  1  0
 21 38  1  0
 24 39  1  0
 25 40  1  0
M  CHG  1  13  -1
M  END
>  <UniqueID>  (38) 
36

>  <SMILES>  (38) 
Cc1ccc(Sc2ccccc2[N-]S(=O)(=O)c2ccccc2Cl)cc1

>  <Energy>  (38) 
41.730915079172114

>  <Genealogy>  (38) 
Cc1ccc(Sc2ccccc2[N-]S(=O)(=O)c2ccccc2Cl)cc1 (protonated)
Cc1ccc(Sc2ccccc2[N-]S(=O)(=O)c2ccccc2Cl)cc1 (3D coordinates assigned)
Cc1ccc(Sc2ccccc2[N-]S(=O)(=O)c2ccccc2Cl)cc1 (optimized conformer: 41.730915079172114 kcal/mol)

>  <smiles>  (38) 
Cc1ccc(Sc2ccccc2NS(=O)(=O)c2ccccc2Cl)cc1

>  <score_type>  (38) 
oracle

>  <origin>  (38) 
adgpu

>  <m_score__min__energy>  (38) 
-10.300000000000001

>  <m_primary>  (38) 
energy

$$$$
38:0
     RDKit          3D

 49 51  0  0  0  0  0  0  0  0999 V2000
   -5.8432   14.8364  -32.1089 H   0  0  0  0  0  0  0  0  0  0  0  0
   -5.3120   15.4370  -32.8620 C   0  0  0  0  0  0  0  0  0  0  0  0
   -4.0470   15.0390  -33.2960 C   0  0  0  0  0  0  0  0  0  0  0  0
   -3.5846   14.1355  -32.8718 H   0  0  0  0  0  0  0  0  0  0  0  0
   -3.3590   15.7810  -34.2690 C   0  0  0  0  0  0  0  0  0  0  0  0
   -2.0500   15.3670  -34.7260 N   0  0  0  0  0  0  0  0  0  0  0  0
   -0.8420   16.0140  -34.1930 C   0  0  0  0  0  0  0  0  0  0  0  0
   -0.4334   16.6950  -34.9541 H   0  0  0  0  0  0  0  0  0  0  0  0
   -0.1093   15.2333  -33.9404 H   0  0  0  0  0  0  0  0  0  0  0  0
   -1.1590   16.8110  -32.9280 C   0  0  0  0  0  0  0  0  0  0  0  0
   -0.9178   16.2046  -32.0425 H   0  0  0  0  0  0  0  0  0  0  0  0
   -0.5591   17.7329  -32.9155 H   0  0  0  0  0  0  0  0  0  0  0  0
   -2.2282   17.0691  -32.9155 H   0  0  0  0  0  0  0  0  0  0  0  0
   -1.9060   14.2910  -35.7210 C   0  0  0  0  0  0  0  0  0  0  0  0
   -0.8467   14.2006  -36.0034 H   0  0  0  0  0  0  0  0  0  0  0  0
   -2.2661   13.3509  -35.2777 H   0  0  0  0  0  0  0  0  0  0  0  0
   -2.7320   14.5910  -36.9680 C   0  0  0  0  0  0  0  0  0  0  0  0
   -3.7273   14.9525  -36.6703 H   0  0  0  0  0  0  0  0  0  0  0  0
   -2.2255   15.3626  -37.5664 H   0  0  0  0  0  0  0  0  0  0  0  0
   -2.8387   13.6742  -37.5664 H   0  0  0  0  0  0  0  0  0  0  0  0
   -3.9700   16.9280  -34.8040 C   0  0  0  0  0  0  0  0  0  0  0  0
   -3.4424   17.5162  -35.5692 H   0  0  0  0  0  0  0  0  0  0  0  0
   -5.2440   17.3340  -34.3760 C   0  0  0  0  0  0  0  0  0  0  0  0
   -5.8780   18.5620  -34.9700 C   0  0  0  0  0  0  0  0  0  0  0  0
   -6.2204   19.2252  -34.1620 H   0  0  0  0  0  0  0  0  0  0  0  0
   -5.1405   19.0914  -35.5912 H   0  0  0  0  0  0  0  0  0  0  0  0
   -6.7367   18.2674  -35.5912 H   0  0  0  0  0  0  0  0  0  0  0  0
   -5.9150   16.5990  -33.3780 C   0  0  0  0  0  0  0  0  0  0  0  0
   -7.2270   17.0150  -32.9600 N   0  0  0  0  0  0  0  0  0  0  0  0
   -7.5430   18.1730  -32.4610 C   0  0  0  0  0  0  0  0  0  0  0  0
   -6.7090   19.1780  -32.3210 O   0  0  0  0  0  0  0  0  0  0  0  0
   -7.3950   20.1750  -31.8070 C   0  0  0  0  0  0  0  0  0  0  0  0
   -6.8170   21.4990  -31.4870 C   0  0  0  0  0  0  0  0  0  0  0  0
   -5.4950   21.7880  -31.8620 C   0  0  0  0  0  0  0  0  0  0  0  0
   -4.9000   21.0282  -32.3898 H   0  0  0  0  0  0  0  0  0  0  0  0
   -4.9280   23.0320  -31.5710 C   0  0  0  0  0  0  0  0  0  0  0  0
   -3.8915   23.2431  -31.8730 H   0  0  0  0  0  0  0  0  0  0  0  0
   -5.6710   24.0150  -30.8960 C   0  0  0  0  0  0  0  0  0  0  0  0
   -5.0840   25.2950  -30.5980 N   0  0  0  0  0  0  0  0  0  0  0  0
   -3.8730   25.5060  -30.8180 O   0  0  0  0  0  0  0  0  0  0  0  0
   -5.8470   26.3080  -30.0660 O   0  0  0  0  0  0  0  0  0  0  0  0
   -6.9950   23.7260  -30.5190 C   0  0  0  0  0  0  0  0  0  0  0  0
   -7.5894   24.4854  -29.9898 H   0  0  0  0  0  0  0  0  0  0  0  0
   -7.5620   22.4820  -30.8110 C   0  0  0  0  0  0  0  0  0  0  0  0
   -8.5986   22.2703  -30.5098 H   0  0  0  0  0  0  0  0  0  0  0  0
   -8.7040   19.7530  -31.6330 C   0  0  0  0  0  0  0  0  0  0  0  0
   -9.5282   20.3545  -31.2220 H   0  0  0  0  0  0  0  0  0  0  0  0
   -8.7890   18.4790  -32.0550 N   0  0  0  0  0  0  0  0  0  0  0  0
   -9.6360   17.8680  -32.0650 H   0  0  0  0  0  0  0  0  0  0  0  0
  1  2  1  0
  2  3  2  0
  3  4  1  0
  3  5  1  0
  5  6  1  0
  6  7  1  0
  7  8  1  0
  7  9  1  0
  7 10  1  0
 10 11  1  0
 10 12  1  0
 10 13  1  0
  6 14  1  0
 14 15  1  0
 14 16  1  0
 14 17  1  0
 17 18  1  0
 17 19  1  0
 17 20  1  0
  5 21  2  0
 21 22  1  0
 21 23  1  0
 23 24  1  0
 24 25  1  0
 24 26  1  0
 24 27  1  0
 23 28  2  0
 28 29  1  0
 29 30  2  0
 30 31  1  0
 31 32  1  0
 32 33  1  0
 33 34  2  0
 34 35  1  0
 34 36  1  0
 36 37  1  0
 36 38  2  0
 38 39  1  0
 39 40  2  0
 39 41  1  0
 38 42  1  0
 42 43  1  0
 42 44  2  0
 44 45  1  0
 32 46  2  0
 46 47  1  0
 46 48  1  0
 48 49  1  0
 28  2  1  0
 48 30  1  0
 44 33  1  0
M  CHG  2  39   1  41  -1
M  END
>  <UniqueID>  (39) 
37

>  <SMILES>  (39) 
CCN(CC)c1ccc(/N=c2/[nH]cc(-c3ccc([N+](=O)[O-])cc3)o2)c(C)c1

>  <Energy>  (39) 
86.76234650393316

>  <Genealogy>  (39) 
CCN(CC)c1ccc(/N=c2/[nH]cc(-c3ccc([N+](=O)[O-])cc3)o2)c(C)c1 (cis-trans isomerization)
CCN(CC)c1ccc(/N=c2/[nH]cc(-c3ccc([N+](=O)[O-])cc3)o2)c(C)c1 (3D coordinates assigned)
CCN(CC)c1ccc(/N=c2/[nH]cc(-c3ccc([N+](=O)[O-])cc3)o2)c(C)c1 (optimized conformer: 86.76234650393316 kcal/mol)

>  <smiles>  (39) 
CCN(CC)c1ccc(N=c2[nH]cc(-c3ccc([N+](=O)[O-])cc3)o2)c(C)c1

>  <score_type>  (39) 
oracle

>  <origin>  (39) 
adgpu

>  <m_score__min__energy>  (39) 
-8.1999999999999993

>  <m_primary>  (39) 
energy

$$$$
39:0
     RDKit          3D

 48 51  0  0  0  0  0  0  0  0999 V2000
    1.3860   24.1700  -25.8500 C   0  0  0  0  0  0  0  0  0  0  0  0
    1.6850   23.8400  -27.3090 C   0  0  0  0  0  0  0  0  0  0  0  0
    0.8100   24.5540  -28.1820 O   0  0  0  0  0  0  0  0  0  0  0  0
   -0.5760   24.3500  -28.2880 C   0  0  0  0  0  0  0  0  0  0  0  0
   -1.1510   23.5570  -29.2990 C   0  0  0  0  0  0  0  0  0  0  0  0
   -2.5380   23.4360  -29.3940 C   0  0  0  0  0  0  0  0  0  0  0  0
   -3.3750   24.1170  -28.4970 C   0  0  0  0  0  0  0  0  0  0  0  0
   -4.7970   24.1190  -28.6790 N   0  0  0  0  0  0  0  0  0  0  0  0
   -5.4920   24.6290  -30.1840 S   0  0  0  0  0  0  0  0  0  0  0  0
   -4.4230   25.2300  -31.0540 O   0  0  0  0  0  0  0  0  0  0  0  0
   -6.5500   25.6650  -29.9320 O   0  0  0  0  0  0  0  0  0  0  0  0
   -6.1750   23.2220  -30.9960 C   0  0  0  0  0  0  0  0  0  0  0  0
   -7.5410   23.2240  -31.3680 C   0  0  0  0  0  0  0  0  0  0  0  0
   -8.0710   22.1870  -32.1590 C   0  0  0  0  0  0  0  0  0  0  0  0
   -7.2080   21.1740  -32.5690 C   0  0  0  0  0  0  0  0  0  0  0  0
   -7.4870   20.1530  -33.4030 N   0  0  0  0  0  0  0  0  0  0  0  0
   -6.3140   19.5040  -33.5750 C   0  0  0  0  0  0  0  0  0  0  0  0
   -5.3060   20.0830  -32.8230 C   0  0  0  0  0  0  0  0  0  0  0  0
   -5.8850   21.1640  -32.1980 C   0  0  0  0  0  0  0  0  0  0  0  0
   -5.3340   22.1660  -31.4040 C   0  0  0  0  0  0  0  0  0  0  0  0
   -3.8610   19.6930  -32.9050 C   0  0  0  0  0  0  0  0  0  0  0  0
   -3.7200   18.2890  -33.5240 C   0  0  0  0  0  0  0  0  0  0  0  0
   -4.6120   18.1220  -34.7730 C   0  0  0  0  0  0  0  0  0  0  0  0
   -6.1070   18.2940  -34.4360 C   0  0  0  0  0  0  0  0  0  0  0  0
   -2.8030   24.8520  -27.4510 C   0  0  0  0  0  0  0  0  0  0  0  0
   -1.4120   24.9660  -27.3490 C   0  0  0  0  0  0  0  0  0  0  0  0
    1.9801   23.5143  -25.1966 H   0  0  0  0  0  0  0  0  0  0  0  0
    1.6467   25.2199  -25.6507 H   0  0  0  0  0  0  0  0  0  0  0  0
    0.3155   24.0138  -25.6507 H   0  0  0  0  0  0  0  0  0  0  0  0
    2.7250   24.1177  -27.5353 H   0  0  0  0  0  0  0  0  0  0  0  0
    1.5331   22.7616  -27.4638 H   0  0  0  0  0  0  0  0  0  0  0  0
   -0.5046   23.0307  -30.0168 H   0  0  0  0  0  0  0  0  0  0  0  0
   -2.9784   22.8021  -30.1778 H   0  0  0  0  0  0  0  0  0  0  0  0
   -5.4150   24.1340  -27.8360 H   0  0  0  0  0  0  0  0  0  0  0  0
   -8.1947   24.0439  -31.0357 H   0  0  0  0  0  0  0  0  0  0  0  0
   -9.1333   22.1773  -32.4442 H   0  0  0  0  0  0  0  0  0  0  0  0
   -8.4040   19.9340  -33.8530 H   0  0  0  0  0  0  0  0  0  0  0  0
   -4.2761   22.1350  -31.1043 H   0  0  0  0  0  0  0  0  0  0  0  0
   -3.3237   20.4210  -33.5306 H   0  0  0  0  0  0  0  0  0  0  0  0
   -3.4356   19.6811  -31.8906 H   0  0  0  0  0  0  0  0  0  0  0  0
   -2.6703   18.1305  -33.8121 H   0  0  0  0  0  0  0  0  0  0  0  0
   -4.0394   17.5505  -32.7739 H   0  0  0  0  0  0  0  0  0  0  0  0
   -4.3258   18.8783  -35.5187 H   0  0  0  0  0  0  0  0  0  0  0  0
   -4.4646   17.1048  -35.1650 H   0  0  0  0  0  0  0  0  0  0  0  0
   -6.6775   18.4115  -35.3691 H   0  0  0  0  0  0  0  0  0  0  0  0
   -6.4538   17.4044  -33.8898 H   0  0  0  0  0  0  0  0  0  0  0  0
   -3.4492   25.3412  -26.7073 H   0  0  0  0  0  0  0  0  0  0  0  0
   -0.9715   25.5447  -26.5237 H   0  0  0  0  0  0  0  0  0  0  0  0
  1  2  1  0
  2  3  1  0
  3  4  1  0
  4  5  2  0
  5  6  1  0
  6  7  2  0
  7  8  1  0
  8  9  1  0
  9 10  2  0
  9 11  2  0
  9 12  1  0
 12 13  2  0
 13 14  1  0
 14 15  2  0
 15 16  1  0
 16 17  1  0
 17 18  2  0
 18 19  1  0
 19 20  2  0
 18 21  1  0
 21 22  1  0
 22 23  1  0
 23 24  1  0
  7 25  1  0
 25 26  2  0
 26  4  1  0
 20 12  1  0
 19 15  1  0
 24 17  1  0
  1 27  1  0
  1 28  1  0
  1 29  1  0
  2 30  1  0
  2 31  1  0
  5 32  1  0
  6 33  1  0
  8 34  1  0
 13 35  1  0
 14 36  1  0
 16 37  1  0
 20 38  1  0
 21 39  1  0
 21 40  1  0
 22 41  1  0
 22 42  1  0
 23 43  1  0
 23 44  1  0
 24 45  1  0
 24 46  1  0
 25 47  1  0
 26 48  1  0
M  END
>  <UniqueID>  (40) 
38

>  <SMILES>  (40) 
CCOc1ccc(NS(=O)(=O)c2ccc3[nH]c4c(c3c2)CCCC4)cc1

>  <Energy>  (40) 
83.66530113367936

>  <Genealogy>  (40) 
CCOc1ccc(NS(=O)(=O)c2ccc3[nH]c4c(c3c2)CCCC4)cc1 (3D coordinates assigned)
CCOc1ccc(NS(=O)(=O)c2ccc3[nH]c4c(c3c2)CCCC4)cc1 (nonaromatic ring conformer: 83.66530113367936 kcal/mol)

>  <smiles>  (40) 
CCOc1ccc(NS(=O)(=O)c2ccc3[nH]c4c(c3c2)CCCC4)cc1

>  <score_type>  (40) 
oracle

>  <origin>  (40) 
adgpu

>  <m_score__min__energy>  (40) 
-10.42

>  <m_primary>  (40) 
energy

$$$$
40:0
     RDKit          3D

 34 36  0  0  0  0  0  0  0  0999 V2000
   -6.4280   13.7320  -34.5600 C   0  0  0  0  0  0  0  0  0  0  0  0
   -6.0890   15.1610  -34.2540 C   0  0  0  0  0  0  0  0  0  0  0  0
   -4.8290   15.6760  -34.5900 C   0  0  0  0  0  0  0  0  0  0  0  0
   -4.4990   16.9940  -34.2730 C   0  0  0  0  0  0  0  0  0  0  0  0
   -5.4210   17.8230  -33.6090 C   0  0  0  0  0  0  0  0  0  0  0  0
   -5.0650   19.1720  -33.2580 N   0  0  0  0  0  0  0  0  0  0  0  0
   -3.8210   19.5190  -32.6270 C   0  0  0  0  0  0  0  0  0  0  0  0
   -2.8440   18.7230  -32.6880 O   0  0  0  0  0  0  0  0  0  0  0  0
   -3.6490   20.8320  -31.9560 C   0  0  0  0  0  0  0  0  0  0  0  0
   -2.5030   21.0690  -31.1810 C   0  0  0  0  0  0  0  0  0  0  0  0
   -2.3310   22.3060  -30.5540 C   0  0  0  0  0  0  0  0  0  0  0  0
   -1.1940   22.5860  -29.7830 C   0  0  0  0  0  0  0  0  0  0  0  0
   -1.0570   23.8380  -29.1730 C   0  0  0  0  0  0  0  0  0  0  0  0
   -2.0500   24.8110  -29.3310 C   0  0  0  0  0  0  0  0  0  0  0  0
   -1.9080   26.0520  -28.7230 O   0  0  0  0  0  0  0  0  0  0  0  0
   -3.1870   24.5350  -30.0990 C   0  0  0  0  0  0  0  0  0  0  0  0
   -3.3340   23.2860  -30.7130 C   0  0  0  0  0  0  0  0  0  0  0  0
   -4.4160   23.0250  -31.4370 O   0  0  0  0  0  0  0  0  0  0  0  0
   -4.6120   21.8590  -32.0480 C   0  0  0  0  0  0  0  0  0  0  0  0
   -5.6830   21.6840  -32.6880 O   0  0  0  0  0  0  0  0  0  0  0  0
   -6.6760   17.2950  -33.2430 C   0  0  0  0  0  0  0  0  0  0  0  0
   -7.9910   18.3550  -32.3360 Br  0  0  0  0  0  0  0  0  0  0  0  0
   -7.0010   15.9720  -33.5650 C   0  0  0  0  0  0  0  0  0  0  0  0
   -6.5597   13.1769  -33.6195 H   0  0  0  0  0  0  0  0  0  0  0  0
   -7.3603   13.6930  -35.1424 H   0  0  0  0  0  0  0  0  0  0  0  0
   -5.6126   13.2783  -35.1424 H   0  0  0  0  0  0  0  0  0  0  0  0
   -4.0969   15.0376  -35.1062 H   0  0  0  0  0  0  0  0  0  0  0  0
   -3.5088   17.3884  -34.5448 H   0  0  0  0  0  0  0  0  0  0  0  0
   -5.6990   19.9490  -33.5490 H   0  0  0  0  0  0  0  0  0  0  0  0
   -1.7420   20.2829  -31.0674 H   0  0  0  0  0  0  0  0  0  0  0  0
   -0.4113   21.8233  -29.6578 H   0  0  0  0  0  0  0  0  0  0  0  0
   -0.1656   24.0579  -28.5672 H   0  0  0  0  0  0  0  0  0  0  0  0
   -3.9667   25.3014  -30.2203 H   0  0  0  0  0  0  0  0  0  0  0  0
   -7.9809   15.5653  -33.2746 H   0  0  0  0  0  0  0  0  0  0  0  0
  1  2  1  0
  2  3  2  0
  3  4  1  0
  4  5  2  0
  5  6  1  0
  6  7  1  0
  7  8  2  0
  7  9  1  0
  9 10  2  0
 10 11  1  0
 11 12  2  0
 12 13  1  0
 13 14  2  0
 14 15  1  0
 14 16  1  0
 16 17  2  0
 17 18  1  0
 18 19  1  0
 19 20  2  0
  5 21  1  0
 21 22  1  0
 21 23  2  0
 23  2  1  0
 19  9  1  0
 17 11  1  0
  1 24  1  0
  1 25  1  0
  1 26  1  0
  3 27  1  0
  4 28  1  0
  6 29  1  0
 10 30  1  0
 12 31  1  0
 13 32  1  0
 16 33  1  0
 23 34  1  0
M  CHG  1  15  -1
M  END
>  <UniqueID>  (41) 
39

>  <SMILES>  (41) 
Cc1ccc(NC(=O)c2cc3ccc([O-])cc3oc2=O)c(Br)c1

>  <Energy>  (41) 
48.89105750068349

>  <Genealogy>  (41) 
Cc1ccc(NC(=O)c2cc3ccc([O-])cc3oc2=O)c(Br)c1 (protonated)
Cc1ccc(NC(=O)c2cc3ccc([O-])cc3oc2=O)c(Br)c1 (3D coordinates assigned)
Cc1ccc(NC(=O)c2cc3ccc([O-])cc3oc2=O)c(Br)c1 (optimized conformer: 48.89105750068349 kcal/mol)

>  <smiles>  (41) 
Cc1ccc(NC(=O)c2cc3ccc(O)cc3oc2=O)c(Br)c1

>  <score_type>  (41) 
oracle

>  <origin>  (41) 
adgpu

>  <m_score__min__energy>  (41) 
-9.4299999999999997

>  <m_primary>  (41) 
energy

$$$$
41:0
     RDKit          3D

 53 55  0  0  0  0  0  0  0  0999 V2000
   -9.2340   21.7460  -31.1890 C   0  0  0  0  0  0  0  0  0  0  0  0
   -8.6210   22.9830  -31.7740 C   0  0  0  0  0  0  0  0  0  0  0  0
   -9.2540   23.5980  -32.6750 O   0  0  0  0  0  0  0  0  0  0  0  0
   -7.2980   23.4940  -31.3210 C   0  0  0  0  0  0  0  0  0  0  0  0
   -6.1150   22.9910  -31.8920 C   0  0  0  0  0  0  0  0  0  0  0  0
   -4.8660   23.4610  -31.4750 C   0  0  0  0  0  0  0  0  0  0  0  0
   -4.7740   24.4280  -30.4640 C   0  0  0  0  0  0  0  0  0  0  0  0
   -3.5100   24.9540  -30.0380 N   0  0  0  0  0  0  0  0  0  0  0  0
   -2.3330   24.2060  -29.7010 C   0  0  0  0  0  0  0  0  0  0  0  0
   -1.3290   24.8280  -29.2660 O   0  0  0  0  0  0  0  0  0  0  0  0
   -2.3100   22.6980  -29.7160 C   0  0  0  0  0  0  0  0  0  0  0  0
   -1.0740   22.1470  -30.4440 C   0  0  0  0  0  0  0  0  0  0  0  0
   -1.3960   20.9000  -31.1700 N   0  0  0  0  0  0  0  0  0  0  0  0
   -2.8430   20.5650  -31.1130 C   0  0  0  0  0  0  0  0  0  0  0  0
   -3.5750   20.8750  -32.4290 C   0  0  0  0  0  0  0  0  0  0  0  0
   -2.9860   20.1570  -33.5870 N   0  0  0  0  0  0  0  0  0  0  0  0
   -3.7370   18.9200  -33.8970 C   0  0  0  0  0  0  0  0  0  0  0  0
   -5.1280   18.9770  -33.3210 C   0  0  0  0  0  0  0  0  0  0  0  0
   -6.0820   19.8700  -33.8370 C   0  0  0  0  0  0  0  0  0  0  0  0
   -7.3620   19.9330  -33.2800 C   0  0  0  0  0  0  0  0  0  0  0  0
   -7.6990   19.1100  -32.2010 C   0  0  0  0  0  0  0  0  0  0  0  0
   -6.7530   18.2230  -31.6780 C   0  0  0  0  0  0  0  0  0  0  0  0
   -5.4710   18.1580  -32.2320 C   0  0  0  0  0  0  0  0  0  0  0  0
   -1.5340   19.8850  -33.4320 C   0  0  0  0  0  0  0  0  0  0  0  0
   -0.8560   20.9380  -32.5490 C   0  0  0  0  0  0  0  0  0  0  0  0
   -5.9470   24.9550  -29.9140 C   0  0  0  0  0  0  0  0  0  0  0  0
   -7.1970   24.4890  -30.3280 C   0  0  0  0  0  0  0  0  0  0  0  0
   -9.2042   21.8061  -30.0910 H   0  0  0  0  0  0  0  0  0  0  0  0
  -10.2785   21.6610  -31.5234 H   0  0  0  0  0  0  0  0  0  0  0  0
   -8.6690   20.8634  -31.5234 H   0  0  0  0  0  0  0  0  0  0  0  0
   -6.1731   22.2201  -32.6745 H   0  0  0  0  0  0  0  0  0  0  0  0
   -3.9504   23.0699  -31.9427 H   0  0  0  0  0  0  0  0  0  0  0  0
   -2.3028   22.3328  -28.6784 H   0  0  0  0  0  0  0  0  0  0  0  0
   -3.2039   22.3505  -30.2547 H   0  0  0  0  0  0  0  0  0  0  0  0
   -0.7154   22.8987  -31.1626 H   0  0  0  0  0  0  0  0  0  0  0  0
   -0.2979   21.9257  -29.6965 H   0  0  0  0  0  0  0  0  0  0  0  0
   -2.9477   19.4917  -30.8963 H   0  0  0  0  0  0  0  0  0  0  0  0
   -3.2972   21.1846  -30.3257 H   0  0  0  0  0  0  0  0  0  0  0  0
   -4.6284   20.5754  -32.3263 H   0  0  0  0  0  0  0  0  0  0  0  0
   -3.4795   21.9541  -32.6197 H   0  0  0  0  0  0  0  0  0  0  0  0
   -3.8038   18.8032  -34.9887 H   0  0  0  0  0  0  0  0  0  0  0  0
   -3.2066   18.0657  -33.4510 H   0  0  0  0  0  0  0  0  0  0  0  0
   -5.8202   20.5224  -34.6831 H   0  0  0  0  0  0  0  0  0  0  0  0
   -8.1059   20.6313  -33.6911 H   0  0  0  0  0  0  0  0  0  0  0  0
   -8.7072   19.1603  -31.7641 H   0  0  0  0  0  0  0  0  0  0  0  0
   -7.0179   17.5753  -30.8293 H   0  0  0  0  0  0  0  0  0  0  0  0
   -4.7280   17.4630  -31.8137 H   0  0  0  0  0  0  0  0  0  0  0  0
   -1.4031   18.8946  -32.9716 H   0  0  0  0  0  0  0  0  0  0  0  0
   -1.0685   19.9186  -34.4281 H   0  0  0  0  0  0  0  0  0  0  0  0
    0.2254   20.7393  -32.5177 H   0  0  0  0  0  0  0  0  0  0  0  0
   -1.0522   21.9328  -32.9755 H   0  0  0  0  0  0  0  0  0  0  0  0
   -5.8846   25.7430  -29.1490 H   0  0  0  0  0  0  0  0  0  0  0  0
   -8.1104   24.9021  -29.8751 H   0  0  0  0  0  0  0  0  0  0  0  0
  1  2  1  0
  2  3  2  0
  2  4  1  0
  4  5  2  0
  5  6  1  0
  6  7  2  0
  7  8  1  0
  8  9  1  0
  9 10  2  0
  9 11  1  0
 11 12  1  0
 12 13  1  0
 13 14  1  0
 14 15  1  0
 15 16  1  0
 16 17  1  0
 17 18  1  0
 18 19  2  0
 19 20  1  0
 20 21  2  0
 21 22  1  0
 22 23  2  0
 16 24  1  0
 24 25  1  0
  7 26  1  0
 26 27  2  0
 27  4  1  0
 25 13  1  0
 23 18  1  0
  1 28  1  0
  1 29  1  0
  1 30  1  0
  5 31  1  0
  6 32  1  0
 11 33  1  0
 11 34  1  0
 12 35  1  0
 12 36  1  0
 14 37  1  0
 14 38  1  0
 15 39  1  0
 15 40  1  0
 17 41  1  0
 17 42  1  0
 19 43  1  0
 20 44  1  0
 21 45  1  0
 22 46  1  0
 23 47  1  0
 24 48  1  0
 24 49  1  0
 25 50  1  0
 25 51  1  0
 26 52  1  0
 27 53  1  0
M  CHG  1   8  -1
M  END
>  <UniqueID>  (42) 
40

>  <SMILES>  (42) 
CC(=O)c1ccc([N-]C(=O)CCN2CCN(Cc3ccccc3)CC2)cc1

>  <Energy>  (42) 
71.44790139847072

>  <Genealogy>  (42) 
CC(=O)c1ccc([N-]C(=O)CCN2CCN(Cc3ccccc3)CC2)cc1 (protonated)
CC(=O)c1ccc([N-]C(=O)CCN2CCN(Cc3ccccc3)CC2)cc1 (3D coordinates assigned)
CC(=O)c1ccc([N-]C(=O)CCN2CCN(Cc3ccccc3)CC2)cc1 (nonaromatic ring conformer: 71.44790139847072 kcal/mol)

>  <smiles>  (42) 
CC(=O)c1ccc(NC(=O)CCN2CCN(Cc3ccccc3)CC2)cc1

>  <score_type>  (42) 
oracle

>  <origin>  (42) 
adgpu

>  <m_score__min__energy>  (42) 
-11.1

>  <m_primary>  (42) 
energy

$$$$
42:0
     RDKit          3D

 41 43  0  0  0  0  0  0  0  0999 V2000
   -0.4942   25.4608  -29.4798 H   0  0  0  0  0  0  0  0  0  0  0  0
   -1.3180   24.9800  -28.9320 C   0  0  0  0  0  0  0  0  0  0  0  0
   -2.5870   24.9290  -29.4200 N   0  0  0  0  0  0  0  0  0  0  0  0
   -3.4160   24.2880  -28.5650 C   0  0  0  0  0  0  0  0  0  0  0  0
   -4.6800   24.1030  -28.7830 N   0  0  0  0  0  0  0  0  0  0  0  0
   -5.4840   24.6590  -30.2160 S   0  0  0  0  0  0  0  0  0  0  0  0
   -6.5250   25.6740  -29.8350 O   0  0  0  0  0  0  0  0  0  0  0  0
   -4.4810   25.3090  -31.1250 O   0  0  0  0  0  0  0  0  0  0  0  0
   -6.2170   23.2950  -31.0550 C   0  0  0  0  0  0  0  0  0  0  0  0
   -7.5520   22.9440  -30.8200 C   0  0  0  0  0  0  0  0  0  0  0  0
   -8.1568   23.5309  -30.1130 H   0  0  0  0  0  0  0  0  0  0  0  0
   -8.1190   21.8500  -31.4810 C   0  0  0  0  0  0  0  0  0  0  0  0
   -9.1678   21.5794  -31.2892 H   0  0  0  0  0  0  0  0  0  0  0  0
   -7.3560   21.0920  -32.3910 C   0  0  0  0  0  0  0  0  0  0  0  0
   -7.9110   19.9620  -33.0900 N   0  0  0  0  0  0  0  0  0  0  0  0
   -8.3810   20.1340  -34.0080 H   0  0  0  0  0  0  0  0  0  0  0  0
   -7.8390   18.5890  -32.5820 C   0  0  0  0  0  0  0  0  0  0  0  0
   -8.7813   18.0694  -32.8101 H   0  0  0  0  0  0  0  0  0  0  0  0
   -7.6757   18.6215  -31.4947 H   0  0  0  0  0  0  0  0  0  0  0  0
   -6.6970   17.8460  -33.2220 C   0  0  0  0  0  0  0  0  0  0  0  0
   -6.8100   16.4750  -33.4980 C   0  0  0  0  0  0  0  0  0  0  0  0
   -7.7254   15.9331  -33.2181 H   0  0  0  0  0  0  0  0  0  0  0  0
   -5.7640   15.7960  -34.1270 C   0  0  0  0  0  0  0  0  0  0  0  0
   -5.8550   14.7194  -34.3334 H   0  0  0  0  0  0  0  0  0  0  0  0
   -4.6020   16.4800  -34.4950 C   0  0  0  0  0  0  0  0  0  0  0  0
   -3.7790   15.9391  -34.9851 H   0  0  0  0  0  0  0  0  0  0  0  0
   -4.4820   17.8600  -34.2400 C   0  0  0  0  0  0  0  0  0  0  0  0
   -3.3400   18.5940  -34.5990 O   0  0  0  0  0  0  0  0  0  0  0  0
   -2.8090   19.6750  -33.8410 C   0  0  0  0  0  0  0  0  0  0  0  0
   -2.9157   19.4577  -32.7680 H   0  0  0  0  0  0  0  0  0  0  0  0
   -1.7443   19.8055  -34.0846 H   0  0  0  0  0  0  0  0  0  0  0  0
   -3.3565   20.5974  -34.0846 H   0  0  0  0  0  0  0  0  0  0  0  0
   -5.5350   18.5340  -33.6090 C   0  0  0  0  0  0  0  0  0  0  0  0
   -5.4513   19.6134  -33.4144 H   0  0  0  0  0  0  0  0  0  0  0  0
   -6.0190   21.4540  -32.6210 C   0  0  0  0  0  0  0  0  0  0  0  0
   -5.4110   20.8725  -33.3296 H   0  0  0  0  0  0  0  0  0  0  0  0
   -5.4540   22.5460  -31.9580 C   0  0  0  0  0  0  0  0  0  0  0  0
   -4.4050   22.8183  -32.1464 H   0  0  0  0  0  0  0  0  0  0  0  0
   -2.6210   23.7640  -27.1830 S   0  0  0  0  0  0  0  0  0  0  0  0
   -1.1380   24.3800  -27.6900 C   0  0  0  0  0  0  0  0  0  0  0  0
   -0.1904   24.3185  -27.1348 H   0  0  0  0  0  0  0  0  0  0  0  0
  1  2  1  0
  2  3  1  0
  3  4  1  0
  4  5  2  0
  5  6  1  0
  6  7  2  0
  6  8  2  0
  6  9  1  0
  9 10  2  0
 10 11  1  0
 10 12  1  0
 12 13  1  0
 12 14  2  0
 14 15  1  0
 15 16  1  0
 15 17  1  0
 17 18  1  0
 17 19  1  0
 17 20  1  0
 20 21  2  0
 21 22  1  0
 21 23  1  0
 23 24  1  0
 23 25  2  0
 25 26  1  0
 25 27  1  0
 27 28  1  0
 28 29  1  0
 29 30  1  0
 29 31  1  0
 29 32  1  0
 27 33  2  0
 33 34  1  0
 14 35  1  0
 35 36  1  0
 35 37  2  0
 37 38  1  0
  4 39  1  0
 39 40  1  0
 40 41  1  0
 40  2  2  0
 37  9  1  0
 33 20  1  0
M  CHG  1   3  -1
M  END
>  <UniqueID>  (43) 
41

>  <SMILES>  (43) 
COc1cccc(CNc2ccc(S(=O)(=O)/N=c3\[n-]ccs3)cc2)c1

>  <Energy>  (43) 
74.84830790441275

>  <Genealogy>  (43) 
COc1cccc(CNc2ccc(S(=O)(=O)N=c3[n-]ccs3)cc2)c1 (protonated)
COc1cccc(CNc2ccc(S(=O)(=O)/N=c3\[n-]ccs3)cc2)c1 (cis-trans isomerization)
COc1cccc(CNc2ccc(S(=O)(=O)/N=c3\[n-]ccs3)cc2)c1 (3D coordinates assigned)
COc1cccc(CNc2ccc(S(=O)(=O)/N=c3\[n-]ccs3)cc2)c1 (optimized conformer: 74.84830790441275 kcal/mol)

>  <smiles>  (43) 
COc1cccc(CNc2ccc(S(=O)(=O)N=c3[nH]ccs3)cc2)c1

>  <score_type>  (43) 
oracle

>  <origin>  (43) 
adgpu

>  <m_score__min__energy>  (43) 
-10.51

>  <m_primary>  (43) 
energy

$$$$
43:0
     RDKit          3D

 55 57  0  0  0  0  0  0  0  0999 V2000
   -0.7950   18.2630  -32.3470 C   0  0  0  0  0  0  0  0  0  0  0  0
   -0.4810   18.0320  -30.9730 O   0  0  0  0  0  0  0  0  0  0  0  0
   -0.1300   19.0330  -30.0590 C   0  0  0  0  0  0  0  0  0  0  0  0
    0.6110   18.7660  -28.8900 C   0  0  0  0  0  0  0  0  0  0  0  0
    0.9480   19.8040  -28.0170 C   0  0  0  0  0  0  0  0  0  0  0  0
    0.5440   21.1170  -28.2890 C   0  0  0  0  0  0  0  0  0  0  0  0
    0.8760   22.1510  -27.3560 N   0  0  0  0  0  0  0  0  0  0  0  0
    0.3330   23.7970  -27.4630 S   0  0  0  0  0  0  0  0  0  0  0  0
    0.5580   24.4810  -26.1430 O   0  0  0  0  0  0  0  0  0  0  0  0
    1.1170   24.5250  -28.5200 O   0  0  0  0  0  0  0  0  0  0  0  0
   -1.3910   23.8110  -27.8250 C   0  0  0  0  0  0  0  0  0  0  0  0
   -2.2470   22.9310  -27.1500 C   0  0  0  0  0  0  0  0  0  0  0  0
   -3.5970   22.8540  -27.4990 C   0  0  0  0  0  0  0  0  0  0  0  0
   -4.0950   23.6410  -28.5390 C   0  0  0  0  0  0  0  0  0  0  0  0
   -3.2400   24.5150  -29.2300 C   0  0  0  0  0  0  0  0  0  0  0  0
   -3.7060   25.2800  -30.3440 N   0  0  0  0  0  0  0  0  0  0  0  0
   -5.0460   25.2510  -30.8620 C   0  0  0  0  0  0  0  0  0  0  0  0
   -5.7230   26.3150  -30.8480 O   0  0  0  0  0  0  0  0  0  0  0  0
   -5.6340   24.0150  -31.4430 C   0  0  0  0  0  0  0  0  0  0  0  0
   -7.0200   23.8410  -31.4730 C   0  0  0  0  0  0  0  0  0  0  0  0
   -7.5880   22.6450  -31.9520 C   0  0  0  0  0  0  0  0  0  0  0  0
   -8.9850   22.4810  -32.0140 O   0  0  0  0  0  0  0  0  0  0  0  0
   -9.7270   21.5180  -31.2760 C   0  0  0  0  0  0  0  0  0  0  0  0
   -6.7390   21.5980  -32.3900 C   0  0  0  0  0  0  0  0  0  0  0  0
   -7.2520   20.3690  -32.8350 O   0  0  0  0  0  0  0  0  0  0  0  0
   -7.1570   19.1270  -32.1360 C   0  0  0  0  0  0  0  0  0  0  0  0
   -5.3370   21.7980  -32.4050 C   0  0  0  0  0  0  0  0  0  0  0  0
   -4.4090   20.8270  -32.8230 O   0  0  0  0  0  0  0  0  0  0  0  0
   -3.0080   21.0120  -32.9560 C   0  0  0  0  0  0  0  0  0  0  0  0
   -4.8090   23.0110  -31.9640 C   0  0  0  0  0  0  0  0  0  0  0  0
   -1.9000   24.6220  -28.8440 C   0  0  0  0  0  0  0  0  0  0  0  0
   -0.1930   21.3760  -29.4520 C   0  0  0  0  0  0  0  0  0  0  0  0
   -0.5320   20.3430  -30.3270 C   0  0  0  0  0  0  0  0  0  0  0  0
   -1.6793   18.9135  -32.4167 H   0  0  0  0  0  0  0  0  0  0  0  0
    0.0584   18.7501  -32.8413 H   0  0  0  0  0  0  0  0  0  0  0  0
   -1.0060   17.3032  -32.8413 H   0  0  0  0  0  0  0  0  0  0  0  0
    0.9253   17.7364  -28.6639 H   0  0  0  0  0  0  0  0  0  0  0  0
    1.5338   19.5885  -27.1112 H   0  0  0  0  0  0  0  0  0  0  0  0
   -1.8538   22.2976  -26.3412 H   0  0  0  0  0  0  0  0  0  0  0  0
   -4.2679   22.1733  -26.9545 H   0  0  0  0  0  0  0  0  0  0  0  0
   -5.1573   23.5765  -28.8173 H   0  0  0  0  0  0  0  0  0  0  0  0
   -7.6762   24.6492  -31.1177 H   0  0  0  0  0  0  0  0  0  0  0  0
   -9.5898   21.6960  -30.1992 H   0  0  0  0  0  0  0  0  0  0  0  0
  -10.7940   21.6047  -31.5290 H   0  0  0  0  0  0  0  0  0  0  0  0
   -9.3711   20.5084  -31.5290 H   0  0  0  0  0  0  0  0  0  0  0  0
   -7.1713   19.3142  -31.0521 H   0  0  0  0  0  0  0  0  0  0  0  0
   -8.0088   18.4866  -32.4088 H   0  0  0  0  0  0  0  0  0  0  0  0
   -6.2177   18.6236  -32.4088 H   0  0  0  0  0  0  0  0  0  0  0  0
   -2.5498   21.0725  -31.9578 H   0  0  0  0  0  0  0  0  0  0  0  0
   -2.5767   20.1630  -33.5066 H   0  0  0  0  0  0  0  0  0  0  0  0
   -2.8118   21.9438  -33.5066 H   0  0  0  0  0  0  0  0  0  0  0  0
   -3.7242   23.1822  -32.0266 H   0  0  0  0  0  0  0  0  0  0  0  0
   -1.2429   25.3482  -29.3448 H   0  0  0  0  0  0  0  0  0  0  0  0
   -0.5081   22.4054  -29.6780 H   0  0  0  0  0  0  0  0  0  0  0  0
   -1.1184   20.5618  -31.2316 H   0  0  0  0  0  0  0  0  0  0  0  0
  1  2  1  0
  2  3  1  0
  3  4  2  0
  4  5  1  0
  5  6  2  0
  6  7  1  0
  7  8  1  0
  8  9  2  0
  8 10  2  0
  8 11  1  0
 11 12  2  0
 12 13  1  0
 13 14  2  0
 14 15  1  0
 15 16  1  0
 16 17  1  0
 17 18  2  0
 17 19  1  0
 19 20  2  0
 20 21  1  0
 21 22  1  0
 22 23  1  0
 21 24  2  0
 24 25  1  0
 25 26  1  0
 24 27  1  0
 27 28  1  0
 28 29  1  0
 27 30  2  0
 15 31  2  0
  6 32  1  0
 32 33  2  0
 33  3  1  0
 31 11  1  0
 30 19  1  0
  1 34  1  0
  1 35  1  0
  1 36  1  0
  4 37  1  0
  5 38  1  0
 12 39  1  0
 13 40  1  0
 14 41  1  0
 20 42  1  0
 23 43  1  0
 23 44  1  0
 23 45  1  0
 26 46  1  0
 26 47  1  0
 26 48  1  0
 29 49  1  0
 29 50  1  0
 29 51  1  0
 30 52  1  0
 31 53  1  0
 32 54  1  0
 33 55  1  0
M  CHG  2   7  -1  16  -1
M  END
>  <UniqueID>  (44) 
42

>  <SMILES>  (44) 
COc1ccc([N-]S(=O)(=O)c2cccc([N-]C(=O)c3cc(OC)c(OC)c(OC)c3)c2)cc1

>  <Energy>  (44) 
70.54505835192671

>  <Genealogy>  (44) 
COc1ccc([N-]S(=O)(=O)c2cccc([N-]C(=O)c3cc(OC)c(OC)c(OC)c3)c2)cc1 (protonated)
COc1ccc([N-]S(=O)(=O)c2cccc([N-]C(=O)c3cc(OC)c(OC)c(OC)c3)c2)cc1 (3D coordinates assigned)
COc1ccc([N-]S(=O)(=O)c2cccc([N-]C(=O)c3cc(OC)c(OC)c(OC)c3)c2)cc1 (optimized conformer: 70.54505835192671 kcal/mol)

>  <smiles>  (44) 
COc1ccc(NS(=O)(=O)c2cccc(NC(=O)c3cc(OC)c(OC)c(OC)c3)c2)cc1

>  <score_type>  (44) 
oracle

>  <origin>  (44) 
adgpu

>  <m_score__min__energy>  (44) 
-9.7899999999999991

>  <m_primary>  (44) 
energy

$$$$
44:0
     RDKit          3D

 44 46  0  0  0  0  0  0  0  0999 V2000
   -3.5200   25.2930  -30.5110 N   0  0  0  0  0  0  0  0  0  0  0  0
   -5.0640   24.7200  -29.9860 S   0  0  0  0  0  0  0  0  0  0  0  0
   -6.0560   25.8470  -30.0750 O   0  0  0  0  0  0  0  0  0  0  0  0
   -4.9710   24.2580  -28.5600 O   0  0  0  0  0  0  0  0  0  0  0  0
   -5.5700   23.3760  -31.0050 C   0  0  0  0  0  0  0  0  0  0  0  0
   -4.6240   22.7140  -31.7930 C   0  0  0  0  0  0  0  0  0  0  0  0
   -5.0090   21.6500  -32.6100 C   0  0  0  0  0  0  0  0  0  0  0  0
   -6.3530   21.2410  -32.6590 C   0  0  0  0  0  0  0  0  0  0  0  0
   -6.7550   20.1690  -33.4700 O   0  0  0  0  0  0  0  0  0  0  0  0
   -6.1650   18.8960  -33.4850 C   0  0  0  0  0  0  0  0  0  0  0  0
   -5.9670   18.1540  -32.3090 C   0  0  0  0  0  0  0  0  0  0  0  0
   -5.3580   16.8960  -32.3630 C   0  0  0  0  0  0  0  0  0  0  0  0
   -4.9160   16.3700  -33.5900 C   0  0  0  0  0  0  0  0  0  0  0  0
   -4.2830   15.0300  -33.6640 C   0  0  0  0  0  0  0  0  0  0  0  0
   -3.2620   14.8790  -34.3900 O   0  0  0  0  0  0  0  0  0  0  0  0
   -4.8050   13.8620  -32.9150 C   0  0  0  0  0  0  0  0  0  0  0  0
   -4.5180   13.6900  -31.5480 C   0  0  0  0  0  0  0  0  0  0  0  0
   -5.0020   12.5730  -30.8580 C   0  0  0  0  0  0  0  0  0  0  0  0
   -5.7670   11.6150  -31.5260 C   0  0  0  0  0  0  0  0  0  0  0  0
   -6.0440   11.7670  -32.8870 C   0  0  0  0  0  0  0  0  0  0  0  0
   -5.5620   12.8810  -33.5810 C   0  0  0  0  0  0  0  0  0  0  0  0
   -5.1160   17.1190  -34.7620 C   0  0  0  0  0  0  0  0  0  0  0  0
   -5.7230   18.3760  -34.7060 C   0  0  0  0  0  0  0  0  0  0  0  0
   -7.3030   21.8880  -31.8470 C   0  0  0  0  0  0  0  0  0  0  0  0
   -8.9960   21.3880  -31.8860 S   0  0  0  0  0  0  0  0  0  0  0  0
   -9.1460   19.9150  -32.7790 N   0  0  0  0  0  0  0  0  0  0  0  0
   -9.8370   22.4470  -32.5440 O   0  0  0  0  0  0  0  0  0  0  0  0
   -9.4940   21.1820  -30.4840 O   0  0  0  0  0  0  0  0  0  0  0  0
   -6.9070   22.9580  -31.0300 C   0  0  0  0  0  0  0  0  0  0  0  0
   -3.6970   26.0490  -31.2100 H   0  0  0  0  0  0  0  0  0  0  0  0
   -3.5716   23.0331  -31.7690 H   0  0  0  0  0  0  0  0  0  0  0  0
   -4.2562   21.1283  -33.2192 H   0  0  0  0  0  0  0  0  0  0  0  0
   -6.2922   18.5640  -31.3414 H   0  0  0  0  0  0  0  0  0  0  0  0
   -5.2239   16.3140  -31.4392 H   0  0  0  0  0  0  0  0  0  0  0  0
   -3.9095   14.4381  -31.0188 H   0  0  0  0  0  0  0  0  0  0  0  0
   -4.7794   12.4495  -29.7878 H   0  0  0  0  0  0  0  0  0  0  0  0
   -6.1517   10.7405  -30.9808 H   0  0  0  0  0  0  0  0  0  0  0  0
   -6.6424   11.0089  -33.4135 H   0  0  0  0  0  0  0  0  0  0  0  0
   -5.7760   12.9910  -34.6544 H   0  0  0  0  0  0  0  0  0  0  0  0
   -4.7920   16.7123  -35.7313 H   0  0  0  0  0  0  0  0  0  0  0  0
   -5.8543   18.9608  -35.6284 H   0  0  0  0  0  0  0  0  0  0  0  0
   -8.4160   19.2590  -32.4190 H   0  0  0  0  0  0  0  0  0  0  0  0
   -8.8970   20.1310  -33.7700 H   0  0  0  0  0  0  0  0  0  0  0  0
   -7.6517   23.4723  -30.4047 H   0  0  0  0  0  0  0  0  0  0  0  0
  1  2  1  0
  2  3  2  0
  2  4  2  0
  2  5  1  0
  5  6  2  0
  6  7  1  0
  7  8  2  0
  8  9  1  0
  9 10  1  0
 10 11  2  0
 11 12  1  0
 12 13  2  0
 13 14  1  0
 14 15  2  0
 14 16  1  0
 16 17  2  0
 17 18  1  0
 18 19  2  0
 19 20  1  0
 20 21  2  0
 13 22  1  0
 22 23  2  0
  8 24  1  0
 24 25  1  0
 25 26  1  0
 25 27  2  0
 25 28  2  0
 24 29  2  0
 29  5  1  0
 23 10  1  0
 21 16  1  0
  1 30  1  0
  6 31  1  0
  7 32  1  0
 11 33  1  0
 12 34  1  0
 17 35  1  0
 18 36  1  0
 19 37  1  0
 20 38  1  0
 21 39  1  0
 22 40  1  0
 23 41  1  0
 26 42  1  0
 26 43  1  0
 29 44  1  0
M  CHG  1   1  -1
M  END
>  <UniqueID>  (45) 
43

>  <SMILES>  (45) 
[NH-]S(=O)(=O)c1ccc(Oc2ccc(C(=O)c3ccccc3)cc2)c(S(N)(=O)=O)c1

>  <Energy>  (45) 
58.0279204050607

>  <Genealogy>  (45) 
[NH-]S(=O)(=O)c1ccc(Oc2ccc(C(=O)c3ccccc3)cc2)c(S(N)(=O)=O)c1 (protonated)
[NH-]S(=O)(=O)c1ccc(Oc2ccc(C(=O)c3ccccc3)cc2)c(S(N)(=O)=O)c1 (3D coordinates assigned)
[NH-]S(=O)(=O)c1ccc(Oc2ccc(C(=O)c3ccccc3)cc2)c(S(N)(=O)=O)c1 (optimized conformer: 58.0279204050607 kcal/mol)

>  <smiles>  (45) 
NS(=O)(=O)c1ccc(Oc2ccc(C(=O)c3ccccc3)cc2)c(S(N)(=O)=O)c1

>  <score_type>  (45) 
oracle

>  <origin>  (45) 
adgpu

>  <m_score__min__energy>  (45) 
-11.65

>  <m_primary>  (45) 
energy

$$$$
45:0
     RDKit          3D

 41 43  0  0  0  0  0  0  0  0999 V2000
   -1.2100   25.3560  -28.8240 O   0  0  0  0  0  0  0  0  0  0  0  0
   -2.3560   24.8380  -28.9090 C   0  0  0  0  0  0  0  0  0  0  0  0
   -2.9900   24.2360  -27.6910 C   0  0  0  0  0  0  0  0  0  0  0  0
   -3.5990   22.8600  -27.9940 C   0  0  0  0  0  0  0  0  0  0  0  0
   -2.6170   21.7430  -27.7370 C   0  0  0  0  0  0  0  0  0  0  0  0
   -3.0800   20.4580  -27.4060 C   0  0  0  0  0  0  0  0  0  0  0  0
   -2.1710   19.4400  -27.0970 C   0  0  0  0  0  0  0  0  0  0  0  0
   -0.7970   19.6990  -27.1100 C   0  0  0  0  0  0  0  0  0  0  0  0
   -0.3280   20.9760  -27.4320 C   0  0  0  0  0  0  0  0  0  0  0  0
   -1.2320   21.9950  -27.7470 C   0  0  0  0  0  0  0  0  0  0  0  0
   -3.1150   24.9210  -30.1210 N   0  0  0  0  0  0  0  0  0  0  0  0
   -4.4810   24.5270  -30.3090 C   0  0  0  0  0  0  0  0  0  0  0  0
   -5.5540   25.3210  -29.8710 C   0  0  0  0  0  0  0  0  0  0  0  0
   -6.8690   24.9100  -30.1000 C   0  0  0  0  0  0  0  0  0  0  0  0
   -7.1240   23.7120  -30.7740 C   0  0  0  0  0  0  0  0  0  0  0  0
   -6.0620   22.9150  -31.2380 C   0  0  0  0  0  0  0  0  0  0  0  0
   -6.3280   21.6510  -31.9710 C   0  0  0  0  0  0  0  0  0  0  0  0
   -7.6090   21.0640  -31.9450 C   0  0  0  0  0  0  0  0  0  0  0  0
   -7.8590   19.8760  -32.6390 C   0  0  0  0  0  0  0  0  0  0  0  0
   -6.8370   19.2620  -33.3680 C   0  0  0  0  0  0  0  0  0  0  0  0
   -5.5630   19.8340  -33.4020 C   0  0  0  0  0  0  0  0  0  0  0  0
   -5.3070   21.0210  -32.7080 C   0  0  0  0  0  0  0  0  0  0  0  0
   -4.7420   23.3390  -31.0040 C   0  0  0  0  0  0  0  0  0  0  0  0
   -2.2250   24.1236  -26.9087 H   0  0  0  0  0  0  0  0  0  0  0  0
   -3.7974   24.9042  -27.3569 H   0  0  0  0  0  0  0  0  0  0  0  0
   -4.4814   22.7125  -27.3540 H   0  0  0  0  0  0  0  0  0  0  0  0
   -3.8740   22.8350  -29.0588 H   0  0  0  0  0  0  0  0  0  0  0  0
   -4.1604   20.2518  -27.3898 H   0  0  0  0  0  0  0  0  0  0  0  0
   -2.5379   18.4345  -26.8435 H   0  0  0  0  0  0  0  0  0  0  0  0
   -0.0844   18.8971  -26.8666 H   0  0  0  0  0  0  0  0  0  0  0  0
    0.7530   21.1792  -27.4375 H   0  0  0  0  0  0  0  0  0  0  0  0
   -0.8595   22.9977  -28.0037 H   0  0  0  0  0  0  0  0  0  0  0  0
   -5.3581   26.2680  -29.3468 H   0  0  0  0  0  0  0  0  0  0  0  0
   -7.7065   25.5307  -29.7490 H   0  0  0  0  0  0  0  0  0  0  0  0
   -8.1624   23.3905  -30.9426 H   0  0  0  0  0  0  0  0  0  0  0  0
   -8.4180   21.5438  -31.3747 H   0  0  0  0  0  0  0  0  0  0  0  0
   -8.8615   19.4242  -32.6111 H   0  0  0  0  0  0  0  0  0  0  0  0
   -7.0357   18.3285  -33.9149 H   0  0  0  0  0  0  0  0  0  0  0  0
   -4.7592   19.3497  -33.9760 H   0  0  0  0  0  0  0  0  0  0  0  0
   -4.3012   21.4654  -32.7382 H   0  0  0  0  0  0  0  0  0  0  0  0
   -3.9031   22.7298  -31.3715 H   0  0  0  0  0  0  0  0  0  0  0  0
  1  2  2  0
  2  3  1  0
  3  4  1  0
  4  5  1  0
  5  6  2  0
  6  7  1  0
  7  8  2  0
  8  9  1  0
  9 10  2  0
  2 11  1  0
 11 12  1  0
 12 13  2  0
 13 14  1  0
 14 15  2  0
 15 16  1  0
 16 17  1  0
 17 18  2  0
 18 19  1  0
 19 20  2  0
 20 21  1  0
 21 22  2  0
 16 23  2  0
 10  5  1  0
 23 12  1  0
 22 17  1  0
  3 24  1  0
  3 25  1  0
  4 26  1  0
  4 27  1  0
  6 28  1  0
  7 29  1  0
  8 30  1  0
  9 31  1  0
 10 32  1  0
 13 33  1  0
 14 34  1  0
 15 35  1  0
 18 36  1  0
 19 37  1  0
 20 38  1  0
 21 39  1  0
 22 40  1  0
 23 41  1  0
M  CHG  1  11  -1
M  END
>  <UniqueID>  (46) 
44

>  <SMILES>  (46) 
O=C(CCc1ccccc1)[N-]c1cccc(-c2ccccc2)c1

>  <Energy>  (46) 
47.54391057823507

>  <Genealogy>  (46) 
O=C(CCc1ccccc1)[N-]c1cccc(-c2ccccc2)c1 (protonated)
O=C(CCc1ccccc1)[N-]c1cccc(-c2ccccc2)c1 (3D coordinates assigned)
O=C(CCc1ccccc1)[N-]c1cccc(-c2ccccc2)c1 (optimized conformer: 47.54391057823507 kcal/mol)

>  <smiles>  (46) 
O=C(CCc1ccccc1)Nc1cccc(-c2ccccc2)c1

>  <score_type>  (46) 
oracle

>  <origin>  (46) 
adgpu

>  <m_score__min__energy>  (46) 
-10.710000000000001

>  <m_primary>  (46) 
energy

$$$$
46:0
     RDKit          3D

 37 40  0  0  0  0  0  0  0  0999 V2000
   -3.3040   20.7020  -32.3640 O   0  0  0  0  0  0  0  0  0  0  0  0
   -4.3920   21.0630  -31.8420 C   0  0  0  0  0  0  0  0  0  0  0  0
   -4.3790   21.9970  -30.7440 N   0  0  0  0  0  0  0  0  0  0  0  0
   -3.1790   22.5040  -30.1370 C   0  0  0  0  0  0  0  0  0  0  0  0
   -2.0270   21.7060  -30.0090 C   0  0  0  0  0  0  0  0  0  0  0  0
   -0.8810   22.2170  -29.3890 C   0  0  0  0  0  0  0  0  0  0  0  0
   -0.8800   23.5190  -28.8810 C   0  0  0  0  0  0  0  0  0  0  0  0
    0.2310   24.0100  -28.2800 F   0  0  0  0  0  0  0  0  0  0  0  0
   -2.0280   24.3090  -28.9830 C   0  0  0  0  0  0  0  0  0  0  0  0
   -3.1760   23.8010  -29.6010 C   0  0  0  0  0  0  0  0  0  0  0  0
   -5.6390   20.5210  -32.3350 N   0  0  0  0  0  0  0  0  0  0  0  0
   -6.9050   21.1470  -32.0490 C   0  0  0  0  0  0  0  0  0  0  0  0
   -7.1190   22.5050  -32.3400 C   0  0  0  0  0  0  0  0  0  0  0  0
   -8.3990   23.0550  -32.2180 C   0  0  0  0  0  0  0  0  0  0  0  0
   -9.4760   22.2490  -31.8340 C   0  0  0  0  0  0  0  0  0  0  0  0
   -9.2760   20.8940  -31.5590 C   0  0  0  0  0  0  0  0  0  0  0  0
   -7.9920   20.3450  -31.6540 C   0  0  0  0  0  0  0  0  0  0  0  0
   -7.6990   18.6240  -31.2320 S   0  0  0  0  0  0  0  0  0  0  0  0
   -6.6950   18.3330  -32.6950 C   0  0  0  0  0  0  0  0  0  0  0  0
   -6.8940   17.1880  -33.4720 C   0  0  0  0  0  0  0  0  0  0  0  0
   -6.0810   16.9480  -34.5830 C   0  0  0  0  0  0  0  0  0  0  0  0
   -5.0820   17.8610  -34.9290 C   0  0  0  0  0  0  0  0  0  0  0  0
   -4.8950   19.0210  -34.1700 C   0  0  0  0  0  0  0  0  0  0  0  0
   -5.6900   19.2600  -33.0370 C   0  0  0  0  0  0  0  0  0  0  0  0
   -5.2840   22.3840  -30.3940 H   0  0  0  0  0  0  0  0  0  0  0  0
   -2.0272   20.6769  -30.3976 H   0  0  0  0  0  0  0  0  0  0  0  0
    0.0205   21.5928  -29.3014 H   0  0  0  0  0  0  0  0  0  0  0  0
   -2.0293   25.3313  -28.5770 H   0  0  0  0  0  0  0  0  0  0  0  0
   -4.0816   24.4220  -29.6671 H   0  0  0  0  0  0  0  0  0  0  0  0
   -6.2786   23.1363  -32.6642 H   0  0  0  0  0  0  0  0  0  0  0  0
   -8.5593   24.1235  -32.4244 H   0  0  0  0  0  0  0  0  0  0  0  0
  -10.4830   22.6833  -31.7484 H   0  0  0  0  0  0  0  0  0  0  0  0
  -10.1263   20.2595  -31.2683 H   0  0  0  0  0  0  0  0  0  0  0  0
   -7.6903   16.4762  -33.2089 H   0  0  0  0  0  0  0  0  0  0  0  0
   -6.2278   16.0395  -35.1855 H   0  0  0  0  0  0  0  0  0  0  0  0
   -4.4403   17.6671  -35.8011 H   0  0  0  0  0  0  0  0  0  0  0  0
   -4.1229   19.7483  -34.4614 H   0  0  0  0  0  0  0  0  0  0  0  0
  1  2  2  0
  2  3  1  0
  3  4  1  0
  4  5  2  0
  5  6  1  0
  6  7  2  0
  7  8  1  0
  7  9  1  0
  9 10  2  0
  2 11  1  0
 11 12  1  0
 12 13  2  0
 13 14  1  0
 14 15  2  0
 15 16  1  0
 16 17  2  0
 17 18  1  0
 18 19  1  0
 19 20  2  0
 20 21  1  0
 21 22  2  0
 22 23  1  0
 23 24  2  0
 10  4  1  0
 24 11  1  0
 17 12  1  0
 24 19  1  0
  3 25  1  0
  5 26  1  0
  6 27  1  0
  9 28  1  0
 10 29  1  0
 13 30  1  0
 14 31  1  0
 15 32  1  0
 16 33  1  0
 20 34  1  0
 21 35  1  0
 22 36  1  0
 23 37  1  0
M  END
>  <UniqueID>  (47) 
45

>  <SMILES>  (47) 
O=C(Nc1ccc(F)cc1)N1c2ccccc2Sc2ccccc21

>  <Energy>  (47) 
67.7761757968427

>  <Genealogy>  (47) 
O=C(Nc1ccc(F)cc1)N1c2ccccc2Sc2ccccc21 (3D coordinates assigned)
O=C(Nc1ccc(F)cc1)N1c2ccccc2Sc2ccccc21 (nonaromatic ring conformer: 67.7761757968427 kcal/mol)

>  <smiles>  (47) 
O=C(Nc1ccc(F)cc1)N1c2ccccc2Sc2ccccc21

>  <score_type>  (47) 
oracle

>  <origin>  (47) 
adgpu

>  <m_score__min__energy>  (47) 
-8.1699999999999999

>  <m_primary>  (47) 
energy

$$$$
47:0
     RDKit          3D

 36 36  0  0  0  0  0  0  0  0999 V2000
   -7.4580   20.1860  -32.6960 C   0  0  0  0  0  0  0  0  0  0  0  0
   -7.6680   21.1270  -31.4990 C   0  0  0  0  0  0  0  0  0  0  0  0
   -9.0050   21.8790  -31.6100 C   0  0  0  0  0  0  0  0  0  0  0  0
   -6.5190   22.0380  -31.2810 N   0  0  0  0  0  0  0  0  0  0  0  0
   -6.8280   23.2300  -30.4620 C   0  0  0  0  0  0  0  0  0  0  0  0
   -6.2200   24.5230  -31.0500 C   0  0  2  0  0  0  0  0  0  0  0  0
   -5.5130   24.1860  -32.2160 O   0  0  0  0  0  0  0  0  0  0  0  0
   -5.2670   25.2270  -30.0690 C   0  0  0  0  0  0  0  0  0  0  0  0
   -3.9140   25.0110  -30.4600 O   0  0  0  0  0  0  0  0  0  0  0  0
   -2.9850   24.2420  -29.7410 C   0  0  0  0  0  0  0  0  0  0  0  0
   -2.2680   24.7690  -28.6480 C   0  0  0  0  0  0  0  0  0  0  0  0
   -1.3520   23.9700  -27.9570 C   0  0  0  0  0  0  0  0  0  0  0  0
   -1.1410   22.6470  -28.3460 C   0  0  0  0  0  0  0  0  0  0  0  0
   -1.8440   22.1160  -29.4300 C   0  0  0  0  0  0  0  0  0  0  0  0
   -2.7650   22.9080  -30.1280 C   0  0  0  0  0  0  0  0  0  0  0  0
   -3.4760   22.3470  -31.2500 C   0  0  0  0  0  0  0  0  0  0  0  0
   -4.0470   21.9000  -32.1520 N   0  0  0  0  0  0  0  0  0  0  0  0
   -7.2320   19.1732  -32.3310 H   0  0  0  0  0  0  0  0  0  0  0  0
   -8.3724   20.1600  -33.3068 H   0  0  0  0  0  0  0  0  0  0  0  0
   -6.6193   20.5513  -33.3068 H   0  0  0  0  0  0  0  0  0  0  0  0
   -7.7222   20.4982  -30.5980 H   0  0  0  0  0  0  0  0  0  0  0  0
   -9.3890   22.0950  -30.6021 H   0  0  0  0  0  0  0  0  0  0  0  0
   -8.8508   22.8228  -32.1537 H   0  0  0  0  0  0  0  0  0  0  0  0
   -9.7314   21.2571  -32.1537 H   0  0  0  0  0  0  0  0  0  0  0  0
   -6.1880   22.3560  -32.2220 H   0  0  0  0  0  0  0  0  0  0  0  0
   -5.7400   21.4950  -30.8390 H   0  0  0  0  0  0  0  0  0  0  0  0
   -7.9204   23.3469  -30.4065 H   0  0  0  0  0  0  0  0  0  0  0  0
   -6.3878   23.0755  -29.4658 H   0  0  0  0  0  0  0  0  0  0  0  0
   -7.0428   25.2215  -31.2623 H   0  0  0  0  0  0  0  0  0  0  0  0
   -4.5640   24.0560  -31.9540 H   0  0  0  0  0  0  0  0  0  0  0  0
   -5.4776   26.3066  -30.0688 H   0  0  0  0  0  0  0  0  0  0  0  0
   -5.4202   24.8154  -29.0605 H   0  0  0  0  0  0  0  0  0  0  0  0
   -2.4295   25.8119  -28.3377 H   0  0  0  0  0  0  0  0  0  0  0  0
   -0.7959   24.3859  -27.1039 H   0  0  0  0  0  0  0  0  0  0  0  0
   -0.4205   22.0215  -27.7987 H   0  0  0  0  0  0  0  0  0  0  0  0
   -1.6740   21.0733  -29.7364 H   0  0  0  0  0  0  0  0  0  0  0  0
  1  2  1  0
  2  3  1  0
  2  4  1  0
  4  5  1  0
  5  6  1  0
  6  7  1  0
  6  8  1  0
  8  9  1  0
  9 10  1  0
 10 11  2  0
 11 12  1  0
 12 13  2  0
 13 14  1  0
 14 15  2  0
 15 16  1  0
 16 17  3  0
 15 10  1  0
  1 18  1  0
  1 19  1  0
  1 20  1  0
  2 21  1  0
  3 22  1  0
  3 23  1  0
  3 24  1  0
  4 25  1  0
  4 26  1  0
  5 27  1  0
  5 28  1  0
  6 29  1  6
  7 30  1  0
  8 31  1  0
  8 32  1  0
 11 33  1  0
 12 34  1  0
 13 35  1  0
 14 36  1  0
M  CHG  1   4   1
M  END
>  <UniqueID>  (48) 
46

>  <SMILES>  (48) 
CC(C)[NH2+]C[C@H](O)COc1ccccc1C#N

>  <Energy>  (48) 
29.829836669255826

>  <Genealogy>  (48) 
CC(C)[NH2+]CC(O)COc1ccccc1C#N (protonated)
CC(C)[NH2+]C[C@H](O)COc1ccccc1C#N (chirality)
CC(C)[NH2+]C[C@H](O)COc1ccccc1C#N (3D coordinates assigned)
CC(C)[NH2+]C[C@H](O)COc1ccccc1C#N (optimized conformer: 29.829836669255826 kcal/mol)

>  <smiles>  (48) 
CC(C)NCC(O)COc1ccccc1C#N

>  <score_type>  (48) 
oracle

>  <origin>  (48) 
adgpu

>  <m_score__min__energy>  (48) 
-5.4800000000000004

>  <m_primary>  (48) 
energy

$$$$
48:0
     RDKit          3D

 42 43  0  0  0  0  0  0  0  0999 V2000
    2.1600   24.5820  -27.0040 C   0  0  0  0  0  0  0  0  0  0  0  0
    1.3860   24.5620  -28.1990 O   0  0  0  0  0  0  0  0  0  0  0  0
    0.0210   24.2460  -28.2520 C   0  0  0  0  0  0  0  0  0  0  0  0
   -0.4990   23.2860  -29.1410 C   0  0  0  0  0  0  0  0  0  0  0  0
   -1.8690   23.0070  -29.1560 C   0  0  0  0  0  0  0  0  0  0  0  0
   -2.7400   23.6900  -28.2940 C   0  0  0  0  0  0  0  0  0  0  0  0
   -4.2060   23.3600  -28.2870 C   0  0  0  0  0  0  0  0  0  0  0  0
   -4.9830   24.5860  -28.4830 N   0  0  0  0  0  0  0  0  0  0  0  0
   -5.1760   24.8980  -30.1810 S   0  0  0  0  0  0  0  0  0  0  0  0
   -6.1630   26.0140  -30.3720 O   0  0  0  0  0  0  0  0  0  0  0  0
   -3.8530   25.3040  -30.7700 O   0  0  0  0  0  0  0  0  0  0  0  0
   -5.7810   23.4550  -30.9920 C   0  0  0  0  0  0  0  0  0  0  0  0
   -7.1390   23.1300  -30.9190 C   0  0  0  0  0  0  0  0  0  0  0  0
   -7.6270   21.9870  -31.5570 C   0  0  0  0  0  0  0  0  0  0  0  0
   -6.7640   21.1430  -32.2880 C   0  0  0  0  0  0  0  0  0  0  0  0
   -7.2680   19.9540  -32.9520 N   0  0  0  0  0  0  0  0  0  0  0  0
   -6.4090   19.1870  -33.8610 C   0  0  0  0  0  0  0  0  0  0  0  0
   -8.6470   19.5010  -32.7260 C   0  0  0  0  0  0  0  0  0  0  0  0
   -5.3970   21.4880  -32.3580 C   0  0  0  0  0  0  0  0  0  0  0  0
   -4.9130   22.6330  -31.7180 C   0  0  0  0  0  0  0  0  0  0  0  0
   -2.2200   24.6360  -27.3980 C   0  0  0  0  0  0  0  0  0  0  0  0
   -0.8500   24.9140  -27.3840 C   0  0  0  0  0  0  0  0  0  0  0  0
    1.4892   24.5647  -26.1324 H   0  0  0  0  0  0  0  0  0  0  0  0
    2.8176   23.7005  -26.9782 H   0  0  0  0  0  0  0  0  0  0  0  0
    2.7712   25.4962  -26.9782 H   0  0  0  0  0  0  0  0  0  0  0  0
    0.1757   22.7530  -29.8270 H   0  0  0  0  0  0  0  0  0  0  0  0
   -2.2657   22.2485  -29.8469 H   0  0  0  0  0  0  0  0  0  0  0  0
   -4.4265   22.6522  -29.0997 H   0  0  0  0  0  0  0  0  0  0  0  0
   -4.4751   22.9055  -27.3221 H   0  0  0  0  0  0  0  0  0  0  0  0
   -4.4340   25.3840  -28.0860 H   0  0  0  0  0  0  0  0  0  0  0  0
   -7.8269   23.7779  -30.3561 H   0  0  0  0  0  0  0  0  0  0  0  0
   -8.6972   21.7419  -31.4887 H   0  0  0  0  0  0  0  0  0  0  0  0
   -5.7150   18.5673  -33.2741 H   0  0  0  0  0  0  0  0  0  0  0  0
   -7.0322   18.5393  -34.4952 H   0  0  0  0  0  0  0  0  0  0  0  0
   -5.8358   19.8792  -34.4952 H   0  0  0  0  0  0  0  0  0  0  0  0
   -8.8396   19.4377  -31.6448 H   0  0  0  0  0  0  0  0  0  0  0  0
   -9.3473   20.2163  -33.1820 H   0  0  0  0  0  0  0  0  0  0  0  0
   -8.7867   18.5097  -33.1820 H   0  0  0  0  0  0  0  0  0  0  0  0
   -4.7037   20.8479  -32.9233 H   0  0  0  0  0  0  0  0  0  0  0  0
   -3.8452   22.8884  -31.7857 H   0  0  0  0  0  0  0  0  0  0  0  0
   -2.8928   25.1610  -26.7039 H   0  0  0  0  0  0  0  0  0  0  0  0
   -0.4532   25.6645  -26.6845 H   0  0  0  0  0  0  0  0  0  0  0  0
  1  2  1  0
  2  3  1  0
  3  4  2  0
  4  5  1  0
  5  6  2  0
  6  7  1  0
  7  8  1  0
  8  9  1  0
  9 10  2  0
  9 11  2  0
  9 12  1  0
 12 13  2  0
 13 14  1  0
 14 15  2  0
 15 16  1  0
 16 17  1  0
 16 18  1  0
 15 19  1  0
 19 20  2  0
  6 21  1  0
 21 22  2  0
 22  3  1  0
 20 12  1  0
  1 23  1  0
  1 24  1  0
  1 25  1  0
  4 26  1  0
  5 27  1  0
  7 28  1  0
  7 29  1  0
  8 30  1  0
 13 31  1  0
 14 32  1  0
 17 33  1  0
 17 34  1  0
 17 35  1  0
 18 36  1  0
 18 37  1  0
 18 38  1  0
 19 39  1  0
 20 40  1  0
 21 41  1  0
 22 42  1  0
M  END
>  <UniqueID>  (49) 
47

>  <SMILES>  (49) 
COc1ccc(CNS(=O)(=O)c2ccc(N(C)C)cc2)cc1

>  <Energy>  (49) 
39.50181519830228

>  <Genealogy>  (49) 
COc1ccc(CNS(=O)(=O)c2ccc(N(C)C)cc2)cc1 (3D coordinates assigned)
COc1ccc(CNS(=O)(=O)c2ccc(N(C)C)cc2)cc1 (optimized conformer: 39.50181519830228 kcal/mol)

>  <smiles>  (49) 
COc1ccc(CNS(=O)(=O)c2ccc(N(C)C)cc2)cc1

>  <score_type>  (49) 
oracle

>  <origin>  (49) 
adgpu

>  <m_score__min__energy>  (49) 
-8.4000000000000004

>  <m_primary>  (49) 
energy

$$$$
