0:0
     RDKit          3D

 62 64  0  0  0  0  0  0  0  0999 V2000
   -9.3880   19.3390  -32.7170 C   0  0  0  0  0  0  0  0  0  0  0  0
   -8.8330   19.5430  -31.3120 C   0  0  0  0  0  0  0  0  0  0  0  0
   -8.8500   21.3100  -30.8500 S   0  0  0  0  0  0  0  0  0  0  0  0
   -7.1640   21.6230  -31.3630 C   0  0  0  0  0  0  0  0  0  0  0  0
   -6.4470   20.6460  -31.9740 N   0  0  0  0  0  0  0  0  0  0  0  0
   -5.1610   20.8570  -32.3510 C   0  0  0  0  0  0  0  0  0  0  0  0
   -4.5450   22.0920  -32.1080 C   0  0  0  0  0  0  0  0  0  0  0  0
   -3.0960   22.3020  -32.4690 C   0  0  0  0  0  0  0  0  0  0  0  0
   -2.2110   21.8370  -31.3880 N   0  0  0  0  0  0  0  0  0  0  0  0
   -1.7860   20.4260  -31.3580 C   0  0  0  0  0  0  0  0  0  0  0  0
   -1.1640   20.0680  -30.0280 C   0  0  0  0  0  0  0  0  0  0  0  0
   -1.9570   20.0110  -28.8730 C   0  0  0  0  0  0  0  0  0  0  0  0
   -1.4070   19.6260  -27.6420 C   0  0  0  0  0  0  0  0  0  0  0  0
   -2.2740   19.5850  -26.4070 C   0  0  0  0  0  0  0  0  0  0  0  0
   -1.7320   20.3610  -25.3980 F   0  0  0  0  0  0  0  0  0  0  0  0
   -2.3900   18.2880  -25.9390 F   0  0  0  0  0  0  0  0  0  0  0  0
   -3.5320   20.0650  -26.7190 F   0  0  0  0  0  0  0  0  0  0  0  0
   -0.0300   19.3610  -27.5590 C   0  0  0  0  0  0  0  0  0  0  0  0
    0.7890   19.4590  -28.6960 C   0  0  0  0  0  0  0  0  0  0  0  0
    2.2560   19.1220  -28.6080 C   0  0  0  0  0  0  0  0  0  0  0  0
    2.4050   17.8870  -28.0080 F   0  0  0  0  0  0  0  0  0  0  0  0
    2.9310   20.0700  -27.8590 F   0  0  0  0  0  0  0  0  0  0  0  0
    2.8280   19.0820  -29.8670 F   0  0  0  0  0  0  0  0  0  0  0  0
    0.2090   19.7910  -29.9320 C   0  0  0  0  0  0  0  0  0  0  0  0
   -1.7920   22.7640  -30.3620 C   0  0  0  0  0  0  0  0  0  0  0  0
   -0.5640   22.8880  -30.1060 O   0  0  0  0  0  0  0  0  0  0  0  0
   -2.7570   23.5310  -29.6180 N   0  0  0  0  0  0  0  0  0  0  0  0
   -2.4320   24.3110  -28.4570 C   0  0  0  0  0  0  0  0  0  0  0  0
   -3.3230   24.3350  -27.3760 C   0  0  0  0  0  0  0  0  0  0  0  0
   -3.0360   25.0950  -26.2370 C   0  0  0  0  0  0  0  0  0  0  0  0
   -1.8560   25.8490  -26.1700 C   0  0  0  0  0  0  0  0  0  0  0  0
   -1.5660   26.6960  -24.9660 C   0  0  0  0  0  0  0  0  0  0  0  0
   -0.9840   25.8640  -27.2700 C   0  0  0  0  0  0  0  0  0  0  0  0
   -1.2710   25.1010  -28.4060 C   0  0  0  0  0  0  0  0  0  0  0  0
   -5.3070   23.0920  -31.4770 C   0  0  0  0  0  0  0  0  0  0  0  0
   -4.7440   24.3450  -31.2120 O   0  0  0  0  0  0  0  0  0  0  0  0
   -5.4090   25.3450  -30.4510 C   0  0  0  0  0  0  0  0  0  0  0  0
   -6.5940   22.8300  -31.1180 N   0  0  0  0  0  0  0  0  0  0  0  0
  -10.4187   18.9602  -32.6527 H   0  0  0  0  0  0  0  0  0  0  0  0
   -9.3828   20.2978  -33.2561 H   0  0  0  0  0  0  0  0  0  0  0  0
   -8.7630   18.6118  -33.2561 H   0  0  0  0  0  0  0  0  0  0  0  0
   -9.4491   18.9785  -30.5966 H   0  0  0  0  0  0  0  0  0  0  0  0
   -7.7928   19.1860  -31.2915 H   0  0  0  0  0  0  0  0  0  0  0  0
   -4.5987   20.0542  -32.8502 H   0  0  0  0  0  0  0  0  0  0  0  0
   -2.8687   21.7401  -33.3869 H   0  0  0  0  0  0  0  0  0  0  0  0
   -2.9254   23.3776  -32.6239 H   0  0  0  0  0  0  0  0  0  0  0  0
   -2.6629   19.7840  -31.5279 H   0  0  0  0  0  0  0  0  0  0  0  0
   -1.0334   20.2733  -32.1456 H   0  0  0  0  0  0  0  0  0  0  0  0
   -3.0240   20.2716  -28.9334 H   0  0  0  0  0  0  0  0  0  0  0  0
    0.4116   19.0737  -26.5934 H   0  0  0  0  0  0  0  0  0  0  0  0
    0.8373   19.8343  -30.8339 H   0  0  0  0  0  0  0  0  0  0  0  0
   -3.7690   23.4410  -29.8560 H   0  0  0  0  0  0  0  0  0  0  0  0
   -4.2547   23.7522  -27.4232 H   0  0  0  0  0  0  0  0  0  0  0  0
   -3.7388   25.1010  -25.3908 H   0  0  0  0  0  0  0  0  0  0  0  0
   -1.7647   26.1156  -24.0529 H   0  0  0  0  0  0  0  0  0  0  0  0
   -0.5106   27.0057  -24.9812 H   0  0  0  0  0  0  0  0  0  0  0  0
   -2.2101   27.5876  -24.9812 H   0  0  0  0  0  0  0  0  0  0  0  0
   -0.0719   26.4780  -27.2381 H   0  0  0  0  0  0  0  0  0  0  0  0
   -0.5839   25.1193  -29.2648 H   0  0  0  0  0  0  0  0  0  0  0  0
   -5.2731   25.1407  -29.3787 H   0  0  0  0  0  0  0  0  0  0  0  0
   -4.9863   26.3314  -30.6927 H   0  0  0  0  0  0  0  0  0  0  0  0
   -6.4821   25.3367  -30.6927 H   0  0  0  0  0  0  0  0  0  0  0  0
  1  2  1  0
  2  3  1  0
  3  4  1  0
  4  5  2  0
  5  6  1  0
  6  7  2  0
  7  8  1  0
  8  9  1  0
  9 10  1  0
 10 11  1  0
 11 12  2  0
 12 13  1  0
 13 14  1  0
 14 15  1  0
 14 16  1  0
 14 17  1  0
 13 18  2  0
 18 19  1  0
 19 20  1  0
 20 21  1  0
 20 22  1  0
 20 23  1  0
 19 24  2  0
  9 25  1  0
 25 26  2  0
 25 27  1  0
 27 28  1  0
 28 29  2  0
 29 30  1  0
 30 31  2  0
 31 32  1  0
 31 33  1  0
 33 34  2  0
  7 35  1  0
 35 36  1  0
 36 37  1  0
 35 38  2  0
 38  4  1  0
 24 11  1  0
 34 28  1  0
  1 39  1  0
  1 40  1  0
  1 41  1  0
  2 42  1  0
  2 43  1  0
  6 44  1  0
  8 45  1  0
  8 46  1  0
 10 47  1  0
 10 48  1  0
 12 49  1  0
 18 50  1  0
 24 51  1  0
 27 52  1  0
 29 53  1  0
 30 54  1  0
 32 55  1  0
 32 56  1  0
 32 57  1  0
 33 58  1  0
 34 59  1  0
 37 60  1  0
 37 61  1  0
 37 62  1  0
M  END
>  <UniqueID>  (1) 
1

>  <SMILES>  (1) 
CCSc1ncc(CN(Cc2cc(C(F)(F)F)cc(C(F)(F)F)c2)C(=O)Nc2ccc(C)cc2)c(OC)n1

>  <Energy>  (1) 
57.79606868233544

>  <Genealogy>  (1) 
CCSc1ncc(CN(Cc2cc(C(F)(F)F)cc(C(F)(F)F)c2)C(=O)Nc2ccc(C)cc2)c(OC)n1 (3D coordinates assigned)
CCSc1ncc(CN(Cc2cc(C(F)(F)F)cc(C(F)(F)F)c2)C(=O)Nc2ccc(C)cc2)c(OC)n1 (optimized conformer: 57.79606868233544 kcal/mol)

>  <smiles>  (1) 
CCSc1ncc(CN(Cc2cc(C(F)(F)F)cc(C(F)(F)F)c2)C(=O)Nc2ccc(C)cc2)c(OC)n1

>  <score_type>  (1) 
oracle

>  <origin>  (1) 
adgpu

>  <m_score__min__energy>  (1) 
-9.5700000000000003

>  <m_primary>  (1) 
energy

$$$$
1:0
     RDKit          3D

 33 35  0  0  0  0  0  0  0  0999 V2000
    2.4440   17.9140  -36.4440 C   0  0  0  0  0  0  0  0  0  0  0  0
    1.5810   19.4510  -36.6770 S   0  0  0  0  0  0  0  0  0  0  0  0
    0.5760   19.3000  -37.7840 O   0  0  0  0  0  0  0  0  0  0  0  0
    2.5600   20.5250  -37.0580 O   0  0  0  0  0  0  0  0  0  0  0  0
    0.7610   19.8930  -35.1840 C   0  0  0  0  0  0  0  0  0  0  0  0
   -0.1310   20.9890  -35.1650 C   0  0  0  0  0  0  0  0  0  0  0  0
   -0.8030   21.3440  -33.9820 C   0  0  0  0  0  0  0  0  0  0  0  0
   -0.5760   20.5900  -32.8300 C   0  0  0  0  0  0  0  0  0  0  0  0
   -1.1650   20.8280  -31.6300 N   0  0  0  0  0  0  0  0  0  0  0  0
   -0.7480   19.9250  -30.7070 C   0  0  0  0  0  0  0  0  0  0  0  0
   -1.1460   19.9100  -29.4700 N   0  0  0  0  0  0  0  0  0  0  0  0
   -2.0760   20.8230  -28.8620 C   0  0  0  0  0  0  0  0  0  0  0  0
   -3.0780   20.3870  -28.2310 O   0  0  0  0  0  0  0  0  0  0  0  0
   -1.8570   22.2840  -28.9760 C   0  0  0  0  0  0  0  0  0  0  0  0
   -2.8000   23.1020  -29.6270 C   0  0  0  0  0  0  0  0  0  0  0  0
   -2.5920   24.4810  -29.7340 C   0  0  0  0  0  0  0  0  0  0  0  0
   -3.5330   25.2740  -30.3790 O   0  0  0  0  0  0  0  0  0  0  0  0
   -1.4380   25.0600  -29.1930 C   0  0  0  0  0  0  0  0  0  0  0  0
   -1.2310   26.4310  -29.3000 O   0  0  0  0  0  0  0  0  0  0  0  0
   -0.4930   24.2580  -28.5440 C   0  0  0  0  0  0  0  0  0  0  0  0
    0.6540   24.8280  -28.0050 O   0  0  0  0  0  0  0  0  0  0  0  0
   -0.7000   22.8780  -28.4370 C   0  0  0  0  0  0  0  0  0  0  0  0
    0.3530   18.8050  -31.3350 S   0  0  0  0  0  0  0  0  0  0  0  0
    0.2940   19.5120  -32.8580 C   0  0  0  0  0  0  0  0  0  0  0  0
    0.9730   19.1390  -34.0160 C   0  0  0  0  0  0  0  0  0  0  0  0
    2.5554   17.7155  -35.3678 H   0  0  0  0  0  0  0  0  0  0  0  0
    1.8721   17.0981  -36.9100 H   0  0  0  0  0  0  0  0  0  0  0  0
    3.4384   17.9775  -36.9100 H   0  0  0  0  0  0  0  0  0  0  0  0
   -0.3011   21.5695  -36.0838 H   0  0  0  0  0  0  0  0  0  0  0  0
   -1.4942   22.1995  -33.9650 H   0  0  0  0  0  0  0  0  0  0  0  0
   -3.7082   22.6527  -30.0552 H   0  0  0  0  0  0  0  0  0  0  0  0
    0.0476   22.2522  -27.9275 H   0  0  0  0  0  0  0  0  0  0  0  0
    1.6569   18.2774  -34.0166 H   0  0  0  0  0  0  0  0  0  0  0  0
  1  2  1  0
  2  3  2  0
  2  4  2  0
  2  5  1  0
  5  6  2  0
  6  7  1  0
  7  8  2  0
  8  9  1  0
  9 10  1  0
 10 11  2  3
 11 12  1  0
 12 13  2  0
 12 14  1  0
 14 15  2  0
 15 16  1  0
 16 17  1  0
 16 18  2  0
 18 19  1  0
 18 20  1  0
 20 21  1  0
 20 22  2  0
 10 23  1  0
 23 24  1  0
 24 25  2  0
 25  5  1  0
 24  8  1  0
 22 14  1  0
  1 26  1  0
  1 27  1  0
  1 28  1  0
  6 29  1  0
  7 30  1  0
 15 31  1  0
 22 32  1  0
 25 33  1  0
M  CHG  4   9  -1  17  -1  19  -1  21  -1
M  END
>  <UniqueID>  (2) 
2

>  <SMILES>  (2) 
CS(=O)(=O)c1ccc2[n-]c(=NC(=O)c3cc([O-])c([O-])c([O-])c3)sc2c1

>  <Energy>  (2) 
71.28046049891834

>  <Genealogy>  (2) 
CS(=O)(=O)c1ccc2[n-]c(=NC(=O)c3cc([O-])c([O-])c([O-])c3)sc2c1 (protonated)
CS(=O)(=O)c1ccc2[n-]c(=NC(=O)c3cc([O-])c([O-])c([O-])c3)sc2c1 (3D coordinates assigned)
CS(=O)(=O)c1ccc2[n-]c(=NC(=O)c3cc([O-])c([O-])c([O-])c3)sc2c1 (optimized conformer: 71.28046049891834 kcal/mol)

>  <smiles>  (2) 
CS(=O)(=O)c1ccc2[nH]c(=NC(=O)c3cc(O)c(O)c(O)c3)sc2c1

>  <score_type>  (2) 
oracle

>  <origin>  (2) 
adgpu

>  <m_score__min__energy>  (2) 
-13.140000000000001

>  <m_primary>  (2) 
energy

$$$$
2:0
     RDKit          3D

 58 62  0  0  0  0  0  0  0  0999 V2000
   -0.6150   19.4000  -29.5430 C   0  0  0  0  0  0  0  0  0  0  0  0
   -0.3690   19.8600  -28.1640 N   0  0  0  0  0  0  0  0  0  0  0  0
   -1.4800   19.5290  -27.2480 C   0  0  0  0  0  0  0  0  0  0  0  0
   -2.7750   20.2910  -27.5880 C   0  0  0  0  0  0  0  0  0  0  0  0
   -2.5290   21.7310  -27.9600 C   0  0  0  0  0  0  0  0  0  0  0  0
   -3.6260   22.5950  -28.0930 C   0  0  0  0  0  0  0  0  0  0  0  0
   -3.4560   23.9150  -28.5520 C   0  0  0  0  0  0  0  0  0  0  0  0
   -4.5830   24.7980  -28.7140 N   0  0  0  0  0  0  0  0  0  0  0  0
   -5.5380   24.8560  -30.1620 S   0  0  0  0  0  0  0  0  0  0  0  0
   -6.9630   25.1700  -29.8050 O   0  0  0  0  0  0  0  0  0  0  0  0
   -5.0110   25.9350  -31.0650 O   0  0  0  0  0  0  0  0  0  0  0  0
   -5.4860   23.2870  -30.9570 C   0  0  0  0  0  0  0  0  0  0  0  0
   -6.6820   22.5480  -31.1110 C   0  0  0  0  0  0  0  0  0  0  0  0
   -6.6730   21.2890  -31.7320 C   0  0  0  0  0  0  0  0  0  0  0  0
   -5.4560   20.7920  -32.1980 C   0  0  0  0  0  0  0  0  0  0  0  0
   -4.2840   21.5180  -32.0540 C   0  0  0  0  0  0  0  0  0  0  0  0
   -4.2670   22.7650  -31.4340 C   0  0  0  0  0  0  0  0  0  0  0  0
   -3.1960   20.7160  -32.6020 C   0  0  0  0  0  0  0  0  0  0  0  0
   -1.9740   21.0130  -32.6390 O   0  0  0  0  0  0  0  0  0  0  0  0
   -3.8230   19.4790  -33.0540 C   0  0  0  0  0  0  0  0  0  0  0  0
   -3.2240   18.3990  -33.4590 N   0  0  0  0  0  0  0  0  0  0  0  0
   -3.9660   17.1390  -33.6310 C   0  0  0  0  0  0  0  0  0  0  0  0
   -5.4890   17.3530  -33.9110 C   0  0  0  0  0  0  0  0  0  0  0  0
   -5.6840   17.8970  -35.3450 C   0  0  0  0  0  0  0  0  0  0  0  0
   -6.2310   16.0080  -33.7830 C   0  0  0  0  0  0  0  0  0  0  0  0
   -6.0700   18.3550  -32.8800 C   0  0  0  0  0  0  0  0  0  0  0  0
   -5.2300   19.5410  -32.8490 N   0  0  0  0  0  0  0  0  0  0  0  0
   -2.1620   24.3600  -28.8790 C   0  0  0  0  0  0  0  0  0  0  0  0
   -1.9550   25.6590  -29.3330 O   0  0  0  0  0  0  0  0  0  0  0  0
   -1.0670   23.5050  -28.7430 C   0  0  0  0  0  0  0  0  0  0  0  0
   -1.2420   22.1850  -28.3020 C   0  0  0  0  0  0  0  0  0  0  0  0
   -0.0350   21.2950  -28.1110 C   0  0  0  0  0  0  0  0  0  0  0  0
   -1.1336   18.4302  -29.5190 H   0  0  0  0  0  0  0  0  0  0  0  0
   -1.2395   20.1368  -30.0694 H   0  0  0  0  0  0  0  0  0  0  0  0
    0.3445   19.2897  -30.0694 H   0  0  0  0  0  0  0  0  0  0  0  0
   -1.6795   18.4491  -27.3119 H   0  0  0  0  0  0  0  0  0  0  0  0
   -1.1752   19.8259  -26.2336 H   0  0  0  0  0  0  0  0  0  0  0  0
   -3.2655   19.7888  -28.4349 H   0  0  0  0  0  0  0  0  0  0  0  0
   -3.4064   20.2864  -26.6872 H   0  0  0  0  0  0  0  0  0  0  0  0
   -4.6333   22.2361  -27.8350 H   0  0  0  0  0  0  0  0  0  0  0  0
   -4.9610   25.3140  -27.8830 H   0  0  0  0  0  0  0  0  0  0  0  0
   -7.6301   22.9645  -30.7400 H   0  0  0  0  0  0  0  0  0  0  0  0
   -7.6010   20.7099  -31.8480 H   0  0  0  0  0  0  0  0  0  0  0  0
   -3.3282   23.3268  -31.3198 H   0  0  0  0  0  0  0  0  0  0  0  0
   -2.1790   18.3840  -33.5310 H   0  0  0  0  0  0  0  0  0  0  0  0
   -3.5291   16.5890  -34.4775 H   0  0  0  0  0  0  0  0  0  0  0  0
   -3.8831   16.5800  -32.6872 H   0  0  0  0  0  0  0  0  0  0  0  0
   -6.0548   18.9315  -35.2974 H   0  0  0  0  0  0  0  0  0  0  0  0
   -4.7225   17.8763  -35.8789 H   0  0  0  0  0  0  0  0  0  0  0  0
   -6.4134   17.2702  -35.8789 H   0  0  0  0  0  0  0  0  0  0  0  0
   -6.3659   15.7635  -32.7190 H   0  0  0  0  0  0  0  0  0  0  0  0
   -7.2147   16.0842  -34.2693 H   0  0  0  0  0  0  0  0  0  0  0  0
   -5.6419   15.2165  -34.2693 H   0  0  0  0  0  0  0  0  0  0  0  0
   -7.0927   18.6347  -33.1732 H   0  0  0  0  0  0  0  0  0  0  0  0
   -6.0950   17.8906  -31.8831 H   0  0  0  0  0  0  0  0  0  0  0  0
   -0.0576   23.8698  -28.9839 H   0  0  0  0  0  0  0  0  0  0  0  0
    0.6936   21.5158  -28.9050 H   0  0  0  0  0  0  0  0  0  0  0  0
    0.3749   21.5029  -27.1116 H   0  0  0  0  0  0  0  0  0  0  0  0
  1  2  1  0
  2  3  1  0
  3  4  1  0
  4  5  1  0
  5  6  2  0
  6  7  1  0
  7  8  1  0
  8  9  1  0
  9 10  2  0
  9 11  2  0
  9 12  1  0
 12 13  2  0
 13 14  1  0
 14 15  2  0
 15 16  1  0
 16 17  2  0
 16 18  1  0
 18 19  2  0
 18 20  1  0
 20 21  2  0
 21 22  1  0
 22 23  1  0
 23 24  1  0
 23 25  1  0
 23 26  1  0
 26 27  1  0
  7 28  2  0
 28 29  1  0
 28 30  1  0
 30 31  2  0
 31 32  1  0
 32  2  1  0
 31  5  1  0
 17 12  1  0
 27 20  1  0
 27 15  1  0
  1 33  1  0
  1 34  1  0
  1 35  1  0
  3 36  1  0
  3 37  1  0
  4 38  1  0
  4 39  1  0
  6 40  1  0
  8 41  1  0
 13 42  1  0
 14 43  1  0
 17 44  1  0
 21 45  1  0
 22 46  1  0
 22 47  1  0
 24 48  1  0
 24 49  1  0
 24 50  1  0
 25 51  1  0
 25 52  1  0
 25 53  1  0
 26 54  1  0
 26 55  1  0
 30 56  1  0
 32 57  1  0
 32 58  1  0
M  CHG  2  21   1  29  -1
M  END
>  <UniqueID>  (3) 
3

>  <SMILES>  (3) 
CN1CCc2cc(NS(=O)(=O)c3ccc4c(c3)C(=O)C3=[NH+]CC(C)(C)CN34)c([O-])cc2C1

>  <Energy>  (3) 
102.3115271583022

>  <Genealogy>  (3) 
CN1CCc2cc(NS(=O)(=O)c3ccc4c(c3)C(=O)C3=[NH+]CC(C)(C)CN34)c([O-])cc2C1 (protonated)
CN1CCc2cc(NS(=O)(=O)c3ccc4c(c3)C(=O)C3=[NH+]CC(C)(C)CN34)c([O-])cc2C1 (3D coordinates assigned)
CN1CCc2cc(NS(=O)(=O)c3ccc4c(c3)C(=O)C3=[NH+]CC(C)(C)CN34)c([O-])cc2C1 (nonaromatic ring conformer: 102.3115271583022 kcal/mol)

>  <smiles>  (3) 
CN1CCc2cc(NS(=O)(=O)c3ccc4c(c3)C(=O)C3=NCC(C)(C)CN34)c(O)cc2C1

>  <score_type>  (3) 
oracle

>  <origin>  (3) 
adgpu

>  <m_score__min__energy>  (3) 
-14.43

>  <m_primary>  (3) 
energy

$$$$
3:0
     RDKit          3D

 71 75  0  0  0  0  0  0  0  0999 V2000
    1.8560   19.2980  -30.3380 C   0  0  0  0  0  0  0  0  0  0  0  0
    0.5330   18.9840  -31.0800 C   0  0  0  0  0  0  0  0  0  0  0  0
   -0.0740   17.6880  -30.4960 C   0  0  0  0  0  0  0  0  0  0  0  0
    0.8930   18.7680  -32.5730 C   0  0  0  0  0  0  0  0  0  0  0  0
   -0.3360   18.7890  -33.4730 C   0  0  0  0  0  0  0  0  0  0  0  0
   -1.0640   20.1520  -33.4350 C   0  0  0  0  0  0  0  0  0  0  0  0
   -2.4530   19.9330  -34.0900 C   0  0  0  0  0  0  0  0  0  0  0  0
   -0.2800   21.1990  -34.2650 C   0  0  0  0  0  0  0  0  0  0  0  0
   -1.2160   20.6710  -31.9960 C   0  0  0  0  0  0  0  0  0  0  0  0
   -2.0700   21.7680  -31.7550 C   0  0  0  0  0  0  0  0  0  0  0  0
   -2.2970   22.2470  -30.4600 C   0  0  0  0  0  0  0  0  0  0  0  0
   -3.1910   23.3040  -30.2440 C   0  0  0  0  0  0  0  0  0  0  0  0
   -3.5070   23.7230  -28.9420 C   0  0  0  0  0  0  0  0  0  0  0  0
   -4.5050   24.7300  -28.6970 N   0  0  0  0  0  0  0  0  0  0  0  0
   -5.7460   25.1440  -29.8400 S   0  0  0  0  0  0  0  0  0  0  0  0
   -5.1670   26.0440  -30.8950 O   0  0  0  0  0  0  0  0  0  0  0  0
   -6.8510   25.8770  -29.1330 O   0  0  0  0  0  0  0  0  0  0  0  0
   -6.4070   23.6830  -30.5730 C   0  0  0  0  0  0  0  0  0  0  0  0
   -7.4190   22.9730  -29.9130 C   0  0  0  0  0  0  0  0  0  0  0  0
   -7.8860   21.7640  -30.4410 C   0  0  0  0  0  0  0  0  0  0  0  0
   -7.3340   21.2520  -31.6280 C   0  0  0  0  0  0  0  0  0  0  0  0
   -7.8320   19.6800  -32.2460 S   0  0  0  0  0  0  0  0  0  0  0  0
   -8.7430   19.8950  -33.4290 O   0  0  0  0  0  0  0  0  0  0  0  0
   -8.5910   18.9260  -31.1870 O   0  0  0  0  0  0  0  0  0  0  0  0
   -6.4150   18.7800  -32.7450 N   0  0  0  0  0  0  0  0  0  0  0  0
   -6.5490   17.3410  -32.4310 C   0  0  0  0  0  0  0  0  0  0  0  0
   -6.8110   16.4940  -33.6920 C   0  0  0  0  0  0  0  0  0  0  0  0
   -5.7820   16.6160  -34.6620 O   0  0  0  0  0  0  0  0  0  0  0  0
   -5.2450   17.9310  -34.7650 C   0  0  0  0  0  0  0  0  0  0  0  0
   -6.1410   19.0320  -34.1730 C   0  0  0  0  0  0  0  0  0  0  0  0
   -6.3340   21.9700  -32.2930 C   0  0  0  0  0  0  0  0  0  0  0  0
   -5.8830   23.1870  -31.7770 C   0  0  0  0  0  0  0  0  0  0  0  0
   -2.8390   23.1340  -27.8590 C   0  0  0  0  0  0  0  0  0  0  0  0
   -1.9060   22.1110  -28.0700 C   0  0  0  0  0  0  0  0  0  0  0  0
   -1.6440   21.6520  -29.3710 C   0  0  0  0  0  0  0  0  0  0  0  0
   -0.7380   20.6110  -29.5960 C   0  0  0  0  0  0  0  0  0  0  0  0
   -0.4750   20.1300  -30.9030 C   0  0  0  0  0  0  0  0  0  0  0  0
    1.6858   19.2576  -29.2520 H   0  0  0  0  0  0  0  0  0  0  0  0
    2.6182   18.5558  -30.6175 H   0  0  0  0  0  0  0  0  0  0  0  0
    2.2034   20.3036  -30.6175 H   0  0  0  0  0  0  0  0  0  0  0  0
   -0.0518   17.7354  -29.3972 H   0  0  0  0  0  0  0  0  0  0  0  0
   -1.1144   17.5841  -30.8376 H   0  0  0  0  0  0  0  0  0  0  0  0
    0.5123   16.8222  -30.8376 H   0  0  0  0  0  0  0  0  0  0  0  0
    1.5780   19.5678  -32.8910 H   0  0  0  0  0  0  0  0  0  0  0  0
    1.3615   17.7771  -32.6662 H   0  0  0  0  0  0  0  0  0  0  0  0
   -0.0215   18.5840  -34.5070 H   0  0  0  0  0  0  0  0  0  0  0  0
   -1.0352   18.0223  -33.1079 H   0  0  0  0  0  0  0  0  0  0  0  0
   -3.2139   19.8130  -33.3047 H   0  0  0  0  0  0  0  0  0  0  0  0
   -2.7049   20.8025  -34.7149 H   0  0  0  0  0  0  0  0  0  0  0  0
   -2.4252   19.0281  -34.7149 H   0  0  0  0  0  0  0  0  0  0  0  0
    0.2386   21.8916  -33.5858 H   0  0  0  0  0  0  0  0  0  0  0  0
    0.4580   20.6861  -34.8993 H   0  0  0  0  0  0  0  0  0  0  0  0
   -0.9799   21.7628  -34.8993 H   0  0  0  0  0  0  0  0  0  0  0  0
   -2.5686   22.2578  -32.6044 H   0  0  0  0  0  0  0  0  0  0  0  0
   -3.6507   23.8115  -31.1049 H   0  0  0  0  0  0  0  0  0  0  0  0
   -4.5830   25.1450  -27.7420 H   0  0  0  0  0  0  0  0  0  0  0  0
   -7.8467   23.3664  -28.9790 H   0  0  0  0  0  0  0  0  0  0  0  0
   -8.6868   21.2132  -29.9260 H   0  0  0  0  0  0  0  0  0  0  0  0
   -5.6192   16.9933  -31.9571 H   0  0  0  0  0  0  0  0  0  0  0  0
   -7.4099   17.2202  -31.7571 H   0  0  0  0  0  0  0  0  0  0  0  0
   -6.8904   15.4378  -33.3953 H   0  0  0  0  0  0  0  0  0  0  0  0
   -7.7415   16.8613  -34.1494 H   0  0  0  0  0  0  0  0  0  0  0  0
   -4.2806   17.9511  -34.2362 H   0  0  0  0  0  0  0  0  0  0  0  0
   -5.1500   18.1478  -35.8392 H   0  0  0  0  0  0  0  0  0  0  0  0
   -5.6339   20.0027  -34.2761 H   0  0  0  0  0  0  0  0  0  0  0  0
   -7.0967   19.0367  -34.7177 H   0  0  0  0  0  0  0  0  0  0  0  0
   -5.9020   21.5751  -33.2244 H   0  0  0  0  0  0  0  0  0  0  0  0
   -5.1139   23.7592  -32.3165 H   0  0  0  0  0  0  0  0  0  0  0  0
   -3.0494   23.4781  -26.8356 H   0  0  0  0  0  0  0  0  0  0  0  0
   -1.3771   21.6659  -27.2144 H   0  0  0  0  0  0  0  0  0  0  0  0
   -0.2182   20.1556  -28.7402 H   0  0  0  0  0  0  0  0  0  0  0  0
  1  2  1  0
  2  3  1  0
  2  4  1  0
  4  5  1  0
  5  6  1  0
  6  7  1  0
  6  8  1  0
  6  9  1  0
  9 10  2  0
 10 11  1  0
 11 12  2  0
 12 13  1  0
 13 14  1  0
 14 15  1  0
 15 16  2  0
 15 17  2  0
 15 18  1  0
 18 19  2  0
 19 20  1  0
 20 21  2  0
 21 22  1  0
 22 23  2  0
 22 24  2  0
 22 25  1  0
 25 26  1  0
 26 27  1  0
 27 28  1  0
 28 29  1  0
 29 30  1  0
 21 31  1  0
 31 32  2  0
 13 33  2  0
 33 34  1  0
 34 35  2  0
 35 36  1  0
 36 37  2  0
 37  2  1  0
 37  9  1  0
 35 11  1  0
 32 18  1  0
 30 25  1  0
  1 38  1  0
  1 39  1  0
  1 40  1  0
  3 41  1  0
  3 42  1  0
  3 43  1  0
  4 44  1  0
  4 45  1  0
  5 46  1  0
  5 47  1  0
  7 48  1  0
  7 49  1  0
  7 50  1  0
  8 51  1  0
  8 52  1  0
  8 53  1  0
 10 54  1  0
 12 55  1  0
 14 56  1  0
 19 57  1  0
 20 58  1  0
 26 59  1  0
 26 60  1  0
 27 61  1  0
 27 62  1  0
 29 63  1  0
 29 64  1  0
 30 65  1  0
 30 66  1  0
 31 67  1  0
 32 68  1  0
 33 69  1  0
 34 70  1  0
 36 71  1  0
M  END
>  <UniqueID>  (4) 
4

>  <SMILES>  (4) 
CC1(C)CCC(C)(C)c2cc3cc(NS(=O)(=O)c4ccc(S(=O)(=O)N5CCOCC5)cc4)ccc3cc21

>  <Energy>  (4) 
93.63346665668935

>  <Genealogy>  (4) 
CC1(C)CCC(C)(C)c2cc3cc(NS(=O)(=O)c4ccc(S(=O)(=O)N5CCOCC5)cc4)ccc3cc21 (3D coordinates assigned)
CC1(C)CCC(C)(C)c2cc3cc(NS(=O)(=O)c4ccc(S(=O)(=O)N5CCOCC5)cc4)ccc3cc21 (nonaromatic ring conformer: 93.63346665668935 kcal/mol)

>  <smiles>  (4) 
CC1(C)CCC(C)(C)c2cc3cc(NS(=O)(=O)c4ccc(S(=O)(=O)N5CCOCC5)cc4)ccc3cc21

>  <score_type>  (4) 
oracle

>  <origin>  (4) 
adgpu

>  <m_score__min__energy>  (4) 
-12.25

>  <m_primary>  (4) 
energy

$$$$
4:0
     RDKit          3D

 56 59  0  0  0  0  0  0  0  0999 V2000
    0.1820   21.5400  -34.0870 O   0  0  0  0  0  0  0  0  0  0  0  0
   -0.4470   21.1500  -33.0650 C   0  0  0  0  0  0  0  0  0  0  0  0
    0.1930   21.1780  -31.7830 N   0  0  0  0  0  0  0  0  0  0  0  0
   -0.4900   21.4160  -30.5450 C   0  0  0  0  0  0  0  0  0  0  0  0
   -1.2250   22.6010  -30.4070 C   0  0  0  0  0  0  0  0  0  0  0  0
   -1.9450   22.8590  -29.2320 C   0  0  0  0  0  0  0  0  0  0  0  0
   -2.8940   24.3320  -29.0620 S   0  0  0  0  0  0  0  0  0  0  0  0
   -3.7120   24.2410  -27.8040 O   0  0  0  0  0  0  0  0  0  0  0  0
   -1.9840   25.5260  -28.9680 O   0  0  0  0  0  0  0  0  0  0  0  0
   -3.9560   24.4960  -30.4390 N   0  0  0  0  0  0  0  0  0  0  0  0
   -5.1370   25.2920  -30.1080 C   0  0  0  0  0  0  0  0  0  0  0  0
   -6.2490   24.8260  -31.0350 C   0  0  0  0  0  0  0  0  0  0  0  0
   -5.8050   23.4650  -31.5470 C   0  0  0  0  0  0  0  0  0  0  0  0
   -4.4680   23.1980  -30.8740 C   0  0  0  0  0  0  0  0  0  0  0  0
   -1.9160   21.9310  -28.1860 C   0  0  0  0  0  0  0  0  0  0  0  0
   -1.1590   20.7630  -28.3020 C   0  0  0  0  0  0  0  0  0  0  0  0
   -0.4240   20.5080  -29.4640 C   0  0  0  0  0  0  0  0  0  0  0  0
    0.3840   19.3700  -29.5000 O   0  0  0  0  0  0  0  0  0  0  0  0
   -1.8310   20.6400  -33.1960 C   0  0  0  0  0  0  0  0  0  0  0  0
   -2.0780   19.2610  -33.3230 C   0  0  0  0  0  0  0  0  0  0  0  0
   -3.3860   18.7840  -33.4470 C   0  0  0  0  0  0  0  0  0  0  0  0
   -4.4660   19.6740  -33.4450 C   0  0  0  0  0  0  0  0  0  0  0  0
   -6.1090   19.0560  -33.6010 S   0  0  0  0  0  0  0  0  0  0  0  0
   -6.8780   19.9750  -34.5070 O   0  0  0  0  0  0  0  0  0  0  0  0
   -6.0820   17.6780  -34.2040 O   0  0  0  0  0  0  0  0  0  0  0  0
   -6.8720   19.0010  -32.0250 N   0  0  0  0  0  0  0  0  0  0  0  0
   -8.1160   18.2260  -32.0820 C   0  0  0  0  0  0  0  0  0  0  0  0
   -9.2680   19.1940  -32.3130 C   0  0  0  0  0  0  0  0  0  0  0  0
   -8.7090   20.5740  -32.0230 C   0  0  0  0  0  0  0  0  0  0  0  0
   -7.2660   20.3470  -31.5980 C   0  0  0  0  0  0  0  0  0  0  0  0
   -4.2290   21.0470  -33.3120 C   0  0  0  0  0  0  0  0  0  0  0  0
   -2.9220   21.5270  -33.1890 C   0  0  0  0  0  0  0  0  0  0  0  0
   -1.2372   23.3344  -31.2268 H   0  0  0  0  0  0  0  0  0  0  0  0
   -5.4237   25.1276  -29.0588 H   0  0  0  0  0  0  0  0  0  0  0  0
   -4.9393   26.3666  -30.2347 H   0  0  0  0  0  0  0  0  0  0  0  0
   -7.1976   24.7394  -30.4848 H   0  0  0  0  0  0  0  0  0  0  0  0
   -6.4202   25.5362  -31.8574 H   0  0  0  0  0  0  0  0  0  0  0  0
   -6.5368   22.6919  -31.2698 H   0  0  0  0  0  0  0  0  0  0  0  0
   -5.7221   23.4472  -32.6437 H   0  0  0  0  0  0  0  0  0  0  0  0
   -4.6044   22.5336  -30.0080 H   0  0  0  0  0  0  0  0  0  0  0  0
   -3.7671   22.7046  -31.5634 H   0  0  0  0  0  0  0  0  0  0  0  0
   -2.4917   22.1218  -27.2683 H   0  0  0  0  0  0  0  0  0  0  0  0
   -1.1409   20.0391  -27.4740 H   0  0  0  0  0  0  0  0  0  0  0  0
    0.9220   19.1060  -30.3140 H   0  0  0  0  0  0  0  0  0  0  0  0
   -1.2360   18.5532  -33.3247 H   0  0  0  0  0  0  0  0  0  0  0  0
   -3.5674   17.7036  -33.5467 H   0  0  0  0  0  0  0  0  0  0  0  0
   -8.0663   17.5019  -32.9086 H   0  0  0  0  0  0  0  0  0  0  0  0
   -8.2646   17.6754  -31.1414 H   0  0  0  0  0  0  0  0  0  0  0  0
   -9.6175   19.1328  -33.3542 H   0  0  0  0  0  0  0  0  0  0  0  0
  -10.1291   18.9613  -31.6693 H   0  0  0  0  0  0  0  0  0  0  0  0
   -8.7498   21.2026  -32.9248 H   0  0  0  0  0  0  0  0  0  0  0  0
   -9.2870   21.0930  -31.2441 H   0  0  0  0  0  0  0  0  0  0  0  0
   -6.6149   21.0948  -32.0743 H   0  0  0  0  0  0  0  0  0  0  0  0
   -7.1704   20.4439  -30.5065 H   0  0  0  0  0  0  0  0  0  0  0  0
   -5.0743   21.7508  -33.3042 H   0  0  0  0  0  0  0  0  0  0  0  0
   -2.7454   22.6078  -33.0858 H   0  0  0  0  0  0  0  0  0  0  0  0
  1  2  2  0
  2  3  1  0
  3  4  1  0
  4  5  2  0
  5  6  1  0
  6  7  1  0
  7  8  2  0
  7  9  2  0
  7 10  1  0
 10 11  1  0
 11 12  1  0
 12 13  1  0
 13 14  1  0
  6 15  2  0
 15 16  1  0
 16 17  2  0
 17 18  1  0
  2 19  1  0
 19 20  2  0
 20 21  1  0
 21 22  2  0
 22 23  1  0
 23 24  2  0
 23 25  2  0
 23 26  1  0
 26 27  1  0
 27 28  1  0
 28 29  1  0
 29 30  1  0
 22 31  1  0
 31 32  2  0
 17  4  1  0
 32 19  1  0
 14 10  1  0
 30 26  1  0
  5 33  1  0
 11 34  1  0
 11 35  1  0
 12 36  1  0
 12 37  1  0
 13 38  1  0
 13 39  1  0
 14 40  1  0
 14 41  1  0
 15 42  1  0
 16 43  1  0
 18 44  1  0
 20 45  1  0
 21 46  1  0
 27 47  1  0
 27 48  1  0
 28 49  1  0
 28 50  1  0
 29 51  1  0
 29 52  1  0
 30 53  1  0
 30 54  1  0
 31 55  1  0
 32 56  1  0
M  CHG  1   3  -1
M  END
>  <UniqueID>  (5) 
5

>  <SMILES>  (5) 
O=C([N-]c1cc(S(=O)(=O)N2CCCC2)ccc1O)c1ccc(S(=O)(=O)N2CCCC2)cc1

>  <Energy>  (5) 
67.27516212922585

>  <Genealogy>  (5) 
O=C([N-]c1cc(S(=O)(=O)N2CCCC2)ccc1O)c1ccc(S(=O)(=O)N2CCCC2)cc1 (protonated)
O=C([N-]c1cc(S(=O)(=O)N2CCCC2)ccc1O)c1ccc(S(=O)(=O)N2CCCC2)cc1 (3D coordinates assigned)
O=C([N-]c1cc(S(=O)(=O)N2CCCC2)ccc1O)c1ccc(S(=O)(=O)N2CCCC2)cc1 (nonaromatic ring conformer: 67.27516212922585 kcal/mol)

>  <smiles>  (5) 
O=C(Nc1cc(S(=O)(=O)N2CCCC2)ccc1O)c1ccc(S(=O)(=O)N2CCCC2)cc1

>  <score_type>  (5) 
oracle

>  <origin>  (5) 
adgpu

>  <m_score__min__energy>  (5) 
-12.949999999999999

>  <m_primary>  (5) 
energy

$$$$
5:0
     RDKit          3D

 60 64  0  0  0  0  0  0  0  0999 V2000
   -9.1810   18.9720  -32.3180 C   0  0  0  0  0  0  0  0  0  0  0  0
   -8.0110   19.9270  -32.2810 C   0  0  0  0  0  0  0  0  0  0  0  0
   -8.1660   21.1610  -31.6310 C   0  0  0  0  0  0  0  0  0  0  0  0
   -7.0950   22.0500  -31.5590 C   0  0  0  0  0  0  0  0  0  0  0  0
   -7.2360   23.5810  -30.6410 S   0  0  0  0  0  0  0  0  0  0  0  0
   -5.9790   24.5190  -31.5820 C   0  0  0  0  0  0  0  0  0  0  0  0
   -5.1350   25.4740  -30.7680 C   0  0  0  0  0  0  0  0  0  0  0  0
   -5.6870   26.5190  -30.3270 O   0  0  0  0  0  0  0  0  0  0  0  0
   -3.7440   25.2660  -30.4630 N   0  0  0  0  0  0  0  0  0  0  0  0
   -3.1480   24.1850  -29.7360 C   0  0  0  0  0  0  0  0  0  0  0  0
   -3.7250   22.9130  -29.8330 C   0  0  0  0  0  0  0  0  0  0  0  0
   -3.2310   21.8530  -29.0680 C   0  0  0  0  0  0  0  0  0  0  0  0
   -2.1470   22.0560  -28.2040 C   0  0  0  0  0  0  0  0  0  0  0  0
   -1.6400   20.7700  -27.1060 S   0  0  0  0  0  0  0  0  0  0  0  0
   -1.1710   21.3740  -25.8100 O   0  0  0  0  0  0  0  0  0  0  0  0
   -2.8140   19.8770  -26.8080 O   0  0  0  0  0  0  0  0  0  0  0  0
   -0.3530   19.8160  -27.8090 N   0  0  0  0  0  0  0  0  0  0  0  0
   -0.5210   18.3890  -27.4710 C   0  0  0  0  0  0  0  0  0  0  0  0
    0.6310   17.5500  -28.0730 C   0  0  0  0  0  0  0  0  0  0  0  0
    1.3920   18.2680  -29.0360 O   0  0  0  0  0  0  0  0  0  0  0  0
    0.5270   18.8900  -29.9630 C   0  0  0  0  0  0  0  0  0  0  0  0
   -0.2960   20.0050  -29.2760 C   0  0  0  0  0  0  0  0  0  0  0  0
   -1.5170   23.3070  -28.1650 C   0  0  0  0  0  0  0  0  0  0  0  0
   -2.0060   24.3640  -28.9410 C   0  0  0  0  0  0  0  0  0  0  0  0
   -5.9010   21.7240  -32.1120 N   0  0  0  0  0  0  0  0  0  0  0  0
   -5.6970   20.5350  -32.7330 C   0  0  0  0  0  0  0  0  0  0  0  0
   -4.4300   20.2380  -33.2460 C   0  0  0  0  0  0  0  0  0  0  0  0
   -4.1870   18.9940  -33.8240 C   0  0  0  0  0  0  0  0  0  0  0  0
   -5.2220   18.0590  -33.9420 C   0  0  0  0  0  0  0  0  0  0  0  0
   -6.4940   18.3440  -33.4390 C   0  0  0  0  0  0  0  0  0  0  0  0
   -6.7480   19.5890  -32.8250 C   0  0  0  0  0  0  0  0  0  0  0  0
   -4.9630   16.8310  -34.5610 O   0  0  0  0  0  0  0  0  0  0  0  0
   -3.7550   16.6160  -35.3000 C   0  0  0  0  0  0  0  0  0  0  0  0
   -2.5770   17.3060  -34.6060 C   0  0  0  0  0  0  0  0  0  0  0  0
   -2.9120   18.6580  -34.2900 O   0  0  0  0  0  0  0  0  0  0  0  0
   -9.4846   18.7242  -31.2902 H   0  0  0  0  0  0  0  0  0  0  0  0
  -10.0231   19.4440  -32.8454 H   0  0  0  0  0  0  0  0  0  0  0  0
   -8.8872   18.0525  -32.8454 H   0  0  0  0  0  0  0  0  0  0  0  0
   -9.1327   21.4266  -31.1783 H   0  0  0  0  0  0  0  0  0  0  0  0
   -5.3042   23.7946  -32.0614 H   0  0  0  0  0  0  0  0  0  0  0  0
   -6.5385   25.1427  -32.2947 H   0  0  0  0  0  0  0  0  0  0  0  0
   -4.5719   22.7471  -30.5151 H   0  0  0  0  0  0  0  0  0  0  0  0
   -3.6938   20.8580  -29.1443 H   0  0  0  0  0  0  0  0  0  0  0  0
    0.5410   20.1570  -27.3880 H   0  0  0  0  0  0  0  0  0  0  0  0
   -0.5195   18.2735  -26.3771 H   0  0  0  0  0  0  0  0  0  0  0  0
   -1.4749   18.0345  -27.8886 H   0  0  0  0  0  0  0  0  0  0  0  0
    1.3007   17.2373  -27.2583 H   0  0  0  0  0  0  0  0  0  0  0  0
    0.1794   16.6873  -28.5847 H   0  0  0  0  0  0  0  0  0  0  0  0
    1.1238   19.3297  -30.7757 H   0  0  0  0  0  0  0  0  0  0  0  0
   -0.1647   18.1349  -30.3646 H   0  0  0  0  0  0  0  0  0  0  0  0
    0.1701   20.9775  -29.4926 H   0  0  0  0  0  0  0  0  0  0  0  0
   -1.3231   19.9652  -29.6679 H   0  0  0  0  0  0  0  0  0  0  0  0
   -0.6365   23.4585  -27.5233 H   0  0  0  0  0  0  0  0  0  0  0  0
   -1.4938   25.3374  -28.9276 H   0  0  0  0  0  0  0  0  0  0  0  0
   -3.6257   20.9866  -33.1930 H   0  0  0  0  0  0  0  0  0  0  0  0
   -7.2978   17.5976  -33.5216 H   0  0  0  0  0  0  0  0  0  0  0  0
   -3.5563   15.5360  -35.3642 H   0  0  0  0  0  0  0  0  0  0  0  0
   -3.8729   17.0382  -36.3089 H   0  0  0  0  0  0  0  0  0  0  0  0
   -2.3347   16.7658  -33.6789 H   0  0  0  0  0  0  0  0  0  0  0  0
   -1.7095   17.3005  -35.2824 H   0  0  0  0  0  0  0  0  0  0  0  0
  1  2  1  0
  2  3  2  0
  3  4  1  0
  4  5  1  0
  5  6  1  0
  6  7  1  0
  7  8  2  0
  7  9  1  0
  9 10  1  0
 10 11  2  0
 11 12  1  0
 12 13  2  0
 13 14  1  0
 14 15  2  0
 14 16  2  0
 14 17  1  0
 17 18  1  0
 18 19  1  0
 19 20  1  0
 20 21  1  0
 21 22  1  0
 13 23  1  0
 23 24  2  0
  4 25  2  0
 25 26  1  0
 26 27  2  0
 27 28  1  0
 28 29  2  0
 29 30  1  0
 30 31  2  0
 29 32  1  0
 32 33  1  0
 33 34  1  0
 34 35  1  0
 31  2  1  0
 24 10  1  0
 31 26  1  0
 22 17  1  0
 35 28  1  0
  1 36  1  0
  1 37  1  0
  1 38  1  0
  3 39  1  0
  6 40  1  0
  6 41  1  0
 11 42  1  0
 12 43  1  0
 17 44  1  0
 18 45  1  0
 18 46  1  0
 19 47  1  0
 19 48  1  0
 21 49  1  0
 21 50  1  0
 22 51  1  0
 22 52  1  0
 23 53  1  0
 24 54  1  0
 27 55  1  0
 30 56  1  0
 33 57  1  0
 33 58  1  0
 34 59  1  0
 34 60  1  0
M  CHG  2   9  -1  17   1
M  END
>  <UniqueID>  (6) 
6

>  <SMILES>  (6) 
Cc1cc(SCC(=O)[N-]c2ccc(S(=O)(=O)[NH+]3CCOCC3)cc2)nc2cc3c(cc12)OCCO3

>  <Energy>  (6) 
79.4157968860785

>  <Genealogy>  (6) 
Cc1cc(SCC(=O)[N-]c2ccc(S(=O)(=O)[NH+]3CCOCC3)cc2)nc2cc3c(cc12)OCCO3 (protonated)
Cc1cc(SCC(=O)[N-]c2ccc(S(=O)(=O)[NH+]3CCOCC3)cc2)nc2cc3c(cc12)OCCO3 (3D coordinates assigned)
Cc1cc(SCC(=O)[N-]c2ccc(S(=O)(=O)[NH+]3CCOCC3)cc2)nc2cc3c(cc12)OCCO3 (nonaromatic ring conformer: 79.4157968860785 kcal/mol)

>  <smiles>  (6) 
Cc1cc(SCC(=O)Nc2ccc(S(=O)(=O)N3CCOCC3)cc2)nc2cc3c(cc12)OCCO3

>  <score_type>  (6) 
oracle

>  <origin>  (6) 
adgpu

>  <m_score__min__energy>  (6) 
-12.81

>  <m_primary>  (6) 
energy

$$$$
6:0
     RDKit          3D

 67 71  0  0  0  0  0  0  0  0999 V2000
   -1.3680   24.3030  -28.3130 C   0  0  0  0  0  0  0  0  0  0  0  0
   -1.5570   23.2240  -29.3470 C   0  0  0  0  0  0  0  0  0  0  0  0
   -0.4570   22.4020  -29.6460 C   0  0  0  0  0  0  0  0  0  0  0  0
   -0.5270   21.4480  -30.6600 C   0  0  0  0  0  0  0  0  0  0  0  0
   -1.6960   21.2990  -31.4060 C   0  0  0  0  0  0  0  0  0  0  0  0
   -1.7320   20.1720  -32.7620 S   0  0  0  0  0  0  0  0  0  0  0  0
   -2.5800   20.7680  -33.8510 O   0  0  0  0  0  0  0  0  0  0  0  0
   -2.3620   18.8790  -32.3230 O   0  0  0  0  0  0  0  0  0  0  0  0
   -0.1100   19.8860  -33.3610 N   0  0  0  0  0  0  0  0  0  0  0  0
    0.6150   21.1490  -33.5390 C   0  0  0  0  0  0  0  0  0  0  0  0
    0.3590   21.6180  -34.9600 C   0  0  0  0  0  0  0  0  0  0  0  0
    0.0390   20.3530  -35.7370 C   0  0  0  0  0  0  0  0  0  0  0  0
   -0.1410   19.2540  -34.6880 C   0  0  0  0  0  0  0  0  0  0  0  0
   -2.8100   22.0910  -31.1040 C   0  0  0  0  0  0  0  0  0  0  0  0
   -2.7540   23.0720  -30.0960 C   0  0  0  0  0  0  0  0  0  0  0  0
   -4.1890   24.0980  -29.8810 S   0  0  0  0  0  0  0  0  0  0  0  0
   -3.8660   25.4530  -30.4510 O   0  0  0  0  0  0  0  0  0  0  0  0
   -4.5060   24.2910  -28.4240 O   0  0  0  0  0  0  0  0  0  0  0  0
   -5.5500   23.3950  -30.7370 N   0  0  0  0  0  0  0  0  0  0  0  0
   -6.4480   22.6830  -29.8010 C   0  0  0  0  0  0  0  0  0  0  0  0
   -7.8020   22.3050  -30.4460 C   0  0  0  0  0  0  0  0  0  0  0  0
   -7.7430   22.3520  -31.9850 C   0  0  0  0  0  0  0  0  0  0  0  0
   -6.8220   21.2660  -32.5300 C   0  0  0  0  0  0  0  0  0  0  0  0
   -5.6840   21.5820  -32.9720 O   0  0  0  0  0  0  0  0  0  0  0  0
   -7.1980   19.8810  -32.5530 N   0  0  0  0  0  0  0  0  0  0  0  0
   -8.3730   19.3600  -31.8550 C   0  0  0  0  0  0  0  0  0  0  0  0
   -8.3060   17.8230  -32.0030 C   0  0  0  0  0  0  0  0  0  0  0  0
   -7.1320   17.6140  -32.8980 C   0  0  0  0  0  0  0  0  0  0  0  0
   -6.6250   16.4090  -33.3860 C   0  0  0  0  0  0  0  0  0  0  0  0
   -5.4990   16.4440  -34.2240 C   0  0  0  0  0  0  0  0  0  0  0  0
   -4.9100   17.6750  -34.5680 C   0  0  0  0  0  0  0  0  0  0  0  0
   -5.4290   18.8740  -34.0560 C   0  0  0  0  0  0  0  0  0  0  0  0
   -6.5370   18.8070  -33.2030 C   0  0  0  0  0  0  0  0  0  0  0  0
   -7.3370   23.7900  -32.4120 C   0  0  0  0  0  0  0  0  0  0  0  0
   -6.2850   24.4300  -31.4840 C   0  0  0  0  0  0  0  0  0  0  0  0
   -1.4448   23.8644  -27.3071 H   0  0  0  0  0  0  0  0  0  0  0  0
   -0.3759   24.7613  -28.4384 H   0  0  0  0  0  0  0  0  0  0  0  0
   -2.1453   25.0712  -28.4384 H   0  0  0  0  0  0  0  0  0  0  0  0
    0.4740   22.5132  -29.0708 H   0  0  0  0  0  0  0  0  0  0  0  0
    0.3435   20.8100  -30.8727 H   0  0  0  0  0  0  0  0  0  0  0  0
    0.3900   19.2740  -32.6740 H   0  0  0  0  0  0  0  0  0  0  0  0
    0.2473   21.8986  -32.8228 H   0  0  0  0  0  0  0  0  0  0  0  0
    1.6917   21.0091  -33.3623 H   0  0  0  0  0  0  0  0  0  0  0  0
   -0.4906   22.3161  -34.9901 H   0  0  0  0  0  0  0  0  0  0  0  0
    1.2217   22.1554  -35.3806 H   0  0  0  0  0  0  0  0  0  0  0  0
   -0.8862   20.4837  -36.3175 H   0  0  0  0  0  0  0  0  0  0  0  0
    0.8373   20.1039  -36.4516 H   0  0  0  0  0  0  0  0  0  0  0  0
   -1.1061   18.7482  -34.8385 H   0  0  0  0  0  0  0  0  0  0  0  0
    0.6612   18.5064  -34.7750 H   0  0  0  0  0  0  0  0  0  0  0  0
   -3.7453   21.9443  -31.6640 H   0  0  0  0  0  0  0  0  0  0  0  0
   -5.9485   21.7622  -29.4655 H   0  0  0  0  0  0  0  0  0  0  0  0
   -6.6575   23.3608  -28.9603 H   0  0  0  0  0  0  0  0  0  0  0  0
   -8.0724   21.2860  -30.1322 H   0  0  0  0  0  0  0  0  0  0  0  0
   -8.5525   23.0370  -30.1129 H   0  0  0  0  0  0  0  0  0  0  0  0
   -8.7288   22.1344  -32.4219 H   0  0  0  0  0  0  0  0  0  0  0  0
   -8.3441   19.6438  -30.7926 H   0  0  0  0  0  0  0  0  0  0  0  0
   -9.3053   19.7661  -32.2745 H   0  0  0  0  0  0  0  0  0  0  0  0
   -8.1484   17.3399  -31.0274 H   0  0  0  0  0  0  0  0  0  0  0  0
   -9.2342   17.3888  -32.4030 H   0  0  0  0  0  0  0  0  0  0  0  0
   -7.0975   15.4520  -33.1198 H   0  0  0  0  0  0  0  0  0  0  0  0
   -5.0758   15.5061  -34.6130 H   0  0  0  0  0  0  0  0  0  0  0  0
   -4.0398   17.6974  -35.2405 H   0  0  0  0  0  0  0  0  0  0  0  0
   -4.9768   19.8418  -34.3182 H   0  0  0  0  0  0  0  0  0  0  0  0
   -6.9239   23.7478  -33.4306 H   0  0  0  0  0  0  0  0  0  0  0  0
   -8.2417   24.4132  -32.3559 H   0  0  0  0  0  0  0  0  0  0  0  0
   -5.5743   25.0107  -32.0904 H   0  0  0  0  0  0  0  0  0  0  0  0
   -6.7994   25.0856  -30.7660 H   0  0  0  0  0  0  0  0  0  0  0  0
  1  2  1  0
  2  3  2  0
  3  4  1  0
  4  5  2  0
  5  6  1  0
  6  7  2  0
  6  8  2  0
  6  9  1  0
  9 10  1  0
 10 11  1  0
 11 12  1  0
 12 13  1  0
  5 14  1  0
 14 15  2  0
 15 16  1  0
 16 17  2  0
 16 18  2  0
 16 19  1  0
 19 20  1  0
 20 21  1  0
 21 22  1  0
 22 23  1  0
 23 24  2  0
 23 25  1  0
 25 26  1  0
 26 27  1  0
 27 28  1  0
 28 29  2  0
 29 30  1  0
 30 31  2  0
 31 32  1  0
 32 33  2  0
 22 34  1  0
 34 35  1  0
 15  2  1  0
 35 19  1  0
 13  9  1  0
 33 25  1  0
 33 28  1  0
  1 36  1  0
  1 37  1  0
  1 38  1  0
  3 39  1  0
  4 40  1  0
  9 41  1  0
 10 42  1  0
 10 43  1  0
 11 44  1  0
 11 45  1  0
 12 46  1  0
 12 47  1  0
 13 48  1  0
 13 49  1  0
 14 50  1  0
 20 51  1  0
 20 52  1  0
 21 53  1  0
 21 54  1  0
 22 55  1  0
 26 56  1  0
 26 57  1  0
 27 58  1  0
 27 59  1  0
 29 60  1  0
 30 61  1  0
 31 62  1  0
 32 63  1  0
 34 64  1  0
 34 65  1  0
 35 66  1  0
 35 67  1  0
M  CHG  1   9   1
M  END
>  <UniqueID>  (7) 
7

>  <SMILES>  (7) 
Cc1ccc(S(=O)(=O)[NH+]2CCCC2)cc1S(=O)(=O)N1CCC(C(=O)N2CCc3ccccc32)CC1

>  <Energy>  (7) 
99.26783795122769

>  <Genealogy>  (7) 
Cc1ccc(S(=O)(=O)[NH+]2CCCC2)cc1S(=O)(=O)N1CCC(C(=O)N2CCc3ccccc32)CC1 (protonated)
Cc1ccc(S(=O)(=O)[NH+]2CCCC2)cc1S(=O)(=O)N1CCC(C(=O)N2CCc3ccccc32)CC1 (3D coordinates assigned)
Cc1ccc(S(=O)(=O)[NH+]2CCCC2)cc1S(=O)(=O)N1CCC(C(=O)N2CCc3ccccc32)CC1 (nonaromatic ring conformer: 99.26783795122769 kcal/mol)

>  <smiles>  (7) 
Cc1ccc(S(=O)(=O)N2CCCC2)cc1S(=O)(=O)N1CCC(C(=O)N2CCc3ccccc32)CC1

>  <score_type>  (7) 
oracle

>  <origin>  (7) 
adgpu

>  <m_score__min__energy>  (7) 
-11.140000000000001

>  <m_primary>  (7) 
energy

$$$$
7:0
     RDKit          3D

 36 38  0  0  0  0  0  0  0  0999 V2000
   -9.0780   20.0560  -32.3770 C   0  0  0  0  0  0  0  0  0  0  0  0
   -7.3030   19.9680  -32.4370 S   0  0  0  0  0  0  0  0  0  0  0  0
   -6.8620   19.6520  -33.8390 O   0  0  0  0  0  0  0  0  0  0  0  0
   -6.8190   18.8790  -31.5210 O   0  0  0  0  0  0  0  0  0  0  0  0
   -6.6340   21.5130  -31.9280 C   0  0  0  0  0  0  0  0  0  0  0  0
   -5.2500   21.7240  -31.9730 C   0  0  0  0  0  0  0  0  0  0  0  0
   -4.7050   22.9190  -31.5000 C   0  0  0  0  0  0  0  0  0  0  0  0
   -5.5380   23.9170  -30.9720 C   0  0  0  0  0  0  0  0  0  0  0  0
   -4.9400   25.1230  -30.2970 C   0  0  0  0  0  0  0  0  0  0  0  0
   -3.4880   25.1100  -30.4480 N   0  0  0  0  0  0  0  0  0  0  0  0
   -2.6260   24.8120  -29.3470 C   0  0  0  0  0  0  0  0  0  0  0  0
   -1.8070   25.6850  -28.9530 O   0  0  0  0  0  0  0  0  0  0  0  0
   -2.6510   23.4720  -28.7190 C   0  0  0  0  0  0  0  0  0  0  0  0
   -3.7950   23.0340  -27.9920 C   0  0  0  0  0  0  0  0  0  0  0  0
   -3.8550   21.7700  -27.4750 N   0  0  0  0  0  0  0  0  0  0  0  0
   -2.8010   20.9400  -27.6610 C   0  0  0  0  0  0  0  0  0  0  0  0
   -2.6880   19.6720  -27.2470 N   0  0  0  0  0  0  0  0  0  0  0  0
   -1.5060   19.2150  -27.6510 N   0  0  0  0  0  0  0  0  0  0  0  0
   -0.8690   20.2070  -28.3260 C   0  0  0  0  0  0  0  0  0  0  0  0
   -1.6870   21.3150  -28.3380 C   0  0  0  0  0  0  0  0  0  0  0  0
   -1.5630   22.5840  -28.8850 C   0  0  0  0  0  0  0  0  0  0  0  0
   -6.9260   23.7100  -30.9410 C   0  0  0  0  0  0  0  0  0  0  0  0
   -7.4700   22.5140  -31.4160 C   0  0  0  0  0  0  0  0  0  0  0  0
   -9.4091   20.0724  -31.3281 H   0  0  0  0  0  0  0  0  0  0  0  0
   -9.4170   20.9721  -32.8829 H   0  0  0  0  0  0  0  0  0  0  0  0
   -9.5060   19.1780  -32.8829 H   0  0  0  0  0  0  0  0  0  0  0  0
   -4.5901   20.9451  -32.3826 H   0  0  0  0  0  0  0  0  0  0  0  0
   -3.6175   23.0790  -31.5414 H   0  0  0  0  0  0  0  0  0  0  0  0
   -5.3460   26.0364  -30.7562 H   0  0  0  0  0  0  0  0  0  0  0  0
   -5.1923   25.1003  -29.2266 H   0  0  0  0  0  0  0  0  0  0  0  0
   -4.6409   23.7216  -27.8448 H   0  0  0  0  0  0  0  0  0  0  0  0
   -3.3910   19.1180  -26.7100 H   0  0  0  0  0  0  0  0  0  0  0  0
    0.1286   20.1373  -28.7842 H   0  0  0  0  0  0  0  0  0  0  0  0
   -0.6546   22.8873  -29.4262 H   0  0  0  0  0  0  0  0  0  0  0  0
   -7.5879   24.4924  -30.5412 H   0  0  0  0  0  0  0  0  0  0  0  0
   -8.5585   22.3577  -31.3879 H   0  0  0  0  0  0  0  0  0  0  0  0
  1  2  1  0
  2  3  2  0
  2  4  2  0
  2  5  1  0
  5  6  2  0
  6  7  1  0
  7  8  2  0
  8  9  1  0
  9 10  1  0
 10 11  1  0
 11 12  2  0
 11 13  1  0
 13 14  2  0
 14 15  1  0
 15 16  2  0
 16 17  1  0
 17 18  1  0
 18 19  2  0
 19 20  1  0
 20 21  2  0
  8 22  1  0
 22 23  2  0
 23  5  1  0
 21 13  1  0
 20 16  1  0
  1 24  1  0
  1 25  1  0
  1 26  1  0
  6 27  1  0
  7 28  1  0
  9 29  1  0
  9 30  1  0
 14 31  1  0
 17 32  1  0
 19 33  1  0
 21 34  1  0
 22 35  1  0
 23 36  1  0
M  CHG  1  10  -1
M  END
>  <UniqueID>  (8) 
8

>  <SMILES>  (8) 
CS(=O)(=O)c1ccc(C[N-]C(=O)c2cnc3[nH]ncc3c2)cc1

>  <Energy>  (8) 
80.14000378510181

>  <Genealogy>  (8) 
CS(=O)(=O)c1ccc(C[N-]C(=O)c2cnc3[nH]ncc3c2)cc1 (protonated)
CS(=O)(=O)c1ccc(C[N-]C(=O)c2cnc3[nH]ncc3c2)cc1 (3D coordinates assigned)
CS(=O)(=O)c1ccc(C[N-]C(=O)c2cnc3[nH]ncc3c2)cc1 (optimized conformer: 80.14000378510181 kcal/mol)

>  <smiles>  (8) 
CS(=O)(=O)c1ccc(CNC(=O)c2cnc3[nH]ncc3c2)cc1

>  <score_type>  (8) 
oracle

>  <origin>  (8) 
adgpu

>  <m_score__min__energy>  (8) 
-9.9299999999999997

>  <m_primary>  (8) 
energy

$$$$
8:0
     RDKit          3D

 33 34  0  0  0  0  0  0  0  0999 V2000
   -8.9850   19.0150  -32.3790 C   0  0  0  0  0  0  0  0  0  0  0  0
   -8.2180   18.0570  -31.5830 N   0  0  0  0  0  0  0  0  0  0  0  0
   -6.7950   17.5550  -32.4520 S   0  0  0  0  0  0  0  0  0  0  0  0
   -7.2430   16.8970  -33.7270 O   0  0  0  0  0  0  0  0  0  0  0  0
   -6.0580   16.5450  -31.6170 O   0  0  0  0  0  0  0  0  0  0  0  0
   -5.6860   18.9010  -32.8140 C   0  0  0  0  0  0  0  0  0  0  0  0
   -5.9760   20.1820  -32.3120 C   0  0  0  0  0  0  0  0  0  0  0  0
   -5.1390   21.2830  -32.5780 C   0  0  0  0  0  0  0  0  0  0  0  0
   -5.4810   22.6340  -32.0540 C   0  0  0  0  0  0  0  0  0  0  0  0
   -4.5620   23.3430  -31.4620 N   0  0  0  0  0  0  0  0  0  0  0  0
   -4.7840   24.5950  -30.7990 C   0  0  0  0  0  0  0  0  0  0  0  0
   -3.7910   25.3020  -30.4820 O   0  0  0  0  0  0  0  0  0  0  0  0
   -6.1650   25.0780  -30.4460 C   0  0  0  0  0  0  0  0  0  0  0  0
   -7.2020   23.9660  -30.5700 C   0  0  0  0  0  0  0  0  0  0  0  0
   -7.1490   23.3030  -32.2590 S   0  0  0  0  0  0  0  0  0  0  0  0
   -3.9870   21.0770  -33.3540 C   0  0  0  0  0  0  0  0  0  0  0  0
   -3.6680   19.8070  -33.8280 C   0  0  0  0  0  0  0  0  0  0  0  0
   -4.4900   18.7050  -33.5500 C   0  0  0  0  0  0  0  0  0  0  0  0
   -4.0790   17.3530  -34.0690 C   0  0  0  0  0  0  0  0  0  0  0  0
   -9.5300   19.6957  -31.7084 H   0  0  0  0  0  0  0  0  0  0  0  0
   -8.2998   19.5962  -33.0136 H   0  0  0  0  0  0  0  0  0  0  0  0
   -9.7020   18.4735  -33.0136 H   0  0  0  0  0  0  0  0  0  0  0  0
   -7.9260   18.5120  -30.6890 H   0  0  0  0  0  0  0  0  0  0  0  0
   -6.8768   20.3275  -31.6977 H   0  0  0  0  0  0  0  0  0  0  0  0
   -6.1595   25.4460  -29.4094 H   0  0  0  0  0  0  0  0  0  0  0  0
   -6.4372   25.8797  -31.1482 H   0  0  0  0  0  0  0  0  0  0  0  0
   -6.9734   23.1654  -29.8511 H   0  0  0  0  0  0  0  0  0  0  0  0
   -8.2048   24.3643  -30.3560 H   0  0  0  0  0  0  0  0  0  0  0  0
   -3.3300   21.9272  -33.5898 H   0  0  0  0  0  0  0  0  0  0  0  0
   -2.7578   19.6660  -34.4294 H   0  0  0  0  0  0  0  0  0  0  0  0
   -3.8749   16.6816  -33.2219 H   0  0  0  0  0  0  0  0  0  0  0  0
   -4.8902   16.9335  -34.6822 H   0  0  0  0  0  0  0  0  0  0  0  0
   -3.1716   17.4560  -34.6822 H   0  0  0  0  0  0  0  0  0  0  0  0
  1  2  1  0
  2  3  1  0
  3  4  2  0
  3  5  2  0
  3  6  1  0
  6  7  2  0
  7  8  1  0
  8  9  1  0
  9 10  2  0
 10 11  1  0
 11 12  2  0
 11 13  1  0
 13 14  1  0
 14 15  1  0
  8 16  2  0
 16 17  1  0
 17 18  2  0
 18 19  1  0
 18  6  1  0
 15  9  1  0
  1 20  1  0
  1 21  1  0
  1 22  1  0
  2 23  1  0
  7 24  1  0
 13 25  1  0
 13 26  1  0
 14 27  1  0
 14 28  1  0
 16 29  1  0
 17 30  1  0
 19 31  1  0
 19 32  1  0
 19 33  1  0
M  END
>  <UniqueID>  (9) 
9

>  <SMILES>  (9) 
CNS(=O)(=O)c1cc(C2=NC(=O)CCS2)ccc1C

>  <Energy>  (9) 
38.273969070811475

>  <Genealogy>  (9) 
CNS(=O)(=O)c1cc(C2=NC(=O)CCS2)ccc1C (3D coordinates assigned)
CNS(=O)(=O)c1cc(C2=NC(=O)CCS2)ccc1C (nonaromatic ring conformer: 38.273969070811475 kcal/mol)

>  <smiles>  (9) 
CNS(=O)(=O)c1cc(C2=NC(=O)CCS2)ccc1C

>  <score_type>  (9) 
oracle

>  <origin>  (9) 
adgpu

>  <m_score__min__energy>  (9) 
-8.6799999999999997

>  <m_primary>  (9) 
energy

$$$$
9:0
     RDKit          3D

 60 63  0  0  0  0  0  0  0  0999 V2000
   -6.5320   16.1520  -33.2880 N   0  0  0  0  0  0  0  0  0  0  0  0
   -6.7180   17.5170  -32.8940 C   0  0  0  0  0  0  0  0  0  0  0  0
   -7.9720   17.9120  -32.4040 C   0  0  0  0  0  0  0  0  0  0  0  0
   -8.1950   19.2290  -31.9970 C   0  0  0  0  0  0  0  0  0  0  0  0
   -7.1720   20.1840  -32.0920 C   0  0  0  0  0  0  0  0  0  0  0  0
   -7.3920   21.5720  -31.6340 C   0  0  0  0  0  0  0  0  0  0  0  0
   -8.2390   21.8190  -30.7360 O   0  0  0  0  0  0  0  0  0  0  0  0
   -6.6480   22.6530  -32.2020 N   0  0  0  0  0  0  0  0  0  0  0  0
   -5.6050   23.3150  -31.4810 C   0  0  0  0  0  0  0  0  0  0  0  0
   -5.7220   24.6740  -31.1760 C   0  0  0  0  0  0  0  0  0  0  0  0
   -4.7040   25.3260  -30.4750 C   0  0  0  0  0  0  0  0  0  0  0  0
   -3.5570   24.6220  -30.0890 C   0  0  0  0  0  0  0  0  0  0  0  0
   -2.5560   25.2940  -29.3940 O   0  0  0  0  0  0  0  0  0  0  0  0
   -3.4170   23.2570  -30.4090 C   0  0  0  0  0  0  0  0  0  0  0  0
   -1.9410   22.3830  -29.9480 S   0  0  0  0  0  0  0  0  0  0  0  0
   -1.1020   23.3000  -29.0980 O   0  0  0  0  0  0  0  0  0  0  0  0
   -1.1740   22.0650  -31.2060 O   0  0  0  0  0  0  0  0  0  0  0  0
   -2.1990   20.9060  -29.0370 N   0  0  0  0  0  0  0  0  0  0  0  0
   -2.8040   21.1280  -27.7170 C   0  0  0  0  0  0  0  0  0  0  0  0
   -3.1170   19.7750  -27.0790 C   0  0  0  0  0  0  0  0  0  0  0  0
   -1.8310   18.9780  -26.7990 C   0  0  0  0  0  0  0  0  0  0  0  0
   -0.6580   19.3480  -27.7290 C   0  0  0  0  0  0  0  0  0  0  0  0
   -1.0760   19.9380  -29.0970 C   0  0  0  0  0  0  0  0  0  0  0  0
   -4.4430   22.6190  -31.1200 C   0  0  0  0  0  0  0  0  0  0  0  0
   -5.9150   19.7940  -32.5810 C   0  0  0  0  0  0  0  0  0  0  0  0
   -5.6740   18.4670  -32.9770 C   0  0  0  0  0  0  0  0  0  0  0  0
   -4.0420   18.0150  -33.4940 S   0  0  0  0  0  0  0  0  0  0  0  0
   -3.6980   16.6730  -32.9140 O   0  0  0  0  0  0  0  0  0  0  0  0
   -3.9870   17.9340  -34.9940 O   0  0  0  0  0  0  0  0  0  0  0  0
   -2.8960   19.2110  -32.9610 N   0  0  0  0  0  0  0  0  0  0  0  0
   -1.8110   19.7140  -33.7500 C   0  0  0  0  0  0  0  0  0  0  0  0
   -1.5110   21.0840  -33.7880 C   0  0  0  0  0  0  0  0  0  0  0  0
   -0.4550   21.5520  -34.5780 C   0  0  0  0  0  0  0  0  0  0  0  0
    0.3160   20.6540  -35.3190 C   0  0  0  0  0  0  0  0  0  0  0  0
    0.0450   19.2860  -35.2620 C   0  0  0  0  0  0  0  0  0  0  0  0
   -1.0140   18.8100  -34.4750 C   0  0  0  0  0  0  0  0  0  0  0  0
   -1.2890   17.4450  -34.4210 O   0  0  0  0  0  0  0  0  0  0  0  0
   -7.3570   15.5430  -33.4920 H   0  0  0  0  0  0  0  0  0  0  0  0
   -5.5870   15.7310  -33.4120 H   0  0  0  0  0  0  0  0  0  0  0  0
   -8.7877   17.1768  -32.3398 H   0  0  0  0  0  0  0  0  0  0  0  0
   -9.1787   19.5193  -31.5995 H   0  0  0  0  0  0  0  0  0  0  0  0
   -6.6173   25.2315  -31.4884 H   0  0  0  0  0  0  0  0  0  0  0  0
   -4.8039   26.3929  -30.2264 H   0  0  0  0  0  0  0  0  0  0  0  0
   -2.1016   21.6833  -27.0781 H   0  0  0  0  0  0  0  0  0  0  0  0
   -3.7307   21.7106  -27.8262 H   0  0  0  0  0  0  0  0  0  0  0  0
   -3.6495   19.9406  -26.1308 H   0  0  0  0  0  0  0  0  0  0  0  0
   -3.7384   19.1967  -27.7786 H   0  0  0  0  0  0  0  0  0  0  0  0
   -1.5238   19.1681  -25.7600 H   0  0  0  0  0  0  0  0  0  0  0  0
   -2.0634   17.9183  -26.9805 H   0  0  0  0  0  0  0  0  0  0  0  0
   -0.0329   20.0912  -27.2124 H   0  0  0  0  0  0  0  0  0  0  0  0
   -0.1266   18.4096  -27.9457 H   0  0  0  0  0  0  0  0  0  0  0  0
   -0.2044   20.4506  -29.5299 H   0  0  0  0  0  0  0  0  0  0  0  0
   -1.4269   19.0921  -29.7064 H   0  0  0  0  0  0  0  0  0  0  0  0
   -4.3350   21.5601  -31.3978 H   0  0  0  0  0  0  0  0  0  0  0  0
   -5.1075   20.5373  -32.6553 H   0  0  0  0  0  0  0  0  0  0  0  0
   -2.1078   21.7926  -33.1949 H   0  0  0  0  0  0  0  0  0  0  0  0
   -0.2320   22.6285  -34.6153 H   0  0  0  0  0  0  0  0  0  0  0  0
    1.1381   21.0253  -35.9485 H   0  0  0  0  0  0  0  0  0  0  0  0
    0.6632   18.5797  -35.8355 H   0  0  0  0  0  0  0  0  0  0  0  0
   -2.1900   17.0990  -34.0990 H   0  0  0  0  0  0  0  0  0  0  0  0
  1  2  1  0
  2  3  2  0
  3  4  1  0
  4  5  2  0
  5  6  1  0
  6  7  2  0
  6  8  1  0
  8  9  1  0
  9 10  2  0
 10 11  1  0
 11 12  2  0
 12 13  1  0
 12 14  1  0
 14 15  1  0
 15 16  2  0
 15 17  2  0
 15 18  1  0
 18 19  1  0
 19 20  1  0
 20 21  1  0
 21 22  1  0
 22 23  1  0
 14 24  2  0
  5 25  1  0
 25 26  2  0
 26 27  1  0
 27 28  2  0
 27 29  2  0
 27 30  1  0
 30 31  1  0
 31 32  2  0
 32 33  1  0
 33 34  2  0
 34 35  1  0
 35 36  2  0
 36 37  1  0
 26  2  1  0
 36 31  1  0
 24  9  1  0
 23 18  1  0
  1 38  1  0
  1 39  1  0
  3 40  1  0
  4 41  1  0
 10 42  1  0
 11 43  1  0
 19 44  1  0
 19 45  1  0
 20 46  1  0
 20 47  1  0
 21 48  1  0
 21 49  1  0
 22 50  1  0
 22 51  1  0
 23 52  1  0
 23 53  1  0
 24 54  1  0
 25 55  1  0
 32 56  1  0
 33 57  1  0
 34 58  1  0
 35 59  1  0
 37 60  1  0
M  CHG  3   8  -1  13  -1  30  -1
M  END
>  <UniqueID>  (10) 
10

>  <SMILES>  (10) 
Nc1ccc(C(=O)[N-]c2ccc([O-])c(S(=O)(=O)N3CCCCC3)c2)cc1S(=O)(=O)[N-]c1ccccc1O

>  <Energy>  (10) 
88.00779481102799

>  <Genealogy>  (10) 
Nc1ccc(C(=O)[N-]c2ccc([O-])c(S(=O)(=O)N3CCCCC3)c2)cc1S(=O)(=O)[N-]c1ccccc1O (protonated)
Nc1ccc(C(=O)[N-]c2ccc([O-])c(S(=O)(=O)N3CCCCC3)c2)cc1S(=O)(=O)[N-]c1ccccc1O (3D coordinates assigned)
Nc1ccc(C(=O)[N-]c2ccc([O-])c(S(=O)(=O)N3CCCCC3)c2)cc1S(=O)(=O)[N-]c1ccccc1O (nonaromatic ring conformer: 88.00779481102799 kcal/mol)

>  <smiles>  (10) 
Nc1ccc(C(=O)Nc2ccc(O)c(S(=O)(=O)N3CCCCC3)c2)cc1S(=O)(=O)Nc1ccccc1O

>  <score_type>  (10) 
oracle

>  <origin>  (10) 
adgpu

>  <m_score__min__energy>  (10) 
-12.9

>  <m_primary>  (10) 
energy

$$$$
10:0
     RDKit          3D

 50 53  0  0  0  0  0  0  0  0999 V2000
   -1.0950   22.3230  -30.6490 N   0  0  0  0  0  0  0  0  0  0  0  0
   -1.6960   20.8390  -29.9980 S   0  0  0  0  0  0  0  0  0  0  0  0
   -2.0270   21.0180  -28.5430 O   0  0  0  0  0  0  0  0  0  0  0  0
   -2.9440   20.4520  -30.7400 O   0  0  0  0  0  0  0  0  0  0  0  0
   -0.4680   19.5800  -30.1700 C   0  0  0  0  0  0  0  0  0  0  0  0
   -0.3820   18.5560  -29.2130 C   0  0  0  0  0  0  0  0  0  0  0  0
    0.5910   17.5610  -29.3260 C   0  0  0  0  0  0  0  0  0  0  0  0
    1.4840   17.5760  -30.3960 C   0  0  0  0  0  0  0  0  0  0  0  0
    1.4080   18.5870  -31.3560 C   0  0  0  0  0  0  0  0  0  0  0  0
    0.4380   19.6030  -31.2500 C   0  0  0  0  0  0  0  0  0  0  0  0
    0.3540   20.6650  -32.2140 N   0  0  0  0  0  0  0  0  0  0  0  0
   -0.6420   20.6610  -33.6340 S   0  0  0  0  0  0  0  0  0  0  0  0
   -1.4780   21.9110  -33.6610 O   0  0  0  0  0  0  0  0  0  0  0  0
    0.2340   20.6430  -34.8540 O   0  0  0  0  0  0  0  0  0  0  0  0
   -1.6550   19.2200  -33.6400 C   0  0  0  0  0  0  0  0  0  0  0  0
   -1.0730   17.9640  -33.4310 C   0  0  0  0  0  0  0  0  0  0  0  0
   -1.8760   16.8210  -33.3680 C   0  0  0  0  0  0  0  0  0  0  0  0
   -3.2630   16.9280  -33.5020 C   0  0  0  0  0  0  0  0  0  0  0  0
   -3.8510   18.1820  -33.7210 C   0  0  0  0  0  0  0  0  0  0  0  0
   -5.6000   18.3460  -33.7910 S   0  0  0  0  0  0  0  0  0  0  0  0
   -6.0580   18.3810  -35.2230 O   0  0  0  0  0  0  0  0  0  0  0  0
   -6.2550   17.1720  -33.1160 O   0  0  0  0  0  0  0  0  0  0  0  0
   -6.0480   19.8450  -32.9840 C   0  0  0  0  0  0  0  0  0  0  0  0
   -7.4140   20.1180  -32.7240 C   0  0  0  0  0  0  0  0  0  0  0  0
   -7.7980   21.3260  -32.1160 C   0  0  0  0  0  0  0  0  0  0  0  0
   -6.7980   22.2370  -31.7890 C   0  0  0  0  0  0  0  0  0  0  0  0
   -6.8780   23.4840  -31.2030 C   0  0  0  0  0  0  0  0  0  0  0  0
   -5.5630   23.9420  -31.1220 C   0  0  0  0  0  0  0  0  0  0  0  0
   -5.1920   25.2550  -30.5550 C   0  0  0  0  0  0  0  0  0  0  0  0
   -6.0550   26.0160  -30.0470 O   0  0  0  0  0  0  0  0  0  0  0  0
   -3.8660   25.6670  -30.5890 O   0  0  0  0  0  0  0  0  0  0  0  0
   -4.7140   23.0120  -31.6400 N   0  0  0  0  0  0  0  0  0  0  0  0
   -3.3400   23.0660  -31.7650 O   0  0  0  0  0  0  0  0  0  0  0  0
   -5.4770   21.9810  -32.0420 C   0  0  0  0  0  0  0  0  0  0  0  0
   -5.0610   20.7930  -32.6430 C   0  0  0  0  0  0  0  0  0  0  0  0
   -3.0430   19.3230  -33.7960 C   0  0  0  0  0  0  0  0  0  0  0  0
   -1.2650   22.2990  -31.6790 H   0  0  0  0  0  0  0  0  0  0  0  0
   -1.0863   18.5376  -28.3682 H   0  0  0  0  0  0  0  0  0  0  0  0
    0.6528   16.7645  -28.5698 H   0  0  0  0  0  0  0  0  0  0  0  0
    2.2492   16.7907  -30.4842 H   0  0  0  0  0  0  0  0  0  0  0  0
    2.1112   18.5902  -32.2019 H   0  0  0  0  0  0  0  0  0  0  0  0
    0.0175   17.8762  -33.3162 H   0  0  0  0  0  0  0  0  0  0  0  0
   -1.4146   15.8346  -33.2125 H   0  0  0  0  0  0  0  0  0  0  0  0
   -3.8932   16.0288  -33.4357 H   0  0  0  0  0  0  0  0  0  0  0  0
   -8.1802   19.3786  -33.0002 H   0  0  0  0  0  0  0  0  0  0  0  0
   -8.8554   21.5442  -31.9054 H   0  0  0  0  0  0  0  0  0  0  0  0
   -7.7870   24.0064  -30.8701 H   0  0  0  0  0  0  0  0  0  0  0  0
   -2.7750   22.2460  -31.9360 H   0  0  0  0  0  0  0  0  0  0  0  0
   -3.9967   20.6015  -32.8446 H   0  0  0  0  0  0  0  0  0  0  0  0
   -3.5011   20.3063  -33.9786 H   0  0  0  0  0  0  0  0  0  0  0  0
  1  2  1  0
  2  3  2  0
  2  4  2  0
  2  5  1  0
  5  6  2  0
  6  7  1  0
  7  8  2  0
  8  9  1  0
  9 10  2  0
 10 11  1  0
 11 12  1  0
 12 13  2  0
 12 14  2  0
 12 15  1  0
 15 16  2  0
 16 17  1  0
 17 18  2  0
 18 19  1  0
 19 20  1  0
 20 21  2  0
 20 22  2  0
 20 23  1  0
 23 24  2  0
 24 25  1  0
 25 26  2  0
 26 27  1  0
 27 28  2  0
 28 29  1  0
 29 30  2  0
 29 31  1  0
 28 32  1  0
 32 33  1  0
 32 34  1  0
 34 35  2  0
 19 36  2  0
 10  5  1  0
 36 15  1  0
 35 23  1  0
 34 26  1  0
  1 37  1  0
  6 38  1  0
  7 39  1  0
  8 40  1  0
  9 41  1  0
 16 42  1  0
 17 43  1  0
 18 44  1  0
 24 45  1  0
 25 46  1  0
 27 47  1  0
 33 48  1  0
 35 49  1  0
 36 50  1  0
M  CHG  3   1  -1  11  -1  31  -1
M  END
>  <UniqueID>  (11) 
11

>  <SMILES>  (11) 
[NH-]S(=O)(=O)c1ccccc1[N-]S(=O)(=O)c1cccc(S(=O)(=O)c2ccc3cc(C(=O)[O-])n(O)c3c2)c1

>  <Energy>  (11) 
94.91649921007821

>  <Genealogy>  (11) 
[NH-]S(=O)(=O)c1ccccc1[N-]S(=O)(=O)c1cccc(S(=O)(=O)c2ccc3cc(C(=O)[O-])n(O)c3c2)c1 (protonated)
[NH-]S(=O)(=O)c1ccccc1[N-]S(=O)(=O)c1cccc(S(=O)(=O)c2ccc3cc(C(=O)[O-])n(O)c3c2)c1 (3D coordinates assigned)
[NH-]S(=O)(=O)c1ccccc1[N-]S(=O)(=O)c1cccc(S(=O)(=O)c2ccc3cc(C(=O)[O-])n(O)c3c2)c1 (optimized conformer: 94.91649921007821 kcal/mol)

>  <smiles>  (11) 
NS(=O)(=O)c1ccccc1NS(=O)(=O)c1cccc(S(=O)(=O)c2ccc3cc(C(=O)O)n(O)c3c2)c1

>  <score_type>  (11) 
oracle

>  <origin>  (11) 
adgpu

>  <m_score__min__energy>  (11) 
-14.140000000000001

>  <m_primary>  (11) 
energy

$$$$
11:0
     RDKit          3D

 34 36  0  0  0  0  0  0  0  0999 V2000
    2.9130   24.3170  -26.6830 O   0  0  0  0  0  0  0  0  0  0  0  0
    1.9130   23.8290  -27.2700 C   0  0  0  0  0  0  0  0  0  0  0  0
    1.7080   22.4890  -27.2610 N   0  0  0  0  0  0  0  0  0  0  0  0
    0.6360   21.9330  -27.8820 C   0  0  0  0  0  0  0  0  0  0  0  0
    0.4630   20.1360  -27.8250 S   0  0  0  0  0  0  0  0  0  0  0  0
   -0.2910   22.7570  -28.5520 C   0  0  0  0  0  0  0  0  0  0  0  0
   -1.7150   22.0650  -29.3580 S   0  0  0  0  0  0  0  0  0  0  0  0
   -1.3590   20.8680  -30.1960 O   0  0  0  0  0  0  0  0  0  0  0  0
   -2.6990   21.6330  -28.3080 O   0  0  0  0  0  0  0  0  0  0  0  0
   -2.4580   23.2560  -30.3770 N   0  0  0  0  0  0  0  0  0  0  0  0
   -3.8360   23.2650  -30.7730 C   0  0  0  0  0  0  0  0  0  0  0  0
   -4.5150   22.0850  -31.1310 C   0  0  0  0  0  0  0  0  0  0  0  0
   -5.8610   22.1340  -31.5180 C   0  0  0  0  0  0  0  0  0  0  0  0
   -6.5360   23.3630  -31.5560 C   0  0  0  0  0  0  0  0  0  0  0  0
   -5.8600   24.5400  -31.2080 C   0  0  0  0  0  0  0  0  0  0  0  0
   -4.5200   24.4890  -30.8120 C   0  0  0  0  0  0  0  0  0  0  0  0
   -3.8650   25.6660  -30.4640 O   0  0  0  0  0  0  0  0  0  0  0  0
   -7.9600   23.3900  -32.0420 C   0  0  0  0  0  0  0  0  0  0  0  0
   -8.7800   22.2250  -31.4530 C   0  0  0  0  0  0  0  0  0  0  0  0
   -8.0090   20.8840  -31.3150 C   0  0  0  0  0  0  0  0  0  0  0  0
   -6.6040   20.8950  -31.9370 C   0  0  0  0  0  0  0  0  0  0  0  0
   -0.0480   24.1450  -28.5530 C   0  0  0  0  0  0  0  0  0  0  0  0
   -0.8270   24.9390  -29.1390 O   0  0  0  0  0  0  0  0  0  0  0  0
    1.0400   24.6440  -27.9130 N   0  0  0  0  0  0  0  0  0  0  0  0
   -3.9868   21.1204  -31.1069 H   0  0  0  0  0  0  0  0  0  0  0  0
   -6.3846   25.5061  -31.2464 H   0  0  0  0  0  0  0  0  0  0  0  0
   -8.4227   24.3412  -31.7403 H   0  0  0  0  0  0  0  0  0  0  0  0
   -7.9529   23.2881  -33.1372 H   0  0  0  0  0  0  0  0  0  0  0  0
   -9.1273   22.5235  -30.4529 H   0  0  0  0  0  0  0  0  0  0  0  0
   -9.5999   22.0368  -32.1617 H   0  0  0  0  0  0  0  0  0  0  0  0
   -7.9098   20.6524  -30.2443 H   0  0  0  0  0  0  0  0  0  0  0  0
   -8.5904   20.1287  -31.8640 H   0  0  0  0  0  0  0  0  0  0  0  0
   -6.0498   20.0070  -31.5989 H   0  0  0  0  0  0  0  0  0  0  0  0
   -6.6962   20.8848  -33.0331 H   0  0  0  0  0  0  0  0  0  0  0  0
  1  2  2  0
  2  3  1  0
  3  4  1  0
  4  5  1  0
  4  6  2  0
  6  7  1  0
  7  8  2  0
  7  9  2  0
  7 10  1  0
 10 11  1  0
 11 12  2  0
 12 13  1  0
 13 14  2  0
 14 15  1  0
 15 16  2  0
 16 17  1  0
 14 18  1  0
 18 19  1  0
 19 20  1  0
 20 21  1  0
  6 22  1  0
 22 23  2  0
 22 24  1  0
 24  2  1  0
 16 11  1  0
 21 13  1  0
 12 25  1  0
 15 26  1  0
 18 27  1  0
 18 28  1  0
 19 29  1  0
 19 30  1  0
 20 31  1  0
 20 32  1  0
 21 33  1  0
 21 34  1  0
M  CHG  5   3  -1   5  -1  10  -1  17  -1  24  -1
M  END
>  <UniqueID>  (12) 
12

>  <SMILES>  (12) 
O=c1[n-]c([S-])c(S(=O)(=O)[N-]c2cc3c(cc2[O-])CCCC3)c(=O)[n-]1

>  <Energy>  (12) 
47.814638444539206

>  <Genealogy>  (12) 
O=c1[n-]c([S-])c(S(=O)(=O)[N-]c2cc3c(cc2[O-])CCCC3)c(=O)[n-]1 (protonated)
O=c1[n-]c([S-])c(S(=O)(=O)[N-]c2cc3c(cc2[O-])CCCC3)c(=O)[n-]1 (3D coordinates assigned)
O=c1[n-]c([S-])c(S(=O)(=O)[N-]c2cc3c(cc2[O-])CCCC3)c(=O)[n-]1 (nonaromatic ring conformer: 47.814638444539206 kcal/mol)

>  <smiles>  (12) 
O=c1[nH]c(S)c(S(=O)(=O)Nc2cc3c(cc2O)CCCC3)c(=O)[nH]1

>  <score_type>  (12) 
oracle

>  <origin>  (12) 
adgpu

>  <m_score__min__energy>  (12) 
-13.960000000000001

>  <m_primary>  (12) 
energy

$$$$
12:0
     RDKit          3D

 65 68  0  0  0  0  0  0  0  0999 V2000
   -3.8620   16.2900  -35.5730 C   0  0  0  0  0  0  0  0  0  0  0  0
   -3.6170   16.8520  -34.2050 C   0  0  0  0  0  0  0  0  0  0  0  0
   -2.8910   16.1980  -33.4110 O   0  0  0  0  0  0  0  0  0  0  0  0
   -4.2220   18.0920  -33.7730 N   0  0  0  0  0  0  0  0  0  0  0  0
   -3.5880   18.8940  -32.7180 C   0  0  0  0  0  0  0  0  0  0  0  0
   -4.6440   19.3940  -31.7320 C   0  0  0  0  0  0  0  0  0  0  0  0
   -5.7700   19.9950  -32.4550 N   0  0  0  0  0  0  0  0  0  0  0  0
   -6.5320   21.0330  -31.8180 C   0  0  0  0  0  0  0  0  0  0  0  0
   -7.7420   20.8180  -31.5340 O   0  0  0  0  0  0  0  0  0  0  0  0
   -5.9240   22.3530  -31.5140 C   0  0  0  0  0  0  0  0  0  0  0  0
   -6.7200   23.5080  -31.4460 C   0  0  0  0  0  0  0  0  0  0  0  0
   -6.1540   24.7390  -31.1050 C   0  0  0  0  0  0  0  0  0  0  0  0
   -4.7910   24.8290  -30.8130 C   0  0  0  0  0  0  0  0  0  0  0  0
   -4.2460   26.0630  -30.4710 O   0  0  0  0  0  0  0  0  0  0  0  0
   -3.9770   23.6900  -30.8760 C   0  0  0  0  0  0  0  0  0  0  0  0
   -2.5870   23.8220  -30.5390 N   0  0  0  0  0  0  0  0  0  0  0  0
   -1.8790   23.7450  -28.9540 S   0  0  0  0  0  0  0  0  0  0  0  0
   -0.7930   24.7810  -28.8930 O   0  0  0  0  0  0  0  0  0  0  0  0
   -2.8820   24.0500  -27.8780 O   0  0  0  0  0  0  0  0  0  0  0  0
   -1.1750   22.1490  -28.6960 C   0  0  0  0  0  0  0  0  0  0  0  0
   -1.1810   21.5810  -27.4220 C   0  0  0  0  0  0  0  0  0  0  0  0
   -0.6970   20.2900  -27.2280 C   0  0  0  0  0  0  0  0  0  0  0  0
   -0.1920   19.5350  -28.2980 C   0  0  0  0  0  0  0  0  0  0  0  0
    0.2690   17.8620  -27.9080 S   0  0  0  0  0  0  0  0  0  0  0  0
   -0.4890   17.2890  -26.7440 O   0  0  0  0  0  0  0  0  0  0  0  0
    0.0160   17.0040  -29.1160 O   0  0  0  0  0  0  0  0  0  0  0  0
    1.9770   17.8510  -27.5400 N   0  0  0  0  0  0  0  0  0  0  0  0
    2.6880   16.8860  -28.3790 C   0  0  0  0  0  0  0  0  0  0  0  0
    4.1220   17.3750  -28.4690 C   0  0  0  0  0  0  0  0  0  0  0  0
    4.0530   18.8680  -28.1870 C   0  0  0  0  0  0  0  0  0  0  0  0
    2.6000   19.1460  -27.8180 C   0  0  0  0  0  0  0  0  0  0  0  0
   -0.1200   20.1280  -29.5950 C   0  0  0  0  0  0  0  0  0  0  0  0
    0.4510   19.4000  -30.7980 C   0  0  0  0  0  0  0  0  0  0  0  0
   -0.4370   18.4300  -31.2280 F   0  0  0  0  0  0  0  0  0  0  0  0
    0.6990   20.3070  -31.8130 F   0  0  0  0  0  0  0  0  0  0  0  0
    1.6440   18.7630  -30.4990 F   0  0  0  0  0  0  0  0  0  0  0  0
   -0.6320   21.4320  -29.7680 C   0  0  0  0  0  0  0  0  0  0  0  0
   -4.5480   22.4540  -31.2270 C   0  0  0  0  0  0  0  0  0  0  0  0
   -6.3970   19.2120  -33.5240 C   0  0  0  0  0  0  0  0  0  0  0  0
   -5.3390   18.7060  -34.5060 C   0  0  0  0  0  0  0  0  0  0  0  0
   -4.3001   15.2850  -35.4835 H   0  0  0  0  0  0  0  0  0  0  0  0
   -4.5561   16.9452  -36.1197 H   0  0  0  0  0  0  0  0  0  0  0  0
   -2.9095   16.2274  -36.1197 H   0  0  0  0  0  0  0  0  0  0  0  0
   -2.8538   18.2747  -32.1818 H   0  0  0  0  0  0  0  0  0  0  0  0
   -3.0851   19.7585  -33.1760 H   0  0  0  0  0  0  0  0  0  0  0  0
   -5.0086   18.5482  -31.1306 H   0  0  0  0  0  0  0  0  0  0  0  0
   -4.1919   20.1538  -31.0776 H   0  0  0  0  0  0  0  0  0  0  0  0
   -7.7965   23.4430  -31.6627 H   0  0  0  0  0  0  0  0  0  0  0  0
   -6.7837   25.6401  -31.0664 H   0  0  0  0  0  0  0  0  0  0  0  0
   -1.5694   22.1549  -26.5678 H   0  0  0  0  0  0  0  0  0  0  0  0
   -0.7106   19.8540  -26.2182 H   0  0  0  0  0  0  0  0  0  0  0  0
    2.6545   15.8862  -27.9216 H   0  0  0  0  0  0  0  0  0  0  0  0
    2.2289   16.8080  -29.3756 H   0  0  0  0  0  0  0  0  0  0  0  0
    4.7495   16.8696  -27.7201 H   0  0  0  0  0  0  0  0  0  0  0  0
    4.5677   17.1626  -29.4519 H   0  0  0  0  0  0  0  0  0  0  0  0
    4.7190   19.1328  -27.3525 H   0  0  0  0  0  0  0  0  0  0  0  0
    4.3747   19.4626  -29.0548 H   0  0  0  0  0  0  0  0  0  0  0  0
    2.5524   19.7880  -26.9261 H   0  0  0  0  0  0  0  0  0  0  0  0
    2.0788   19.6665  -28.6350 H   0  0  0  0  0  0  0  0  0  0  0  0
   -0.6036   21.8940  -30.7659 H   0  0  0  0  0  0  0  0  0  0  0  0
   -3.9141   21.5565  -31.2781 H   0  0  0  0  0  0  0  0  0  0  0  0
   -6.9226   18.3523  -33.0829 H   0  0  0  0  0  0  0  0  0  0  0  0
   -7.1083   19.8531  -34.0653 H   0  0  0  0  0  0  0  0  0  0  0  0
   -5.7908   17.9579  -35.1740 H   0  0  0  0  0  0  0  0  0  0  0  0
   -4.9601   19.5539  -35.0955 H   0  0  0  0  0  0  0  0  0  0  0  0
  1  2  1  0
  2  3  2  0
  2  4  1  0
  4  5  1  0
  5  6  1  0
  6  7  1  0
  7  8  1  0
  8  9  2  0
  8 10  1  0
 10 11  2  0
 11 12  1  0
 12 13  2  0
 13 14  1  0
 13 15  1  0
 15 16  1  0
 16 17  1  0
 17 18  2  0
 17 19  2  0
 17 20  1  0
 20 21  2  0
 21 22  1  0
 22 23  2  0
 23 24  1  0
 24 25  2  0
 24 26  2  0
 24 27  1  0
 27 28  1  0
 28 29  1  0
 29 30  1  0
 30 31  1  0
 23 32  1  0
 32 33  1  0
 33 34  1  0
 33 35  1  0
 33 36  1  0
 32 37  2  0
 15 38  2  0
  7 39  1  0
 39 40  1  0
 40  4  1  0
 38 10  1  0
 37 20  1  0
 31 27  1  0
  1 41  1  0
  1 42  1  0
  1 43  1  0
  5 44  1  0
  5 45  1  0
  6 46  1  0
  6 47  1  0
 11 48  1  0
 12 49  1  0
 21 50  1  0
 22 51  1  0
 28 52  1  0
 28 53  1  0
 29 54  1  0
 29 55  1  0
 30 56  1  0
 30 57  1  0
 31 58  1  0
 31 59  1  0
 37 60  1  0
 38 61  1  0
 39 62  1  0
 39 63  1  0
 40 64  1  0
 40 65  1  0
M  CHG  2  14  -1  16  -1
M  END
>  <UniqueID>  (13) 
13

>  <SMILES>  (13) 
CC(=O)N1CCN(C(=O)c2ccc([O-])c([N-]S(=O)(=O)c3ccc(S(=O)(=O)N4CCCC4)c(C(F)(F)F)c3)c2)CC1

>  <Energy>  (13) 
86.3741616391982

>  <Genealogy>  (13) 
CC(=O)N1CCN(C(=O)c2ccc([O-])c([N-]S(=O)(=O)c3ccc(S(=O)(=O)N4CCCC4)c(C(F)(F)F)c3)c2)CC1 (protonated)
CC(=O)N1CCN(C(=O)c2ccc([O-])c([N-]S(=O)(=O)c3ccc(S(=O)(=O)N4CCCC4)c(C(F)(F)F)c3)c2)CC1 (3D coordinates assigned)
CC(=O)N1CCN(C(=O)c2ccc([O-])c([N-]S(=O)(=O)c3ccc(S(=O)(=O)N4CCCC4)c(C(F)(F)F)c3)c2)CC1 (nonaromatic ring conformer: 86.3741616391982 kcal/mol)

>  <smiles>  (13) 
CC(=O)N1CCN(C(=O)c2ccc(O)c(NS(=O)(=O)c3ccc(S(=O)(=O)N4CCCC4)c(C(F)(F)F)c3)c2)CC1

>  <score_type>  (13) 
oracle

>  <origin>  (13) 
adgpu

>  <m_score__min__energy>  (13) 
-14.210000000000001

>  <m_primary>  (13) 
energy

$$$$
13:0
     RDKit          3D

 64 67  0  0  0  0  0  0  0  0999 V2000
   -0.8490   18.2300  -27.7190 C   0  0  0  0  0  0  0  0  0  0  0  0
   -0.6600   19.6990  -27.4810 C   0  0  0  0  0  0  0  0  0  0  0  0
   -1.5410   20.3980  -26.6410 C   0  0  0  0  0  0  0  0  0  0  0  0
   -1.3380   21.7550  -26.3810 C   0  0  0  0  0  0  0  0  0  0  0  0
   -0.2450   22.4290  -26.9480 C   0  0  0  0  0  0  0  0  0  0  0  0
   -0.0150   23.8150  -26.6510 N   0  0  0  0  0  0  0  0  0  0  0  0
    0.1630   24.7840  -27.7360 C   0  0  0  0  0  0  0  0  0  0  0  0
   -1.0580   24.8060  -28.6000 C   0  0  0  0  0  0  0  0  0  0  0  0
   -1.6010   25.9080  -28.8880 O   0  0  0  0  0  0  0  0  0  0  0  0
   -1.5420   23.5780  -29.1600 N   0  0  0  0  0  0  0  0  0  0  0  0
   -2.8480   23.3330  -29.6920 C   0  0  0  0  0  0  0  0  0  0  0  0
   -3.0450   22.9000  -31.0160 C   0  0  0  0  0  0  0  0  0  0  0  0
   -4.3390   22.6780  -31.4970 C   0  0  0  0  0  0  0  0  0  0  0  0
   -5.4470   22.8850  -30.6650 C   0  0  0  0  0  0  0  0  0  0  0  0
   -7.0780   22.5590  -31.2550 S   0  0  0  0  0  0  0  0  0  0  0  0
   -7.5700   23.7460  -32.0400 O   0  0  0  0  0  0  0  0  0  0  0  0
   -8.0010   22.3600  -30.0840 O   0  0  0  0  0  0  0  0  0  0  0  0
   -7.1180   21.1300  -32.2620 N   0  0  0  0  0  0  0  0  0  0  0  0
   -6.1470   20.1270  -31.7720 C   0  0  0  0  0  0  0  0  0  0  0  0
   -6.4290   18.7410  -32.3630 C   0  0  0  0  0  0  0  0  0  0  0  0
   -7.8240   18.2300  -31.9480 C   0  0  0  0  0  0  0  0  0  0  0  0
   -8.7940   19.3700  -31.5920 C   0  0  0  0  0  0  0  0  0  0  0  0
   -8.5020   20.6230  -32.4340 C   0  0  0  0  0  0  0  0  0  0  0  0
   -5.2520   23.3470  -29.3550 C   0  0  0  0  0  0  0  0  0  0  0  0
   -3.9600   23.5770  -28.8770 C   0  0  0  0  0  0  0  0  0  0  0  0
    0.1950   24.3310  -25.0050 S   0  0  0  0  0  0  0  0  0  0  0  0
    1.5670   23.9350  -24.5340 O   0  0  0  0  0  0  0  0  0  0  0  0
   -0.8270   23.6800  -24.1160 O   0  0  0  0  0  0  0  0  0  0  0  0
   -0.0150   26.0760  -24.9270 C   0  0  0  0  0  0  0  0  0  0  0  0
    0.8710   26.8760  -24.1860 C   0  0  0  0  0  0  0  0  0  0  0  0
    0.7000   28.2660  -24.1550 C   0  0  0  0  0  0  0  0  0  0  0  0
   -0.3560   28.8570  -24.8570 C   0  0  0  0  0  0  0  0  0  0  0  0
   -1.2400   28.0630  -25.5960 C   0  0  0  0  0  0  0  0  0  0  0  0
   -1.0690   26.6750  -25.6330 C   0  0  0  0  0  0  0  0  0  0  0  0
    0.6450   21.7280  -27.7740 C   0  0  0  0  0  0  0  0  0  0  0  0
    0.4400   20.3700  -28.0390 C   0  0  0  0  0  0  0  0  0  0  0  0
   -0.9162   17.7077  -26.7532 H   0  0  0  0  0  0  0  0  0  0  0  0
   -1.7755   18.0671  -28.2892 H   0  0  0  0  0  0  0  0  0  0  0  0
    0.0061   17.8379  -28.2892 H   0  0  0  0  0  0  0  0  0  0  0  0
   -2.3948   19.8748  -26.1857 H   0  0  0  0  0  0  0  0  0  0  0  0
   -2.0378   22.2982  -25.7289 H   0  0  0  0  0  0  0  0  0  0  0  0
    0.3265   25.7845  -27.3091 H   0  0  0  0  0  0  0  0  0  0  0  0
    1.0330   24.4939  -28.3434 H   0  0  0  0  0  0  0  0  0  0  0  0
   -2.1791   22.7357  -31.6743 H   0  0  0  0  0  0  0  0  0  0  0  0
   -4.4876   22.3394  -32.5330 H   0  0  0  0  0  0  0  0  0  0  0  0
   -5.1327   20.4397  -32.0609 H   0  0  0  0  0  0  0  0  0  0  0  0
   -6.2384   20.0621  -30.6777 H   0  0  0  0  0  0  0  0  0  0  0  0
   -6.3814   18.8025  -33.4602 H   0  0  0  0  0  0  0  0  0  0  0  0
   -5.6733   18.0392  -31.9803 H   0  0  0  0  0  0  0  0  0  0  0  0
   -8.2499   17.6536  -32.7825 H   0  0  0  0  0  0  0  0  0  0  0  0
   -7.6960   17.6104  -31.0481 H   0  0  0  0  0  0  0  0  0  0  0  0
   -9.8251   19.0388  -31.7850 H   0  0  0  0  0  0  0  0  0  0  0  0
   -8.6638   19.6228  -30.5294 H   0  0  0  0  0  0  0  0  0  0  0  0
   -8.6549   20.3755  -33.4948 H   0  0  0  0  0  0  0  0  0  0  0  0
   -9.1860   21.4141  -32.0931 H   0  0  0  0  0  0  0  0  0  0  0  0
   -6.1188   23.5286  -28.7026 H   0  0  0  0  0  0  0  0  0  0  0  0
   -3.8151   23.9524  -27.8532 H   0  0  0  0  0  0  0  0  0  0  0  0
    1.6987   26.4110  -23.6304 H   0  0  0  0  0  0  0  0  0  0  0  0
    1.3962   28.8930  -23.5786 H   0  0  0  0  0  0  0  0  0  0  0  0
   -0.4917   29.9482  -24.8280 H   0  0  0  0  0  0  0  0  0  0  0  0
   -2.0691   28.5301  -26.1477 H   0  0  0  0  0  0  0  0  0  0  0  0
   -1.7625   26.0520  -26.2169 H   0  0  0  0  0  0  0  0  0  0  0  0
    1.5079   22.2481  -28.2154 H   0  0  0  0  0  0  0  0  0  0  0  0
    1.1430   19.8258  -28.6868 H   0  0  0  0  0  0  0  0  0  0  0  0
  1  2  1  0
  2  3  2  0
  3  4  1  0
  4  5  2  0
  5  6  1  0
  6  7  1  0
  7  8  1  0
  8  9  2  0
  8 10  1  0
 10 11  1  0
 11 12  2  0
 12 13  1  0
 13 14  2  0
 14 15  1  0
 15 16  2  0
 15 17  2  0
 15 18  1  0
 18 19  1  0
 19 20  1  0
 20 21  1  0
 21 22  1  0
 22 23  1  0
 14 24  1  0
 24 25  2  0
  6 26  1  0
 26 27  2  0
 26 28  2  0
 26 29  1  0
 29 30  2  0
 30 31  1  0
 31 32  2  0
 32 33  1  0
 33 34  2  0
  5 35  1  0
 35 36  2  0
 36  2  1  0
 25 11  1  0
 34 29  1  0
 23 18  1  0
  1 37  1  0
  1 38  1  0
  1 39  1  0
  3 40  1  0
  4 41  1  0
  7 42  1  0
  7 43  1  0
 12 44  1  0
 13 45  1  0
 19 46  1  0
 19 47  1  0
 20 48  1  0
 20 49  1  0
 21 50  1  0
 21 51  1  0
 22 52  1  0
 22 53  1  0
 23 54  1  0
 23 55  1  0
 24 56  1  0
 25 57  1  0
 30 58  1  0
 31 59  1  0
 32 60  1  0
 33 61  1  0
 34 62  1  0
 35 63  1  0
 36 64  1  0
M  CHG  1  10  -1
M  END
>  <UniqueID>  (14) 
14

>  <SMILES>  (14) 
Cc1ccc(N(CC(=O)[N-]c2ccc(S(=O)(=O)N3CCCCC3)cc2)S(=O)(=O)c2ccccc2)cc1

>  <Energy>  (14) 
78.23663545023562

>  <Genealogy>  (14) 
Cc1ccc(N(CC(=O)[N-]c2ccc(S(=O)(=O)N3CCCCC3)cc2)S(=O)(=O)c2ccccc2)cc1 (protonated)
Cc1ccc(N(CC(=O)[N-]c2ccc(S(=O)(=O)N3CCCCC3)cc2)S(=O)(=O)c2ccccc2)cc1 (3D coordinates assigned)
Cc1ccc(N(CC(=O)[N-]c2ccc(S(=O)(=O)N3CCCCC3)cc2)S(=O)(=O)c2ccccc2)cc1 (nonaromatic ring conformer: 78.23663545023562 kcal/mol)

>  <smiles>  (14) 
Cc1ccc(N(CC(=O)Nc2ccc(S(=O)(=O)N3CCCCC3)cc2)S(=O)(=O)c2ccccc2)cc1

>  <score_type>  (14) 
oracle

>  <origin>  (14) 
adgpu

>  <m_score__min__energy>  (14) 
-12.970000000000001

>  <m_primary>  (14) 
energy

$$$$
14:0
     RDKit          3D

 35 37  0  0  0  0  0  0  0  0999 V2000
   -4.2840   14.6210  -32.0890 C   0  0  0  0  0  0  0  0  0  0  0  0
   -5.2850   15.6000  -31.8320 O   0  0  0  0  0  0  0  0  0  0  0  0
   -5.5280   16.7200  -32.6440 C   0  0  0  0  0  0  0  0  0  0  0  0
   -5.8260   17.9880  -32.1060 C   0  0  0  0  0  0  0  0  0  0  0  0
   -6.0490   19.0890  -32.9530 C   0  0  0  0  0  0  0  0  0  0  0  0
   -6.3830   20.4240  -32.4050 C   0  0  0  0  0  0  0  0  0  0  0  0
   -5.3760   21.2270  -32.0710 O   0  0  0  0  0  0  0  0  0  0  0  0
   -5.5480   22.4490  -31.5820 C   0  0  0  0  0  0  0  0  0  0  0  0
   -4.4300   23.2310  -31.2620 C   0  0  0  0  0  0  0  0  0  0  0  0
   -3.1480   22.7250  -31.4510 O   0  0  0  0  0  0  0  0  0  0  0  0
   -4.6030   24.5230  -30.7510 C   0  0  0  0  0  0  0  0  0  0  0  0
   -3.4950   25.3010  -30.4330 O   0  0  0  0  0  0  0  0  0  0  0  0
   -5.8890   25.0350  -30.5600 C   0  0  0  0  0  0  0  0  0  0  0  0
   -7.0090   24.2610  -30.8760 C   0  0  0  0  0  0  0  0  0  0  0  0
   -6.8480   22.9590  -31.3890 C   0  0  0  0  0  0  0  0  0  0  0  0
   -7.9450   22.1420  -31.7110 C   0  0  0  0  0  0  0  0  0  0  0  0
   -9.1170   22.5760  -31.5410 O   0  0  0  0  0  0  0  0  0  0  0  0
   -7.7190   20.8410  -32.2170 C   0  0  0  0  0  0  0  0  0  0  0  0
   -8.7540   19.9330  -32.5170 O   0  0  0  0  0  0  0  0  0  0  0  0
   -9.1010   18.7700  -31.7740 C   0  0  0  0  0  0  0  0  0  0  0  0
   -6.0120   18.9030  -34.3420 C   0  0  0  0  0  0  0  0  0  0  0  0
   -5.7180   17.6480  -34.8790 C   0  0  0  0  0  0  0  0  0  0  0  0
   -5.4730   16.5620  -34.0350 C   0  0  0  0  0  0  0  0  0  0  0  0
   -5.1790   15.3190  -34.5840 O   0  0  0  0  0  0  0  0  0  0  0  0
   -3.8923   14.2379  -31.1351 H   0  0  0  0  0  0  0  0  0  0  0  0
   -4.7211   13.7922  -32.6652 H   0  0  0  0  0  0  0  0  0  0  0  0
   -3.4651   15.0764  -32.6652 H   0  0  0  0  0  0  0  0  0  0  0  0
   -5.8847   18.1179  -31.0153 H   0  0  0  0  0  0  0  0  0  0  0  0
   -6.0204   26.0510  -30.1594 H   0  0  0  0  0  0  0  0  0  0  0  0
   -8.0189   24.6696  -30.7237 H   0  0  0  0  0  0  0  0  0  0  0  0
   -9.0356   18.9892  -30.6981 H   0  0  0  0  0  0  0  0  0  0  0  0
  -10.1285   18.4677  -32.0248 H   0  0  0  0  0  0  0  0  0  0  0  0
   -8.4072   17.9541  -32.0248 H   0  0  0  0  0  0  0  0  0  0  0  0
   -6.2158   19.7507  -35.0128 H   0  0  0  0  0  0  0  0  0  0  0  0
   -5.6792   17.5140  -35.9701 H   0  0  0  0  0  0  0  0  0  0  0  0
  1  2  1  0
  2  3  1  0
  3  4  2  0
  4  5  1  0
  5  6  1  0
  6  7  1  0
  7  8  1  0
  8  9  2  0
  9 10  1  0
  9 11  1  0
 11 12  1  0
 11 13  2  0
 13 14  1  0
 14 15  2  0
 15 16  1  0
 16 17  2  0
 16 18  1  0
 18 19  1  0
 19 20  1  0
  5 21  2  0
 21 22  1  0
 22 23  2  0
 23 24  1  0
 23  3  1  0
 18  6  2  0
 15  8  1  0
  1 25  1  0
  1 26  1  0
  1 27  1  0
  4 28  1  0
 13 29  1  0
 14 30  1  0
 20 31  1  0
 20 32  1  0
 20 33  1  0
 21 34  1  0
 22 35  1  0
M  CHG  3  10  -1  12  -1  24  -1
M  END
>  <UniqueID>  (15) 
15

>  <SMILES>  (15) 
COc1cc(-c2oc3c([O-])c([O-])ccc3c(=O)c2OC)ccc1[O-]

>  <Energy>  (15) 
50.68814033212557

>  <Genealogy>  (15) 
COc1cc(-c2oc3c([O-])c([O-])ccc3c(=O)c2OC)ccc1[O-] (protonated)
COc1cc(-c2oc3c([O-])c([O-])ccc3c(=O)c2OC)ccc1[O-] (3D coordinates assigned)
COc1cc(-c2oc3c([O-])c([O-])ccc3c(=O)c2OC)ccc1[O-] (optimized conformer: 50.68814033212557 kcal/mol)

>  <smiles>  (15) 
COc1cc(-c2oc3c(O)c(O)ccc3c(=O)c2OC)ccc1O

>  <score_type>  (15) 
oracle

>  <origin>  (15) 
adgpu

>  <m_score__min__energy>  (15) 
-11.08

>  <m_primary>  (15) 
energy

$$$$
15:0
     RDKit          3D

 43 44  0  0  0  0  0  0  0  0999 V2000
   -2.0350   23.2920  -30.1120 C   0  0  0  0  0  0  0  0  0  0  0  0
   -3.3540   22.9700  -29.3720 C   0  0  0  0  0  0  0  0  0  0  0  0
   -3.3920   21.4710  -28.9980 C   0  0  0  0  0  0  0  0  0  0  0  0
   -3.3290   23.7700  -28.0450 C   0  0  0  0  0  0  0  0  0  0  0  0
   -4.5700   23.3200  -30.2700 C   0  0  0  0  0  0  0  0  0  0  0  0
   -5.5250   22.3390  -30.6430 C   0  0  0  0  0  0  0  0  0  0  0  0
   -6.6250   22.6570  -31.4480 C   0  0  0  0  0  0  0  0  0  0  0  0
   -7.7570   21.3920  -31.9220 S   0  0  0  0  0  0  0  0  0  0  0  0
   -7.9960   20.4900  -30.7430 O   0  0  0  0  0  0  0  0  0  0  0  0
   -9.0720   21.9820  -32.3460 O   0  0  0  0  0  0  0  0  0  0  0  0
   -7.0790   20.4670  -33.2220 N   0  0  0  0  0  0  0  0  0  0  0  0
   -5.6950   20.0750  -33.2410 C   0  0  0  0  0  0  0  0  0  0  0  0
   -4.6950   21.0460  -33.4290 C   0  0  0  0  0  0  0  0  0  0  0  0
   -3.3480   20.6820  -33.4630 C   0  0  0  0  0  0  0  0  0  0  0  0
   -2.9830   19.3450  -33.3190 C   0  0  0  0  0  0  0  0  0  0  0  0
   -3.9620   18.3670  -33.1370 C   0  0  0  0  0  0  0  0  0  0  0  0
   -5.3210   18.7190  -33.0940 C   0  0  0  0  0  0  0  0  0  0  0  0
   -6.5260   17.4560  -32.8000 S   0  0  0  0  0  0  0  0  0  0  0  0
   -6.2170   16.1080  -33.8360 N   0  0  0  0  0  0  0  0  0  0  0  0
   -6.4590   17.0190  -31.3640 O   0  0  0  0  0  0  0  0  0  0  0  0
   -7.9070   17.9750  -33.0870 O   0  0  0  0  0  0  0  0  0  0  0  0
   -6.7940   23.9630  -31.9080 C   0  0  0  0  0  0  0  0  0  0  0  0
   -5.8680   24.9440  -31.5700 C   0  0  0  0  0  0  0  0  0  0  0  0
   -4.7650   24.6390  -30.7690 C   0  0  0  0  0  0  0  0  0  0  0  0
   -3.8720   25.6650  -30.4860 O   0  0  0  0  0  0  0  0  0  0  0  0
   -1.2401   23.4861  -29.3768 H   0  0  0  0  0  0  0  0  0  0  0  0
   -1.7503   22.4370  -30.7428 H   0  0  0  0  0  0  0  0  0  0  0  0
   -2.1763   24.1820  -30.7428 H   0  0  0  0  0  0  0  0  0  0  0  0
   -3.3947   21.3663  -27.9030 H   0  0  0  0  0  0  0  0  0  0  0  0
   -4.3021   21.0127  -29.4124 H   0  0  0  0  0  0  0  0  0  0  0  0
   -2.5063   20.9671  -29.4124 H   0  0  0  0  0  0  0  0  0  0  0  0
   -3.3508   23.0717  -27.1954 H   0  0  0  0  0  0  0  0  0  0  0  0
   -2.4115   24.3750  -27.9988 H   0  0  0  0  0  0  0  0  0  0  0  0
   -4.2069   24.4312  -27.9988 H   0  0  0  0  0  0  0  0  0  0  0  0
   -5.3979   21.3045  -30.2913 H   0  0  0  0  0  0  0  0  0  0  0  0
   -7.7440   20.0720  -33.9200 H   0  0  0  0  0  0  0  0  0  0  0  0
   -4.9772   22.1022  -33.5504 H   0  0  0  0  0  0  0  0  0  0  0  0
   -2.5741   21.4510  -33.6036 H   0  0  0  0  0  0  0  0  0  0  0  0
   -1.9211   19.0597  -33.3488 H   0  0  0  0  0  0  0  0  0  0  0  0
   -3.6671   17.3130  -33.0265 H   0  0  0  0  0  0  0  0  0  0  0  0
   -5.8750   16.4980  -34.7430 H   0  0  0  0  0  0  0  0  0  0  0  0
   -7.6594   24.2168  -32.5378 H   0  0  0  0  0  0  0  0  0  0  0  0
   -6.0057   25.9716  -31.9375 H   0  0  0  0  0  0  0  0  0  0  0  0
  1  2  1  0
  2  3  1  0
  2  4  1  0
  2  5  1  0
  5  6  2  0
  6  7  1  0
  7  8  1  0
  8  9  2  0
  8 10  2  0
  8 11  1  0
 11 12  1  0
 12 13  2  0
 13 14  1  0
 14 15  2  0
 15 16  1  0
 16 17  2  0
 17 18  1  0
 18 19  1  0
 18 20  2  0
 18 21  2  0
  7 22  2  0
 22 23  1  0
 23 24  2  0
 24 25  1  0
 24  5  1  0
 17 12  1  0
  1 26  1  0
  1 27  1  0
  1 28  1  0
  3 29  1  0
  3 30  1  0
  3 31  1  0
  4 32  1  0
  4 33  1  0
  4 34  1  0
  6 35  1  0
 11 36  1  0
 13 37  1  0
 14 38  1  0
 15 39  1  0
 16 40  1  0
 19 41  1  0
 22 42  1  0
 23 43  1  0
M  CHG  2  19  -1  25  -1
M  END
>  <UniqueID>  (16) 
16

>  <SMILES>  (16) 
CC(C)(C)c1cc(S(=O)(=O)Nc2ccccc2S([NH-])(=O)=O)ccc1[O-]

>  <Energy>  (16) 
51.47084183958974

>  <Genealogy>  (16) 
CC(C)(C)c1cc(S(=O)(=O)Nc2ccccc2S([NH-])(=O)=O)ccc1[O-] (protonated)
CC(C)(C)c1cc(S(=O)(=O)Nc2ccccc2S([NH-])(=O)=O)ccc1[O-] (3D coordinates assigned)
CC(C)(C)c1cc(S(=O)(=O)Nc2ccccc2S([NH-])(=O)=O)ccc1[O-] (optimized conformer: 51.47084183958974 kcal/mol)

>  <smiles>  (16) 
CC(C)(C)c1cc(S(=O)(=O)Nc2ccccc2S(N)(=O)=O)ccc1O

>  <score_type>  (16) 
oracle

>  <origin>  (16) 
adgpu

>  <m_score__min__energy>  (16) 
-11.49

>  <m_primary>  (16) 
energy

$$$$
16:0
     RDKit          3D

 56 59  0  0  0  0  0  0  0  0999 V2000
   -1.2980   21.9140  -26.4820 C   0  0  0  0  0  0  0  0  0  0  0  0
   -1.8940   22.8390  -27.5090 C   0  0  0  0  0  0  0  0  0  0  0  0
   -3.1230   22.4790  -28.0900 C   0  0  0  0  0  0  0  0  0  0  0  0
   -3.7280   23.2940  -29.0430 C   0  0  0  0  0  0  0  0  0  0  0  0
   -3.1320   24.4920  -29.4310 C   0  0  0  0  0  0  0  0  0  0  0  0
   -3.7870   25.2950  -30.4210 N   0  0  0  0  0  0  0  0  0  0  0  0
   -5.0020   24.9440  -31.0930 C   0  0  0  0  0  0  0  0  0  0  0  0
   -6.0020   25.7070  -31.0380 O   0  0  0  0  0  0  0  0  0  0  0  0
   -5.0890   23.7360  -31.8530 N   0  0  0  0  0  0  0  0  0  0  0  0
   -6.1350   22.7620  -31.7390 C   0  0  0  0  0  0  0  0  0  0  0  0
   -7.3030   23.0450  -31.0100 C   0  0  0  0  0  0  0  0  0  0  0  0
   -8.3570   22.1270  -30.9840 C   0  0  0  0  0  0  0  0  0  0  0  0
   -8.2620   20.9310  -31.7000 C   0  0  0  0  0  0  0  0  0  0  0  0
   -7.1090   20.6460  -32.4350 C   0  0  0  0  0  0  0  0  0  0  0  0
   -6.0340   21.5440  -32.4450 C   0  0  0  0  0  0  0  0  0  0  0  0
   -4.8860   21.2080  -33.1780 O   0  0  0  0  0  0  0  0  0  0  0  0
   -3.5920   21.1200  -32.6410 C   0  0  0  0  0  0  0  0  0  0  0  0
   -3.4450   20.8660  -31.2710 C   0  0  0  0  0  0  0  0  0  0  0  0
   -2.1710   20.7690  -30.7020 C   0  0  0  0  0  0  0  0  0  0  0  0
   -1.0350   20.9340  -31.4980 C   0  0  0  0  0  0  0  0  0  0  0  0
   -1.1700   21.2080  -32.8620 C   0  0  0  0  0  0  0  0  0  0  0  0
   -2.4420   21.3060  -33.4350 C   0  0  0  0  0  0  0  0  0  0  0  0
   -1.8800   24.8480  -28.8960 C   0  0  0  0  0  0  0  0  0  0  0  0
   -1.2310   25.9890  -29.3630 O   0  0  0  0  0  0  0  0  0  0  0  0
   -1.2620   24.0460  -27.9150 C   0  0  0  0  0  0  0  0  0  0  0  0
    0.2990   24.6050  -27.2600 S   0  0  0  0  0  0  0  0  0  0  0  0
    1.3120   24.5280  -28.3690 O   0  0  0  0  0  0  0  0  0  0  0  0
    0.7870   23.7630  -26.1180 O   0  0  0  0  0  0  0  0  0  0  0  0
    0.1500   26.2700  -26.7360 N   0  0  0  0  0  0  0  0  0  0  0  0
   -1.2580   26.6550  -26.5290 C   0  0  0  0  0  0  0  0  0  0  0  0
   -1.8460   26.0570  -25.2290 C   0  0  0  0  0  0  0  0  0  0  0  0
   -0.8630   25.6220  -24.3070 O   0  0  0  0  0  0  0  0  0  0  0  0
    0.1900   26.5560  -24.2380 C   0  0  0  0  0  0  0  0  0  0  0  0
    0.9910   26.5550  -25.5520 C   0  0  0  0  0  0  0  0  0  0  0  0
   -1.5361   22.2835  -25.4736 H   0  0  0  0  0  0  0  0  0  0  0  0
   -1.7162   20.9048  -26.6109 H   0  0  0  0  0  0  0  0  0  0  0  0
   -0.2062   21.8777  -26.6109 H   0  0  0  0  0  0  0  0  0  0  0  0
   -3.6126   21.5415  -27.7877 H   0  0  0  0  0  0  0  0  0  0  0  0
   -4.6843   22.9895  -29.4932 H   0  0  0  0  0  0  0  0  0  0  0  0
   -7.3880   23.9925  -30.4578 H   0  0  0  0  0  0  0  0  0  0  0  0
   -9.2623   22.3466  -30.3991 H   0  0  0  0  0  0  0  0  0  0  0  0
   -9.0956   20.2135  -31.6849 H   0  0  0  0  0  0  0  0  0  0  0  0
   -7.0447   19.7103  -33.0097 H   0  0  0  0  0  0  0  0  0  0  0  0
   -4.3369   20.7421  -30.6391 H   0  0  0  0  0  0  0  0  0  0  0  0
   -2.0635   20.5626  -29.6269 H   0  0  0  0  0  0  0  0  0  0  0  0
   -0.0335   20.8482  -31.0511 H   0  0  0  0  0  0  0  0  0  0  0  0
   -0.2745   21.3467  -33.4856 H   0  0  0  0  0  0  0  0  0  0  0  0
   -2.5454   21.5286  -34.5073 H   0  0  0  0  0  0  0  0  0  0  0  0
   -1.3201   27.7518  -26.4734 H   0  0  0  0  0  0  0  0  0  0  0  0
   -1.8418   26.2615  -27.3741 H   0  0  0  0  0  0  0  0  0  0  0  0
   -2.4635   26.8257  -24.7414 H   0  0  0  0  0  0  0  0  0  0  0  0
   -2.4300   25.1708  -25.5182 H   0  0  0  0  0  0  0  0  0  0  0  0
   -0.2259   27.5599  -24.0672 H   0  0  0  0  0  0  0  0  0  0  0  0
    0.8597   26.2800  -23.4102 H   0  0  0  0  0  0  0  0  0  0  0  0
    1.4560   27.5435  -25.6809 H   0  0  0  0  0  0  0  0  0  0  0  0
    1.7438   25.7562  -25.4804 H   0  0  0  0  0  0  0  0  0  0  0  0
  1  2  1  0
  2  3  2  0
  3  4  1  0
  4  5  2  0
  5  6  1  0
  6  7  1  0
  7  8  2  0
  7  9  1  0
  9 10  1  0
 10 11  2  0
 11 12  1  0
 12 13  2  0
 13 14  1  0
 14 15  2  0
 15 16  1  0
 16 17  1  0
 17 18  2  0
 18 19  1  0
 19 20  2  0
 20 21  1  0
 21 22  2  0
  5 23  1  0
 23 24  1  0
 23 25  2  0
 25 26  1  0
 26 27  2  0
 26 28  2  0
 26 29  1  0
 29 30  1  0
 30 31  1  0
 31 32  1  0
 32 33  1  0
 33 34  1  0
 25  2  1  0
 34 29  1  0
 15 10  1  0
 22 17  1  0
  1 35  1  0
  1 36  1  0
  1 37  1  0
  3 38  1  0
  4 39  1  0
 11 40  1  0
 12 41  1  0
 13 42  1  0
 14 43  1  0
 18 44  1  0
 19 45  1  0
 20 46  1  0
 21 47  1  0
 22 48  1  0
 30 49  1  0
 30 50  1  0
 31 51  1  0
 31 52  1  0
 33 53  1  0
 33 54  1  0
 34 55  1  0
 34 56  1  0
M  CHG  3   6  -1   9  -1  24  -1
M  END
>  <UniqueID>  (17) 
17

>  <SMILES>  (17) 
Cc1ccc([N-]C(=O)[N-]c2ccccc2Oc2ccccc2)c([O-])c1S(=O)(=O)N1CCOCC1

>  <Energy>  (17) 
90.22295620090807

>  <Genealogy>  (17) 
Cc1ccc([N-]C(=O)[N-]c2ccccc2Oc2ccccc2)c([O-])c1S(=O)(=O)N1CCOCC1 (protonated)
Cc1ccc([N-]C(=O)[N-]c2ccccc2Oc2ccccc2)c([O-])c1S(=O)(=O)N1CCOCC1 (3D coordinates assigned)
Cc1ccc([N-]C(=O)[N-]c2ccccc2Oc2ccccc2)c([O-])c1S(=O)(=O)N1CCOCC1 (nonaromatic ring conformer: 90.22295620090807 kcal/mol)

>  <smiles>  (17) 
Cc1ccc(NC(=O)Nc2ccccc2Oc2ccccc2)c(O)c1S(=O)(=O)N1CCOCC1

>  <score_type>  (17) 
oracle

>  <origin>  (17) 
adgpu

>  <m_score__min__energy>  (17) 
-15.619999999999999

>  <m_primary>  (17) 
energy

$$$$
17:0
     RDKit          3D

 42 44  0  0  1  0  0  0  0  0999 V2000
   -8.9570   19.3050  -32.1140 C   0  0  0  0  0  0  0  0  0  0  0  0
   -8.2760   20.2540  -32.9420 N   0  0  0  0  0  0  0  0  0  0  0  0
   -6.5920   20.2820  -32.5990 S   0  0  0  0  0  0  0  0  0  0  0  0
   -5.7700   20.1170  -33.8470 O   0  0  0  0  0  0  0  0  0  0  0  0
   -6.2560   19.1990  -31.6050 O   0  0  0  0  0  0  0  0  0  0  0  0
   -6.2030   21.8440  -31.9190 C   0  0  0  0  0  0  0  0  0  0  0  0
   -7.1020   22.8800  -32.0420 C   0  0  0  0  0  0  0  0  0  0  0  0
   -6.8780   24.1450  -31.5290 C   0  0  0  0  0  0  0  0  0  0  0  0
   -5.6650   24.3390  -30.8600 C   0  0  0  0  0  0  0  0  0  0  0  0
   -4.7630   23.3080  -30.7340 C   0  0  0  0  0  0  0  0  0  0  0  0
   -3.5410   23.5900  -30.0160 N   0  0  0  0  0  0  0  0  0  0  0  0
   -3.5820   23.9870  -28.7690 C   0  0  0  0  0  0  0  0  0  0  0  0
   -4.6150   24.1960  -27.9740 N   0  0  0  0  0  0  0  0  0  0  0  0
   -4.1470   24.6200  -26.8190 N   0  0  0  0  0  0  0  0  0  0  0  0
   -2.8070   24.6990  -26.8210 C   0  0  0  0  0  0  0  0  0  0  0  0
   -2.0050   25.1500  -25.7450 N   0  0  0  0  0  0  0  0  0  0  0  0
   -1.3340   26.3860  -25.6850 C   0  0  0  0  0  0  0  0  0  0  0  0
   -0.8960   26.9220  -26.9030 C   0  0  0  0  0  0  0  0  0  0  0  0
   -0.2380   28.1500  -26.8560 C   0  0  0  0  0  0  0  0  0  0  0  0
   -0.0130   28.8270  -25.6810 C   0  0  0  0  0  0  0  0  0  0  0  0
   -0.4420   28.3000  -24.4820 C   0  0  0  0  0  0  0  0  0  0  0  0
   -1.0920   27.0890  -24.5250 C   0  0  0  0  0  0  0  0  0  0  0  0
   -2.4040   24.2900  -28.0890 C   0  0  0  0  0  0  0  0  0  0  0  0
   -1.0650   24.2110  -28.5880 C   0  0  0  0  0  0  0  0  0  0  0  0
    0.0150   24.1660  -28.9980 N   0  0  0  0  0  0  0  0  0  0  0  0
   -4.9890   22.0520  -31.2450 C   0  0  0  0  0  0  0  0  0  0  0  0
   -8.7817   19.5492  -31.0559 H   0  0  0  0  0  0  0  0  0  0  0  0
  -10.0359   19.3420  -32.3250 H   0  0  0  0  0  0  0  0  0  0  0  0
   -8.5765   18.2947  -32.3250 H   0  0  0  0  0  0  0  0  0  0  0  0
   -8.3880   20.0190  -33.9430 H   0  0  0  0  0  0  0  0  0  0  0  0
   -8.0457   22.6921  -32.5750 H   0  0  0  0  0  0  0  0  0  0  0  0
   -7.6141   24.9547  -31.6411 H   0  0  0  0  0  0  0  0  0  0  0  0
   -5.4304   25.3243  -30.4310 H   0  0  0  0  0  0  0  0  0  0  0  0
   -5.6070   24.0350  -28.2530 H   0  0  0  0  0  0  0  0  0  0  0  0
   -4.7540   24.8630  -26.0040 H   0  0  0  0  0  0  0  0  0  0  0  0
   -1.8870   24.5150  -24.9040 H   0  0  0  0  0  0  0  0  0  0  0  0
   -1.0640   26.3968  -27.8548 H   0  0  0  0  0  0  0  0  0  0  0  0
    0.1156   28.5954  -27.7976 H   0  0  0  0  0  0  0  0  0  0  0  0
    0.5118   29.7936  -25.6978 H   0  0  0  0  0  0  0  0  0  0  0  0
   -0.2717   28.8258  -23.5309 H   0  0  0  0  0  0  0  0  0  0  0  0
   -1.4398   26.6553  -23.5758 H   0  0  0  0  0  0  0  0  0  0  0  0
   -4.2506   21.2447  -31.1308 H   0  0  0  0  0  0  0  0  0  0  0  0
  1  2  1  0
  2  3  1  0
  3  4  2  0
  3  5  2  0
  3  6  1  0
  6  7  2  0
  7  8  1  0
  8  9  2  0
  9 10  1  0
 10 11  1  0
 11 12  2  0
 12 13  1  0
 13 14  1  0
 14 15  1  0
 15 16  1  0
 16 17  1  0
 17 18  2  0
 18 19  1  0
 19 20  2  0
 20 21  1  0
 21 22  2  0
 15 23  2  0
 23 24  1  0
 24 25  3  0
 10 26  2  0
 26  6  1  0
 23 12  1  0
 22 17  1  0
  1 27  1  0
  1 28  1  0
  1 29  1  0
  2 30  1  0
  7 31  1  0
  8 32  1  0
  9 33  1  0
 13 34  1  0
 14 35  1  0
 16 36  1  0
 18 37  1  0
 19 38  1  0
 20 39  1  0
 21 40  1  0
 22 41  1  0
 26 42  1  0
M  END
>  <smiles>  (18) 
CNS(=O)(=O)c1cccc(N=c2[nH][nH]c(Nc3ccccc3)c2C#N)c1

>  <score_type>  (18) 
oracle

>  <origin>  (18) 
adgpu

>  <m_score__min__energy>  (18) 
-9

>  <m_primary>  (18) 
energy

$$$$
18:0
     RDKit          3D

 52 55  0  0  0  0  0  0  0  0999 V2000
   -1.6020   16.3970  -34.3810 C   0  0  0  0  0  0  0  0  0  0  0  0
   -2.9210   17.1340  -34.6480 C   0  0  0  0  0  0  0  0  0  0  0  0
   -4.1350   16.3080  -34.1590 C   0  0  0  0  0  0  0  0  0  0  0  0
   -4.5400   16.7000  -32.7280 C   0  0  0  0  0  0  0  0  0  0  0  0
   -4.8780   18.1390  -32.5950 N   0  0  0  0  0  0  0  0  0  0  0  0
   -6.6060   18.3910  -32.4930 S   0  0  0  0  0  0  0  0  0  0  0  0
   -7.1800   17.4970  -31.4300 O   0  0  0  0  0  0  0  0  0  0  0  0
   -7.2430   18.0230  -33.8050 O   0  0  0  0  0  0  0  0  0  0  0  0
   -6.9890   20.0720  -32.1120 C   0  0  0  0  0  0  0  0  0  0  0  0
   -8.0930   20.3800  -31.3050 C   0  0  0  0  0  0  0  0  0  0  0  0
   -8.3750   21.7100  -30.9780 C   0  0  0  0  0  0  0  0  0  0  0  0
   -7.5470   22.7410  -31.4320 C   0  0  0  0  0  0  0  0  0  0  0  0
   -7.8440   24.0910  -31.0530 N   0  0  0  0  0  0  0  0  0  0  0  0
   -7.0450   24.8890  -30.1710 C   0  0  0  0  0  0  0  0  0  0  0  0
   -7.6170   25.6600  -29.3570 O   0  0  0  0  0  0  0  0  0  0  0  0
   -5.5740   24.7900  -30.1550 C   0  0  0  0  0  0  0  0  0  0  0  0
   -4.7990   24.1940  -29.1800 C   0  0  0  0  0  0  0  0  0  0  0  0
   -3.5000   24.4110  -29.6020 C   0  0  0  0  0  0  0  0  0  0  0  0
   -2.2610   24.0210  -28.8850 C   0  0  0  0  0  0  0  0  0  0  0  0
   -2.1620   22.7480  -28.2890 C   0  0  0  0  0  0  0  0  0  0  0  0
   -1.0180   22.3860  -27.5730 C   0  0  0  0  0  0  0  0  0  0  0  0
    0.0440   23.2830  -27.4480 C   0  0  0  0  0  0  0  0  0  0  0  0
   -0.0340   24.5430  -28.0420 C   0  0  0  0  0  0  0  0  0  0  0  0
   -1.1780   24.9180  -28.7580 C   0  0  0  0  0  0  0  0  0  0  0  0
   -1.2190   26.1790  -29.3430 O   0  0  0  0  0  0  0  0  0  0  0  0
   -3.5180   25.1020  -30.7600 N   0  0  0  0  0  0  0  0  0  0  0  0
   -4.7780   25.3360  -31.0940 N   0  0  0  0  0  0  0  0  0  0  0  0
   -6.4590   22.4350  -32.2720 C   0  0  0  0  0  0  0  0  0  0  0  0
   -5.6790   23.4180  -32.7870 F   0  0  0  0  0  0  0  0  0  0  0  0
   -6.1870   21.1070  -32.6080 C   0  0  0  0  0  0  0  0  0  0  0  0
   -4.2960   19.0110  -33.6380 C   0  0  0  0  0  0  0  0  0  0  0  0
   -2.8880   18.5490  -34.0220 C   0  0  0  0  0  0  0  0  0  0  0  0
   -1.4443   16.3089  -33.2959 H   0  0  0  0  0  0  0  0  0  0  0  0
   -1.6461   15.3928  -34.8278 H   0  0  0  0  0  0  0  0  0  0  0  0
   -0.7699   16.9609  -34.8278 H   0  0  0  0  0  0  0  0  0  0  0  0
   -3.0383   17.2552  -35.7350 H   0  0  0  0  0  0  0  0  0  0  0  0
   -4.9852   16.4875  -34.8335 H   0  0  0  0  0  0  0  0  0  0  0  0
   -3.8537   15.2446  -34.1604 H   0  0  0  0  0  0  0  0  0  0  0  0
   -5.4183   16.1052  -32.4368 H   0  0  0  0  0  0  0  0  0  0  0  0
   -3.6764   16.5030  -32.0758 H   0  0  0  0  0  0  0  0  0  0  0  0
   -8.7391   19.5735  -30.9280 H   0  0  0  0  0  0  0  0  0  0  0  0
   -9.2536   21.9465  -30.3598 H   0  0  0  0  0  0  0  0  0  0  0  0
   -5.1372   23.6675  -28.2753 H   0  0  0  0  0  0  0  0  0  0  0  0
   -2.9922   22.0333  -28.3882 H   0  0  0  0  0  0  0  0  0  0  0  0
   -0.9542   21.3917  -27.1068 H   0  0  0  0  0  0  0  0  0  0  0  0
    0.9422   22.9966  -26.8813 H   0  0  0  0  0  0  0  0  0  0  0  0
    0.8072   25.2455  -27.9476 H   0  0  0  0  0  0  0  0  0  0  0  0
   -5.3375   20.8727  -33.2664 H   0  0  0  0  0  0  0  0  0  0  0  0
   -4.9391   18.9821  -34.5300 H   0  0  0  0  0  0  0  0  0  0  0  0
   -4.2309   20.0346  -33.2404 H   0  0  0  0  0  0  0  0  0  0  0  0
   -2.4638   19.2552  -34.7509 H   0  0  0  0  0  0  0  0  0  0  0  0
   -2.2694   18.5161  -33.1130 H   0  0  0  0  0  0  0  0  0  0  0  0
  1  2  1  0
  2  3  1  0
  3  4  1  0
  4  5  1  0
  5  6  1  0
  6  7  2  0
  6  8  2  0
  6  9  1  0
  9 10  2  0
 10 11  1  0
 11 12  2  0
 12 13  1  0
 13 14  1  0
 14 15  2  0
 14 16  1  0
 16 17  1  0
 17 18  2  0
 18 19  1  0
 19 20  2  0
 20 21  1  0
 21 22  2  0
 22 23  1  0
 23 24  2  0
 24 25  1  0
 18 26  1  0
 26 27  1  0
 12 28  1  0
 28 29  1  0
 28 30  2  0
  5 31  1  0
 31 32  1  0
 32  2  1  0
 30  9  1  0
 27 16  2  0
 24 19  1  0
  1 33  1  0
  1 34  1  0
  1 35  1  0
  2 36  1  0
  3 37  1  0
  3 38  1  0
  4 39  1  0
  4 40  1  0
 10 41  1  0
 11 42  1  0
 17 43  1  0
 20 44  1  0
 21 45  1  0
 22 46  1  0
 23 47  1  0
 30 48  1  0
 31 49  1  0
 31 50  1  0
 32 51  1  0
 32 52  1  0
M  CHG  3  13  -1  25  -1  26  -1
M  END
>  <UniqueID>  (19) 
18

>  <SMILES>  (19) 
CC1CCN(S(=O)(=O)c2ccc([N-]C(=O)c3cc(-c4ccccc4[O-])[n-]n3)c(F)c2)CC1

>  <Energy>  (19) 
93.76905124498032

>  <Genealogy>  (19) 
CC1CCN(S(=O)(=O)c2ccc([N-]C(=O)c3cc(-c4ccccc4[O-])[n-]n3)c(F)c2)CC1 (protonated)
CC1CCN(S(=O)(=O)c2ccc([N-]C(=O)c3cc(-c4ccccc4[O-])[n-]n3)c(F)c2)CC1 (3D coordinates assigned)
CC1CCN(S(=O)(=O)c2ccc([N-]C(=O)c3cc(-c4ccccc4[O-])[n-]n3)c(F)c2)CC1 (nonaromatic ring conformer: 93.76905124498032 kcal/mol)

>  <smiles>  (19) 
CC1CCN(S(=O)(=O)c2ccc(NC(=O)c3cc(-c4ccccc4O)[nH]n3)c(F)c2)CC1

>  <score_type>  (19) 
oracle

>  <origin>  (19) 
adgpu

>  <m_score__min__energy>  (19) 
-15.279999999999999

>  <m_primary>  (19) 
energy

$$$$
19:0
     RDKit          3D

 62 66  0  0  0  0  0  0  0  0999 V2000
   -4.1020   18.2240  -34.1180 C   0  0  0  0  0  0  0  0  0  0  0  0
   -4.0130   19.5740  -33.4680 C   0  0  0  0  0  0  0  0  0  0  0  0
   -2.9310   20.4480  -33.4780 C   0  0  0  0  0  0  0  0  0  0  0  0
   -1.5990   20.2260  -34.0730 C   0  0  0  0  0  0  0  0  0  0  0  0
   -1.1860   19.0530  -34.2750 O   0  0  0  0  0  0  0  0  0  0  0  0
   -0.7810   21.3490  -34.4390 N   0  0  0  0  0  0  0  0  0  0  0  0
    0.5920   21.2230  -34.8410 C   0  0  0  0  0  0  0  0  0  0  0  0
    1.2470   19.9960  -34.6610 C   0  0  0  0  0  0  0  0  0  0  0  0
    2.5790   19.8310  -35.0610 C   0  0  0  0  0  0  0  0  0  0  0  0
    3.3920   18.2800  -34.8350 S   0  0  0  0  0  0  0  0  0  0  0  0
    4.5520   18.1850  -35.7870 O   0  0  0  0  0  0  0  0  0  0  0  0
    3.9320   18.2040  -33.4350 O   0  0  0  0  0  0  0  0  0  0  0  0
    2.3070   16.9360  -35.1160 N   0  0  0  0  0  0  0  0  0  0  0  0
    1.2880   16.8640  -34.0510 C   0  0  0  0  0  0  0  0  0  0  0  0
    0.0640   16.0650  -34.5270 C   0  0  0  0  0  0  0  0  0  0  0  0
   -0.5850   16.6230  -35.6630 O   0  0  0  0  0  0  0  0  0  0  0  0
    0.2570   17.4450  -36.4590 C   0  0  0  0  0  0  0  0  0  0  0  0
    1.7250   16.9790  -36.4760 C   0  0  0  0  0  0  0  0  0  0  0  0
    3.2610   20.9070  -35.6460 C   0  0  0  0  0  0  0  0  0  0  0  0
    2.6080   22.1240  -35.8530 C   0  0  0  0  0  0  0  0  0  0  0  0
    1.2740   22.2840  -35.4680 C   0  0  0  0  0  0  0  0  0  0  0  0
    0.6300   23.4870  -35.7370 O   0  0  0  0  0  0  0  0  0  0  0  0
   -3.2680   21.5800  -32.8280 N   0  0  0  0  0  0  0  0  0  0  0  0
   -4.5140   21.4570  -32.3970 N   0  0  0  0  0  0  0  0  0  0  0  0
   -5.1700   22.4780  -31.6260 C   0  0  0  0  0  0  0  0  0  0  0  0
   -6.2610   23.1940  -32.1510 C   0  0  0  0  0  0  0  0  0  0  0  0
   -6.8950   24.1750  -31.3840 C   0  0  0  0  0  0  0  0  0  0  0  0
   -6.4580   24.4400  -30.0830 C   0  0  0  0  0  0  0  0  0  0  0  0
   -7.0760   25.3910  -29.3410 F   0  0  0  0  0  0  0  0  0  0  0  0
   -5.3880   23.7180  -29.5460 C   0  0  0  0  0  0  0  0  0  0  0  0
   -4.7500   22.7360  -30.3110 C   0  0  0  0  0  0  0  0  0  0  0  0
   -5.0010   20.2470  -32.7640 C   0  0  0  0  0  0  0  0  0  0  0  0
   -6.3840   19.7770  -32.5360 C   0  0  0  0  0  0  0  0  0  0  0  0
   -6.6220   18.5960  -31.8120 C   0  0  0  0  0  0  0  0  0  0  0  0
   -7.9310   18.1620  -31.5850 C   0  0  0  0  0  0  0  0  0  0  0  0
   -9.0090   18.9000  -32.0780 C   0  0  0  0  0  0  0  0  0  0  0  0
   -8.7810   20.0750  -32.7990 C   0  0  0  0  0  0  0  0  0  0  0  0
   -7.4740   20.5130  -33.0290 C   0  0  0  0  0  0  0  0  0  0  0  0
   -4.1533   17.4461  -33.3420 H   0  0  0  0  0  0  0  0  0  0  0  0
   -5.0052   18.1774  -34.7442 H   0  0  0  0  0  0  0  0  0  0  0  0
   -3.2128   18.0592  -34.7442 H   0  0  0  0  0  0  0  0  0  0  0  0
   -1.2430   22.2780  -34.5620 H   0  0  0  0  0  0  0  0  0  0  0  0
    0.7088   19.1543  -34.2007 H   0  0  0  0  0  0  0  0  0  0  0  0
    1.7213   16.3702  -33.1687 H   0  0  0  0  0  0  0  0  0  0  0  0
    0.9680   17.8852  -33.7965 H   0  0  0  0  0  0  0  0  0  0  0  0
    0.3934   15.0469  -34.7821 H   0  0  0  0  0  0  0  0  0  0  0  0
   -0.6658   16.0803  -33.7041 H   0  0  0  0  0  0  0  0  0  0  0  0
   -0.1233   17.4382  -37.4911 H   0  0  0  0  0  0  0  0  0  0  0  0
    0.2404   18.4523  -36.0173 H   0  0  0  0  0  0  0  0  0  0  0  0
    1.7731   15.9717  -36.9152 H   0  0  0  0  0  0  0  0  0  0  0  0
    2.3042   17.6999  -37.0716 H   0  0  0  0  0  0  0  0  0  0  0  0
    4.3139   20.7924  -35.9430 H   0  0  0  0  0  0  0  0  0  0  0  0
    3.1464   22.9610  -36.3215 H   0  0  0  0  0  0  0  0  0  0  0  0
   -6.6167   22.9807  -33.1698 H   0  0  0  0  0  0  0  0  0  0  0  0
   -7.7398   24.7399  -31.8050 H   0  0  0  0  0  0  0  0  0  0  0  0
   -5.0473   23.9225  -28.5203 H   0  0  0  0  0  0  0  0  0  0  0  0
   -3.9154   22.1632  -29.8806 H   0  0  0  0  0  0  0  0  0  0  0  0
   -5.7753   18.0115  -31.4228 H   0  0  0  0  0  0  0  0  0  0  0  0
   -8.1123   17.2376  -31.0171 H   0  0  0  0  0  0  0  0  0  0  0  0
  -10.0384   18.5562  -31.8987 H   0  0  0  0  0  0  0  0  0  0  0  0
   -9.6312   20.6559  -33.1860 H   0  0  0  0  0  0  0  0  0  0  0  0
   -7.2982   21.4377  -33.5983 H   0  0  0  0  0  0  0  0  0  0  0  0
  1  2  1  0
  2  3  1  0
  3  4  1  0
  4  5  2  0
  4  6  1  0
  6  7  1  0
  7  8  2  0
  8  9  1  0
  9 10  1  0
 10 11  2  0
 10 12  2  0
 10 13  1  0
 13 14  1  0
 14 15  1  0
 15 16  1  0
 16 17  1  0
 17 18  1  0
  9 19  2  0
 19 20  1  0
 20 21  2  0
 21 22  1  0
  3 23  2  0
 23 24  1  0
 24 25  1  0
 25 26  2  0
 26 27  1  0
 27 28  2  0
 28 29  1  0
 28 30  1  0
 30 31  2  0
 24 32  1  0
 32 33  1  0
 33 34  2  0
 34 35  1  0
 35 36  2  0
 36 37  1  0
 37 38  2  0
 32  2  2  0
 38 33  1  0
 21  7  1  0
 31 25  1  0
 18 13  1  0
  1 39  1  0
  1 40  1  0
  1 41  1  0
  6 42  1  0
  8 43  1  0
 14 44  1  0
 14 45  1  0
 15 46  1  0
 15 47  1  0
 17 48  1  0
 17 49  1  0
 18 50  1  0
 18 51  1  0
 19 52  1  0
 20 53  1  0
 26 54  1  0
 27 55  1  0
 30 56  1  0
 31 57  1  0
 34 58  1  0
 35 59  1  0
 36 60  1  0
 37 61  1  0
 38 62  1  0
M  CHG  1  22  -1
M  END
>  <UniqueID>  (20) 
19

>  <SMILES>  (20) 
Cc1c(C(=O)Nc2cc(S(=O)(=O)N3CCOCC3)ccc2[O-])nn(-c2ccc(F)cc2)c1-c1ccccc1

>  <Energy>  (20) 
124.22779340682678

>  <Genealogy>  (20) 
Cc1c(C(=O)Nc2cc(S(=O)(=O)N3CCOCC3)ccc2[O-])nn(-c2ccc(F)cc2)c1-c1ccccc1 (protonated)
Cc1c(C(=O)Nc2cc(S(=O)(=O)N3CCOCC3)ccc2[O-])nn(-c2ccc(F)cc2)c1-c1ccccc1 (3D coordinates assigned)
Cc1c(C(=O)Nc2cc(S(=O)(=O)N3CCOCC3)ccc2[O-])nn(-c2ccc(F)cc2)c1-c1ccccc1 (nonaromatic ring conformer: 124.22779340682678 kcal/mol)

>  <smiles>  (20) 
Cc1c(C(=O)Nc2cc(S(=O)(=O)N3CCOCC3)ccc2O)nn(-c2ccc(F)cc2)c1-c1ccccc1

>  <score_type>  (20) 
oracle

>  <origin>  (20) 
adgpu

>  <m_score__min__energy>  (20) 
-12.98

>  <m_primary>  (20) 
energy

$$$$
20:0
     RDKit          3D

 52 55  0  0  0  0  0  0  0  0999 V2000
   -6.8840   24.9300  -30.0100 O   0  0  0  0  0  0  0  0  0  0  0  0
   -5.4360   24.6250  -30.2740 S   0  0  0  0  0  0  0  0  0  0  0  0
   -4.8740   25.6700  -31.1950 O   0  0  0  0  0  0  0  0  0  0  0  0
   -4.5680   24.6500  -28.7710 N   0  0  0  0  0  0  0  0  0  0  0  0
   -3.3960   23.8480  -28.5330 C   0  0  0  0  0  0  0  0  0  0  0  0
   -3.5030   22.5490  -28.0030 C   0  0  0  0  0  0  0  0  0  0  0  0
   -2.3620   21.7550  -27.8330 C   0  0  0  0  0  0  0  0  0  0  0  0
   -1.0980   22.2660  -28.1570 C   0  0  0  0  0  0  0  0  0  0  0  0
   -0.9790   23.5750  -28.6390 C   0  0  0  0  0  0  0  0  0  0  0  0
   -2.1210   24.3610  -28.8350 C   0  0  0  0  0  0  0  0  0  0  0  0
   -1.9780   25.6480  -29.3400 O   0  0  0  0  0  0  0  0  0  0  0  0
    0.1160   21.4120  -27.9000 C   0  0  0  0  0  0  0  0  0  0  0  0
   -0.1130   19.9420  -28.3130 C   0  0  0  0  0  0  0  0  0  0  0  0
   -1.5620   19.4210  -28.1220 C   0  0  0  0  0  0  0  0  0  0  0  0
   -2.4540   20.3550  -27.2930 C   0  0  0  0  0  0  0  0  0  0  0  0
   -5.2590   23.0460  -31.0360 C   0  0  0  0  0  0  0  0  0  0  0  0
   -4.0260   22.6420  -31.5660 C   0  0  0  0  0  0  0  0  0  0  0  0
   -3.9100   21.4120  -32.2180 C   0  0  0  0  0  0  0  0  0  0  0  0
   -5.0250   20.5700  -32.3410 C   0  0  0  0  0  0  0  0  0  0  0  0
   -4.8780   19.0130  -33.1580 S   0  0  0  0  0  0  0  0  0  0  0  0
   -5.4100   19.1390  -34.5580 O   0  0  0  0  0  0  0  0  0  0  0  0
   -3.4240   18.6400  -33.2490 O   0  0  0  0  0  0  0  0  0  0  0  0
   -5.7490   17.7460  -32.3210 N   0  0  0  0  0  0  0  0  0  0  0  0
   -7.0410   17.4780  -32.9620 C   0  0  0  0  0  0  0  0  0  0  0  0
   -6.8860   16.2660  -33.8690 C   0  0  0  0  0  0  0  0  0  0  0  0
   -5.5710   15.6210  -33.4750 C   0  0  0  0  0  0  0  0  0  0  0  0
   -5.0070   16.4810  -32.3530 C   0  0  0  0  0  0  0  0  0  0  0  0
   -6.2570   20.9750  -31.8100 C   0  0  0  0  0  0  0  0  0  0  0  0
   -6.3720   22.2050  -31.1570 C   0  0  0  0  0  0  0  0  0  0  0  0
   -4.8320   25.3930  -28.0870 H   0  0  0  0  0  0  0  0  0  0  0  0
   -4.4900   22.1543  -27.7201 H   0  0  0  0  0  0  0  0  0  0  0  0
    0.0154   23.9875  -28.8646 H   0  0  0  0  0  0  0  0  0  0  0  0
    0.9621   21.8150  -28.4759 H   0  0  0  0  0  0  0  0  0  0  0  0
    0.3238   21.4331  -26.8200 H   0  0  0  0  0  0  0  0  0  0  0  0
    0.1469   19.8429  -29.3773 H   0  0  0  0  0  0  0  0  0  0  0  0
    0.5199   19.3357  -27.6483 H   0  0  0  0  0  0  0  0  0  0  0  0
   -2.0190   19.2965  -29.1148 H   0  0  0  0  0  0  0  0  0  0  0  0
   -1.4903   18.4732  -27.5684 H   0  0  0  0  0  0  0  0  0  0  0  0
   -3.4968   20.0094  -27.3488 H   0  0  0  0  0  0  0  0  0  0  0  0
   -2.1172   20.3457  -26.2459 H   0  0  0  0  0  0  0  0  0  0  0  0
   -3.1467   23.2957  -31.4682 H   0  0  0  0  0  0  0  0  0  0  0  0
   -2.9408   21.1027  -32.6364 H   0  0  0  0  0  0  0  0  0  0  0  0
   -7.8010   17.2722  -32.1939 H   0  0  0  0  0  0  0  0  0  0  0  0
   -7.3591   18.3515  -33.5501 H   0  0  0  0  0  0  0  0  0  0  0  0
   -7.7185   15.5636  -33.7154 H   0  0  0  0  0  0  0  0  0  0  0  0
   -6.8949   16.5513  -34.9313 H   0  0  0  0  0  0  0  0  0  0  0  0
   -5.7393   14.5929  -33.1220 H   0  0  0  0  0  0  0  0  0  0  0  0
   -4.8779   15.5616  -34.3271 H   0  0  0  0  0  0  0  0  0  0  0  0
   -5.1213   15.9589  -31.3915 H   0  0  0  0  0  0  0  0  0  0  0  0
   -3.9380   16.6743  -32.5261 H   0  0  0  0  0  0  0  0  0  0  0  0
   -7.1369   20.3221  -31.9076 H   0  0  0  0  0  0  0  0  0  0  0  0
   -7.3404   22.5137  -30.7365 H   0  0  0  0  0  0  0  0  0  0  0  0
  1  2  2  0
  2  3  2  0
  2  4  1  0
  4  5  1  0
  5  6  2  0
  6  7  1  0
  7  8  2  0
  8  9  1  0
  9 10  2  0
 10 11  1  0
  8 12  1  0
 12 13  1  0
 13 14  1  0
 14 15  1  0
  2 16  1  0
 16 17  2  0
 17 18  1  0
 18 19  2  0
 19 20  1  0
 20 21  2  0
 20 22  2  0
 20 23  1  0
 23 24  1  0
 24 25  1  0
 25 26  1  0
 26 27  1  0
 19 28  1  0
 28 29  2  0
 10  5  1  0
 29 16  1  0
 15  7  1  0
 27 23  1  0
  4 30  1  0
  6 31  1  0
  9 32  1  0
 12 33  1  0
 12 34  1  0
 13 35  1  0
 13 36  1  0
 14 37  1  0
 14 38  1  0
 15 39  1  0
 15 40  1  0
 17 41  1  0
 18 42  1  0
 24 43  1  0
 24 44  1  0
 25 45  1  0
 25 46  1  0
 26 47  1  0
 26 48  1  0
 27 49  1  0
 27 50  1  0
 28 51  1  0
 29 52  1  0
M  CHG  1  11  -1
M  END
>  <UniqueID>  (21) 
20

>  <SMILES>  (21) 
O=S(=O)(Nc1cc2c(cc1[O-])CCCC2)c1ccc(S(=O)(=O)N2CCCC2)cc1

>  <Energy>  (21) 
61.17012514275434

>  <Genealogy>  (21) 
O=S(=O)(Nc1cc2c(cc1[O-])CCCC2)c1ccc(S(=O)(=O)N2CCCC2)cc1 (protonated)
O=S(=O)(Nc1cc2c(cc1[O-])CCCC2)c1ccc(S(=O)(=O)N2CCCC2)cc1 (3D coordinates assigned)
O=S(=O)(Nc1cc2c(cc1[O-])CCCC2)c1ccc(S(=O)(=O)N2CCCC2)cc1 (nonaromatic ring conformer: 61.17012514275434 kcal/mol)

>  <smiles>  (21) 
O=S(=O)(Nc1cc2c(cc1O)CCCC2)c1ccc(S(=O)(=O)N2CCCC2)cc1

>  <score_type>  (21) 
oracle

>  <origin>  (21) 
adgpu

>  <m_score__min__energy>  (21) 
-14.73

>  <m_primary>  (21) 
energy

$$$$
21:0
     RDKit          3D

 46 48  0  0  0  0  0  0  0  0999 V2000
   -2.1150   25.6700  -25.9370 C   0  0  0  0  0  0  0  0  0  0  0  0
   -0.8790   24.3720  -26.2480 S   0  0  0  0  0  0  0  0  0  0  0  0
   -1.6490   23.8410  -27.7780 C   0  0  0  0  0  0  0  0  0  0  0  0
   -1.4950   22.5210  -28.2190 C   0  0  0  0  0  0  0  0  0  0  0  0
   -2.0850   22.1110  -29.4170 C   0  0  0  0  0  0  0  0  0  0  0  0
   -2.8380   23.0140  -30.1740 C   0  0  0  0  0  0  0  0  0  0  0  0
   -3.0200   24.3350  -29.7230 C   0  0  0  0  0  0  0  0  0  0  0  0
   -3.7740   25.2930  -30.4810 N   0  0  0  0  0  0  0  0  0  0  0  0
   -5.2040   25.4060  -30.5140 C   0  0  0  0  0  0  0  0  0  0  0  0
   -5.7300   26.5080  -30.2060 O   0  0  0  0  0  0  0  0  0  0  0  0
   -6.0740   24.2550  -30.8490 C   0  0  0  0  0  0  0  0  0  0  0  0
   -6.4780   23.3610  -29.8430 C   0  0  0  0  0  0  0  0  0  0  0  0
   -7.3130   22.2820  -30.1480 C   0  0  0  0  0  0  0  0  0  0  0  0
   -7.7410   22.0730  -31.4670 C   0  0  0  0  0  0  0  0  0  0  0  0
   -8.8240   20.7400  -31.8620 S   0  0  0  0  0  0  0  0  0  0  0  0
   -9.0790   19.9540  -30.6060 O   0  0  0  0  0  0  0  0  0  0  0  0
  -10.1380   21.2800  -32.3550 O   0  0  0  0  0  0  0  0  0  0  0  0
   -8.0970   19.6910  -33.0650 N   0  0  0  0  0  0  0  0  0  0  0  0
   -8.0320   18.2890  -32.6060 C   0  0  0  0  0  0  0  0  0  0  0  0
   -6.9570   18.0820  -31.5110 C   0  0  0  0  0  0  0  0  0  0  0  0
   -5.9890   19.1160  -31.4620 O   0  0  0  0  0  0  0  0  0  0  0  0
   -5.6050   19.4890  -32.7660 C   0  0  0  0  0  0  0  0  0  0  0  0
   -6.7670   20.1950  -33.4920 C   0  0  0  0  0  0  0  0  0  0  0  0
   -7.3250   22.9500  -32.4760 C   0  0  0  0  0  0  0  0  0  0  0  0
   -6.4930   24.0300  -32.1710 C   0  0  0  0  0  0  0  0  0  0  0  0
   -2.4080   24.7450  -28.5320 C   0  0  0  0  0  0  0  0  0  0  0  0
   -2.2419   25.8032  -24.8525 H   0  0  0  0  0  0  0  0  0  0  0  0
   -1.7748   26.6152  -26.3852 H   0  0  0  0  0  0  0  0  0  0  0  0
   -3.0757   25.3765  -26.3852 H   0  0  0  0  0  0  0  0  0  0  0  0
   -0.9092   21.8066  -27.6219 H   0  0  0  0  0  0  0  0  0  0  0  0
   -1.9570   21.0756  -29.7656 H   0  0  0  0  0  0  0  0  0  0  0  0
   -3.2891   22.6914  -31.1240 H   0  0  0  0  0  0  0  0  0  0  0  0
   -6.1350   23.5111  -28.8087 H   0  0  0  0  0  0  0  0  0  0  0  0
   -7.6351   21.5952  -29.3514 H   0  0  0  0  0  0  0  0  0  0  0  0
   -8.7340   19.7190  -33.8940 H   0  0  0  0  0  0  0  0  0  0  0  0
   -9.0129   18.0039  -32.1980 H   0  0  0  0  0  0  0  0  0  0  0  0
   -7.7604   17.6631  -33.4689 H   0  0  0  0  0  0  0  0  0  0  0  0
   -7.4609   18.0311  -30.5345 H   0  0  0  0  0  0  0  0  0  0  0  0
   -6.4228   17.1521  -31.7558 H   0  0  0  0  0  0  0  0  0  0  0  0
   -4.7457   20.1733  -32.7081 H   0  0  0  0  0  0  0  0  0  0  0  0
   -5.3329   18.5837  -33.3285 H   0  0  0  0  0  0  0  0  0  0  0  0
   -6.7133   21.2727  -33.2781 H   0  0  0  0  0  0  0  0  0  0  0  0
   -6.6622   19.9893  -34.5675 H   0  0  0  0  0  0  0  0  0  0  0  0
   -7.6546   22.7880  -33.5129 H   0  0  0  0  0  0  0  0  0  0  0  0
   -6.1637   24.7089  -32.9714 H   0  0  0  0  0  0  0  0  0  0  0  0
   -2.5240   25.7829  -28.1867 H   0  0  0  0  0  0  0  0  0  0  0  0
  1  2  1  0
  2  3  1  0
  3  4  2  0
  4  5  1  0
  5  6  2  0
  6  7  1  0
  7  8  1  0
  8  9  1  0
  9 10  2  0
  9 11  1  0
 11 12  2  0
 12 13  1  0
 13 14  2  0
 14 15  1  0
 15 16  2  0
 15 17  2  0
 15 18  1  0
 18 19  1  0
 19 20  1  0
 20 21  1  0
 21 22  1  0
 22 23  1  0
 14 24  1  0
 24 25  2  0
  7 26  2  0
 26  3  1  0
 25 11  1  0
 23 18  1  0
  1 27  1  0
  1 28  1  0
  1 29  1  0
  4 30  1  0
  5 31  1  0
  6 32  1  0
 12 33  1  0
 13 34  1  0
 18 35  1  0
 19 36  1  0
 19 37  1  0
 20 38  1  0
 20 39  1  0
 22 40  1  0
 22 41  1  0
 23 42  1  0
 23 43  1  0
 24 44  1  0
 25 45  1  0
 26 46  1  0
M  CHG  2   8  -1  18   1
M  END
>  <UniqueID>  (22) 
21

>  <SMILES>  (22) 
CSc1cccc([N-]C(=O)c2ccc(S(=O)(=O)[NH+]3CCOCC3)cc2)c1

>  <Energy>  (22) 
60.048352141239164

>  <Genealogy>  (22) 
CSc1cccc([N-]C(=O)c2ccc(S(=O)(=O)[NH+]3CCOCC3)cc2)c1 (protonated)
CSc1cccc([N-]C(=O)c2ccc(S(=O)(=O)[NH+]3CCOCC3)cc2)c1 (3D coordinates assigned)
CSc1cccc([N-]C(=O)c2ccc(S(=O)(=O)[NH+]3CCOCC3)cc2)c1 (nonaromatic ring conformer: 60.048352141239164 kcal/mol)

>  <smiles>  (22) 
CSc1cccc(NC(=O)c2ccc(S(=O)(=O)N3CCOCC3)cc2)c1

>  <score_type>  (22) 
oracle

>  <origin>  (22) 
adgpu

>  <m_score__min__energy>  (22) 
-10.880000000000001

>  <m_primary>  (22) 
energy

$$$$
22:0
     RDKit          3D

 52 55  0  0  0  0  0  0  0  0999 V2000
   -9.4760   21.3910  -31.5880 C   0  0  0  0  0  0  0  0  0  0  0  0
   -8.4440   20.4230  -31.9480 N   0  0  0  0  0  0  0  0  0  0  0  0
   -8.6060   19.1240  -32.3000 C   0  0  0  0  0  0  0  0  0  0  0  0
   -9.7250   18.5430  -32.3210 O   0  0  0  0  0  0  0  0  0  0  0  0
   -7.4420   18.5180  -32.6440 N   0  0  0  0  0  0  0  0  0  0  0  0
   -7.2520   17.1610  -33.1450 C   0  0  0  0  0  0  0  0  0  0  0  0
   -6.5190   19.4960  -32.5360 C   0  0  0  0  0  0  0  0  0  0  0  0
   -5.1570   19.4430  -32.8190 C   0  0  0  0  0  0  0  0  0  0  0  0
   -4.3930   20.6210  -32.6600 C   0  0  0  0  0  0  0  0  0  0  0  0
   -2.6490   20.5630  -32.9700 S   0  0  0  0  0  0  0  0  0  0  0  0
   -2.2200   21.9090  -33.4840 O   0  0  0  0  0  0  0  0  0  0  0  0
   -2.3480   19.5150  -34.0060 O   0  0  0  0  0  0  0  0  0  0  0  0
   -1.7710   20.1920  -31.4980 N   0  0  0  0  0  0  0  0  0  0  0  0
   -1.1120   18.8850  -31.6080 C   0  0  0  0  0  0  0  0  0  0  0  0
    0.3350   19.1070  -32.0330 C   0  0  0  0  0  0  0  0  0  0  0  0
    0.5690   20.6010  -31.9270 C   0  0  0  0  0  0  0  0  0  0  0  0
   -0.6880   21.1570  -31.2820 C   0  0  0  0  0  0  0  0  0  0  0  0
   -5.0230   21.8150  -32.1910 C   0  0  0  0  0  0  0  0  0  0  0  0
   -4.2640   23.0080  -31.9640 N   0  0  0  0  0  0  0  0  0  0  0  0
   -4.1930   23.7470  -30.3970 S   0  0  0  0  0  0  0  0  0  0  0  0
   -5.5720   23.9210  -29.8280 O   0  0  0  0  0  0  0  0  0  0  0  0
   -3.5790   25.1120  -30.5380 O   0  0  0  0  0  0  0  0  0  0  0  0
   -3.1940   22.7560  -29.3240 C   0  0  0  0  0  0  0  0  0  0  0  0
   -3.4790   21.3850  -29.2120 C   0  0  0  0  0  0  0  0  0  0  0  0
   -2.7360   20.5740  -28.3510 C   0  0  0  0  0  0  0  0  0  0  0  0
   -1.7070   21.1240  -27.5870 C   0  0  0  0  0  0  0  0  0  0  0  0
   -1.4190   22.4860  -27.6810 C   0  0  0  0  0  0  0  0  0  0  0  0
   -2.1550   23.3090  -28.5410 C   0  0  0  0  0  0  0  0  0  0  0  0
   -1.7440   25.0200  -28.5880 Cl  0  0  0  0  0  0  0  0  0  0  0  0
   -6.4100   21.8280  -31.9360 C   0  0  0  0  0  0  0  0  0  0  0  0
   -7.1240   20.6470  -32.1150 C   0  0  0  0  0  0  0  0  0  0  0  0
   -9.5487   21.4592  -30.4925 H   0  0  0  0  0  0  0  0  0  0  0  0
   -9.2140   22.3766  -32.0001 H   0  0  0  0  0  0  0  0  0  0  0  0
  -10.4429   21.0665  -32.0001 H   0  0  0  0  0  0  0  0  0  0  0  0
   -7.1549   16.4673  -32.2969 H   0  0  0  0  0  0  0  0  0  0  0  0
   -8.1184   16.8718  -33.7579 H   0  0  0  0  0  0  0  0  0  0  0  0
   -6.3395   17.1208  -33.7579 H   0  0  0  0  0  0  0  0  0  0  0  0
   -4.6874   18.5078  -33.1578 H   0  0  0  0  0  0  0  0  0  0  0  0
   -1.1385   18.3730  -30.6348 H   0  0  0  0  0  0  0  0  0  0  0  0
   -1.6317   18.2623  -32.3511 H   0  0  0  0  0  0  0  0  0  0  0  0
    1.0188   18.5633  -31.3646 H   0  0  0  0  0  0  0  0  0  0  0  0
    0.5197   18.7384  -33.0528 H   0  0  0  0  0  0  0  0  0  0  0  0
    1.4487   20.8100  -31.3005 H   0  0  0  0  0  0  0  0  0  0  0  0
    0.7630   21.0571  -32.9090 H   0  0  0  0  0  0  0  0  0  0  0  0
   -0.5233   21.2986  -30.2037 H   0  0  0  0  0  0  0  0  0  0  0  0
   -0.9477   22.1296  -31.7254 H   0  0  0  0  0  0  0  0  0  0  0  0
   -3.5810   23.3320  -32.6810 H   0  0  0  0  0  0  0  0  0  0  0  0
   -4.2937   20.9467  -29.8070 H   0  0  0  0  0  0  0  0  0  0  0  0
   -2.9628   19.5003  -28.2755 H   0  0  0  0  0  0  0  0  0  0  0  0
   -1.1222   20.4838  -26.9101 H   0  0  0  0  0  0  0  0  0  0  0  0
   -0.6079   22.9159  -27.0750 H   0  0  0  0  0  0  0  0  0  0  0  0
   -6.9143   22.7476  -31.6043 H   0  0  0  0  0  0  0  0  0  0  0  0
  1  2  1  0
  2  3  1  0
  3  4  2  0
  3  5  1  0
  5  6  1  0
  5  7  1  0
  7  8  2  0
  8  9  1  0
  9 10  1  0
 10 11  2  0
 10 12  2  0
 10 13  1  0
 13 14  1  0
 14 15  1  0
 15 16  1  0
 16 17  1  0
  9 18  2  0
 18 19  1  0
 19 20  1  0
 20 21  2  0
 20 22  2  0
 20 23  1  0
 23 24  2  0
 24 25  1  0
 25 26  2  0
 26 27  1  0
 27 28  2  0
 28 29  1  0
 18 30  1  0
 30 31  2  0
 31  2  1  0
 31  7  1  0
 17 13  1  0
 28 23  1  0
  1 32  1  0
  1 33  1  0
  1 34  1  0
  6 35  1  0
  6 36  1  0
  6 37  1  0
  8 38  1  0
 14 39  1  0
 14 40  1  0
 15 41  1  0
 15 42  1  0
 16 43  1  0
 16 44  1  0
 17 45  1  0
 17 46  1  0
 19 47  1  0
 24 48  1  0
 25 49  1  0
 26 50  1  0
 27 51  1  0
 30 52  1  0
M  END
>  <UniqueID>  (23) 
22

>  <SMILES>  (23) 
Cn1c(=O)n(C)c2cc(S(=O)(=O)N3CCCC3)c(NS(=O)(=O)c3ccccc3Cl)cc21

>  <Energy>  (23) 
104.53778888065196

>  <Genealogy>  (23) 
Cn1c(=O)n(C)c2cc(S(=O)(=O)N3CCCC3)c(NS(=O)(=O)c3ccccc3Cl)cc21 (3D coordinates assigned)
Cn1c(=O)n(C)c2cc(S(=O)(=O)N3CCCC3)c(NS(=O)(=O)c3ccccc3Cl)cc21 (nonaromatic ring conformer: 104.53778888065196 kcal/mol)

>  <smiles>  (23) 
Cn1c(=O)n(C)c2cc(S(=O)(=O)N3CCCC3)c(NS(=O)(=O)c3ccccc3Cl)cc21

>  <score_type>  (23) 
oracle

>  <origin>  (23) 
adgpu

>  <m_score__min__energy>  (23) 
-10.220000000000001

>  <m_primary>  (23) 
energy

$$$$
23:0
     RDKit          3D

 59 63  0  0  0  0  0  0  0  0999 V2000
    0.7220   28.3730  -25.6630 C   0  0  0  0  0  0  0  0  0  0  0  0
   -0.3160   27.3570  -26.0010 C   0  0  0  0  0  0  0  0  0  0  0  0
   -1.0960   26.7510  -25.0780 N   0  0  0  0  0  0  0  0  0  0  0  0
   -1.9060   25.8120  -25.6340 C   0  0  0  0  0  0  0  0  0  0  0  0
   -1.7670   25.6570  -27.0110 C   0  0  0  0  0  0  0  0  0  0  0  0
   -2.5440   24.7380  -27.8640 C   0  0  0  0  0  0  0  0  0  0  0  0
   -3.0450   23.7000  -27.3530 O   0  0  0  0  0  0  0  0  0  0  0  0
   -2.7050   25.0070  -29.2680 N   0  0  0  0  0  0  0  0  0  0  0  0
   -3.6610   24.3470  -30.1180 C   0  0  0  0  0  0  0  0  0  0  0  0
   -4.9850   24.8070  -30.2330 C   0  0  0  0  0  0  0  0  0  0  0  0
   -5.8770   24.1740  -31.1010 C   0  0  0  0  0  0  0  0  0  0  0  0
   -5.4570   23.0880  -31.8730 C   0  0  0  0  0  0  0  0  0  0  0  0
   -4.1360   22.6170  -31.7830 C   0  0  0  0  0  0  0  0  0  0  0  0
   -3.7020   21.4680  -32.6200 C   0  0  0  0  0  0  0  0  0  0  0  0
   -2.4380   21.4330  -33.2310 C   0  0  0  0  0  0  0  0  0  0  0  0
   -2.0840   20.3180  -34.0040 C   0  0  0  0  0  0  0  0  0  0  0  0
   -0.8020   20.2350  -34.6620 N   0  0  0  0  0  0  0  0  0  0  0  0
    0.0310   21.4330  -34.8070 C   0  0  0  0  0  0  0  0  0  0  0  0
    0.9330   21.3140  -36.0520 C   0  0  0  0  0  0  0  0  0  0  0  0
    1.5220   20.0410  -36.3000 O   0  0  0  0  0  0  0  0  0  0  0  0
    1.2840   19.0920  -35.2750 C   0  0  0  0  0  0  0  0  0  0  0  0
   -0.2130   18.9330  -34.9970 C   0  0  0  0  0  0  0  0  0  0  0  0
   -2.9720   19.2960  -34.1290 N   0  0  0  0  0  0  0  0  0  0  0  0
   -4.1920   19.3260  -33.5320 C   0  0  0  0  0  0  0  0  0  0  0  0
   -5.1110   18.2240  -33.6920 N   0  0  0  0  0  0  0  0  0  0  0  0
   -4.7300   17.0730  -34.5250 C   0  0  0  0  0  0  0  0  0  0  0  0
   -5.5470   15.8360  -34.1450 C   0  0  0  0  0  0  0  0  0  0  0  0
   -6.9290   16.1330  -34.1240 O   0  0  0  0  0  0  0  0  0  0  0  0
   -7.1970   17.0540  -33.0840 C   0  0  0  0  0  0  0  0  0  0  0  0
   -6.5330   18.4060  -33.3660 C   0  0  0  0  0  0  0  0  0  0  0  0
   -4.5400   20.4090  -32.7850 N   0  0  0  0  0  0  0  0  0  0  0  0
   -3.2410   23.2680  -30.9120 C   0  0  0  0  0  0  0  0  0  0  0  0
   -0.5810   26.7310  -27.5380 S   0  0  0  0  0  0  0  0  0  0  0  0
    0.8092   28.4584  -24.5698 H   0  0  0  0  0  0  0  0  0  0  0  0
    1.6895   28.0632  -26.0849 H   0  0  0  0  0  0  0  0  0  0  0  0
    0.4330   29.3469  -26.0849 H   0  0  0  0  0  0  0  0  0  0  0  0
   -2.6178   25.2190  -25.0410 H   0  0  0  0  0  0  0  0  0  0  0  0
   -2.0460   25.6840  -29.7190 H   0  0  0  0  0  0  0  0  0  0  0  0
   -5.3192   25.6689  -29.6368 H   0  0  0  0  0  0  0  0  0  0  0  0
   -6.9144   24.5318  -31.1772 H   0  0  0  0  0  0  0  0  0  0  0  0
   -6.1658   22.5978  -32.5566 H   0  0  0  0  0  0  0  0  0  0  0  0
   -1.7348   22.2694  -33.1048 H   0  0  0  0  0  0  0  0  0  0  0  0
   -0.6179   22.3149  -34.9127 H   0  0  0  0  0  0  0  0  0  0  0  0
    0.6664   21.5355  -33.9149 H   0  0  0  0  0  0  0  0  0  0  0  0
    0.3242   21.5755  -36.9300 H   0  0  0  0  0  0  0  0  0  0  0  0
    1.7794   21.9897  -35.8594 H   0  0  0  0  0  0  0  0  0  0  0  0
    1.6956   18.1201  -35.5847 H   0  0  0  0  0  0  0  0  0  0  0  0
    1.7710   19.4471  -34.3548 H   0  0  0  0  0  0  0  0  0  0  0  0
   -0.7087   18.5282  -35.8916 H   0  0  0  0  0  0  0  0  0  0  0  0
   -0.3521   18.2449  -34.1501 H   0  0  0  0  0  0  0  0  0  0  0  0
   -4.9132   17.3159  -35.5821 H   0  0  0  0  0  0  0  0  0  0  0  0
   -3.6639   16.8563  -34.3623 H   0  0  0  0  0  0  0  0  0  0  0  0
   -5.3604   15.0406  -34.8815 H   0  0  0  0  0  0  0  0  0  0  0  0
   -5.2421   15.5075  -33.1404 H   0  0  0  0  0  0  0  0  0  0  0  0
   -8.2845   17.1972  -33.0012 H   0  0  0  0  0  0  0  0  0  0  0  0
   -6.7897   16.6516  -32.1447 H   0  0  0  0  0  0  0  0  0  0  0  0
   -7.0400   18.8881  -34.2148 H   0  0  0  0  0  0  0  0  0  0  0  0
   -6.6140   19.0360  -32.4679 H   0  0  0  0  0  0  0  0  0  0  0  0
   -2.1972   22.9259  -30.8529 H   0  0  0  0  0  0  0  0  0  0  0  0
  1  2  1  0
  2  3  2  0
  3  4  1  0
  4  5  2  0
  5  6  1  0
  6  7  2  0
  6  8  1  0
  8  9  1  0
  9 10  2  0
 10 11  1  0
 11 12  2  0
 12 13  1  0
 13 14  1  0
 14 15  2  0
 15 16  1  0
 16 17  1  0
 17 18  1  0
 18 19  1  0
 19 20  1  0
 20 21  1  0
 21 22  1  0
 16 23  2  0
 23 24  1  0
 24 25  1  0
 25 26  1  0
 26 27  1  0
 27 28  1  0
 28 29  1  0
 29 30  1  0
 24 31  2  0
 13 32  2  0
  5 33  1  0
 33  2  1  0
 32  9  1  0
 31 14  1  0
 22 17  1  0
 30 25  1  0
  1 34  1  0
  1 35  1  0
  1 36  1  0
  4 37  1  0
  8 38  1  0
 10 39  1  0
 11 40  1  0
 12 41  1  0
 15 42  1  0
 18 43  1  0
 18 44  1  0
 19 45  1  0
 19 46  1  0
 21 47  1  0
 21 48  1  0
 22 49  1  0
 22 50  1  0
 26 51  1  0
 26 52  1  0
 27 53  1  0
 27 54  1  0
 29 55  1  0
 29 56  1  0
 30 57  1  0
 30 58  1  0
 32 59  1  0
M  END
>  <UniqueID>  (24) 
23

>  <SMILES>  (24) 
Cc1ncc(C(=O)Nc2cccc(-c3cc(N4CCOCC4)nc(N4CCOCC4)n3)c2)s1

>  <Energy>  (24) 
110.3053580620951

>  <Genealogy>  (24) 
Cc1ncc(C(=O)Nc2cccc(-c3cc(N4CCOCC4)nc(N4CCOCC4)n3)c2)s1 (3D coordinates assigned)
Cc1ncc(C(=O)Nc2cccc(-c3cc(N4CCOCC4)nc(N4CCOCC4)n3)c2)s1 (nonaromatic ring conformer: 110.3053580620951 kcal/mol)

>  <smiles>  (24) 
Cc1ncc(C(=O)Nc2cccc(-c3cc(N4CCOCC4)nc(N4CCOCC4)n3)c2)s1

>  <score_type>  (24) 
oracle

>  <origin>  (24) 
adgpu

>  <m_score__min__energy>  (24) 
-9.1099999999999994

>  <m_primary>  (24) 
energy

$$$$
24:0
     RDKit          3D

 42 45  0  0  0  0  0  0  0  0999 V2000
   -4.2320   16.0560  -34.1320 H   0  0  0  0  0  0  0  0  0  0  0  0
   -4.7170   15.3580  -33.6200 O   0  0  0  0  0  0  0  0  0  0  0  0
   -6.0790   15.6330  -33.7850 C   0  0  0  0  0  0  0  0  0  0  0  0
   -6.5415   15.7970  -32.8005 H   0  0  0  0  0  0  0  0  0  0  0  0
   -6.5664   14.7818  -34.2829 H   0  0  0  0  0  0  0  0  0  0  0  0
   -6.2470   16.8850  -34.6400 C   0  0  0  0  0  0  0  0  0  0  0  0
   -7.2617   17.2863  -34.5009 H   0  0  0  0  0  0  0  0  0  0  0  0
   -6.0883   16.6219  -35.6962 H   0  0  0  0  0  0  0  0  0  0  0  0
   -5.2710   17.8970  -34.2500 N   0  0  0  0  0  0  0  0  0  0  0  0
   -4.0800   18.0280  -34.8120 N   0  0  0  0  0  0  0  0  0  0  0  0
   -3.4290   19.0110  -34.1630 C   0  0  0  0  0  0  0  0  0  0  0  0
   -2.4146   19.3643  -34.3999 H   0  0  0  0  0  0  0  0  0  0  0  0
   -4.2350   19.5110  -33.1480 C   0  0  0  0  0  0  0  0  0  0  0  0
   -3.9140   20.5900  -32.1790 C   0  0  0  0  0  0  0  0  0  0  0  0
   -2.9080   20.4100  -31.2140 C   0  0  0  0  0  0  0  0  0  0  0  0
   -2.3538   19.4605  -31.1779 H   0  0  0  0  0  0  0  0  0  0  0  0
   -2.6030   21.4220  -30.3000 C   0  0  0  0  0  0  0  0  0  0  0  0
   -1.8127   21.2616  -29.5519 H   0  0  0  0  0  0  0  0  0  0  0  0
   -3.2990   22.6450  -30.3290 C   0  0  0  0  0  0  0  0  0  0  0  0
   -3.0130   23.6960  -29.4260 C   0  0  0  0  0  0  0  0  0  0  0  0
   -2.0870   23.5320  -28.5180 N   0  0  0  0  0  0  0  0  0  0  0  0
   -1.6200   24.5070  -27.5750 C   0  0  0  0  0  0  0  0  0  0  0  0
   -1.5000   24.1480  -26.2250 C   0  0  0  0  0  0  0  0  0  0  0  0
   -1.7892   23.1381  -25.8987 H   0  0  0  0  0  0  0  0  0  0  0  0
   -1.0140   25.0690  -25.2920 C   0  0  0  0  0  0  0  0  0  0  0  0
   -0.9361   24.7870  -24.2316 H   0  0  0  0  0  0  0  0  0  0  0  0
   -0.6270   26.3470  -25.7040 C   0  0  0  0  0  0  0  0  0  0  0  0
   -0.2554   27.0736  -24.9665 H   0  0  0  0  0  0  0  0  0  0  0  0
   -0.7120   26.7020  -27.0530 C   0  0  0  0  0  0  0  0  0  0  0  0
   -0.3986   27.7054  -27.3770 H   0  0  0  0  0  0  0  0  0  0  0  0
   -1.1950   25.7840  -27.9930 C   0  0  0  0  0  0  0  0  0  0  0  0
   -1.2350   26.1360  -29.3380 O   0  0  0  0  0  0  0  0  0  0  0  0
   -3.7660   24.8850  -29.5120 C   0  0  0  0  0  0  0  0  0  0  0  0
   -3.5755   25.7087  -28.8082 H   0  0  0  0  0  0  0  0  0  0  0  0
   -4.7530   25.0170  -30.4900 C   0  0  0  0  0  0  0  0  0  0  0  0
   -5.3327   25.9491  -30.5612 H   0  0  0  0  0  0  0  0  0  0  0  0
   -5.0000   24.0000  -31.3530 N   0  0  0  0  0  0  0  0  0  0  0  0
   -4.3120   22.8300  -31.3000 C   0  0  0  0  0  0  0  0  0  0  0  0
   -4.6120   21.8120  -32.2120 C   0  0  0  0  0  0  0  0  0  0  0  0
   -5.4012   21.9682  -32.9622 H   0  0  0  0  0  0  0  0  0  0  0  0
   -5.4010   18.7700  -33.2330 C   0  0  0  0  0  0  0  0  0  0  0  0
   -6.2816   18.8759  -32.5823 H   0  0  0  0  0  0  0  0  0  0  0  0
  1  2  1  0
  2  3  1  0
  3  4  1  0
  3  5  1  0
  3  6  1  0
  6  7  1  0
  6  8  1  0
  6  9  1  0
  9 10  1  0
 10 11  2  0
 11 12  1  0
 11 13  1  0
 13 14  1  0
 14 15  2  0
 15 16  1  0
 15 17  1  0
 17 18  1  0
 17 19  2  0
 19 20  1  0
 20 21  2  0
 21 22  1  0
 22 23  2  0
 23 24  1  0
 23 25  1  0
 25 26  1  0
 25 27  2  0
 27 28  1  0
 27 29  1  0
 29 30  1  0
 29 31  2  0
 31 32  1  0
 20 33  1  0
 33 34  1  0
 33 35  2  0
 35 36  1  0
 35 37  1  0
 37 38  1  0
 38 39  2  0
 39 40  1  0
 13 41  2  0
 41 42  1  0
 41  9  1  0
 39 14  1  0
 38 19  1  0
 31 22  1  0
M  CHG  2  32  -1  37  -1
M  END
>  <UniqueID>  (25) 
24

>  <SMILES>  (25) 
[O-]c1ccccc1/N=c1\cc[n-]c2cc(-c3cnn(CCO)c3)ccc12

>  <Energy>  (25) 
90.42444652876065

>  <Genealogy>  (25) 
[O-]c1ccccc1N=c1cc[n-]c2cc(-c3cnn(CCO)c3)ccc12 (protonated)
[O-]c1ccccc1/N=c1\cc[n-]c2cc(-c3cnn(CCO)c3)ccc12 (cis-trans isomerization)
[O-]c1ccccc1/N=c1\cc[n-]c2cc(-c3cnn(CCO)c3)ccc12 (3D coordinates assigned)
[O-]c1ccccc1/N=c1\cc[n-]c2cc(-c3cnn(CCO)c3)ccc12 (optimized conformer: 90.42444652876065 kcal/mol)

>  <smiles>  (25) 
OCCn1cc(-c2ccc3c(=Nc4ccccc4O)cc[nH]c3c2)cn1

>  <score_type>  (25) 
oracle

>  <origin>  (25) 
adgpu

>  <m_score__min__energy>  (25) 
-10.42

>  <m_primary>  (25) 
energy

$$$$
25:0
     RDKit          3D

 59 62  0  0  0  0  0  0  0  0999 V2000
   -3.3450   21.2120  -32.7120 O   0  0  0  0  0  0  0  0  0  0  0  0
   -2.4950   21.5820  -31.8560 C   0  0  0  0  0  0  0  0  0  0  0  0
   -2.7470   22.7560  -31.0650 N   0  0  0  0  0  0  0  0  0  0  0  0
   -4.0640   23.2860  -30.8260 C   0  0  0  0  0  0  0  0  0  0  0  0
   -5.2120   22.5390  -31.1480 C   0  0  0  0  0  0  0  0  0  0  0  0
   -6.4910   23.0470  -30.8810 C   0  0  0  0  0  0  0  0  0  0  0  0
   -7.9220   22.0920  -31.2790 S   0  0  0  0  0  0  0  0  0  0  0  0
   -8.8010   21.9810  -30.0630 O   0  0  0  0  0  0  0  0  0  0  0  0
   -8.7020   22.8000  -32.3520 O   0  0  0  0  0  0  0  0  0  0  0  0
   -7.4950   20.4930  -31.8360 N   0  0  0  0  0  0  0  0  0  0  0  0
   -6.6860   20.5820  -33.0690 C   0  0  0  0  0  0  0  0  0  0  0  0
   -6.5230   19.2130  -33.7670 C   0  0  0  0  0  0  0  0  0  0  0  0
   -6.8970   18.0540  -32.8380 C   0  0  0  0  0  0  0  0  0  0  0  0
   -8.3310   18.2130  -32.3050 C   0  0  0  0  0  0  0  0  0  0  0  0
   -8.7070   19.6870  -32.0590 C   0  0  0  0  0  0  0  0  0  0  0  0
   -6.6260   24.3050  -30.2810 C   0  0  0  0  0  0  0  0  0  0  0  0
   -5.4910   25.0460  -29.9430 C   0  0  0  0  0  0  0  0  0  0  0  0
   -4.2150   24.5410  -30.2080 C   0  0  0  0  0  0  0  0  0  0  0  0
   -3.0990   25.2950  -29.8610 O   0  0  0  0  0  0  0  0  0  0  0  0
   -1.2250   20.8300  -31.7150 C   0  0  0  0  0  0  0  0  0  0  0  0
   -0.3470   20.7110  -32.8070 C   0  0  0  0  0  0  0  0  0  0  0  0
    0.8500   20.0030  -32.6790 C   0  0  0  0  0  0  0  0  0  0  0  0
    1.1840   19.4040  -31.4630 C   0  0  0  0  0  0  0  0  0  0  0  0
    0.3210   19.5090  -30.3650 C   0  0  0  0  0  0  0  0  0  0  0  0
    0.7360   18.7360  -28.8310 S   0  0  0  0  0  0  0  0  0  0  0  0
    2.1950   18.9660  -28.5450 O   0  0  0  0  0  0  0  0  0  0  0  0
    0.5160   17.2540  -28.9520 O   0  0  0  0  0  0  0  0  0  0  0  0
   -0.2060   19.3430  -27.4900 N   0  0  0  0  0  0  0  0  0  0  0  0
   -1.5620   18.7990  -27.4800 C   0  0  0  0  0  0  0  0  0  0  0  0
   -2.4240   19.8070  -26.7360 C   0  0  0  0  0  0  0  0  0  0  0  0
   -1.6440   21.1140  -26.7810 C   0  0  0  0  0  0  0  0  0  0  0  0
   -0.3680   20.7940  -27.5440 C   0  0  0  0  0  0  0  0  0  0  0  0
   -0.8870   20.2100  -30.4990 C   0  0  0  0  0  0  0  0  0  0  0  0
   -1.9250   23.3030  -30.7240 H   0  0  0  0  0  0  0  0  0  0  0  0
   -5.1050   21.5480  -31.6132 H   0  0  0  0  0  0  0  0  0  0  0  0
   -7.1784   21.2770  -33.7651 H   0  0  0  0  0  0  0  0  0  0  0  0
   -5.6834   20.9362  -32.7873 H   0  0  0  0  0  0  0  0  0  0  0  0
   -7.1752   19.1846  -34.6524 H   0  0  0  0  0  0  0  0  0  0  0  0
   -5.4666   19.0970  -34.0509 H   0  0  0  0  0  0  0  0  0  0  0  0
   -6.8236   17.1085  -33.3954 H   0  0  0  0  0  0  0  0  0  0  0  0
   -6.2044   18.0534  -31.9834 H   0  0  0  0  0  0  0  0  0  0  0  0
   -9.0302   17.7882  -33.0403 H   0  0  0  0  0  0  0  0  0  0  0  0
   -8.3904   17.6867  -31.3409 H   0  0  0  0  0  0  0  0  0  0  0  0
   -9.2449   20.0756  -32.9363 H   0  0  0  0  0  0  0  0  0  0  0  0
   -9.3472   19.7489  -31.1666 H   0  0  0  0  0  0  0  0  0  0  0  0
   -7.6276   24.7105  -30.0754 H   0  0  0  0  0  0  0  0  0  0  0  0
   -5.6020   26.0311  -29.4663 H   0  0  0  0  0  0  0  0  0  0  0  0
   -0.6048   21.1788  -33.7686 H   0  0  0  0  0  0  0  0  0  0  0  0
    1.5313   19.9171  -33.5384 H   0  0  0  0  0  0  0  0  0  0  0  0
    2.1281   18.8477  -31.3670 H   0  0  0  0  0  0  0  0  0  0  0  0
   -1.9283   18.6717  -28.5094 H   0  0  0  0  0  0  0  0  0  0  0  0
   -1.5923   17.8128  -26.9937 H   0  0  0  0  0  0  0  0  0  0  0  0
   -3.3982   19.9224  -27.2337 H   0  0  0  0  0  0  0  0  0  0  0  0
   -2.6296   19.4877  -25.7037 H   0  0  0  0  0  0  0  0  0  0  0  0
   -2.2219   21.8897  -27.3048 H   0  0  0  0  0  0  0  0  0  0  0  0
   -1.4330   21.5005  -25.7730 H   0  0  0  0  0  0  0  0  0  0  0  0
   -0.4556   21.1281  -28.5884 H   0  0  0  0  0  0  0  0  0  0  0  0
    0.4989   21.3080  -27.1032 H   0  0  0  0  0  0  0  0  0  0  0  0
   -1.5765   20.2752  -29.6444 H   0  0  0  0  0  0  0  0  0  0  0  0
  1  2  2  0
  2  3  1  0
  3  4  1  0
  4  5  2  0
  5  6  1  0
  6  7  1  0
  7  8  2  0
  7  9  2  0
  7 10  1  0
 10 11  1  0
 11 12  1  0
 12 13  1  0
 13 14  1  0
 14 15  1  0
  6 16  2  0
 16 17  1  0
 17 18  2  0
 18 19  1  0
  2 20  1  0
 20 21  2  0
 21 22  1  0
 22 23  2  0
 23 24  1  0
 24 25  1  0
 25 26  2  0
 25 27  2  0
 25 28  1  0
 28 29  1  0
 29 30  1  0
 30 31  1  0
 31 32  1  0
 24 33  2  0
 18  4  1  0
 33 20  1  0
 15 10  1  0
 32 28  1  0
  3 34  1  0
  5 35  1  0
 11 36  1  0
 11 37  1  0
 12 38  1  0
 12 39  1  0
 13 40  1  0
 13 41  1  0
 14 42  1  0
 14 43  1  0
 15 44  1  0
 15 45  1  0
 16 46  1  0
 17 47  1  0
 21 48  1  0
 22 49  1  0
 23 50  1  0
 29 51  1  0
 29 52  1  0
 30 53  1  0
 30 54  1  0
 31 55  1  0
 31 56  1  0
 32 57  1  0
 32 58  1  0
 33 59  1  0
M  CHG  1  19  -1
M  END
>  <UniqueID>  (26) 
25

>  <SMILES>  (26) 
O=C(Nc1cc(S(=O)(=O)N2CCCCC2)ccc1[O-])c1cccc(S(=O)(=O)N2CCCC2)c1

>  <Energy>  (26) 
70.04801297062855

>  <Genealogy>  (26) 
O=C(Nc1cc(S(=O)(=O)N2CCCCC2)ccc1[O-])c1cccc(S(=O)(=O)N2CCCC2)c1 (protonated)
O=C(Nc1cc(S(=O)(=O)N2CCCCC2)ccc1[O-])c1cccc(S(=O)(=O)N2CCCC2)c1 (3D coordinates assigned)
O=C(Nc1cc(S(=O)(=O)N2CCCCC2)ccc1[O-])c1cccc(S(=O)(=O)N2CCCC2)c1 (nonaromatic ring conformer: 70.04801297062855 kcal/mol)

>  <smiles>  (26) 
O=C(Nc1cc(S(=O)(=O)N2CCCCC2)ccc1O)c1cccc(S(=O)(=O)N2CCCC2)c1

>  <score_type>  (26) 
oracle

>  <origin>  (26) 
adgpu

>  <m_score__min__energy>  (26) 
-14.039999999999999

>  <m_primary>  (26) 
energy

$$$$
26:0
     RDKit          3D

 60 64  0  0  0  0  0  0  0  0999 V2000
   -0.8700   26.1450  -27.7770 C   0  0  0  0  0  0  0  0  0  0  0  0
   -1.6120   25.8870  -28.9650 O   0  0  0  0  0  0  0  0  0  0  0  0
   -2.2010   24.6530  -29.2830 C   0  0  0  0  0  0  0  0  0  0  0  0
   -3.5950   24.4880  -29.3820 C   0  0  0  0  0  0  0  0  0  0  0  0
   -4.1350   23.2350  -29.6790 C   0  0  0  0  0  0  0  0  0  0  0  0
   -3.2950   22.1340  -29.8910 C   0  0  0  0  0  0  0  0  0  0  0  0
   -3.8700   20.8110  -30.3070 C   0  0  0  0  0  0  0  0  0  0  0  0
   -4.1710   20.8220  -31.7400 N   0  0  0  0  0  0  0  0  0  0  0  0
   -5.2070   21.6610  -32.2470 C   0  0  0  0  0  0  0  0  0  0  0  0
   -4.9420   22.8530  -32.5660 O   0  0  0  0  0  0  0  0  0  0  0  0
   -6.5850   21.1630  -32.3330 C   0  0  0  0  0  0  0  0  0  0  0  0
   -7.6320   22.0310  -31.9660 C   0  0  0  0  0  0  0  0  0  0  0  0
   -8.9530   21.5830  -31.9500 C   0  0  0  0  0  0  0  0  0  0  0  0
   -9.2460   20.2710  -32.3160 C   0  0  0  0  0  0  0  0  0  0  0  0
   -8.2230   19.4090  -32.7040 C   0  0  0  0  0  0  0  0  0  0  0  0
   -6.8860   19.8380  -32.7300 C   0  0  0  0  0  0  0  0  0  0  0  0
   -5.6960   18.6690  -33.3480 S   0  0  0  0  0  0  0  0  0  0  0  0
   -5.7150   17.4740  -32.4410 O   0  0  0  0  0  0  0  0  0  0  0  0
   -6.1850   18.2520  -34.7050 O   0  0  0  0  0  0  0  0  0  0  0  0
   -4.0020   19.1510  -33.5340 C   0  0  0  0  0  0  0  0  0  0  0  0
   -3.2090   18.4350  -34.4420 C   0  0  0  0  0  0  0  0  0  0  0  0
   -1.8250   18.6150  -34.4790 C   0  0  0  0  0  0  0  0  0  0  0  0
   -1.2090   19.5180  -33.6080 C   0  0  0  0  0  0  0  0  0  0  0  0
    0.5460   19.6720  -33.5620 S   0  0  0  0  0  0  0  0  0  0  0  0
    0.9370   20.7810  -32.6250 O   0  0  0  0  0  0  0  0  0  0  0  0
    1.1310   18.3830  -33.0560 O   0  0  0  0  0  0  0  0  0  0  0  0
    1.1620   20.0110  -35.1680 N   0  0  0  0  0  0  0  0  0  0  0  0
    0.1940   20.7700  -35.9660 C   0  0  0  0  0  0  0  0  0  0  0  0
    0.5140   22.2460  -35.7990 C   0  0  0  0  0  0  0  0  0  0  0  0
    1.9360   22.2980  -35.2730 C   0  0  0  0  0  0  0  0  0  0  0  0
    2.3670   20.8460  -35.1030 C   0  0  0  0  0  0  0  0  0  0  0  0
   -1.9950   20.2620  -32.7240 C   0  0  0  0  0  0  0  0  0  0  0  0
   -3.3880   20.0800  -32.6770 C   0  0  0  0  0  0  0  0  0  0  0  0
   -1.9060   22.3000  -29.8050 C   0  0  0  0  0  0  0  0  0  0  0  0
   -1.3650   23.5510  -29.4990 C   0  0  0  0  0  0  0  0  0  0  0  0
   -1.4961   25.9273  -26.8991 H   0  0  0  0  0  0  0  0  0  0  0  0
    0.0245   25.5052  -27.7572 H   0  0  0  0  0  0  0  0  0  0  0  0
   -0.5654   27.2018  -27.7572 H   0  0  0  0  0  0  0  0  0  0  0  0
   -4.2615   25.3489  -29.2249 H   0  0  0  0  0  0  0  0  0  0  0  0
   -5.2260   23.1117  -29.7469 H   0  0  0  0  0  0  0  0  0  0  0  0
   -3.1417   20.0146  -30.0942 H   0  0  0  0  0  0  0  0  0  0  0  0
   -4.7981   20.6289  -29.7453 H   0  0  0  0  0  0  0  0  0  0  0  0
   -7.4059   23.0714  -31.6895 H   0  0  0  0  0  0  0  0  0  0  0  0
   -9.7622   22.2646  -31.6489 H   0  0  0  0  0  0  0  0  0  0  0  0
  -10.2868   19.9154  -32.2985 H   0  0  0  0  0  0  0  0  0  0  0  0
   -8.4661   18.3763  -32.9945 H   0  0  0  0  0  0  0  0  0  0  0  0
   -3.6830   17.7229  -35.1335 H   0  0  0  0  0  0  0  0  0  0  0  0
   -1.2171   18.0440  -35.1963 H   0  0  0  0  0  0  0  0  0  0  0  0
    1.3800   19.1010  -35.6330 H   0  0  0  0  0  0  0  0  0  0  0  0
    0.2773   20.4861  -37.0255 H   0  0  0  0  0  0  0  0  0  0  0  0
   -0.8321   20.5579  -35.6310 H   0  0  0  0  0  0  0  0  0  0  0  0
    0.4429   22.7661  -36.7657 H   0  0  0  0  0  0  0  0  0  0  0  0
   -0.1914   22.7406  -35.1151 H   0  0  0  0  0  0  0  0  0  0  0  0
    2.5921   22.8111  -35.9916 H   0  0  0  0  0  0  0  0  0  0  0  0
    1.9980   22.8532  -34.3254 H   0  0  0  0  0  0  0  0  0  0  0  0
    3.0613   20.5648  -35.9085 H   0  0  0  0  0  0  0  0  0  0  0  0
    2.8797   20.7072  -34.1398 H   0  0  0  0  0  0  0  0  0  0  0  0
   -1.5190   20.9972  -32.0585 H   0  0  0  0  0  0  0  0  0  0  0  0
   -1.2396   21.4423  -29.9790 H   0  0  0  0  0  0  0  0  0  0  0  0
   -0.2739   23.6711  -29.4272 H   0  0  0  0  0  0  0  0  0  0  0  0
  1  2  1  0
  2  3  1  0
  3  4  2  0
  4  5  1  0
  5  6  2  0
  6  7  1  0
  7  8  1  0
  8  9  1  0
  9 10  2  0
  9 11  1  0
 11 12  2  0
 12 13  1  0
 13 14  2  0
 14 15  1  0
 15 16  2  0
 16 17  1  0
 17 18  2  0
 17 19  2  0
 17 20  1  0
 20 21  2  0
 21 22  1  0
 22 23  2  0
 23 24  1  0
 24 25  2  0
 24 26  2  0
 24 27  1  0
 27 28  1  0
 28 29  1  0
 29 30  1  0
 30 31  1  0
 23 32  1  0
 32 33  2  0
  6 34  1  0
 34 35  2  0
 35  3  1  0
 33  8  1  0
 16 11  1  0
 33 20  1  0
 31 27  1  0
  1 36  1  0
  1 37  1  0
  1 38  1  0
  4 39  1  0
  5 40  1  0
  7 41  1  0
  7 42  1  0
 12 43  1  0
 13 44  1  0
 14 45  1  0
 15 46  1  0
 21 47  1  0
 22 48  1  0
 27 49  1  0
 28 50  1  0
 28 51  1  0
 29 52  1  0
 29 53  1  0
 30 54  1  0
 30 55  1  0
 31 56  1  0
 31 57  1  0
 32 58  1  0
 34 59  1  0
 35 60  1  0
M  CHG  1  27   1
M  END
>  <UniqueID>  (27) 
26

>  <SMILES>  (27) 
COc1ccc(CN2C(=O)c3ccccc3S(=O)(=O)c3ccc(S(=O)(=O)[NH+]4CCCC4)cc32)cc1

>  <Energy>  (27) 
88.44456409780017

>  <Genealogy>  (27) 
COc1ccc(CN2C(=O)c3ccccc3S(=O)(=O)c3ccc(S(=O)(=O)[NH+]4CCCC4)cc32)cc1 (protonated)
COc1ccc(CN2C(=O)c3ccccc3S(=O)(=O)c3ccc(S(=O)(=O)[NH+]4CCCC4)cc32)cc1 (3D coordinates assigned)
COc1ccc(CN2C(=O)c3ccccc3S(=O)(=O)c3ccc(S(=O)(=O)[NH+]4CCCC4)cc32)cc1 (nonaromatic ring conformer: 88.44456409780017 kcal/mol)

>  <smiles>  (27) 
COc1ccc(CN2C(=O)c3ccccc3S(=O)(=O)c3ccc(S(=O)(=O)N4CCCC4)cc32)cc1

>  <score_type>  (27) 
oracle

>  <origin>  (27) 
adgpu

>  <m_score__min__energy>  (27) 
-10.07

>  <m_primary>  (27) 
energy

$$$$
27:0
     RDKit          3D

 47 50  0  0  0  0  0  0  0  0999 V2000
   -7.4750   20.1660  -33.3910 N   0  0  0  0  0  0  0  0  0  0  0  0
   -6.9100   21.2960  -32.7140 C   0  0  0  0  0  0  0  0  0  0  0  0
   -7.7590   22.3460  -32.3290 C   0  0  0  0  0  0  0  0  0  0  0  0
   -7.2530   23.4650  -31.6670 C   0  0  0  0  0  0  0  0  0  0  0  0
   -5.8860   23.5660  -31.3990 C   0  0  0  0  0  0  0  0  0  0  0  0
   -5.2760   24.9430  -30.4810 S   0  0  0  0  0  0  0  0  0  0  0  0
   -5.7420   26.2080  -31.1440 O   0  0  0  0  0  0  0  0  0  0  0  0
   -5.8030   24.8920  -29.0740 O   0  0  0  0  0  0  0  0  0  0  0  0
   -3.5380   24.9470  -30.4190 N   0  0  0  0  0  0  0  0  0  0  0  0
   -2.7350   24.2040  -29.4910 C   0  0  0  0  0  0  0  0  0  0  0  0
   -3.0560   22.8840  -29.1250 C   0  0  0  0  0  0  0  0  0  0  0  0
   -2.1800   22.1430  -28.3180 C   0  0  0  0  0  0  0  0  0  0  0  0
   -1.0110   22.7360  -27.8220 C   0  0  0  0  0  0  0  0  0  0  0  0
   -0.7220   24.0710  -28.1320 C   0  0  0  0  0  0  0  0  0  0  0  0
   -1.5700   24.7950  -28.9780 C   0  0  0  0  0  0  0  0  0  0  0  0
   -1.2400   26.0990  -29.3230 O   0  0  0  0  0  0  0  0  0  0  0  0
   -0.1030   21.9160  -26.9490 C   0  0  0  0  0  0  0  0  0  0  0  0
    0.0970   20.5080  -27.5400 C   0  0  0  0  0  0  0  0  0  0  0  0
   -1.1910   19.8580  -28.1200 C   0  0  0  0  0  0  0  0  0  0  0  0
   -2.4620   20.7100  -27.9620 C   0  0  0  0  0  0  0  0  0  0  0  0
   -5.0240   22.5400  -31.8090 C   0  0  0  0  0  0  0  0  0  0  0  0
   -5.5250   21.3830  -32.4290 C   0  0  0  0  0  0  0  0  0  0  0  0
   -4.4190   20.0500  -32.7950 S   0  0  0  0  0  0  0  0  0  0  0  0
   -3.5330   20.4360  -33.9480 O   0  0  0  0  0  0  0  0  0  0  0  0
   -3.5660   19.7590  -31.5940 O   0  0  0  0  0  0  0  0  0  0  0  0
   -5.2750   18.5850  -33.2420 C   0  0  0  0  0  0  0  0  0  0  0  0
   -5.5050   18.2370  -34.5250 N   0  0  0  0  0  0  0  0  0  0  0  0
   -6.1800   17.0780  -34.4220 C   0  0  0  0  0  0  0  0  0  0  0  0
   -6.3390   16.7610  -33.0930 C   0  0  0  0  0  0  0  0  0  0  0  0
   -5.7650   17.7140  -32.3370 N   0  0  0  0  0  0  0  0  0  0  0  0
   -8.1730   20.3010  -34.1540 H   0  0  0  0  0  0  0  0  0  0  0  0
   -7.1670   19.1880  -33.2040 H   0  0  0  0  0  0  0  0  0  0  0  0
   -8.8345   22.2857  -32.5517 H   0  0  0  0  0  0  0  0  0  0  0  0
   -7.9334   24.2710  -31.3549 H   0  0  0  0  0  0  0  0  0  0  0  0
   -3.9965   22.4318  -29.4726 H   0  0  0  0  0  0  0  0  0  0  0  0
    0.1730   24.5513  -27.7098 H   0  0  0  0  0  0  0  0  0  0  0  0
    0.8732   22.4172  -26.8723 H   0  0  0  0  0  0  0  0  0  0  0  0
   -0.5623   21.8194  -25.9542 H   0  0  0  0  0  0  0  0  0  0  0  0
    0.8395   20.5781  -28.3486 H   0  0  0  0  0  0  0  0  0  0  0  0
    0.4221   19.8653  -26.7086 H   0  0  0  0  0  0  0  0  0  0  0  0
   -1.0307   19.6757  -29.1929 H   0  0  0  0  0  0  0  0  0  0  0  0
   -1.3604   18.9342  -27.5474 H   0  0  0  0  0  0  0  0  0  0  0  0
   -3.2457   20.3187  -28.6274 H   0  0  0  0  0  0  0  0  0  0  0  0
   -2.7961   20.6616  -26.9151 H   0  0  0  0  0  0  0  0  0  0  0  0
   -3.9413   22.6418  -31.6433 H   0  0  0  0  0  0  0  0  0  0  0  0
   -6.5471   16.4780  -35.2677 H   0  0  0  0  0  0  0  0  0  0  0  0
   -6.8545   15.8684  -32.7088 H   0  0  0  0  0  0  0  0  0  0  0  0
  1  2  1  0
  2  3  2  0
  3  4  1  0
  4  5  2  0
  5  6  1  0
  6  7  2  0
  6  8  2  0
  6  9  1  0
  9 10  1  0
 10 11  2  0
 11 12  1  0
 12 13  2  0
 13 14  1  0
 14 15  2  0
 15 16  1  0
 13 17  1  0
 17 18  1  0
 18 19  1  0
 19 20  1  0
  5 21  1  0
 21 22  2  0
 22 23  1  0
 23 24  2  0
 23 25  2  0
 23 26  1  0
 26 27  2  0
 27 28  1  0
 28 29  2  0
 29 30  1  0
 22  2  1  0
 30 26  1  0
 15 10  1  0
 20 12  1  0
  1 31  1  0
  1 32  1  0
  3 33  1  0
  4 34  1  0
 11 35  1  0
 14 36  1  0
 17 37  1  0
 17 38  1  0
 18 39  1  0
 18 40  1  0
 19 41  1  0
 19 42  1  0
 20 43  1  0
 20 44  1  0
 21 45  1  0
 28 46  1  0
 29 47  1  0
M  CHG  3   9  -1  16  -1  30  -1
M  END
>  <UniqueID>  (28) 
27

>  <SMILES>  (28) 
Nc1ccc(S(=O)(=O)[N-]c2cc3c(cc2[O-])CCCC3)cc1S(=O)(=O)c1ncc[n-]1

>  <Energy>  (28) 
85.27679528706621

>  <Genealogy>  (28) 
Nc1ccc(S(=O)(=O)[N-]c2cc3c(cc2[O-])CCCC3)cc1S(=O)(=O)c1ncc[n-]1 (protonated)
Nc1ccc(S(=O)(=O)[N-]c2cc3c(cc2[O-])CCCC3)cc1S(=O)(=O)c1ncc[n-]1 (3D coordinates assigned)
Nc1ccc(S(=O)(=O)[N-]c2cc3c(cc2[O-])CCCC3)cc1S(=O)(=O)c1ncc[n-]1 (nonaromatic ring conformer: 85.27679528706621 kcal/mol)

>  <smiles>  (28) 
Nc1ccc(S(=O)(=O)Nc2cc3c(cc2O)CCCC3)cc1S(=O)(=O)c1ncc[nH]1

>  <score_type>  (28) 
oracle

>  <origin>  (28) 
adgpu

>  <m_score__min__energy>  (28) 
-14.529999999999999

>  <m_primary>  (28) 
energy

$$$$
28:0
     RDKit          3D

 50 53  0  0  0  0  0  0  0  0999 V2000
   -1.9430   25.3970  -28.9470 O   0  0  0  0  0  0  0  0  0  0  0  0
   -2.6720   24.1120  -28.6670 S   0  0  0  0  0  0  0  0  0  0  0  0
   -2.8840   23.9890  -27.1840 O   0  0  0  0  0  0  0  0  0  0  0  0
   -4.2410   24.1000  -29.4670 C   0  0  0  0  0  0  0  0  0  0  0  0
   -5.1000   22.9990  -29.3340 C   0  0  0  0  0  0  0  0  0  0  0  0
   -6.3440   22.9990  -29.9730 C   0  0  0  0  0  0  0  0  0  0  0  0
   -6.7350   24.0930  -30.7480 C   0  0  0  0  0  0  0  0  0  0  0  0
   -5.8800   25.1910  -30.8870 C   0  0  0  0  0  0  0  0  0  0  0  0
   -4.6340   25.1940  -30.2510 C   0  0  0  0  0  0  0  0  0  0  0  0
   -1.6930   22.7650  -29.2380 C   0  0  0  0  0  0  0  0  0  0  0  0
   -1.6560   22.5030  -30.5710 N   0  0  0  0  0  0  0  0  0  0  0  0
   -0.9170   21.4780  -31.0680 C   0  0  0  0  0  0  0  0  0  0  0  0
   -0.9140   21.1530  -32.8260 S   0  0  0  0  0  0  0  0  0  0  0  0
   -2.5370   20.3930  -32.7670 C   0  0  0  0  0  0  0  0  0  0  0  0
   -3.3410   20.5400  -31.6310 C   0  0  0  0  0  0  0  0  0  0  0  0
   -4.6120   19.9570  -31.5920 C   0  0  0  0  0  0  0  0  0  0  0  0
   -5.0860   19.2270  -32.6920 C   0  0  0  0  0  0  0  0  0  0  0  0
   -6.6800   18.4790  -32.6580 S   0  0  0  0  0  0  0  0  0  0  0  0
   -6.7740   17.4140  -33.7160 O   0  0  0  0  0  0  0  0  0  0  0  0
   -6.8900   17.8420  -31.3120 O   0  0  0  0  0  0  0  0  0  0  0  0
   -7.8990   19.7000  -32.9250 N   0  0  0  0  0  0  0  0  0  0  0  0
   -7.4350   21.0310  -32.5280 C   0  0  0  0  0  0  0  0  0  0  0  0
   -8.6740   21.8310  -32.1530 C   0  0  0  0  0  0  0  0  0  0  0  0
   -9.7650   20.7990  -31.9000 C   0  0  0  0  0  0  0  0  0  0  0  0
   -9.1050   19.4460  -32.1330 C   0  0  0  0  0  0  0  0  0  0  0  0
   -4.2760   19.0780  -33.8250 C   0  0  0  0  0  0  0  0  0  0  0  0
   -3.0050   19.6580  -33.8620 C   0  0  0  0  0  0  0  0  0  0  0  0
   -0.1930   20.6930  -30.2310 N   0  0  0  0  0  0  0  0  0  0  0  0
   -0.1940   20.9170  -28.8910 C   0  0  0  0  0  0  0  0  0  0  0  0
   -0.9490   21.9620  -28.3550 C   0  0  0  0  0  0  0  0  0  0  0  0
   -0.9300   22.2320  -26.6170 Cl  0  0  0  0  0  0  0  0  0  0  0  0
   -4.7947   22.1344  -28.7263 H   0  0  0  0  0  0  0  0  0  0  0  0
   -7.0162   22.1351  -29.8649 H   0  0  0  0  0  0  0  0  0  0  0  0
   -7.7145   24.0911  -31.2486 H   0  0  0  0  0  0  0  0  0  0  0  0
   -6.1876   26.0531  -31.4970 H   0  0  0  0  0  0  0  0  0  0  0  0
   -3.9611   26.0565  -30.3662 H   0  0  0  0  0  0  0  0  0  0  0  0
   -2.9732   21.1145  -30.7680 H   0  0  0  0  0  0  0  0  0  0  0  0
   -5.2410   20.0713  -30.6969 H   0  0  0  0  0  0  0  0  0  0  0  0
   -8.1480   19.7100  -33.9420 H   0  0  0  0  0  0  0  0  0  0  0  0
   -6.7573   20.9546  -31.6650 H   0  0  0  0  0  0  0  0  0  0  0  0
   -6.8816   21.5175  -33.3447 H   0  0  0  0  0  0  0  0  0  0  0  0
   -8.4882   22.4241  -31.2454 H   0  0  0  0  0  0  0  0  0  0  0  0
   -8.9580   22.5383  -32.9462 H   0  0  0  0  0  0  0  0  0  0  0  0
  -10.1336   20.8743  -30.8663 H   0  0  0  0  0  0  0  0  0  0  0  0
  -10.6317   20.9501  -32.5603 H   0  0  0  0  0  0  0  0  0  0  0  0
   -8.8373   18.9836  -31.1715 H   0  0  0  0  0  0  0  0  0  0  0  0
   -9.7852   18.7573  -32.6555 H   0  0  0  0  0  0  0  0  0  0  0  0
   -4.6414   18.5027  -34.6884 H   0  0  0  0  0  0  0  0  0  0  0  0
   -2.3716   19.5366  -34.7531 H   0  0  0  0  0  0  0  0  0  0  0  0
    0.4015   20.2735  -28.2267 H   0  0  0  0  0  0  0  0  0  0  0  0
  1  2  2  0
  2  3  2  0
  2  4  1  0
  4  5  2  0
  5  6  1  0
  6  7  2  0
  7  8  1  0
  8  9  2  0
  2 10  1  0
 10 11  2  0
 11 12  1  0
 12 13  1  0
 13 14  1  0
 14 15  2  0
 15 16  1  0
 16 17  2  0
 17 18  1  0
 18 19  2  0
 18 20  2  0
 18 21  1  0
 21 22  1  0
 22 23  1  0
 23 24  1  0
 24 25  1  0
 17 26  1  0
 26 27  2  0
 12 28  2  0
 28 29  1  0
 29 30  2  0
 30 31  1  0
  9  4  1  0
 30 10  1  0
 27 14  1  0
 25 21  1  0
  5 32  1  0
  6 33  1  0
  7 34  1  0
  8 35  1  0
  9 36  1  0
 15 37  1  0
 16 38  1  0
 21 39  1  0
 22 40  1  0
 22 41  1  0
 23 42  1  0
 23 43  1  0
 24 44  1  0
 24 45  1  0
 25 46  1  0
 25 47  1  0
 26 48  1  0
 27 49  1  0
 29 50  1  0
M  CHG  1  21   1
M  END
>  <UniqueID>  (29) 
28

>  <SMILES>  (29) 
O=S(=O)(c1ccccc1)c1nc(Sc2ccc(S(=O)(=O)[NH+]3CCCC3)cc2)ncc1Cl

>  <Energy>  (29) 
53.310519017828696

>  <Genealogy>  (29) 
O=S(=O)(c1ccccc1)c1nc(Sc2ccc(S(=O)(=O)[NH+]3CCCC3)cc2)ncc1Cl (protonated)
O=S(=O)(c1ccccc1)c1nc(Sc2ccc(S(=O)(=O)[NH+]3CCCC3)cc2)ncc1Cl (3D coordinates assigned)
O=S(=O)(c1ccccc1)c1nc(Sc2ccc(S(=O)(=O)[NH+]3CCCC3)cc2)ncc1Cl (nonaromatic ring conformer: 53.310519017828696 kcal/mol)

>  <smiles>  (29) 
O=S(=O)(c1ccccc1)c1nc(Sc2ccc(S(=O)(=O)N3CCCC3)cc2)ncc1Cl

>  <score_type>  (29) 
oracle

>  <origin>  (29) 
adgpu

>  <m_score__min__energy>  (29) 
-10.08

>  <m_primary>  (29) 
energy

$$$$
29:0
     RDKit          3D

 58 61  0  0  0  0  0  0  0  0999 V2000
   -6.8470   24.6440  -30.4090 C   0  0  0  0  0  0  0  0  0  0  0  0
   -6.6460   24.2250  -31.7540 O   0  0  0  0  0  0  0  0  0  0  0  0
   -6.2860   22.9210  -32.1400 C   0  0  0  0  0  0  0  0  0  0  0  0
   -4.9570   22.5880  -32.4580 C   0  0  0  0  0  0  0  0  0  0  0  0
   -4.6070   21.2840  -32.8380 C   0  0  0  0  0  0  0  0  0  0  0  0
   -3.1660   20.9720  -33.1690 C   0  0  0  0  0  0  0  0  0  0  0  0
   -2.5340   20.2460  -32.1150 O   0  0  0  0  0  0  0  0  0  0  0  0
   -1.2050   19.7860  -32.1210 C   0  0  0  0  0  0  0  0  0  0  0  0
   -0.7000   18.9770  -33.1600 C   0  0  0  0  0  0  0  0  0  0  0  0
    0.6350   18.5670  -33.1530 C   0  0  0  0  0  0  0  0  0  0  0  0
    1.4850   18.9660  -32.1220 C   0  0  0  0  0  0  0  0  0  0  0  0
    1.0030   19.7710  -31.0890 C   0  0  0  0  0  0  0  0  0  0  0  0
   -0.3430   20.1720  -31.0700 C   0  0  0  0  0  0  0  0  0  0  0  0
   -0.8180   21.0360  -29.9690 C   0  0  0  0  0  0  0  0  0  0  0  0
   -2.1450   21.4700  -29.9050 C   0  0  0  0  0  0  0  0  0  0  0  0
   -2.5460   22.3040  -28.8510 C   0  0  0  0  0  0  0  0  0  0  0  0
   -3.8620   22.7840  -28.7220 O   0  0  0  0  0  0  0  0  0  0  0  0
   -4.2430   24.1590  -28.7330 C   0  0  0  0  0  0  0  0  0  0  0  0
   -3.3880   24.9190  -29.6970 C   0  0  0  0  0  0  0  0  0  0  0  0
   -3.8430   25.2610  -30.8200 O   0  0  0  0  0  0  0  0  0  0  0  0
   -2.0980   25.2880  -29.3360 O   0  0  0  0  0  0  0  0  0  0  0  0
   -1.5970   22.6750  -27.8910 C   0  0  0  0  0  0  0  0  0  0  0  0
   -1.9350   23.4370  -26.9430 O   0  0  0  0  0  0  0  0  0  0  0  0
   -0.3160   22.2010  -27.9790 N   0  0  0  0  0  0  0  0  0  0  0  0
    0.6880   22.5650  -26.9790 C   0  0  0  0  0  0  0  0  0  0  0  0
    0.0490   21.4080  -28.9900 N   0  0  0  0  0  0  0  0  0  0  0  0
   -5.6100   20.3000  -32.9520 C   0  0  0  0  0  0  0  0  0  0  0  0
   -5.2820   19.0140  -33.3920 O   0  0  0  0  0  0  0  0  0  0  0  0
   -5.6630   18.5590  -34.6840 C   0  0  0  0  0  0  0  0  0  0  0  0
   -6.9430   20.6090  -32.6150 C   0  0  0  0  0  0  0  0  0  0  0  0
   -7.9480   19.6260  -32.6790 C   0  0  0  0  0  0  0  0  0  0  0  0
   -9.2680   19.9390  -32.3490 C   0  0  0  0  0  0  0  0  0  0  0  0
   -9.6020   21.2340  -31.9520 C   0  0  0  0  0  0  0  0  0  0  0  0
   -8.6190   22.2230  -31.8810 C   0  0  0  0  0  0  0  0  0  0  0  0
   -7.2820   21.9260  -32.2080 C   0  0  0  0  0  0  0  0  0  0  0  0
   -6.4748   23.8682  -29.7238 H   0  0  0  0  0  0  0  0  0  0  0  0
   -6.3010   25.5823  -30.2318 H   0  0  0  0  0  0  0  0  0  0  0  0
   -7.9206   24.8054  -30.2318 H   0  0  0  0  0  0  0  0  0  0  0  0
   -4.1786   23.3636  -32.4078 H   0  0  0  0  0  0  0  0  0  0  0  0
   -3.1326   20.3693  -34.0886 H   0  0  0  0  0  0  0  0  0  0  0  0
   -2.6289   21.9223  -33.3048 H   0  0  0  0  0  0  0  0  0  0  0  0
   -1.3623   18.6668  -33.9817 H   0  0  0  0  0  0  0  0  0  0  0  0
    1.0169   17.9278  -33.9627 H   0  0  0  0  0  0  0  0  0  0  0  0
    2.5373   18.6456  -32.1230 H   0  0  0  0  0  0  0  0  0  0  0  0
    1.6810   20.0933  -30.2850 H   0  0  0  0  0  0  0  0  0  0  0  0
   -2.8681   21.1604  -30.6740 H   0  0  0  0  0  0  0  0  0  0  0  0
   -5.2970   24.2426  -29.0366 H   0  0  0  0  0  0  0  0  0  0  0  0
   -4.1109   24.5784  -27.7247 H   0  0  0  0  0  0  0  0  0  0  0  0
    0.2732   22.4146  -25.9714 H   0  0  0  0  0  0  0  0  0  0  0  0
    1.5790   21.9327  -27.1069 H   0  0  0  0  0  0  0  0  0  0  0  0
    0.9667   23.6214  -27.1069 H   0  0  0  0  0  0  0  0  0  0  0  0
   -6.3663   17.7191  -34.5843 H   0  0  0  0  0  0  0  0  0  0  0  0
   -6.1473   19.3796  -35.2336 H   0  0  0  0  0  0  0  0  0  0  0  0
   -4.7701   18.2263  -35.2336 H   0  0  0  0  0  0  0  0  0  0  0  0
   -7.6916   18.6030  -32.9915 H   0  0  0  0  0  0  0  0  0  0  0  0
  -10.0460   19.1632  -32.4021 H   0  0  0  0  0  0  0  0  0  0  0  0
  -10.6434   21.4768  -31.6940 H   0  0  0  0  0  0  0  0  0  0  0  0
   -8.8910   23.2416  -31.5673 H   0  0  0  0  0  0  0  0  0  0  0  0
  1  2  1  0
  2  3  1  0
  3  4  2  0
  4  5  1  0
  5  6  1  0
  6  7  1  0
  7  8  1  0
  8  9  2  0
  9 10  1  0
 10 11  2  0
 11 12  1  0
 12 13  2  0
 13 14  1  0
 14 15  1  0
 15 16  2  0
 16 17  1  0
 17 18  1  0
 18 19  1  0
 19 20  2  0
 19 21  1  0
 16 22  1  0
 22 23  2  0
 22 24  1  0
 24 25  1  0
 24 26  1  0
  5 27  2  0
 27 28  1  0
 28 29  1  0
 27 30  1  0
 30 31  2  0
 31 32  1  0
 32 33  2  0
 33 34  1  0
 34 35  2  0
 35  3  1  0
 13  8  1  0
 26 14  2  0
 35 30  1  0
  1 36  1  0
  1 37  1  0
  1 38  1  0
  4 39  1  0
  6 40  1  0
  6 41  1  0
  9 42  1  0
 10 43  1  0
 11 44  1  0
 12 45  1  0
 15 46  1  0
 18 47  1  0
 18 48  1  0
 25 49  1  0
 25 50  1  0
 25 51  1  0
 29 52  1  0
 29 53  1  0
 29 54  1  0
 31 55  1  0
 32 56  1  0
 33 57  1  0
 34 58  1  0
M  CHG  1  21  -1
M  END
>  <UniqueID>  (30) 
29

>  <SMILES>  (30) 
COc1cc(COc2ccccc2-c2cc(OCC(=O)[O-])c(=O)n(C)n2)c(OC)c2ccccc12

>  <Energy>  (30) 
77.90988344856818

>  <Genealogy>  (30) 
COc1cc(COc2ccccc2-c2cc(OCC(=O)[O-])c(=O)n(C)n2)c(OC)c2ccccc12 (protonated)
COc1cc(COc2ccccc2-c2cc(OCC(=O)[O-])c(=O)n(C)n2)c(OC)c2ccccc12 (3D coordinates assigned)
COc1cc(COc2ccccc2-c2cc(OCC(=O)[O-])c(=O)n(C)n2)c(OC)c2ccccc12 (optimized conformer: 77.90988344856818 kcal/mol)

>  <smiles>  (30) 
COc1cc(COc2ccccc2-c2cc(OCC(=O)O)c(=O)n(C)n2)c(OC)c2ccccc12

>  <score_type>  (30) 
oracle

>  <origin>  (30) 
adgpu

>  <m_score__min__energy>  (30) 
-11.710000000000001

>  <m_primary>  (30) 
energy

$$$$
30:0
     RDKit          3D

 51 54  0  0  0  0  0  0  0  0999 V2000
   -5.7340   25.3040  -28.9560 O   0  0  0  0  0  0  0  0  0  0  0  0
   -5.3570   25.1410  -30.4040 S   0  0  0  0  0  0  0  0  0  0  0  0
   -5.7230   26.3970  -31.1430 O   0  0  0  0  0  0  0  0  0  0  0  0
   -3.6460   24.8840  -30.5240 N   0  0  0  0  0  0  0  0  0  0  0  0
   -2.8690   24.0600  -29.6420 C   0  0  0  0  0  0  0  0  0  0  0  0
   -3.0840   22.6740  -29.5320 C   0  0  0  0  0  0  0  0  0  0  0  0
   -2.3060   21.8960  -28.6640 C   0  0  0  0  0  0  0  0  0  0  0  0
   -1.3080   22.5060  -27.8880 C   0  0  0  0  0  0  0  0  0  0  0  0
   -1.0730   23.8810  -28.0200 C   0  0  0  0  0  0  0  0  0  0  0  0
   -1.8530   24.6570  -28.8810 C   0  0  0  0  0  0  0  0  0  0  0  0
   -1.6110   26.0220  -28.9910 O   0  0  0  0  0  0  0  0  0  0  0  0
   -0.4390   21.6520  -27.0010 C   0  0  0  0  0  0  0  0  0  0  0  0
   -1.2150   20.5000  -26.3190 C   0  0  0  0  0  0  0  0  0  0  0  0
   -2.4670   19.9980  -27.0790 C   0  0  0  0  0  0  0  0  0  0  0  0
   -2.5000   20.4110  -28.5530 C   0  0  0  0  0  0  0  0  0  0  0  0
   -6.2200   23.7850  -31.1280 C   0  0  0  0  0  0  0  0  0  0  0  0
   -7.6180   23.7100  -31.0650 C   0  0  0  0  0  0  0  0  0  0  0  0
   -8.2880   22.6110  -31.6100 C   0  0  0  0  0  0  0  0  0  0  0  0
   -7.5650   21.5860  -32.2250 C   0  0  0  0  0  0  0  0  0  0  0  0
   -6.1690   21.6570  -32.3020 C   0  0  0  0  0  0  0  0  0  0  0  0
   -5.2670   20.3620  -33.0840 S   0  0  0  0  0  0  0  0  0  0  0  0
   -3.8850   20.8470  -33.4440 O   0  0  0  0  0  0  0  0  0  0  0  0
   -5.9860   19.9860  -34.3520 O   0  0  0  0  0  0  0  0  0  0  0  0
   -5.1750   18.9690  -32.0180 N   0  0  0  0  0  0  0  0  0  0  0  0
   -4.6560   17.7990  -32.7380 C   0  0  0  0  0  0  0  0  0  0  0  0
   -5.8390   17.0410  -33.3230 C   0  0  0  0  0  0  0  0  0  0  0  0
   -7.0450   17.5240  -32.5420 C   0  0  0  0  0  0  0  0  0  0  0  0
   -6.5170   18.5760  -31.5770 C   0  0  0  0  0  0  0  0  0  0  0  0
   -5.5000   22.7560  -31.7480 C   0  0  0  0  0  0  0  0  0  0  0  0
   -3.8711   22.1959  -30.1336 H   0  0  0  0  0  0  0  0  0  0  0  0
   -0.2667   24.3540  -27.4402 H   0  0  0  0  0  0  0  0  0  0  0  0
    0.3659   21.2181  -27.6124 H   0  0  0  0  0  0  0  0  0  0  0  0
   -0.0466   22.3004  -26.2037 H   0  0  0  0  0  0  0  0  0  0  0  0
   -0.5263   19.6503  -26.2019 H   0  0  0  0  0  0  0  0  0  0  0  0
   -1.5834   20.9069  -25.3657 H   0  0  0  0  0  0  0  0  0  0  0  0
   -2.4881   18.8995  -27.0257 H   0  0  0  0  0  0  0  0  0  0  0  0
   -3.3416   20.4589  -26.5967 H   0  0  0  0  0  0  0  0  0  0  0  0
   -1.6945   19.8949  -29.0960 H   0  0  0  0  0  0  0  0  0  0  0  0
   -3.4721   20.1358  -28.9880 H   0  0  0  0  0  0  0  0  0  0  0  0
   -8.1896   24.5182  -30.5853 H   0  0  0  0  0  0  0  0  0  0  0  0
   -9.3851   22.5532  -31.5546 H   0  0  0  0  0  0  0  0  0  0  0  0
   -8.0943   20.7204  -32.6501 H   0  0  0  0  0  0  0  0  0  0  0  0
   -3.9858   18.1259  -33.5467 H   0  0  0  0  0  0  0  0  0  0  0  0
   -4.0889   17.1510  -32.0536 H   0  0  0  0  0  0  0  0  0  0  0  0
   -5.9543   17.2714  -34.3924 H   0  0  0  0  0  0  0  0  0  0  0  0
   -5.7083   15.9515  -33.2460 H   0  0  0  0  0  0  0  0  0  0  0  0
   -7.7896   17.9655  -33.2207 H   0  0  0  0  0  0  0  0  0  0  0  0
   -7.5415   16.6987  -32.0107 H   0  0  0  0  0  0  0  0  0  0  0  0
   -7.1819   19.4523  -31.5810 H   0  0  0  0  0  0  0  0  0  0  0  0
   -6.4777   18.1695  -30.5556 H   0  0  0  0  0  0  0  0  0  0  0  0
   -4.4026   22.8112  -31.8002 H   0  0  0  0  0  0  0  0  0  0  0  0
  1  2  2  0
  2  3  2  0
  2  4  1  0
  4  5  1  0
  5  6  2  0
  6  7  1  0
  7  8  2  0
  8  9  1  0
  9 10  2  0
 10 11  1  0
  8 12  1  0
 12 13  1  0
 13 14  1  0
 14 15  1  0
  2 16  1  0
 16 17  2  0
 17 18  1  0
 18 19  2  0
 19 20  1  0
 20 21  1  0
 21 22  2  0
 21 23  2  0
 21 24  1  0
 24 25  1  0
 25 26  1  0
 26 27  1  0
 27 28  1  0
 20 29  2  0
 10  5  1  0
 29 16  1  0
 15  7  1  0
 28 24  1  0
  6 30  1  0
  9 31  1  0
 12 32  1  0
 12 33  1  0
 13 34  1  0
 13 35  1  0
 14 36  1  0
 14 37  1  0
 15 38  1  0
 15 39  1  0
 17 40  1  0
 18 41  1  0
 19 42  1  0
 25 43  1  0
 25 44  1  0
 26 45  1  0
 26 46  1  0
 27 47  1  0
 27 48  1  0
 28 49  1  0
 28 50  1  0
 29 51  1  0
M  CHG  2   4  -1  11  -1
M  END
>  <UniqueID>  (31) 
30

>  <SMILES>  (31) 
O=S(=O)([N-]c1cc2c(cc1[O-])CCCC2)c1cccc(S(=O)(=O)N2CCCC2)c1

>  <Energy>  (31) 
60.945204692614944

>  <Genealogy>  (31) 
O=S(=O)([N-]c1cc2c(cc1[O-])CCCC2)c1cccc(S(=O)(=O)N2CCCC2)c1 (protonated)
O=S(=O)([N-]c1cc2c(cc1[O-])CCCC2)c1cccc(S(=O)(=O)N2CCCC2)c1 (3D coordinates assigned)
O=S(=O)([N-]c1cc2c(cc1[O-])CCCC2)c1cccc(S(=O)(=O)N2CCCC2)c1 (nonaromatic ring conformer: 60.945204692614944 kcal/mol)

>  <smiles>  (31) 
O=S(=O)(Nc1cc2c(cc1O)CCCC2)c1cccc(S(=O)(=O)N2CCCC2)c1

>  <score_type>  (31) 
oracle

>  <origin>  (31) 
adgpu

>  <m_score__min__energy>  (31) 
-15.31

>  <m_primary>  (31) 
energy

$$$$
31:0
     RDKit          3D

 62 65  0  0  0  0  0  0  0  0999 V2000
    0.1360   18.6810  -33.7050 C   0  0  0  0  0  0  0  0  0  0  0  0
   -0.1160   17.4870  -34.5430 N   0  0  0  0  0  0  0  0  0  0  0  0
    0.5410   17.7120  -35.8510 C   0  0  0  0  0  0  0  0  0  0  0  0
   -1.5850   17.2180  -34.6700 C   0  0  0  0  0  0  0  0  0  0  0  0
   -2.2400   16.8810  -33.2880 C   0  0  0  0  0  0  0  0  0  0  0  0
   -2.5120   15.3790  -33.1060 C   0  0  0  0  0  0  0  0  0  0  0  0
   -3.3790   14.8110  -34.1670 N   0  0  0  0  0  0  0  0  0  0  0  0
   -5.0370   14.6860  -33.6320 S   0  0  0  0  0  0  0  0  0  0  0  0
   -5.1240   13.7750  -32.4390 O   0  0  0  0  0  0  0  0  0  0  0  0
   -5.8900   14.1220  -34.7350 O   0  0  0  0  0  0  0  0  0  0  0  0
   -5.6200   16.2810  -33.1660 C   0  0  0  0  0  0  0  0  0  0  0  0
   -6.0610   17.1690  -34.1530 C   0  0  0  0  0  0  0  0  0  0  0  0
   -6.5570   18.4270  -33.8010 C   0  0  0  0  0  0  0  0  0  0  0  0
   -6.6230   18.8150  -32.4500 C   0  0  0  0  0  0  0  0  0  0  0  0
   -7.1640   20.1460  -32.0730 C   0  0  0  0  0  0  0  0  0  0  0  0
   -8.5310   20.4320  -32.2200 C   0  0  0  0  0  0  0  0  0  0  0  0
   -9.0140   21.6930  -31.8760 C   0  0  0  0  0  0  0  0  0  0  0  0
   -8.1690   22.6390  -31.3930 N   0  0  0  0  0  0  0  0  0  0  0  0
   -6.8380   22.4050  -31.2200 C   0  0  0  0  0  0  0  0  0  0  0  0
   -5.9900   23.4580  -30.7190 N   0  0  0  0  0  0  0  0  0  0  0  0
   -6.5520   24.6650  -30.0960 C   0  0  0  0  0  0  0  0  0  0  0  0
   -5.7150   25.9180  -30.4310 C   0  0  0  0  0  0  0  0  0  0  0  0
   -4.2660   25.6750  -30.5900 N   0  0  0  0  0  0  0  0  0  0  0  0
   -3.8210   24.4050  -30.0100 C   0  0  0  0  0  0  0  0  0  0  0  0
   -4.5390   23.2340  -30.6850 C   0  0  0  0  0  0  0  0  0  0  0  0
   -6.3140   21.1470  -31.5720 C   0  0  0  0  0  0  0  0  0  0  0  0
   -6.1740   17.9180  -31.4620 C   0  0  0  0  0  0  0  0  0  0  0  0
   -5.6790   16.6610  -31.8190 C   0  0  0  0  0  0  0  0  0  0  0  0
   -3.3130   15.5300  -35.4560 C   0  0  0  0  0  0  0  0  0  0  0  0
   -1.9130   16.0980  -35.7000 C   0  0  0  0  0  0  0  0  0  0  0  0
    0.0772   18.4023  -32.6425 H   0  0  0  0  0  0  0  0  0  0  0  0
    1.1378   19.0785  -33.9249 H   0  0  0  0  0  0  0  0  0  0  0  0
   -0.6197   19.4494  -33.9249 H   0  0  0  0  0  0  0  0  0  0  0  0
    0.3470   16.6620  -34.0910 H   0  0  0  0  0  0  0  0  0  0  0  0
    1.5702   18.0645  -35.6885 H   0  0  0  0  0  0  0  0  0  0  0  0
    0.5614   16.7696  -36.4180 H   0  0  0  0  0  0  0  0  0  0  0  0
   -0.0206   18.4690  -36.4180 H   0  0  0  0  0  0  0  0  0  0  0  0
   -2.0204   18.1545  -35.0488 H   0  0  0  0  0  0  0  0  0  0  0  0
   -1.5629   17.2147  -32.4879 H   0  0  0  0  0  0  0  0  0  0  0  0
   -3.2092   17.3997  -33.2465 H   0  0  0  0  0  0  0  0  0  0  0  0
   -1.5502   14.8454  -33.1171 H   0  0  0  0  0  0  0  0  0  0  0  0
   -3.0411   15.2554  -32.1496 H   0  0  0  0  0  0  0  0  0  0  0  0
   -6.0170   16.8752  -35.2121 H   0  0  0  0  0  0  0  0  0  0  0  0
   -6.8982   19.1187  -34.5853 H   0  0  0  0  0  0  0  0  0  0  0  0
   -9.2177   19.6638  -32.6051 H   0  0  0  0  0  0  0  0  0  0  0  0
  -10.0831   21.9224  -31.9962 H   0  0  0  0  0  0  0  0  0  0  0  0
   -7.5782   24.8121  -30.4638 H   0  0  0  0  0  0  0  0  0  0  0  0
   -6.5426   24.5259  -29.0049 H   0  0  0  0  0  0  0  0  0  0  0  0
   -6.0956   26.3414  -31.3722 H   0  0  0  0  0  0  0  0  0  0  0  0
   -5.8211   26.5979  -29.5729 H   0  0  0  0  0  0  0  0  0  0  0  0
   -4.0320   25.6700  -31.6110 H   0  0  0  0  0  0  0  0  0  0  0  0
   -2.7360   24.2991  -30.1569 H   0  0  0  0  0  0  0  0  0  0  0  0
   -4.0574   24.3992  -28.9357 H   0  0  0  0  0  0  0  0  0  0  0  0
   -4.1667   23.1286  -31.7147 H   0  0  0  0  0  0  0  0  0  0  0  0
   -4.3382   22.3192  -30.1082 H   0  0  0  0  0  0  0  0  0  0  0  0
   -5.2387   20.9471  -31.4549 H   0  0  0  0  0  0  0  0  0  0  0  0
   -6.2131   18.2087  -30.4018 H   0  0  0  0  0  0  0  0  0  0  0  0
   -5.3341   15.9666  -31.0387 H   0  0  0  0  0  0  0  0  0  0  0  0
   -3.5646   14.8332  -36.2691 H   0  0  0  0  0  0  0  0  0  0  0  0
   -4.0283   16.3652  -35.4268 H   0  0  0  0  0  0  0  0  0  0  0  0
   -1.1735   15.2896  -35.6018 H   0  0  0  0  0  0  0  0  0  0  0  0
   -1.8777   16.5276  -36.7120 H   0  0  0  0  0  0  0  0  0  0  0  0
  1  2  1  0
  2  3  1  0
  2  4  1  0
  4  5  1  0
  5  6  1  0
  6  7  1  0
  7  8  1  0
  8  9  2  0
  8 10  2  0
  8 11  1  0
 11 12  2  0
 12 13  1  0
 13 14  2  0
 14 15  1  0
 15 16  2  0
 16 17  1  0
 17 18  2  0
 18 19  1  0
 19 20  1  0
 20 21  1  0
 21 22  1  0
 22 23  1  0
 23 24  1  0
 24 25  1  0
 19 26  2  0
 14 27  1  0
 27 28  2  0
  7 29  1  0
 29 30  1  0
 30  4  1  0
 28 11  1  0
 26 15  1  0
 25 20  1  0
  1 31  1  0
  1 32  1  0
  1 33  1  0
  2 34  1  0
  3 35  1  0
  3 36  1  0
  3 37  1  0
  4 38  1  0
  5 39  1  0
  5 40  1  0
  6 41  1  0
  6 42  1  0
 12 43  1  0
 13 44  1  0
 16 45  1  0
 17 46  1  0
 21 47  1  0
 21 48  1  0
 22 49  1  0
 22 50  1  0
 23 51  1  0
 24 52  1  0
 24 53  1  0
 25 54  1  0
 25 55  1  0
 26 56  1  0
 27 57  1  0
 28 58  1  0
 29 59  1  0
 29 60  1  0
 30 61  1  0
 30 62  1  0
M  CHG  1   2   1
M  END
>  <UniqueID>  (32) 
31

>  <SMILES>  (32) 
C[NH+](C)C1CCN(S(=O)(=O)c2ccc(-c3ccnc(N4CCNCC4)c3)cc2)CC1

>  <Energy>  (32) 
90.39284729238486

>  <Genealogy>  (32) 
C[NH+](C)C1CCN(S(=O)(=O)c2ccc(-c3ccnc(N4CCNCC4)c3)cc2)CC1 (protonated)
C[NH+](C)C1CCN(S(=O)(=O)c2ccc(-c3ccnc(N4CCNCC4)c3)cc2)CC1 (3D coordinates assigned)
C[NH+](C)C1CCN(S(=O)(=O)c2ccc(-c3ccnc(N4CCNCC4)c3)cc2)CC1 (nonaromatic ring conformer: 90.39284729238486 kcal/mol)

>  <smiles>  (32) 
CN(C)C1CCN(S(=O)(=O)c2ccc(-c3ccnc(N4CCNCC4)c3)cc2)CC1

>  <score_type>  (32) 
oracle

>  <origin>  (32) 
adgpu

>  <m_score__min__energy>  (32) 
-10.23

>  <m_primary>  (32) 
energy

$$$$
32:0
     RDKit          3D

 69 74  0  0  0  0  0  0  0  0999 V2000
   -1.5990   20.7410  -25.9140 O   0  0  0  0  0  0  0  0  0  0  0  0
   -1.8100   20.7810  -27.4010 S   0  0  0  0  0  0  0  0  0  0  0  0
   -3.2060   20.2990  -27.6860 O   0  0  0  0  0  0  0  0  0  0  0  0
   -1.6420   22.4450  -27.9640 C   0  0  0  0  0  0  0  0  0  0  0  0
   -0.5840   23.2440  -27.5130 C   0  0  0  0  0  0  0  0  0  0  0  0
   -0.4570   24.5600  -27.9610 C   0  0  0  0  0  0  0  0  0  0  0  0
   -1.3740   25.0840  -28.8770 C   0  0  0  0  0  0  0  0  0  0  0  0
   -1.2250   26.3930  -29.3200 O   0  0  0  0  0  0  0  0  0  0  0  0
   -2.4300   24.2870  -29.3540 C   0  0  0  0  0  0  0  0  0  0  0  0
   -3.3680   24.8270  -30.2990 N   0  0  0  0  0  0  0  0  0  0  0  0
   -4.7000   24.3230  -30.4710 C   0  0  0  0  0  0  0  0  0  0  0  0
   -5.8420   24.9850  -29.9920 C   0  0  0  0  0  0  0  0  0  0  0  0
   -7.2450   24.0900  -30.3910 S   0  0  0  0  0  0  0  0  0  0  0  0
   -6.3690   22.8990  -31.1760 C   0  0  0  0  0  0  0  0  0  0  0  0
   -6.5790   21.7480  -31.8920 C   0  0  0  0  0  0  0  0  0  0  0  0
   -7.8110   21.1470  -32.1280 O   0  0  0  0  0  0  0  0  0  0  0  0
   -5.3820   21.2770  -32.3260 N   0  0  0  0  0  0  0  0  0  0  0  0
   -5.1520   20.0950  -33.1120 C   0  0  0  0  0  0  0  0  0  0  0  0
   -6.2050   19.5070  -33.8340 C   0  0  0  0  0  0  0  0  0  0  0  0
   -5.9800   18.3600  -34.5980 C   0  0  0  0  0  0  0  0  0  0  0  0
   -4.7080   17.7850  -34.6450 C   0  0  0  0  0  0  0  0  0  0  0  0
   -3.6490   18.3570  -33.9260 C   0  0  0  0  0  0  0  0  0  0  0  0
   -2.0460   17.6200  -33.9740 S   0  0  0  0  0  0  0  0  0  0  0  0
   -1.7900   17.0830  -35.3550 O   0  0  0  0  0  0  0  0  0  0  0  0
   -2.0040   16.4660  -33.0110 O   0  0  0  0  0  0  0  0  0  0  0  0
   -0.7920   18.7630  -33.5610 N   0  0  0  0  0  0  0  0  0  0  0  0
   -0.8860   19.9630  -34.4090 C   0  0  0  0  0  0  0  0  0  0  0  0
    0.0490   21.0750  -33.8890 C   0  0  0  0  0  0  0  0  0  0  0  0
    0.9620   20.5650  -32.9360 O   0  0  0  0  0  0  0  0  0  0  0  0
    0.2600   20.1160  -31.7890 C   0  0  0  0  0  0  0  0  0  0  0  0
   -0.8800   19.1370  -32.1420 C   0  0  0  0  0  0  0  0  0  0  0  0
   -3.8740   19.5130  -33.1660 C   0  0  0  0  0  0  0  0  0  0  0  0
   -4.4380   22.1520  -31.8820 C   0  0  0  0  0  0  0  0  0  0  0  0
   -3.0840   22.0660  -32.1850 O   0  0  0  0  0  0  0  0  0  0  0  0
   -5.0480   23.1530  -31.1500 C   0  0  0  0  0  0  0  0  0  0  0  0
   -2.5710   22.9740  -28.8700 C   0  0  0  0  0  0  0  0  0  0  0  0
   -0.6560   19.7210  -28.1750 N   0  0  0  0  0  0  0  0  0  0  0  0
   -0.5780   18.4380  -27.4570 C   0  0  0  0  0  0  0  0  0  0  0  0
    0.2520   17.4210  -28.2620 C   0  0  0  0  0  0  0  0  0  0  0  0
    1.2050   18.0990  -29.2610 C   0  0  0  0  0  0  0  0  0  0  0  0
    1.7810   19.3930  -28.6790 C   0  0  0  0  0  0  0  0  0  0  0  0
    0.6690   20.3700  -28.2360 C   0  0  0  0  0  0  0  0  0  0  0  0
    0.1493   22.8333  -26.8034 H   0  0  0  0  0  0  0  0  0  0  0  0
    0.3678   25.1872  -27.5918 H   0  0  0  0  0  0  0  0  0  0  0  0
   -3.0950   25.6760  -30.8440 H   0  0  0  0  0  0  0  0  0  0  0  0
   -5.8357   25.9376  -29.4419 H   0  0  0  0  0  0  0  0  0  0  0  0
   -7.2102   19.9521  -33.7970 H   0  0  0  0  0  0  0  0  0  0  0  0
   -6.8073   17.9078  -35.1647 H   0  0  0  0  0  0  0  0  0  0  0  0
   -4.5366   16.8809  -35.2478 H   0  0  0  0  0  0  0  0  0  0  0  0
   -0.5979   19.7012  -35.4378 H   0  0  0  0  0  0  0  0  0  0  0  0
   -1.9218   20.3325  -34.3841 H   0  0  0  0  0  0  0  0  0  0  0  0
    0.6107   21.4976  -34.7351 H   0  0  0  0  0  0  0  0  0  0  0  0
   -0.5636   21.8512  -33.4071 H   0  0  0  0  0  0  0  0  0  0  0  0
    0.9679   19.6067  -31.1186 H   0  0  0  0  0  0  0  0  0  0  0  0
   -0.1910   20.9956  -31.3064 H   0  0  0  0  0  0  0  0  0  0  0  0
   -0.7919   18.2340  -31.5200 H   0  0  0  0  0  0  0  0  0  0  0  0
   -1.8485   19.6232  -31.9534 H   0  0  0  0  0  0  0  0  0  0  0  0
   -3.0432   19.9685  -32.6071 H   0  0  0  0  0  0  0  0  0  0  0  0
   -3.4177   22.3571  -29.2055 H   0  0  0  0  0  0  0  0  0  0  0  0
   -0.1032   18.5990  -26.4779 H   0  0  0  0  0  0  0  0  0  0  0  0
   -1.5954   18.0418  -27.3236 H   0  0  0  0  0  0  0  0  0  0  0  0
    0.8469   16.8172  -27.5609 H   0  0  0  0  0  0  0  0  0  0  0  0
   -0.4486   16.7983  -28.8377 H   0  0  0  0  0  0  0  0  0  0  0  0
    2.0308   17.4107  -29.4941 H   0  0  0  0  0  0  0  0  0  0  0  0
    0.6399   18.3458  -30.1719 H   0  0  0  0  0  0  0  0  0  0  0  0
    2.4042   19.1445  -27.8073 H   0  0  0  0  0  0  0  0  0  0  0  0
    2.3748   19.8851  -29.4633 H   0  0  0  0  0  0  0  0  0  0  0  0
    0.9180   20.7602  -27.2381 H   0  0  0  0  0  0  0  0  0  0  0  0
    0.6141   21.1774  -28.9811 H   0  0  0  0  0  0  0  0  0  0  0  0
  1  2  2  0
  2  3  2  0
  2  4  1  0
  4  5  2  0
  5  6  1  0
  6  7  2  0
  7  8  1  0
  7  9  1  0
  9 10  1  0
 10 11  1  0
 11 12  2  0
 12 13  1  0
 13 14  1  0
 14 15  2  0
 15 16  1  0
 15 17  1  0
 17 18  1  0
 18 19  2  0
 19 20  1  0
 20 21  2  0
 21 22  1  0
 22 23  1  0
 23 24  2  0
 23 25  2  0
 23 26  1  0
 26 27  1  0
 27 28  1  0
 28 29  1  0
 29 30  1  0
 30 31  1  0
 22 32  2  0
 17 33  1  0
 33 34  1  0
 33 35  2  0
  9 36  2  0
  2 37  1  0
 37 38  1  0
 38 39  1  0
 39 40  1  0
 40 41  1  0
 41 42  1  0
 36  4  1  0
 42 37  1  0
 35 11  1  0
 35 14  1  0
 32 18  1  0
 31 26  1  0
  5 43  1  0
  6 44  1  0
 10 45  1  0
 12 46  1  0
 19 47  1  0
 20 48  1  0
 21 49  1  0
 27 50  1  0
 27 51  1  0
 28 52  1  0
 28 53  1  0
 30 54  1  0
 30 55  1  0
 31 56  1  0
 31 57  1  0
 32 58  1  0
 36 59  1  0
 38 60  1  0
 38 61  1  0
 39 62  1  0
 39 63  1  0
 40 64  1  0
 40 65  1  0
 41 66  1  0
 41 67  1  0
 42 68  1  0
 42 69  1  0
M  CHG  3   8  -1  16  -1  34  -1
M  END
>  <UniqueID>  (33) 
32

>  <SMILES>  (33) 
O=S(=O)(c1ccc([O-])c(Nc2csc3c([O-])n(-c4cccc(S(=O)(=O)N5CCOCC5)c4)c([O-])c23)c1)N1CCCCC1

>  <Energy>  (33) 
172.91762866152206

>  <Genealogy>  (33) 
O=S(=O)(c1ccc([O-])c(Nc2csc3c([O-])n(-c4cccc(S(=O)(=O)N5CCOCC5)c4)c([O-])c23)c1)N1CCCCC1 (protonated)
O=S(=O)(c1ccc([O-])c(Nc2csc3c([O-])n(-c4cccc(S(=O)(=O)N5CCOCC5)c4)c([O-])c23)c1)N1CCCCC1 (3D coordinates assigned)
O=S(=O)(c1ccc([O-])c(Nc2csc3c([O-])n(-c4cccc(S(=O)(=O)N5CCOCC5)c4)c([O-])c23)c1)N1CCCCC1 (nonaromatic ring conformer: 172.91762866152206 kcal/mol)

>  <smiles>  (33) 
O=S(=O)(c1ccc(O)c(Nc2csc3c(O)n(-c4cccc(S(=O)(=O)N5CCOCC5)c4)c(O)c23)c1)N1CCCCC1

>  <score_type>  (33) 
oracle

>  <origin>  (33) 
adgpu

>  <m_score__min__energy>  (33) 
-14.73

>  <m_primary>  (33) 
energy

$$$$
33:0
     RDKit          3D

 56 60  0  0  0  0  0  0  0  0999 V2000
   -2.8110   18.9330  -26.7100 C   0  0  0  0  0  0  0  0  0  0  0  0
   -1.4380   19.3800  -27.0010 N   0  0  0  0  0  0  0  0  0  0  0  0
   -1.0940   20.6380  -26.3110 C   0  0  0  0  0  0  0  0  0  0  0  0
   -1.9330   21.8280  -26.8030 C   0  0  0  0  0  0  0  0  0  0  0  0
   -2.0780   21.8490  -28.3010 C   0  0  0  0  0  0  0  0  0  0  0  0
   -2.6120   22.9900  -28.9170 C   0  0  0  0  0  0  0  0  0  0  0  0
   -2.8600   23.0060  -30.2940 C   0  0  0  0  0  0  0  0  0  0  0  0
   -3.4860   24.1450  -30.8830 N   0  0  0  0  0  0  0  0  0  0  0  0
   -5.0890   24.6050  -30.4180 S   0  0  0  0  0  0  0  0  0  0  0  0
   -5.3560   26.0160  -30.8570 O   0  0  0  0  0  0  0  0  0  0  0  0
   -5.2000   24.5390  -28.9210 O   0  0  0  0  0  0  0  0  0  0  0  0
   -6.2670   23.5190  -31.1530 C   0  0  0  0  0  0  0  0  0  0  0  0
   -7.6300   23.8440  -31.1660 C   0  0  0  0  0  0  0  0  0  0  0  0
   -8.5550   22.9610  -31.7290 C   0  0  0  0  0  0  0  0  0  0  0  0
   -8.1280   21.7410  -32.2610 C   0  0  0  0  0  0  0  0  0  0  0  0
   -6.7700   21.3890  -32.2260 C   0  0  0  0  0  0  0  0  0  0  0  0
   -6.3040   20.0900  -32.7630 C   0  0  0  0  0  0  0  0  0  0  0  0
   -5.0970   19.9170  -33.4370 C   0  0  0  0  0  0  0  0  0  0  0  0
   -5.0470   18.5780  -33.7570 C   0  0  0  0  0  0  0  0  0  0  0  0
   -4.0640   17.8490  -34.4210 C   0  0  0  0  0  0  0  0  0  0  0  0
   -4.2740   16.4700  -34.5920 C   0  0  0  0  0  0  0  0  0  0  0  0
   -5.4510   15.8600  -34.1060 C   0  0  0  0  0  0  0  0  0  0  0  0
   -6.4260   16.6220  -33.4380 C   0  0  0  0  0  0  0  0  0  0  0  0
   -6.1900   17.9920  -33.2760 C   0  0  0  0  0  0  0  0  0  0  0  0
   -6.9630   18.9030  -32.6470 N   0  0  0  0  0  0  0  0  0  0  0  0
   -8.2260   18.6370  -31.9540 C   0  0  0  0  0  0  0  0  0  0  0  0
   -5.8400   22.3000  -31.6980 C   0  0  0  0  0  0  0  0  0  0  0  0
   -2.5390   21.8830  -31.0760 C   0  0  0  0  0  0  0  0  0  0  0  0
   -2.7550   21.8720  -32.4540 O   0  0  0  0  0  0  0  0  0  0  0  0
   -2.0020   20.7460  -30.4650 C   0  0  0  0  0  0  0  0  0  0  0  0
   -1.7960   20.7080  -29.0780 C   0  0  0  0  0  0  0  0  0  0  0  0
   -1.1850   19.4740  -28.4520 C   0  0  0  0  0  0  0  0  0  0  0  0
   -2.9580   18.8852  -25.6209 H   0  0  0  0  0  0  0  0  0  0  0  0
   -3.5282   19.6440  -27.1459 H   0  0  0  0  0  0  0  0  0  0  0  0
   -2.9722   17.9360  -27.1459 H   0  0  0  0  0  0  0  0  0  0  0  0
   -1.2660   20.5071  -25.2324 H   0  0  0  0  0  0  0  0  0  0  0  0
   -0.0389   20.8605  -26.5284 H   0  0  0  0  0  0  0  0  0  0  0  0
   -2.9344   21.7643  -26.3522 H   0  0  0  0  0  0  0  0  0  0  0  0
   -1.4136   22.7504  -26.5039 H   0  0  0  0  0  0  0  0  0  0  0  0
   -2.8380   23.8806  -28.3122 H   0  0  0  0  0  0  0  0  0  0  0  0
   -7.9721   24.7953  -30.7325 H   0  0  0  0  0  0  0  0  0  0  0  0
   -9.6222   23.2267  -31.7536 H   0  0  0  0  0  0  0  0  0  0  0  0
   -8.8602   21.0533  -32.7094 H   0  0  0  0  0  0  0  0  0  0  0  0
   -4.3442   20.6859  -33.6651 H   0  0  0  0  0  0  0  0  0  0  0  0
   -3.1532   18.3363  -34.7992 H   0  0  0  0  0  0  0  0  0  0  0  0
   -3.5164   15.8618  -35.1079 H   0  0  0  0  0  0  0  0  0  0  0  0
   -5.6064   14.7807  -34.2510 H   0  0  0  0  0  0  0  0  0  0  0  0
   -7.3456   16.1558  -33.0547 H   0  0  0  0  0  0  0  0  0  0  0  0
   -8.0621   18.6715  -30.8668 H   0  0  0  0  0  0  0  0  0  0  0  0
   -8.9672   19.3987  -32.2374 H   0  0  0  0  0  0  0  0  0  0  0  0
   -8.5970   17.6410  -32.2374 H   0  0  0  0  0  0  0  0  0  0  0  0
   -4.7678   22.0548  -31.7123 H   0  0  0  0  0  0  0  0  0  0  0  0
   -3.2410   22.6210  -32.9310 H   0  0  0  0  0  0  0  0  0  0  0  0
   -1.7382   19.8719  -31.0784 H   0  0  0  0  0  0  0  0  0  0  0  0
   -1.6107   18.5852  -28.9407 H   0  0  0  0  0  0  0  0  0  0  0  0
   -0.0960   19.5372  -28.5935 H   0  0  0  0  0  0  0  0  0  0  0  0
  1  2  1  0
  2  3  1  0
  3  4  1  0
  4  5  1  0
  5  6  2  0
  6  7  1  0
  7  8  1  0
  8  9  1  0
  9 10  2  0
  9 11  2  0
  9 12  1  0
 12 13  2  0
 13 14  1  0
 14 15  2  0
 15 16  1  0
 16 17  1  0
 17 18  2  0
 18 19  1  0
 19 20  2  0
 20 21  1  0
 21 22  2  0
 22 23  1  0
 23 24  2  0
 24 25  1  0
 25 26  1  0
 16 27  2  0
  7 28  2  0
 28 29  1  0
 28 30  1  0
 30 31  2  0
 31 32  1  0
 32  2  1  0
 31  5  1  0
 27 12  1  0
 25 17  1  0
 24 19  1  0
  1 33  1  0
  1 34  1  0
  1 35  1  0
  3 36  1  0
  3 37  1  0
  4 38  1  0
  4 39  1  0
  6 40  1  0
 13 41  1  0
 14 42  1  0
 15 43  1  0
 18 44  1  0
 20 45  1  0
 21 46  1  0
 22 47  1  0
 23 48  1  0
 26 49  1  0
 26 50  1  0
 26 51  1  0
 27 52  1  0
 29 53  1  0
 30 54  1  0
 32 55  1  0
 32 56  1  0
M  CHG  1   8  -1
M  END
>  <UniqueID>  (34) 
33

>  <SMILES>  (34) 
CN1CCc2cc([N-]S(=O)(=O)c3cccc(-c4cc5ccccc5n4C)c3)c(O)cc2C1

>  <Energy>  (34) 
109.19908785101492

>  <Genealogy>  (34) 
CN1CCc2cc([N-]S(=O)(=O)c3cccc(-c4cc5ccccc5n4C)c3)c(O)cc2C1 (protonated)
CN1CCc2cc([N-]S(=O)(=O)c3cccc(-c4cc5ccccc5n4C)c3)c(O)cc2C1 (3D coordinates assigned)
CN1CCc2cc([N-]S(=O)(=O)c3cccc(-c4cc5ccccc5n4C)c3)c(O)cc2C1 (nonaromatic ring conformer: 109.19908785101492 kcal/mol)

>  <smiles>  (34) 
CN1CCc2cc(NS(=O)(=O)c3cccc(-c4cc5ccccc5n4C)c3)c(O)cc2C1

>  <score_type>  (34) 
oracle

>  <origin>  (34) 
adgpu

>  <m_score__min__energy>  (34) 
-13.470000000000001

>  <m_primary>  (34) 
energy

$$$$
34:0
     RDKit          3D

 57 60  0  0  0  0  0  0  0  0999 V2000
   -4.4220   25.1530  -26.0070 C   0  0  0  0  0  0  0  0  0  0  0  0
   -3.2660   24.9500  -26.9810 C   0  0  0  0  0  0  0  0  0  0  0  0
   -3.7570   24.3650  -28.2800 C   0  0  0  0  0  0  0  0  0  0  0  0
   -4.9870   23.6870  -28.3170 C   0  0  0  0  0  0  0  0  0  0  0  0
   -5.4450   23.1120  -29.5070 C   0  0  0  0  0  0  0  0  0  0  0  0
   -6.6340   22.4690  -29.5330 N   0  0  0  0  0  0  0  0  0  0  0  0
   -7.1150   21.8920  -30.6640 C   0  0  0  0  0  0  0  0  0  0  0  0
   -8.5800   21.1540  -30.5590 S   0  0  0  0  0  0  0  0  0  0  0  0
   -6.3890   21.9500  -31.8380 N   0  0  0  0  0  0  0  0  0  0  0  0
   -6.8550   21.3030  -33.0870 C   0  0  0  0  0  0  0  0  0  0  0  0
   -6.3970   19.8670  -33.1470 C   0  0  0  0  0  0  0  0  0  0  0  0
   -6.1310   19.2570  -34.3840 C   0  0  0  0  0  0  0  0  0  0  0  0
   -5.6770   17.9360  -34.4380 C   0  0  0  0  0  0  0  0  0  0  0  0
   -5.4840   17.2080  -33.2570 C   0  0  0  0  0  0  0  0  0  0  0  0
   -4.8830   15.5520  -33.3060 S   0  0  0  0  0  0  0  0  0  0  0  0
   -5.0490   14.9400  -31.9420 O   0  0  0  0  0  0  0  0  0  0  0  0
   -5.6800   14.7450  -34.2950 O   0  0  0  0  0  0  0  0  0  0  0  0
   -3.1940   15.5500  -33.7570 N   0  0  0  0  0  0  0  0  0  0  0  0
   -2.4680   16.6800  -33.1180 C   0  0  0  0  0  0  0  0  0  0  0  0
   -2.2670   17.8680  -34.0760 C   0  0  0  0  0  0  0  0  0  0  0  0
   -1.5380   17.4830  -35.3090 N   0  0  0  0  0  0  0  0  0  0  0  0
   -0.1110   17.8290  -35.2210 C   0  0  0  0  0  0  0  0  0  0  0  0
   -1.7040   16.0590  -35.6800 C   0  0  0  0  0  0  0  0  0  0  0  0
   -3.0700   15.5260  -35.2330 C   0  0  0  0  0  0  0  0  0  0  0  0
   -5.7480   17.8130  -32.0220 C   0  0  0  0  0  0  0  0  0  0  0  0
   -6.2020   19.1340  -31.9660 C   0  0  0  0  0  0  0  0  0  0  0  0
   -5.1750   22.6010  -31.8470 C   0  0  0  0  0  0  0  0  0  0  0  0
   -4.4990   22.6690  -32.9120 O   0  0  0  0  0  0  0  0  0  0  0  0
   -4.6750   23.1970  -30.6760 C   0  0  0  0  0  0  0  0  0  0  0  0
   -3.4360   23.8630  -30.6400 C   0  0  0  0  0  0  0  0  0  0  0  0
   -2.9760   24.4370  -29.4500 C   0  0  0  0  0  0  0  0  0  0  0  0
   -1.7420   25.0770  -29.4380 O   0  0  0  0  0  0  0  0  0  0  0  0
   -4.0476   25.0873  -24.9748 H   0  0  0  0  0  0  0  0  0  0  0  0
   -4.8707   26.1437  -26.1719 H   0  0  0  0  0  0  0  0  0  0  0  0
   -5.1814   24.3745  -26.1719 H   0  0  0  0  0  0  0  0  0  0  0  0
   -2.7879   25.9204  -27.1804 H   0  0  0  0  0  0  0  0  0  0  0  0
   -2.5441   24.2527  -26.5309 H   0  0  0  0  0  0  0  0  0  0  0  0
   -5.5944   23.6078  -27.4033 H   0  0  0  0  0  0  0  0  0  0  0  0
   -7.9541   21.3331  -33.1209 H   0  0  0  0  0  0  0  0  0  0  0  0
   -6.4315   21.8453  -33.9453 H   0  0  0  0  0  0  0  0  0  0  0  0
   -6.2808   19.8222  -35.3157 H   0  0  0  0  0  0  0  0  0  0  0  0
   -5.4706   17.4666  -35.4112 H   0  0  0  0  0  0  0  0  0  0  0  0
   -2.7890   14.6590  -33.3860 H   0  0  0  0  0  0  0  0  0  0  0  0
   -3.0456   17.0230  -32.2470 H   0  0  0  0  0  0  0  0  0  0  0  0
   -1.4727   16.3148  -32.8247 H   0  0  0  0  0  0  0  0  0  0  0  0
   -3.2533   18.2651  -34.3582 H   0  0  0  0  0  0  0  0  0  0  0  0
   -1.6634   18.6234  -33.5515 H   0  0  0  0  0  0  0  0  0  0  0  0
    0.1844   17.9006  -34.1638 H   0  0  0  0  0  0  0  0  0  0  0  0
    0.4865   17.0497  -35.7167 H   0  0  0  0  0  0  0  0  0  0  0  0
    0.0632   18.7954  -35.7167 H   0  0  0  0  0  0  0  0  0  0  0  0
   -1.6203   15.9606  -36.7724 H   0  0  0  0  0  0  0  0  0  0  0  0
   -0.9199   15.4740  -35.1770 H   0  0  0  0  0  0  0  0  0  0  0  0
   -3.8610   16.1529  -35.6704 H   0  0  0  0  0  0  0  0  0  0  0  0
   -3.1684   14.4853  -35.5753 H   0  0  0  0  0  0  0  0  0  0  0  0
   -5.5974   17.2461  -31.0915 H   0  0  0  0  0  0  0  0  0  0  0  0
   -6.4074   19.6013  -30.9916 H   0  0  0  0  0  0  0  0  0  0  0  0
   -2.8258   23.9327  -31.5525 H   0  0  0  0  0  0  0  0  0  0  0  0
  1  2  1  0
  2  3  1  0
  3  4  2  0
  4  5  1  0
  5  6  1  0
  6  7  1  0
  7  8  2  0
  7  9  1  0
  9 10  1  0
 10 11  1  0
 11 12  2  0
 12 13  1  0
 13 14  2  0
 14 15  1  0
 15 16  2  0
 15 17  2  0
 15 18  1  0
 18 19  1  0
 19 20  1  0
 20 21  1  0
 21 22  1  0
 21 23  1  0
 23 24  1  0
 14 25  1  0
 25 26  2  0
  9 27  1  0
 27 28  2  0
 27 29  1  0
 29 30  1  0
 30 31  2  0
 31 32  1  0
 31  3  1  0
 29  5  2  0
 26 11  1  0
 24 18  1  0
  1 33  1  0
  1 34  1  0
  1 35  1  0
  2 36  1  0
  2 37  1  0
  4 38  1  0
 10 39  1  0
 10 40  1  0
 12 41  1  0
 13 42  1  0
 18 43  1  0
 19 44  1  0
 19 45  1  0
 20 46  1  0
 20 47  1  0
 22 48  1  0
 22 49  1  0
 22 50  1  0
 23 51  1  0
 23 52  1  0
 24 53  1  0
 24 54  1  0
 25 55  1  0
 26 56  1  0
 30 57  1  0
M  CHG  3   6  -1  18   1  32  -1
M  END
>  <UniqueID>  (35) 
34

>  <SMILES>  (35) 
CCc1cc2[n-]c(=S)n(Cc3ccc(S(=O)(=O)[NH+]4CCN(C)CC4)cc3)c(=O)c2cc1[O-]

>  <Energy>  (35) 
78.03969684875887

>  <Genealogy>  (35) 
CCc1cc2[n-]c(=S)n(Cc3ccc(S(=O)(=O)[NH+]4CCN(C)CC4)cc3)c(=O)c2cc1[O-] (protonated)
CCc1cc2[n-]c(=S)n(Cc3ccc(S(=O)(=O)[NH+]4CCN(C)CC4)cc3)c(=O)c2cc1[O-] (3D coordinates assigned)
CCc1cc2[n-]c(=S)n(Cc3ccc(S(=O)(=O)[NH+]4CCN(C)CC4)cc3)c(=O)c2cc1[O-] (nonaromatic ring conformer: 78.03969684875887 kcal/mol)

>  <smiles>  (35) 
CCc1cc2[nH]c(=S)n(Cc3ccc(S(=O)(=O)N4CCN(C)CC4)cc3)c(=O)c2cc1O

>  <score_type>  (35) 
oracle

>  <origin>  (35) 
adgpu

>  <m_score__min__energy>  (35) 
-10.880000000000001

>  <m_primary>  (35) 
energy

$$$$
35:0
     RDKit          3D

 55 58  0  0  0  0  0  0  0  0999 V2000
   -5.3600   14.3678  -31.8819 H   0  0  0  0  0  0  0  0  0  0  0  0
   -4.6160   14.8390  -32.5410 C   0  0  0  0  0  0  0  0  0  0  0  0
   -3.3600   14.3400  -32.6030 N   0  0  0  0  0  0  0  0  0  0  0  0
   -2.4200   14.8930  -33.4070 C   0  0  0  0  0  0  0  0  0  0  0  0
   -1.4061   14.4673  -33.4337 H   0  0  0  0  0  0  0  0  0  0  0  0
   -2.7210   15.9740  -34.1840 N   0  0  0  0  0  0  0  0  0  0  0  0
   -1.6640   16.5680  -35.0200 C   0  0  0  0  0  0  0  0  0  0  0  0
   -0.8757   15.8208  -35.1939 H   0  0  0  0  0  0  0  0  0  0  0  0
   -2.1007   16.8842  -35.9788 H   0  0  0  0  0  0  0  0  0  0  0  0
   -1.0680   17.7690  -34.3320 C   0  0  0  0  0  0  0  0  0  0  0  0
    0.2490   17.7330  -33.8480 C   0  0  0  0  0  0  0  0  0  0  0  0
    0.8437   16.8128  -33.9459 H   0  0  0  0  0  0  0  0  0  0  0  0
    0.8080   18.8620  -33.2420 C   0  0  0  0  0  0  0  0  0  0  0  0
    1.8390   18.8259  -32.8602 H   0  0  0  0  0  0  0  0  0  0  0  0
    0.0600   20.0370  -33.1200 C   0  0  0  0  0  0  0  0  0  0  0  0
    0.6140   21.1270  -32.5320 F   0  0  0  0  0  0  0  0  0  0  0  0
   -1.2520   20.0840  -33.6060 C   0  0  0  0  0  0  0  0  0  0  0  0
   -2.1980   21.5550  -33.4660 Cl  0  0  0  0  0  0  0  0  0  0  0  0
   -1.8140   18.9540  -34.2130 C   0  0  0  0  0  0  0  0  0  0  0  0
   -2.8436   18.9941  -34.5982 H   0  0  0  0  0  0  0  0  0  0  0  0
   -3.9810   16.5180  -34.1440 C   0  0  0  0  0  0  0  0  0  0  0  0
   -4.2490   17.5280  -34.8530 O   0  0  0  0  0  0  0  0  0  0  0  0
   -4.9740   15.9530  -33.3120 C   0  0  0  0  0  0  0  0  0  0  0  0
   -6.3610   16.4920  -33.2290 C   0  0  0  0  0  0  0  0  0  0  0  0
   -7.3030   15.8900  -33.8160 O   0  0  0  0  0  0  0  0  0  0  0  0
   -6.6440   17.6880  -32.4900 N   0  0  0  0  0  0  0  0  0  0  0  0
   -7.0680   18.9380  -33.1080 C   0  0  0  0  0  0  0  0  0  0  0  0
   -8.1518   19.0640  -32.9682 H   0  0  0  0  0  0  0  0  0  0  0  0
   -6.8307   18.9080  -34.1817 H   0  0  0  0  0  0  0  0  0  0  0  0
   -6.3650   20.0670  -32.4920 C   0  0  0  0  0  0  0  0  0  0  0  0
   -5.7800   20.9920  -31.9870 C   0  0  0  0  0  0  0  0  0  0  0  0
   -5.0790   22.0930  -31.3780 C   0  0  0  0  0  0  0  0  0  0  0  0
   -5.6570   23.3600  -31.3710 C   0  0  0  0  0  0  0  0  0  0  0  0
   -6.6376   23.5215  -31.8426 H   0  0  0  0  0  0  0  0  0  0  0  0
   -4.9920   24.4190  -30.7670 C   0  0  0  0  0  0  0  0  0  0  0  0
   -5.4546   25.4169  -30.7540 H   0  0  0  0  0  0  0  0  0  0  0  0
   -3.7390   24.2280  -30.1750 C   0  0  0  0  0  0  0  0  0  0  0  0
   -3.1490   25.2890  -29.5760 N   0  0  0  0  0  0  0  0  0  0  0  0
   -1.9470   25.1980  -28.9670 C   0  0  0  0  0  0  0  0  0  0  0  0
   -1.5103   26.0836  -28.4823 H   0  0  0  0  0  0  0  0  0  0  0  0
   -1.2580   23.9880  -28.9500 C   0  0  0  0  0  0  0  0  0  0  0  0
    0.0310   23.9520  -28.2960 C   0  0  0  0  0  0  0  0  0  0  0  0
    1.0630   23.9220  -27.7720 N   0  0  0  0  0  0  0  0  0  0  0  0
   -1.8010   22.8390  -29.5750 C   0  0  0  0  0  0  0  0  0  0  0  0
   -1.0390   21.7700  -29.5470 N   0  0  0  0  0  0  0  0  0  0  0  0
   -1.1170   20.4120  -30.0800 C   0  0  0  0  0  0  0  0  0  0  0  0
   -0.6109   20.3801  -31.0561 H   0  0  0  0  0  0  0  0  0  0  0  0
   -2.1776   20.1391  -30.1837 H   0  0  0  0  0  0  0  0  0  0  0  0
   -0.4490   19.4090  -29.1390 C   0  0  0  0  0  0  0  0  0  0  0  0
   -0.6426   19.6997  -28.0959 H   0  0  0  0  0  0  0  0  0  0  0  0
   -0.8594   18.4050  -29.3220 H   0  0  0  0  0  0  0  0  0  0  0  0
    0.6356   19.4007  -29.3220 H   0  0  0  0  0  0  0  0  0  0  0  0
   -3.1030   22.9490  -30.1880 C   0  0  0  0  0  0  0  0  0  0  0  0
   -3.8240   21.8840  -30.7880 C   0  0  0  0  0  0  0  0  0  0  0  0
   -3.3894   20.8735  -30.7903 H   0  0  0  0  0  0  0  0  0  0  0  0
  1  2  1  0
  2  3  1  0
  3  4  2  0
  4  5  1  0
  4  6  1  0
  6  7  1  0
  7  8  1  0
  7  9  1  0
  7 10  1  0
 10 11  2  0
 11 12  1  0
 11 13  1  0
 13 14  1  0
 13 15  2  0
 15 16  1  0
 15 17  1  0
 17 18  1  0
 17 19  2  0
 19 20  1  0
  6 21  1  0
 21 22  2  0
 21 23  1  0
 23 24  1  0
 24 25  2  0
 24 26  1  0
 26 27  1  0
 27 28  1  0
 27 29  1  0
 27 30  1  0
 30 31  3  0
 31 32  1  0
 32 33  2  0
 33 34  1  0
 33 35  1  0
 35 36  1  0
 35 37  2  0
 37 38  1  0
 38 39  1  0
 39 40  1  0
 39 41  2  0
 41 42  1  0
 42 43  3  0
 41 44  1  0
 44 45  2  0
 45 46  1  0
 46 47  1  0
 46 48  1  0
 46 49  1  0
 49 50  1  0
 49 51  1  0
 49 52  1  0
 44 53  1  0
 53 54  2  0
 54 55  1  0
 23  2  2  0
 54 32  1  0
 19 10  1  0
 53 37  1  0
M  CHG  2  26  -1  38  -1
M  END
>  <UniqueID>  (36) 
35

>  <SMILES>  (36) 
CC/N=c1/c(C#N)c[n-]c2ccc(C#CC[N-]C(=O)c3cncn(Cc4ccc(F)c(Cl)c4)c3=O)cc12

>  <Energy>  (36) 
78.3071774273972

>  <Genealogy>  (36) 
CCN=c1c(C#N)c[n-]c2ccc(C#CC[N-]C(=O)c3cncn(Cc4ccc(F)c(Cl)c4)c3=O)cc12 (protonated)
CC/N=c1/c(C#N)c[n-]c2ccc(C#CC[N-]C(=O)c3cncn(Cc4ccc(F)c(Cl)c4)c3=O)cc12 (cis-trans isomerization)
CC/N=c1/c(C#N)c[n-]c2ccc(C#CC[N-]C(=O)c3cncn(Cc4ccc(F)c(Cl)c4)c3=O)cc12 (3D coordinates assigned)
CC/N=c1/c(C#N)c[n-]c2ccc(C#CC[N-]C(=O)c3cncn(Cc4ccc(F)c(Cl)c4)c3=O)cc12 (optimized conformer: 78.3071774273972 kcal/mol)

>  <smiles>  (36) 
CCN=c1c(C#N)c[nH]c2ccc(C#CCNC(=O)c3cncn(Cc4ccc(F)c(Cl)c4)c3=O)cc12

>  <score_type>  (36) 
oracle

>  <origin>  (36) 
adgpu

>  <m_score__min__energy>  (36) 
-12.1

>  <m_primary>  (36) 
energy

$$$$
36:0
     RDKit          3D

 56 59  0  0  0  0  0  0  0  0999 V2000
   -4.3770   23.8430  -28.6850 N   0  0  0  0  0  0  0  0  0  0  0  0
   -5.3480   24.6370  -29.8760 S   0  0  0  0  0  0  0  0  0  0  0  0
   -6.2430   25.6350  -29.1950 O   0  0  0  0  0  0  0  0  0  0  0  0
   -4.4640   25.3610  -30.8520 O   0  0  0  0  0  0  0  0  0  0  0  0
   -6.3080   23.4310  -30.7380 C   0  0  0  0  0  0  0  0  0  0  0  0
   -7.5630   23.7800  -31.2580 C   0  0  0  0  0  0  0  0  0  0  0  0
   -8.3350   22.8340  -31.9360 C   0  0  0  0  0  0  0  0  0  0  0  0
   -7.8610   21.5330  -32.0980 C   0  0  0  0  0  0  0  0  0  0  0  0
   -6.6160   21.1710  -31.5840 C   0  0  0  0  0  0  0  0  0  0  0  0
   -5.8250   22.1150  -30.8990 C   0  0  0  0  0  0  0  0  0  0  0  0
   -4.5410   21.7680  -30.3580 N   0  0  0  0  0  0  0  0  0  0  0  0
   -3.0090   22.1300  -31.0830 S   0  0  0  0  0  0  0  0  0  0  0  0
   -2.4870   23.4090  -30.4920 O   0  0  0  0  0  0  0  0  0  0  0  0
   -3.2010   22.3030  -32.5630 O   0  0  0  0  0  0  0  0  0  0  0  0
   -1.8690   20.8280  -30.7470 C   0  0  0  0  0  0  0  0  0  0  0  0
   -1.2480   20.0830  -31.7330 C   0  0  0  0  0  0  0  0  0  0  0  0
   -0.3680   19.2370  -31.0960 C   0  0  0  0  0  0  0  0  0  0  0  0
   -0.4890   19.5020  -29.7480 C   0  0  0  0  0  0  0  0  0  0  0  0
    0.3390   18.9080  -28.7360 N   0  0  0  0  0  0  0  0  0  0  0  0
    0.2930   17.4580  -28.5300 C   0  0  0  0  0  0  0  0  0  0  0  0
    1.3000   17.0410  -27.4610 C   0  0  0  0  0  0  0  0  0  0  0  0
    2.6200   17.5810  -27.7980 N   0  0  0  0  0  0  0  0  0  0  0  0
    2.6600   19.0590  -27.8720 C   0  0  0  0  0  0  0  0  0  0  0  0
    1.2760   19.7330  -27.9650 C   0  0  0  0  0  0  0  0  0  0  0  0
   -1.4160   20.4620  -29.5250 N   0  0  0  0  0  0  0  0  0  0  0  0
   -1.9920   21.0020  -27.9680 S   0  0  0  0  0  0  0  0  0  0  0  0
   -2.0150   19.8700  -26.9810 O   0  0  0  0  0  0  0  0  0  0  0  0
   -3.3860   21.5460  -28.1200 O   0  0  0  0  0  0  0  0  0  0  0  0
   -0.9090   22.2290  -27.3140 C   0  0  0  0  0  0  0  0  0  0  0  0
   -0.6500   22.3000  -25.9380 C   0  0  0  0  0  0  0  0  0  0  0  0
    0.1970   23.2920  -25.4310 C   0  0  0  0  0  0  0  0  0  0  0  0
    0.8010   24.2050  -26.3000 C   0  0  0  0  0  0  0  0  0  0  0  0
    1.6200   25.1680  -25.8090 F   0  0  0  0  0  0  0  0  0  0  0  0
    0.5640   24.1240  -27.6760 C   0  0  0  0  0  0  0  0  0  0  0  0
   -0.2860   23.1350  -28.1830 C   0  0  0  0  0  0  0  0  0  0  0  0
   -3.5690   23.4170  -29.1890 H   0  0  0  0  0  0  0  0  0  0  0  0
   -4.9470   23.0560  -28.2990 H   0  0  0  0  0  0  0  0  0  0  0  0
   -7.9415   24.8050  -31.1311 H   0  0  0  0  0  0  0  0  0  0  0  0
   -9.3176   23.1156  -32.3424 H   0  0  0  0  0  0  0  0  0  0  0  0
   -8.4707   20.7898  -32.6328 H   0  0  0  0  0  0  0  0  0  0  0  0
   -6.2492   20.1422  -31.7141 H   0  0  0  0  0  0  0  0  0  0  0  0
   -1.4233   20.1528  -32.8167 H   0  0  0  0  0  0  0  0  0  0  0  0
    0.2974   18.4986  -31.5673 H   0  0  0  0  0  0  0  0  0  0  0  0
   -0.7184   17.1694  -28.2077 H   0  0  0  0  0  0  0  0  0  0  0  0
    0.5461   16.9548  -29.4748 H   0  0  0  0  0  0  0  0  0  0  0  0
    0.9816   17.4334  -26.4840 H   0  0  0  0  0  0  0  0  0  0  0  0
    1.3532   15.9433  -27.4149 H   0  0  0  0  0  0  0  0  0  0  0  0
    3.2980   17.2630  -27.0650 H   0  0  0  0  0  0  0  0  0  0  0  0
    3.1649   19.4345  -26.9698 H   0  0  0  0  0  0  0  0  0  0  0  0
    3.1935   19.3111  -28.8004 H   0  0  0  0  0  0  0  0  0  0  0  0
    0.8772   19.8768  -26.9500 H   0  0  0  0  0  0  0  0  0  0  0  0
    1.3916   20.7008  -28.4749 H   0  0  0  0  0  0  0  0  0  0  0  0
   -1.1141   21.5736  -25.2546 H   0  0  0  0  0  0  0  0  0  0  0  0
    0.3873   23.3531  -24.3493 H   0  0  0  0  0  0  0  0  0  0  0  0
    1.0460   24.8381  -28.3599 H   0  0  0  0  0  0  0  0  0  0  0  0
   -0.4657   23.0684  -29.2662 H   0  0  0  0  0  0  0  0  0  0  0  0
  1  2  1  0
  2  3  2  0
  2  4  2  0
  2  5  1  0
  5  6  2  0
  6  7  1  0
  7  8  2  0
  8  9  1  0
  9 10  2  0
 10 11  1  0
 11 12  1  0
 12 13  2  0
 12 14  2  0
 12 15  1  0
 15 16  2  0
 16 17  1  0
 17 18  2  0
 18 19  1  0
 19 20  1  0
 20 21  1  0
 21 22  1  0
 22 23  1  0
 23 24  1  0
 18 25  1  0
 25 26  1  0
 26 27  2  0
 26 28  2  0
 26 29  1  0
 29 30  2  0
 30 31  1  0
 31 32  2  0
 32 33  1  0
 32 34  1  0
 34 35  2  0
 10  5  1  0
 25 15  1  0
 35 29  1  0
 24 19  1  0
  1 36  1  0
  1 37  1  0
  6 38  1  0
  7 39  1  0
  8 40  1  0
  9 41  1  0
 16 42  1  0
 17 43  1  0
 20 44  1  0
 20 45  1  0
 21 46  1  0
 21 47  1  0
 22 48  1  0
 23 49  1  0
 23 50  1  0
 24 51  1  0
 24 52  1  0
 30 53  1  0
 31 54  1  0
 34 55  1  0
 35 56  1  0
M  CHG  1  11  -1
M  END
>  <UniqueID>  (37) 
36

>  <SMILES>  (37) 
NS(=O)(=O)c1ccccc1[N-]S(=O)(=O)c1ccc(N2CCNCC2)n1S(=O)(=O)c1ccc(F)cc1

>  <Energy>  (37) 
98.30907909190077

>  <Genealogy>  (37) 
NS(=O)(=O)c1ccccc1[N-]S(=O)(=O)c1ccc(N2CCNCC2)n1S(=O)(=O)c1ccc(F)cc1 (protonated)
NS(=O)(=O)c1ccccc1[N-]S(=O)(=O)c1ccc(N2CCNCC2)n1S(=O)(=O)c1ccc(F)cc1 (3D coordinates assigned)
NS(=O)(=O)c1ccccc1[N-]S(=O)(=O)c1ccc(N2CCNCC2)n1S(=O)(=O)c1ccc(F)cc1 (nonaromatic ring conformer: 98.30907909190077 kcal/mol)

>  <smiles>  (37) 
NS(=O)(=O)c1ccccc1NS(=O)(=O)c1ccc(N2CCNCC2)n1S(=O)(=O)c1ccc(F)cc1

>  <score_type>  (37) 
oracle

>  <origin>  (37) 
adgpu

>  <m_score__min__energy>  (37) 
-9.3699999999999992

>  <m_primary>  (37) 
energy

$$$$
37:0
     RDKit          3D

 65 69  0  0  0  0  0  0  0  0999 V2000
   -6.8070   22.9310  -30.3310 C   0  0  0  0  0  0  0  0  0  0  0  0
   -5.3730   23.0220  -30.5990 N   0  0  0  0  0  0  0  0  0  0  0  0
   -4.7340   22.0710  -31.4720 C   0  0  0  0  0  0  0  0  0  0  0  0
   -5.4740   20.9900  -32.0210 C   0  0  0  0  0  0  0  0  0  0  0  0
   -4.8600   20.0580  -32.8770 C   0  0  0  0  0  0  0  0  0  0  0  0
   -3.5090   20.2280  -33.1650 C   0  0  0  0  0  0  0  0  0  0  0  0
   -2.7390   19.4560  -33.9500 N   0  0  0  0  0  0  0  0  0  0  0  0
   -1.5030   20.0140  -33.9140 C   0  0  0  0  0  0  0  0  0  0  0  0
   -0.3220   19.4840  -34.6300 C   0  0  0  0  0  0  0  0  0  0  0  0
   -0.1500   18.2340  -34.6660 O   0  0  0  0  0  0  0  0  0  0  0  0
    0.5810   20.3710  -35.3370 N   0  0  0  0  0  0  0  0  0  0  0  0
    1.6080   20.9180  -34.4450 C   0  0  0  0  0  0  0  0  0  0  0  0
    2.0460   22.2530  -35.0420 C   0  0  0  0  0  0  0  0  0  0  0  0
    0.9900   22.6060  -36.0800 C   0  0  0  0  0  0  0  0  0  0  0  0
   -0.0830   21.5380  -35.9330 C   0  0  0  0  0  0  0  0  0  0  0  0
   -1.4940   21.1430  -33.0940 C   0  0  0  0  0  0  0  0  0  0  0  0
   -2.7860   21.2610  -32.6330 C   0  0  0  0  0  0  0  0  0  0  0  0
   -3.3610   22.2010  -31.7820 C   0  0  0  0  0  0  0  0  0  0  0  0
   -4.4470   24.2820  -29.8340 S   0  0  0  0  0  0  0  0  0  0  0  0
   -5.2680   24.9620  -28.7740 O   0  0  0  0  0  0  0  0  0  0  0  0
   -4.0480   25.2950  -30.8700 O   0  0  0  0  0  0  0  0  0  0  0  0
   -3.0230   23.5810  -29.0630 C   0  0  0  0  0  0  0  0  0  0  0  0
   -3.0480   22.2560  -28.6010 C   0  0  0  0  0  0  0  0  0  0  0  0
   -1.9250   21.7020  -27.9740 C   0  0  0  0  0  0  0  0  0  0  0  0
   -1.9880   20.0470  -27.3700 S   0  0  0  0  0  0  0  0  0  0  0  0
   -3.4150   19.6530  -27.1140 O   0  0  0  0  0  0  0  0  0  0  0  0
   -1.2420   19.9930  -26.0650 O   0  0  0  0  0  0  0  0  0  0  0  0
   -1.2390   18.9430  -28.5070 N   0  0  0  0  0  0  0  0  0  0  0  0
   -0.0410   18.2980  -27.9420 C   0  0  0  0  0  0  0  0  0  0  0  0
    1.1560   19.2730  -27.8460 C   0  0  0  0  0  0  0  0  0  0  0  0
    1.0290   20.4130  -28.6790 O   0  0  0  0  0  0  0  0  0  0  0  0
    0.5100   20.0460  -29.9370 C   0  0  0  0  0  0  0  0  0  0  0  0
   -0.9580   19.6010  -29.8020 C   0  0  0  0  0  0  0  0  0  0  0  0
   -0.7730   22.4810  -27.8000 C   0  0  0  0  0  0  0  0  0  0  0  0
   -0.7420   23.8000  -28.2600 C   0  0  0  0  0  0  0  0  0  0  0  0
   -1.8610   24.3520  -28.8900 C   0  0  0  0  0  0  0  0  0  0  0  0
   -1.8110   25.6670  -29.3390 O   0  0  0  0  0  0  0  0  0  0  0  0
   -6.9770   22.9202  -29.2443 H   0  0  0  0  0  0  0  0  0  0  0  0
   -7.3185   23.7985  -30.7735 H   0  0  0  0  0  0  0  0  0  0  0  0
   -7.2047   22.0058  -30.7735 H   0  0  0  0  0  0  0  0  0  0  0  0
   -6.5402   20.8804  -31.7737 H   0  0  0  0  0  0  0  0  0  0  0  0
   -5.4300   19.2205  -33.3056 H   0  0  0  0  0  0  0  0  0  0  0  0
   -3.0410   18.5960  -34.4580 H   0  0  0  0  0  0  0  0  0  0  0  0
    1.0480   19.8490  -36.1160 H   0  0  0  0  0  0  0  0  0  0  0  0
    1.1922   21.0717  -33.4383 H   0  0  0  0  0  0  0  0  0  0  0  0
    2.4599   20.2280  -34.3543 H   0  0  0  0  0  0  0  0  0  0  0  0
    2.0899   23.0265  -34.2611 H   0  0  0  0  0  0  0  0  0  0  0  0
    3.0491   22.1884  -35.4889 H   0  0  0  0  0  0  0  0  0  0  0  0
    0.5715   23.6037  -35.8813 H   0  0  0  0  0  0  0  0  0  0  0  0
    1.4061   22.6347  -37.0979 H   0  0  0  0  0  0  0  0  0  0  0  0
   -0.8894   21.8952  -35.2756 H   0  0  0  0  0  0  0  0  0  0  0  0
   -0.5372   21.2892  -36.9034 H   0  0  0  0  0  0  0  0  0  0  0  0
   -0.6397   21.7971  -32.8654 H   0  0  0  0  0  0  0  0  0  0  0  0
   -2.7627   23.0230  -31.3620 H   0  0  0  0  0  0  0  0  0  0  0  0
   -3.9557   21.6486  -28.7323 H   0  0  0  0  0  0  0  0  0  0  0  0
   -0.2794   17.9291  -26.9335 H   0  0  0  0  0  0  0  0  0  0  0  0
    0.2469   17.4740  -28.6115 H   0  0  0  0  0  0  0  0  0  0  0  0
    1.2450   19.6125  -26.8035 H   0  0  0  0  0  0  0  0  0  0  0  0
    2.0467   18.7238  -28.1852 H   0  0  0  0  0  0  0  0  0  0  0  0
    0.5664   20.9080  -30.6180 H   0  0  0  0  0  0  0  0  0  0  0  0
    1.1015   19.2093  -30.3371 H   0  0  0  0  0  0  0  0  0  0  0  0
   -1.6039   20.4866  -29.8941 H   0  0  0  0  0  0  0  0  0  0  0  0
   -1.1570   18.8675  -30.5972 H   0  0  0  0  0  0  0  0  0  0  0  0
    0.1086   22.0531  -27.3003 H   0  0  0  0  0  0  0  0  0  0  0  0
    0.1661   24.4061  -28.1259 H   0  0  0  0  0  0  0  0  0  0  0  0
  1  2  1  0
  2  3  1  0
  3  4  2  0
  4  5  1  0
  5  6  2  0
  6  7  1  0
  7  8  1  0
  8  9  1  0
  9 10  2  0
  9 11  1  0
 11 12  1  0
 12 13  1  0
 13 14  1  0
 14 15  1  0
  8 16  2  0
 16 17  1  0
 17 18  2  0
  2 19  1  0
 19 20  2  0
 19 21  2  0
 19 22  1  0
 22 23  2  0
 23 24  1  0
 24 25  1  0
 25 26  2  0
 25 27  2  0
 25 28  1  0
 28 29  1  0
 29 30  1  0
 30 31  1  0
 31 32  1  0
 32 33  1  0
 24 34  2  0
 34 35  1  0
 35 36  2  0
 36 37  1  0
 18  3  1  0
 36 22  1  0
 17  6  1  0
 33 28  1  0
 15 11  1  0
  1 38  1  0
  1 39  1  0
  1 40  1  0
  4 41  1  0
  5 42  1  0
  7 43  1  0
 11 44  1  0
 12 45  1  0
 12 46  1  0
 13 47  1  0
 13 48  1  0
 14 49  1  0
 14 50  1  0
 15 51  1  0
 15 52  1  0
 16 53  1  0
 18 54  1  0
 23 55  1  0
 29 56  1  0
 29 57  1  0
 30 58  1  0
 30 59  1  0
 32 60  1  0
 32 61  1  0
 33 62  1  0
 33 63  1  0
 34 64  1  0
 35 65  1  0
M  CHG  2  11   1  37  -1
M  END
>  <UniqueID>  (38) 
37

>  <SMILES>  (38) 
CN(c1ccc2[nH]c(C(=O)[NH+]3CCCC3)cc2c1)S(=O)(=O)c1cc(S(=O)(=O)N2CCOCC2)ccc1[O-]

>  <Energy>  (38) 
122.27176821325332

>  <Genealogy>  (38) 
CN(c1ccc2[nH]c(C(=O)[NH+]3CCCC3)cc2c1)S(=O)(=O)c1cc(S(=O)(=O)N2CCOCC2)ccc1[O-] (protonated)
CN(c1ccc2[nH]c(C(=O)[NH+]3CCCC3)cc2c1)S(=O)(=O)c1cc(S(=O)(=O)N2CCOCC2)ccc1[O-] (3D coordinates assigned)
CN(c1ccc2[nH]c(C(=O)[NH+]3CCCC3)cc2c1)S(=O)(=O)c1cc(S(=O)(=O)N2CCOCC2)ccc1[O-] (nonaromatic ring conformer: 122.27176821325332 kcal/mol)

>  <smiles>  (38) 
CN(c1ccc2[nH]c(C(=O)N3CCCC3)cc2c1)S(=O)(=O)c1cc(S(=O)(=O)N2CCOCC2)ccc1O

>  <score_type>  (38) 
oracle

>  <origin>  (38) 
adgpu

>  <m_score__min__energy>  (38) 
-14.720000000000001

>  <m_primary>  (38) 
energy

$$$$
38:0
     RDKit          3D

 49 52  0  0  0  0  0  0  0  0999 V2000
   -6.2170   14.4840  -34.2020 C   0  0  0  0  0  0  0  0  0  0  0  0
   -6.9310   15.6600  -34.5540 O   0  0  0  0  0  0  0  0  0  0  0  0
   -6.7330   16.9160  -33.9620 C   0  0  0  0  0  0  0  0  0  0  0  0
   -7.2800   17.2560  -32.7110 C   0  0  0  0  0  0  0  0  0  0  0  0
   -7.0550   18.5230  -32.1630 C   0  0  0  0  0  0  0  0  0  0  0  0
   -6.2850   19.4760  -32.8540 C   0  0  0  0  0  0  0  0  0  0  0  0
   -6.0520   20.8260  -32.2760 C   0  0  0  0  0  0  0  0  0  0  0  0
   -7.0740   21.4950  -31.5750 C   0  0  0  0  0  0  0  0  0  0  0  0
   -6.8490   22.7630  -31.0280 C   0  0  0  0  0  0  0  0  0  0  0  0
   -5.6060   23.3860  -31.1820 C   0  0  0  0  0  0  0  0  0  0  0  0
   -5.3190   24.9660  -30.4580 S   0  0  0  0  0  0  0  0  0  0  0  0
   -5.9210   26.0490  -31.3090 O   0  0  0  0  0  0  0  0  0  0  0  0
   -5.9850   25.0030  -29.1110 O   0  0  0  0  0  0  0  0  0  0  0  0
   -3.6260   25.2840  -30.2520 N   0  0  0  0  0  0  0  0  0  0  0  0
   -2.7850   24.5560  -29.3490 C   0  0  0  0  0  0  0  0  0  0  0  0
   -3.1410   23.2740  -28.8950 C   0  0  0  0  0  0  0  0  0  0  0  0
   -2.3040   22.5730  -28.0100 C   0  0  0  0  0  0  0  0  0  0  0  0
   -1.1140   23.1780  -27.5440 C   0  0  0  0  0  0  0  0  0  0  0  0
   -0.7610   24.4590  -27.9970 C   0  0  0  0  0  0  0  0  0  0  0  0
   -1.5990   25.1520  -28.8830 C   0  0  0  0  0  0  0  0  0  0  0  0
   -1.2370   26.4270  -29.3110 O   0  0  0  0  0  0  0  0  0  0  0  0
   -0.1710   22.4210  -26.6330 C   0  0  0  0  0  0  0  0  0  0  0  0
   -0.8570   21.3560  -25.8890 N   0  0  0  0  0  0  0  0  0  0  0  0
   -1.5940   20.4730  -26.8060 C   0  0  0  0  0  0  0  0  0  0  0  0
   -2.7430   21.2260  -27.4980 C   0  0  0  0  0  0  0  0  0  0  0  0
   -4.5840   22.7290  -31.8810 C   0  0  0  0  0  0  0  0  0  0  0  0
   -4.8040   21.4600  -32.4220 C   0  0  0  0  0  0  0  0  0  0  0  0
   -5.7430   19.1310  -34.1060 C   0  0  0  0  0  0  0  0  0  0  0  0
   -5.9650   17.8620  -34.6500 C   0  0  0  0  0  0  0  0  0  0  0  0
   -6.1661   14.4001  -33.1064 H   0  0  0  0  0  0  0  0  0  0  0  0
   -6.7337   13.6044  -34.6135 H   0  0  0  0  0  0  0  0  0  0  0  0
   -5.1982   14.5366  -34.6135 H   0  0  0  0  0  0  0  0  0  0  0  0
   -7.8875   16.5219  -32.1614 H   0  0  0  0  0  0  0  0  0  0  0  0
   -7.4842   18.7766  -31.1825 H   0  0  0  0  0  0  0  0  0  0  0  0
   -8.0574   21.0166  -31.4565 H   0  0  0  0  0  0  0  0  0  0  0  0
   -7.6523   23.2718  -30.4749 H   0  0  0  0  0  0  0  0  0  0  0  0
   -4.0816   22.8162  -29.2350 H   0  0  0  0  0  0  0  0  0  0  0  0
    0.1769   24.9213  -27.6556 H   0  0  0  0  0  0  0  0  0  0  0  0
    0.6261   21.9707  -27.2428 H   0  0  0  0  0  0  0  0  0  0  0  0
    0.2394   23.1339  -25.9027 H   0  0  0  0  0  0  0  0  0  0  0  0
   -1.5310   21.7940  -25.2160 H   0  0  0  0  0  0  0  0  0  0  0  0
   -0.9019   20.0922  -27.5715 H   0  0  0  0  0  0  0  0  0  0  0  0
   -2.0214   19.6436  -26.2234 H   0  0  0  0  0  0  0  0  0  0  0  0
   -3.1036   20.6239  -28.3450 H   0  0  0  0  0  0  0  0  0  0  0  0
   -3.5404   21.3862  -26.7574 H   0  0  0  0  0  0  0  0  0  0  0  0
   -3.6047   23.2147  -32.0041 H   0  0  0  0  0  0  0  0  0  0  0  0
   -3.9948   20.9518  -32.9669 H   0  0  0  0  0  0  0  0  0  0  0  0
   -5.1402   19.8650  -34.6609 H   0  0  0  0  0  0  0  0  0  0  0  0
   -5.5318   17.6050  -35.6279 H   0  0  0  0  0  0  0  0  0  0  0  0
  1  2  1  0
  2  3  1  0
  3  4  2  0
  4  5  1  0
  5  6  2  0
  6  7  1  0
  7  8  2  0
  8  9  1  0
  9 10  2  0
 10 11  1  0
 11 12  2  0
 11 13  2  0
 11 14  1  0
 14 15  1  0
 15 16  2  0
 16 17  1  0
 17 18  2  0
 18 19  1  0
 19 20  2  0
 20 21  1  0
 18 22  1  0
 22 23  1  0
 23 24  1  0
 24 25  1  0
 10 26  1  0
 26 27  2  0
  6 28  1  0
 28 29  2  0
 29  3  1  0
 27  7  1  0
 20 15  1  0
 25 17  1  0
  1 30  1  0
  1 31  1  0
  1 32  1  0
  4 33  1  0
  5 34  1  0
  8 35  1  0
  9 36  1  0
 16 37  1  0
 19 38  1  0
 22 39  1  0
 22 40  1  0
 23 41  1  0
 24 42  1  0
 24 43  1  0
 25 44  1  0
 25 45  1  0
 26 46  1  0
 27 47  1  0
 28 48  1  0
 29 49  1  0
M  CHG  2  14  -1  21  -1
M  END
>  <UniqueID>  (39) 
38

>  <SMILES>  (39) 
COc1ccc(-c2ccc(S(=O)(=O)[N-]c3cc4c(cc3[O-])CNCC4)cc2)cc1

>  <Energy>  (39) 
67.14097921708718

>  <Genealogy>  (39) 
COc1ccc(-c2ccc(S(=O)(=O)[N-]c3cc4c(cc3[O-])CNCC4)cc2)cc1 (protonated)
COc1ccc(-c2ccc(S(=O)(=O)[N-]c3cc4c(cc3[O-])CNCC4)cc2)cc1 (3D coordinates assigned)
COc1ccc(-c2ccc(S(=O)(=O)[N-]c3cc4c(cc3[O-])CNCC4)cc2)cc1 (nonaromatic ring conformer: 67.14097921708718 kcal/mol)

>  <smiles>  (39) 
COc1ccc(-c2ccc(S(=O)(=O)Nc3cc4c(cc3O)CNCC4)cc2)cc1

>  <score_type>  (39) 
oracle

>  <origin>  (39) 
adgpu

>  <m_score__min__energy>  (39) 
-14.6

>  <m_primary>  (39) 
energy

$$$$
39:0
     RDKit          3D

 67 71  0  0  0  0  0  0  0  0999 V2000
   -1.0010   18.5960  -27.0950 C   0  0  0  0  0  0  0  0  0  0  0  0
    0.0050   19.4290  -28.3020 S   0  0  0  0  0  0  0  0  0  0  0  0
    1.0200   20.2910  -27.6020 O   0  0  0  0  0  0  0  0  0  0  0  0
    0.7310   18.4120  -29.1410 O   0  0  0  0  0  0  0  0  0  0  0  0
   -1.0220   20.4340  -29.3220 C   0  0  0  0  0  0  0  0  0  0  0  0
   -2.4000   20.5260  -29.0750 C   0  0  0  0  0  0  0  0  0  0  0  0
   -3.2090   21.3380  -29.8770 C   0  0  0  0  0  0  0  0  0  0  0  0
   -2.6500   22.0840  -30.9210 C   0  0  0  0  0  0  0  0  0  0  0  0
   -3.4810   22.9170  -31.6860 O   0  0  0  0  0  0  0  0  0  0  0  0
   -4.8850   22.8370  -31.7090 C   0  0  0  0  0  0  0  0  0  0  0  0
   -5.5210   21.6810  -32.1970 C   0  0  0  0  0  0  0  0  0  0  0  0
   -6.9130   21.5690  -32.1830 C   0  0  0  0  0  0  0  0  0  0  0  0
   -7.6820   20.1210  -32.8280 S   0  0  0  0  0  0  0  0  0  0  0  0
   -7.0280   19.7290  -34.1270 O   0  0  0  0  0  0  0  0  0  0  0  0
   -9.1440   20.3970  -33.0750 O   0  0  0  0  0  0  0  0  0  0  0  0
   -7.4460   18.7720  -31.6700 C   0  0  0  0  0  0  0  0  0  0  0  0
   -6.0230   18.2420  -31.6060 C   0  0  0  0  0  0  0  0  0  0  0  0
   -7.1080   17.4300  -32.2980 C   0  0  0  0  0  0  0  0  0  0  0  0
   -7.6830   22.6250  -31.6760 C   0  0  0  0  0  0  0  0  0  0  0  0
   -7.0650   23.7940  -31.2250 C   0  0  0  0  0  0  0  0  0  0  0  0
   -5.6640   23.9250  -31.2550 C   0  0  0  0  0  0  0  0  0  0  0  0
   -5.0440   25.2120  -30.8560 C   0  0  0  0  0  0  0  0  0  0  0  0
   -5.7190   26.2780  -30.8800 O   0  0  0  0  0  0  0  0  0  0  0  0
   -3.6800   25.2500  -30.4180 N   0  0  0  0  0  0  0  0  0  0  0  0
   -3.1970   24.6130  -29.2310 C   0  0  0  0  0  0  0  0  0  0  0  0
   -4.1080   24.0050  -28.3590 C   0  0  0  0  0  0  0  0  0  0  0  0
   -3.6640   23.4490  -27.1560 C   0  0  0  0  0  0  0  0  0  0  0  0
   -2.3100   23.5100  -26.8070 C   0  0  0  0  0  0  0  0  0  0  0  0
   -1.3870   24.1160  -27.6710 C   0  0  0  0  0  0  0  0  0  0  0  0
    0.3140   24.2600  -27.2040 S   0  0  0  0  0  0  0  0  0  0  0  0
    1.1410   24.5370  -28.4300 O   0  0  0  0  0  0  0  0  0  0  0  0
    0.7720   22.9520  -26.6210 O   0  0  0  0  0  0  0  0  0  0  0  0
    0.5870   25.5260  -26.0290 N   0  0  0  0  0  0  0  0  0  0  0  0
   -0.2980   26.6730  -26.2540 C   0  0  0  0  0  0  0  0  0  0  0  0
   -0.5730   27.2780  -24.8910 C   0  0  0  0  0  0  0  0  0  0  0  0
   -0.5370   26.0900  -23.9580 C   0  0  0  0  0  0  0  0  0  0  0  0
    0.3630   25.0730  -24.6500 C   0  0  0  0  0  0  0  0  0  0  0  0
   -1.8360   24.6710  -28.8780 C   0  0  0  0  0  0  0  0  0  0  0  0
   -1.2750   21.9680  -31.1870 C   0  0  0  0  0  0  0  0  0  0  0  0
   -0.4630   21.1530  -30.3880 C   0  0  0  0  0  0  0  0  0  0  0  0
   -0.6663   18.8732  -26.0845 H   0  0  0  0  0  0  0  0  0  0  0  0
   -2.0523   18.8916  -27.2270 H   0  0  0  0  0  0  0  0  0  0  0  0
   -0.9067   17.5080  -27.2270 H   0  0  0  0  0  0  0  0  0  0  0  0
   -2.8466   19.9567  -28.2465 H   0  0  0  0  0  0  0  0  0  0  0  0
   -4.2910   21.3905  -29.6860 H   0  0  0  0  0  0  0  0  0  0  0  0
   -4.9139   20.8544  -32.5948 H   0  0  0  0  0  0  0  0  0  0  0  0
   -8.1879   19.1184  -30.9355 H   0  0  0  0  0  0  0  0  0  0  0  0
   -5.2305   18.7204  -32.2002 H   0  0  0  0  0  0  0  0  0  0  0  0
   -5.3007   18.0476  -30.7995 H   0  0  0  0  0  0  0  0  0  0  0  0
   -7.1000   17.3213  -33.3926 H   0  0  0  0  0  0  0  0  0  0  0  0
   -7.4952   16.4052  -32.1992 H   0  0  0  0  0  0  0  0  0  0  0  0
   -8.7783   22.5329  -31.6331 H   0  0  0  0  0  0  0  0  0  0  0  0
   -7.6804   24.6214  -30.8421 H   0  0  0  0  0  0  0  0  0  0  0  0
   -5.1755   23.9648  -28.6212 H   0  0  0  0  0  0  0  0  0  0  0  0
   -4.3821   22.9612  -26.4804 H   0  0  0  0  0  0  0  0  0  0  0  0
   -1.9693   23.0816  -25.8529 H   0  0  0  0  0  0  0  0  0  0  0  0
    0.1939   27.4107  -26.9050 H   0  0  0  0  0  0  0  0  0  0  0  0
   -1.2311   26.3647  -26.7482 H   0  0  0  0  0  0  0  0  0  0  0  0
    0.2026   28.0107  -24.6233 H   0  0  0  0  0  0  0  0  0  0  0  0
   -1.5279   27.8226  -24.8511 H   0  0  0  0  0  0  0  0  0  0  0  0
   -0.1176   26.3770  -22.9824 H   0  0  0  0  0  0  0  0  0  0  0  0
   -1.5418   25.6873  -23.7623 H   0  0  0  0  0  0  0  0  0  0  0  0
    1.3241   25.0037  -24.1195 H   0  0  0  0  0  0  0  0  0  0  0  0
   -0.1110   24.0803  -24.6471 H   0  0  0  0  0  0  0  0  0  0  0  0
   -1.1177   25.1562  -29.5552 H   0  0  0  0  0  0  0  0  0  0  0  0
   -0.8332   22.5213  -32.0288 H   0  0  0  0  0  0  0  0  0  0  0  0
    0.6143   21.0770  -30.5971 H   0  0  0  0  0  0  0  0  0  0  0  0
  1  2  1  0
  2  3  2  0
  2  4  2  0
  2  5  1  0
  5  6  2  0
  6  7  1  0
  7  8  2  0
  8  9  1  0
  9 10  1  0
 10 11  2  0
 11 12  1  0
 12 13  1  0
 13 14  2  0
 13 15  2  0
 13 16  1  0
 16 17  1  0
 17 18  1  0
 12 19  2  0
 19 20  1  0
 20 21  2  0
 21 22  1  0
 22 23  2  0
 22 24  1  0
 24 25  1  0
 25 26  2  0
 26 27  1  0
 27 28  2  0
 28 29  1  0
 29 30  1  0
 30 31  2  0
 30 32  2  0
 30 33  1  0
 33 34  1  0
 34 35  1  0
 35 36  1  0
 36 37  1  0
 29 38  2  0
  8 39  1  0
 39 40  2  0
 40  5  1  0
 21 10  1  0
 38 25  1  0
 18 16  1  0
 37 33  1  0
  1 41  1  0
  1 42  1  0
  1 43  1  0
  6 44  1  0
  7 45  1  0
 11 46  1  0
 16 47  1  0
 17 48  1  0
 17 49  1  0
 18 50  1  0
 18 51  1  0
 19 52  1  0
 20 53  1  0
 26 54  1  0
 27 55  1  0
 28 56  1  0
 34 57  1  0
 34 58  1  0
 35 59  1  0
 35 60  1  0
 36 61  1  0
 36 62  1  0
 37 63  1  0
 37 64  1  0
 38 65  1  0
 39 66  1  0
 40 67  1  0
M  CHG  1  24  -1
M  END
>  <UniqueID>  (40) 
39

>  <SMILES>  (40) 
CS(=O)(=O)c1ccc(Oc2cc(S(=O)(=O)C3CC3)ccc2C(=O)[N-]c2cccc(S(=O)(=O)N3CCCC3)c2)cc1

>  <Energy>  (40) 
345.9006076032831

>  <Genealogy>  (40) 
CS(=O)(=O)c1ccc(Oc2cc(S(=O)(=O)C3CC3)ccc2C(=O)[N-]c2cccc(S(=O)(=O)N3CCCC3)c2)cc1 (protonated)
CS(=O)(=O)c1ccc(Oc2cc(S(=O)(=O)C3CC3)ccc2C(=O)[N-]c2cccc(S(=O)(=O)N3CCCC3)c2)cc1 (3D coordinates assigned)
CS(=O)(=O)c1ccc(Oc2cc(S(=O)(=O)C3CC3)ccc2C(=O)[N-]c2cccc(S(=O)(=O)N3CCCC3)c2)cc1 (nonaromatic ring conformer: 345.9006076032831 kcal/mol)

>  <smiles>  (40) 
CS(=O)(=O)c1ccc(Oc2cc(S(=O)(=O)C3CC3)ccc2C(=O)Nc2cccc(S(=O)(=O)N3CCCC3)c2)cc1

>  <score_type>  (40) 
oracle

>  <origin>  (40) 
adgpu

>  <m_score__min__energy>  (40) 
-13.869999999999999

>  <m_primary>  (40) 
energy

$$$$
40:0
     RDKit          3D

 52 55  0  0  0  0  0  0  0  0999 V2000
   -0.4960   24.0920  -25.5540 C   0  0  0  0  0  0  0  0  0  0  0  0
   -1.4090   24.3220  -26.7630 C   0  0  0  0  0  0  0  0  0  0  0  0
   -2.8170   24.7710  -26.3130 C   0  0  0  0  0  0  0  0  0  0  0  0
   -3.8810   24.5550  -27.4070 C   0  0  0  0  0  0  0  0  0  0  0  0
   -3.2490   24.4850  -28.7350 N   0  0  0  0  0  0  0  0  0  0  0  0
   -4.4730   24.4920  -29.9800 S   0  0  0  0  0  0  0  0  0  0  0  0
   -4.2400   25.6440  -30.9190 O   0  0  0  0  0  0  0  0  0  0  0  0
   -5.8360   24.6280  -29.3610 O   0  0  0  0  0  0  0  0  0  0  0  0
   -4.4110   22.9860  -30.8790 C   0  0  0  0  0  0  0  0  0  0  0  0
   -5.5640   22.2310  -31.0730 C   0  0  0  0  0  0  0  0  0  0  0  0
   -5.4900   21.0260  -31.7800 C   0  0  0  0  0  0  0  0  0  0  0  0
   -6.7150   20.2110  -31.9790 C   0  0  0  0  0  0  0  0  0  0  0  0
   -7.9370   20.8320  -32.2940 C   0  0  0  0  0  0  0  0  0  0  0  0
   -9.0930   20.0650  -32.4720 C   0  0  0  0  0  0  0  0  0  0  0  0
   -9.0420   18.6770  -32.3310 C   0  0  0  0  0  0  0  0  0  0  0  0
   -7.8340   18.0510  -32.0110 C   0  0  0  0  0  0  0  0  0  0  0  0
   -6.6760   18.8120  -31.8330 C   0  0  0  0  0  0  0  0  0  0  0  0
   -4.2400   20.6240  -32.2900 C   0  0  0  0  0  0  0  0  0  0  0  0
   -4.1470   19.5740  -32.9860 O   0  0  0  0  0  0  0  0  0  0  0  0
   -3.1310   21.3940  -32.0520 N   0  0  0  0  0  0  0  0  0  0  0  0
   -1.8410   21.0120  -32.5510 C   0  0  0  0  0  0  0  0  0  0  0  0
   -1.5540   21.1740  -33.9150 C   0  0  0  0  0  0  0  0  0  0  0  0
   -0.3040   20.8080  -34.4210 C   0  0  0  0  0  0  0  0  0  0  0  0
    0.6720   20.2880  -33.5680 C   0  0  0  0  0  0  0  0  0  0  0  0
    0.4010   20.1390  -32.2050 C   0  0  0  0  0  0  0  0  0  0  0  0
   -0.8490   20.5010  -31.6890 C   0  0  0  0  0  0  0  0  0  0  0  0
   -1.1330   20.3510  -29.9600 Cl  0  0  0  0  0  0  0  0  0  0  0  0
   -3.2300   22.5420  -31.3760 N   0  0  0  0  0  0  0  0  0  0  0  0
   -2.4200   23.2690  -28.8570 C   0  0  0  0  0  0  0  0  0  0  0  0
   -1.4960   23.0580  -27.6350 C   0  0  0  0  0  0  0  0  0  0  0  0
   -1.0710   24.2368  -24.6275 H   0  0  0  0  0  0  0  0  0  0  0  0
   -0.1002   23.0661  -25.5833 H   0  0  0  0  0  0  0  0  0  0  0  0
    0.3386   24.8080  -25.5833 H   0  0  0  0  0  0  0  0  0  0  0  0
   -0.9691   25.1272  -27.3697 H   0  0  0  0  0  0  0  0  0  0  0  0
   -3.1041   24.1930  -25.4222 H   0  0  0  0  0  0  0  0  0  0  0  0
   -2.7721   25.8487  -26.0974 H   0  0  0  0  0  0  0  0  0  0  0  0
   -4.4160   23.6141  -27.2108 H   0  0  0  0  0  0  0  0  0  0  0  0
   -4.5835   25.4013  -27.3917 H   0  0  0  0  0  0  0  0  0  0  0  0
   -6.5275   22.5796  -30.6729 H   0  0  0  0  0  0  0  0  0  0  0  0
   -7.9838   21.9258  -32.4008 H   0  0  0  0  0  0  0  0  0  0  0  0
  -10.0444   20.5565  -32.7236 H   0  0  0  0  0  0  0  0  0  0  0  0
   -9.9525   18.0760  -32.4717 H   0  0  0  0  0  0  0  0  0  0  0  0
   -7.7950   16.9574  -31.8991 H   0  0  0  0  0  0  0  0  0  0  0  0
   -5.7286   18.3149  -31.5773 H   0  0  0  0  0  0  0  0  0  0  0  0
   -2.3167   21.5911  -34.5891 H   0  0  0  0  0  0  0  0  0  0  0  0
   -0.0884   20.9296  -35.4928 H   0  0  0  0  0  0  0  0  0  0  0  0
    1.6538   19.9958  -33.9688 H   0  0  0  0  0  0  0  0  0  0  0  0
    1.1738   19.7353  -31.5343 H   0  0  0  0  0  0  0  0  0  0  0  0
   -3.0841   22.3972  -28.9520 H   0  0  0  0  0  0  0  0  0  0  0  0
   -1.7800   23.3880  -29.7437 H   0  0  0  0  0  0  0  0  0  0  0  0
   -1.8925   22.2318  -27.0266 H   0  0  0  0  0  0  0  0  0  0  0  0
   -0.4862   22.8260  -28.0045 H   0  0  0  0  0  0  0  0  0  0  0  0
  1  2  1  0
  2  3  1  0
  3  4  1  0
  4  5  1  0
  5  6  1  0
  6  7  2  0
  6  8  2  0
  6  9  1  0
  9 10  1  0
 10 11  2  0
 11 12  1  0
 12 13  2  0
 13 14  1  0
 14 15  2  0
 15 16  1  0
 16 17  2  0
 11 18  1  0
 18 19  2  0
 18 20  1  0
 20 21  1  0
 21 22  2  0
 22 23  1  0
 23 24  2  0
 24 25  1  0
 25 26  2  0
 26 27  1  0
 20 28  1  0
  5 29  1  0
 29 30  1  0
 30  2  1  0
 28  9  2  0
 17 12  1  0
 26 21  1  0
  1 31  1  0
  1 32  1  0
  1 33  1  0
  2 34  1  0
  3 35  1  0
  3 36  1  0
  4 37  1  0
  4 38  1  0
 10 39  1  0
 13 40  1  0
 14 41  1  0
 15 42  1  0
 16 43  1  0
 17 44  1  0
 22 45  1  0
 23 46  1  0
 24 47  1  0
 25 48  1  0
 29 49  1  0
 29 50  1  0
 30 51  1  0
 30 52  1  0
M  END
>  <UniqueID>  (41) 
40

>  <SMILES>  (41) 
CC1CCN(S(=O)(=O)c2cc(-c3ccccc3)c(=O)n(-c3ccccc3Cl)n2)CC1

>  <Energy>  (41) 
71.76053505102291

>  <Genealogy>  (41) 
CC1CCN(S(=O)(=O)c2cc(-c3ccccc3)c(=O)n(-c3ccccc3Cl)n2)CC1 (3D coordinates assigned)
CC1CCN(S(=O)(=O)c2cc(-c3ccccc3)c(=O)n(-c3ccccc3Cl)n2)CC1 (nonaromatic ring conformer: 71.76053505102291 kcal/mol)

>  <smiles>  (41) 
CC1CCN(S(=O)(=O)c2cc(-c3ccccc3)c(=O)n(-c3ccccc3Cl)n2)CC1

>  <score_type>  (41) 
oracle

>  <origin>  (41) 
adgpu

>  <m_score__min__energy>  (41) 
-10.69

>  <m_primary>  (41) 
energy

$$$$
41:0
     RDKit          3D

 44 47  0  0  0  0  0  0  0  0999 V2000
   -8.5340   23.0740  -31.9430 C   0  0  0  0  0  0  0  0  0  0  0  0
   -9.4280   22.0020  -31.3200 C   0  0  0  0  0  0  0  0  0  0  0  0
   -8.6970   20.6690  -31.0940 C   0  0  0  0  0  0  0  0  0  0  0  0
   -8.4470   19.8680  -32.3830 C   0  0  0  0  0  0  0  0  0  0  0  0
   -7.1960   20.2610  -33.0380 N   0  0  0  0  0  0  0  0  0  0  0  0
   -5.9850   19.4940  -32.9460 C   0  0  0  0  0  0  0  0  0  0  0  0
   -4.7100   19.9430  -32.6120 C   0  0  0  0  0  0  0  0  0  0  0  0
   -4.3370   21.2450  -32.0310 C   0  0  0  0  0  0  0  0  0  0  0  0
   -3.0480   21.4170  -31.4600 C   0  0  0  0  0  0  0  0  0  0  0  0
   -2.6800   22.6430  -30.8730 C   0  0  0  0  0  0  0  0  0  0  0  0
   -3.6260   23.6640  -30.8630 C   0  0  0  0  0  0  0  0  0  0  0  0
   -3.4990   24.9020  -30.3580 N   0  0  0  0  0  0  0  0  0  0  0  0
   -4.6550   25.5290  -30.5620 N   0  0  0  0  0  0  0  0  0  0  0  0
   -5.5130   24.6920  -31.1920 C   0  0  0  0  0  0  0  0  0  0  0  0
   -4.8690   23.4960  -31.3920 C   0  0  0  0  0  0  0  0  0  0  0  0
   -5.2750   22.3020  -31.9800 C   0  0  0  0  0  0  0  0  0  0  0  0
   -3.8140   18.9450  -32.8070 N   0  0  0  0  0  0  0  0  0  0  0  0
   -4.5700   17.9160  -33.2470 C   0  0  0  0  0  0  0  0  0  0  0  0
   -4.0960   16.6560  -33.6050 C   0  0  0  0  0  0  0  0  0  0  0  0
   -5.0300   15.7030  -34.0570 C   0  0  0  0  0  0  0  0  0  0  0  0
   -4.5680   14.3460  -34.4950 C   0  0  0  0  0  0  0  0  0  0  0  0
   -6.3950   16.0560  -34.1640 C   0  0  0  0  0  0  0  0  0  0  0  0
   -6.8140   17.3400  -33.7880 C   0  0  0  0  0  0  0  0  0  0  0  0
   -5.8770   18.2130  -33.3340 N   0  0  0  0  0  0  0  0  0  0  0  0
   -8.0488   23.6558  -31.1454 H   0  0  0  0  0  0  0  0  0  0  0  0
   -7.7651   22.5936  -32.5660 H   0  0  0  0  0  0  0  0  0  0  0  0
   -9.1447   23.7441  -32.5660 H   0  0  0  0  0  0  0  0  0  0  0  0
   -9.7936   22.3704  -30.3501 H   0  0  0  0  0  0  0  0  0  0  0  0
  -10.2521   21.8108  -32.0231 H   0  0  0  0  0  0  0  0  0  0  0  0
   -7.7251   20.8823  -30.6250 H   0  0  0  0  0  0  0  0  0  0  0  0
   -9.3478   20.0525  -30.4566 H   0  0  0  0  0  0  0  0  0  0  0  0
   -8.3961   18.7981  -32.1324 H   0  0  0  0  0  0  0  0  0  0  0  0
   -9.2745   20.0742  -33.0778 H   0  0  0  0  0  0  0  0  0  0  0  0
   -7.1350   21.2330  -33.4150 H   0  0  0  0  0  0  0  0  0  0  0  0
   -2.3298   20.5840  -31.4764 H   0  0  0  0  0  0  0  0  0  0  0  0
   -1.6803   22.7886  -30.4378 H   0  0  0  0  0  0  0  0  0  0  0  0
   -6.5448   24.9287  -31.4910 H   0  0  0  0  0  0  0  0  0  0  0  0
   -6.2888   22.1846  -32.3903 H   0  0  0  0  0  0  0  0  0  0  0  0
   -3.0254   16.4126  -33.5369 H   0  0  0  0  0  0  0  0  0  0  0  0
   -4.3573   13.7272  -33.6103 H   0  0  0  0  0  0  0  0  0  0  0  0
   -5.3540   13.8680  -35.0981 H   0  0  0  0  0  0  0  0  0  0  0  0
   -3.6536   14.4469  -35.0981 H   0  0  0  0  0  0  0  0  0  0  0  0
   -7.1259   15.3255  -34.5411 H   0  0  0  0  0  0  0  0  0  0  0  0
   -7.8720   17.6326  -33.8586 H   0  0  0  0  0  0  0  0  0  0  0  0
  1  2  1  0
  2  3  1  0
  3  4  1  0
  4  5  1  0
  5  6  1  0
  6  7  2  0
  7  8  1  0
  8  9  2  0
  9 10  1  0
 10 11  2  0
 11 12  1  0
 12 13  1  0
 13 14  2  0
 14 15  1  0
 15 16  2  0
  7 17  1  0
 17 18  2  0
 18 19  1  0
 19 20  2  0
 20 21  1  0
 20 22  1  0
 22 23  2  0
 23 24  1  0
 24  6  1  0
 16  8  1  0
 24 18  1  0
 15 11  1  0
  1 25  1  0
  1 26  1  0
  1 27  1  0
  2 28  1  0
  2 29  1  0
  3 30  1  0
  3 31  1  0
  4 32  1  0
  4 33  1  0
  5 34  1  0
  9 35  1  0
 10 36  1  0
 14 37  1  0
 16 38  1  0
 19 39  1  0
 21 40  1  0
 21 41  1  0
 21 42  1  0
 22 43  1  0
 23 44  1  0
M  CHG  1  12  -1
M  END
>  <UniqueID>  (42) 
41

>  <SMILES>  (42) 
CCCCNc1c(-c2ccc3[n-]ncc3c2)nc2cc(C)ccn12

>  <Energy>  (42) 
120.49193667310871

>  <Genealogy>  (42) 
CCCCNc1c(-c2ccc3[n-]ncc3c2)nc2cc(C)ccn12 (protonated)
CCCCNc1c(-c2ccc3[n-]ncc3c2)nc2cc(C)ccn12 (3D coordinates assigned)
CCCCNc1c(-c2ccc3[n-]ncc3c2)nc2cc(C)ccn12 (optimized conformer: 120.49193667310871 kcal/mol)

>  <smiles>  (42) 
CCCCNc1c(-c2ccc3[nH]ncc3c2)nc2cc(C)ccn12

>  <score_type>  (42) 
oracle

>  <origin>  (42) 
adgpu

>  <m_score__min__energy>  (42) 
-9.8399999999999999

>  <m_primary>  (42) 
energy

$$$$
42:0
     RDKit          3D

 50 53  0  0  0  0  0  0  0  0999 V2000
    0.5490   20.4770  -29.6670 O   0  0  0  0  0  0  0  0  0  0  0  0
   -0.4270   21.2370  -29.9000 C   0  0  0  0  0  0  0  0  0  0  0  0
   -1.2410   21.7830  -28.7600 C   0  0  0  0  0  0  0  0  0  0  0  0
   -2.2790   22.7170  -29.2490 N   0  0  0  0  0  0  0  0  0  0  0  0
   -2.1050   24.0850  -29.1810 C   0  0  0  0  0  0  0  0  0  0  0  0
   -0.7230   24.7690  -28.6090 S   0  0  0  0  0  0  0  0  0  0  0  0
   -3.0970   24.9220  -29.5730 N   0  0  0  0  0  0  0  0  0  0  0  0
   -4.2800   24.4590  -30.0400 C   0  0  0  0  0  0  0  0  0  0  0  0
   -5.2770   25.3580  -30.4330 C   0  0  0  0  0  0  0  0  0  0  0  0
   -6.4960   24.8810  -30.9230 C   0  0  0  0  0  0  0  0  0  0  0  0
   -6.7250   23.5040  -31.0130 C   0  0  0  0  0  0  0  0  0  0  0  0
   -8.3970   22.8570  -31.6730 Br  0  0  0  0  0  0  0  0  0  0  0  0
   -5.7330   22.6010  -30.6150 C   0  0  0  0  0  0  0  0  0  0  0  0
   -4.5000   23.0750  -30.1290 C   0  0  0  0  0  0  0  0  0  0  0  0
   -3.4710   22.2100  -29.7200 C   0  0  0  0  0  0  0  0  0  0  0  0
   -3.6530   20.9610  -29.7770 O   0  0  0  0  0  0  0  0  0  0  0  0
   -0.6780   21.6710  -31.2390 N   0  0  0  0  0  0  0  0  0  0  0  0
   -1.0440   20.7870  -32.3070 C   0  0  0  0  0  0  0  0  0  0  0  0
   -0.1690   20.5210  -33.3730 C   0  0  0  0  0  0  0  0  0  0  0  0
   -0.5430   19.6360  -34.3860 C   0  0  0  0  0  0  0  0  0  0  0  0
   -1.7950   19.0170  -34.3480 C   0  0  0  0  0  0  0  0  0  0  0  0
   -2.6810   19.2840  -33.2960 C   0  0  0  0  0  0  0  0  0  0  0  0
   -4.2520   18.4900  -33.2320 S   0  0  0  0  0  0  0  0  0  0  0  0
   -4.0540   17.0310  -32.9210 O   0  0  0  0  0  0  0  0  0  0  0  0
   -4.9050   18.6010  -34.5820 O   0  0  0  0  0  0  0  0  0  0  0  0
   -5.2410   19.2650  -32.0060 N   0  0  0  0  0  0  0  0  0  0  0  0
   -6.0480   18.2790  -31.2470 C   0  0  0  0  0  0  0  0  0  0  0  0
   -7.4700   18.1110  -31.8190 C   0  0  0  0  0  0  0  0  0  0  0  0
   -7.4860   18.3800  -33.2030 O   0  0  0  0  0  0  0  0  0  0  0  0
   -7.2370   19.7540  -33.4410 C   0  0  0  0  0  0  0  0  0  0  0  0
   -6.0880   20.3290  -32.5790 C   0  0  0  0  0  0  0  0  0  0  0  0
   -2.3010   20.1720  -32.2790 C   0  0  0  0  0  0  0  0  0  0  0  0
   -1.7272   20.9487  -28.2332 H   0  0  0  0  0  0  0  0  0  0  0  0
   -0.5702   22.3292  -28.0806 H   0  0  0  0  0  0  0  0  0  0  0  0
   -5.1015   26.4412  -30.3564 H   0  0  0  0  0  0  0  0  0  0  0  0
   -7.2763   25.5894  -31.2383 H   0  0  0  0  0  0  0  0  0  0  0  0
   -5.9171   21.5186  -30.6821 H   0  0  0  0  0  0  0  0  0  0  0  0
    0.8147   21.0118  -33.4099 H   0  0  0  0  0  0  0  0  0  0  0  0
    0.1488   19.4258  -35.2150 H   0  0  0  0  0  0  0  0  0  0  0  0
   -2.0859   18.3182  -35.1461 H   0  0  0  0  0  0  0  0  0  0  0  0
   -4.5750   19.7200  -31.3390 H   0  0  0  0  0  0  0  0  0  0  0  0
   -5.5374   17.3053  -31.2806 H   0  0  0  0  0  0  0  0  0  0  0  0
   -6.1452   18.6507  -30.2163 H   0  0  0  0  0  0  0  0  0  0  0  0
   -7.8082   17.0783  -31.6480 H   0  0  0  0  0  0  0  0  0  0  0  0
   -8.1406   18.8212  -31.3131 H   0  0  0  0  0  0  0  0  0  0  0  0
   -6.9749   19.8822  -34.5016 H   0  0  0  0  0  0  0  0  0  0  0  0
   -8.1517   20.3014  -33.1695 H   0  0  0  0  0  0  0  0  0  0  0  0
   -5.4633   20.9799  -33.2084 H   0  0  0  0  0  0  0  0  0  0  0  0
   -6.5363   20.8915  -31.7468 H   0  0  0  0  0  0  0  0  0  0  0  0
   -2.9957   20.3866  -31.4536 H   0  0  0  0  0  0  0  0  0  0  0  0
  1  2  2  0
  2  3  1  0
  3  4  1  0
  4  5  1  0
  5  6  2  0
  5  7  1  0
  7  8  1  0
  8  9  2  0
  9 10  1  0
 10 11  2  0
 11 12  1  0
 11 13  1  0
 13 14  2  0
 14 15  1  0
 15 16  2  0
  2 17  1  0
 17 18  1  0
 18 19  2  0
 19 20  1  0
 20 21  2  0
 21 22  1  0
 22 23  1  0
 23 24  2  0
 23 25  2  0
 23 26  1  0
 26 27  1  0
 27 28  1  0
 28 29  1  0
 29 30  1  0
 30 31  1  0
 22 32  2  0
 15  4  1  0
 32 18  1  0
 14  8  1  0
 31 26  1  0
  3 33  1  0
  3 34  1  0
  9 35  1  0
 10 36  1  0
 13 37  1  0
 19 38  1  0
 20 39  1  0
 21 40  1  0
 26 41  1  0
 27 42  1  0
 27 43  1  0
 28 44  1  0
 28 45  1  0
 30 46  1  0
 30 47  1  0
 31 48  1  0
 31 49  1  0
 32 50  1  0
M  CHG  3   7  -1  17  -1  26   1
M  END
>  <UniqueID>  (43) 
42

>  <SMILES>  (43) 
O=C(Cn1c(=S)[n-]c2ccc(Br)cc2c1=O)[N-]c1cccc(S(=O)(=O)[NH+]2CCOCC2)c1

>  <Energy>  (43) 
76.37754339637245

>  <Genealogy>  (43) 
O=C(Cn1c(=S)[n-]c2ccc(Br)cc2c1=O)[N-]c1cccc(S(=O)(=O)[NH+]2CCOCC2)c1 (protonated)
O=C(Cn1c(=S)[n-]c2ccc(Br)cc2c1=O)[N-]c1cccc(S(=O)(=O)[NH+]2CCOCC2)c1 (3D coordinates assigned)
O=C(Cn1c(=S)[n-]c2ccc(Br)cc2c1=O)[N-]c1cccc(S(=O)(=O)[NH+]2CCOCC2)c1 (nonaromatic ring conformer: 76.37754339637245 kcal/mol)

>  <smiles>  (43) 
O=C(Cn1c(=S)[nH]c2ccc(Br)cc2c1=O)Nc1cccc(S(=O)(=O)N2CCOCC2)c1

>  <score_type>  (43) 
oracle

>  <origin>  (43) 
adgpu

>  <m_score__min__energy>  (43) 
-12.890000000000001

>  <m_primary>  (43) 
energy

$$$$
43:0
     RDKit          3D

 56 59  0  0  0  0  0  0  0  0999 V2000
   -8.0080   18.5610  -32.3850 C   0  0  0  0  0  0  0  0  0  0  0  0
   -6.7060   17.8700  -32.6480 C   0  0  0  0  0  0  0  0  0  0  0  0
   -6.0640   17.4210  -31.7110 O   0  0  0  0  0  0  0  0  0  0  0  0
   -6.1890   17.7060  -34.0520 C   0  0  0  0  0  0  0  0  0  0  0  0
   -5.5240   18.8910  -34.4890 O   0  0  0  0  0  0  0  0  0  0  0  0
   -4.7660   19.7470  -33.6730 C   0  0  0  0  0  0  0  0  0  0  0  0
   -3.3920   19.5500  -33.4340 C   0  0  0  0  0  0  0  0  0  0  0  0
   -2.6880   20.4320  -32.6080 C   0  0  0  0  0  0  0  0  0  0  0  0
   -3.3360   21.5390  -32.0370 C   0  0  0  0  0  0  0  0  0  0  0  0
   -2.6490   22.4180  -31.1340 N   0  0  0  0  0  0  0  0  0  0  0  0
   -3.0810   22.8730  -29.9910 C   0  0  0  0  0  0  0  0  0  0  0  0
   -2.3160   23.7930  -29.3300 N   0  0  0  0  0  0  0  0  0  0  0  0
   -2.7580   24.2610  -28.1410 C   0  0  0  0  0  0  0  0  0  0  0  0
   -3.9120   23.8480  -27.5770 C   0  0  0  0  0  0  0  0  0  0  0  0
   -4.6940   22.9030  -28.2170 C   0  0  0  0  0  0  0  0  0  0  0  0
   -4.2590   22.4230  -29.4220 N   0  0  0  0  0  0  0  0  0  0  0  0
   -4.1040   24.4540  -26.3890 N   0  0  0  0  0  0  0  0  0  0  0  0
   -3.0030   25.2490  -26.2780 C   0  0  0  0  0  0  0  0  0  0  0  0
   -2.1630   25.1440  -27.3360 N   0  0  0  0  0  0  0  0  0  0  0  0
   -0.6590   25.9630  -27.5930 S   0  0  0  0  0  0  0  0  0  0  0  0
   -0.8410   27.0570  -28.6060 O   0  0  0  0  0  0  0  0  0  0  0  0
    0.3080   24.9620  -28.1590 O   0  0  0  0  0  0  0  0  0  0  0  0
   -0.1150   26.6900  -26.0500 C   0  0  0  0  0  0  0  0  0  0  0  0
    0.1580   25.8430  -24.9370 C   0  0  0  0  0  0  0  0  0  0  0  0
    0.0080   24.3420  -25.0040 C   0  0  0  0  0  0  0  0  0  0  0  0
    0.6420   26.3920  -23.7410 C   0  0  0  0  0  0  0  0  0  0  0  0
    0.8190   27.7680  -23.6010 C   0  0  0  0  0  0  0  0  0  0  0  0
    1.3740   28.3320  -22.3250 C   0  0  0  0  0  0  0  0  0  0  0  0
    0.5470   28.6080  -24.6810 C   0  0  0  0  0  0  0  0  0  0  0  0
    0.0720   28.0960  -25.8990 C   0  0  0  0  0  0  0  0  0  0  0  0
   -0.2060   29.0790  -27.0060 C   0  0  0  0  0  0  0  0  0  0  0  0
   -4.7070   21.7160  -32.2510 C   0  0  0  0  0  0  0  0  0  0  0  0
   -5.4130   20.8350  -33.0740 C   0  0  0  0  0  0  0  0  0  0  0  0
   -8.1659   18.6448  -31.2996 H   0  0  0  0  0  0  0  0  0  0  0  0
   -7.9863   19.5663  -32.8311 H   0  0  0  0  0  0  0  0  0  0  0  0
   -8.8283   17.9796  -32.8311 H   0  0  0  0  0  0  0  0  0  0  0  0
   -5.4814   16.8643  -34.0797 H   0  0  0  0  0  0  0  0  0  0  0  0
   -7.0405   17.5125  -34.7209 H   0  0  0  0  0  0  0  0  0  0  0  0
   -2.8711   18.6998  -33.8985 H   0  0  0  0  0  0  0  0  0  0  0  0
   -1.6211   20.2576  -32.4046 H   0  0  0  0  0  0  0  0  0  0  0  0
   -5.6353   22.5490  -27.7713 H   0  0  0  0  0  0  0  0  0  0  0  0
   -4.8310   21.6750  -29.8720 H   0  0  0  0  0  0  0  0  0  0  0  0
   -2.8153   25.9084  -25.4178 H   0  0  0  0  0  0  0  0  0  0  0  0
   -0.0330   23.9317  -23.9842 H   0  0  0  0  0  0  0  0  0  0  0  0
   -0.9198   24.0897  -25.5383 H   0  0  0  0  0  0  0  0  0  0  0  0
    0.8676   23.9111  -25.5383 H   0  0  0  0  0  0  0  0  0  0  0  0
    0.8860   25.7266  -22.8998 H   0  0  0  0  0  0  0  0  0  0  0  0
    0.8913   27.8415  -21.4668 H   0  0  0  0  0  0  0  0  0  0  0  0
    2.4588   28.1539  -22.2867 H   0  0  0  0  0  0  0  0  0  0  0  0
    1.1785   29.4138  -22.2867 H   0  0  0  0  0  0  0  0  0  0  0  0
    0.7076   29.6912  -24.5765 H   0  0  0  0  0  0  0  0  0  0  0  0
   -0.4811   30.0517  -26.5721 H   0  0  0  0  0  0  0  0  0  0  0  0
    0.6943   29.1960  -27.6271 H   0  0  0  0  0  0  0  0  0  0  0  0
   -1.0342   28.7072  -27.6271 H   0  0  0  0  0  0  0  0  0  0  0  0
   -5.2322   22.5535  -31.7686 H   0  0  0  0  0  0  0  0  0  0  0  0
   -6.4861   20.9973  -33.2530 H   0  0  0  0  0  0  0  0  0  0  0  0
  1  2  1  0
  2  3  2  0
  2  4  1  0
  4  5  1  0
  5  6  1  0
  6  7  2  0
  7  8  1  0
  8  9  2  0
  9 10  1  0
 10 11  2  3
 11 12  1  0
 12 13  2  0
 13 14  1  0
 14 15  2  0
 15 16  1  0
 14 17  1  0
 17 18  2  0
 18 19  1  0
 19 20  1  0
 20 21  2  0
 20 22  2  0
 20 23  1  0
 23 24  2  0
 24 25  1  0
 24 26  1  0
 26 27  2  0
 27 28  1  0
 27 29  1  0
 29 30  2  0
 30 31  1  0
  9 32  1  0
 32 33  2  0
 33  6  1  0
 16 11  1  0
 30 23  1  0
 19 13  1  0
  1 34  1  0
  1 35  1  0
  1 36  1  0
  4 37  1  0
  4 38  1  0
  7 39  1  0
  8 40  1  0
 15 41  1  0
 16 42  1  0
 18 43  1  0
 25 44  1  0
 25 45  1  0
 25 46  1  0
 26 47  1  0
 28 48  1  0
 28 49  1  0
 28 50  1  0
 29 51  1  0
 31 52  1  0
 31 53  1  0
 31 54  1  0
 32 55  1  0
 33 56  1  0
M  END
>  <UniqueID>  (44) 
43

>  <SMILES>  (44) 
CC(=O)COc1ccc(N=c2nc3c(c[nH]2)ncn3S(=O)(=O)c2c(C)cc(C)cc2C)cc1

>  <Energy>  (44) 
112.64337589577576

>  <Genealogy>  (44) 
CC(=O)COc1ccc(N=c2nc3c(c[nH]2)ncn3S(=O)(=O)c2c(C)cc(C)cc2C)cc1 (3D coordinates assigned)
CC(=O)COc1ccc(N=c2nc3c(c[nH]2)ncn3S(=O)(=O)c2c(C)cc(C)cc2C)cc1 (optimized conformer: 112.64337589577576 kcal/mol)

>  <smiles>  (44) 
CC(=O)COc1ccc(N=c2nc3c(c[nH]2)ncn3S(=O)(=O)c2c(C)cc(C)cc2C)cc1

>  <score_type>  (44) 
oracle

>  <origin>  (44) 
adgpu

>  <m_score__min__energy>  (44) 
-8.75

>  <m_primary>  (44) 
energy

$$$$
44:0
     RDKit          3D

 59 62  0  0  0  0  0  0  0  0999 V2000
   -5.6160   26.1070  -30.1070 O   0  0  0  0  0  0  0  0  0  0  0  0
   -4.9940   25.0780  -30.4920 C   0  0  0  0  0  0  0  0  0  0  0  0
   -3.5590   25.0750  -30.5040 N   0  0  0  0  0  0  0  0  0  0  0  0
   -2.7310   24.4520  -29.5070 C   0  0  0  0  0  0  0  0  0  0  0  0
   -2.8370   23.0690  -29.3150 C   0  0  0  0  0  0  0  0  0  0  0  0
   -2.1000   22.4300  -28.3060 C   0  0  0  0  0  0  0  0  0  0  0  0
   -2.2670   20.6910  -28.0480 S   0  0  0  0  0  0  0  0  0  0  0  0
   -2.5730   20.0340  -29.3670 O   0  0  0  0  0  0  0  0  0  0  0  0
   -3.4200   20.4340  -27.1170 O   0  0  0  0  0  0  0  0  0  0  0  0
   -0.7760   20.0480  -27.3860 N   0  0  0  0  0  0  0  0  0  0  0  0
    0.3830   20.5170  -28.1810 C   0  0  0  0  0  0  0  0  0  0  0  0
    1.6230   19.6520  -27.9300 C   0  0  0  0  0  0  0  0  0  0  0  0
    1.3740   18.1940  -28.3630 C   0  0  0  0  0  0  0  0  0  0  0  0
   -0.1130   17.8080  -28.3260 C   0  0  0  0  0  0  0  0  0  0  0  0
   -0.8460   18.5710  -27.2120 C   0  0  0  0  0  0  0  0  0  0  0  0
   -1.2330   23.1840  -27.4990 C   0  0  0  0  0  0  0  0  0  0  0  0
   -1.0780   24.5540  -27.7220 C   0  0  0  0  0  0  0  0  0  0  0  0
   -1.8110   25.1900  -28.7290 C   0  0  0  0  0  0  0  0  0  0  0  0
   -1.5970   26.5440  -28.9650 O   0  0  0  0  0  0  0  0  0  0  0  0
   -5.7490   23.8650  -30.8790 C   0  0  0  0  0  0  0  0  0  0  0  0
   -5.3470   23.0860  -31.9790 C   0  0  0  0  0  0  0  0  0  0  0  0
   -6.0670   21.9400  -32.3380 C   0  0  0  0  0  0  0  0  0  0  0  0
   -7.2110   21.5670  -31.6160 C   0  0  0  0  0  0  0  0  0  0  0  0
   -8.1300   20.1270  -32.0710 S   0  0  0  0  0  0  0  0  0  0  0  0
   -9.1820   20.5030  -33.0760 O   0  0  0  0  0  0  0  0  0  0  0  0
   -8.8240   19.5900  -30.8490 O   0  0  0  0  0  0  0  0  0  0  0  0
   -7.1090   18.8830  -32.7540 N   0  0  0  0  0  0  0  0  0  0  0  0
   -6.1240   18.4150  -31.7660 C   0  0  0  0  0  0  0  0  0  0  0  0
   -5.2620   17.2880  -32.3740 C   0  0  0  0  0  0  0  0  0  0  0  0
   -5.4400   17.1640  -33.7750 O   0  0  0  0  0  0  0  0  0  0  0  0
   -5.2930   18.4300  -34.3900 C   0  0  0  0  0  0  0  0  0  0  0  0
   -6.4360   19.3760  -33.9710 C   0  0  0  0  0  0  0  0  0  0  0  0
   -7.6190   22.3470  -30.5260 C   0  0  0  0  0  0  0  0  0  0  0  0
   -6.8880   23.4790  -30.1520 C   0  0  0  0  0  0  0  0  0  0  0  0
   -3.5036   22.4784  -29.9606 H   0  0  0  0  0  0  0  0  0  0  0  0
    0.1256   20.4713  -29.2495 H   0  0  0  0  0  0  0  0  0  0  0  0
    0.6147   21.5487  -27.8779 H   0  0  0  0  0  0  0  0  0  0  0  0
    2.4681   20.0589  -28.5046 H   0  0  0  0  0  0  0  0  0  0  0  0
    1.8483   19.6650  -26.8534 H   0  0  0  0  0  0  0  0  0  0  0  0
    1.7455   18.0640  -29.3902 H   0  0  0  0  0  0  0  0  0  0  0  0
    1.9033   17.5422  -27.6524 H   0  0  0  0  0  0  0  0  0  0  0  0
   -0.5736   18.0529  -29.2944 H   0  0  0  0  0  0  0  0  0  0  0  0
   -0.1929   16.7292  -28.1266 H   0  0  0  0  0  0  0  0  0  0  0  0
   -1.9029   18.2661  -27.2131 H   0  0  0  0  0  0  0  0  0  0  0  0
   -0.3529   18.3246  -26.2601 H   0  0  0  0  0  0  0  0  0  0  0  0
   -0.6739   22.6940  -26.6883 H   0  0  0  0  0  0  0  0  0  0  0  0
   -0.3774   25.1344  -27.1038 H   0  0  0  0  0  0  0  0  0  0  0  0
   -4.4609   23.3791  -32.5612 H   0  0  0  0  0  0  0  0  0  0  0  0
   -5.7342   21.3291  -33.1901 H   0  0  0  0  0  0  0  0  0  0  0  0
   -5.4745   19.2533  -31.4737 H   0  0  0  0  0  0  0  0  0  0  0  0
   -6.6537   18.0284  -30.8828 H   0  0  0  0  0  0  0  0  0  0  0  0
   -4.2030   17.5052  -32.1708 H   0  0  0  0  0  0  0  0  0  0  0  0
   -5.5764   16.3405  -31.9120 H   0  0  0  0  0  0  0  0  0  0  0  0
   -4.3313   18.8693  -34.0865 H   0  0  0  0  0  0  0  0  0  0  0  0
   -5.3253   18.2985  -35.4816 H   0  0  0  0  0  0  0  0  0  0  0  0
   -6.0218   20.3757  -33.7735 H   0  0  0  0  0  0  0  0  0  0  0  0
   -7.1728   19.4193  -34.7866 H   0  0  0  0  0  0  0  0  0  0  0  0
   -8.5202   22.0672  -29.9607 H   0  0  0  0  0  0  0  0  0  0  0  0
   -7.2070   24.0718  -29.2821 H   0  0  0  0  0  0  0  0  0  0  0  0
  1  2  2  0
  2  3  1  0
  3  4  1  0
  4  5  2  0
  5  6  1  0
  6  7  1  0
  7  8  2  0
  7  9  2  0
  7 10  1  0
 10 11  1  0
 11 12  1  0
 12 13  1  0
 13 14  1  0
 14 15  1  0
  6 16  2  0
 16 17  1  0
 17 18  2  0
 18 19  1  0
  2 20  1  0
 20 21  2  0
 21 22  1  0
 22 23  2  0
 23 24  1  0
 24 25  2  0
 24 26  2  0
 24 27  1  0
 27 28  1  0
 28 29  1  0
 29 30  1  0
 30 31  1  0
 31 32  1  0
 23 33  1  0
 33 34  2  0
 18  4  1  0
 34 20  1  0
 15 10  1  0
 32 27  1  0
  5 35  1  0
 11 36  1  0
 11 37  1  0
 12 38  1  0
 12 39  1  0
 13 40  1  0
 13 41  1  0
 14 42  1  0
 14 43  1  0
 15 44  1  0
 15 45  1  0
 16 46  1  0
 17 47  1  0
 21 48  1  0
 22 49  1  0
 28 50  1  0
 28 51  1  0
 29 52  1  0
 29 53  1  0
 31 54  1  0
 31 55  1  0
 32 56  1  0
 32 57  1  0
 33 58  1  0
 34 59  1  0
M  CHG  2   3  -1  19  -1
M  END
>  <UniqueID>  (45) 
44

>  <SMILES>  (45) 
O=C([N-]c1cc(S(=O)(=O)N2CCCCC2)ccc1[O-])c1ccc(S(=O)(=O)N2CCOCC2)cc1

>  <Energy>  (45) 
82.6718433514996

>  <Genealogy>  (45) 
O=C([N-]c1cc(S(=O)(=O)N2CCCCC2)ccc1[O-])c1ccc(S(=O)(=O)N2CCOCC2)cc1 (protonated)
O=C([N-]c1cc(S(=O)(=O)N2CCCCC2)ccc1[O-])c1ccc(S(=O)(=O)N2CCOCC2)cc1 (3D coordinates assigned)
O=C([N-]c1cc(S(=O)(=O)N2CCCCC2)ccc1[O-])c1ccc(S(=O)(=O)N2CCOCC2)cc1 (nonaromatic ring conformer: 82.6718433514996 kcal/mol)

>  <smiles>  (45) 
O=C(Nc1cc(S(=O)(=O)N2CCCCC2)ccc1O)c1ccc(S(=O)(=O)N2CCOCC2)cc1

>  <score_type>  (45) 
oracle

>  <origin>  (45) 
adgpu

>  <m_score__min__energy>  (45) 
-15.51

>  <m_primary>  (45) 
energy

$$$$
45:0
     RDKit          3D

 42 44  0  0  0  0  0  0  0  0999 V2000
   -1.8780   22.2250  -30.6480 O   0  0  0  0  0  0  0  0  0  0  0  0
   -3.0290   22.3960  -29.6960 S   0  0  0  0  0  0  0  0  0  0  0  0
   -3.3470   21.0570  -29.0910 O   0  0  0  0  0  0  0  0  0  0  0  0
   -2.6210   23.5320  -28.4150 C   0  0  0  0  0  0  0  0  0  0  0  0
   -3.6070   24.0230  -27.5470 C   0  0  0  0  0  0  0  0  0  0  0  0
   -3.2620   24.9080  -26.5220 C   0  0  0  0  0  0  0  0  0  0  0  0
   -1.9300   25.3080  -26.3570 C   0  0  0  0  0  0  0  0  0  0  0  0
   -1.4990   26.4160  -25.0670 Cl  0  0  0  0  0  0  0  0  0  0  0  0
   -0.9440   24.8210  -27.2210 C   0  0  0  0  0  0  0  0  0  0  0  0
   -1.2880   23.9370  -28.2480 C   0  0  0  0  0  0  0  0  0  0  0  0
   -4.4290   23.0230  -30.5670 C   0  0  0  0  0  0  0  0  0  0  0  0
   -5.4690   22.1480  -30.9150 C   0  0  0  0  0  0  0  0  0  0  0  0
   -6.6480   22.6390  -31.4890 C   0  0  0  0  0  0  0  0  0  0  0  0
   -8.0060   21.5500  -31.7910 S   0  0  0  0  0  0  0  0  0  0  0  0
   -8.4410   20.9330  -30.4900 O   0  0  0  0  0  0  0  0  0  0  0  0
   -9.1600   22.3400  -32.3430 O   0  0  0  0  0  0  0  0  0  0  0  0
   -7.5700   20.2770  -32.9130 N   0  0  0  0  0  0  0  0  0  0  0  0
   -6.1660   20.4300  -33.3510 C   0  0  0  0  0  0  0  0  0  0  0  0
   -5.5950   19.0900  -33.8440 C   0  0  0  0  0  0  0  0  0  0  0  0
   -5.5880   18.0680  -32.8540 O   0  0  0  0  0  0  0  0  0  0  0  0
   -6.5690   18.2450  -31.8410 C   0  0  0  0  0  0  0  0  0  0  0  0
   -7.8510   18.9350  -32.3460 C   0  0  0  0  0  0  0  0  0  0  0  0
   -6.7660   24.0080  -31.7640 C   0  0  0  0  0  0  0  0  0  0  0  0
   -5.7260   24.8820  -31.4370 C   0  0  0  0  0  0  0  0  0  0  0  0
   -4.5680   24.3980  -30.8220 C   0  0  0  0  0  0  0  0  0  0  0  0
   -3.5670   25.2930  -30.4600 O   0  0  0  0  0  0  0  0  0  0  0  0
   -4.6542   23.7108  -27.6733 H   0  0  0  0  0  0  0  0  0  0  0  0
   -4.0382   25.2913  -25.8434 H   0  0  0  0  0  0  0  0  0  0  0  0
    0.1028   25.1337  -27.0924 H   0  0  0  0  0  0  0  0  0  0  0  0
   -0.5108   23.5576  -28.9277 H   0  0  0  0  0  0  0  0  0  0  0  0
   -5.3574   21.0685  -30.7356 H   0  0  0  0  0  0  0  0  0  0  0  0
   -8.1840   20.4030  -33.7530 H   0  0  0  0  0  0  0  0  0  0  0  0
   -6.1222   21.1631  -34.1700 H   0  0  0  0  0  0  0  0  0  0  0  0
   -5.5666   20.7734  -32.4950 H   0  0  0  0  0  0  0  0  0  0  0  0
   -6.2034   18.7456  -34.6933 H   0  0  0  0  0  0  0  0  0  0  0  0
   -4.5466   19.2724  -34.1226 H   0  0  0  0  0  0  0  0  0  0  0  0
   -6.8393   17.2568  -31.4406 H   0  0  0  0  0  0  0  0  0  0  0  0
   -6.1291   18.8981  -31.0729 H   0  0  0  0  0  0  0  0  0  0  0  0
   -8.3088   18.3083  -33.1255 H   0  0  0  0  0  0  0  0  0  0  0  0
   -8.5299   19.0618  -31.4899 H   0  0  0  0  0  0  0  0  0  0  0  0
   -7.6796   24.3955  -32.2385 H   0  0  0  0  0  0  0  0  0  0  0  0
   -5.8189   25.9542  -31.6643 H   0  0  0  0  0  0  0  0  0  0  0  0
  1  2  2  0
  2  3  2  0
  2  4  1  0
  4  5  2  0
  5  6  1  0
  6  7  2  0
  7  8  1  0
  7  9  1  0
  9 10  2  0
  2 11  1  0
 11 12  2  0
 12 13  1  0
 13 14  1  0
 14 15  2  0
 14 16  2  0
 14 17  1  0
 17 18  1  0
 18 19  1  0
 19 20  1  0
 20 21  1  0
 21 22  1  0
 13 23  2  0
 23 24  1  0
 24 25  2  0
 25 26  1  0
 10  4  1  0
 25 11  1  0
 22 17  1  0
  5 27  1  0
  6 28  1  0
  9 29  1  0
 10 30  1  0
 12 31  1  0
 17 32  1  0
 18 33  1  0
 18 34  1  0
 19 35  1  0
 19 36  1  0
 21 37  1  0
 21 38  1  0
 22 39  1  0
 22 40  1  0
 23 41  1  0
 24 42  1  0
M  CHG  2  17   1  26  -1
M  END
>  <UniqueID>  (46) 
45

>  <SMILES>  (46) 
O=S(=O)(c1ccc(Cl)cc1)c1cc(S(=O)(=O)[NH+]2CCOCC2)ccc1[O-]

>  <Energy>  (46) 
56.82709907705331

>  <Genealogy>  (46) 
O=S(=O)(c1ccc(Cl)cc1)c1cc(S(=O)(=O)[NH+]2CCOCC2)ccc1[O-] (protonated)
O=S(=O)(c1ccc(Cl)cc1)c1cc(S(=O)(=O)[NH+]2CCOCC2)ccc1[O-] (3D coordinates assigned)
O=S(=O)(c1ccc(Cl)cc1)c1cc(S(=O)(=O)[NH+]2CCOCC2)ccc1[O-] (nonaromatic ring conformer: 56.82709907705331 kcal/mol)

>  <smiles>  (46) 
O=S(=O)(c1ccc(Cl)cc1)c1cc(S(=O)(=O)N2CCOCC2)ccc1O

>  <score_type>  (46) 
oracle

>  <origin>  (46) 
adgpu

>  <m_score__min__energy>  (46) 
-11.56

>  <m_primary>  (46) 
energy

$$$$
46:0
     RDKit          3D

 51 54  0  0  0  0  0  0  0  0999 V2000
   -5.5160   26.0430  -31.1350 O   0  0  0  0  0  0  0  0  0  0  0  0
   -5.1720   24.7820  -30.3890 S   0  0  0  0  0  0  0  0  0  0  0  0
   -5.5260   24.9490  -28.9400 O   0  0  0  0  0  0  0  0  0  0  0  0
   -3.4650   24.4830  -30.5300 N   0  0  0  0  0  0  0  0  0  0  0  0
   -2.7370   23.6240  -29.6390 C   0  0  0  0  0  0  0  0  0  0  0  0
   -3.1250   22.2890  -29.4480 C   0  0  0  0  0  0  0  0  0  0  0  0
   -2.5320   21.5090  -28.4510 C   0  0  0  0  0  0  0  0  0  0  0  0
   -1.5170   22.0560  -27.6490 C   0  0  0  0  0  0  0  0  0  0  0  0
   -1.0580   23.3510  -27.9120 C   0  0  0  0  0  0  0  0  0  0  0  0
   -1.6650   24.1380  -28.8960 C   0  0  0  0  0  0  0  0  0  0  0  0
   -1.2050   25.4400  -29.0980 O   0  0  0  0  0  0  0  0  0  0  0  0
   -0.8920   21.2380  -26.5460 C   0  0  0  0  0  0  0  0  0  0  0  0
   -1.8430   20.1380  -26.0470 C   0  0  0  0  0  0  0  0  0  0  0  0
   -2.3610   19.3060  -27.2230 C   0  0  0  0  0  0  0  0  0  0  0  0
   -3.0070   20.1760  -28.2020 N   0  0  0  0  0  0  0  0  0  0  0  0
   -6.0720   23.4140  -31.0400 C   0  0  0  0  0  0  0  0  0  0  0  0
   -5.4790   22.5350  -31.9550 C   0  0  0  0  0  0  0  0  0  0  0  0
   -6.1280   21.3510  -32.3140 C   0  0  0  0  0  0  0  0  0  0  0  0
   -7.3810   21.0390  -31.7690 C   0  0  0  0  0  0  0  0  0  0  0  0
   -8.1500   19.4930  -32.1340 S   0  0  0  0  0  0  0  0  0  0  0  0
   -8.7640   18.9440  -30.8750 O   0  0  0  0  0  0  0  0  0  0  0  0
   -9.2540   19.7210  -33.1260 O   0  0  0  0  0  0  0  0  0  0  0  0
   -7.0410   18.3160  -32.7890 N   0  0  0  0  0  0  0  0  0  0  0  0
   -5.9440   18.0300  -31.8710 C   0  0  0  0  0  0  0  0  0  0  0  0
   -4.8120   17.4960  -32.7320 C   0  0  0  0  0  0  0  0  0  0  0  0
   -5.1040   18.0080  -34.1390 C   0  0  0  0  0  0  0  0  0  0  0  0
   -6.4010   18.7840  -34.0170 C   0  0  0  0  0  0  0  0  0  0  0  0
   -7.9900   21.9380  -30.8830 C   0  0  0  0  0  0  0  0  0  0  0  0
   -7.3420   23.1210  -30.5270 C   0  0  0  0  0  0  0  0  0  0  0  0
   -3.9041   21.8517  -30.0897 H   0  0  0  0  0  0  0  0  0  0  0  0
   -0.2105   23.7547  -27.3387 H   0  0  0  0  0  0  0  0  0  0  0  0
   -1.6210   26.0660  -29.7800 H   0  0  0  0  0  0  0  0  0  0  0  0
    0.0273   20.7691  -26.9267 H   0  0  0  0  0  0  0  0  0  0  0  0
   -0.6713   21.9095  -25.7032 H   0  0  0  0  0  0  0  0  0  0  0  0
   -1.3031   19.4816  -25.3487 H   0  0  0  0  0  0  0  0  0  0  0  0
   -2.6978   20.6088  -25.5393 H   0  0  0  0  0  0  0  0  0  0  0  0
   -1.5182   18.7838  -27.6994 H   0  0  0  0  0  0  0  0  0  0  0  0
   -3.0922   18.5723  -26.8528 H   0  0  0  0  0  0  0  0  0  0  0  0
   -3.8260   19.8030  -28.7340 H   0  0  0  0  0  0  0  0  0  0  0  0
   -4.4993   22.7776  -32.3923 H   0  0  0  0  0  0  0  0  0  0  0  0
   -5.6537   20.6609  -33.0273 H   0  0  0  0  0  0  0  0  0  0  0  0
   -5.6302   18.9475  -31.3516 H   0  0  0  0  0  0  0  0  0  0  0  0
   -6.2412   17.3057  -31.0983 H   0  0  0  0  0  0  0  0  0  0  0  0
   -3.8436   17.8774  -32.3760 H   0  0  0  0  0  0  0  0  0  0  0  0
   -4.7523   16.3981  -32.6981 H   0  0  0  0  0  0  0  0  0  0  0  0
   -4.2928   18.6644  -34.4870 H   0  0  0  0  0  0  0  0  0  0  0  0
   -5.1821   17.1877  -34.8677 H   0  0  0  0  0  0  0  0  0  0  0  0
   -6.1956   19.8628  -33.9529 H   0  0  0  0  0  0  0  0  0  0  0  0
   -7.0478   18.6248  -34.8924 H   0  0  0  0  0  0  0  0  0  0  0  0
   -8.9824   21.7100  -30.4668 H   0  0  0  0  0  0  0  0  0  0  0  0
   -7.8309   23.8273  -29.8399 H   0  0  0  0  0  0  0  0  0  0  0  0
  1  2  2  0
  2  3  2  0
  2  4  1  0
  4  5  1  0
  5  6  2  0
  6  7  1  0
  7  8  2  0
  8  9  1  0
  9 10  2  0
 10 11  1  0
  8 12  1  0
 12 13  1  0
 13 14  1  0
 14 15  1  0
  2 16  1  0
 16 17  2  0
 17 18  1  0
 18 19  2  0
 19 20  1  0
 20 21  2  0
 20 22  2  0
 20 23  1  0
 23 24  1  0
 24 25  1  0
 25 26  1  0
 26 27  1  0
 19 28  1  0
 28 29  2  0
 10  5  1  0
 29 16  1  0
 15  7  1  0
 27 23  1  0
  6 30  1  0
  9 31  1  0
 11 32  1  0
 12 33  1  0
 12 34  1  0
 13 35  1  0
 13 36  1  0
 14 37  1  0
 14 38  1  0
 15 39  1  0
 17 40  1  0
 18 41  1  0
 24 42  1  0
 24 43  1  0
 25 44  1  0
 25 45  1  0
 26 46  1  0
 26 47  1  0
 27 48  1  0
 27 49  1  0
 28 50  1  0
 29 51  1  0
M  CHG  1   4  -1
M  END
>  <UniqueID>  (47) 
46

>  <SMILES>  (47) 
O=S(=O)([N-]c1cc2c(cc1O)CCCN2)c1ccc(S(=O)(=O)N2CCCC2)cc1

>  <Energy>  (47) 
58.48111796344377

>  <Genealogy>  (47) 
O=S(=O)([N-]c1cc2c(cc1O)CCCN2)c1ccc(S(=O)(=O)N2CCCC2)cc1 (protonated)
O=S(=O)([N-]c1cc2c(cc1O)CCCN2)c1ccc(S(=O)(=O)N2CCCC2)cc1 (3D coordinates assigned)
O=S(=O)([N-]c1cc2c(cc1O)CCCN2)c1ccc(S(=O)(=O)N2CCCC2)cc1 (nonaromatic ring conformer: 58.48111796344377 kcal/mol)

>  <smiles>  (47) 
O=S(=O)(Nc1cc2c(cc1O)CCCN2)c1ccc(S(=O)(=O)N2CCCC2)cc1

>  <score_type>  (47) 
oracle

>  <origin>  (47) 
adgpu

>  <m_score__min__energy>  (47) 
-13.59

>  <m_primary>  (47) 
energy

$$$$
47:0
     RDKit          3D

 55 58  0  0  0  0  0  0  0  0999 V2000
   -1.0590   23.3358  -29.2148 H   0  0  0  0  0  0  0  0  0  0  0  0
   -1.8600   22.8160  -29.7610 C   0  0  0  0  0  0  0  0  0  0  0  0
   -1.6830   21.5260  -30.0830 C   0  0  0  0  0  0  0  0  0  0  0  0
   -2.4595   21.0183  -30.6740 H   0  0  0  0  0  0  0  0  0  0  0  0
   -0.4840   20.7570  -29.6750 C   0  0  0  0  0  0  0  0  0  0  0  0
   -0.1230   20.7340  -28.3180 C   0  0  0  0  0  0  0  0  0  0  0  0
   -0.7383   21.2697  -27.5802 H   0  0  0  0  0  0  0  0  0  0  0  0
    1.0130   20.0350  -27.8980 C   0  0  0  0  0  0  0  0  0  0  0  0
    1.2979   20.0399  -26.8355 H   0  0  0  0  0  0  0  0  0  0  0  0
    1.7890   19.3290  -28.8250 C   0  0  0  0  0  0  0  0  0  0  0  0
    3.2370   18.4730  -28.3120 S   0  0  0  0  0  0  0  0  0  0  0  0
    4.0280   19.3410  -27.3740 O   0  0  0  0  0  0  0  0  0  0  0  0
    4.1030   18.1540  -29.4970 O   0  0  0  0  0  0  0  0  0  0  0  0
    2.7660   16.9820  -27.5050 C   0  0  0  0  0  0  0  0  0  0  0  0
    1.4920   16.4350  -27.7220 C   0  0  0  0  0  0  0  0  0  0  0  0
    0.7799   16.9479  -28.3852 H   0  0  0  0  0  0  0  0  0  0  0  0
    1.1260   15.2380  -27.0960 C   0  0  0  0  0  0  0  0  0  0  0  0
    0.1248   14.8141  -27.2629 H   0  0  0  0  0  0  0  0  0  0  0  0
    2.0320   14.5810  -26.2590 C   0  0  0  0  0  0  0  0  0  0  0  0
    1.7430   13.6411  -25.7659 H   0  0  0  0  0  0  0  0  0  0  0  0
    3.3060   15.1180  -26.0480 C   0  0  0  0  0  0  0  0  0  0  0  0
    4.0198   14.5981  -25.3921 H   0  0  0  0  0  0  0  0  0  0  0  0
    3.6730   16.3150  -26.6700 C   0  0  0  0  0  0  0  0  0  0  0  0
    4.6762   16.7345  -26.5037 H   0  0  0  0  0  0  0  0  0  0  0  0
    1.4270   19.3330  -30.1790 C   0  0  0  0  0  0  0  0  0  0  0  0
    2.0349   18.7809  -30.9109 H   0  0  0  0  0  0  0  0  0  0  0  0
    0.2950   20.0370  -30.6020 C   0  0  0  0  0  0  0  0  0  0  0  0
    0.0113   20.0285  -31.6647 H   0  0  0  0  0  0  0  0  0  0  0  0
   -3.0790   23.5680  -30.1060 C   0  0  0  0  0  0  0  0  0  0  0  0
   -3.1100   24.9120  -30.1830 N   0  0  0  0  0  0  0  0  0  0  0  0
   -4.3460   25.2840  -30.4850 N   0  0  0  0  0  0  0  0  0  0  0  0
   -5.1090   24.1790  -30.5900 C   0  0  0  0  0  0  0  0  0  0  0  0
   -6.5340   24.1650  -30.9760 C   0  0  0  0  0  0  0  0  0  0  0  0
   -7.3560   24.6340  -30.1420 O   0  0  0  0  0  0  0  0  0  0  0  0
   -7.0410   23.6590  -32.2490 N   0  0  0  0  0  0  0  0  0  0  0  0
   -6.8230   24.3990  -32.9580 H   0  0  0  0  0  0  0  0  0  0  0  0
   -8.5040   23.4220  -32.3270 C   0  0  0  0  0  0  0  0  0  0  0  0
   -8.7846   23.2957  -33.3831 H   0  0  0  0  0  0  0  0  0  0  0  0
   -9.0066   24.2896  -31.8745 H   0  0  0  0  0  0  0  0  0  0  0  0
   -8.9440   22.1680  -31.5460 C   0  0  0  0  0  0  0  0  0  0  0  0
  -10.0180   21.9964  -31.7105 H   0  0  0  0  0  0  0  0  0  0  0  0
   -8.7471   22.3261  -30.4754 H   0  0  0  0  0  0  0  0  0  0  0  0
   -8.1880   20.9890  -32.0030 N   0  0  0  0  0  0  0  0  0  0  0  0
   -8.6000   19.7990  -31.2460 C   0  0  0  0  0  0  0  0  0  0  0  0
   -8.5280   20.0069  -30.1682 H   0  0  0  0  0  0  0  0  0  0  0  0
   -9.6389   19.5434  -31.5015 H   0  0  0  0  0  0  0  0  0  0  0  0
   -7.9415   18.9557  -31.5015 H   0  0  0  0  0  0  0  0  0  0  0  0
   -6.7420   21.2170  -31.8360 C   0  0  0  0  0  0  0  0  0  0  0  0
   -6.1905   20.3302  -32.1816 H   0  0  0  0  0  0  0  0  0  0  0  0
   -6.5241   21.3991  -30.7733 H   0  0  0  0  0  0  0  0  0  0  0  0
   -6.3080   22.4390  -32.6580 C   0  0  0  0  0  0  0  0  0  0  0  0
   -6.5071   22.2427  -33.7219 H   0  0  0  0  0  0  0  0  0  0  0  0
   -5.2350   22.6075  -32.4839 H   0  0  0  0  0  0  0  0  0  0  0  0
   -4.3370   23.0580  -30.3710 C   0  0  0  0  0  0  0  0  0  0  0  0
   -4.6489   22.0035  -30.4002 H   0  0  0  0  0  0  0  0  0  0  0  0
  1  2  1  0
  2  3  2  0
  3  4  1  0
  3  5  1  0
  5  6  2  0
  6  7  1  0
  6  8  1  0
  8  9  1  0
  8 10  2  0
 10 11  1  0
 11 12  2  0
 11 13  2  0
 11 14  1  0
 14 15  2  0
 15 16  1  0
 15 17  1  0
 17 18  1  0
 17 19  2  0
 19 20  1  0
 19 21  1  0
 21 22  1  0
 21 23  2  0
 23 24  1  0
 10 25  1  0
 25 26  1  0
 25 27  2  0
 27 28  1  0
  2 29  1  0
 29 30  1  0
 30 31  1  0
 31 32  2  0
 32 33  1  0
 33 34  2  0
 33 35  1  0
 35 36  1  0
 35 37  1  0
 37 38  1  0
 37 39  1  0
 37 40  1  0
 40 41  1  0
 40 42  1  0
 40 43  1  0
 43 44  1  0
 44 45  1  0
 44 46  1  0
 44 47  1  0
 43 48  1  0
 48 49  1  0
 48 50  1  0
 48 51  1  0
 51 52  1  0
 51 53  1  0
 32 54  1  0
 54 55  1  0
 27  5  1  0
 54 29  2  0
 23 14  1  0
 51 35  1  0
M  CHG  2  30  -1  35   1
M  END
>  <UniqueID>  (48) 
47

>  <SMILES>  (48) 
CN1CC[NH+](C(=O)c2cc(/C=C/c3ccc(S(=O)(=O)c4ccccc4)cc3)[n-]n2)CC1

>  <Energy>  (48) 
105.0993843431563

>  <Genealogy>  (48) 
CN1CC[NH+](C(=O)c2cc(C=Cc3ccc(S(=O)(=O)c4ccccc4)cc3)[n-]n2)CC1 (protonated)
CN1CC[NH+](C(=O)c2cc(/C=C/c3ccc(S(=O)(=O)c4ccccc4)cc3)[n-]n2)CC1 (cis-trans isomerization)
CN1CC[NH+](C(=O)c2cc(/C=C/c3ccc(S(=O)(=O)c4ccccc4)cc3)[n-]n2)CC1 (3D coordinates assigned)
CN1CC[NH+](C(=O)c2cc(/C=C/c3ccc(S(=O)(=O)c4ccccc4)cc3)[n-]n2)CC1 (nonaromatic ring conformer: 105.0993843431563 kcal/mol)

>  <smiles>  (48) 
CN1CCN(C(=O)c2cc(C=Cc3ccc(S(=O)(=O)c4ccccc4)cc3)[nH]n2)CC1

>  <score_type>  (48) 
oracle

>  <origin>  (48) 
adgpu

>  <m_score__min__energy>  (48) 
-11.73

>  <m_primary>  (48) 
energy

$$$$
48:0
     RDKit          3D

 45 47  0  0  0  0  0  0  0  0999 V2000
   -6.7250   24.4870  -31.9950 O   0  0  0  0  0  0  0  0  0  0  0  0
   -5.8580   23.5480  -31.2040 S   0  0  0  0  0  0  0  0  0  0  0  0
   -6.4020   23.4400  -29.8070 O   0  0  0  0  0  0  0  0  0  0  0  0
   -4.2400   24.1780  -31.1470 N   0  0  0  0  0  0  0  0  0  0  0  0
   -3.9160   24.5910  -29.7840 C   0  0  0  0  0  0  0  0  0  0  0  0
   -2.6250   23.9420  -29.3680 C   0  0  0  0  0  0  0  0  0  0  0  0
   -2.5260   22.5410  -29.3290 C   0  0  0  0  0  0  0  0  0  0  0  0
   -1.3420   21.9280  -28.9130 C   0  0  0  0  0  0  0  0  0  0  0  0
   -0.2510   22.7050  -28.5200 C   0  0  0  0  0  0  0  0  0  0  0  0
   -0.3370   24.1010  -28.5340 C   0  0  0  0  0  0  0  0  0  0  0  0
    0.7640   24.8530  -28.1280 O   0  0  0  0  0  0  0  0  0  0  0  0
   -1.5280   24.7230  -28.9540 C   0  0  0  0  0  0  0  0  0  0  0  0
   -1.6180   26.1130  -28.9580 O   0  0  0  0  0  0  0  0  0  0  0  0
   -5.8630   21.9700  -31.9880 C   0  0  0  0  0  0  0  0  0  0  0  0
   -7.0650   21.2650  -32.1230 C   0  0  0  0  0  0  0  0  0  0  0  0
   -7.0820   20.0140  -32.7460 C   0  0  0  0  0  0  0  0  0  0  0  0
   -5.8960   19.4600  -33.2450 C   0  0  0  0  0  0  0  0  0  0  0  0
   -5.9160   17.8740  -34.0100 S   0  0  0  0  0  0  0  0  0  0  0  0
   -5.6290   18.0180  -35.4790 O   0  0  0  0  0  0  0  0  0  0  0  0
   -7.2810   17.2640  -33.8480 O   0  0  0  0  0  0  0  0  0  0  0  0
   -4.7270   16.8480  -33.2500 N   0  0  0  0  0  0  0  0  0  0  0  0
   -4.1310   15.9220  -34.2110 C   0  0  0  0  0  0  0  0  0  0  0  0
   -3.6730   14.7110  -33.4170 C   0  0  0  0  0  0  0  0  0  0  0  0
   -4.4880   14.7420  -32.1340 C   0  0  0  0  0  0  0  0  0  0  0  0
   -5.3320   16.0070  -32.2180 C   0  0  0  0  0  0  0  0  0  0  0  0
   -4.6900   20.1600  -33.0990 C   0  0  0  0  0  0  0  0  0  0  0  0
   -4.6740   21.4110  -32.4740 C   0  0  0  0  0  0  0  0  0  0  0  0
   -3.8074   25.6850  -29.7464 H   0  0  0  0  0  0  0  0  0  0  0  0
   -4.7223   24.2839  -29.1017 H   0  0  0  0  0  0  0  0  0  0  0  0
   -3.3859   21.9235  -29.6278 H   0  0  0  0  0  0  0  0  0  0  0  0
   -1.2691   20.8306  -28.8950 H   0  0  0  0  0  0  0  0  0  0  0  0
    0.6808   22.2172  -28.1978 H   0  0  0  0  0  0  0  0  0  0  0  0
    0.7780   25.8630  -28.1860 H   0  0  0  0  0  0  0  0  0  0  0  0
   -7.9999   21.6975  -31.7371 H   0  0  0  0  0  0  0  0  0  0  0  0
   -8.0290   19.4631  -32.8447 H   0  0  0  0  0  0  0  0  0  0  0  0
   -4.8760   15.6235  -34.9632 H   0  0  0  0  0  0  0  0  0  0  0  0
   -3.2898   16.3892  -34.7440 H   0  0  0  0  0  0  0  0  0  0  0  0
   -3.8711   13.7853  -33.9772 H   0  0  0  0  0  0  0  0  0  0  0  0
   -2.5916   14.7363  -33.2171 H   0  0  0  0  0  0  0  0  0  0  0  0
   -5.1329   13.8534  -32.0668 H   0  0  0  0  0  0  0  0  0  0  0  0
   -3.8445   14.7394  -31.2418 H   0  0  0  0  0  0  0  0  0  0  0  0
   -6.3668   15.7548  -32.4930 H   0  0  0  0  0  0  0  0  0  0  0  0
   -5.3612   16.5282  -31.2497 H   0  0  0  0  0  0  0  0  0  0  0  0
   -3.7536   19.7239  -33.4772 H   0  0  0  0  0  0  0  0  0  0  0  0
   -3.7256   21.9573  -32.3638 H   0  0  0  0  0  0  0  0  0  0  0  0
  1  2  2  0
  2  3  2  0
  2  4  1  0
  4  5  1  0
  5  6  1  0
  6  7  2  0
  7  8  1  0
  8  9  2  0
  9 10  1  0
 10 11  1  0
 10 12  2  0
 12 13  1  0
  2 14  1  0
 14 15  2  0
 15 16  1  0
 16 17  2  0
 17 18  1  0
 18 19  2  0
 18 20  2  0
 18 21  1  0
 21 22  1  0
 22 23  1  0
 23 24  1  0
 24 25  1  0
 17 26  1  0
 26 27  2  0
 12  6  1  0
 27 14  1  0
 25 21  1  0
  5 28  1  0
  5 29  1  0
  7 30  1  0
  8 31  1  0
  9 32  1  0
 11 33  1  0
 15 34  1  0
 16 35  1  0
 22 36  1  0
 22 37  1  0
 23 38  1  0
 23 39  1  0
 24 40  1  0
 24 41  1  0
 25 42  1  0
 25 43  1  0
 26 44  1  0
 27 45  1  0
M  CHG  2   4  -1  13  -1
M  END
>  <UniqueID>  (49) 
48

>  <SMILES>  (49) 
O=S(=O)([N-]Cc1cccc(O)c1[O-])c1ccc(S(=O)(=O)N2CCCC2)cc1

>  <Energy>  (49) 
45.00788453685203

>  <Genealogy>  (49) 
O=S(=O)([N-]Cc1cccc(O)c1[O-])c1ccc(S(=O)(=O)N2CCCC2)cc1 (protonated)
O=S(=O)([N-]Cc1cccc(O)c1[O-])c1ccc(S(=O)(=O)N2CCCC2)cc1 (3D coordinates assigned)
O=S(=O)([N-]Cc1cccc(O)c1[O-])c1ccc(S(=O)(=O)N2CCCC2)cc1 (nonaromatic ring conformer: 45.00788453685203 kcal/mol)

>  <smiles>  (49) 
O=S(=O)(NCc1cccc(O)c1O)c1ccc(S(=O)(=O)N2CCCC2)cc1

>  <score_type>  (49) 
oracle

>  <origin>  (49) 
adgpu

>  <m_score__min__energy>  (49) 
-13.77

>  <m_primary>  (49) 
energy

$$$$
49:0
     RDKit          3D

 72 76  0  0  0  0  0  0  0  0999 V2000
   -5.7490   18.2660  -35.0190 C   0  0  0  0  0  0  0  0  0  0  0  0
   -5.4810   18.8090  -33.6850 N   0  0  0  0  0  0  0  0  0  0  0  0
   -4.2090   19.4250  -33.4000 C   0  0  0  0  0  0  0  0  0  0  0  0
   -4.0810   20.8240  -33.3750 C   0  0  0  0  0  0  0  0  0  0  0  0
   -2.8550   21.4170  -33.0590 C   0  0  0  0  0  0  0  0  0  0  0  0
   -1.7490   20.6230  -32.7260 C   0  0  0  0  0  0  0  0  0  0  0  0
   -0.4670   21.2560  -32.3720 C   0  0  0  0  0  0  0  0  0  0  0  0
    0.3560   21.5280  -33.2880 O   0  0  0  0  0  0  0  0  0  0  0  0
   -0.1370   21.5940  -31.0200 N   0  0  0  0  0  0  0  0  0  0  0  0
    0.0140   20.6190  -29.9450 C   0  0  0  0  0  0  0  0  0  0  0  0
   -0.8920   20.9810  -28.8140 C   0  0  0  0  0  0  0  0  0  0  0  0
   -2.2370   20.6820  -28.7240 C   0  0  0  0  0  0  0  0  0  0  0  0
   -2.6500   21.1960  -27.5130 C   0  0  0  0  0  0  0  0  0  0  0  0
   -1.5340   21.7700  -26.9400 C   0  0  0  0  0  0  0  0  0  0  0  0
   -0.5000   21.6240  -27.7390 O   0  0  0  0  0  0  0  0  0  0  0  0
   -1.8700   19.2270  -32.7510 C   0  0  0  0  0  0  0  0  0  0  0  0
   -3.0910   18.6320  -33.0860 C   0  0  0  0  0  0  0  0  0  0  0  0
   -6.7320   18.7090  -32.4790 S   0  0  0  0  0  0  0  0  0  0  0  0
   -7.9170   17.9740  -33.0420 O   0  0  0  0  0  0  0  0  0  0  0  0
   -6.2280   17.9560  -31.2790 O   0  0  0  0  0  0  0  0  0  0  0  0
   -7.2300   20.3230  -31.9610 C   0  0  0  0  0  0  0  0  0  0  0  0
   -8.4660   20.8410  -32.3740 C   0  0  0  0  0  0  0  0  0  0  0  0
   -8.8620   22.1200  -31.9760 C   0  0  0  0  0  0  0  0  0  0  0  0
   -8.0450   22.8760  -31.1320 C   0  0  0  0  0  0  0  0  0  0  0  0
   -6.8240   22.3520  -30.6710 C   0  0  0  0  0  0  0  0  0  0  0  0
   -5.9750   23.1040  -29.7860 N   0  0  0  0  0  0  0  0  0  0  0  0
   -4.6090   23.4390  -30.0820 C   0  0  0  0  0  0  0  0  0  0  0  0
   -4.1490   23.2400  -31.2430 O   0  0  0  0  0  0  0  0  0  0  0  0
   -3.7480   24.0910  -29.0650 C   0  0  0  0  0  0  0  0  0  0  0  0
   -2.4480   24.5210  -29.3840 C   0  0  0  0  0  0  0  0  0  0  0  0
   -1.6310   25.0930  -28.4040 C   0  0  0  0  0  0  0  0  0  0  0  0
   -2.0990   25.2420  -27.0920 C   0  0  0  0  0  0  0  0  0  0  0  0
   -1.0470   25.8900  -25.8360 S   0  0  0  0  0  0  0  0  0  0  0  0
   -1.8480   26.1140  -24.5830 O   0  0  0  0  0  0  0  0  0  0  0  0
   -0.4940   27.2150  -26.2890 O   0  0  0  0  0  0  0  0  0  0  0  0
    0.2460   24.7670  -25.4950 N   0  0  0  0  0  0  0  0  0  0  0  0
    1.0700   24.5190  -26.6790 C   0  0  0  0  0  0  0  0  0  0  0  0
    2.4650   24.1720  -26.1780 C   0  0  0  0  0  0  0  0  0  0  0  0
    2.5220   24.6830  -24.7480 C   0  0  0  0  0  0  0  0  0  0  0  0
    1.1600   25.3110  -24.4910 C   0  0  0  0  0  0  0  0  0  0  0  0
   -3.4040   24.8450  -26.7770 C   0  0  0  0  0  0  0  0  0  0  0  0
   -4.2260   24.2790  -27.7560 C   0  0  0  0  0  0  0  0  0  0  0  0
   -6.4110   21.0850  -31.1150 C   0  0  0  0  0  0  0  0  0  0  0  0
   -6.2340   17.2833  -34.9242 H   0  0  0  0  0  0  0  0  0  0  0  0
   -6.4125   18.9510  -35.5672 H   0  0  0  0  0  0  0  0  0  0  0  0
   -4.8017   18.1560  -35.5672 H   0  0  0  0  0  0  0  0  0  0  0  0
   -4.9509   21.4566  -33.6055 H   0  0  0  0  0  0  0  0  0  0  0  0
   -2.7578   22.5126  -33.0718 H   0  0  0  0  0  0  0  0  0  0  0  0
   -0.2476   19.6179  -30.3184 H   0  0  0  0  0  0  0  0  0  0  0  0
    1.0565   20.6184  -29.5941 H   0  0  0  0  0  0  0  0  0  0  0  0
   -2.8504   20.1461  -29.4633 H   0  0  0  0  0  0  0  0  0  0  0  0
   -3.6644   21.1564  -27.0894 H   0  0  0  0  0  0  0  0  0  0  0  0
   -1.5125   22.2737  -25.9624 H   0  0  0  0  0  0  0  0  0  0  0  0
   -1.0020   18.5971  -32.5064 H   0  0  0  0  0  0  0  0  0  0  0  0
   -3.1772   17.5355  -33.1039 H   0  0  0  0  0  0  0  0  0  0  0  0
   -9.1264   20.2376  -33.0141 H   0  0  0  0  0  0  0  0  0  0  0  0
   -9.8190   22.5327  -32.3278 H   0  0  0  0  0  0  0  0  0  0  0  0
   -8.3580   23.8854  -30.8267 H   0  0  0  0  0  0  0  0  0  0  0  0
   -6.4210   23.5310  -28.9390 H   0  0  0  0  0  0  0  0  0  0  0  0
   -2.0712   24.4067  -30.4111 H   0  0  0  0  0  0  0  0  0  0  0  0
   -0.6160   25.4276  -28.6644 H   0  0  0  0  0  0  0  0  0  0  0  0
    0.6566   23.6811  -27.2595 H   0  0  0  0  0  0  0  0  0  0  0  0
    1.0941   25.4013  -27.3355 H   0  0  0  0  0  0  0  0  0  0  0  0
    2.6230   23.0837  -26.2039 H   0  0  0  0  0  0  0  0  0  0  0  0
    3.2477   24.6246  -26.8044 H   0  0  0  0  0  0  0  0  0  0  0  0
    2.7014   23.8527  -24.0491 H   0  0  0  0  0  0  0  0  0  0  0  0
    3.3399   25.4041  -24.6026 H   0  0  0  0  0  0  0  0  0  0  0  0
    0.8091   25.0535  -23.4808 H   0  0  0  0  0  0  0  0  0  0  0  0
    1.2125   26.4076  -24.5589 H   0  0  0  0  0  0  0  0  0  0  0  0
   -3.7847   24.9791  -25.7537 H   0  0  0  0  0  0  0  0  0  0  0  0
   -5.2530   23.9789  -27.5007 H   0  0  0  0  0  0  0  0  0  0  0  0
   -5.4364   20.6868  -30.7963 H   0  0  0  0  0  0  0  0  0  0  0  0
  1  2  1  0
  2  3  1  0
  3  4  2  0
  4  5  1  0
  5  6  2  0
  6  7  1  0
  7  8  2  0
  7  9  1  0
  9 10  1  0
 10 11  1  0
 11 12  2  0
 12 13  1  0
 13 14  2  0
 14 15  1  0
  6 16  1  0
 16 17  2  0
  2 18  1  0
 18 19  2  0
 18 20  2  0
 18 21  1  0
 21 22  2  0
 22 23  1  0
 23 24  2  0
 24 25  1  0
 25 26  1  0
 26 27  1  0
 27 28  2  0
 27 29  1  0
 29 30  2  0
 30 31  1  0
 31 32  2  0
 32 33  1  0
 33 34  2  0
 33 35  2  0
 33 36  1  0
 36 37  1  0
 37 38  1  0
 38 39  1  0
 39 40  1  0
 32 41  1  0
 41 42  2  0
 25 43  2  0
 17  3  1  0
 43 21  1  0
 15 11  1  0
 42 29  1  0
 40 36  1  0
  1 44  1  0
  1 45  1  0
  1 46  1  0
  4 47  1  0
  5 48  1  0
 10 49  1  0
 10 50  1  0
 12 51  1  0
 13 52  1  0
 14 53  1  0
 16 54  1  0
 17 55  1  0
 22 56  1  0
 23 57  1  0
 24 58  1  0
 26 59  1  0
 30 60  1  0
 31 61  1  0
 37 62  1  0
 37 63  1  0
 38 64  1  0
 38 65  1  0
 39 66  1  0
 39 67  1  0
 40 68  1  0
 40 69  1  0
 41 70  1  0
 42 71  1  0
 43 72  1  0
M  CHG  1   9  -1
M  END
>  <UniqueID>  (50) 
49

>  <SMILES>  (50) 
CN(c1ccc(C(=O)[N-]Cc2ccco2)cc1)S(=O)(=O)c1cccc(NC(=O)c2ccc(S(=O)(=O)N3CCCC3)cc2)c1

>  <Energy>  (50) 
118.80482987648243

>  <Genealogy>  (50) 
CN(c1ccc(C(=O)[N-]Cc2ccco2)cc1)S(=O)(=O)c1cccc(NC(=O)c2ccc(S(=O)(=O)N3CCCC3)cc2)c1 (protonated)
CN(c1ccc(C(=O)[N-]Cc2ccco2)cc1)S(=O)(=O)c1cccc(NC(=O)c2ccc(S(=O)(=O)N3CCCC3)cc2)c1 (3D coordinates assigned)
CN(c1ccc(C(=O)[N-]Cc2ccco2)cc1)S(=O)(=O)c1cccc(NC(=O)c2ccc(S(=O)(=O)N3CCCC3)cc2)c1 (nonaromatic ring conformer: 118.80482987648243 kcal/mol)

>  <smiles>  (50) 
CN(c1ccc(C(=O)NCc2ccco2)cc1)S(=O)(=O)c1cccc(NC(=O)c2ccc(S(=O)(=O)N3CCCC3)cc2)c1

>  <score_type>  (50) 
oracle

>  <origin>  (50) 
adgpu

>  <m_score__min__energy>  (50) 
-11.44

>  <m_primary>  (50) 
energy

$$$$
