0:0
     RDKit          3D

 58 61  0  0  0  0  0  0  0  0999 V2000
   -0.7060   25.9190  -27.0980 C   0  0  0  0  0  0  0  0  0  0  0  0
   -0.9330   24.9620  -28.2300 C   0  0  0  0  0  0  0  0  0  0  0  0
   -0.2580   23.8980  -28.2590 O   0  0  0  0  0  0  0  0  0  0  0  0
   -1.9020   25.1850  -29.2690 N   0  0  0  0  0  0  0  0  0  0  0  0
   -3.0890   24.6710  -29.4160 C   0  0  0  0  0  0  0  0  0  0  0  0
   -3.8670   24.9770  -30.4760 N   0  0  0  0  0  0  0  0  0  0  0  0
   -5.0750   24.3520  -30.4190 C   0  0  0  0  0  0  0  0  0  0  0  0
   -6.1240   24.5660  -31.4660 C   0  0  0  0  0  0  0  0  0  0  0  0
   -6.9760   23.3450  -31.6120 C   0  0  0  0  0  0  0  0  0  0  0  0
   -8.2840   23.3670  -31.9280 N   0  0  0  0  0  0  0  0  0  0  0  0
   -8.6710   22.1030  -31.9960 N   0  0  0  0  0  0  0  0  0  0  0  0
   -7.5810   21.3630  -31.7200 C   0  0  0  0  0  0  0  0  0  0  0  0
   -7.5560   19.5720  -31.6880 S   0  0  0  0  0  0  0  0  0  0  0  0
   -7.2090   19.3970  -33.4680 C   0  0  0  0  0  0  0  0  0  0  0  0
   -6.2560   18.2720  -33.7020 C   0  0  0  0  0  0  0  0  0  0  0  0
   -6.6550   17.0840  -33.5850 O   0  0  0  0  0  0  0  0  0  0  0  0
   -4.8790   18.5650  -33.9720 N   0  0  0  0  0  0  0  0  0  0  0  0
   -3.9650   19.2880  -33.1340 C   0  0  0  0  0  0  0  0  0  0  0  0
   -4.2970   20.5250  -32.5520 C   0  0  0  0  0  0  0  0  0  0  0  0
   -3.3810   21.1820  -31.7240 C   0  0  0  0  0  0  0  0  0  0  0  0
   -2.1330   20.6070  -31.4530 C   0  0  0  0  0  0  0  0  0  0  0  0
   -1.0070   21.4330  -30.3780 S   0  0  0  0  0  0  0  0  0  0  0  0
    0.3660   20.8340  -30.5160 O   0  0  0  0  0  0  0  0  0  0  0  0
   -0.9420   22.8820  -30.7740 O   0  0  0  0  0  0  0  0  0  0  0  0
   -1.5430   21.2990  -28.7180 N   0  0  0  0  0  0  0  0  0  0  0  0
   -2.8240   20.5500  -28.6640 C   0  0  0  0  0  0  0  0  0  0  0  0
   -3.0940   19.9920  -27.2610 C   0  0  0  0  0  0  0  0  0  0  0  0
   -1.9980   18.9980  -26.8330 C   0  0  0  0  0  0  0  0  0  0  0  0
   -0.6650   19.2370  -27.5650 C   0  0  0  0  0  0  0  0  0  0  0  0
   -0.4650   20.7300  -27.8620 C   0  0  0  0  0  0  0  0  0  0  0  0
   -1.8110   19.3640  -32.0120 C   0  0  0  0  0  0  0  0  0  0  0  0
   -2.7230   18.7090  -32.8440 C   0  0  0  0  0  0  0  0  0  0  0  0
   -6.5360   22.1170  -31.4860 O   0  0  0  0  0  0  0  0  0  0  0  0
   -5.2780   23.5550  -29.2940 C   0  0  0  0  0  0  0  0  0  0  0  0
   -3.8890   23.6330  -28.3510 S   0  0  0  0  0  0  0  0  0  0  0  0
   -0.8312   25.3913  -26.1410 H   0  0  0  0  0  0  0  0  0  0  0  0
    0.3137   26.3266  -27.1613 H   0  0  0  0  0  0  0  0  0  0  0  0
   -1.4341   26.7412  -27.1613 H   0  0  0  0  0  0  0  0  0  0  0  0
   -6.7576   25.4167  -31.1749 H   0  0  0  0  0  0  0  0  0  0  0  0
   -5.6302   24.7720  -32.4271 H   0  0  0  0  0  0  0  0  0  0  0  0
   -8.1486   19.1937  -34.0026 H   0  0  0  0  0  0  0  0  0  0  0  0
   -6.7590   20.3300  -33.8382 H   0  0  0  0  0  0  0  0  0  0  0  0
   -5.2803   20.9771  -32.7488 H   0  0  0  0  0  0  0  0  0  0  0  0
   -3.6422   22.1554  -31.2833 H   0  0  0  0  0  0  0  0  0  0  0  0
   -1.7300   22.2750  -28.3900 H   0  0  0  0  0  0  0  0  0  0  0  0
   -3.6451   21.2268  -28.9430 H   0  0  0  0  0  0  0  0  0  0  0  0
   -2.7571   19.7037  -29.3635 H   0  0  0  0  0  0  0  0  0  0  0  0
   -3.1220   20.8252  -26.5434 H   0  0  0  0  0  0  0  0  0  0  0  0
   -4.0569   19.4605  -27.2784 H   0  0  0  0  0  0  0  0  0  0  0  0
   -1.8298   19.1031  -25.7510 H   0  0  0  0  0  0  0  0  0  0  0  0
   -2.3447   17.9869  -27.0928 H   0  0  0  0  0  0  0  0  0  0  0  0
    0.1621   18.8812  -26.9330 H   0  0  0  0  0  0  0  0  0  0  0  0
   -0.6831   18.6877  -28.5179 H   0  0  0  0  0  0  0  0  0  0  0  0
   -0.4473   21.2784  -26.9086 H   0  0  0  0  0  0  0  0  0  0  0  0
    0.4825   20.8338  -28.4110 H   0  0  0  0  0  0  0  0  0  0  0  0
   -0.8367   18.9016  -31.7954 H   0  0  0  0  0  0  0  0  0  0  0  0
   -2.4633   17.7307  -33.2747 H   0  0  0  0  0  0  0  0  0  0  0  0
   -6.1857   22.9777  -29.0641 H   0  0  0  0  0  0  0  0  0  0  0  0
  1  2  1  0
  2  3  2  0
  2  4  1  0
  4  5  2  3
  5  6  1  0
  6  7  1  0
  7  8  1  0
  8  9  1  0
  9 10  2  0
 10 11  1  0
 11 12  2  0
 12 13  1  0
 13 14  1  0
 14 15  1  0
 15 16  2  0
 15 17  1  0
 17 18  1  0
 18 19  2  0
 19 20  1  0
 20 21  2  0
 21 22  1  0
 22 23  2  0
 22 24  2  0
 22 25  1  0
 25 26  1  0
 26 27  1  0
 27 28  1  0
 28 29  1  0
 29 30  1  0
 21 31  1  0
 31 32  2  0
 12 33  1  0
  7 34  2  0
 34 35  1  0
 35  5  1  0
 33  9  1  0
 32 18  1  0
 30 25  1  0
  1 36  1  0
  1 37  1  0
  1 38  1  0
  8 39  1  0
  8 40  1  0
 14 41  1  0
 14 42  1  0
 19 43  1  0
 20 44  1  0
 25 45  1  0
 26 46  1  0
 26 47  1  0
 27 48  1  0
 27 49  1  0
 28 50  1  0
 28 51  1  0
 29 52  1  0
 29 53  1  0
 30 54  1  0
 30 55  1  0
 31 56  1  0
 32 57  1  0
 34 58  1  0
M  CHG  3   6  -1  17  -1  25   1
M  END
>  <UniqueID>  (1) 
1

>  <SMILES>  (1) 
CC(=O)N=c1[n-]c(Cc2nnc(SCC(=O)[N-]c3ccc(S(=O)(=O)[NH+]4CCCCC4)cc3)o2)cs1

>  <Energy>  (1) 
131.97121934152483

>  <Genealogy>  (1) 
CC(=O)N=c1[n-]c(Cc2nnc(SCC(=O)[N-]c3ccc(S(=O)(=O)[NH+]4CCCCC4)cc3)o2)cs1 (protonated)
CC(=O)N=c1[n-]c(Cc2nnc(SCC(=O)[N-]c3ccc(S(=O)(=O)[NH+]4CCCCC4)cc3)o2)cs1 (3D coordinates assigned)
CC(=O)N=c1[n-]c(Cc2nnc(SCC(=O)[N-]c3ccc(S(=O)(=O)[NH+]4CCCCC4)cc3)o2)cs1 (nonaromatic ring conformer: 131.97121934152483 kcal/mol)

>  <smiles>  (1) 
CC(=O)N=c1[nH]c(Cc2nnc(SCC(=O)Nc3ccc(S(=O)(=O)N4CCCCC4)cc3)o2)cs1

>  <score_type>  (1) 
oracle

>  <origin>  (1) 
adgpu

>  <m_score__min__energy>  (1) 
-11.9

>  <m_primary>  (1) 
energy

$$$$
1:0
     RDKit          3D

 46 49  0  0  0  0  0  0  0  0999 V2000
   -6.1080   25.6990  -30.0140 O   0  0  0  0  0  0  0  0  0  0  0  0
   -5.2530   25.1700  -30.7720 C   0  0  0  0  0  0  0  0  0  0  0  0
   -5.6930   24.5280  -31.9730 N   0  0  0  0  0  0  0  0  0  0  0  0
   -6.0730   23.1520  -32.1030 C   0  0  0  0  0  0  0  0  0  0  0  0
   -5.1130   22.1270  -32.3080 C   0  0  0  0  0  0  0  0  0  0  0  0
   -5.5120   20.7820  -32.4070 C   0  0  0  0  0  0  0  0  0  0  0  0
   -6.8670   20.4790  -32.2860 C   0  0  0  0  0  0  0  0  0  0  0  0
   -7.7910   21.4700  -32.0640 C   0  0  0  0  0  0  0  0  0  0  0  0
   -7.4320   22.8110  -31.9580 C   0  0  0  0  0  0  0  0  0  0  0  0
   -9.0740   20.8240  -31.9700 C   0  0  0  0  0  0  0  0  0  0  0  0
  -10.1790   21.3940  -31.7690 O   0  0  0  0  0  0  0  0  0  0  0  0
   -8.9170   19.4530  -32.1350 O   0  0  0  0  0  0  0  0  0  0  0  0
   -7.5360   19.1370  -32.3420 C   0  0  0  0  0  0  0  0  0  0  0  0
   -3.8550   25.3080  -30.4920 N   0  0  0  0  0  0  0  0  0  0  0  0
   -3.0620   24.3830  -29.7350 C   0  0  0  0  0  0  0  0  0  0  0  0
   -3.5850   23.1120  -29.4740 C   0  0  0  0  0  0  0  0  0  0  0  0
   -2.8530   22.1790  -28.7330 C   0  0  0  0  0  0  0  0  0  0  0  0
   -1.5860   22.5140  -28.2230 C   0  0  0  0  0  0  0  0  0  0  0  0
   -0.8040   21.5760  -27.4580 N   0  0  0  0  0  0  0  0  0  0  0  0
    0.6150   21.3190  -27.7100 C   0  0  0  0  0  0  0  0  0  0  0  0
    0.8200   19.9140  -28.2180 C   0  0  0  0  0  0  0  0  0  0  0  0
    1.7420   19.6700  -29.2490 C   0  0  0  0  0  0  0  0  0  0  0  0
    1.9170   18.3730  -29.7530 C   0  0  0  0  0  0  0  0  0  0  0  0
    2.8360   18.1250  -30.7700 O   0  0  0  0  0  0  0  0  0  0  0  0
    1.1620   17.3190  -29.2330 C   0  0  0  0  0  0  0  0  0  0  0  0
    0.2300   17.5550  -28.2190 C   0  0  0  0  0  0  0  0  0  0  0  0
    0.0500   18.8470  -27.7140 C   0  0  0  0  0  0  0  0  0  0  0  0
   -0.8940   19.0630  -26.7170 O   0  0  0  0  0  0  0  0  0  0  0  0
   -1.0780   23.8020  -28.4550 C   0  0  0  0  0  0  0  0  0  0  0  0
   -1.8130   24.7380  -29.1920 C   0  0  0  0  0  0  0  0  0  0  0  0
   -1.3050   26.0230  -29.3440 O   0  0  0  0  0  0  0  0  0  0  0  0
   -4.0473   22.3869  -32.3902 H   0  0  0  0  0  0  0  0  0  0  0  0
   -4.7710   19.9868  -32.5762 H   0  0  0  0  0  0  0  0  0  0  0  0
   -8.1902   23.5844  -31.7659 H   0  0  0  0  0  0  0  0  0  0  0  0
   -7.1593   18.4747  -31.5486 H   0  0  0  0  0  0  0  0  0  0  0  0
   -7.3519   18.6014  -33.2850 H   0  0  0  0  0  0  0  0  0  0  0  0
   -4.5814   22.8440  -29.8553 H   0  0  0  0  0  0  0  0  0  0  0  0
   -3.2703   21.1781  -28.5481 H   0  0  0  0  0  0  0  0  0  0  0  0
   -1.2790   21.0560  -26.6840 H   0  0  0  0  0  0  0  0  0  0  0  0
    0.9832   22.0323  -28.4621 H   0  0  0  0  0  0  0  0  0  0  0  0
    1.1690   21.4387  -26.7673 H   0  0  0  0  0  0  0  0  0  0  0  0
    2.3306   20.5015  -29.6638 H   0  0  0  0  0  0  0  0  0  0  0  0
    3.3950   18.8680  -31.1730 H   0  0  0  0  0  0  0  0  0  0  0  0
    1.3016   16.3000  -29.6230 H   0  0  0  0  0  0  0  0  0  0  0  0
   -0.3644   16.7216  -27.8163 H   0  0  0  0  0  0  0  0  0  0  0  0
   -0.0920   24.0786  -28.0534 H   0  0  0  0  0  0  0  0  0  0  0  0
  1  2  2  0
  2  3  1  0
  3  4  1  0
  4  5  2  0
  5  6  1  0
  6  7  2  0
  7  8  1  0
  8  9  2  0
  8 10  1  0
 10 11  2  0
 10 12  1  0
 12 13  1  0
  2 14  1  0
 14 15  1  0
 15 16  2  0
 16 17  1  0
 17 18  2  0
 18 19  1  0
 19 20  1  0
 20 21  1  0
 21 22  2  0
 22 23  1  0
 23 24  1  0
 23 25  2  0
 25 26  1  0
 26 27  2  0
 27 28  1  0
 18 29  1  0
 29 30  2  0
 30 31  1  0
  9  4  1  0
 30 15  1  0
 13  7  1  0
 27 21  1  0
  5 32  1  0
  6 33  1  0
  9 34  1  0
 13 35  1  0
 13 36  1  0
 16 37  1  0
 17 38  1  0
 19 39  1  0
 20 40  1  0
 20 41  1  0
 22 42  1  0
 24 43  1  0
 25 44  1  0
 26 45  1  0
 29 46  1  0
M  CHG  4   3  -1  14  -1  28  -1  31  -1
M  END
>  <UniqueID>  (2) 
2

>  <SMILES>  (2) 
O=C([N-]c1ccc2c(c1)C(=O)OC2)[N-]c1ccc(NCc2cc(O)ccc2[O-])cc1[O-]

>  <Energy>  (2) 
82.9736294269285

>  <Genealogy>  (2) 
O=C([N-]c1ccc2c(c1)C(=O)OC2)[N-]c1ccc(NCc2cc(O)ccc2[O-])cc1[O-] (protonated)
O=C([N-]c1ccc2c(c1)C(=O)OC2)[N-]c1ccc(NCc2cc(O)ccc2[O-])cc1[O-] (3D coordinates assigned)
O=C([N-]c1ccc2c(c1)C(=O)OC2)[N-]c1ccc(NCc2cc(O)ccc2[O-])cc1[O-] (nonaromatic ring conformer: 82.9736294269285 kcal/mol)

>  <smiles>  (2) 
O=C(Nc1ccc2c(c1)C(=O)OC2)Nc1ccc(NCc2cc(O)ccc2O)cc1O

>  <score_type>  (2) 
oracle

>  <origin>  (2) 
adgpu

>  <m_score__min__energy>  (2) 
-14.800000000000001

>  <m_primary>  (2) 
energy

$$$$
2:0
     RDKit          3D

 15 15  0  0  0  0  0  0  0  0999 V2000
   -6.4954   25.9985  -30.3079 H   0  0  0  0  0  0  0  0  0  0  0  0
   -6.1750   24.9960  -30.6280 C   0  0  0  0  0  0  0  0  0  0  0  0
   -4.8180   24.7030  -30.7420 C   0  0  0  0  0  0  0  0  0  0  0  0
   -3.8610   25.6710  -30.4540 O   0  0  0  0  0  0  0  0  0  0  0  0
   -4.4440   23.4230  -31.1510 C   0  0  0  0  0  0  0  0  0  0  0  0
   -3.2280   23.1180  -31.2660 O   0  0  0  0  0  0  0  0  0  0  0  0
   -5.4000   22.4980  -31.4250 N   0  0  0  0  0  0  0  0  0  0  0  0
   -6.7230   22.7910  -31.3110 C   0  0  0  0  0  0  0  0  0  0  0  0
   -7.5940   21.8630  -31.5890 N   0  0  0  0  0  0  0  0  0  0  0  0
   -9.0440   22.0040  -31.5200 C   0  0  0  0  0  0  0  0  0  0  0  0
   -9.3597   22.0347  -30.4667 H   0  0  0  0  0  0  0  0  0  0  0  0
   -9.3460   22.9358  -32.0206 H   0  0  0  0  0  0  0  0  0  0  0  0
   -9.5199   21.1479  -32.0206 H   0  0  0  0  0  0  0  0  0  0  0  0
   -7.1050   24.0440  -30.9120 N   0  0  0  0  0  0  0  0  0  0  0  0
   -8.1110   24.3050  -30.8130 H   0  0  0  0  0  0  0  0  0  0  0  0
  1  2  1  0
  2  3  2  0
  3  4  1  0
  3  5  1  0
  5  6  2  0
  5  7  1  0
  7  8  1  0
  8  9  2  0
  9 10  1  0
 10 11  1  0
 10 12  1  0
 10 13  1  0
  8 14  1  0
 14 15  1  0
 14  2  1  0
M  CHG  2   4  -1   7  -1
M  END
>  <UniqueID>  (3) 
3

>  <SMILES>  (3) 
C/N=c1/[n-]c(=O)c([O-])c[nH]1

>  <Energy>  (3) 
14.73372349086818

>  <Genealogy>  (3) 
CN=c1[n-]c(=O)c([O-])c[nH]1 (protonated)
C/N=c1/[n-]c(=O)c([O-])c[nH]1 (cis-trans isomerization)
C/N=c1/[n-]c(=O)c([O-])c[nH]1 (3D coordinates assigned)
C/N=c1/[n-]c(=O)c([O-])c[nH]1 (optimized conformer: 14.73372349086818 kcal/mol)

>  <smiles>  (3) 
CN=c1[nH]cc(O)c(=O)[nH]1

>  <score_type>  (3) 
oracle

>  <origin>  (3) 
adgpu

>  <m_score__min__energy>  (3) 
-7.4199999999999999

>  <m_primary>  (3) 
energy

$$$$
3:0
     RDKit          3D

 48 51  0  0  0  0  0  0  0  0999 V2000
   -0.9220   19.9860  -29.2110 C   0  0  0  0  0  0  0  0  0  0  0  0
   -1.1580   21.4280  -28.8960 C   0  0  0  0  0  0  0  0  0  0  0  0
   -1.0410   21.9430  -27.6590 N   0  0  0  0  0  0  0  0  0  0  0  0
   -1.3910   23.2190  -27.7010 N   0  0  0  0  0  0  0  0  0  0  0  0
   -1.7480   23.5320  -28.9630 C   0  0  0  0  0  0  0  0  0  0  0  0
   -2.2070   24.8820  -29.3350 C   0  0  0  0  0  0  0  0  0  0  0  0
   -3.2710   25.0570  -29.9830 O   0  0  0  0  0  0  0  0  0  0  0  0
   -1.4480   25.9860  -28.9700 O   0  0  0  0  0  0  0  0  0  0  0  0
   -1.6100   22.4050  -29.7680 C   0  0  0  0  0  0  0  0  0  0  0  0
   -1.9660   22.2170  -31.2200 C   0  0  0  0  0  0  0  0  0  0  0  0
   -3.4470   22.0010  -31.3810 C   0  0  0  0  0  0  0  0  0  0  0  0
   -4.2730   23.0500  -31.8150 C   0  0  0  0  0  0  0  0  0  0  0  0
   -5.6540   22.8600  -31.9310 C   0  0  0  0  0  0  0  0  0  0  0  0
   -6.2240   21.6200  -31.6160 C   0  0  0  0  0  0  0  0  0  0  0  0
   -7.9700   21.4120  -31.7300 S   0  0  0  0  0  0  0  0  0  0  0  0
   -8.4510   20.7500  -30.4700 O   0  0  0  0  0  0  0  0  0  0  0  0
   -8.6400   22.7550  -31.8430 O   0  0  0  0  0  0  0  0  0  0  0  0
   -8.3800   20.4030  -33.1030 N   0  0  0  0  0  0  0  0  0  0  0  0
   -9.1690   19.2140  -32.7330 C   0  0  0  0  0  0  0  0  0  0  0  0
   -8.3790   18.2220  -31.8700 C   0  0  0  0  0  0  0  0  0  0  0  0
   -6.9780   18.0110  -32.3780 C   0  0  0  0  0  0  0  0  0  0  0  0
   -6.2170   16.9480  -31.8670 C   0  0  0  0  0  0  0  0  0  0  0  0
   -4.8960   16.7630  -32.2790 C   0  0  0  0  0  0  0  0  0  0  0  0
   -4.3190   17.6430  -33.1960 C   0  0  0  0  0  0  0  0  0  0  0  0
   -5.0620   18.7110  -33.7020 C   0  0  0  0  0  0  0  0  0  0  0  0
   -6.3870   18.9160  -33.2870 C   0  0  0  0  0  0  0  0  0  0  0  0
   -7.1880   20.0460  -33.8930 C   0  0  0  0  0  0  0  0  0  0  0  0
   -5.4040   20.5710  -31.1820 C   0  0  0  0  0  0  0  0  0  0  0  0
   -4.0230   20.7600  -31.0650 C   0  0  0  0  0  0  0  0  0  0  0  0
   -0.8288   19.4166  -28.2745 H   0  0  0  0  0  0  0  0  0  0  0  0
   -1.7681   19.5951  -29.7952 H   0  0  0  0  0  0  0  0  0  0  0  0
    0.0046   19.8852  -29.7952 H   0  0  0  0  0  0  0  0  0  0  0  0
   -1.6684   23.1135  -31.7838 H   0  0  0  0  0  0  0  0  0  0  0  0
   -1.4359   21.3323  -31.6024 H   0  0  0  0  0  0  0  0  0  0  0  0
   -3.8320   24.0262  -32.0651 H   0  0  0  0  0  0  0  0  0  0  0  0
   -6.2945   23.6872  -32.2708 H   0  0  0  0  0  0  0  0  0  0  0  0
  -10.0554   19.5415  -32.1699 H   0  0  0  0  0  0  0  0  0  0  0  0
   -9.4453   18.6968  -33.6637 H   0  0  0  0  0  0  0  0  0  0  0  0
   -8.3276   18.6104  -30.8421 H   0  0  0  0  0  0  0  0  0  0  0  0
   -8.8999   17.2539  -31.9086 H   0  0  0  0  0  0  0  0  0  0  0  0
   -6.6641   16.2566  -31.1376 H   0  0  0  0  0  0  0  0  0  0  0  0
   -4.3090   15.9225  -31.8804 H   0  0  0  0  0  0  0  0  0  0  0  0
   -3.2783   17.4949  -33.5201 H   0  0  0  0  0  0  0  0  0  0  0  0
   -4.6058   19.3967  -34.4311 H   0  0  0  0  0  0  0  0  0  0  0  0
   -6.5405   20.9321  -33.9683 H   0  0  0  0  0  0  0  0  0  0  0  0
   -7.5393   19.7053  -34.8781 H   0  0  0  0  0  0  0  0  0  0  0  0
   -5.8472   19.5957  -30.9324 H   0  0  0  0  0  0  0  0  0  0  0  0
   -3.3846   19.9318  -30.7235 H   0  0  0  0  0  0  0  0  0  0  0  0
  1  2  1  0
  2  3  1  0
  3  4  1  0
  4  5  2  0
  5  6  1  0
  6  7  2  0
  6  8  1  0
  5  9  1  0
  9 10  1  0
 10 11  1  0
 11 12  2  0
 12 13  1  0
 13 14  2  0
 14 15  1  0
 15 16  2  0
 15 17  2  0
 15 18  1  0
 18 19  1  0
 19 20  1  0
 20 21  1  0
 21 22  2  0
 22 23  1  0
 23 24  2  0
 24 25  1  0
 25 26  2  0
 26 27  1  0
 14 28  1  0
 28 29  2  0
  9  2  2  0
 29 11  1  0
 27 18  1  0
 26 21  1  0
  1 30  1  0
  1 31  1  0
  1 32  1  0
 10 33  1  0
 10 34  1  0
 12 35  1  0
 13 36  1  0
 19 37  1  0
 19 38  1  0
 20 39  1  0
 20 40  1  0
 22 41  1  0
 23 42  1  0
 24 43  1  0
 25 44  1  0
 27 45  1  0
 27 46  1  0
 28 47  1  0
 29 48  1  0
M  CHG  2   3  -1   8  -1
M  END
>  <UniqueID>  (4) 
4

>  <SMILES>  (4) 
Cc1[n-]nc(C(=O)[O-])c1Cc1ccc(S(=O)(=O)N2CCc3ccccc3C2)cc1

>  <Energy>  (4) 
83.72232923003534

>  <Genealogy>  (4) 
Cc1[n-]nc(C(=O)[O-])c1Cc1ccc(S(=O)(=O)N2CCc3ccccc3C2)cc1 (protonated)
Cc1[n-]nc(C(=O)[O-])c1Cc1ccc(S(=O)(=O)N2CCc3ccccc3C2)cc1 (3D coordinates assigned)
Cc1[n-]nc(C(=O)[O-])c1Cc1ccc(S(=O)(=O)N2CCc3ccccc3C2)cc1 (nonaromatic ring conformer: 83.72232923003534 kcal/mol)

>  <smiles>  (4) 
Cc1[nH]nc(C(=O)O)c1Cc1ccc(S(=O)(=O)N2CCc3ccccc3C2)cc1

>  <score_type>  (4) 
oracle

>  <origin>  (4) 
adgpu

>  <m_score__min__energy>  (4) 
-11.93

>  <m_primary>  (4) 
energy

$$$$
4:0
     RDKit          3D

 31 33  0  0  0  0  0  0  0  0999 V2000
   -6.8630   15.9150  -34.1000 C   0  0  0  0  0  0  0  0  0  0  0  0
   -6.3130   17.1410  -33.4320 C   0  0  0  0  0  0  0  0  0  0  0  0
   -7.0180   17.7470  -32.3820 C   0  0  0  0  0  0  0  0  0  0  0  0
   -6.4930   18.8680  -31.7330 C   0  0  0  0  0  0  0  0  0  0  0  0
   -5.2530   19.3860  -32.1140 C   0  0  0  0  0  0  0  0  0  0  0  0
   -4.7660   20.4530  -31.4900 O   0  0  0  0  0  0  0  0  0  0  0  0
   -3.5940   21.0060  -31.7980 C   0  0  0  0  0  0  0  0  0  0  0  0
   -3.1620   22.2010  -31.0370 C   0  0  0  0  0  0  0  0  0  0  0  0
   -1.9950   22.1860  -30.2510 C   0  0  0  0  0  0  0  0  0  0  0  0
   -1.5940   23.3330  -29.5610 C   0  0  0  0  0  0  0  0  0  0  0  0
   -2.3430   24.5080  -29.6550 C   0  0  0  0  0  0  0  0  0  0  0  0
   -1.9370   25.6440  -28.9640 O   0  0  0  0  0  0  0  0  0  0  0  0
   -3.4970   24.5430  -30.4490 C   0  0  0  0  0  0  0  0  0  0  0  0
   -4.2350   25.7200  -30.5460 O   0  0  0  0  0  0  0  0  0  0  0  0
   -3.8990   23.3920  -31.1430 C   0  0  0  0  0  0  0  0  0  0  0  0
   -2.7980   20.4340  -32.8110 C   0  0  0  0  0  0  0  0  0  0  0  0
   -1.5390   20.9460  -33.1140 O   0  0  0  0  0  0  0  0  0  0  0  0
   -3.2740   19.3140  -33.5000 C   0  0  0  0  0  0  0  0  0  0  0  0
   -2.5750   18.7990  -34.4150 O   0  0  0  0  0  0  0  0  0  0  0  0
   -4.5230   18.7730  -33.1560 C   0  0  0  0  0  0  0  0  0  0  0  0
   -5.0580   17.6460  -33.8070 C   0  0  0  0  0  0  0  0  0  0  0  0
   -7.1864   15.1942  -33.3346 H   0  0  0  0  0  0  0  0  0  0  0  0
   -7.7224   16.1937  -34.7276 H   0  0  0  0  0  0  0  0  0  0  0  0
   -6.0834   15.4584  -34.7276 H   0  0  0  0  0  0  0  0  0  0  0  0
   -7.9894   17.3378  -32.0675 H   0  0  0  0  0  0  0  0  0  0  0  0
   -7.0587   19.3444  -30.9187 H   0  0  0  0  0  0  0  0  0  0  0  0
   -1.3953   21.2666  -30.1794 H   0  0  0  0  0  0  0  0  0  0  0  0
   -0.6852   23.3104  -28.9416 H   0  0  0  0  0  0  0  0  0  0  0  0
   -3.8620   26.6080  -30.2300 H   0  0  0  0  0  0  0  0  0  0  0  0
   -4.7986   23.4225  -31.7753 H   0  0  0  0  0  0  0  0  0  0  0  0
   -4.4903   17.1586  -34.6133 H   0  0  0  0  0  0  0  0  0  0  0  0
  1  2  1  0
  2  3  2  0
  3  4  1  0
  4  5  2  0
  5  6  1  0
  6  7  1  0
  7  8  1  0
  8  9  2  0
  9 10  1  0
 10 11  2  0
 11 12  1  0
 11 13  1  0
 13 14  1  0
 13 15  2  0
  7 16  2  0
 16 17  1  0
 16 18  1  0
 18 19  2  0
 18 20  1  0
 20 21  2  0
 21  2  1  0
 20  5  1  0
 15  8  1  0
  1 22  1  0
  1 23  1  0
  1 24  1  0
  3 25  1  0
  4 26  1  0
  9 27  1  0
 10 28  1  0
 14 29  1  0
 15 30  1  0
 21 31  1  0
M  CHG  2  12  -1  17  -1
M  END
>  <UniqueID>  (5) 
5

>  <SMILES>  (5) 
Cc1ccc2oc(-c3ccc([O-])c(O)c3)c([O-])c(=O)c2c1

>  <Energy>  (5) 
44.068670565439604

>  <Genealogy>  (5) 
Cc1ccc2oc(-c3ccc([O-])c(O)c3)c([O-])c(=O)c2c1 (protonated)
Cc1ccc2oc(-c3ccc([O-])c(O)c3)c([O-])c(=O)c2c1 (3D coordinates assigned)
Cc1ccc2oc(-c3ccc([O-])c(O)c3)c([O-])c(=O)c2c1 (optimized conformer: 44.068670565439604 kcal/mol)

>  <smiles>  (5) 
Cc1ccc2oc(-c3ccc(O)c(O)c3)c(O)c(=O)c2c1

>  <score_type>  (5) 
oracle

>  <origin>  (5) 
adgpu

>  <m_score__min__energy>  (5) 
-10.220000000000001

>  <m_primary>  (5) 
energy

$$$$
5:0
     RDKit          3D

 40 42  0  0  0  0  0  0  0  0999 V2000
    0.8500   24.6900  -27.3980 C   0  0  0  0  0  0  0  0  0  0  0  0
    0.2810   24.1860  -28.6020 O   0  0  0  0  0  0  0  0  0  0  0  0
   -0.4940   23.0180  -28.6900 C   0  0  0  0  0  0  0  0  0  0  0  0
    0.0830   21.7350  -28.6010 C   0  0  0  0  0  0  0  0  0  0  0  0
   -0.7180   20.5940  -28.6880 C   0  0  0  0  0  0  0  0  0  0  0  0
   -2.0960   20.7160  -28.8630 C   0  0  0  0  0  0  0  0  0  0  0  0
   -2.6790   21.9810  -28.9540 C   0  0  0  0  0  0  0  0  0  0  0  0
   -1.8860   23.1360  -28.8720 C   0  0  0  0  0  0  0  0  0  0  0  0
   -2.6340   24.7300  -28.9810 S   0  0  0  0  0  0  0  0  0  0  0  0
   -1.5730   25.7930  -28.9550 O   0  0  0  0  0  0  0  0  0  0  0  0
   -3.5540   24.9170  -27.8060 O   0  0  0  0  0  0  0  0  0  0  0  0
   -3.5350   24.8760  -30.4550 N   0  0  0  0  0  0  0  0  0  0  0  0
   -4.7470   24.1530  -30.6890 C   0  0  0  0  0  0  0  0  0  0  0  0
   -4.7170   23.0590  -31.5620 C   0  0  0  0  0  0  0  0  0  0  0  0
   -5.8680   22.2920  -31.7870 C   0  0  0  0  0  0  0  0  0  0  0  0
   -7.0800   22.6570  -31.1660 C   0  0  0  0  0  0  0  0  0  0  0  0
   -7.1110   23.7600  -30.3010 C   0  0  0  0  0  0  0  0  0  0  0  0
   -5.9600   24.5240  -30.0760 C   0  0  0  0  0  0  0  0  0  0  0  0
   -6.0600   25.6540  -29.2640 O   0  0  0  0  0  0  0  0  0  0  0  0
   -8.3200   21.8150  -31.3490 C   0  0  0  0  0  0  0  0  0  0  0  0
   -8.2560   21.0200  -32.5820 N   0  0  0  0  0  0  0  0  0  0  0  0
   -7.0270   20.2200  -32.6110 C   0  0  0  0  0  0  0  0  0  0  0  0
   -5.8130   21.1400  -32.7570 C   0  0  0  0  0  0  0  0  0  0  0  0
    0.3401   24.2383  -26.5343 H   0  0  0  0  0  0  0  0  0  0  0  0
    1.9203   24.4382  -27.3648 H   0  0  0  0  0  0  0  0  0  0  0  0
    0.7292   25.7828  -27.3648 H   0  0  0  0  0  0  0  0  0  0  0  0
    1.1693   21.6318  -28.4624 H   0  0  0  0  0  0  0  0  0  0  0  0
   -0.2603   19.5962  -28.6182 H   0  0  0  0  0  0  0  0  0  0  0  0
   -2.7238   19.8152  -28.9294 H   0  0  0  0  0  0  0  0  0  0  0  0
   -3.7666   22.0732  -29.0908 H   0  0  0  0  0  0  0  0  0  0  0  0
   -3.7803   22.7988  -32.0766 H   0  0  0  0  0  0  0  0  0  0  0  0
   -8.0497   24.0277  -29.7939 H   0  0  0  0  0  0  0  0  0  0  0  0
   -5.3560   25.8970  -28.5800 H   0  0  0  0  0  0  0  0  0  0  0  0
   -8.4196   21.1347  -30.4903 H   0  0  0  0  0  0  0  0  0  0  0  0
   -9.1866   22.4890  -31.4186 H   0  0  0  0  0  0  0  0  0  0  0  0
   -9.0680   20.3590  -32.5770 H   0  0  0  0  0  0  0  0  0  0  0  0
   -6.9414   19.6481  -31.6753 H   0  0  0  0  0  0  0  0  0  0  0  0
   -7.0637   19.5287  -33.4658 H   0  0  0  0  0  0  0  0  0  0  0  0
   -4.8993   20.5576  -32.5676 H   0  0  0  0  0  0  0  0  0  0  0  0
   -5.8139   21.5502  -33.7776 H   0  0  0  0  0  0  0  0  0  0  0  0
  1  2  1  0
  2  3  1  0
  3  4  2  0
  4  5  1  0
  5  6  2  0
  6  7  1  0
  7  8  2  0
  8  9  1  0
  9 10  2  0
  9 11  2  0
  9 12  1  0
 12 13  1  0
 13 14  2  0
 14 15  1  0
 15 16  2  0
 16 17  1  0
 17 18  2  0
 18 19  1  0
 16 20  1  0
 20 21  1  0
 21 22  1  0
 22 23  1  0
  8  3  1  0
 18 13  1  0
 23 15  1  0
  1 24  1  0
  1 25  1  0
  1 26  1  0
  4 27  1  0
  5 28  1  0
  6 29  1  0
  7 30  1  0
 14 31  1  0
 17 32  1  0
 19 33  1  0
 20 34  1  0
 20 35  1  0
 21 36  1  0
 22 37  1  0
 22 38  1  0
 23 39  1  0
 23 40  1  0
M  CHG  1  12  -1
M  END
>  <UniqueID>  (6) 
6

>  <SMILES>  (6) 
COc1ccccc1S(=O)(=O)[N-]c1cc2c(cc1O)CNCC2

>  <Energy>  (6) 
53.04961274593129

>  <Genealogy>  (6) 
COc1ccccc1S(=O)(=O)[N-]c1cc2c(cc1O)CNCC2 (protonated)
COc1ccccc1S(=O)(=O)[N-]c1cc2c(cc1O)CNCC2 (3D coordinates assigned)
COc1ccccc1S(=O)(=O)[N-]c1cc2c(cc1O)CNCC2 (nonaromatic ring conformer: 53.04961274593129 kcal/mol)

>  <smiles>  (6) 
COc1ccccc1S(=O)(=O)Nc1cc2c(cc1O)CNCC2

>  <score_type>  (6) 
oracle

>  <origin>  (6) 
adgpu

>  <m_score__min__energy>  (6) 
-10.56

>  <m_primary>  (6) 
energy

$$$$
6:0
     RDKit          3D

 44 46  0  0  0  0  0  0  0  0999 V2000
   -1.6650   20.4710  -26.6890 C   0  0  0  0  0  0  0  0  0  0  0  0
   -1.7670   21.8470  -27.2780 C   0  0  0  0  0  0  0  0  0  0  0  0
   -0.6020   22.5790  -27.5390 C   0  0  0  0  0  0  0  0  0  0  0  0
   -0.6810   23.8520  -28.1090 C   0  0  0  0  0  0  0  0  0  0  0  0
   -1.9300   24.4050  -28.4300 C   0  0  0  0  0  0  0  0  0  0  0  0
   -2.0060   25.6730  -29.0040 O   0  0  0  0  0  0  0  0  0  0  0  0
   -3.1040   23.6810  -28.1800 C   0  0  0  0  0  0  0  0  0  0  0  0
   -4.3660   24.2700  -28.5280 N   0  0  0  0  0  0  0  0  0  0  0  0
   -4.9160   24.5850  -30.1420 S   0  0  0  0  0  0  0  0  0  0  0  0
   -6.1440   25.4500  -30.0840 O   0  0  0  0  0  0  0  0  0  0  0  0
   -3.8450   25.3200  -30.9010 O   0  0  0  0  0  0  0  0  0  0  0  0
   -5.3280   23.0690  -30.9360 C   0  0  0  0  0  0  0  0  0  0  0  0
   -4.3200   22.1540  -31.3100 C   0  0  0  0  0  0  0  0  0  0  0  0
   -4.6550   20.9390  -31.9270 C   0  0  0  0  0  0  0  0  0  0  0  0
   -6.0020   20.6600  -32.1700 C   0  0  0  0  0  0  0  0  0  0  0  0
   -6.9900   21.5590  -31.8120 C   0  0  0  0  0  0  0  0  0  0  0  0
   -6.6780   22.7680  -31.1880 C   0  0  0  0  0  0  0  0  0  0  0  0
   -8.2840   21.0850  -32.1540 N   0  0  0  0  0  0  0  0  0  0  0  0
   -9.5520   21.5780  -31.6270 C   0  0  0  0  0  0  0  0  0  0  0  0
   -8.0640   19.7870  -32.7060 C   0  0  0  0  0  0  0  0  0  0  0  0
   -9.0030   19.0270  -33.0660 O   0  0  0  0  0  0  0  0  0  0  0  0
   -6.6020   19.4260  -32.7910 C   0  0  0  0  0  0  0  0  0  0  0  0
   -6.1580   19.2660  -34.2520 C   0  0  0  0  0  0  0  0  0  0  0  0
   -6.2940   18.1730  -31.9590 C   0  0  0  0  0  0  0  0  0  0  0  0
   -3.0160   22.3960  -27.6070 C   0  0  0  0  0  0  0  0  0  0  0  0
   -1.6702   20.5408  -25.5912 H   0  0  0  0  0  0  0  0  0  0  0  0
   -2.5207   19.8653  -27.0220 H   0  0  0  0  0  0  0  0  0  0  0  0
   -0.7293   19.9981  -27.0220 H   0  0  0  0  0  0  0  0  0  0  0  0
    0.3805   22.1493  -27.2939 H   0  0  0  0  0  0  0  0  0  0  0  0
    0.2385   24.4224  -28.3067 H   0  0  0  0  0  0  0  0  0  0  0  0
   -2.8830   26.0520  -29.3430 H   0  0  0  0  0  0  0  0  0  0  0  0
   -3.2644   22.3952  -31.1163 H   0  0  0  0  0  0  0  0  0  0  0  0
   -3.8727   20.2208  -32.2135 H   0  0  0  0  0  0  0  0  0  0  0  0
   -7.4728   23.4714  -30.8991 H   0  0  0  0  0  0  0  0  0  0  0  0
   -9.5215   21.5661  -30.5275 H   0  0  0  0  0  0  0  0  0  0  0  0
   -9.7198   22.6069  -31.9781 H   0  0  0  0  0  0  0  0  0  0  0  0
  -10.3707   20.9327  -31.9781 H   0  0  0  0  0  0  0  0  0  0  0  0
   -5.1235   18.8932  -34.2821 H   0  0  0  0  0  0  0  0  0  0  0  0
   -6.8207   18.5501  -34.7603 H   0  0  0  0  0  0  0  0  0  0  0  0
   -6.2117   20.2400  -34.7603 H   0  0  0  0  0  0  0  0  0  0  0  0
   -6.3546   18.4195  -30.8887 H   0  0  0  0  0  0  0  0  0  0  0  0
   -7.0255   17.3865  -32.1961 H   0  0  0  0  0  0  0  0  0  0  0  0
   -5.2812   17.8153  -32.1961 H   0  0  0  0  0  0  0  0  0  0  0  0
   -3.9331   21.8193  -27.4163 H   0  0  0  0  0  0  0  0  0  0  0  0
  1  2  1  0
  2  3  2  0
  3  4  1  0
  4  5  2  0
  5  6  1  0
  5  7  1  0
  7  8  1  0
  8  9  1  0
  9 10  2  0
  9 11  2  0
  9 12  1  0
 12 13  2  0
 13 14  1  0
 14 15  2  0
 15 16  1  0
 16 17  2  0
 16 18  1  0
 18 19  1  0
 18 20  1  0
 20 21  2  0
 20 22  1  0
 22 23  1  0
 22 24  1  0
  7 25  2  0
 25  2  1  0
 17 12  1  0
 22 15  1  0
  1 26  1  0
  1 27  1  0
  1 28  1  0
  3 29  1  0
  4 30  1  0
  6 31  1  0
 13 32  1  0
 14 33  1  0
 17 34  1  0
 19 35  1  0
 19 36  1  0
 19 37  1  0
 23 38  1  0
 23 39  1  0
 23 40  1  0
 24 41  1  0
 24 42  1  0
 24 43  1  0
 25 44  1  0
M  CHG  1   8  -1
M  END
>  <UniqueID>  (7) 
7

>  <SMILES>  (7) 
Cc1ccc(O)c([N-]S(=O)(=O)c2ccc3c(c2)N(C)C(=O)C3(C)C)c1

>  <Energy>  (7) 
63.27855700159667

>  <Genealogy>  (7) 
Cc1ccc(O)c([N-]S(=O)(=O)c2ccc3c(c2)N(C)C(=O)C3(C)C)c1 (protonated)
Cc1ccc(O)c([N-]S(=O)(=O)c2ccc3c(c2)N(C)C(=O)C3(C)C)c1 (3D coordinates assigned)
Cc1ccc(O)c([N-]S(=O)(=O)c2ccc3c(c2)N(C)C(=O)C3(C)C)c1 (nonaromatic ring conformer: 63.27855700159667 kcal/mol)

>  <smiles>  (7) 
Cc1ccc(O)c(NS(=O)(=O)c2ccc3c(c2)N(C)C(=O)C3(C)C)c1

>  <score_type>  (7) 
oracle

>  <origin>  (7) 
adgpu

>  <m_score__min__energy>  (7) 
-11.619999999999999

>  <m_primary>  (7) 
energy

$$$$
7:0
     RDKit          3D

 55 58  0  0  0  0  0  0  0  0999 V2000
    0.0180   20.0920  -30.4940 O   0  0  0  0  0  0  0  0  0  0  0  0
   -1.0910   20.6150  -30.7870 C   0  0  0  0  0  0  0  0  0  0  0  0
   -1.5590   21.7440  -29.9720 C   0  0  0  0  0  0  0  0  0  0  0  0
   -1.2160   21.8100  -28.6110 C   0  0  0  0  0  0  0  0  0  0  0  0
   -1.6730   22.8730  -27.8250 C   0  0  0  0  0  0  0  0  0  0  0  0
   -2.4370   23.9010  -28.4010 C   0  0  0  0  0  0  0  0  0  0  0  0
   -2.8750   24.9760  -27.6220 O   0  0  0  0  0  0  0  0  0  0  0  0
   -2.7490   23.8550  -29.7720 C   0  0  0  0  0  0  0  0  0  0  0  0
   -3.4890   24.9240  -30.3630 N   0  0  0  0  0  0  0  0  0  0  0  0
   -5.2060   25.0800  -30.1480 S   0  0  0  0  0  0  0  0  0  0  0  0
   -5.5170   25.1810  -28.6830 O   0  0  0  0  0  0  0  0  0  0  0  0
   -5.6800   26.3340  -30.8400 O   0  0  0  0  0  0  0  0  0  0  0  0
   -6.0530   23.6960  -30.8350 C   0  0  0  0  0  0  0  0  0  0  0  0
   -7.1940   23.1710  -30.2110 C   0  0  0  0  0  0  0  0  0  0  0  0
   -7.8320   22.0520  -30.7610 C   0  0  0  0  0  0  0  0  0  0  0  0
   -7.3290   21.4450  -31.9220 C   0  0  0  0  0  0  0  0  0  0  0  0
   -6.1890   21.9590  -32.5330 C   0  0  0  0  0  0  0  0  0  0  0  0
   -5.5560   23.0860  -31.9980 C   0  0  0  0  0  0  0  0  0  0  0  0
   -2.3330   22.7620  -30.5510 C   0  0  0  0  0  0  0  0  0  0  0  0
   -1.8860   20.0830  -31.8700 N   0  0  0  0  0  0  0  0  0  0  0  0
   -1.3020   19.1710  -32.8610 C   0  0  0  0  0  0  0  0  0  0  0  0
   -2.1920   17.9340  -33.0120 C   0  0  0  0  0  0  0  0  0  0  0  0
   -3.6450   18.3320  -33.3910 C   0  0  0  0  0  0  0  0  0  0  0  0
   -3.6210   19.0380  -34.6150 O   0  0  0  0  0  0  0  0  0  0  0  0
   -4.6000   17.1340  -33.5260 C   0  0  0  0  0  0  0  0  0  0  0  0
   -5.9930   17.2730  -33.7520 C   0  0  0  0  0  0  0  0  0  0  0  0
   -6.8000   16.1430  -33.9190 C   0  0  0  0  0  0  0  0  0  0  0  0
   -6.2410   14.8590  -33.8740 C   0  0  0  0  0  0  0  0  0  0  0  0
   -4.8770   14.7040  -33.6540 C   0  0  0  0  0  0  0  0  0  0  0  0
   -4.0600   15.8270  -33.4840 C   0  0  0  0  0  0  0  0  0  0  0  0
   -4.1880   19.2760  -32.2920 C   0  0  0  0  0  0  0  0  0  0  0  0
   -3.2820   20.5000  -32.0840 C   0  0  0  0  0  0  0  0  0  0  0  0
   -0.5880   21.0256  -28.1635 H   0  0  0  0  0  0  0  0  0  0  0  0
   -1.4331   22.9038  -26.7519 H   0  0  0  0  0  0  0  0  0  0  0  0
   -3.6180   25.5950  -27.9300 H   0  0  0  0  0  0  0  0  0  0  0  0
   -7.5859   23.6357  -29.2942 H   0  0  0  0  0  0  0  0  0  0  0  0
   -8.7338   21.6460  -30.2794 H   0  0  0  0  0  0  0  0  0  0  0  0
   -7.8342   20.5656  -32.3479 H   0  0  0  0  0  0  0  0  0  0  0  0
   -5.7856   21.4789  -33.4368 H   0  0  0  0  0  0  0  0  0  0  0  0
   -4.6630   23.4970  -32.4917 H   0  0  0  0  0  0  0  0  0  0  0  0
   -2.6135   22.7042  -31.6131 H   0  0  0  0  0  0  0  0  0  0  0  0
   -1.2238   19.6856  -33.8300 H   0  0  0  0  0  0  0  0  0  0  0  0
   -0.3014   18.8609  -32.5254 H   0  0  0  0  0  0  0  0  0  0  0  0
   -1.7790   17.2887  -33.8013 H   0  0  0  0  0  0  0  0  0  0  0  0
   -2.2158   17.4017  -32.0497 H   0  0  0  0  0  0  0  0  0  0  0  0
   -3.4040   18.3840  -35.3380 H   0  0  0  0  0  0  0  0  0  0  0  0
   -6.4419   18.2763  -33.7963 H   0  0  0  0  0  0  0  0  0  0  0  0
   -7.8805   16.2631  -34.0867 H   0  0  0  0  0  0  0  0  0  0  0  0
   -6.8805   13.9748  -34.0126 H   0  0  0  0  0  0  0  0  0  0  0  0
   -4.4390   13.6958  -33.6135 H   0  0  0  0  0  0  0  0  0  0  0  0
   -2.9815   15.6917  -33.3151 H   0  0  0  0  0  0  0  0  0  0  0  0
   -5.1904   19.6219  -32.5846 H   0  0  0  0  0  0  0  0  0  0  0  0
   -4.2208   18.7135  -31.3472 H   0  0  0  0  0  0  0  0  0  0  0  0
   -3.3343   21.1436  -32.9745 H   0  0  0  0  0  0  0  0  0  0  0  0
   -3.6275   21.0493  -31.1958 H   0  0  0  0  0  0  0  0  0  0  0  0
  1  2  2  0
  2  3  1  0
  3  4  2  0
  4  5  1  0
  5  6  2  0
  6  7  1  0
  6  8  1  0
  8  9  1  0
  9 10  1  0
 10 11  2  0
 10 12  2  0
 10 13  1  0
 13 14  2  0
 14 15  1  0
 15 16  2  0
 16 17  1  0
 17 18  2  0
  8 19  2  0
  2 20  1  0
 20 21  1  0
 21 22  1  0
 22 23  1  0
 23 24  1  0
 23 25  1  0
 25 26  2  0
 26 27  1  0
 27 28  2  0
 28 29  1  0
 29 30  2  0
 23 31  1  0
 31 32  1  0
 19  3  1  0
 32 20  1  0
 18 13  1  0
 30 25  1  0
  4 33  1  0
  5 34  1  0
  7 35  1  0
 14 36  1  0
 15 37  1  0
 16 38  1  0
 17 39  1  0
 18 40  1  0
 19 41  1  0
 21 42  1  0
 21 43  1  0
 22 44  1  0
 22 45  1  0
 24 46  1  0
 26 47  1  0
 27 48  1  0
 28 49  1  0
 29 50  1  0
 30 51  1  0
 31 52  1  0
 31 53  1  0
 32 54  1  0
 32 55  1  0
M  CHG  1   9  -1
M  END
>  <UniqueID>  (8) 
8

>  <SMILES>  (8) 
O=C(c1ccc(O)c([N-]S(=O)(=O)c2ccccc2)c1)N1CCC(O)(c2ccccc2)CC1

>  <Energy>  (8) 
77.77387859104458

>  <Genealogy>  (8) 
O=C(c1ccc(O)c([N-]S(=O)(=O)c2ccccc2)c1)N1CCC(O)(c2ccccc2)CC1 (protonated)
O=C(c1ccc(O)c([N-]S(=O)(=O)c2ccccc2)c1)N1CCC(O)(c2ccccc2)CC1 (3D coordinates assigned)
O=C(c1ccc(O)c([N-]S(=O)(=O)c2ccccc2)c1)N1CCC(O)(c2ccccc2)CC1 (nonaromatic ring conformer: 77.77387859104458 kcal/mol)

>  <smiles>  (8) 
O=C(c1ccc(O)c(NS(=O)(=O)c2ccccc2)c1)N1CCC(O)(c2ccccc2)CC1

>  <score_type>  (8) 
oracle

>  <origin>  (8) 
adgpu

>  <m_score__min__energy>  (8) 
-11.16

>  <m_primary>  (8) 
energy

$$$$
8:0
     RDKit          3D

 42 43  0  0  0  0  0  0  0  0999 V2000
   -7.4360   23.4440  -31.2960 C   0  0  0  0  0  0  0  0  0  0  0  0
   -6.1500   22.7250  -31.6110 C   0  0  0  0  0  0  0  0  0  0  0  0
   -6.1990   21.5320  -32.3500 C   0  0  0  0  0  0  0  0  0  0  0  0
   -5.0130   20.8450  -32.6670 C   0  0  0  0  0  0  0  0  0  0  0  0
   -5.0230   19.6090  -33.4210 N   0  0  0  0  0  0  0  0  0  0  0  0
   -3.7740   18.9470  -33.8220 C   0  0  0  0  0  0  0  0  0  0  0  0
   -6.3110   19.0100  -33.7900 C   0  0  0  0  0  0  0  0  0  0  0  0
   -3.8260   21.3630  -32.2470 N   0  0  0  0  0  0  0  0  0  0  0  0
   -3.7390   22.5180  -31.5420 C   0  0  0  0  0  0  0  0  0  0  0  0
   -4.8940   23.2380  -31.2110 C   0  0  0  0  0  0  0  0  0  0  0  0
   -4.7420   24.7450  -30.2940 S   0  0  0  0  0  0  0  0  0  0  0  0
   -5.0860   25.9110  -31.1780 O   0  0  0  0  0  0  0  0  0  0  0  0
   -5.6790   24.6840  -29.1200 O   0  0  0  0  0  0  0  0  0  0  0  0
   -3.1150   24.9190  -29.7230 N   0  0  0  0  0  0  0  0  0  0  0  0
   -2.4840   24.0940  -28.7370 C   0  0  0  0  0  0  0  0  0  0  0  0
   -2.8210   24.0610  -27.4000 C   0  0  0  0  0  0  0  0  0  0  0  0
   -3.8370   24.9210  -26.7230 C   0  0  0  0  0  0  0  0  0  0  0  0
   -2.0260   23.1860  -26.7570 N   0  0  0  0  0  0  0  0  0  0  0  0
   -1.2150   22.6430  -27.6540 N   0  0  0  0  0  0  0  0  0  0  0  0
   -0.2360   21.6140  -27.3210 C   0  0  0  0  0  0  0  0  0  0  0  0
   -1.4720   23.1550  -28.8810 C   0  0  0  0  0  0  0  0  0  0  0  0
   -0.8170   22.7030  -30.1530 C   0  0  0  0  0  0  0  0  0  0  0  0
   -7.5597   23.5132  -30.2052 H   0  0  0  0  0  0  0  0  0  0  0  0
   -7.4053   24.4558  -31.7264 H   0  0  0  0  0  0  0  0  0  0  0  0
   -8.2819   22.8879  -31.7264 H   0  0  0  0  0  0  0  0  0  0  0  0
   -7.1687   21.1330  -32.6824 H   0  0  0  0  0  0  0  0  0  0  0  0
   -3.2123   18.6493  -32.9243 H   0  0  0  0  0  0  0  0  0  0  0  0
   -4.0080   18.0545  -34.4209 H   0  0  0  0  0  0  0  0  0  0  0  0
   -3.1667   19.6416  -34.4209 H   0  0  0  0  0  0  0  0  0  0  0  0
   -6.8692   18.7504  -32.8784 H   0  0  0  0  0  0  0  0  0  0  0  0
   -6.8933   19.7297  -34.3841 H   0  0  0  0  0  0  0  0  0  0  0  0
   -6.1358   18.1009  -34.3841 H   0  0  0  0  0  0  0  0  0  0  0  0
   -2.7537   22.8925  -31.2276 H   0  0  0  0  0  0  0  0  0  0  0  0
   -3.7276   24.8284  -25.6324 H   0  0  0  0  0  0  0  0  0  0  0  0
   -3.6856   25.9696  -27.0190 H   0  0  0  0  0  0  0  0  0  0  0  0
   -4.8462   24.5985  -27.0190 H   0  0  0  0  0  0  0  0  0  0  0  0
   -0.1531   21.5269  -26.2276 H   0  0  0  0  0  0  0  0  0  0  0  0
   -0.5590   20.6505  -27.7422 H   0  0  0  0  0  0  0  0  0  0  0  0
    0.7424   21.8887  -27.7422 H   0  0  0  0  0  0  0  0  0  0  0  0
    0.0667   22.0932  -29.9138 H   0  0  0  0  0  0  0  0  0  0  0  0
   -1.5289   22.1030  -30.7389 H   0  0  0  0  0  0  0  0  0  0  0  0
   -0.5086   23.5814  -30.7389 H   0  0  0  0  0  0  0  0  0  0  0  0
  1  2  1  0
  2  3  2  0
  3  4  1  0
  4  5  1  0
  5  6  1  0
  5  7  1  0
  4  8  2  0
  8  9  1  0
  9 10  2  0
 10 11  1  0
 11 12  2  0
 11 13  2  0
 11 14  1  0
 14 15  1  0
 15 16  1  0
 16 17  1  0
 16 18  2  0
 18 19  1  0
 19 20  1  0
 19 21  1  0
 21 22  1  0
 10  2  1  0
 21 15  2  0
  1 23  1  0
  1 24  1  0
  1 25  1  0
  3 26  1  0
  6 27  1  0
  6 28  1  0
  6 29  1  0
  7 30  1  0
  7 31  1  0
  7 32  1  0
  9 33  1  0
 17 34  1  0
 17 35  1  0
 17 36  1  0
 20 37  1  0
 20 38  1  0
 20 39  1  0
 22 40  1  0
 22 41  1  0
 22 42  1  0
M  CHG  1  14  -1
M  END
>  <UniqueID>  (9) 
9

>  <SMILES>  (9) 
Cc1cc(N(C)C)ncc1S(=O)(=O)[N-]c1c(C)nn(C)c1C

>  <Energy>  (9) 
78.79646256338488

>  <Genealogy>  (9) 
Cc1cc(N(C)C)ncc1S(=O)(=O)[N-]c1c(C)nn(C)c1C (protonated)
Cc1cc(N(C)C)ncc1S(=O)(=O)[N-]c1c(C)nn(C)c1C (3D coordinates assigned)
Cc1cc(N(C)C)ncc1S(=O)(=O)[N-]c1c(C)nn(C)c1C (optimized conformer: 78.79646256338488 kcal/mol)

>  <smiles>  (9) 
Cc1cc(N(C)C)ncc1S(=O)(=O)Nc1c(C)nn(C)c1C

>  <score_type>  (9) 
oracle

>  <origin>  (9) 
adgpu

>  <m_score__min__energy>  (9) 
-8.2200000000000006

>  <m_primary>  (9) 
energy

$$$$
9:0
     RDKit          3D

 67 71  0  0  0  0  0  0  0  0999 V2000
   -6.7080   24.3590  -30.2170 C   0  0  0  0  0  0  0  0  0  0  0  0
   -5.5330   23.6870  -30.8530 C   0  0  0  0  0  0  0  0  0  0  0  0
   -4.2870   24.1980  -30.8400 N   0  0  0  0  0  0  0  0  0  0  0  0
   -3.5180   23.3490  -31.4590 O   0  0  0  0  0  0  0  0  0  0  0  0
   -4.1960   22.3020  -31.8720 C   0  0  0  0  0  0  0  0  0  0  0  0
   -3.5780   21.1450  -32.5990 C   0  0  0  0  0  0  0  0  0  0  0  0
   -2.7130   21.6080  -33.6940 N   0  0  0  0  0  0  0  0  0  0  0  0
   -1.3280   21.1170  -33.5910 C   0  0  0  0  0  0  0  0  0  0  0  0
   -1.0440   20.4650  -32.2600 C   0  0  0  0  0  0  0  0  0  0  0  0
   -0.6560   19.1170  -32.1970 C   0  0  0  0  0  0  0  0  0  0  0  0
   -0.3840   18.5210  -30.9650 C   0  0  0  0  0  0  0  0  0  0  0  0
   -0.4920   19.2600  -29.7850 C   0  0  0  0  0  0  0  0  0  0  0  0
   -0.8750   20.6130  -29.8260 C   0  0  0  0  0  0  0  0  0  0  0  0
   -0.9780   21.4050  -28.5750 C   0  0  0  0  0  0  0  0  0  0  0  0
   -0.8160   20.7860  -27.3220 C   0  0  0  0  0  0  0  0  0  0  0  0
   -0.9170   21.5350  -26.1460 C   0  0  0  0  0  0  0  0  0  0  0  0
   -1.1770   22.9050  -26.2050 C   0  0  0  0  0  0  0  0  0  0  0  0
   -1.3330   23.5380  -27.4460 C   0  0  0  0  0  0  0  0  0  0  0  0
   -1.6780   25.2630  -27.5350 S   0  0  0  0  0  0  0  0  0  0  0  0
   -2.9020   25.5440  -26.7070 O   0  0  0  0  0  0  0  0  0  0  0  0
   -1.9720   25.6520  -28.9570 O   0  0  0  0  0  0  0  0  0  0  0  0
   -0.3330   26.1940  -26.9110 N   0  0  0  0  0  0  0  0  0  0  0  0
   -0.7770   27.2920  -26.0280 C   0  0  0  0  0  0  0  0  0  0  0  0
   -1.2530   26.7950  -24.6500 C   0  0  0  0  0  0  0  0  0  0  0  0
   -0.3950   25.6450  -24.0920 C   0  0  0  0  0  0  0  0  0  0  0  0
    0.9420   25.5260  -24.8200 C   0  0  0  0  0  0  0  0  0  0  0  0
    0.7220   25.3260  -26.3310 C   0  0  0  0  0  0  0  0  0  0  0  0
   -1.2390   22.7860  -28.6240 C   0  0  0  0  0  0  0  0  0  0  0  0
   -1.1520   21.2070  -31.0720 C   0  0  0  0  0  0  0  0  0  0  0  0
   -5.5220   22.4640  -31.5050 C   0  0  0  0  0  0  0  0  0  0  0  0
   -6.6500   21.5330  -31.7130 C   0  0  0  0  0  0  0  0  0  0  0  0
   -7.9640   22.0160  -31.8180 C   0  0  0  0  0  0  0  0  0  0  0  0
   -9.0270   21.1300  -32.0190 C   0  0  0  0  0  0  0  0  0  0  0  0
   -8.7870   19.7560  -32.1170 C   0  0  0  0  0  0  0  0  0  0  0  0
   -7.4830   19.2670  -32.0100 C   0  0  0  0  0  0  0  0  0  0  0  0
   -6.4170   20.1500  -31.8080 C   0  0  0  0  0  0  0  0  0  0  0  0
   -6.6132   24.3048  -29.1224 H   0  0  0  0  0  0  0  0  0  0  0  0
   -6.7416   25.4129  -30.5304 H   0  0  0  0  0  0  0  0  0  0  0  0
   -7.6334   23.8536  -30.5304 H   0  0  0  0  0  0  0  0  0  0  0  0
   -2.9767   20.5558  -31.8910 H   0  0  0  0  0  0  0  0  0  0  0  0
   -4.3841   20.5308  -33.0268 H   0  0  0  0  0  0  0  0  0  0  0  0
   -3.1250   21.2820  -34.6000 H   0  0  0  0  0  0  0  0  0  0  0  0
   -1.1546   20.3801  -34.3890 H   0  0  0  0  0  0  0  0  0  0  0  0
   -0.6578   21.9837  -33.6886 H   0  0  0  0  0  0  0  0  0  0  0  0
   -0.5661   18.5287  -33.1221 H   0  0  0  0  0  0  0  0  0  0  0  0
   -0.0830   17.4638  -30.9230 H   0  0  0  0  0  0  0  0  0  0  0  0
   -0.2764   18.7816  -28.8182 H   0  0  0  0  0  0  0  0  0  0  0  0
   -0.6088   19.7071  -27.2674 H   0  0  0  0  0  0  0  0  0  0  0  0
   -0.7911   21.0427  -25.1704 H   0  0  0  0  0  0  0  0  0  0  0  0
   -1.2596   23.4888  -25.2764 H   0  0  0  0  0  0  0  0  0  0  0  0
    0.0637   27.9858  -25.8801 H   0  0  0  0  0  0  0  0  0  0  0  0
   -1.6315   27.7840  -26.5157 H   0  0  0  0  0  0  0  0  0  0  0  0
   -1.2139   27.6360  -23.9421 H   0  0  0  0  0  0  0  0  0  0  0  0
   -2.2754   26.4093  -24.7762 H   0  0  0  0  0  0  0  0  0  0  0  0
   -0.2034   25.8299  -23.0247 H   0  0  0  0  0  0  0  0  0  0  0  0
   -0.9477   24.7054  -24.2391 H   0  0  0  0  0  0  0  0  0  0  0  0
    1.5245   26.4450  -24.6583 H   0  0  0  0  0  0  0  0  0  0  0  0
    1.4851   24.6557  -24.4230 H   0  0  0  0  0  0  0  0  0  0  0  0
    1.6685   25.5400  -26.8490 H   0  0  0  0  0  0  0  0  0  0  0  0
    0.3877   24.2870  -26.4676 H   0  0  0  0  0  0  0  0  0  0  0  0
   -1.3707   23.2808  -29.5976 H   0  0  0  0  0  0  0  0  0  0  0  0
   -1.4562   22.2632  -31.1158 H   0  0  0  0  0  0  0  0  0  0  0  0
   -8.1582   23.0960  -31.7418 H   0  0  0  0  0  0  0  0  0  0  0  0
  -10.0543   21.5148  -32.1002 H   0  0  0  0  0  0  0  0  0  0  0  0
   -9.6242   19.0609  -32.2782 H   0  0  0  0  0  0  0  0  0  0  0  0
   -7.2940   18.1859  -32.0847 H   0  0  0  0  0  0  0  0  0  0  0  0
   -5.3918   19.7604  -31.7231 H   0  0  0  0  0  0  0  0  0  0  0  0
  1  2  1  0
  2  3  2  0
  3  4  1  0
  4  5  1  0
  5  6  1  0
  6  7  1  0
  7  8  1  0
  8  9  1  0
  9 10  2  0
 10 11  1  0
 11 12  2  0
 12 13  1  0
 13 14  1  0
 14 15  2  0
 15 16  1  0
 16 17  2  0
 17 18  1  0
 18 19  1  0
 19 20  2  0
 19 21  2  0
 19 22  1  0
 22 23  1  0
 23 24  1  0
 24 25  1  0
 25 26  1  0
 26 27  1  0
 18 28  2  0
 13 29  2  0
  5 30  2  0
 30 31  1  0
 31 32  2  0
 32 33  1  0
 33 34  2  0
 34 35  1  0
 35 36  2  0
 30  2  1  0
 36 31  1  0
 29  9  1  0
 28 14  1  0
 27 22  1  0
  1 37  1  0
  1 38  1  0
  1 39  1  0
  6 40  1  0
  6 41  1  0
  7 42  1  0
  8 43  1  0
  8 44  1  0
 10 45  1  0
 11 46  1  0
 12 47  1  0
 15 48  1  0
 16 49  1  0
 17 50  1  0
 23 51  1  0
 23 52  1  0
 24 53  1  0
 24 54  1  0
 25 55  1  0
 25 56  1  0
 26 57  1  0
 26 58  1  0
 27 59  1  0
 27 60  1  0
 28 61  1  0
 29 62  1  0
 32 63  1  0
 33 64  1  0
 34 65  1  0
 35 66  1  0
 36 67  1  0
M  END
>  <UniqueID>  (10) 
10

>  <SMILES>  (10) 
Cc1noc(CNCc2cccc(-c3cccc(S(=O)(=O)N4CCCCC4)c3)c2)c1-c1ccccc1

>  <Energy>  (10) 
118.30873821351379

>  <Genealogy>  (10) 
Cc1noc(CNCc2cccc(-c3cccc(S(=O)(=O)N4CCCCC4)c3)c2)c1-c1ccccc1 (3D coordinates assigned)
Cc1noc(CNCc2cccc(-c3cccc(S(=O)(=O)N4CCCCC4)c3)c2)c1-c1ccccc1 (nonaromatic ring conformer: 118.30873821351379 kcal/mol)

>  <smiles>  (10) 
Cc1noc(CNCc2cccc(-c3cccc(S(=O)(=O)N4CCCCC4)c3)c2)c1-c1ccccc1

>  <score_type>  (10) 
oracle

>  <origin>  (10) 
adgpu

>  <m_score__min__energy>  (10) 
-12.48

>  <m_primary>  (10) 
energy

$$$$
10:0
     RDKit          3D

 62 65  0  0  0  0  0  0  0  0999 V2000
   -1.0240   18.9930  -33.1430 C   0  0  0  0  0  0  0  0  0  0  0  0
   -2.4620   18.9450  -32.9340 N   0  0  0  0  0  0  0  0  0  0  0  0
   -3.3500   19.9620  -33.4090 C   0  0  0  0  0  0  0  0  0  0  0  0
   -2.8860   21.0120  -33.9270 O   0  0  0  0  0  0  0  0  0  0  0  0
   -4.8080   19.7870  -33.2440 C   0  0  0  0  0  0  0  0  0  0  0  0
   -5.5390   20.8670  -32.7230 C   0  0  0  0  0  0  0  0  0  0  0  0
   -6.9220   20.7740  -32.5230 C   0  0  0  0  0  0  0  0  0  0  0  0
   -7.6460   21.8620  -31.9240 N   0  0  0  0  0  0  0  0  0  0  0  0
   -7.9530   21.8070  -30.4870 C   0  0  0  0  0  0  0  0  0  0  0  0
   -7.5330   23.1170  -29.7960 C   0  0  0  0  0  0  0  0  0  0  0  0
   -6.4800   23.7730  -30.5820 N   0  0  0  0  0  0  0  0  0  0  0  0
   -5.1110   23.7980  -30.1370 C   0  0  0  0  0  0  0  0  0  0  0  0
   -4.3590   24.9360  -29.9060 C   0  0  0  0  0  0  0  0  0  0  0  0
   -3.0880   24.4820  -29.6040 C   0  0  0  0  0  0  0  0  0  0  0  0
   -2.0020   25.3050  -29.3320 O   0  0  0  0  0  0  0  0  0  0  0  0
   -3.0260   23.1330  -29.6490 N   0  0  0  0  0  0  0  0  0  0  0  0
   -1.8650   22.3140  -29.4260 C   0  0  0  0  0  0  0  0  0  0  0  0
   -1.2500   21.6460  -30.4970 C   0  0  0  0  0  0  0  0  0  0  0  0
   -0.1340   20.8340  -30.2740 C   0  0  0  0  0  0  0  0  0  0  0  0
    0.3780   20.6760  -28.9800 C   0  0  0  0  0  0  0  0  0  0  0  0
    1.7660   19.6250  -28.7130 S   0  0  0  0  0  0  0  0  0  0  0  0
    1.2320   18.1260  -27.9170 C   0  0  0  0  0  0  0  0  0  0  0  0
    2.7780   20.3090  -27.8380 O   0  0  0  0  0  0  0  0  0  0  0  0
    2.4070   19.2980  -30.0330 O   0  0  0  0  0  0  0  0  0  0  0  0
   -0.2310   21.3450  -27.9080 C   0  0  0  0  0  0  0  0  0  0  0  0
   -1.3420   22.1620  -28.1300 C   0  0  0  0  0  0  0  0  0  0  0  0
   -4.2630   22.7130  -29.9820 C   0  0  0  0  0  0  0  0  0  0  0  0
   -4.6110   21.3790  -30.1560 O   0  0  0  0  0  0  0  0  0  0  0  0
   -6.8070   24.1800  -31.9570 C   0  0  0  0  0  0  0  0  0  0  0  0
   -7.7550   23.1570  -32.6110 C   0  0  0  0  0  0  0  0  0  0  0  0
   -7.5840   19.5870  -32.8460 C   0  0  0  0  0  0  0  0  0  0  0  0
   -6.8750   18.5050  -33.3670 C   0  0  0  0  0  0  0  0  0  0  0  0
   -5.4840   18.5790  -33.5620 C   0  0  0  0  0  0  0  0  0  0  0  0
   -4.6330   17.1190  -34.1050 S   0  0  0  0  0  0  0  0  0  0  0  0
   -3.7800   16.3420  -32.7460 C   0  0  0  0  0  0  0  0  0  0  0  0
   -3.6620   17.4650  -35.1990 O   0  0  0  0  0  0  0  0  0  0  0  0
   -5.6220   16.1230  -34.6460 O   0  0  0  0  0  0  0  0  0  0  0  0
   -0.5123   19.0101  -32.1694 H   0  0  0  0  0  0  0  0  0  0  0  0
   -0.7059   18.1050  -33.7089 H   0  0  0  0  0  0  0  0  0  0  0  0
   -0.7658   19.9003  -33.7089 H   0  0  0  0  0  0  0  0  0  0  0  0
   -5.0169   21.8010  -32.4679 H   0  0  0  0  0  0  0  0  0  0  0  0
   -9.0346   21.6577  -30.3533 H   0  0  0  0  0  0  0  0  0  0  0  0
   -7.3966   20.9722  -30.0358 H   0  0  0  0  0  0  0  0  0  0  0  0
   -8.4030   23.7857  -29.7194 H   0  0  0  0  0  0  0  0  0  0  0  0
   -7.1512   22.8927  -28.7891 H   0  0  0  0  0  0  0  0  0  0  0  0
   -4.6998   25.9808  -29.9527 H   0  0  0  0  0  0  0  0  0  0  0  0
   -1.6480   21.7621  -31.5159 H   0  0  0  0  0  0  0  0  0  0  0  0
    0.3442   20.3168  -31.1188 H   0  0  0  0  0  0  0  0  0  0  0  0
    1.2777   18.2542  -26.8254 H   0  0  0  0  0  0  0  0  0  0  0  0
    0.1980   17.9000  -28.2167 H   0  0  0  0  0  0  0  0  0  0  0  0
    1.8902   17.2972  -28.2167 H   0  0  0  0  0  0  0  0  0  0  0  0
    0.1675   21.2259  -26.8897 H   0  0  0  0  0  0  0  0  0  0  0  0
   -1.8103   22.6895  -27.2859 H   0  0  0  0  0  0  0  0  0  0  0  0
   -7.2960   25.1651  -31.9364 H   0  0  0  0  0  0  0  0  0  0  0  0
   -5.8780   24.2302  -32.5438 H   0  0  0  0  0  0  0  0  0  0  0  0
   -8.7903   23.5217  -32.5394 H   0  0  0  0  0  0  0  0  0  0  0  0
   -7.4771   23.0304  -33.6678 H   0  0  0  0  0  0  0  0  0  0  0  0
   -8.6696   19.5054  -32.6886 H   0  0  0  0  0  0  0  0  0  0  0  0
   -7.4110   17.5809  -33.6291 H   0  0  0  0  0  0  0  0  0  0  0  0
   -4.1890   16.7146  -31.7953 H   0  0  0  0  0  0  0  0  0  0  0  0
   -3.9171   15.2520  -32.8021 H   0  0  0  0  0  0  0  0  0  0  0  0
   -2.7075   16.5800  -32.8021 H   0  0  0  0  0  0  0  0  0  0  0  0
  1  2  1  0
  2  3  1  0
  3  4  2  0
  3  5  1  0
  5  6  2  0
  6  7  1  0
  7  8  1  0
  8  9  1  0
  9 10  1  0
 10 11  1  0
 11 12  1  0
 12 13  1  0
 13 14  2  0
 14 15  1  0
 14 16  1  0
 16 17  1  0
 17 18  2  0
 18 19  1  0
 19 20  2  0
 20 21  1  0
 21 22  1  0
 21 23  2  0
 21 24  2  0
 20 25  1  0
 25 26  2  0
 16 27  1  0
 27 28  1  0
 11 29  1  0
 29 30  1  0
  7 31  2  0
 31 32  1  0
 32 33  2  0
 33 34  1  0
 34 35  1  0
 34 36  2  0
 34 37  2  0
 33  5  1  0
 30  8  1  0
 27 12  2  0
 26 17  1  0
  1 38  1  0
  1 39  1  0
  1 40  1  0
  6 41  1  0
  9 42  1  0
  9 43  1  0
 10 44  1  0
 10 45  1  0
 13 46  1  0
 18 47  1  0
 19 48  1  0
 22 49  1  0
 22 50  1  0
 22 51  1  0
 25 52  1  0
 26 53  1  0
 29 54  1  0
 29 55  1  0
 30 56  1  0
 30 57  1  0
 31 58  1  0
 32 59  1  0
 35 60  1  0
 35 61  1  0
 35 62  1  0
M  CHG  3   2  -1  15  -1  28  -1
M  END
>  <UniqueID>  (11) 
11

>  <SMILES>  (11) 
C[N-]C(=O)c1cc(N2CCN(c3cc([O-])n(-c4ccc(S(C)(=O)=O)cc4)c3[O-])CC2)ccc1S(C)(=O)=O

>  <Energy>  (11) 
109.98391613749725

>  <Genealogy>  (11) 
C[N-]C(=O)c1cc(N2CCN(c3cc([O-])n(-c4ccc(S(C)(=O)=O)cc4)c3[O-])CC2)ccc1S(C)(=O)=O (protonated)
C[N-]C(=O)c1cc(N2CCN(c3cc([O-])n(-c4ccc(S(C)(=O)=O)cc4)c3[O-])CC2)ccc1S(C)(=O)=O (3D coordinates assigned)
C[N-]C(=O)c1cc(N2CCN(c3cc([O-])n(-c4ccc(S(C)(=O)=O)cc4)c3[O-])CC2)ccc1S(C)(=O)=O (nonaromatic ring conformer: 109.98391613749725 kcal/mol)

>  <smiles>  (11) 
CNC(=O)c1cc(N2CCN(c3cc(O)n(-c4ccc(S(C)(=O)=O)cc4)c3O)CC2)ccc1S(C)(=O)=O

>  <score_type>  (11) 
oracle

>  <origin>  (11) 
adgpu

>  <m_score__min__energy>  (11) 
-11.84

>  <m_primary>  (11) 
energy

$$$$
11:0
     RDKit          3D

 65 68  0  0  0  0  0  0  0  0999 V2000
   -4.6230   13.6930  -31.7560 C   0  0  0  0  0  0  0  0  0  0  0  0
   -4.5610   14.8810  -32.6730 C   0  0  0  0  0  0  0  0  0  0  0  0
   -3.9030   14.7860  -33.9090 C   0  0  0  0  0  0  0  0  0  0  0  0
   -3.8770   15.8790  -34.7850 C   0  0  0  0  0  0  0  0  0  0  0  0
   -3.1280   15.7870  -36.0810 C   0  0  0  0  0  0  0  0  0  0  0  0
   -4.5000   17.0780  -34.4130 C   0  0  0  0  0  0  0  0  0  0  0  0
   -5.1820   17.1740  -33.1940 C   0  0  0  0  0  0  0  0  0  0  0  0
   -5.9840   18.6720  -32.7270 S   0  0  0  0  0  0  0  0  0  0  0  0
   -6.7880   18.3920  -31.4910 O   0  0  0  0  0  0  0  0  0  0  0  0
   -6.9110   19.1070  -33.8250 O   0  0  0  0  0  0  0  0  0  0  0  0
   -4.8060   19.9600  -32.4120 C   0  0  0  0  0  0  0  0  0  0  0  0
   -3.4400   19.6380  -32.4190 C   0  0  0  0  0  0  0  0  0  0  0  0
   -2.4790   20.6030  -32.1240 C   0  0  0  0  0  0  0  0  0  0  0  0
   -2.8650   21.9070  -31.8290 C   0  0  0  0  0  0  0  0  0  0  0  0
   -4.2200   22.2690  -31.8530 C   0  0  0  0  0  0  0  0  0  0  0  0
   -4.6100   23.6180  -31.5590 N   0  0  0  0  0  0  0  0  0  0  0  0
   -4.1290   24.4050  -30.4630 C   0  0  0  0  0  0  0  0  0  0  0  0
   -4.2330   25.6590  -30.5280 O   0  0  0  0  0  0  0  0  0  0  0  0
   -3.5080   23.7840  -29.3230 N   0  0  0  0  0  0  0  0  0  0  0  0
   -2.8400   24.5100  -28.2790 C   0  0  0  0  0  0  0  0  0  0  0  0
   -1.6770   25.2310  -28.5810 C   0  0  0  0  0  0  0  0  0  0  0  0
   -1.0230   25.9680  -27.5910 C   0  0  0  0  0  0  0  0  0  0  0  0
   -1.5310   26.0030  -26.2840 C   0  0  0  0  0  0  0  0  0  0  0  0
   -0.6940   26.9180  -25.0250 S   0  0  0  0  0  0  0  0  0  0  0  0
   -0.9930   28.3800  -25.1970 O   0  0  0  0  0  0  0  0  0  0  0  0
   -1.2100   26.4930  -23.6780 O   0  0  0  0  0  0  0  0  0  0  0  0
    1.0370   26.6680  -25.0870 N   0  0  0  0  0  0  0  0  0  0  0  0
    1.6390   26.8820  -23.7560 C   0  0  0  0  0  0  0  0  0  0  0  0
    3.0010   26.1700  -23.6550 C   0  0  0  0  0  0  0  0  0  0  0  0
    2.9270   24.7580  -23.8340 O   0  0  0  0  0  0  0  0  0  0  0  0
    1.8090   24.3340  -24.6040 C   0  0  0  0  0  0  0  0  0  0  0  0
    1.3800   25.3550  -25.6760 C   0  0  0  0  0  0  0  0  0  0  0  0
   -2.7130   25.3120  -25.9870 C   0  0  0  0  0  0  0  0  0  0  0  0
   -3.3670   24.5730  -26.9770 C   0  0  0  0  0  0  0  0  0  0  0  0
   -5.2050   21.2940  -32.1300 C   0  0  0  0  0  0  0  0  0  0  0  0
   -6.6260   21.7000  -32.1640 C   0  0  0  0  0  0  0  0  0  0  0  0
   -7.6300   20.8450  -31.6260 N   0  0  0  0  0  0  0  0  0  0  0  0
   -6.9580   22.7880  -32.7030 O   0  0  0  0  0  0  0  0  0  0  0  0
   -5.2130   16.0740  -32.3290 C   0  0  0  0  0  0  0  0  0  0  0  0
   -4.6051   14.0353  -30.7108 H   0  0  0  0  0  0  0  0  0  0  0  0
   -5.5516   13.1337  -31.9428 H   0  0  0  0  0  0  0  0  0  0  0  0
   -3.7577   13.0400  -31.9428 H   0  0  0  0  0  0  0  0  0  0  0  0
   -3.4044   13.8472  -34.1918 H   0  0  0  0  0  0  0  0  0  0  0  0
   -2.0553   15.6552  -35.8760 H   0  0  0  0  0  0  0  0  0  0  0  0
   -3.4991   14.9277  -36.6588 H   0  0  0  0  0  0  0  0  0  0  0  0
   -3.2801   16.7106  -36.6588 H   0  0  0  0  0  0  0  0  0  0  0  0
   -4.4529   17.9492  -35.0830 H   0  0  0  0  0  0  0  0  0  0  0  0
   -3.1244   18.6122  -32.6601 H   0  0  0  0  0  0  0  0  0  0  0  0
   -1.4126   20.3333  -32.1243 H   0  0  0  0  0  0  0  0  0  0  0  0
   -2.1028   22.6585  -31.5754 H   0  0  0  0  0  0  0  0  0  0  0  0
   -3.5700   22.7470  -29.2190 H   0  0  0  0  0  0  0  0  0  0  0  0
   -1.2761   25.2165  -29.6053 H   0  0  0  0  0  0  0  0  0  0  0  0
   -0.1059   26.5232  -27.8373 H   0  0  0  0  0  0  0  0  0  0  0  0
    1.7821   27.9605  -23.5934 H   0  0  0  0  0  0  0  0  0  0  0  0
    0.9651   26.4675  -22.9917 H   0  0  0  0  0  0  0  0  0  0  0  0
    3.6663   26.5830  -24.4275 H   0  0  0  0  0  0  0  0  0  0  0  0
    3.3787   26.3443  -22.6367 H   0  0  0  0  0  0  0  0  0  0  0  0
    2.0692   23.3904  -25.1058 H   0  0  0  0  0  0  0  0  0  0  0  0
    0.9632   24.2173  -23.9105 H   0  0  0  0  0  0  0  0  0  0  0  0
    2.2074   25.4907  -26.3881 H   0  0  0  0  0  0  0  0  0  0  0  0
    0.4827   24.9634  -26.1775 H   0  0  0  0  0  0  0  0  0  0  0  0
   -3.1286   25.3512  -24.9693 H   0  0  0  0  0  0  0  0  0  0  0  0
   -4.2978   24.0385  -26.7364 H   0  0  0  0  0  0  0  0  0  0  0  0
   -7.9630   20.0080  -32.1500 H   0  0  0  0  0  0  0  0  0  0  0  0
   -5.7524   16.1458  -31.3730 H   0  0  0  0  0  0  0  0  0  0  0  0
  1  2  1  0
  2  3  2  0
  3  4  1  0
  4  5  1  0
  4  6  2  0
  6  7  1  0
  7  8  1  0
  8  9  2  0
  8 10  2  0
  8 11  1  0
 11 12  2  0
 12 13  1  0
 13 14  2  0
 14 15  1  0
 15 16  1  0
 16 17  1  0
 17 18  2  0
 17 19  1  0
 19 20  1  0
 20 21  2  0
 21 22  1  0
 22 23  2  0
 23 24  1  0
 24 25  2  0
 24 26  2  0
 24 27  1  0
 27 28  1  0
 28 29  1  0
 29 30  1  0
 30 31  1  0
 31 32  1  0
 23 33  1  0
 33 34  2  0
 15 35  2  0
 35 36  1  0
 36 37  1  0
 36 38  2  0
  7 39  2  0
 39  2  1  0
 35 11  1  0
 34 20  1  0
 32 27  1  0
  1 40  1  0
  1 41  1  0
  1 42  1  0
  3 43  1  0
  5 44  1  0
  5 45  1  0
  5 46  1  0
  6 47  1  0
 12 48  1  0
 13 49  1  0
 14 50  1  0
 19 51  1  0
 21 52  1  0
 22 53  1  0
 28 54  1  0
 28 55  1  0
 29 56  1  0
 29 57  1  0
 31 58  1  0
 31 59  1  0
 32 60  1  0
 32 61  1  0
 33 62  1  0
 34 63  1  0
 37 64  1  0
 39 65  1  0
M  CHG  2  16  -1  37  -1
M  END
>  <UniqueID>  (12) 
12

>  <SMILES>  (12) 
Cc1cc(C)cc(S(=O)(=O)c2cccc([N-]C(=O)Nc3ccc(S(=O)(=O)N4CCOCC4)cc3)c2C([NH-])=O)c1

>  <Energy>  (12) 
97.50999964997533

>  <Genealogy>  (12) 
Cc1cc(C)cc(S(=O)(=O)c2cccc([N-]C(=O)Nc3ccc(S(=O)(=O)N4CCOCC4)cc3)c2C([NH-])=O)c1 (protonated)
Cc1cc(C)cc(S(=O)(=O)c2cccc([N-]C(=O)Nc3ccc(S(=O)(=O)N4CCOCC4)cc3)c2C([NH-])=O)c1 (3D coordinates assigned)
Cc1cc(C)cc(S(=O)(=O)c2cccc([N-]C(=O)Nc3ccc(S(=O)(=O)N4CCOCC4)cc3)c2C([NH-])=O)c1 (nonaromatic ring conformer: 97.50999964997533 kcal/mol)

>  <smiles>  (12) 
Cc1cc(C)cc(S(=O)(=O)c2cccc(NC(=O)Nc3ccc(S(=O)(=O)N4CCOCC4)cc3)c2C(N)=O)c1

>  <score_type>  (12) 
oracle

>  <origin>  (12) 
adgpu

>  <m_score__min__energy>  (12) 
-12.539999999999999

>  <m_primary>  (12) 
energy

$$$$
12:0
     RDKit          3D

 58 61  0  0  0  0  0  0  0  0999 V2000
   -3.9760   16.6430  -34.6880 C   0  0  0  0  0  0  0  0  0  0  0  0
   -5.0690   17.3830  -34.0430 N   0  0  0  0  0  0  0  0  0  0  0  0
   -5.4810   18.5330  -34.8770 C   0  0  0  0  0  0  0  0  0  0  0  0
   -6.5020   19.4260  -34.1390 C   0  0  0  0  0  0  0  0  0  0  0  0
   -6.9670   18.7700  -32.9050 N   0  0  0  0  0  0  0  0  0  0  0  0
   -8.1820   19.7540  -32.1230 S   0  0  0  0  0  0  0  0  0  0  0  0
   -8.7660   19.0260  -30.9410 O   0  0  0  0  0  0  0  0  0  0  0  0
   -9.2920   20.0650  -33.0920 O   0  0  0  0  0  0  0  0  0  0  0  0
   -7.4460   21.2650  -31.5950 C   0  0  0  0  0  0  0  0  0  0  0  0
   -6.2740   21.7230  -32.2110 C   0  0  0  0  0  0  0  0  0  0  0  0
   -5.6430   22.8810  -31.7480 C   0  0  0  0  0  0  0  0  0  0  0  0
   -6.1680   23.5860  -30.6540 C   0  0  0  0  0  0  0  0  0  0  0  0
   -5.3010   24.9730  -29.9980 S   0  0  0  0  0  0  0  0  0  0  0  0
   -5.3560   24.9310  -28.4960 O   0  0  0  0  0  0  0  0  0  0  0  0
   -5.9370   26.2570  -30.4490 O   0  0  0  0  0  0  0  0  0  0  0  0
   -3.6370   24.8900  -30.4870 N   0  0  0  0  0  0  0  0  0  0  0  0
   -2.6290   24.0600  -29.8920 C   0  0  0  0  0  0  0  0  0  0  0  0
   -2.6200   22.6640  -30.0630 C   0  0  0  0  0  0  0  0  0  0  0  0
   -1.6300   21.8740  -29.4610 C   0  0  0  0  0  0  0  0  0  0  0  0
   -0.6130   22.4900  -28.7040 C   0  0  0  0  0  0  0  0  0  0  0  0
   -0.6260   23.8850  -28.5290 C   0  0  0  0  0  0  0  0  0  0  0  0
   -1.6190   24.6640  -29.1300 C   0  0  0  0  0  0  0  0  0  0  0  0
   -1.6030   26.0450  -28.9570 O   0  0  0  0  0  0  0  0  0  0  0  0
    0.4260   21.6570  -27.9870 C   0  0  0  0  0  0  0  0  0  0  0  0
    0.5880   20.3340  -28.6220 N   0  0  0  0  0  0  0  0  0  0  0  0
    1.5250   19.5130  -27.8350 C   0  0  0  0  0  0  0  0  0  0  0  0
   -0.7170   19.6520  -28.7190 C   0  0  0  0  0  0  0  0  0  0  0  0
   -1.6130   20.3890  -29.7150 C   0  0  0  0  0  0  0  0  0  0  0  0
   -7.3490   23.1350  -30.0460 C   0  0  0  0  0  0  0  0  0  0  0  0
   -7.9860   21.9820  -30.5170 C   0  0  0  0  0  0  0  0  0  0  0  0
   -5.8350   18.5430  -31.9870 C   0  0  0  0  0  0  0  0  0  0  0  0
   -4.6610   17.8380  -32.7020 C   0  0  0  0  0  0  0  0  0  0  0  0
   -3.3262   16.2030  -33.9172 H   0  0  0  0  0  0  0  0  0  0  0  0
   -4.3953   15.8422  -35.3149 H   0  0  0  0  0  0  0  0  0  0  0  0
   -3.3882   17.3297  -35.3149 H   0  0  0  0  0  0  0  0  0  0  0  0
   -4.5927   19.1331  -35.1233 H   0  0  0  0  0  0  0  0  0  0  0  0
   -5.9558   18.1460  -35.7907 H   0  0  0  0  0  0  0  0  0  0  0  0
   -6.0256   20.3836  -33.8820 H   0  0  0  0  0  0  0  0  0  0  0  0
   -7.3663   19.5960  -34.7979 H   0  0  0  0  0  0  0  0  0  0  0  0
   -5.8492   21.1696  -33.0615 H   0  0  0  0  0  0  0  0  0  0  0  0
   -4.7298   23.2418  -32.2439 H   0  0  0  0  0  0  0  0  0  0  0  0
   -3.3985   22.1863  -30.6760 H   0  0  0  0  0  0  0  0  0  0  0  0
    0.1499   24.3663  -27.9155 H   0  0  0  0  0  0  0  0  0  0  0  0
    1.3896   22.1868  -28.0130 H   0  0  0  0  0  0  0  0  0  0  0  0
    0.0921   21.5046  -26.9501 H   0  0  0  0  0  0  0  0  0  0  0  0
    1.3416   19.6737  -26.7624 H   0  0  0  0  0  0  0  0  0  0  0  0
    1.3746   18.4507  -28.0776 H   0  0  0  0  0  0  0  0  0  0  0  0
    2.5583   19.8017  -28.0776 H   0  0  0  0  0  0  0  0  0  0  0  0
   -0.5642   18.6177  -29.0610 H   0  0  0  0  0  0  0  0  0  0  0  0
   -1.1992   19.6477  -27.7304 H   0  0  0  0  0  0  0  0  0  0  0  0
   -1.2388   20.2063  -30.7332 H   0  0  0  0  0  0  0  0  0  0  0  0
   -2.6390   20.0104  -29.5965 H   0  0  0  0  0  0  0  0  0  0  0  0
   -7.7752   23.6893  -29.1968 H   0  0  0  0  0  0  0  0  0  0  0  0
   -8.9147   21.6360  -30.0398 H   0  0  0  0  0  0  0  0  0  0  0  0
   -5.4880   19.5126  -31.6003 H   0  0  0  0  0  0  0  0  0  0  0  0
   -6.1792   17.8958  -31.1669 H   0  0  0  0  0  0  0  0  0  0  0  0
   -3.8214   18.5421  -32.7990 H   0  0  0  0  0  0  0  0  0  0  0  0
   -4.3573   16.9636  -32.1078 H   0  0  0  0  0  0  0  0  0  0  0  0
  1  2  1  0
  2  3  1  0
  3  4  1  0
  4  5  1  0
  5  6  1  0
  6  7  2  0
  6  8  2  0
  6  9  1  0
  9 10  2  0
 10 11  1  0
 11 12  2  0
 12 13  1  0
 13 14  2  0
 13 15  2  0
 13 16  1  0
 16 17  1  0
 17 18  2  0
 18 19  1  0
 19 20  2  0
 20 21  1  0
 21 22  2  0
 22 23  1  0
 20 24  1  0
 24 25  1  0
 25 26  1  0
 25 27  1  0
 27 28  1  0
 12 29  1  0
 29 30  2  0
  5 31  1  0
 31 32  1  0
 32  2  1  0
 30  9  1  0
 22 17  1  0
 28 19  1  0
  1 33  1  0
  1 34  1  0
  1 35  1  0
  3 36  1  0
  3 37  1  0
  4 38  1  0
  4 39  1  0
 10 40  1  0
 11 41  1  0
 18 42  1  0
 21 43  1  0
 24 44  1  0
 24 45  1  0
 26 46  1  0
 26 47  1  0
 26 48  1  0
 27 49  1  0
 27 50  1  0
 28 51  1  0
 28 52  1  0
 29 53  1  0
 30 54  1  0
 31 55  1  0
 31 56  1  0
 32 57  1  0
 32 58  1  0
M  CHG  2  16  -1  23  -1
M  END
>  <UniqueID>  (13) 
13

>  <SMILES>  (13) 
CN1CCN(S(=O)(=O)c2ccc(S(=O)(=O)[N-]c3cc4c(cc3[O-])CN(C)CC4)cc2)CC1

>  <Energy>  (13) 
74.08683485699468

>  <Genealogy>  (13) 
CN1CCN(S(=O)(=O)c2ccc(S(=O)(=O)[N-]c3cc4c(cc3[O-])CN(C)CC4)cc2)CC1 (protonated)
CN1CCN(S(=O)(=O)c2ccc(S(=O)(=O)[N-]c3cc4c(cc3[O-])CN(C)CC4)cc2)CC1 (3D coordinates assigned)
CN1CCN(S(=O)(=O)c2ccc(S(=O)(=O)[N-]c3cc4c(cc3[O-])CN(C)CC4)cc2)CC1 (nonaromatic ring conformer: 74.08683485699468 kcal/mol)

>  <smiles>  (13) 
CN1CCN(S(=O)(=O)c2ccc(S(=O)(=O)Nc3cc4c(cc3O)CN(C)CC4)cc2)CC1

>  <score_type>  (13) 
oracle

>  <origin>  (13) 
adgpu

>  <m_score__min__energy>  (13) 
-15.279999999999999

>  <m_primary>  (13) 
energy

$$$$
13:0
     RDKit          3D

 44 47  0  0  0  0  0  0  0  0999 V2000
   -5.9130   25.8560  -31.3250 O   0  0  0  0  0  0  0  0  0  0  0  0
   -5.3210   24.7110  -30.5470 S   0  0  0  0  0  0  0  0  0  0  0  0
   -5.9710   24.6670  -29.1930 O   0  0  0  0  0  0  0  0  0  0  0  0
   -3.6150   24.9660  -30.3700 N   0  0  0  0  0  0  0  0  0  0  0  0
   -2.7300   24.1440  -29.5900 C   0  0  0  0  0  0  0  0  0  0  0  0
   -3.0190   22.7950  -29.3160 C   0  0  0  0  0  0  0  0  0  0  0  0
   -2.1390   22.0140  -28.5490 C   0  0  0  0  0  0  0  0  0  0  0  0
   -0.9410   22.5830  -28.0710 C   0  0  0  0  0  0  0  0  0  0  0  0
   -0.6640   23.9340  -28.3290 C   0  0  0  0  0  0  0  0  0  0  0  0
   -1.5500   24.7090  -29.0870 C   0  0  0  0  0  0  0  0  0  0  0  0
   -1.2470   26.0430  -29.3420 O   0  0  0  0  0  0  0  0  0  0  0  0
   -0.0070   21.7760  -27.2040 C   0  0  0  0  0  0  0  0  0  0  0  0
   -0.1620   20.3350  -27.4470 N   0  0  0  0  0  0  0  0  0  0  0  0
   -1.5600   19.9400  -27.2340 C   0  0  0  0  0  0  0  0  0  0  0  0
   -2.4520   20.5540  -28.3190 C   0  0  0  0  0  0  0  0  0  0  0  0
   -5.6000   23.2160  -31.4340 C   0  0  0  0  0  0  0  0  0  0  0  0
   -4.5450   22.6290  -32.1420 C   0  0  0  0  0  0  0  0  0  0  0  0
   -4.7310   21.4180  -32.8040 C   0  0  0  0  0  0  0  0  0  0  0  0
   -5.9720   20.7620  -32.7490 C   0  0  0  0  0  0  0  0  0  0  0  0
   -7.0450   21.3560  -32.0520 C   0  0  0  0  0  0  0  0  0  0  0  0
   -6.8500   22.5800  -31.3950 C   0  0  0  0  0  0  0  0  0  0  0  0
   -8.3610   20.6280  -31.8890 C   0  0  0  0  0  0  0  0  0  0  0  0
   -8.5620   19.5790  -32.9000 N   0  0  0  0  0  0  0  0  0  0  0  0
   -7.3890   18.6990  -32.9900 C   0  0  0  0  0  0  0  0  0  0  0  0
   -6.1650   19.4700  -33.5000 C   0  0  0  0  0  0  0  0  0  0  0  0
   -3.9444   22.3467  -29.7067 H   0  0  0  0  0  0  0  0  0  0  0  0
    0.2563   24.3878  -27.9327 H   0  0  0  0  0  0  0  0  0  0  0  0
    1.0300   22.0672  -27.4271 H   0  0  0  0  0  0  0  0  0  0  0  0
   -0.2506   21.9780  -26.1505 H   0  0  0  0  0  0  0  0  0  0  0  0
    0.4230   19.8330  -26.7380 H   0  0  0  0  0  0  0  0  0  0  0  0
   -1.6387   18.8436  -27.2757 H   0  0  0  0  0  0  0  0  0  0  0  0
   -1.8903   20.3017  -26.2491 H   0  0  0  0  0  0  0  0  0  0  0  0
   -2.2965   20.0049  -29.2594 H   0  0  0  0  0  0  0  0  0  0  0  0
   -3.4967   20.4791  -27.9829 H   0  0  0  0  0  0  0  0  0  0  0  0
   -3.5645   23.1264  -32.1757 H   0  0  0  0  0  0  0  0  0  0  0  0
   -3.9016   20.9727  -33.3731 H   0  0  0  0  0  0  0  0  0  0  0  0
   -7.6824   23.0441  -30.8457 H   0  0  0  0  0  0  0  0  0  0  0  0
   -8.3847   20.1641  -30.8919 H   0  0  0  0  0  0  0  0  0  0  0  0
   -9.1658   21.3672  -32.0148 H   0  0  0  0  0  0  0  0  0  0  0  0
   -8.7360   20.0290  -33.8320 H   0  0  0  0  0  0  0  0  0  0  0  0
   -7.1677   18.2905  -31.9929 H   0  0  0  0  0  0  0  0  0  0  0  0
   -7.6124   17.8863  -33.6969 H   0  0  0  0  0  0  0  0  0  0  0  0
   -5.2695   18.8445  -33.3706 H   0  0  0  0  0  0  0  0  0  0  0  0
   -6.3264   19.7093  -34.5614 H   0  0  0  0  0  0  0  0  0  0  0  0
  1  2  2  0
  2  3  2  0
  2  4  1  0
  4  5  1  0
  5  6  2  0
  6  7  1  0
  7  8  2  0
  8  9  1  0
  9 10  2  0
 10 11  1  0
  8 12  1  0
 12 13  1  0
 13 14  1  0
 14 15  1  0
  2 16  1  0
 16 17  2  0
 17 18  1  0
 18 19  2  0
 19 20  1  0
 20 21  2  0
 20 22  1  0
 22 23  1  0
 23 24  1  0
 24 25  1  0
 10  5  1  0
 21 16  1  0
 15  7  1  0
 25 19  1  0
  6 26  1  0
  9 27  1  0
 12 28  1  0
 12 29  1  0
 13 30  1  0
 14 31  1  0
 14 32  1  0
 15 33  1  0
 15 34  1  0
 17 35  1  0
 18 36  1  0
 21 37  1  0
 22 38  1  0
 22 39  1  0
 23 40  1  0
 24 41  1  0
 24 42  1  0
 25 43  1  0
 25 44  1  0
M  CHG  2   4  -1  11  -1
M  END
>  <UniqueID>  (14) 
14

>  <SMILES>  (14) 
O=S(=O)([N-]c1cc2c(cc1[O-])CNCC2)c1ccc2c(c1)CNCC2

>  <Energy>  (14) 
53.1763768831389

>  <Genealogy>  (14) 
O=S(=O)([N-]c1cc2c(cc1[O-])CNCC2)c1ccc2c(c1)CNCC2 (protonated)
O=S(=O)([N-]c1cc2c(cc1[O-])CNCC2)c1ccc2c(c1)CNCC2 (3D coordinates assigned)
O=S(=O)([N-]c1cc2c(cc1[O-])CNCC2)c1ccc2c(c1)CNCC2 (nonaromatic ring conformer: 53.1763768831389 kcal/mol)

>  <smiles>  (14) 
O=S(=O)(Nc1cc2c(cc1O)CNCC2)c1ccc2c(c1)CNCC2

>  <score_type>  (14) 
oracle

>  <origin>  (14) 
adgpu

>  <m_score__min__energy>  (14) 
-14.43

>  <m_primary>  (14) 
energy

$$$$
14:0
     RDKit          3D

 58 61  0  0  0  0  0  0  0  0999 V2000
   -7.2660   18.2750  -32.2450 C   0  0  0  0  0  0  0  0  0  0  0  0
   -7.0160   19.7090  -32.3520 N   0  0  0  0  0  0  0  0  0  0  0  0
   -7.7790   20.7250  -31.6990 C   0  0  0  0  0  0  0  0  0  0  0  0
   -8.9380   20.5270  -31.2440 O   0  0  0  0  0  0  0  0  0  0  0  0
   -7.0440   22.0380  -31.5960 C   0  0  0  0  0  0  0  0  0  0  0  0
   -6.8670   22.4570  -30.1290 C   0  0  0  0  0  0  0  0  0  0  0  0
   -7.7410   23.1260  -32.4230 C   0  0  0  0  0  0  0  0  0  0  0  0
   -5.7300   21.6380  -32.2140 C   0  0  0  0  0  0  0  0  0  0  0  0
   -4.5680   22.4010  -32.3430 C   0  0  0  0  0  0  0  0  0  0  0  0
   -3.4140   21.7900  -32.8580 C   0  0  0  0  0  0  0  0  0  0  0  0
   -3.4300   20.4300  -33.2310 C   0  0  0  0  0  0  0  0  0  0  0  0
   -1.9410   19.6340  -33.7390 S   0  0  0  0  0  0  0  0  0  0  0  0
   -2.2500   18.2090  -34.1070 O   0  0  0  0  0  0  0  0  0  0  0  0
   -1.4100   20.3210  -34.9670 O   0  0  0  0  0  0  0  0  0  0  0  0
   -0.7100   19.6620  -32.4910 N   0  0  0  0  0  0  0  0  0  0  0  0
   -1.1400   19.0310  -31.2180 C   0  0  0  0  0  0  0  0  0  0  0  0
   -1.0300   19.9570  -29.9960 C   0  0  0  0  0  0  0  0  0  0  0  0
   -1.5840   21.3360  -30.3520 C   0  0  0  0  0  0  0  0  0  0  0  0
   -1.6810   22.2340  -29.1480 C   0  0  0  0  0  0  0  0  0  0  0  0
   -2.2810   21.8360  -28.1130 O   0  0  0  0  0  0  0  0  0  0  0  0
   -1.0780   23.5390  -29.1820 N   0  0  0  0  0  0  0  0  0  0  0  0
   -0.8900   24.3600  -28.0190 C   0  0  0  0  0  0  0  0  0  0  0  0
   -0.7060   23.7430  -26.7730 C   0  0  0  0  0  0  0  0  0  0  0  0
   -0.5380   24.5140  -25.6190 C   0  0  0  0  0  0  0  0  0  0  0  0
   -0.5670   25.9080  -25.6990 C   0  0  0  0  0  0  0  0  0  0  0  0
   -0.7810   26.5330  -26.9310 C   0  0  0  0  0  0  0  0  0  0  0  0
   -0.9590   25.7670  -28.0890 C   0  0  0  0  0  0  0  0  0  0  0  0
   -1.2340   26.4110  -29.2900 O   0  0  0  0  0  0  0  0  0  0  0  0
   -0.7480   21.9880  -31.4690 C   0  0  0  0  0  0  0  0  0  0  0  0
   -0.0250   20.9660  -32.3760 C   0  0  0  0  0  0  0  0  0  0  0  0
   -4.6260   19.6940  -33.1460 C   0  0  0  0  0  0  0  0  0  0  0  0
   -5.7600   20.3170  -32.6180 C   0  0  0  0  0  0  0  0  0  0  0  0
   -7.3157   17.9897  -31.1838 H   0  0  0  0  0  0  0  0  0  0  0  0
   -8.2201   18.0316  -32.7353 H   0  0  0  0  0  0  0  0  0  0  0  0
   -6.4505   17.7230  -32.7353 H   0  0  0  0  0  0  0  0  0  0  0  0
   -7.2102   21.6445  -29.4717 H   0  0  0  0  0  0  0  0  0  0  0  0
   -5.8047   22.6638  -29.9323 H   0  0  0  0  0  0  0  0  0  0  0  0
   -7.4594   23.3628  -29.9323 H   0  0  0  0  0  0  0  0  0  0  0  0
   -8.2092   23.8568  -31.7472 H   0  0  0  0  0  0  0  0  0  0  0  0
   -7.0005   23.6351  -33.0574 H   0  0  0  0  0  0  0  0  0  0  0  0
   -8.5131   22.6662  -33.0574 H   0  0  0  0  0  0  0  0  0  0  0  0
   -4.5570   23.4603  -32.0468 H   0  0  0  0  0  0  0  0  0  0  0  0
   -2.4902   22.3763  -32.9715 H   0  0  0  0  0  0  0  0  0  0  0  0
   -2.1897   18.7193  -31.3231 H   0  0  0  0  0  0  0  0  0  0  0  0
   -0.4637   18.1824  -31.0377 H   0  0  0  0  0  0  0  0  0  0  0  0
   -1.6082   19.5335  -29.1615 H   0  0  0  0  0  0  0  0  0  0  0  0
    0.0253   20.0504  -29.6999 H   0  0  0  0  0  0  0  0  0  0  0  0
   -2.6083   21.1928  -30.7266 H   0  0  0  0  0  0  0  0  0  0  0  0
   -0.8830   23.9650  -30.1160 H   0  0  0  0  0  0  0  0  0  0  0  0
   -0.6938   22.6453  -26.7033 H   0  0  0  0  0  0  0  0  0  0  0  0
   -0.3829   24.0224  -24.6473 H   0  0  0  0  0  0  0  0  0  0  0  0
   -0.4215   26.5141  -24.7927 H   0  0  0  0  0  0  0  0  0  0  0  0
   -0.8096   27.6310  -26.9907 H   0  0  0  0  0  0  0  0  0  0  0  0
   -1.4176   22.5962  -32.0949 H   0  0  0  0  0  0  0  0  0  0  0  0
    0.0298   22.5926  -30.9795 H   0  0  0  0  0  0  0  0  0  0  0  0
    0.0608   21.3998  -33.3832 H   0  0  0  0  0  0  0  0  0  0  0  0
    0.9518   20.7681  -31.9104 H   0  0  0  0  0  0  0  0  0  0  0  0
   -4.6676   18.6494  -33.4882 H   0  0  0  0  0  0  0  0  0  0  0  0
  1  2  1  0
  2  3  1  0
  3  4  2  0
  3  5  1  0
  5  6  1  0
  5  7  1  0
  5  8  1  0
  8  9  2  0
  9 10  1  0
 10 11  2  0
 11 12  1  0
 12 13  2  0
 12 14  2  0
 12 15  1  0
 15 16  1  0
 16 17  1  0
 17 18  1  0
 18 19  1  0
 19 20  2  0
 19 21  1  0
 21 22  1  0
 22 23  2  0
 23 24  1  0
 24 25  2  0
 25 26  1  0
 26 27  2  0
 27 28  1  0
 18 29  1  0
 29 30  1  0
 11 31  1  0
 31 32  2  0
 32  2  1  0
 32  8  1  0
 30 15  1  0
 27 22  1  0
  1 33  1  0
  1 34  1  0
  1 35  1  0
  6 36  1  0
  6 37  1  0
  6 38  1  0
  7 39  1  0
  7 40  1  0
  7 41  1  0
  9 42  1  0
 10 43  1  0
 16 44  1  0
 16 45  1  0
 17 46  1  0
 17 47  1  0
 18 48  1  0
 21 49  1  0
 23 50  1  0
 24 51  1  0
 25 52  1  0
 26 53  1  0
 29 54  1  0
 29 55  1  0
 30 56  1  0
 30 57  1  0
 31 58  1  0
M  CHG  1  28  -1
M  END
>  <UniqueID>  (15) 
15

>  <SMILES>  (15) 
CN1C(=O)C(C)(C)c2ccc(S(=O)(=O)N3CCC(C(=O)Nc4ccccc4[O-])CC3)cc21

>  <Energy>  (15) 
86.84360150035204

>  <Genealogy>  (15) 
CN1C(=O)C(C)(C)c2ccc(S(=O)(=O)N3CCC(C(=O)Nc4ccccc4[O-])CC3)cc21 (protonated)
CN1C(=O)C(C)(C)c2ccc(S(=O)(=O)N3CCC(C(=O)Nc4ccccc4[O-])CC3)cc21 (3D coordinates assigned)
CN1C(=O)C(C)(C)c2ccc(S(=O)(=O)N3CCC(C(=O)Nc4ccccc4[O-])CC3)cc21 (nonaromatic ring conformer: 86.84360150035204 kcal/mol)

>  <smiles>  (15) 
CN1C(=O)C(C)(C)c2ccc(S(=O)(=O)N3CCC(C(=O)Nc4ccccc4O)CC3)cc21

>  <score_type>  (15) 
oracle

>  <origin>  (15) 
adgpu

>  <m_score__min__energy>  (15) 
-14.18

>  <m_primary>  (15) 
energy

$$$$
15:0
     RDKit          3D

 49 52  0  0  0  0  0  0  0  0999 V2000
   -5.8180   18.5800  -34.6020 C   0  0  0  0  0  0  0  0  0  0  0  0
   -5.7200   18.5700  -33.0800 C   0  0  0  0  0  0  0  0  0  0  0  0
   -6.7260   19.4690  -32.4900 N   0  0  0  0  0  0  0  0  0  0  0  0
   -8.0860   19.0060  -32.3470 C   0  0  0  0  0  0  0  0  0  0  0  0
   -8.3780   17.7930  -32.5310 O   0  0  0  0  0  0  0  0  0  0  0  0
   -9.1770   19.9850  -32.0430 C   0  0  0  0  0  0  0  0  0  0  0  0
   -8.6940   21.0450  -31.2230 O   0  0  0  0  0  0  0  0  0  0  0  0
   -7.3890   21.5360  -31.3170 C   0  0  0  0  0  0  0  0  0  0  0  0
   -7.0870   22.7760  -30.7490 C   0  0  0  0  0  0  0  0  0  0  0  0
   -5.7930   23.2970  -30.8350 C   0  0  0  0  0  0  0  0  0  0  0  0
   -5.4450   24.8940  -30.1750 S   0  0  0  0  0  0  0  0  0  0  0  0
   -4.6430   25.6670  -31.1830 O   0  0  0  0  0  0  0  0  0  0  0  0
   -6.7190   25.6380  -29.8860 O   0  0  0  0  0  0  0  0  0  0  0  0
   -4.5340   24.7400  -28.7060 N   0  0  0  0  0  0  0  0  0  0  0  0
   -3.3910   23.8740  -28.5740 C   0  0  0  0  0  0  0  0  0  0  0  0
   -3.5300   22.5480  -28.1240 C   0  0  0  0  0  0  0  0  0  0  0  0
   -2.4210   21.6950  -28.0390 C   0  0  0  0  0  0  0  0  0  0  0  0
   -1.1350   22.1910  -28.3510 C   0  0  0  0  0  0  0  0  0  0  0  0
   -0.9960   23.5150  -28.7890 C   0  0  0  0  0  0  0  0  0  0  0  0
   -2.1100   24.3520  -28.8970 C   0  0  0  0  0  0  0  0  0  0  0  0
   -1.9350   25.6580  -29.3420 O   0  0  0  0  0  0  0  0  0  0  0  0
    0.0840   21.2980  -28.3300 C   0  0  0  0  0  0  0  0  0  0  0  0
   -0.1220   20.0380  -27.4850 C   0  0  0  0  0  0  0  0  0  0  0  0
   -1.4470   19.3660  -27.8420 C   0  0  0  0  0  0  0  0  0  0  0  0
   -2.6200   20.2930  -27.5110 C   0  0  0  0  0  0  0  0  0  0  0  0
   -4.7910   22.5560  -31.4720 C   0  0  0  0  0  0  0  0  0  0  0  0
   -5.0810   21.3070  -32.0270 C   0  0  0  0  0  0  0  0  0  0  0  0
   -6.3890   20.7790  -31.9610 C   0  0  0  0  0  0  0  0  0  0  0  0
   -6.8711   18.6875  -34.9009 H   0  0  0  0  0  0  0  0  0  0  0  0
   -5.2356   19.4234  -35.0014 H   0  0  0  0  0  0  0  0  0  0  0  0
   -5.4179   17.6364  -35.0014 H   0  0  0  0  0  0  0  0  0  0  0  0
   -5.8902   17.5469  -32.7135 H   0  0  0  0  0  0  0  0  0  0  0  0
   -4.7184   18.9175  -32.7868 H   0  0  0  0  0  0  0  0  0  0  0  0
   -9.5581   20.4040  -32.9860 H   0  0  0  0  0  0  0  0  0  0  0  0
   -9.9797   19.4608  -31.5036 H   0  0  0  0  0  0  0  0  0  0  0  0
   -7.8724   23.3458  -30.2309 H   0  0  0  0  0  0  0  0  0  0  0  0
   -4.7640   25.4100  -27.9390 H   0  0  0  0  0  0  0  0  0  0  0  0
   -4.5237   22.1753  -27.8347 H   0  0  0  0  0  0  0  0  0  0  0  0
    0.0008   23.8996  -29.0506 H   0  0  0  0  0  0  0  0  0  0  0  0
    0.3168   20.9958  -29.3617 H   0  0  0  0  0  0  0  0  0  0  0  0
    0.9078   21.8703  -27.8784 H   0  0  0  0  0  0  0  0  0  0  0  0
    0.7030   19.3357  -27.6750 H   0  0  0  0  0  0  0  0  0  0  0  0
   -0.1413   20.3212  -26.4222 H   0  0  0  0  0  0  0  0  0  0  0  0
   -1.4588   19.1359  -28.9176 H   0  0  0  0  0  0  0  0  0  0  0  0
   -1.5472   18.4398  -27.2570 H   0  0  0  0  0  0  0  0  0  0  0  0
   -3.5352   19.8756  -27.9563 H   0  0  0  0  0  0  0  0  0  0  0  0
   -2.6942   20.3575  -26.4154 H   0  0  0  0  0  0  0  0  0  0  0  0
   -3.7696   22.9592  -31.5360 H   0  0  0  0  0  0  0  0  0  0  0  0
   -4.2840   20.7304  -32.5193 H   0  0  0  0  0  0  0  0  0  0  0  0
  1  2  1  0
  2  3  1  0
  3  4  1  0
  4  5  2  0
  4  6  1  0
  6  7  1  0
  7  8  1  0
  8  9  2  0
  9 10  1  0
 10 11  1  0
 11 12  2  0
 11 13  2  0
 11 14  1  0
 14 15  1  0
 15 16  2  0
 16 17  1  0
 17 18  2  0
 18 19  1  0
 19 20  2  0
 20 21  1  0
 18 22  1  0
 22 23  1  0
 23 24  1  0
 24 25  1  0
 10 26  2  0
 26 27  1  0
 27 28  2  0
 28  3  1  0
 28  8  1  0
 20 15  1  0
 25 17  1  0
  1 29  1  0
  1 30  1  0
  1 31  1  0
  2 32  1  0
  2 33  1  0
  6 34  1  0
  6 35  1  0
  9 36  1  0
 14 37  1  0
 16 38  1  0
 19 39  1  0
 22 40  1  0
 22 41  1  0
 23 42  1  0
 23 43  1  0
 24 44  1  0
 24 45  1  0
 25 46  1  0
 25 47  1  0
 26 48  1  0
 27 49  1  0
M  CHG  1  21  -1
M  END
>  <UniqueID>  (16) 
16

>  <SMILES>  (16) 
CCN1C(=O)COc2cc(S(=O)(=O)Nc3cc4c(cc3[O-])CCCC4)ccc21

>  <Energy>  (16) 
56.110112850190426

>  <Genealogy>  (16) 
CCN1C(=O)COc2cc(S(=O)(=O)Nc3cc4c(cc3[O-])CCCC4)ccc21 (protonated)
CCN1C(=O)COc2cc(S(=O)(=O)Nc3cc4c(cc3[O-])CCCC4)ccc21 (3D coordinates assigned)
CCN1C(=O)COc2cc(S(=O)(=O)Nc3cc4c(cc3[O-])CCCC4)ccc21 (nonaromatic ring conformer: 56.110112850190426 kcal/mol)

>  <smiles>  (16) 
CCN1C(=O)COc2cc(S(=O)(=O)Nc3cc4c(cc3O)CCCC4)ccc21

>  <score_type>  (16) 
oracle

>  <origin>  (16) 
adgpu

>  <m_score__min__energy>  (16) 
-13.869999999999999

>  <m_primary>  (16) 
energy

$$$$
16:0
     RDKit          3D

 58 61  0  0  0  0  0  0  0  0999 V2000
   -3.4090   18.9830  -33.0690 O   0  0  0  0  0  0  0  0  0  0  0  0
   -2.9760   20.3440  -32.6020 S   0  0  0  0  0  0  0  0  0  0  0  0
   -2.4060   21.1010  -33.7700 O   0  0  0  0  0  0  0  0  0  0  0  0
   -1.7270   20.1280  -31.3760 C   0  0  0  0  0  0  0  0  0  0  0  0
   -0.4500   19.6780  -31.7330 C   0  0  0  0  0  0  0  0  0  0  0  0
    0.5450   19.5390  -30.7590 C   0  0  0  0  0  0  0  0  0  0  0  0
    0.2830   19.8720  -29.4190 C   0  0  0  0  0  0  0  0  0  0  0  0
    1.3440   19.6770  -28.3650 C   0  0  0  0  0  0  0  0  0  0  0  0
    1.1130   18.5130  -27.6520 F   0  0  0  0  0  0  0  0  0  0  0  0
    1.3210   20.7520  -27.4930 F   0  0  0  0  0  0  0  0  0  0  0  0
    2.5990   19.5910  -28.9410 F   0  0  0  0  0  0  0  0  0  0  0  0
   -1.0080   20.3030  -29.0650 C   0  0  0  0  0  0  0  0  0  0  0  0
   -2.0010   20.4410  -30.0390 C   0  0  0  0  0  0  0  0  0  0  0  0
   -4.3600   21.2320  -31.9450 C   0  0  0  0  0  0  0  0  0  0  0  0
   -4.1470   22.4500  -31.2790 C   0  0  0  0  0  0  0  0  0  0  0  0
   -5.2220   23.1680  -30.7440 C   0  0  0  0  0  0  0  0  0  0  0  0
   -4.9170   24.6970  -29.9240 S   0  0  0  0  0  0  0  0  0  0  0  0
   -6.2260   25.2700  -29.4600 O   0  0  0  0  0  0  0  0  0  0  0  0
   -4.2680   25.6720  -30.8690 O   0  0  0  0  0  0  0  0  0  0  0  0
   -3.8820   24.4090  -28.5480 N   0  0  0  0  0  0  0  0  0  0  0  0
   -4.0490   23.0500  -28.0350 C   0  0  0  0  0  0  0  0  0  0  0  0
   -2.7420   22.6880  -27.3500 C   0  0  0  0  0  0  0  0  0  0  0  0
   -1.6990   23.6070  -27.9690 C   0  0  0  0  0  0  0  0  0  0  0  0
   -2.4690   24.5230  -28.9090 C   0  0  0  0  0  0  0  0  0  0  0  0
   -6.5250   22.6780  -30.8860 C   0  0  0  0  0  0  0  0  0  0  0  0
   -6.7500   21.4740  -31.5550 C   0  0  0  0  0  0  0  0  0  0  0  0
   -5.6770   20.7440  -32.0880 C   0  0  0  0  0  0  0  0  0  0  0  0
   -5.9440   19.5230  -32.7920 N   0  0  0  0  0  0  0  0  0  0  0  0
   -6.2140   18.3050  -32.0220 C   0  0  0  0  0  0  0  0  0  0  0  0
   -6.5280   17.1300  -32.9540 C   0  0  0  0  0  0  0  0  0  0  0  0
   -5.6140   17.1390  -34.1040 N   0  0  0  0  0  0  0  0  0  0  0  0
   -5.7860   18.3290  -34.9650 C   0  0  0  0  0  0  0  0  0  0  0  0
   -6.2910   19.5790  -34.2140 C   0  0  0  0  0  0  0  0  0  0  0  0
   -0.2283   19.4330  -32.7822 H   0  0  0  0  0  0  0  0  0  0  0  0
    1.5398   19.1663  -31.0443 H   0  0  0  0  0  0  0  0  0  0  0  0
   -1.2380   20.5331  -28.0142 H   0  0  0  0  0  0  0  0  0  0  0  0
   -3.0020   20.7970  -29.7539 H   0  0  0  0  0  0  0  0  0  0  0  0
   -3.1248   22.8434  -31.1770 H   0  0  0  0  0  0  0  0  0  0  0  0
   -4.8792   23.0145  -27.3142 H   0  0  0  0  0  0  0  0  0  0  0  0
   -4.2846   22.3436  -28.8447 H   0  0  0  0  0  0  0  0  0  0  0  0
   -2.8138   22.8610  -26.2661 H   0  0  0  0  0  0  0  0  0  0  0  0
   -2.4870   21.6266  -27.4857 H   0  0  0  0  0  0  0  0  0  0  0  0
   -1.1932   24.1946  -27.1887 H   0  0  0  0  0  0  0  0  0  0  0  0
   -0.9199   23.0402  -28.4998 H   0  0  0  0  0  0  0  0  0  0  0  0
   -2.1298   25.5622  -28.7870 H   0  0  0  0  0  0  0  0  0  0  0  0
   -2.3059   24.2379  -29.9588 H   0  0  0  0  0  0  0  0  0  0  0  0
   -7.3727   23.2422  -30.4700 H   0  0  0  0  0  0  0  0  0  0  0  0
   -7.7766   21.0945  -31.6652 H   0  0  0  0  0  0  0  0  0  0  0  0
   -5.3298   18.0582  -31.4159 H   0  0  0  0  0  0  0  0  0  0  0  0
   -7.0849   18.4834  -31.3742 H   0  0  0  0  0  0  0  0  0  0  0  0
   -6.4088   16.1860  -32.4020 H   0  0  0  0  0  0  0  0  0  0  0  0
   -7.5625   17.2242  -33.3158 H   0  0  0  0  0  0  0  0  0  0  0  0
   -4.6270   17.0940  -33.7580 H   0  0  0  0  0  0  0  0  0  0  0  0
   -5.7870   16.2790  -34.6750 H   0  0  0  0  0  0  0  0  0  0  0  0
   -4.8145   18.5688  -35.4218 H   0  0  0  0  0  0  0  0  0  0  0  0
   -6.5532   18.0741  -35.7109 H   0  0  0  0  0  0  0  0  0  0  0  0
   -5.8325   20.4741  -34.6596 H   0  0  0  0  0  0  0  0  0  0  0  0
   -7.3868   19.6175  -34.3023 H   0  0  0  0  0  0  0  0  0  0  0  0
  1  2  2  0
  2  3  2  0
  2  4  1  0
  4  5  2  0
  5  6  1  0
  6  7  2  0
  7  8  1  0
  8  9  1  0
  8 10  1  0
  8 11  1  0
  7 12  1  0
 12 13  2  0
  2 14  1  0
 14 15  2  0
 15 16  1  0
 16 17  1  0
 17 18  2  0
 17 19  2  0
 17 20  1  0
 20 21  1  0
 21 22  1  0
 22 23  1  0
 23 24  1  0
 16 25  2  0
 25 26  1  0
 26 27  2  0
 27 28  1  0
 28 29  1  0
 29 30  1  0
 30 31  1  0
 31 32  1  0
 32 33  1  0
 13  4  1  0
 27 14  1  0
 33 28  1  0
 24 20  1  0
  5 34  1  0
  6 35  1  0
 12 36  1  0
 13 37  1  0
 15 38  1  0
 21 39  1  0
 21 40  1  0
 22 41  1  0
 22 42  1  0
 23 43  1  0
 23 44  1  0
 24 45  1  0
 24 46  1  0
 25 47  1  0
 26 48  1  0
 29 49  1  0
 29 50  1  0
 30 51  1  0
 30 52  1  0
 31 53  1  0
 31 54  1  0
 32 55  1  0
 32 56  1  0
 33 57  1  0
 33 58  1  0
M  CHG  1  31   1
M  END
>  <UniqueID>  (17) 
17

>  <SMILES>  (17) 
O=S(=O)(c1ccc(C(F)(F)F)cc1)c1cc(S(=O)(=O)N2CCCC2)ccc1N1CC[NH2+]CC1

>  <Energy>  (17) 
71.87220901829089

>  <Genealogy>  (17) 
O=S(=O)(c1ccc(C(F)(F)F)cc1)c1cc(S(=O)(=O)N2CCCC2)ccc1N1CC[NH2+]CC1 (protonated)
O=S(=O)(c1ccc(C(F)(F)F)cc1)c1cc(S(=O)(=O)N2CCCC2)ccc1N1CC[NH2+]CC1 (3D coordinates assigned)
O=S(=O)(c1ccc(C(F)(F)F)cc1)c1cc(S(=O)(=O)N2CCCC2)ccc1N1CC[NH2+]CC1 (nonaromatic ring conformer: 71.87220901829089 kcal/mol)

>  <smiles>  (17) 
O=S(=O)(c1ccc(C(F)(F)F)cc1)c1cc(S(=O)(=O)N2CCCC2)ccc1N1CCNCC1

>  <score_type>  (17) 
oracle

>  <origin>  (17) 
adgpu

>  <m_score__min__energy>  (17) 
-8.4100000000000001

>  <m_primary>  (17) 
energy

$$$$
17:0
     RDKit          3D

 53 56  0  0  0  0  0  0  0  0999 V2000
   -3.9350   25.6730  -30.7430 O   0  0  0  0  0  0  0  0  0  0  0  0
   -4.1020   24.4500  -30.4920 C   0  0  0  0  0  0  0  0  0  0  0  0
   -5.0010   23.6950  -31.3160 N   0  0  0  0  0  0  0  0  0  0  0  0
   -4.6630   22.5130  -32.0580 C   0  0  0  0  0  0  0  0  0  0  0  0
   -3.3280   22.2440  -32.4090 C   0  0  0  0  0  0  0  0  0  0  0  0
   -2.9920   21.0670  -33.0900 C   0  0  0  0  0  0  0  0  0  0  0  0
   -1.3080   20.7400  -33.5190 S   0  0  0  0  0  0  0  0  0  0  0  0
   -0.7550   21.9210  -34.2670 O   0  0  0  0  0  0  0  0  0  0  0  0
   -1.2590   19.5470  -34.4320 O   0  0  0  0  0  0  0  0  0  0  0  0
   -0.3020   20.4310  -32.1240 N   0  0  0  0  0  0  0  0  0  0  0  0
   -0.4920   21.4300  -31.0760 C   0  0  0  0  0  0  0  0  0  0  0  0
   -0.1270   20.7530  -29.7620 C   0  0  0  0  0  0  0  0  0  0  0  0
   -0.1430   19.2600  -30.0570 C   0  0  0  0  0  0  0  0  0  0  0  0
   -0.6080   19.1460  -31.4990 C   0  0  0  0  0  0  0  0  0  0  0  0
   -3.9930   20.1370  -33.3930 C   0  0  0  0  0  0  0  0  0  0  0  0
   -5.3170   20.3830  -33.0270 C   0  0  0  0  0  0  0  0  0  0  0  0
   -5.6620   21.5670  -32.3590 C   0  0  0  0  0  0  0  0  0  0  0  0
   -7.0370   21.7960  -32.0060 N   0  0  0  0  0  0  0  0  0  0  0  0
   -7.8600   20.6910  -31.5100 C   0  0  0  0  0  0  0  0  0  0  0  0
   -9.3080   20.8870  -31.9710 C   0  0  0  0  0  0  0  0  0  0  0  0
   -9.7750   22.1800  -31.6330 O   0  0  0  0  0  0  0  0  0  0  0  0
   -9.0390   23.1590  -32.3430 C   0  0  0  0  0  0  0  0  0  0  0  0
   -7.5710   23.1560  -31.9070 C   0  0  0  0  0  0  0  0  0  0  0  0
   -3.3250   23.8150  -29.4020 C   0  0  0  0  0  0  0  0  0  0  0  0
   -3.7250   22.5650  -28.8950 C   0  0  0  0  0  0  0  0  0  0  0  0
   -2.9930   21.9480  -27.8770 C   0  0  0  0  0  0  0  0  0  0  0  0
   -1.8600   22.5710  -27.3520 C   0  0  0  0  0  0  0  0  0  0  0  0
   -1.4520   23.8110  -27.8480 C   0  0  0  0  0  0  0  0  0  0  0  0
   -2.1760   24.4340  -28.8720 C   0  0  0  0  0  0  0  0  0  0  0  0
   -1.7540   25.6740  -29.3410 O   0  0  0  0  0  0  0  0  0  0  0  0
   -2.5399   22.9650  -32.1462 H   0  0  0  0  0  0  0  0  0  0  0  0
    0.1637   22.2954  -31.2526 H   0  0  0  0  0  0  0  0  0  0  0  0
   -1.5288   21.7971  -31.0597 H   0  0  0  0  0  0  0  0  0  0  0  0
    0.8734   21.0690  -29.4314 H   0  0  0  0  0  0  0  0  0  0  0  0
   -0.8285   21.0180  -28.9572 H   0  0  0  0  0  0  0  0  0  0  0  0
    0.8640   18.8327  -29.9411 H   0  0  0  0  0  0  0  0  0  0  0  0
   -0.8009   18.7108  -29.3673 H   0  0  0  0  0  0  0  0  0  0  0  0
   -0.0702   18.3344  -32.0109 H   0  0  0  0  0  0  0  0  0  0  0  0
   -1.6817   18.9145  -31.5589 H   0  0  0  0  0  0  0  0  0  0  0  0
   -3.7349   19.2078  -33.9221 H   0  0  0  0  0  0  0  0  0  0  0  0
   -6.0956   19.6430  -33.2641 H   0  0  0  0  0  0  0  0  0  0  0  0
   -7.4745   19.7399  -31.9060 H   0  0  0  0  0  0  0  0  0  0  0  0
   -7.8242   20.6713  -30.4108 H   0  0  0  0  0  0  0  0  0  0  0  0
   -9.3589   20.7596  -33.0624 H   0  0  0  0  0  0  0  0  0  0  0  0
   -9.9412   20.1418  -31.4673 H   0  0  0  0  0  0  0  0  0  0  0  0
   -9.0960   22.9427  -33.4200 H   0  0  0  0  0  0  0  0  0  0  0  0
   -9.4691   24.1485  -32.1286 H   0  0  0  0  0  0  0  0  0  0  0  0
   -6.9927   23.8258  -32.5604 H   0  0  0  0  0  0  0  0  0  0  0  0
   -7.4960   23.5054  -30.8667 H   0  0  0  0  0  0  0  0  0  0  0  0
   -4.6192   22.0705  -29.3023 H   0  0  0  0  0  0  0  0  0  0  0  0
   -3.3106   20.9691  -27.4886 H   0  0  0  0  0  0  0  0  0  0  0  0
   -1.2883   22.0853  -26.5475 H   0  0  0  0  0  0  0  0  0  0  0  0
   -0.5585   24.3002  -27.4328 H   0  0  0  0  0  0  0  0  0  0  0  0
  1  2  2  0
  2  3  1  0
  3  4  1  0
  4  5  2  0
  5  6  1  0
  6  7  1  0
  7  8  2  0
  7  9  2  0
  7 10  1  0
 10 11  1  0
 11 12  1  0
 12 13  1  0
 13 14  1  0
  6 15  2  0
 15 16  1  0
 16 17  2  0
 17 18  1  0
 18 19  1  0
 19 20  1  0
 20 21  1  0
 21 22  1  0
 22 23  1  0
  2 24  1  0
 24 25  2  0
 25 26  1  0
 26 27  2  0
 27 28  1  0
 28 29  2  0
 29 30  1  0
 17  4  1  0
 23 18  1  0
 29 24  1  0
 14 10  1  0
  5 31  1  0
 11 32  1  0
 11 33  1  0
 12 34  1  0
 12 35  1  0
 13 36  1  0
 13 37  1  0
 14 38  1  0
 14 39  1  0
 15 40  1  0
 16 41  1  0
 19 42  1  0
 19 43  1  0
 20 44  1  0
 20 45  1  0
 22 46  1  0
 22 47  1  0
 23 48  1  0
 23 49  1  0
 25 50  1  0
 26 51  1  0
 27 52  1  0
 28 53  1  0
M  CHG  2   3  -1  30  -1
M  END
>  <UniqueID>  (18) 
18

>  <SMILES>  (18) 
O=C([N-]c1cc(S(=O)(=O)N2CCCC2)ccc1N1CCOCC1)c1ccccc1[O-]

>  <Energy>  (18) 
67.33293865568642

>  <Genealogy>  (18) 
O=C([N-]c1cc(S(=O)(=O)N2CCCC2)ccc1N1CCOCC1)c1ccccc1[O-] (protonated)
O=C([N-]c1cc(S(=O)(=O)N2CCCC2)ccc1N1CCOCC1)c1ccccc1[O-] (3D coordinates assigned)
O=C([N-]c1cc(S(=O)(=O)N2CCCC2)ccc1N1CCOCC1)c1ccccc1[O-] (nonaromatic ring conformer: 67.33293865568642 kcal/mol)

>  <smiles>  (18) 
O=C(Nc1cc(S(=O)(=O)N2CCCC2)ccc1N1CCOCC1)c1ccccc1O

>  <score_type>  (18) 
oracle

>  <origin>  (18) 
adgpu

>  <m_score__min__energy>  (18) 
-13.51

>  <m_primary>  (18) 
energy

$$$$
18:0
     RDKit          3D

 68 71  0  0  0  0  0  0  0  0999 V2000
   -9.4160   23.2000  -32.2790 C   0  0  0  0  0  0  0  0  0  0  0  0
   -8.8560   22.3010  -31.3270 O   0  0  0  0  0  0  0  0  0  0  0  0
   -8.2970   21.0510  -31.6420 C   0  0  0  0  0  0  0  0  0  0  0  0
   -9.1040   19.9450  -31.9700 C   0  0  0  0  0  0  0  0  0  0  0  0
   -8.5250   18.7240  -32.3210 C   0  0  0  0  0  0  0  0  0  0  0  0
   -7.1320   18.5720  -32.3270 C   0  0  0  0  0  0  0  0  0  0  0  0
   -6.5240   17.2770  -32.7100 C   0  0  0  0  0  0  0  0  0  0  0  0
   -6.8090   16.7660  -33.8290 O   0  0  0  0  0  0  0  0  0  0  0  0
   -5.6570   16.5770  -31.8040 N   0  0  0  0  0  0  0  0  0  0  0  0
   -4.7850   15.5160  -32.2200 C   0  0  0  0  0  0  0  0  0  0  0  0
   -4.9250   14.2410  -31.6510 C   0  0  0  0  0  0  0  0  0  0  0  0
   -4.0860   13.1960  -32.0510 C   0  0  0  0  0  0  0  0  0  0  0  0
   -3.0900   13.4210  -33.0070 C   0  0  0  0  0  0  0  0  0  0  0  0
   -2.9170   14.6990  -33.5550 C   0  0  0  0  0  0  0  0  0  0  0  0
   -1.6360   14.9940  -34.7290 S   0  0  0  0  0  0  0  0  0  0  0  0
   -0.6700   13.8400  -34.7160 O   0  0  0  0  0  0  0  0  0  0  0  0
   -2.2460   15.0870  -36.1000 O   0  0  0  0  0  0  0  0  0  0  0  0
   -0.8000   16.4820  -34.3560 N   0  0  0  0  0  0  0  0  0  0  0  0
   -1.6300   17.6370  -34.7430 C   0  0  0  0  0  0  0  0  0  0  0  0
   -0.8390   18.9520  -34.5950 C   0  0  0  0  0  0  0  0  0  0  0  0
    0.3060   18.8370  -33.5750 C   0  0  0  0  0  0  0  0  0  0  0  0
   -0.0970   17.9290  -32.4130 C   0  0  0  0  0  0  0  0  0  0  0  0
   -0.4820   16.5150  -32.9110 C   0  0  0  0  0  0  0  0  0  0  0  0
   -3.7640   15.7430  -33.1580 C   0  0  0  0  0  0  0  0  0  0  0  0
   -6.3230   19.6680  -31.9910 C   0  0  0  0  0  0  0  0  0  0  0  0
   -6.8920   20.9090  -31.6530 C   0  0  0  0  0  0  0  0  0  0  0  0
   -6.0020   22.0550  -31.3420 C   0  0  0  0  0  0  0  0  0  0  0  0
   -6.5040   23.3650  -31.3030 C   0  0  0  0  0  0  0  0  0  0  0  0
   -5.6580   24.4360  -31.0040 C   0  0  0  0  0  0  0  0  0  0  0  0
   -4.3030   24.2150  -30.7410 C   0  0  0  0  0  0  0  0  0  0  0  0
   -3.4800   25.2990  -30.4550 O   0  0  0  0  0  0  0  0  0  0  0  0
   -3.7840   22.9080  -30.7800 C   0  0  0  0  0  0  0  0  0  0  0  0
   -2.3580   22.6480  -30.4810 C   0  0  0  0  0  0  0  0  0  0  0  0
   -1.8070   23.2870  -29.5430 O   0  0  0  0  0  0  0  0  0  0  0  0
   -1.5960   21.6800  -31.2290 N   0  0  0  0  0  0  0  0  0  0  0  0
   -1.8910   21.4420  -32.6470 C   0  0  0  0  0  0  0  0  0  0  0  0
   -0.4280   21.0500  -30.6010 C   0  0  0  0  0  0  0  0  0  0  0  0
   -4.6430   21.8340  -31.0650 C   0  0  0  0  0  0  0  0  0  0  0  0
   -9.9267   24.0199  -31.7528 H   0  0  0  0  0  0  0  0  0  0  0  0
   -8.6146   23.6121  -32.9098 H   0  0  0  0  0  0  0  0  0  0  0  0
  -10.1392   22.6624  -32.9098 H   0  0  0  0  0  0  0  0  0  0  0  0
  -10.1994   20.0436  -31.9496 H   0  0  0  0  0  0  0  0  0  0  0  0
   -9.1676   17.8743  -32.5951 H   0  0  0  0  0  0  0  0  0  0  0  0
   -5.7600   16.7570  -30.7790 H   0  0  0  0  0  0  0  0  0  0  0  0
   -5.6970   14.0629  -30.8880 H   0  0  0  0  0  0  0  0  0  0  0  0
   -4.2097   12.1947  -31.6127 H   0  0  0  0  0  0  0  0  0  0  0  0
   -2.4413   12.5931  -33.3292 H   0  0  0  0  0  0  0  0  0  0  0  0
   -1.9441   17.5208  -35.7908 H   0  0  0  0  0  0  0  0  0  0  0  0
   -2.5089   17.6773  -34.0827 H   0  0  0  0  0  0  0  0  0  0  0  0
   -0.4144   19.2207  -35.5736 H   0  0  0  0  0  0  0  0  0  0  0  0
   -1.5350   19.7224  -34.2317 H   0  0  0  0  0  0  0  0  0  0  0  0
    1.1921   18.4157  -34.0723 H   0  0  0  0  0  0  0  0  0  0  0  0
    0.5310   19.8388  -33.1804 H   0  0  0  0  0  0  0  0  0  0  0  0
    0.7484   17.8449  -31.7142 H   0  0  0  0  0  0  0  0  0  0  0  0
   -0.9719   18.3714  -31.9142 H   0  0  0  0  0  0  0  0  0  0  0  0
    0.3608   15.8341  -32.7211 H   0  0  0  0  0  0  0  0  0  0  0  0
   -1.3866   16.2072  -32.3660 H   0  0  0  0  0  0  0  0  0  0  0  0
   -3.6282   16.7479  -33.5842 H   0  0  0  0  0  0  0  0  0  0  0  0
   -5.2288   19.5551  -31.9919 H   0  0  0  0  0  0  0  0  0  0  0  0
   -7.5687   23.5495  -31.5088 H   0  0  0  0  0  0  0  0  0  0  0  0
   -6.0606   25.4593  -30.9754 H   0  0  0  0  0  0  0  0  0  0  0  0
   -2.7445   20.7534  -32.7334 H   0  0  0  0  0  0  0  0  0  0  0  0
   -2.1388   22.3961  -33.1351 H   0  0  0  0  0  0  0  0  0  0  0  0
   -1.0109   20.9981  -33.1351 H   0  0  0  0  0  0  0  0  0  0  0  0
   -0.5267   21.1033  -29.5067 H   0  0  0  0  0  0  0  0  0  0  0  0
   -0.3675   19.9969  -30.9129 H   0  0  0  0  0  0  0  0  0  0  0  0
    0.4853   21.5778  -30.9129 H   0  0  0  0  0  0  0  0  0  0  0  0
   -4.2468   20.8079  -31.0713 H   0  0  0  0  0  0  0  0  0  0  0  0
  1  2  1  0
  2  3  1  0
  3  4  2  0
  4  5  1  0
  5  6  2  0
  6  7  1  0
  7  8  2  0
  7  9  1  0
  9 10  1  0
 10 11  2  0
 11 12  1  0
 12 13  2  0
 13 14  1  0
 14 15  1  0
 15 16  2  0
 15 17  2  0
 15 18  1  0
 18 19  1  0
 19 20  1  0
 20 21  1  0
 21 22  1  0
 22 23  1  0
 14 24  2  0
  6 25  1  0
 25 26  2  0
 26 27  1  0
 27 28  2  0
 28 29  1  0
 29 30  2  0
 30 31  1  0
 30 32  1  0
 32 33  1  0
 33 34  2  0
 33 35  1  0
 35 36  1  0
 35 37  1  0
 32 38  2  0
 26  3  1  0
 38 27  1  0
 24 10  1  0
 23 18  1  0
  1 39  1  0
  1 40  1  0
  1 41  1  0
  4 42  1  0
  5 43  1  0
  9 44  1  0
 11 45  1  0
 12 46  1  0
 13 47  1  0
 19 48  1  0
 19 49  1  0
 20 50  1  0
 20 51  1  0
 21 52  1  0
 21 53  1  0
 22 54  1  0
 22 55  1  0
 23 56  1  0
 23 57  1  0
 24 58  1  0
 25 59  1  0
 28 60  1  0
 29 61  1  0
 36 62  1  0
 36 63  1  0
 36 64  1  0
 37 65  1  0
 37 66  1  0
 37 67  1  0
 38 68  1  0
M  CHG  1  31  -1
M  END
>  <UniqueID>  (19) 
19

>  <SMILES>  (19) 
COc1ccc(C(=O)Nc2cccc(S(=O)(=O)N3CCCCC3)c2)cc1-c1ccc([O-])c(C(=O)N(C)C)c1

>  <Energy>  (19) 
89.13150094809836

>  <Genealogy>  (19) 
COc1ccc(C(=O)Nc2cccc(S(=O)(=O)N3CCCCC3)c2)cc1-c1ccc([O-])c(C(=O)N(C)C)c1 (protonated)
COc1ccc(C(=O)Nc2cccc(S(=O)(=O)N3CCCCC3)c2)cc1-c1ccc([O-])c(C(=O)N(C)C)c1 (3D coordinates assigned)
COc1ccc(C(=O)Nc2cccc(S(=O)(=O)N3CCCCC3)c2)cc1-c1ccc([O-])c(C(=O)N(C)C)c1 (nonaromatic ring conformer: 89.13150094809836 kcal/mol)

>  <smiles>  (19) 
COc1ccc(C(=O)Nc2cccc(S(=O)(=O)N3CCCCC3)c2)cc1-c1ccc(O)c(C(=O)N(C)C)c1

>  <score_type>  (19) 
oracle

>  <origin>  (19) 
adgpu

>  <m_score__min__energy>  (19) 
-12.550000000000001

>  <m_primary>  (19) 
energy

$$$$
19:0
     RDKit          3D

 65 69  0  0  1  0  0  0  0  0999 V2000
   -8.9490   22.8850  -32.3450 O   0  0  0  0  0  0  0  0  0  0  0  0
   -8.1300   22.1840  -31.3310 S   0  0  0  0  0  0  0  0  0  0  0  0
   -9.0240   21.9160  -30.1470 O   0  0  0  0  0  0  0  0  0  0  0  0
   -7.5260   20.6670  -31.9560 C   0  0  0  0  0  0  0  0  0  0  0  0
   -8.2010   19.4720  -31.7940 C   0  0  0  0  0  0  0  0  0  0  0  0
   -7.6530   18.3000  -32.3250 C   0  0  0  0  0  0  0  0  0  0  0  0
   -6.4540   18.3210  -33.0050 C   0  0  0  0  0  0  0  0  0  0  0  0
   -5.7720   19.5090  -33.1730 C   0  0  0  0  0  0  0  0  0  0  0  0
   -4.5310   19.6060  -33.8620 N   0  0  0  0  0  0  0  0  0  0  0  0
   -3.5540   20.2130  -33.2940 C   0  0  0  0  0  0  0  0  0  0  0  0
   -3.6250   20.7830  -32.0500 C   0  0  0  0  0  0  0  0  0  0  0  0
   -2.5250   21.4320  -31.4820 C   0  0  0  0  0  0  0  0  0  0  0  0
   -2.6150   22.0200  -30.1920 N   0  0  0  0  0  0  0  0  0  0  0  0
   -2.5950   21.2670  -28.9600 C   0  0  0  0  0  0  0  0  0  0  0  0
   -3.5350   21.8600  -27.9290 C   0  0  0  0  0  0  0  0  0  0  0  0
   -3.2520   23.3070  -27.6470 C   0  0  0  0  0  0  0  0  0  0  0  0
   -2.3270   23.9090  -28.6930 C   0  0  0  0  0  0  0  0  0  0  0  0
   -2.7330   23.4600  -30.0890 C   0  0  0  0  0  0  0  0  0  0  0  0
   -1.4070   21.4600  -32.2280 N   0  0  0  0  0  0  0  0  0  0  0  0
   -1.3280   20.9000  -33.4580 C   0  0  0  0  0  0  0  0  0  0  0  0
   -0.1340   20.9580  -34.1980 N   0  0  0  0  0  0  0  0  0  0  0  0
   -0.1050   21.3750  -35.5880 C   0  0  0  0  0  0  0  0  0  0  0  0
    1.0400   22.3790  -35.7180 C   0  0  0  0  0  0  0  0  0  0  0  0
    2.2350   21.7940  -35.3710 O   0  0  0  0  0  0  0  0  0  0  0  0
    2.1400   20.5770  -34.7320 C   0  0  0  0  0  0  0  0  0  0  0  0
    1.1370   20.5980  -33.5940 C   0  0  0  0  0  0  0  0  0  0  0  0
   -2.3950   20.2760  -33.9970 N   0  0  0  0  0  0  0  0  0  0  0  0
   -6.3330   20.6740  -32.6360 C   0  0  0  0  0  0  0  0  0  0  0  0
   -6.7780   23.1250  -30.8180 N   0  0  0  0  0  0  0  0  0  0  0  0
   -6.2360   23.9280  -31.8720 C   0  0  0  0  0  0  0  0  0  0  0  0
   -5.3960   24.9340  -31.1120 C   0  0  0  0  0  0  0  0  0  0  0  0
   -6.2040   25.2050  -29.8610 C   0  0  0  0  0  0  0  0  0  0  0  0
   -7.1670   24.0380  -29.7710 C   0  0  0  0  0  0  0  0  0  0  0  0
   -9.1586   19.4430  -31.2534 H   0  0  0  0  0  0  0  0  0  0  0  0
   -8.1869   17.3467  -32.1981 H   0  0  0  0  0  0  0  0  0  0  0  0
   -6.0396   17.3881  -33.4149 H   0  0  0  0  0  0  0  0  0  0  0  0
   -4.5679   20.7287  -31.4862 H   0  0  0  0  0  0  0  0  0  0  0  0
   -2.9018   20.2316  -29.1693 H   0  0  0  0  0  0  0  0  0  0  0  0
   -1.5734   21.2991  -28.5534 H   0  0  0  0  0  0  0  0  0  0  0  0
   -4.5663   21.7697  -28.3007 H   0  0  0  0  0  0  0  0  0  0  0  0
   -3.3892   21.3053  -26.9904 H   0  0  0  0  0  0  0  0  0  0  0  0
   -4.2010   23.8632  -27.6468 H   0  0  0  0  0  0  0  0  0  0  0  0
   -2.7564   23.3768  -26.6674 H   0  0  0  0  0  0  0  0  0  0  0  0
   -2.3821   25.0061  -28.6358 H   0  0  0  0  0  0  0  0  0  0  0  0
   -1.2997   23.5688  -28.4958 H   0  0  0  0  0  0  0  0  0  0  0  0
   -3.7751   23.7561  -30.2798 H   0  0  0  0  0  0  0  0  0  0  0  0
   -2.0729   23.9337  -30.8305 H   0  0  0  0  0  0  0  0  0  0  0  0
   -0.5520   21.9210  -31.8810 H   0  0  0  0  0  0  0  0  0  0  0  0
    0.0743   20.5080  -36.2408 H   0  0  0  0  0  0  0  0  0  0  0  0
   -1.0632   21.8245  -35.8877 H   0  0  0  0  0  0  0  0  0  0  0  0
    1.0975   22.7298  -36.7590 H   0  0  0  0  0  0  0  0  0  0  0  0
    0.8490   23.2259  -35.0425 H   0  0  0  0  0  0  0  0  0  0  0  0
    1.8282   19.8172  -35.4637 H   0  0  0  0  0  0  0  0  0  0  0  0
    3.1267   20.3444  -34.3051 H   0  0  0  0  0  0  0  0  0  0  0  0
    1.0706   19.6063  -33.1227 H   0  0  0  0  0  0  0  0  0  0  0  0
    1.4293   21.3096  -32.8078 H   0  0  0  0  0  0  0  0  0  0  0  0
   -5.7998   21.6277  -32.7632 H   0  0  0  0  0  0  0  0  0  0  0  0
   -5.6170   23.3260  -32.5534 H   0  0  0  0  0  0  0  0  0  0  0  0
   -7.0019   24.3886  -32.5133 H   0  0  0  0  0  0  0  0  0  0  0  0
   -4.4120   24.5122  -30.8595 H   0  0  0  0  0  0  0  0  0  0  0  0
   -5.1928   25.8453  -31.6936 H   0  0  0  0  0  0  0  0  0  0  0  0
   -5.5512   25.2395  -28.9763 H   0  0  0  0  0  0  0  0  0  0  0  0
   -6.7234   26.1739  -29.9002 H   0  0  0  0  0  0  0  0  0  0  0  0
   -7.0868   23.5503  -28.7883 H   0  0  0  0  0  0  0  0  0  0  0  0
   -8.2109   24.3650  -29.8865 H   0  0  0  0  0  0  0  0  0  0  0  0
  1  2  2  0
  2  3  2  0
  2  4  1  0
  4  5  2  0
  5  6  1  0
  6  7  2  0
  7  8  1  0
  8  9  1  0
  9 10  2  0
 10 11  1  0
 11 12  2  0
 12 13  1  0
 13 14  1  0
 14 15  1  0
 15 16  1  0
 16 17  1  0
 17 18  1  0
 12 19  1  0
 19 20  1  0
 20 21  1  0
 21 22  1  0
 22 23  1  0
 23 24  1  0
 24 25  1  0
 25 26  1  0
 20 27  2  0
  8 28  2  0
  2 29  1  0
 29 30  1  0
 30 31  1  0
 31 32  1  0
 32 33  1  0
 28  4  1  0
 33 29  1  0
 27 10  1  0
 18 13  1  0
 26 21  1  0
  5 34  1  0
  6 35  1  0
  7 36  1  0
 11 37  1  0
 14 38  1  0
 14 39  1  0
 15 40  1  0
 15 41  1  0
 16 42  1  0
 16 43  1  0
 17 44  1  0
 17 45  1  0
 18 46  1  0
 18 47  1  0
 19 48  1  0
 22 49  1  0
 22 50  1  0
 23 51  1  0
 23 52  1  0
 25 53  1  0
 25 54  1  0
 26 55  1  0
 26 56  1  0
 28 57  1  0
 30 58  1  0
 30 59  1  0
 31 60  1  0
 31 61  1  0
 32 62  1  0
 32 63  1  0
 33 64  1  0
 33 65  1  0
M  END
>  <smiles>  (20) 
O=S(=O)(c1cccc(N=c2cc(N3CCCCC3)[nH]c(N3CCOCC3)n2)c1)N1CCCC1

>  <score_type>  (20) 
oracle

>  <origin>  (20) 
adgpu

>  <m_score__min__energy>  (20) 
-10.029999999999999

>  <m_primary>  (20) 
energy

$$$$
20:0
     RDKit          3D

 52 55  0  0  0  0  0  0  0  0999 V2000
   -4.9720   14.1020  -32.4340 C   0  0  0  0  0  0  0  0  0  0  0  0
   -4.8200   15.5480  -32.8130 C   0  0  0  0  0  0  0  0  0  0  0  0
   -5.4340   16.5390  -32.0360 C   0  0  0  0  0  0  0  0  0  0  0  0
   -5.3170   17.8450  -32.3790 N   0  0  0  0  0  0  0  0  0  0  0  0
   -4.6110   18.2270  -33.4780 C   0  0  0  0  0  0  0  0  0  0  0  0
   -4.5190   19.4800  -33.8200 N   0  0  0  0  0  0  0  0  0  0  0  0
   -5.0450   20.5960  -33.0820 C   0  0  0  0  0  0  0  0  0  0  0  0
   -4.2230   21.6690  -32.6930 C   0  0  0  0  0  0  0  0  0  0  0  0
   -4.7450   22.7250  -31.9430 C   0  0  0  0  0  0  0  0  0  0  0  0
   -3.9150   23.7790  -31.5800 O   0  0  0  0  0  0  0  0  0  0  0  0
   -6.1000   22.7150  -31.5640 C   0  0  0  0  0  0  0  0  0  0  0  0
   -6.6420   23.7210  -30.6960 N   0  0  0  0  0  0  0  0  0  0  0  0
   -6.0680   24.2110  -29.6310 C   0  0  0  0  0  0  0  0  0  0  0  0
   -4.7840   23.7160  -29.0750 C   0  0  0  0  0  0  0  0  0  0  0  0
   -4.7030   22.3910  -28.6180 C   0  0  0  0  0  0  0  0  0  0  0  0
   -3.5180   21.9110  -28.0560 C   0  0  0  0  0  0  0  0  0  0  0  0
   -2.4030   22.7460  -27.9470 C   0  0  0  0  0  0  0  0  0  0  0  0
   -2.4600   24.0610  -28.4250 C   0  0  0  0  0  0  0  0  0  0  0  0
   -1.0630   25.1200  -28.2800 S   0  0  0  0  0  0  0  0  0  0  0  0
    0.1850   24.3720  -28.6590 O   0  0  0  0  0  0  0  0  0  0  0  0
   -0.9450   25.6070  -26.8630 O   0  0  0  0  0  0  0  0  0  0  0  0
   -1.2350   26.4350  -29.3130 O   0  0  0  0  0  0  0  0  0  0  0  0
   -3.6380   24.5300  -29.0200 C   0  0  0  0  0  0  0  0  0  0  0  0
   -6.9380   21.6970  -32.0330 C   0  0  0  0  0  0  0  0  0  0  0  0
   -6.4150   20.6370  -32.7860 C   0  0  0  0  0  0  0  0  0  0  0  0
   -7.2480   19.6090  -33.2240 O   0  0  0  0  0  0  0  0  0  0  0  0
   -4.0330   17.2820  -34.2620 N   0  0  0  0  0  0  0  0  0  0  0  0
   -4.1240   15.9590  -33.9670 C   0  0  0  0  0  0  0  0  0  0  0  0
   -3.3410   14.7860  -35.0800 S   0  0  0  0  0  0  0  0  0  0  0  0
   -2.0900   14.3260  -33.8800 C   0  0  0  0  0  0  0  0  0  0  0  0
   -1.8550   12.9750  -33.5930 C   0  0  0  0  0  0  0  0  0  0  0  0
   -0.8800   12.6180  -32.6550 C   0  0  0  0  0  0  0  0  0  0  0  0
   -0.1330   13.6080  -32.0100 C   0  0  0  0  0  0  0  0  0  0  0  0
   -0.3580   14.9560  -32.3040 C   0  0  0  0  0  0  0  0  0  0  0  0
   -1.3330   15.3160  -33.2390 C   0  0  0  0  0  0  0  0  0  0  0  0
   -4.9817   14.0093  -31.3380 H   0  0  0  0  0  0  0  0  0  0  0  0
   -5.9160   13.7129  -32.8433 H   0  0  0  0  0  0  0  0  0  0  0  0
   -4.1295   13.5252  -32.8433 H   0  0  0  0  0  0  0  0  0  0  0  0
   -6.0130   16.2562  -31.1445 H   0  0  0  0  0  0  0  0  0  0  0  0
   -3.1616   21.6764  -32.9816 H   0  0  0  0  0  0  0  0  0  0  0  0
   -6.5673   25.0431  -29.1130 H   0  0  0  0  0  0  0  0  0  0  0  0
   -5.5767   21.7280  -28.7030 H   0  0  0  0  0  0  0  0  0  0  0  0
   -3.4623   20.8724  -27.6981 H   0  0  0  0  0  0  0  0  0  0  0  0
   -1.4785   22.3696  -27.4848 H   0  0  0  0  0  0  0  0  0  0  0  0
   -3.6673   25.5430  -29.4477 H   0  0  0  0  0  0  0  0  0  0  0  0
   -8.0145   21.7290  -31.8091 H   0  0  0  0  0  0  0  0  0  0  0  0
   -6.8730   18.7550  -33.6240 H   0  0  0  0  0  0  0  0  0  0  0  0
   -2.4371   12.1947  -34.1052 H   0  0  0  0  0  0  0  0  0  0  0  0
   -0.7012   11.5573  -32.4249 H   0  0  0  0  0  0  0  0  0  0  0  0
    0.6318   13.3263  -31.2712 H   0  0  0  0  0  0  0  0  0  0  0  0
    0.2328   15.7344  -31.7990 H   0  0  0  0  0  0  0  0  0  0  0  0
   -1.5061   16.3771  -33.4717 H   0  0  0  0  0  0  0  0  0  0  0  0
  1  2  1  0
  2  3  1  0
  3  4  2  0
  4  5  1  0
  5  6  2  3
  6  7  1  0
  7  8  2  0
  8  9  1  0
  9 10  1  0
  9 11  2  0
 11 12  1  0
 12 13  2  3
 13 14  1  0
 14 15  2  0
 15 16  1  0
 16 17  2  0
 17 18  1  0
 18 19  1  0
 19 20  2  0
 19 21  2  0
 19 22  1  0
 18 23  2  0
 11 24  1  0
 24 25  2  0
 25 26  1  0
  5 27  1  0
 27 28  1  0
 28 29  1  0
 29 30  1  0
 30 31  2  0
 31 32  1  0
 32 33  2  0
 33 34  1  0
 34 35  2  0
 28  2  2  0
 35 30  1  0
 25  7  1  0
 23 14  1  0
  1 36  1  0
  1 37  1  0
  1 38  1  0
  3 39  1  0
  8 40  1  0
 13 41  1  0
 15 42  1  0
 16 43  1  0
 17 44  1  0
 23 45  1  0
 24 46  1  0
 26 47  1  0
 31 48  1  0
 32 49  1  0
 33 50  1  0
 34 51  1  0
 35 52  1  0
M  CHG  3  10  -1  22  -1  27  -1
M  END
>  <UniqueID>  (21) 
20

>  <SMILES>  (21) 
Cc1cnc(=Nc2cc([O-])c(N=Cc3cccc(S(=O)(=O)[O-])c3)cc2O)[n-]c1Sc1ccccc1

>  <Energy>  (21) 
71.85531523413071

>  <Genealogy>  (21) 
Cc1cnc(=Nc2cc([O-])c(N=Cc3cccc(S(=O)(=O)[O-])c3)cc2O)[n-]c1Sc1ccccc1 (protonated)
Cc1cnc(=Nc2cc([O-])c(N=Cc3cccc(S(=O)(=O)[O-])c3)cc2O)[n-]c1Sc1ccccc1 (3D coordinates assigned)
Cc1cnc(=Nc2cc([O-])c(N=Cc3cccc(S(=O)(=O)[O-])c3)cc2O)[n-]c1Sc1ccccc1 (optimized conformer: 71.85531523413071 kcal/mol)

>  <smiles>  (21) 
Cc1cnc(=Nc2cc(O)c(N=Cc3cccc(S(=O)(=O)O)c3)cc2O)[nH]c1Sc1ccccc1

>  <score_type>  (21) 
oracle

>  <origin>  (21) 
adgpu

>  <m_score__min__energy>  (21) 
-12.07

>  <m_primary>  (21) 
energy

$$$$
21:0
     RDKit          3D

 51 55  0  0  0  0  0  0  0  0999 V2000
   -0.4830   18.9810  -29.0150 C   0  0  0  0  0  0  0  0  0  0  0  0
   -0.2320   19.6550  -27.7310 N   0  0  0  0  0  0  0  0  0  0  0  0
   -1.2880   19.3900  -26.7330 C   0  0  0  0  0  0  0  0  0  0  0  0
   -2.6480   19.9690  -27.1520 C   0  0  0  0  0  0  0  0  0  0  0  0
   -2.5270   21.3660  -27.7010 C   0  0  0  0  0  0  0  0  0  0  0  0
   -3.6890   22.1320  -27.8730 C   0  0  0  0  0  0  0  0  0  0  0  0
   -3.6250   23.4220  -28.4280 C   0  0  0  0  0  0  0  0  0  0  0  0
   -4.7990   24.2250  -28.6180 N   0  0  0  0  0  0  0  0  0  0  0  0
   -5.5580   24.5440  -30.1460 S   0  0  0  0  0  0  0  0  0  0  0  0
   -6.6510   25.5610  -29.9600 O   0  0  0  0  0  0  0  0  0  0  0  0
   -4.5390   25.1050  -31.0960 O   0  0  0  0  0  0  0  0  0  0  0  0
   -6.1920   23.0420  -30.8140 C   0  0  0  0  0  0  0  0  0  0  0  0
   -7.5460   22.7130  -30.6840 C   0  0  0  0  0  0  0  0  0  0  0  0
   -8.0260   21.5000  -31.1770 C   0  0  0  0  0  0  0  0  0  0  0  0
   -7.1590   20.5970  -31.8190 C   0  0  0  0  0  0  0  0  0  0  0  0
   -5.7950   20.9290  -31.9630 C   0  0  0  0  0  0  0  0  0  0  0  0
   -5.3220   22.1520  -31.4540 C   0  0  0  0  0  0  0  0  0  0  0  0
   -4.8740   19.9900  -32.6460 C   0  0  0  0  0  0  0  0  0  0  0  0
   -3.6510   20.2830  -32.7680 O   0  0  0  0  0  0  0  0  0  0  0  0
   -5.3860   18.7090  -33.1880 C   0  0  0  0  0  0  0  0  0  0  0  0
   -4.5230   17.8190  -33.8570 C   0  0  0  0  0  0  0  0  0  0  0  0
   -5.0070   16.6120  -34.3620 C   0  0  0  0  0  0  0  0  0  0  0  0
   -6.3510   16.2760  -34.2060 C   0  0  0  0  0  0  0  0  0  0  0  0
   -7.2210   17.1490  -33.5450 C   0  0  0  0  0  0  0  0  0  0  0  0
   -6.7480   18.3720  -33.0330 C   0  0  0  0  0  0  0  0  0  0  0  0
   -7.6660   19.3050  -32.3380 C   0  0  0  0  0  0  0  0  0  0  0  0
   -8.8810   18.9970  -32.1880 O   0  0  0  0  0  0  0  0  0  0  0  0
   -2.3810   23.9440  -28.8060 C   0  0  0  0  0  0  0  0  0  0  0  0
   -2.3040   25.2280  -29.3420 O   0  0  0  0  0  0  0  0  0  0  0  0
   -1.2180   23.1770  -28.6480 C   0  0  0  0  0  0  0  0  0  0  0  0
   -1.2840   21.8820  -28.1160 C   0  0  0  0  0  0  0  0  0  0  0  0
   -0.0050   21.1040  -27.9010 C   0  0  0  0  0  0  0  0  0  0  0  0
   -0.8613   17.9652  -28.8281 H   0  0  0  0  0  0  0  0  0  0  0  0
   -1.2293   19.5505  -29.5883 H   0  0  0  0  0  0  0  0  0  0  0  0
    0.4540   18.9236  -29.5883 H   0  0  0  0  0  0  0  0  0  0  0  0
   -1.3907   18.3020  -26.6077 H   0  0  0  0  0  0  0  0  0  0  0  0
   -0.9910   19.8776  -25.7928 H   0  0  0  0  0  0  0  0  0  0  0  0
   -3.0856   19.3210  -27.9257 H   0  0  0  0  0  0  0  0  0  0  0  0
   -3.2867   20.0120  -26.2574 H   0  0  0  0  0  0  0  0  0  0  0  0
   -4.6622   21.7185  -27.5700 H   0  0  0  0  0  0  0  0  0  0  0  0
   -8.2349   23.4145  -30.1906 H   0  0  0  0  0  0  0  0  0  0  0  0
   -9.0905   21.2474  -31.0630 H   0  0  0  0  0  0  0  0  0  0  0  0
   -4.2583   22.4113  -31.5600 H   0  0  0  0  0  0  0  0  0  0  0  0
   -3.4611   18.0773  -33.9819 H   0  0  0  0  0  0  0  0  0  0  0  0
   -4.3265   15.9237  -34.8846 H   0  0  0  0  0  0  0  0  0  0  0  0
   -6.7280   15.3222  -34.6037 H   0  0  0  0  0  0  0  0  0  0  0  0
   -8.2804   16.8786  -33.4246 H   0  0  0  0  0  0  0  0  0  0  0  0
   -3.1150   25.6840  -29.7470 H   0  0  0  0  0  0  0  0  0  0  0  0
   -0.2448   23.5955  -28.9443 H   0  0  0  0  0  0  0  0  0  0  0  0
    0.6486   21.2564  -28.7726 H   0  0  0  0  0  0  0  0  0  0  0  0
    0.4540   21.4759  -26.9731 H   0  0  0  0  0  0  0  0  0  0  0  0
  1  2  1  0
  2  3  1  0
  3  4  1  0
  4  5  1  0
  5  6  2  0
  6  7  1  0
  7  8  1  0
  8  9  1  0
  9 10  2  0
  9 11  2  0
  9 12  1  0
 12 13  2  0
 13 14  1  0
 14 15  2  0
 15 16  1  0
 16 17  2  0
 16 18  1  0
 18 19  2  0
 18 20  1  0
 20 21  2  0
 21 22  1  0
 22 23  2  0
 23 24  1  0
 24 25  2  0
 25 26  1  0
 26 27  2  0
  7 28  2  0
 28 29  1  0
 28 30  1  0
 30 31  2  0
 31 32  1  0
 32  2  1  0
 31  5  1  0
 17 12  1  0
 25 20  1  0
 26 15  1  0
  1 33  1  0
  1 34  1  0
  1 35  1  0
  3 36  1  0
  3 37  1  0
  4 38  1  0
  4 39  1  0
  6 40  1  0
 13 41  1  0
 14 42  1  0
 17 43  1  0
 21 44  1  0
 22 45  1  0
 23 46  1  0
 24 47  1  0
 29 48  1  0
 30 49  1  0
 32 50  1  0
 32 51  1  0
M  CHG  1   8  -1
M  END
>  <UniqueID>  (22) 
21

>  <SMILES>  (22) 
CN1CCc2cc([N-]S(=O)(=O)c3ccc4c(c3)C(=O)c3ccccc3C4=O)c(O)cc2C1

>  <Energy>  (22) 
69.42591812712502

>  <Genealogy>  (22) 
CN1CCc2cc([N-]S(=O)(=O)c3ccc4c(c3)C(=O)c3ccccc3C4=O)c(O)cc2C1 (protonated)
CN1CCc2cc([N-]S(=O)(=O)c3ccc4c(c3)C(=O)c3ccccc3C4=O)c(O)cc2C1 (3D coordinates assigned)
CN1CCc2cc([N-]S(=O)(=O)c3ccc4c(c3)C(=O)c3ccccc3C4=O)c(O)cc2C1 (nonaromatic ring conformer: 69.42591812712502 kcal/mol)

>  <smiles>  (22) 
CN1CCc2cc(NS(=O)(=O)c3ccc4c(c3)C(=O)c3ccccc3C4=O)c(O)cc2C1

>  <score_type>  (22) 
oracle

>  <origin>  (22) 
adgpu

>  <m_score__min__energy>  (22) 
-14.59

>  <m_primary>  (22) 
energy

$$$$
22:0
     RDKit          3D

 50 53  0  0  0  0  0  0  0  0999 V2000
   -6.2686   25.3274  -31.5916 H   0  0  0  0  0  0  0  0  0  0  0  0
   -5.5490   24.8770  -30.8920 C   0  0  0  0  0  0  0  0  0  0  0  0
   -4.2550   25.2870  -30.8150 N   0  0  0  0  0  0  0  0  0  0  0  0
   -3.5680   24.5890  -29.8880 C   0  0  0  0  0  0  0  0  0  0  0  0
   -2.3120   24.8100  -29.6470 N   0  0  0  0  0  0  0  0  0  0  0  0
   -1.3800   23.9450  -28.4700 S   0  0  0  0  0  0  0  0  0  0  0  0
   -0.0810   24.6560  -28.2130 O   0  0  0  0  0  0  0  0  0  0  0  0
   -2.1520   23.8460  -27.1840 O   0  0  0  0  0  0  0  0  0  0  0  0
   -1.0370   22.3350  -29.0880 C   0  0  0  0  0  0  0  0  0  0  0  0
   -0.0910   21.5040  -28.4510 C   0  0  0  0  0  0  0  0  0  0  0  0
    0.4304   21.8597  -27.5501 H   0  0  0  0  0  0  0  0  0  0  0  0
    0.1890   20.2240  -28.9610 C   0  0  0  0  0  0  0  0  0  0  0  0
    1.3770   19.1970  -28.1760 Cl  0  0  0  0  0  0  0  0  0  0  0  0
   -0.4880   19.8020  -30.1090 C   0  0  0  0  0  0  0  0  0  0  0  0
   -1.4080   20.6050  -30.7230 C   0  0  0  0  0  0  0  0  0  0  0  0
   -1.7140   21.8760  -30.2310 C   0  0  0  0  0  0  0  0  0  0  0  0
   -2.4685   22.5041  -30.7273 H   0  0  0  0  0  0  0  0  0  0  0  0
   -1.9290   19.9930  -31.8890 N   0  0  0  0  0  0  0  0  0  0  0  0
   -2.8610   20.7940  -33.1130 S   0  0  0  0  0  0  0  0  0  0  0  0
   -2.6360   22.2770  -33.0370 O   0  0  0  0  0  0  0  0  0  0  0  0
   -2.4210   20.2970  -34.4620 O   0  0  0  0  0  0  0  0  0  0  0  0
   -4.5710   20.4600  -32.8600 C   0  0  0  0  0  0  0  0  0  0  0  0
   -5.0840   19.1950  -33.1660 C   0  0  0  0  0  0  0  0  0  0  0  0
   -4.4071   18.3969  -33.5049 H   0  0  0  0  0  0  0  0  0  0  0  0
   -6.4520   18.9410  -33.0430 C   0  0  0  0  0  0  0  0  0  0  0  0
   -6.8462   17.9439  -33.2888 H   0  0  0  0  0  0  0  0  0  0  0  0
   -7.3300   19.9510  -32.6070 C   0  0  0  0  0  0  0  0  0  0  0  0
   -8.8210   19.6980  -32.4920 C   0  0  0  0  0  0  0  0  0  0  0  0
   -9.2062   19.4876  -33.5007 H   0  0  0  0  0  0  0  0  0  0  0  0
   -9.1050   18.4700  -31.6160 C   0  0  0  0  0  0  0  0  0  0  0  0
   -9.0395   18.7533  -30.5551 H   0  0  0  0  0  0  0  0  0  0  0  0
  -10.1146   18.0907  -31.8325 H   0  0  0  0  0  0  0  0  0  0  0  0
   -8.3645   17.6860  -31.8325 H   0  0  0  0  0  0  0  0  0  0  0  0
   -9.5530   20.9370  -31.9640 C   0  0  0  0  0  0  0  0  0  0  0  0
   -9.5464   20.9258  -30.8641 H   0  0  0  0  0  0  0  0  0  0  0  0
   -9.0457   21.8440  -32.3245 H   0  0  0  0  0  0  0  0  0  0  0  0
  -10.5922   20.9303  -32.3245 H   0  0  0  0  0  0  0  0  0  0  0  0
   -6.8040   21.2120  -32.2810 C   0  0  0  0  0  0  0  0  0  0  0  0
   -7.4747   22.0074  -31.9239 H   0  0  0  0  0  0  0  0  0  0  0  0
   -5.4340   21.4640  -32.4070 C   0  0  0  0  0  0  0  0  0  0  0  0
   -5.0334   22.4554  -32.1490 H   0  0  0  0  0  0  0  0  0  0  0  0
   -1.2760   18.7010  -32.0750 C   0  0  0  0  0  0  0  0  0  0  0  0
   -2.0239   17.8949  -32.1037 H   0  0  0  0  0  0  0  0  0  0  0  0
   -0.7199   18.6624  -33.0233 H   0  0  0  0  0  0  0  0  0  0  0  0
   -0.3370   18.5210  -30.8580 C   0  0  0  0  0  0  0  0  0  0  0  0
   -0.6516   17.6658  -30.2418 H   0  0  0  0  0  0  0  0  0  0  0  0
    0.7039   18.3139  -31.1470 H   0  0  0  0  0  0  0  0  0  0  0  0
   -4.5360   23.4370  -29.1260 S   0  0  0  0  0  0  0  0  0  0  0  0
   -5.8990   23.8480  -30.0240 C   0  0  0  0  0  0  0  0  0  0  0  0
   -6.8927   23.3840  -29.9393 H   0  0  0  0  0  0  0  0  0  0  0  0
  1  2  1  0
  2  3  1  0
  3  4  1  0
  4  5  2  0
  5  6  1  0
  6  7  2  0
  6  8  2  0
  6  9  1  0
  9 10  2  0
 10 11  1  0
 10 12  1  0
 12 13  1  0
 12 14  2  0
 14 15  1  0
 15 16  2  0
 16 17  1  0
 15 18  1  0
 18 19  1  0
 19 20  2  0
 19 21  2  0
 19 22  1  0
 22 23  2  0
 23 24  1  0
 23 25  1  0
 25 26  1  0
 25 27  2  0
 27 28  1  0
 28 29  1  0
 28 30  1  0
 30 31  1  0
 30 32  1  0
 30 33  1  0
 28 34  1  0
 34 35  1  0
 34 36  1  0
 34 37  1  0
 27 38  1  0
 38 39  1  0
 38 40  2  0
 40 41  1  0
 18 42  1  0
 42 43  1  0
 42 44  1  0
 42 45  1  0
 45 46  1  0
 45 47  1  0
  4 48  1  0
 48 49  1  0
 49 50  1  0
 49  2  2  0
 16  9  1  0
 40 22  1  0
 45 14  1  0
M  CHG  1   3  -1
M  END
>  <UniqueID>  (23) 
22

>  <SMILES>  (23) 
CC(C)c1ccc(S(=O)(=O)N2CCc3c(Cl)cc(S(=O)(=O)/N=c4/[n-]ccs4)cc32)cc1

>  <Energy>  (23) 
98.56901158450985

>  <Genealogy>  (23) 
CC(C)c1ccc(S(=O)(=O)N2CCc3c(Cl)cc(S(=O)(=O)N=c4[n-]ccs4)cc32)cc1 (protonated)
CC(C)c1ccc(S(=O)(=O)N2CCc3c(Cl)cc(S(=O)(=O)/N=c4/[n-]ccs4)cc32)cc1 (cis-trans isomerization)
CC(C)c1ccc(S(=O)(=O)N2CCc3c(Cl)cc(S(=O)(=O)/N=c4/[n-]ccs4)cc32)cc1 (3D coordinates assigned)
CC(C)c1ccc(S(=O)(=O)N2CCc3c(Cl)cc(S(=O)(=O)/N=c4/[n-]ccs4)cc32)cc1 (nonaromatic ring conformer: 98.56901158450985 kcal/mol)

>  <smiles>  (23) 
CC(C)c1ccc(S(=O)(=O)N2CCc3c(Cl)cc(S(=O)(=O)N=c4[nH]ccs4)cc32)cc1

>  <score_type>  (23) 
oracle

>  <origin>  (23) 
adgpu

>  <m_score__min__energy>  (23) 
-12.140000000000001

>  <m_primary>  (23) 
energy

$$$$
23:0
     RDKit          3D

 67 71  0  0  0  0  0  0  0  0999 V2000
   -2.1770   19.7570  -33.0760 C   0  0  0  0  0  0  0  0  0  0  0  0
   -3.3910   18.9190  -33.3480 C   0  0  0  0  0  0  0  0  0  0  0  0
   -3.5480   18.2840  -34.5840 C   0  0  0  0  0  0  0  0  0  0  0  0
   -4.6720   17.4960  -34.8340 C   0  0  0  0  0  0  0  0  0  0  0  0
   -5.6460   17.3080  -33.8470 C   0  0  0  0  0  0  0  0  0  0  0  0
   -6.7800   16.5670  -34.1930 O   0  0  0  0  0  0  0  0  0  0  0  0
   -5.4610   17.8760  -32.5590 C   0  0  0  0  0  0  0  0  0  0  0  0
   -6.4650   17.6820  -31.4410 C   0  0  0  0  0  0  0  0  0  0  0  0
   -7.8370   17.8550  -31.9370 N   0  0  0  0  0  0  0  0  0  0  0  0
   -8.4880   19.0160  -31.3180 C   0  0  0  0  0  0  0  0  0  0  0  0
   -8.4170   20.2400  -32.2530 C   0  0  1  0  0  0  0  0  0  0  0  0
   -9.7800   20.9740  -32.3120 C   0  0  0  0  0  0  0  0  0  0  0  0
   -9.6390   22.2540  -31.4670 C   0  0  0  0  0  0  0  0  0  0  0  0
   -8.1750   22.4000  -31.3000 C   0  0  0  0  0  0  0  0  0  0  0  0
   -7.5030   23.5090  -30.7830 C   0  0  0  0  0  0  0  0  0  0  0  0
   -6.0980   23.4850  -30.7230 C   0  0  0  0  0  0  0  0  0  0  0  0
   -5.2050   24.8730  -30.1050 S   0  0  0  0  0  0  0  0  0  0  0  0
   -5.3150   24.9230  -28.6060 O   0  0  0  0  0  0  0  0  0  0  0  0
   -5.7810   26.1410  -30.6690 O   0  0  0  0  0  0  0  0  0  0  0  0
   -3.5400   24.7600  -30.5620 N   0  0  0  0  0  0  0  0  0  0  0  0
   -2.6230   24.0070  -29.7680 C   0  0  0  0  0  0  0  0  0  0  0  0
   -2.6910   22.6110  -29.7600 C   0  0  0  0  0  0  0  0  0  0  0  0
   -1.8490   21.8620  -28.9260 C   0  0  0  0  0  0  0  0  0  0  0  0
   -0.9290   22.5270  -28.0890 C   0  0  0  0  0  0  0  0  0  0  0  0
   -0.8340   23.9260  -28.1370 C   0  0  0  0  0  0  0  0  0  0  0  0
   -1.6850   24.6640  -28.9630 C   0  0  0  0  0  0  0  0  0  0  0  0
   -1.6020   26.0500  -28.9680 O   0  0  0  0  0  0  0  0  0  0  0  0
    0.0040   21.7480  -27.1930 C   0  0  0  0  0  0  0  0  0  0  0  0
   -0.5200   20.4110  -26.8490 N   0  0  0  0  0  0  0  0  0  0  0  0
   -1.6000   20.4830  -25.8470 C   0  0  0  0  0  0  0  0  0  0  0  0
   -0.9170   19.6660  -28.0610 C   0  0  0  0  0  0  0  0  0  0  0  0
   -2.0330   20.3690  -28.8520 C   0  0  0  0  0  0  0  0  0  0  0  0
   -5.3980   22.3590  -31.1980 C   0  0  0  0  0  0  0  0  0  0  0  0
   -6.0950   21.2620  -31.7260 C   0  0  0  0  0  0  0  0  0  0  0  0
   -7.4930   21.2940  -31.7400 C   0  0  0  0  0  0  0  0  0  0  0  0
   -4.3420   18.7080  -32.3410 C   0  0  0  0  0  0  0  0  0  0  0  0
   -2.0350   19.8550  -31.9896 H   0  0  0  0  0  0  0  0  0  0  0  0
   -1.2926   19.2761  -33.5195 H   0  0  0  0  0  0  0  0  0  0  0  0
   -2.3131   20.7544  -33.5195 H   0  0  0  0  0  0  0  0  0  0  0  0
   -2.7813   18.4064  -35.3633 H   0  0  0  0  0  0  0  0  0  0  0  0
   -4.7937   17.0176  -35.8170 H   0  0  0  0  0  0  0  0  0  0  0  0
   -7.5990   16.4750  -33.6040 H   0  0  0  0  0  0  0  0  0  0  0  0
   -6.3553   16.6677  -31.0296 H   0  0  0  0  0  0  0  0  0  0  0  0
   -6.2743   18.4339  -30.6610 H   0  0  0  0  0  0  0  0  0  0  0  0
   -7.7620   18.0490  -32.9630 H   0  0  0  0  0  0  0  0  0  0  0  0
   -9.5423   18.7750  -31.1173 H   0  0  0  0  0  0  0  0  0  0  0  0
   -7.9674   19.2560  -30.3792 H   0  0  0  0  0  0  0  0  0  0  0  0
   -8.0915   19.8303  -33.2206 H   0  0  0  0  0  0  0  0  0  0  0  0
  -10.0247   21.2333  -33.3526 H   0  0  0  0  0  0  0  0  0  0  0  0
  -10.5872   20.3349  -31.9247 H   0  0  0  0  0  0  0  0  0  0  0  0
  -10.0628   23.1215  -31.9941 H   0  0  0  0  0  0  0  0  0  0  0  0
  -10.1753   22.1951  -30.5084 H   0  0  0  0  0  0  0  0  0  0  0  0
   -8.0629   24.3869  -30.4285 H   0  0  0  0  0  0  0  0  0  0  0  0
   -3.4108   22.0960  -30.4132 H   0  0  0  0  0  0  0  0  0  0  0  0
   -0.0850   24.4447  -27.5206 H   0  0  0  0  0  0  0  0  0  0  0  0
    0.9676   21.6261  -27.7094 H   0  0  0  0  0  0  0  0  0  0  0  0
    0.1133   22.3132  -26.2556 H   0  0  0  0  0  0  0  0  0  0  0  0
   -1.1655   20.4540  -24.8369 H   0  0  0  0  0  0  0  0  0  0  0  0
   -2.1602   21.4205  -25.9784 H   0  0  0  0  0  0  0  0  0  0  0  0
   -2.2797   19.6282  -25.9784 H   0  0  0  0  0  0  0  0  0  0  0  0
   -0.0372   19.5600  -28.7127 H   0  0  0  0  0  0  0  0  0  0  0  0
   -1.3045   18.6886  -27.7377 H   0  0  0  0  0  0  0  0  0  0  0  0
   -2.0450   19.9659  -29.8754 H   0  0  0  0  0  0  0  0  0  0  0  0
   -2.9800   20.1792  -28.3256 H   0  0  0  0  0  0  0  0  0  0  0  0
   -4.2990   22.3396  -31.1548 H   0  0  0  0  0  0  0  0  0  0  0  0
   -5.5513   20.3917  -32.1222 H   0  0  0  0  0  0  0  0  0  0  0  0
   -4.2145   19.1987  -31.3648 H   0  0  0  0  0  0  0  0  0  0  0  0
  1  2  1  0
  2  3  2  0
  3  4  1  0
  4  5  2  0
  5  6  1  0
  5  7  1  0
  7  8  1  0
  8  9  1  0
  9 10  1  0
 10 11  1  0
 11 12  1  0
 12 13  1  0
 13 14  1  0
 14 15  2  0
 15 16  1  0
 16 17  1  0
 17 18  2  0
 17 19  2  0
 17 20  1  0
 20 21  1  0
 21 22  2  0
 22 23  1  0
 23 24  2  0
 24 25  1  0
 25 26  2  0
 26 27  1  0
 24 28  1  0
 28 29  1  0
 29 30  1  0
 29 31  1  0
 31 32  1  0
 16 33  2  0
 33 34  1  0
 34 35  2  0
  7 36  2  0
 36  2  1  0
 35 11  1  0
 35 14  1  0
 26 21  1  0
 32 23  1  0
  1 37  1  0
  1 38  1  0
  1 39  1  0
  3 40  1  0
  4 41  1  0
  6 42  1  0
  8 43  1  0
  8 44  1  0
  9 45  1  0
 10 46  1  0
 10 47  1  0
 11 48  1  6
 12 49  1  0
 12 50  1  0
 13 51  1  0
 13 52  1  0
 15 53  1  0
 22 54  1  0
 25 55  1  0
 28 56  1  0
 28 57  1  0
 30 58  1  0
 30 59  1  0
 30 60  1  0
 31 61  1  0
 31 62  1  0
 32 63  1  0
 32 64  1  0
 33 65  1  0
 34 66  1  0
 36 67  1  0
M  CHG  2  20  -1  27  -1
M  END
>  <UniqueID>  (24) 
23

>  <SMILES>  (24) 
Cc1ccc(O)c(CNC[C@H]2CCc3cc(S(=O)(=O)[N-]c4cc5c(cc4[O-])CN(C)CC5)ccc32)c1

>  <Energy>  (24) 
94.00391241600038

>  <Genealogy>  (24) 
Cc1ccc(O)c(CNCC2CCc3cc(S(=O)(=O)[N-]c4cc5c(cc4[O-])CN(C)CC5)ccc32)c1 (protonated)
Cc1ccc(O)c(CNC[C@H]2CCc3cc(S(=O)(=O)[N-]c4cc5c(cc4[O-])CN(C)CC5)ccc32)c1 (chirality)
Cc1ccc(O)c(CNC[C@H]2CCc3cc(S(=O)(=O)[N-]c4cc5c(cc4[O-])CN(C)CC5)ccc32)c1 (3D coordinates assigned)
Cc1ccc(O)c(CNC[C@H]2CCc3cc(S(=O)(=O)[N-]c4cc5c(cc4[O-])CN(C)CC5)ccc32)c1 (nonaromatic ring conformer: 94.00391241600038 kcal/mol)

>  <smiles>  (24) 
Cc1ccc(O)c(CNCC2CCc3cc(S(=O)(=O)Nc4cc5c(cc4O)CN(C)CC5)ccc32)c1

>  <score_type>  (24) 
oracle

>  <origin>  (24) 
adgpu

>  <m_score__min__energy>  (24) 
-16.280000000000001

>  <m_primary>  (24) 
energy

$$$$
24:0
     RDKit          3D

 55 57  0  0  0  0  0  0  0  0999 V2000
   -2.8830   25.2910  -26.3710 C   0  0  0  0  0  0  0  0  0  0  0  0
   -2.5770   24.4070  -27.5340 C   0  0  0  0  0  0  0  0  0  0  0  0
   -1.3910   23.7910  -27.7130 N   0  0  0  0  0  0  0  0  0  0  0  0
   -1.4910   23.0290  -28.7950 N   0  0  0  0  0  0  0  0  0  0  0  0
   -0.4420   22.1140  -29.2270 C   0  0  0  0  0  0  0  0  0  0  0  0
   -2.7360   23.1250  -29.3110 C   0  0  0  0  0  0  0  0  0  0  0  0
   -3.2850   22.2520  -30.3990 C   0  0  0  0  0  0  0  0  0  0  0  0
   -3.4520   24.0020  -28.5240 C   0  0  0  0  0  0  0  0  0  0  0  0
   -4.8600   24.2410  -28.5820 N   0  0  0  0  0  0  0  0  0  0  0  0
   -5.5600   24.8640  -30.0370 S   0  0  0  0  0  0  0  0  0  0  0  0
   -6.4310   26.0480  -29.7260 O   0  0  0  0  0  0  0  0  0  0  0  0
   -4.4650   25.3060  -30.9670 O   0  0  0  0  0  0  0  0  0  0  0  0
   -6.5030   23.5900  -30.8040 C   0  0  0  0  0  0  0  0  0  0  0  0
   -6.1420   23.1140  -32.0710 C   0  0  0  0  0  0  0  0  0  0  0  0
   -6.8400   22.0490  -32.6480 C   0  0  0  0  0  0  0  0  0  0  0  0
   -7.9020   21.4390  -31.9540 C   0  0  0  0  0  0  0  0  0  0  0  0
   -8.6220   20.3580  -32.4820 O   0  0  0  0  0  0  0  0  0  0  0  0
   -8.7250   19.0770  -31.8640 C   0  0  0  0  0  0  0  0  0  0  0  0
   -7.4050   18.3210  -31.9950 C   0  0  0  0  0  0  0  0  0  0  0  0
   -7.0940   18.0750  -33.4240 N   0  0  0  0  0  0  0  0  0  0  0  0
   -6.6690   16.6830  -33.6800 C   0  0  0  0  0  0  0  0  0  0  0  0
   -5.2910   16.3720  -33.0650 C   0  0  0  0  0  0  0  0  0  0  0  0
   -4.3310   17.5750  -33.1160 C   0  0  0  0  0  0  0  0  0  0  0  0
   -4.7250   18.5610  -34.2140 C   0  0  0  0  0  0  0  0  0  0  0  0
   -6.1640   19.0810  -34.0070 C   0  0  0  0  0  0  0  0  0  0  0  0
   -8.2560   21.9180  -30.6880 C   0  0  0  0  0  0  0  0  0  0  0  0
   -7.5610   22.9860  -30.1140 C   0  0  0  0  0  0  0  0  0  0  0  0
   -2.6938   24.7445  -25.4353 H   0  0  0  0  0  0  0  0  0  0  0  0
   -2.2416   26.1838  -26.4103 H   0  0  0  0  0  0  0  0  0  0  0  0
   -3.9391   25.5962  -26.4103 H   0  0  0  0  0  0  0  0  0  0  0  0
    0.0536   21.6817  -28.3452 H   0  0  0  0  0  0  0  0  0  0  0  0
   -0.8843   21.3080  -29.8309 H   0  0  0  0  0  0  0  0  0  0  0  0
    0.2965   22.6617  -29.8309 H   0  0  0  0  0  0  0  0  0  0  0  0
   -3.8200   21.4013  -29.9517 H   0  0  0  0  0  0  0  0  0  0  0  0
   -3.9792   22.8352  -31.0218 H   0  0  0  0  0  0  0  0  0  0  0  0
   -2.4586   21.8789  -31.0218 H   0  0  0  0  0  0  0  0  0  0  0  0
   -5.3620   24.4390  -27.6890 H   0  0  0  0  0  0  0  0  0  0  0  0
   -5.3064   23.5798  -32.6138 H   0  0  0  0  0  0  0  0  0  0  0  0
   -6.5584   21.6865  -33.6476 H   0  0  0  0  0  0  0  0  0  0  0  0
   -8.9658   19.2059  -30.7984 H   0  0  0  0  0  0  0  0  0  0  0  0
   -9.5194   18.5012  -32.3614 H   0  0  0  0  0  0  0  0  0  0  0  0
   -6.5982   18.9184  -31.5454 H   0  0  0  0  0  0  0  0  0  0  0  0
   -7.4920   17.3552  -31.4757 H   0  0  0  0  0  0  0  0  0  0  0  0
   -7.4133   15.9998  -33.2449 H   0  0  0  0  0  0  0  0  0  0  0  0
   -6.5904   16.5491  -34.7690 H   0  0  0  0  0  0  0  0  0  0  0  0
   -5.4328   16.0795  -32.0141 H   0  0  0  0  0  0  0  0  0  0  0  0
   -4.8392   15.5617  -33.6560 H   0  0  0  0  0  0  0  0  0  0  0  0
   -4.3550   18.0926  -32.1457 H   0  0  0  0  0  0  0  0  0  0  0  0
   -3.3204   17.2003  -33.3357 H   0  0  0  0  0  0  0  0  0  0  0  0
   -4.0296   19.4132  -34.1975 H   0  0  0  0  0  0  0  0  0  0  0  0
   -4.6783   18.0412  -35.1823 H   0  0  0  0  0  0  0  0  0  0  0  0
   -6.1245   19.9480  -33.3311 H   0  0  0  0  0  0  0  0  0  0  0  0
   -6.5559   19.3371  -35.0024 H   0  0  0  0  0  0  0  0  0  0  0  0
   -9.0876   21.4505  -30.1404 H   0  0  0  0  0  0  0  0  0  0  0  0
   -7.8461   23.3532  -29.1171 H   0  0  0  0  0  0  0  0  0  0  0  0
  1  2  1  0
  2  3  2  0
  3  4  1  0
  4  5  1  0
  4  6  1  0
  6  7  1  0
  6  8  2  0
  8  9  1  0
  9 10  1  0
 10 11  2  0
 10 12  2  0
 10 13  1  0
 13 14  2  0
 14 15  1  0
 15 16  2  0
 16 17  1  0
 17 18  1  0
 18 19  1  0
 19 20  1  0
 20 21  1  0
 21 22  1  0
 22 23  1  0
 23 24  1  0
 24 25  1  0
 16 26  1  0
 26 27  2  0
  8  2  1  0
 27 13  1  0
 25 20  1  0
  1 28  1  0
  1 29  1  0
  1 30  1  0
  5 31  1  0
  5 32  1  0
  5 33  1  0
  7 34  1  0
  7 35  1  0
  7 36  1  0
  9 37  1  0
 14 38  1  0
 15 39  1  0
 18 40  1  0
 18 41  1  0
 19 42  1  0
 19 43  1  0
 21 44  1  0
 21 45  1  0
 22 46  1  0
 22 47  1  0
 23 48  1  0
 23 49  1  0
 24 50  1  0
 24 51  1  0
 25 52  1  0
 25 53  1  0
 26 54  1  0
 27 55  1  0
M  END
>  <UniqueID>  (25) 
24

>  <SMILES>  (25) 
Cc1nn(C)c(C)c1NS(=O)(=O)c1ccc(OCCN2CCCCC2)cc1

>  <Energy>  (25) 
95.7416030910067

>  <Genealogy>  (25) 
Cc1nn(C)c(C)c1NS(=O)(=O)c1ccc(OCCN2CCCCC2)cc1 (3D coordinates assigned)
Cc1nn(C)c(C)c1NS(=O)(=O)c1ccc(OCCN2CCCCC2)cc1 (nonaromatic ring conformer: 95.7416030910067 kcal/mol)

>  <smiles>  (25) 
Cc1nn(C)c(C)c1NS(=O)(=O)c1ccc(OCCN2CCCCC2)cc1

>  <score_type>  (25) 
oracle

>  <origin>  (25) 
adgpu

>  <m_score__min__energy>  (25) 
-9.6999999999999993

>  <m_primary>  (25) 
energy

$$$$
25:0
     RDKit          3D

 48 51  0  0  0  0  0  0  0  0999 V2000
    0.1670   17.4090  -36.1380 N   0  0  0  0  0  0  0  0  0  0  0  0
    0.5270   18.5940  -35.4250 C   0  0  0  0  0  0  0  0  0  0  0  0
    1.7280   18.9790  -35.4420 O   0  0  0  0  0  0  0  0  0  0  0  0
   -0.4890   19.3640  -34.6760 C   0  0  0  0  0  0  0  0  0  0  0  0
   -0.1850   20.6160  -34.1220 C   0  0  0  0  0  0  0  0  0  0  0  0
   -1.1670   21.3170  -33.4200 C   0  0  0  0  0  0  0  0  0  0  0  0
   -2.4580   20.7760  -33.2730 C   0  0  0  0  0  0  0  0  0  0  0  0
   -3.5240   21.4900  -32.5260 C   0  0  0  0  0  0  0  0  0  0  0  0
   -3.2380   22.5770  -31.6870 C   0  0  0  0  0  0  0  0  0  0  0  0
   -4.2750   23.2330  -30.9970 C   0  0  0  0  0  0  0  0  0  0  0  0
   -3.9800   24.4280  -30.0880 C   0  0  0  0  0  0  0  0  0  0  0  0
   -3.8780   25.6400  -30.8050 O   0  0  0  0  0  0  0  0  0  0  0  0
   -2.7940   24.2110  -29.1360 C   0  0  0  0  0  0  0  0  0  0  0  0
   -3.7370   24.3330  -27.9420 C   0  0  0  0  0  0  0  0  0  0  0  0
   -4.9220   24.5480  -28.8790 C   0  0  0  0  0  0  0  0  0  0  0  0
   -5.5940   22.7790  -31.1810 C   0  0  0  0  0  0  0  0  0  0  0  0
   -5.8540   21.6900  -32.0310 C   0  0  0  0  0  0  0  0  0  0  0  0
   -7.1970   21.2030  -32.2450 N   0  0  0  0  0  0  0  0  0  0  0  0
   -8.3640   22.0560  -31.9860 C   0  0  0  0  0  0  0  0  0  0  0  0
   -9.5860   21.1950  -31.6480 C   0  0  0  0  0  0  0  0  0  0  0  0
   -9.7820   20.1920  -32.6250 O   0  0  0  0  0  0  0  0  0  0  0  0
   -8.6990   19.2840  -32.5940 C   0  0  0  0  0  0  0  0  0  0  0  0
   -7.4010   19.9730  -33.0230 C   0  0  0  0  0  0  0  0  0  0  0  0
   -4.8160   21.0910  -32.6740 N   0  0  0  0  0  0  0  0  0  0  0  0
   -2.7130   19.5140  -33.8340 C   0  0  0  0  0  0  0  0  0  0  0  0
   -1.7390   18.8520  -34.5130 N   0  0  0  0  0  0  0  0  0  0  0  0
    0.8940   16.8740  -36.6640 H   0  0  0  0  0  0  0  0  0  0  0  0
   -0.8150   17.0570  -36.1500 H   0  0  0  0  0  0  0  0  0  0  0  0
    0.8217   21.0432  -34.2400 H   0  0  0  0  0  0  0  0  0  0  0  0
   -0.9307   22.2969  -32.9796 H   0  0  0  0  0  0  0  0  0  0  0  0
   -2.1991   22.9183  -31.5677 H   0  0  0  0  0  0  0  0  0  0  0  0
   -3.2760   25.5060  -31.5840 H   0  0  0  0  0  0  0  0  0  0  0  0
   -2.3147   23.2256  -29.2318 H   0  0  0  0  0  0  0  0  0  0  0  0
   -1.8977   24.8448  -29.2069 H   0  0  0  0  0  0  0  0  0  0  0  0
   -3.8084   23.4191  -27.3340 H   0  0  0  0  0  0  0  0  0  0  0  0
   -3.5256   25.0607  -27.1446 H   0  0  0  0  0  0  0  0  0  0  0  0
   -5.6873   23.7597  -28.8248 H   0  0  0  0  0  0  0  0  0  0  0  0
   -5.5735   25.4267  -28.7634 H   0  0  0  0  0  0  0  0  0  0  0  0
   -6.4237   23.2774  -30.6584 H   0  0  0  0  0  0  0  0  0  0  0  0
   -8.1450   22.7238  -31.1398 H   0  0  0  0  0  0  0  0  0  0  0  0
   -8.5814   22.6490  -32.8866 H   0  0  0  0  0  0  0  0  0  0  0  0
   -9.4312   20.7186  -30.6687 H   0  0  0  0  0  0  0  0  0  0  0  0
  -10.4758   21.8413  -31.6243 H   0  0  0  0  0  0  0  0  0  0  0  0
   -8.5813   18.8975  -31.5709 H   0  0  0  0  0  0  0  0  0  0  0  0
   -8.9088   18.4602  -33.2921 H   0  0  0  0  0  0  0  0  0  0  0  0
   -6.5546   19.2912  -32.8531 H   0  0  0  0  0  0  0  0  0  0  0  0
   -7.4678   20.2308  -34.0903 H   0  0  0  0  0  0  0  0  0  0  0  0
   -3.7079   19.0580  -33.7232 H   0  0  0  0  0  0  0  0  0  0  0  0
  1  2  1  0
  2  3  2  0
  2  4  1  0
  4  5  2  0
  5  6  1  0
  6  7  2  0
  7  8  1  0
  8  9  2  0
  9 10  1  0
 10 11  1  0
 11 12  1  0
 11 13  1  0
 13 14  1  0
 14 15  1  0
 10 16  2  0
 16 17  1  0
 17 18  1  0
 18 19  1  0
 19 20  1  0
 20 21  1  0
 21 22  1  0
 22 23  1  0
 17 24  2  0
  7 25  1  0
 25 26  2  0
 26  4  1  0
 24  8  1  0
 15 11  1  0
 23 18  1  0
  1 27  1  0
  1 28  1  0
  5 29  1  0
  6 30  1  0
  9 31  1  0
 12 32  1  0
 13 33  1  0
 13 34  1  0
 14 35  1  0
 14 36  1  0
 15 37  1  0
 15 38  1  0
 16 39  1  0
 19 40  1  0
 19 41  1  0
 20 42  1  0
 20 43  1  0
 22 44  1  0
 22 45  1  0
 23 46  1  0
 23 47  1  0
 25 48  1  0
M  END
>  <UniqueID>  (26) 
25

>  <SMILES>  (26) 
NC(=O)c1ccc(-c2cc(C3(O)CCC3)cc(N3CCOCC3)n2)cn1

>  <Energy>  (26) 
123.85075519397097

>  <Genealogy>  (26) 
NC(=O)c1ccc(-c2cc(C3(O)CCC3)cc(N3CCOCC3)n2)cn1 (3D coordinates assigned)
NC(=O)c1ccc(-c2cc(C3(O)CCC3)cc(N3CCOCC3)n2)cn1 (nonaromatic ring conformer: 123.85075519397097 kcal/mol)

>  <smiles>  (26) 
NC(=O)c1ccc(-c2cc(C3(O)CCC3)cc(N3CCOCC3)n2)cn1

>  <score_type>  (26) 
oracle

>  <origin>  (26) 
adgpu

>  <m_score__min__energy>  (26) 
-9.0099999999999998

>  <m_primary>  (26) 
energy

$$$$
26:0
     RDKit          3D

 70 74  0  0  0  0  0  0  0  0999 V2000
   -9.7170   22.0390  -31.9410 C   0  0  0  0  0  0  0  0  0  0  0  0
   -8.3740   22.5540  -31.5170 C   0  0  0  0  0  0  0  0  0  0  0  0
   -7.8730   22.2370  -30.2430 C   0  0  0  0  0  0  0  0  0  0  0  0
   -6.5990   22.6680  -29.8610 C   0  0  0  0  0  0  0  0  0  0  0  0
   -5.8110   23.4180  -30.7490 C   0  0  0  0  0  0  0  0  0  0  0  0
   -4.1930   23.9170  -30.2670 S   0  0  0  0  0  0  0  0  0  0  0  0
   -4.1410   24.0100  -28.7660 O   0  0  0  0  0  0  0  0  0  0  0  0
   -3.8650   25.2710  -30.8350 O   0  0  0  0  0  0  0  0  0  0  0  0
   -2.9990   22.7500  -30.8280 C   0  0  0  0  0  0  0  0  0  0  0  0
   -3.3940   21.7650  -31.6780 N   0  0  0  0  0  0  0  0  0  0  0  0
   -2.5430   20.7900  -32.1000 C   0  0  0  0  0  0  0  0  0  0  0  0
   -3.1670   19.5030  -33.1260 S   0  0  0  0  0  0  0  0  0  0  0  0
   -2.9380   19.8490  -34.5690 O   0  0  0  0  0  0  0  0  0  0  0  0
   -2.4490   18.2200  -32.8150 O   0  0  0  0  0  0  0  0  0  0  0  0
   -4.8970   19.3310  -32.8460 C   0  0  0  0  0  0  0  0  0  0  0  0
   -5.3680   18.3210  -31.9920 C   0  0  0  0  0  0  0  0  0  0  0  0
   -6.7390   18.1720  -31.7650 C   0  0  0  0  0  0  0  0  0  0  0  0
   -7.6550   19.0260  -32.3940 C   0  0  0  0  0  0  0  0  0  0  0  0
   -9.1230   18.9040  -32.1090 C   0  0  0  0  0  0  0  0  0  0  0  0
   -7.1820   20.0490  -33.2320 C   0  0  0  0  0  0  0  0  0  0  0  0
   -5.8100   20.1970  -33.4620 C   0  0  0  0  0  0  0  0  0  0  0  0
   -1.2200   20.7940  -31.6260 C   0  0  0  0  0  0  0  0  0  0  0  0
   -0.2800   19.7890  -32.0150 N   0  0  0  0  0  0  0  0  0  0  0  0
    0.5800   20.0520  -33.1710 C   0  0  0  0  0  0  0  0  0  0  0  0
    1.2080   18.7500  -33.7310 C   0  0  0  0  0  0  0  0  0  0  0  0
    1.1030   17.6210  -32.8720 O   0  0  0  0  0  0  0  0  0  0  0  0
    1.3170   17.9920  -31.5280 C   0  0  0  0  0  0  0  0  0  0  0  0
    0.1030   18.7730  -31.0290 C   0  0  0  0  0  0  0  0  0  0  0  0
   -0.8240   21.7750  -30.7740 N   0  0  0  0  0  0  0  0  0  0  0  0
   -1.6720   22.7510  -30.3570 C   0  0  0  0  0  0  0  0  0  0  0  0
   -1.1950   23.7570  -29.4560 N   0  0  0  0  0  0  0  0  0  0  0  0
   -0.9400   23.4630  -28.0480 C   0  0  0  0  0  0  0  0  0  0  0  0
   -1.1980   22.0150  -27.7380 C   0  0  0  0  0  0  0  0  0  0  0  0
   -2.5010   21.5730  -27.4610 C   0  0  0  0  0  0  0  0  0  0  0  0
   -2.7430   20.2160  -27.2150 C   0  0  0  0  0  0  0  0  0  0  0  0
   -1.6890   19.2980  -27.2280 C   0  0  0  0  0  0  0  0  0  0  0  0
   -0.3850   19.7370  -27.4720 C   0  0  0  0  0  0  0  0  0  0  0  0
   -0.1380   21.0910  -27.7230 C   0  0  0  0  0  0  0  0  0  0  0  0
   -6.3150   23.7470  -32.0150 C   0  0  0  0  0  0  0  0  0  0  0  0
   -7.5840   23.3090  -32.4030 C   0  0  0  0  0  0  0  0  0  0  0  0
  -10.3192   21.8081  -31.0499 H   0  0  0  0  0  0  0  0  0  0  0  0
  -10.2301   22.8042  -32.5421 H   0  0  0  0  0  0  0  0  0  0  0  0
   -9.5869   21.1270  -32.5421 H   0  0  0  0  0  0  0  0  0  0  0  0
   -8.4850   21.6480  -29.5441 H   0  0  0  0  0  0  0  0  0  0  0  0
   -6.2127   22.4188  -28.8617 H   0  0  0  0  0  0  0  0  0  0  0  0
   -4.6547   17.6439  -31.4993 H   0  0  0  0  0  0  0  0  0  0  0  0
   -7.1003   17.3818  -31.0904 H   0  0  0  0  0  0  0  0  0  0  0  0
   -9.2854   18.8905  -31.0211 H   0  0  0  0  0  0  0  0  0  0  0  0
   -9.6543   19.7611  -32.5485 H   0  0  0  0  0  0  0  0  0  0  0  0
   -9.5055   17.9710  -32.5485 H   0  0  0  0  0  0  0  0  0  0  0  0
   -7.8942   20.7376  -33.7101 H   0  0  0  0  0  0  0  0  0  0  0  0
   -5.4475   20.9944  -34.1274 H   0  0  0  0  0  0  0  0  0  0  0  0
   -0.0210   20.5256  -33.9612 H   0  0  0  0  0  0  0  0  0  0  0  0
    1.3971   20.7125  -32.8454 H   0  0  0  0  0  0  0  0  0  0  0  0
    0.7050   18.5072  -34.6786 H   0  0  0  0  0  0  0  0  0  0  0  0
    2.2830   18.9504  -33.8500 H   0  0  0  0  0  0  0  0  0  0  0  0
    1.4533   17.0899  -30.9135 H   0  0  0  0  0  0  0  0  0  0  0  0
    2.2182   18.6184  -31.4541 H   0  0  0  0  0  0  0  0  0  0  0  0
   -0.7374   18.0803  -30.8745 H   0  0  0  0  0  0  0  0  0  0  0  0
    0.3574   19.2684  -30.0804 H   0  0  0  0  0  0  0  0  0  0  0  0
   -1.2920   24.7590  -29.7330 H   0  0  0  0  0  0  0  0  0  0  0  0
    0.1096   23.6975  -27.8172 H   0  0  0  0  0  0  0  0  0  0  0  0
   -1.6187   24.0757  -27.4365 H   0  0  0  0  0  0  0  0  0  0  0  0
   -3.3324   22.2929  -27.4372 H   0  0  0  0  0  0  0  0  0  0  0  0
   -3.7672   19.8708  -27.0106 H   0  0  0  0  0  0  0  0  0  0  0  0
   -1.8858   18.2311  -27.0463 H   0  0  0  0  0  0  0  0  0  0  0  0
    0.4474   19.0179  -27.4667 H   0  0  0  0  0  0  0  0  0  0  0  0
    0.8902   21.4345  -27.9095 H   0  0  0  0  0  0  0  0  0  0  0  0
   -5.7093   24.3522  -32.7056 H   0  0  0  0  0  0  0  0  0  0  0  0
   -7.9665   23.5554  -33.4045 H   0  0  0  0  0  0  0  0  0  0  0  0
  1  2  1  0
  2  3  2  0
  3  4  1  0
  4  5  2  0
  5  6  1  0
  6  7  2  0
  6  8  2  0
  6  9  1  0
  9 10  2  0
 10 11  1  0
 11 12  1  0
 12 13  2  0
 12 14  2  0
 12 15  1  0
 15 16  2  0
 16 17  1  0
 17 18  2  0
 18 19  1  0
 18 20  1  0
 20 21  2  0
 11 22  2  0
 22 23  1  0
 23 24  1  0
 24 25  1  0
 25 26  1  0
 26 27  1  0
 27 28  1  0
 22 29  1  0
 29 30  2  0
 30 31  1  0
 31 32  1  0
 32 33  1  0
 33 34  2  0
 34 35  1  0
 35 36  2  0
 36 37  1  0
 37 38  2  0
  5 39  1  0
 39 40  2  0
 40  2  1  0
 30  9  1  0
 38 33  1  0
 21 15  1  0
 28 23  1  0
  1 41  1  0
  1 42  1  0
  1 43  1  0
  3 44  1  0
  4 45  1  0
 16 46  1  0
 17 47  1  0
 19 48  1  0
 19 49  1  0
 19 50  1  0
 20 51  1  0
 21 52  1  0
 24 53  1  0
 24 54  1  0
 25 55  1  0
 25 56  1  0
 27 57  1  0
 27 58  1  0
 28 59  1  0
 28 60  1  0
 31 61  1  0
 32 62  1  0
 32 63  1  0
 34 64  1  0
 35 65  1  0
 36 66  1  0
 37 67  1  0
 38 68  1  0
 39 69  1  0
 40 70  1  0
M  END
>  <UniqueID>  (27) 
26

>  <SMILES>  (27) 
Cc1ccc(S(=O)(=O)c2nc(S(=O)(=O)c3ccc(C)cc3)c(N3CCOCC3)nc2NCc2ccccc2)cc1

>  <Energy>  (27) 
91.16909148321227

>  <Genealogy>  (27) 
Cc1ccc(S(=O)(=O)c2nc(S(=O)(=O)c3ccc(C)cc3)c(N3CCOCC3)nc2NCc2ccccc2)cc1 (3D coordinates assigned)
Cc1ccc(S(=O)(=O)c2nc(S(=O)(=O)c3ccc(C)cc3)c(N3CCOCC3)nc2NCc2ccccc2)cc1 (nonaromatic ring conformer: 91.16909148321227 kcal/mol)

>  <smiles>  (27) 
Cc1ccc(S(=O)(=O)c2nc(S(=O)(=O)c3ccc(C)cc3)c(N3CCOCC3)nc2NCc2ccccc2)cc1

>  <score_type>  (27) 
oracle

>  <origin>  (27) 
adgpu

>  <m_score__min__energy>  (27) 
-11.460000000000001

>  <m_primary>  (27) 
energy

$$$$
27:0
     RDKit          3D

 45 48  0  0  0  0  0  0  0  0999 V2000
   -6.1130   18.3830  -34.2530 C   0  0  0  0  0  0  0  0  0  0  0  0
   -6.3100   19.5460  -33.3370 C   0  0  0  0  0  0  0  0  0  0  0  0
   -5.3600   20.5020  -33.1540 N   0  0  0  0  0  0  0  0  0  0  0  0
   -5.9500   21.3560  -32.2980 C   0  0  0  0  0  0  0  0  0  0  0  0
   -5.4140   22.5260  -31.7670 C   0  0  0  0  0  0  0  0  0  0  0  0
   -6.2100   23.2720  -30.8730 C   0  0  0  0  0  0  0  0  0  0  0  0
   -5.5870   24.7330  -30.1130 S   0  0  0  0  0  0  0  0  0  0  0  0
   -6.7320   25.6740  -29.8580 O   0  0  0  0  0  0  0  0  0  0  0  0
   -4.5910   25.4310  -31.0030 O   0  0  0  0  0  0  0  0  0  0  0  0
   -4.8460   24.3210  -28.5990 N   0  0  0  0  0  0  0  0  0  0  0  0
   -3.7030   23.4680  -28.4310 C   0  0  0  0  0  0  0  0  0  0  0  0
   -3.8160   22.1740  -27.8880 C   0  0  0  0  0  0  0  0  0  0  0  0
   -2.6860   21.3550  -27.7530 C   0  0  0  0  0  0  0  0  0  0  0  0
   -1.4180   21.8450  -28.1310 C   0  0  0  0  0  0  0  0  0  0  0  0
   -1.3060   23.1330  -28.6710 C   0  0  0  0  0  0  0  0  0  0  0  0
   -2.4400   23.9460  -28.8140 C   0  0  0  0  0  0  0  0  0  0  0  0
   -2.3140   25.2380  -29.3280 O   0  0  0  0  0  0  0  0  0  0  0  0
   -0.1980   20.9530  -28.0680 C   0  0  0  0  0  0  0  0  0  0  0  0
   -0.3610   19.8490  -27.1090 N   0  0  0  0  0  0  0  0  0  0  0  0
   -1.6060   19.1140  -27.3700 C   0  0  0  0  0  0  0  0  0  0  0  0
   -2.8300   20.0000  -27.1090 C   0  0  0  0  0  0  0  0  0  0  0  0
   -7.5160   22.8280  -30.5500 C   0  0  0  0  0  0  0  0  0  0  0  0
   -8.0320   21.6460  -31.1130 C   0  0  0  0  0  0  0  0  0  0  0  0
   -7.2100   20.9300  -31.9850 C   0  0  0  0  0  0  0  0  0  0  0  0
   -7.4540   19.7810  -32.6420 N   0  0  0  0  0  0  0  0  0  0  0  0
   -8.6660   18.9610  -32.6400 C   0  0  0  0  0  0  0  0  0  0  0  0
   -5.9584   17.4703  -33.6588 H   0  0  0  0  0  0  0  0  0  0  0  0
   -7.0033   18.2610  -34.8874 H   0  0  0  0  0  0  0  0  0  0  0  0
   -5.2322   18.5610  -34.8874 H   0  0  0  0  0  0  0  0  0  0  0  0
   -4.4007   22.8585  -32.0364 H   0  0  0  0  0  0  0  0  0  0  0  0
   -4.8000   21.8020  -27.5666 H   0  0  0  0  0  0  0  0  0  0  0  0
   -0.3213   23.5095  -28.9852 H   0  0  0  0  0  0  0  0  0  0  0  0
   -3.1090   25.7350  -29.7170 H   0  0  0  0  0  0  0  0  0  0  0  0
   -0.0176   20.5297  -29.0671 H   0  0  0  0  0  0  0  0  0  0  0  0
    0.6504   21.5673  -27.7322 H   0  0  0  0  0  0  0  0  0  0  0  0
   -0.3910   20.2460  -26.1390 H   0  0  0  0  0  0  0  0  0  0  0  0
   -1.6167   18.7852  -28.4197 H   0  0  0  0  0  0  0  0  0  0  0  0
   -1.6499   18.2466  -26.6950 H   0  0  0  0  0  0  0  0  0  0  0  0
   -3.7226   19.5041  -27.5181 H   0  0  0  0  0  0  0  0  0  0  0  0
   -2.9223   20.1452  -26.0225 H   0  0  0  0  0  0  0  0  0  0  0  0
   -8.1329   23.4131  -29.8521 H   0  0  0  0  0  0  0  0  0  0  0  0
   -9.0479   21.2983  -30.8742 H   0  0  0  0  0  0  0  0  0  0  0  0
   -8.9685   18.7563  -31.6024 H   0  0  0  0  0  0  0  0  0  0  0  0
   -9.4736   19.4990  -33.1580 H   0  0  0  0  0  0  0  0  0  0  0  0
   -8.4670   18.0113  -33.1580 H   0  0  0  0  0  0  0  0  0  0  0  0
  1  2  1  0
  2  3  2  0
  3  4  1  0
  4  5  2  0
  5  6  1  0
  6  7  1  0
  7  8  2  0
  7  9  2  0
  7 10  1  0
 10 11  1  0
 11 12  2  0
 12 13  1  0
 13 14  2  0
 14 15  1  0
 15 16  2  0
 16 17  1  0
 14 18  1  0
 18 19  1  0
 19 20  1  0
 20 21  1  0
  6 22  2  0
 22 23  1  0
 23 24  2  0
 24 25  1  0
 25 26  1  0
 25  2  1  0
 24  4  1  0
 16 11  1  0
 21 13  1  0
  1 27  1  0
  1 28  1  0
  1 29  1  0
  5 30  1  0
 12 31  1  0
 15 32  1  0
 17 33  1  0
 18 34  1  0
 18 35  1  0
 19 36  1  0
 20 37  1  0
 20 38  1  0
 21 39  1  0
 21 40  1  0
 22 41  1  0
 23 42  1  0
 26 43  1  0
 26 44  1  0
 26 45  1  0
M  CHG  1  10  -1
M  END
>  <UniqueID>  (28) 
27

>  <SMILES>  (28) 
Cc1nc2cc(S(=O)(=O)[N-]c3cc4c(cc3O)CNCC4)ccc2n1C

>  <Energy>  (28) 
89.91675380299043

>  <Genealogy>  (28) 
Cc1nc2cc(S(=O)(=O)[N-]c3cc4c(cc3O)CNCC4)ccc2n1C (protonated)
Cc1nc2cc(S(=O)(=O)[N-]c3cc4c(cc3O)CNCC4)ccc2n1C (3D coordinates assigned)
Cc1nc2cc(S(=O)(=O)[N-]c3cc4c(cc3O)CNCC4)ccc2n1C (nonaromatic ring conformer: 89.91675380299043 kcal/mol)

>  <smiles>  (28) 
Cc1nc2cc(S(=O)(=O)Nc3cc4c(cc3O)CNCC4)ccc2n1C

>  <score_type>  (28) 
oracle

>  <origin>  (28) 
adgpu

>  <m_score__min__energy>  (28) 
-12.16

>  <m_primary>  (28) 
energy

$$$$
28:0
     RDKit          3D

 67 70  0  0  0  0  0  0  0  0999 V2000
   -2.8620   20.6210  -33.0330 C   0  0  0  0  0  0  0  0  0  0  0  0
   -4.0400   19.7680  -33.4100 C   0  0  0  0  0  0  0  0  0  0  0  0
   -3.7720   18.5260  -34.2260 C   0  0  0  0  0  0  0  0  0  0  0  0
   -5.3080   20.0910  -33.0430 C   0  0  0  0  0  0  0  0  0  0  0  0
   -6.5430   19.3500  -33.3800 C   0  0  0  0  0  0  0  0  0  0  0  0
   -6.6000   18.2590  -34.0090 O   0  0  0  0  0  0  0  0  0  0  0  0
   -7.7000   20.0140  -32.8800 N   0  0  0  0  0  0  0  0  0  0  0  0
   -9.0230   19.4140  -32.7320 C   0  0  0  0  0  0  0  0  0  0  0  0
   -7.1990   21.1390  -32.1670 C   0  0  0  0  0  0  0  0  0  0  0  0
   -7.9600   22.0550  -31.4360 C   0  0  0  0  0  0  0  0  0  0  0  0
   -7.3030   23.0990  -30.7730 C   0  0  0  0  0  0  0  0  0  0  0  0
   -5.9020   23.2170  -30.8420 C   0  0  0  0  0  0  0  0  0  0  0  0
   -5.0830   24.5170  -29.9730 S   0  0  0  0  0  0  0  0  0  0  0  0
   -6.0490   25.6560  -29.8040 O   0  0  0  0  0  0  0  0  0  0  0  0
   -3.9390   25.0100  -30.8140 O   0  0  0  0  0  0  0  0  0  0  0  0
   -4.5280   24.0030  -28.3880 N   0  0  1  0  0  0  0  0  0  0  0  0
   -4.6160   22.5410  -28.2260 C   0  0  0  0  0  0  0  0  0  0  0  0
   -3.1850   24.5490  -28.0610 C   0  0  0  0  0  0  0  0  0  0  0  0
   -2.0600   23.5580  -28.2390 C   0  0  0  0  0  0  0  0  0  0  0  0
   -1.4280   23.5040  -29.3270 O   0  0  0  0  0  0  0  0  0  0  0  0
   -1.7010   22.7010  -27.1480 N   0  0  0  0  0  0  0  0  0  0  0  0
   -1.3930   21.3060  -27.2530 C   0  0  0  0  0  0  0  0  0  0  0  0
   -2.3640   20.3690  -26.8770 C   0  0  0  0  0  0  0  0  0  0  0  0
   -2.1030   19.0010  -26.9850 C   0  0  0  0  0  0  0  0  0  0  0  0
   -0.8770   18.5580  -27.4860 C   0  0  0  0  0  0  0  0  0  0  0  0
    0.0950   19.4840  -27.8890 C   0  0  0  0  0  0  0  0  0  0  0  0
    1.6370   18.9260  -28.5420 S   0  0  0  0  0  0  0  0  0  0  0  0
    2.7410   19.8070  -28.0260 O   0  0  0  0  0  0  0  0  0  0  0  0
    1.9010   17.5290  -28.0540 O   0  0  0  0  0  0  0  0  0  0  0  0
    1.6540   18.9440  -30.2930 N   0  0  0  0  0  0  0  0  0  0  0  0
    0.6340   19.8550  -30.8220 C   0  0  0  0  0  0  0  0  0  0  0  0
   -0.5930   19.0390  -31.1900 C   0  0  0  0  0  0  0  0  0  0  0  0
   -0.1220   17.6000  -31.2590 C   0  0  0  0  0  0  0  0  0  0  0  0
    1.3420   17.6190  -30.8420 C   0  0  0  0  0  0  0  0  0  0  0  0
   -0.1700   20.8570  -27.7820 C   0  0  0  0  0  0  0  0  0  0  0  0
   -5.1490   22.2790  -31.5730 C   0  0  0  0  0  0  0  0  0  0  0  0
   -5.8150   21.2380  -32.2420 C   0  0  0  0  0  0  0  0  0  0  0  0
   -2.7853   20.6765  -31.9371 H   0  0  0  0  0  0  0  0  0  0  0  0
   -1.9424   20.1780  -33.4430 H   0  0  0  0  0  0  0  0  0  0  0  0
   -2.9959   21.6329  -33.4430 H   0  0  0  0  0  0  0  0  0  0  0  0
   -3.5887   17.6766  -33.5515 H   0  0  0  0  0  0  0  0  0  0  0  0
   -4.6440   18.3089  -34.8605 H   0  0  0  0  0  0  0  0  0  0  0  0
   -2.8881   18.6878  -34.8605 H   0  0  0  0  0  0  0  0  0  0  0  0
   -9.2595   19.3068  -31.6631 H   0  0  0  0  0  0  0  0  0  0  0  0
   -9.7740   20.0596  -33.2107 H   0  0  0  0  0  0  0  0  0  0  0  0
   -9.0321   18.4237  -33.2107 H   0  0  0  0  0  0  0  0  0  0  0  0
   -9.0544   21.9579  -31.3823 H   0  0  0  0  0  0  0  0  0  0  0  0
   -7.8854   23.8314  -30.1947 H   0  0  0  0  0  0  0  0  0  0  0  0
   -5.1990   24.4190  -27.7000 H   0  0  0  0  0  0  0  0  0  0  0  0
   -4.6310   22.2910  -27.1549 H   0  0  0  0  0  0  0  0  0  0  0  0
   -5.5378   22.1743  -28.7011 H   0  0  0  0  0  0  0  0  0  0  0  0
   -3.7448   22.0663  -28.7011 H   0  0  0  0  0  0  0  0  0  0  0  0
   -2.9932   25.4115  -28.7162 H   0  0  0  0  0  0  0  0  0  0  0  0
   -3.2031   24.8225  -26.9957 H   0  0  0  0  0  0  0  0  0  0  0  0
   -3.3367   20.7121  -26.4948 H   0  0  0  0  0  0  0  0  0  0  0  0
   -2.8650   18.2709  -26.6747 H   0  0  0  0  0  0  0  0  0  0  0  0
   -0.6737   17.4798  -27.5645 H   0  0  0  0  0  0  0  0  0  0  0  0
    0.3690   20.6002  -30.0575 H   0  0  0  0  0  0  0  0  0  0  0  0
    1.0191   20.3795  -31.7089 H   0  0  0  0  0  0  0  0  0  0  0  0
   -1.3727   19.1511  -30.4222 H   0  0  0  0  0  0  0  0  0  0  0  0
   -1.0298   19.3697  -32.1438 H   0  0  0  0  0  0  0  0  0  0  0  0
   -0.7076   16.9725  -30.5710 H   0  0  0  0  0  0  0  0  0  0  0  0
   -0.2487   17.1818  -32.2685 H   0  0  0  0  0  0  0  0  0  0  0  0
    1.5196   16.8492  -30.0765 H   0  0  0  0  0  0  0  0  0  0  0  0
    1.9836   17.4111  -31.7110 H   0  0  0  0  0  0  0  0  0  0  0  0
    0.5832   21.5868  -28.1138 H   0  0  0  0  0  0  0  0  0  0  0  0
   -4.0530   22.3598  -31.6200 H   0  0  0  0  0  0  0  0  0  0  0  0
  1  2  1  0
  2  3  1  0
  2  4  2  3
  4  5  1  0
  5  6  2  0
  5  7  1  0
  7  8  1  0
  7  9  1  0
  9 10  2  0
 10 11  1  0
 11 12  2  0
 12 13  1  0
 13 14  2  0
 13 15  2  0
 13 16  1  0
 16 17  1  0
 16 18  1  0
 18 19  1  0
 19 20  2  0
 19 21  1  0
 21 22  1  0
 22 23  2  0
 23 24  1  0
 24 25  2  0
 25 26  1  0
 26 27  1  0
 27 28  2  0
 27 29  2  0
 27 30  1  0
 30 31  1  0
 31 32  1  0
 32 33  1  0
 33 34  1  0
 26 35  2  0
 12 36  1  0
 36 37  2  0
 37  4  1  0
 37  9  1  0
 35 22  1  0
 34 30  1  0
  1 38  1  0
  1 39  1  0
  1 40  1  0
  3 41  1  0
  3 42  1  0
  3 43  1  0
  8 44  1  0
  8 45  1  0
  8 46  1  0
 10 47  1  0
 11 48  1  0
 16 49  1  1
 17 50  1  0
 17 51  1  0
 17 52  1  0
 18 53  1  0
 18 54  1  0
 23 55  1  0
 24 56  1  0
 25 57  1  0
 31 58  1  0
 31 59  1  0
 32 60  1  0
 32 61  1  0
 33 62  1  0
 33 63  1  0
 34 64  1  0
 34 65  1  0
 35 66  1  0
 36 67  1  0
M  CHG  2  16   1  21  -1
M  END
>  <UniqueID>  (29) 
28

>  <SMILES>  (29) 
CC(C)=C1C(=O)N(C)c2ccc(S(=O)(=O)[N@@H+](C)CC(=O)[N-]c3cccc(S(=O)(=O)N4CCCC4)c3)cc21

>  <Energy>  (29) 
105.5203891805958

>  <Genealogy>  (29) 
CC(C)=C1C(=O)N(C)c2ccc(S(=O)(=O)[NH+](C)CC(=O)[N-]c3cccc(S(=O)(=O)N4CCCC4)c3)cc21 (protonated)
CC(C)=C1C(=O)N(C)c2ccc(S(=O)(=O)[N@@H+](C)CC(=O)[N-]c3cccc(S(=O)(=O)N4CCCC4)c3)cc21 (chirality)
CC(C)=C1C(=O)N(C)c2ccc(S(=O)(=O)[N@@H+](C)CC(=O)[N-]c3cccc(S(=O)(=O)N4CCCC4)c3)cc21 (3D coordinates assigned)
CC(C)=C1C(=O)N(C)c2ccc(S(=O)(=O)[N@@H+](C)CC(=O)[N-]c3cccc(S(=O)(=O)N4CCCC4)c3)cc21 (nonaromatic ring conformer: 105.5203891805958 kcal/mol)

>  <smiles>  (29) 
CC(C)=C1C(=O)N(C)c2ccc(S(=O)(=O)N(C)CC(=O)Nc3cccc(S(=O)(=O)N4CCCC4)c3)cc21

>  <score_type>  (29) 
oracle

>  <origin>  (29) 
adgpu

>  <m_score__min__energy>  (29) 
-11.199999999999999

>  <m_primary>  (29) 
energy

$$$$
29:0
     RDKit          3D

 65 68  0  0  0  0  0  0  0  0999 V2000
   -2.9650   14.1000  -37.2790 C   0  0  0  0  0  0  0  0  0  0  0  0
   -2.1080   13.9890  -36.0260 C   0  0  0  0  0  0  0  0  0  0  0  0
   -1.2710   15.1760  -35.9130 N   0  0  0  0  0  0  0  0  0  0  0  0
   -1.4410   16.3410  -35.3400 C   0  0  0  0  0  0  0  0  0  0  0  0
   -0.3740   17.1910  -35.3730 N   0  0  0  0  0  0  0  0  0  0  0  0
   -0.3810   18.4040  -34.7640 C   0  0  0  0  0  0  0  0  0  0  0  0
   -1.5170   18.8270  -34.0720 C   0  0  0  0  0  0  0  0  0  0  0  0
   -1.5760   20.1880  -33.3770 C   0  0  0  0  0  0  0  0  0  0  0  0
   -1.1540   20.0400  -31.9010 C   0  0  0  0  0  0  0  0  0  0  0  0
   -3.0080   20.7680  -33.4190 C   0  0  0  0  0  0  0  0  0  0  0  0
   -0.6310   21.1750  -34.0910 C   0  0  0  0  0  0  0  0  0  0  0  0
   -2.5960   18.0030  -34.0580 N   0  0  0  0  0  0  0  0  0  0  0  0
   -2.6250   16.7830  -34.6610 C   0  0  0  0  0  0  0  0  0  0  0  0
   -3.9770   16.1060  -34.6230 C   0  0  0  0  0  0  0  0  0  0  0  0
   -4.9940   17.0250  -33.9940 C   0  0  0  0  0  0  0  0  0  0  0  0
   -5.4480   18.1610  -34.6850 C   0  0  0  0  0  0  0  0  0  0  0  0
   -6.4140   18.9950  -34.1150 C   0  0  0  0  0  0  0  0  0  0  0  0
   -6.9490   18.6970  -32.8550 C   0  0  0  0  0  0  0  0  0  0  0  0
   -8.1400   19.7620  -32.1220 S   0  0  0  0  0  0  0  0  0  0  0  0
   -9.2410   20.0610  -33.1010 O   0  0  0  0  0  0  0  0  0  0  0  0
   -8.7510   19.0920  -30.9220 O   0  0  0  0  0  0  0  0  0  0  0  0
   -7.3480   21.2570  -31.6440 C   0  0  0  0  0  0  0  0  0  0  0  0
   -8.1090   22.4250  -31.4110 C   0  0  0  0  0  0  0  0  0  0  0  0
   -7.4800   23.6120  -31.0030 C   0  0  0  0  0  0  0  0  0  0  0  0
   -6.0940   23.6010  -30.8280 C   0  0  0  0  0  0  0  0  0  0  0  0
   -5.3550   22.4730  -31.0430 C   0  0  0  0  0  0  0  0  0  0  0  0
   -5.9530   21.2800  -31.4510 C   0  0  0  0  0  0  0  0  0  0  0  0
   -3.9120   22.7330  -30.7740 C   0  0  0  0  0  0  0  0  0  0  0  0
   -3.8870   24.2240  -30.3520 C   0  0  0  0  0  0  0  0  0  0  0  0
   -5.2760   24.6780  -30.4140 N   0  0  0  0  0  0  0  0  0  0  0  0
   -5.7310   26.0260  -30.0950 C   0  0  0  0  0  0  0  0  0  0  0  0
   -6.5020   17.5630  -32.1650 C   0  0  0  0  0  0  0  0  0  0  0  0
   -5.5360   16.7280  -32.7330 C   0  0  0  0  0  0  0  0  0  0  0  0
   -4.0181   14.2364  -36.9920 H   0  0  0  0  0  0  0  0  0  0  0  0
   -2.6327   14.9626  -37.8752 H   0  0  0  0  0  0  0  0  0  0  0  0
   -2.8635   13.1812  -37.8752 H   0  0  0  0  0  0  0  0  0  0  0  0
   -2.7574   13.9109  -35.1416 H   0  0  0  0  0  0  0  0  0  0  0  0
   -1.4730   13.0931  -36.0901 H   0  0  0  0  0  0  0  0  0  0  0  0
    0.5000   16.9020  -35.8690 H   0  0  0  0  0  0  0  0  0  0  0  0
    0.5063   19.0521  -34.8157 H   0  0  0  0  0  0  0  0  0  0  0  0
   -1.9903   20.3333  -31.2494 H   0  0  0  0  0  0  0  0  0  0  0  0
   -0.8826   18.9930  -31.7004 H   0  0  0  0  0  0  0  0  0  0  0  0
   -0.2881   20.6881  -31.7004 H   0  0  0  0  0  0  0  0  0  0  0  0
   -3.3738   20.9162  -32.3923 H   0  0  0  0  0  0  0  0  0  0  0  0
   -2.9975   21.7328  -33.9473 H   0  0  0  0  0  0  0  0  0  0  0  0
   -3.6718   20.0679  -33.9473 H   0  0  0  0  0  0  0  0  0  0  0  0
   -0.0741   21.7566  -33.3416 H   0  0  0  0  0  0  0  0  0  0  0  0
    0.0764   20.6151  -34.7204 H   0  0  0  0  0  0  0  0  0  0  0  0
   -1.2211   21.8574  -34.7204 H   0  0  0  0  0  0  0  0  0  0  0  0
   -4.2913   15.8615  -35.6484 H   0  0  0  0  0  0  0  0  0  0  0  0
   -3.9039   15.1846  -34.0266 H   0  0  0  0  0  0  0  0  0  0  0  0
   -5.0411   18.3952  -35.6798 H   0  0  0  0  0  0  0  0  0  0  0  0
   -6.7555   19.8887  -34.6578 H   0  0  0  0  0  0  0  0  0  0  0  0
   -9.2000   22.4039  -31.5501 H   0  0  0  0  0  0  0  0  0  0  0  0
   -8.0636   24.5274  -30.8256 H   0  0  0  0  0  0  0  0  0  0  0  0
   -5.3478   20.3768  -31.6183 H   0  0  0  0  0  0  0  0  0  0  0  0
   -3.5405   22.0885  -29.9637 H   0  0  0  0  0  0  0  0  0  0  0  0
   -3.2691   22.5218  -31.6412 H   0  0  0  0  0  0  0  0  0  0  0  0
   -3.4957   24.3262  -29.3290 H   0  0  0  0  0  0  0  0  0  0  0  0
   -3.2361   24.8201  -31.0085 H   0  0  0  0  0  0  0  0  0  0  0  0
   -5.7729   26.1500  -29.0028 H   0  0  0  0  0  0  0  0  0  0  0  0
   -5.0307   26.7597  -30.5208 H   0  0  0  0  0  0  0  0  0  0  0  0
   -6.7327   26.1853  -30.5208 H   0  0  0  0  0  0  0  0  0  0  0  0
   -6.9130   17.3287  -31.1719 H   0  0  0  0  0  0  0  0  0  0  0  0
   -5.1984   15.8333  -32.1894 H   0  0  0  0  0  0  0  0  0  0  0  0
  1  2  1  0
  2  3  1  0
  3  4  2  3
  4  5  1  0
  5  6  1  0
  6  7  2  0
  7  8  1  0
  8  9  1  0
  8 10  1  0
  8 11  1  0
  7 12  1  0
 12 13  2  0
 13 14  1  0
 14 15  1  0
 15 16  2  0
 16 17  1  0
 17 18  2  0
 18 19  1  0
 19 20  2  0
 19 21  2  0
 19 22  1  0
 22 23  2  0
 23 24  1  0
 24 25  2  0
 25 26  1  0
 26 27  2  0
 26 28  1  0
 28 29  1  0
 29 30  1  0
 30 31  1  0
 18 32  1  0
 32 33  2  0
 13  4  1  0
 33 15  1  0
 27 22  1  0
 30 25  1  0
  1 34  1  0
  1 35  1  0
  1 36  1  0
  2 37  1  0
  2 38  1  0
  5 39  1  0
  6 40  1  0
  9 41  1  0
  9 42  1  0
  9 43  1  0
 10 44  1  0
 10 45  1  0
 10 46  1  0
 11 47  1  0
 11 48  1  0
 11 49  1  0
 14 50  1  0
 14 51  1  0
 16 52  1  0
 17 53  1  0
 23 54  1  0
 24 55  1  0
 27 56  1  0
 28 57  1  0
 28 58  1  0
 29 59  1  0
 29 60  1  0
 31 61  1  0
 31 62  1  0
 31 63  1  0
 32 64  1  0
 33 65  1  0
M  END
>  <UniqueID>  (30) 
29

>  <SMILES>  (30) 
CCN=c1[nH]cc(C(C)(C)C)nc1Cc1ccc(S(=O)(=O)c2ccc3c(c2)CCN3C)cc1

>  <Energy>  (30) 
91.21105610304161

>  <Genealogy>  (30) 
CCN=c1[nH]cc(C(C)(C)C)nc1Cc1ccc(S(=O)(=O)c2ccc3c(c2)CCN3C)cc1 (3D coordinates assigned)
CCN=c1[nH]cc(C(C)(C)C)nc1Cc1ccc(S(=O)(=O)c2ccc3c(c2)CCN3C)cc1 (nonaromatic ring conformer: 91.21105610304161 kcal/mol)

>  <smiles>  (30) 
CCN=c1[nH]cc(C(C)(C)C)nc1Cc1ccc(S(=O)(=O)c2ccc3c(c2)CCN3C)cc1

>  <score_type>  (30) 
oracle

>  <origin>  (30) 
adgpu

>  <m_score__min__energy>  (30) 
-10.42

>  <m_primary>  (30) 
energy

$$$$
30:0
     RDKit          3D

 64 66  0  0  0  0  0  0  0  0999 V2000
   -6.1030   16.5780  -33.3490 C   0  0  0  0  0  0  0  0  0  0  0  0
   -6.2690   17.8010  -34.0590 O   0  0  0  0  0  0  0  0  0  0  0  0
   -5.9720   19.0720  -33.5440 C   0  0  0  0  0  0  0  0  0  0  0  0
   -6.9860   19.9980  -33.2460 C   0  0  0  0  0  0  0  0  0  0  0  0
   -6.6740   21.2350  -32.6980 C   0  0  0  0  0  0  0  0  0  0  0  0
   -5.3440   21.5800  -32.4230 C   0  0  0  0  0  0  0  0  0  0  0  0
   -5.0450   22.9400  -31.8120 C   0  0  0  0  0  0  0  0  0  0  0  0
   -5.2080   23.0330  -30.3350 N   0  0  0  0  0  0  0  0  0  0  0  0
   -6.5640   22.7940  -29.8130 C   0  0  0  0  0  0  0  0  0  0  0  0
   -4.5760   24.5390  -29.7100 S   0  0  0  0  0  0  0  0  0  0  0  0
   -4.0610   25.3820  -30.8440 O   0  0  0  0  0  0  0  0  0  0  0  0
   -5.6840   25.3000  -29.0340 O   0  0  0  0  0  0  0  0  0  0  0  0
   -3.2680   24.2570  -28.5600 C   0  0  0  0  0  0  0  0  0  0  0  0
   -2.1370   25.0870  -28.5540 C   0  0  0  0  0  0  0  0  0  0  0  0
   -1.1100   24.8690  -27.6290 C   0  0  0  0  0  0  0  0  0  0  0  0
   -1.1990   23.8110  -26.7120 C   0  0  0  0  0  0  0  0  0  0  0  0
    0.0960   23.5450  -25.5480 S   0  0  0  0  0  0  0  0  0  0  0  0
   -0.1610   22.2740  -24.7860 O   0  0  0  0  0  0  0  0  0  0  0  0
    1.3930   23.3970  -26.2940 O   0  0  0  0  0  0  0  0  0  0  0  0
    0.2010   24.8960  -24.4450 N   0  0  0  0  0  0  0  0  0  0  0  0
    1.3740   25.7290  -24.7730 C   0  0  0  0  0  0  0  0  0  0  0  0
    1.5890   26.8420  -23.7270 C   0  0  0  0  0  0  0  0  0  0  0  0
    0.2980   27.2150  -22.9830 C   0  0  0  0  0  0  0  0  0  0  0  0
   -0.9160   27.1010  -23.9050 C   0  0  0  0  0  0  0  0  0  0  0  0
   -1.0580   25.6790  -24.4960 C   0  0  0  0  0  0  0  0  0  0  0  0
   -2.3280   22.9780  -26.7230 C   0  0  0  0  0  0  0  0  0  0  0  0
   -3.3560   23.2000  -27.6430 C   0  0  0  0  0  0  0  0  0  0  0  0
   -4.3070   20.6640  -32.7050 C   0  0  0  0  0  0  0  0  0  0  0  0
   -2.9920   21.0550  -32.3800 O   0  0  0  0  0  0  0  0  0  0  0  0
   -2.3440   20.9100  -31.1180 C   0  0  0  0  0  0  0  0  0  0  0  0
   -4.6270   19.4130  -33.2990 C   0  0  0  0  0  0  0  0  0  0  0  0
   -3.6110   18.5050  -33.6200 O   0  0  0  0  0  0  0  0  0  0  0  0
   -2.3590   18.9080  -34.1690 C   0  0  0  0  0  0  0  0  0  0  0  0
   -6.1298   16.7755  -32.2672 H   0  0  0  0  0  0  0  0  0  0  0  0
   -6.9155   15.8860  -33.6156 H   0  0  0  0  0  0  0  0  0  0  0  0
   -5.1355   16.1276  -33.6156 H   0  0  0  0  0  0  0  0  0  0  0  0
   -8.0361   19.7407  -33.4486 H   0  0  0  0  0  0  0  0  0  0  0  0
   -7.4790   21.9514  -32.4775 H   0  0  0  0  0  0  0  0  0  0  0  0
   -4.0035   23.1979  -32.0542 H   0  0  0  0  0  0  0  0  0  0  0  0
   -5.7861   23.6310  -32.2400 H   0  0  0  0  0  0  0  0  0  0  0  0
   -6.5396   22.7983  -28.7133 H   0  0  0  0  0  0  0  0  0  0  0  0
   -7.2386   23.5871  -30.1679 H   0  0  0  0  0  0  0  0  0  0  0  0
   -6.9268   21.8181  -30.1679 H   0  0  0  0  0  0  0  0  0  0  0  0
   -2.0574   25.9111  -29.2782 H   0  0  0  0  0  0  0  0  0  0  0  0
   -0.2302   25.5292  -27.6208 H   0  0  0  0  0  0  0  0  0  0  0  0
    0.3220   24.4960  -23.4840 H   0  0  0  0  0  0  0  0  0  0  0  0
    2.2687   25.0898  -24.8035 H   0  0  0  0  0  0  0  0  0  0  0  0
    1.1974   26.2035  -25.7496 H   0  0  0  0  0  0  0  0  0  0  0  0
    2.3308   26.4957  -22.9923 H   0  0  0  0  0  0  0  0  0  0  0  0
    1.9342   27.7386  -24.2627 H   0  0  0  0  0  0  0  0  0  0  0  0
    0.1659   26.5355  -22.1281 H   0  0  0  0  0  0  0  0  0  0  0  0
    0.3801   28.2561  -22.6375 H   0  0  0  0  0  0  0  0  0  0  0  0
   -1.8230   27.3397  -23.3303 H   0  0  0  0  0  0  0  0  0  0  0  0
   -0.7789   27.8052  -24.7388 H   0  0  0  0  0  0  0  0  0  0  0  0
   -1.8287   25.1391  -23.9263 H   0  0  0  0  0  0  0  0  0  0  0  0
   -1.3301   25.7914  -25.5559 H   0  0  0  0  0  0  0  0  0  0  0  0
   -2.4041   22.1478  -26.0053 H   0  0  0  0  0  0  0  0  0  0  0  0
   -4.2380   22.5427  -27.6478 H   0  0  0  0  0  0  0  0  0  0  0  0
   -3.0730   21.0731  -30.3106 H   0  0  0  0  0  0  0  0  0  0  0  0
   -1.9257   19.8960  -31.0350 H   0  0  0  0  0  0  0  0  0  0  0  0
   -1.5334   21.6490  -31.0350 H   0  0  0  0  0  0  0  0  0  0  0  0
   -1.6566   19.1341  -33.3532 H   0  0  0  0  0  0  0  0  0  0  0  0
   -1.9518   18.0955  -34.7888 H   0  0  0  0  0  0  0  0  0  0  0  0
   -2.5022   19.8054  -34.7888 H   0  0  0  0  0  0  0  0  0  0  0  0
  1  2  1  0
  2  3  1  0
  3  4  2  0
  4  5  1  0
  5  6  2  0
  6  7  1  0
  7  8  1  0
  8  9  1  0
  8 10  1  0
 10 11  2  0
 10 12  2  0
 10 13  1  0
 13 14  2  0
 14 15  1  0
 15 16  2  0
 16 17  1  0
 17 18  2  0
 17 19  2  0
 17 20  1  0
 20 21  1  0
 21 22  1  0
 22 23  1  0
 23 24  1  0
 24 25  1  0
 16 26  1  0
 26 27  2  0
  6 28  1  0
 28 29  1  0
 29 30  1  0
 28 31  2  0
 31 32  1  0
 32 33  1  0
 31  3  1  0
 27 13  1  0
 25 20  1  0
  1 34  1  0
  1 35  1  0
  1 36  1  0
  4 37  1  0
  5 38  1  0
  7 39  1  0
  7 40  1  0
  9 41  1  0
  9 42  1  0
  9 43  1  0
 14 44  1  0
 15 45  1  0
 20 46  1  0
 21 47  1  0
 21 48  1  0
 22 49  1  0
 22 50  1  0
 23 51  1  0
 23 52  1  0
 24 53  1  0
 24 54  1  0
 25 55  1  0
 25 56  1  0
 26 57  1  0
 27 58  1  0
 30 59  1  0
 30 60  1  0
 30 61  1  0
 33 62  1  0
 33 63  1  0
 33 64  1  0
M  CHG  1  20   1
M  END
>  <UniqueID>  (31) 
30

>  <SMILES>  (31) 
COc1ccc(CN(C)S(=O)(=O)c2ccc(S(=O)(=O)[NH+]3CCCCC3)cc2)c(OC)c1OC

>  <Energy>  (31) 
78.99337186689324

>  <Genealogy>  (31) 
COc1ccc(CN(C)S(=O)(=O)c2ccc(S(=O)(=O)[NH+]3CCCCC3)cc2)c(OC)c1OC (protonated)
COc1ccc(CN(C)S(=O)(=O)c2ccc(S(=O)(=O)[NH+]3CCCCC3)cc2)c(OC)c1OC (3D coordinates assigned)
COc1ccc(CN(C)S(=O)(=O)c2ccc(S(=O)(=O)[NH+]3CCCCC3)cc2)c(OC)c1OC (nonaromatic ring conformer: 78.99337186689324 kcal/mol)

>  <smiles>  (31) 
COc1ccc(CN(C)S(=O)(=O)c2ccc(S(=O)(=O)N3CCCCC3)cc2)c(OC)c1OC

>  <score_type>  (31) 
oracle

>  <origin>  (31) 
adgpu

>  <m_score__min__energy>  (31) 
-9.5700000000000003

>  <m_primary>  (31) 
energy

$$$$
31:0
     RDKit          3D

 63 66  0  0  0  0  0  0  0  0999 V2000
    0.2770   21.5320  -35.7810 C   0  0  0  0  0  0  0  0  0  0  0  0
   -0.0510   20.2480  -35.0210 C   0  0  0  0  0  0  0  0  0  0  0  0
   -0.5890   20.5700  -33.6500 C   0  0  0  0  0  0  0  0  0  0  0  0
   -1.8700   21.1450  -33.5050 C   0  0  0  0  0  0  0  0  0  0  0  0
   -2.3540   21.4910  -32.2390 C   0  0  0  0  0  0  0  0  0  0  0  0
   -1.5640   21.2700  -31.1010 C   0  0  0  0  0  0  0  0  0  0  0  0
   -2.1950   21.6610  -29.5060 S   0  0  0  0  0  0  0  0  0  0  0  0
   -1.0780   21.7550  -28.5030 O   0  0  0  0  0  0  0  0  0  0  0  0
   -3.1340   20.5720  -29.0700 O   0  0  0  0  0  0  0  0  0  0  0  0
   -3.0680   23.1520  -29.5900 N   0  0  0  0  0  0  0  0  0  0  0  0
   -4.3210   23.3060  -30.2600 C   0  0  0  0  0  0  0  0  0  0  0  0
   -5.1660   22.2060  -30.4880 C   0  0  0  0  0  0  0  0  0  0  0  0
   -6.3670   22.3660  -31.1970 C   0  0  0  0  0  0  0  0  0  0  0  0
   -7.2110   21.1930  -31.4970 C   0  0  0  0  0  0  0  0  0  0  0  0
   -8.4680   21.3430  -31.5300 O   0  0  0  0  0  0  0  0  0  0  0  0
   -6.6310   19.8920  -31.7400 N   0  0  0  0  0  0  0  0  0  0  0  0
   -7.4480   18.6760  -31.6170 C   0  0  0  0  0  0  0  0  0  0  0  0
   -7.4480   17.9100  -32.9480 C   0  0  0  0  0  0  0  0  0  0  0  0
   -6.0330   17.7850  -33.6150 C   0  0  0  0  0  0  0  0  0  0  0  0
   -6.0530   18.6120  -34.7600 O   0  0  0  0  0  0  0  0  0  0  0  0
   -5.6570   16.3320  -34.0210 C   0  0  0  0  0  0  0  0  0  0  0  0
   -6.6770   15.3480  -33.9520 C   0  0  0  0  0  0  0  0  0  0  0  0
   -6.4440   14.0210  -34.2950 C   0  0  0  0  0  0  0  0  0  0  0  0
   -5.1940   13.6290  -34.7430 C   0  0  0  0  0  0  0  0  0  0  0  0
   -4.1810   14.5700  -34.8860 C   0  0  0  0  0  0  0  0  0  0  0  0
   -4.3920   15.9260  -34.5720 C   0  0  0  0  0  0  0  0  0  0  0  0
   -3.2220   16.8480  -34.8110 C   0  0  0  0  0  0  0  0  0  0  0  0
   -4.9150   18.3600  -32.7080 C   0  0  0  0  0  0  0  0  0  0  0  0
   -5.2470   19.7830  -32.2340 C   0  0  0  0  0  0  0  0  0  0  0  0
   -6.7500   23.6460  -31.6240 C   0  0  0  0  0  0  0  0  0  0  0  0
   -5.9130   24.7420  -31.3950 C   0  0  0  0  0  0  0  0  0  0  0  0
   -4.6960   24.5710  -30.7270 C   0  0  0  0  0  0  0  0  0  0  0  0
   -3.8690   25.6690  -30.5110 O   0  0  0  0  0  0  0  0  0  0  0  0
   -0.2730   20.7380  -31.2410 C   0  0  0  0  0  0  0  0  0  0  0  0
    0.2120   20.3850  -32.5080 C   0  0  0  0  0  0  0  0  0  0  0  0
    0.4834   22.3401  -35.0638 H   0  0  0  0  0  0  0  0  0  0  0  0
    1.1621   21.3679  -36.4132 H   0  0  0  0  0  0  0  0  0  0  0  0
   -0.5783   21.8125  -36.4132 H   0  0  0  0  0  0  0  0  0  0  0  0
   -0.8064   19.6781  -35.5818 H   0  0  0  0  0  0  0  0  0  0  0  0
    0.8682   19.6536  -34.9124 H   0  0  0  0  0  0  0  0  0  0  0  0
   -2.4924   21.3224  -34.3944 H   0  0  0  0  0  0  0  0  0  0  0  0
   -3.3544   21.9365  -32.1357 H   0  0  0  0  0  0  0  0  0  0  0  0
   -4.8842   21.2129  -30.1082 H   0  0  0  0  0  0  0  0  0  0  0  0
   -7.0307   18.0345  -30.8269 H   0  0  0  0  0  0  0  0  0  0  0  0
   -8.4801   18.9573  -31.3608 H   0  0  0  0  0  0  0  0  0  0  0  0
   -7.8337   16.8965  -32.7634 H   0  0  0  0  0  0  0  0  0  0  0  0
   -8.0774   18.4836  -33.6442 H   0  0  0  0  0  0  0  0  0  0  0  0
   -6.8980   19.1450  -34.7530 H   0  0  0  0  0  0  0  0  0  0  0  0
   -7.6821   15.6440  -33.6171 H   0  0  0  0  0  0  0  0  0  0  0  0
   -7.2539   13.2815  -34.2103 H   0  0  0  0  0  0  0  0  0  0  0  0
   -5.0026   12.5733  -34.9857 H   0  0  0  0  0  0  0  0  0  0  0  0
   -3.1946   14.2487  -35.2519 H   0  0  0  0  0  0  0  0  0  0  0  0
   -2.8086   17.1738  -33.8451 H   0  0  0  0  0  0  0  0  0  0  0  0
   -2.4463   16.3158  -35.3811 H   0  0  0  0  0  0  0  0  0  0  0  0
   -3.5581   17.7267  -35.3811 H   0  0  0  0  0  0  0  0  0  0  0  0
   -4.7984   17.7091  -31.8290 H   0  0  0  0  0  0  0  0  0  0  0  0
   -3.9844   18.4007  -33.2930 H   0  0  0  0  0  0  0  0  0  0  0  0
   -4.5575   20.0566  -31.4217 H   0  0  0  0  0  0  0  0  0  0  0  0
   -5.1388   20.4610  -33.0934 H   0  0  0  0  0  0  0  0  0  0  0  0
   -7.7110   23.7877  -32.1401 H   0  0  0  0  0  0  0  0  0  0  0  0
   -6.2124   25.7422  -31.7413 H   0  0  0  0  0  0  0  0  0  0  0  0
    0.3609   20.5974  -30.3531 H   0  0  0  0  0  0  0  0  0  0  0  0
    1.2223   19.9619  -32.6098 H   0  0  0  0  0  0  0  0  0  0  0  0
  1  2  1  0
  2  3  1  0
  3  4  2  0
  4  5  1  0
  5  6  2  0
  6  7  1  0
  7  8  2  0
  7  9  2  0
  7 10  1  0
 10 11  1  0
 11 12  2  0
 12 13  1  0
 13 14  1  0
 14 15  2  0
 14 16  1  0
 16 17  1  0
 17 18  1  0
 18 19  1  0
 19 20  1  0
 19 21  1  0
 21 22  2  0
 22 23  1  0
 23 24  2  0
 24 25  1  0
 25 26  2  0
 26 27  1  0
 19 28  1  0
 28 29  1  0
 13 30  2  0
 30 31  1  0
 31 32  2  0
 32 33  1  0
  6 34  1  0
 34 35  2  0
 35  3  1  0
 32 11  1  0
 29 16  1  0
 26 21  1  0
  1 36  1  0
  1 37  1  0
  1 38  1  0
  2 39  1  0
  2 40  1  0
  4 41  1  0
  5 42  1  0
 12 43  1  0
 17 44  1  0
 17 45  1  0
 18 46  1  0
 18 47  1  0
 20 48  1  0
 22 49  1  0
 23 50  1  0
 24 51  1  0
 25 52  1  0
 27 53  1  0
 27 54  1  0
 27 55  1  0
 28 56  1  0
 28 57  1  0
 29 58  1  0
 29 59  1  0
 30 60  1  0
 31 61  1  0
 34 62  1  0
 35 63  1  0
M  CHG  2  10  -1  33  -1
M  END
>  <UniqueID>  (32) 
31

>  <SMILES>  (32) 
CCc1ccc(S(=O)(=O)[N-]c2cc(C(=O)N3CCC(O)(c4ccccc4C)CC3)ccc2[O-])cc1

>  <Energy>  (32) 
93.58467456547574

>  <Genealogy>  (32) 
CCc1ccc(S(=O)(=O)[N-]c2cc(C(=O)N3CCC(O)(c4ccccc4C)CC3)ccc2[O-])cc1 (protonated)
CCc1ccc(S(=O)(=O)[N-]c2cc(C(=O)N3CCC(O)(c4ccccc4C)CC3)ccc2[O-])cc1 (3D coordinates assigned)
CCc1ccc(S(=O)(=O)[N-]c2cc(C(=O)N3CCC(O)(c4ccccc4C)CC3)ccc2[O-])cc1 (nonaromatic ring conformer: 93.58467456547574 kcal/mol)

>  <smiles>  (32) 
CCc1ccc(S(=O)(=O)Nc2cc(C(=O)N3CCC(O)(c4ccccc4C)CC3)ccc2O)cc1

>  <score_type>  (32) 
oracle

>  <origin>  (32) 
adgpu

>  <m_score__min__energy>  (32) 
-14.06

>  <m_primary>  (32) 
energy

$$$$
32:0
     RDKit          3D

 63 66  0  0  0  0  0  0  0  0999 V2000
   -1.2070   22.2950  -30.5340 C   0  0  0  0  0  0  0  0  0  0  0  0
   -0.7880   20.9360  -30.0520 C   0  0  0  0  0  0  0  0  0  0  0  0
   -0.6780   20.6810  -28.6750 C   0  0  0  0  0  0  0  0  0  0  0  0
   -0.2900   19.4190  -28.2210 C   0  0  0  0  0  0  0  0  0  0  0  0
   -0.0080   18.4020  -29.1340 C   0  0  0  0  0  0  0  0  0  0  0  0
   -0.1110   18.6440  -30.5060 C   0  0  0  0  0  0  0  0  0  0  0  0
   -0.5020   19.9130  -30.9780 C   0  0  0  0  0  0  0  0  0  0  0  0
   -0.6190   20.1900  -32.3490 O   0  0  0  0  0  0  0  0  0  0  0  0
   -1.6500   19.6850  -33.1930 C   0  0  0  0  0  0  0  0  0  0  0  0
   -2.8710   20.5370  -33.0520 C   0  0  0  0  0  0  0  0  0  0  0  0
   -3.0100   21.5410  -33.8020 O   0  0  0  0  0  0  0  0  0  0  0  0
   -3.8740   20.2160  -32.0770 N   0  0  0  0  0  0  0  0  0  0  0  0
   -4.9060   21.1390  -31.6980 C   0  0  0  0  0  0  0  0  0  0  0  0
   -4.5450   22.3400  -31.0740 C   0  0  0  0  0  0  0  0  0  0  0  0
   -5.5250   23.2480  -30.6510 C   0  0  0  0  0  0  0  0  0  0  0  0
   -5.0650   24.7660  -29.8870 S   0  0  0  0  0  0  0  0  0  0  0  0
   -6.2960   25.5560  -29.5340 O   0  0  0  0  0  0  0  0  0  0  0  0
   -4.2400   25.5710  -30.8510 O   0  0  0  0  0  0  0  0  0  0  0  0
   -4.1240   24.4280  -28.4570 N   0  0  0  0  0  0  0  0  0  0  0  0
   -2.6960   24.6290  -28.7000 C   0  0  0  0  0  0  0  0  0  0  0  0
   -1.9650   23.7360  -27.7160 C   0  0  0  0  0  0  0  0  0  0  0  0
   -2.9550   22.6360  -27.3650 C   0  0  0  0  0  0  0  0  0  0  0  0
   -4.2600   23.0280  -28.0480 C   0  0  0  0  0  0  0  0  0  0  0  0
   -6.8760   22.9590  -30.8710 C   0  0  0  0  0  0  0  0  0  0  0  0
   -7.2460   21.7790  -31.5180 C   0  0  0  0  0  0  0  0  0  0  0  0
   -6.2710   20.8670  -31.9510 C   0  0  0  0  0  0  0  0  0  0  0  0
   -6.6750   19.7170  -32.7120 N   0  0  0  0  0  0  0  0  0  0  0  0
   -7.1190   18.5060  -32.0050 C   0  0  0  0  0  0  0  0  0  0  0  0
   -7.2620   17.3180  -32.9640 C   0  0  0  0  0  0  0  0  0  0  0  0
   -6.0070   17.1730  -33.8360 C   0  0  0  0  0  0  0  0  0  0  0  0
   -5.5980   18.4820  -34.5500 C   0  0  0  0  0  0  0  0  0  0  0  0
   -6.4670   19.6850  -34.1650 C   0  0  0  0  0  0  0  0  0  0  0  0
   -1.4074   22.9450  -29.6695 H   0  0  0  0  0  0  0  0  0  0  0  0
   -0.4020   22.7324  -31.1428 H   0  0  0  0  0  0  0  0  0  0  0  0
   -2.1186   22.2032  -31.1428 H   0  0  0  0  0  0  0  0  0  0  0  0
   -0.8986   21.4793  -27.9511 H   0  0  0  0  0  0  0  0  0  0  0  0
   -0.2064   19.2260  -27.1413 H   0  0  0  0  0  0  0  0  0  0  0  0
    0.2958   17.4084  -28.7728 H   0  0  0  0  0  0  0  0  0  0  0  0
    0.1143   17.8397  -31.2218 H   0  0  0  0  0  0  0  0  0  0  0  0
   -1.3093   19.7025  -34.2388 H   0  0  0  0  0  0  0  0  0  0  0  0
   -1.8885   18.6512  -32.9025 H   0  0  0  0  0  0  0  0  0  0  0  0
   -3.9410   19.2290  -31.7370 H   0  0  0  0  0  0  0  0  0  0  0  0
   -3.4818   22.5727  -30.9144 H   0  0  0  0  0  0  0  0  0  0  0  0
   -2.4421   24.3458  -29.7321 H   0  0  0  0  0  0  0  0  0  0  0  0
   -2.4133   25.6838  -28.5678 H   0  0  0  0  0  0  0  0  0  0  0  0
   -1.0626   23.3097  -28.1786 H   0  0  0  0  0  0  0  0  0  0  0  0
   -1.6331   24.2902  -26.8256 H   0  0  0  0  0  0  0  0  0  0  0  0
   -2.6005   21.6653  -27.7420 H   0  0  0  0  0  0  0  0  0  0  0  0
   -3.0796   22.5316  -26.2771 H   0  0  0  0  0  0  0  0  0  0  0  0
   -4.4316   22.3918  -28.9288 H   0  0  0  0  0  0  0  0  0  0  0  0
   -5.1143   22.8985  -27.3673 H   0  0  0  0  0  0  0  0  0  0  0  0
   -7.6494   23.6643  -30.5328 H   0  0  0  0  0  0  0  0  0  0  0  0
   -8.3106   21.5620  -31.6900 H   0  0  0  0  0  0  0  0  0  0  0  0
   -6.3805   18.2532  -31.2299 H   0  0  0  0  0  0  0  0  0  0  0  0
   -8.1027   18.7086  -31.5562 H   0  0  0  0  0  0  0  0  0  0  0  0
   -7.4046   16.3970  -32.3797 H   0  0  0  0  0  0  0  0  0  0  0  0
   -8.1295   17.4924  -33.6175 H   0  0  0  0  0  0  0  0  0  0  0  0
   -5.1731   16.8506  -33.1952 H   0  0  0  0  0  0  0  0  0  0  0  0
   -6.2402   16.4364  -34.6190 H   0  0  0  0  0  0  0  0  0  0  0  0
   -4.5537   18.7091  -34.2896 H   0  0  0  0  0  0  0  0  0  0  0  0
   -5.7322   18.3177  -35.6294 H   0  0  0  0  0  0  0  0  0  0  0  0
   -5.9650   20.6115  -34.4805 H   0  0  0  0  0  0  0  0  0  0  0  0
   -7.4428   19.5971  -34.6650 H   0  0  0  0  0  0  0  0  0  0  0  0
  1  2  1  0
  2  3  2  0
  3  4  1  0
  4  5  2  0
  5  6  1  0
  6  7  2  0
  7  8  1  0
  8  9  1  0
  9 10  1  0
 10 11  2  0
 10 12  1  0
 12 13  1  0
 13 14  2  0
 14 15  1  0
 15 16  1  0
 16 17  2  0
 16 18  2  0
 16 19  1  0
 19 20  1  0
 20 21  1  0
 21 22  1  0
 22 23  1  0
 15 24  2  0
 24 25  1  0
 25 26  2  0
 26 27  1  0
 27 28  1  0
 28 29  1  0
 29 30  1  0
 30 31  1  0
 31 32  1  0
  7  2  1  0
 26 13  1  0
 32 27  1  0
 23 19  1  0
  1 33  1  0
  1 34  1  0
  1 35  1  0
  3 36  1  0
  4 37  1  0
  5 38  1  0
  6 39  1  0
  9 40  1  0
  9 41  1  0
 12 42  1  0
 14 43  1  0
 20 44  1  0
 20 45  1  0
 21 46  1  0
 21 47  1  0
 22 48  1  0
 22 49  1  0
 23 50  1  0
 23 51  1  0
 24 52  1  0
 25 53  1  0
 28 54  1  0
 28 55  1  0
 29 56  1  0
 29 57  1  0
 30 58  1  0
 30 59  1  0
 31 60  1  0
 31 61  1  0
 32 62  1  0
 32 63  1  0
M  END
>  <UniqueID>  (33) 
32

>  <SMILES>  (33) 
Cc1ccccc1OCC(=O)Nc1cc(S(=O)(=O)N2CCCC2)ccc1N1CCCCC1

>  <Energy>  (33) 
73.51895637041508

>  <Genealogy>  (33) 
Cc1ccccc1OCC(=O)Nc1cc(S(=O)(=O)N2CCCC2)ccc1N1CCCCC1 (3D coordinates assigned)
Cc1ccccc1OCC(=O)Nc1cc(S(=O)(=O)N2CCCC2)ccc1N1CCCCC1 (nonaromatic ring conformer: 73.51895637041508 kcal/mol)

>  <smiles>  (33) 
Cc1ccccc1OCC(=O)Nc1cc(S(=O)(=O)N2CCCC2)ccc1N1CCCCC1

>  <score_type>  (33) 
oracle

>  <origin>  (33) 
adgpu

>  <m_score__min__energy>  (33) 
-9.6500000000000004

>  <m_primary>  (33) 
energy

$$$$
33:0
     RDKit          3D

 50 52  0  0  0  0  0  0  0  0999 V2000
   -2.8370   18.6470  -26.3320 C   0  0  0  0  0  0  0  0  0  0  0  0
   -1.5380   18.8000  -27.1360 C   0  0  0  0  0  0  0  0  0  0  0  0
   -0.9740   20.1680  -27.1440 N   0  0  0  0  0  0  0  0  0  0  0  0
   -1.3090   20.9590  -25.9430 C   0  0  0  0  0  0  0  0  0  0  0  0
   -0.6260   22.3420  -25.9900 C   0  0  0  0  0  0  0  0  0  0  0  0
    0.2870   22.4330  -27.1420 N   0  0  0  0  0  0  0  0  0  0  0  0
    1.1070   23.9770  -27.1500 S   0  0  0  0  0  0  0  0  0  0  0  0
    2.4750   23.8040  -26.5500 O   0  0  0  0  0  0  0  0  0  0  0  0
    1.2950   24.4290  -28.5690 O   0  0  0  0  0  0  0  0  0  0  0  0
    0.2230   25.1950  -26.2050 C   0  0  0  0  0  0  0  0  0  0  0  0
    0.6390   25.4370  -24.8850 C   0  0  0  0  0  0  0  0  0  0  0  0
   -0.0580   26.3300  -24.0680 C   0  0  0  0  0  0  0  0  0  0  0  0
   -1.1820   26.9920  -24.5570 C   0  0  0  0  0  0  0  0  0  0  0  0
   -1.6110   26.7660  -25.8660 C   0  0  0  0  0  0  0  0  0  0  0  0
   -0.9190   25.8720  -26.7020 C   0  0  0  0  0  0  0  0  0  0  0  0
   -1.3660   25.6960  -28.0540 N   0  0  0  0  0  0  0  0  0  0  0  0
   -2.5230   24.9230  -28.3950 C   0  0  0  0  0  0  0  0  0  0  0  0
   -3.0880   24.2100  -27.5220 O   0  0  0  0  0  0  0  0  0  0  0  0
   -2.9830   24.9150  -29.7520 N   0  0  0  0  0  0  0  0  0  0  0  0
   -4.2170   24.3650  -30.2370 C   0  0  0  0  0  0  0  0  0  0  0  0
   -5.4010   25.0810  -30.0190 C   0  0  0  0  0  0  0  0  0  0  0  0
   -6.6290   24.5690  -30.4510 C   0  0  0  0  0  0  0  0  0  0  0  0
   -6.6850   23.3290  -31.0920 C   0  0  0  0  0  0  0  0  0  0  0  0
   -8.2260   22.6890  -31.6360 Cl  0  0  0  0  0  0  0  0  0  0  0  0
   -5.5120   22.5940  -31.2890 C   0  0  0  0  0  0  0  0  0  0  0  0
   -4.2830   23.1030  -30.8570 C   0  0  0  0  0  0  0  0  0  0  0  0
   -0.4520   22.2370  -28.4030 C   0  0  0  0  0  0  0  0  0  0  0  0
   -1.2580   20.9220  -28.3800 C   0  0  0  0  0  0  0  0  0  0  0  0
   -2.6079   18.6740  -25.2565 H   0  0  0  0  0  0  0  0  0  0  0  0
   -3.5220   19.4707  -26.5817 H   0  0  0  0  0  0  0  0  0  0  0  0
   -3.3119   17.6867  -26.5817 H   0  0  0  0  0  0  0  0  0  0  0  0
   -0.7865   18.1219  -26.7054 H   0  0  0  0  0  0  0  0  0  0  0  0
   -1.7885   18.5608  -28.1801 H   0  0  0  0  0  0  0  0  0  0  0  0
   -2.3993   21.0966  -25.8943 H   0  0  0  0  0  0  0  0  0  0  0  0
   -0.9513   20.4190  -25.0539 H   0  0  0  0  0  0  0  0  0  0  0  0
   -1.3963   23.1223  -26.0773 H   0  0  0  0  0  0  0  0  0  0  0  0
   -0.0449   22.4809  -25.0664 H   0  0  0  0  0  0  0  0  0  0  0  0
    1.5243   24.9169  -24.4903 H   0  0  0  0  0  0  0  0  0  0  0  0
    0.2810   26.5108  -23.0373 H   0  0  0  0  0  0  0  0  0  0  0  0
   -1.7316   27.6929  -23.9115 H   0  0  0  0  0  0  0  0  0  0  0  0
   -2.4987   27.2922  -26.2470 H   0  0  0  0  0  0  0  0  0  0  0  0
   -0.8850   26.2240  -28.8150 H   0  0  0  0  0  0  0  0  0  0  0  0
   -5.3649   26.0526  -29.5045 H   0  0  0  0  0  0  0  0  0  0  0  0
   -7.5522   25.1438  -30.2857 H   0  0  0  0  0  0  0  0  0  0  0  0
   -5.5559   21.6131  -31.7849 H   0  0  0  0  0  0  0  0  0  0  0  0
   -3.3647   22.5150  -31.0023 H   0  0  0  0  0  0  0  0  0  0  0  0
   -1.1444   23.0795  -28.5475 H   0  0  0  0  0  0  0  0  0  0  0  0
    0.2744   22.1853  -29.2274 H   0  0  0  0  0  0  0  0  0  0  0  0
   -2.3323   21.1542  -28.4245 H   0  0  0  0  0  0  0  0  0  0  0  0
   -0.9682   20.3099  -29.2468 H   0  0  0  0  0  0  0  0  0  0  0  0
  1  2  1  0
  2  3  1  0
  3  4  1  0
  4  5  1  0
  5  6  1  0
  6  7  1  0
  7  8  2  0
  7  9  2  0
  7 10  1  0
 10 11  2  0
 11 12  1  0
 12 13  2  0
 13 14  1  0
 14 15  2  0
 15 16  1  0
 16 17  1  0
 17 18  2  0
 17 19  1  0
 19 20  1  0
 20 21  2  0
 21 22  1  0
 22 23  2  0
 23 24  1  0
 23 25  1  0
 25 26  2  0
  6 27  1  0
 27 28  1  0
 28  3  1  0
 15 10  1  0
 26 20  1  0
  1 29  1  0
  1 30  1  0
  1 31  1  0
  2 32  1  0
  2 33  1  0
  4 34  1  0
  4 35  1  0
  5 36  1  0
  5 37  1  0
 11 38  1  0
 12 39  1  0
 13 40  1  0
 14 41  1  0
 16 42  1  0
 21 43  1  0
 22 44  1  0
 25 45  1  0
 26 46  1  0
 27 47  1  0
 27 48  1  0
 28 49  1  0
 28 50  1  0
M  CHG  1  19  -1
M  END
>  <UniqueID>  (34) 
33

>  <SMILES>  (34) 
CCN1CCN(S(=O)(=O)c2ccccc2NC(=O)[N-]c2ccc(Cl)cc2)CC1

>  <Energy>  (34) 
68.60532128488741

>  <Genealogy>  (34) 
CCN1CCN(S(=O)(=O)c2ccccc2NC(=O)[N-]c2ccc(Cl)cc2)CC1 (protonated)
CCN1CCN(S(=O)(=O)c2ccccc2NC(=O)[N-]c2ccc(Cl)cc2)CC1 (3D coordinates assigned)
CCN1CCN(S(=O)(=O)c2ccccc2NC(=O)[N-]c2ccc(Cl)cc2)CC1 (nonaromatic ring conformer: 68.60532128488741 kcal/mol)

>  <smiles>  (34) 
CCN1CCN(S(=O)(=O)c2ccccc2NC(=O)Nc2ccc(Cl)cc2)CC1

>  <score_type>  (34) 
oracle

>  <origin>  (34) 
adgpu

>  <m_score__min__energy>  (34) 
-10.390000000000001

>  <m_primary>  (34) 
energy

$$$$
34:0
     RDKit          3D

 54 57  0  0  0  0  0  0  0  0999 V2000
   -6.0730   26.0470  -31.2750 O   0  0  0  0  0  0  0  0  0  0  0  0
   -5.4540   25.0220  -30.3650 S   0  0  0  0  0  0  0  0  0  0  0  0
   -5.9560   25.2380  -28.9660 O   0  0  0  0  0  0  0  0  0  0  0  0
   -3.7240   25.1290  -30.3830 N   0  0  0  0  0  0  0  0  0  0  0  0
   -2.8380   24.3320  -29.5880 C   0  0  0  0  0  0  0  0  0  0  0  0
   -3.2510   23.0490  -29.2170 C   0  0  0  0  0  0  0  0  0  0  0  0
   -2.4320   22.2250  -28.4320 C   0  0  0  0  0  0  0  0  0  0  0  0
   -1.1500   22.6750  -28.0540 C   0  0  0  0  0  0  0  0  0  0  0  0
   -0.7560   23.9790  -28.3930 C   0  0  0  0  0  0  0  0  0  0  0  0
   -1.6050   24.8170  -29.1230 C   0  0  0  0  0  0  0  0  0  0  0  0
   -1.2260   26.1350  -29.3400 O   0  0  0  0  0  0  0  0  0  0  0  0
   -0.2010   21.8180  -27.2390 C   0  0  0  0  0  0  0  0  0  0  0  0
   -0.7550   20.4270  -26.8540 C   0  0  0  0  0  0  0  0  0  0  0  0
   -2.2790   20.4190  -26.7180 C   0  0  0  0  0  0  0  0  0  0  0  0
   -2.9190   20.8560  -28.0370 C   0  0  0  0  0  0  0  0  0  0  0  0
   -5.8970   23.4310  -30.9600 C   0  0  0  0  0  0  0  0  0  0  0  0
   -7.1370   22.8540  -30.6550 C   0  0  0  0  0  0  0  0  0  0  0  0
   -7.4350   21.5640  -31.1020 C   0  0  0  0  0  0  0  0  0  0  0  0
   -6.4920   20.8400  -31.8390 C   0  0  0  0  0  0  0  0  0  0  0  0
   -5.2480   21.4110  -32.1470 C   0  0  0  0  0  0  0  0  0  0  0  0
   -4.0380   20.5030  -33.0610 S   0  0  0  0  0  0  0  0  0  0  0  0
   -3.2960   21.4520  -33.9650 O   0  0  0  0  0  0  0  0  0  0  0  0
   -4.7310   19.4850  -33.9250 O   0  0  0  0  0  0  0  0  0  0  0  0
   -2.9090   19.6760  -32.0080 N   0  0  0  0  0  0  0  0  0  0  0  0
   -2.1600   20.6260  -31.1470 C   0  0  0  0  0  0  0  0  0  0  0  0
   -0.7100   20.8450  -31.6080 C   0  0  0  0  0  0  0  0  0  0  0  0
    0.0720   19.5170  -31.6730 C   0  0  0  0  0  0  0  0  0  0  0  0
   -0.8310   18.3050  -31.9740 C   0  0  0  0  0  0  0  0  0  0  0  0
   -2.0680   18.7300  -32.7730 C   0  0  0  0  0  0  0  0  0  0  0  0
   -4.9650   22.7140  -31.7210 C   0  0  0  0  0  0  0  0  0  0  0  0
   -4.2337   22.6802  -29.5460 H   0  0  0  0  0  0  0  0  0  0  0  0
    0.2327   24.3462  -28.0806 H   0  0  0  0  0  0  0  0  0  0  0  0
    0.7174   21.6704  -27.8262 H   0  0  0  0  0  0  0  0  0  0  0  0
   -0.0296   22.3561  -26.2950 H   0  0  0  0  0  0  0  0  0  0  0  0
   -0.4667   19.7050  -27.6322 H   0  0  0  0  0  0  0  0  0  0  0  0
   -0.3312   20.1583  -25.8751 H   0  0  0  0  0  0  0  0  0  0  0  0
   -2.6179   19.4032  -26.4665 H   0  0  0  0  0  0  0  0  0  0  0  0
   -2.5763   21.1167  -25.9212 H   0  0  0  0  0  0  0  0  0  0  0  0
   -2.6525   20.1359  -28.8246 H   0  0  0  0  0  0  0  0  0  0  0  0
   -4.0109   20.8906  -27.9081 H   0  0  0  0  0  0  0  0  0  0  0  0
   -7.8752   23.4161  -30.0642 H   0  0  0  0  0  0  0  0  0  0  0  0
   -8.4137   21.1167  -30.8737 H   0  0  0  0  0  0  0  0  0  0  0  0
   -6.7264   19.8201  -32.1780 H   0  0  0  0  0  0  0  0  0  0  0  0
   -2.6811   21.5947  -31.1592 H   0  0  0  0  0  0  0  0  0  0  0  0
   -2.1205   20.1915  -30.1372 H   0  0  0  0  0  0  0  0  0  0  0  0
   -0.7187   21.3034  -32.6079 H   0  0  0  0  0  0  0  0  0  0  0  0
   -0.2127   21.5017  -30.8790 H   0  0  0  0  0  0  0  0  0  0  0  0
    0.8311   19.5948  -32.4653 H   0  0  0  0  0  0  0  0  0  0  0  0
    0.5275   19.3528  -30.6853 H   0  0  0  0  0  0  0  0  0  0  0  0
   -0.2610   17.5673  -32.5579 H   0  0  0  0  0  0  0  0  0  0  0  0
   -1.1616   17.8675  -31.0204 H   0  0  0  0  0  0  0  0  0  0  0  0
   -1.7422   19.2147  -33.7052 H   0  0  0  0  0  0  0  0  0  0  0  0
   -2.6660   17.8318  -32.9868 H   0  0  0  0  0  0  0  0  0  0  0  0
   -4.0036   23.1783  -31.9858 H   0  0  0  0  0  0  0  0  0  0  0  0
  1  2  2  0
  2  3  2  0
  2  4  1  0
  4  5  1  0
  5  6  2  0
  6  7  1  0
  7  8  2  0
  8  9  1  0
  9 10  2  0
 10 11  1  0
  8 12  1  0
 12 13  1  0
 13 14  1  0
 14 15  1  0
  2 16  1  0
 16 17  2  0
 17 18  1  0
 18 19  2  0
 19 20  1  0
 20 21  1  0
 21 22  2  0
 21 23  2  0
 21 24  1  0
 24 25  1  0
 25 26  1  0
 26 27  1  0
 27 28  1  0
 28 29  1  0
 20 30  2  0
 10  5  1  0
 30 16  1  0
 15  7  1  0
 29 24  1  0
  6 31  1  0
  9 32  1  0
 12 33  1  0
 12 34  1  0
 13 35  1  0
 13 36  1  0
 14 37  1  0
 14 38  1  0
 15 39  1  0
 15 40  1  0
 17 41  1  0
 18 42  1  0
 19 43  1  0
 25 44  1  0
 25 45  1  0
 26 46  1  0
 26 47  1  0
 27 48  1  0
 27 49  1  0
 28 50  1  0
 28 51  1  0
 29 52  1  0
 29 53  1  0
 30 54  1  0
M  CHG  2   4  -1  11  -1
M  END
>  <UniqueID>  (35) 
34

>  <SMILES>  (35) 
O=S(=O)([N-]c1cc2c(cc1[O-])CCCC2)c1cccc(S(=O)(=O)N2CCCCC2)c1

>  <Energy>  (35) 
69.39164914227727

>  <Genealogy>  (35) 
O=S(=O)([N-]c1cc2c(cc1[O-])CCCC2)c1cccc(S(=O)(=O)N2CCCCC2)c1 (protonated)
O=S(=O)([N-]c1cc2c(cc1[O-])CCCC2)c1cccc(S(=O)(=O)N2CCCCC2)c1 (3D coordinates assigned)
O=S(=O)([N-]c1cc2c(cc1[O-])CCCC2)c1cccc(S(=O)(=O)N2CCCCC2)c1 (nonaromatic ring conformer: 69.39164914227727 kcal/mol)

>  <smiles>  (35) 
O=S(=O)(Nc1cc2c(cc1O)CCCC2)c1cccc(S(=O)(=O)N2CCCCC2)c1

>  <score_type>  (35) 
oracle

>  <origin>  (35) 
adgpu

>  <m_score__min__energy>  (35) 
-15.34

>  <m_primary>  (35) 
energy

$$$$
35:0
     RDKit          3D

 41 43  0  0  0  0  0  0  0  0999 V2000
   -4.9787   22.0422  -30.5780 H   0  0  0  0  0  0  0  0  0  0  0  0
   -6.0090   21.9920  -30.9600 C   0  0  0  0  0  0  0  0  0  0  0  0
   -6.5560   20.7570  -31.3170 C   0  0  0  0  0  0  0  0  0  0  0  0
   -5.9542   19.8418  -31.2156 H   0  0  0  0  0  0  0  0  0  0  0  0
   -7.8660   20.6790  -31.8030 C   0  0  0  0  0  0  0  0  0  0  0  0
   -8.5420   19.1130  -32.2430 S   0  0  0  0  0  0  0  0  0  0  0  0
   -8.9620   18.3650  -31.0070 O   0  0  0  0  0  0  0  0  0  0  0  0
   -9.7470   19.3380  -33.1130 O   0  0  0  0  0  0  0  0  0  0  0  0
   -7.3470   18.1860  -33.1170 N   0  0  0  0  0  0  0  0  0  0  0  0
   -6.4930   19.0840  -33.9090 C   0  0  0  0  0  0  0  0  0  0  0  0
   -7.1143   19.6353  -34.6301 H   0  0  0  0  0  0  0  0  0  0  0  0
   -5.9885   19.7908  -33.2338 H   0  0  0  0  0  0  0  0  0  0  0  0
   -5.4290   18.2650  -34.6720 C   0  0  0  0  0  0  0  0  0  0  0  0
   -5.6405   18.3273  -35.7497 H   0  0  0  0  0  0  0  0  0  0  0  0
   -4.4425   18.6877  -34.4311 H   0  0  0  0  0  0  0  0  0  0  0  0
   -5.4220   16.9010  -34.2870 O   0  0  0  0  0  0  0  0  0  0  0  0
   -5.2980   16.8020  -32.8810 C   0  0  0  0  0  0  0  0  0  0  0  0
   -5.2060   15.7420  -32.6019 H   0  0  0  0  0  0  0  0  0  0  0  0
   -4.4046   17.3622  -32.5679 H   0  0  0  0  0  0  0  0  0  0  0  0
   -6.5290   17.4050  -32.1730 C   0  0  0  0  0  0  0  0  0  0  0  0
   -7.1394   16.5907  -31.7555 H   0  0  0  0  0  0  0  0  0  0  0  0
   -6.1816   18.0737  -31.3717 H   0  0  0  0  0  0  0  0  0  0  0  0
   -8.6250   21.8480  -31.9340 C   0  0  0  0  0  0  0  0  0  0  0  0
   -9.6538   21.7928  -32.3195 H   0  0  0  0  0  0  0  0  0  0  0  0
   -8.0810   23.0850  -31.5770 C   0  0  0  0  0  0  0  0  0  0  0  0
   -8.6860   23.9977  -31.6813 H   0  0  0  0  0  0  0  0  0  0  0  0
   -6.7650   23.1720  -31.0850 C   0  0  0  0  0  0  0  0  0  0  0  0
   -6.1850   24.4820  -30.7020 C   0  0  0  0  0  0  0  0  0  0  0  0
   -6.9510   25.4320  -30.3860 O   0  0  0  0  0  0  0  0  0  0  0  0
   -4.7560   24.6400  -30.6510 N   0  0  0  0  0  0  0  0  0  0  0  0
   -3.9750   24.6200  -29.6080 C   0  0  0  0  0  0  0  0  0  0  0  0
   -2.6380   24.7420  -29.7140 N   0  0  0  0  0  0  0  0  0  0  0  0
   -2.2570   24.6880  -28.4220 C   0  0  0  0  0  0  0  0  0  0  0  0
   -0.5520   24.7990  -27.8890 S   0  0  0  0  0  0  0  0  0  0  0  0
   -0.9290   24.2590  -26.1930 C   0  0  0  0  0  0  0  0  0  0  0  0
   -0.4516   24.9429  -25.4758 H   0  0  0  0  0  0  0  0  0  0  0  0
   -2.0181   24.2680  -26.0389 H   0  0  0  0  0  0  0  0  0  0  0  0
   -0.5453   23.2397  -26.0389 H   0  0  0  0  0  0  0  0  0  0  0  0
   -3.2930   24.5530  -27.5710 N   0  0  0  0  0  0  0  0  0  0  0  0
   -4.3750   24.5100  -28.3250 N   0  0  0  0  0  0  0  0  0  0  0  0
   -5.3390   24.4350  -27.9370 H   0  0  0  0  0  0  0  0  0  0  0  0
  1  2  1  0
  2  3  2  0
  3  4  1  0
  3  5  1  0
  5  6  1  0
  6  7  2  0
  6  8  2  0
  6  9  1  0
  9 10  1  0
 10 11  1  0
 10 12  1  0
 10 13  1  0
 13 14  1  0
 13 15  1  0
 13 16  1  0
 16 17  1  0
 17 18  1  0
 17 19  1  0
 17 20  1  0
 20 21  1  0
 20 22  1  0
  5 23  2  0
 23 24  1  0
 23 25  1  0
 25 26  1  0
 25 27  2  0
 27 28  1  0
 28 29  2  0
 28 30  1  0
 30 31  2  0
 31 32  1  0
 32 33  2  0
 33 34  1  0
 34 35  1  0
 35 36  1  0
 35 37  1  0
 35 38  1  0
 33 39  1  0
 39 40  1  0
 40 41  1  0
 27  2  1  0
 40 31  1  0
 20  9  1  0
M  CHG  1  39  -1
M  END
>  <UniqueID>  (36) 
35

>  <SMILES>  (36) 
CSc1n/c(=N/C(=O)c2ccc(S(=O)(=O)N3CCOCC3)cc2)[nH][n-]1

>  <Energy>  (36) 
84.12363987047536

>  <Genealogy>  (36) 
CSc1nc(=NC(=O)c2ccc(S(=O)(=O)N3CCOCC3)cc2)[nH][n-]1 (protonated)
CSc1n/c(=N/C(=O)c2ccc(S(=O)(=O)N3CCOCC3)cc2)[nH][n-]1 (cis-trans isomerization)
CSc1n/c(=N/C(=O)c2ccc(S(=O)(=O)N3CCOCC3)cc2)[nH][n-]1 (3D coordinates assigned)
CSc1n/c(=N/C(=O)c2ccc(S(=O)(=O)N3CCOCC3)cc2)[nH][n-]1 (nonaromatic ring conformer: 84.12363987047536 kcal/mol)

>  <smiles>  (36) 
CSc1nc(=NC(=O)c2ccc(S(=O)(=O)N3CCOCC3)cc2)[nH][nH]1

>  <score_type>  (36) 
oracle

>  <origin>  (36) 
adgpu

>  <m_score__min__energy>  (36) 
-10.640000000000001

>  <m_primary>  (36) 
energy

$$$$
36:0
     RDKit          3D

 72 76  0  0  0  0  0  0  0  0999 V2000
    0.6860   17.0540  -28.1190 C   0  0  0  0  0  0  0  0  0  0  0  0
   -0.1350   18.3160  -28.1710 C   0  0  0  0  0  0  0  0  0  0  0  0
   -1.0650   18.5770  -27.1520 C   0  0  0  0  0  0  0  0  0  0  0  0
   -1.8440   19.7330  -27.1780 C   0  0  0  0  0  0  0  0  0  0  0  0
   -1.7090   20.6600  -28.2220 C   0  0  0  0  0  0  0  0  0  0  0  0
   -2.5550   21.8780  -28.2650 C   0  0  0  0  0  0  0  0  0  0  0  0
   -2.8170   22.6100  -27.0950 C   0  0  0  0  0  0  0  0  0  0  0  0
   -3.5910   23.7720  -27.1450 C   0  0  0  0  0  0  0  0  0  0  0  0
   -4.0940   24.2280  -28.3650 C   0  0  0  0  0  0  0  0  0  0  0  0
   -3.8270   23.5240  -29.5500 C   0  0  0  0  0  0  0  0  0  0  0  0
   -4.3090   24.0470  -30.8500 C   0  0  0  0  0  0  0  0  0  0  0  0
   -4.2400   25.2830  -31.0820 O   0  0  0  0  0  0  0  0  0  0  0  0
   -4.8880   23.1920  -31.8460 N   0  0  0  0  0  0  0  0  0  0  0  0
   -4.3880   21.9110  -32.2610 C   0  0  0  0  0  0  0  0  0  0  0  0
   -3.0340   21.7310  -32.5910 C   0  0  0  0  0  0  0  0  0  0  0  0
   -2.5440   20.4630  -32.9290 C   0  0  0  0  0  0  0  0  0  0  0  0
   -0.8320   20.2420  -33.2960 S   0  0  0  0  0  0  0  0  0  0  0  0
   -0.4580   18.8030  -33.0690 O   0  0  0  0  0  0  0  0  0  0  0  0
   -0.0140   21.0870  -32.3580 O   0  0  0  0  0  0  0  0  0  0  0  0
   -0.4650   20.6830  -34.9480 N   0  0  0  0  0  0  0  0  0  0  0  0
    0.2650   19.6060  -35.6530 C   0  0  0  0  0  0  0  0  0  0  0  0
    1.7590   19.9340  -35.8200 C   0  0  0  0  0  0  0  0  0  0  0  0
    1.9910   21.1390  -36.5360 O   0  0  0  0  0  0  0  0  0  0  0  0
    1.0030   22.1390  -36.3120 C   0  0  0  0  0  0  0  0  0  0  0  0
    0.2370   21.9800  -34.9890 C   0  0  0  0  0  0  0  0  0  0  0  0
   -3.4210   19.3710  -32.9610 C   0  0  0  0  0  0  0  0  0  0  0  0
   -4.7740   19.5470  -32.6650 C   0  0  0  0  0  0  0  0  0  0  0  0
   -5.2660   20.8140  -32.3240 C   0  0  0  0  0  0  0  0  0  0  0  0
   -6.6520   20.9730  -31.9900 N   0  0  0  0  0  0  0  0  0  0  0  0
   -7.6580   20.1950  -32.7260 C   0  0  0  0  0  0  0  0  0  0  0  0
   -9.0630   20.4240  -32.1580 C   0  0  0  0  0  0  0  0  0  0  0  0
   -9.3240   21.9230  -31.9700 C   0  0  0  0  0  0  0  0  0  0  0  0
   -8.2590   22.6170  -31.0900 C   0  0  0  0  0  0  0  0  0  0  0  0
   -7.0260   21.7470  -30.8020 C   0  0  0  0  0  0  0  0  0  0  0  0
   -3.0850   22.3310  -29.4860 C   0  0  0  0  0  0  0  0  0  0  0  0
   -0.7790   20.4060  -29.2440 C   0  0  0  0  0  0  0  0  0  0  0  0
    0.0130   19.2450  -29.2290 C   0  0  0  0  0  0  0  0  0  0  0  0
    0.9850   18.9990  -30.3530 C   0  0  0  0  0  0  0  0  0  0  0  0
    0.8663   16.7768  -27.0699 H   0  0  0  0  0  0  0  0  0  0  0  0
    0.1427   16.2421  -28.6246 H   0  0  0  0  0  0  0  0  0  0  0  0
    1.6484   17.2216  -28.6246 H   0  0  0  0  0  0  0  0  0  0  0  0
   -1.1802   17.8617  -26.3243 H   0  0  0  0  0  0  0  0  0  0  0  0
   -2.5704   19.9196  -26.3733 H   0  0  0  0  0  0  0  0  0  0  0  0
   -2.4099   22.2659  -26.1328 H   0  0  0  0  0  0  0  0  0  0  0  0
   -3.8047   24.3290  -26.2209 H   0  0  0  0  0  0  0  0  0  0  0  0
   -4.7027   25.1437  -28.3979 H   0  0  0  0  0  0  0  0  0  0  0  0
   -2.3522   22.5942  -32.5838 H   0  0  0  0  0  0  0  0  0  0  0  0
    0.1685   18.6749  -35.0753 H   0  0  0  0  0  0  0  0  0  0  0  0
   -0.1731   19.4998  -36.6564 H   0  0  0  0  0  0  0  0  0  0  0  0
    2.2099   20.0285  -34.8211 H   0  0  0  0  0  0  0  0  0  0  0  0
    2.2101   19.1164  -36.4014 H   0  0  0  0  0  0  0  0  0  0  0  0
    1.4998   23.1204  -36.3076 H   0  0  0  0  0  0  0  0  0  0  0  0
    0.2634   22.0405  -37.1203 H   0  0  0  0  0  0  0  0  0  0  0  0
    0.9478   22.0330  -34.1511 H   0  0  0  0  0  0  0  0  0  0  0  0
   -0.5055   22.7877  -34.9098 H   0  0  0  0  0  0  0  0  0  0  0  0
   -3.0422   18.3713  -33.2203 H   0  0  0  0  0  0  0  0  0  0  0  0
   -5.4578   18.6861  -32.6997 H   0  0  0  0  0  0  0  0  0  0  0  0
   -7.6444   20.5002  -33.7827 H   0  0  0  0  0  0  0  0  0  0  0  0
   -7.4127   19.1273  -32.6264 H   0  0  0  0  0  0  0  0  0  0  0  0
   -9.8075   20.0107  -32.8543 H   0  0  0  0  0  0  0  0  0  0  0  0
   -9.1401   19.9226  -31.1820 H   0  0  0  0  0  0  0  0  0  0  0  0
   -9.3291   22.4045  -32.9590 H   0  0  0  0  0  0  0  0  0  0  0  0
  -10.2918   22.0263  -31.4574 H   0  0  0  0  0  0  0  0  0  0  0  0
   -7.9259   23.5302  -31.6049 H   0  0  0  0  0  0  0  0  0  0  0  0
   -8.7342   22.8281  -30.1206 H   0  0  0  0  0  0  0  0  0  0  0  0
   -6.1855   22.3953  -30.5134 H   0  0  0  0  0  0  0  0  0  0  0  0
   -7.2664   21.0500  -29.9857 H   0  0  0  0  0  0  0  0  0  0  0  0
   -2.9173   21.7454  -30.4019 H   0  0  0  0  0  0  0  0  0  0  0  0
   -0.6691   21.1264  -30.0680 H   0  0  0  0  0  0  0  0  0  0  0  0
    1.9719   18.7492  -29.9363 H   0  0  0  0  0  0  0  0  0  0  0  0
    0.6261   18.1634  -30.9718 H   0  0  0  0  0  0  0  0  0  0  0  0
    1.0668   19.9047  -30.9718 H   0  0  0  0  0  0  0  0  0  0  0  0
  1  2  1  0
  2  3  2  0
  3  4  1  0
  4  5  2  0
  5  6  1  0
  6  7  2  0
  7  8  1  0
  8  9  2  0
  9 10  1  0
 10 11  1  0
 11 12  2  0
 11 13  1  0
 13 14  1  0
 14 15  2  0
 15 16  1  0
 16 17  1  0
 17 18  2  0
 17 19  2  0
 17 20  1  0
 20 21  1  0
 21 22  1  0
 22 23  1  0
 23 24  1  0
 24 25  1  0
 16 26  2  0
 26 27  1  0
 27 28  2  0
 28 29  1  0
 29 30  1  0
 30 31  1  0
 31 32  1  0
 32 33  1  0
 33 34  1  0
 10 35  2  0
  5 36  1  0
 36 37  2  0
 37 38  1  0
 37  2  1  0
 35  6  1  0
 28 14  1  0
 34 29  1  0
 25 20  1  0
  1 39  1  0
  1 40  1  0
  1 41  1  0
  3 42  1  0
  4 43  1  0
  7 44  1  0
  8 45  1  0
  9 46  1  0
 15 47  1  0
 21 48  1  0
 21 49  1  0
 22 50  1  0
 22 51  1  0
 24 52  1  0
 24 53  1  0
 25 54  1  0
 25 55  1  0
 26 56  1  0
 27 57  1  0
 30 58  1  0
 30 59  1  0
 31 60  1  0
 31 61  1  0
 32 62  1  0
 32 63  1  0
 33 64  1  0
 33 65  1  0
 34 66  1  0
 34 67  1  0
 35 68  1  0
 36 69  1  0
 38 70  1  0
 38 71  1  0
 38 72  1  0
M  CHG  1  13  -1
M  END
>  <UniqueID>  (37) 
36

>  <SMILES>  (37) 
Cc1ccc(-c2cccc(C(=O)[N-]c3cc(S(=O)(=O)N4CCOCC4)ccc3N3CCCCC3)c2)cc1C

>  <Energy>  (37) 
103.2862560304285

>  <Genealogy>  (37) 
Cc1ccc(-c2cccc(C(=O)[N-]c3cc(S(=O)(=O)N4CCOCC4)ccc3N3CCCCC3)c2)cc1C (protonated)
Cc1ccc(-c2cccc(C(=O)[N-]c3cc(S(=O)(=O)N4CCOCC4)ccc3N3CCCCC3)c2)cc1C (3D coordinates assigned)
Cc1ccc(-c2cccc(C(=O)[N-]c3cc(S(=O)(=O)N4CCOCC4)ccc3N3CCCCC3)c2)cc1C (nonaromatic ring conformer: 103.2862560304285 kcal/mol)

>  <smiles>  (37) 
Cc1ccc(-c2cccc(C(=O)Nc3cc(S(=O)(=O)N4CCOCC4)ccc3N3CCCCC3)c2)cc1C

>  <score_type>  (37) 
oracle

>  <origin>  (37) 
adgpu

>  <m_score__min__energy>  (37) 
-12.58

>  <m_primary>  (37) 
energy

$$$$
37:0
     RDKit          3D

 51 54  0  0  0  0  0  0  0  0999 V2000
   -6.8110   23.7350  -32.4900 O   0  0  0  0  0  0  0  0  0  0  0  0
   -6.0620   23.8820  -31.4840 C   0  0  0  0  0  0  0  0  0  0  0  0
   -6.4850   24.7400  -30.4700 C   0  0  0  0  0  0  0  0  0  0  0  0
   -5.6990   24.9240  -29.3460 C   0  0  0  0  0  0  0  0  0  0  0  0
   -4.4820   24.2550  -29.2300 C   0  0  0  0  0  0  0  0  0  0  0  0
   -3.6890   24.4440  -28.0870 C   0  0  0  0  0  0  0  0  0  0  0  0
   -2.4630   23.7770  -27.9460 C   0  0  0  0  0  0  0  0  0  0  0  0
   -1.6500   23.9700  -26.7660 N   0  0  0  0  0  0  0  0  0  0  0  0
   -0.5850   23.0160  -26.4310 C   0  0  0  0  0  0  0  0  0  0  0  0
   -0.2880   23.0560  -24.9290 C   0  0  0  0  0  0  0  0  0  0  0  0
    0.0830   24.4070  -24.4680 N   0  0  0  0  0  0  0  0  0  0  0  0
   -0.6000   25.5160  -25.1650 C   0  0  0  0  0  0  0  0  0  0  0  0
   -1.9040   25.0940  -25.8550 C   0  0  0  0  0  0  0  0  0  0  0  0
   -2.0410   22.9150  -28.9680 C   0  0  0  0  0  0  0  0  0  0  0  0
   -2.8200   22.7220  -30.1100 C   0  0  0  0  0  0  0  0  0  0  0  0
   -4.0600   23.3850  -30.2700 C   0  0  0  0  0  0  0  0  0  0  0  0
   -4.8620   23.2080  -31.3880 N   0  0  0  0  0  0  0  0  0  0  0  0
   -4.4710   22.2900  -32.4860 C   0  0  0  0  0  0  0  0  0  0  0  0
   -5.1620   20.9120  -32.3800 C   0  0  0  0  0  0  0  0  0  0  0  0
   -6.5560   20.9250  -32.9030 N   0  0  0  0  0  0  0  0  0  0  0  0
   -7.5550   20.7900  -31.8240 C   0  0  0  0  0  0  0  0  0  0  0  0
   -7.9700   19.3230  -31.7400 C   0  0  0  0  0  0  0  0  0  0  0  0
   -7.3140   18.6420  -32.9240 C   0  0  0  0  0  0  0  0  0  0  0  0
   -6.8140   19.7800  -33.7920 C   0  0  0  0  0  0  0  0  0  0  0  0
   -7.4439   25.2709  -30.5633 H   0  0  0  0  0  0  0  0  0  0  0  0
   -6.0348   25.5982  -28.5443 H   0  0  0  0  0  0  0  0  0  0  0  0
   -4.0330   25.1229  -27.2928 H   0  0  0  0  0  0  0  0  0  0  0  0
   -0.9055   22.0016  -26.7105 H   0  0  0  0  0  0  0  0  0  0  0  0
    0.3264   23.2890  -26.9831 H   0  0  0  0  0  0  0  0  0  0  0  0
   -1.1848   22.7294  -24.3822 H   0  0  0  0  0  0  0  0  0  0  0  0
    0.5649   22.3885  -24.7365 H   0  0  0  0  0  0  0  0  0  0  0  0
   -0.1340   24.4680  -23.4450 H   0  0  0  0  0  0  0  0  0  0  0  0
   -0.8333   26.2991  -24.4285 H   0  0  0  0  0  0  0  0  0  0  0  0
    0.0815   25.8728  -25.9513 H   0  0  0  0  0  0  0  0  0  0  0  0
   -2.6362   24.7873  -25.0935 H   0  0  0  0  0  0  0  0  0  0  0  0
   -2.2986   25.9437  -26.4315 H   0  0  0  0  0  0  0  0  0  0  0  0
   -1.0830   22.3836  -28.8685 H   0  0  0  0  0  0  0  0  0  0  0  0
   -2.4641   22.0431  -30.8989 H   0  0  0  0  0  0  0  0  0  0  0  0
   -4.7476   22.7504  -33.4460 H   0  0  0  0  0  0  0  0  0  0  0  0
   -3.3857   22.1259  -32.4138 H   0  0  0  0  0  0  0  0  0  0  0  0
   -4.5770   20.1800  -32.9562 H   0  0  0  0  0  0  0  0  0  0  0  0
   -5.2103   20.6463  -31.3137 H   0  0  0  0  0  0  0  0  0  0  0  0
   -6.7290   21.8060  -33.4430 H   0  0  0  0  0  0  0  0  0  0  0  0
   -7.1152   21.1081  -30.8672 H   0  0  0  0  0  0  0  0  0  0  0  0
   -8.4306   21.4214  -32.0352 H   0  0  0  0  0  0  0  0  0  0  0  0
   -7.6171   18.8781  -30.7979 H   0  0  0  0  0  0  0  0  0  0  0  0
   -9.0639   19.2090  -31.7614 H   0  0  0  0  0  0  0  0  0  0  0  0
   -6.4771   18.0094  -32.5932 H   0  0  0  0  0  0  0  0  0  0  0  0
   -8.0093   17.9813  -33.4626 H   0  0  0  0  0  0  0  0  0  0  0  0
   -5.8865   19.4840  -34.3040 H   0  0  0  0  0  0  0  0  0  0  0  0
   -7.5574   20.0414  -34.5595 H   0  0  0  0  0  0  0  0  0  0  0  0
  1  2  2  0
  2  3  1  0
  3  4  2  0
  4  5  1  0
  5  6  2  0
  6  7  1  0
  7  8  1  0
  8  9  1  0
  9 10  1  0
 10 11  1  0
 11 12  1  0
 12 13  1  0
  7 14  2  0
 14 15  1  0
 15 16  2  0
 16 17  1  0
 17 18  1  0
 18 19  1  0
 19 20  1  0
 20 21  1  0
 21 22  1  0
 22 23  1  0
 23 24  1  0
 17  2  1  0
 24 20  1  0
 16  5  1  0
 13  8  1  0
  3 25  1  0
  4 26  1  0
  6 27  1  0
  9 28  1  0
  9 29  1  0
 10 30  1  0
 10 31  1  0
 11 32  1  0
 12 33  1  0
 12 34  1  0
 13 35  1  0
 13 36  1  0
 14 37  1  0
 15 38  1  0
 18 39  1  0
 18 40  1  0
 19 41  1  0
 19 42  1  0
 20 43  1  0
 21 44  1  0
 21 45  1  0
 22 46  1  0
 22 47  1  0
 23 48  1  0
 23 49  1  0
 24 50  1  0
 24 51  1  0
M  CHG  1  20   1
M  END
>  <UniqueID>  (38) 
37

>  <SMILES>  (38) 
O=c1ccc2cc(N3CCNCC3)ccc2n1CC[NH+]1CCCC1

>  <Energy>  (38) 
74.98427405411614

>  <Genealogy>  (38) 
O=c1ccc2cc(N3CCNCC3)ccc2n1CC[NH+]1CCCC1 (protonated)
O=c1ccc2cc(N3CCNCC3)ccc2n1CC[NH+]1CCCC1 (3D coordinates assigned)
O=c1ccc2cc(N3CCNCC3)ccc2n1CC[NH+]1CCCC1 (nonaromatic ring conformer: 74.98427405411614 kcal/mol)

>  <smiles>  (38) 
O=c1ccc2cc(N3CCNCC3)ccc2n1CCN1CCCC1

>  <score_type>  (38) 
oracle

>  <origin>  (38) 
adgpu

>  <m_score__min__energy>  (38) 
-7.2400000000000002

>  <m_primary>  (38) 
energy

$$$$
38:0
     RDKit          3D

 55 58  0  0  0  0  0  0  0  0999 V2000
   -2.3140   20.1150  -34.3710 O   0  0  0  0  0  0  0  0  0  0  0  0
   -2.6900   19.6440  -33.2620 C   0  0  0  0  0  0  0  0  0  0  0  0
   -2.9300   18.2350  -33.1280 N   0  0  0  0  0  0  0  0  0  0  0  0
   -2.7980   17.3070  -34.2500 C   0  0  0  0  0  0  0  0  0  0  0  0
   -4.0220   17.3970  -35.1660 C   0  0  0  0  0  0  0  0  0  0  0  0
   -5.2250   17.8700  -34.3960 C   0  0  0  0  0  0  0  0  0  0  0  0
   -5.8630   17.0130  -33.4840 C   0  0  0  0  0  0  0  0  0  0  0  0
   -6.9590   17.4630  -32.7420 C   0  0  0  0  0  0  0  0  0  0  0  0
   -7.4260   18.7760  -32.8980 C   0  0  0  0  0  0  0  0  0  0  0  0
   -8.7860   19.3640  -31.9450 S   0  0  0  0  0  0  0  0  0  0  0  0
   -9.7830   19.9900  -32.8800 O   0  0  0  0  0  0  0  0  0  0  0  0
   -9.4530   18.2120  -31.2450 O   0  0  0  0  0  0  0  0  0  0  0  0
   -8.2550   20.5610  -30.7820 N   0  0  0  0  0  0  0  0  0  0  0  0
   -9.2770   21.6010  -30.5470 C   0  0  0  0  0  0  0  0  0  0  0  0
   -9.4040   22.5910  -31.7200 C   0  0  0  0  0  0  0  0  0  0  0  0
   -8.0480   22.9660  -32.3440 C   0  0  0  0  0  0  0  0  0  0  0  0
   -6.8780   22.5920  -31.4350 C   0  0  0  0  0  0  0  0  0  0  0  0
   -6.9050   21.0870  -31.1060 C   0  0  0  0  0  0  0  0  0  0  0  0
   -6.7790   19.6380  -33.7920 C   0  0  0  0  0  0  0  0  0  0  0  0
   -5.6830   19.1900  -34.5350 C   0  0  0  0  0  0  0  0  0  0  0  0
   -2.8800   20.5460  -32.1060 C   0  0  0  0  0  0  0  0  0  0  0  0
   -3.4720   21.8100  -32.2630 C   0  0  0  0  0  0  0  0  0  0  0  0
   -3.6350   22.6310  -31.1460 C   0  0  0  0  0  0  0  0  0  0  0  0
   -4.1660   23.7670  -31.2810 O   0  0  0  0  0  0  0  0  0  0  0  0
   -3.2030   22.1780  -29.8890 C   0  0  0  0  0  0  0  0  0  0  0  0
   -3.3370   22.9540  -28.7240 C   0  0  0  0  0  0  0  0  0  0  0  0
   -2.8890   22.4550  -27.4960 C   0  0  0  0  0  0  0  0  0  0  0  0
   -2.3090   21.1850  -27.4210 C   0  0  0  0  0  0  0  0  0  0  0  0
   -2.1720   20.4070  -28.5750 C   0  0  0  0  0  0  0  0  0  0  0  0
   -2.6160   20.8940  -29.8080 C   0  0  0  0  0  0  0  0  0  0  0  0
   -2.4810   20.1470  -30.8990 O   0  0  0  0  0  0  0  0  0  0  0  0
   -3.1560   17.8390  -32.1890 H   0  0  0  0  0  0  0  0  0  0  0  0
   -1.8955   17.5606  -34.8255 H   0  0  0  0  0  0  0  0  0  0  0  0
   -2.7214   16.2822  -33.8576 H   0  0  0  0  0  0  0  0  0  0  0  0
   -3.8126   18.1056  -35.9808 H   0  0  0  0  0  0  0  0  0  0  0  0
   -4.2330   16.3982  -35.5757 H   0  0  0  0  0  0  0  0  0  0  0  0
   -5.4986   15.9834  -33.3531 H   0  0  0  0  0  0  0  0  0  0  0  0
   -7.4568   16.7848  -32.0333 H   0  0  0  0  0  0  0  0  0  0  0  0
  -10.2495   21.1098  -30.3952 H   0  0  0  0  0  0  0  0  0  0  0  0
   -8.9665   22.1755  -29.6618 H   0  0  0  0  0  0  0  0  0  0  0  0
  -10.0325   22.1330  -32.4980 H   0  0  0  0  0  0  0  0  0  0  0  0
   -9.8484   23.5152  -31.3221 H   0  0  0  0  0  0  0  0  0  0  0  0
   -7.9383   22.4351  -33.3011 H   0  0  0  0  0  0  0  0  0  0  0  0
   -8.0305   24.0561  -32.4902 H   0  0  0  0  0  0  0  0  0  0  0  0
   -5.9333   22.8337  -31.9441 H   0  0  0  0  0  0  0  0  0  0  0  0
   -6.9620   23.1611  -30.4974 H   0  0  0  0  0  0  0  0  0  0  0  0
   -6.5196   20.5362  -31.9767 H   0  0  0  0  0  0  0  0  0  0  0  0
   -6.2865   20.9479  -30.2071 H   0  0  0  0  0  0  0  0  0  0  0  0
   -7.1348   20.6722  -33.9101 H   0  0  0  0  0  0  0  0  0  0  0  0
   -5.1771   19.8746  -35.2317 H   0  0  0  0  0  0  0  0  0  0  0  0
   -3.8036   22.1492  -33.2555 H   0  0  0  0  0  0  0  0  0  0  0  0
   -3.7939   23.9531  -28.7781 H   0  0  0  0  0  0  0  0  0  0  0  0
   -2.9935   23.0642  -26.5861 H   0  0  0  0  0  0  0  0  0  0  0  0
   -1.9599   20.7971  -26.4527 H   0  0  0  0  0  0  0  0  0  0  0  0
   -1.7136   19.4090  -28.5124 H   0  0  0  0  0  0  0  0  0  0  0  0
  1  2  2  0
  2  3  1  0
  3  4  1  0
  4  5  1  0
  5  6  1  0
  6  7  2  0
  7  8  1  0
  8  9  2  0
  9 10  1  0
 10 11  2  0
 10 12  2  0
 10 13  1  0
 13 14  1  0
 14 15  1  0
 15 16  1  0
 16 17  1  0
 17 18  1  0
  9 19  1  0
 19 20  2  0
  2 21  1  0
 21 22  2  0
 22 23  1  0
 23 24  2  0
 23 25  1  0
 25 26  2  0
 26 27  1  0
 27 28  2  0
 28 29  1  0
 29 30  2  0
 30 31  1  0
 20  6  1  0
 31 21  1  0
 18 13  1  0
 30 25  1  0
  3 32  1  0
  4 33  1  0
  4 34  1  0
  5 35  1  0
  5 36  1  0
  7 37  1  0
  8 38  1  0
 14 39  1  0
 14 40  1  0
 15 41  1  0
 15 42  1  0
 16 43  1  0
 16 44  1  0
 17 45  1  0
 17 46  1  0
 18 47  1  0
 18 48  1  0
 19 49  1  0
 20 50  1  0
 22 51  1  0
 26 52  1  0
 27 53  1  0
 28 54  1  0
 29 55  1  0
M  END
>  <UniqueID>  (39) 
38

>  <SMILES>  (39) 
O=C(NCCc1ccc(S(=O)(=O)N2CCCCC2)cc1)c1cc(=O)c2ccccc2o1

>  <Energy>  (39) 
65.31741294657618

>  <Genealogy>  (39) 
O=C(NCCc1ccc(S(=O)(=O)N2CCCCC2)cc1)c1cc(=O)c2ccccc2o1 (3D coordinates assigned)
O=C(NCCc1ccc(S(=O)(=O)N2CCCCC2)cc1)c1cc(=O)c2ccccc2o1 (nonaromatic ring conformer: 65.31741294657618 kcal/mol)

>  <smiles>  (39) 
O=C(NCCc1ccc(S(=O)(=O)N2CCCCC2)cc1)c1cc(=O)c2ccccc2o1

>  <score_type>  (39) 
oracle

>  <origin>  (39) 
adgpu

>  <m_score__min__energy>  (39) 
-11.17

>  <m_primary>  (39) 
energy

$$$$
39:0
     RDKit          3D

 54 57  0  0  0  0  0  0  0  0999 V2000
   -3.8520   19.7650  -33.1980 C   0  0  0  0  0  0  0  0  0  0  0  0
   -5.1310   19.1720  -33.7000 C   0  0  0  0  0  0  0  0  0  0  0  0
   -5.1270   18.5880  -34.8170 O   0  0  0  0  0  0  0  0  0  0  0  0
   -6.3640   19.2840  -32.9690 N   0  0  0  0  0  0  0  0  0  0  0  0
   -7.3290   18.1880  -32.8620 C   0  0  0  0  0  0  0  0  0  0  0  0
   -8.5480   18.7580  -32.1040 C   0  0  0  0  0  0  0  0  0  0  0  0
   -8.1190   20.1370  -31.7480 C   0  0  0  0  0  0  0  0  0  0  0  0
   -8.7900   21.0540  -30.9400 C   0  0  0  0  0  0  0  0  0  0  0  0
   -8.1570   22.2660  -30.6300 C   0  0  0  0  0  0  0  0  0  0  0  0
   -6.8650   22.5390  -31.1210 C   0  0  0  0  0  0  0  0  0  0  0  0
   -6.0250   23.9960  -30.5890 S   0  0  0  0  0  0  0  0  0  0  0  0
   -7.0300   25.1020  -30.4340 O   0  0  0  0  0  0  0  0  0  0  0  0
   -4.9950   24.4160  -31.5990 O   0  0  0  0  0  0  0  0  0  0  0  0
   -5.2490   23.7010  -29.0630 N   0  0  0  0  0  0  0  0  0  0  0  0
   -3.8800   23.2730  -28.9560 C   0  0  0  0  0  0  0  0  0  0  0  0
   -3.5530   22.0480  -28.3490 C   0  0  0  0  0  0  0  0  0  0  0  0
   -2.2180   21.6730  -28.1650 C   0  0  0  0  0  0  0  0  0  0  0  0
   -1.8410   20.2020  -27.2720 S   0  0  0  0  0  0  0  0  0  0  0  0
   -0.8510   20.5060  -26.1830 O   0  0  0  0  0  0  0  0  0  0  0  0
   -3.1160   19.7000  -26.6500 O   0  0  0  0  0  0  0  0  0  0  0  0
   -1.1980   18.9820  -28.3550 N   0  0  0  0  0  0  0  0  0  0  0  0
   -0.4730   19.5850  -29.4890 C   0  0  0  0  0  0  0  0  0  0  0  0
    0.9300   20.1000  -29.0910 C   0  0  0  0  0  0  0  0  0  0  0  0
    1.3850   19.5970  -27.8470 O   0  0  0  0  0  0  0  0  0  0  0  0
    1.1230   18.2160  -27.7610 C   0  0  0  0  0  0  0  0  0  0  0  0
   -0.3910   17.9690  -27.6390 C   0  0  0  0  0  0  0  0  0  0  0  0
   -1.1950   22.5030  -28.6380 C   0  0  0  0  0  0  0  0  0  0  0  0
   -1.5090   23.6980  -29.2900 C   0  0  0  0  0  0  0  0  0  0  0  0
   -2.8430   24.0890  -29.4460 C   0  0  0  0  0  0  0  0  0  0  0  0
   -3.1300   25.2970  -30.0710 O   0  0  0  0  0  0  0  0  0  0  0  0
   -6.2150   21.6000  -31.9450 C   0  0  0  0  0  0  0  0  0  0  0  0
   -6.8760   20.4060  -32.2580 C   0  0  0  0  0  0  0  0  0  0  0  0
   -3.8542   19.7640  -32.0980 H   0  0  0  0  0  0  0  0  0  0  0  0
   -3.0030   19.1686  -33.5635 H   0  0  0  0  0  0  0  0  0  0  0  0
   -3.7586   20.7983  -33.5635 H   0  0  0  0  0  0  0  0  0  0  0  0
   -7.6290   17.8453  -33.8633 H   0  0  0  0  0  0  0  0  0  0  0  0
   -6.8974   17.3246  -32.3344 H   0  0  0  0  0  0  0  0  0  0  0  0
   -9.4388   18.7772  -32.7491 H   0  0  0  0  0  0  0  0  0  0  0  0
   -8.8283   18.1558  -31.2272 H   0  0  0  0  0  0  0  0  0  0  0  0
   -9.7955   20.8311  -30.5536 H   0  0  0  0  0  0  0  0  0  0  0  0
   -8.6714   23.0071  -30.0006 H   0  0  0  0  0  0  0  0  0  0  0  0
   -5.8620   23.6820  -28.2170 H   0  0  0  0  0  0  0  0  0  0  0  0
   -4.3570   21.3759  -28.0145 H   0  0  0  0  0  0  0  0  0  0  0  0
   -0.3594   18.8268  -30.2778 H   0  0  0  0  0  0  0  0  0  0  0  0
   -1.0585   20.4484  -29.8378 H   0  0  0  0  0  0  0  0  0  0  0  0
    1.6453   19.7994  -29.8707 H   0  0  0  0  0  0  0  0  0  0  0  0
    0.8569   21.1930  -28.9907 H   0  0  0  0  0  0  0  0  0  0  0  0
    1.5008   17.7174  -28.6658 H   0  0  0  0  0  0  0  0  0  0  0  0
    1.6258   17.8100  -26.8709 H   0  0  0  0  0  0  0  0  0  0  0  0
   -0.6200   16.9778  -28.0573 H   0  0  0  0  0  0  0  0  0  0  0  0
   -0.6515   18.0324  -26.5722 H   0  0  0  0  0  0  0  0  0  0  0  0
   -0.1431   22.2142  -28.4963 H   0  0  0  0  0  0  0  0  0  0  0  0
   -0.7028   24.3349  -29.6829 H   0  0  0  0  0  0  0  0  0  0  0  0
   -5.2065   21.8009  -32.3356 H   0  0  0  0  0  0  0  0  0  0  0  0
  1  2  1  0
  2  3  2  0
  2  4  1  0
  4  5  1  0
  5  6  1  0
  6  7  1  0
  7  8  2  0
  8  9  1  0
  9 10  2  0
 10 11  1  0
 11 12  2  0
 11 13  2  0
 11 14  1  0
 14 15  1  0
 15 16  2  0
 16 17  1  0
 17 18  1  0
 18 19  2  0
 18 20  2  0
 18 21  1  0
 21 22  1  0
 22 23  1  0
 23 24  1  0
 24 25  1  0
 25 26  1  0
 17 27  2  0
 27 28  1  0
 28 29  2  0
 29 30  1  0
 10 31  1  0
 31 32  2  0
 32  4  1  0
 32  7  1  0
 29 15  1  0
 26 21  1  0
  1 33  1  0
  1 34  1  0
  1 35  1  0
  5 36  1  0
  5 37  1  0
  6 38  1  0
  6 39  1  0
  8 40  1  0
  9 41  1  0
 14 42  1  0
 16 43  1  0
 22 44  1  0
 22 45  1  0
 23 46  1  0
 23 47  1  0
 25 48  1  0
 25 49  1  0
 26 50  1  0
 26 51  1  0
 27 52  1  0
 28 53  1  0
 31 54  1  0
M  CHG  1  30  -1
M  END
>  <UniqueID>  (40) 
39

>  <SMILES>  (40) 
CC(=O)N1CCc2ccc(S(=O)(=O)Nc3cc(S(=O)(=O)N4CCOCC4)ccc3[O-])cc21

>  <Energy>  (40) 
84.79489531191768

>  <Genealogy>  (40) 
CC(=O)N1CCc2ccc(S(=O)(=O)Nc3cc(S(=O)(=O)N4CCOCC4)ccc3[O-])cc21 (protonated)
CC(=O)N1CCc2ccc(S(=O)(=O)Nc3cc(S(=O)(=O)N4CCOCC4)ccc3[O-])cc21 (3D coordinates assigned)
CC(=O)N1CCc2ccc(S(=O)(=O)Nc3cc(S(=O)(=O)N4CCOCC4)ccc3[O-])cc21 (nonaromatic ring conformer: 84.79489531191768 kcal/mol)

>  <smiles>  (40) 
CC(=O)N1CCc2ccc(S(=O)(=O)Nc3cc(S(=O)(=O)N4CCOCC4)ccc3O)cc21

>  <score_type>  (40) 
oracle

>  <origin>  (40) 
adgpu

>  <m_score__min__energy>  (40) 
-13.99

>  <m_primary>  (40) 
energy

$$$$
40:0
     RDKit          3D

 70 74  0  0  0  0  0  0  0  0999 V2000
   -4.8320   21.3800  -32.9540 O   0  0  0  0  0  0  0  0  0  0  0  0
   -3.6230   21.6310  -32.6840 C   0  0  0  0  0  0  0  0  0  0  0  0
   -3.2740   22.7960  -31.9220 N   0  0  0  0  0  0  0  0  0  0  0  0
   -3.1530   22.8810  -30.4910 C   0  0  0  0  0  0  0  0  0  0  0  0
   -2.8140   21.7170  -29.7900 C   0  0  0  0  0  0  0  0  0  0  0  0
   -2.6040   21.7490  -28.4020 C   0  0  0  0  0  0  0  0  0  0  0  0
   -2.1090   20.2830  -27.5460 S   0  0  0  0  0  0  0  0  0  0  0  0
   -1.2430   20.6630  -26.3780 O   0  0  0  0  0  0  0  0  0  0  0  0
   -3.3330   19.5900  -27.0150 O   0  0  0  0  0  0  0  0  0  0  0  0
   -1.2270   19.1790  -28.5860 N   0  0  0  0  0  0  0  0  0  0  0  0
   -0.2760   19.9020  -29.4400 C   0  0  0  0  0  0  0  0  0  0  0  0
    1.0910   19.7830  -28.8030 C   0  0  0  0  0  0  0  0  0  0  0  0
    1.0400   18.4640  -28.0610 C   0  0  0  0  0  0  0  0  0  0  0  0
   -0.4410   18.2120  -27.8000 C   0  0  0  0  0  0  0  0  0  0  0  0
   -2.7500   22.9620  -27.7120 C   0  0  0  0  0  0  0  0  0  0  0  0
   -3.0710   24.1300  -28.4080 C   0  0  0  0  0  0  0  0  0  0  0  0
   -3.2550   24.1020  -29.7950 C   0  0  0  0  0  0  0  0  0  0  0  0
   -3.4900   25.3000  -30.4650 O   0  0  0  0  0  0  0  0  0  0  0  0
   -2.5650   20.6930  -33.1160 C   0  0  0  0  0  0  0  0  0  0  0  0
   -1.3400   21.1750  -33.6210 C   0  0  0  0  0  0  0  0  0  0  0  0
   -0.3560   20.2710  -34.0250 C   0  0  0  0  0  0  0  0  0  0  0  0
   -0.6080   18.9000  -33.9760 C   0  0  0  0  0  0  0  0  0  0  0  0
    0.3590   18.0110  -34.4430 O   0  0  0  0  0  0  0  0  0  0  0  0
   -1.8520   18.4430  -33.4910 C   0  0  0  0  0  0  0  0  0  0  0  0
   -2.2050   17.0160  -33.5570 C   0  0  0  0  0  0  0  0  0  0  0  0
   -1.3300   16.1360  -33.3440 O   0  0  0  0  0  0  0  0  0  0  0  0
   -3.5210   16.6310  -33.9690 N   0  0  0  0  0  0  0  0  0  0  0  0
   -4.7210   17.2750  -33.5070 C   0  0  0  0  0  0  0  0  0  0  0  0
   -5.3600   16.8470  -32.3280 C   0  0  0  0  0  0  0  0  0  0  0  0
   -6.5470   17.4440  -31.9070 C   0  0  0  0  0  0  0  0  0  0  0  0
   -7.1320   18.4610  -32.6680 C   0  0  0  0  0  0  0  0  0  0  0  0
   -8.6740   19.1640  -32.1660 S   0  0  0  0  0  0  0  0  0  0  0  0
   -9.4700   18.1350  -31.4090 O   0  0  0  0  0  0  0  0  0  0  0  0
   -9.4470   19.5490  -33.3990 O   0  0  0  0  0  0  0  0  0  0  0  0
   -8.4380   20.5820  -31.1700 N   0  0  0  0  0  0  0  0  0  0  0  0
   -9.3890   21.6720  -31.5180 C   0  0  0  0  0  0  0  0  0  0  0  0
   -8.7190   22.9140  -32.1230 C   0  0  0  0  0  0  0  0  0  0  0  0
   -7.5870   23.4370  -31.2180 C   0  0  0  0  0  0  0  0  0  0  0  0
   -6.7860   22.3180  -30.5380 C   0  0  0  0  0  0  0  0  0  0  0  0
   -7.0140   20.9670  -31.2190 C   0  0  0  0  0  0  0  0  0  0  0  0
   -6.5110   18.8810  -33.8540 C   0  0  0  0  0  0  0  0  0  0  0  0
   -5.3130   18.2890  -34.2750 C   0  0  0  0  0  0  0  0  0  0  0  0
   -2.7930   19.3460  -33.0850 N   0  0  0  0  0  0  0  0  0  0  0  0
   -2.7110   20.7661  -30.3333 H   0  0  0  0  0  0  0  0  0  0  0  0
   -0.2614   19.4569  -30.4458 H   0  0  0  0  0  0  0  0  0  0  0  0
   -0.5676   20.9583  -29.5355 H   0  0  0  0  0  0  0  0  0  0  0  0
    1.8793   19.7691  -29.5701 H   0  0  0  0  0  0  0  0  0  0  0  0
    1.3234   20.6305  -28.1414 H   0  0  0  0  0  0  0  0  0  0  0  0
    1.4663   17.6580  -28.6764 H   0  0  0  0  0  0  0  0  0  0  0  0
    1.6237   18.4926  -27.1291 H   0  0  0  0  0  0  0  0  0  0  0  0
   -0.7020   17.1876  -28.1042 H   0  0  0  0  0  0  0  0  0  0  0  0
   -0.6599   18.3317  -26.7287 H   0  0  0  0  0  0  0  0  0  0  0  0
   -2.6115   22.9933  -26.6212 H   0  0  0  0  0  0  0  0  0  0  0  0
   -3.1799   25.0786  -27.8618 H   0  0  0  0  0  0  0  0  0  0  0  0
   -1.1606   22.2577  -33.6962 H   0  0  0  0  0  0  0  0  0  0  0  0
    0.6171   20.6395  -34.3816 H   0  0  0  0  0  0  0  0  0  0  0  0
   -4.9184   16.0337  -31.7334 H   0  0  0  0  0  0  0  0  0  0  0  0
   -7.0253   17.1141  -30.9730 H   0  0  0  0  0  0  0  0  0  0  0  0
  -10.1134   21.2797  -32.2470 H   0  0  0  0  0  0  0  0  0  0  0  0
   -9.8648   21.9918  -30.5792 H   0  0  0  0  0  0  0  0  0  0  0  0
   -8.2999   22.6520  -33.1057 H   0  0  0  0  0  0  0  0  0  0  0  0
   -9.4778   23.7043  -32.2213 H   0  0  0  0  0  0  0  0  0  0  0  0
   -6.8981   24.0359  -31.8317 H   0  0  0  0  0  0  0  0  0  0  0  0
   -8.0564   24.0319  -30.4207 H   0  0  0  0  0  0  0  0  0  0  0  0
   -5.7153   22.5657  -30.5862 H   0  0  0  0  0  0  0  0  0  0  0  0
   -7.1247   22.2383  -29.4945 H   0  0  0  0  0  0  0  0  0  0  0  0
   -6.6963   21.0360  -32.2698 H   0  0  0  0  0  0  0  0  0  0  0  0
   -6.4268   20.2037  -30.6874 H   0  0  0  0  0  0  0  0  0  0  0  0
   -6.9675   19.6799  -34.4569 H   0  0  0  0  0  0  0  0  0  0  0  0
   -4.8357   18.6198  -35.2093 H   0  0  0  0  0  0  0  0  0  0  0  0
  1  2  2  0
  2  3  1  0
  3  4  1  0
  4  5  2  0
  5  6  1  0
  6  7  1  0
  7  8  2  0
  7  9  2  0
  7 10  1  0
 10 11  1  0
 11 12  1  0
 12 13  1  0
 13 14  1  0
  6 15  2  0
 15 16  1  0
 16 17  2  0
 17 18  1  0
  2 19  1  0
 19 20  2  0
 20 21  1  0
 21 22  2  0
 22 23  1  0
 22 24  1  0
 24 25  1  0
 25 26  2  0
 25 27  1  0
 27 28  1  0
 28 29  2  0
 29 30  1  0
 30 31  2  0
 31 32  1  0
 32 33  2  0
 32 34  2  0
 32 35  1  0
 35 36  1  0
 36 37  1  0
 37 38  1  0
 38 39  1  0
 39 40  1  0
 31 41  1  0
 41 42  2  0
 24 43  2  0
 17  4  1  0
 43 19  1  0
 14 10  1  0
 42 28  1  0
 40 35  1  0
  5 44  1  0
 11 45  1  0
 11 46  1  0
 12 47  1  0
 12 48  1  0
 13 49  1  0
 13 50  1  0
 14 51  1  0
 14 52  1  0
 15 53  1  0
 16 54  1  0
 20 55  1  0
 21 56  1  0
 29 57  1  0
 30 58  1  0
 36 59  1  0
 36 60  1  0
 37 61  1  0
 37 62  1  0
 38 63  1  0
 38 64  1  0
 39 65  1  0
 39 66  1  0
 40 67  1  0
 40 68  1  0
 41 69  1  0
 42 70  1  0
M  CHG  4   3  -1  18  -1  23  -1  27  -1
M  END
>  <UniqueID>  (41) 
40

>  <SMILES>  (41) 
O=C([N-]c1cc(S(=O)(=O)N2CCCC2)ccc1[O-])c1ccc([O-])c(C(=O)[N-]c2ccc(S(=O)(=O)N3CCCCC3)cc2)n1

>  <Energy>  (41) 
96.89752128091374

>  <Genealogy>  (41) 
O=C([N-]c1cc(S(=O)(=O)N2CCCC2)ccc1[O-])c1ccc([O-])c(C(=O)[N-]c2ccc(S(=O)(=O)N3CCCCC3)cc2)n1 (protonated)
O=C([N-]c1cc(S(=O)(=O)N2CCCC2)ccc1[O-])c1ccc([O-])c(C(=O)[N-]c2ccc(S(=O)(=O)N3CCCCC3)cc2)n1 (3D coordinates assigned)
O=C([N-]c1cc(S(=O)(=O)N2CCCC2)ccc1[O-])c1ccc([O-])c(C(=O)[N-]c2ccc(S(=O)(=O)N3CCCCC3)cc2)n1 (nonaromatic ring conformer: 96.89752128091374 kcal/mol)

>  <smiles>  (41) 
O=C(Nc1cc(S(=O)(=O)N2CCCC2)ccc1O)c1ccc(O)c(C(=O)Nc2ccc(S(=O)(=O)N3CCCCC3)cc2)n1

>  <score_type>  (41) 
oracle

>  <origin>  (41) 
adgpu

>  <m_score__min__energy>  (41) 
-16.010000000000002

>  <m_primary>  (41) 
energy

$$$$
41:0
     RDKit          3D

 53 57  0  0  0  0  0  0  0  0999 V2000
   -7.4570   18.9610  -32.2490 C   0  0  0  0  0  0  0  0  0  0  0  0
   -6.1410   19.5790  -32.4750 N   0  0  0  0  0  0  0  0  0  0  0  0
   -6.2660   20.9010  -33.1370 C   0  0  0  0  0  0  0  0  0  0  0  0
   -6.5380   22.0600  -32.1600 C   0  0  0  0  0  0  0  0  0  0  0  0
   -5.2850   22.6380  -31.5270 C   0  0  0  0  0  0  0  0  0  0  0  0
   -5.2830   24.0220  -31.2600 C   0  0  0  0  0  0  0  0  0  0  0  0
   -4.1940   24.6340  -30.6390 C   0  0  0  0  0  0  0  0  0  0  0  0
   -4.2170   26.0060  -30.4180 O   0  0  0  0  0  0  0  0  0  0  0  0
   -3.0840   23.8790  -30.2530 C   0  0  0  0  0  0  0  0  0  0  0  0
   -1.9790   24.5470  -29.6240 N   0  0  0  0  0  0  0  0  0  0  0  0
   -1.3300   24.1690  -28.0600 S   0  0  0  0  0  0  0  0  0  0  0  0
   -0.0600   24.9430  -27.8550 O   0  0  0  0  0  0  0  0  0  0  0  0
   -2.3080   24.5710  -26.9900 O   0  0  0  0  0  0  0  0  0  0  0  0
   -0.9650   22.4460  -27.9780 C   0  0  0  0  0  0  0  0  0  0  0  0
   -1.2260   21.7080  -26.8160 C   0  0  0  0  0  0  0  0  0  0  0  0
   -0.9680   20.3360  -26.7830 C   0  0  0  0  0  0  0  0  0  0  0  0
   -0.4340   19.6830  -27.9090 C   0  0  0  0  0  0  0  0  0  0  0  0
   -0.1540   20.4270  -29.0750 C   0  0  0  0  0  0  0  0  0  0  0  0
   -0.4310   21.8060  -29.1010 C   0  0  0  0  0  0  0  0  0  0  0  0
    0.4240   19.7530  -30.2610 C   0  0  0  0  0  0  0  0  0  0  0  0
    0.6540   20.4140  -31.3130 O   0  0  0  0  0  0  0  0  0  0  0  0
    0.7310   18.3040  -30.2170 C   0  0  0  0  0  0  0  0  0  0  0  0
    1.3130   17.6610  -31.3250 C   0  0  0  0  0  0  0  0  0  0  0  0
    1.5960   16.2950  -31.2840 C   0  0  0  0  0  0  0  0  0  0  0  0
    1.3030   15.5560  -30.1370 C   0  0  0  0  0  0  0  0  0  0  0  0
    0.7260   16.1800  -29.0290 C   0  0  0  0  0  0  0  0  0  0  0  0
    0.4370   17.5580  -29.0580 C   0  0  0  0  0  0  0  0  0  0  0  0
   -0.1710   18.2250  -27.8810 C   0  0  0  0  0  0  0  0  0  0  0  0
   -0.4710   17.5470  -26.8570 O   0  0  0  0  0  0  0  0  0  0  0  0
   -3.0760   22.4990  -30.5020 C   0  0  0  0  0  0  0  0  0  0  0  0
   -4.1720   21.8580  -31.1100 C   0  0  0  0  0  0  0  0  0  0  0  0
   -4.0400   20.3650  -31.3710 C   0  0  0  0  0  0  0  0  0  0  0  0
   -5.3580   19.5940  -31.2210 C   0  0  0  0  0  0  0  0  0  0  0  0
   -7.6408   18.8747  -31.1679 H   0  0  0  0  0  0  0  0  0  0  0  0
   -8.2388   19.5861  -32.7051 H   0  0  0  0  0  0  0  0  0  0  0  0
   -7.4753   17.9602  -32.7051 H   0  0  0  0  0  0  0  0  0  0  0  0
   -5.3284   21.1111  -33.6725 H   0  0  0  0  0  0  0  0  0  0  0  0
   -7.1315   20.8411  -33.8132 H   0  0  0  0  0  0  0  0  0  0  0  0
   -7.0505   22.8633  -32.7097 H   0  0  0  0  0  0  0  0  0  0  0  0
   -7.1494   21.6512  -31.3421 H   0  0  0  0  0  0  0  0  0  0  0  0
   -6.1544   24.6294  -31.5460 H   0  0  0  0  0  0  0  0  0  0  0  0
   -1.6353   22.2107  -25.9273 H   0  0  0  0  0  0  0  0  0  0  0  0
   -1.1838   19.7616  -25.8700 H   0  0  0  0  0  0  0  0  0  0  0  0
   -0.2257   22.3861  -30.0128 H   0  0  0  0  0  0  0  0  0  0  0  0
    1.5468   18.2396  -32.2308 H   0  0  0  0  0  0  0  0  0  0  0  0
    2.0499   15.8009  -32.1557 H   0  0  0  0  0  0  0  0  0  0  0  0
    1.5271   14.4795  -30.1057 H   0  0  0  0  0  0  0  0  0  0  0  0
    0.4959   15.5918  -28.1284 H   0  0  0  0  0  0  0  0  0  0  0  0
   -2.1952   21.9052  -30.2164 H   0  0  0  0  0  0  0  0  0  0  0  0
   -3.6695   20.2232  -32.3970 H   0  0  0  0  0  0  0  0  0  0  0  0
   -3.3466   19.9666  -30.6157 H   0  0  0  0  0  0  0  0  0  0  0  0
   -5.1312   18.5571  -30.9324 H   0  0  0  0  0  0  0  0  0  0  0  0
   -5.9603   20.1004  -30.4524 H   0  0  0  0  0  0  0  0  0  0  0  0
  1  2  1  0
  2  3  1  0
  3  4  1  0
  4  5  1  0
  5  6  2  0
  6  7  1  0
  7  8  1  0
  7  9  2  0
  9 10  1  0
 10 11  1  0
 11 12  2  0
 11 13  2  0
 11 14  1  0
 14 15  2  0
 15 16  1  0
 16 17  2  0
 17 18  1  0
 18 19  2  0
 18 20  1  0
 20 21  2  0
 20 22  1  0
 22 23  2  0
 23 24  1  0
 24 25  2  0
 25 26  1  0
 26 27  2  0
 27 28  1  0
 28 29  2  0
  9 30  1  0
 30 31  2  0
 31 32  1  0
 32 33  1  0
 33  2  1  0
 31  5  1  0
 19 14  1  0
 27 22  1  0
 28 17  1  0
  1 34  1  0
  1 35  1  0
  1 36  1  0
  3 37  1  0
  3 38  1  0
  4 39  1  0
  4 40  1  0
  6 41  1  0
 15 42  1  0
 16 43  1  0
 19 44  1  0
 23 45  1  0
 24 46  1  0
 25 47  1  0
 26 48  1  0
 30 49  1  0
 32 50  1  0
 32 51  1  0
 33 52  1  0
 33 53  1  0
M  CHG  2   8  -1  10  -1
M  END
>  <UniqueID>  (42) 
41

>  <SMILES>  (42) 
CN1CCc2cc([O-])c([N-]S(=O)(=O)c3ccc4c(c3)C(=O)c3ccccc3C4=O)cc2CC1

>  <Energy>  (42) 
79.52230106833116

>  <Genealogy>  (42) 
CN1CCc2cc([O-])c([N-]S(=O)(=O)c3ccc4c(c3)C(=O)c3ccccc3C4=O)cc2CC1 (protonated)
CN1CCc2cc([O-])c([N-]S(=O)(=O)c3ccc4c(c3)C(=O)c3ccccc3C4=O)cc2CC1 (3D coordinates assigned)
CN1CCc2cc([O-])c([N-]S(=O)(=O)c3ccc4c(c3)C(=O)c3ccccc3C4=O)cc2CC1 (nonaromatic ring conformer: 79.52230106833116 kcal/mol)

>  <smiles>  (42) 
CN1CCc2cc(O)c(NS(=O)(=O)c3ccc4c(c3)C(=O)c3ccccc3C4=O)cc2CC1

>  <score_type>  (42) 
oracle

>  <origin>  (42) 
adgpu

>  <m_score__min__energy>  (42) 
-14.550000000000001

>  <m_primary>  (42) 
energy

$$$$
42:0
     RDKit          3D

 54 57  0  0  0  0  0  0  0  0999 V2000
   -1.6850   21.4190  -26.8040 C   0  0  0  0  0  0  0  0  0  0  0  0
   -2.2350   22.4600  -27.7410 C   0  0  0  0  0  0  0  0  0  0  0  0
   -3.5020   22.2380  -28.3050 C   0  0  0  0  0  0  0  0  0  0  0  0
   -4.0610   23.1540  -29.1950 C   0  0  0  0  0  0  0  0  0  0  0  0
   -3.3550   24.3080  -29.5570 C   0  0  0  0  0  0  0  0  0  0  0  0
   -3.9050   25.2750  -30.4650 N   0  0  0  0  0  0  0  0  0  0  0  0
   -5.2890   25.4490  -30.7960 C   0  0  0  0  0  0  0  0  0  0  0  0
   -6.0300   26.1750  -30.0820 O   0  0  0  0  0  0  0  0  0  0  0  0
   -5.8740   24.7150  -31.8760 N   0  0  0  0  0  0  0  0  0  0  0  0
   -5.8450   23.2900  -32.0420 C   0  0  0  0  0  0  0  0  0  0  0  0
   -4.6360   22.5900  -32.2820 C   0  0  0  0  0  0  0  0  0  0  0  0
   -4.6440   21.1970  -32.4600 C   0  0  0  0  0  0  0  0  0  0  0  0
   -5.8650   20.5260  -32.4120 C   0  0  0  0  0  0  0  0  0  0  0  0
   -7.0360   21.1990  -32.2070 C   0  0  0  0  0  0  0  0  0  0  0  0
   -7.0620   22.5840  -32.0260 C   0  0  0  0  0  0  0  0  0  0  0  0
   -8.1420   20.3170  -32.2170 N   0  0  0  0  0  0  0  0  0  0  0  0
   -9.5380   20.6930  -32.0310 C   0  0  0  0  0  0  0  0  0  0  0  0
   -7.6610   18.9540  -32.4470 C   0  0  0  0  0  0  0  0  0  0  0  0
   -6.1220   19.0680  -32.5850 C   0  0  0  0  0  0  0  0  0  0  0  0
   -2.1060   24.5630  -28.9750 C   0  0  0  0  0  0  0  0  0  0  0  0
   -1.4230   25.7230  -29.3300 O   0  0  0  0  0  0  0  0  0  0  0  0
   -1.5370   23.6580  -28.0540 C   0  0  0  0  0  0  0  0  0  0  0  0
    0.0590   24.0610  -27.3700 S   0  0  0  0  0  0  0  0  0  0  0  0
    1.0280   24.5330  -28.4170 O   0  0  0  0  0  0  0  0  0  0  0  0
    0.6330   22.8200  -26.7440 O   0  0  0  0  0  0  0  0  0  0  0  0
   -0.1370   25.2870  -26.1420 N   0  0  0  0  0  0  0  0  0  0  0  0
   -0.4100   24.6620  -24.8410 C   0  0  0  0  0  0  0  0  0  0  0  0
   -0.5930   25.7480  -23.7600 C   0  0  0  0  0  0  0  0  0  0  0  0
   -0.6350   27.0540  -24.3100 O   0  0  0  0  0  0  0  0  0  0  0  0
   -1.6140   27.1100  -25.3280 C   0  0  0  0  0  0  0  0  0  0  0  0
   -1.2350   26.1970  -26.5110 C   0  0  0  0  0  0  0  0  0  0  0  0
   -1.8527   21.7363  -25.7642 H   0  0  0  0  0  0  0  0  0  0  0  0
   -2.1943   20.4603  -26.9814 H   0  0  0  0  0  0  0  0  0  0  0  0
   -0.6060   21.2994  -26.9814 H   0  0  0  0  0  0  0  0  0  0  0  0
   -4.0612   21.3284  -28.0407 H   0  0  0  0  0  0  0  0  0  0  0  0
   -5.0609   22.9695  -29.6147 H   0  0  0  0  0  0  0  0  0  0  0  0
   -3.6854   23.1415  -32.3291 H   0  0  0  0  0  0  0  0  0  0  0  0
   -3.7071   20.6473  -32.6335 H   0  0  0  0  0  0  0  0  0  0  0  0
   -8.0149   23.1121  -31.8740 H   0  0  0  0  0  0  0  0  0  0  0  0
   -9.7614   20.7532  -30.9556 H   0  0  0  0  0  0  0  0  0  0  0  0
   -9.7195   21.6720  -32.4985 H   0  0  0  0  0  0  0  0  0  0  0  0
  -10.1866   19.9376  -32.4985 H   0  0  0  0  0  0  0  0  0  0  0  0
   -7.9226   18.3068  -31.5969 H   0  0  0  0  0  0  0  0  0  0  0  0
   -8.1164   18.5096  -33.3443 H   0  0  0  0  0  0  0  0  0  0  0  0
   -5.6128   18.4835  -31.8046 H   0  0  0  0  0  0  0  0  0  0  0  0
   -5.7473   18.6772  -33.5425 H   0  0  0  0  0  0  0  0  0  0  0  0
   -1.3282   24.0604  -24.9117 H   0  0  0  0  0  0  0  0  0  0  0  0
    0.4383   24.0183  -24.5653 H   0  0  0  0  0  0  0  0  0  0  0  0
   -1.5354   25.5591  -23.2250 H   0  0  0  0  0  0  0  0  0  0  0  0
    0.2716   25.6964  -23.0819 H   0  0  0  0  0  0  0  0  0  0  0  0
   -2.5800   26.7826  -24.9162 H   0  0  0  0  0  0  0  0  0  0  0  0
   -1.6811   28.1457  -25.6926 H   0  0  0  0  0  0  0  0  0  0  0  0
   -2.1132   25.6022  -26.8026 H   0  0  0  0  0  0  0  0  0  0  0  0
   -0.9025   26.8273  -27.3489 H   0  0  0  0  0  0  0  0  0  0  0  0
  1  2  1  0
  2  3  2  0
  3  4  1  0
  4  5  2  0
  5  6  1  0
  6  7  1  0
  7  8  2  0
  7  9  1  0
  9 10  1  0
 10 11  2  0
 11 12  1  0
 12 13  2  0
 13 14  1  0
 14 15  2  0
 14 16  1  0
 16 17  1  0
 16 18  1  0
 18 19  1  0
  5 20  1  0
 20 21  1  0
 20 22  2  0
 22 23  1  0
 23 24  2  0
 23 25  2  0
 23 26  1  0
 26 27  1  0
 27 28  1  0
 28 29  1  0
 29 30  1  0
 30 31  1  0
 22  2  1  0
 31 26  1  0
 15 10  1  0
 19 13  1  0
  1 32  1  0
  1 33  1  0
  1 34  1  0
  3 35  1  0
  4 36  1  0
 11 37  1  0
 12 38  1  0
 15 39  1  0
 17 40  1  0
 17 41  1  0
 17 42  1  0
 18 43  1  0
 18 44  1  0
 19 45  1  0
 19 46  1  0
 27 47  1  0
 27 48  1  0
 28 49  1  0
 28 50  1  0
 30 51  1  0
 30 52  1  0
 31 53  1  0
 31 54  1  0
M  CHG  3   6  -1   9  -1  21  -1
M  END
>  <UniqueID>  (43) 
42

>  <SMILES>  (43) 
Cc1ccc([N-]C(=O)[N-]c2ccc3c(c2)N(C)CC3)c([O-])c1S(=O)(=O)N1CCOCC1

>  <Energy>  (43) 
86.76833717400481

>  <Genealogy>  (43) 
Cc1ccc([N-]C(=O)[N-]c2ccc3c(c2)N(C)CC3)c([O-])c1S(=O)(=O)N1CCOCC1 (protonated)
Cc1ccc([N-]C(=O)[N-]c2ccc3c(c2)N(C)CC3)c([O-])c1S(=O)(=O)N1CCOCC1 (3D coordinates assigned)
Cc1ccc([N-]C(=O)[N-]c2ccc3c(c2)N(C)CC3)c([O-])c1S(=O)(=O)N1CCOCC1 (nonaromatic ring conformer: 86.76833717400481 kcal/mol)

>  <smiles>  (43) 
Cc1ccc(NC(=O)Nc2ccc3c(c2)N(C)CC3)c(O)c1S(=O)(=O)N1CCOCC1

>  <score_type>  (43) 
oracle

>  <origin>  (43) 
adgpu

>  <m_score__min__energy>  (43) 
-16.23

>  <m_primary>  (43) 
energy

$$$$
43:0
     RDKit          3D

 70 73  0  0  0  0  0  0  0  0999 V2000
   -0.8680   16.8230  -32.2460 C   0  0  0  0  0  0  0  0  0  0  0  0
   -1.5750   16.9280  -33.8740 S   0  0  0  0  0  0  0  0  0  0  0  0
   -1.4100   15.6110  -34.5800 O   0  0  0  0  0  0  0  0  0  0  0  0
   -0.8650   17.9910  -34.6640 O   0  0  0  0  0  0  0  0  0  0  0  0
   -3.2860   17.3240  -33.7450 C   0  0  0  0  0  0  0  0  0  0  0  0
   -3.8590   18.2690  -34.6050 C   0  0  0  0  0  0  0  0  0  0  0  0
   -5.2170   18.5810  -34.5040 C   0  0  0  0  0  0  0  0  0  0  0  0
   -6.0160   17.9610  -33.5360 C   0  0  0  0  0  0  0  0  0  0  0  0
   -7.4060   18.3060  -33.4570 N   0  0  0  0  0  0  0  0  0  0  0  0
   -8.0880   18.8270  -32.3070 C   0  0  0  0  0  0  0  0  0  0  0  0
   -8.9540   18.1060  -31.7440 O   0  0  0  0  0  0  0  0  0  0  0  0
   -7.8540   20.2030  -31.8060 C   0  0  0  0  0  0  0  0  0  0  0  0
   -8.5790   20.7070  -30.7140 C   0  0  0  0  0  0  0  0  0  0  0  0
   -8.3590   22.0080  -30.2590 C   0  0  0  0  0  0  0  0  0  0  0  0
   -7.3900   22.8160  -30.8640 C   0  0  0  0  0  0  0  0  0  0  0  0
   -7.2160   24.1680  -30.3950 C   0  0  0  0  0  0  0  0  0  0  0  0
   -7.0790   25.2530  -30.0160 N   0  0  0  0  0  0  0  0  0  0  0  0
   -6.6190   22.3040  -31.9270 C   0  0  0  0  0  0  0  0  0  0  0  0
   -5.3190   23.2810  -32.7050 S   0  0  0  0  0  0  0  0  0  0  0  0
   -3.9880   22.2830  -32.0090 C   0  0  0  0  0  0  0  0  0  0  0  0
   -3.7280   21.0450  -32.6120 C   0  0  0  0  0  0  0  0  0  0  0  0
   -2.6760   20.2430  -32.1720 C   0  0  0  0  0  0  0  0  0  0  0  0
   -1.8700   20.6590  -31.1080 C   0  0  0  0  0  0  0  0  0  0  0  0
   -0.7410   19.8140  -30.6680 C   0  0  0  0  0  0  0  0  0  0  0  0
    0.3270   19.8250  -31.3350 O   0  0  0  0  0  0  0  0  0  0  0  0
   -0.8330   18.9440  -29.5310 N   0  0  0  0  0  0  0  0  0  0  0  0
    0.0020   19.0380  -28.3370 C   0  0  0  0  0  0  0  0  0  0  0  0
    0.0510   20.4900  -27.8600 C   0  0  0  0  0  0  0  0  0  0  0  0
   -0.8720   20.6930  -26.7210 N   0  0  0  0  0  0  0  0  0  0  0  0
   -1.7080   19.5060  -26.4900 C   0  0  0  0  0  0  0  0  0  0  0  0
   -2.9780   19.6730  -27.3060 C   0  0  0  0  0  0  0  0  0  0  0  0
   -3.1220   21.1670  -27.5110 C   0  0  0  0  0  0  0  0  0  0  0  0
   -1.8290   21.7810  -26.9840 C   0  0  0  0  0  0  0  0  0  0  0  0
   -2.1230   21.8950  -30.4990 C   0  0  0  0  0  0  0  0  0  0  0  0
   -3.1990   22.7000  -30.9080 C   0  0  0  0  0  0  0  0  0  0  0  0
   -3.4940   24.1880  -29.9870 S   0  0  0  0  0  0  0  0  0  0  0  0
   -4.5850   23.8410  -28.6230 C   0  0  0  0  0  0  0  0  0  0  0  0
   -2.1900   24.7150  -29.4580 O   0  0  0  0  0  0  0  0  0  0  0  0
   -4.1510   25.2490  -30.8230 O   0  0  0  0  0  0  0  0  0  0  0  0
   -6.8720   21.0100  -32.4030 C   0  0  0  0  0  0  0  0  0  0  0  0
   -5.4490   16.9830  -32.6980 C   0  0  0  0  0  0  0  0  0  0  0  0
   -4.0900   16.6720  -32.7990 C   0  0  0  0  0  0  0  0  0  0  0  0
   -1.6615   16.9408  -31.4934 H   0  0  0  0  0  0  0  0  0  0  0  0
   -0.3845   15.8432  -32.1187 H   0  0  0  0  0  0  0  0  0  0  0  0
   -0.1206   17.6200  -32.1187 H   0  0  0  0  0  0  0  0  0  0  0  0
   -3.2373   18.7677  -35.3632 H   0  0  0  0  0  0  0  0  0  0  0  0
   -5.6611   19.3182  -35.1891 H   0  0  0  0  0  0  0  0  0  0  0  0
   -9.3253   20.0722  -30.2139 H   0  0  0  0  0  0  0  0  0  0  0  0
   -8.9512   22.4007  -29.4193 H   0  0  0  0  0  0  0  0  0  0  0  0
   -4.3619   20.7018  -33.4429 H   0  0  0  0  0  0  0  0  0  0  0  0
   -2.4793   19.2790  -32.6639 H   0  0  0  0  0  0  0  0  0  0  0  0
   -0.4218   18.4056  -27.5429 H   0  0  0  0  0  0  0  0  0  0  0  0
    1.0202   18.6964  -28.5748 H   0  0  0  0  0  0  0  0  0  0  0  0
    1.0760   20.7324  -27.5429 H   0  0  0  0  0  0  0  0  0  0  0  0
   -0.2554   21.1468  -28.6875 H   0  0  0  0  0  0  0  0  0  0  0  0
   -1.1717   18.6011  -26.8117 H   0  0  0  0  0  0  0  0  0  0  0  0
   -1.9463   19.4034  -25.4210 H   0  0  0  0  0  0  0  0  0  0  0  0
   -2.8860   19.1576  -28.2734 H   0  0  0  0  0  0  0  0  0  0  0  0
   -3.8532   19.2403  -26.7993 H   0  0  0  0  0  0  0  0  0  0  0  0
   -3.2488   21.3974  -28.5791 H   0  0  0  0  0  0  0  0  0  0  0  0
   -4.0040   21.5659  -26.9885 H   0  0  0  0  0  0  0  0  0  0  0  0
   -1.4120   22.4696  -27.7337 H   0  0  0  0  0  0  0  0  0  0  0  0
   -2.0265   22.3428  -26.0591 H   0  0  0  0  0  0  0  0  0  0  0  0
   -1.4675   22.2412  -29.6863 H   0  0  0  0  0  0  0  0  0  0  0  0
   -4.0526   24.0103  -27.6754 H   0  0  0  0  0  0  0  0  0  0  0  0
   -5.4604   24.5051  -28.6755 H   0  0  0  0  0  0  0  0  0  0  0  0
   -4.9159   22.7933  -28.6755 H   0  0  0  0  0  0  0  0  0  0  0  0
   -6.2941   20.6219  -33.2547 H   0  0  0  0  0  0  0  0  0  0  0  0
   -6.0774   16.4615  -31.9610 H   0  0  0  0  0  0  0  0  0  0  0  0
   -3.6500   15.9137  -32.1346 H   0  0  0  0  0  0  0  0  0  0  0  0
  1  2  1  0
  2  3  2  0
  2  4  2  0
  2  5  1  0
  5  6  2  0
  6  7  1  0
  7  8  2  0
  8  9  1  0
  9 10  1  0
 10 11  2  0
 10 12  1  0
 12 13  2  0
 13 14  1  0
 14 15  2  0
 15 16  1  0
 16 17  3  0
 15 18  1  0
 18 19  1  0
 19 20  1  0
 20 21  2  0
 21 22  1  0
 22 23  2  0
 23 24  1  0
 24 25  2  0
 24 26  1  0
 26 27  1  0
 27 28  1  0
 28 29  1  0
 29 30  1  0
 30 31  1  0
 31 32  1  0
 32 33  1  0
 23 34  1  0
 34 35  2  0
 35 36  1  0
 36 37  1  0
 36 38  2  0
 36 39  2  0
 18 40  2  0
  8 41  1  0
 41 42  2  0
 42  5  1  0
 40 12  1  0
 35 20  1  0
 33 29  1  0
  1 43  1  0
  1 44  1  0
  1 45  1  0
  6 46  1  0
  7 47  1  0
 13 48  1  0
 14 49  1  0
 21 50  1  0
 22 51  1  0
 27 52  1  0
 27 53  1  0
 28 54  1  0
 28 55  1  0
 30 56  1  0
 30 57  1  0
 31 58  1  0
 31 59  1  0
 32 60  1  0
 32 61  1  0
 33 62  1  0
 33 63  1  0
 34 64  1  0
 37 65  1  0
 37 66  1  0
 37 67  1  0
 40 68  1  0
 41 69  1  0
 42 70  1  0
M  CHG  2   9  -1  26  -1
M  END
>  <UniqueID>  (44) 
43

>  <SMILES>  (44) 
CS(=O)(=O)c1ccc([N-]C(=O)c2ccc(C#N)c(Sc3ccc(C(=O)[N-]CCN4CCCC4)cc3S(C)(=O)=O)c2)cc1

>  <Energy>  (44) 
78.53138643081445

>  <Genealogy>  (44) 
CS(=O)(=O)c1ccc([N-]C(=O)c2ccc(C#N)c(Sc3ccc(C(=O)[N-]CCN4CCCC4)cc3S(C)(=O)=O)c2)cc1 (protonated)
CS(=O)(=O)c1ccc([N-]C(=O)c2ccc(C#N)c(Sc3ccc(C(=O)[N-]CCN4CCCC4)cc3S(C)(=O)=O)c2)cc1 (3D coordinates assigned)
CS(=O)(=O)c1ccc([N-]C(=O)c2ccc(C#N)c(Sc3ccc(C(=O)[N-]CCN4CCCC4)cc3S(C)(=O)=O)c2)cc1 (nonaromatic ring conformer: 78.53138643081445 kcal/mol)

>  <smiles>  (44) 
CS(=O)(=O)c1ccc(NC(=O)c2ccc(C#N)c(Sc3ccc(C(=O)NCCN4CCCC4)cc3S(C)(=O)=O)c2)cc1

>  <score_type>  (44) 
oracle

>  <origin>  (44) 
adgpu

>  <m_score__min__energy>  (44) 
-13.35

>  <m_primary>  (44) 
energy

$$$$
44:0
     RDKit          3D

 43 44  0  0  0  0  0  0  0  0999 V2000
   -8.8040   20.0360  -32.0230 C   0  0  0  0  0  0  0  0  0  0  0  0
   -8.0960   21.1690  -31.9880 C   0  0  0  0  0  0  0  0  0  0  0  0
   -8.2320   22.1520  -30.8590 C   0  0  0  0  0  0  0  0  0  0  0  0
   -6.9810   22.9780  -30.7180 C   0  0  0  0  0  0  0  0  0  0  0  0
   -7.0330   24.3730  -30.8530 C   0  0  0  0  0  0  0  0  0  0  0  0
   -5.8670   25.1340  -30.7510 C   0  0  0  0  0  0  0  0  0  0  0  0
   -4.6360   24.5130  -30.5210 C   0  0  0  0  0  0  0  0  0  0  0  0
   -3.4870   25.2930  -30.4550 O   0  0  0  0  0  0  0  0  0  0  0  0
   -4.5660   23.1120  -30.3820 C   0  0  0  0  0  0  0  0  0  0  0  0
   -3.2740   22.4270  -30.1330 C   0  0  0  0  0  0  0  0  0  0  0  0
   -2.9260   22.0120  -28.8390 C   0  0  0  0  0  0  0  0  0  0  0  0
   -1.7150   21.3450  -28.6010 C   0  0  0  0  0  0  0  0  0  0  0  0
   -1.3810   20.8740  -27.2070 C   0  0  0  0  0  0  0  0  0  0  0  0
   -1.6720   19.4070  -27.0550 C   0  0  0  0  0  0  0  0  0  0  0  0
   -2.7620   18.9690  -26.4180 C   0  0  0  0  0  0  0  0  0  0  0  0
   -0.8500   21.0730  -29.6790 C   0  0  0  0  0  0  0  0  0  0  0  0
    0.3380   20.3820  -29.4570 O   0  0  0  0  0  0  0  0  0  0  0  0
   -1.1870   21.4920  -30.9800 C   0  0  0  0  0  0  0  0  0  0  0  0
   -0.2850   21.1800  -32.1480 C   0  0  0  0  0  0  0  0  0  0  0  0
   -1.0580   21.1950  -33.4370 C   0  0  0  0  0  0  0  0  0  0  0  0
   -1.8170   20.1610  -33.8120 C   0  0  0  0  0  0  0  0  0  0  0  0
   -2.4020   22.1570  -31.1980 C   0  0  0  0  0  0  0  0  0  0  0  0
   -5.7450   22.3530  -30.4930 C   0  0  0  0  0  0  0  0  0  0  0  0
   -8.6818   19.3368  -32.8634 H   0  0  0  0  0  0  0  0  0  0  0  0
   -9.5089   19.8027  -31.2114 H   0  0  0  0  0  0  0  0  0  0  0  0
   -7.3952   21.3880  -32.8071 H   0  0  0  0  0  0  0  0  0  0  0  0
   -9.0836   22.8183  -31.0611 H   0  0  0  0  0  0  0  0  0  0  0  0
   -8.3955   21.5959  -29.9241 H   0  0  0  0  0  0  0  0  0  0  0  0
   -7.9965   24.8696  -31.0400 H   0  0  0  0  0  0  0  0  0  0  0  0
   -5.9173   26.2282  -30.8522 H   0  0  0  0  0  0  0  0  0  0  0  0
   -3.6104   22.2118  -28.0014 H   0  0  0  0  0  0  0  0  0  0  0  0
   -0.3130   21.0518  -27.0125 H   0  0  0  0  0  0  0  0  0  0  0  0
   -1.9993   21.4323  -26.4887 H   0  0  0  0  0  0  0  0  0  0  0  0
   -0.9692   18.6748  -27.4793 H   0  0  0  0  0  0  0  0  0  0  0  0
   -2.9469   17.8888  -26.3234 H   0  0  0  0  0  0  0  0  0  0  0  0
   -3.4743   19.6887  -25.9883 H   0  0  0  0  0  0  0  0  0  0  0  0
    0.5145   21.9339  -32.1979 H   0  0  0  0  0  0  0  0  0  0  0  0
    0.1435   20.1770  -32.0050 H   0  0  0  0  0  0  0  0  0  0  0  0
   -0.9974   22.0795  -34.0881 H   0  0  0  0  0  0  0  0  0  0  0  0
   -2.3712   20.2013  -34.7613 H   0  0  0  0  0  0  0  0  0  0  0  0
   -1.8875   19.2696  -33.1714 H   0  0  0  0  0  0  0  0  0  0  0  0
   -2.6746   22.4707  -32.2164 H   0  0  0  0  0  0  0  0  0  0  0  0
   -5.6976   21.2578  -30.4025 H   0  0  0  0  0  0  0  0  0  0  0  0
  1  2  2  0
  2  3  1  0
  3  4  1  0
  4  5  2  0
  5  6  1  0
  6  7  2  0
  7  8  1  0
  7  9  1  0
  9 10  1  0
 10 11  2  0
 11 12  1  0
 12 13  1  0
 13 14  1  0
 14 15  2  0
 12 16  2  0
 16 17  1  0
 16 18  1  0
 18 19  1  0
 19 20  1  0
 20 21  2  0
 18 22  2  0
  9 23  2  0
 23  4  1  0
 22 10  1  0
  1 24  1  0
  1 25  1  0
  2 26  1  0
  3 27  1  0
  3 28  1  0
  5 29  1  0
  6 30  1  0
 11 31  1  0
 13 32  1  0
 13 33  1  0
 14 34  1  0
 15 35  1  0
 15 36  1  0
 19 37  1  0
 19 38  1  0
 20 39  1  0
 21 40  1  0
 21 41  1  0
 22 42  1  0
 23 43  1  0
M  CHG  2   8  -1  17  -1
M  END
>  <UniqueID>  (45) 
44

>  <SMILES>  (45) 
C=CCc1ccc([O-])c(-c2cc(CC=C)c([O-])c(CC=C)c2)c1

>  <Energy>  (45) 
40.14412265550802

>  <Genealogy>  (45) 
C=CCc1ccc([O-])c(-c2cc(CC=C)c([O-])c(CC=C)c2)c1 (protonated)
C=CCc1ccc([O-])c(-c2cc(CC=C)c([O-])c(CC=C)c2)c1 (3D coordinates assigned)
C=CCc1ccc([O-])c(-c2cc(CC=C)c([O-])c(CC=C)c2)c1 (optimized conformer: 40.14412265550802 kcal/mol)

>  <smiles>  (45) 
C=CCc1ccc(O)c(-c2cc(CC=C)c(O)c(CC=C)c2)c1

>  <score_type>  (45) 
oracle

>  <origin>  (45) 
adgpu

>  <m_score__min__energy>  (45) 
-10.859999999999999

>  <m_primary>  (45) 
energy

$$$$
45:0
     RDKit          3D

 66 69  0  0  0  0  0  0  0  0999 V2000
    1.7520   23.6610  -35.7580 C   0  0  0  0  0  0  0  0  0  0  0  0
    0.6390   22.7740  -35.7220 O   0  0  0  0  0  0  0  0  0  0  0  0
    0.5770   21.6100  -34.9410 C   0  0  0  0  0  0  0  0  0  0  0  0
    1.6290   21.2120  -34.0940 C   0  0  0  0  0  0  0  0  0  0  0  0
    1.5180   20.0440  -33.3310 C   0  0  0  0  0  0  0  0  0  0  0  0
    0.3580   19.2560  -33.4090 C   0  0  0  0  0  0  0  0  0  0  0  0
    0.2080   18.0320  -32.5430 C   0  0  0  0  0  0  0  0  0  0  0  0
   -0.5980   18.3510  -31.2800 C   0  0  0  0  0  0  0  0  0  0  0  0
   -0.3320   19.6770  -30.8160 O   0  0  0  0  0  0  0  0  0  0  0  0
   -1.2220   20.7630  -30.8810 C   0  0  0  0  0  0  0  0  0  0  0  0
   -2.1840   20.8790  -31.8970 C   0  0  0  0  0  0  0  0  0  0  0  0
   -3.1080   21.9370  -31.9170 C   0  0  0  0  0  0  0  0  0  0  0  0
   -4.0870   21.9940  -33.0760 C   0  0  0  0  0  0  0  0  0  0  0  0
   -5.2740   21.0840  -32.8430 C   0  0  0  0  0  0  0  0  0  0  0  0
   -6.4270   21.5950  -32.2290 C   0  0  0  0  0  0  0  0  0  0  0  0
   -7.5490   20.7920  -32.0080 C   0  0  0  0  0  0  0  0  0  0  0  0
   -8.6470   21.3820  -31.3650 O   0  0  0  0  0  0  0  0  0  0  0  0
   -9.4290   22.4330  -31.9260 C   0  0  0  0  0  0  0  0  0  0  0  0
   -7.5420   19.4500  -32.4550 C   0  0  0  0  0  0  0  0  0  0  0  0
   -8.7510   18.5640  -32.3340 C   0  0  0  0  0  0  0  0  0  0  0  0
   -6.3810   18.9310  -33.0530 C   0  0  0  0  0  0  0  0  0  0  0  0
   -5.2460   19.7380  -33.2540 C   0  0  0  0  0  0  0  0  0  0  0  0
   -4.0860   19.2400  -33.8680 O   0  0  0  0  0  0  0  0  0  0  0  0
   -3.8490   17.8690  -34.1670 C   0  0  0  0  0  0  0  0  0  0  0  0
   -3.0420   22.9280  -30.9000 C   0  0  0  0  0  0  0  0  0  0  0  0
   -3.9520   24.0920  -30.8320 C   0  0  0  0  0  0  0  0  0  0  0  0
   -5.1590   23.9920  -31.1690 O   0  0  0  0  0  0  0  0  0  0  0  0
   -3.4910   25.2950  -30.3160 O   0  0  0  0  0  0  0  0  0  0  0  0
   -2.0560   22.8240  -29.9080 C   0  0  0  0  0  0  0  0  0  0  0  0
   -1.1410   21.7630  -29.8980 C   0  0  0  0  0  0  0  0  0  0  0  0
   -0.1460   21.6510  -28.7690 C   0  0  0  0  0  0  0  0  0  0  0  0
   -0.4030   20.5110  -27.7910 C   0  0  0  0  0  0  0  0  0  0  0  0
   -0.7060   21.9400  -27.3820 C   0  0  0  0  0  0  0  0  0  0  0  0
   -0.6930   19.6590  -34.2460 C   0  0  0  0  0  0  0  0  0  0  0  0
   -0.5800   20.8250  -35.0080 C   0  0  0  0  0  0  0  0  0  0  0  0
    2.0592   23.9058  -34.7305 H   0  0  0  0  0  0  0  0  0  0  0  0
    2.5882   23.1789  -36.2857 H   0  0  0  0  0  0  0  0  0  0  0  0
    1.4686   24.5837  -36.2857 H   0  0  0  0  0  0  0  0  0  0  0  0
    2.5423   21.8219  -34.0317 H   0  0  0  0  0  0  0  0  0  0  0  0
    2.3421   19.7421  -32.6679 H   0  0  0  0  0  0  0  0  0  0  0  0
   -0.3121   17.2486  -33.1138 H   0  0  0  0  0  0  0  0  0  0  0  0
    1.2092   17.6888  -32.2434 H   0  0  0  0  0  0  0  0  0  0  0  0
   -1.6705   18.2588  -31.5064 H   0  0  0  0  0  0  0  0  0  0  0  0
   -0.3046   17.6417  -30.4921 H   0  0  0  0  0  0  0  0  0  0  0  0
   -2.2149   20.1237  -32.6961 H   0  0  0  0  0  0  0  0  0  0  0  0
   -4.4457   23.0275  -33.1907 H   0  0  0  0  0  0  0  0  0  0  0  0
   -3.5667   21.6577  -33.9849 H   0  0  0  0  0  0  0  0  0  0  0  0
   -6.4484   22.6491  -31.9152 H   0  0  0  0  0  0  0  0  0  0  0  0
   -9.8739   23.0310  -31.1170 H   0  0  0  0  0  0  0  0  0  0  0  0
   -8.7878   23.0758  -32.5470 H   0  0  0  0  0  0  0  0  0  0  0  0
  -10.2289   22.0035  -32.5470 H   0  0  0  0  0  0  0  0  0  0  0  0
   -8.9785   18.3973  -31.2708 H   0  0  0  0  0  0  0  0  0  0  0  0
   -9.6103   19.0477  -32.8214 H   0  0  0  0  0  0  0  0  0  0  0  0
   -8.5486   17.5989  -32.8214 H   0  0  0  0  0  0  0  0  0  0  0  0
   -6.3592   17.8775  -33.3688 H   0  0  0  0  0  0  0  0  0  0  0  0
   -3.7508   17.3010  -33.2301 H   0  0  0  0  0  0  0  0  0  0  0  0
   -4.6915   17.4701  -34.7510 H   0  0  0  0  0  0  0  0  0  0  0  0
   -2.9215   17.7761  -34.7510 H   0  0  0  0  0  0  0  0  0  0  0  0
   -1.9999   23.5912  -29.1217 H   0  0  0  0  0  0  0  0  0  0  0  0
    0.7192   22.0014  -29.3509 H   0  0  0  0  0  0  0  0  0  0  0  0
   -1.2267   19.8052  -27.9738 H   0  0  0  0  0  0  0  0  0  0  0  0
    0.2040   19.6949  -27.3720 H   0  0  0  0  0  0  0  0  0  0  0  0
   -1.7493   22.2696  -27.2683 H   0  0  0  0  0  0  0  0  0  0  0  0
   -0.4093   22.5877  -26.5439 H   0  0  0  0  0  0  0  0  0  0  0  0
   -1.6103   19.0545  -34.3028 H   0  0  0  0  0  0  0  0  0  0  0  0
   -1.4075   21.1285  -35.6662 H   0  0  0  0  0  0  0  0  0  0  0  0
  1  2  1  0
  2  3  1  0
  3  4  2  0
  4  5  1  0
  5  6  2  0
  6  7  1  0
  7  8  1  0
  8  9  1  0
  9 10  1  0
 10 11  2  0
 11 12  1  0
 12 13  1  0
 13 14  1  0
 14 15  2  0
 15 16  1  0
 16 17  1  0
 17 18  1  0
 16 19  2  0
 19 20  1  0
 19 21  1  0
 21 22  2  0
 22 23  1  0
 23 24  1  0
 12 25  2  0
 25 26  1  0
 26 27  2  0
 26 28  1  0
 25 29  1  0
 29 30  2  0
 30 31  1  0
 31 32  1  0
 32 33  1  0
  6 34  1  0
 34 35  2  0
 35  3  1  0
 30 10  1  0
 33 31  1  0
 22 14  1  0
  1 36  1  0
  1 37  1  0
  1 38  1  0
  4 39  1  0
  5 40  1  0
  7 41  1  0
  7 42  1  0
  8 43  1  0
  8 44  1  0
 11 45  1  0
 13 46  1  0
 13 47  1  0
 15 48  1  0
 18 49  1  0
 18 50  1  0
 18 51  1  0
 20 52  1  0
 20 53  1  0
 20 54  1  0
 21 55  1  0
 24 56  1  0
 24 57  1  0
 24 58  1  0
 29 59  1  0
 31 60  1  0
 32 61  1  0
 32 62  1  0
 33 63  1  0
 33 64  1  0
 34 65  1  0
 35 66  1  0
M  CHG  1  28  -1
M  END
>  <UniqueID>  (46) 
45

>  <SMILES>  (46) 
COc1ccc(CCOc2cc(Cc3cc(OC)c(C)cc3OC)c(C(=O)[O-])cc2C2CC2)cc1

>  <Energy>  (46) 
341.1007711957142

>  <Genealogy>  (46) 
COc1ccc(CCOc2cc(Cc3cc(OC)c(C)cc3OC)c(C(=O)[O-])cc2C2CC2)cc1 (protonated)
COc1ccc(CCOc2cc(Cc3cc(OC)c(C)cc3OC)c(C(=O)[O-])cc2C2CC2)cc1 (3D coordinates assigned)
COc1ccc(CCOc2cc(Cc3cc(OC)c(C)cc3OC)c(C(=O)[O-])cc2C2CC2)cc1 (nonaromatic ring conformer: 341.1007711957142 kcal/mol)

>  <smiles>  (46) 
COc1ccc(CCOc2cc(Cc3cc(OC)c(C)cc3OC)c(C(=O)O)cc2C2CC2)cc1

>  <score_type>  (46) 
oracle

>  <origin>  (46) 
adgpu

>  <m_score__min__energy>  (46) 
-10.470000000000001

>  <m_primary>  (46) 
energy

$$$$
46:0
     RDKit          3D

 49 51  0  0  0  0  0  0  0  0999 V2000
   -4.6560   25.2860  -31.0150 O   0  0  0  0  0  0  0  0  0  0  0  0
   -4.8510   23.8030  -31.1610 S   0  0  0  0  0  0  0  0  0  0  0  0
   -5.8790   23.5100  -32.2190 O   0  0  0  0  0  0  0  0  0  0  0  0
   -5.3850   23.0690  -29.6470 C   0  0  0  0  0  0  0  0  0  0  0  0
   -4.6510   22.9380  -28.5330 C   0  0  0  0  0  0  0  0  0  0  0  0
   -3.2600   23.4020  -28.3390 C   0  0  0  0  0  0  0  0  0  0  0  0
   -2.2630   22.5740  -27.7910 C   0  0  0  0  0  0  0  0  0  0  0  0
   -0.9460   23.0350  -27.6750 C   0  0  0  0  0  0  0  0  0  0  0  0
   -0.5990   24.3110  -28.1430 C   0  0  0  0  0  0  0  0  0  0  0  0
    0.7100   24.7820  -28.0220 O   0  0  0  0  0  0  0  0  0  0  0  0
   -1.5760   25.1190  -28.7400 C   0  0  0  0  0  0  0  0  0  0  0  0
   -1.2350   26.3700  -29.2480 O   0  0  0  0  0  0  0  0  0  0  0  0
   -2.8970   24.6650  -28.8400 C   0  0  0  0  0  0  0  0  0  0  0  0
   -3.3280   23.0800  -31.5800 N   0  0  0  0  0  0  0  0  0  0  0  0
   -3.1280   21.7340  -32.0410 C   0  0  0  0  0  0  0  0  0  0  0  0
   -4.1990   20.9140  -32.4430 C   0  0  0  0  0  0  0  0  0  0  0  0
   -3.9650   19.5910  -32.8530 C   0  0  0  0  0  0  0  0  0  0  0  0
   -5.3110   18.5510  -33.3360 S   0  0  0  0  0  0  0  0  0  0  0  0
   -4.9710   17.1200  -33.0180 O   0  0  0  0  0  0  0  0  0  0  0  0
   -5.5050   18.6610  -34.8250 O   0  0  0  0  0  0  0  0  0  0  0  0
   -6.7970   18.9830  -32.5200 N   0  0  0  0  0  0  0  0  0  0  0  0
   -7.4180   20.1460  -33.1740 C   0  0  0  0  0  0  0  0  0  0  0  0
   -8.6080   20.6720  -32.3370 C   0  0  0  0  0  0  0  0  0  0  0  0
   -9.1140   19.6310  -31.3220 C   0  0  0  0  0  0  0  0  0  0  0  0
   -9.1140   18.2260  -31.9320 C   0  0  0  0  0  0  0  0  0  0  0  0
   -7.7280   17.8380  -32.4980 C   0  0  0  0  0  0  0  0  0  0  0  0
   -2.6540   19.0990  -32.8870 C   0  0  0  0  0  0  0  0  0  0  0  0
   -1.5840   19.9250  -32.5410 C   0  0  0  0  0  0  0  0  0  0  0  0
   -1.8180   21.2390  -32.1210 C   0  0  0  0  0  0  0  0  0  0  0  0
   -0.7410   22.0520  -31.7790 O   0  0  0  0  0  0  0  0  0  0  0  0
   -6.4148   22.6837  -29.6147 H   0  0  0  0  0  0  0  0  0  0  0  0
   -5.1301   22.4362  -27.6794 H   0  0  0  0  0  0  0  0  0  0  0  0
   -2.5195   21.5595  -27.4520 H   0  0  0  0  0  0  0  0  0  0  0  0
   -0.1800   22.3936  -27.2148 H   0  0  0  0  0  0  0  0  0  0  0  0
    0.9430   25.7470  -28.2140 H   0  0  0  0  0  0  0  0  0  0  0  0
   -3.6577   25.3021  -29.3148 H   0  0  0  0  0  0  0  0  0  0  0  0
   -5.2247   21.3113  -32.4361 H   0  0  0  0  0  0  0  0  0  0  0  0
   -6.6687   20.9446  -33.2783 H   0  0  0  0  0  0  0  0  0  0  0  0
   -7.7889   19.8397  -34.1633 H   0  0  0  0  0  0  0  0  0  0  0  0
   -8.2864   21.5711  -31.7910 H   0  0  0  0  0  0  0  0  0  0  0  0
   -9.4332   20.8959  -33.0291 H   0  0  0  0  0  0  0  0  0  0  0  0
   -8.4575   19.6402  -30.4394 H   0  0  0  0  0  0  0  0  0  0  0  0
  -10.1446   19.8901  -31.0378 H   0  0  0  0  0  0  0  0  0  0  0  0
   -9.3949   17.5013  -31.1536 H   0  0  0  0  0  0  0  0  0  0  0  0
   -9.8341   18.2175  -32.7635 H   0  0  0  0  0  0  0  0  0  0  0  0
   -7.2983   17.0435  -31.8703 H   0  0  0  0  0  0  0  0  0  0  0  0
   -7.8688   17.4959  -33.5339 H   0  0  0  0  0  0  0  0  0  0  0  0
   -2.4673   18.0575  -33.1876 H   0  0  0  0  0  0  0  0  0  0  0  0
   -0.5543   19.5423  -32.5985 H   0  0  0  0  0  0  0  0  0  0  0  0
  1  2  2  0
  2  3  2  0
  2  4  1  0
  4  5  2  3
  5  6  1  0
  6  7  2  0
  7  8  1  0
  8  9  2  0
  9 10  1  0
  9 11  1  0
 11 12  1  0
 11 13  2  0
  2 14  1  0
 14 15  1  0
 15 16  2  0
 16 17  1  0
 17 18  1  0
 18 19  2  0
 18 20  2  0
 18 21  1  0
 21 22  1  0
 22 23  1  0
 23 24  1  0
 24 25  1  0
 25 26  1  0
 17 27  2  0
 27 28  1  0
 28 29  2  0
 29 30  1  0
 13  6  1  0
 29 15  1  0
 26 21  1  0
  4 31  1  0
  5 32  1  0
  7 33  1  0
  8 34  1  0
 10 35  1  0
 13 36  1  0
 16 37  1  0
 22 38  1  0
 22 39  1  0
 23 40  1  0
 23 41  1  0
 24 42  1  0
 24 43  1  0
 25 44  1  0
 25 45  1  0
 26 46  1  0
 26 47  1  0
 27 48  1  0
 28 49  1  0
M  CHG  3  12  -1  14  -1  30  -1
M  END
>  <UniqueID>  (47) 
46

>  <SMILES>  (47) 
O=S(=O)(C=Cc1ccc(O)c([O-])c1)[N-]c1cc(S(=O)(=O)N2CCCCC2)ccc1[O-]

>  <Energy>  (47) 
65.80186987185002

>  <Genealogy>  (47) 
O=S(=O)(C=Cc1ccc(O)c([O-])c1)[N-]c1cc(S(=O)(=O)N2CCCCC2)ccc1[O-] (protonated)
O=S(=O)(C=Cc1ccc(O)c([O-])c1)[N-]c1cc(S(=O)(=O)N2CCCCC2)ccc1[O-] (3D coordinates assigned)
O=S(=O)(C=Cc1ccc(O)c([O-])c1)[N-]c1cc(S(=O)(=O)N2CCCCC2)ccc1[O-] (nonaromatic ring conformer: 65.80186987185002 kcal/mol)

>  <smiles>  (47) 
O=S(=O)(C=Cc1ccc(O)c(O)c1)Nc1cc(S(=O)(=O)N2CCCCC2)ccc1O

>  <score_type>  (47) 
oracle

>  <origin>  (47) 
adgpu

>  <m_score__min__energy>  (47) 
-16.510000000000002

>  <m_primary>  (47) 
energy

$$$$
47:0
     RDKit          3D

 36 38  0  0  0  0  0  0  0  0999 V2000
   -6.0070   24.5020  -29.7500 C   0  0  0  0  0  0  0  0  0  0  0  0
   -5.2590   25.6060  -30.4800 C   0  0  0  0  0  0  0  0  0  0  0  0
   -3.8630   25.3300  -30.4610 O   0  0  0  0  0  0  0  0  0  0  0  0
   -3.3230   24.2040  -29.8290 C   0  0  0  0  0  0  0  0  0  0  0  0
   -3.0600   24.2380  -28.5950 O   0  0  0  0  0  0  0  0  0  0  0  0
   -3.0610   22.9750  -30.6110 C   0  0  0  0  0  0  0  0  0  0  0  0
   -1.9540   22.1640  -30.3050 C   0  0  0  0  0  0  0  0  0  0  0  0
   -1.7090   21.0000  -31.0370 C   0  0  0  0  0  0  0  0  0  0  0  0
   -2.5560   20.6350  -32.0830 C   0  0  0  0  0  0  0  0  0  0  0  0
   -3.6560   21.4440  -32.4200 C   0  0  0  0  0  0  0  0  0  0  0  0
   -4.5540   21.0800  -33.4810 N   0  0  0  0  0  0  0  0  0  0  0  0
   -5.4800   19.9880  -33.4110 C   0  0  0  0  0  0  0  0  0  0  0  0
   -6.6530   19.9390  -32.7920 C   0  0  0  0  0  0  0  0  0  0  0  0
   -7.3330   20.9310  -32.0780 C   0  0  0  0  0  0  0  0  0  0  0  0
   -8.5700   20.6040  -31.4970 C   0  0  0  0  0  0  0  0  0  0  0  0
   -9.2590   21.5450  -30.8070 F   0  0  0  0  0  0  0  0  0  0  0  0
   -9.0940   19.3020  -31.6230 C   0  0  0  0  0  0  0  0  0  0  0  0
   -8.3840   18.3090  -32.3180 C   0  0  0  0  0  0  0  0  0  0  0  0
   -7.1580   18.6480  -32.8900 C   0  0  0  0  0  0  0  0  0  0  0  0
   -6.3780   17.8220  -33.5170 N   0  0  0  0  0  0  0  0  0  0  0  0
   -5.2590   18.6300  -33.8680 C   0  0  0  0  0  0  0  0  0  0  0  0
   -4.2440   18.2070  -34.4820 O   0  0  0  0  0  0  0  0  0  0  0  0
   -3.9110   22.6020  -31.6680 C   0  0  0  0  0  0  0  0  0  0  0  0
   -5.9081   24.6480  -28.6642 H   0  0  0  0  0  0  0  0  0  0  0  0
   -7.0706   24.5334  -30.0288 H   0  0  0  0  0  0  0  0  0  0  0  0
   -5.5835   23.5258  -30.0288 H   0  0  0  0  0  0  0  0  0  0  0  0
   -5.6079   25.6575  -31.5219 H   0  0  0  0  0  0  0  0  0  0  0  0
   -5.4481   26.5676  -29.9804 H   0  0  0  0  0  0  0  0  0  0  0  0
   -1.2776   22.4476  -29.4852 H   0  0  0  0  0  0  0  0  0  0  0  0
   -0.8439   20.3682  -30.7873 H   0  0  0  0  0  0  0  0  0  0  0  0
   -2.3630   19.7105  -32.6469 H   0  0  0  0  0  0  0  0  0  0  0  0
   -4.5980   21.6960  -34.3250 H   0  0  0  0  0  0  0  0  0  0  0  0
   -6.9103   21.9412  -31.9739 H   0  0  0  0  0  0  0  0  0  0  0  0
  -10.0683   19.0609  -31.1728 H   0  0  0  0  0  0  0  0  0  0  0  0
   -8.7852   17.2888  -32.4089 H   0  0  0  0  0  0  0  0  0  0  0  0
   -4.7854   23.2246  -31.9081 H   0  0  0  0  0  0  0  0  0  0  0  0
  1  2  1  0
  2  3  1  0
  3  4  1  0
  4  5  2  0
  4  6  1  0
  6  7  2  0
  7  8  1  0
  8  9  2  0
  9 10  1  0
 10 11  1  0
 11 12  1  0
 12 13  2  0
 13 14  1  0
 14 15  2  0
 15 16  1  0
 15 17  1  0
 17 18  2  0
 18 19  1  0
 19 20  2  0
 20 21  1  0
 21 22  2  0
 10 23  2  0
 23  6  1  0
 21 12  1  0
 19 13  1  0
  1 24  1  0
  1 25  1  0
  1 26  1  0
  2 27  1  0
  2 28  1  0
  7 29  1  0
  8 30  1  0
  9 31  1  0
 11 32  1  0
 14 33  1  0
 17 34  1  0
 18 35  1  0
 23 36  1  0
M  END
>  <UniqueID>  (48) 
47

>  <SMILES>  (48) 
CCOC(=O)c1cccc(NC2=c3cc(F)ccc3=NC2=O)c1

>  <Energy>  (48) 
73.41424514158594

>  <Genealogy>  (48) 
CCOC(=O)c1cccc(NC2=c3cc(F)ccc3=NC2=O)c1 (3D coordinates assigned)
CCOC(=O)c1cccc(NC2=c3cc(F)ccc3=NC2=O)c1 (nonaromatic ring conformer: 73.41424514158594 kcal/mol)

>  <smiles>  (48) 
CCOC(=O)c1cccc(NC2=c3cc(F)ccc3=NC2=O)c1

>  <score_type>  (48) 
oracle

>  <origin>  (48) 
adgpu

>  <m_score__min__energy>  (48) 
-8.8499999999999996

>  <m_primary>  (48) 
energy

$$$$
48:0
     RDKit          3D

 51 54  0  0  0  0  0  0  0  0999 V2000
    0.0030   13.9120  -32.3880 C   0  0  0  0  0  0  0  0  0  0  0  0
   -1.4900   13.8560  -32.2430 C   0  0  0  0  0  0  0  0  0  0  0  0
   -2.0790   12.9170  -31.3910 C   0  0  0  0  0  0  0  0  0  0  0  0
   -3.4610   12.8920  -31.2270 C   0  0  0  0  0  0  0  0  0  0  0  0
   -4.2690   13.8100  -31.9000 C   0  0  0  0  0  0  0  0  0  0  0  0
   -3.7070   14.7850  -32.7610 C   0  0  0  0  0  0  0  0  0  0  0  0
   -4.5520   15.7550  -33.4610 N   0  0  0  0  0  0  0  0  0  0  0  0
   -4.0200   17.1140  -33.7100 C   0  0  0  0  0  0  0  0  0  0  0  0
   -4.9570   18.0570  -34.4810 C   0  0  0  0  0  0  0  0  0  0  0  0
   -6.3810   17.8130  -34.2210 N   0  0  0  0  0  0  0  0  0  0  0  0
   -6.8620   18.2560  -32.5950 S   0  0  0  0  0  0  0  0  0  0  0  0
   -8.3570   18.3710  -32.4750 O   0  0  0  0  0  0  0  0  0  0  0  0
   -6.3920   17.2040  -31.6300 O   0  0  0  0  0  0  0  0  0  0  0  0
   -6.1180   19.7930  -32.1560 C   0  0  0  0  0  0  0  0  0  0  0  0
   -4.7370   19.8590  -31.9410 C   0  0  0  0  0  0  0  0  0  0  0  0
   -4.1310   21.0740  -31.6180 C   0  0  0  0  0  0  0  0  0  0  0  0
   -4.8990   22.2380  -31.5140 C   0  0  0  0  0  0  0  0  0  0  0  0
   -4.2950   23.4150  -31.2030 N   0  0  0  0  0  0  0  0  0  0  0  0
   -4.9930   24.5740  -31.0950 C   0  0  0  0  0  0  0  0  0  0  0  0
   -4.3900   25.6400  -30.8040 O   0  0  0  0  0  0  0  0  0  0  0  0
   -6.3720   24.5830  -31.3060 C   0  0  0  0  0  0  0  0  0  0  0  0
   -7.0420   23.3920  -31.6300 C   0  0  0  0  0  0  0  0  0  0  0  0
   -8.5320   23.4290  -31.8580 C   0  0  0  0  0  0  0  0  0  0  0  0
   -6.2980   22.1920  -31.7360 C   0  0  0  0  0  0  0  0  0  0  0  0
   -6.8960   20.9560  -32.0560 C   0  0  0  0  0  0  0  0  0  0  0  0
   -6.7290   16.4330  -34.5760 C   0  0  0  0  0  0  0  0  0  0  0  0
   -5.9500   15.3880  -33.7700 C   0  0  0  0  0  0  0  0  0  0  0  0
   -2.2980   14.7930  -32.9070 C   0  0  0  0  0  0  0  0  0  0  0  0
    0.4678   13.9294  -31.3912 H   0  0  0  0  0  0  0  0  0  0  0  0
    0.3513   13.0263  -32.9395 H   0  0  0  0  0  0  0  0  0  0  0  0
    0.2840   14.8213  -32.9395 H   0  0  0  0  0  0  0  0  0  0  0  0
   -1.4489   12.1964  -30.8491 H   0  0  0  0  0  0  0  0  0  0  0  0
   -3.9192   12.1443  -30.5630 H   0  0  0  0  0  0  0  0  0  0  0  0
   -5.3595   13.7760  -31.7597 H   0  0  0  0  0  0  0  0  0  0  0  0
   -3.7995   17.5759  -32.7363 H   0  0  0  0  0  0  0  0  0  0  0  0
   -3.1329   16.9806  -34.3466 H   0  0  0  0  0  0  0  0  0  0  0  0
   -4.7232   19.0923  -34.1919 H   0  0  0  0  0  0  0  0  0  0  0  0
   -4.7888   17.8735  -35.5525 H   0  0  0  0  0  0  0  0  0  0  0  0
   -6.9230   18.4400  -34.8620 H   0  0  0  0  0  0  0  0  0  0  0  0
   -4.1258   18.9485  -32.0270 H   0  0  0  0  0  0  0  0  0  0  0  0
   -3.0456   21.1162  -31.4446 H   0  0  0  0  0  0  0  0  0  0  0  0
   -6.9351   25.5239  -31.2185 H   0  0  0  0  0  0  0  0  0  0  0  0
   -9.0511   23.4419  -30.8883 H   0  0  0  0  0  0  0  0  0  0  0  0
   -8.7937   24.3339  -32.4260 H   0  0  0  0  0  0  0  0  0  0  0  0
   -8.8382   22.5382  -32.4260 H   0  0  0  0  0  0  0  0  0  0  0  0
   -7.9811   20.9032  -32.2286 H   0  0  0  0  0  0  0  0  0  0  0  0
   -7.8037   16.2854  -34.3936 H   0  0  0  0  0  0  0  0  0  0  0  0
   -6.4666   16.2916  -35.6348 H   0  0  0  0  0  0  0  0  0  0  0  0
   -6.4788   15.2262  -32.8191 H   0  0  0  0  0  0  0  0  0  0  0  0
   -5.9003   14.4874  -34.3997 H   0  0  0  0  0  0  0  0  0  0  0  0
   -1.8274   15.5484  -33.5535 H   0  0  0  0  0  0  0  0  0  0  0  0
  1  2  1  0
  2  3  2  0
  3  4  1  0
  4  5  2  0
  5  6  1  0
  6  7  1  0
  7  8  1  0
  8  9  1  0
  9 10  1  0
 10 11  1  0
 11 12  2  0
 11 13  2  0
 11 14  1  0
 14 15  2  0
 15 16  1  0
 16 17  2  0
 17 18  1  0
 18 19  1  0
 19 20  2  0
 19 21  1  0
 21 22  2  0
 22 23  1  0
 22 24  1  0
 24 25  2  0
 10 26  1  0
 26 27  1  0
  6 28  2  0
 28  2  1  0
 27  7  1  0
 25 14  1  0
 24 17  1  0
  1 29  1  0
  1 30  1  0
  1 31  1  0
  3 32  1  0
  4 33  1  0
  5 34  1  0
  8 35  1  0
  8 36  1  0
  9 37  1  0
  9 38  1  0
 10 39  1  0
 15 40  1  0
 16 41  1  0
 21 42  1  0
 23 43  1  0
 23 44  1  0
 23 45  1  0
 25 46  1  0
 26 47  1  0
 26 48  1  0
 27 49  1  0
 27 50  1  0
 28 51  1  0
M  CHG  2  10   1  18  -1
M  END
>  <UniqueID>  (49) 
48

>  <SMILES>  (49) 
Cc1cccc(N2CC[NH+](S(=O)(=O)c3ccc4[n-]c(=O)cc(C)c4c3)CC2)c1

>  <Energy>  (49) 
68.05362278549805

>  <Genealogy>  (49) 
Cc1cccc(N2CC[NH+](S(=O)(=O)c3ccc4[n-]c(=O)cc(C)c4c3)CC2)c1 (protonated)
Cc1cccc(N2CC[NH+](S(=O)(=O)c3ccc4[n-]c(=O)cc(C)c4c3)CC2)c1 (3D coordinates assigned)
Cc1cccc(N2CC[NH+](S(=O)(=O)c3ccc4[n-]c(=O)cc(C)c4c3)CC2)c1 (nonaromatic ring conformer: 68.05362278549805 kcal/mol)

>  <smiles>  (49) 
Cc1cccc(N2CCN(S(=O)(=O)c3ccc4[nH]c(=O)cc(C)c4c3)CC2)c1

>  <score_type>  (49) 
oracle

>  <origin>  (49) 
adgpu

>  <m_score__min__energy>  (49) 
-9.6799999999999997

>  <m_primary>  (49) 
energy

$$$$
49:0
     RDKit          3D

 56 59  0  0  0  0  0  0  0  0999 V2000
   -5.0670   14.8640  -33.3180 C   0  0  0  0  0  0  0  0  0  0  0  0
   -5.3490   16.3650  -33.4600 C   0  0  1  0  0  0  0  0  0  0  0  0
   -6.8290   16.6140  -33.8390 C   0  0  0  0  0  0  0  0  0  0  0  0
   -7.3290   18.0190  -33.4360 C   0  0  0  0  0  0  0  0  0  0  0  0
   -6.1820   19.0500  -33.4160 C   0  0  1  0  0  0  0  0  0  0  0  0
   -6.7510   20.5040  -33.3350 C   0  0  0  0  0  0  0  0  0  0  0  0
   -5.9200   21.5730  -32.6220 C   0  0  0  0  0  0  0  0  0  0  0  0
   -6.6240   22.5370  -31.8770 C   0  0  0  0  0  0  0  0  0  0  0  0
   -5.9560   23.5410  -31.1800 C   0  0  0  0  0  0  0  0  0  0  0  0
   -6.6860   24.4660  -30.4410 O   0  0  0  0  0  0  0  0  0  0  0  0
   -4.5630   23.6200  -31.2230 C   0  0  0  0  0  0  0  0  0  0  0  0
   -3.9040   24.6270  -30.4480 N   0  0  0  0  0  0  0  0  0  0  0  0
   -2.7890   24.3430  -29.1420 S   0  0  0  0  0  0  0  0  0  0  0  0
   -1.6470   25.3170  -29.2630 O   0  0  0  0  0  0  0  0  0  0  0  0
   -3.4960   24.5980  -27.8350 O   0  0  0  0  0  0  0  0  0  0  0  0
   -2.1270   22.7090  -29.1340 C   0  0  0  0  0  0  0  0  0  0  0  0
   -2.5890   21.7560  -28.2140 C   0  0  0  0  0  0  0  0  0  0  0  0
   -2.0370   20.4720  -28.1910 C   0  0  0  0  0  0  0  0  0  0  0  0
   -1.0150   20.1310  -29.0870 C   0  0  0  0  0  0  0  0  0  0  0  0
   -0.4550   18.8040  -29.0730 C   0  0  0  0  0  0  0  0  0  0  0  0
   -0.0060   17.7380  -29.0630 N   0  0  0  0  0  0  0  0  0  0  0  0
   -0.5540   21.0780  -30.0120 C   0  0  0  0  0  0  0  0  0  0  0  0
   -1.1080   22.3620  -30.0360 C   0  0  0  0  0  0  0  0  0  0  0  0
   -3.8420   22.6640  -31.9480 C   0  0  0  0  0  0  0  0  0  0  0  0
   -4.5010   21.6660  -32.7020 C   0  0  0  0  0  0  0  0  0  0  0  0
   -3.7120   20.6220  -33.4800 C   0  0  1  0  0  0  0  0  0  0  0  0
   -2.2760   21.0390  -33.8490 C   0  0  0  0  0  0  0  0  0  0  0  0
   -3.7620   19.3050  -32.7230 C   0  0  0  0  0  0  0  0  0  0  0  0
   -2.7170   18.7920  -32.3390 O   0  0  0  0  0  0  0  0  0  0  0  0
   -5.1080   18.6790  -32.3280 C   0  0  1  0  0  0  0  0  0  0  0  0
   -5.5160   19.2070  -31.0870 O   0  0  0  0  0  0  0  0  0  0  0  0
   -4.9900   17.1200  -32.1690 C   0  0  0  0  0  0  0  0  0  0  0  0
   -5.0173   14.5995  -32.2514 H   0  0  0  0  0  0  0  0  0  0  0  0
   -5.8734   14.2922  -33.8004 H   0  0  0  0  0  0  0  0  0  0  0  0
   -4.1080   14.6238  -33.8004 H   0  0  0  0  0  0  0  0  0  0  0  0
   -4.7133   16.7506  -34.2706 H   0  0  0  0  0  0  0  0  0  0  0  0
   -6.9349   16.5037  -34.9283 H   0  0  0  0  0  0  0  0  0  0  0  0
   -7.4365   15.8794  -33.2900 H   0  0  0  0  0  0  0  0  0  0  0  0
   -8.0904   18.3471  -34.1589 H   0  0  0  0  0  0  0  0  0  0  0  0
   -7.7495   17.9549  -32.4216 H   0  0  0  0  0  0  0  0  0  0  0  0
   -5.6292   19.0165  -34.3664 H   0  0  0  0  0  0  0  0  0  0  0  0
   -6.9082   20.8495  -34.3674 H   0  0  0  0  0  0  0  0  0  0  0  0
   -7.6543   20.4062  -32.7150 H   0  0  0  0  0  0  0  0  0  0  0  0
   -7.7228   22.4969  -31.8444 H   0  0  0  0  0  0  0  0  0  0  0  0
   -3.3895   22.0204  -27.5074 H   0  0  0  0  0  0  0  0  0  0  0  0
   -2.4053   19.7285  -27.4688 H   0  0  0  0  0  0  0  0  0  0  0  0
    0.2445   20.8109  -30.7199 H   0  0  0  0  0  0  0  0  0  0  0  0
   -0.7444   23.1024  -30.7637 H   0  0  0  0  0  0  0  0  0  0  0  0
   -2.7424   22.6897  -31.9308 H   0  0  0  0  0  0  0  0  0  0  0  0
   -4.1976   20.5074  -34.4603 H   0  0  0  0  0  0  0  0  0  0  0  0
   -1.6955   21.2076  -32.9300 H   0  0  0  0  0  0  0  0  0  0  0  0
   -1.8030   20.2411  -34.4403 H   0  0  0  0  0  0  0  0  0  0  0  0
   -2.3039   21.9661  -34.4403 H   0  0  0  0  0  0  0  0  0  0  0  0
   -4.7270   19.6400  -30.6640 H   0  0  0  0  0  0  0  0  0  0  0  0
   -3.9549   16.8715  -31.8918 H   0  0  0  0  0  0  0  0  0  0  0  0
   -5.7039   16.8094  -31.3919 H   0  0  0  0  0  0  0  0  0  0  0  0
  1  2  1  0
  2  3  1  0
  3  4  1  0
  4  5  1  0
  5  6  1  0
  6  7  1  0
  7  8  2  0
  8  9  1  0
  9 10  1  0
  9 11  2  0
 11 12  1  0
 12 13  1  0
 13 14  2  0
 13 15  2  0
 13 16  1  0
 16 17  2  0
 17 18  1  0
 18 19  2  0
 19 20  1  0
 20 21  3  0
 19 22  1  0
 22 23  2  0
 11 24  1  0
 24 25  2  0
 25 26  1  0
 26 27  1  0
 26 28  1  0
 28 29  2  0
 28 30  1  0
 30 31  1  1
 30 32  1  0
 32  2  1  0
 30  5  1  0
 25  7  1  0
 23 16  1  0
  1 33  1  0
  1 34  1  0
  1 35  1  0
  2 36  1  6
  3 37  1  0
  3 38  1  0
  4 39  1  0
  4 40  1  0
  5 41  1  6
  6 42  1  0
  6 43  1  0
  8 44  1  0
 17 45  1  0
 18 46  1  0
 22 47  1  0
 23 48  1  0
 24 49  1  0
 26 50  1  6
 27 51  1  0
 27 52  1  0
 27 53  1  0
 31 54  1  0
 32 55  1  0
 32 56  1  0
M  CHG  2  10  -1  12  -1
M  END
>  <UniqueID>  (50) 
49

>  <SMILES>  (50) 
CC1C(=O)C2(O)C[C@@H](C)CC[C@H]2Cc2cc([O-])c([N-]S(=O)(=O)c3ccc(C#N)cc3)cc21

>  <Energy>  (50) 
87.5705466369223

>  <Genealogy>  (50) 
CC1CCC2Cc3cc([O-])c([N-]S(=O)(=O)c4ccc(C#N)cc4)cc3C(C)C(=O)C2(O)C1 (protonated)
CC1C(=O)C2(O)C[C@@H](C)CC[C@H]2Cc2cc([O-])c([N-]S(=O)(=O)c3ccc(C#N)cc3)cc21 (chirality)
CC1C(=O)C2(O)C[C@@H](C)CC[C@H]2Cc2cc([O-])c([N-]S(=O)(=O)c3ccc(C#N)cc3)cc21 (3D coordinates assigned)
CC1C(=O)C2(O)C[C@@H](C)CC[C@H]2Cc2cc([O-])c([N-]S(=O)(=O)c3ccc(C#N)cc3)cc21 (nonaromatic ring conformer: 87.5705466369223 kcal/mol)

>  <smiles>  (50) 
CC1CCC2Cc3cc(O)c(NS(=O)(=O)c4ccc(C#N)cc4)cc3C(C)C(=O)C2(O)C1

>  <score_type>  (50) 
oracle

>  <origin>  (50) 
adgpu

>  <m_score__min__energy>  (50) 
-11.039999999999999

>  <m_primary>  (50) 
energy

$$$$
