0:0
     RDKit          3D

 50 52  0  0  0  0  0  0  0  0999 V2000
   -2.2250   24.8810  -28.6190 C   0  0  0  0  0  0  0  0  0  0  0  0
   -3.3780   24.5070  -29.4950 C   0  0  0  0  0  0  0  0  0  0  0  0
   -3.8550   25.3020  -30.4710 N   0  0  0  0  0  0  0  0  0  0  0  0
   -4.8660   24.6570  -31.0320 N   0  0  0  0  0  0  0  0  0  0  0  0
   -4.9970   23.4780  -30.3900 C   0  0  0  0  0  0  0  0  0  0  0  0
   -6.0590   22.4590  -30.7450 C   0  0  0  0  0  0  0  0  0  0  0  0
   -5.6960   21.6040  -31.8980 N   0  0  0  0  0  0  0  0  0  0  0  0
   -6.8710   21.1220  -32.6570 C   0  0  0  0  0  0  0  0  0  0  0  0
   -6.6940   19.6630  -32.9750 C   0  0  0  0  0  0  0  0  0  0  0  0
   -7.0790   18.6770  -32.0580 C   0  0  0  0  0  0  0  0  0  0  0  0
   -6.8760   17.3250  -32.3450 C   0  0  0  0  0  0  0  0  0  0  0  0
   -6.2730   16.9250  -33.5550 C   0  0  0  0  0  0  0  0  0  0  0  0
   -6.0600   15.5200  -33.8550 N   0  0  0  0  0  0  0  0  0  0  0  0
   -4.8180   14.8500  -33.4500 C   0  0  0  0  0  0  0  0  0  0  0  0
   -7.0830   14.7450  -34.5670 C   0  0  0  0  0  0  0  0  0  0  0  0
   -5.8790   17.9270  -34.4670 C   0  0  0  0  0  0  0  0  0  0  0  0
   -6.0840   19.2780  -34.1770 C   0  0  0  0  0  0  0  0  0  0  0  0
   -4.6560   22.2000  -32.7610 C   0  0  0  0  0  0  0  0  0  0  0  0
   -3.3440   21.5220  -32.5190 C   0  0  0  0  0  0  0  0  0  0  0  0
   -2.9550   20.3100  -33.0510 C   0  0  0  0  0  0  0  0  0  0  0  0
   -1.6740   20.0970  -32.5860 C   0  0  0  0  0  0  0  0  0  0  0  0
   -1.3650   21.1900  -31.8020 C   0  0  0  0  0  0  0  0  0  0  0  0
   -2.3800   22.0230  -31.7820 O   0  0  0  0  0  0  0  0  0  0  0  0
   -4.0550   23.3420  -29.4290 N   0  0  0  0  0  0  0  0  0  0  0  0
   -3.8540   22.2460  -28.4810 C   0  0  0  0  0  0  0  0  0  0  0  0
   -2.5201   24.7853  -27.5637 H   0  0  0  0  0  0  0  0  0  0  0  0
   -1.3763   24.2121  -28.8245 H   0  0  0  0  0  0  0  0  0  0  0  0
   -1.9305   25.9207  -28.8245 H   0  0  0  0  0  0  0  0  0  0  0  0
   -6.2267   21.8122  -29.8712 H   0  0  0  0  0  0  0  0  0  0  0  0
   -6.9621   23.0189  -31.0294 H   0  0  0  0  0  0  0  0  0  0  0  0
   -7.7799   21.2585  -32.0526 H   0  0  0  0  0  0  0  0  0  0  0  0
   -6.9651   21.6938  -33.5920 H   0  0  0  0  0  0  0  0  0  0  0  0
   -7.5445   18.9692  -31.1051 H   0  0  0  0  0  0  0  0  0  0  0  0
   -7.1908   16.5625  -31.6174 H   0  0  0  0  0  0  0  0  0  0  0  0
   -4.7596   14.8185  -32.3520 H   0  0  0  0  0  0  0  0  0  0  0  0
   -4.8083   13.8243  -33.8473 H   0  0  0  0  0  0  0  0  0  0  0  0
   -3.9555   15.4052  -33.8473 H   0  0  0  0  0  0  0  0  0  0  0  0
   -7.7396   14.2476  -33.8380 H   0  0  0  0  0  0  0  0  0  0  0  0
   -7.6804   15.4192  -35.1983 H   0  0  0  0  0  0  0  0  0  0  0  0
   -6.5957   13.9874  -35.1983 H   0  0  0  0  0  0  0  0  0  0  0  0
   -5.4049   17.6409  -35.4175 H   0  0  0  0  0  0  0  0  0  0  0  0
   -5.7644   20.0455  -34.8972 H   0  0  0  0  0  0  0  0  0  0  0  0
   -4.9419   22.0755  -33.8159 H   0  0  0  0  0  0  0  0  0  0  0  0
   -4.5596   23.2703  -32.5259 H   0  0  0  0  0  0  0  0  0  0  0  0
   -3.5428   19.6519  -33.7078 H   0  0  0  0  0  0  0  0  0  0  0  0
   -1.0292   19.2312  -32.7973 H   0  0  0  0  0  0  0  0  0  0  0  0
   -0.4121   21.3407  -31.2735 H   0  0  0  0  0  0  0  0  0  0  0  0
   -3.9248   22.6323  -27.4535 H   0  0  0  0  0  0  0  0  0  0  0  0
   -4.6264   21.4788  -28.6384 H   0  0  0  0  0  0  0  0  0  0  0  0
   -2.8596   21.8028  -28.6384 H   0  0  0  0  0  0  0  0  0  0  0  0
  1  2  1  0
  2  3  2  0
  3  4  1  0
  4  5  2  0
  5  6  1  0
  6  7  1  0
  7  8  1  0
  8  9  1  0
  9 10  2  0
 10 11  1  0
 11 12  2  0
 12 13  1  0
 13 14  1  0
 13 15  1  0
 12 16  1  0
 16 17  2  0
  7 18  1  0
 18 19  1  0
 19 20  2  0
 20 21  1  0
 21 22  2  0
 22 23  1  0
  5 24  1  0
 24 25  1  0
 24  2  1  0
 17  9  1  0
 23 19  1  0
  1 26  1  0
  1 27  1  0
  1 28  1  0
  6 29  1  0
  6 30  1  0
  8 31  1  0
  8 32  1  0
 10 33  1  0
 11 34  1  0
 14 35  1  0
 14 36  1  0
 14 37  1  0
 15 38  1  0
 15 39  1  0
 15 40  1  0
 16 41  1  0
 17 42  1  0
 18 43  1  0
 18 44  1  0
 20 45  1  0
 21 46  1  0
 22 47  1  0
 25 48  1  0
 25 49  1  0
 25 50  1  0
M  END
>  <UniqueID>  (1) 
1

>  <SMILES>  (1) 
Cc1nnc(CN(Cc2ccc(N(C)C)cc2)Cc2ccco2)n1C

>  <Energy>  (1) 
114.39300667155474

>  <Genealogy>  (1) 
Cc1nnc(CN(Cc2ccc(N(C)C)cc2)Cc2ccco2)n1C (3D coordinates assigned)
Cc1nnc(CN(Cc2ccc(N(C)C)cc2)Cc2ccco2)n1C (optimized conformer: 114.39300667155474 kcal/mol)

>  <smiles>  (1) 
Cc1nnc(CN(Cc2ccc(N(C)C)cc2)Cc2ccco2)n1C

>  <score_type>  (1) 
oracle

>  <origin>  (1) 
adgpu

>  <m_score__min__energy>  (1) 
-7.9900000000000002

>  <m_primary>  (1) 
energy

$$$$
1:0
     RDKit          3D

 44 46  0  0  0  0  0  0  0  0999 V2000
   -8.9690   19.7180  -32.2880 C   0  0  0  0  0  0  0  0  0  0  0  0
   -7.6920   20.2100  -32.6830 O   0  0  0  0  0  0  0  0  0  0  0  0
   -7.1170   21.4030  -32.2160 C   0  0  0  0  0  0  0  0  0  0  0  0
   -7.9030   22.4540  -31.7090 C   0  0  0  0  0  0  0  0  0  0  0  0
   -7.3060   23.6230  -31.2350 C   0  0  0  0  0  0  0  0  0  0  0  0
   -5.9110   23.7680  -31.2540 C   0  0  0  0  0  0  0  0  0  0  0  0
   -5.2710   25.0080  -30.7470 C   0  0  0  0  0  0  0  0  0  0  0  0
   -5.9610   26.0550  -30.6160 O   0  0  0  0  0  0  0  0  0  0  0  0
   -3.8640   25.0730  -30.4680 N   0  0  0  0  0  0  0  0  0  0  0  0
   -3.2570   24.6570  -29.3910 C   0  0  0  0  0  0  0  0  0  0  0  0
   -3.9540   24.1670  -28.2660 C   0  0  0  0  0  0  0  0  0  0  0  0
   -3.2380   23.7450  -27.1450 C   0  0  0  0  0  0  0  0  0  0  0  0
   -1.8450   23.8210  -27.1390 C   0  0  0  0  0  0  0  0  0  0  0  0
   -1.1850   24.3270  -28.2600 C   0  0  0  0  0  0  0  0  0  0  0  0
   -1.8990   24.7310  -29.3440 N   0  0  0  0  0  0  0  0  0  0  0  0
   -5.1240   22.7180  -31.7480 C   0  0  0  0  0  0  0  0  0  0  0  0
   -5.7160   21.5480  -32.2480 C   0  0  0  0  0  0  0  0  0  0  0  0
   -4.6810   20.2620  -32.8810 S   0  0  0  0  0  0  0  0  0  0  0  0
   -5.2490   19.7250  -34.1670 O   0  0  0  0  0  0  0  0  0  0  0  0
   -4.6220   19.1560  -31.8660 O   0  0  0  0  0  0  0  0  0  0  0  0
   -3.0720   20.8790  -33.1730 N   0  0  0  0  0  0  0  0  0  0  0  0
   -2.2910   19.9080  -33.9520 C   0  0  0  0  0  0  0  0  0  0  0  0
   -0.8800   20.4710  -34.2260 C   0  0  0  0  0  0  0  0  0  0  0  0
   -0.6080   21.6400  -33.4710 O   0  0  0  0  0  0  0  0  0  0  0  0
   -0.8930   21.4070  -32.1060 C   0  0  0  0  0  0  0  0  0  0  0  0
   -2.4010   21.1610  -31.8930 C   0  0  0  0  0  0  0  0  0  0  0  0
   -9.0294   19.6947  -31.1899 H   0  0  0  0  0  0  0  0  0  0  0  0
   -9.7548   20.3777  -32.6845 H   0  0  0  0  0  0  0  0  0  0  0  0
   -9.1090   18.7016  -32.6845 H   0  0  0  0  0  0  0  0  0  0  0  0
   -8.9981   22.3534  -31.6860 H   0  0  0  0  0  0  0  0  0  0  0  0
   -7.9341   24.4368  -30.8436 H   0  0  0  0  0  0  0  0  0  0  0  0
   -5.0529   24.1181  -28.2727 H   0  0  0  0  0  0  0  0  0  0  0  0
   -3.7716   23.3527  -26.2667 H   0  0  0  0  0  0  0  0  0  0  0  0
   -1.2733   23.4860  -26.2609 H   0  0  0  0  0  0  0  0  0  0  0  0
   -0.0874   24.3988  -28.2663 H   0  0  0  0  0  0  0  0  0  0  0  0
   -4.0281   22.8126  -31.7436 H   0  0  0  0  0  0  0  0  0  0  0  0
   -2.2058   18.9692  -33.3852 H   0  0  0  0  0  0  0  0  0  0  0  0
   -2.7985   19.7183  -34.9093 H   0  0  0  0  0  0  0  0  0  0  0  0
   -0.1367   19.7025  -33.9672 H   0  0  0  0  0  0  0  0  0  0  0  0
   -0.8276   20.7402  -35.2913 H   0  0  0  0  0  0  0  0  0  0  0  0
   -0.3325   20.5234  -31.7667 H   0  0  0  0  0  0  0  0  0  0  0  0
   -0.5966   22.2950  -31.5284 H   0  0  0  0  0  0  0  0  0  0  0  0
   -2.5344   20.3018  -31.2192 H   0  0  0  0  0  0  0  0  0  0  0  0
   -2.8467   22.0657  -31.4537 H   0  0  0  0  0  0  0  0  0  0  0  0
  1  2  1  0
  2  3  1  0
  3  4  2  0
  4  5  1  0
  5  6  2  0
  6  7  1  0
  7  8  2  0
  7  9  1  0
  9 10  2  3
 10 11  1  0
 11 12  2  0
 12 13  1  0
 13 14  2  0
 14 15  1  0
  6 16  1  0
 16 17  2  0
 17 18  1  0
 18 19  2  0
 18 20  2  0
 18 21  1  0
 21 22  1  0
 22 23  1  0
 23 24  1  0
 24 25  1  0
 25 26  1  0
 17  3  1  0
 26 21  1  0
 15 10  1  0
  1 27  1  0
  1 28  1  0
  1 29  1  0
  4 30  1  0
  5 31  1  0
 11 32  1  0
 12 33  1  0
 13 34  1  0
 14 35  1  0
 16 36  1  0
 22 37  1  0
 22 38  1  0
 23 39  1  0
 23 40  1  0
 25 41  1  0
 25 42  1  0
 26 43  1  0
 26 44  1  0
M  CHG  1  15  -1
M  END
>  <UniqueID>  (2) 
2

>  <SMILES>  (2) 
COc1ccc(C(=O)N=c2cccc[n-]2)cc1S(=O)(=O)N1CCOCC1

>  <Energy>  (2) 
64.12514335271773

>  <Genealogy>  (2) 
COc1ccc(C(=O)N=c2cccc[n-]2)cc1S(=O)(=O)N1CCOCC1 (protonated)
COc1ccc(C(=O)N=c2cccc[n-]2)cc1S(=O)(=O)N1CCOCC1 (3D coordinates assigned)
COc1ccc(C(=O)N=c2cccc[n-]2)cc1S(=O)(=O)N1CCOCC1 (nonaromatic ring conformer: 64.12514335271773 kcal/mol)

>  <smiles>  (2) 
COc1ccc(C(=O)N=c2cccc[nH]2)cc1S(=O)(=O)N1CCOCC1

>  <score_type>  (2) 
oracle

>  <origin>  (2) 
adgpu

>  <m_score__min__energy>  (2) 
-10.359999999999999

>  <m_primary>  (2) 
energy

$$$$
2:0
     RDKit          3D

 30 32  0  0  0  0  0  0  0  0999 V2000
   -7.0890   18.0220  -31.0730 O   0  0  0  0  0  0  0  0  0  0  0  0
   -7.3320   18.7150  -32.1000 C   0  0  0  0  0  0  0  0  0  0  0  0
   -7.7180   20.1330  -31.9290 C   0  0  0  0  0  0  0  0  0  0  0  0
   -9.0660   20.4780  -32.0990 C   0  0  0  0  0  0  0  0  0  0  0  0
   -9.4860   21.7950  -31.9290 C   0  0  0  0  0  0  0  0  0  0  0  0
   -8.5680   22.7860  -31.5920 C   0  0  0  0  0  0  0  0  0  0  0  0
   -7.2040   22.4770  -31.4270 C   0  0  0  0  0  0  0  0  0  0  0  0
   -6.2130   23.5720  -31.0840 C   0  0  0  0  0  0  0  0  0  0  0  0
   -5.3830   23.8050  -32.1660 F   0  0  0  0  0  0  0  0  0  0  0  0
   -5.4210   23.2290  -30.0020 F   0  0  0  0  0  0  0  0  0  0  0  0
   -6.8940   24.7340  -30.7730 F   0  0  0  0  0  0  0  0  0  0  0  0
   -6.7750   21.1380  -31.6120 C   0  0  0  0  0  0  0  0  0  0  0  0
   -5.0520   20.7420  -31.5290 Cl  0  0  0  0  0  0  0  0  0  0  0  0
   -7.1410   18.1500  -33.4180 N   0  0  2  0  0  0  0  0  0  0  0  0
   -6.9090   16.6700  -33.3680 C   0  0  0  0  0  0  0  0  0  0  0  0
   -5.5320   16.4740  -33.9130 C   0  0  0  0  0  0  0  0  0  0  0  0
   -4.7340   15.3660  -34.1740 C   0  0  0  0  0  0  0  0  0  0  0  0
   -3.5220   15.7490  -34.7630 C   0  0  0  0  0  0  0  0  0  0  0  0
   -3.4800   17.4430  -34.9590 S   0  0  0  0  0  0  0  0  0  0  0  0
   -4.9930   17.6400  -34.2730 C   0  0  0  0  0  0  0  0  0  0  0  0
   -5.9360   18.6810  -34.0060 C   0  0  0  0  0  0  0  0  0  0  0  0
   -5.7630   19.8980  -34.2820 O   0  0  0  0  0  0  0  0  0  0  0  0
   -9.7979   19.7024  -32.3688 H   0  0  0  0  0  0  0  0  0  0  0  0
  -10.5470   22.0532  -32.0615 H   0  0  0  0  0  0  0  0  0  0  0  0
   -8.9119   23.8216  -31.4531 H   0  0  0  0  0  0  0  0  0  0  0  0
   -7.9450   18.3730  -34.0490 H   0  0  0  0  0  0  0  0  0  0  0  0
   -6.9703   16.3041  -32.3324 H   0  0  0  0  0  0  0  0  0  0  0  0
   -7.6636   16.1146  -33.9443 H   0  0  0  0  0  0  0  0  0  0  0  0
   -5.0165   14.3272  -33.9482 H   0  0  0  0  0  0  0  0  0  0  0  0
   -2.7166   15.0594  -35.0558 H   0  0  0  0  0  0  0  0  0  0  0  0
  1  2  2  0
  2  3  1  0
  3  4  2  0
  4  5  1  0
  5  6  2  0
  6  7  1  0
  7  8  1  0
  8  9  1  0
  8 10  1  0
  8 11  1  0
  7 12  2  0
 12 13  1  0
  2 14  1  0
 14 15  1  0
 15 16  1  0
 16 17  1  0
 17 18  2  0
 18 19  1  0
 19 20  1  0
 20 21  1  0
 21 22  2  0
 12  3  1  0
 21 14  1  0
 20 16  2  0
  4 23  1  0
  5 24  1  0
  6 25  1  0
 14 26  1  6
 15 27  1  0
 15 28  1  0
 17 29  1  0
 18 30  1  0
M  CHG  1  14   1
M  END
>  <UniqueID>  (3) 
3

>  <SMILES>  (3) 
O=C(c1cccc(C(F)(F)F)c1Cl)[N@@H+]1Cc2ccsc2C1=O

>  <Energy>  (3) 
100.52597746951467

>  <Genealogy>  (3) 
O=C(c1cccc(C(F)(F)F)c1Cl)[NH+]1Cc2ccsc2C1=O (protonated)
O=C(c1cccc(C(F)(F)F)c1Cl)[N@@H+]1Cc2ccsc2C1=O (chirality)
O=C(c1cccc(C(F)(F)F)c1Cl)[N@@H+]1Cc2ccsc2C1=O (3D coordinates assigned)
O=C(c1cccc(C(F)(F)F)c1Cl)[N@@H+]1Cc2ccsc2C1=O (nonaromatic ring conformer: 100.52597746951467 kcal/mol)

>  <smiles>  (3) 
O=C(c1cccc(C(F)(F)F)c1Cl)N1Cc2ccsc2C1=O

>  <score_type>  (3) 
oracle

>  <origin>  (3) 
adgpu

>  <m_score__min__energy>  (3) 
-6.7400000000000002

>  <m_primary>  (3) 
energy

$$$$
3:0
     RDKit          3D

 29 30  0  0  0  0  0  0  0  0999 V2000
   -4.4880   20.9390  -33.4560 N   0  0  0  0  0  0  0  0  0  0  0  0
   -5.5630   20.0070  -33.3140 C   0  0  0  0  0  0  0  0  0  0  0  0
   -6.7720   20.4550  -32.8840 N   0  0  0  0  0  0  0  0  0  0  0  0
   -7.8280   19.6130  -32.7450 C   0  0  0  0  0  0  0  0  0  0  0  0
   -9.4220   20.2490  -32.2350 S   0  0  0  0  0  0  0  0  0  0  0  0
   -8.7650   21.2630  -30.8630 C   0  0  0  0  0  0  0  0  0  0  0  0
   -8.4240   22.6550  -31.3270 C   0  0  0  0  0  0  0  0  0  0  0  0
   -9.2700   23.2620  -32.0400 O   0  0  0  0  0  0  0  0  0  0  0  0
   -7.1090   23.3020  -31.0600 C   0  0  0  0  0  0  0  0  0  0  0  0
   -7.0740   24.5610  -30.4320 C   0  0  0  0  0  0  0  0  0  0  0  0
   -5.8590   25.2160  -30.2200 C   0  0  0  0  0  0  0  0  0  0  0  0
   -4.6600   24.6270  -30.6250 C   0  0  0  0  0  0  0  0  0  0  0  0
   -3.4610   25.2990  -30.4170 O   0  0  0  0  0  0  0  0  0  0  0  0
   -4.6730   23.3640  -31.2350 C   0  0  0  0  0  0  0  0  0  0  0  0
   -3.4920   22.7510  -31.6480 O   0  0  0  0  0  0  0  0  0  0  0  0
   -5.8910   22.7030  -31.4420 C   0  0  0  0  0  0  0  0  0  0  0  0
   -7.6850   18.2920  -33.0220 N   0  0  0  0  0  0  0  0  0  0  0  0
   -6.4990   17.7920  -33.4540 C   0  0  0  0  0  0  0  0  0  0  0  0
   -6.4010   16.5630  -33.7110 O   0  0  0  0  0  0  0  0  0  0  0  0
   -5.3990   18.6430  -33.6200 C   0  0  0  0  0  0  0  0  0  0  0  0
   -3.8680   18.0000  -34.2100 Cl  0  0  0  0  0  0  0  0  0  0  0  0
   -3.6490   20.9190  -32.8370 H   0  0  0  0  0  0  0  0  0  0  0  0
   -4.5300   21.6690  -34.2030 H   0  0  0  0  0  0  0  0  0  0  0  0
   -9.5232   21.3256  -30.0685 H   0  0  0  0  0  0  0  0  0  0  0  0
   -7.8471   20.7871  -30.4877 H   0  0  0  0  0  0  0  0  0  0  0  0
   -8.0121   25.0334  -30.1052 H   0  0  0  0  0  0  0  0  0  0  0  0
   -5.8467   26.2014  -29.7312 H   0  0  0  0  0  0  0  0  0  0  0  0
   -2.5810   23.1510  -31.4510 H   0  0  0  0  0  0  0  0  0  0  0  0
   -5.8971   21.7063  -31.9074 H   0  0  0  0  0  0  0  0  0  0  0  0
  1  2  1  0
  2  3  1  0
  3  4  1  0
  4  5  1  0
  5  6  1  0
  6  7  1  0
  7  8  2  0
  7  9  1  0
  9 10  2  0
 10 11  1  0
 11 12  2  0
 12 13  1  0
 12 14  1  0
 14 15  1  0
 14 16  2  0
  4 17  2  0
 17 18  1  0
 18 19  2  0
 18 20  1  0
 20 21  1  0
 20  2  2  0
 16  9  1  0
  1 22  1  0
  1 23  1  0
  6 24  1  0
  6 25  1  0
 10 26  1  0
 11 27  1  0
 15 28  1  0
 16 29  1  0
M  CHG  2   3  -1  13  -1
M  END
>  <UniqueID>  (4) 
4

>  <SMILES>  (4) 
Nc1[n-]c(SCC(=O)c2ccc([O-])c(O)c2)nc(=O)c1Cl

>  <Energy>  (4) 
27.77454507384109

>  <Genealogy>  (4) 
Nc1[n-]c(SCC(=O)c2ccc([O-])c(O)c2)nc(=O)c1Cl (protonated)
Nc1[n-]c(SCC(=O)c2ccc([O-])c(O)c2)nc(=O)c1Cl (3D coordinates assigned)
Nc1[n-]c(SCC(=O)c2ccc([O-])c(O)c2)nc(=O)c1Cl (optimized conformer: 27.77454507384109 kcal/mol)

>  <smiles>  (4) 
Nc1[nH]c(SCC(=O)c2ccc(O)c(O)c2)nc(=O)c1Cl

>  <score_type>  (4) 
oracle

>  <origin>  (4) 
adgpu

>  <m_score__min__energy>  (4) 
-10.57

>  <m_primary>  (4) 
energy

$$$$
4:0
     RDKit          3D

 55 58  0  0  0  0  0  0  0  0999 V2000
   -0.5090   18.6540  -27.8560 C   0  0  0  0  0  0  0  0  0  0  0  0
    0.3150   18.3530  -29.1070 C   0  0  0  0  0  0  0  0  0  0  0  0
    1.0590   19.5890  -29.6300 C   0  0  0  0  0  0  0  0  0  0  0  0
    0.2580   20.8470  -29.4410 C   0  0  0  0  0  0  0  0  0  0  0  0
    0.3940   21.6260  -28.3360 N   0  0  0  0  0  0  0  0  0  0  0  0
   -0.5110   22.6000  -28.5360 C   0  0  0  0  0  0  0  0  0  0  0  0
   -0.7940   23.6730  -27.6970 C   0  0  0  0  0  0  0  0  0  0  0  0
   -1.7900   24.5800  -28.1030 C   0  0  0  0  0  0  0  0  0  0  0  0
   -2.4700   24.4020  -29.3390 C   0  0  0  0  0  0  0  0  0  0  0  0
   -3.5050   25.2980  -29.7700 N   0  0  0  0  0  0  0  0  0  0  0  0
   -4.7410   24.9330  -30.3940 C   0  0  0  0  0  0  0  0  0  0  0  0
   -6.0290   25.3530  -29.7700 C   0  0  0  0  0  0  0  0  0  0  0  0
   -4.7560   24.1850  -31.4080 O   0  0  0  0  0  0  0  0  0  0  0  0
   -2.1670   23.2870  -30.1470 C   0  0  0  0  0  0  0  0  0  0  0  0
   -1.1710   22.4080  -29.7130 C   0  0  0  0  0  0  0  0  0  0  0  0
   -0.7000   21.2930  -30.3010 N   0  0  0  0  0  0  0  0  0  0  0  0
   -1.0750   20.7340  -31.6050 C   0  0  0  0  0  0  0  0  0  0  0  0
   -2.5730   20.7360  -31.7750 C   0  0  0  0  0  0  0  0  0  0  0  0
   -3.1510   21.1480  -32.9870 C   0  0  0  0  0  0  0  0  0  0  0  0
   -4.5400   21.1540  -33.1440 C   0  0  0  0  0  0  0  0  0  0  0  0
   -5.3710   20.7330  -32.0960 C   0  0  0  0  0  0  0  0  0  0  0  0
   -6.8430   20.7620  -32.2530 C   0  0  0  0  0  0  0  0  0  0  0  0
   -7.5230   21.9380  -31.8900 C   0  0  0  0  0  0  0  0  0  0  0  0
   -8.9160   21.9980  -31.9340 C   0  0  0  0  0  0  0  0  0  0  0  0
   -9.6490   20.8860  -32.3410 C   0  0  0  0  0  0  0  0  0  0  0  0
   -8.9930   19.7130  -32.7190 C   0  0  0  0  0  0  0  0  0  0  0  0
   -7.5870   19.6350  -32.6990 C   0  0  0  0  0  0  0  0  0  0  0  0
   -6.9390   18.3940  -33.1910 C   0  0  0  0  0  0  0  0  0  0  0  0
   -7.1930   17.2870  -32.6470 O   0  0  0  0  0  0  0  0  0  0  0  0
   -6.0810   18.4220  -34.2850 O   0  0  0  0  0  0  0  0  0  0  0  0
   -4.7960   20.3230  -30.8810 C   0  0  0  0  0  0  0  0  0  0  0  0
   -3.4070   20.3180  -30.7270 C   0  0  0  0  0  0  0  0  0  0  0  0
    0.0908   18.4349  -26.9604 H   0  0  0  0  0  0  0  0  0  0  0  0
   -0.7974   19.7155  -27.8535 H   0  0  0  0  0  0  0  0  0  0  0  0
   -1.4137   18.0283  -27.8535 H   0  0  0  0  0  0  0  0  0  0  0  0
    1.0522   17.5733  -28.8650 H   0  0  0  0  0  0  0  0  0  0  0  0
   -0.3790   18.0221  -29.8936 H   0  0  0  0  0  0  0  0  0  0  0  0
    2.0102   19.6880  -29.0864 H   0  0  0  0  0  0  0  0  0  0  0  0
    1.2306   19.4528  -30.7080 H   0  0  0  0  0  0  0  0  0  0  0  0
   -0.2564   23.8079  -26.7468 H   0  0  0  0  0  0  0  0  0  0  0  0
   -2.0449   25.4343  -27.4586 H   0  0  0  0  0  0  0  0  0  0  0  0
   -5.9331   25.3217  -28.6746 H   0  0  0  0  0  0  0  0  0  0  0  0
   -6.2734   26.3774  -30.0876 H   0  0  0  0  0  0  0  0  0  0  0  0
   -6.8303   24.6696  -30.0876 H   0  0  0  0  0  0  0  0  0  0  0  0
   -2.7002   23.1137  -31.0934 H   0  0  0  0  0  0  0  0  0  0  0  0
   -0.6204   21.3406  -32.4021 H   0  0  0  0  0  0  0  0  0  0  0  0
   -0.7141   19.6964  -31.6619 H   0  0  0  0  0  0  0  0  0  0  0  0
   -2.5061   21.4682  -33.8186 H   0  0  0  0  0  0  0  0  0  0  0  0
   -4.9827   21.4902  -34.0932 H   0  0  0  0  0  0  0  0  0  0  0  0
   -6.9503   22.8202  -31.5678 H   0  0  0  0  0  0  0  0  0  0  0  0
   -9.4357   22.9241  -31.6471 H   0  0  0  0  0  0  0  0  0  0  0  0
  -10.7478   20.9320  -32.3647 H   0  0  0  0  0  0  0  0  0  0  0  0
   -9.5813   18.8394  -33.0362 H   0  0  0  0  0  0  0  0  0  0  0  0
   -5.4411   20.0051  -30.0487 H   0  0  0  0  0  0  0  0  0  0  0  0
   -2.9643   19.9839  -29.7771 H   0  0  0  0  0  0  0  0  0  0  0  0
  1  2  1  0
  2  3  1  0
  3  4  1  0
  4  5  2  0
  5  6  1  0
  6  7  2  0
  7  8  1  0
  8  9  2  0
  9 10  1  0
 10 11  1  0
 11 12  1  0
 11 13  2  0
  9 14  1  0
 14 15  2  0
 15 16  1  0
 16 17  1  0
 17 18  1  0
 18 19  2  0
 19 20  1  0
 20 21  2  0
 21 22  1  0
 22 23  2  0
 23 24  1  0
 24 25  2  0
 25 26  1  0
 26 27  2  0
 27 28  1  0
 28 29  2  0
 28 30  1  0
 21 31  1  0
 31 32  2  0
 16  4  1  0
 32 18  1  0
 15  6  1  0
 27 22  1  0
  1 33  1  0
  1 34  1  0
  1 35  1  0
  2 36  1  0
  2 37  1  0
  3 38  1  0
  3 39  1  0
  7 40  1  0
  8 41  1  0
 12 42  1  0
 12 43  1  0
 12 44  1  0
 14 45  1  0
 17 46  1  0
 17 47  1  0
 19 48  1  0
 20 49  1  0
 23 50  1  0
 24 51  1  0
 25 52  1  0
 26 53  1  0
 31 54  1  0
 32 55  1  0
M  CHG  2  10  -1  30  -1
M  END
>  <UniqueID>  (5) 
5

>  <SMILES>  (5) 
CCCc1nc2ccc([N-]C(C)=O)cc2n1Cc1ccc(-c2ccccc2C(=O)[O-])cc1

>  <Energy>  (5) 
102.55702164898547

>  <Genealogy>  (5) 
CCCc1nc2ccc([N-]C(C)=O)cc2n1Cc1ccc(-c2ccccc2C(=O)[O-])cc1 (protonated)
CCCc1nc2ccc([N-]C(C)=O)cc2n1Cc1ccc(-c2ccccc2C(=O)[O-])cc1 (3D coordinates assigned)
CCCc1nc2ccc([N-]C(C)=O)cc2n1Cc1ccc(-c2ccccc2C(=O)[O-])cc1 (optimized conformer: 102.55702164898547 kcal/mol)

>  <smiles>  (5) 
CCCc1nc2ccc(NC(C)=O)cc2n1Cc1ccc(-c2ccccc2C(=O)O)cc1

>  <score_type>  (5) 
oracle

>  <origin>  (5) 
adgpu

>  <m_score__min__energy>  (5) 
-13.039999999999999

>  <m_primary>  (5) 
energy

$$$$
5:0
     RDKit          3D

 56 57  0  0  0  0  0  0  0  0999 V2000
   -8.2920   20.0580  -32.9810 C   0  0  0  0  0  0  0  0  0  0  0  0
   -6.9110   20.5360  -33.4520 C   0  0  0  0  0  0  0  0  0  0  0  0
   -5.7490   20.3120  -32.4310 C   0  0  2  0  0  0  0  0  0  0  0  0
   -6.3320   19.5080  -31.2400 C   0  0  0  0  0  0  0  0  0  0  0  0
   -5.1940   21.6140  -31.8040 C   0  0  0  0  0  0  0  0  0  0  0  0
   -5.8410   22.8390  -32.0740 C   0  0  0  0  0  0  0  0  0  0  0  0
   -5.3370   24.0450  -31.5870 C   0  0  0  0  0  0  0  0  0  0  0  0
   -4.1580   24.0670  -30.8430 C   0  0  0  0  0  0  0  0  0  0  0  0
   -3.6690   25.2820  -30.3760 O   0  0  0  0  0  0  0  0  0  0  0  0
   -3.4710   22.8710  -30.5840 C   0  0  0  0  0  0  0  0  0  0  0  0
   -2.1720   22.8920  -29.8280 C   0  0  0  0  0  0  0  0  0  0  0  0
   -3.9720   21.6600  -31.0910 C   0  0  0  0  0  0  0  0  0  0  0  0
   -4.6320   19.5210  -33.1540 C   0  0  0  0  0  0  0  0  0  0  0  0
   -3.3880   20.1290  -33.4240 C   0  0  0  0  0  0  0  0  0  0  0  0
   -2.3810   19.4490  -34.1080 C   0  0  0  0  0  0  0  0  0  0  0  0
   -2.5950   18.1410  -34.5750 C   0  0  0  0  0  0  0  0  0  0  0  0
   -1.5980   17.4160  -35.2530 O   0  0  0  0  0  0  0  0  0  0  0  0
   -0.4670   16.7840  -34.6490 C   0  0  0  0  0  0  0  0  0  0  0  0
    0.0830   15.6440  -35.5290 C   0  0  0  0  0  0  0  0  0  0  0  0
   -0.6760   15.4620  -36.7900 N   0  0  0  0  0  0  0  0  0  0  0  0
    0.2540   15.4740  -37.9340 C   0  0  0  0  0  0  0  0  0  0  0  0
   -1.4460   14.2040  -36.7930 C   0  0  0  0  0  0  0  0  0  0  0  0
   -3.8470   17.5370  -34.3710 C   0  0  0  0  0  0  0  0  0  0  0  0
   -4.0980   16.1390  -34.8640 C   0  0  0  0  0  0  0  0  0  0  0  0
   -4.8520   18.2260  -33.6720 C   0  0  0  0  0  0  0  0  0  0  0  0
   -8.3212   20.0479  -31.8814 H   0  0  0  0  0  0  0  0  0  0  0  0
   -9.0659   20.7406  -33.3621 H   0  0  0  0  0  0  0  0  0  0  0  0
   -8.4783   19.0431  -33.3621 H   0  0  0  0  0  0  0  0  0  0  0  0
   -6.6607   19.9962  -34.3772 H   0  0  0  0  0  0  0  0  0  0  0  0
   -6.9934   21.6243  -33.5889 H   0  0  0  0  0  0  0  0  0  0  0  0
   -6.0023   19.9627  -30.2942 H   0  0  0  0  0  0  0  0  0  0  0  0
   -7.4307   19.5227  -31.2905 H   0  0  0  0  0  0  0  0  0  0  0  0
   -5.9765   18.4682  -31.2905 H   0  0  0  0  0  0  0  0  0  0  0  0
   -6.7594   22.8427  -32.6795 H   0  0  0  0  0  0  0  0  0  0  0  0
   -5.8726   24.9839  -31.7910 H   0  0  0  0  0  0  0  0  0  0  0  0
   -2.3767   22.8887  -28.7472 H   0  0  0  0  0  0  0  0  0  0  0  0
   -1.5798   22.0033  -30.0918 H   0  0  0  0  0  0  0  0  0  0  0  0
   -1.6089   23.7994  -30.0918 H   0  0  0  0  0  0  0  0  0  0  0  0
   -3.4046   20.7313  -30.9310 H   0  0  0  0  0  0  0  0  0  0  0  0
   -3.2087   21.1609  -33.0880 H   0  0  0  0  0  0  0  0  0  0  0  0
   -1.4123   19.9399  -34.2833 H   0  0  0  0  0  0  0  0  0  0  0  0
    0.3240   17.5339  -34.5006 H   0  0  0  0  0  0  0  0  0  0  0  0
   -0.7856   16.3538  -33.6881 H   0  0  0  0  0  0  0  0  0  0  0  0
    1.1297   15.8701  -35.7804 H   0  0  0  0  0  0  0  0  0  0  0  0
   -0.0111   14.7116  -34.9530 H   0  0  0  0  0  0  0  0  0  0  0  0
   -1.3420   16.2620  -36.9130 H   0  0  0  0  0  0  0  0  0  0  0  0
    1.2899   15.4874  -37.5643 H   0  0  0  0  0  0  0  0  0  0  0  0
    0.0946   14.5737  -38.5456 H   0  0  0  0  0  0  0  0  0  0  0  0
    0.0714   16.3699  -38.5456 H   0  0  0  0  0  0  0  0  0  0  0  0
   -1.6385   13.8895  -35.7567 H   0  0  0  0  0  0  0  0  0  0  0  0
   -2.4029   14.3610  -37.3123 H   0  0  0  0  0  0  0  0  0  0  0  0
   -0.8708   13.4233  -37.3123 H   0  0  0  0  0  0  0  0  0  0  0  0
   -4.2193   15.4633  -34.0045 H   0  0  0  0  0  0  0  0  0  0  0  0
   -5.0132   16.1241  -35.4741 H   0  0  0  0  0  0  0  0  0  0  0  0
   -3.2452   15.8067  -35.4741 H   0  0  0  0  0  0  0  0  0  0  0  0
   -5.8310   17.7465  -33.5251 H   0  0  0  0  0  0  0  0  0  0  0  0
  1  2  1  0
  3  2  1  6
  3  4  1  0
  3  5  1  0
  5  6  2  0
  6  7  1  0
  7  8  2  0
  8  9  1  0
  8 10  1  0
 10 11  1  0
 10 12  2  0
  3 13  1  0
 13 14  2  0
 14 15  1  0
 15 16  2  0
 16 17  1  0
 17 18  1  0
 18 19  1  0
 19 20  1  0
 20 21  1  0
 20 22  1  0
 16 23  1  0
 23 24  1  0
 23 25  2  0
 12  5  1  0
 25 13  1  0
  1 26  1  0
  1 27  1  0
  1 28  1  0
  2 29  1  0
  2 30  1  0
  4 31  1  0
  4 32  1  0
  4 33  1  0
  6 34  1  0
  7 35  1  0
 11 36  1  0
 11 37  1  0
 11 38  1  0
 12 39  1  0
 14 40  1  0
 15 41  1  0
 18 42  1  0
 18 43  1  0
 19 44  1  0
 19 45  1  0
 20 46  1  0
 21 47  1  0
 21 48  1  0
 21 49  1  0
 22 50  1  0
 22 51  1  0
 22 52  1  0
 24 53  1  0
 24 54  1  0
 24 55  1  0
 25 56  1  0
M  CHG  2   9  -1  20   1
M  END
>  <UniqueID>  (6) 
6

>  <SMILES>  (6) 
CC[C@](C)(c1ccc([O-])c(C)c1)c1ccc(OCC[NH+](C)C)c(C)c1

>  <Energy>  (6) 
63.891438605364286

>  <Genealogy>  (6) 
CCC(C)(c1ccc([O-])c(C)c1)c1ccc(OCC[NH+](C)C)c(C)c1 (protonated)
CC[C@](C)(c1ccc([O-])c(C)c1)c1ccc(OCC[NH+](C)C)c(C)c1 (chirality)
CC[C@](C)(c1ccc([O-])c(C)c1)c1ccc(OCC[NH+](C)C)c(C)c1 (3D coordinates assigned)
CC[C@](C)(c1ccc([O-])c(C)c1)c1ccc(OCC[NH+](C)C)c(C)c1 (optimized conformer: 63.891438605364286 kcal/mol)

>  <smiles>  (6) 
CCC(C)(c1ccc(O)c(C)c1)c1ccc(OCCN(C)C)c(C)c1

>  <score_type>  (6) 
oracle

>  <origin>  (6) 
adgpu

>  <m_score__min__energy>  (6) 
-10.32

>  <m_primary>  (6) 
energy

$$$$
6:0
     RDKit          3D

 38 41  0  0  0  0  0  0  0  0999 V2000
   -1.5170   17.8710  -33.2640 Cl  0  0  0  0  0  0  0  0  0  0  0  0
   -2.0120   19.3900  -32.5390 C   0  0  0  0  0  0  0  0  0  0  0  0
   -1.3630   19.8640  -31.3970 C   0  0  0  0  0  0  0  0  0  0  0  0
   -1.7420   21.0830  -30.8290 C   0  0  0  0  0  0  0  0  0  0  0  0
   -2.7760   21.8480  -31.4030 C   0  0  0  0  0  0  0  0  0  0  0  0
   -3.1140   23.1750  -30.8300 C   0  0  0  0  0  0  0  0  0  0  0  0
   -2.5020   23.8130  -29.7690 C   0  0  0  0  0  0  0  0  0  0  0  0
   -3.1920   24.9270  -29.4650 N   0  0  0  0  0  0  0  0  0  0  0  0
   -4.1950   24.9440  -30.3680 C   0  0  0  0  0  0  0  0  0  0  0  0
   -5.3310   25.9170  -30.3090 C   0  0  0  0  0  0  0  0  0  0  0  0
   -6.8020   25.1680  -29.5160 S   0  0  0  0  0  0  0  0  0  0  0  0
   -7.0550   23.9230  -30.7800 C   0  0  0  0  0  0  0  0  0  0  0  0
   -6.8580   24.1380  -32.0930 N   0  0  0  0  0  0  0  0  0  0  0  0
   -7.0240   22.9650  -32.6760 N   0  0  0  0  0  0  0  0  0  0  0  0
   -7.3060   22.0610  -31.7180 C   0  0  0  0  0  0  0  0  0  0  0  0
   -7.4450   20.5980  -31.9300 C   0  0  0  0  0  0  0  0  0  0  0  0
   -6.4040   19.8820  -32.5530 C   0  0  0  0  0  0  0  0  0  0  0  0
   -6.5390   18.5150  -32.8130 C   0  0  0  0  0  0  0  0  0  0  0  0
   -7.7100   17.8460  -32.4530 C   0  0  0  0  0  0  0  0  0  0  0  0
   -8.7470   18.5410  -31.8300 C   0  0  0  0  0  0  0  0  0  0  0  0
   -8.6190   19.9100  -31.5680 C   0  0  0  0  0  0  0  0  0  0  0  0
   -7.3430   22.6350  -30.4980 N   0  0  0  0  0  0  0  0  0  0  0  0
   -4.1850   23.8920  -31.2110 N   0  0  0  0  0  0  0  0  0  0  0  0
   -3.4300   21.3560  -32.5470 C   0  0  0  0  0  0  0  0  0  0  0  0
   -3.0470   20.1330  -33.1110 C   0  0  0  0  0  0  0  0  0  0  0  0
   -0.5513   19.2762  -30.9435 H   0  0  0  0  0  0  0  0  0  0  0  0
   -1.2291   21.4479  -29.9269 H   0  0  0  0  0  0  0  0  0  0  0  0
   -1.5942   23.4653  -29.2541 H   0  0  0  0  0  0  0  0  0  0  0  0
   -5.0195   26.7978  -29.7284 H   0  0  0  0  0  0  0  0  0  0  0  0
   -5.5974   26.2050  -31.3367 H   0  0  0  0  0  0  0  0  0  0  0  0
   -6.9110   22.8070  -33.7010 H   0  0  0  0  0  0  0  0  0  0  0  0
   -5.4776   20.4026  -32.8371 H   0  0  0  0  0  0  0  0  0  0  0  0
   -5.7210   17.9657  -33.3021 H   0  0  0  0  0  0  0  0  0  0  0  0
   -7.8152   16.7709  -32.6605 H   0  0  0  0  0  0  0  0  0  0  0  0
   -9.6678   18.0116  -31.5439 H   0  0  0  0  0  0  0  0  0  0  0  0
   -9.4405   20.4517  -31.0763 H   0  0  0  0  0  0  0  0  0  0  0  0
   -4.2472   21.9355  -33.0013 H   0  0  0  0  0  0  0  0  0  0  0  0
   -3.5626   19.7565  -34.0068 H   0  0  0  0  0  0  0  0  0  0  0  0
  1  2  1  0
  2  3  2  0
  3  4  1  0
  4  5  2  0
  5  6  1  0
  6  7  2  0
  7  8  1  0
  8  9  1  0
  9 10  1  0
 10 11  1  0
 11 12  1  0
 12 13  2  0
 13 14  1  0
 14 15  1  0
 15 16  1  0
 16 17  2  0
 17 18  1  0
 18 19  2  0
 19 20  1  0
 20 21  2  0
 15 22  2  0
  9 23  2  0
  5 24  1  0
 24 25  2  0
 25  2  1  0
 23  6  1  0
 22 12  1  0
 21 16  1  0
  3 26  1  0
  4 27  1  0
  7 28  1  0
 10 29  1  0
 10 30  1  0
 14 31  1  0
 17 32  1  0
 18 33  1  0
 19 34  1  0
 20 35  1  0
 21 36  1  0
 24 37  1  0
 25 38  1  0
M  CHG  1   8  -1
M  END
>  <UniqueID>  (7) 
7

>  <SMILES>  (7) 
Clc1ccc(-c2c[n-]c(CSc3n[nH]c(-c4ccccc4)n3)n2)cc1

>  <Energy>  (7) 
96.3064688062945

>  <Genealogy>  (7) 
Clc1ccc(-c2c[n-]c(CSc3n[nH]c(-c4ccccc4)n3)n2)cc1 (protonated)
Clc1ccc(-c2c[n-]c(CSc3n[nH]c(-c4ccccc4)n3)n2)cc1 (3D coordinates assigned)
Clc1ccc(-c2c[n-]c(CSc3n[nH]c(-c4ccccc4)n3)n2)cc1 (optimized conformer: 96.3064688062945 kcal/mol)

>  <smiles>  (7) 
Clc1ccc(-c2c[nH]c(CSc3n[nH]c(-c4ccccc4)n3)n2)cc1

>  <score_type>  (7) 
oracle

>  <origin>  (7) 
adgpu

>  <m_score__min__energy>  (7) 
-10.119999999999999

>  <m_primary>  (7) 
energy

$$$$
7:0
     RDKit          3D

 33 34  0  0  1  0  0  0  0  0999 V2000
   -2.3970   24.5440  -28.8190 C   0  0  0  0  0  0  0  0  0  0  0  0
   -3.0980   23.8620  -29.8840 N   0  0  0  0  0  0  0  0  0  0  0  0
   -4.3230   24.0780  -30.1370 C   0  0  0  0  0  0  0  0  0  0  0  0
   -5.0940   24.9570  -29.4480 N   0  0  0  0  0  0  0  0  0  0  0  0
   -6.3920   25.1600  -29.7330 C   0  0  0  0  0  0  0  0  0  0  0  0
   -6.9680   24.4720  -30.7360 N   0  0  0  0  0  0  0  0  0  0  0  0
   -6.2840   23.5710  -31.4830 C   0  0  0  0  0  0  0  0  0  0  0  0
   -6.8960   22.8440  -32.5420 N   0  0  0  0  0  0  0  0  0  0  0  0
   -7.4190   21.5440  -32.4310 C   0  0  0  0  0  0  0  0  0  0  0  0
   -8.6250   21.2430  -31.8440 C   0  0  0  0  0  0  0  0  0  0  0  0
   -9.0840   19.9510  -31.7970 C   0  0  0  0  0  0  0  0  0  0  0  0
   -8.3330   18.9250  -32.3440 C   0  0  0  0  0  0  0  0  0  0  0  0
   -7.1210   19.1840  -32.9380 C   0  0  0  0  0  0  0  0  0  0  0  0
   -6.2300   17.8640  -33.6450 S   0  0  0  0  0  0  0  0  0  0  0  0
   -5.7380   18.2120  -35.2760 N   0  0  0  0  0  0  0  0  0  0  0  0
   -7.1830   16.6880  -33.6840 O   0  0  0  0  0  0  0  0  0  0  0  0
   -5.0590   17.5450  -32.7730 O   0  0  0  0  0  0  0  0  0  0  0  0
   -6.6990   20.4880  -32.9640 C   0  0  0  0  0  0  0  0  0  0  0  0
   -4.9350   23.3840  -31.1640 C   0  0  0  0  0  0  0  0  0  0  0  0
   -4.1890   22.4290  -31.9830 C   0  0  0  0  0  0  0  0  0  0  0  0
   -3.5930   21.6700  -32.6610 N   0  0  0  0  0  0  0  0  0  0  0  0
   -2.7667   24.1843  -27.8475 H   0  0  0  0  0  0  0  0  0  0  0  0
   -1.3192   24.3395  -28.8997 H   0  0  0  0  0  0  0  0  0  0  0  0
   -2.5718   25.6270  -28.8997 H   0  0  0  0  0  0  0  0  0  0  0  0
   -4.6100   25.4740  -28.6780 H   0  0  0  0  0  0  0  0  0  0  0  0
   -6.9798   25.8842  -29.1498 H   0  0  0  0  0  0  0  0  0  0  0  0
   -6.9440   23.3620  -33.4740 H   0  0  0  0  0  0  0  0  0  0  0  0
   -9.2308   22.0497  -31.4056 H   0  0  0  0  0  0  0  0  0  0  0  0
  -10.0518   19.7298  -31.3232 H   0  0  0  0  0  0  0  0  0  0  0  0
   -8.7099   17.8924  -32.3029 H   0  0  0  0  0  0  0  0  0  0  0  0
   -5.7080   17.2900  -35.7840 H   0  0  0  0  0  0  0  0  0  0  0  0
   -6.5410   18.7530  -35.7060 H   0  0  0  0  0  0  0  0  0  0  0  0
   -5.7305   20.7087  -33.4365 H   0  0  0  0  0  0  0  0  0  0  0  0
  1  2  1  0
  2  3  2  0
  3  4  1  0
  4  5  1  0
  5  6  2  0
  6  7  1  0
  7  8  1  0
  8  9  1  0
  9 10  2  0
 10 11  1  0
 11 12  2  0
 12 13  1  0
 13 14  1  0
 14 15  1  0
 14 16  2  0
 14 17  2  0
 13 18  2  0
  7 19  2  0
 19 20  1  0
 20 21  3  0
 19  3  1  0
 18  9  1  0
  1 22  1  0
  1 23  1  0
  1 24  1  0
  4 25  1  0
  5 26  1  0
  8 27  1  0
 10 28  1  0
 11 29  1  0
 12 30  1  0
 15 31  1  0
 15 32  1  0
 18 33  1  0
M  END
>  <smiles>  (8) 
CN=c1[nH]cnc(Nc2cccc(S(N)(=O)=O)c2)c1C#N

>  <score_type>  (8) 
oracle

>  <origin>  (8) 
adgpu

>  <m_score__min__energy>  (8) 
-8.4399999999999995

>  <m_primary>  (8) 
energy

$$$$
8:0
     RDKit          3D

 38 40  0  0  0  0  0  0  0  0999 V2000
   -2.1660   21.9220  -31.5560 C   0  0  0  0  0  0  0  0  0  0  0  0
   -3.6500   22.0190  -31.4060 C   0  0  0  0  0  0  0  0  0  0  0  0
   -4.4930   21.0260  -31.7510 N   0  0  0  0  0  0  0  0  0  0  0  0
   -5.7280   21.4310  -31.4910 N   0  0  0  0  0  0  0  0  0  0  0  0
   -6.8830   20.6080  -31.7220 C   0  0  0  0  0  0  0  0  0  0  0  0
   -8.1090   21.1760  -32.1120 C   0  0  0  0  0  0  0  0  0  0  0  0
   -9.2190   20.3610  -32.3530 C   0  0  0  0  0  0  0  0  0  0  0  0
   -9.1120   18.9740  -32.2200 C   0  0  0  0  0  0  0  0  0  0  0  0
   -7.8930   18.4000  -31.8530 C   0  0  0  0  0  0  0  0  0  0  0  0
   -6.7800   19.2120  -31.6110 C   0  0  0  0  0  0  0  0  0  0  0  0
   -5.6930   22.6760  -30.9640 C   0  0  0  0  0  0  0  0  0  0  0  0
   -7.0880   23.5460  -30.3260 Cl  0  0  0  0  0  0  0  0  0  0  0  0
   -4.3720   23.0880  -30.8940 C   0  0  0  0  0  0  0  0  0  0  0  0
   -3.8480   24.3650  -30.3690 C   0  0  0  0  0  0  0  0  0  0  0  0
   -4.2600   25.4580  -30.8430 O   0  0  0  0  0  0  0  0  0  0  0  0
   -2.8930   24.3570  -29.3470 O   0  0  0  0  0  0  0  0  0  0  0  0
   -3.2050   24.0890  -27.9810 C   0  0  0  0  0  0  0  0  0  0  0  0
   -2.6360   22.7590  -27.5680 C   0  0  0  0  0  0  0  0  0  0  0  0
   -3.3080   21.5650  -27.8780 C   0  0  0  0  0  0  0  0  0  0  0  0
   -2.7800   20.3360  -27.4710 C   0  0  0  0  0  0  0  0  0  0  0  0
   -1.5830   20.2920  -26.7500 C   0  0  0  0  0  0  0  0  0  0  0  0
   -0.9120   21.4760  -26.4350 C   0  0  0  0  0  0  0  0  0  0  0  0
   -1.4370   22.7070  -26.8400 C   0  0  0  0  0  0  0  0  0  0  0  0
   -1.6981   21.8914  -30.5609 H   0  0  0  0  0  0  0  0  0  0  0  0
   -1.9125   21.0054  -32.1087 H   0  0  0  0  0  0  0  0  0  0  0  0
   -1.7953   22.7978  -32.1087 H   0  0  0  0  0  0  0  0  0  0  0  0
   -8.1949   22.2665  -32.2279 H   0  0  0  0  0  0  0  0  0  0  0  0
  -10.1780   20.8121  -32.6477 H   0  0  0  0  0  0  0  0  0  0  0  0
   -9.9878   18.3345  -32.4044 H   0  0  0  0  0  0  0  0  0  0  0  0
   -7.8079   17.3078  -31.7541 H   0  0  0  0  0  0  0  0  0  0  0  0
   -5.8192   18.7546  -31.3323 H   0  0  0  0  0  0  0  0  0  0  0  0
   -2.7755   24.8799  -27.3485 H   0  0  0  0  0  0  0  0  0  0  0  0
   -4.2982   24.0638  -27.8614 H   0  0  0  0  0  0  0  0  0  0  0  0
   -4.2517   21.5970  -28.4422 H   0  0  0  0  0  0  0  0  0  0  0  0
   -3.3070   19.4027  -27.7184 H   0  0  0  0  0  0  0  0  0  0  0  0
   -1.1692   19.3242  -26.4305 H   0  0  0  0  0  0  0  0  0  0  0  0
    0.0299   21.4399  -25.8680 H   0  0  0  0  0  0  0  0  0  0  0  0
   -0.9085   23.6380  -26.5872 H   0  0  0  0  0  0  0  0  0  0  0  0
  1  2  1  0
  2  3  2  0
  3  4  1  0
  4  5  1  0
  5  6  2  0
  6  7  1  0
  7  8  2  0
  8  9  1  0
  9 10  2  0
  4 11  1  0
 11 12  1  0
 11 13  2  0
 13 14  1  0
 14 15  2  0
 14 16  1  0
 16 17  1  0
 17 18  1  0
 18 19  2  0
 19 20  1  0
 20 21  2  0
 21 22  1  0
 22 23  2  0
 13  2  1  0
 23 18  1  0
 10  5  1  0
  1 24  1  0
  1 25  1  0
  1 26  1  0
  6 27  1  0
  7 28  1  0
  8 29  1  0
  9 30  1  0
 10 31  1  0
 17 32  1  0
 17 33  1  0
 19 34  1  0
 20 35  1  0
 21 36  1  0
 22 37  1  0
 23 38  1  0
M  END
>  <UniqueID>  (9) 
8

>  <SMILES>  (9) 
Cc1nn(-c2ccccc2)c(Cl)c1C(=O)OCc1ccccc1

>  <Energy>  (9) 
73.94786369614893

>  <Genealogy>  (9) 
Cc1nn(-c2ccccc2)c(Cl)c1C(=O)OCc1ccccc1 (3D coordinates assigned)
Cc1nn(-c2ccccc2)c(Cl)c1C(=O)OCc1ccccc1 (optimized conformer: 73.94786369614893 kcal/mol)

>  <smiles>  (9) 
Cc1nn(-c2ccccc2)c(Cl)c1C(=O)OCc1ccccc1

>  <score_type>  (9) 
oracle

>  <origin>  (9) 
adgpu

>  <m_score__min__energy>  (9) 
-8.5700000000000003

>  <m_primary>  (9) 
energy

$$$$
9:0
     RDKit          3D

 39 42  0  0  0  0  0  0  0  0999 V2000
   -3.5090   20.4880  -32.2300 C   0  0  0  0  0  0  0  0  0  0  0  0
   -3.9510   21.8100  -31.6850 C   0  0  0  0  0  0  0  0  0  0  0  0
   -3.0850   22.7770  -31.3120 N   0  0  0  0  0  0  0  0  0  0  0  0
   -3.7450   23.8360  -30.8670 N   0  0  0  0  0  0  0  0  0  0  0  0
   -5.0560   23.5460  -30.9550 C   0  0  0  0  0  0  0  0  0  0  0  0
   -6.1270   24.3730  -30.5960 C   0  0  0  0  0  0  0  0  0  0  0  0
   -5.9430   25.6910  -30.0650 N   0  0  0  0  0  0  0  0  0  0  0  0
   -6.4690   26.0570  -28.9940 O   0  0  0  0  0  0  0  0  0  0  0  0
   -7.4260   23.8720  -30.7690 C   0  0  0  0  0  0  0  0  0  0  0  0
   -7.6420   22.5750  -31.2890 C   0  0  0  0  0  0  0  0  0  0  0  0
   -8.9490   22.1000  -31.4540 C   0  0  0  0  0  0  0  0  0  0  0  0
   -9.1790   20.8220  -31.9660 C   0  0  0  0  0  0  0  0  0  0  0  0
   -8.1030   19.9900  -32.3220 C   0  0  0  0  0  0  0  0  0  0  0  0
   -8.3120   18.6640  -32.8480 N   0  0  0  0  0  0  0  0  0  0  0  0
   -7.6090   17.4670  -32.3840 C   0  0  0  0  0  0  0  0  0  0  0  0
   -6.3020   17.3090  -33.1030 C   0  0  0  0  0  0  0  0  0  0  0  0
   -6.0740   17.9660  -34.3230 C   0  0  0  0  0  0  0  0  0  0  0  0
   -4.8470   17.8050  -34.9680 C   0  0  0  0  0  0  0  0  0  0  0  0
   -3.8630   16.9940  -34.3980 C   0  0  0  0  0  0  0  0  0  0  0  0
   -4.1260   16.3520  -33.1860 C   0  0  0  0  0  0  0  0  0  0  0  0
   -5.3270   16.5210  -32.5720 N   0  0  0  0  0  0  0  0  0  0  0  0
   -6.7900   20.4630  -32.1660 C   0  0  0  0  0  0  0  0  0  0  0  0
   -6.5400   21.7480  -31.6510 C   0  0  0  0  0  0  0  0  0  0  0  0
   -5.2450   22.2780  -31.4650 C   0  0  0  0  0  0  0  0  0  0  0  0
   -3.2810   19.8060  -31.3976 H   0  0  0  0  0  0  0  0  0  0  0  0
   -4.3124   20.0584  -32.8465 H   0  0  0  0  0  0  0  0  0  0  0  0
   -2.6088   20.6280  -32.8465 H   0  0  0  0  0  0  0  0  0  0  0  0
   -2.0430   22.7210  -31.3580 H   0  0  0  0  0  0  0  0  0  0  0  0
   -8.2889   24.4972  -30.4962 H   0  0  0  0  0  0  0  0  0  0  0  0
   -9.8009   22.7389  -31.1780 H   0  0  0  0  0  0  0  0  0  0  0  0
  -10.2110   20.4627  -32.0920 H   0  0  0  0  0  0  0  0  0  0  0  0
   -8.9770   18.5430  -33.6450 H   0  0  0  0  0  0  0  0  0  0  0  0
   -7.4190   17.5554  -31.3042 H   0  0  0  0  0  0  0  0  0  0  0  0
   -8.2352   16.5864  -32.5899 H   0  0  0  0  0  0  0  0  0  0  0  0
   -6.8550   18.6014  -34.7660 H   0  0  0  0  0  0  0  0  0  0  0  0
   -4.6552   18.3157  -35.9232 H   0  0  0  0  0  0  0  0  0  0  0  0
   -2.8921   16.8625  -34.8980 H   0  0  0  0  0  0  0  0  0  0  0  0
   -3.3604   15.7088  -32.7276 H   0  0  0  0  0  0  0  0  0  0  0  0
   -5.9446   19.8193  -32.4507 H   0  0  0  0  0  0  0  0  0  0  0  0
  1  2  1  0
  2  3  1  0
  3  4  1  0
  4  5  2  0
  5  6  1  0
  6  7  1  0
  7  8  2  0
  6  9  2  0
  9 10  1  0
 10 11  2  0
 11 12  1  0
 12 13  2  0
 13 14  1  0
 14 15  1  0
 15 16  1  0
 16 17  2  0
 17 18  1  0
 18 19  2  0
 19 20  1  0
 20 21  2  0
 13 22  1  0
 22 23  2  0
 23 24  1  0
 24  2  2  0
 24  5  1  0
 23 10  1  0
 21 16  1  0
  1 25  1  0
  1 26  1  0
  1 27  1  0
  3 28  1  0
  9 29  1  0
 11 30  1  0
 12 31  1  0
 14 32  1  0
 15 33  1  0
 15 34  1  0
 17 35  1  0
 18 36  1  0
 19 37  1  0
 20 38  1  0
 22 39  1  0
M  END
>  <UniqueID>  (10) 
9

>  <SMILES>  (10) 
Cc1[nH]nc2c(N=O)cc3ccc(NCc4ccccn4)cc3c12

>  <Energy>  (10) 
87.16210796857614

>  <Genealogy>  (10) 
Cc1[nH]nc2c(N=O)cc3ccc(NCc4ccccn4)cc3c12 (3D coordinates assigned)
Cc1[nH]nc2c(N=O)cc3ccc(NCc4ccccn4)cc3c12 (optimized conformer: 87.16210796857614 kcal/mol)

>  <smiles>  (10) 
Cc1[nH]nc2c(N=O)cc3ccc(NCc4ccccn4)cc3c12

>  <score_type>  (10) 
oracle

>  <origin>  (10) 
adgpu

>  <m_score__min__energy>  (10) 
-9.6899999999999995

>  <m_primary>  (10) 
energy

$$$$
10:0
     RDKit          3D

 29 30  0  0  0  0  0  0  0  0999 V2000
   -4.3450   25.3030  -30.8140 N   0  0  0  0  0  0  0  0  0  0  0  0
   -5.3300   24.3030  -31.0890 C   0  0  0  0  0  0  0  0  0  0  0  0
   -6.6400   24.4510  -30.6090 C   0  0  0  0  0  0  0  0  0  0  0  0
   -7.6030   23.4740  -30.8780 C   0  0  0  0  0  0  0  0  0  0  0  0
   -7.2660   22.3420  -31.6310 C   0  0  0  0  0  0  0  0  0  0  0  0
   -8.4770   21.1130  -31.9860 S   0  0  0  0  0  0  0  0  0  0  0  0
   -8.6670   20.2560  -30.7670 O   0  0  0  0  0  0  0  0  0  0  0  0
   -9.7910   21.7490  -32.3450 O   0  0  0  0  0  0  0  0  0  0  0  0
   -7.9490   20.1190  -33.3070 N   0  0  0  0  0  0  0  0  0  0  0  0
   -6.9460   19.0930  -33.1920 C   0  0  0  0  0  0  0  0  0  0  0  0
   -7.0100   18.1940  -32.1140 C   0  0  0  0  0  0  0  0  0  0  0  0
   -6.0480   17.1880  -31.9700 C   0  0  0  0  0  0  0  0  0  0  0  0
   -5.0160   17.0690  -32.9020 C   0  0  0  0  0  0  0  0  0  0  0  0
   -4.9450   17.9510  -33.9810 C   0  0  0  0  0  0  0  0  0  0  0  0
   -5.9040   18.9590  -34.1310 C   0  0  0  0  0  0  0  0  0  0  0  0
   -5.9570   22.1900  -32.1070 C   0  0  0  0  0  0  0  0  0  0  0  0
   -4.9930   23.1660  -31.8370 C   0  0  0  0  0  0  0  0  0  0  0  0
   -4.2180   25.6750  -29.8470 H   0  0  0  0  0  0  0  0  0  0  0  0
   -3.7360   25.6760  -31.5750 H   0  0  0  0  0  0  0  0  0  0  0  0
   -6.9103   25.3391  -30.0188 H   0  0  0  0  0  0  0  0  0  0  0  0
   -8.6280   23.5945  -30.4974 H   0  0  0  0  0  0  0  0  0  0  0  0
   -8.4440   20.2430  -34.2180 H   0  0  0  0  0  0  0  0  0  0  0  0
   -7.8225   18.2817  -31.3777 H   0  0  0  0  0  0  0  0  0  0  0  0
   -6.1052   16.4904  -31.1215 H   0  0  0  0  0  0  0  0  0  0  0  0
   -4.2585   16.2799  -32.7860 H   0  0  0  0  0  0  0  0  0  0  0  0
   -4.1325   17.8536  -34.7161 H   0  0  0  0  0  0  0  0  0  0  0  0
   -5.8442   19.6494  -34.9853 H   0  0  0  0  0  0  0  0  0  0  0  0
   -5.6870   21.3003  -32.6948 H   0  0  0  0  0  0  0  0  0  0  0  0
   -3.9667   23.0414  -32.2127 H   0  0  0  0  0  0  0  0  0  0  0  0
  1  2  1  0
  2  3  2  0
  3  4  1  0
  4  5  2  0
  5  6  1  0
  6  7  2  0
  6  8  2  0
  6  9  1  0
  9 10  1  0
 10 11  2  0
 11 12  1  0
 12 13  2  0
 13 14  1  0
 14 15  2  0
  5 16  1  0
 16 17  2  0
 17  2  1  0
 15 10  1  0
  1 18  1  0
  1 19  1  0
  3 20  1  0
  4 21  1  0
  9 22  1  0
 11 23  1  0
 12 24  1  0
 13 25  1  0
 14 26  1  0
 15 27  1  0
 16 28  1  0
 17 29  1  0
M  END
>  <UniqueID>  (11) 
10

>  <SMILES>  (11) 
Nc1ccc(S(=O)(=O)Nc2ccccc2)cc1

>  <Energy>  (11) 
31.26536938719731

>  <Genealogy>  (11) 
Nc1ccc(S(=O)(=O)Nc2ccccc2)cc1 (3D coordinates assigned)
Nc1ccc(S(=O)(=O)Nc2ccccc2)cc1 (optimized conformer: 31.26536938719731 kcal/mol)

>  <smiles>  (11) 
Nc1ccc(S(=O)(=O)Nc2ccccc2)cc1

>  <score_type>  (11) 
oracle

>  <origin>  (11) 
adgpu

>  <m_score__min__energy>  (11) 
-7.8499999999999996

>  <m_primary>  (11) 
energy

$$$$
11:0
     RDKit          3D

 41 43  0  0  0  0  0  0  0  0999 V2000
   -1.8280   20.1150  -26.8030 C   0  0  0  0  0  0  0  0  0  0  0  0
   -1.7330   21.4630  -27.4520 C   0  0  0  0  0  0  0  0  0  0  0  0
   -0.4800   22.0470  -27.6880 C   0  0  0  0  0  0  0  0  0  0  0  0
   -0.3910   23.2860  -28.3250 C   0  0  0  0  0  0  0  0  0  0  0  0
   -1.5450   23.9470  -28.7570 C   0  0  0  0  0  0  0  0  0  0  0  0
   -1.4070   25.2130  -29.3260 O   0  0  0  0  0  0  0  0  0  0  0  0
   -2.8060   23.3310  -28.5880 C   0  0  0  0  0  0  0  0  0  0  0  0
   -4.0100   23.8930  -29.1290 N   0  0  0  0  0  0  0  0  0  0  0  0
   -4.1750   24.3520  -30.4790 C   0  0  0  0  0  0  0  0  0  0  0  0
   -3.9250   25.5540  -30.7500 O   0  0  0  0  0  0  0  0  0  0  0  0
   -4.5840   23.4700  -31.5320 N   0  0  0  0  0  0  0  0  0  0  0  0
   -3.8650   22.3060  -31.9620 C   0  0  0  0  0  0  0  0  0  0  0  0
   -2.5170   22.1190  -31.6100 C   0  0  0  0  0  0  0  0  0  0  0  0
   -1.8210   20.9930  -32.0570 C   0  0  0  0  0  0  0  0  0  0  0  0
   -2.4680   20.0410  -32.8460 C   0  0  0  0  0  0  0  0  0  0  0  0
   -3.8160   20.2040  -33.1780 C   0  0  0  0  0  0  0  0  0  0  0  0
   -4.5290   21.3280  -32.7210 C   0  0  0  0  0  0  0  0  0  0  0  0
   -5.8740   21.5360  -33.0630 O   0  0  0  0  0  0  0  0  0  0  0  0
   -6.9490   20.7270  -32.6680 C   0  0  0  0  0  0  0  0  0  0  0  0
   -8.0640   21.2510  -31.9850 C   0  0  0  0  0  0  0  0  0  0  0  0
   -9.1220   20.4130  -31.6220 C   0  0  0  0  0  0  0  0  0  0  0  0
   -9.0850   19.0550  -31.9470 C   0  0  0  0  0  0  0  0  0  0  0  0
   -7.9900   18.5330  -32.6430 C   0  0  0  0  0  0  0  0  0  0  0  0
   -6.9300   19.3680  -33.0070 C   0  0  0  0  0  0  0  0  0  0  0  0
   -2.8910   22.1090  -27.9080 C   0  0  0  0  0  0  0  0  0  0  0  0
   -1.8197   20.2332  -25.7094 H   0  0  0  0  0  0  0  0  0  0  0  0
   -2.7629   19.6245  -27.1117 H   0  0  0  0  0  0  0  0  0  0  0  0
   -0.9711   19.4982  -27.1117 H   0  0  0  0  0  0  0  0  0  0  0  0
    0.4357   21.5270  -27.3701 H   0  0  0  0  0  0  0  0  0  0  0  0
    0.5948   23.7460  -28.4884 H   0  0  0  0  0  0  0  0  0  0  0  0
   -2.1570   25.6750  -29.8240 H   0  0  0  0  0  0  0  0  0  0  0  0
   -2.0077   22.8627  -30.9796 H   0  0  0  0  0  0  0  0  0  0  0  0
   -0.7633   20.8569  -31.7871 H   0  0  0  0  0  0  0  0  0  0  0  0
   -1.9162   19.1607  -33.2073 H   0  0  0  0  0  0  0  0  0  0  0  0
   -4.3218   19.4503  -33.7993 H   0  0  0  0  0  0  0  0  0  0  0  0
   -8.1021   22.3220  -31.7368 H   0  0  0  0  0  0  0  0  0  0  0  0
   -9.9859   20.8239  -31.0790 H   0  0  0  0  0  0  0  0  0  0  0  0
   -9.9166   18.3966  -31.6557 H   0  0  0  0  0  0  0  0  0  0  0  0
   -7.9630   17.4648  -32.9041 H   0  0  0  0  0  0  0  0  0  0  0  0
   -6.0754   18.9554  -33.5632 H   0  0  0  0  0  0  0  0  0  0  0  0
   -3.8756   21.6519  -27.7301 H   0  0  0  0  0  0  0  0  0  0  0  0
  1  2  1  0
  2  3  2  0
  3  4  1  0
  4  5  2  0
  5  6  1  0
  5  7  1  0
  7  8  1  0
  8  9  1  0
  9 10  2  0
  9 11  1  0
 11 12  1  0
 12 13  2  0
 13 14  1  0
 14 15  2  0
 15 16  1  0
 16 17  2  0
 17 18  1  0
 18 19  1  0
 19 20  2  0
 20 21  1  0
 21 22  2  0
 22 23  1  0
 23 24  2  0
  7 25  2  0
 25  2  1  0
 17 12  1  0
 24 19  1  0
  1 26  1  0
  1 27  1  0
  1 28  1  0
  3 29  1  0
  4 30  1  0
  6 31  1  0
 13 32  1  0
 14 33  1  0
 15 34  1  0
 16 35  1  0
 20 36  1  0
 21 37  1  0
 22 38  1  0
 23 39  1  0
 24 40  1  0
 25 41  1  0
M  CHG  2   8  -1  11  -1
M  END
>  <UniqueID>  (12) 
11

>  <SMILES>  (12) 
Cc1ccc(O)c([N-]C(=O)[N-]c2ccccc2Oc2ccccc2)c1

>  <Energy>  (12) 
59.090696142341045

>  <Genealogy>  (12) 
Cc1ccc(O)c([N-]C(=O)[N-]c2ccccc2Oc2ccccc2)c1 (protonated)
Cc1ccc(O)c([N-]C(=O)[N-]c2ccccc2Oc2ccccc2)c1 (3D coordinates assigned)
Cc1ccc(O)c([N-]C(=O)[N-]c2ccccc2Oc2ccccc2)c1 (optimized conformer: 59.090696142341045 kcal/mol)

>  <smiles>  (12) 
Cc1ccc(O)c(NC(=O)Nc2ccccc2Oc2ccccc2)c1

>  <score_type>  (12) 
oracle

>  <origin>  (12) 
adgpu

>  <m_score__min__energy>  (12) 
-11.15

>  <m_primary>  (12) 
energy

$$$$
12:0
     RDKit          3D

 43 45  0  0  0  0  0  0  0  0999 V2000
   -5.1847   12.8036  -33.7133 H   0  0  0  0  0  0  0  0  0  0  0  0
   -5.3790   13.8680  -33.5150 C   0  0  0  0  0  0  0  0  0  0  0  0
   -6.3760   14.5390  -34.2250 C   0  0  0  0  0  0  0  0  0  0  0  0
   -6.9658   14.0029  -34.9832 H   0  0  0  0  0  0  0  0  0  0  0  0
   -6.6260   15.8910  -33.9740 C   0  0  0  0  0  0  0  0  0  0  0  0
   -7.4094   16.4163  -34.5400 H   0  0  0  0  0  0  0  0  0  0  0  0
   -5.8820   16.5840  -33.0020 C   0  0  0  0  0  0  0  0  0  0  0  0
   -6.1320   17.9790  -32.7450 N   0  0  0  0  0  0  0  0  0  0  0  0
   -6.9720   18.3810  -31.6160 C   0  0  0  0  0  0  0  0  0  0  0  0
   -6.4608   18.1363  -30.6732 H   0  0  0  0  0  0  0  0  0  0  0  0
   -7.1556   19.4646  -31.6631 H   0  0  0  0  0  0  0  0  0  0  0  0
   -7.9310   17.8443  -31.6631 H   0  0  0  0  0  0  0  0  0  0  0  0
   -5.4940   19.2040  -33.8040 S   0  0  0  0  0  0  0  0  0  0  0  0
   -4.1130   18.8270  -34.2620 O   0  0  0  0  0  0  0  0  0  0  0  0
   -6.3950   19.3330  -35.0010 O   0  0  0  0  0  0  0  0  0  0  0  0
   -5.3870   20.7350  -32.9420 C   0  0  0  0  0  0  0  0  0  0  0  0
   -6.5320   21.5050  -32.7020 C   0  0  0  0  0  0  0  0  0  0  0  0
   -7.5123   21.1554  -33.0581 H   0  0  0  0  0  0  0  0  0  0  0  0
   -6.4330   22.7170  -32.0110 C   0  0  0  0  0  0  0  0  0  0  0  0
   -7.3378   23.3144  -31.8253 H   0  0  0  0  0  0  0  0  0  0  0  0
   -5.1850   23.1790  -31.5510 C   0  0  0  0  0  0  0  0  0  0  0  0
   -5.0810   24.4610  -30.8150 C   0  0  0  0  0  0  0  0  0  0  0  0
   -6.1140   25.1620  -30.6350 O   0  0  0  0  0  0  0  0  0  0  0  0
   -3.7930   24.9400  -30.3910 N   0  0  0  0  0  0  0  0  0  0  0  0
   -3.0820   24.5890  -29.3540 C   0  0  0  0  0  0  0  0  0  0  0  0
   -3.4430   23.5200  -28.5040 C   0  0  0  0  0  0  0  0  0  0  0  0
   -4.3600   22.9442  -28.6978 H   0  0  0  0  0  0  0  0  0  0  0  0
   -2.6290   23.1990  -27.4170 C   0  0  0  0  0  0  0  0  0  0  0  0
   -2.9081   22.3728  -26.7466 H   0  0  0  0  0  0  0  0  0  0  0  0
   -1.4630   23.9240  -27.1800 C   0  0  0  0  0  0  0  0  0  0  0  0
   -0.4300   23.5270  -25.8190 Cl  0  0  0  0  0  0  0  0  0  0  0  0
   -1.1180   24.9620  -28.0480 C   0  0  0  0  0  0  0  0  0  0  0  0
   -0.1959   25.5368  -27.8769 H   0  0  0  0  0  0  0  0  0  0  0  0
   -1.9200   25.2640  -29.1050 N   0  0  0  0  0  0  0  0  0  0  0  0
   -1.6330   26.0470  -29.7360 H   0  0  0  0  0  0  0  0  0  0  0  0
   -4.0400   22.3990  -31.7990 C   0  0  0  0  0  0  0  0  0  0  0  0
   -3.0572   22.7447  -31.4460 H   0  0  0  0  0  0  0  0  0  0  0  0
   -4.1420   21.1890  -32.4900 C   0  0  0  0  0  0  0  0  0  0  0  0
   -3.2393   20.5898  -32.6800 H   0  0  0  0  0  0  0  0  0  0  0  0
   -4.8760   15.9000  -32.2970 C   0  0  0  0  0  0  0  0  0  0  0  0
   -4.2806   16.4315  -31.5400 H   0  0  0  0  0  0  0  0  0  0  0  0
   -4.6280   14.5470  -32.5530 C   0  0  0  0  0  0  0  0  0  0  0  0
   -3.8408   14.0176  -31.9961 H   0  0  0  0  0  0  0  0  0  0  0  0
  1  2  1  0
  2  3  2  0
  3  4  1  0
  3  5  1  0
  5  6  1  0
  5  7  2  0
  7  8  1  0
  8  9  1  0
  9 10  1  0
  9 11  1  0
  9 12  1  0
  8 13  1  0
 13 14  2  0
 13 15  2  0
 13 16  1  0
 16 17  2  0
 17 18  1  0
 17 19  1  0
 19 20  1  0
 19 21  2  0
 21 22  1  0
 22 23  2  0
 22 24  1  0
 24 25  2  0
 25 26  1  0
 26 27  1  0
 26 28  2  0
 28 29  1  0
 28 30  1  0
 30 31  1  0
 30 32  2  0
 32 33  1  0
 32 34  1  0
 34 35  1  0
 21 36  1  0
 36 37  1  0
 36 38  2  0
 38 39  1  0
  7 40  1  0
 40 41  1  0
 40 42  2  0
 42 43  1  0
 42  2  1  0
 38 16  1  0
 34 25  1  0
M  END
>  <UniqueID>  (13) 
12

>  <SMILES>  (13) 
CN(c1ccccc1)S(=O)(=O)c1ccc(C(=O)/N=c2\ccc(Cl)c[nH]2)cc1

>  <Energy>  (13) 
59.15384006337638

>  <Genealogy>  (13) 
CN(c1ccccc1)S(=O)(=O)c1ccc(C(=O)/N=c2\ccc(Cl)c[nH]2)cc1 (cis-trans isomerization)
CN(c1ccccc1)S(=O)(=O)c1ccc(C(=O)/N=c2\ccc(Cl)c[nH]2)cc1 (3D coordinates assigned)
CN(c1ccccc1)S(=O)(=O)c1ccc(C(=O)/N=c2\ccc(Cl)c[nH]2)cc1 (optimized conformer: 59.15384006337638 kcal/mol)

>  <smiles>  (13) 
CN(c1ccccc1)S(=O)(=O)c1ccc(C(=O)N=c2ccc(Cl)c[nH]2)cc1

>  <score_type>  (13) 
oracle

>  <origin>  (13) 
adgpu

>  <m_score__min__energy>  (13) 
-10.07

>  <m_primary>  (13) 
energy

$$$$
13:0
     RDKit          3D

 40 42  0  0  0  0  0  0  0  0999 V2000
   -4.0770   25.4350  -30.6300 O   0  0  0  0  0  0  0  0  0  0  0  0
   -3.8410   24.2030  -30.5000 C   0  0  0  0  0  0  0  0  0  0  0  0
   -4.3760   23.2730  -31.4520 N   0  0  0  0  0  0  0  0  0  0  0  0
   -5.7460   22.8620  -31.5740 C   0  0  0  0  0  0  0  0  0  0  0  0
   -6.8120   23.7710  -31.4400 C   0  0  0  0  0  0  0  0  0  0  0  0
   -8.1310   23.3330  -31.5880 C   0  0  0  0  0  0  0  0  0  0  0  0
   -8.3970   21.9930  -31.8790 C   0  0  0  0  0  0  0  0  0  0  0  0
   -7.3420   21.0830  -32.0330 C   0  0  0  0  0  0  0  0  0  0  0  0
   -7.6740   19.3940  -32.3990 S   0  0  0  0  0  0  0  0  0  0  0  0
   -9.1450   19.2340  -32.6630 O   0  0  0  0  0  0  0  0  0  0  0  0
   -7.2820   18.5150  -31.2440 O   0  0  0  0  0  0  0  0  0  0  0  0
   -6.7890   18.9030  -33.8080 N   0  0  0  0  0  0  0  0  0  0  0  0
   -5.4320   18.4390  -33.8170 C   0  0  0  0  0  0  0  0  0  0  0  0
   -4.3420   19.3320  -33.8000 C   0  0  0  0  0  0  0  0  0  0  0  0
   -3.0320   18.8470  -33.8190 C   0  0  0  0  0  0  0  0  0  0  0  0
   -2.7930   17.4720  -33.8510 C   0  0  0  0  0  0  0  0  0  0  0  0
   -3.8670   16.5780  -33.8630 C   0  0  0  0  0  0  0  0  0  0  0  0
   -5.1820   17.0550  -33.8450 C   0  0  0  0  0  0  0  0  0  0  0  0
   -6.5090   15.9020  -33.8690 Cl  0  0  0  0  0  0  0  0  0  0  0  0
   -6.0200   21.5270  -31.8940 C   0  0  0  0  0  0  0  0  0  0  0  0
   -3.0640   23.7230  -29.3250 C   0  0  0  0  0  0  0  0  0  0  0  0
   -3.4120   22.4980  -28.7190 C   0  0  0  0  0  0  0  0  0  0  0  0
   -2.7020   22.0170  -27.6160 C   0  0  0  0  0  0  0  0  0  0  0  0
   -1.6340   22.7490  -27.0940 C   0  0  0  0  0  0  0  0  0  0  0  0
   -0.9350   22.2560  -25.9940 O   0  0  0  0  0  0  0  0  0  0  0  0
   -1.2760   23.9680  -27.6800 C   0  0  0  0  0  0  0  0  0  0  0  0
   -1.9810   24.4590  -28.7850 C   0  0  0  0  0  0  0  0  0  0  0  0
   -1.5930   25.6790  -29.3270 O   0  0  0  0  0  0  0  0  0  0  0  0
   -6.6066   24.8287  -31.2183 H   0  0  0  0  0  0  0  0  0  0  0  0
   -8.9616   24.0453  -31.4750 H   0  0  0  0  0  0  0  0  0  0  0  0
   -9.4368   21.6510  -31.9876 H   0  0  0  0  0  0  0  0  0  0  0  0
   -4.5236   20.4165  -33.7716 H   0  0  0  0  0  0  0  0  0  0  0  0
   -2.1865   19.5506  -33.8087 H   0  0  0  0  0  0  0  0  0  0  0  0
   -1.7606   17.0927  -33.8668 H   0  0  0  0  0  0  0  0  0  0  0  0
   -3.6776   15.4947  -33.8867 H   0  0  0  0  0  0  0  0  0  0  0  0
   -5.1898   20.8198  -32.0377 H   0  0  0  0  0  0  0  0  0  0  0  0
   -4.2533   21.9137  -29.1199 H   0  0  0  0  0  0  0  0  0  0  0  0
   -2.9855   21.0582  -27.1573 H   0  0  0  0  0  0  0  0  0  0  0  0
   -0.6190   22.8680  -25.2510 H   0  0  0  0  0  0  0  0  0  0  0  0
   -0.4342   24.5448  -27.2693 H   0  0  0  0  0  0  0  0  0  0  0  0
  1  2  2  0
  2  3  1  0
  3  4  1  0
  4  5  2  0
  5  6  1  0
  6  7  2  0
  7  8  1  0
  8  9  1  0
  9 10  2  0
  9 11  2  0
  9 12  1  0
 12 13  1  0
 13 14  2  0
 14 15  1  0
 15 16  2  0
 16 17  1  0
 17 18  2  0
 18 19  1  0
  8 20  2  0
  2 21  1  0
 21 22  2  0
 22 23  1  0
 23 24  2  0
 24 25  1  0
 24 26  1  0
 26 27  2  0
 27 28  1  0
 20  4  1  0
 27 21  1  0
 18 13  1  0
  5 29  1  0
  6 30  1  0
  7 31  1  0
 14 32  1  0
 15 33  1  0
 16 34  1  0
 17 35  1  0
 20 36  1  0
 22 37  1  0
 23 38  1  0
 25 39  1  0
 26 40  1  0
M  CHG  3   3  -1  12  -1  28  -1
M  END
>  <UniqueID>  (14) 
13

>  <SMILES>  (14) 
O=C([N-]c1cccc(S(=O)(=O)[N-]c2ccccc2Cl)c1)c1ccc(O)cc1[O-]

>  <Energy>  (14) 
52.48446639943254

>  <Genealogy>  (14) 
O=C([N-]c1cccc(S(=O)(=O)[N-]c2ccccc2Cl)c1)c1ccc(O)cc1[O-] (protonated)
O=C([N-]c1cccc(S(=O)(=O)[N-]c2ccccc2Cl)c1)c1ccc(O)cc1[O-] (3D coordinates assigned)
O=C([N-]c1cccc(S(=O)(=O)[N-]c2ccccc2Cl)c1)c1ccc(O)cc1[O-] (optimized conformer: 52.48446639943254 kcal/mol)

>  <smiles>  (14) 
O=C(Nc1cccc(S(=O)(=O)Nc2ccccc2Cl)c1)c1ccc(O)cc1O

>  <score_type>  (14) 
oracle

>  <origin>  (14) 
adgpu

>  <m_score__min__energy>  (14) 
-13

>  <m_primary>  (14) 
energy

$$$$
14:0
     RDKit          3D

 37 39  0  0  0  0  0  0  0  0999 V2000
   -2.3460   25.2850  -28.9930 O   0  0  0  0  0  0  0  0  0  0  0  0
   -3.3280   24.2370  -28.5490 S   0  0  0  0  0  0  0  0  0  0  0  0
   -3.7400   24.5280  -27.1340 O   0  0  0  0  0  0  0  0  0  0  0  0
   -2.5620   22.6560  -28.6540 C   0  0  0  0  0  0  0  0  0  0  0  0
   -1.5730   22.4060  -29.6160 C   0  0  0  0  0  0  0  0  0  0  0  0
   -0.9530   21.1540  -29.6750 C   0  0  0  0  0  0  0  0  0  0  0  0
   -1.3130   20.1500  -28.7720 C   0  0  0  0  0  0  0  0  0  0  0  0
   -2.2930   20.3970  -27.8050 C   0  0  0  0  0  0  0  0  0  0  0  0
   -2.7380   19.1400  -26.6660 Cl  0  0  0  0  0  0  0  0  0  0  0  0
   -2.9160   21.6490  -27.7440 C   0  0  0  0  0  0  0  0  0  0  0  0
   -4.7220   24.2670  -29.5730 N   0  0  0  0  0  0  0  0  0  0  0  0
   -5.7260   25.1640  -29.5470 C   0  0  0  0  0  0  0  0  0  0  0  0
   -6.6690   24.9070  -30.4790 N   0  0  0  0  0  0  0  0  0  0  0  0
   -6.2140   23.7980  -31.0990 C   0  0  0  0  0  0  0  0  0  0  0  0
   -6.9070   23.1600  -32.1770 N   0  0  0  0  0  0  0  0  0  0  0  0
   -8.1660   22.4440  -31.9720 C   0  0  0  0  0  0  0  0  0  0  0  0
   -7.9550   20.9600  -32.0920 C   0  0  0  0  0  0  0  0  0  0  0  0
   -8.9110   20.0650  -31.5810 C   0  0  0  0  0  0  0  0  0  0  0  0
   -8.7320   18.6850  -31.7270 C   0  0  0  0  0  0  0  0  0  0  0  0
   -7.6070   18.1920  -32.3910 C   0  0  0  0  0  0  0  0  0  0  0  0
   -6.6600   19.0750  -32.9160 C   0  0  0  0  0  0  0  0  0  0  0  0
   -6.8350   20.4560  -32.7730 C   0  0  0  0  0  0  0  0  0  0  0  0
   -5.0160   23.3950  -30.5470 C   0  0  0  0  0  0  0  0  0  0  0  0
   -1.2845   23.1958  -30.3252 H   0  0  0  0  0  0  0  0  0  0  0  0
   -0.1806   20.9590  -30.4335 H   0  0  0  0  0  0  0  0  0  0  0  0
   -0.8255   19.1652  -28.8217 H   0  0  0  0  0  0  0  0  0  0  0  0
   -3.6844   21.8435  -26.9813 H   0  0  0  0  0  0  0  0  0  0  0  0
   -5.7728   26.0104  -28.8459 H   0  0  0  0  0  0  0  0  0  0  0  0
   -6.4860   23.2170  -33.1330 H   0  0  0  0  0  0  0  0  0  0  0  0
   -8.5539   22.6743  -30.9688 H   0  0  0  0  0  0  0  0  0  0  0  0
   -8.8856   22.7637  -32.7401 H   0  0  0  0  0  0  0  0  0  0  0  0
   -9.8025   20.4507  -31.0648 H   0  0  0  0  0  0  0  0  0  0  0  0
   -9.4783   17.9878  -31.3183 H   0  0  0  0  0  0  0  0  0  0  0  0
   -7.4660   17.1066  -32.5010 H   0  0  0  0  0  0  0  0  0  0  0  0
   -5.7764   18.6844  -33.4420 H   0  0  0  0  0  0  0  0  0  0  0  0
   -6.0927   21.1492  -33.1955 H   0  0  0  0  0  0  0  0  0  0  0  0
   -4.4162   22.5237  -30.8488 H   0  0  0  0  0  0  0  0  0  0  0  0
  1  2  2  0
  2  3  2  0
  2  4  1  0
  4  5  2  0
  5  6  1  0
  6  7  2  0
  7  8  1  0
  8  9  1  0
  8 10  2  0
  2 11  1  0
 11 12  1  0
 12 13  2  0
 13 14  1  0
 14 15  1  0
 15 16  1  0
 16 17  1  0
 17 18  2  0
 18 19  1  0
 19 20  2  0
 20 21  1  0
 21 22  2  0
 14 23  2  0
 10  4  1  0
 23 11  1  0
 22 17  1  0
  5 24  1  0
  6 25  1  0
  7 26  1  0
 10 27  1  0
 12 28  1  0
 15 29  1  0
 16 30  1  0
 16 31  1  0
 18 32  1  0
 19 33  1  0
 20 34  1  0
 21 35  1  0
 22 36  1  0
 23 37  1  0
M  END
>  <UniqueID>  (15) 
14

>  <SMILES>  (15) 
O=S(=O)(c1cccc(Cl)c1)n1cnc(NCc2ccccc2)c1

>  <Energy>  (15) 
69.0854903742712

>  <Genealogy>  (15) 
O=S(=O)(c1cccc(Cl)c1)n1cnc(NCc2ccccc2)c1 (3D coordinates assigned)
O=S(=O)(c1cccc(Cl)c1)n1cnc(NCc2ccccc2)c1 (optimized conformer: 69.0854903742712 kcal/mol)

>  <smiles>  (15) 
O=S(=O)(c1cccc(Cl)c1)n1cnc(NCc2ccccc2)c1

>  <score_type>  (15) 
oracle

>  <origin>  (15) 
adgpu

>  <m_score__min__energy>  (15) 
-8.7300000000000004

>  <m_primary>  (15) 
energy

$$$$
15:0
     RDKit          3D

 41 43  0  0  0  0  0  0  0  0999 V2000
   -9.3280   23.1190  -32.3500 C   0  0  0  0  0  0  0  0  0  0  0  0
   -7.9230   23.0470  -31.8310 C   0  0  0  0  0  0  0  0  0  0  0  0
   -7.0270   22.1000  -32.3470 C   0  0  0  0  0  0  0  0  0  0  0  0
   -5.7060   22.0560  -31.8900 C   0  0  0  0  0  0  0  0  0  0  0  0
   -5.2570   22.9680  -30.9200 C   0  0  0  0  0  0  0  0  0  0  0  0
   -3.8960   22.9220  -30.4520 N   0  0  0  0  0  0  0  0  0  0  0  0
   -3.1030   23.9630  -30.1240 C   0  0  0  0  0  0  0  0  0  0  0  0
   -3.4720   25.3000  -30.2230 O   0  0  0  0  0  0  0  0  0  0  0  0
   -1.8690   23.4960  -29.7170 C   0  0  0  0  0  0  0  0  0  0  0  0
   -0.6880   24.3440  -29.3430 C   0  0  0  0  0  0  0  0  0  0  0  0
   -1.1190   25.4570  -28.4450 C   0  0  0  0  0  0  0  0  0  0  0  0
   -1.3490   25.2370  -27.2260 O   0  0  0  0  0  0  0  0  0  0  0  0
   -1.2320   26.7480  -28.9440 O   0  0  0  0  0  0  0  0  0  0  0  0
   -1.8790   22.1450  -29.8110 N   0  0  0  0  0  0  0  0  0  0  0  0
   -0.8070   21.2070  -29.4650 C   0  0  0  0  0  0  0  0  0  0  0  0
   -1.2660   20.2450  -28.4010 C   0  0  0  0  0  0  0  0  0  0  0  0
   -2.4030   20.5270  -27.6230 C   0  0  0  0  0  0  0  0  0  0  0  0
   -2.8250   19.6270  -26.6400 C   0  0  0  0  0  0  0  0  0  0  0  0
   -2.1150   18.4440  -26.4210 C   0  0  0  0  0  0  0  0  0  0  0  0
   -0.9790   18.1600  -27.1820 C   0  0  0  0  0  0  0  0  0  0  0  0
   -0.5540   19.0570  -28.1680 C   0  0  0  0  0  0  0  0  0  0  0  0
   -3.1210   21.8320  -30.2500 C   0  0  0  0  0  0  0  0  0  0  0  0
   -3.5190   20.6490  -30.4270 O   0  0  0  0  0  0  0  0  0  0  0  0
   -6.1530   23.9280  -30.4190 C   0  0  0  0  0  0  0  0  0  0  0  0
   -7.4730   23.9710  -30.8760 C   0  0  0  0  0  0  0  0  0  0  0  0
  -10.0300   23.1550  -31.5039 H   0  0  0  0  0  0  0  0  0  0  0  0
   -9.4464   24.0244  -32.9634 H   0  0  0  0  0  0  0  0  0  0  0  0
   -9.5383   22.2305  -32.9634 H   0  0  0  0  0  0  0  0  0  0  0  0
   -7.3647   21.3884  -33.1148 H   0  0  0  0  0  0  0  0  0  0  0  0
   -5.0136   21.3021  -32.2928 H   0  0  0  0  0  0  0  0  0  0  0  0
    0.0553   23.7230  -28.8216 H   0  0  0  0  0  0  0  0  0  0  0  0
   -0.2462   24.7689  -30.2564 H   0  0  0  0  0  0  0  0  0  0  0  0
   -0.5179   20.6414  -30.3631 H   0  0  0  0  0  0  0  0  0  0  0  0
    0.0519   21.7768  -29.0807 H   0  0  0  0  0  0  0  0  0  0  0  0
   -2.9626   21.4595  -27.7886 H   0  0  0  0  0  0  0  0  0  0  0  0
   -3.7179   19.8508  -26.0378 H   0  0  0  0  0  0  0  0  0  0  0  0
   -2.4508   17.7360  -25.6490 H   0  0  0  0  0  0  0  0  0  0  0  0
   -0.4179   17.2304  -27.0061 H   0  0  0  0  0  0  0  0  0  0  0  0
    0.3425   18.8306  -28.7639 H   0  0  0  0  0  0  0  0  0  0  0  0
   -5.8130   24.6503  -29.6622 H   0  0  0  0  0  0  0  0  0  0  0  0
   -8.1628   24.7334  -30.4849 H   0  0  0  0  0  0  0  0  0  0  0  0
  1  2  1  0
  2  3  2  0
  3  4  1  0
  4  5  2  0
  5  6  1  0
  6  7  1  0
  7  8  1  0
  7  9  2  0
  9 10  1  0
 10 11  1  0
 11 12  2  0
 11 13  1  0
  9 14  1  0
 14 15  1  0
 15 16  1  0
 16 17  2  0
 17 18  1  0
 18 19  2  0
 19 20  1  0
 20 21  2  0
 14 22  1  0
 22 23  2  0
  5 24  1  0
 24 25  2  0
 25  2  1  0
 22  6  1  0
 21 16  1  0
  1 26  1  0
  1 27  1  0
  1 28  1  0
  3 29  1  0
  4 30  1  0
 10 31  1  0
 10 32  1  0
 15 33  1  0
 15 34  1  0
 17 35  1  0
 18 36  1  0
 19 37  1  0
 20 38  1  0
 21 39  1  0
 24 40  1  0
 25 41  1  0
M  CHG  2   8  -1  13  -1
M  END
>  <UniqueID>  (16) 
15

>  <SMILES>  (16) 
Cc1ccc(-n2c([O-])c(CC(=O)[O-])n(Cc3ccccc3)c2=O)cc1

>  <Energy>  (16) 
79.34936043585124

>  <Genealogy>  (16) 
Cc1ccc(-n2c([O-])c(CC(=O)[O-])n(Cc3ccccc3)c2=O)cc1 (protonated)
Cc1ccc(-n2c([O-])c(CC(=O)[O-])n(Cc3ccccc3)c2=O)cc1 (3D coordinates assigned)
Cc1ccc(-n2c([O-])c(CC(=O)[O-])n(Cc3ccccc3)c2=O)cc1 (optimized conformer: 79.34936043585124 kcal/mol)

>  <smiles>  (16) 
Cc1ccc(-n2c(O)c(CC(=O)O)n(Cc3ccccc3)c2=O)cc1

>  <score_type>  (16) 
oracle

>  <origin>  (16) 
adgpu

>  <m_score__min__energy>  (16) 
-11.869999999999999

>  <m_primary>  (16) 
energy

$$$$
16:0
     RDKit          3D

 32 33  0  0  0  0  0  0  0  0999 V2000
   -3.4500   18.9840  -26.4800 C   0  0  0  0  0  0  0  0  0  0  0  0
   -2.1830   19.9680  -27.2540 S   0  0  0  0  0  0  0  0  0  0  0  0
   -0.9270   19.1500  -27.3450 O   0  0  0  0  0  0  0  0  0  0  0  0
   -1.9020   21.1990  -26.4380 O   0  0  0  0  0  0  0  0  0  0  0  0
   -2.6730   20.4180  -28.8560 N   0  0  0  0  0  0  0  0  0  0  0  0
   -3.0210   21.7410  -29.2850 C   0  0  0  0  0  0  0  0  0  0  0  0
   -2.3500   22.8280  -28.7120 C   0  0  0  0  0  0  0  0  0  0  0  0
   -2.6400   24.1330  -29.1170 C   0  0  0  0  0  0  0  0  0  0  0  0
   -3.6070   24.3690  -30.0970 C   0  0  0  0  0  0  0  0  0  0  0  0
   -3.8660   25.6760  -30.4950 O   0  0  0  0  0  0  0  0  0  0  0  0
   -4.3070   23.2890  -30.6700 C   0  0  0  0  0  0  0  0  0  0  0  0
   -5.3260   23.5100  -31.7600 C   0  0  0  0  0  0  0  0  0  0  0  0
   -6.3960   22.4530  -31.6930 C   0  0  0  0  0  0  0  0  0  0  0  0
   -6.3030   21.2990  -32.4900 C   0  0  0  0  0  0  0  0  0  0  0  0
   -7.3170   20.3370  -32.4590 C   0  0  0  0  0  0  0  0  0  0  0  0
   -8.4330   20.5230  -31.6390 C   0  0  0  0  0  0  0  0  0  0  0  0
   -8.5380   21.6720  -30.8500 C   0  0  0  0  0  0  0  0  0  0  0  0
   -7.5260   22.6370  -30.8800 C   0  0  0  0  0  0  0  0  0  0  0  0
   -4.0050   21.9790  -30.2610 C   0  0  0  0  0  0  0  0  0  0  0  0
   -3.3549   19.0579  -25.3866 H   0  0  0  0  0  0  0  0  0  0  0  0
   -4.4397   19.3526  -26.7877 H   0  0  0  0  0  0  0  0  0  0  0  0
   -3.3379   17.9339  -26.7877 H   0  0  0  0  0  0  0  0  0  0  0  0
   -1.5889   22.6531  -27.9373 H   0  0  0  0  0  0  0  0  0  0  0  0
   -2.1042   24.9791  -28.6619 H   0  0  0  0  0  0  0  0  0  0  0  0
   -5.7857   24.5011  -31.6322 H   0  0  0  0  0  0  0  0  0  0  0  0
   -4.8246   23.4520  -32.7374 H   0  0  0  0  0  0  0  0  0  0  0  0
   -5.4286   21.1521  -33.1410 H   0  0  0  0  0  0  0  0  0  0  0  0
   -7.2362   19.4330  -33.0806 H   0  0  0  0  0  0  0  0  0  0  0  0
   -9.2295   19.7647  -31.6144 H   0  0  0  0  0  0  0  0  0  0  0  0
   -9.4171   21.8174  -30.2050 H   0  0  0  0  0  0  0  0  0  0  0  0
   -7.6157   23.5440  -30.2641 H   0  0  0  0  0  0  0  0  0  0  0  0
   -4.5438   21.1310  -30.7089 H   0  0  0  0  0  0  0  0  0  0  0  0
  1  2  1  0
  2  3  2  0
  2  4  2  0
  2  5  1  0
  5  6  1  0
  6  7  2  0
  7  8  1  0
  8  9  2  0
  9 10  1  0
  9 11  1  0
 11 12  1  0
 12 13  1  0
 13 14  2  0
 14 15  1  0
 15 16  2  0
 16 17  1  0
 17 18  2  0
 11 19  2  0
 19  6  1  0
 18 13  1  0
  1 20  1  0
  1 21  1  0
  1 22  1  0
  7 23  1  0
  8 24  1  0
 12 25  1  0
 12 26  1  0
 14 27  1  0
 15 28  1  0
 16 29  1  0
 17 30  1  0
 18 31  1  0
 19 32  1  0
M  CHG  2   5  -1  10  -1
M  END
>  <UniqueID>  (17) 
16

>  <SMILES>  (17) 
CS(=O)(=O)[N-]c1ccc([O-])c(Cc2ccccc2)c1

>  <Energy>  (17) 
30.199347898612018

>  <Genealogy>  (17) 
CS(=O)(=O)[N-]c1ccc([O-])c(Cc2ccccc2)c1 (protonated)
CS(=O)(=O)[N-]c1ccc([O-])c(Cc2ccccc2)c1 (3D coordinates assigned)
CS(=O)(=O)[N-]c1ccc([O-])c(Cc2ccccc2)c1 (optimized conformer: 30.199347898612018 kcal/mol)

>  <smiles>  (17) 
CS(=O)(=O)Nc1ccc(O)c(Cc2ccccc2)c1

>  <score_type>  (17) 
oracle

>  <origin>  (17) 
adgpu

>  <m_score__min__energy>  (17) 
-10.1

>  <m_primary>  (17) 
energy

$$$$
17:0
     RDKit          3D

 54 56  0  0  1  0  0  0  0  0999 V2000
   -2.3450   19.1000  -33.6310 O   0  0  0  0  0  0  0  0  0  0  0  0
   -2.3770   20.2990  -33.9360 C   0  0  0  0  0  0  0  0  0  0  0  0
   -3.5670   21.0490  -33.8300 N   0  0  0  0  0  0  0  0  0  0  0  0
   -4.8110   20.6160  -33.4010 C   0  0  0  0  0  0  0  0  0  0  0  0
   -5.6390   21.5170  -32.7070 C   0  0  0  0  0  0  0  0  0  0  0  0
   -6.8730   21.1770  -32.2520 C   0  0  0  0  0  0  0  0  0  0  0  0
   -7.3980   19.9220  -32.4410 C   0  0  0  0  0  0  0  0  0  0  0  0
   -8.7380   19.6040  -31.9290 C   0  0  0  0  0  0  0  0  0  0  0  0
   -9.6390   19.5900  -32.9900 F   0  0  0  0  0  0  0  0  0  0  0  0
   -9.1220   20.5220  -30.9510 F   0  0  0  0  0  0  0  0  0  0  0  0
   -8.8080   18.3500  -31.3610 F   0  0  0  0  0  0  0  0  0  0  0  0
   -6.6150   19.0110  -33.1190 C   0  0  0  0  0  0  0  0  0  0  0  0
   -5.3550   19.3650  -33.5800 C   0  0  0  0  0  0  0  0  0  0  0  0
   -1.1690   20.8970  -34.3960 N   0  0  0  0  0  0  0  0  0  0  0  0
   -0.0110   20.0410  -34.4670 C   0  0  0  0  0  0  0  0  0  0  0  0
    0.2650   19.3380  -35.6280 C   0  0  0  0  0  0  0  0  0  0  0  0
    1.3510   18.5060  -35.7640 C   0  0  0  0  0  0  0  0  0  0  0  0
    2.2130   18.3620  -34.6870 C   0  0  0  0  0  0  0  0  0  0  0  0
    3.4100   17.4740  -34.7670 C   0  0  0  0  0  0  0  0  0  0  0  0
    3.0800   16.3200  -34.0850 F   0  0  0  0  0  0  0  0  0  0  0  0
    3.6970   17.1640  -36.1000 F   0  0  0  0  0  0  0  0  0  0  0  0
    4.5290   18.0720  -34.2250 F   0  0  0  0  0  0  0  0  0  0  0  0
    1.9220   19.0730  -33.5310 C   0  0  0  0  0  0  0  0  0  0  0  0
    0.8420   19.8970  -33.4060 C   0  0  0  0  0  0  0  0  0  0  0  0
    0.6080   20.5940  -32.1870 N   0  0  0  0  0  0  0  0  0  0  0  0
   -0.2700   20.0470  -31.1670 C   0  0  0  0  0  0  0  0  0  0  0  0
   -1.2830   21.0430  -30.7340 C   0  0  0  0  0  0  0  0  0  0  0  0
   -2.6100   20.6850  -30.6890 C   0  0  0  0  0  0  0  0  0  0  0  0
   -3.6070   21.5480  -30.2990 C   0  0  0  0  0  0  0  0  0  0  0  0
   -3.3120   22.8520  -29.9240 C   0  0  0  0  0  0  0  0  0  0  0  0
   -4.4020   23.6920  -29.5290 C   0  0  0  0  0  0  0  0  0  0  0  0
   -5.3420   23.2080  -28.5930 O   0  0  0  0  0  0  0  0  0  0  0  0
   -4.6380   24.8860  -29.9470 N   0  0  0  0  0  0  0  0  0  0  0  0
   -3.8730   25.5510  -30.8440 O   0  0  0  0  0  0  0  0  0  0  0  0
   -1.9860   23.2050  -29.9690 C   0  0  0  0  0  0  0  0  0  0  0  0
   -0.9750   22.3320  -30.3640 C   0  0  0  0  0  0  0  0  0  0  0  0
   -3.4720   22.0740  -34.1200 H   0  0  0  0  0  0  0  0  0  0  0  0
   -5.2724   22.5381  -32.5254 H   0  0  0  0  0  0  0  0  0  0  0  0
   -7.4698   21.9296  -31.7159 H   0  0  0  0  0  0  0  0  0  0  0  0
   -6.9933   17.9934  -33.2960 H   0  0  0  0  0  0  0  0  0  0  0  0
   -4.7620   18.6084  -34.1148 H   0  0  0  0  0  0  0  0  0  0  0  0
   -1.1270   21.9050  -34.6700 H   0  0  0  0  0  0  0  0  0  0  0  0
   -0.4180   19.4509  -36.4829 H   0  0  0  0  0  0  0  0  0  0  0  0
    1.5321   17.9668  -36.7055 H   0  0  0  0  0  0  0  0  0  0  0  0
    2.5981   18.9664  -32.6699 H   0  0  0  0  0  0  0  0  0  0  0  0
    1.0780   21.5190  -32.0200 H   0  0  0  0  0  0  0  0  0  0  0  0
   -0.7862   19.1652  -31.5743 H   0  0  0  0  0  0  0  0  0  0  0  0
    0.3412   19.7727  -30.2945 H   0  0  0  0  0  0  0  0  0  0  0  0
   -2.8868   19.6605  -30.9785 H   0  0  0  0  0  0  0  0  0  0  0  0
   -4.6508   21.2012  -30.2839 H   0  0  0  0  0  0  0  0  0  0  0  0
   -6.0620   23.8350  -28.2220 H   0  0  0  0  0  0  0  0  0  0  0  0
   -4.2200   25.7030  -31.7970 H   0  0  0  0  0  0  0  0  0  0  0  0
   -1.7080   24.2289  -29.6785 H   0  0  0  0  0  0  0  0  0  0  0  0
    0.0706   22.6734  -30.3802 H   0  0  0  0  0  0  0  0  0  0  0  0
  1  2  2  0
  2  3  1  0
  3  4  1  0
  4  5  2  0
  5  6  1  0
  6  7  2  0
  7  8  1  0
  8  9  1  0
  8 10  1  0
  8 11  1  0
  7 12  1  0
 12 13  2  0
  2 14  1  0
 14 15  1  0
 15 16  2  0
 16 17  1  0
 17 18  2  0
 18 19  1  0
 19 20  1  0
 19 21  1  0
 19 22  1  0
 18 23  1  0
 23 24  2  0
 24 25  1  0
 25 26  1  0
 26 27  1  0
 27 28  2  0
 28 29  1  0
 29 30  2  0
 30 31  1  0
 31 32  1  0
 31 33  2  0
 33 34  1  0
 30 35  1  0
 35 36  2  0
 13  4  1  0
 24 15  1  0
 36 27  1  0
  3 37  1  0
  5 38  1  0
  6 39  1  0
 12 40  1  0
 13 41  1  0
 14 42  1  0
 16 43  1  0
 17 44  1  0
 23 45  1  0
 25 46  1  0
 26 47  1  0
 26 48  1  0
 28 49  1  0
 29 50  1  0
 32 51  1  0
 34 52  1  0
 35 53  1  0
 36 54  1  0
M  END
>  <smiles>  (18) 
O=C(Nc1ccc(C(F)(F)F)cc1)Nc1ccc(C(F)(F)F)cc1NCc1ccc(C(O)=NO)cc1

>  <score_type>  (18) 
oracle

>  <origin>  (18) 
adgpu

>  <m_score__min__energy>  (18) 
-9.1999999999999993

>  <m_primary>  (18) 
energy

$$$$
18:0
     RDKit          3D

 50 52  0  0  0  0  0  0  0  0999 V2000
   -7.7330   18.6830  -31.4110 C   0  0  0  0  0  0  0  0  0  0  0  0
   -6.2340   18.8190  -31.6120 C   0  0  0  0  0  0  0  0  0  0  0  0
   -5.7760   18.0070  -32.8020 C   0  0  0  0  0  0  0  0  0  0  0  0
   -6.7200   17.2330  -33.5110 C   0  0  0  0  0  0  0  0  0  0  0  0
   -6.3180   16.3920  -34.5540 C   0  0  0  0  0  0  0  0  0  0  0  0
   -4.9680   16.3000  -34.8940 C   0  0  0  0  0  0  0  0  0  0  0  0
   -4.0160   17.0530  -34.1940 C   0  0  0  0  0  0  0  0  0  0  0  0
   -4.4080   17.9170  -33.1580 C   0  0  0  0  0  0  0  0  0  0  0  0
   -3.3970   18.6460  -32.4430 N   0  0  0  0  0  0  0  0  0  0  0  0
   -3.2580   20.0730  -32.5580 C   0  0  0  0  0  0  0  0  0  0  0  0
   -3.9430   20.7000  -33.4150 O   0  0  0  0  0  0  0  0  0  0  0  0
   -2.3000   20.8110  -31.7020 C   0  0  0  0  0  0  0  0  0  0  0  0
   -0.9690   20.3660  -31.5610 C   0  0  0  0  0  0  0  0  0  0  0  0
   -0.0590   21.0830  -30.7780 C   0  0  0  0  0  0  0  0  0  0  0  0
   -0.4650   22.2480  -30.1260 C   0  0  0  0  0  0  0  0  0  0  0  0
   -1.7930   22.6930  -30.2360 C   0  0  0  0  0  0  0  0  0  0  0  0
   -2.3080   24.1810  -29.4410 S   0  0  0  0  0  0  0  0  0  0  0  0
   -2.8950   23.8910  -28.0870 O   0  0  0  0  0  0  0  0  0  0  0  0
   -1.0950   25.0450  -29.2490 O   0  0  0  0  0  0  0  0  0  0  0  0
   -3.4730   25.0620  -30.3870 N   0  0  0  0  0  0  0  0  0  0  0  0
   -4.8530   24.7060  -30.5400 C   0  0  0  0  0  0  0  0  0  0  0  0
   -5.8700   25.3990  -29.8670 C   0  0  0  0  0  0  0  0  0  0  0  0
   -7.2020   25.0050  -30.0240 C   0  0  0  0  0  0  0  0  0  0  0  0
   -7.5310   23.9350  -30.8640 C   0  0  0  0  0  0  0  0  0  0  0  0
   -6.5230   23.2390  -31.5330 C   0  0  0  0  0  0  0  0  0  0  0  0
   -6.9460   21.8750  -32.6060 S   0  0  0  0  0  0  0  0  0  0  0  0
   -8.6580   21.7410  -31.9700 C   0  0  0  0  0  0  0  0  0  0  0  0
   -5.1860   23.6080  -31.3570 C   0  0  0  0  0  0  0  0  0  0  0  0
   -2.7080   21.9690  -31.0170 C   0  0  0  0  0  0  0  0  0  0  0  0
   -7.9582   18.6626  -30.3345 H   0  0  0  0  0  0  0  0  0  0  0  0
   -8.2445   19.5384  -31.8764 H   0  0  0  0  0  0  0  0  0  0  0  0
   -8.0822   17.7495  -31.8764 H   0  0  0  0  0  0  0  0  0  0  0  0
   -5.9874   19.8776  -31.7813 H   0  0  0  0  0  0  0  0  0  0  0  0
   -5.7224   18.4458  -30.7126 H   0  0  0  0  0  0  0  0  0  0  0  0
   -7.7845   17.2919  -33.2400 H   0  0  0  0  0  0  0  0  0  0  0  0
   -7.0658   15.8035  -35.1058 H   0  0  0  0  0  0  0  0  0  0  0  0
   -4.6509   15.6362  -35.7118 H   0  0  0  0  0  0  0  0  0  0  0  0
   -2.9517   16.9668  -34.4582 H   0  0  0  0  0  0  0  0  0  0  0  0
   -2.6130   18.0980  -32.0270 H   0  0  0  0  0  0  0  0  0  0  0  0
   -0.6441   19.4472  -32.0713 H   0  0  0  0  0  0  0  0  0  0  0  0
    0.9773   20.7285  -30.6760 H   0  0  0  0  0  0  0  0  0  0  0  0
    0.2568   22.8196  -29.5242 H   0  0  0  0  0  0  0  0  0  0  0  0
   -5.6200   26.2506  -29.2171 H   0  0  0  0  0  0  0  0  0  0  0  0
   -7.9971   25.5396  -29.4836 H   0  0  0  0  0  0  0  0  0  0  0  0
   -8.5831   23.6428  -30.9968 H   0  0  0  0  0  0  0  0  0  0  0  0
   -8.6417   21.7423  -30.8701 H   0  0  0  0  0  0  0  0  0  0  0  0
   -9.2504   22.5955  -32.3289 H   0  0  0  0  0  0  0  0  0  0  0  0
   -9.1103   20.8047  -32.3289 H   0  0  0  0  0  0  0  0  0  0  0  0
   -4.3903   23.0381  -31.8590 H   0  0  0  0  0  0  0  0  0  0  0  0
   -3.7510   22.3101  -31.0934 H   0  0  0  0  0  0  0  0  0  0  0  0
  1  2  1  0
  2  3  1  0
  3  4  2  0
  4  5  1  0
  5  6  2  0
  6  7  1  0
  7  8  2  0
  8  9  1  0
  9 10  1  0
 10 11  2  0
 10 12  1  0
 12 13  2  0
 13 14  1  0
 14 15  2  0
 15 16  1  0
 16 17  1  0
 17 18  2  0
 17 19  2  0
 17 20  1  0
 20 21  1  0
 21 22  2  0
 22 23  1  0
 23 24  2  0
 24 25  1  0
 25 26  1  0
 26 27  1  0
 25 28  2  0
 16 29  2  0
  8  3  1  0
 29 12  1  0
 28 21  1  0
  1 30  1  0
  1 31  1  0
  1 32  1  0
  2 33  1  0
  2 34  1  0
  4 35  1  0
  5 36  1  0
  6 37  1  0
  7 38  1  0
  9 39  1  0
 13 40  1  0
 14 41  1  0
 15 42  1  0
 22 43  1  0
 23 44  1  0
 24 45  1  0
 27 46  1  0
 27 47  1  0
 27 48  1  0
 28 49  1  0
 29 50  1  0
M  CHG  1  20  -1
M  END
>  <UniqueID>  (19) 
17

>  <SMILES>  (19) 
CCc1ccccc1NC(=O)c1cccc(S(=O)(=O)[N-]c2cccc(SC)c2)c1

>  <Energy>  (19) 
59.925447874252605

>  <Genealogy>  (19) 
CCc1ccccc1NC(=O)c1cccc(S(=O)(=O)[N-]c2cccc(SC)c2)c1 (protonated)
CCc1ccccc1NC(=O)c1cccc(S(=O)(=O)[N-]c2cccc(SC)c2)c1 (3D coordinates assigned)
CCc1ccccc1NC(=O)c1cccc(S(=O)(=O)[N-]c2cccc(SC)c2)c1 (optimized conformer: 59.925447874252605 kcal/mol)

>  <smiles>  (19) 
CCc1ccccc1NC(=O)c1cccc(S(=O)(=O)Nc2cccc(SC)c2)c1

>  <score_type>  (19) 
oracle

>  <origin>  (19) 
adgpu

>  <m_score__min__energy>  (19) 
-10.630000000000001

>  <m_primary>  (19) 
energy

$$$$
19:0
     RDKit          3D

 36 38  0  0  0  0  0  0  0  0999 V2000
   -1.7490   25.3990  -28.9560 O   0  0  0  0  0  0  0  0  0  0  0  0
   -2.5550   24.5570  -29.4380 C   0  0  0  0  0  0  0  0  0  0  0  0
   -3.4650   24.9390  -30.4710 N   0  0  0  0  0  0  0  0  0  0  0  0
   -5.1800   24.9610  -30.2360 S   0  0  0  0  0  0  0  0  0  0  0  0
   -5.7620   26.1550  -30.9400 O   0  0  0  0  0  0  0  0  0  0  0  0
   -5.4690   25.0680  -28.7640 O   0  0  0  0  0  0  0  0  0  0  0  0
   -5.8950   23.4960  -30.9000 C   0  0  0  0  0  0  0  0  0  0  0  0
   -5.0950   22.3830  -31.1900 C   0  0  0  0  0  0  0  0  0  0  0  0
   -5.6690   21.2230  -31.7190 C   0  0  0  0  0  0  0  0  0  0  0  0
   -7.0540   21.1610  -31.9520 C   0  0  0  0  0  0  0  0  0  0  0  0
   -7.6650   20.0220  -32.5000 O   0  0  0  0  0  0  0  0  0  0  0  0
   -6.9940   18.9630  -33.1290 C   0  0  0  0  0  0  0  0  0  0  0  0
   -6.1480   19.2500  -34.2070 C   0  0  0  0  0  0  0  0  0  0  0  0
   -5.4750   18.2200  -34.8720 C   0  0  0  0  0  0  0  0  0  0  0  0
   -5.6540   16.8930  -34.4690 C   0  0  0  0  0  0  0  0  0  0  0  0
   -6.5130   16.5950  -33.4070 C   0  0  0  0  0  0  0  0  0  0  0  0
   -7.1870   17.6240  -32.7410 C   0  0  0  0  0  0  0  0  0  0  0  0
   -7.8470   22.2810  -31.6750 C   0  0  0  0  0  0  0  0  0  0  0  0
   -7.2740   23.4400  -31.1440 C   0  0  0  0  0  0  0  0  0  0  0  0
   -2.5560   23.1800  -28.9310 C   0  0  0  0  0  0  0  0  0  0  0  0
   -3.4140   22.6630  -27.9770 C   0  0  0  0  0  0  0  0  0  0  0  0
   -3.0220   21.3480  -27.8450 C   0  0  0  0  0  0  0  0  0  0  0  0
   -1.9910   21.1190  -28.6770 N   0  0  0  0  0  0  0  0  0  0  0  0
   -1.7000   22.2260  -29.3430 N   0  0  0  0  0  0  0  0  0  0  0  0
   -4.0121   22.4219  -31.0009 H   0  0  0  0  0  0  0  0  0  0  0  0
   -5.0345   20.3556  -31.9538 H   0  0  0  0  0  0  0  0  0  0  0  0
   -6.0118   20.2918  -34.5329 H   0  0  0  0  0  0  0  0  0  0  0  0
   -4.8047   18.4538  -35.7123 H   0  0  0  0  0  0  0  0  0  0  0  0
   -5.1190   16.0837  -34.9875 H   0  0  0  0  0  0  0  0  0  0  0  0
   -6.6590   15.5504  -33.0948 H   0  0  0  0  0  0  0  0  0  0  0  0
   -7.8696   17.3860  -31.9119 H   0  0  0  0  0  0  0  0  0  0  0  0
   -8.9279   22.2487  -31.8765 H   0  0  0  0  0  0  0  0  0  0  0  0
   -7.9070   24.3105  -30.9170 H   0  0  0  0  0  0  0  0  0  0  0  0
   -4.2244   23.1828  -27.4450 H   0  0  0  0  0  0  0  0  0  0  0  0
   -3.4775   20.6082  -27.1703 H   0  0  0  0  0  0  0  0  0  0  0  0
   -1.4870   20.2130  -28.7950 H   0  0  0  0  0  0  0  0  0  0  0  0
  1  2  2  0
  2  3  1  0
  3  4  1  0
  4  5  2  0
  4  6  2  0
  4  7  1  0
  7  8  2  0
  8  9  1  0
  9 10  2  0
 10 11  1  0
 11 12  1  0
 12 13  2  0
 13 14  1  0
 14 15  2  0
 15 16  1  0
 16 17  2  0
 10 18  1  0
 18 19  2  0
  2 20  1  0
 20 21  1  0
 21 22  2  0
 22 23  1  0
 23 24  1  0
 19  7  1  0
 24 20  2  0
 17 12  1  0
  8 25  1  0
  9 26  1  0
 13 27  1  0
 14 28  1  0
 15 29  1  0
 16 30  1  0
 17 31  1  0
 18 32  1  0
 19 33  1  0
 21 34  1  0
 22 35  1  0
 23 36  1  0
M  CHG  1   3  -1
M  END
>  <UniqueID>  (20) 
18

>  <SMILES>  (20) 
O=C([N-]S(=O)(=O)c1ccc(Oc2ccccc2)cc1)c1cc[nH]n1

>  <Energy>  (20) 
75.29677558484282

>  <Genealogy>  (20) 
O=C([N-]S(=O)(=O)c1ccc(Oc2ccccc2)cc1)c1cc[nH]n1 (protonated)
O=C([N-]S(=O)(=O)c1ccc(Oc2ccccc2)cc1)c1cc[nH]n1 (3D coordinates assigned)
O=C([N-]S(=O)(=O)c1ccc(Oc2ccccc2)cc1)c1cc[nH]n1 (optimized conformer: 75.29677558484282 kcal/mol)

>  <smiles>  (20) 
O=C(NS(=O)(=O)c1ccc(Oc2ccccc2)cc1)c1cc[nH]n1

>  <score_type>  (20) 
oracle

>  <origin>  (20) 
adgpu

>  <m_score__min__energy>  (20) 
-9.6899999999999995

>  <m_primary>  (20) 
energy

$$$$
20:0
     RDKit          3D

 47 49  0  0  0  0  0  0  0  0999 V2000
   -5.5200   20.4350  -33.4800 C   0  0  0  0  0  0  0  0  0  0  0  0
   -6.6510   19.6550  -32.8670 C   0  0  0  0  0  0  0  0  0  0  0  0
   -6.6240   18.2500  -32.9030 C   0  0  0  0  0  0  0  0  0  0  0  0
   -7.6600   17.5070  -32.3340 C   0  0  0  0  0  0  0  0  0  0  0  0
   -8.7280   18.1560  -31.7140 C   0  0  0  0  0  0  0  0  0  0  0  0
   -8.7620   19.5510  -31.6600 C   0  0  0  0  0  0  0  0  0  0  0  0
   -7.7350   20.3140  -32.2430 C   0  0  0  0  0  0  0  0  0  0  0  0
   -7.7570   21.7470  -32.1410 N   0  0  0  0  0  0  0  0  0  0  0  0
   -6.6240   22.5360  -31.7440 C   0  0  0  0  0  0  0  0  0  0  0  0
   -6.4920   24.0620  -32.3350 S   0  0  0  0  0  0  0  0  0  0  0  0
   -5.6170   21.9820  -30.8740 N   0  0  0  0  0  0  0  0  0  0  0  0
   -4.5960   22.7480  -30.2140 C   0  0  0  0  0  0  0  0  0  0  0  0
   -3.2710   22.6660  -30.6660 C   0  0  0  0  0  0  0  0  0  0  0  0
   -2.2580   23.3760  -30.0160 C   0  0  0  0  0  0  0  0  0  0  0  0
   -2.5550   24.1660  -28.8990 C   0  0  0  0  0  0  0  0  0  0  0  0
   -1.2710   25.0430  -28.0750 S   0  0  0  0  0  0  0  0  0  0  0  0
   -1.2350   26.4520  -28.5990 O   0  0  0  0  0  0  0  0  0  0  0  0
   -1.5360   25.0760  -26.5960 O   0  0  0  0  0  0  0  0  0  0  0  0
    0.2370   24.2460  -28.3880 N   0  0  0  0  0  0  0  0  0  0  0  0
    0.7100   23.0820  -27.6980 C   0  0  0  0  0  0  0  0  0  0  0  0
    1.8520   23.1170  -27.1680 O   0  0  0  0  0  0  0  0  0  0  0  0
   -0.0950   21.8490  -27.5860 C   0  0  0  0  0  0  0  0  0  0  0  0
   -0.8700   21.5970  -26.4420 C   0  0  0  0  0  0  0  0  0  0  0  0
   -1.6390   20.4330  -26.3530 C   0  0  0  0  0  0  0  0  0  0  0  0
   -1.6530   19.5200  -27.4110 C   0  0  0  0  0  0  0  0  0  0  0  0
   -0.9020   19.7740  -28.5630 C   0  0  0  0  0  0  0  0  0  0  0  0
   -0.1320   20.9370  -28.6540 C   0  0  0  0  0  0  0  0  0  0  0  0
   -3.8720   24.2230  -28.4210 C   0  0  0  0  0  0  0  0  0  0  0  0
   -4.8860   23.5130  -29.0710 C   0  0  0  0  0  0  0  0  0  0  0  0
   -4.8965   20.8650  -32.6823 H   0  0  0  0  0  0  0  0  0  0  0  0
   -4.9084   19.7658  -34.1030 H   0  0  0  0  0  0  0  0  0  0  0  0
   -5.9282   21.2445  -34.1030 H   0  0  0  0  0  0  0  0  0  0  0  0
   -5.7805   17.7322  -33.3830 H   0  0  0  0  0  0  0  0  0  0  0  0
   -7.6341   16.4081  -32.3746 H   0  0  0  0  0  0  0  0  0  0  0  0
   -9.5438   17.5686  -31.2674 H   0  0  0  0  0  0  0  0  0  0  0  0
   -9.5993   20.0571  -31.1572 H   0  0  0  0  0  0  0  0  0  0  0  0
   -8.6380   22.2490  -32.3980 H   0  0  0  0  0  0  0  0  0  0  0  0
   -5.6000   20.9500  -30.7160 H   0  0  0  0  0  0  0  0  0  0  0  0
   -3.0278   22.0395  -31.5368 H   0  0  0  0  0  0  0  0  0  0  0  0
   -1.2231   23.3139  -30.3835 H   0  0  0  0  0  0  0  0  0  0  0  0
   -0.8718   22.3190  -25.6121 H   0  0  0  0  0  0  0  0  0  0  0  0
   -2.2339   20.2354  -25.4491 H   0  0  0  0  0  0  0  0  0  0  0  0
   -2.2545   18.6020  -27.3376 H   0  0  0  0  0  0  0  0  0  0  0  0
   -0.9172   19.0581  -29.3980 H   0  0  0  0  0  0  0  0  0  0  0  0
    0.4480   21.1392  -29.5665 H   0  0  0  0  0  0  0  0  0  0  0  0
   -4.1079   24.8276  -27.5328 H   0  0  0  0  0  0  0  0  0  0  0  0
   -5.9157   23.5533  -28.6861 H   0  0  0  0  0  0  0  0  0  0  0  0
  1  2  1  0
  2  3  2  0
  3  4  1  0
  4  5  2  0
  5  6  1  0
  6  7  2  0
  7  8  1  0
  8  9  1  0
  9 10  2  0
  9 11  1  0
 11 12  1  0
 12 13  2  0
 13 14  1  0
 14 15  2  0
 15 16  1  0
 16 17  2  0
 16 18  2  0
 16 19  1  0
 19 20  1  0
 20 21  2  0
 20 22  1  0
 22 23  2  0
 23 24  1  0
 24 25  2  0
 25 26  1  0
 26 27  2  0
 15 28  1  0
 28 29  2  0
  7  2  1  0
 29 12  1  0
 27 22  1  0
  1 30  1  0
  1 31  1  0
  1 32  1  0
  3 33  1  0
  4 34  1  0
  5 35  1  0
  6 36  1  0
  8 37  1  0
 11 38  1  0
 13 39  1  0
 14 40  1  0
 23 41  1  0
 24 42  1  0
 25 43  1  0
 26 44  1  0
 27 45  1  0
 28 46  1  0
 29 47  1  0
M  CHG  1  19  -1
M  END
>  <UniqueID>  (21) 
19

>  <SMILES>  (21) 
Cc1ccccc1NC(=S)Nc1ccc(S(=O)(=O)[N-]C(=O)c2ccccc2)cc1

>  <Energy>  (21) 
69.00909292181466

>  <Genealogy>  (21) 
Cc1ccccc1NC(=S)Nc1ccc(S(=O)(=O)[N-]C(=O)c2ccccc2)cc1 (protonated)
Cc1ccccc1NC(=S)Nc1ccc(S(=O)(=O)[N-]C(=O)c2ccccc2)cc1 (3D coordinates assigned)
Cc1ccccc1NC(=S)Nc1ccc(S(=O)(=O)[N-]C(=O)c2ccccc2)cc1 (optimized conformer: 69.00909292181466 kcal/mol)

>  <smiles>  (21) 
Cc1ccccc1NC(=S)Nc1ccc(S(=O)(=O)NC(=O)c2ccccc2)cc1

>  <score_type>  (21) 
oracle

>  <origin>  (21) 
adgpu

>  <m_score__min__energy>  (21) 
-10.31

>  <m_primary>  (21) 
energy

$$$$
21:0
     RDKit          3D

 48 50  0  0  0  0  0  0  0  0999 V2000
   -3.0070   19.4310  -33.6370 H   0  0  0  0  0  0  0  0  0  0  0  0
   -3.9630   19.2560  -33.3510 O   0  0  0  0  0  0  0  0  0  0  0  0
   -4.7980   20.2680  -32.8760 C   0  0  0  0  0  0  0  0  0  0  0  0
   -4.2840   21.5670  -32.7550 C   0  0  0  0  0  0  0  0  0  0  0  0
   -2.9490   21.7940  -33.1260 O   0  0  0  0  0  0  0  0  0  0  0  0
   -1.8200   21.4680  -32.3220 C   0  0  0  0  0  0  0  0  0  0  0  0
   -2.0919   21.5465  -31.2590 H   0  0  0  0  0  0  0  0  0  0  0  0
   -1.4971   20.4399  -32.5429 H   0  0  0  0  0  0  0  0  0  0  0  0
   -0.9988   22.1657  -32.5429 H   0  0  0  0  0  0  0  0  0  0  0  0
   -5.1110   22.5980  -32.2700 C   0  0  0  0  0  0  0  0  0  0  0  0
   -4.7164   23.6216  -32.1891 H   0  0  0  0  0  0  0  0  0  0  0  0
   -6.4310   22.3310  -31.8900 C   0  0  0  0  0  0  0  0  0  0  0  0
   -7.2870   23.4420  -31.4230 C   0  0  0  0  0  0  0  0  0  0  0  0
   -8.3485   23.4168  -31.7104 H   0  0  0  0  0  0  0  0  0  0  0  0
   -6.8750   24.4790  -30.6770 C   0  0  0  0  0  0  0  0  0  0  0  0
   -7.6497   25.1516  -30.2801 H   0  0  0  0  0  0  0  0  0  0  0  0
   -5.4720   24.7950  -30.3430 C   0  0  0  0  0  0  0  0  0  0  0  0
   -4.6900   25.2630  -31.2140 O   0  0  0  0  0  0  0  0  0  0  0  0
   -5.0160   24.5670  -29.0050 N   0  0  0  0  0  0  0  0  0  0  0  0
   -3.6750   24.2520  -28.6020 C   0  0  0  0  0  0  0  0  0  0  0  0
   -2.7180   23.9960  -29.5920 C   0  0  0  0  0  0  0  0  0  0  0  0
   -3.0041   24.0440  -30.6531 H   0  0  0  0  0  0  0  0  0  0  0  0
   -1.4020   23.6800  -29.2420 C   0  0  0  0  0  0  0  0  0  0  0  0
   -0.6547   23.4938  -30.0274 H   0  0  0  0  0  0  0  0  0  0  0  0
   -1.0330   23.6000  -27.8920 C   0  0  0  0  0  0  0  0  0  0  0  0
    0.6260   23.2190  -27.4410 S   0  0  0  0  0  0  0  0  0  0  0  0
    1.5550   24.1380  -28.1830 O   0  0  0  0  0  0  0  0  0  0  0  0
    0.8290   23.4050  -25.9630 O   0  0  0  0  0  0  0  0  0  0  0  0
    0.9960   21.5760  -27.8610 N   0  0  0  0  0  0  0  0  0  0  0  0
    0.2270   20.5630  -27.5960 C   0  0  0  0  0  0  0  0  0  0  0  0
    0.5540   19.3020  -27.9480 N   0  0  0  0  0  0  0  0  0  0  0  0
   -0.4040   18.4140  -27.5710 C   0  0  0  0  0  0  0  0  0  0  0  0
   -0.3190   17.3358  -27.7715 H   0  0  0  0  0  0  0  0  0  0  0  0
   -1.4990   18.9650  -26.9140 C   0  0  0  0  0  0  0  0  0  0  0  0
   -2.3701   18.4111  -26.5339 H   0  0  0  0  0  0  0  0  0  0  0  0
   -1.2590   20.6260  -26.8020 S   0  0  0  0  0  0  0  0  0  0  0  0
   -1.9940   23.8190  -26.8980 C   0  0  0  0  0  0  0  0  0  0  0  0
   -1.7132   23.7391  -25.8375 H   0  0  0  0  0  0  0  0  0  0  0  0
   -3.3100   24.1390  -27.2480 C   0  0  0  0  0  0  0  0  0  0  0  0
   -4.0619   24.3028  -26.4620 H   0  0  0  0  0  0  0  0  0  0  0  0
   -6.9470   21.0360  -32.0470 C   0  0  0  0  0  0  0  0  0  0  0  0
   -7.9980   20.8337  -31.7931 H   0  0  0  0  0  0  0  0  0  0  0  0
   -6.1330   19.9940  -32.5260 C   0  0  0  0  0  0  0  0  0  0  0  0
   -6.6140   18.6820  -32.6680 O   0  0  0  0  0  0  0  0  0  0  0  0
   -7.9260   18.2590  -32.3100 C   0  0  0  0  0  0  0  0  0  0  0  0
   -8.0157   18.2301  -31.2140 H   0  0  0  0  0  0  0  0  0  0  0  0
   -8.6634   18.9649  -32.7197 H   0  0  0  0  0  0  0  0  0  0  0  0
   -8.1122   17.2553  -32.7197 H   0  0  0  0  0  0  0  0  0  0  0  0
  1  2  1  0
  2  3  1  0
  3  4  2  0
  4  5  1  0
  5  6  1  0
  6  7  1  0
  6  8  1  0
  6  9  1  0
  4 10  1  0
 10 11  1  0
 10 12  2  0
 12 13  1  0
 13 14  1  0
 13 15  2  3
 15 16  1  0
 15 17  1  0
 17 18  2  0
 17 19  1  0
 19 20  1  0
 20 21  2  0
 21 22  1  0
 21 23  1  0
 23 24  1  0
 23 25  2  0
 25 26  1  0
 26 27  2  0
 26 28  2  0
 26 29  1  0
 29 30  2  0
 30 31  1  0
 31 32  1  0
 32 33  1  0
 32 34  2  0
 34 35  1  0
 34 36  1  0
 25 37  1  0
 37 38  1  0
 37 39  2  0
 39 40  1  0
 12 41  1  0
 41 42  1  0
 41 43  2  0
 43 44  1  0
 44 45  1  0
 45 46  1  0
 45 47  1  0
 45 48  1  0
 43  3  1  0
 39 20  1  0
 36 30  1  0
M  CHG  2  19  -1  31  -1
M  END
>  <UniqueID>  (22) 
20

>  <SMILES>  (22) 
COc1cc(C=CC(=O)[N-]c2ccc(S(=O)(=O)/N=c3/[n-]ccs3)cc2)cc(OC)c1O

>  <Energy>  (22) 
93.64034531814897

>  <Genealogy>  (22) 
COc1cc(C=CC(=O)[N-]c2ccc(S(=O)(=O)N=c3[n-]ccs3)cc2)cc(OC)c1O (protonated)
COc1cc(C=CC(=O)[N-]c2ccc(S(=O)(=O)/N=c3/[n-]ccs3)cc2)cc(OC)c1O (cis-trans isomerization)
COc1cc(C=CC(=O)[N-]c2ccc(S(=O)(=O)/N=c3/[n-]ccs3)cc2)cc(OC)c1O (3D coordinates assigned)
COc1cc(C=CC(=O)[N-]c2ccc(S(=O)(=O)/N=c3/[n-]ccs3)cc2)cc(OC)c1O (optimized conformer: 93.64034531814897 kcal/mol)

>  <smiles>  (22) 
COc1cc(C=CC(=O)Nc2ccc(S(=O)(=O)N=c3[nH]ccs3)cc2)cc(OC)c1O

>  <score_type>  (22) 
oracle

>  <origin>  (22) 
adgpu

>  <m_score__min__energy>  (22) 
-10.210000000000001

>  <m_primary>  (22) 
energy

$$$$
22:0
     RDKit          3D

 40 42  0  0  0  0  0  0  0  0999 V2000
   -4.3070   17.6370  -34.3510 N   0  0  0  0  0  0  0  0  0  0  0  0
   -5.1570   18.7890  -34.2790 C   0  0  0  0  0  0  0  0  0  0  0  0
   -6.2240   18.8440  -35.0190 N   0  0  0  0  0  0  0  0  0  0  0  0
   -4.8080   19.9100  -33.3690 C   0  0  0  0  0  0  0  0  0  0  0  0
   -3.4930   20.4010  -33.3240 C   0  0  0  0  0  0  0  0  0  0  0  0
   -3.1570   21.4530  -32.4660 C   0  0  0  0  0  0  0  0  0  0  0  0
   -4.1270   22.0350  -31.6330 C   0  0  0  0  0  0  0  0  0  0  0  0
   -3.7510   23.1510  -30.7300 C   0  0  0  0  0  0  0  0  0  0  0  0
   -3.0720   23.0610  -29.5270 C   0  0  0  0  0  0  0  0  0  0  0  0
   -2.9820   24.3730  -29.0970 C   0  0  0  0  0  0  0  0  0  0  0  0
   -2.3500   24.8760  -27.8560 C   0  0  0  0  0  0  0  0  0  0  0  0
   -1.0180   25.3210  -27.8890 C   0  0  0  0  0  0  0  0  0  0  0  0
   -0.4000   25.8010  -26.7290 C   0  0  0  0  0  0  0  0  0  0  0  0
   -1.0990   25.8410  -25.5130 C   0  0  0  0  0  0  0  0  0  0  0  0
   -0.4390   26.3550  -24.2870 C   0  0  0  0  0  0  0  0  0  0  0  0
   -0.8300   27.6220  -23.7430 N   0  0  0  0  0  0  0  0  0  0  0  0
    0.5020   25.6720  -23.7030 N   0  0  0  0  0  0  0  0  0  0  0  0
   -2.4340   25.3990  -25.4810 C   0  0  0  0  0  0  0  0  0  0  0  0
   -3.0520   24.9200  -26.6390 C   0  0  0  0  0  0  0  0  0  0  0  0
   -3.5640   25.1430  -29.9890 O   0  0  0  0  0  0  0  0  0  0  0  0
   -4.0360   24.4450  -30.9800 N   0  0  0  0  0  0  0  0  0  0  0  0
   -5.4420   21.5400  -31.6760 C   0  0  0  0  0  0  0  0  0  0  0  0
   -5.7780   20.4890  -32.5350 C   0  0  0  0  0  0  0  0  0  0  0  0
   -3.4950   17.5260  -33.7040 H   0  0  0  0  0  0  0  0  0  0  0  0
   -4.5150   16.8610  -35.0170 H   0  0  0  0  0  0  0  0  0  0  0  0
   -6.4710   18.0550  -35.6570 H   0  0  0  0  0  0  0  0  0  0  0  0
   -6.8490   19.6810  -35.0230 H   0  0  0  0  0  0  0  0  0  0  0  0
   -2.7214   19.9547  -33.9686 H   0  0  0  0  0  0  0  0  0  0  0  0
   -2.1233   21.8283  -32.4432 H   0  0  0  0  0  0  0  0  0  0  0  0
   -2.6923   22.1567  -29.0288 H   0  0  0  0  0  0  0  0  0  0  0  0
   -0.4563   25.2919  -28.8343 H   0  0  0  0  0  0  0  0  0  0  0  0
    0.6424   26.1499  -26.7707 H   0  0  0  0  0  0  0  0  0  0  0  0
   -0.3440   28.0190  -22.9080 H   0  0  0  0  0  0  0  0  0  0  0  0
   -1.6390   28.1500  -24.1370 H   0  0  0  0  0  0  0  0  0  0  0  0
    0.9650   26.0320  -22.8400 H   0  0  0  0  0  0  0  0  0  0  0  0
    0.8400   24.7620  -24.0890 H   0  0  0  0  0  0  0  0  0  0  0  0
   -2.9963   25.4307  -24.5361 H   0  0  0  0  0  0  0  0  0  0  0  0
   -4.0956   24.5748  -26.5980 H   0  0  0  0  0  0  0  0  0  0  0  0
   -6.2131   21.9831  -31.0286 H   0  0  0  0  0  0  0  0  0  0  0  0
   -6.8113   20.1125  -32.5576 H   0  0  0  0  0  0  0  0  0  0  0  0
  1  2  1  0
  2  3  2  0
  2  4  1  0
  4  5  2  0
  5  6  1  0
  6  7  2  0
  7  8  1  0
  8  9  1  0
  9 10  2  0
 10 11  1  0
 11 12  2  0
 12 13  1  0
 13 14  2  0
 14 15  1  0
 15 16  1  0
 15 17  2  0
 14 18  1  0
 18 19  2  0
 10 20  1  0
 20 21  1  0
  7 22  1  0
 22 23  2  0
 23  4  1  0
 21  8  2  0
 19 11  1  0
  1 24  1  0
  1 25  1  0
  3 26  1  0
  3 27  1  0
  5 28  1  0
  6 29  1  0
  9 30  1  0
 12 31  1  0
 13 32  1  0
 16 33  1  0
 16 34  1  0
 17 35  1  0
 17 36  1  0
 18 37  1  0
 19 38  1  0
 22 39  1  0
 23 40  1  0
M  CHG  2   3   1  17   1
M  END
>  <UniqueID>  (23) 
21

>  <SMILES>  (23) 
NC(=[NH2+])c1ccc(-c2cc(-c3ccc(C(N)=[NH2+])cc3)on2)cc1

>  <Energy>  (23) 
79.62528099100587

>  <Genealogy>  (23) 
NC(=[NH2+])c1ccc(-c2cc(-c3ccc(C(N)=[NH2+])cc3)on2)cc1 (protonated)
NC(=[NH2+])c1ccc(-c2cc(-c3ccc(C(N)=[NH2+])cc3)on2)cc1 (3D coordinates assigned)
NC(=[NH2+])c1ccc(-c2cc(-c3ccc(C(N)=[NH2+])cc3)on2)cc1 (optimized conformer: 79.62528099100587 kcal/mol)

>  <smiles>  (23) 
N=C(N)c1ccc(-c2cc(-c3ccc(C(=N)N)cc3)on2)cc1

>  <score_type>  (23) 
oracle

>  <origin>  (23) 
adgpu

>  <m_score__min__energy>  (23) 
-9.6500000000000004

>  <m_primary>  (23) 
energy

$$$$
23:0
     RDKit          3D

 59 62  0  0  0  0  0  0  0  0999 V2000
   -4.0780   11.9960  -31.9440 C   0  0  0  0  0  0  0  0  0  0  0  0
   -4.7910   12.6550  -32.9860 O   0  0  0  0  0  0  0  0  0  0  0  0
   -4.7410   14.0360  -33.2290 C   0  0  0  0  0  0  0  0  0  0  0  0
   -4.9190   14.9070  -32.1470 C   0  0  0  0  0  0  0  0  0  0  0  0
   -4.8710   16.2910  -32.3360 C   0  0  0  0  0  0  0  0  0  0  0  0
   -4.6440   16.8220  -33.6130 C   0  0  0  0  0  0  0  0  0  0  0  0
   -4.5900   18.2390  -33.8100 N   0  0  0  0  0  0  0  0  0  0  0  0
   -5.7320   18.9460  -34.3940 C   0  0  0  0  0  0  0  0  0  0  0  0
   -6.7970   19.1610  -33.3530 C   0  0  0  0  0  0  0  0  0  0  0  0
   -7.2340   20.4620  -33.0520 C   0  0  0  0  0  0  0  0  0  0  0  0
   -8.2520   20.6640  -32.1160 C   0  0  0  0  0  0  0  0  0  0  0  0
   -8.8400   19.5710  -31.4740 C   0  0  0  0  0  0  0  0  0  0  0  0
   -8.4100   18.2740  -31.7650 C   0  0  0  0  0  0  0  0  0  0  0  0
   -7.3900   18.0670  -32.7000 C   0  0  0  0  0  0  0  0  0  0  0  0
   -3.1580   19.1070  -33.3390 S   0  0  0  0  0  0  0  0  0  0  0  0
   -2.3310   18.2380  -32.4340 O   0  0  0  0  0  0  0  0  0  0  0  0
   -2.3340   19.4450  -34.5490 O   0  0  0  0  0  0  0  0  0  0  0  0
   -3.6050   20.5950  -32.5110 C   0  0  0  0  0  0  0  0  0  0  0  0
   -3.1190   20.8540  -31.2250 C   0  0  0  0  0  0  0  0  0  0  0  0
   -3.4270   22.0560  -30.5830 C   0  0  0  0  0  0  0  0  0  0  0  0
   -4.2300   23.0200  -31.2190 C   0  0  0  0  0  0  0  0  0  0  0  0
   -4.5460   24.3010  -30.5460 C   0  0  0  0  0  0  0  0  0  0  0  0
   -5.7480   24.6350  -30.3630 O   0  0  0  0  0  0  0  0  0  0  0  0
   -3.4860   25.1300  -30.0490 N   0  0  0  0  0  0  0  0  0  0  0  0
   -2.6040   24.8370  -28.9530 C   0  0  0  0  0  0  0  0  0  0  0  0
   -1.2080   24.7890  -29.1300 C   0  0  0  0  0  0  0  0  0  0  0  0
   -0.3690   24.4860  -28.0550 C   0  0  0  0  0  0  0  0  0  0  0  0
   -0.9110   24.2150  -26.7990 C   0  0  0  0  0  0  0  0  0  0  0  0
   -2.2950   24.2360  -26.6150 C   0  0  0  0  0  0  0  0  0  0  0  0
   -3.1490   24.5380  -27.6870 C   0  0  0  0  0  0  0  0  0  0  0  0
   -4.5670   24.5440  -27.4740 N   0  0  0  0  0  0  0  0  0  0  0  0
   -4.7220   22.7500  -32.5100 C   0  0  0  0  0  0  0  0  0  0  0  0
   -4.4090   21.5480  -33.1510 C   0  0  0  0  0  0  0  0  0  0  0  0
   -4.4750   15.9560  -34.7000 C   0  0  0  0  0  0  0  0  0  0  0  0
   -4.5200   14.5710  -34.5130 C   0  0  0  0  0  0  0  0  0  0  0  0
   -4.4517   12.3414  -30.9687 H   0  0  0  0  0  0  0  0  0  0  0  0
   -4.2254   10.9093  -32.0292 H   0  0  0  0  0  0  0  0  0  0  0  0
   -3.0062   12.2284  -32.0292 H   0  0  0  0  0  0  0  0  0  0  0  0
   -5.0979   14.4990  -31.1412 H   0  0  0  0  0  0  0  0  0  0  0  0
   -5.0119   16.9661  -31.4791 H   0  0  0  0  0  0  0  0  0  0  0  0
   -5.3978   19.9208  -34.7788 H   0  0  0  0  0  0  0  0  0  0  0  0
   -6.1477   18.3415  -35.2136 H   0  0  0  0  0  0  0  0  0  0  0  0
   -6.7731   21.3249  -33.5550 H   0  0  0  0  0  0  0  0  0  0  0  0
   -8.5908   21.6846  -31.8844 H   0  0  0  0  0  0  0  0  0  0  0  0
   -9.6422   19.7319  -30.7388 H   0  0  0  0  0  0  0  0  0  0  0  0
   -8.8738   17.4147  -31.2585 H   0  0  0  0  0  0  0  0  0  0  0  0
   -7.0512   17.0449  -32.9247 H   0  0  0  0  0  0  0  0  0  0  0  0
   -2.4911   20.1074  -30.7167 H   0  0  0  0  0  0  0  0  0  0  0  0
   -3.0385   22.2500  -29.5723 H   0  0  0  0  0  0  0  0  0  0  0  0
   -0.7754   24.9913  -30.1209 H   0  0  0  0  0  0  0  0  0  0  0  0
    0.7212   24.4611  -28.1995 H   0  0  0  0  0  0  0  0  0  0  0  0
   -0.2476   23.9845  -25.9524 H   0  0  0  0  0  0  0  0  0  0  0  0
   -2.7184   24.0146  -25.6242 H   0  0  0  0  0  0  0  0  0  0  0  0
   -4.9640   24.3720  -26.5230 H   0  0  0  0  0  0  0  0  0  0  0  0
   -5.2370   24.7020  -28.2580 H   0  0  0  0  0  0  0  0  0  0  0  0
   -5.3574   23.4904  -33.0180 H   0  0  0  0  0  0  0  0  0  0  0  0
   -4.7952   21.3493  -34.1616 H   0  0  0  0  0  0  0  0  0  0  0  0
   -4.3060   16.3672  -35.7062 H   0  0  0  0  0  0  0  0  0  0  0  0
   -4.3824   13.8971  -35.3715 H   0  0  0  0  0  0  0  0  0  0  0  0
  1  2  1  0
  2  3  1  0
  3  4  2  0
  4  5  1  0
  5  6  2  0
  6  7  1  0
  7  8  1  0
  8  9  1  0
  9 10  2  0
 10 11  1  0
 11 12  2  0
 12 13  1  0
 13 14  2  0
  7 15  1  0
 15 16  2  0
 15 17  2  0
 15 18  1  0
 18 19  2  0
 19 20  1  0
 20 21  2  0
 21 22  1  0
 22 23  2  0
 22 24  1  0
 24 25  1  0
 25 26  2  0
 26 27  1  0
 27 28  2  0
 28 29  1  0
 29 30  2  0
 30 31  1  0
 21 32  1  0
 32 33  2  0
  6 34  1  0
 34 35  2  0
 35  3  1  0
 14  9  1  0
 33 18  1  0
 30 25  1  0
  1 36  1  0
  1 37  1  0
  1 38  1  0
  4 39  1  0
  5 40  1  0
  8 41  1  0
  8 42  1  0
 10 43  1  0
 11 44  1  0
 12 45  1  0
 13 46  1  0
 14 47  1  0
 19 48  1  0
 20 49  1  0
 26 50  1  0
 27 51  1  0
 28 52  1  0
 29 53  1  0
 31 54  1  0
 31 55  1  0
 32 56  1  0
 33 57  1  0
 34 58  1  0
 35 59  1  0
M  CHG  1  24  -1
M  END
>  <UniqueID>  (24) 
22

>  <SMILES>  (24) 
COc1ccc(N(Cc2ccccc2)S(=O)(=O)c2ccc(C(=O)[N-]c3ccccc3N)cc2)cc1

>  <Energy>  (24) 
70.41538383890025

>  <Genealogy>  (24) 
COc1ccc(N(Cc2ccccc2)S(=O)(=O)c2ccc(C(=O)[N-]c3ccccc3N)cc2)cc1 (protonated)
COc1ccc(N(Cc2ccccc2)S(=O)(=O)c2ccc(C(=O)[N-]c3ccccc3N)cc2)cc1 (3D coordinates assigned)
COc1ccc(N(Cc2ccccc2)S(=O)(=O)c2ccc(C(=O)[N-]c3ccccc3N)cc2)cc1 (optimized conformer: 70.41538383890025 kcal/mol)

>  <smiles>  (24) 
COc1ccc(N(Cc2ccccc2)S(=O)(=O)c2ccc(C(=O)Nc3ccccc3N)cc2)cc1

>  <score_type>  (24) 
oracle

>  <origin>  (24) 
adgpu

>  <m_score__min__energy>  (24) 
-10.98

>  <m_primary>  (24) 
energy

$$$$
24:0
     RDKit          3D

 43 46  0  0  0  0  0  0  0  0999 V2000
   -3.9890   20.1740  -31.4670 C   0  0  0  0  0  0  0  0  0  0  0  0
   -4.0050   19.1090  -32.5280 C   0  0  0  0  0  0  0  0  0  0  0  0
   -2.8150   18.6630  -33.0090 N   0  0  0  0  0  0  0  0  0  0  0  0
   -2.7480   17.7100  -33.9690 C   0  0  0  0  0  0  0  0  0  0  0  0
   -1.5030   17.2780  -34.4400 C   0  0  0  0  0  0  0  0  0  0  0  0
   -1.4320   16.2960  -35.4330 C   0  0  0  0  0  0  0  0  0  0  0  0
   -2.6040   15.7430  -35.9580 C   0  0  0  0  0  0  0  0  0  0  0  0
   -2.5000   14.4010  -37.3130 Br  0  0  0  0  0  0  0  0  0  0  0  0
   -3.8520   16.1700  -35.4900 C   0  0  0  0  0  0  0  0  0  0  0  0
   -3.9320   17.1590  -34.4910 C   0  0  0  0  0  0  0  0  0  0  0  0
   -5.1580   17.6200  -33.9860 C   0  0  0  0  0  0  0  0  0  0  0  0
   -6.2420   17.1420  -34.4270 O   0  0  0  0  0  0  0  0  0  0  0  0
   -5.1810   18.5850  -33.0090 N   0  0  0  0  0  0  0  0  0  0  0  0
   -6.4480   19.0410  -32.4980 C   0  0  0  0  0  0  0  0  0  0  0  0
   -7.3510   18.1250  -31.9450 C   0  0  0  0  0  0  0  0  0  0  0  0
   -8.5800   18.5640  -31.4490 C   0  0  0  0  0  0  0  0  0  0  0  0
   -8.9130   19.9210  -31.5000 C   0  0  0  0  0  0  0  0  0  0  0  0
   -8.0160   20.8560  -32.0490 C   0  0  0  0  0  0  0  0  0  0  0  0
   -8.3650   22.2950  -32.1030 C   0  0  0  0  0  0  0  0  0  0  0  0
   -9.4870   22.6850  -31.6790 O   0  0  0  0  0  0  0  0  0  0  0  0
   -7.4090   23.2490  -32.5860 N   0  0  0  0  0  0  0  0  0  0  0  0
   -6.2700   23.7560  -31.8760 C   0  0  0  0  0  0  0  0  0  0  0  0
   -5.0460   23.0630  -31.8330 C   0  0  0  0  0  0  0  0  0  0  0  0
   -3.9680   23.5810  -31.1090 C   0  0  0  0  0  0  0  0  0  0  0  0
   -4.1060   24.7850  -30.4110 C   0  0  0  0  0  0  0  0  0  0  0  0
   -3.0320   25.2990  -29.6930 O   0  0  0  0  0  0  0  0  0  0  0  0
   -5.3250   25.4670  -30.4320 C   0  0  0  0  0  0  0  0  0  0  0  0
   -6.4050   24.9490  -31.1550 C   0  0  0  0  0  0  0  0  0  0  0  0
   -6.7790   20.4020  -32.5450 C   0  0  0  0  0  0  0  0  0  0  0  0
   -3.9961   19.7019  -30.4735 H   0  0  0  0  0  0  0  0  0  0  0  0
   -3.0816   20.7862  -31.5756 H   0  0  0  0  0  0  0  0  0  0  0  0
   -4.8776   20.8132  -31.5756 H   0  0  0  0  0  0  0  0  0  0  0  0
   -0.5794   17.7113  -34.0287 H   0  0  0  0  0  0  0  0  0  0  0  0
   -0.4523   15.9580  -35.8018 H   0  0  0  0  0  0  0  0  0  0  0  0
   -4.7724   15.7320  -35.9036 H   0  0  0  0  0  0  0  0  0  0  0  0
   -7.0915   17.0569  -31.9012 H   0  0  0  0  0  0  0  0  0  0  0  0
   -9.2877   17.8409  -31.0173 H   0  0  0  0  0  0  0  0  0  0  0  0
   -9.8832   20.2602  -31.1081 H   0  0  0  0  0  0  0  0  0  0  0  0
   -4.9370   22.1099  -32.3712 H   0  0  0  0  0  0  0  0  0  0  0  0
   -3.0100   23.0408  -31.0883 H   0  0  0  0  0  0  0  0  0  0  0  0
   -5.4358   26.4119  -29.8798 H   0  0  0  0  0  0  0  0  0  0  0  0
   -7.3669   25.4825  -31.1571 H   0  0  0  0  0  0  0  0  0  0  0  0
   -6.0660   21.1219  -32.9732 H   0  0  0  0  0  0  0  0  0  0  0  0
  1  2  1  0
  2  3  2  0
  3  4  1  0
  4  5  2  0
  5  6  1  0
  6  7  2  0
  7  8  1  0
  7  9  1  0
  9 10  2  0
 10 11  1  0
 11 12  2  0
 11 13  1  0
 13 14  1  0
 14 15  2  0
 15 16  1  0
 16 17  2  0
 17 18  1  0
 18 19  1  0
 19 20  2  0
 19 21  1  0
 21 22  1  0
 22 23  2  0
 23 24  1  0
 24 25  2  0
 25 26  1  0
 25 27  1  0
 27 28  2  0
 18 29  2  0
 13  2  1  0
 29 14  1  0
 10  4  1  0
 28 22  1  0
  1 30  1  0
  1 31  1  0
  1 32  1  0
  5 33  1  0
  6 34  1  0
  9 35  1  0
 15 36  1  0
 16 37  1  0
 17 38  1  0
 23 39  1  0
 24 40  1  0
 27 41  1  0
 28 42  1  0
 29 43  1  0
M  CHG  2  21  -1  26  -1
M  END
>  <UniqueID>  (25) 
23

>  <SMILES>  (25) 
Cc1nc2ccc(Br)cc2c(=O)n1-c1cccc(C(=O)[N-]c2ccc([O-])cc2)c1

>  <Energy>  (25) 
65.98239240958577

>  <Genealogy>  (25) 
Cc1nc2ccc(Br)cc2c(=O)n1-c1cccc(C(=O)[N-]c2ccc([O-])cc2)c1 (protonated)
Cc1nc2ccc(Br)cc2c(=O)n1-c1cccc(C(=O)[N-]c2ccc([O-])cc2)c1 (3D coordinates assigned)
Cc1nc2ccc(Br)cc2c(=O)n1-c1cccc(C(=O)[N-]c2ccc([O-])cc2)c1 (optimized conformer: 65.98239240958577 kcal/mol)

>  <smiles>  (25) 
Cc1nc2ccc(Br)cc2c(=O)n1-c1cccc(C(=O)Nc2ccc(O)cc2)c1

>  <score_type>  (25) 
oracle

>  <origin>  (25) 
adgpu

>  <m_score__min__energy>  (25) 
-12.41

>  <m_primary>  (25) 
energy

$$$$
25:0
     RDKit          3D

 43 45  0  0  0  0  0  0  0  0999 V2000
   -2.2640   22.3160  -30.8460 C   0  0  0  0  0  0  0  0  0  0  0  0
   -1.8320   23.2240  -29.7250 C   0  0  0  0  0  0  0  0  0  0  0  0
   -0.8320   22.8020  -28.8320 C   0  0  0  0  0  0  0  0  0  0  0  0
   -0.4360   23.6270  -27.7780 C   0  0  0  0  0  0  0  0  0  0  0  0
   -1.0340   24.8750  -27.6030 C   0  0  0  0  0  0  0  0  0  0  0  0
   -2.0320   25.3040  -28.4800 C   0  0  0  0  0  0  0  0  0  0  0  0
   -2.4440   24.4830  -29.5480 C   0  0  0  0  0  0  0  0  0  0  0  0
   -3.4750   24.8970  -30.4580 N   0  0  0  0  0  0  0  0  0  0  0  0
   -5.1640   25.0090  -30.0830 S   0  0  0  0  0  0  0  0  0  0  0  0
   -5.7070   26.3350  -30.5380 O   0  0  0  0  0  0  0  0  0  0  0  0
   -5.3530   24.8660  -28.5980 O   0  0  0  0  0  0  0  0  0  0  0  0
   -6.0170   23.7220  -30.9240 C   0  0  0  0  0  0  0  0  0  0  0  0
   -5.3090   22.5990  -31.3730 C   0  0  0  0  0  0  0  0  0  0  0  0
   -5.9750   21.5680  -32.0420 C   0  0  0  0  0  0  0  0  0  0  0  0
   -7.3510   21.6510  -32.2840 C   0  0  0  0  0  0  0  0  0  0  0  0
   -8.0000   20.5610  -32.9550 N   0  0  0  0  0  0  0  0  0  0  0  0
   -8.0280   19.1910  -32.5270 C   0  0  0  0  0  0  0  0  0  0  0  0
   -9.0650   18.7280  -31.9800 O   0  0  0  0  0  0  0  0  0  0  0  0
   -6.8550   18.3130  -32.7770 C   0  0  0  0  0  0  0  0  0  0  0  0
   -6.4790   17.3610  -31.8080 C   0  0  0  0  0  0  0  0  0  0  0  0
   -5.3820   16.5220  -32.0170 C   0  0  0  0  0  0  0  0  0  0  0  0
   -4.6410   16.6180  -33.1940 C   0  0  0  0  0  0  0  0  0  0  0  0
   -3.5510   15.7810  -33.3990 O   0  0  0  0  0  0  0  0  0  0  0  0
   -4.9960   17.5550  -34.1660 C   0  0  0  0  0  0  0  0  0  0  0  0
   -6.0980   18.4030  -33.9700 C   0  0  0  0  0  0  0  0  0  0  0  0
   -6.4350   19.3230  -34.9630 O   0  0  0  0  0  0  0  0  0  0  0  0
   -8.0650   22.7690  -31.8130 C   0  0  0  0  0  0  0  0  0  0  0  0
   -7.3990   23.7990  -31.1440 C   0  0  0  0  0  0  0  0  0  0  0  0
   -2.7009   21.3978  -30.4265 H   0  0  0  0  0  0  0  0  0  0  0  0
   -3.0144   22.8293  -31.4652 H   0  0  0  0  0  0  0  0  0  0  0  0
   -1.3923   22.0576  -31.4652 H   0  0  0  0  0  0  0  0  0  0  0  0
   -0.3595   21.8175  -28.9643 H   0  0  0  0  0  0  0  0  0  0  0  0
    0.3491   23.2923  -27.0841 H   0  0  0  0  0  0  0  0  0  0  0  0
   -0.7184   25.5228  -26.7719 H   0  0  0  0  0  0  0  0  0  0  0  0
   -2.4995   26.2893  -28.3361 H   0  0  0  0  0  0  0  0  0  0  0  0
   -4.2252   22.5286  -31.1983 H   0  0  0  0  0  0  0  0  0  0  0  0
   -5.4134   20.6849  -32.3808 H   0  0  0  0  0  0  0  0  0  0  0  0
   -7.0566   17.2777  -30.8756 H   0  0  0  0  0  0  0  0  0  0  0  0
   -5.1021   15.7838  -31.2511 H   0  0  0  0  0  0  0  0  0  0  0  0
   -4.4079   17.6296  -35.0926 H   0  0  0  0  0  0  0  0  0  0  0  0
   -7.2340   19.9390  -34.8700 H   0  0  0  0  0  0  0  0  0  0  0  0
   -9.1516   22.8319  -31.9723 H   0  0  0  0  0  0  0  0  0  0  0  0
   -7.9620   24.6745  -30.7883 H   0  0  0  0  0  0  0  0  0  0  0  0
  1  2  1  0
  2  3  2  0
  3  4  1  0
  4  5  2  0
  5  6  1  0
  6  7  2  0
  7  8  1  0
  8  9  1  0
  9 10  2  0
  9 11  2  0
  9 12  1  0
 12 13  2  0
 13 14  1  0
 14 15  2  0
 15 16  1  0
 16 17  1  0
 17 18  2  0
 17 19  1  0
 19 20  2  0
 20 21  1  0
 21 22  2  0
 22 23  1  0
 22 24  1  0
 24 25  2  0
 25 26  1  0
 15 27  1  0
 27 28  2  0
  7  2  1  0
 28 12  1  0
 25 19  1  0
  1 29  1  0
  1 30  1  0
  1 31  1  0
  3 32  1  0
  4 33  1  0
  5 34  1  0
  6 35  1  0
 13 36  1  0
 14 37  1  0
 20 38  1  0
 21 39  1  0
 24 40  1  0
 26 41  1  0
 27 42  1  0
 28 43  1  0
M  CHG  3   8  -1  16  -1  23  -1
M  END
>  <UniqueID>  (26) 
24

>  <SMILES>  (26) 
Cc1ccccc1[N-]S(=O)(=O)c1ccc([N-]C(=O)c2ccc([O-])cc2O)cc1

>  <Energy>  (26) 
55.92169803742295

>  <Genealogy>  (26) 
Cc1ccccc1[N-]S(=O)(=O)c1ccc([N-]C(=O)c2ccc([O-])cc2O)cc1 (protonated)
Cc1ccccc1[N-]S(=O)(=O)c1ccc([N-]C(=O)c2ccc([O-])cc2O)cc1 (3D coordinates assigned)
Cc1ccccc1[N-]S(=O)(=O)c1ccc([N-]C(=O)c2ccc([O-])cc2O)cc1 (optimized conformer: 55.92169803742295 kcal/mol)

>  <smiles>  (26) 
Cc1ccccc1NS(=O)(=O)c1ccc(NC(=O)c2ccc(O)cc2O)cc1

>  <score_type>  (26) 
oracle

>  <origin>  (26) 
adgpu

>  <m_score__min__energy>  (26) 
-10.81

>  <m_primary>  (26) 
energy

$$$$
26:0
     RDKit          3D

 42 44  0  0  0  0  0  0  0  0999 V2000
   -3.1310   21.0610  -33.3320 C   0  0  0  0  0  0  0  0  0  0  0  0
   -4.1080   20.1420  -33.8100 O   0  0  0  0  0  0  0  0  0  0  0  0
   -5.3870   19.9870  -33.2550 C   0  0  0  0  0  0  0  0  0  0  0  0
   -6.0670   18.7540  -33.2570 C   0  0  0  0  0  0  0  0  0  0  0  0
   -7.3380   18.6530  -32.6840 C   0  0  0  0  0  0  0  0  0  0  0  0
   -7.9420   19.7730  -32.1080 C   0  0  0  0  0  0  0  0  0  0  0  0
   -7.2780   21.0070  -32.1090 C   0  0  0  0  0  0  0  0  0  0  0  0
   -8.0190   22.4150  -31.3530 S   0  0  0  0  0  0  0  0  0  0  0  0
   -8.8580   23.1380  -32.3680 O   0  0  0  0  0  0  0  0  0  0  0  0
   -8.9000   21.9710  -30.2180 O   0  0  0  0  0  0  0  0  0  0  0  0
   -6.7960   23.4810  -30.7490 N   0  0  0  0  0  0  0  0  0  0  0  0
   -5.5150   23.5300  -31.1600 C   0  0  0  0  0  0  0  0  0  0  0  0
   -4.8880   24.5090  -30.4180 C   0  0  0  0  0  0  0  0  0  0  0  0
   -3.5150   24.9160  -30.4530 N   0  0  0  0  0  0  0  0  0  0  0  0
   -2.5080   24.5900  -29.4860 C   0  0  0  0  0  0  0  0  0  0  0  0
   -1.7920   25.4990  -28.9850 O   0  0  0  0  0  0  0  0  0  0  0  0
   -2.3530   23.1960  -29.0080 C   0  0  0  0  0  0  0  0  0  0  0  0
   -2.7040   22.1500  -29.8770 C   0  0  0  0  0  0  0  0  0  0  0  0
   -2.5610   20.8210  -29.4860 C   0  0  0  0  0  0  0  0  0  0  0  0
   -2.0670   20.5080  -28.2220 C   0  0  0  0  0  0  0  0  0  0  0  0
   -1.9430   19.2020  -27.8730 F   0  0  0  0  0  0  0  0  0  0  0  0
   -1.7130   21.5320  -27.3240 C   0  0  0  0  0  0  0  0  0  0  0  0
   -1.2090   21.1850  -25.9470 C   0  0  0  0  0  0  0  0  0  0  0  0
   -1.8720   22.8840  -27.7120 C   0  0  0  0  0  0  0  0  0  0  0  0
   -1.5430   24.1650  -26.5340 Cl  0  0  0  0  0  0  0  0  0  0  0  0
   -5.8470   25.0100  -29.5630 C   0  0  0  0  0  0  0  0  0  0  0  0
   -7.0090   24.3660  -29.7870 N   0  0  0  0  0  0  0  0  0  0  0  0
   -6.0000   21.1060  -32.6770 C   0  0  0  0  0  0  0  0  0  0  0  0
   -3.1330   21.0591  -32.2320 H   0  0  0  0  0  0  0  0  0  0  0  0
   -2.1373   20.7627  -33.6974 H   0  0  0  0  0  0  0  0  0  0  0  0
   -3.3680   22.0711  -33.6974 H   0  0  0  0  0  0  0  0  0  0  0  0
   -5.5972   17.8687  -33.7103 H   0  0  0  0  0  0  0  0  0  0  0  0
   -7.8648   17.6873  -32.6867 H   0  0  0  0  0  0  0  0  0  0  0  0
   -8.9398   19.6863  -31.6532 H   0  0  0  0  0  0  0  0  0  0  0  0
   -5.0549   22.9065  -31.9408 H   0  0  0  0  0  0  0  0  0  0  0  0
   -3.0963   22.3831  -30.8779 H   0  0  0  0  0  0  0  0  0  0  0  0
   -2.8398   20.0139  -30.1795 H   0  0  0  0  0  0  0  0  0  0  0  0
   -1.8670   21.6380  -25.1908 H   0  0  0  0  0  0  0  0  0  0  0  0
   -1.2054   20.0921  -25.8225 H   0  0  0  0  0  0  0  0  0  0  0  0
   -0.1867   21.5716  -25.8225 H   0  0  0  0  0  0  0  0  0  0  0  0
   -5.6891   25.8053  -28.8197 H   0  0  0  0  0  0  0  0  0  0  0  0
   -5.4736   22.0718  -32.6686 H   0  0  0  0  0  0  0  0  0  0  0  0
  1  2  1  0
  2  3  1  0
  3  4  2  0
  4  5  1  0
  5  6  2  0
  6  7  1  0
  7  8  1  0
  8  9  2  0
  8 10  2  0
  8 11  1  0
 11 12  1  0
 12 13  2  0
 13 14  1  0
 14 15  1  0
 15 16  2  0
 15 17  1  0
 17 18  2  0
 18 19  1  0
 19 20  2  0
 20 21  1  0
 20 22  1  0
 22 23  1  0
 22 24  2  0
 24 25  1  0
 13 26  1  0
 26 27  2  0
  7 28  2  0
 28  3  1  0
 27 11  1  0
 24 17  1  0
  1 29  1  0
  1 30  1  0
  1 31  1  0
  4 32  1  0
  5 33  1  0
  6 34  1  0
 12 35  1  0
 18 36  1  0
 19 37  1  0
 23 38  1  0
 23 39  1  0
 23 40  1  0
 26 41  1  0
 28 42  1  0
M  CHG  1  14  -1
M  END
>  <UniqueID>  (27) 
25

>  <SMILES>  (27) 
COc1cccc(S(=O)(=O)n2cc([N-]C(=O)c3ccc(F)c(C)c3Cl)cn2)c1

>  <Energy>  (27) 
85.44591056527949

>  <Genealogy>  (27) 
COc1cccc(S(=O)(=O)n2cc([N-]C(=O)c3ccc(F)c(C)c3Cl)cn2)c1 (protonated)
COc1cccc(S(=O)(=O)n2cc([N-]C(=O)c3ccc(F)c(C)c3Cl)cn2)c1 (3D coordinates assigned)
COc1cccc(S(=O)(=O)n2cc([N-]C(=O)c3ccc(F)c(C)c3Cl)cn2)c1 (optimized conformer: 85.44591056527949 kcal/mol)

>  <smiles>  (27) 
COc1cccc(S(=O)(=O)n2cc(NC(=O)c3ccc(F)c(C)c3Cl)cn2)c1

>  <score_type>  (27) 
oracle

>  <origin>  (27) 
adgpu

>  <m_score__min__energy>  (27) 
-10.91

>  <m_primary>  (27) 
energy

$$$$
27:0
     RDKit          3D

 36 39  0  0  0  0  0  0  0  0999 V2000
    0.0380   20.6730  -28.1310 O   0  0  0  0  0  0  0  0  0  0  0  0
   -0.2450   21.5720  -27.3540 C   0  0  0  0  0  0  0  0  0  0  0  0
    0.8070   22.5880  -26.9740 C   0  0  0  0  0  0  0  0  0  0  0  0
    0.4960   24.0350  -27.4370 C   0  0  0  0  0  0  0  0  0  0  0  0
   -0.8450   24.6630  -26.9000 C   0  0  1  0  0  0  0  0  0  0  0  0
   -0.9170   24.7000  -25.3500 C   0  0  0  0  0  0  0  0  0  0  0  0
   -0.3140   26.0190  -24.7490 C   0  0  0  0  0  0  0  0  0  0  0  0
    0.6120   26.7540  -25.6570 N   0  0  0  0  0  0  0  0  0  0  0  0
    0.0980   27.0210  -27.0330 C   0  0  0  0  0  0  0  0  0  0  0  0
   -1.0940   26.1230  -27.3410 C   0  0  1  0  0  0  0  0  0  0  0  0
   -1.5980   26.0580  -28.6640 O   0  0  0  0  0  0  0  0  0  0  0  0
   -2.2820   24.8530  -28.7380 C   0  0  0  0  0  0  0  0  0  0  0  0
   -3.1510   24.4540  -29.7490 C   0  0  0  0  0  0  0  0  0  0  0  0
   -3.4780   25.3160  -30.7880 O   0  0  0  0  0  0  0  0  0  0  0  0
   -3.6780   23.1550  -29.7000 C   0  0  0  0  0  0  0  0  0  0  0  0
   -3.2750   22.2640  -28.6870 C   0  0  0  0  0  0  0  0  0  0  0  0
   -2.3790   22.6820  -27.6810 C   0  0  0  0  0  0  0  0  0  0  0  0
   -1.9710   24.0230  -27.6720 C   0  0  0  0  0  0  0  0  0  0  0  0
   -1.6540   21.6810  -26.8360 C   0  0  0  0  0  0  0  0  0  0  0  0
    0.9032   22.5904  -25.8782 H   0  0  0  0  0  0  0  0  0  0  0  0
    1.7336   22.2870  -27.4848 H   0  0  0  0  0  0  0  0  0  0  0  0
    1.3243   24.6787  -27.1062 H   0  0  0  0  0  0  0  0  0  0  0  0
    0.3773   23.9760  -28.5290 H   0  0  0  0  0  0  0  0  0  0  0  0
   -1.9709   24.6232  -25.0443 H   0  0  0  0  0  0  0  0  0  0  0  0
   -0.3215   23.8574  -24.9686 H   0  0  0  0  0  0  0  0  0  0  0  0
   -1.1469   26.6904  -24.4933 H   0  0  0  0  0  0  0  0  0  0  0  0
    0.2836   25.7165  -23.8764 H   0  0  0  0  0  0  0  0  0  0  0  0
    1.5190   26.2380  -25.7030 H   0  0  0  0  0  0  0  0  0  0  0  0
    0.8330   27.6720  -25.2080 H   0  0  0  0  0  0  0  0  0  0  0  0
   -0.2135   28.0735  -27.1052 H   0  0  0  0  0  0  0  0  0  0  0  0
    0.8980   26.8117  -27.7584 H   0  0  0  0  0  0  0  0  0  0  0  0
   -1.8637   26.6486  -26.7569 H   0  0  0  0  0  0  0  0  0  0  0  0
   -4.4088   22.8312  -30.4557 H   0  0  0  0  0  0  0  0  0  0  0  0
   -3.6618   21.2343  -28.6801 H   0  0  0  0  0  0  0  0  0  0  0  0
   -1.6421   22.0153  -25.7881 H   0  0  0  0  0  0  0  0  0  0  0  0
   -2.1565   20.7036  -26.8839 H   0  0  0  0  0  0  0  0  0  0  0  0
  1  2  2  0
  2  3  1  0
  3  4  1  0
  5  4  1  1
  5  6  1  0
  6  7  1  0
  7  8  1  0
  8  9  1  0
  9 10  1  0
 10 11  1  0
 11 12  1  0
 12 13  2  0
 13 14  1  0
 13 15  1  0
 15 16  2  0
 16 17  1  0
 17 18  2  0
 17 19  1  0
 19  2  1  0
 10  5  1  0
 18 12  1  0
 18  5  1  0
  3 20  1  0
  3 21  1  0
  4 22  1  0
  4 23  1  0
  6 24  1  0
  6 25  1  0
  7 26  1  0
  7 27  1  0
  8 28  1  0
  8 29  1  0
  9 30  1  0
  9 31  1  0
 10 32  1  1
 15 33  1  0
 16 34  1  0
 19 35  1  0
 19 36  1  0
M  CHG  2   8   1  14  -1
M  END
>  <UniqueID>  (28) 
26

>  <SMILES>  (28) 
O=C1CC[C@@]23CC[NH2+]C[C@H]2Oc2c([O-])ccc(c23)C1

>  <Energy>  (28) 
91.79801077924051

>  <Genealogy>  (28) 
O=C1CCC23CC[NH2+]CC2Oc2c([O-])ccc(c23)C1 (protonated)
O=C1CC[C@@]23CC[NH2+]C[C@H]2Oc2c([O-])ccc(c23)C1 (chirality)
O=C1CC[C@@]23CC[NH2+]C[C@H]2Oc2c([O-])ccc(c23)C1 (3D coordinates assigned)
O=C1CC[C@@]23CC[NH2+]C[C@H]2Oc2c([O-])ccc(c23)C1 (nonaromatic ring conformer: 91.79801077924051 kcal/mol)

>  <smiles>  (28) 
O=C1CCC23CCNCC2Oc2c(O)ccc(c23)C1

>  <score_type>  (28) 
oracle

>  <origin>  (28) 
adgpu

>  <m_score__min__energy>  (28) 
-8.1699999999999999

>  <m_primary>  (28) 
energy

$$$$
28:0
     RDKit          3D

 47 48  0  0  0  0  0  0  0  0999 V2000
   -4.1320   24.6250  -26.7180 C   0  0  0  0  0  0  0  0  0  0  0  0
   -3.8230   23.3930  -27.5630 C   0  0  0  0  0  0  0  0  0  0  0  0
   -2.4930   23.5530  -28.3090 C   0  0  0  0  0  0  0  0  0  0  0  0
   -2.4380   24.8590  -29.0570 C   0  0  0  0  0  0  0  0  0  0  0  0
   -1.4070   25.5780  -28.9730 O   0  0  0  0  0  0  0  0  0  0  0  0
   -3.5170   25.2990  -29.8940 N   0  0  0  0  0  0  0  0  0  0  0  0
   -4.5370   24.4750  -30.4760 C   0  0  0  0  0  0  0  0  0  0  0  0
   -5.8770   24.7980  -30.2510 C   0  0  0  0  0  0  0  0  0  0  0  0
   -6.8950   24.0000  -30.7730 C   0  0  0  0  0  0  0  0  0  0  0  0
   -6.5880   22.8420  -31.5160 C   0  0  0  0  0  0  0  0  0  0  0  0
   -7.5970   22.0280  -32.0540 O   0  0  0  0  0  0  0  0  0  0  0  0
   -8.9790   22.1300  -31.7310 C   0  0  0  0  0  0  0  0  0  0  0  0
   -5.2350   22.4940  -31.7130 C   0  0  0  0  0  0  0  0  0  0  0  0
   -4.7570   21.0210  -32.5720 S   0  0  0  0  0  0  0  0  0  0  0  0
   -3.9180   21.3230  -33.7820 O   0  0  0  0  0  0  0  0  0  0  0  0
   -3.9600   20.1650  -31.6290 O   0  0  0  0  0  0  0  0  0  0  0  0
   -6.1720   20.1480  -33.0790 N   0  0  0  0  0  0  0  0  0  0  0  0
   -6.1270   18.7680  -33.4740 C   0  0  0  0  0  0  0  0  0  0  0  0
   -5.1990   18.3760  -34.4510 C   0  0  0  0  0  0  0  0  0  0  0  0
   -5.0860   17.0360  -34.8250 C   0  0  0  0  0  0  0  0  0  0  0  0
   -5.9070   16.0750  -34.2350 C   0  0  0  0  0  0  0  0  0  0  0  0
   -6.8530   16.4530  -33.2800 C   0  0  0  0  0  0  0  0  0  0  0  0
   -6.9830   17.8030  -32.8980 C   0  0  0  0  0  0  0  0  0  0  0  0
   -7.9550   18.2150  -31.9720 O   0  0  0  0  0  0  0  0  0  0  0  0
   -9.1140   18.9740  -32.2980 C   0  0  0  0  0  0  0  0  0  0  0  0
   -4.2230   23.3110  -31.1910 C   0  0  0  0  0  0  0  0  0  0  0  0
   -4.0665   24.3639  -25.6514 H   0  0  0  0  0  0  0  0  0  0  0  0
   -3.4050   25.4182  -26.9466 H   0  0  0  0  0  0  0  0  0  0  0  0
   -5.1473   24.9812  -26.9466 H   0  0  0  0  0  0  0  0  0  0  0  0
   -3.7624   22.5129  -26.9059 H   0  0  0  0  0  0  0  0  0  0  0  0
   -4.6260   23.2682  -28.3044 H   0  0  0  0  0  0  0  0  0  0  0  0
   -1.6684   23.5218  -27.5817 H   0  0  0  0  0  0  0  0  0  0  0  0
   -2.4023   22.7327  -29.0362 H   0  0  0  0  0  0  0  0  0  0  0  0
   -6.1315   25.6885  -29.6576 H   0  0  0  0  0  0  0  0  0  0  0  0
   -7.9461   24.2766  -30.6035 H   0  0  0  0  0  0  0  0  0  0  0  0
   -9.1003   22.1390  -30.6378 H   0  0  0  0  0  0  0  0  0  0  0  0
   -9.3864   23.0607  -32.1528 H   0  0  0  0  0  0  0  0  0  0  0  0
   -9.5186   21.2692  -32.1528 H   0  0  0  0  0  0  0  0  0  0  0  0
   -6.9910   20.7240  -33.3740 H   0  0  0  0  0  0  0  0  0  0  0  0
   -4.5553   19.1310  -34.9260 H   0  0  0  0  0  0  0  0  0  0  0  0
   -4.3492   16.7377  -35.5853 H   0  0  0  0  0  0  0  0  0  0  0  0
   -5.8091   15.0178  -34.5225 H   0  0  0  0  0  0  0  0  0  0  0  0
   -7.5015   15.6913  -32.8226 H   0  0  0  0  0  0  0  0  0  0  0  0
   -9.6113   19.2997  -31.3725 H   0  0  0  0  0  0  0  0  0  0  0  0
   -8.8212   19.8558  -32.8867 H   0  0  0  0  0  0  0  0  0  0  0  0
   -9.8053   18.3531  -32.8867 H   0  0  0  0  0  0  0  0  0  0  0  0
   -3.1692   23.0354  -31.3443 H   0  0  0  0  0  0  0  0  0  0  0  0
  1  2  1  0
  2  3  1  0
  3  4  1  0
  4  5  2  0
  4  6  1  0
  6  7  1  0
  7  8  2  0
  8  9  1  0
  9 10  2  0
 10 11  1  0
 11 12  1  0
 10 13  1  0
 13 14  1  0
 14 15  2  0
 14 16  2  0
 14 17  1  0
 17 18  1  0
 18 19  2  0
 19 20  1  0
 20 21  2  0
 21 22  1  0
 22 23  2  0
 23 24  1  0
 24 25  1  0
 13 26  2  0
 26  7  1  0
 23 18  1  0
  1 27  1  0
  1 28  1  0
  1 29  1  0
  2 30  1  0
  2 31  1  0
  3 32  1  0
  3 33  1  0
  8 34  1  0
  9 35  1  0
 12 36  1  0
 12 37  1  0
 12 38  1  0
 17 39  1  0
 19 40  1  0
 20 41  1  0
 21 42  1  0
 22 43  1  0
 25 44  1  0
 25 45  1  0
 25 46  1  0
 26 47  1  0
M  CHG  1   6  -1
M  END
>  <UniqueID>  (29) 
27

>  <SMILES>  (29) 
CCCC(=O)[N-]c1ccc(OC)c(S(=O)(=O)Nc2ccccc2OC)c1

>  <Energy>  (29) 
49.70007040155127

>  <Genealogy>  (29) 
CCCC(=O)[N-]c1ccc(OC)c(S(=O)(=O)Nc2ccccc2OC)c1 (protonated)
CCCC(=O)[N-]c1ccc(OC)c(S(=O)(=O)Nc2ccccc2OC)c1 (3D coordinates assigned)
CCCC(=O)[N-]c1ccc(OC)c(S(=O)(=O)Nc2ccccc2OC)c1 (optimized conformer: 49.70007040155127 kcal/mol)

>  <smiles>  (29) 
CCCC(=O)Nc1ccc(OC)c(S(=O)(=O)Nc2ccccc2OC)c1

>  <score_type>  (29) 
oracle

>  <origin>  (29) 
adgpu

>  <m_score__min__energy>  (29) 
-9.6400000000000006

>  <m_primary>  (29) 
energy

$$$$
29:0
     RDKit          3D

 33 34  0  0  0  0  0  0  0  0999 V2000
   -7.2370   19.9860  -33.8350 N   0  0  0  0  0  0  0  0  0  0  0  0
   -8.1050   20.2410  -32.3600 S   0  0  0  0  0  0  0  0  0  0  0  0
   -7.5020   19.4140  -31.2590 O   0  0  0  0  0  0  0  0  0  0  0  0
   -9.5330   19.8210  -32.5590 O   0  0  0  0  0  0  0  0  0  0  0  0
   -8.0740   21.9010  -31.9360 O   0  0  0  0  0  0  0  0  0  0  0  0
   -6.9270   22.6280  -31.5890 C   0  0  0  0  0  0  0  0  0  0  0  0
   -5.6270   22.2330  -31.9570 C   0  0  0  0  0  0  0  0  0  0  0  0
   -4.5220   23.0000  -31.5770 C   0  0  0  0  0  0  0  0  0  0  0  0
   -4.6910   24.1580  -30.8110 C   0  0  0  0  0  0  0  0  0  0  0  0
   -3.5350   24.9280  -30.4510 N   0  0  0  0  0  0  0  0  0  0  0  0
   -2.6280   24.6420  -29.3760 C   0  0  0  0  0  0  0  0  0  0  0  0
   -1.8800   25.5650  -28.9590 O   0  0  0  0  0  0  0  0  0  0  0  0
   -2.5100   23.2880  -28.7860 C   0  0  0  0  0  0  0  0  0  0  0  0
   -1.3070   22.5670  -28.8690 C   0  0  0  0  0  0  0  0  0  0  0  0
   -1.2040   21.2910  -28.3080 C   0  0  0  0  0  0  0  0  0  0  0  0
   -2.2990   20.7130  -27.6430 C   0  0  0  0  0  0  0  0  0  0  0  0
   -2.1880   19.3980  -27.0670 N   0  0  0  0  0  0  0  0  0  0  0  0
   -3.1240   18.9170  -26.3950 O   0  0  0  0  0  0  0  0  0  0  0  0
   -1.0490   18.6480  -27.2490 O   0  0  0  0  0  0  0  0  0  0  0  0
   -3.4970   21.4420  -27.5460 C   0  0  0  0  0  0  0  0  0  0  0  0
   -3.6000   22.7180  -28.1080 C   0  0  0  0  0  0  0  0  0  0  0  0
   -5.9880   24.5640  -30.4580 C   0  0  0  0  0  0  0  0  0  0  0  0
   -7.0940   23.7970  -30.8370 C   0  0  0  0  0  0  0  0  0  0  0  0
   -7.8090   20.3820  -34.6130 H   0  0  0  0  0  0  0  0  0  0  0  0
   -7.1950   18.9540  -33.9870 H   0  0  0  0  0  0  0  0  0  0  0  0
   -5.4800   21.3161  -32.5466 H   0  0  0  0  0  0  0  0  0  0  0  0
   -3.5117   22.6905  -31.8827 H   0  0  0  0  0  0  0  0  0  0  0  0
   -0.4393   23.0103  -29.3795 H   0  0  0  0  0  0  0  0  0  0  0  0
   -0.2584   20.7347  -28.3876 H   0  0  0  0  0  0  0  0  0  0  0  0
   -4.3607   21.0048  -27.0235 H   0  0  0  0  0  0  0  0  0  0  0  0
   -4.5416   23.2796  -28.0185 H   0  0  0  0  0  0  0  0  0  0  0  0
   -6.1345   25.4890  -29.8811 H   0  0  0  0  0  0  0  0  0  0  0  0
   -8.1047   24.1151  -30.5415 H   0  0  0  0  0  0  0  0  0  0  0  0
  1  2  1  0
  2  3  2  0
  2  4  2  0
  2  5  1  0
  5  6  1  0
  6  7  2  0
  7  8  1  0
  8  9  2  0
  9 10  1  0
 10 11  1  0
 11 12  2  0
 11 13  1  0
 13 14  2  0
 14 15  1  0
 15 16  2  0
 16 17  1  0
 17 18  2  0
 17 19  1  0
 16 20  1  0
 20 21  2  0
  9 22  1  0
 22 23  2  0
 23  6  1  0
 21 13  1  0
  1 24  1  0
  1 25  1  0
  7 26  1  0
  8 27  1  0
 14 28  1  0
 15 29  1  0
 20 30  1  0
 21 31  1  0
 22 32  1  0
 23 33  1  0
M  CHG  3  10  -1  17   1  19  -1
M  END
>  <UniqueID>  (30) 
28

>  <SMILES>  (30) 
NS(=O)(=O)Oc1ccc([N-]C(=O)c2ccc([N+](=O)[O-])cc2)cc1

>  <Energy>  (30) 
39.07039446403151

>  <Genealogy>  (30) 
NS(=O)(=O)Oc1ccc([N-]C(=O)c2ccc([N+](=O)[O-])cc2)cc1 (protonated)
NS(=O)(=O)Oc1ccc([N-]C(=O)c2ccc([N+](=O)[O-])cc2)cc1 (3D coordinates assigned)
NS(=O)(=O)Oc1ccc([N-]C(=O)c2ccc([N+](=O)[O-])cc2)cc1 (optimized conformer: 39.07039446403151 kcal/mol)

>  <smiles>  (30) 
NS(=O)(=O)Oc1ccc(NC(=O)c2ccc([N+](=O)[O-])cc2)cc1

>  <score_type>  (30) 
oracle

>  <origin>  (30) 
adgpu

>  <m_score__min__energy>  (30) 
-9.7300000000000004

>  <m_primary>  (30) 
energy

$$$$
30:0
     RDKit          3D

 35 37  0  0  0  0  0  0  0  0999 V2000
   -4.7980   25.9450  -31.5530 H   0  0  0  0  0  0  0  0  0  0  0  0
   -4.2400   25.6760  -30.7110 N   0  0  0  0  0  0  0  0  0  0  0  0
   -3.9550   24.4410  -30.4570 C   0  0  0  0  0  0  0  0  0  0  0  0
   -4.3790   23.4540  -31.2880 N   0  0  0  0  0  0  0  0  0  0  0  0
   -4.0920   22.1470  -31.0440 C   0  0  0  0  0  0  0  0  0  0  0  0
   -4.5700   21.1080  -31.9930 C   0  0  0  0  0  0  0  0  0  0  0  0
   -3.6440   20.2600  -32.6260 C   0  0  0  0  0  0  0  0  0  0  0  0
   -2.5709   20.3681  -32.4100 H   0  0  0  0  0  0  0  0  0  0  0  0
   -4.0730   19.2810  -33.5270 C   0  0  0  0  0  0  0  0  0  0  0  0
   -3.3376   18.6199  -34.0088 H   0  0  0  0  0  0  0  0  0  0  0  0
   -5.4420   19.1380  -33.8200 C   0  0  0  0  0  0  0  0  0  0  0  0
   -5.9220   18.1720  -34.7160 O   0  0  0  0  0  0  0  0  0  0  0  0
   -6.2420   16.8310  -34.3580 C   0  0  0  0  0  0  0  0  0  0  0  0
   -6.2639   16.7393  -33.2620 H   0  0  0  0  0  0  0  0  0  0  0  0
   -7.2282   16.5675  -34.7677 H   0  0  0  0  0  0  0  0  0  0  0  0
   -5.4810   16.1506  -34.7677 H   0  0  0  0  0  0  0  0  0  0  0  0
   -6.3640   19.9880  -33.2010 C   0  0  0  0  0  0  0  0  0  0  0  0
   -7.4359   19.8859  -33.4261 H   0  0  0  0  0  0  0  0  0  0  0  0
   -5.9360   20.9660  -32.2990 C   0  0  0  0  0  0  0  0  0  0  0  0
   -6.6732   21.6303  -31.8243 H   0  0  0  0  0  0  0  0  0  0  0  0
   -3.3290   21.8170  -29.9110 C   0  0  0  0  0  0  0  0  0  0  0  0
   -3.0668   20.7696  -29.7006 H   0  0  0  0  0  0  0  0  0  0  0  0
   -2.9060   22.8440  -29.0510 C   0  0  0  0  0  0  0  0  0  0  0  0
   -2.0970   22.5630  -27.8370 C   0  0  0  0  0  0  0  0  0  0  0  0
   -1.9710   21.2420  -27.3680 C   0  0  0  0  0  0  0  0  0  0  0  0
   -2.4779   20.4240  -27.9008 H   0  0  0  0  0  0  0  0  0  0  0  0
   -1.2080   20.9600  -26.2320 C   0  0  0  0  0  0  0  0  0  0  0  0
   -1.1204   19.9241  -25.8724 H   0  0  0  0  0  0  0  0  0  0  0  0
   -0.5560   21.9920  -25.5520 C   0  0  0  0  0  0  0  0  0  0  0  0
    0.0395   21.7696  -24.6543 H   0  0  0  0  0  0  0  0  0  0  0  0
   -0.6610   23.3060  -26.0130 C   0  0  0  0  0  0  0  0  0  0  0  0
   -0.1422   24.1172  -25.4812 H   0  0  0  0  0  0  0  0  0  0  0  0
   -1.4240   23.5930  -27.1490 C   0  0  0  0  0  0  0  0  0  0  0  0
   -1.4996   24.6299  -27.5084 H   0  0  0  0  0  0  0  0  0  0  0  0
   -3.2280   24.1320  -29.3530 N   0  0  0  0  0  0  0  0  0  0  0  0
  1  2  1  0
  2  3  2  0
  3  4  1  0
  4  5  2  0
  5  6  1  0
  6  7  2  0
  7  8  1  0
  7  9  1  0
  9 10  1  0
  9 11  2  0
 11 12  1  0
 12 13  1  0
 13 14  1  0
 13 15  1  0
 13 16  1  0
 11 17  1  0
 17 18  1  0
 17 19  2  0
 19 20  1  0
  5 21  1  0
 21 22  1  0
 21 23  2  0
 23 24  1  0
 24 25  2  0
 25 26  1  0
 25 27  1  0
 27 28  1  0
 27 29  2  0
 29 30  1  0
 29 31  1  0
 31 32  1  0
 31 33  2  0
 33 34  1  0
 23 35  1  0
 35  3  1  0
 19  6  1  0
 33 24  1  0
M  CHG  1  35  -1
M  END
>  <UniqueID>  (31) 
29

>  <SMILES>  (31) 
[H]/N=c1\nc(-c2ccc(OC)cc2)cc(-c2ccccc2)[n-]1

>  <Energy>  (31) 
45.501912974066904

>  <Genealogy>  (31) 
COc1ccc(-c2cc(-c3ccccc3)[n-]c(=N)n2)cc1 (protonated)
[H]/N=c1\nc(-c2ccc(OC)cc2)cc(-c2ccccc2)[n-]1 (cis-trans isomerization)
[H]/N=c1\nc(-c2ccc(OC)cc2)cc(-c2ccccc2)[n-]1 (3D coordinates assigned)
[H]/N=c1\nc(-c2ccc(OC)cc2)cc(-c2ccccc2)[n-]1 (optimized conformer: 45.501912974066904 kcal/mol)

>  <smiles>  (31) 
COc1ccc(-c2cc(-c3ccccc3)[nH]c(=N)n2)cc1

>  <score_type>  (31) 
oracle

>  <origin>  (31) 
adgpu

>  <m_score__min__energy>  (31) 
-8.4199999999999999

>  <m_primary>  (31) 
energy

$$$$
31:0
     RDKit          3D

 54 57  0  0  0  0  0  0  0  0999 V2000
   -2.8500   24.5050  -29.1660 C   0  0  0  0  0  0  0  0  0  0  0  0
   -3.4720   24.7060  -30.4300 O   0  0  0  0  0  0  0  0  0  0  0  0
   -4.7540   24.2460  -30.7700 C   0  0  0  0  0  0  0  0  0  0  0  0
   -5.9180   24.9300  -30.3770 C   0  0  0  0  0  0  0  0  0  0  0  0
   -7.1780   24.4710  -30.7670 C   0  0  0  0  0  0  0  0  0  0  0  0
   -7.3050   23.3120  -31.5450 C   0  0  0  0  0  0  0  0  0  0  0  0
   -8.6140   22.8850  -31.9650 N   0  0  0  0  0  0  0  0  0  0  0  0
   -9.2620   21.3050  -31.6520 S   0  0  0  0  0  0  0  0  0  0  0  0
  -10.5910   21.1660  -32.3410 O   0  0  0  0  0  0  0  0  0  0  0  0
   -9.4600   21.1440  -30.1710 O   0  0  0  0  0  0  0  0  0  0  0  0
   -8.1710   20.0660  -32.2700 C   0  0  0  0  0  0  0  0  0  0  0  0
   -8.0210   18.8490  -31.5940 C   0  0  0  0  0  0  0  0  0  0  0  0
   -7.1060   17.8990  -32.0510 C   0  0  0  0  0  0  0  0  0  0  0  0
   -6.3270   18.1460  -33.1970 C   0  0  0  0  0  0  0  0  0  0  0  0
   -5.3430   17.1300  -33.6530 C   0  0  0  0  0  0  0  0  0  0  0  0
   -5.1610   15.9110  -32.9710 C   0  0  0  0  0  0  0  0  0  0  0  0
   -4.2180   14.9940  -33.4380 C   0  0  0  0  0  0  0  0  0  0  0  0
   -3.4540   15.2940  -34.5660 C   0  0  0  0  0  0  0  0  0  0  0  0
   -3.6470   16.5140  -35.2150 C   0  0  0  0  0  0  0  0  0  0  0  0
   -4.5740   17.3920  -34.7490 N   0  0  0  0  0  0  0  0  0  0  0  0
   -6.4820   19.3740  -33.8700 C   0  0  0  0  0  0  0  0  0  0  0  0
   -7.3990   20.3230  -33.4100 C   0  0  0  0  0  0  0  0  0  0  0  0
   -6.1450   22.6020  -31.8980 C   0  0  0  0  0  0  0  0  0  0  0  0
   -4.8750   23.0730  -31.5370 C   0  0  0  0  0  0  0  0  0  0  0  0
   -3.7100   22.3520  -31.9700 N   0  0  0  0  0  0  0  0  0  0  0  0
   -3.5820   21.9300  -33.3690 C   0  0  0  0  0  0  0  0  0  0  0  0
   -3.3640   20.4050  -33.4650 C   0  0  0  0  0  0  0  0  0  0  0  0
   -2.7500   19.8100  -32.2600 N   0  0  0  0  0  0  0  0  0  0  0  0
   -1.8810   20.7540  -31.5470 C   0  0  0  0  0  0  0  0  0  0  0  0
   -2.7030   21.9260  -30.9930 C   0  0  0  0  0  0  0  0  0  0  0  0
   -3.5663   24.7365  -28.3639 H   0  0  0  0  0  0  0  0  0  0  0  0
   -2.5276   23.4569  -29.0785 H   0  0  0  0  0  0  0  0  0  0  0  0
   -1.9753   25.1662  -29.0785 H   0  0  0  0  0  0  0  0  0  0  0  0
   -5.8354   25.8347  -29.7568 H   0  0  0  0  0  0  0  0  0  0  0  0
   -8.0785   25.0237  -30.4610 H   0  0  0  0  0  0  0  0  0  0  0  0
   -9.1880   23.5200  -32.5640 H   0  0  0  0  0  0  0  0  0  0  0  0
   -8.6264   18.6408  -30.6995 H   0  0  0  0  0  0  0  0  0  0  0  0
   -6.9926   16.9479  -31.5101 H   0  0  0  0  0  0  0  0  0  0  0  0
   -5.7584   15.6831  -32.0759 H   0  0  0  0  0  0  0  0  0  0  0  0
   -4.0774   14.0355  -32.9170 H   0  0  0  0  0  0  0  0  0  0  0  0
   -2.7080   14.5770  -34.9395 H   0  0  0  0  0  0  0  0  0  0  0  0
   -3.0491   16.7651  -36.1035 H   0  0  0  0  0  0  0  0  0  0  0  0
   -5.8771   19.5873  -34.7636 H   0  0  0  0  0  0  0  0  0  0  0  0
   -7.5150   21.2766  -33.9460 H   0  0  0  0  0  0  0  0  0  0  0  0
   -6.2347   21.6639  -32.4653 H   0  0  0  0  0  0  0  0  0  0  0  0
   -4.5006   22.1976  -33.9117 H   0  0  0  0  0  0  0  0  0  0  0  0
   -2.7130   22.4385  -33.8120 H   0  0  0  0  0  0  0  0  0  0  0  0
   -4.3403   19.9254  -33.6288 H   0  0  0  0  0  0  0  0  0  0  0  0
   -2.6644   20.2346  -34.2966 H   0  0  0  0  0  0  0  0  0  0  0  0
   -3.5110   19.5000  -31.6100 H   0  0  0  0  0  0  0  0  0  0  0  0
   -1.3863   20.2328  -30.7141 H   0  0  0  0  0  0  0  0  0  0  0  0
   -1.1294   21.1458  -32.2482 H   0  0  0  0  0  0  0  0  0  0  0  0
   -3.2069   21.6097  -30.0678 H   0  0  0  0  0  0  0  0  0  0  0  0
   -2.0274   22.7692  -30.7867 H   0  0  0  0  0  0  0  0  0  0  0  0
  1  2  1  0
  2  3  1  0
  3  4  2  0
  4  5  1  0
  5  6  2  0
  6  7  1  0
  7  8  1  0
  8  9  2  0
  8 10  2  0
  8 11  1  0
 11 12  2  0
 12 13  1  0
 13 14  2  0
 14 15  1  0
 15 16  2  0
 16 17  1  0
 17 18  2  0
 18 19  1  0
 19 20  2  0
 14 21  1  0
 21 22  2  0
  6 23  1  0
 23 24  2  0
 24 25  1  0
 25 26  1  0
 26 27  1  0
 27 28  1  0
 28 29  1  0
 29 30  1  0
 24  3  1  0
 30 25  1  0
 22 11  1  0
 20 15  1  0
  1 31  1  0
  1 32  1  0
  1 33  1  0
  4 34  1  0
  5 35  1  0
  7 36  1  0
 12 37  1  0
 13 38  1  0
 16 39  1  0
 17 40  1  0
 18 41  1  0
 19 42  1  0
 21 43  1  0
 22 44  1  0
 23 45  1  0
 26 46  1  0
 26 47  1  0
 27 48  1  0
 27 49  1  0
 28 50  1  0
 29 51  1  0
 29 52  1  0
 30 53  1  0
 30 54  1  0
M  END
>  <UniqueID>  (32) 
30

>  <SMILES>  (32) 
COc1ccc(NS(=O)(=O)c2ccc(-c3ccccn3)cc2)cc1N1CCNCC1

>  <Energy>  (32) 
70.97874347866659

>  <Genealogy>  (32) 
COc1ccc(NS(=O)(=O)c2ccc(-c3ccccn3)cc2)cc1N1CCNCC1 (3D coordinates assigned)
COc1ccc(NS(=O)(=O)c2ccc(-c3ccccn3)cc2)cc1N1CCNCC1 (nonaromatic ring conformer: 70.97874347866659 kcal/mol)

>  <smiles>  (32) 
COc1ccc(NS(=O)(=O)c2ccc(-c3ccccn3)cc2)cc1N1CCNCC1

>  <score_type>  (32) 
oracle

>  <origin>  (32) 
adgpu

>  <m_score__min__energy>  (32) 
-10.619999999999999

>  <m_primary>  (32) 
energy

$$$$
32:0
     RDKit          3D

 43 45  0  0  0  0  0  0  0  0999 V2000
   -4.7600   13.8670  -32.5920 C   0  0  0  0  0  0  0  0  0  0  0  0
   -5.4280   13.6100  -33.9240 C   0  0  0  0  0  0  0  0  0  0  0  0
   -6.3450   14.7160  -34.2150 N   0  0  0  0  0  0  0  0  0  0  0  0
   -7.5970   14.3230  -34.8540 C   0  0  0  0  0  0  0  0  0  0  0  0
   -7.5100   12.8780  -35.3020 C   0  0  0  0  0  0  0  0  0  0  0  0
   -6.0110   16.0460  -33.8980 C   0  0  0  0  0  0  0  0  0  0  0  0
   -4.8160   16.6170  -34.1230 N   0  0  0  0  0  0  0  0  0  0  0  0
   -4.4690   17.8540  -33.7860 C   0  0  0  0  0  0  0  0  0  0  0  0
   -3.2860   18.2500  -34.0830 N   0  0  0  0  0  0  0  0  0  0  0  0
   -5.4120   18.6320  -33.1480 C   0  0  0  0  0  0  0  0  0  0  0  0
   -5.1120   19.9090  -32.7620 C   0  0  0  0  0  0  0  0  0  0  0  0
   -6.0580   20.6740  -32.1080 C   0  0  0  0  0  0  0  0  0  0  0  0
   -5.6970   22.0270  -31.7110 C   0  0  0  0  0  0  0  0  0  0  0  0
   -4.5430   22.1350  -30.9250 C   0  0  0  0  0  0  0  0  0  0  0  0
   -4.0890   23.3360  -30.4830 C   0  0  0  0  0  0  0  0  0  0  0  0
   -4.8030   24.4730  -30.8320 C   0  0  0  0  0  0  0  0  0  0  0  0
   -4.3280   25.6920  -30.3760 O   0  0  0  0  0  0  0  0  0  0  0  0
   -5.9440   24.3970  -31.6060 C   0  0  0  0  0  0  0  0  0  0  0  0
   -6.4020   23.1510  -32.0550 C   0  0  0  0  0  0  0  0  0  0  0  0
   -7.3280   20.1560  -31.8350 C   0  0  0  0  0  0  0  0  0  0  0  0
   -8.5090   21.1430  -31.0000 Cl  0  0  0  0  0  0  0  0  0  0  0  0
   -7.6130   18.8640  -32.2340 C   0  0  0  0  0  0  0  0  0  0  0  0
   -6.6740   18.0860  -32.8900 C   0  0  0  0  0  0  0  0  0  0  0  0
   -6.9490   16.8020  -33.2710 N   0  0  0  0  0  0  0  0  0  0  0  0
   -5.4507   13.6013  -31.7781 H   0  0  0  0  0  0  0  0  0  0  0  0
   -3.8492   13.2551  -32.5145 H   0  0  0  0  0  0  0  0  0  0  0  0
   -4.4942   14.9316  -32.5145 H   0  0  0  0  0  0  0  0  0  0  0  0
   -4.6649   13.5452  -34.7136 H   0  0  0  0  0  0  0  0  0  0  0  0
   -5.9860   12.6628  -33.8852 H   0  0  0  0  0  0  0  0  0  0  0  0
   -8.4240   14.4345  -34.1374 H   0  0  0  0  0  0  0  0  0  0  0  0
   -7.7770   14.9654  -35.7286 H   0  0  0  0  0  0  0  0  0  0  0  0
   -7.4705   12.2223  -34.4197 H   0  0  0  0  0  0  0  0  0  0  0  0
   -8.3947   12.6274  -35.9058 H   0  0  0  0  0  0  0  0  0  0  0  0
   -6.6016   12.7354  -35.9058 H   0  0  0  0  0  0  0  0  0  0  0  0
   -2.8760   19.1790  -33.8850 H   0  0  0  0  0  0  0  0  0  0  0  0
   -4.1167   20.3273  -32.9724 H   0  0  0  0  0  0  0  0  0  0  0  0
   -3.9895   21.2225  -30.6585 H   0  0  0  0  0  0  0  0  0  0  0  0
   -3.1811   23.4053  -29.8659 H   0  0  0  0  0  0  0  0  0  0  0  0
   -4.6170   26.0460  -29.4560 H   0  0  0  0  0  0  0  0  0  0  0  0
   -6.4927   25.3132  -31.8698 H   0  0  0  0  0  0  0  0  0  0  0  0
   -7.3098   23.0764  -32.6717 H   0  0  0  0  0  0  0  0  0  0  0  0
   -8.6082   18.4442  -32.0258 H   0  0  0  0  0  0  0  0  0  0  0  0
   -7.9060   16.4350  -33.0590 H   0  0  0  0  0  0  0  0  0  0  0  0
  1  2  1  0
  2  3  1  0
  3  4  1  0
  4  5  1  0
  3  6  1  0
  6  7  2  0
  7  8  1  0
  8  9  2  3
  8 10  1  0
 10 11  2  0
 11 12  1  0
 12 13  1  0
 13 14  2  0
 14 15  1  0
 15 16  2  0
 16 17  1  0
 16 18  1  0
 18 19  2  0
 12 20  2  0
 20 21  1  0
 20 22  1  0
 22 23  2  0
 23 24  1  0
 24  6  1  0
 23 10  1  0
 19 13  1  0
  1 25  1  0
  1 26  1  0
  1 27  1  0
  2 28  1  0
  2 29  1  0
  4 30  1  0
  4 31  1  0
  5 32  1  0
  5 33  1  0
  5 34  1  0
  9 35  1  0
 11 36  1  0
 14 37  1  0
 15 38  1  0
 17 39  1  0
 18 40  1  0
 19 41  1  0
 22 42  1  0
 24 43  1  0
M  END
>  <smiles>  (33) 
CCN(CC)c1nc(=N)c2cc(-c3ccc(O)cc3)c(Cl)cc2[nH]1

>  <score_type>  (33) 
oracle

>  <origin>  (33) 
adgpu

>  <m_score__min__energy>  (33) 
-8.0099999999999998

>  <m_primary>  (33) 
energy

$$$$
33:0
     RDKit          3D

 40 41  0  0  0  0  0  0  0  0999 V2000
   -0.8650   26.8010  -27.8470 C   0  0  0  0  0  0  0  0  0  0  0  0
   -1.3630   26.0530  -28.9520 O   0  0  0  0  0  0  0  0  0  0  0  0
   -1.6490   24.6800  -28.9210 C   0  0  0  0  0  0  0  0  0  0  0  0
   -0.8690   23.7760  -28.1740 C   0  0  0  0  0  0  0  0  0  0  0  0
   -1.1440   22.4070  -28.2070 C   0  0  0  0  0  0  0  0  0  0  0  0
   -2.1820   21.9140  -29.0090 C   0  0  0  0  0  0  0  0  0  0  0  0
   -2.4980   20.4480  -29.0180 C   0  0  0  0  0  0  0  0  0  0  0  0
   -2.9730   22.8100  -29.7390 C   0  0  0  0  0  0  0  0  0  0  0  0
   -2.7370   24.1890  -29.6710 C   0  0  0  0  0  0  0  0  0  0  0  0
   -3.5950   25.0660  -30.4160 N   0  0  0  0  0  0  0  0  0  0  0  0
   -4.9870   24.8570  -30.6910 C   0  0  0  0  0  0  0  0  0  0  0  0
   -5.6480   25.7930  -31.2150 O   0  0  0  0  0  0  0  0  0  0  0  0
   -5.6740   23.5440  -30.4150 C   0  0  0  0  0  0  0  0  0  0  0  0
   -6.1930   22.9490  -31.6640 N   0  0  0  0  0  0  0  0  0  0  0  0
   -7.5570   23.4240  -31.9450 C   0  0  0  0  0  0  0  0  0  0  0  0
   -6.0960   21.4690  -31.6990 C   0  0  0  0  0  0  0  0  0  0  0  0
   -4.8620   20.9510  -32.3920 C   0  0  0  0  0  0  0  0  0  0  0  0
   -4.6670   19.6570  -32.8640 C   0  0  0  0  0  0  0  0  0  0  0  0
   -3.4170   19.4700  -33.4680 C   0  0  0  0  0  0  0  0  0  0  0  0
   -2.6380   20.6180  -33.4770 C   0  0  0  0  0  0  0  0  0  0  0  0
   -0.8800   20.7750  -34.1950 Br  0  0  0  0  0  0  0  0  0  0  0  0
   -3.4930   21.8640  -32.7450 S   0  0  0  0  0  0  0  0  0  0  0  0
   -1.1827   26.3238  -26.9082 H   0  0  0  0  0  0  0  0  0  0  0  0
    0.2338   26.8307  -27.8897 H   0  0  0  0  0  0  0  0  0  0  0  0
   -1.2614   27.8262  -27.8897 H   0  0  0  0  0  0  0  0  0  0  0  0
   -0.0369   24.1509  -27.5599 H   0  0  0  0  0  0  0  0  0  0  0  0
   -0.5433   21.7129  -27.6009 H   0  0  0  0  0  0  0  0  0  0  0  0
   -2.5766   20.0835  -27.9831 H   0  0  0  0  0  0  0  0  0  0  0  0
   -3.4526   20.2819  -29.5387 H   0  0  0  0  0  0  0  0  0  0  0  0
   -1.6966   19.9034  -29.5387 H   0  0  0  0  0  0  0  0  0  0  0  0
   -3.7873   22.4272  -30.3717 H   0  0  0  0  0  0  0  0  0  0  0  0
   -4.9540   22.8498  -29.9572 H   0  0  0  0  0  0  0  0  0  0  0  0
   -6.5186   23.7250  -29.7339 H   0  0  0  0  0  0  0  0  0  0  0  0
   -8.0839   23.6075  -30.9970 H   0  0  0  0  0  0  0  0  0  0  0  0
   -7.5080   24.3580  -32.5240 H   0  0  0  0  0  0  0  0  0  0  0  0
   -8.0988   22.6616  -32.5240 H   0  0  0  0  0  0  0  0  0  0  0  0
   -6.0923   21.0982  -30.6634 H   0  0  0  0  0  0  0  0  0  0  0  0
   -6.9600   21.1074  -32.2758 H   0  0  0  0  0  0  0  0  0  0  0  0
   -5.4195   18.8600  -32.7721 H   0  0  0  0  0  0  0  0  0  0  0  0
   -3.0866   18.5103  -33.8921 H   0  0  0  0  0  0  0  0  0  0  0  0
  1  2  1  0
  2  3  1  0
  3  4  2  0
  4  5  1  0
  5  6  2  0
  6  7  1  0
  6  8  1  0
  8  9  2  0
  9 10  1  0
 10 11  1  0
 11 12  2  0
 11 13  1  0
 13 14  1  0
 14 15  1  0
 14 16  1  0
 16 17  1  0
 17 18  2  0
 18 19  1  0
 19 20  2  0
 20 21  1  0
 20 22  1  0
  9  3  1  0
 22 17  1  0
  1 23  1  0
  1 24  1  0
  1 25  1  0
  4 26  1  0
  5 27  1  0
  7 28  1  0
  7 29  1  0
  7 30  1  0
  8 31  1  0
 13 32  1  0
 13 33  1  0
 15 34  1  0
 15 35  1  0
 15 36  1  0
 16 37  1  0
 16 38  1  0
 18 39  1  0
 19 40  1  0
M  CHG  1  10  -1
M  END
>  <UniqueID>  (34) 
31

>  <SMILES>  (34) 
COc1ccc(C)cc1[N-]C(=O)CN(C)Cc1ccc(Br)s1

>  <Energy>  (34) 
70.29834648689209

>  <Genealogy>  (34) 
COc1ccc(C)cc1[N-]C(=O)CN(C)Cc1ccc(Br)s1 (protonated)
COc1ccc(C)cc1[N-]C(=O)CN(C)Cc1ccc(Br)s1 (3D coordinates assigned)
COc1ccc(C)cc1[N-]C(=O)CN(C)Cc1ccc(Br)s1 (optimized conformer: 70.29834648689209 kcal/mol)

>  <smiles>  (34) 
COc1ccc(C)cc1NC(=O)CN(C)Cc1ccc(Br)s1

>  <score_type>  (34) 
oracle

>  <origin>  (34) 
adgpu

>  <m_score__min__energy>  (34) 
-10.66

>  <m_primary>  (34) 
energy

$$$$
34:0
     RDKit          3D

 55 57  0  0  0  0  0  0  0  0999 V2000
   -0.3750   20.7440  -32.3120 C   0  0  0  0  0  0  0  0  0  0  0  0
   -1.4840   21.4420  -33.0930 C   0  0  0  0  0  0  0  0  0  0  0  0
   -2.3640   20.4260  -33.8350 C   0  0  0  0  0  0  0  0  0  0  0  0
   -1.5760   19.1880  -34.2870 C   0  0  0  0  0  0  0  0  0  0  0  0
   -2.3720   17.9210  -34.1090 C   0  0  0  0  0  0  0  0  0  0  0  0
   -2.6190   17.0780  -35.2040 C   0  0  0  0  0  0  0  0  0  0  0  0
   -3.4190   15.9420  -35.0550 C   0  0  0  0  0  0  0  0  0  0  0  0
   -3.9910   15.6380  -33.8110 C   0  0  0  0  0  0  0  0  0  0  0  0
   -4.9420   14.4760  -33.6740 C   0  0  0  0  0  0  0  0  0  0  0  0
   -6.2720   14.7390  -34.4010 C   0  0  0  0  0  0  0  0  0  0  0  0
   -7.0970   15.6630  -33.6880 O   0  0  0  0  0  0  0  0  0  0  0  0
   -6.7870   17.0070  -33.4310 C   0  0  0  0  0  0  0  0  0  0  0  0
   -6.2570   17.8650  -34.4110 C   0  0  0  0  0  0  0  0  0  0  0  0
   -5.9940   19.2040  -34.1080 C   0  0  0  0  0  0  0  0  0  0  0  0
   -6.2400   19.7050  -32.8170 C   0  0  0  0  0  0  0  0  0  0  0  0
   -5.9960   21.1310  -32.4910 C   0  0  0  0  0  0  0  0  0  0  0  0
   -6.7410   22.0080  -33.0080 O   0  0  0  0  0  0  0  0  0  0  0  0
   -4.9060   21.5640  -31.5830 C   0  0  0  0  0  0  0  0  0  0  0  0
   -4.0840   20.6220  -30.9390 C   0  0  0  0  0  0  0  0  0  0  0  0
   -3.0730   21.0420  -30.0740 C   0  0  0  0  0  0  0  0  0  0  0  0
   -2.8730   22.4030  -29.8330 C   0  0  0  0  0  0  0  0  0  0  0  0
   -3.6910   23.3630  -30.4530 C   0  0  0  0  0  0  0  0  0  0  0  0
   -3.4860   24.8060  -30.1980 C   0  0  0  0  0  0  0  0  0  0  0  0
   -4.2080   25.6660  -30.7700 O   0  0  0  0  0  0  0  0  0  0  0  0
   -2.4950   25.2330  -29.3230 O   0  0  0  0  0  0  0  0  0  0  0  0
   -4.7090   22.9330  -31.3240 C   0  0  0  0  0  0  0  0  0  0  0  0
   -6.7710   18.8440  -31.8430 C   0  0  0  0  0  0  0  0  0  0  0  0
   -7.0310   17.5060  -32.1470 C   0  0  0  0  0  0  0  0  0  0  0  0
   -3.7360   16.4760  -32.7130 C   0  0  0  0  0  0  0  0  0  0  0  0
   -2.9320   17.6070  -32.8600 C   0  0  0  0  0  0  0  0  0  0  0  0
   -0.5578   20.8591  -31.2334 H   0  0  0  0  0  0  0  0  0  0  0  0
   -0.3622   19.6747  -32.5697 H   0  0  0  0  0  0  0  0  0  0  0  0
    0.5947   21.1949  -32.5697 H   0  0  0  0  0  0  0  0  0  0  0  0
   -2.1098   22.0152  -32.3931 H   0  0  0  0  0  0  0  0  0  0  0  0
   -1.0210   22.1093  -33.8348 H   0  0  0  0  0  0  0  0  0  0  0  0
   -3.1737   20.1036  -33.1639 H   0  0  0  0  0  0  0  0  0  0  0  0
   -2.7587   20.9192  -34.7355 H   0  0  0  0  0  0  0  0  0  0  0  0
   -1.3175   19.2994  -35.3504 H   0  0  0  0  0  0  0  0  0  0  0  0
   -0.6716   19.1132  -33.6654 H   0  0  0  0  0  0  0  0  0  0  0  0
   -2.1803   17.3130  -36.1850 H   0  0  0  0  0  0  0  0  0  0  0  0
   -3.6009   15.2834  -35.9170 H   0  0  0  0  0  0  0  0  0  0  0  0
   -4.4725   13.5788  -34.1036 H   0  0  0  0  0  0  0  0  0  0  0  0
   -5.1583   14.3348  -32.6048 H   0  0  0  0  0  0  0  0  0  0  0  0
   -6.0566   15.1509  -35.3980 H   0  0  0  0  0  0  0  0  0  0  0  0
   -6.8143   13.7848  -34.4741 H   0  0  0  0  0  0  0  0  0  0  0  0
   -6.0485   17.4808  -35.4204 H   0  0  0  0  0  0  0  0  0  0  0  0
   -5.5917   19.8708  -34.8849 H   0  0  0  0  0  0  0  0  0  0  0  0
   -4.2390   19.5478  -31.1183 H   0  0  0  0  0  0  0  0  0  0  0  0
   -2.4308   20.2981  -29.5798 H   0  0  0  0  0  0  0  0  0  0  0  0
   -2.0702   22.7256  -29.1537 H   0  0  0  0  0  0  0  0  0  0  0  0
   -5.3590   23.6764  -31.8086 H   0  0  0  0  0  0  0  0  0  0  0  0
   -6.9836   19.2261  -30.8336 H   0  0  0  0  0  0  0  0  0  0  0  0
   -7.4313   16.8384  -31.3698 H   0  0  0  0  0  0  0  0  0  0  0  0
   -4.1726   16.2393  -31.7315 H   0  0  0  0  0  0  0  0  0  0  0  0
   -2.7359   18.2556  -31.9935 H   0  0  0  0  0  0  0  0  0  0  0  0
  1  2  1  0
  2  3  1  0
  3  4  1  0
  4  5  1  0
  5  6  2  0
  6  7  1  0
  7  8  2  0
  8  9  1  0
  9 10  1  0
 10 11  1  0
 11 12  1  0
 12 13  2  0
 13 14  1  0
 14 15  2  0
 15 16  1  0
 16 17  2  0
 16 18  1  0
 18 19  2  0
 19 20  1  0
 20 21  2  0
 21 22  1  0
 22 23  1  0
 23 24  2  0
 23 25  1  0
 22 26  2  0
 15 27  1  0
 27 28  2  0
  8 29  1  0
 29 30  2  0
 30  5  1  0
 28 12  1  0
 26 18  1  0
  1 31  1  0
  1 32  1  0
  1 33  1  0
  2 34  1  0
  2 35  1  0
  3 36  1  0
  3 37  1  0
  4 38  1  0
  4 39  1  0
  6 40  1  0
  7 41  1  0
  9 42  1  0
  9 43  1  0
 10 44  1  0
 10 45  1  0
 13 46  1  0
 14 47  1  0
 19 48  1  0
 20 49  1  0
 21 50  1  0
 26 51  1  0
 27 52  1  0
 28 53  1  0
 29 54  1  0
 30 55  1  0
M  CHG  1  25  -1
M  END
>  <UniqueID>  (35) 
32

>  <SMILES>  (35) 
CCCCc1ccc(CCOc2ccc(C(=O)c3cccc(C(=O)[O-])c3)cc2)cc1

>  <Energy>  (35) 
54.39565126935776

>  <Genealogy>  (35) 
CCCCc1ccc(CCOc2ccc(C(=O)c3cccc(C(=O)[O-])c3)cc2)cc1 (protonated)
CCCCc1ccc(CCOc2ccc(C(=O)c3cccc(C(=O)[O-])c3)cc2)cc1 (3D coordinates assigned)
CCCCc1ccc(CCOc2ccc(C(=O)c3cccc(C(=O)[O-])c3)cc2)cc1 (optimized conformer: 54.39565126935776 kcal/mol)

>  <smiles>  (35) 
CCCCc1ccc(CCOc2ccc(C(=O)c3cccc(C(=O)O)c3)cc2)cc1

>  <score_type>  (35) 
oracle

>  <origin>  (35) 
adgpu

>  <m_score__min__energy>  (35) 
-11.550000000000001

>  <m_primary>  (35) 
energy

$$$$
35:0
     RDKit          3D

 61 65  0  0  0  0  0  0  0  0999 V2000
   -0.3610   26.8650  -23.0000 C   0  0  0  0  0  0  0  0  0  0  0  0
    0.1520   25.8160  -23.9040 N   0  0  0  0  0  0  0  0  0  0  0  0
    0.5770   26.3950  -25.2080 C   0  0  0  0  0  0  0  0  0  0  0  0
   -0.5070   26.2380  -26.2850 C   0  0  0  0  0  0  0  0  0  0  0  0
   -0.8040   24.8100  -26.5510 N   0  0  0  0  0  0  0  0  0  0  0  0
   -2.1300   24.6690  -27.1830 C   0  0  0  0  0  0  0  0  0  0  0  0
   -2.0300   23.8530  -28.4470 C   0  0  0  0  0  0  0  0  0  0  0  0
   -3.0540   23.9330  -29.4040 C   0  0  0  0  0  0  0  0  0  0  0  0
   -3.0040   23.1550  -30.5640 C   0  0  0  0  0  0  0  0  0  0  0  0
   -1.9250   22.2870  -30.7920 C   0  0  0  0  0  0  0  0  0  0  0  0
   -1.8990   21.4140  -31.9900 C   0  0  0  0  0  0  0  0  0  0  0  0
   -0.6970   21.2030  -32.7020 C   0  0  0  0  0  0  0  0  0  0  0  0
   -0.6760   20.3460  -33.8230 C   0  0  0  0  0  0  0  0  0  0  0  0
   -1.8140   19.7160  -34.2370 N   0  0  0  0  0  0  0  0  0  0  0  0
   -2.9680   19.9210  -33.5540 C   0  0  0  0  0  0  0  0  0  0  0  0
   -4.1640   19.3980  -33.8600 N   0  0  0  0  0  0  0  0  0  0  0  0
   -5.0200   19.8970  -32.9380 C   0  0  0  0  0  0  0  0  0  0  0  0
   -6.5010   19.6120  -32.9440 C   0  0  0  0  0  0  0  0  0  0  0  0
   -6.8730   18.5160  -31.9310 C   0  0  0  0  0  0  0  0  0  0  0  0
   -8.3800   18.1790  -32.0030 C   0  0  0  0  0  0  0  0  0  0  0  0
   -9.2110   19.2850  -32.5210 N   0  0  0  0  0  0  0  0  0  0  0  0
   -8.7090   20.6010  -32.0950 C   0  0  0  0  0  0  0  0  0  0  0  0
   -7.3130   20.8980  -32.6820 C   0  0  0  0  0  0  0  0  0  0  0  0
   -4.3560   20.7530  -32.0550 C   0  0  0  0  0  0  0  0  0  0  0  0
   -3.0360   20.7420  -32.4610 C   0  0  0  0  0  0  0  0  0  0  0  0
   -0.8960   22.2120  -29.8400 C   0  0  0  0  0  0  0  0  0  0  0  0
   -0.9430   22.9890  -28.6770 C   0  0  0  0  0  0  0  0  0  0  0  0
    0.0670   22.8890  -27.7760 F   0  0  0  0  0  0  0  0  0  0  0  0
   -0.6610   23.9450  -25.3520 C   0  0  0  0  0  0  0  0  0  0  0  0
   -0.8540   24.7290  -24.0430 C   0  0  0  0  0  0  0  0  0  0  0  0
   -0.2095   26.5551  -21.9555 H   0  0  0  0  0  0  0  0  0  0  0  0
    0.1790   27.8052  -23.1856 H   0  0  0  0  0  0  0  0  0  0  0  0
   -1.4347   27.0160  -23.1856 H   0  0  0  0  0  0  0  0  0  0  0  0
    1.0030   25.4100  -23.4450 H   0  0  0  0  0  0  0  0  0  0  0  0
    0.7885   27.4656  -25.0697 H   0  0  0  0  0  0  0  0  0  0  0  0
    1.4734   25.8540  -25.5452 H   0  0  0  0  0  0  0  0  0  0  0  0
   -1.4259   26.7368  -25.9430 H   0  0  0  0  0  0  0  0  0  0  0  0
   -0.1381   26.6936  -27.2158 H   0  0  0  0  0  0  0  0  0  0  0  0
   -2.8134   24.1676  -26.4819 H   0  0  0  0  0  0  0  0  0  0  0  0
   -2.5114   25.6694  -27.4354 H   0  0  0  0  0  0  0  0  0  0  0  0
   -3.9025   24.6134  -29.2396 H   0  0  0  0  0  0  0  0  0  0  0  0
   -3.8157   23.2235  -31.3032 H   0  0  0  0  0  0  0  0  0  0  0  0
    0.2258   21.7086  -32.3814 H   0  0  0  0  0  0  0  0  0  0  0  0
    0.2657   20.1842  -34.3680 H   0  0  0  0  0  0  0  0  0  0  0  0
   -4.3870   18.7580  -34.6540 H   0  0  0  0  0  0  0  0  0  0  0  0
   -6.7587   19.2391  -33.9463 H   0  0  0  0  0  0  0  0  0  0  0  0
   -6.2912   17.6093  -32.1531 H   0  0  0  0  0  0  0  0  0  0  0  0
   -6.6454   18.8837  -30.9196 H   0  0  0  0  0  0  0  0  0  0  0  0
   -8.5102   17.3083  -32.6625 H   0  0  0  0  0  0  0  0  0  0  0  0
   -8.7146   17.9796  -30.9743 H   0  0  0  0  0  0  0  0  0  0  0  0
   -9.2180   19.2500  -33.5690 H   0  0  0  0  0  0  0  0  0  0  0  0
   -9.4108   21.3770  -32.4346 H   0  0  0  0  0  0  0  0  0  0  0  0
   -8.6255   20.5970  -30.9982 H   0  0  0  0  0  0  0  0  0  0  0  0
   -7.4366   21.4379  -33.6324 H   0  0  0  0  0  0  0  0  0  0  0  0
   -6.7602   21.5005  -31.9461 H   0  0  0  0  0  0  0  0  0  0  0  0
   -4.7917   21.3153  -31.2160 H   0  0  0  0  0  0  0  0  0  0  0  0
   -0.0448   21.5362  -30.0098 H   0  0  0  0  0  0  0  0  0  0  0  0
   -1.4148   23.1453  -25.4003 H   0  0  0  0  0  0  0  0  0  0  0  0
    0.3594   23.5342  -25.3520 H   0  0  0  0  0  0  0  0  0  0  0  0
   -1.8611   25.1714  -24.0367 H   0  0  0  0  0  0  0  0  0  0  0  0
   -0.7267   24.0319  -23.2017 H   0  0  0  0  0  0  0  0  0  0  0  0
  1  2  1  0
  2  3  1  0
  3  4  1  0
  4  5  1  0
  5  6  1  0
  6  7  1  0
  7  8  2  0
  8  9  1  0
  9 10  2  0
 10 11  1  0
 11 12  2  0
 12 13  1  0
 13 14  2  0
 14 15  1  0
 15 16  1  0
 16 17  1  0
 17 18  1  0
 18 19  1  0
 19 20  1  0
 20 21  1  0
 21 22  1  0
 22 23  1  0
 17 24  2  0
 24 25  1  0
 10 26  1  0
 26 27  2  0
 27 28  1  0
  5 29  1  0
 29 30  1  0
 30  2  1  0
 27  7  1  0
 25 11  1  0
 25 15  2  0
 23 18  1  0
  1 31  1  0
  1 32  1  0
  1 33  1  0
  2 34  1  0
  3 35  1  0
  3 36  1  0
  4 37  1  0
  4 38  1  0
  6 39  1  0
  6 40  1  0
  8 41  1  0
  9 42  1  0
 12 43  1  0
 13 44  1  0
 16 45  1  0
 18 46  1  0
 19 47  1  0
 19 48  1  0
 20 49  1  0
 20 50  1  0
 21 51  1  0
 22 52  1  0
 22 53  1  0
 23 54  1  0
 23 55  1  0
 24 56  1  0
 26 57  1  0
 29 58  1  0
 29 59  1  0
 30 60  1  0
 30 61  1  0
M  CHG  1   2   1
M  END
>  <UniqueID>  (36) 
33

>  <SMILES>  (36) 
C[NH+]1CCN(Cc2ccc(-c3ccnc4[nH]c(C5CCNCC5)cc34)cc2F)CC1

>  <Energy>  (36) 
121.66555189480991

>  <Genealogy>  (36) 
C[NH+]1CCN(Cc2ccc(-c3ccnc4[nH]c(C5CCNCC5)cc34)cc2F)CC1 (protonated)
C[NH+]1CCN(Cc2ccc(-c3ccnc4[nH]c(C5CCNCC5)cc34)cc2F)CC1 (3D coordinates assigned)
C[NH+]1CCN(Cc2ccc(-c3ccnc4[nH]c(C5CCNCC5)cc34)cc2F)CC1 (nonaromatic ring conformer: 121.66555189480991 kcal/mol)

>  <smiles>  (36) 
CN1CCN(Cc2ccc(-c3ccnc4[nH]c(C5CCNCC5)cc34)cc2F)CC1

>  <score_type>  (36) 
oracle

>  <origin>  (36) 
adgpu

>  <m_score__min__energy>  (36) 
-9.75

>  <m_primary>  (36) 
energy

$$$$
36:0
     RDKit          3D

 39 41  0  0  0  0  0  0  0  0999 V2000
   -2.0600   27.0450  -28.9550 H   0  0  0  0  0  0  0  0  0  0  0  0
   -1.2400   26.4640  -28.8200 O   0  0  0  0  0  0  0  0  0  0  0  0
   -1.3100   25.0720  -28.8840 C   0  0  0  0  0  0  0  0  0  0  0  0
   -0.3270   24.2840  -28.2740 C   0  0  0  0  0  0  0  0  0  0  0  0
    0.5115   24.7638  -27.7479 H   0  0  0  0  0  0  0  0  0  0  0  0
   -0.4070   22.8890  -28.3310 C   0  0  0  0  0  0  0  0  0  0  0  0
    0.3714   22.2777  -27.8510 H   0  0  0  0  0  0  0  0  0  0  0  0
   -1.4760   22.2610  -28.9980 C   0  0  0  0  0  0  0  0  0  0  0  0
   -1.5770   20.7840  -29.0420 C   0  0  0  0  0  0  0  0  0  0  0  0
   -2.4690   20.1910  -28.3730 O   0  0  0  0  0  0  0  0  0  0  0  0
   -0.6110   20.0170  -29.7740 N   0  0  0  0  0  0  0  0  0  0  0  0
   -0.2290   20.2440  -31.1400 C   0  0  0  0  0  0  0  0  0  0  0  0
   -1.0890   20.9750  -31.9660 C   0  0  0  0  0  0  0  0  0  0  0  0
   -2.0510   21.3354  -31.5726 H   0  0  0  0  0  0  0  0  0  0  0  0
   -0.7310   21.2500  -33.2910 C   0  0  0  0  0  0  0  0  0  0  0  0
   -1.4006   21.8473  -33.9272 H   0  0  0  0  0  0  0  0  0  0  0  0
    0.4770   20.7670  -33.8090 C   0  0  0  0  0  0  0  0  0  0  0  0
    0.9640   21.1360  -35.4650 S   0  0  0  0  0  0  0  0  0  0  0  0
    2.4600   21.0660  -35.6160 O   0  0  0  0  0  0  0  0  0  0  0  0
    0.3540   20.1080  -36.3780 O   0  0  0  0  0  0  0  0  0  0  0  0
    0.3970   22.7070  -35.9460 N   0  0  0  0  0  0  0  0  0  0  0  0
    1.0850   23.8120  -35.9950 C   0  0  0  0  0  0  0  0  0  0  0  0
    0.4670   24.9430  -36.4370 N   0  0  0  0  0  0  0  0  0  0  0  0
    1.1140   26.1350  -36.5410 C   0  0  0  0  0  0  0  0  0  0  0  0
    0.5764   27.0218  -36.9079 H   0  0  0  0  0  0  0  0  0  0  0  0
    2.4580   26.2340  -36.1830 C   0  0  0  0  0  0  0  0  0  0  0  0
    2.9878   27.1943  -36.2678 H   0  0  0  0  0  0  0  0  0  0  0  0
    3.1220   25.1000  -35.7160 C   0  0  0  0  0  0  0  0  0  0  0  0
    4.1796   25.1648  -35.4207 H   0  0  0  0  0  0  0  0  0  0  0  0
    2.4440   23.8810  -35.6230 C   0  0  0  0  0  0  0  0  0  0  0  0
    2.9662   22.9825  -35.2625 H   0  0  0  0  0  0  0  0  0  0  0  0
    1.3180   19.9970  -32.9940 C   0  0  0  0  0  0  0  0  0  0  0  0
    2.2565   19.5937  -33.4022 H   0  0  0  0  0  0  0  0  0  0  0  0
    0.9700   19.7390  -31.6650 C   0  0  0  0  0  0  0  0  0  0  0  0
    1.6377   19.1387  -31.0294 H   0  0  0  0  0  0  0  0  0  0  0  0
   -2.4540   23.0620  -29.6170 C   0  0  0  0  0  0  0  0  0  0  0  0
   -3.2888   22.5870  -30.1531 H   0  0  0  0  0  0  0  0  0  0  0  0
   -2.3730   24.4570  -29.5560 C   0  0  0  0  0  0  0  0  0  0  0  0
   -3.3500   25.2290  -30.1710 O   0  0  0  0  0  0  0  0  0  0  0  0
  1  2  1  0
  2  3  1  0
  3  4  2  0
  4  5  1  0
  4  6  1  0
  6  7  1  0
  6  8  2  0
  8  9  1  0
  9 10  2  0
  9 11  1  0
 11 12  1  0
 12 13  2  0
 13 14  1  0
 13 15  1  0
 15 16  1  0
 15 17  2  0
 17 18  1  0
 18 19  2  0
 18 20  2  0
 18 21  1  0
 21 22  2  0
 22 23  1  0
 23 24  1  0
 24 25  1  0
 24 26  2  0
 26 27  1  0
 26 28  1  0
 28 29  1  0
 28 30  2  0
 30 31  1  0
 17 32  1  0
 32 33  1  0
 32 34  2  0
 34 35  1  0
  8 36  1  0
 36 37  1  0
 36 38  2  0
 38 39  1  0
 38  3  1  0
 34 12  1  0
 30 22  1  0
M  CHG  3  11  -1  23  -1  39  -1
M  END
>  <UniqueID>  (37) 
34

>  <SMILES>  (37) 
O=C([N-]c1ccc(S(=O)(=O)/N=c2\cccc[n-]2)cc1)c1ccc(O)c([O-])c1

>  <Energy>  (37) 
53.366990471164904

>  <Genealogy>  (37) 
O=C([N-]c1ccc(S(=O)(=O)N=c2cccc[n-]2)cc1)c1ccc(O)c([O-])c1 (protonated)
O=C([N-]c1ccc(S(=O)(=O)/N=c2\cccc[n-]2)cc1)c1ccc(O)c([O-])c1 (cis-trans isomerization)
O=C([N-]c1ccc(S(=O)(=O)/N=c2\cccc[n-]2)cc1)c1ccc(O)c([O-])c1 (3D coordinates assigned)
O=C([N-]c1ccc(S(=O)(=O)/N=c2\cccc[n-]2)cc1)c1ccc(O)c([O-])c1 (optimized conformer: 53.366990471164904 kcal/mol)

>  <smiles>  (37) 
O=C(Nc1ccc(S(=O)(=O)N=c2cccc[nH]2)cc1)c1ccc(O)c(O)c1

>  <score_type>  (37) 
oracle

>  <origin>  (37) 
adgpu

>  <m_score__min__energy>  (37) 
-11.369999999999999

>  <m_primary>  (37) 
energy

$$$$
37:0
     RDKit          3D

 37 39  0  0  0  0  0  0  0  0999 V2000
   -6.8100   20.7100  -32.2570 O   0  0  0  0  0  0  0  0  0  0  0  0
   -5.8200   21.2390  -31.6810 C   0  0  0  0  0  0  0  0  0  0  0  0
   -4.6120   20.4870  -31.4940 N   0  0  0  0  0  0  0  0  0  0  0  0
   -3.4200   20.5700  -32.2890 C   0  0  0  0  0  0  0  0  0  0  0  0
   -2.4060   21.4480  -31.8890 C   0  0  0  0  0  0  0  0  0  0  0  0
   -1.2380   21.5740  -32.6470 C   0  0  0  0  0  0  0  0  0  0  0  0
   -1.0770   20.8320  -33.8230 C   0  0  0  0  0  0  0  0  0  0  0  0
    0.3880   21.0240  -34.7810 S   0  0  0  0  0  0  0  0  0  0  0  0
    1.5760   21.0190  -33.8630 O   0  0  0  0  0  0  0  0  0  0  0  0
    0.5350   19.8950  -35.7640 O   0  0  0  0  0  0  0  0  0  0  0  0
    0.3340   22.5320  -35.6390 N   0  0  0  0  0  0  0  0  0  0  0  0
    1.3880   23.1620  -36.0560 C   0  0  0  0  0  0  0  0  0  0  0  0
    1.2410   24.3370  -36.7250 N   0  0  0  0  0  0  0  0  0  0  0  0
    2.3210   25.0240  -37.1810 C   0  0  0  0  0  0  0  0  0  0  0  0
    3.6040   24.5240  -36.9650 C   0  0  0  0  0  0  0  0  0  0  0  0
    3.7410   23.3190  -36.2780 C   0  0  0  0  0  0  0  0  0  0  0  0
    2.6370   22.6640  -35.8380 N   0  0  0  0  0  0  0  0  0  0  0  0
   -2.1010   19.9730  -34.2440 C   0  0  0  0  0  0  0  0  0  0  0  0
   -3.2690   19.8450  -33.4850 C   0  0  0  0  0  0  0  0  0  0  0  0
   -5.9240   22.6190  -31.1510 C   0  0  0  0  0  0  0  0  0  0  0  0
   -7.1200   23.0690  -30.5590 C   0  0  0  0  0  0  0  0  0  0  0  0
   -7.2180   24.3700  -30.0600 C   0  0  0  0  0  0  0  0  0  0  0  0
   -6.1270   25.2390  -30.1460 C   0  0  0  0  0  0  0  0  0  0  0  0
   -4.9350   24.8060  -30.7310 C   0  0  0  0  0  0  0  0  0  0  0  0
   -3.8500   25.6710  -30.8160 O   0  0  0  0  0  0  0  0  0  0  0  0
   -4.8320   23.5040  -31.2320 C   0  0  0  0  0  0  0  0  0  0  0  0
   -2.5289   22.0430  -30.9720 H   0  0  0  0  0  0  0  0  0  0  0  0
   -0.4425   22.2588  -32.3180 H   0  0  0  0  0  0  0  0  0  0  0  0
    2.1830   25.9731  -37.7197 H   0  0  0  0  0  0  0  0  0  0  0  0
    4.4883   25.0680  -37.3284 H   0  0  0  0  0  0  0  0  0  0  0  0
    4.7412   22.9002  -36.0930 H   0  0  0  0  0  0  0  0  0  0  0  0
   -1.9859   19.3975  -35.1744 H   0  0  0  0  0  0  0  0  0  0  0  0
   -4.0725   19.1749  -33.8247 H   0  0  0  0  0  0  0  0  0  0  0  0
   -7.9834   22.3910  -30.4890 H   0  0  0  0  0  0  0  0  0  0  0  0
   -8.1562   24.7113  -29.5982 H   0  0  0  0  0  0  0  0  0  0  0  0
   -6.2070   26.2634  -29.7532 H   0  0  0  0  0  0  0  0  0  0  0  0
   -3.8909   23.1691  -31.6926 H   0  0  0  0  0  0  0  0  0  0  0  0
  1  2  2  0
  2  3  1  0
  3  4  1  0
  4  5  2  0
  5  6  1  0
  6  7  2  0
  7  8  1  0
  8  9  2  0
  8 10  2  0
  8 11  1  0
 11 12  2  3
 12 13  1  0
 13 14  2  0
 14 15  1  0
 15 16  2  0
 16 17  1  0
  7 18  1  0
 18 19  2  0
  2 20  1  0
 20 21  2  0
 21 22  1  0
 22 23  2  0
 23 24  1  0
 24 25  1  0
 24 26  2  0
 19  4  1  0
 26 20  1  0
 17 12  1  0
  5 27  1  0
  6 28  1  0
 14 29  1  0
 15 30  1  0
 16 31  1  0
 18 32  1  0
 19 33  1  0
 21 34  1  0
 22 35  1  0
 23 36  1  0
 26 37  1  0
M  CHG  3   3  -1  17  -1  25  -1
M  END
>  <UniqueID>  (38) 
35

>  <SMILES>  (38) 
O=C([N-]c1ccc(S(=O)(=O)N=c2nccc[n-]2)cc1)c1cccc([O-])c1

>  <Energy>  (38) 
48.564379943982956

>  <Genealogy>  (38) 
O=C([N-]c1ccc(S(=O)(=O)N=c2nccc[n-]2)cc1)c1cccc([O-])c1 (protonated)
O=C([N-]c1ccc(S(=O)(=O)N=c2nccc[n-]2)cc1)c1cccc([O-])c1 (3D coordinates assigned)
O=C([N-]c1ccc(S(=O)(=O)N=c2nccc[n-]2)cc1)c1cccc([O-])c1 (optimized conformer: 48.564379943982956 kcal/mol)

>  <smiles>  (38) 
O=C(Nc1ccc(S(=O)(=O)N=c2nccc[nH]2)cc1)c1cccc(O)c1

>  <score_type>  (38) 
oracle

>  <origin>  (38) 
adgpu

>  <m_score__min__energy>  (38) 
-11.66

>  <m_primary>  (38) 
energy

$$$$
38:0
     RDKit          3D

 50 54  0  0  0  0  0  0  0  0999 V2000
   -6.5300   25.2900  -29.9470 O   0  0  0  0  0  0  0  0  0  0  0  0
   -5.1970   24.6410  -30.1990 S   0  0  0  0  0  0  0  0  0  0  0  0
   -4.2890   25.6420  -30.8540 O   0  0  0  0  0  0  0  0  0  0  0  0
   -4.5070   24.1420  -28.6880 N   0  0  0  0  0  0  0  0  0  0  0  0
   -3.2580   24.3100  -28.3760 C   0  0  0  0  0  0  0  0  0  0  0  0
   -2.7950   23.8790  -27.1270 C   0  0  0  0  0  0  0  0  0  0  0  0
   -1.4520   24.0650  -26.7910 C   0  0  0  0  0  0  0  0  0  0  0  0
   -0.5860   24.6750  -27.7010 C   0  0  0  0  0  0  0  0  0  0  0  0
    0.7190   24.8600  -27.3870 F   0  0  0  0  0  0  0  0  0  0  0  0
   -1.0810   25.0930  -28.9390 C   0  0  0  0  0  0  0  0  0  0  0  0
   -2.3910   24.9020  -29.2460 N   0  0  0  0  0  0  0  0  0  0  0  0
   -5.3710   23.2480  -31.2610 C   0  0  0  0  0  0  0  0  0  0  0  0
   -6.6120   22.6130  -31.4140 C   0  0  0  0  0  0  0  0  0  0  0  0
   -6.7390   21.5240  -32.2800 C   0  0  0  0  0  0  0  0  0  0  0  0
   -5.6320   21.0740  -33.0200 C   0  0  0  0  0  0  0  0  0  0  0  0
   -5.7520   20.0410  -33.9600 O   0  0  0  0  0  0  0  0  0  0  0  0
   -5.5280   18.6800  -33.6860 C   0  0  0  0  0  0  0  0  0  0  0  0
   -6.6030   17.9070  -33.2270 C   0  0  0  0  0  0  0  0  0  0  0  0
   -7.8270   18.4710  -33.0710 F   0  0  0  0  0  0  0  0  0  0  0  0
   -6.4290   16.5500  -32.9420 C   0  0  0  0  0  0  0  0  0  0  0  0
   -5.1730   15.9600  -33.0930 C   0  0  0  0  0  0  0  0  0  0  0  0
   -4.0860   16.7220  -33.5240 C   0  0  0  0  0  0  0  0  0  0  0  0
   -4.2520   18.0850  -33.8320 C   0  0  0  0  0  0  0  0  0  0  0  0
   -3.1280   18.9020  -34.1920 N   0  0  0  0  0  0  0  0  0  0  0  0
   -2.3480   19.5470  -33.3760 C   0  0  0  0  0  0  0  0  0  0  0  0
   -2.5140   19.4840  -32.0180 N   0  0  0  0  0  0  0  0  0  0  0  0
   -1.6560   20.1070  -31.1500 C   0  0  0  0  0  0  0  0  0  0  0  0
   -0.5470   20.8220  -31.6340 C   0  0  0  0  0  0  0  0  0  0  0  0
   -0.3750   20.8680  -33.0150 C   0  0  0  0  0  0  0  0  0  0  0  0
    0.6280   21.4450  -33.6970 N   0  0  0  0  0  0  0  0  0  0  0  0
    0.3870   21.1850  -35.0020 C   0  0  0  0  0  0  0  0  0  0  0  0
   -0.7780   20.4390  -35.1490 C   0  0  0  0  0  0  0  0  0  0  0  0
   -1.2490   20.2530  -33.8660 C   0  0  0  0  0  0  0  0  0  0  0  0
   -4.3850   21.6750  -32.8250 C   0  0  0  0  0  0  0  0  0  0  0  0
   -4.2560   22.7640  -31.9560 C   0  0  0  0  0  0  0  0  0  0  0  0
   -3.4830   23.3979  -26.4163 H   0  0  0  0  0  0  0  0  0  0  0  0
   -1.0774   23.7318  -25.8119 H   0  0  0  0  0  0  0  0  0  0  0  0
   -0.4106   25.5765  -29.6648 H   0  0  0  0  0  0  0  0  0  0  0  0
   -7.4863   22.9727  -30.8516 H   0  0  0  0  0  0  0  0  0  0  0  0
   -7.7095   21.0166  -32.3831 H   0  0  0  0  0  0  0  0  0  0  0  0
   -7.2822   15.9466  -32.5985 H   0  0  0  0  0  0  0  0  0  0  0  0
   -5.0395   14.8908  -32.8715 H   0  0  0  0  0  0  0  0  0  0  0  0
   -3.0950   16.2550  -33.6234 H   0  0  0  0  0  0  0  0  0  0  0  0
   -1.8365   20.0471  -30.0666 H   0  0  0  0  0  0  0  0  0  0  0  0
    0.1547   21.3236  -30.9514 H   0  0  0  0  0  0  0  0  0  0  0  0
    1.4400   21.9710  -33.3030 H   0  0  0  0  0  0  0  0  0  0  0  0
    1.0251   21.5180  -35.8338 H   0  0  0  0  0  0  0  0  0  0  0  0
   -1.2264   20.0761  -36.0856 H   0  0  0  0  0  0  0  0  0  0  0  0
   -3.5021   21.2904  -33.3566 H   0  0  0  0  0  0  0  0  0  0  0  0
   -3.2748   23.2418  -31.8183 H   0  0  0  0  0  0  0  0  0  0  0  0
  1  2  2  0
  2  3  2  0
  2  4  1  0
  4  5  2  3
  5  6  1  0
  6  7  2  0
  7  8  1  0
  8  9  1  0
  8 10  2  0
 10 11  1  0
  2 12  1  0
 12 13  2  0
 13 14  1  0
 14 15  2  0
 15 16  1  0
 16 17  1  0
 17 18  2  0
 18 19  1  0
 18 20  1  0
 20 21  2  0
 21 22  1  0
 22 23  2  0
 23 24  1  0
 24 25  2  3
 25 26  1  0
 26 27  1  0
 27 28  2  0
 28 29  1  0
 29 30  1  0
 30 31  1  0
 31 32  2  0
 32 33  1  0
 15 34  1  0
 34 35  2  0
 11  5  1  0
 35 12  1  0
 23 17  1  0
 33 25  1  0
 33 29  2  0
  6 36  1  0
  7 37  1  0
 10 38  1  0
 13 39  1  0
 14 40  1  0
 20 41  1  0
 21 42  1  0
 22 43  1  0
 27 44  1  0
 28 45  1  0
 30 46  1  0
 31 47  1  0
 32 48  1  0
 34 49  1  0
 35 50  1  0
M  CHG  2  11  -1  26  -1
M  END
>  <UniqueID>  (39) 
36

>  <SMILES>  (39) 
O=S(=O)(N=c1ccc(F)c[n-]1)c1ccc(Oc2c(F)cccc2N=c2[n-]ccc3[nH]ccc23)cc1

>  <Energy>  (39) 
106.15148796301898

>  <Genealogy>  (39) 
O=S(=O)(N=c1ccc(F)c[n-]1)c1ccc(Oc2c(F)cccc2N=c2[n-]ccc3[nH]ccc23)cc1 (protonated)
O=S(=O)(N=c1ccc(F)c[n-]1)c1ccc(Oc2c(F)cccc2N=c2[n-]ccc3[nH]ccc23)cc1 (3D coordinates assigned)
O=S(=O)(N=c1ccc(F)c[n-]1)c1ccc(Oc2c(F)cccc2N=c2[n-]ccc3[nH]ccc23)cc1 (optimized conformer: 106.15148796301898 kcal/mol)

>  <smiles>  (39) 
O=S(=O)(N=c1ccc(F)c[nH]1)c1ccc(Oc2c(F)cccc2N=c2[nH]ccc3[nH]ccc23)cc1

>  <score_type>  (39) 
oracle

>  <origin>  (39) 
adgpu

>  <m_score__min__energy>  (39) 
-11.01

>  <m_primary>  (39) 
energy

$$$$
39:0
     RDKit          3D

 50 53  0  0  0  0  0  0  0  0999 V2000
   -1.0910   21.8240  -26.5040 C   0  0  0  0  0  0  0  0  0  0  0  0
   -0.8290   22.9450  -27.3980 N   0  0  0  0  0  0  0  0  0  0  0  0
    0.3690   23.3830  -27.8230 C   0  0  0  0  0  0  0  0  0  0  0  0
    0.2400   24.4910  -28.5770 N   0  0  0  0  0  0  0  0  0  0  0  0
   -1.0530   24.7820  -28.6280 N   0  0  0  0  0  0  0  0  0  0  0  0
   -1.6920   23.8470  -27.9010 C   0  0  0  0  0  0  0  0  0  0  0  0
   -3.4690   23.8320  -27.6560 S   0  0  0  0  0  0  0  0  0  0  0  0
   -3.7710   22.8550  -29.1380 C   0  0  0  0  0  0  0  0  0  0  0  0
   -3.3390   21.5230  -29.1430 C   0  0  0  0  0  0  0  0  0  0  0  0
   -3.4760   20.7360  -30.2860 C   0  0  0  0  0  0  0  0  0  0  0  0
   -4.0620   21.2650  -31.4440 C   0  0  0  0  0  0  0  0  0  0  0  0
   -4.1850   20.4320  -32.6600 C   0  0  0  0  0  0  0  0  0  0  0  0
   -3.2780   20.4790  -33.5350 O   0  0  0  0  0  0  0  0  0  0  0  0
   -5.3160   19.5640  -32.8620 N   0  0  0  0  0  0  0  0  0  0  0  0
   -5.7380   18.6580  -31.7810 C   0  0  0  0  0  0  0  0  0  0  0  0
   -6.7560   17.6280  -32.2810 C   0  0  0  0  0  0  0  0  0  0  0  0
   -6.3080   17.0770  -33.5670 N   0  0  0  0  0  0  0  0  0  0  0  0
   -6.1840   15.6540  -33.7530 C   0  0  0  0  0  0  0  0  0  0  0  0
   -5.0440   14.9720  -33.2890 C   0  0  0  0  0  0  0  0  0  0  0  0
   -4.9190   13.5930  -33.4800 C   0  0  0  0  0  0  0  0  0  0  0  0
   -5.9270   12.8820  -34.1370 C   0  0  0  0  0  0  0  0  0  0  0  0
   -7.0610   13.5520  -34.6070 C   0  0  0  0  0  0  0  0  0  0  0  0
   -7.1890   14.9310  -34.4180 C   0  0  0  0  0  0  0  0  0  0  0  0
   -5.9120   17.9880  -34.6530 C   0  0  0  0  0  0  0  0  0  0  0  0
   -5.9250   19.4500  -34.1940 C   0  0  0  0  0  0  0  0  0  0  0  0
   -4.5000   22.5980  -31.4430 C   0  0  0  0  0  0  0  0  0  0  0  0
   -4.3850   23.3980  -30.2910 C   0  0  0  0  0  0  0  0  0  0  0  0
   -4.9060   24.7390  -30.3180 N   0  0  0  0  0  0  0  0  0  0  0  0
   -4.2530   25.6660  -30.8400 O   0  0  0  0  0  0  0  0  0  0  0  0
   -6.0380   25.0520  -29.6020 O   0  0  0  0  0  0  0  0  0  0  0  0
   -1.0121   22.1614  -25.4600 H   0  0  0  0  0  0  0  0  0  0  0  0
   -2.1039   21.4367  -26.6887 H   0  0  0  0  0  0  0  0  0  0  0  0
   -0.3547   21.0279  -26.6887 H   0  0  0  0  0  0  0  0  0  0  0  0
    1.3283   22.8997  -27.5859 H   0  0  0  0  0  0  0  0  0  0  0  0
   -2.8873   21.0934  -28.2367 H   0  0  0  0  0  0  0  0  0  0  0  0
   -3.1223   19.6945  -30.2787 H   0  0  0  0  0  0  0  0  0  0  0  0
   -4.8553   18.1293  -31.3920 H   0  0  0  0  0  0  0  0  0  0  0  0
   -6.2125   19.2587  -30.9910 H   0  0  0  0  0  0  0  0  0  0  0  0
   -6.8456   16.8149  -31.5456 H   0  0  0  0  0  0  0  0  0  0  0  0
   -7.7337   18.1146  -32.4126 H   0  0  0  0  0  0  0  0  0  0  0  0
   -4.2468   15.5272  -32.7731 H   0  0  0  0  0  0  0  0  0  0  0  0
   -4.0258   13.0665  -33.1126 H   0  0  0  0  0  0  0  0  0  0  0  0
   -5.8285   11.7964  -34.2843 H   0  0  0  0  0  0  0  0  0  0  0  0
   -7.8534   12.9929  -35.1262 H   0  0  0  0  0  0  0  0  0  0  0  0
   -8.0818   15.4535  -34.7920 H   0  0  0  0  0  0  0  0  0  0  0  0
   -4.8965   17.7271  -34.9857 H   0  0  0  0  0  0  0  0  0  0  0  0
   -6.6344   17.8785  -35.4753 H   0  0  0  0  0  0  0  0  0  0  0  0
   -5.3546   20.0613  -34.9088 H   0  0  0  0  0  0  0  0  0  0  0  0
   -6.9653   19.8044  -34.1469 H   0  0  0  0  0  0  0  0  0  0  0  0
   -4.9400   23.0242  -32.3567 H   0  0  0  0  0  0  0  0  0  0  0  0
  1  2  1  0
  2  3  1  0
  3  4  2  0
  4  5  1  0
  5  6  2  0
  6  7  1  0
  7  8  1  0
  8  9  2  0
  9 10  1  0
 10 11  2  0
 11 12  1  0
 12 13  2  0
 12 14  1  0
 14 15  1  0
 15 16  1  0
 16 17  1  0
 17 18  1  0
 18 19  2  0
 19 20  1  0
 20 21  2  0
 21 22  1  0
 22 23  2  0
 17 24  1  0
 24 25  1  0
 11 26  1  0
 26 27  2  0
 27 28  1  0
 28 29  2  0
 28 30  1  0
  6  2  1  0
 27  8  1  0
 25 14  1  0
 23 18  1  0
  1 31  1  0
  1 32  1  0
  1 33  1  0
  3 34  1  0
  9 35  1  0
 10 36  1  0
 15 37  1  0
 15 38  1  0
 16 39  1  0
 16 40  1  0
 19 41  1  0
 20 42  1  0
 21 43  1  0
 22 44  1  0
 23 45  1  0
 24 46  1  0
 24 47  1  0
 25 48  1  0
 25 49  1  0
 26 50  1  0
M  CHG  2  28   1  30  -1
M  END
>  <UniqueID>  (40) 
37

>  <SMILES>  (40) 
Cn1cnnc1Sc1ccc(C(=O)N2CCN(c3ccccc3)CC2)cc1[N+](=O)[O-]

>  <Energy>  (40) 
98.39562283042208

>  <Genealogy>  (40) 
Cn1cnnc1Sc1ccc(C(=O)N2CCN(c3ccccc3)CC2)cc1[N+](=O)[O-] (3D coordinates assigned)
Cn1cnnc1Sc1ccc(C(=O)N2CCN(c3ccccc3)CC2)cc1[N+](=O)[O-] (nonaromatic ring conformer: 98.39562283042208 kcal/mol)

>  <smiles>  (40) 
Cn1cnnc1Sc1ccc(C(=O)N2CCN(c3ccccc3)CC2)cc1[N+](=O)[O-]

>  <score_type>  (40) 
oracle

>  <origin>  (40) 
adgpu

>  <m_score__min__energy>  (40) 
-9.1999999999999993

>  <m_primary>  (40) 
energy

$$$$
40:0
     RDKit          3D

 51 53  0  0  0  0  0  0  0  0999 V2000
   -2.3840   25.3090  -26.4450 C   0  0  0  0  0  0  0  0  0  0  0  0
   -1.3820   25.8930  -27.4270 C   0  0  0  0  0  0  0  0  0  0  0  0
   -1.8440   25.6820  -28.7590 O   0  0  0  0  0  0  0  0  0  0  0  0
   -2.0160   24.4220  -29.3540 C   0  0  0  0  0  0  0  0  0  0  0  0
   -1.1330   23.3540  -29.1070 C   0  0  0  0  0  0  0  0  0  0  0  0
   -1.3330   22.1130  -29.7180 C   0  0  0  0  0  0  0  0  0  0  0  0
   -0.4620   21.0970  -29.4890 N   0  0  0  0  0  0  0  0  0  0  0  0
   -0.6260   19.8870  -30.0830 C   0  0  0  0  0  0  0  0  0  0  0  0
   -1.6740   19.6760  -30.9190 N   0  0  0  0  0  0  0  0  0  0  0  0
   -2.5830   20.6530  -31.1780 C   0  0  0  0  0  0  0  0  0  0  0  0
   -3.6670   20.3740  -32.0770 N   0  0  0  0  0  0  0  0  0  0  0  0
   -3.6350   20.9050  -33.4440 C   0  0  0  0  0  0  0  0  0  0  0  0
   -2.3550   20.4760  -34.1500 C   0  0  0  0  0  0  0  0  0  0  0  0
   -4.8240   19.6140  -31.5920 C   0  0  0  0  0  0  0  0  0  0  0  0
   -6.0790   20.4200  -31.7760 C   0  0  0  0  0  0  0  0  0  0  0  0
   -7.2460   19.8080  -32.2640 C   0  0  0  0  0  0  0  0  0  0  0  0
   -8.4350   20.5380  -32.3650 C   0  0  0  0  0  0  0  0  0  0  0  0
   -8.4700   21.8770  -31.9640 C   0  0  0  0  0  0  0  0  0  0  0  0
   -7.3170   22.4890  -31.4660 C   0  0  0  0  0  0  0  0  0  0  0  0
   -6.1250   21.7650  -31.3700 C   0  0  0  0  0  0  0  0  0  0  0  0
   -2.4300   21.9200  -30.5800 C   0  0  0  0  0  0  0  0  0  0  0  0
   -3.3080   22.9870  -30.8310 C   0  0  0  0  0  0  0  0  0  0  0  0
   -3.1070   24.2390  -30.2190 C   0  0  0  0  0  0  0  0  0  0  0  0
   -3.9570   25.3340  -30.4480 O   0  0  0  0  0  0  0  0  0  0  0  0
   -5.3370   25.2590  -30.8100 C   0  0  0  0  0  0  0  0  0  0  0  0
   -6.2310   25.5430  -29.6060 C   0  0  0  0  0  0  0  0  0  0  0  0
   -2.0468   25.5056  -25.4166 H   0  0  0  0  0  0  0  0  0  0  0  0
   -3.3675   25.7753  -26.6038 H   0  0  0  0  0  0  0  0  0  0  0  0
   -2.4630   24.2234  -26.6038 H   0  0  0  0  0  0  0  0  0  0  0  0
   -1.2743   26.9721  -27.2428 H   0  0  0  0  0  0  0  0  0  0  0  0
   -0.4080   25.3995  -27.2942 H   0  0  0  0  0  0  0  0  0  0  0  0
   -0.2794   23.4971  -28.4282 H   0  0  0  0  0  0  0  0  0  0  0  0
    0.0915   19.0768  -29.8863 H   0  0  0  0  0  0  0  0  0  0  0  0
   -4.5024   20.5225  -34.0019 H   0  0  0  0  0  0  0  0  0  0  0  0
   -3.6681   22.0037  -33.4011 H   0  0  0  0  0  0  0  0  0  0  0  0
   -1.5912   20.2200  -33.4009 H   0  0  0  0  0  0  0  0  0  0  0  0
   -2.5602   19.5975  -34.7794 H   0  0  0  0  0  0  0  0  0  0  0  0
   -1.9894   21.3007  -34.7794 H   0  0  0  0  0  0  0  0  0  0  0  0
   -4.9072   18.6750  -32.1589 H   0  0  0  0  0  0  0  0  0  0  0  0
   -4.6894   19.3923  -30.5230 H   0  0  0  0  0  0  0  0  0  0  0  0
   -7.2245   18.7510  -32.5677 H   0  0  0  0  0  0  0  0  0  0  0  0
   -9.3427   20.0584  -32.7600 H   0  0  0  0  0  0  0  0  0  0  0  0
   -9.4063   22.4492  -32.0407 H   0  0  0  0  0  0  0  0  0  0  0  0
   -7.3472   23.5419  -31.1490 H   0  0  0  0  0  0  0  0  0  0  0  0
   -5.2198   22.2496  -30.9753 H   0  0  0  0  0  0  0  0  0  0  0  0
   -4.1601   22.8433  -31.5116 H   0  0  0  0  0  0  0  0  0  0  0  0
   -5.5443   26.0005  -31.5956 H   0  0  0  0  0  0  0  0  0  0  0  0
   -5.5504   24.2435  -31.1750 H   0  0  0  0  0  0  0  0  0  0  0  0
   -5.6661   25.3635  -28.6794 H   0  0  0  0  0  0  0  0  0  0  0  0
   -6.5637   26.5911  -29.6354 H   0  0  0  0  0  0  0  0  0  0  0  0
   -7.1076   24.8791  -29.6354 H   0  0  0  0  0  0  0  0  0  0  0  0
  1  2  1  0
  2  3  1  0
  3  4  1  0
  4  5  2  0
  5  6  1  0
  6  7  2  0
  7  8  1  0
  8  9  2  0
  9 10  1  0
 10 11  1  0
 11 12  1  0
 12 13  1  0
 11 14  1  0
 14 15  1  0
 15 16  2  0
 16 17  1  0
 17 18  2  0
 18 19  1  0
 19 20  2  0
 10 21  2  0
 21 22  1  0
 22 23  2  0
 23 24  1  0
 24 25  1  0
 25 26  1  0
 23  4  1  0
 21  6  1  0
 20 15  1  0
  1 27  1  0
  1 28  1  0
  1 29  1  0
  2 30  1  0
  2 31  1  0
  5 32  1  0
  8 33  1  0
 12 34  1  0
 12 35  1  0
 13 36  1  0
 13 37  1  0
 13 38  1  0
 14 39  1  0
 14 40  1  0
 16 41  1  0
 17 42  1  0
 18 43  1  0
 19 44  1  0
 20 45  1  0
 22 46  1  0
 25 47  1  0
 25 48  1  0
 26 49  1  0
 26 50  1  0
 26 51  1  0
M  END
>  <UniqueID>  (41) 
38

>  <SMILES>  (41) 
CCOc1cc2ncnc(N(CC)Cc3ccccc3)c2cc1OCC

>  <Energy>  (41) 
49.009431897466236

>  <Genealogy>  (41) 
CCOc1cc2ncnc(N(CC)Cc3ccccc3)c2cc1OCC (3D coordinates assigned)
CCOc1cc2ncnc(N(CC)Cc3ccccc3)c2cc1OCC (optimized conformer: 49.009431897466236 kcal/mol)

>  <smiles>  (41) 
CCOc1cc2ncnc(N(CC)Cc3ccccc3)c2cc1OCC

>  <score_type>  (41) 
oracle

>  <origin>  (41) 
adgpu

>  <m_score__min__energy>  (41) 
-7.9900000000000002

>  <m_primary>  (41) 
energy

$$$$
41:0
     RDKit          3D

 27 29  0  0  0  0  0  0  0  0999 V2000
   -9.0390   21.1090  -31.7490 O   0  0  0  0  0  0  0  0  0  0  0  0
   -7.8080   20.8480  -31.6710 C   0  0  0  0  0  0  0  0  0  0  0  0
   -6.9330   21.8350  -31.2130 C   0  0  0  0  0  0  0  0  0  0  0  0
   -5.5540   21.5560  -31.1190 C   0  0  0  0  0  0  0  0  0  0  0  0
   -4.5510   22.5570  -30.6400 C   0  0  0  0  0  0  0  0  0  0  0  0
   -3.3140   22.1870  -30.0640 C   0  0  0  0  0  0  0  0  0  0  0  0
   -2.4100   23.1620  -29.6320 C   0  0  0  0  0  0  0  0  0  0  0  0
   -2.7170   24.5160  -29.7650 C   0  0  0  0  0  0  0  0  0  0  0  0
   -1.8100   25.4770  -29.3310 O   0  0  0  0  0  0  0  0  0  0  0  0
   -3.9340   24.9020  -30.3310 C   0  0  0  0  0  0  0  0  0  0  0  0
   -4.2450   26.2490  -30.4650 O   0  0  0  0  0  0  0  0  0  0  0  0
   -4.8430   23.9320  -30.7650 C   0  0  0  0  0  0  0  0  0  0  0  0
   -5.1180   20.3480  -31.4740 O   0  0  0  0  0  0  0  0  0  0  0  0
   -5.9100   19.3770  -31.9150 C   0  0  0  0  0  0  0  0  0  0  0  0
   -5.3510   18.1430  -32.2620 C   0  0  0  0  0  0  0  0  0  0  0  0
   -6.1660   17.1090  -32.7270 C   0  0  0  0  0  0  0  0  0  0  0  0
   -5.6040   15.8840  -33.0700 O   0  0  0  0  0  0  0  0  0  0  0  0
   -7.5430   17.3020  -32.8490 C   0  0  0  0  0  0  0  0  0  0  0  0
   -8.1190   18.5310  -32.5080 C   0  0  0  0  0  0  0  0  0  0  0  0
   -9.4960   18.6840  -32.6430 O   0  0  0  0  0  0  0  0  0  0  0  0
   -7.3040   19.5850  -32.0340 C   0  0  0  0  0  0  0  0  0  0  0  0
   -7.3174   22.8251  -30.9270 H   0  0  0  0  0  0  0  0  0  0  0  0
   -3.0605   21.1222  -29.9548 H   0  0  0  0  0  0  0  0  0  0  0  0
   -1.4515   22.8597  -29.1848 H   0  0  0  0  0  0  0  0  0  0  0  0
   -5.7990   24.2451  -31.2100 H   0  0  0  0  0  0  0  0  0  0  0  0
   -4.2662   17.9865  -32.1684 H   0  0  0  0  0  0  0  0  0  0  0  0
   -8.1794   16.4830  -33.2154 H   0  0  0  0  0  0  0  0  0  0  0  0
  1  2  2  0
  2  3  1  0
  3  4  2  0
  4  5  1  0
  5  6  2  0
  6  7  1  0
  7  8  2  0
  8  9  1  0
  8 10  1  0
 10 11  1  0
 10 12  2  0
  4 13  1  0
 13 14  1  0
 14 15  2  0
 15 16  1  0
 16 17  1  0
 16 18  2  0
 18 19  1  0
 19 20  1  0
 19 21  2  0
 21  2  1  0
 12  5  1  0
 21 14  1  0
  3 22  1  0
  6 23  1  0
  7 24  1  0
 12 25  1  0
 15 26  1  0
 18 27  1  0
M  CHG  4   9  -1  11  -1  17  -1  20  -1
M  END
>  <UniqueID>  (42) 
39

>  <SMILES>  (42) 
O=c1cc(-c2ccc([O-])c([O-])c2)oc2cc([O-])cc([O-])c12

>  <Energy>  (42) 
41.74451836888985

>  <Genealogy>  (42) 
O=c1cc(-c2ccc([O-])c([O-])c2)oc2cc([O-])cc([O-])c12 (protonated)
O=c1cc(-c2ccc([O-])c([O-])c2)oc2cc([O-])cc([O-])c12 (3D coordinates assigned)
O=c1cc(-c2ccc([O-])c([O-])c2)oc2cc([O-])cc([O-])c12 (optimized conformer: 41.74451836888985 kcal/mol)

>  <smiles>  (42) 
O=c1cc(-c2ccc(O)c(O)c2)oc2cc(O)cc(O)c12

>  <score_type>  (42) 
oracle

>  <origin>  (42) 
adgpu

>  <m_score__min__energy>  (42) 
-11.65

>  <m_primary>  (42) 
energy

$$$$
42:0
     RDKit          3D

 36 38  0  0  0  0  0  0  0  0999 V2000
   -4.7490   24.2580  -28.9310 C   0  0  0  0  0  0  0  0  0  0  0  0
   -5.4360   24.6250  -30.2600 C   0  0  0  0  0  0  0  0  0  0  0  0
   -5.3560   26.1440  -30.4640 C   0  0  0  0  0  0  0  0  0  0  0  0
   -6.9200   24.1810  -30.2650 C   0  0  0  0  0  0  0  0  0  0  0  0
   -7.0630   22.6510  -30.2770 C   0  0  0  0  0  0  0  0  0  0  0  0
   -6.1590   22.0090  -31.2980 C   0  0  0  0  0  0  0  0  0  0  0  0
   -6.4160   20.7020  -31.7400 C   0  0  0  0  0  0  0  0  0  0  0  0
   -5.5690   20.0820  -32.6750 C   0  0  0  0  0  0  0  0  0  0  0  0
   -5.8470   18.7010  -33.1470 C   0  0  0  0  0  0  0  0  0  0  0  0
   -6.9690   17.9950  -32.6710 C   0  0  0  0  0  0  0  0  0  0  0  0
   -7.2290   16.6960  -33.1160 C   0  0  0  0  0  0  0  0  0  0  0  0
   -6.3760   16.0860  -34.0400 C   0  0  0  0  0  0  0  0  0  0  0  0
   -6.7050   14.4560  -34.5970 Cl  0  0  0  0  0  0  0  0  0  0  0  0
   -5.2600   16.7770  -34.5190 C   0  0  0  0  0  0  0  0  0  0  0  0
   -4.9950   18.0770  -34.0770 C   0  0  0  0  0  0  0  0  0  0  0  0
   -4.4520   20.7880  -33.1570 C   0  0  0  0  0  0  0  0  0  0  0  0
   -4.1840   22.0830  -32.7080 C   0  0  0  0  0  0  0  0  0  0  0  0
   -5.0250   22.6930  -31.7740 C   0  0  0  0  0  0  0  0  0  0  0  0
   -4.7380   23.9920  -31.3360 O   0  0  0  0  0  0  0  0  0  0  0  0
   -5.3747   24.5922  -28.0903 H   0  0  0  0  0  0  0  0  0  0  0  0
   -4.6141   23.1677  -28.8768 H   0  0  0  0  0  0  0  0  0  0  0  0
   -3.7677   24.7520  -28.8768 H   0  0  0  0  0  0  0  0  0  0  0  0
   -5.3296   26.6446  -29.4849 H   0  0  0  0  0  0  0  0  0  0  0  0
   -4.4436   26.3908  -31.0267 H   0  0  0  0  0  0  0  0  0  0  0  0
   -6.2374   26.4853  -31.0267 H   0  0  0  0  0  0  0  0  0  0  0  0
   -7.4121   24.5766  -29.3643 H   0  0  0  0  0  0  0  0  0  0  0  0
   -7.3890   24.5733  -31.1794 H   0  0  0  0  0  0  0  0  0  0  0  0
   -6.8063   22.2622  -29.2805 H   0  0  0  0  0  0  0  0  0  0  0  0
   -8.1026   22.4083  -30.5422 H   0  0  0  0  0  0  0  0  0  0  0  0
   -7.2889   20.1573  -31.3509 H   0  0  0  0  0  0  0  0  0  0  0  0
   -7.6450   18.4692  -31.9443 H   0  0  0  0  0  0  0  0  0  0  0  0
   -8.1073   16.1522  -32.7381 H   0  0  0  0  0  0  0  0  0  0  0  0
   -4.5880   16.2971  -35.2458 H   0  0  0  0  0  0  0  0  0  0  0  0
   -4.1149   18.6152  -34.4587 H   0  0  0  0  0  0  0  0  0  0  0  0
   -3.7844   20.3165  -33.8932 H   0  0  0  0  0  0  0  0  0  0  0  0
   -3.3070   22.6250  -33.0914 H   0  0  0  0  0  0  0  0  0  0  0  0
  1  2  1  0
  2  3  1  0
  2  4  1  0
  4  5  1  0
  5  6  1  0
  6  7  2  0
  7  8  1  0
  8  9  1  0
  9 10  2  0
 10 11  1  0
 11 12  2  0
 12 13  1  0
 12 14  1  0
 14 15  2  0
  8 16  2  0
 16 17  1  0
 17 18  2  0
 18 19  1  0
 19  2  1  0
 18  6  1  0
 15  9  1  0
  1 20  1  0
  1 21  1  0
  1 22  1  0
  3 23  1  0
  3 24  1  0
  3 25  1  0
  4 26  1  0
  4 27  1  0
  5 28  1  0
  5 29  1  0
  7 30  1  0
 10 31  1  0
 11 32  1  0
 14 33  1  0
 15 34  1  0
 16 35  1  0
 17 36  1  0
M  END
>  <UniqueID>  (43) 
40

>  <SMILES>  (43) 
CC1(C)CCc2cc(-c3ccc(Cl)cc3)ccc2O1

>  <Energy>  (43) 
39.84246311728428

>  <Genealogy>  (43) 
CC1(C)CCc2cc(-c3ccc(Cl)cc3)ccc2O1 (3D coordinates assigned)
CC1(C)CCc2cc(-c3ccc(Cl)cc3)ccc2O1 (nonaromatic ring conformer: 39.84246311728428 kcal/mol)

>  <smiles>  (43) 
CC1(C)CCc2cc(-c3ccc(Cl)cc3)ccc2O1

>  <score_type>  (43) 
oracle

>  <origin>  (43) 
adgpu

>  <m_score__min__energy>  (43) 
-8.0099999999999998

>  <m_primary>  (43) 
energy

$$$$
43:0
     RDKit          3D

 55 58  0  0  0  0  0  0  0  0999 V2000
   -0.9620   26.5770  -24.3550 C   0  0  0  0  0  0  0  0  0  0  0  0
   -1.3000   26.1120  -25.7400 C   0  0  0  0  0  0  0  0  0  0  0  0
   -0.5620   26.5790  -26.8370 C   0  0  0  0  0  0  0  0  0  0  0  0
   -0.8970   26.1850  -28.1360 C   0  0  0  0  0  0  0  0  0  0  0  0
   -1.9770   25.3120  -28.3530 C   0  0  0  0  0  0  0  0  0  0  0  0
   -2.3530   24.8730  -29.6650 N   0  0  0  0  0  0  0  0  0  0  0  0
   -3.9320   24.3240  -30.1270 S   0  0  0  0  0  0  0  0  0  0  0  0
   -4.7240   23.9970  -28.8920 O   0  0  0  0  0  0  0  0  0  0  0  0
   -4.6290   25.4240  -30.8770 O   0  0  0  0  0  0  0  0  0  0  0  0
   -3.8060   22.9160  -31.1760 C   0  0  0  0  0  0  0  0  0  0  0  0
   -2.7750   21.9870  -30.9880 C   0  0  0  0  0  0  0  0  0  0  0  0
   -2.6500   20.8890  -31.8440 C   0  0  0  0  0  0  0  0  0  0  0  0
   -3.5610   20.7010  -32.8980 C   0  0  0  0  0  0  0  0  0  0  0  0
   -3.4460   19.5410  -33.8150 C   0  0  0  0  0  0  0  0  0  0  0  0
   -2.3040   19.1640  -34.1890 O   0  0  0  0  0  0  0  0  0  0  0  0
   -4.5890   18.7960  -34.2620 N   0  0  0  0  0  0  0  0  0  0  0  0
   -4.7600   17.3680  -34.2610 C   0  0  0  0  0  0  0  0  0  0  0  0
   -3.7340   16.5850  -34.8060 C   0  0  0  0  0  0  0  0  0  0  0  0
   -3.8450   15.1940  -34.8430 C   0  0  0  0  0  0  0  0  0  0  0  0
   -4.9970   14.5730  -34.3610 C   0  0  0  0  0  0  0  0  0  0  0  0
   -6.0410   15.3410  -33.8420 C   0  0  0  0  0  0  0  0  0  0  0  0
   -5.9330   16.7430  -33.7780 C   0  0  0  0  0  0  0  0  0  0  0  0
   -7.0300   17.5420  -33.3160 N   0  0  0  0  0  0  0  0  0  0  0  0
   -7.1210   18.1970  -32.0440 C   0  0  0  0  0  0  0  0  0  0  0  0
   -6.5620   17.6930  -31.0340 O   0  0  0  0  0  0  0  0  0  0  0  0
   -7.8020   19.5070  -31.9330 C   0  0  0  0  0  0  0  0  0  0  0  0
   -9.1200   19.6690  -32.3990 C   0  0  0  0  0  0  0  0  0  0  0  0
   -9.7720   20.8990  -32.2700 C   0  0  0  0  0  0  0  0  0  0  0  0
   -9.1150   21.9810  -31.6790 C   0  0  0  0  0  0  0  0  0  0  0  0
   -7.8060   21.8340  -31.2150 C   0  0  0  0  0  0  0  0  0  0  0  0
   -7.1500   20.6060  -31.3410 C   0  0  0  0  0  0  0  0  0  0  0  0
   -4.5830   21.6470  -33.0900 C   0  0  0  0  0  0  0  0  0  0  0  0
   -4.7090   22.7420  -32.2310 C   0  0  0  0  0  0  0  0  0  0  0  0
   -2.7200   24.8550  -27.2570 C   0  0  0  0  0  0  0  0  0  0  0  0
   -2.3920   25.2580  -25.9600 C   0  0  0  0  0  0  0  0  0  0  0  0
   -1.4425   25.9159  -23.6188 H   0  0  0  0  0  0  0  0  0  0  0  0
    0.1287   26.5500  -24.2151 H   0  0  0  0  0  0  0  0  0  0  0  0
   -1.3243   27.6062  -24.2151 H   0  0  0  0  0  0  0  0  0  0  0  0
    0.2864   27.2601  -26.6745 H   0  0  0  0  0  0  0  0  0  0  0  0
   -0.3139   26.5592  -28.9904 H   0  0  0  0  0  0  0  0  0  0  0  0
   -2.0602   22.1220  -30.1629 H   0  0  0  0  0  0  0  0  0  0  0  0
   -1.8337   20.1676  -31.6919 H   0  0  0  0  0  0  0  0  0  0  0  0
   -2.8328   17.0707  -35.2084 H   0  0  0  0  0  0  0  0  0  0  0  0
   -3.0237   14.5875  -35.2524 H   0  0  0  0  0  0  0  0  0  0  0  0
   -5.0831   13.4768  -34.3898 H   0  0  0  0  0  0  0  0  0  0  0  0
   -6.9548   14.8468  -33.4804 H   0  0  0  0  0  0  0  0  0  0  0  0
   -9.6411   18.8215  -32.8683 H   0  0  0  0  0  0  0  0  0  0  0  0
  -10.8034   21.0149  -32.6343 H   0  0  0  0  0  0  0  0  0  0  0  0
   -9.6286   22.9486  -31.5791 H   0  0  0  0  0  0  0  0  0  0  0  0
   -7.2899   22.6865  -30.7493 H   0  0  0  0  0  0  0  0  0  0  0  0
   -6.1182   20.4974  -30.9755 H   0  0  0  0  0  0  0  0  0  0  0  0
   -5.2898   21.5242  -33.9239 H   0  0  0  0  0  0  0  0  0  0  0  0
   -5.5200   23.4691  -32.3844 H   0  0  0  0  0  0  0  0  0  0  0  0
   -3.5683   24.1736  -27.4187 H   0  0  0  0  0  0  0  0  0  0  0  0
   -2.9917   24.9047  -25.1082 H   0  0  0  0  0  0  0  0  0  0  0  0
  1  2  1  0
  2  3  2  0
  3  4  1  0
  4  5  2  0
  5  6  1  0
  6  7  1  0
  7  8  2  0
  7  9  2  0
  7 10  1  0
 10 11  2  0
 11 12  1  0
 12 13  2  0
 13 14  1  0
 14 15  2  0
 14 16  1  0
 16 17  1  0
 17 18  2  0
 18 19  1  0
 19 20  2  0
 20 21  1  0
 21 22  2  0
 22 23  1  0
 23 24  1  0
 24 25  2  0
 24 26  1  0
 26 27  2  0
 27 28  1  0
 28 29  2  0
 29 30  1  0
 30 31  2  0
 13 32  1  0
 32 33  2  0
  5 34  1  0
 34 35  2  0
 35  2  1  0
 33 10  1  0
 22 17  1  0
 31 26  1  0
  1 36  1  0
  1 37  1  0
  1 38  1  0
  3 39  1  0
  4 40  1  0
 11 41  1  0
 12 42  1  0
 18 43  1  0
 19 44  1  0
 20 45  1  0
 21 46  1  0
 27 47  1  0
 28 48  1  0
 29 49  1  0
 30 50  1  0
 31 51  1  0
 32 52  1  0
 33 53  1  0
 34 54  1  0
 35 55  1  0
M  CHG  3   6  -1  16  -1  23  -1
M  END
>  <UniqueID>  (44) 
41

>  <SMILES>  (44) 
Cc1ccc([N-]S(=O)(=O)c2ccc(C(=O)[N-]c3ccccc3[N-]C(=O)c3ccccc3)cc2)cc1

>  <Energy>  (44) 
70.0890869959067

>  <Genealogy>  (44) 
Cc1ccc([N-]S(=O)(=O)c2ccc(C(=O)[N-]c3ccccc3[N-]C(=O)c3ccccc3)cc2)cc1 (protonated)
Cc1ccc([N-]S(=O)(=O)c2ccc(C(=O)[N-]c3ccccc3[N-]C(=O)c3ccccc3)cc2)cc1 (3D coordinates assigned)
Cc1ccc([N-]S(=O)(=O)c2ccc(C(=O)[N-]c3ccccc3[N-]C(=O)c3ccccc3)cc2)cc1 (optimized conformer: 70.0890869959067 kcal/mol)

>  <smiles>  (44) 
Cc1ccc(NS(=O)(=O)c2ccc(C(=O)Nc3ccccc3NC(=O)c3ccccc3)cc2)cc1

>  <score_type>  (44) 
oracle

>  <origin>  (44) 
adgpu

>  <m_score__min__energy>  (44) 
-14.640000000000001

>  <m_primary>  (44) 
energy

$$$$
44:0
     RDKit          3D

 55 57  0  0  0  0  0  0  0  0999 V2000
   -6.8630   24.1300  -30.2760 C   0  0  0  0  0  0  0  0  0  0  0  0
   -6.2430   22.7480  -30.4360 C   0  0  0  0  0  0  0  0  0  0  0  0
   -4.9590   22.8430  -31.1400 N   0  0  0  0  0  0  0  0  0  0  0  0
   -4.8980   22.6640  -32.5990 C   0  0  0  0  0  0  0  0  0  0  0  0
   -4.9980   21.2060  -32.9560 C   0  0  0  0  0  0  0  0  0  0  0  0
   -6.2470   20.5780  -33.0190 C   0  0  0  0  0  0  0  0  0  0  0  0
   -6.3470   19.2400  -33.4110 C   0  0  0  0  0  0  0  0  0  0  0  0
   -5.1970   18.5000  -33.7640 C   0  0  0  0  0  0  0  0  0  0  0  0
   -5.3000   17.1110  -34.1770 N   0  0  0  0  0  0  0  0  0  0  0  0
   -6.5250   16.3420  -33.9200 C   0  0  0  0  0  0  0  0  0  0  0  0
   -4.1840   16.4510  -34.8680 C   0  0  0  0  0  0  0  0  0  0  0  0
   -3.9450   19.1500  -33.7080 C   0  0  0  0  0  0  0  0  0  0  0  0
   -3.8480   20.4860  -33.3110 C   0  0  0  0  0  0  0  0  0  0  0  0
   -3.7690   23.2130  -30.4170 C   0  0  0  0  0  0  0  0  0  0  0  0
   -2.7920   22.2570  -30.0690 C   0  0  0  0  0  0  0  0  0  0  0  0
   -3.0750   20.8600  -30.2750 N   0  0  0  0  0  0  0  0  0  0  0  0
   -1.5910   22.6710  -29.5260 N   0  0  0  0  0  0  0  0  0  0  0  0
   -0.5000   21.7050  -29.2710 C   0  0  0  0  0  0  0  0  0  0  0  0
   -0.9560   20.6050  -28.3410 C   0  0  0  0  0  0  0  0  0  0  0  0
   -1.9980   20.8400  -27.4270 C   0  0  0  0  0  0  0  0  0  0  0  0
   -2.4160   19.8290  -26.5570 C   0  0  0  0  0  0  0  0  0  0  0  0
   -1.7910   18.5790  -26.5810 C   0  0  0  0  0  0  0  0  0  0  0  0
   -0.7430   18.3420  -27.4730 C   0  0  0  0  0  0  0  0  0  0  0  0
   -0.3180   19.3500  -28.3410 C   0  0  0  0  0  0  0  0  0  0  0  0
   -1.3850   24.0100  -29.2790 C   0  0  0  0  0  0  0  0  0  0  0  0
   -0.3040   24.4190  -28.7760 O   0  0  0  0  0  0  0  0  0  0  0  0
   -2.3390   24.9220  -29.5850 N   0  0  0  0  0  0  0  0  0  0  0  0
   -3.5090   24.5610  -30.1540 C   0  0  0  0  0  0  0  0  0  0  0  0
   -4.3480   25.4490  -30.4600 O   0  0  0  0  0  0  0  0  0  0  0  0
   -6.9677   24.3633  -29.2061 H   0  0  0  0  0  0  0  0  0  0  0  0
   -6.2151   24.8800  -30.7532 H   0  0  0  0  0  0  0  0  0  0  0  0
   -7.8540   24.1448  -30.7532 H   0  0  0  0  0  0  0  0  0  0  0  0
   -6.0797   22.3065  -29.4418 H   0  0  0  0  0  0  0  0  0  0  0  0
   -6.9260   22.1157  -31.0222 H   0  0  0  0  0  0  0  0  0  0  0  0
   -5.7319   23.2089  -33.0657 H   0  0  0  0  0  0  0  0  0  0  0  0
   -3.9372   23.0547  -32.9653 H   0  0  0  0  0  0  0  0  0  0  0  0
   -7.1556   21.1407  -32.7585 H   0  0  0  0  0  0  0  0  0  0  0  0
   -7.3347   18.7569  -33.4450 H   0  0  0  0  0  0  0  0  0  0  0  0
   -6.6771   16.2465  -32.8348 H   0  0  0  0  0  0  0  0  0  0  0  0
   -7.3851   16.8625  -34.3664 H   0  0  0  0  0  0  0  0  0  0  0  0
   -6.4301   15.3411  -34.3664 H   0  0  0  0  0  0  0  0  0  0  0  0
   -3.4856   16.0380  -34.1252 H   0  0  0  0  0  0  0  0  0  0  0  0
   -4.5726   15.6374  -35.4981 H   0  0  0  0  0  0  0  0  0  0  0  0
   -3.6582   17.1835  -35.4981 H   0  0  0  0  0  0  0  0  0  0  0  0
   -3.0338   18.5973  -33.9805 H   0  0  0  0  0  0  0  0  0  0  0  0
   -2.8638   20.9761  -33.2767 H   0  0  0  0  0  0  0  0  0  0  0  0
   -2.7150   20.3180  -31.0870 H   0  0  0  0  0  0  0  0  0  0  0  0
   -3.6260   20.3110  -29.5810 H   0  0  0  0  0  0  0  0  0  0  0  0
   -0.1831   21.2602  -30.2259 H   0  0  0  0  0  0  0  0  0  0  0  0
    0.3370   22.2391  -28.7976 H   0  0  0  0  0  0  0  0  0  0  0  0
   -2.4870   21.8248  -27.3963 H   0  0  0  0  0  0  0  0  0  0  0  0
   -3.2388   20.0176  -25.8517 H   0  0  0  0  0  0  0  0  0  0  0  0
   -2.1241   17.7833  -25.8984 H   0  0  0  0  0  0  0  0  0  0  0  0
   -0.2508   17.3584  -27.4920 H   0  0  0  0  0  0  0  0  0  0  0  0
    0.5199   19.1624  -29.0285 H   0  0  0  0  0  0  0  0  0  0  0  0
  1  2  1  0
  2  3  1  0
  3  4  1  0
  4  5  1  0
  5  6  2  0
  6  7  1  0
  7  8  2  0
  8  9  1  0
  9 10  1  0
  9 11  1  0
  8 12  1  0
 12 13  2  0
  3 14  1  0
 14 15  2  0
 15 16  1  0
 15 17  1  0
 17 18  1  0
 18 19  1  0
 19 20  2  0
 20 21  1  0
 21 22  2  0
 22 23  1  0
 23 24  2  0
 17 25  1  0
 25 26  2  0
 25 27  1  0
 27 28  1  0
 28 29  2  0
 13  5  1  0
 28 14  1  0
 24 19  1  0
  1 30  1  0
  1 31  1  0
  1 32  1  0
  2 33  1  0
  2 34  1  0
  4 35  1  0
  4 36  1  0
  6 37  1  0
  7 38  1  0
 10 39  1  0
 10 40  1  0
 10 41  1  0
 11 42  1  0
 11 43  1  0
 11 44  1  0
 12 45  1  0
 13 46  1  0
 16 47  1  0
 16 48  1  0
 18 49  1  0
 18 50  1  0
 20 51  1  0
 21 52  1  0
 22 53  1  0
 23 54  1  0
 24 55  1  0
M  CHG  1  27  -1
M  END
>  <UniqueID>  (45) 
42

>  <SMILES>  (45) 
CCN(Cc1ccc(N(C)C)cc1)c1c(N)n(Cc2ccccc2)c(=O)[n-]c1=O

>  <Energy>  (45) 
64.522366506143

>  <Genealogy>  (45) 
CCN(Cc1ccc(N(C)C)cc1)c1c(N)n(Cc2ccccc2)c(=O)[n-]c1=O (protonated)
CCN(Cc1ccc(N(C)C)cc1)c1c(N)n(Cc2ccccc2)c(=O)[n-]c1=O (3D coordinates assigned)
CCN(Cc1ccc(N(C)C)cc1)c1c(N)n(Cc2ccccc2)c(=O)[n-]c1=O (optimized conformer: 64.522366506143 kcal/mol)

>  <smiles>  (45) 
CCN(Cc1ccc(N(C)C)cc1)c1c(N)n(Cc2ccccc2)c(=O)[nH]c1=O

>  <score_type>  (45) 
oracle

>  <origin>  (45) 
adgpu

>  <m_score__min__energy>  (45) 
-9.0999999999999996

>  <m_primary>  (45) 
energy

$$$$
45:0
     RDKit          3D

 56 59  0  0  0  0  0  0  0  0999 V2000
   -6.2130   16.1890  -33.8330 C   0  0  0  0  0  0  0  0  0  0  0  0
   -7.2130   16.7730  -33.0040 O   0  0  0  0  0  0  0  0  0  0  0  0
   -7.3130   18.1440  -32.7310 C   0  0  0  0  0  0  0  0  0  0  0  0
   -8.1800   18.6590  -31.7480 C   0  0  0  0  0  0  0  0  0  0  0  0
   -8.2280   20.0340  -31.5010 C   0  0  0  0  0  0  0  0  0  0  0  0
   -7.4010   20.9100  -32.2130 C   0  0  0  0  0  0  0  0  0  0  0  0
   -7.4420   22.3120  -31.9080 N   0  0  0  0  0  0  0  0  0  0  0  0
   -6.6910   22.9620  -30.8730 C   0  0  0  0  0  0  0  0  0  0  0  0
   -7.3110   23.5650  -29.9600 O   0  0  0  0  0  0  0  0  0  0  0  0
   -5.2180   22.8630  -30.8180 C   0  0  0  0  0  0  0  0  0  0  0  0
   -4.3020   21.8610  -31.8110 S   0  0  0  0  0  0  0  0  0  0  0  0
   -2.8020   22.3330  -31.2180 C   0  0  0  0  0  0  0  0  0  0  0  0
   -1.5380   21.9170  -31.7550 N   0  0  0  0  0  0  0  0  0  0  0  0
   -1.4020   20.8450  -32.7020 C   0  0  0  0  0  0  0  0  0  0  0  0
   -0.5750   21.0140  -33.8230 C   0  0  0  0  0  0  0  0  0  0  0  0
   -0.4400   19.9850  -34.7620 C   0  0  0  0  0  0  0  0  0  0  0  0
   -1.1420   18.7880  -34.5960 C   0  0  0  0  0  0  0  0  0  0  0  0
   -1.9880   18.6200  -33.4970 C   0  0  0  0  0  0  0  0  0  0  0  0
   -2.1260   19.6460  -32.5570 C   0  0  0  0  0  0  0  0  0  0  0  0
   -2.9850   23.2750  -30.2060 C   0  0  0  0  0  0  0  0  0  0  0  0
   -1.8650   23.9790  -29.5480 C   0  0  0  0  0  0  0  0  0  0  0  0
   -0.7610   23.3910  -29.4090 O   0  0  0  0  0  0  0  0  0  0  0  0
   -2.0200   25.3040  -29.0270 N   0  0  0  0  0  0  0  0  0  0  0  0
   -1.6320   25.7270  -27.7110 C   0  0  0  0  0  0  0  0  0  0  0  0
   -0.5160   26.5580  -27.5070 C   0  0  0  0  0  0  0  0  0  0  0  0
   -0.1600   26.9510  -26.2140 C   0  0  0  0  0  0  0  0  0  0  0  0
   -0.9130   26.5230  -25.1110 C   0  0  0  0  0  0  0  0  0  0  0  0
   -0.5090   26.9230  -23.7240 C   0  0  0  0  0  0  0  0  0  0  0  0
   -1.9990   25.6580  -25.3130 C   0  0  0  0  0  0  0  0  0  0  0  0
   -2.3520   25.2600  -26.6060 C   0  0  0  0  0  0  0  0  0  0  0  0
   -4.3480   23.5710  -29.9800 C   0  0  0  0  0  0  0  0  0  0  0  0
   -4.7920   24.5290  -29.0110 N   0  0  0  0  0  0  0  0  0  0  0  0
   -6.5640   20.4010  -33.2210 C   0  0  0  0  0  0  0  0  0  0  0  0
   -6.5190   19.0280  -33.4700 C   0  0  0  0  0  0  0  0  0  0  0  0
   -5.4343   15.7342  -33.2031 H   0  0  0  0  0  0  0  0  0  0  0  0
   -6.6691   15.4153  -34.4681 H   0  0  0  0  0  0  0  0  0  0  0  0
   -5.7633   16.9664  -34.4681 H   0  0  0  0  0  0  0  0  0  0  0  0
   -8.8222   17.9764  -31.1721 H   0  0  0  0  0  0  0  0  0  0  0  0
   -8.9197   20.4296  -30.7427 H   0  0  0  0  0  0  0  0  0  0  0  0
   -0.6730   22.3990  -31.4230 H   0  0  0  0  0  0  0  0  0  0  0  0
   -0.0305   21.9593  -33.9643 H   0  0  0  0  0  0  0  0  0  0  0  0
    0.2197   20.1186  -35.6320 H   0  0  0  0  0  0  0  0  0  0  0  0
   -1.0283   17.9776  -35.3311 H   0  0  0  0  0  0  0  0  0  0  0  0
   -2.5458   17.6803  -33.3711 H   0  0  0  0  0  0  0  0  0  0  0  0
   -2.8034   19.5158  -31.7001 H   0  0  0  0  0  0  0  0  0  0  0  0
    0.0782   26.8995  -28.3674 H   0  0  0  0  0  0  0  0  0  0  0  0
    0.7153   27.5993  -26.0606 H   0  0  0  0  0  0  0  0  0  0  0  0
   -1.0921   26.3457  -22.9914 H   0  0  0  0  0  0  0  0  0  0  0  0
    0.5627   26.7202  -23.5814 H   0  0  0  0  0  0  0  0  0  0  0  0
   -0.7011   27.9967  -23.5814 H   0  0  0  0  0  0  0  0  0  0  0  0
   -2.5751   25.2914  -24.4506 H   0  0  0  0  0  0  0  0  0  0  0  0
   -3.2004   24.5760  -26.7553 H   0  0  0  0  0  0  0  0  0  0  0  0
   -5.7660   24.5170  -28.6400 H   0  0  0  0  0  0  0  0  0  0  0  0
   -4.1510   25.2730  -28.6580 H   0  0  0  0  0  0  0  0  0  0  0  0
   -5.9424   21.0867  -33.8156 H   0  0  0  0  0  0  0  0  0  0  0  0
   -5.8535   18.6377  -34.2541 H   0  0  0  0  0  0  0  0  0  0  0  0
  1  2  1  0
  2  3  1  0
  3  4  2  0
  4  5  1  0
  5  6  2  0
  6  7  1  0
  7  8  1  0
  8  9  2  0
  8 10  1  0
 10 11  1  0
 11 12  1  0
 12 13  1  0
 13 14  1  0
 14 15  2  0
 15 16  1  0
 16 17  2  0
 17 18  1  0
 18 19  2  0
 12 20  2  0
 20 21  1  0
 21 22  2  0
 21 23  1  0
 23 24  1  0
 24 25  2  0
 25 26  1  0
 26 27  2  0
 27 28  1  0
 27 29  1  0
 29 30  2  0
 20 31  1  0
 31 32  1  0
  6 33  1  0
 33 34  2  0
 34  3  1  0
 31 10  2  0
 19 14  1  0
 30 24  1  0
  1 35  1  0
  1 36  1  0
  1 37  1  0
  4 38  1  0
  5 39  1  0
 13 40  1  0
 15 41  1  0
 16 42  1  0
 17 43  1  0
 18 44  1  0
 19 45  1  0
 25 46  1  0
 26 47  1  0
 28 48  1  0
 28 49  1  0
 28 50  1  0
 29 51  1  0
 30 52  1  0
 32 53  1  0
 32 54  1  0
 33 55  1  0
 34 56  1  0
M  CHG  2   7  -1  23  -1
M  END
>  <UniqueID>  (46) 
43

>  <SMILES>  (46) 
COc1ccc([N-]C(=O)c2sc(Nc3ccccc3)c(C(=O)[N-]c3ccc(C)cc3)c2N)cc1

>  <Energy>  (46) 
102.33993514194711

>  <Genealogy>  (46) 
COc1ccc([N-]C(=O)c2sc(Nc3ccccc3)c(C(=O)[N-]c3ccc(C)cc3)c2N)cc1 (protonated)
COc1ccc([N-]C(=O)c2sc(Nc3ccccc3)c(C(=O)[N-]c3ccc(C)cc3)c2N)cc1 (3D coordinates assigned)
COc1ccc([N-]C(=O)c2sc(Nc3ccccc3)c(C(=O)[N-]c3ccc(C)cc3)c2N)cc1 (optimized conformer: 102.33993514194711 kcal/mol)

>  <smiles>  (46) 
COc1ccc(NC(=O)c2sc(Nc3ccccc3)c(C(=O)Nc3ccc(C)cc3)c2N)cc1

>  <score_type>  (46) 
oracle

>  <origin>  (46) 
adgpu

>  <m_score__min__energy>  (46) 
-10.619999999999999

>  <m_primary>  (46) 
energy

$$$$
46:0
     RDKit          3D

 33 35  0  0  0  0  0  0  0  0999 V2000
   -3.8980   25.6680  -30.4900 O   0  0  0  0  0  0  0  0  0  0  0  0
   -3.1770   24.5480  -30.0940 C   0  0  0  0  0  0  0  0  0  0  0  0
   -3.6230   23.2710  -30.4500 C   0  0  0  0  0  0  0  0  0  0  0  0
   -2.9020   22.1390  -30.0560 C   0  0  0  0  0  0  0  0  0  0  0  0
   -1.7220   22.2730  -29.3000 C   0  0  0  0  0  0  0  0  0  0  0  0
   -0.9540   21.0720  -28.8810 C   0  0  0  0  0  0  0  0  0  0  0  0
   -0.9340   20.6710  -27.5340 C   0  0  0  0  0  0  0  0  0  0  0  0
   -0.2110   19.5420  -27.1400 C   0  0  0  0  0  0  0  0  0  0  0  0
    0.5050   18.7860  -28.0830 C   0  0  0  0  0  0  0  0  0  0  0  0
    1.2730   17.5850  -27.6640 C   0  0  0  0  0  0  0  0  0  0  0  0
    2.6570   17.6670  -27.4270 C   0  0  0  0  0  0  0  0  0  0  0  0
    3.3780   16.5360  -27.0330 C   0  0  0  0  0  0  0  0  0  0  0  0
    2.7290   15.3090  -26.8690 C   0  0  0  0  0  0  0  0  0  0  0  0
    3.4600   14.1900  -26.4770 O   0  0  0  0  0  0  0  0  0  0  0  0
    1.3500   15.2160  -27.1030 C   0  0  0  0  0  0  0  0  0  0  0  0
    0.6270   16.3450  -27.4980 C   0  0  0  0  0  0  0  0  0  0  0  0
    0.4840   19.1860  -29.4310 C   0  0  0  0  0  0  0  0  0  0  0  0
   -0.2370   20.3170  -29.8250 C   0  0  0  0  0  0  0  0  0  0  0  0
   -1.2820   23.5620  -28.9470 C   0  0  0  0  0  0  0  0  0  0  0  0
   -2.0060   24.6930  -29.3420 C   0  0  0  0  0  0  0  0  0  0  0  0
   -1.5590   25.9590  -28.9830 O   0  0  0  0  0  0  0  0  0  0  0  0
   -4.5434   23.1566  -31.0415 H   0  0  0  0  0  0  0  0  0  0  0  0
   -3.2593   21.1378  -30.3386 H   0  0  0  0  0  0  0  0  0  0  0  0
   -1.4920   21.2506  -26.7839 H   0  0  0  0  0  0  0  0  0  0  0  0
   -0.2024   19.2424  -26.0816 H   0  0  0  0  0  0  0  0  0  0  0  0
    3.1761   18.6286  -27.5527 H   0  0  0  0  0  0  0  0  0  0  0  0
    4.4602   16.6120  -26.8513 H   0  0  0  0  0  0  0  0  0  0  0  0
    3.0510   13.2630  -26.4780 H   0  0  0  0  0  0  0  0  0  0  0  0
    0.8357   14.2521  -26.9754 H   0  0  0  0  0  0  0  0  0  0  0  0
   -0.4547   16.2642  -27.6805 H   0  0  0  0  0  0  0  0  0  0  0  0
    1.0394   18.6043  -30.1814 H   0  0  0  0  0  0  0  0  0  0  0  0
   -0.2432   20.6186  -30.8828 H   0  0  0  0  0  0  0  0  0  0  0  0
   -0.3620   23.6819  -28.3561 H   0  0  0  0  0  0  0  0  0  0  0  0
  1  2  1  0
  2  3  2  0
  3  4  1  0
  4  5  2  0
  5  6  1  0
  6  7  2  0
  7  8  1  0
  8  9  2  0
  9 10  1  0
 10 11  2  0
 11 12  1  0
 12 13  2  0
 13 14  1  0
 13 15  1  0
 15 16  2  0
  9 17  1  0
 17 18  2  0
  5 19  1  0
 19 20  2  0
 20 21  1  0
 20  2  1  0
 18  6  1  0
 16 10  1  0
  3 22  1  0
  4 23  1  0
  7 24  1  0
  8 25  1  0
 11 26  1  0
 12 27  1  0
 14 28  1  0
 15 29  1  0
 16 30  1  0
 17 31  1  0
 18 32  1  0
 19 33  1  0
M  CHG  2   1  -1  21  -1
M  END
>  <UniqueID>  (47) 
44

>  <SMILES>  (47) 
[O-]c1ccc(-c2ccc(-c3ccc(O)cc3)cc2)cc1[O-]

>  <Energy>  (47) 
46.68725047484649

>  <Genealogy>  (47) 
[O-]c1ccc(-c2ccc(-c3ccc(O)cc3)cc2)cc1[O-] (protonated)
[O-]c1ccc(-c2ccc(-c3ccc(O)cc3)cc2)cc1[O-] (3D coordinates assigned)
[O-]c1ccc(-c2ccc(-c3ccc(O)cc3)cc2)cc1[O-] (optimized conformer: 46.68725047484649 kcal/mol)

>  <smiles>  (47) 
Oc1ccc(-c2ccc(-c3ccc(O)c(O)c3)cc2)cc1

>  <score_type>  (47) 
oracle

>  <origin>  (47) 
adgpu

>  <m_score__min__energy>  (47) 
-11.630000000000001

>  <m_primary>  (47) 
energy

$$$$
47:0
     RDKit          3D

 45 47  0  0  0  0  0  0  0  0999 V2000
   -3.9210   17.0630  -35.3550 C   0  0  0  0  0  0  0  0  0  0  0  0
   -5.1340   17.7970  -35.4680 O   0  0  0  0  0  0  0  0  0  0  0  0
   -5.8590   18.2400  -34.3560 C   0  0  0  0  0  0  0  0  0  0  0  0
   -5.6460   19.4850  -33.8480 N   0  0  0  0  0  0  0  0  0  0  0  0
   -6.3610   19.9560  -32.7910 C   0  0  0  0  0  0  0  0  0  0  0  0
   -6.1140   21.3290  -32.2840 C   0  0  0  0  0  0  0  0  0  0  0  0
   -7.2180   22.1790  -32.0910 C   0  0  0  0  0  0  0  0  0  0  0  0
   -7.0510   23.4690  -31.5870 C   0  0  0  0  0  0  0  0  0  0  0  0
   -5.7760   23.9380  -31.2540 C   0  0  0  0  0  0  0  0  0  0  0  0
   -5.5960   25.3390  -30.7370 C   0  0  0  0  0  0  0  0  0  0  0  0
   -4.2440   25.5790  -30.4560 O   0  0  0  0  0  0  0  0  0  0  0  0
   -4.6620   23.1160  -31.4710 C   0  0  0  0  0  0  0  0  0  0  0  0
   -4.8110   21.8190  -31.9930 C   0  0  0  0  0  0  0  0  0  0  0  0
   -3.5730   20.9960  -32.2380 C   0  0  0  0  0  0  0  0  0  0  0  0
   -7.3360   19.1780  -32.2480 N   0  0  0  0  0  0  0  0  0  0  0  0
   -7.5850   17.9290  -32.7170 C   0  0  0  0  0  0  0  0  0  0  0  0
   -6.8330   17.4140  -33.7730 C   0  0  0  0  0  0  0  0  0  0  0  0
   -7.1030   16.1190  -34.2360 O   0  0  0  0  0  0  0  0  0  0  0  0
   -6.3610   14.9740  -33.9090 C   0  0  0  0  0  0  0  0  0  0  0  0
   -6.8140   13.7290  -34.3600 C   0  0  0  0  0  0  0  0  0  0  0  0
   -6.1010   12.5660  -34.0570 C   0  0  0  0  0  0  0  0  0  0  0  0
   -4.9370   12.6360  -33.2880 C   0  0  0  0  0  0  0  0  0  0  0  0
   -4.4890   13.8720  -32.7960 C   0  0  0  0  0  0  0  0  0  0  0  0
   -3.2250   13.9550  -31.9940 C   0  0  0  0  0  0  0  0  0  0  0  0
   -5.2010   15.0400  -33.1140 C   0  0  0  0  0  0  0  0  0  0  0  0
   -3.6788   16.9164  -34.2921 H   0  0  0  0  0  0  0  0  0  0  0  0
   -4.0380   16.0840  -35.8428 H   0  0  0  0  0  0  0  0  0  0  0  0
   -3.1081   17.6209  -35.8428 H   0  0  0  0  0  0  0  0  0  0  0  0
   -8.2277   21.8213  -32.3411 H   0  0  0  0  0  0  0  0  0  0  0  0
   -7.9266   24.1208  -31.4507 H   0  0  0  0  0  0  0  0  0  0  0  0
   -5.9421   26.0546  -31.4973 H   0  0  0  0  0  0  0  0  0  0  0  0
   -6.1824   25.4602  -29.8143 H   0  0  0  0  0  0  0  0  0  0  0  0
   -4.1640   25.6250  -29.4670 H   0  0  0  0  0  0  0  0  0  0  0  0
   -3.6565   23.4909  -31.2295 H   0  0  0  0  0  0  0  0  0  0  0  0
   -3.1313   20.7023  -31.2743 H   0  0  0  0  0  0  0  0  0  0  0  0
   -3.8392   20.0944  -32.8093 H   0  0  0  0  0  0  0  0  0  0  0  0
   -2.8447   21.5903  -32.8093 H   0  0  0  0  0  0  0  0  0  0  0  0
   -8.3818   17.3213  -32.2633 H   0  0  0  0  0  0  0  0  0  0  0  0
   -7.7362   13.6656  -34.9562 H   0  0  0  0  0  0  0  0  0  0  0  0
   -6.4574   11.5926  -34.4251 H   0  0  0  0  0  0  0  0  0  0  0  0
   -4.3697   11.7198  -33.0673 H   0  0  0  0  0  0  0  0  0  0  0  0
   -3.4695   13.9389  -30.9216 H   0  0  0  0  0  0  0  0  0  0  0  0
   -2.5802   13.0973  -32.2360 H   0  0  0  0  0  0  0  0  0  0  0  0
   -2.6979   14.8897  -32.2360 H   0  0  0  0  0  0  0  0  0  0  0  0
   -4.8500   16.0129  -32.7394 H   0  0  0  0  0  0  0  0  0  0  0  0
  1  2  1  0
  2  3  1  0
  3  4  2  0
  4  5  1  0
  5  6  1  0
  6  7  2  0
  7  8  1  0
  8  9  2  0
  9 10  1  0
 10 11  1  0
  9 12  1  0
 12 13  2  0
 13 14  1  0
  5 15  2  0
 15 16  1  0
 16 17  2  0
 17 18  1  0
 18 19  1  0
 19 20  2  0
 20 21  1  0
 21 22  2  0
 22 23  1  0
 23 24  1  0
 23 25  2  0
 17  3  1  0
 25 19  1  0
 13  6  1  0
  1 26  1  0
  1 27  1  0
  1 28  1  0
  7 29  1  0
  8 30  1  0
 10 31  1  0
 10 32  1  0
 11 33  1  0
 12 34  1  0
 14 35  1  0
 14 36  1  0
 14 37  1  0
 16 38  1  0
 20 39  1  0
 21 40  1  0
 22 41  1  0
 24 42  1  0
 24 43  1  0
 24 44  1  0
 25 45  1  0
M  END
>  <UniqueID>  (48) 
45

>  <SMILES>  (48) 
COc1nc(-c2ccc(CO)cc2C)ncc1Oc1cccc(C)c1

>  <Energy>  (48) 
56.73165634241003

>  <Genealogy>  (48) 
COc1nc(-c2ccc(CO)cc2C)ncc1Oc1cccc(C)c1 (3D coordinates assigned)
COc1nc(-c2ccc(CO)cc2C)ncc1Oc1cccc(C)c1 (optimized conformer: 56.73165634241003 kcal/mol)

>  <smiles>  (48) 
COc1nc(-c2ccc(CO)cc2C)ncc1Oc1cccc(C)c1

>  <score_type>  (48) 
oracle

>  <origin>  (48) 
adgpu

>  <m_score__min__energy>  (48) 
-8.5199999999999996

>  <m_primary>  (48) 
energy

$$$$
48:0
     RDKit          3D

 53 56  0  0  0  0  0  0  0  0999 V2000
   -1.9459   22.5778  -26.3078 H   0  0  0  0  0  0  0  0  0  0  0  0
   -1.7870   23.4470  -26.9630 C   0  0  0  0  0  0  0  0  0  0  0  0
   -0.7730   24.3100  -26.7100 N   0  0  0  0  0  0  0  0  0  0  0  0
   -0.5640   25.3820  -27.5200 C   0  0  0  0  0  0  0  0  0  0  0  0
    0.5090   26.3010  -27.2130 N   0  0  2  0  0  0  0  0  0  0  0  0
    0.5680   26.9800  -28.0100 H   0  0  0  0  0  0  0  0  0  0  0  0
    1.8080   25.7140  -27.1100 C   0  0  0  0  0  0  0  0  0  0  0  0
    2.2400   24.8350  -27.9040 O   0  0  0  0  0  0  0  0  0  0  0  0
    2.6040   26.2990  -26.1520 O   0  0  0  0  0  0  0  0  0  0  0  0
    1.8840   27.3510  -25.5390 C   0  0  0  0  0  0  0  0  0  0  0  0
    1.9958   27.3154  -24.4453 H   0  0  0  0  0  0  0  0  0  0  0  0
    2.2405   28.3441  -25.8498 H   0  0  0  0  0  0  0  0  0  0  0  0
    0.4110   27.0910  -25.9510 C   0  0  2  0  0  0  0  0  0  0  0  0
   -0.1918   27.9845  -26.1708 H   0  0  0  0  0  0  0  0  0  0  0  0
   -0.3790   26.4620  -24.7420 C   0  0  0  0  0  0  0  0  0  0  0  0
   -0.0686   25.4080  -24.7935 H   0  0  0  0  0  0  0  0  0  0  0  0
   -1.9120   26.4510  -24.8840 C   0  0  0  0  0  0  0  0  0  0  0  0
   -2.3727   26.4477  -23.8851 H   0  0  0  0  0  0  0  0  0  0  0  0
   -2.2357   27.3468  -25.4342 H   0  0  0  0  0  0  0  0  0  0  0  0
   -2.2228   25.5506  -25.4342 H   0  0  0  0  0  0  0  0  0  0  0  0
    0.0460   26.9970  -23.3640 C   0  0  0  0  0  0  0  0  0  0  0  0
   -0.4306   26.3970  -22.5748 H   0  0  0  0  0  0  0  0  0  0  0  0
    1.1395   26.9296  -23.2658 H   0  0  0  0  0  0  0  0  0  0  0  0
   -0.2670   28.0470  -23.2658 H   0  0  0  0  0  0  0  0  0  0  0  0
   -1.4020   25.5930  -28.5720 N   0  0  0  0  0  0  0  0  0  0  0  0
   -2.4220   24.7360  -28.8280 C   0  0  0  0  0  0  0  0  0  0  0  0
   -3.1790   24.9450  -29.8650 N   0  0  0  0  0  0  0  0  0  0  0  0
   -4.3260   24.1740  -30.2660 C   0  0  0  0  0  0  0  0  0  0  0  0
   -5.6310   24.5690  -29.9280 C   0  0  0  0  0  0  0  0  0  0  0  0
   -5.7877   25.4725  -29.3205 H   0  0  0  0  0  0  0  0  0  0  0  0
   -6.7300   23.8240  -30.3570 C   0  0  0  0  0  0  0  0  0  0  0  0
   -7.7451   24.1368  -30.0711 H   0  0  0  0  0  0  0  0  0  0  0  0
   -6.5530   22.6790  -31.1500 C   0  0  0  0  0  0  0  0  0  0  0  0
   -7.7260   21.8880  -31.6050 C   0  0  0  0  0  0  0  0  0  0  0  0
   -9.0120   22.3450  -31.8620 C   0  0  0  0  0  0  0  0  0  0  0  0
   -9.3506   23.3857  -31.7508 H   0  0  0  0  0  0  0  0  0  0  0  0
   -9.7810   21.3150  -32.2690 N   0  0  0  0  0  0  0  0  0  0  0  0
   -9.0270   20.2290  -32.2660 N   0  0  0  0  0  0  0  0  0  0  0  0
   -9.4870   18.9210  -32.7140 C   0  0  0  0  0  0  0  0  0  0  0  0
   -9.7085   18.2911  -31.8399 H   0  0  0  0  0  0  0  0  0  0  0  0
  -10.3971   19.0402  -33.3202 H   0  0  0  0  0  0  0  0  0  0  0  0
   -8.7026   18.4443  -33.3202 H   0  0  0  0  0  0  0  0  0  0  0  0
   -7.7750   20.5330  -31.8820 C   0  0  0  0  0  0  0  0  0  0  0  0
   -6.9352   19.8271  -31.8019 H   0  0  0  0  0  0  0  0  0  0  0  0
   -5.2480   22.3020  -31.5140 C   0  0  0  0  0  0  0  0  0  0  0  0
   -5.0951   21.4125  -32.1428 H   0  0  0  0  0  0  0  0  0  0  0  0
   -4.1330   23.0500  -31.0830 C   0  0  0  0  0  0  0  0  0  0  0  0
   -2.8200   22.7010  -31.4390 O   0  0  0  0  0  0  0  0  0  0  0  0
   -1.9890   21.8120  -30.6990 C   0  0  0  0  0  0  0  0  0  0  0  0
   -2.1430   21.9768  -29.6224 H   0  0  0  0  0  0  0  0  0  0  0  0
   -2.2472   20.7730  -30.9515 H   0  0  0  0  0  0  0  0  0  0  0  0
   -0.9350   21.9996  -30.9515 H   0  0  0  0  0  0  0  0  0  0  0  0
   -2.6050   23.6550  -28.0230 N   0  0  0  0  0  0  0  0  0  0  0  0
  1  2  1  0
  2  3  2  0
  3  4  1  0
  4  5  1  0
  5  6  1  6
  5  7  1  0
  7  8  2  0
  7  9  1  0
  9 10  1  0
 10 11  1  0
 10 12  1  0
 10 13  1  0
 13 14  1  6
 13 15  1  0
 15 16  1  0
 15 17  1  0
 17 18  1  0
 17 19  1  0
 17 20  1  0
 15 21  1  0
 21 22  1  0
 21 23  1  0
 21 24  1  0
  4 25  2  0
 25 26  1  0
 26 27  2  0
 27 28  1  0
 28 29  2  0
 29 30  1  0
 29 31  1  0
 31 32  1  0
 31 33  2  0
 33 34  1  0
 34 35  1  0
 35 36  1  0
 35 37  2  0
 37 38  1  0
 38 39  1  0
 39 40  1  0
 39 41  1  0
 39 42  1  0
 38 43  1  0
 43 44  1  0
 33 45  1  0
 45 46  1  0
 45 47  2  0
 47 48  1  0
 48 49  1  0
 49 50  1  0
 49 51  1  0
 49 52  1  0
 26 53  1  0
 53  2  1  0
 13  5  1  0
 47 28  1  0
 43 34  2  0
M  CHG  2   5   1  53  -1
M  END
>  <UniqueID>  (49) 
46

>  <SMILES>  (49) 
COc1cc(-c2cnn(C)c2)ccc1/N=c1/nc([N@@H+]2C(=O)OC[C@@H]2C(C)C)nc[n-]1

>  <Energy>  (49) 
118.74844579158805

>  <Genealogy>  (49) 
COc1cc(-c2cnn(C)c2)ccc1N=c1nc([NH+]2C(=O)OCC2C(C)C)nc[n-]1 (protonated)
COc1cc(-c2cnn(C)c2)ccc1N=c1nc([N@@H+]2C(=O)OC[C@@H]2C(C)C)nc[n-]1 (chirality)
COc1cc(-c2cnn(C)c2)ccc1/N=c1/nc([N@@H+]2C(=O)OC[C@@H]2C(C)C)nc[n-]1 (cis-trans isomerization)
COc1cc(-c2cnn(C)c2)ccc1/N=c1/nc([N@@H+]2C(=O)OC[C@@H]2C(C)C)nc[n-]1 (3D coordinates assigned)
COc1cc(-c2cnn(C)c2)ccc1/N=c1/nc([N@@H+]2C(=O)OC[C@@H]2C(C)C)nc[n-]1 (nonaromatic ring conformer: 118.74844579158805 kcal/mol)

>  <smiles>  (49) 
COc1cc(-c2cnn(C)c2)ccc1N=c1nc(N2C(=O)OCC2C(C)C)nc[nH]1

>  <score_type>  (49) 
oracle

>  <origin>  (49) 
adgpu

>  <m_score__min__energy>  (49) 
-9.2200000000000006

>  <m_primary>  (49) 
energy

$$$$
