0:0
     RDKit          3D

 39 41  0  0  0  0  0  0  0  0999 V2000
   -4.5540   18.4150  -34.1630 C   0  0  0  0  0  0  0  0  0  0  0  0
   -5.0650   19.0210  -32.9800 O   0  0  0  0  0  0  0  0  0  0  0  0
   -6.4220   19.0820  -32.6310 C   0  0  0  0  0  0  0  0  0  0  0  0
   -7.1710   17.9150  -32.3760 C   0  0  0  0  0  0  0  0  0  0  0  0
   -8.5060   18.0030  -31.9780 C   0  0  0  0  0  0  0  0  0  0  0  0
   -9.1090   19.2510  -31.8230 C   0  0  0  0  0  0  0  0  0  0  0  0
   -8.3830   20.4150  -32.0790 C   0  0  0  0  0  0  0  0  0  0  0  0
   -7.0470   20.3430  -32.5040 C   0  0  0  0  0  0  0  0  0  0  0  0
   -6.3380   21.5670  -32.7620 N   0  0  0  0  0  0  0  0  0  0  0  0
   -6.4340   22.9460  -31.7140 S   0  0  0  0  0  0  0  0  0  0  0  0
   -7.5710   22.7560  -30.7510 O   0  0  0  0  0  0  0  0  0  0  0  0
   -6.6970   24.1750  -32.5400 O   0  0  0  0  0  0  0  0  0  0  0  0
   -4.9340   23.1310  -30.8110 C   0  0  0  0  0  0  0  0  0  0  0  0
   -4.8670   24.0190  -29.7290 C   0  0  0  0  0  0  0  0  0  0  0  0
   -3.6670   24.1900  -29.0330 C   0  0  0  0  0  0  0  0  0  0  0  0
   -2.5170   23.4810  -29.4150 C   0  0  0  0  0  0  0  0  0  0  0  0
   -1.2890   23.6570  -28.6840 N   0  0  0  0  0  0  0  0  0  0  0  0
   -0.7220   22.5820  -28.1260 N   0  0  0  0  0  0  0  0  0  0  0  0
    0.4350   22.6660  -27.4250 C   0  0  0  0  0  0  0  0  0  0  0  0
    1.0420   23.9090  -27.2820 C   0  0  0  0  0  0  0  0  0  0  0  0
    2.1190   24.0250  -26.6430 O   0  0  0  0  0  0  0  0  0  0  0  0
    0.4580   24.9990  -27.8360 N   0  0  0  0  0  0  0  0  0  0  0  0
   -0.7040   24.8880  -28.5300 C   0  0  0  0  0  0  0  0  0  0  0  0
   -1.2380   25.9270  -29.0050 O   0  0  0  0  0  0  0  0  0  0  0  0
   -2.5960   22.5720  -30.4850 C   0  0  0  0  0  0  0  0  0  0  0  0
   -3.7970   22.4000  -31.1790 C   0  0  0  0  0  0  0  0  0  0  0  0
   -3.8670   17.6003  -33.8903 H   0  0  0  0  0  0  0  0  0  0  0  0
   -5.3867   18.0093  -34.7563 H   0  0  0  0  0  0  0  0  0  0  0  0
   -4.0135   19.1673  -34.7563 H   0  0  0  0  0  0  0  0  0  0  0  0
   -6.6998   16.9278  -32.4916 H   0  0  0  0  0  0  0  0  0  0  0  0
   -9.0834   17.0866  -31.7863 H   0  0  0  0  0  0  0  0  0  0  0  0
  -10.1580   19.3179  -31.4986 H   0  0  0  0  0  0  0  0  0  0  0  0
   -8.8614   21.3967  -31.9467 H   0  0  0  0  0  0  0  0  0  0  0  0
   -5.5360   21.5450  -33.4320 H   0  0  0  0  0  0  0  0  0  0  0  0
   -5.7615   24.5832  -29.4265 H   0  0  0  0  0  0  0  0  0  0  0  0
   -3.6234   24.8842  -28.1809 H   0  0  0  0  0  0  0  0  0  0  0  0
    0.8855   21.7677  -26.9775 H   0  0  0  0  0  0  0  0  0  0  0  0
   -1.7076   21.9930  -30.7775 H   0  0  0  0  0  0  0  0  0  0  0  0
   -3.8496   21.6887  -32.0164 H   0  0  0  0  0  0  0  0  0  0  0  0
  1  2  1  0
  2  3  1  0
  3  4  2  0
  4  5  1  0
  5  6  2  0
  6  7  1  0
  7  8  2  0
  8  9  1  0
  9 10  1  0
 10 11  2  0
 10 12  2  0
 10 13  1  0
 13 14  2  0
 14 15  1  0
 15 16  2  0
 16 17  1  0
 17 18  1  0
 18 19  2  0
 19 20  1  0
 20 21  2  0
 20 22  1  0
 22 23  1  0
 23 24  2  0
 16 25  1  0
 25 26  2  0
  8  3  1  0
 26 13  1  0
 23 17  1  0
  1 27  1  0
  1 28  1  0
  1 29  1  0
  4 30  1  0
  5 31  1  0
  6 32  1  0
  7 33  1  0
  9 34  1  0
 14 35  1  0
 15 36  1  0
 19 37  1  0
 25 38  1  0
 26 39  1  0
M  CHG  1  22  -1
M  END
>  <UniqueID>  (1) 
1

>  <SMILES>  (1) 
COc1ccccc1NS(=O)(=O)c1ccc(-n2ncc(=O)[n-]c2=O)cc1

>  <Energy>  (1) 
54.95068584349007

>  <Genealogy>  (1) 
COc1ccccc1NS(=O)(=O)c1ccc(-n2ncc(=O)[n-]c2=O)cc1 (protonated)
COc1ccccc1NS(=O)(=O)c1ccc(-n2ncc(=O)[n-]c2=O)cc1 (3D coordinates assigned)
COc1ccccc1NS(=O)(=O)c1ccc(-n2ncc(=O)[n-]c2=O)cc1 (optimized conformer: 54.95068584349007 kcal/mol)

>  <smiles>  (1) 
COc1ccccc1NS(=O)(=O)c1ccc(-n2ncc(=O)[nH]c2=O)cc1

>  <score_type>  (1) 
oracle

>  <origin>  (1) 
adgpu

>  <m_score__min__energy>  (1) 
-9.4299999999999997

>  <m_primary>  (1) 
energy

$$$$
1:0
     RDKit          3D

 49 51  0  0  0  0  0  0  0  0999 V2000
   -1.2440   26.8440  -26.4440 C   0  0  0  0  0  0  0  0  0  0  0  0
   -0.6890   26.7580  -27.8580 C   0  0  0  0  0  0  0  0  0  0  0  0
   -1.5910   26.0390  -28.7020 O   0  0  0  0  0  0  0  0  0  0  0  0
   -2.0140   24.7120  -28.4980 C   0  0  0  0  0  0  0  0  0  0  0  0
   -1.5630   23.9190  -27.4160 C   0  0  0  0  0  0  0  0  0  0  0  0
   -1.9960   22.5970  -27.2690 C   0  0  0  0  0  0  0  0  0  0  0  0
   -2.8970   22.0480  -28.1830 C   0  0  0  0  0  0  0  0  0  0  0  0
   -3.3780   22.8240  -29.2390 C   0  0  0  0  0  0  0  0  0  0  0  0
   -2.9360   24.1430  -29.4080 C   0  0  0  0  0  0  0  0  0  0  0  0
   -3.4870   24.9320  -30.4660 N   0  0  0  0  0  0  0  0  0  0  0  0
   -4.9040   25.0280  -30.6230 C   0  0  0  0  0  0  0  0  0  0  0  0
   -5.4580   26.1530  -30.4830 O   0  0  0  0  0  0  0  0  0  0  0  0
   -5.7310   23.8100  -30.8400 C   0  0  0  0  0  0  0  0  0  0  0  0
   -7.0490   23.7400  -30.3610 C   0  0  0  0  0  0  0  0  0  0  0  0
   -7.8760   22.6720  -30.7230 C   0  0  0  0  0  0  0  0  0  0  0  0
   -7.3920   21.6560  -31.5520 C   0  0  0  0  0  0  0  0  0  0  0  0
   -8.2500   20.6870  -31.9670 F   0  0  0  0  0  0  0  0  0  0  0  0
   -6.0550   21.6730  -31.9850 C   0  0  0  0  0  0  0  0  0  0  0  0
   -5.4300   20.4250  -33.0740 S   0  0  0  0  0  0  0  0  0  0  0  0
   -6.4670   20.2080  -34.1370 O   0  0  0  0  0  0  0  0  0  0  0  0
   -4.1760   20.9360  -33.7410 O   0  0  0  0  0  0  0  0  0  0  0  0
   -5.0920   18.9340  -32.1910 N   0  0  0  0  0  0  0  0  0  0  0  0
   -6.2860   18.4190  -31.4810 C   0  0  0  0  0  0  0  0  0  0  0  0
   -7.3380   17.8600  -32.4690 C   0  0  0  0  0  0  0  0  0  0  0  0
   -6.8270   17.6910  -33.7800 O   0  0  0  0  0  0  0  0  0  0  0  0
   -5.5890   17.0130  -33.7330 C   0  0  0  0  0  0  0  0  0  0  0  0
   -4.5120   17.8830  -33.0550 C   0  0  0  0  0  0  0  0  0  0  0  0
   -5.2350   22.7570  -31.6310 C   0  0  0  0  0  0  0  0  0  0  0  0
   -0.4253   26.7171  -25.7204 H   0  0  0  0  0  0  0  0  0  0  0  0
   -1.7165   27.8261  -26.2946 H   0  0  0  0  0  0  0  0  0  0  0  0
   -1.9915   26.0510  -26.2946 H   0  0  0  0  0  0  0  0  0  0  0  0
   -0.5513   27.7741  -28.2562 H   0  0  0  0  0  0  0  0  0  0  0  0
    0.2754   26.2295  -27.8324 H   0  0  0  0  0  0  0  0  0  0  0  0
   -0.8641   24.3471  -26.6823 H   0  0  0  0  0  0  0  0  0  0  0  0
   -1.6255   21.9884  -26.4309 H   0  0  0  0  0  0  0  0  0  0  0  0
   -3.2277   21.0048  -28.0712 H   0  0  0  0  0  0  0  0  0  0  0  0
   -4.1082   22.3976  -29.9425 H   0  0  0  0  0  0  0  0  0  0  0  0
   -7.4329   24.5291  -29.6977 H   0  0  0  0  0  0  0  0  0  0  0  0
   -8.9114   22.6313  -30.3539 H   0  0  0  0  0  0  0  0  0  0  0  0
   -4.3710   19.1590  -31.4640 H   0  0  0  0  0  0  0  0  0  0  0  0
   -5.9758   17.6153  -30.7970 H   0  0  0  0  0  0  0  0  0  0  0  0
   -6.7428   19.2518  -30.9262 H   0  0  0  0  0  0  0  0  0  0  0  0
   -7.6840   16.8838  -32.0984 H   0  0  0  0  0  0  0  0  0  0  0  0
   -8.1588   18.5901  -32.5258 H   0  0  0  0  0  0  0  0  0  0  0  0
   -5.7104   16.0803  -33.1627 H   0  0  0  0  0  0  0  0  0  0  0  0
   -5.2682   16.7944  -34.7622 H   0  0  0  0  0  0  0  0  0  0  0  0
   -3.8712   17.2346  -32.4394 H   0  0  0  0  0  0  0  0  0  0  0  0
   -3.9385   18.3831  -33.8493 H   0  0  0  0  0  0  0  0  0  0  0  0
   -4.1911   22.7832  -31.9767 H   0  0  0  0  0  0  0  0  0  0  0  0
  1  2  1  0
  2  3  1  0
  3  4  1  0
  4  5  2  0
  5  6  1  0
  6  7  2  0
  7  8  1  0
  8  9  2  0
  9 10  1  0
 10 11  1  0
 11 12  2  0
 11 13  1  0
 13 14  2  0
 14 15  1  0
 15 16  2  0
 16 17  1  0
 16 18  1  0
 18 19  1  0
 19 20  2  0
 19 21  2  0
 19 22  1  0
 22 23  1  0
 23 24  1  0
 24 25  1  0
 25 26  1  0
 26 27  1  0
 18 28  2  0
  9  4  1  0
 28 13  1  0
 27 22  1  0
  1 29  1  0
  1 30  1  0
  1 31  1  0
  2 32  1  0
  2 33  1  0
  5 34  1  0
  6 35  1  0
  7 36  1  0
  8 37  1  0
 14 38  1  0
 15 39  1  0
 22 40  1  0
 23 41  1  0
 23 42  1  0
 24 43  1  0
 24 44  1  0
 26 45  1  0
 26 46  1  0
 27 47  1  0
 27 48  1  0
 28 49  1  0
M  CHG  2  10  -1  22   1
M  END
>  <UniqueID>  (2) 
2

>  <SMILES>  (2) 
CCOc1ccccc1[N-]C(=O)c1ccc(F)c(S(=O)(=O)[NH+]2CCOCC2)c1

>  <Energy>  (2) 
78.07510055303729

>  <Genealogy>  (2) 
CCOc1ccccc1[N-]C(=O)c1ccc(F)c(S(=O)(=O)[NH+]2CCOCC2)c1 (protonated)
CCOc1ccccc1[N-]C(=O)c1ccc(F)c(S(=O)(=O)[NH+]2CCOCC2)c1 (3D coordinates assigned)
CCOc1ccccc1[N-]C(=O)c1ccc(F)c(S(=O)(=O)[NH+]2CCOCC2)c1 (nonaromatic ring conformer: 78.07510055303729 kcal/mol)

>  <smiles>  (2) 
CCOc1ccccc1NC(=O)c1ccc(F)c(S(=O)(=O)N2CCOCC2)c1

>  <score_type>  (2) 
oracle

>  <origin>  (2) 
adgpu

>  <m_score__min__energy>  (2) 
-10.76

>  <m_primary>  (2) 
energy

$$$$
2:0
     RDKit          3D

 56 59  0  0  0  0  0  0  0  0999 V2000
   -9.3586   17.9808  -31.2599 H   0  0  0  0  0  0  0  0  0  0  0  0
   -8.5210   18.5770  -31.6510 C   0  0  0  0  0  0  0  0  0  0  0  0
   -7.2960   17.9630  -31.9350 C   0  0  0  0  0  0  0  0  0  0  0  0
   -7.1678   16.8853  -31.7556 H   0  0  0  0  0  0  0  0  0  0  0  0
   -6.2330   18.7170  -32.4470 C   0  0  0  0  0  0  0  0  0  0  0  0
   -5.2710   18.2283  -32.6610 H   0  0  0  0  0  0  0  0  0  0  0  0
   -6.3850   20.0940  -32.6900 C   0  0  0  0  0  0  0  0  0  0  0  0
   -5.2190   20.9180  -33.2140 C   0  0  0  0  0  0  0  0  0  0  0  0
   -5.5706   21.9474  -33.3778 H   0  0  0  0  0  0  0  0  0  0  0  0
   -4.8791   20.4303  -34.1395 H   0  0  0  0  0  0  0  0  0  0  0  0
   -4.0470   20.9660  -32.3030 N   0  0  0  0  0  0  0  0  0  0  0  0
   -4.4110   21.1080  -30.8740 C   0  0  0  0  0  0  0  0  0  0  0  0
   -3.5366   20.8746  -30.2488 H   0  0  0  0  0  0  0  0  0  0  0  0
   -5.2306   20.4141  -30.6357 H   0  0  0  0  0  0  0  0  0  0  0  0
   -4.8580   22.5210  -30.6030 C   0  0  0  0  0  0  0  0  0  0  0  0
   -3.9450   23.5880  -30.6780 C   0  0  0  0  0  0  0  0  0  0  0  0
   -2.8998   23.3978  -30.9632 H   0  0  0  0  0  0  0  0  0  0  0  0
   -4.3650   24.8920  -30.3900 C   0  0  0  0  0  0  0  0  0  0  0  0
   -3.6481   25.7244  -30.4456 H   0  0  0  0  0  0  0  0  0  0  0  0
   -5.6970   25.1390  -30.0310 C   0  0  0  0  0  0  0  0  0  0  0  0
   -6.1020   26.4030  -29.7560 F   0  0  0  0  0  0  0  0  0  0  0  0
   -6.6070   24.0810  -29.9520 C   0  0  0  0  0  0  0  0  0  0  0  0
   -7.6523   24.2750  -29.6696 H   0  0  0  0  0  0  0  0  0  0  0  0
   -6.1890   22.7750  -30.2320 C   0  0  0  0  0  0  0  0  0  0  0  0
   -6.9058   21.9437  -30.1613 H   0  0  0  0  0  0  0  0  0  0  0  0
   -3.0610   19.8930  -32.5480 C   0  0  0  0  0  0  0  0  0  0  0  0
   -2.8542   19.3668  -31.6044 H   0  0  0  0  0  0  0  0  0  0  0  0
   -3.4714   19.1894  -33.2873 H   0  0  0  0  0  0  0  0  0  0  0  0
   -1.7540   20.4900  -33.0940 C   0  0  0  0  0  0  0  0  0  0  0  0
   -1.1565   19.6824  -33.5421 H   0  0  0  0  0  0  0  0  0  0  0  0
   -2.0194   21.2549  -33.8386 H   0  0  0  0  0  0  0  0  0  0  0  0
   -0.9230   21.1690  -32.0020 C   0  0  0  0  0  0  0  0  0  0  0  0
    0.0806   21.3926  -32.3929 H   0  0  0  0  0  0  0  0  0  0  0  0
   -1.4184   22.1024  -31.6964 H   0  0  0  0  0  0  0  0  0  0  0  0
   -0.8070   20.2850  -30.8470 N   0  0  0  0  0  0  0  0  0  0  0  0
   -0.9030   20.4900  -29.5580 C   0  0  0  0  0  0  0  0  0  0  0  0
   -0.8630   19.3330  -28.7710 C   0  0  0  0  0  0  0  0  0  0  0  0
   -0.6318   18.3658  -29.2411 H   0  0  0  0  0  0  0  0  0  0  0  0
   -1.1110   19.3880  -27.4050 C   0  0  0  0  0  0  0  0  0  0  0  0
   -1.0796   18.4664  -26.8053 H   0  0  0  0  0  0  0  0  0  0  0  0
   -1.3910   20.5700  -26.8090 N   0  0  0  0  0  0  0  0  0  0  0  0
   -1.5890   20.5670  -25.7820 H   0  0  0  0  0  0  0  0  0  0  0  0
   -1.3880   21.7430  -27.5050 C   0  0  0  0  0  0  0  0  0  0  0  0
   -1.6440   22.9430  -26.8190 C   0  0  0  0  0  0  0  0  0  0  0  0
   -1.8877   22.9162  -25.7467 H   0  0  0  0  0  0  0  0  0  0  0  0
   -1.5920   24.1650  -27.4840 C   0  0  0  0  0  0  0  0  0  0  0  0
   -1.9060   25.6580  -26.6120 Cl  0  0  0  0  0  0  0  0  0  0  0  0
   -1.2650   24.2020  -28.8360 C   0  0  0  0  0  0  0  0  0  0  0  0
   -1.2019   25.1696  -29.3554 H   0  0  0  0  0  0  0  0  0  0  0  0
   -1.0160   23.0200  -29.5400 C   0  0  0  0  0  0  0  0  0  0  0  0
   -0.7408   23.0724  -30.6037 H   0  0  0  0  0  0  0  0  0  0  0  0
   -1.1120   21.7550  -28.9070 C   0  0  0  0  0  0  0  0  0  0  0  0
   -7.6140   20.7070  -32.3740 C   0  0  0  0  0  0  0  0  0  0  0  0
   -7.7398   21.7889  -32.5277 H   0  0  0  0  0  0  0  0  0  0  0  0
   -8.6780   19.9480  -31.8650 C   0  0  0  0  0  0  0  0  0  0  0  0
   -9.6377   20.4335  -31.6340 H   0  0  0  0  0  0  0  0  0  0  0  0
  1  2  1  0
  2  3  2  0
  3  4  1  0
  3  5  1  0
  5  6  1  0
  5  7  2  0
  7  8  1  0
  8  9  1  0
  8 10  1  0
  8 11  1  0
 11 12  1  0
 12 13  1  0
 12 14  1  0
 12 15  1  0
 15 16  2  0
 16 17  1  0
 16 18  1  0
 18 19  1  0
 18 20  2  0
 20 21  1  0
 20 22  1  0
 22 23  1  0
 22 24  2  0
 24 25  1  0
 11 26  1  0
 26 27  1  0
 26 28  1  0
 26 29  1  0
 29 30  1  0
 29 31  1  0
 29 32  1  0
 32 33  1  0
 32 34  1  0
 32 35  1  0
 35 36  2  0
 36 37  1  0
 37 38  1  0
 37 39  2  0
 39 40  1  0
 39 41  1  0
 41 42  1  0
 41 43  1  0
 43 44  2  0
 44 45  1  0
 44 46  1  0
 46 47  1  0
 46 48  2  0
 48 49  1  0
 48 50  1  0
 50 51  1  0
 50 52  2  0
  7 53  1  0
 53 54  1  0
 53 55  2  0
 55 56  1  0
 55  2  1  0
 24 15  1  0
 52 36  1  0
 52 43  1  0
M  END
>  <UniqueID>  (3) 
3

>  <SMILES>  (3) 
Fc1ccc(CN(CCC/N=c2/cc[nH]c3cc(Cl)ccc23)Cc2ccccc2)cc1

>  <Energy>  (3) 
80.01941983970828

>  <Genealogy>  (3) 
Fc1ccc(CN(CCC/N=c2/cc[nH]c3cc(Cl)ccc23)Cc2ccccc2)cc1 (cis-trans isomerization)
Fc1ccc(CN(CCC/N=c2/cc[nH]c3cc(Cl)ccc23)Cc2ccccc2)cc1 (3D coordinates assigned)
Fc1ccc(CN(CCC/N=c2/cc[nH]c3cc(Cl)ccc23)Cc2ccccc2)cc1 (optimized conformer: 80.01941983970828 kcal/mol)

>  <smiles>  (3) 
Fc1ccc(CN(CCCN=c2cc[nH]c3cc(Cl)ccc23)Cc2ccccc2)cc1

>  <score_type>  (3) 
oracle

>  <origin>  (3) 
adgpu

>  <m_score__min__energy>  (3) 
-9.3200000000000003

>  <m_primary>  (3) 
energy

$$$$
3:0
     RDKit          3D

 54 57  0  0  0  0  0  0  0  0999 V2000
   -9.2730   21.4980  -31.8410 C   0  0  0  0  0  0  0  0  0  0  0  0
   -8.8950   22.8400  -31.9430 C   0  0  0  0  0  0  0  0  0  0  0  0
   -7.5490   23.1770  -32.1160 C   0  0  0  0  0  0  0  0  0  0  0  0
   -6.5720   22.1710  -32.1920 C   0  0  0  0  0  0  0  0  0  0  0  0
   -5.1300   22.5400  -32.4300 C   0  0  0  0  0  0  0  0  0  0  0  0
   -4.2470   21.9390  -31.4030 N   0  0  0  0  0  0  0  0  0  0  0  0
   -3.2820   21.0060  -32.0280 C   0  0  0  0  0  0  0  0  0  0  0  0
   -3.6650   20.7520  -33.4910 C   0  0  0  0  0  0  0  0  0  0  0  0
   -4.0160   19.3050  -33.7060 C   0  0  0  0  0  0  0  0  0  0  0  0
   -5.3170   18.9390  -34.0840 C   0  0  0  0  0  0  0  0  0  0  0  0
   -5.6340   17.5970  -34.3150 C   0  0  0  0  0  0  0  0  0  0  0  0
   -4.6580   16.6040  -34.1700 C   0  0  0  0  0  0  0  0  0  0  0  0
   -5.0130   15.2710  -34.4250 O   0  0  0  0  0  0  0  0  0  0  0  0
   -5.1200   14.2590  -33.4580 C   0  0  0  0  0  0  0  0  0  0  0  0
   -4.5480   14.4720  -32.1960 C   0  0  0  0  0  0  0  0  0  0  0  0
   -4.6210   13.4810  -31.2110 C   0  0  0  0  0  0  0  0  0  0  0  0
   -5.2560   12.2670  -31.4860 C   0  0  0  0  0  0  0  0  0  0  0  0
   -5.8100   12.0370  -32.7480 C   0  0  0  0  0  0  0  0  0  0  0  0
   -5.7380   13.0260  -33.7350 C   0  0  0  0  0  0  0  0  0  0  0  0
   -3.3460   16.9720  -33.8260 C   0  0  0  0  0  0  0  0  0  0  0  0
   -3.0280   18.3140  -33.5950 C   0  0  0  0  0  0  0  0  0  0  0  0
   -3.5470   22.9770  -30.6060 C   0  0  0  0  0  0  0  0  0  0  0  0
   -4.4770   24.1120  -30.3120 C   0  0  0  0  0  0  0  0  0  0  0  0
   -5.5380   24.0770  -29.4300 C   0  0  0  0  0  0  0  0  0  0  0  0
   -6.1170   25.3260  -29.4990 C   0  0  0  0  0  0  0  0  0  0  0  0
   -5.3690   26.0450  -30.4110 C   0  0  0  0  0  0  0  0  0  0  0  0
   -4.3970   25.2940  -30.8760 O   0  0  0  0  0  0  0  0  0  0  0  0
   -6.9590   20.8240  -32.0840 C   0  0  0  0  0  0  0  0  0  0  0  0
   -8.3060   20.4910  -31.9100 C   0  0  0  0  0  0  0  0  0  0  0  0
  -10.3324   21.2342  -31.7063 H   0  0  0  0  0  0  0  0  0  0  0  0
   -9.6569   23.6314  -31.8871 H   0  0  0  0  0  0  0  0  0  0  0  0
   -7.2543   24.2340  -32.1929 H   0  0  0  0  0  0  0  0  0  0  0  0
   -4.8256   22.1762  -33.4225 H   0  0  0  0  0  0  0  0  0  0  0  0
   -5.0363   23.6345  -32.3728 H   0  0  0  0  0  0  0  0  0  0  0  0
   -2.2738   21.4441  -31.9868 H   0  0  0  0  0  0  0  0  0  0  0  0
   -3.2986   20.0518  -31.4811 H   0  0  0  0  0  0  0  0  0  0  0  0
   -4.5327   21.3763  -33.7506 H   0  0  0  0  0  0  0  0  0  0  0  0
   -2.8066   21.0061  -34.1302 H   0  0  0  0  0  0  0  0  0  0  0  0
   -6.0913   19.7118  -34.1991 H   0  0  0  0  0  0  0  0  0  0  0  0
   -6.6561   17.3199  -34.6124 H   0  0  0  0  0  0  0  0  0  0  0  0
   -4.0393   15.4229  -31.9791 H   0  0  0  0  0  0  0  0  0  0  0  0
   -4.1783   13.6576  -30.2196 H   0  0  0  0  0  0  0  0  0  0  0  0
   -5.3198   11.4917  -30.7083 H   0  0  0  0  0  0  0  0  0  0  0  0
   -6.3029   11.0780  -32.9656 H   0  0  0  0  0  0  0  0  0  0  0  0
   -6.1660   12.8388  -34.7309 H   0  0  0  0  0  0  0  0  0  0  0  0
   -2.5661   16.2013  -33.7381 H   0  0  0  0  0  0  0  0  0  0  0  0
   -1.9991   18.5943  -33.3251 H   0  0  0  0  0  0  0  0  0  0  0  0
   -3.1995   22.5366  -29.6598 H   0  0  0  0  0  0  0  0  0  0  0  0
   -2.6880   23.3542  -31.1803 H   0  0  0  0  0  0  0  0  0  0  0  0
   -5.8550   23.2302  -28.8035 H   0  0  0  0  0  0  0  0  0  0  0  0
   -6.9967   25.6788  -28.9408 H   0  0  0  0  0  0  0  0  0  0  0  0
   -5.5587   27.0883  -30.7034 H   0  0  0  0  0  0  0  0  0  0  0  0
   -6.2001   20.0295  -32.1365 H   0  0  0  0  0  0  0  0  0  0  0  0
   -8.6049   19.4356  -31.8274 H   0  0  0  0  0  0  0  0  0  0  0  0
  1  2  2  0
  2  3  1  0
  3  4  2  0
  4  5  1  0
  5  6  1  0
  6  7  1  0
  7  8  1  0
  8  9  1  0
  9 10  2  0
 10 11  1  0
 11 12  2  0
 12 13  1  0
 13 14  1  0
 14 15  2  0
 15 16  1  0
 16 17  2  0
 17 18  1  0
 18 19  2  0
 12 20  1  0
 20 21  2  0
  6 22  1  0
 22 23  1  0
 23 24  2  0
 24 25  1  0
 25 26  2  0
 26 27  1  0
  4 28  1  0
 28 29  2  0
 29  1  1  0
 21  9  1  0
 27 23  1  0
 19 14  1  0
  1 30  1  0
  2 31  1  0
  3 32  1  0
  5 33  1  0
  5 34  1  0
  7 35  1  0
  7 36  1  0
  8 37  1  0
  8 38  1  0
 10 39  1  0
 11 40  1  0
 15 41  1  0
 16 42  1  0
 17 43  1  0
 18 44  1  0
 19 45  1  0
 20 46  1  0
 21 47  1  0
 22 48  1  0
 22 49  1  0
 24 50  1  0
 25 51  1  0
 26 52  1  0
 28 53  1  0
 29 54  1  0
M  END
>  <UniqueID>  (4) 
4

>  <SMILES>  (4) 
c1ccc(CN(CCc2ccc(Oc3ccccc3)cc2)Cc2ccco2)cc1

>  <Energy>  (4) 
88.6702576801051

>  <Genealogy>  (4) 
c1ccc(CN(CCc2ccc(Oc3ccccc3)cc2)Cc2ccco2)cc1 (3D coordinates assigned)
c1ccc(CN(CCc2ccc(Oc3ccccc3)cc2)Cc2ccco2)cc1 (optimized conformer: 88.6702576801051 kcal/mol)

>  <smiles>  (4) 
c1ccc(CN(CCc2ccc(Oc3ccccc3)cc2)Cc2ccco2)cc1

>  <score_type>  (4) 
oracle

>  <origin>  (4) 
adgpu

>  <m_score__min__energy>  (4) 
-9.5999999999999996

>  <m_primary>  (4) 
energy

$$$$
4:0
     RDKit          3D

 40 43  0  0  0  0  0  0  0  0999 V2000
   -3.7362   22.3641  -30.3773 H   0  0  0  0  0  0  0  0  0  0  0  0
   -4.1320   23.3710  -30.5760 C   0  0  0  0  0  0  0  0  0  0  0  0
   -3.4370   24.5180  -30.4650 N   0  0  0  0  0  0  0  0  0  0  0  0
   -4.2320   25.5270  -30.7910 N   0  0  0  0  0  0  0  0  0  0  0  0
   -5.4430   25.0340  -31.1100 C   0  0  0  0  0  0  0  0  0  0  0  0
   -6.3117   25.6308  -31.4248 H   0  0  0  0  0  0  0  0  0  0  0  0
   -5.4210   23.6590  -30.9790 C   0  0  0  0  0  0  0  0  0  0  0  0
   -6.5120   22.6930  -31.2550 C   0  0  0  0  0  0  0  0  0  0  0  0
   -7.7480   22.8440  -30.5980 C   0  0  0  0  0  0  0  0  0  0  0  0
   -7.8942   23.6804  -29.8987 H   0  0  0  0  0  0  0  0  0  0  0  0
   -8.7900   21.9430  -30.8250 C   0  0  0  0  0  0  0  0  0  0  0  0
   -9.7483   22.0674  -30.2995 H   0  0  0  0  0  0  0  0  0  0  0  0
   -8.6170   20.8860  -31.7170 C   0  0  0  0  0  0  0  0  0  0  0  0
   -9.4385   20.1760  -31.8929 H   0  0  0  0  0  0  0  0  0  0  0  0
   -7.4040   20.7270  -32.3870 C   0  0  0  0  0  0  0  0  0  0  0  0
   -7.2776   19.8972  -33.0979 H   0  0  0  0  0  0  0  0  0  0  0  0
   -6.3400   21.6210  -32.1600 C   0  0  0  0  0  0  0  0  0  0  0  0
   -5.1390   21.4970  -32.8760 O   0  0  0  0  0  0  0  0  0  0  0  0
   -4.5300   20.2870  -33.2410 C   0  0  0  0  0  0  0  0  0  0  0  0
   -3.1660   20.0400  -33.0010 C   0  0  0  0  0  0  0  0  0  0  0  0
   -2.5489   20.8043  -32.5059 H   0  0  0  0  0  0  0  0  0  0  0  0
   -2.5930   18.8260  -33.3900 C   0  0  0  0  0  0  0  0  0  0  0  0
   -1.5277   18.6350  -33.1934 H   0  0  0  0  0  0  0  0  0  0  0  0
   -3.3700   17.8520  -34.0290 C   0  0  0  0  0  0  0  0  0  0  0  0
   -2.6460   16.3180  -34.5030 S   0  0  0  0  0  0  0  0  0  0  0  0
   -3.4370   15.6790  -35.6090 O   0  0  0  0  0  0  0  0  0  0  0  0
   -1.2450   16.5690  -34.9820 O   0  0  0  0  0  0  0  0  0  0  0  0
   -2.5950   15.2380  -33.1460 N   0  0  0  0  0  0  0  0  0  0  0  0
   -3.4900   14.3320  -32.8890 C   0  0  0  0  0  0  0  0  0  0  0  0
   -3.4200   13.3130  -31.5580 S   0  0  0  0  0  0  0  0  0  0  0  0
   -4.8590   12.5280  -31.9520 C   0  0  0  0  0  0  0  0  0  0  0  0
   -5.3261   11.7111  -31.3824 H   0  0  0  0  0  0  0  0  0  0  0  0
   -5.3530   13.0940  -33.1240 C   0  0  0  0  0  0  0  0  0  0  0  0
   -6.2880   12.7578  -33.5960 H   0  0  0  0  0  0  0  0  0  0  0  0
   -4.5910   14.0940  -33.6400 N   0  0  0  0  0  0  0  0  0  0  0  0
   -4.8470   14.5990  -34.5160 H   0  0  0  0  0  0  0  0  0  0  0  0
   -4.7220   18.1080  -34.2920 C   0  0  0  0  0  0  0  0  0  0  0  0
   -5.3336   17.3518  -34.8059 H   0  0  0  0  0  0  0  0  0  0  0  0
   -5.2960   19.3220  -33.9030 C   0  0  0  0  0  0  0  0  0  0  0  0
   -6.3564   19.5194  -34.1189 H   0  0  0  0  0  0  0  0  0  0  0  0
  1  2  1  0
  2  3  2  0
  3  4  1  0
  4  5  1  0
  5  6  1  0
  5  7  2  0
  7  8  1  0
  8  9  2  0
  9 10  1  0
  9 11  1  0
 11 12  1  0
 11 13  2  0
 13 14  1  0
 13 15  1  0
 15 16  1  0
 15 17  2  0
 17 18  1  0
 18 19  1  0
 19 20  2  0
 20 21  1  0
 20 22  1  0
 22 23  1  0
 22 24  2  0
 24 25  1  0
 25 26  2  0
 25 27  2  0
 25 28  1  0
 28 29  2  0
 29 30  1  0
 30 31  1  0
 31 32  1  0
 31 33  2  0
 33 34  1  0
 33 35  1  0
 35 36  1  0
 24 37  1  0
 37 38  1  0
 37 39  2  0
 39 40  1  0
  7  2  1  0
 17  8  1  0
 39 19  1  0
 35 29  1  0
M  CHG  1   4  -1
M  END
>  <UniqueID>  (5) 
5

>  <SMILES>  (5) 
O=S(=O)(/N=c1\[nH]ccs1)c1ccc(Oc2ccccc2-c2cn[n-]c2)cc1

>  <Energy>  (5) 
117.71655720432628

>  <Genealogy>  (5) 
O=S(=O)(N=c1[nH]ccs1)c1ccc(Oc2ccccc2-c2cn[n-]c2)cc1 (protonated)
O=S(=O)(/N=c1\[nH]ccs1)c1ccc(Oc2ccccc2-c2cn[n-]c2)cc1 (cis-trans isomerization)
O=S(=O)(/N=c1\[nH]ccs1)c1ccc(Oc2ccccc2-c2cn[n-]c2)cc1 (3D coordinates assigned)
O=S(=O)(/N=c1\[nH]ccs1)c1ccc(Oc2ccccc2-c2cn[n-]c2)cc1 (optimized conformer: 117.71655720432628 kcal/mol)

>  <smiles>  (5) 
O=S(=O)(N=c1[nH]ccs1)c1ccc(Oc2ccccc2-c2cn[nH]c2)cc1

>  <score_type>  (5) 
oracle

>  <origin>  (5) 
adgpu

>  <m_score__min__energy>  (5) 
-10.52

>  <m_primary>  (5) 
energy

$$$$
5:0
     RDKit          3D

 48 50  0  0  0  0  0  0  0  0999 V2000
   -9.4610   21.8900  -31.3380 C   0  0  0  0  0  0  0  0  0  0  0  0
   -8.0690   21.7580  -31.7740 N   0  0  0  0  0  0  0  0  0  0  0  0
   -7.5780   20.4940  -32.2660 C   0  0  0  0  0  0  0  0  0  0  0  0
   -6.7510   20.4380  -33.4050 C   0  0  0  0  0  0  0  0  0  0  0  0
   -6.2680   19.2130  -33.8730 C   0  0  0  0  0  0  0  0  0  0  0  0
   -6.5990   18.0300  -33.2100 C   0  0  0  0  0  0  0  0  0  0  0  0
   -7.4130   18.0700  -32.0760 C   0  0  0  0  0  0  0  0  0  0  0  0
   -7.9000   19.2920  -31.6050 C   0  0  0  0  0  0  0  0  0  0  0  0
   -7.0280   23.1550  -31.7160 S   0  0  0  0  0  0  0  0  0  0  0  0
   -7.6130   24.1700  -30.7730 O   0  0  0  0  0  0  0  0  0  0  0  0
   -6.9380   23.7840  -33.0780 O   0  0  0  0  0  0  0  0  0  0  0  0
   -5.4150   22.6820  -31.1860 C   0  0  0  0  0  0  0  0  0  0  0  0
   -5.0380   22.8720  -29.8510 C   0  0  0  0  0  0  0  0  0  0  0  0
   -3.7580   22.5140  -29.4210 C   0  0  0  0  0  0  0  0  0  0  0  0
   -2.8330   21.9520  -30.3200 C   0  0  0  0  0  0  0  0  0  0  0  0
   -1.4710   21.5880  -29.8590 C   0  0  0  0  0  0  0  0  0  0  0  0
   -0.4690   21.9800  -30.5180 O   0  0  0  0  0  0  0  0  0  0  0  0
   -1.2790   20.8330  -28.6510 N   0  0  0  0  0  0  0  0  0  0  0  0
   -0.0770   20.1020  -28.3480 C   0  0  0  0  0  0  0  0  0  0  0  0
   -0.0920   18.7070  -28.1710 C   0  0  0  0  0  0  0  0  0  0  0  0
    1.0840   18.0220  -27.8520 C   0  0  0  0  0  0  0  0  0  0  0  0
    2.2880   18.7210  -27.6980 C   0  0  0  0  0  0  0  0  0  0  0  0
    3.7640   17.8590  -27.2760 S   0  0  0  0  0  0  0  0  0  0  0  0
    4.9480   18.9820  -26.7120 N   0  0  0  0  0  0  0  0  0  0  0  0
    4.2950   17.1330  -28.4800 O   0  0  0  0  0  0  0  0  0  0  0  0
    3.4750   16.8540  -26.1970 O   0  0  0  0  0  0  0  0  0  0  0  0
    2.3030   20.1130  -27.8460 C   0  0  0  0  0  0  0  0  0  0  0  0
    1.1260   20.7990  -28.1640 C   0  0  0  0  0  0  0  0  0  0  0  0
   -3.2150   21.7710  -31.6620 C   0  0  0  0  0  0  0  0  0  0  0  0
   -4.4980   22.1290  -32.0890 C   0  0  0  0  0  0  0  0  0  0  0  0
   -9.5021   21.8939  -30.2388 H   0  0  0  0  0  0  0  0  0  0  0  0
   -9.8784   22.8318  -31.7239 H   0  0  0  0  0  0  0  0  0  0  0  0
  -10.0479   21.0435  -31.7239 H   0  0  0  0  0  0  0  0  0  0  0  0
   -6.4831   21.3665  -33.9305 H   0  0  0  0  0  0  0  0  0  0  0  0
   -5.6258   19.1809  -34.7655 H   0  0  0  0  0  0  0  0  0  0  0  0
   -6.2188   17.0666  -33.5807 H   0  0  0  0  0  0  0  0  0  0  0  0
   -7.6713   17.1377  -31.5525 H   0  0  0  0  0  0  0  0  0  0  0  0
   -8.5401   19.3159  -30.7107 H   0  0  0  0  0  0  0  0  0  0  0  0
   -5.7536   23.3055  -29.1369 H   0  0  0  0  0  0  0  0  0  0  0  0
   -3.4709   22.6728  -28.3711 H   0  0  0  0  0  0  0  0  0  0  0  0
   -2.0070   20.9050  -27.9050 H   0  0  0  0  0  0  0  0  0  0  0  0
   -1.0347   18.1516  -28.2842 H   0  0  0  0  0  0  0  0  0  0  0  0
    1.0638   16.9300  -27.7214 H   0  0  0  0  0  0  0  0  0  0  0  0
    4.7480   19.1550  -25.7020 H   0  0  0  0  0  0  0  0  0  0  0  0
    3.2427   20.6688  -27.7119 H   0  0  0  0  0  0  0  0  0  0  0  0
    1.1442   21.8937  -28.2706 H   0  0  0  0  0  0  0  0  0  0  0  0
   -2.4995   21.3449  -32.3806 H   0  0  0  0  0  0  0  0  0  0  0  0
   -4.7882   21.9755  -33.1389 H   0  0  0  0  0  0  0  0  0  0  0  0
  1  2  1  0
  2  3  1  0
  3  4  2  0
  4  5  1  0
  5  6  2  0
  6  7  1  0
  7  8  2  0
  2  9  1  0
  9 10  2  0
  9 11  2  0
  9 12  1  0
 12 13  2  0
 13 14  1  0
 14 15  2  0
 15 16  1  0
 16 17  2  0
 16 18  1  0
 18 19  1  0
 19 20  2  0
 20 21  1  0
 21 22  2  0
 22 23  1  0
 23 24  1  0
 23 25  2  0
 23 26  2  0
 22 27  1  0
 27 28  2  0
 15 29  1  0
 29 30  2  0
  8  3  1  0
 30 12  1  0
 28 19  1  0
  1 31  1  0
  1 32  1  0
  1 33  1  0
  4 34  1  0
  5 35  1  0
  6 36  1  0
  7 37  1  0
  8 38  1  0
 13 39  1  0
 14 40  1  0
 18 41  1  0
 20 42  1  0
 21 43  1  0
 24 44  1  0
 27 45  1  0
 28 46  1  0
 29 47  1  0
 30 48  1  0
M  CHG  1  24  -1
M  END
>  <UniqueID>  (6) 
6

>  <SMILES>  (6) 
CN(c1ccccc1)S(=O)(=O)c1ccc(C(=O)Nc2ccc(S([NH-])(=O)=O)cc2)cc1

>  <Energy>  (6) 
60.26929544459244

>  <Genealogy>  (6) 
CN(c1ccccc1)S(=O)(=O)c1ccc(C(=O)Nc2ccc(S([NH-])(=O)=O)cc2)cc1 (protonated)
CN(c1ccccc1)S(=O)(=O)c1ccc(C(=O)Nc2ccc(S([NH-])(=O)=O)cc2)cc1 (3D coordinates assigned)
CN(c1ccccc1)S(=O)(=O)c1ccc(C(=O)Nc2ccc(S([NH-])(=O)=O)cc2)cc1 (optimized conformer: 60.26929544459244 kcal/mol)

>  <smiles>  (6) 
CN(c1ccccc1)S(=O)(=O)c1ccc(C(=O)Nc2ccc(S(N)(=O)=O)cc2)cc1

>  <score_type>  (6) 
oracle

>  <origin>  (6) 
adgpu

>  <m_score__min__energy>  (6) 
-9.1199999999999992

>  <m_primary>  (6) 
energy

$$$$
6:0
     RDKit          3D

 36 38  0  0  0  0  0  0  0  0999 V2000
   -0.4610   25.7410  -25.4980 C   0  0  0  0  0  0  0  0  0  0  0  0
   -1.3930   25.2920  -26.5840 C   0  0  0  0  0  0  0  0  0  0  0  0
   -2.7240   24.9690  -26.2860 C   0  0  0  0  0  0  0  0  0  0  0  0
   -3.6030   24.5850  -27.3020 C   0  0  0  0  0  0  0  0  0  0  0  0
   -3.1690   24.5290  -28.6390 C   0  0  0  0  0  0  0  0  0  0  0  0
   -4.0860   24.1240  -29.7310 C   0  0  0  0  0  0  0  0  0  0  0  0
   -4.8580   22.9790  -29.8090 C   0  0  0  0  0  0  0  0  0  0  0  0
   -5.5270   23.0480  -30.9770 N   0  0  0  0  0  0  0  0  0  0  0  0
   -6.4680   22.0990  -31.5210 C   0  0  0  0  0  0  0  0  0  0  0  0
   -7.8500   22.3400  -31.4160 C   0  0  0  0  0  0  0  0  0  0  0  0
   -8.7730   21.4270  -31.9330 C   0  0  0  0  0  0  0  0  0  0  0  0
   -8.3310   20.2660  -32.5670 C   0  0  0  0  0  0  0  0  0  0  0  0
   -6.9600   20.0130  -32.6940 C   0  0  0  0  0  0  0  0  0  0  0  0
   -6.3970   18.5440  -33.4850 S   0  0  0  0  0  0  0  0  0  0  0  0
   -6.1020   18.8700  -35.1570 N   0  0  0  0  0  0  0  0  0  0  0  0
   -5.1270   18.0670  -32.8380 O   0  0  0  0  0  0  0  0  0  0  0  0
   -7.4390   17.4680  -33.3540 O   0  0  0  0  0  0  0  0  0  0  0  0
   -6.0330   20.9230  -32.1680 C   0  0  0  0  0  0  0  0  0  0  0  0
   -5.1820   24.1770  -31.5800 N   0  0  0  0  0  0  0  0  0  0  0  0
   -4.3080   24.8500  -30.8460 N   0  0  0  0  0  0  0  0  0  0  0  0
   -1.8370   24.8720  -28.9350 C   0  0  0  0  0  0  0  0  0  0  0  0
   -0.9590   25.2560  -27.9170 C   0  0  0  0  0  0  0  0  0  0  0  0
   -0.9097   25.5249  -24.5172 H   0  0  0  0  0  0  0  0  0  0  0  0
    0.4949   25.2046  -25.5902 H   0  0  0  0  0  0  0  0  0  0  0  0
   -0.2847   26.8229  -25.5902 H   0  0  0  0  0  0  0  0  0  0  0  0
   -3.0787   25.0181  -25.2459 H   0  0  0  0  0  0  0  0  0  0  0  0
   -4.6426   24.3244  -27.0544 H   0  0  0  0  0  0  0  0  0  0  0  0
   -4.9148   22.1712  -29.0645 H   0  0  0  0  0  0  0  0  0  0  0  0
   -8.2074   23.2557  -30.9223 H   0  0  0  0  0  0  0  0  0  0  0  0
   -9.8511   21.6245  -31.8397 H   0  0  0  0  0  0  0  0  0  0  0  0
   -9.0612   19.5477  -32.9681 H   0  0  0  0  0  0  0  0  0  0  0  0
   -6.7300   19.6590  -35.4300 H   0  0  0  0  0  0  0  0  0  0  0  0
   -6.4210   18.0320  -35.6930 H   0  0  0  0  0  0  0  0  0  0  0  0
   -4.9561   20.7185  -32.2604 H   0  0  0  0  0  0  0  0  0  0  0  0
   -1.4834   24.8378  -29.9761 H   0  0  0  0  0  0  0  0  0  0  0  0
    0.0772   25.5312  -28.1629 H   0  0  0  0  0  0  0  0  0  0  0  0
  1  2  1  0
  2  3  2  0
  3  4  1  0
  4  5  2  0
  5  6  1  0
  6  7  2  0
  7  8  1  0
  8  9  1  0
  9 10  2  0
 10 11  1  0
 11 12  2  0
 12 13  1  0
 13 14  1  0
 14 15  1  0
 14 16  2  0
 14 17  2  0
 13 18  2  0
  8 19  1  0
 19 20  2  0
  5 21  1  0
 21 22  2  0
 22  2  1  0
 20  6  1  0
 18  9  1  0
  1 23  1  0
  1 24  1  0
  1 25  1  0
  3 26  1  0
  4 27  1  0
  7 28  1  0
 10 29  1  0
 11 30  1  0
 12 31  1  0
 15 32  1  0
 15 33  1  0
 18 34  1  0
 21 35  1  0
 22 36  1  0
M  END
>  <UniqueID>  (7) 
7

>  <SMILES>  (7) 
Cc1ccc(-c2cn(-c3cccc(S(N)(=O)=O)c3)nn2)cc1

>  <Energy>  (7) 
75.04716091114854

>  <Genealogy>  (7) 
Cc1ccc(-c2cn(-c3cccc(S(N)(=O)=O)c3)nn2)cc1 (3D coordinates assigned)
Cc1ccc(-c2cn(-c3cccc(S(N)(=O)=O)c3)nn2)cc1 (optimized conformer: 75.04716091114854 kcal/mol)

>  <smiles>  (7) 
Cc1ccc(-c2cn(-c3cccc(S(N)(=O)=O)c3)nn2)cc1

>  <score_type>  (7) 
oracle

>  <origin>  (7) 
adgpu

>  <m_score__min__energy>  (7) 
-9.3300000000000001

>  <m_primary>  (7) 
energy

$$$$
7:0
     RDKit          3D

 43 46  0  0  0  0  0  0  0  0999 V2000
   -5.7330   26.0720  -30.2070 C   0  0  0  0  0  0  0  0  0  0  0  0
   -5.2320   24.6680  -30.1650 C   0  0  0  0  0  0  0  0  0  0  0  0
   -4.7770   24.0090  -29.0410 C   0  0  0  0  0  0  0  0  0  0  0  0
   -4.3910   22.7590  -29.4730 C   0  0  0  0  0  0  0  0  0  0  0  0
   -4.6410   22.7330  -30.8370 C   0  0  0  0  0  0  0  0  0  0  0  0
   -4.3670   21.6290  -31.7810 C   0  0  0  0  0  0  0  0  0  0  0  0
   -3.0690   21.4120  -32.1060 N   0  0  0  0  0  0  0  0  0  0  0  0
   -2.6610   20.4130  -32.9270 C   0  0  0  0  0  0  0  0  0  0  0  0
   -1.2820   20.2390  -33.1920 C   0  0  0  0  0  0  0  0  0  0  0  0
   -0.2490   21.1550  -32.5780 C   0  0  0  0  0  0  0  0  0  0  0  0
   -0.8670   19.1570  -33.9950 C   0  0  0  0  0  0  0  0  0  0  0  0
    0.8360   18.8420  -34.3190 Cl  0  0  0  0  0  0  0  0  0  0  0  0
   -1.8110   18.2900  -34.5440 C   0  0  0  0  0  0  0  0  0  0  0  0
   -3.1710   18.4790  -34.3060 C   0  0  0  0  0  0  0  0  0  0  0  0
   -3.6210   19.5460  -33.5010 C   0  0  0  0  0  0  0  0  0  0  0  0
   -5.0000   19.7780  -33.2500 C   0  0  0  0  0  0  0  0  0  0  0  0
   -6.0500   18.9300  -33.9460 C   0  0  0  0  0  0  0  0  0  0  0  0
   -5.3760   20.8160  -32.3530 C   0  0  0  0  0  0  0  0  0  0  0  0
   -6.8050   21.0870  -32.0660 C   0  0  0  0  0  0  0  0  0  0  0  0
   -7.6380   20.0610  -31.5890 C   0  0  0  0  0  0  0  0  0  0  0  0
   -8.9820   20.3200  -31.3110 C   0  0  0  0  0  0  0  0  0  0  0  0
   -9.5030   21.6030  -31.5060 C   0  0  0  0  0  0  0  0  0  0  0  0
   -8.6800   22.6270  -31.9820 C   0  0  0  0  0  0  0  0  0  0  0  0
   -7.3350   22.3720  -32.2640 C   0  0  0  0  0  0  0  0  0  0  0  0
   -5.1310   23.8920  -31.2180 O   0  0  0  0  0  0  0  0  0  0  0  0
   -5.8660   26.4447  -29.1806 H   0  0  0  0  0  0  0  0  0  0  0  0
   -5.0054   26.7053  -30.7357 H   0  0  0  0  0  0  0  0  0  0  0  0
   -6.6972   26.1016  -30.7357 H   0  0  0  0  0  0  0  0  0  0  0  0
   -4.7319   24.4003  -28.0140 H   0  0  0  0  0  0  0  0  0  0  0  0
   -3.9704   21.9474  -28.8611 H   0  0  0  0  0  0  0  0  0  0  0  0
   -0.3136   21.0977  -31.4814 H   0  0  0  0  0  0  0  0  0  0  0  0
    0.7552   20.8451  -32.9028 H   0  0  0  0  0  0  0  0  0  0  0  0
   -0.4366   22.1891  -32.9028 H   0  0  0  0  0  0  0  0  0  0  0  0
   -1.4791   17.4491  -35.1707 H   0  0  0  0  0  0  0  0  0  0  0  0
   -3.9020   17.7880  -34.7511 H   0  0  0  0  0  0  0  0  0  0  0  0
   -6.6733   18.4266  -33.1923 H   0  0  0  0  0  0  0  0  0  0  0  0
   -6.6829   19.5733  -34.5749 H   0  0  0  0  0  0  0  0  0  0  0  0
   -5.5543   18.1758  -34.5749 H   0  0  0  0  0  0  0  0  0  0  0  0
   -7.2306   19.0511  -31.4341 H   0  0  0  0  0  0  0  0  0  0  0  0
   -9.6313   19.5140  -30.9383 H   0  0  0  0  0  0  0  0  0  0  0  0
  -10.5612   21.8062  -31.2846 H   0  0  0  0  0  0  0  0  0  0  0  0
   -9.0914   23.6356  -32.1351 H   0  0  0  0  0  0  0  0  0  0  0  0
   -6.6906   23.1795  -32.6417 H   0  0  0  0  0  0  0  0  0  0  0  0
  1  2  1  0
  2  3  2  0
  3  4  1  0
  4  5  2  0
  5  6  1  0
  6  7  2  0
  7  8  1  0
  8  9  2  0
  9 10  1  0
  9 11  1  0
 11 12  1  0
 11 13  2  0
 13 14  1  0
 14 15  2  0
 15 16  1  0
 16 17  1  0
 16 18  2  0
 18 19  1  0
 19 20  2  0
 20 21  1  0
 21 22  2  0
 22 23  1  0
 23 24  2  0
  5 25  1  0
 25  2  1  0
 18  6  1  0
 24 19  1  0
 15  8  1  0
  1 26  1  0
  1 27  1  0
  1 28  1  0
  3 29  1  0
  4 30  1  0
 10 31  1  0
 10 32  1  0
 10 33  1  0
 13 34  1  0
 14 35  1  0
 17 36  1  0
 17 37  1  0
 17 38  1  0
 20 39  1  0
 21 40  1  0
 22 41  1  0
 23 42  1  0
 24 43  1  0
M  END
>  <UniqueID>  (8) 
8

>  <SMILES>  (8) 
Cc1ccc(-c2nc3c(C)c(Cl)ccc3c(C)c2-c2ccccc2)o1

>  <Energy>  (8) 
93.22212544873899

>  <Genealogy>  (8) 
Cc1ccc(-c2nc3c(C)c(Cl)ccc3c(C)c2-c2ccccc2)o1 (3D coordinates assigned)
Cc1ccc(-c2nc3c(C)c(Cl)ccc3c(C)c2-c2ccccc2)o1 (optimized conformer: 93.22212544873899 kcal/mol)

>  <smiles>  (8) 
Cc1ccc(-c2nc3c(C)c(Cl)ccc3c(C)c2-c2ccccc2)o1

>  <score_type>  (8) 
oracle

>  <origin>  (8) 
adgpu

>  <m_score__min__energy>  (8) 
-8.9100000000000001

>  <m_primary>  (8) 
energy

$$$$
8:0
     RDKit          3D

 43 45  0  0  0  0  0  0  0  0999 V2000
   -3.2820   24.7850  -27.8370 O   0  0  0  0  0  0  0  0  0  0  0  0
   -2.5150   24.5710  -29.1090 S   0  0  0  0  0  0  0  0  0  0  0  0
   -1.2500   25.3840  -29.0470 O   0  0  0  0  0  0  0  0  0  0  0  0
   -3.5020   25.0690  -30.4560 N   0  0  0  0  0  0  0  0  0  0  0  0
   -4.9350   24.9460  -30.1700 C   0  0  0  0  0  0  0  0  0  0  0  0
   -5.5120   23.6240  -30.6790 C   0  0  0  0  0  0  0  0  0  0  0  0
   -5.1010   23.4040  -32.0240 O   0  0  0  0  0  0  0  0  0  0  0  0
   -4.7020   22.1580  -32.5170 C   0  0  0  0  0  0  0  0  0  0  0  0
   -3.4080   21.7880  -32.8400 C   0  0  0  0  0  0  0  0  0  0  0  0
   -3.4810   20.4730  -33.2520 C   0  0  0  0  0  0  0  0  0  0  0  0
   -4.8070   20.0990  -33.1700 C   0  0  0  0  0  0  0  0  0  0  0  0
   -5.5560   21.1340  -32.7260 N   0  0  0  0  0  0  0  0  0  0  0  0
   -6.9750   21.1330  -32.4680 C   0  0  0  0  0  0  0  0  0  0  0  0
   -7.7170   19.9390  -32.4620 C   0  0  0  0  0  0  0  0  0  0  0  0
   -9.0880   19.9810  -32.1980 C   0  0  0  0  0  0  0  0  0  0  0  0
   -9.7110   21.2020  -31.9410 C   0  0  0  0  0  0  0  0  0  0  0  0
   -8.9510   22.3730  -31.9710 C   0  0  0  0  0  0  0  0  0  0  0  0
   -7.6180   22.3110  -32.2290 N   0  0  0  0  0  0  0  0  0  0  0  0
   -2.1390   22.8550  -29.2600 C   0  0  0  0  0  0  0  0  0  0  0  0
   -2.5580   21.9400  -28.2860 C   0  0  0  0  0  0  0  0  0  0  0  0
   -2.2280   20.5880  -28.4060 C   0  0  0  0  0  0  0  0  0  0  0  0
   -1.4800   20.1420  -29.4980 C   0  0  0  0  0  0  0  0  0  0  0  0
   -1.0480   21.0470  -30.4820 C   0  0  0  0  0  0  0  0  0  0  0  0
   -0.2890   20.5330  -31.6790 C   0  0  0  0  0  0  0  0  0  0  0  0
   -0.9040   19.3870  -32.1500 F   0  0  0  0  0  0  0  0  0  0  0  0
    1.0110   20.2320  -31.3190 F   0  0  0  0  0  0  0  0  0  0  0  0
   -0.2540   21.4690  -32.6990 F   0  0  0  0  0  0  0  0  0  0  0  0
   -1.3940   22.4050  -30.3600 C   0  0  0  0  0  0  0  0  0  0  0  0
   -5.0857   25.0032  -29.0819 H   0  0  0  0  0  0  0  0  0  0  0  0
   -5.4554   25.7647  -30.6886 H   0  0  0  0  0  0  0  0  0  0  0  0
   -5.1493   22.8000  -30.0470 H   0  0  0  0  0  0  0  0  0  0  0  0
   -6.6104   23.6675  -30.6376 H   0  0  0  0  0  0  0  0  0  0  0  0
   -2.5057   22.4143  -32.7805 H   0  0  0  0  0  0  0  0  0  0  0  0
   -2.6422   19.8429  -33.5827 H   0  0  0  0  0  0  0  0  0  0  0  0
   -5.1979   19.1038  -33.4282 H   0  0  0  0  0  0  0  0  0  0  0  0
   -7.2212   18.9780  -32.6639 H   0  0  0  0  0  0  0  0  0  0  0  0
   -9.6761   19.0514  -32.1928 H   0  0  0  0  0  0  0  0  0  0  0  0
  -10.7873   21.2420  -31.7175 H   0  0  0  0  0  0  0  0  0  0  0  0
   -9.4309   23.3453  -31.7859 H   0  0  0  0  0  0  0  0  0  0  0  0
   -3.1481   22.2867  -27.4248 H   0  0  0  0  0  0  0  0  0  0  0  0
   -2.5581   19.8726  -27.6384 H   0  0  0  0  0  0  0  0  0  0  0  0
   -1.2275   19.0752  -29.5882 H   0  0  0  0  0  0  0  0  0  0  0  0
   -1.0777   23.1200  -31.1337 H   0  0  0  0  0  0  0  0  0  0  0  0
  1  2  2  0
  2  3  2  0
  2  4  1  0
  4  5  1  0
  5  6  1  0
  6  7  1  0
  7  8  1  0
  8  9  2  0
  9 10  1  0
 10 11  2  0
 11 12  1  0
 12 13  1  0
 13 14  2  0
 14 15  1  0
 15 16  2  0
 16 17  1  0
 17 18  2  0
  2 19  1  0
 19 20  2  0
 20 21  1  0
 21 22  2  0
 22 23  1  0
 23 24  1  0
 24 25  1  0
 24 26  1  0
 24 27  1  0
 23 28  2  0
 12  8  1  0
 18 13  1  0
 28 19  1  0
  5 29  1  0
  5 30  1  0
  6 31  1  0
  6 32  1  0
  9 33  1  0
 10 34  1  0
 11 35  1  0
 14 36  1  0
 15 37  1  0
 16 38  1  0
 17 39  1  0
 20 40  1  0
 21 41  1  0
 22 42  1  0
 28 43  1  0
M  CHG  1   4  -1
M  END
>  <UniqueID>  (9) 
9

>  <SMILES>  (9) 
O=S(=O)([N-]CCOc1cccn1-c1ccccn1)c1cccc(C(F)(F)F)c1

>  <Energy>  (9) 
65.55518935678562

>  <Genealogy>  (9) 
O=S(=O)([N-]CCOc1cccn1-c1ccccn1)c1cccc(C(F)(F)F)c1 (protonated)
O=S(=O)([N-]CCOc1cccn1-c1ccccn1)c1cccc(C(F)(F)F)c1 (3D coordinates assigned)
O=S(=O)([N-]CCOc1cccn1-c1ccccn1)c1cccc(C(F)(F)F)c1 (optimized conformer: 65.55518935678562 kcal/mol)

>  <smiles>  (9) 
O=S(=O)(NCCOc1cccn1-c1ccccn1)c1cccc(C(F)(F)F)c1

>  <score_type>  (9) 
oracle

>  <origin>  (9) 
adgpu

>  <m_score__min__energy>  (9) 
-9.4399999999999995

>  <m_primary>  (9) 
energy

$$$$
9:0
     RDKit          3D

 31 32  0  0  0  0  0  0  0  0999 V2000
   -4.5960   18.4470  -34.3550 H   0  0  0  0  0  0  0  0  0  0  0  0
   -5.0900   19.3120  -34.1790 O   0  0  0  0  0  0  0  0  0  0  0  0
   -6.1870   19.3810  -33.3190 C   0  0  0  0  0  0  0  0  0  0  0  0
   -6.8070   20.6180  -33.1140 C   0  0  0  0  0  0  0  0  0  0  0  0
   -6.4157   21.5135  -33.6189 H   0  0  0  0  0  0  0  0  0  0  0  0
   -7.9240   20.7280  -32.2700 C   0  0  0  0  0  0  0  0  0  0  0  0
   -8.5810   22.0290  -32.0200 C   0  0  0  0  0  0  0  0  0  0  0  0
   -9.6190   22.1450  -32.3650 H   0  0  0  0  0  0  0  0  0  0  0  0
   -8.0140   23.0810  -31.4060 C   0  0  0  0  0  0  0  0  0  0  0  0
   -8.6627   23.9369  -31.1679 H   0  0  0  0  0  0  0  0  0  0  0  0
   -6.5880   23.1820  -31.0240 C   0  0  0  0  0  0  0  0  0  0  0  0
   -5.9390   22.0530  -30.4990 C   0  0  0  0  0  0  0  0  0  0  0  0
   -6.4876   21.1053  -30.3942 H   0  0  0  0  0  0  0  0  0  0  0  0
   -4.5990   22.1280  -30.1090 C   0  0  0  0  0  0  0  0  0  0  0  0
   -4.0922   21.2357  -29.7129 H   0  0  0  0  0  0  0  0  0  0  0  0
   -3.9010   23.3340  -30.2210 C   0  0  0  0  0  0  0  0  0  0  0  0
   -2.8442   23.3882  -29.9206 H   0  0  0  0  0  0  0  0  0  0  0  0
   -4.5470   24.4710  -30.7150 C   0  0  0  0  0  0  0  0  0  0  0  0
   -3.8580   25.6730  -30.8130 O   0  0  0  0  0  0  0  0  0  0  0  0
   -5.8880   24.4010  -31.1060 C   0  0  0  0  0  0  0  0  0  0  0  0
   -6.3978   25.3016  -31.4790 H   0  0  0  0  0  0  0  0  0  0  0  0
   -8.3810   19.5910  -31.5920 C   0  0  0  0  0  0  0  0  0  0  0  0
   -9.2296   19.6745  -30.8971 H   0  0  0  0  0  0  0  0  0  0  0  0
   -7.7680   18.3520  -31.7910 C   0  0  0  0  0  0  0  0  0  0  0  0
   -8.1475   17.4636  -31.2649 H   0  0  0  0  0  0  0  0  0  0  0  0
   -6.6670   18.2330  -32.6610 C   0  0  0  0  0  0  0  0  0  0  0  0
   -6.0290   17.0030  -32.8900 O   0  0  0  0  0  0  0  0  0  0  0  0
   -6.4460   16.0470  -33.8600 C   0  0  0  0  0  0  0  0  0  0  0  0
   -6.8357   15.1535  -33.3503 H   0  0  0  0  0  0  0  0  0  0  0  0
   -7.2354   16.4837  -34.4894 H   0  0  0  0  0  0  0  0  0  0  0  0
   -5.5889   15.7655  -34.4894 H   0  0  0  0  0  0  0  0  0  0  0  0
  1  2  1  0
  2  3  1  0
  3  4  2  0
  4  5  1  0
  4  6  1  0
  6  7  1  0
  7  8  1  0
  7  9  2  0
  9 10  1  0
  9 11  1  0
 11 12  2  0
 12 13  1  0
 12 14  1  0
 14 15  1  0
 14 16  2  0
 16 17  1  0
 16 18  1  0
 18 19  1  0
 18 20  2  0
 20 21  1  0
  6 22  2  0
 22 23  1  0
 22 24  1  0
 24 25  1  0
 24 26  2  0
 26 27  1  0
 27 28  1  0
 28 29  1  0
 28 30  1  0
 28 31  1  0
 26  3  1  0
 20 11  1  0
M  CHG  1  19  -1
M  END
>  <UniqueID>  (10) 
10

>  <SMILES>  (10) 
COc1ccc(/C=C\c2cccc([O-])c2)cc1O

>  <Energy>  (10) 
40.659877664703394

>  <Genealogy>  (10) 
COc1ccc(C=Cc2cccc([O-])c2)cc1O (protonated)
COc1ccc(/C=C\c2cccc([O-])c2)cc1O (cis-trans isomerization)
COc1ccc(/C=C\c2cccc([O-])c2)cc1O (3D coordinates assigned)
COc1ccc(/C=C\c2cccc([O-])c2)cc1O (optimized conformer: 40.659877664703394 kcal/mol)

>  <smiles>  (10) 
COc1ccc(C=Cc2cccc(O)c2)cc1O

>  <score_type>  (10) 
oracle

>  <origin>  (10) 
adgpu

>  <m_score__min__energy>  (10) 
-9.7200000000000006

>  <m_primary>  (10) 
energy

$$$$
10:0
     RDKit          3D

 45 47  0  0  0  0  0  0  0  0999 V2000
   -6.5913   17.0988  -30.9615 H   0  0  0  0  0  0  0  0  0  0  0  0
   -6.8040   17.9340  -31.6450 C   0  0  0  0  0  0  0  0  0  0  0  0
   -8.0380   18.5880  -31.5820 C   0  0  0  0  0  0  0  0  0  0  0  0
   -8.7932   18.2615  -30.8519 H   0  0  0  0  0  0  0  0  0  0  0  0
   -8.3190   19.6590  -32.4450 C   0  0  0  0  0  0  0  0  0  0  0  0
   -9.6490   20.3640  -32.3830 C   0  0  0  0  0  0  0  0  0  0  0  0
  -10.0108   20.5429  -33.4063 H   0  0  0  0  0  0  0  0  0  0  0  0
  -10.3596   19.7303  -31.8320 H   0  0  0  0  0  0  0  0  0  0  0  0
   -9.5240   21.6450  -31.6870 N   0  0  0  0  0  0  0  0  0  0  0  0
  -10.4090   22.1610  -31.4770 H   0  0  0  0  0  0  0  0  0  0  0  0
   -8.2700   22.2600  -31.3310 C   0  0  0  0  0  0  0  0  0  0  0  0
   -7.7190   22.1350  -30.0410 C   0  0  0  0  0  0  0  0  0  0  0  0
   -8.2525   21.5573  -29.2718 H   0  0  0  0  0  0  0  0  0  0  0  0
   -6.4980   22.7410  -29.7330 C   0  0  0  0  0  0  0  0  0  0  0  0
   -6.0714   22.6313  -28.7250 H   0  0  0  0  0  0  0  0  0  0  0  0
   -5.8150   23.4870  -30.7010 C   0  0  0  0  0  0  0  0  0  0  0  0
   -4.2820   24.2570  -30.3000 S   0  0  0  0  0  0  0  0  0  0  0  0
   -3.1660   23.4660  -30.9240 O   0  0  0  0  0  0  0  0  0  0  0  0
   -4.2390   25.6630  -30.8310 O   0  0  0  0  0  0  0  0  0  0  0  0
   -4.0570   24.2900  -28.5770 N   0  0  0  0  0  0  0  0  0  0  0  0
   -2.9530   24.5640  -27.9410 C   0  0  0  0  0  0  0  0  0  0  0  0
   -1.7520   24.8740  -28.6130 C   0  0  0  0  0  0  0  0  0  0  0  0
   -1.7196   24.8855  -29.7125 H   0  0  0  0  0  0  0  0  0  0  0  0
   -0.6050   25.1660  -27.8730 C   0  0  0  0  0  0  0  0  0  0  0  0
    0.3355   25.4094  -28.3889 H   0  0  0  0  0  0  0  0  0  0  0  0
   -0.6520   25.1490  -26.4810 C   0  0  0  0  0  0  0  0  0  0  0  0
    0.2475   25.3791  -25.8911 H   0  0  0  0  0  0  0  0  0  0  0  0
   -1.8520   24.8370  -25.8440 C   0  0  0  0  0  0  0  0  0  0  0  0
   -1.9001   24.8195  -24.7452 H   0  0  0  0  0  0  0  0  0  0  0  0
   -2.9640   24.5540  -26.5750 N   0  0  0  0  0  0  0  0  0  0  0  0
   -3.8490   24.3250  -26.0670 H   0  0  0  0  0  0  0  0  0  0  0  0
   -6.3580   23.6170  -31.9840 C   0  0  0  0  0  0  0  0  0  0  0  0
   -5.8230   24.1978  -32.7498 H   0  0  0  0  0  0  0  0  0  0  0  0
   -7.5780   23.0110  -32.2950 C   0  0  0  0  0  0  0  0  0  0  0  0
   -8.0004   23.1232  -33.3044 H   0  0  0  0  0  0  0  0  0  0  0  0
   -7.3550   20.0540  -33.3840 C   0  0  0  0  0  0  0  0  0  0  0  0
   -7.5716   20.8822  -34.0748 H   0  0  0  0  0  0  0  0  0  0  0  0
   -6.1200   19.4010  -33.4470 C   0  0  0  0  0  0  0  0  0  0  0  0
   -5.3691   19.7234  -34.1833 H   0  0  0  0  0  0  0  0  0  0  0  0
   -5.8320   18.3400  -32.5800 C   0  0  0  0  0  0  0  0  0  0  0  0
   -4.5780   17.7190  -32.6800 O   0  0  0  0  0  0  0  0  0  0  0  0
   -3.5360   18.1480  -33.5500 C   0  0  0  0  0  0  0  0  0  0  0  0
   -2.6816   18.4998  -32.9532 H   0  0  0  0  0  0  0  0  0  0  0  0
   -3.2187   17.3073  -34.1845 H   0  0  0  0  0  0  0  0  0  0  0  0
   -3.9026   18.9684  -34.1845 H   0  0  0  0  0  0  0  0  0  0  0  0
  1  2  1  0
  2  3  2  0
  3  4  1  0
  3  5  1  0
  5  6  1  0
  6  7  1  0
  6  8  1  0
  6  9  1  0
  9 10  1  0
  9 11  1  0
 11 12  2  0
 12 13  1  0
 12 14  1  0
 14 15  1  0
 14 16  2  0
 16 17  1  0
 17 18  2  0
 17 19  2  0
 17 20  1  0
 20 21  2  0
 21 22  1  0
 22 23  1  0
 22 24  2  0
 24 25  1  0
 24 26  1  0
 26 27  1  0
 26 28  2  0
 28 29  1  0
 28 30  1  0
 30 31  1  0
 16 32  1  0
 32 33  1  0
 32 34  2  0
 34 35  1  0
  5 36  2  0
 36 37  1  0
 36 38  1  0
 38 39  1  0
 38 40  2  0
 40 41  1  0
 41 42  1  0
 42 43  1  0
 42 44  1  0
 42 45  1  0
 40  2  1  0
 34 11  1  0
 30 21  1  0
M  END
>  <UniqueID>  (11) 
11

>  <SMILES>  (11) 
COc1ccc(CNc2ccc(S(=O)(=O)/N=c3\cccc[nH]3)cc2)cc1

>  <Energy>  (11) 
51.61556564073004

>  <Genealogy>  (11) 
COc1ccc(CNc2ccc(S(=O)(=O)/N=c3\cccc[nH]3)cc2)cc1 (cis-trans isomerization)
COc1ccc(CNc2ccc(S(=O)(=O)/N=c3\cccc[nH]3)cc2)cc1 (3D coordinates assigned)
COc1ccc(CNc2ccc(S(=O)(=O)/N=c3\cccc[nH]3)cc2)cc1 (optimized conformer: 51.61556564073004 kcal/mol)

>  <smiles>  (11) 
COc1ccc(CNc2ccc(S(=O)(=O)N=c3cccc[nH]3)cc2)cc1

>  <score_type>  (11) 
oracle

>  <origin>  (11) 
adgpu

>  <m_score__min__energy>  (11) 
-9.3599999999999994

>  <m_primary>  (11) 
energy

$$$$
11:0
     RDKit          3D

 70 74  0  0  0  0  0  0  0  0999 V2000
    0.6410   23.5530  -35.8770 C   0  0  0  0  0  0  0  0  0  0  0  0
    0.0490   22.5630  -35.0430 O   0  0  0  0  0  0  0  0  0  0  0  0
    0.2100   21.1770  -35.2070 C   0  0  0  0  0  0  0  0  0  0  0  0
    1.3020   20.6380  -35.9150 C   0  0  0  0  0  0  0  0  0  0  0  0
    1.4360   19.2560  -36.0650 C   0  0  0  0  0  0  0  0  0  0  0  0
    0.4870   18.3980  -35.5120 C   0  0  0  0  0  0  0  0  0  0  0  0
   -0.6000   18.9170  -34.8080 C   0  0  0  0  0  0  0  0  0  0  0  0
   -0.7500   20.3040  -34.6490 C   0  0  0  0  0  0  0  0  0  0  0  0
   -1.9130   20.8360  -33.8450 C   0  0  0  0  0  0  0  0  0  0  0  0
   -2.1400   20.0140  -32.6380 N   0  0  0  0  0  0  0  0  0  0  0  0
   -3.1200   18.9580  -32.7540 C   0  0  0  0  0  0  0  0  0  0  0  0
   -2.7260   17.7640  -32.8430 O   0  0  0  0  0  0  0  0  0  0  0  0
   -4.5820   19.2350  -32.7140 C   0  0  0  0  0  0  0  0  0  0  0  0
   -5.2240   19.7840  -33.8390 C   0  0  0  0  0  0  0  0  0  0  0  0
   -6.5980   20.0380  -33.8240 C   0  0  0  0  0  0  0  0  0  0  0  0
   -7.3590   19.7420  -32.6830 C   0  0  0  0  0  0  0  0  0  0  0  0
   -8.8270   20.0480  -32.6550 C   0  0  0  0  0  0  0  0  0  0  0  0
   -6.7210   19.2230  -31.5490 C   0  0  0  0  0  0  0  0  0  0  0  0
   -5.3480   18.9680  -31.5650 C   0  0  0  0  0  0  0  0  0  0  0  0
   -1.8430   20.6040  -31.3080 C   0  0  1  0  0  0  0  0  0  0  0  0
   -0.4620   21.2940  -31.2070 C   0  0  0  0  0  0  0  0  0  0  0  0
   -2.9490   21.5360  -30.8120 C   0  0  0  0  0  0  0  0  0  0  0  0
   -3.8720   21.9020  -31.7420 N   0  0  0  0  0  0  0  0  0  0  0  0
   -4.9490   22.6570  -31.4350 C   0  0  0  0  0  0  0  0  0  0  0  0
   -5.8590   23.0190  -32.4350 C   0  0  0  0  0  0  0  0  0  0  0  0
   -6.9870   23.7790  -32.1130 C   0  0  0  0  0  0  0  0  0  0  0  0
   -7.2080   24.1750  -30.7920 C   0  0  0  0  0  0  0  0  0  0  0  0
   -6.3060   23.8110  -29.7880 C   0  0  0  0  0  0  0  0  0  0  0  0
   -5.1650   23.0500  -30.1060 C   0  0  0  0  0  0  0  0  0  0  0  0
   -4.2220   22.6640  -29.1400 C   0  0  0  0  0  0  0  0  0  0  0  0
   -4.4240   22.9670  -27.9280 O   0  0  0  0  0  0  0  0  0  0  0  0
   -3.0880   21.9650  -29.5020 N   0  0  0  0  0  0  0  0  0  0  0  0
   -2.0900   21.6530  -28.4510 C   0  0  0  0  0  0  0  0  0  0  0  0
   -1.4670   22.8980  -27.8540 C   0  0  0  0  0  0  0  0  0  0  0  0
   -1.3670   24.0680  -28.6260 C   0  0  0  0  0  0  0  0  0  0  0  0
   -0.8420   25.2390  -28.0700 C   0  0  0  0  0  0  0  0  0  0  0  0
   -0.4260   25.2560  -26.7370 C   0  0  0  0  0  0  0  0  0  0  0  0
   -0.5370   24.1030  -25.9560 C   0  0  0  0  0  0  0  0  0  0  0  0
   -1.0600   22.9300  -26.5080 C   0  0  0  0  0  0  0  0  0  0  0  0
    1.1054   24.3295  -35.2514 H   0  0  0  0  0  0  0  0  0  0  0  0
    1.4084   23.0863  -36.5121 H   0  0  0  0  0  0  0  0  0  0  0  0
   -0.1333   24.0082  -36.5121 H   0  0  0  0  0  0  0  0  0  0  0  0
    2.0545   21.3104  -36.3528 H   0  0  0  0  0  0  0  0  0  0  0  0
    2.2916   18.8441  -36.6203 H   0  0  0  0  0  0  0  0  0  0  0  0
    0.5952   17.3098  -35.6308 H   0  0  0  0  0  0  0  0  0  0  0  0
   -1.3454   18.2342  -34.3741 H   0  0  0  0  0  0  0  0  0  0  0  0
   -1.6969   21.8707  -33.5406 H   0  0  0  0  0  0  0  0  0  0  0  0
   -2.8177   20.8001  -34.4698 H   0  0  0  0  0  0  0  0  0  0  0  0
   -4.6378   20.0159  -34.7405 H   0  0  0  0  0  0  0  0  0  0  0  0
   -7.0848   20.4716  -34.7100 H   0  0  0  0  0  0  0  0  0  0  0  0
   -9.1669   20.1189  -31.6112 H   0  0  0  0  0  0  0  0  0  0  0  0
   -9.0121   21.0040  -33.1666 H   0  0  0  0  0  0  0  0  0  0  0  0
   -9.3786   19.2455  -33.1666 H   0  0  0  0  0  0  0  0  0  0  0  0
   -7.3050   19.0150  -30.6403 H   0  0  0  0  0  0  0  0  0  0  0  0
   -4.8607   18.5541  -30.6699 H   0  0  0  0  0  0  0  0  0  0  0  0
   -1.8024   19.7325  -30.6381 H   0  0  0  0  0  0  0  0  0  0  0  0
   -0.1953   21.4273  -30.1482 H   0  0  0  0  0  0  0  0  0  0  0  0
    0.2970   20.6692  -31.7005 H   0  0  0  0  0  0  0  0  0  0  0  0
   -0.5058   22.2761  -31.7005 H   0  0  0  0  0  0  0  0  0  0  0  0
   -5.6863   22.7052  -33.4750 H   0  0  0  0  0  0  0  0  0  0  0  0
   -7.7005   24.0652  -32.8998 H   0  0  0  0  0  0  0  0  0  0  0  0
   -8.0948   24.7753  -30.5408 H   0  0  0  0  0  0  0  0  0  0  0  0
   -6.4880   24.1196  -28.7480 H   0  0  0  0  0  0  0  0  0  0  0  0
   -2.5875   21.0882  -27.6488 H   0  0  0  0  0  0  0  0  0  0  0  0
   -1.2845   21.0677  -28.9185 H   0  0  0  0  0  0  0  0  0  0  0  0
   -1.7035   24.0628  -29.6733 H   0  0  0  0  0  0  0  0  0  0  0  0
   -0.7566   26.1480  -28.6836 H   0  0  0  0  0  0  0  0  0  0  0  0
   -0.0110   26.1772  -26.3020 H   0  0  0  0  0  0  0  0  0  0  0  0
   -0.2124   24.1182  -24.9051 H   0  0  0  0  0  0  0  0  0  0  0  0
   -1.1537   22.0273  -25.8865 H   0  0  0  0  0  0  0  0  0  0  0  0
  1  2  1  0
  2  3  1  0
  3  4  2  0
  4  5  1  0
  5  6  2  0
  6  7  1  0
  7  8  2  0
  8  9  1  0
  9 10  1  0
 10 11  1  0
 11 12  2  0
 11 13  1  0
 13 14  2  0
 14 15  1  0
 15 16  2  0
 16 17  1  0
 16 18  1  0
 18 19  2  0
 10 20  1  0
 20 21  1  0
 20 22  1  0
 22 23  2  0
 23 24  1  0
 24 25  2  0
 25 26  1  0
 26 27  2  0
 27 28  1  0
 28 29  2  0
 29 30  1  0
 30 31  2  0
 30 32  1  0
 32 33  1  0
 33 34  1  0
 34 35  2  0
 35 36  1  0
 36 37  2  0
 37 38  1  0
 38 39  2  0
  8  3  1  0
 19 13  1  0
 32 22  1  0
 39 34  1  0
 29 24  1  0
  1 40  1  0
  1 41  1  0
  1 42  1  0
  4 43  1  0
  5 44  1  0
  6 45  1  0
  7 46  1  0
  9 47  1  0
  9 48  1  0
 14 49  1  0
 15 50  1  0
 17 51  1  0
 17 52  1  0
 17 53  1  0
 18 54  1  0
 19 55  1  0
 20 56  1  1
 21 57  1  0
 21 58  1  0
 21 59  1  0
 25 60  1  0
 26 61  1  0
 27 62  1  0
 28 63  1  0
 33 64  1  0
 33 65  1  0
 35 66  1  0
 36 67  1  0
 37 68  1  0
 38 69  1  0
 39 70  1  0
M  END
>  <UniqueID>  (12) 
12

>  <SMILES>  (12) 
COc1ccccc1CN(C(=O)c1ccc(C)cc1)[C@@H](C)c1nc2ccccc2c(=O)n1Cc1ccccc1

>  <Energy>  (12) 
92.52577012083991

>  <Genealogy>  (12) 
COc1ccccc1CN(C(=O)c1ccc(C)cc1)[C@@H](C)c1nc2ccccc2c(=O)n1Cc1ccccc1 (chirality)
COc1ccccc1CN(C(=O)c1ccc(C)cc1)[C@@H](C)c1nc2ccccc2c(=O)n1Cc1ccccc1 (3D coordinates assigned)
COc1ccccc1CN(C(=O)c1ccc(C)cc1)[C@@H](C)c1nc2ccccc2c(=O)n1Cc1ccccc1 (optimized conformer: 92.52577012083991 kcal/mol)

>  <smiles>  (12) 
COc1ccccc1CN(C(=O)c1ccc(C)cc1)C(C)c1nc2ccccc2c(=O)n1Cc1ccccc1

>  <score_type>  (12) 
oracle

>  <origin>  (12) 
adgpu

>  <m_score__min__energy>  (12) 
-10.82

>  <m_primary>  (12) 
energy

$$$$
12:0
     RDKit          3D

 35 37  0  0  0  0  0  0  0  0999 V2000
   -4.9670   17.5256  -35.1923 H   0  0  0  0  0  0  0  0  0  0  0  0
   -5.7090   17.9210  -34.4830 C   0  0  0  0  0  0  0  0  0  0  0  0
   -5.7600   19.2920  -34.2170 C   0  0  0  0  0  0  0  0  0  0  0  0
   -5.0487   19.9711  -34.7098 H   0  0  0  0  0  0  0  0  0  0  0  0
   -6.7110   19.8070  -33.3270 C   0  0  0  0  0  0  0  0  0  0  0  0
   -6.7340   21.1870  -33.0930 O   0  0  0  0  0  0  0  0  0  0  0  0
   -5.8320   21.8680  -32.2620 C   0  0  0  0  0  0  0  0  0  0  0  0
   -6.2540   22.5850  -31.1270 C   0  0  0  0  0  0  0  0  0  0  0  0
   -7.3221   22.6180  -30.8661 H   0  0  0  0  0  0  0  0  0  0  0  0
   -5.3210   23.2560  -30.3290 C   0  0  0  0  0  0  0  0  0  0  0  0
   -5.6573   23.8095  -29.4399 H   0  0  0  0  0  0  0  0  0  0  0  0
   -3.9550   23.2250  -30.6600 C   0  0  0  0  0  0  0  0  0  0  0  0
   -2.9730   23.9000  -29.8650 N   0  0  0  0  0  0  0  0  0  0  0  0
   -2.2430   23.2860  -29.0240 N   0  0  0  0  0  0  0  0  0  0  0  0
   -1.2650   23.9700  -28.2360 C   0  0  0  0  0  0  0  0  0  0  0  0
   -0.5450   23.5130  -27.1440 C   0  0  0  0  0  0  0  0  0  0  0  0
   -0.6160   22.1620  -26.5050 C   0  0  0  0  0  0  0  0  0  0  0  0
   -0.6102   22.2732  -25.4107 H   0  0  0  0  0  0  0  0  0  0  0  0
   -1.5419   21.6569  -26.8173 H   0  0  0  0  0  0  0  0  0  0  0  0
    0.2519   21.5626  -26.8173 H   0  0  0  0  0  0  0  0  0  0  0  0
    0.2610   24.5110  -26.7260 N   0  0  0  0  0  0  0  0  0  0  0  0
    0.9260   24.4710  -25.9210 H   0  0  0  0  0  0  0  0  0  0  0  0
    0.0930   25.5800  -27.4940 N   0  0  0  0  0  0  0  0  0  0  0  0
   -0.8330   25.2610  -28.4170 C   0  0  0  0  0  0  0  0  0  0  0  0
   -1.2340   26.0520  -29.3110 O   0  0  0  0  0  0  0  0  0  0  0  0
   -3.5400   22.5220  -31.7970 C   0  0  0  0  0  0  0  0  0  0  0  0
   -2.4734   22.4968  -32.0649 H   0  0  0  0  0  0  0  0  0  0  0  0
   -4.4720   21.8520  -32.5940 C   0  0  0  0  0  0  0  0  0  0  0  0
   -4.1347   21.3081  -33.4887 H   0  0  0  0  0  0  0  0  0  0  0  0
   -7.5950   18.9270  -32.6680 C   0  0  0  0  0  0  0  0  0  0  0  0
   -8.7280   19.5040  -31.4550 Cl  0  0  0  0  0  0  0  0  0  0  0  0
   -7.5380   17.5540  -32.9390 C   0  0  0  0  0  0  0  0  0  0  0  0
   -8.2339   16.8676  -32.4343 H   0  0  0  0  0  0  0  0  0  0  0  0
   -6.6020   17.0510  -33.8470 C   0  0  0  0  0  0  0  0  0  0  0  0
   -6.5360   15.3300  -34.1800 Cl  0  0  0  0  0  0  0  0  0  0  0  0
  1  2  1  0
  2  3  2  0
  3  4  1  0
  3  5  1  0
  5  6  1  0
  6  7  1  0
  7  8  2  0
  8  9  1  0
  8 10  1  0
 10 11  1  0
 10 12  2  0
 12 13  1  0
 13 14  2  0
 14 15  1  0
 15 16  2  0
 16 17  1  0
 17 18  1  0
 17 19  1  0
 17 20  1  0
 16 21  1  0
 21 22  1  0
 21 23  1  0
 23 24  1  0
 24 25  2  0
 12 26  1  0
 26 27  1  0
 26 28  2  0
 28 29  1  0
  5 30  2  0
 30 31  1  0
 30 32  1  0
 32 33  1  0
 32 34  2  0
 34 35  1  0
 34  2  1  0
 28  7  1  0
 24 15  1  0
M  CHG  1  23  -1
M  END
>  <UniqueID>  (13) 
13

>  <SMILES>  (13) 
Cc1[nH][n-]c(=O)c1/N=N/c1ccc(Oc2ccc(Cl)cc2Cl)cc1

>  <Energy>  (13) 
78.31396072090165

>  <Genealogy>  (13) 
Cc1[nH][n-]c(=O)c1N=Nc1ccc(Oc2ccc(Cl)cc2Cl)cc1 (protonated)
Cc1[nH][n-]c(=O)c1/N=N/c1ccc(Oc2ccc(Cl)cc2Cl)cc1 (cis-trans isomerization)
Cc1[nH][n-]c(=O)c1/N=N/c1ccc(Oc2ccc(Cl)cc2Cl)cc1 (3D coordinates assigned)
Cc1[nH][n-]c(=O)c1/N=N/c1ccc(Oc2ccc(Cl)cc2Cl)cc1 (optimized conformer: 78.31396072090165 kcal/mol)

>  <smiles>  (13) 
Cc1[nH][nH]c(=O)c1N=Nc1ccc(Oc2ccc(Cl)cc2Cl)cc1

>  <score_type>  (13) 
oracle

>  <origin>  (13) 
adgpu

>  <m_score__min__energy>  (13) 
-8.8699999999999992

>  <m_primary>  (13) 
energy

$$$$
13:0
     RDKit          3D

 54 57  0  0  0  0  0  0  0  0999 V2000
   -9.5360   23.8030  -32.7100 C   0  0  0  0  0  0  0  0  0  0  0  0
   -8.9060   22.6540  -32.0450 N   0  0  0  0  0  0  0  0  0  0  0  0
   -9.5700   21.3430  -32.1310 C   0  0  0  0  0  0  0  0  0  0  0  0
   -8.5680   20.2230  -32.2720 C   0  0  0  0  0  0  0  0  0  0  0  0
   -7.5160   20.3270  -33.1980 C   0  0  0  0  0  0  0  0  0  0  0  0
   -6.5780   19.3000  -33.3100 C   0  0  0  0  0  0  0  0  0  0  0  0
   -6.6930   18.1750  -32.4890 C   0  0  0  0  0  0  0  0  0  0  0  0
   -7.7080   18.0900  -31.5900 N   0  0  0  0  0  0  0  0  0  0  0  0
   -8.6350   19.0770  -31.4600 C   0  0  0  0  0  0  0  0  0  0  0  0
   -7.6170   22.8050  -31.3990 C   0  0  0  0  0  0  0  0  0  0  0  0
   -6.4800   23.1890  -32.1350 C   0  0  0  0  0  0  0  0  0  0  0  0
   -5.2350   23.3220  -31.5110 C   0  0  0  0  0  0  0  0  0  0  0  0
   -5.0950   23.0750  -30.1350 C   0  0  0  0  0  0  0  0  0  0  0  0
   -3.7710   23.2140  -29.4730 C   0  0  0  0  0  0  0  0  0  0  0  0
   -3.5300   24.2640  -28.5690 C   0  0  0  0  0  0  0  0  0  0  0  0
   -2.2830   24.3980  -27.9520 C   0  0  0  0  0  0  0  0  0  0  0  0
   -1.2590   23.4860  -28.2270 C   0  0  0  0  0  0  0  0  0  0  0  0
    0.3140   23.6840  -27.4620 S   0  0  0  0  0  0  0  0  0  0  0  0
    1.1480   24.6920  -28.2020 O   0  0  0  0  0  0  0  0  0  0  0  0
    1.0280   22.3610  -27.4750 O   0  0  0  0  0  0  0  0  0  0  0  0
    0.1080   24.2090  -25.8210 N   0  0  0  0  0  0  0  0  0  0  0  0
   -0.2190   25.5590  -25.4440 C   0  0  0  0  0  0  0  0  0  0  0  0
   -0.2540   26.6090  -26.3840 C   0  0  0  0  0  0  0  0  0  0  0  0
   -0.5760   27.9090  -25.9790 C   0  0  0  0  0  0  0  0  0  0  0  0
   -0.8630   28.1770  -24.6380 C   0  0  0  0  0  0  0  0  0  0  0  0
   -0.8200   27.1460  -23.6970 C   0  0  0  0  0  0  0  0  0  0  0  0
   -0.4980   25.8440  -24.0970 C   0  0  0  0  0  0  0  0  0  0  0  0
   -1.4910   22.4340  -29.1220 C   0  0  0  0  0  0  0  0  0  0  0  0
   -2.7360   22.3000  -29.7420 C   0  0  0  0  0  0  0  0  0  0  0  0
   -6.2260   22.6890  -29.3980 C   0  0  0  0  0  0  0  0  0  0  0  0
   -7.4690   22.5530  -30.0210 C   0  0  0  0  0  0  0  0  0  0  0  0
   -9.9188   24.5012  -31.9511 H   0  0  0  0  0  0  0  0  0  0  0  0
   -8.7928   24.3157  -33.3383 H   0  0  0  0  0  0  0  0  0  0  0  0
  -10.3679   23.4521  -33.3383 H   0  0  0  0  0  0  0  0  0  0  0  0
  -10.1608   21.1810  -31.2173 H   0  0  0  0  0  0  0  0  0  0  0  0
  -10.2164   21.3415  -33.0210 H   0  0  0  0  0  0  0  0  0  0  0  0
   -7.4319   21.2194  -33.8355 H   0  0  0  0  0  0  0  0  0  0  0  0
   -5.7562   19.3752  -34.0373 H   0  0  0  0  0  0  0  0  0  0  0  0
   -5.9612   17.3578  -32.5707 H   0  0  0  0  0  0  0  0  0  0  0  0
   -9.4400   18.9783  -30.7169 H   0  0  0  0  0  0  0  0  0  0  0  0
   -6.5716   23.3867  -33.2132 H   0  0  0  0  0  0  0  0  0  0  0  0
   -4.3579   23.6226  -32.1029 H   0  0  0  0  0  0  0  0  0  0  0  0
   -4.3295   24.9858  -28.3456 H   0  0  0  0  0  0  0  0  0  0  0  0
   -2.1063   25.2240  -27.2474 H   0  0  0  0  0  0  0  0  0  0  0  0
    0.1610   23.4740  -25.0800 H   0  0  0  0  0  0  0  0  0  0  0  0
   -0.0271   26.4053  -27.4409 H   0  0  0  0  0  0  0  0  0  0  0  0
   -0.6033   28.7227  -26.7187 H   0  0  0  0  0  0  0  0  0  0  0  0
   -1.1225   29.1988  -24.3239 H   0  0  0  0  0  0  0  0  0  0  0  0
   -1.0395   27.3575  -22.6401 H   0  0  0  0  0  0  0  0  0  0  0  0
   -0.4631   25.0370  -23.3503 H   0  0  0  0  0  0  0  0  0  0  0  0
   -0.6905   21.7109  -29.3375 H   0  0  0  0  0  0  0  0  0  0  0  0
   -2.9083   21.4728  -30.4464 H   0  0  0  0  0  0  0  0  0  0  0  0
   -6.1325   22.4918  -28.3199 H   0  0  0  0  0  0  0  0  0  0  0  0
   -8.3430   22.2453  -29.4281 H   0  0  0  0  0  0  0  0  0  0  0  0
  1  2  1  0
  2  3  1  0
  3  4  1  0
  4  5  2  0
  5  6  1  0
  6  7  2  0
  7  8  1  0
  8  9  2  0
  2 10  1  0
 10 11  2  0
 11 12  1  0
 12 13  2  0
 13 14  1  0
 14 15  2  0
 15 16  1  0
 16 17  2  0
 17 18  1  0
 18 19  2  0
 18 20  2  0
 18 21  1  0
 21 22  1  0
 22 23  2  0
 23 24  1  0
 24 25  2  0
 25 26  1  0
 26 27  2  0
 17 28  1  0
 28 29  2  0
 13 30  1  0
 30 31  2  0
  9  4  1  0
 31 10  1  0
 29 14  1  0
 27 22  1  0
  1 32  1  0
  1 33  1  0
  1 34  1  0
  3 35  1  0
  3 36  1  0
  5 37  1  0
  6 38  1  0
  7 39  1  0
  9 40  1  0
 11 41  1  0
 12 42  1  0
 15 43  1  0
 16 44  1  0
 21 45  1  0
 23 46  1  0
 24 47  1  0
 25 48  1  0
 26 49  1  0
 27 50  1  0
 28 51  1  0
 29 52  1  0
 30 53  1  0
 31 54  1  0
M  END
>  <UniqueID>  (14) 
14

>  <SMILES>  (14) 
CN(Cc1cccnc1)c1ccc(-c2ccc(S(=O)(=O)Nc3ccccc3)cc2)cc1

>  <Energy>  (14) 
70.69306200419248

>  <Genealogy>  (14) 
CN(Cc1cccnc1)c1ccc(-c2ccc(S(=O)(=O)Nc3ccccc3)cc2)cc1 (3D coordinates assigned)
CN(Cc1cccnc1)c1ccc(-c2ccc(S(=O)(=O)Nc3ccccc3)cc2)cc1 (optimized conformer: 70.69306200419248 kcal/mol)

>  <smiles>  (14) 
CN(Cc1cccnc1)c1ccc(-c2ccc(S(=O)(=O)Nc3ccccc3)cc2)cc1

>  <score_type>  (14) 
oracle

>  <origin>  (14) 
adgpu

>  <m_score__min__energy>  (14) 
-9.5099999999999998

>  <m_primary>  (14) 
energy

$$$$
14:0
     RDKit          3D

 48 50  0  0  0  0  0  0  0  0999 V2000
   -9.6680   19.4910  -32.7150 C   0  0  0  0  0  0  0  0  0  0  0  0
   -8.4460   20.3180  -32.4810 C   0  0  0  0  0  0  0  0  0  0  0  0
   -8.5710   21.5080  -32.0820 O   0  0  0  0  0  0  0  0  0  0  0  0
   -7.1510   19.7840  -32.7900 N   0  0  0  0  0  0  0  0  0  0  0  0
   -5.9350   20.5250  -32.6110 C   0  0  0  0  0  0  0  0  0  0  0  0
   -5.9020   21.5970  -31.7040 C   0  0  0  0  0  0  0  0  0  0  0  0
   -4.7030   22.2620  -31.4270 C   0  0  0  0  0  0  0  0  0  0  0  0
   -4.6870   23.5840  -30.2630 S   0  0  0  0  0  0  0  0  0  0  0  0
   -4.4160   24.8940  -30.9490 O   0  0  0  0  0  0  0  0  0  0  0  0
   -6.0300   23.6640  -29.5930 O   0  0  0  0  0  0  0  0  0  0  0  0
   -3.4690   23.2920  -29.0670 N   0  0  0  0  0  0  0  0  0  0  0  0
   -2.5230   24.1430  -28.8170 C   0  0  0  0  0  0  0  0  0  0  0  0
   -2.3770   25.3000  -29.4180 O   0  0  0  0  0  0  0  0  0  0  0  0
   -1.3350   25.9290  -28.9510 N   0  0  0  0  0  0  0  0  0  0  0  0
   -0.7850   25.1350  -28.0090 C   0  0  0  0  0  0  0  0  0  0  0  0
    0.4240   25.4950  -27.2110 C   0  0  0  0  0  0  0  0  0  0  0  0
   -1.5250   23.9740  -27.8890 C   0  0  0  0  0  0  0  0  0  0  0  0
   -1.2350   22.4930  -26.7170 Br  0  0  0  0  0  0  0  0  0  0  0  0
   -3.5180   21.8360  -32.0350 C   0  0  0  0  0  0  0  0  0  0  0  0
   -3.5370   20.7700  -32.9370 C   0  0  0  0  0  0  0  0  0  0  0  0
   -4.7380   20.1240  -33.2550 C   0  0  0  0  0  0  0  0  0  0  0  0
   -4.6940   19.0930  -34.2090 O   0  0  0  0  0  0  0  0  0  0  0  0
   -4.1960   17.8030  -33.9790 C   0  0  0  0  0  0  0  0  0  0  0  0
   -2.9100   17.5030  -34.4380 C   0  0  0  0  0  0  0  0  0  0  0  0
   -2.3180   16.2740  -34.1430 C   0  0  0  0  0  0  0  0  0  0  0  0
   -3.0060   15.3210  -33.3770 C   0  0  0  0  0  0  0  0  0  0  0  0
   -2.3780   13.9820  -33.0790 C   0  0  0  0  0  0  0  0  0  0  0  0
   -3.0140   13.4120  -31.9930 F   0  0  0  0  0  0  0  0  0  0  0  0
   -1.0330   14.1320  -32.7880 F   0  0  0  0  0  0  0  0  0  0  0  0
   -2.4920   13.1340  -34.1660 F   0  0  0  0  0  0  0  0  0  0  0  0
   -4.3270   15.5880  -32.9810 C   0  0  0  0  0  0  0  0  0  0  0  0
   -4.9390   16.8150  -33.2890 C   0  0  0  0  0  0  0  0  0  0  0  0
   -6.3170   17.0270  -32.9430 N   0  0  0  0  0  0  0  0  0  0  0  0
   -7.1950   17.0380  -33.8310 O   0  0  0  0  0  0  0  0  0  0  0  0
   -6.6570   17.4120  -31.6670 O   0  0  0  0  0  0  0  0  0  0  0  0
  -10.1024   19.1970  -31.7481 H   0  0  0  0  0  0  0  0  0  0  0  0
  -10.4040   20.0774  -33.2846 H   0  0  0  0  0  0  0  0  0  0  0  0
   -9.3973   18.5897  -33.2846 H   0  0  0  0  0  0  0  0  0  0  0  0
   -7.0980   18.8410  -33.2370 H   0  0  0  0  0  0  0  0  0  0  0  0
   -6.8292   21.9171  -31.2061 H   0  0  0  0  0  0  0  0  0  0  0  0
    0.1896   25.4252  -26.1385 H   0  0  0  0  0  0  0  0  0  0  0  0
    1.2430   24.8018  -27.4532 H   0  0  0  0  0  0  0  0  0  0  0  0
    0.7304   26.5233  -27.4532 H   0  0  0  0  0  0  0  0  0  0  0  0
   -2.5691   22.3415  -31.8024 H   0  0  0  0  0  0  0  0  0  0  0  0
   -2.5986   20.4343  -33.4026 H   0  0  0  0  0  0  0  0  0  0  0  0
   -2.3593   18.2428  -35.0375 H   0  0  0  0  0  0  0  0  0  0  0  0
   -1.3064   16.0513  -34.5131 H   0  0  0  0  0  0  0  0  0  0  0  0
   -4.8902   14.8261  -32.4221 H   0  0  0  0  0  0  0  0  0  0  0  0
  1  2  1  0
  2  3  2  0
  2  4  1  0
  4  5  1  0
  5  6  2  0
  6  7  1  0
  7  8  1  0
  8  9  2  0
  8 10  2  0
  8 11  1  0
 11 12  2  3
 12 13  1  0
 13 14  1  0
 14 15  1  0
 15 16  1  0
 15 17  2  0
 17 18  1  0
  7 19  2  0
 19 20  1  0
 20 21  2  0
 21 22  1  0
 22 23  1  0
 23 24  2  0
 24 25  1  0
 25 26  2  0
 26 27  1  0
 27 28  1  0
 27 29  1  0
 27 30  1  0
 26 31  1  0
 31 32  2  0
 32 33  1  0
 33 34  2  0
 33 35  1  0
 21  5  1  0
 32 23  1  0
 17 12  1  0
  1 36  1  0
  1 37  1  0
  1 38  1  0
  4 39  1  0
  6 40  1  0
 16 41  1  0
 16 42  1  0
 16 43  1  0
 19 44  1  0
 20 45  1  0
 24 46  1  0
 25 47  1  0
 31 48  1  0
M  CHG  3  14  -1  33   1  35  -1
M  END
>  <UniqueID>  (15) 
15

>  <SMILES>  (15) 
CC(=O)Nc1cc(S(=O)(=O)N=c2o[n-]c(C)c2Br)ccc1Oc1ccc(C(F)(F)F)cc1[N+](=O)[O-]

>  <Energy>  (15) 
97.81789295617764

>  <Genealogy>  (15) 
CC(=O)Nc1cc(S(=O)(=O)N=c2o[n-]c(C)c2Br)ccc1Oc1ccc(C(F)(F)F)cc1[N+](=O)[O-] (protonated)
CC(=O)Nc1cc(S(=O)(=O)N=c2o[n-]c(C)c2Br)ccc1Oc1ccc(C(F)(F)F)cc1[N+](=O)[O-] (3D coordinates assigned)
CC(=O)Nc1cc(S(=O)(=O)N=c2o[n-]c(C)c2Br)ccc1Oc1ccc(C(F)(F)F)cc1[N+](=O)[O-] (optimized conformer: 97.81789295617764 kcal/mol)

>  <smiles>  (15) 
CC(=O)Nc1cc(S(=O)(=O)N=c2o[nH]c(C)c2Br)ccc1Oc1ccc(C(F)(F)F)cc1[N+](=O)[O-]

>  <score_type>  (15) 
oracle

>  <origin>  (15) 
adgpu

>  <m_score__min__energy>  (15) 
-12.41

>  <m_primary>  (15) 
energy

$$$$
15:0
     RDKit          3D

 48 51  0  0  0  0  0  0  0  0999 V2000
   -3.8660   25.6740  -31.1360 O   0  0  0  0  0  0  0  0  0  0  0  0
   -4.0350   24.6870  -30.3720 C   0  0  0  0  0  0  0  0  0  0  0  0
   -3.1200   24.5000  -29.2830 N   0  0  0  0  0  0  0  0  0  0  0  0
   -2.6610   23.2440  -28.7570 C   0  0  0  0  0  0  0  0  0  0  0  0
   -3.5290   22.3840  -28.0600 C   0  0  0  0  0  0  0  0  0  0  0  0
   -3.0630   21.1690  -27.5520 C   0  0  0  0  0  0  0  0  0  0  0  0
   -1.7350   20.7890  -27.7540 C   0  0  0  0  0  0  0  0  0  0  0  0
   -1.1020   19.1270  -27.0600 Br  0  0  0  0  0  0  0  0  0  0  0  0
   -0.8720   21.6220  -28.4710 C   0  0  0  0  0  0  0  0  0  0  0  0
   -1.3280   22.8450  -28.9780 C   0  0  0  0  0  0  0  0  0  0  0  0
   -0.4360   23.6500  -29.6880 O   0  0  0  0  0  0  0  0  0  0  0  0
   -5.1900   23.7860  -30.5950 C   0  0  0  0  0  0  0  0  0  0  0  0
   -4.9930   22.3980  -30.6920 C   0  0  0  0  0  0  0  0  0  0  0  0
   -6.0810   21.5390  -30.8680 C   0  0  0  0  0  0  0  0  0  0  0  0
   -7.3870   22.0500  -30.9260 C   0  0  0  0  0  0  0  0  0  0  0  0
   -8.5720   21.1230  -31.0510 C   0  0  0  0  0  0  0  0  0  0  0  0
   -8.6580   20.4280  -32.3560 N   0  0  0  0  0  0  0  0  0  0  0  0
   -9.3030   19.1020  -32.3610 C   0  0  0  0  0  0  0  0  0  0  0  0
   -8.3460   17.9500  -32.0080 C   0  0  0  0  0  0  0  0  0  0  0  0
   -6.9380   18.1510  -32.5000 C   0  0  0  0  0  0  0  0  0  0  0  0
   -6.0150   17.1020  -32.3620 C   0  0  0  0  0  0  0  0  0  0  0  0
   -4.6840   17.2720  -32.7490 C   0  0  0  0  0  0  0  0  0  0  0  0
   -4.2620   18.4910  -33.2800 C   0  0  0  0  0  0  0  0  0  0  0  0
   -5.1700   19.5420  -33.4240 C   0  0  0  0  0  0  0  0  0  0  0  0
   -6.5060   19.3890  -33.0200 C   0  0  0  0  0  0  0  0  0  0  0  0
   -7.4710   20.5250  -33.2240 C   0  0  0  0  0  0  0  0  0  0  0  0
   -7.5790   23.4400  -30.8910 C   0  0  0  0  0  0  0  0  0  0  0  0
   -6.4900   24.3010  -30.7320 C   0  0  0  0  0  0  0  0  0  0  0  0
   -4.5811   22.6700  -27.9141 H   0  0  0  0  0  0  0  0  0  0  0  0
   -3.7435   20.5107  -26.9920 H   0  0  0  0  0  0  0  0  0  0  0  0
    0.1711   21.3153  -28.6380 H   0  0  0  0  0  0  0  0  0  0  0  0
   -0.7090   24.5420  -30.0840 H   0  0  0  0  0  0  0  0  0  0  0  0
   -3.9755   21.9849  -30.6290 H   0  0  0  0  0  0  0  0  0  0  0  0
   -5.9130   20.4559  -30.9616 H   0  0  0  0  0  0  0  0  0  0  0  0
   -8.5020   20.3634  -30.2585 H   0  0  0  0  0  0  0  0  0  0  0  0
   -9.4742   21.7460  -30.9621 H   0  0  0  0  0  0  0  0  0  0  0  0
  -10.1221   19.1110  -31.6268 H   0  0  0  0  0  0  0  0  0  0  0  0
   -9.6611   18.9214  -33.3853 H   0  0  0  0  0  0  0  0  0  0  0  0
   -8.3183   17.8465  -30.9132 H   0  0  0  0  0  0  0  0  0  0  0  0
   -8.7327   17.0503  -32.5090 H   0  0  0  0  0  0  0  0  0  0  0  0
   -6.3430   16.1382  -31.9456 H   0  0  0  0  0  0  0  0  0  0  0  0
   -3.9682   16.4445  -32.6351 H   0  0  0  0  0  0  0  0  0  0  0  0
   -3.2137   18.6243  -33.5853 H   0  0  0  0  0  0  0  0  0  0  0  0
   -4.8363   20.4965  -33.8570 H   0  0  0  0  0  0  0  0  0  0  0  0
   -6.9524   21.4703  -33.0061 H   0  0  0  0  0  0  0  0  0  0  0  0
   -7.8185   20.4816  -34.2668 H   0  0  0  0  0  0  0  0  0  0  0  0
   -8.5933   23.8542  -30.9894 H   0  0  0  0  0  0  0  0  0  0  0  0
   -6.6515   25.3889  -30.7140 H   0  0  0  0  0  0  0  0  0  0  0  0
  1  2  2  0
  2  3  1  0
  3  4  1  0
  4  5  2  0
  5  6  1  0
  6  7  2  0
  7  8  1  0
  7  9  1  0
  9 10  2  0
 10 11  1  0
  2 12  1  0
 12 13  2  0
 13 14  1  0
 14 15  2  0
 15 16  1  0
 16 17  1  0
 17 18  1  0
 18 19  1  0
 19 20  1  0
 20 21  2  0
 21 22  1  0
 22 23  2  0
 23 24  1  0
 24 25  2  0
 25 26  1  0
 15 27  1  0
 27 28  2  0
 10  4  1  0
 28 12  1  0
 26 17  1  0
 25 20  1  0
  5 29  1  0
  6 30  1  0
  9 31  1  0
 11 32  1  0
 13 33  1  0
 14 34  1  0
 16 35  1  0
 16 36  1  0
 18 37  1  0
 18 38  1  0
 19 39  1  0
 19 40  1  0
 21 41  1  0
 22 42  1  0
 23 43  1  0
 24 44  1  0
 26 45  1  0
 26 46  1  0
 27 47  1  0
 28 48  1  0
M  CHG  1   3  -1
M  END
>  <UniqueID>  (16) 
16

>  <SMILES>  (16) 
O=C([N-]c1ccc(Br)cc1O)c1ccc(CN2CCc3ccccc3C2)cc1

>  <Energy>  (16) 
66.36221730925664

>  <Genealogy>  (16) 
O=C([N-]c1ccc(Br)cc1O)c1ccc(CN2CCc3ccccc3C2)cc1 (protonated)
O=C([N-]c1ccc(Br)cc1O)c1ccc(CN2CCc3ccccc3C2)cc1 (3D coordinates assigned)
O=C([N-]c1ccc(Br)cc1O)c1ccc(CN2CCc3ccccc3C2)cc1 (nonaromatic ring conformer: 66.36221730925664 kcal/mol)

>  <smiles>  (16) 
O=C(Nc1ccc(Br)cc1O)c1ccc(CN2CCc3ccccc3C2)cc1

>  <score_type>  (16) 
oracle

>  <origin>  (16) 
adgpu

>  <m_score__min__energy>  (16) 
-12.800000000000001

>  <m_primary>  (16) 
energy

$$$$
16:0
     RDKit          3D

 64 68  0  0  0  0  0  0  0  0999 V2000
   -0.4090   28.7360  -26.1960 C   0  0  0  0  0  0  0  0  0  0  0  0
   -0.8730   27.3240  -26.4030 C   0  0  0  0  0  0  0  0  0  0  0  0
   -1.5660   26.6520  -25.3850 C   0  0  0  0  0  0  0  0  0  0  0  0
   -2.0340   25.3510  -25.5920 C   0  0  0  0  0  0  0  0  0  0  0  0
   -1.8230   24.7060  -26.8210 C   0  0  0  0  0  0  0  0  0  0  0  0
   -2.3610   23.3170  -27.0590 C   0  0  0  0  0  0  0  0  0  0  0  0
   -2.8020   23.1690  -28.4620 N   0  0  0  0  0  0  0  0  0  0  0  0
   -2.0210   22.4960  -29.3580 C   0  0  0  0  0  0  0  0  0  0  0  0
   -0.9020   22.0280  -29.0110 O   0  0  0  0  0  0  0  0  0  0  0  0
   -2.4370   22.3250  -30.6360 N   0  0  0  0  0  0  0  0  0  0  0  0
   -3.6420   22.8110  -31.0510 C   0  0  0  0  0  0  0  0  0  0  0  0
   -4.0460   22.6400  -32.2830 N   0  0  0  0  0  0  0  0  0  0  0  0
   -3.3570   21.9250  -33.3570 C   0  0  0  0  0  0  0  0  0  0  0  0
   -3.8790   20.5170  -33.4810 C   0  0  0  0  0  0  0  0  0  0  0  0
   -3.0120   19.4200  -33.3660 C   0  0  0  0  0  0  0  0  0  0  0  0
   -3.5020   18.1150  -33.4750 C   0  0  0  0  0  0  0  0  0  0  0  0
   -4.8720   17.8830  -33.7050 C   0  0  0  0  0  0  0  0  0  0  0  0
   -5.4130   16.5050  -33.8230 C   0  0  0  0  0  0  0  0  0  0  0  0
   -6.7570   16.2670  -34.1650 C   0  0  0  0  0  0  0  0  0  0  0  0
   -7.2180   14.9530  -34.2710 C   0  0  0  0  0  0  0  0  0  0  0  0
   -6.3450   13.8880  -34.0420 C   0  0  0  0  0  0  0  0  0  0  0  0
   -5.0160   14.1550  -33.7150 C   0  0  0  0  0  0  0  0  0  0  0  0
   -4.5840   15.4410  -33.6160 N   0  0  0  0  0  0  0  0  0  0  0  0
   -5.7310   18.9870  -33.8470 C   0  0  0  0  0  0  0  0  0  0  0  0
   -5.2390   20.2900  -33.7360 C   0  0  0  0  0  0  0  0  0  0  0  0
   -4.4410   23.4870  -30.1640 N   0  0  0  0  0  0  0  0  0  0  0  0
   -5.7400   24.0420  -30.6040 C   0  0  0  0  0  0  0  0  0  0  0  0
   -6.6610   22.9360  -31.0560 C   0  0  0  0  0  0  0  0  0  0  0  0
   -7.8910   23.2360  -31.6660 C   0  0  0  0  0  0  0  0  0  0  0  0
   -8.7550   22.2090  -32.0550 C   0  0  0  0  0  0  0  0  0  0  0  0
   -8.3990   20.8730  -31.8370 C   0  0  0  0  0  0  0  0  0  0  0  0
   -9.4870   19.5840  -32.3230 Cl  0  0  0  0  0  0  0  0  0  0  0  0
   -7.1770   20.5670  -31.2320 C   0  0  0  0  0  0  0  0  0  0  0  0
   -6.3110   21.5930  -30.8420 C   0  0  0  0  0  0  0  0  0  0  0  0
   -4.0130   23.6650  -28.8710 C   0  0  0  0  0  0  0  0  0  0  0  0
   -4.7420   24.2920  -28.0510 O   0  0  0  0  0  0  0  0  0  0  0  0
   -1.1470   25.3890  -27.8460 C   0  0  0  0  0  0  0  0  0  0  0  0
   -0.6810   26.6910  -27.6390 C   0  0  0  0  0  0  0  0  0  0  0  0
   -0.3403   28.9451  -25.1182 H   0  0  0  0  0  0  0  0  0  0  0  0
    0.5800   28.8686  -26.6590 H   0  0  0  0  0  0  0  0  0  0  0  0
   -1.1266   29.4294  -26.6590 H   0  0  0  0  0  0  0  0  0  0  0  0
   -1.7418   27.1506  -24.4204 H   0  0  0  0  0  0  0  0  0  0  0  0
   -2.5712   24.8291  -24.7864 H   0  0  0  0  0  0  0  0  0  0  0  0
   -1.5711   22.5812  -26.8477 H   0  0  0  0  0  0  0  0  0  0  0  0
   -3.2215   23.1488  -26.3947 H   0  0  0  0  0  0  0  0  0  0  0  0
   -1.8020   21.8160  -31.2870 H   0  0  0  0  0  0  0  0  0  0  0  0
   -3.5205   22.4555  -34.3066 H   0  0  0  0  0  0  0  0  0  0  0  0
   -2.2831   21.8843  -33.1221 H   0  0  0  0  0  0  0  0  0  0  0  0
   -1.9394   19.5877  -33.1889 H   0  0  0  0  0  0  0  0  0  0  0  0
   -2.8124   17.2632  -33.3804 H   0  0  0  0  0  0  0  0  0  0  0  0
   -7.4397   17.1099  -34.3476 H   0  0  0  0  0  0  0  0  0  0  0  0
   -8.2679   14.7574  -34.5347 H   0  0  0  0  0  0  0  0  0  0  0  0
   -6.7014   12.8502  -34.1186 H   0  0  0  0  0  0  0  0  0  0  0  0
   -4.3164   13.3250  -33.5370 H   0  0  0  0  0  0  0  0  0  0  0  0
   -6.8002   18.8234  -34.0473 H   0  0  0  0  0  0  0  0  0  0  0  0
   -5.9233   21.1437  -33.8494 H   0  0  0  0  0  0  0  0  0  0  0  0
   -6.2058   24.5812  -29.7660 H   0  0  0  0  0  0  0  0  0  0  0  0
   -5.5670   24.7276  -31.4466 H   0  0  0  0  0  0  0  0  0  0  0  0
   -8.1751   24.2847  -31.8381 H   0  0  0  0  0  0  0  0  0  0  0  0
   -9.7158   22.4507  -32.5330 H   0  0  0  0  0  0  0  0  0  0  0  0
   -6.8960   19.5171  -31.0623 H   0  0  0  0  0  0  0  0  0  0  0  0
   -5.3507   21.3470  -30.3652 H   0  0  0  0  0  0  0  0  0  0  0  0
   -0.9835   24.8970  -28.8162 H   0  0  0  0  0  0  0  0  0  0  0  0
   -0.1610   27.2214  -28.4503 H   0  0  0  0  0  0  0  0  0  0  0  0
  1  2  1  0
  2  3  2  0
  3  4  1  0
  4  5  2  0
  5  6  1  0
  6  7  1  0
  7  8  1  0
  8  9  2  0
  8 10  1  0
 10 11  1  0
 11 12  2  3
 12 13  1  0
 13 14  1  0
 14 15  2  0
 15 16  1  0
 16 17  2  0
 17 18  1  0
 18 19  2  0
 19 20  1  0
 20 21  2  0
 21 22  1  0
 22 23  2  0
 17 24  1  0
 24 25  2  0
 11 26  1  0
 26 27  1  0
 27 28  1  0
 28 29  2  0
 29 30  1  0
 30 31  2  0
 31 32  1  0
 31 33  1  0
 33 34  2  0
 26 35  1  0
 35 36  2  0
  5 37  1  0
 37 38  2  0
 38  2  1  0
 35  7  1  0
 25 14  1  0
 34 28  1  0
 23 18  1  0
  1 39  1  0
  1 40  1  0
  1 41  1  0
  3 42  1  0
  4 43  1  0
  6 44  1  0
  6 45  1  0
 10 46  1  0
 13 47  1  0
 13 48  1  0
 15 49  1  0
 16 50  1  0
 19 51  1  0
 20 52  1  0
 21 53  1  0
 22 54  1  0
 24 55  1  0
 25 56  1  0
 27 57  1  0
 27 58  1  0
 29 59  1  0
 30 60  1  0
 33 61  1  0
 34 62  1  0
 37 63  1  0
 38 64  1  0
M  END
>  <UniqueID>  (17) 
17

>  <SMILES>  (17) 
Cc1ccc(Cn2c(=O)[nH]c(=NCc3ccc(-c4ccccn4)cc3)n(Cc3ccc(Cl)cc3)c2=O)cc1

>  <Energy>  (17) 
81.77714842218535

>  <Genealogy>  (17) 
Cc1ccc(Cn2c(=O)[nH]c(=NCc3ccc(-c4ccccn4)cc3)n(Cc3ccc(Cl)cc3)c2=O)cc1 (3D coordinates assigned)
Cc1ccc(Cn2c(=O)[nH]c(=NCc3ccc(-c4ccccn4)cc3)n(Cc3ccc(Cl)cc3)c2=O)cc1 (optimized conformer: 81.77714842218535 kcal/mol)

>  <smiles>  (17) 
Cc1ccc(Cn2c(=O)[nH]c(=NCc3ccc(-c4ccccn4)cc3)n(Cc3ccc(Cl)cc3)c2=O)cc1

>  <score_type>  (17) 
oracle

>  <origin>  (17) 
adgpu

>  <m_score__min__energy>  (17) 
-10.140000000000001

>  <m_primary>  (17) 
energy

$$$$
17:0
     RDKit          3D

 45 47  0  0  0  0  0  0  0  0999 V2000
   -1.2760   19.3240  -27.1700 C   0  0  0  0  0  0  0  0  0  0  0  0
   -1.7310   20.6650  -27.6680 C   0  0  0  0  0  0  0  0  0  0  0  0
   -0.8390   21.5000  -28.3590 C   0  0  0  0  0  0  0  0  0  0  0  0
   -1.2720   22.7340  -28.8530 C   0  0  0  0  0  0  0  0  0  0  0  0
   -2.5920   23.1530  -28.6530 C   0  0  0  0  0  0  0  0  0  0  0  0
   -3.0030   24.4290  -29.1590 N   0  0  0  0  0  0  0  0  0  0  0  0
   -3.9980   24.6400  -30.1720 C   0  0  0  0  0  0  0  0  0  0  0  0
   -3.9350   25.6760  -30.8840 O   0  0  0  0  0  0  0  0  0  0  0  0
   -5.0760   23.7180  -30.3800 N   0  0  0  0  0  0  0  0  0  0  0  0
   -5.0050   22.4930  -31.1290 C   0  0  0  0  0  0  0  0  0  0  0  0
   -6.1460   21.6890  -31.1870 C   0  0  0  0  0  0  0  0  0  0  0  0
   -6.1420   20.4950  -31.9160 C   0  0  0  0  0  0  0  0  0  0  0  0
   -7.3560   19.6520  -31.9700 C   0  0  0  0  0  0  0  0  0  0  0  0
   -8.6800   20.0590  -31.9950 C   0  0  0  0  0  0  0  0  0  0  0  0
   -9.1920   21.4630  -31.9600 C   0  0  0  0  0  0  0  0  0  0  0  0
   -9.4790   18.9750  -32.0310 N   0  0  0  0  0  0  0  0  0  0  0  0
   -8.7040   17.9270  -32.0300 O   0  0  0  0  0  0  0  0  0  0  0  0
   -7.4370   18.2710  -31.9900 C   0  0  0  0  0  0  0  0  0  0  0  0
   -6.3060   17.2950  -31.9460 C   0  0  0  0  0  0  0  0  0  0  0  0
   -4.9800   20.1020  -32.5890 C   0  0  0  0  0  0  0  0  0  0  0  0
   -3.8080   20.8790  -32.5270 C   0  0  0  0  0  0  0  0  0  0  0  0
   -2.5620   20.4290  -33.2630 C   0  0  0  0  0  0  0  0  0  0  0  0
   -2.9090   19.5310  -34.2560 F   0  0  0  0  0  0  0  0  0  0  0  0
   -1.9360   21.5240  -33.8300 F   0  0  0  0  0  0  0  0  0  0  0  0
   -1.6590   19.8060  -32.4180 F   0  0  0  0  0  0  0  0  0  0  0  0
   -3.8140   22.0720  -31.7590 C   0  0  0  0  0  0  0  0  0  0  0  0
   -2.6580   22.8390  -31.5900 O   0  0  0  0  0  0  0  0  0  0  0  0
   -3.4960   22.3000  -27.9960 C   0  0  0  0  0  0  0  0  0  0  0  0
   -3.0680   21.0600  -27.5140 C   0  0  0  0  0  0  0  0  0  0  0  0
   -1.2754   19.3223  -26.0700 H   0  0  0  0  0  0  0  0  0  0  0  0
   -1.9601   18.5449  -27.5375 H   0  0  0  0  0  0  0  0  0  0  0  0
   -0.2591   19.1221  -27.5375 H   0  0  0  0  0  0  0  0  0  0  0  0
    0.2030   21.1826  -28.5121 H   0  0  0  0  0  0  0  0  0  0  0  0
   -0.5708   23.3795  -29.4022 H   0  0  0  0  0  0  0  0  0  0  0  0
   -7.0572   21.9980  -30.6538 H   0  0  0  0  0  0  0  0  0  0  0  0
   -9.3093   21.7846  -30.9146 H   0  0  0  0  0  0  0  0  0  0  0  0
   -8.4780   22.1265  -32.4698 H   0  0  0  0  0  0  0  0  0  0  0  0
  -10.1655   21.5111  -32.4698 H   0  0  0  0  0  0  0  0  0  0  0  0
   -6.0516   17.0755  -30.8986 H   0  0  0  0  0  0  0  0  0  0  0  0
   -6.6037   16.3656  -32.4535 H   0  0  0  0  0  0  0  0  0  0  0  0
   -5.4302   17.7255  -32.4535 H   0  0  0  0  0  0  0  0  0  0  0  0
   -4.9824   19.1715  -33.1756 H   0  0  0  0  0  0  0  0  0  0  0  0
   -2.6520   23.7730  -31.2040 H   0  0  0  0  0  0  0  0  0  0  0  0
   -4.5429   22.6094  -27.8610 H   0  0  0  0  0  0  0  0  0  0  0  0
   -3.7825   20.3911  -27.0119 H   0  0  0  0  0  0  0  0  0  0  0  0
  1  2  1  0
  2  3  2  0
  3  4  1  0
  4  5  2  0
  5  6  1  0
  6  7  1  0
  7  8  2  0
  7  9  1  0
  9 10  1  0
 10 11  2  0
 11 12  1  0
 12 13  1  0
 13 14  1  0
 14 15  1  0
 14 16  2  0
 16 17  1  0
 17 18  1  0
 18 19  1  0
 12 20  2  0
 20 21  1  0
 21 22  1  0
 22 23  1  0
 22 24  1  0
 22 25  1  0
 21 26  2  0
 26 27  1  0
  5 28  1  0
 28 29  2  0
 29  2  1  0
 26 10  1  0
 18 13  2  0
  1 30  1  0
  1 31  1  0
  1 32  1  0
  3 33  1  0
  4 34  1  0
 11 35  1  0
 15 36  1  0
 15 37  1  0
 15 38  1  0
 19 39  1  0
 19 40  1  0
 19 41  1  0
 20 42  1  0
 27 43  1  0
 28 44  1  0
 29 45  1  0
M  CHG  2   6  -1   9  -1
M  END
>  <UniqueID>  (18) 
18

>  <SMILES>  (18) 
Cc1ccc([N-]C(=O)[N-]c2cc(-c3c(C)noc3C)cc(C(F)(F)F)c2O)cc1

>  <Energy>  (18) 
89.87843892828229

>  <Genealogy>  (18) 
Cc1ccc([N-]C(=O)[N-]c2cc(-c3c(C)noc3C)cc(C(F)(F)F)c2O)cc1 (protonated)
Cc1ccc([N-]C(=O)[N-]c2cc(-c3c(C)noc3C)cc(C(F)(F)F)c2O)cc1 (3D coordinates assigned)
Cc1ccc([N-]C(=O)[N-]c2cc(-c3c(C)noc3C)cc(C(F)(F)F)c2O)cc1 (optimized conformer: 89.87843892828229 kcal/mol)

>  <smiles>  (18) 
Cc1ccc(NC(=O)Nc2cc(-c3c(C)noc3C)cc(C(F)(F)F)c2O)cc1

>  <score_type>  (18) 
oracle

>  <origin>  (18) 
adgpu

>  <m_score__min__energy>  (18) 
-11.18

>  <m_primary>  (18) 
energy

$$$$
18:0
     RDKit          3D

 44 46  0  0  0  0  0  0  0  0999 V2000
   -2.8390   24.3500  -27.8160 O   0  0  0  0  0  0  0  0  0  0  0  0
   -2.4780   24.5680  -29.2600 S   0  0  0  0  0  0  0  0  0  0  0  0
   -1.3660   25.5770  -29.3300 O   0  0  0  0  0  0  0  0  0  0  0  0
   -3.8580   25.1840  -30.1100 N   0  0  0  0  0  0  0  0  0  0  0  0
   -5.0410   24.4340  -30.4240 C   0  0  0  0  0  0  0  0  0  0  0  0
   -5.5570   23.5630  -29.4550 C   0  0  0  0  0  0  0  0  0  0  0  0
   -6.7110   22.8160  -29.7150 C   0  0  0  0  0  0  0  0  0  0  0  0
   -7.3600   22.9360  -30.9470 C   0  0  0  0  0  0  0  0  0  0  0  0
   -6.8500   23.7980  -31.9230 C   0  0  0  0  0  0  0  0  0  0  0  0
   -7.4760   23.9100  -33.1200 F   0  0  0  0  0  0  0  0  0  0  0  0
   -5.6940   24.5460  -31.6670 C   0  0  0  0  0  0  0  0  0  0  0  0
   -1.9350   23.0700  -30.0120 C   0  0  0  0  0  0  0  0  0  0  0  0
   -0.8350   22.3920  -29.4790 C   0  0  0  0  0  0  0  0  0  0  0  0
   -0.3930   21.2040  -30.0650 C   0  0  0  0  0  0  0  0  0  0  0  0
   -1.0390   20.6860  -31.1930 C   0  0  0  0  0  0  0  0  0  0  0  0
   -0.4510   19.1730  -31.8730 Cl  0  0  0  0  0  0  0  0  0  0  0  0
   -2.1420   21.3690  -31.7450 C   0  0  0  0  0  0  0  0  0  0  0  0
   -2.9920   20.7390  -33.1630 S   0  0  0  0  0  0  0  0  0  0  0  0
   -1.9770   20.2220  -34.1450 O   0  0  0  0  0  0  0  0  0  0  0  0
   -3.7830   21.8360  -33.8240 O   0  0  0  0  0  0  0  0  0  0  0  0
   -4.0680   19.4470  -32.6850 N   0  0  0  0  0  0  0  0  0  0  0  0
   -5.0740   19.9610  -31.7260 C   0  0  0  0  0  0  0  0  0  0  0  0
   -6.2950   19.0380  -31.6410 C   0  0  0  0  0  0  0  0  0  0  0  0
   -7.0120   18.9430  -32.9990 C   0  0  0  0  0  0  0  0  0  0  0  0
   -6.0720   19.2140  -34.1880 C   0  0  0  0  0  0  0  0  0  0  0  0
   -4.6380   18.7640  -33.8720 C   0  0  0  0  0  0  0  0  0  0  0  0
   -2.5870   22.5570  -31.1420 C   0  0  0  0  0  0  0  0  0  0  0  0
   -5.0511   23.4660  -28.4831 H   0  0  0  0  0  0  0  0  0  0  0  0
   -7.1079   22.1335  -28.9490 H   0  0  0  0  0  0  0  0  0  0  0  0
   -8.2708   22.3531  -31.1487 H   0  0  0  0  0  0  0  0  0  0  0  0
   -5.2954   25.2220  -32.4378 H   0  0  0  0  0  0  0  0  0  0  0  0
   -0.3166   22.7949  -28.5964 H   0  0  0  0  0  0  0  0  0  0  0  0
    0.4691   20.6716  -29.6368 H   0  0  0  0  0  0  0  0  0  0  0  0
   -4.6127   20.0355  -30.7302 H   0  0  0  0  0  0  0  0  0  0  0  0
   -5.4117   20.9473  -32.0769 H   0  0  0  0  0  0  0  0  0  0  0  0
   -5.9657   18.0333  -31.3374 H   0  0  0  0  0  0  0  0  0  0  0  0
   -6.9970   19.4537  -30.9032 H   0  0  0  0  0  0  0  0  0  0  0  0
   -7.4314   17.9317  -33.1054 H   0  0  0  0  0  0  0  0  0  0  0  0
   -7.7974   19.7130  -33.0144 H   0  0  0  0  0  0  0  0  0  0  0  0
   -6.4363   18.6623  -35.0671 H   0  0  0  0  0  0  0  0  0  0  0  0
   -6.0631   20.2958  -34.3872 H   0  0  0  0  0  0  0  0  0  0  0  0
   -4.6433   17.6801  -33.6846 H   0  0  0  0  0  0  0  0  0  0  0  0
   -4.0111   19.0263  -34.7370 H   0  0  0  0  0  0  0  0  0  0  0  0
   -3.4542   23.0892  -31.5599 H   0  0  0  0  0  0  0  0  0  0  0  0
  1  2  2  0
  2  3  2  0
  2  4  1  0
  4  5  1  0
  5  6  2  0
  6  7  1  0
  7  8  2  0
  8  9  1  0
  9 10  1  0
  9 11  2  0
  2 12  1  0
 12 13  2  0
 13 14  1  0
 14 15  2  0
 15 16  1  0
 15 17  1  0
 17 18  1  0
 18 19  2  0
 18 20  2  0
 18 21  1  0
 21 22  1  0
 22 23  1  0
 23 24  1  0
 24 25  1  0
 25 26  1  0
 17 27  2  0
 11  5  1  0
 27 12  1  0
 26 21  1  0
  6 28  1  0
  7 29  1  0
  8 30  1  0
 11 31  1  0
 13 32  1  0
 14 33  1  0
 22 34  1  0
 22 35  1  0
 23 36  1  0
 23 37  1  0
 24 38  1  0
 24 39  1  0
 25 40  1  0
 25 41  1  0
 26 42  1  0
 26 43  1  0
 27 44  1  0
M  CHG  1   4  -1
M  END
>  <UniqueID>  (19) 
19

>  <SMILES>  (19) 
O=S(=O)([N-]c1cccc(F)c1)c1ccc(Cl)c(S(=O)(=O)N2CCCCC2)c1

>  <Energy>  (19) 
54.62397278345454

>  <Genealogy>  (19) 
O=S(=O)([N-]c1cccc(F)c1)c1ccc(Cl)c(S(=O)(=O)N2CCCCC2)c1 (protonated)
O=S(=O)([N-]c1cccc(F)c1)c1ccc(Cl)c(S(=O)(=O)N2CCCCC2)c1 (3D coordinates assigned)
O=S(=O)([N-]c1cccc(F)c1)c1ccc(Cl)c(S(=O)(=O)N2CCCCC2)c1 (nonaromatic ring conformer: 54.62397278345454 kcal/mol)

>  <smiles>  (19) 
O=S(=O)(Nc1cccc(F)c1)c1ccc(Cl)c(S(=O)(=O)N2CCCCC2)c1

>  <score_type>  (19) 
oracle

>  <origin>  (19) 
adgpu

>  <m_score__min__energy>  (19) 
-10.869999999999999

>  <m_primary>  (19) 
energy

$$$$
19:0
     RDKit          3D

 35 37  0  0  0  0  0  0  0  0999 V2000
   -8.3550   23.3350  -31.2700 O   0  0  0  0  0  0  0  0  0  0  0  0
   -7.6110   22.3860  -30.9010 C   0  0  0  0  0  0  0  0  0  0  0  0
   -6.5930   22.6030  -29.9080 N   0  0  0  0  0  0  0  0  0  0  0  0
   -5.5990   23.4490  -29.9170 C   0  0  0  0  0  0  0  0  0  0  0  0
   -4.6800   23.3990  -28.8600 C   0  0  0  0  0  0  0  0  0  0  0  0
   -3.6050   24.2890  -28.8270 C   0  0  0  0  0  0  0  0  0  0  0  0
   -3.4560   25.2140  -29.8100 N   0  0  0  0  0  0  0  0  0  0  0  0
   -4.3360   25.3050  -30.8410 C   0  0  0  0  0  0  0  0  0  0  0  0
   -5.4260   24.4330  -30.9150 C   0  0  0  0  0  0  0  0  0  0  0  0
   -7.7280   21.0640  -31.5600 C   0  0  0  0  0  0  0  0  0  0  0  0
   -8.7640   20.1790  -31.2090 C   0  0  0  0  0  0  0  0  0  0  0  0
   -8.8680   18.9280  -31.8240 C   0  0  0  0  0  0  0  0  0  0  0  0
   -7.9400   18.5450  -32.7930 C   0  0  0  0  0  0  0  0  0  0  0  0
   -6.9010   19.4110  -33.1500 C   0  0  0  0  0  0  0  0  0  0  0  0
   -5.7020   18.9130  -34.3860 S   0  0  0  0  0  0  0  0  0  0  0  0
   -4.3340   19.6300  -33.4770 C   0  0  0  0  0  0  0  0  0  0  0  0
   -3.4570   18.8050  -32.7600 C   0  0  0  0  0  0  0  0  0  0  0  0
   -2.3850   19.3640  -32.0580 C   0  0  0  0  0  0  0  0  0  0  0  0
   -2.1890   20.7500  -32.0660 C   0  0  0  0  0  0  0  0  0  0  0  0
   -0.7230   21.5130  -31.1070 Br  0  0  0  0  0  0  0  0  0  0  0  0
   -3.0670   21.5760  -32.7770 C   0  0  0  0  0  0  0  0  0  0  0  0
   -4.1390   21.0170  -33.4800 C   0  0  0  0  0  0  0  0  0  0  0  0
   -6.7980   20.6670  -32.5400 C   0  0  0  0  0  0  0  0  0  0  0  0
   -4.8058   22.6585  -28.0564 H   0  0  0  0  0  0  0  0  0  0  0  0
   -2.8774   24.2409  -28.0034 H   0  0  0  0  0  0  0  0  0  0  0  0
   -4.1903   26.0675  -31.6203 H   0  0  0  0  0  0  0  0  0  0  0  0
   -6.1438   24.5127  -31.7447 H   0  0  0  0  0  0  0  0  0  0  0  0
   -9.4979   20.4739  -30.4446 H   0  0  0  0  0  0  0  0  0  0  0  0
   -9.6828   18.2443  -31.5435 H   0  0  0  0  0  0  0  0  0  0  0  0
   -8.0255   17.5608  -33.2768 H   0  0  0  0  0  0  0  0  0  0  0  0
   -3.6123   17.7161  -32.7495 H   0  0  0  0  0  0  0  0  0  0  0  0
   -1.6953   18.7144  -31.4991 H   0  0  0  0  0  0  0  0  0  0  0  0
   -2.9139   22.6653  -32.7829 H   0  0  0  0  0  0  0  0  0  0  0  0
   -4.8300   21.6676  -34.0361 H   0  0  0  0  0  0  0  0  0  0  0  0
   -5.9844   21.3488  -32.8285 H   0  0  0  0  0  0  0  0  0  0  0  0
  1  2  2  0
  2  3  1  0
  3  4  2  3
  4  5  1  0
  5  6  2  0
  6  7  1  0
  7  8  1  0
  8  9  2  0
  2 10  1  0
 10 11  2  0
 11 12  1  0
 12 13  2  0
 13 14  1  0
 14 15  1  0
 15 16  1  0
 16 17  2  0
 17 18  1  0
 18 19  2  0
 19 20  1  0
 19 21  1  0
 21 22  2  0
 14 23  2  0
  9  4  1  0
 23 10  1  0
 22 16  1  0
  5 24  1  0
  6 25  1  0
  8 26  1  0
  9 27  1  0
 11 28  1  0
 12 29  1  0
 13 30  1  0
 17 31  1  0
 18 32  1  0
 21 33  1  0
 22 34  1  0
 23 35  1  0
M  CHG  1   7  -1
M  END
>  <UniqueID>  (20) 
20

>  <SMILES>  (20) 
O=C(N=c1cc[n-]cc1)c1cccc(Sc2ccc(Br)cc2)c1

>  <Energy>  (20) 
42.28769036269472

>  <Genealogy>  (20) 
O=C(N=c1cc[n-]cc1)c1cccc(Sc2ccc(Br)cc2)c1 (protonated)
O=C(N=c1cc[n-]cc1)c1cccc(Sc2ccc(Br)cc2)c1 (3D coordinates assigned)
O=C(N=c1cc[n-]cc1)c1cccc(Sc2ccc(Br)cc2)c1 (optimized conformer: 42.28769036269472 kcal/mol)

>  <smiles>  (20) 
O=C(N=c1cc[nH]cc1)c1cccc(Sc2ccc(Br)cc2)c1

>  <score_type>  (20) 
oracle

>  <origin>  (20) 
adgpu

>  <m_score__min__energy>  (20) 
-9.8000000000000007

>  <m_primary>  (20) 
energy

$$$$
20:0
     RDKit          3D

 30 32  0  0  0  0  0  0  0  0999 V2000
   -3.8690   25.6810  -30.4280 O   0  0  0  0  0  0  0  0  0  0  0  0
   -4.3250   24.4300  -30.8230 C   0  0  0  0  0  0  0  0  0  0  0  0
   -5.6440   24.2700  -31.2560 C   0  0  0  0  0  0  0  0  0  0  0  0
   -6.1050   23.0120  -31.6530 C   0  0  0  0  0  0  0  0  0  0  0  0
   -5.2520   21.8920  -31.6190 C   0  0  0  0  0  0  0  0  0  0  0  0
   -5.7500   20.5580  -32.0430 C   0  0  0  0  0  0  0  0  0  0  0  0
   -7.0720   20.2000  -32.3060 C   0  0  0  0  0  0  0  0  0  0  0  0
   -7.2320   18.8620  -32.6920 C   0  0  0  0  0  0  0  0  0  0  0  0
   -6.0390   18.1410  -32.7410 C   0  0  0  0  0  0  0  0  0  0  0  0
   -5.8720   16.7130  -33.1140 C   0  0  0  0  0  0  0  0  0  0  0  0
   -4.7680   15.9660  -32.6610 C   0  0  0  0  0  0  0  0  0  0  0  0
   -4.6220   14.6230  -33.0200 C   0  0  0  0  0  0  0  0  0  0  0  0
   -5.5720   14.0070  -33.8360 C   0  0  0  0  0  0  0  0  0  0  0  0
   -6.6730   14.7320  -34.2980 C   0  0  0  0  0  0  0  0  0  0  0  0
   -7.6140   14.1050  -35.1120 O   0  0  0  0  0  0  0  0  0  0  0  0
   -6.8220   16.0790  -33.9400 C   0  0  0  0  0  0  0  0  0  0  0  0
   -4.7970   19.1920  -32.3020 S   0  0  0  0  0  0  0  0  0  0  0  0
   -3.9230   22.0680  -31.1830 C   0  0  0  0  0  0  0  0  0  0  0  0
   -3.4680   23.3290  -30.7870 C   0  0  0  0  0  0  0  0  0  0  0  0
   -6.3210   25.1365  -31.2844 H   0  0  0  0  0  0  0  0  0  0  0  0
   -7.1439   22.8955  -31.9953 H   0  0  0  0  0  0  0  0  0  0  0  0
   -7.9129   20.9038  -32.2185 H   0  0  0  0  0  0  0  0  0  0  0  0
   -8.2099   18.4205  -32.9344 H   0  0  0  0  0  0  0  0  0  0  0  0
   -4.0134   16.4436  -32.0187 H   0  0  0  0  0  0  0  0  0  0  0  0
   -3.7556   14.0498  -32.6582 H   0  0  0  0  0  0  0  0  0  0  0  0
   -5.4537   12.9497  -34.1156 H   0  0  0  0  0  0  0  0  0  0  0  0
   -8.1690   13.3250  -34.7780 H   0  0  0  0  0  0  0  0  0  0  0  0
   -7.6893   16.6472  -34.3075 H   0  0  0  0  0  0  0  0  0  0  0  0
   -3.2392   21.2069  -31.1542 H   0  0  0  0  0  0  0  0  0  0  0  0
   -2.4299   23.4541  -30.4455 H   0  0  0  0  0  0  0  0  0  0  0  0
  1  2  1  0
  2  3  2  0
  3  4  1  0
  4  5  2  0
  5  6  1  0
  6  7  2  0
  7  8  1  0
  8  9  2  0
  9 10  1  0
 10 11  2  0
 11 12  1  0
 12 13  2  0
 13 14  1  0
 14 15  1  0
 14 16  2  0
  9 17  1  0
  5 18  1  0
 18 19  2  0
 19  2  1  0
 17  6  1  0
 16 10  1  0
  3 20  1  0
  4 21  1  0
  7 22  1  0
  8 23  1  0
 11 24  1  0
 12 25  1  0
 13 26  1  0
 15 27  1  0
 16 28  1  0
 18 29  1  0
 19 30  1  0
M  CHG  1   1  -1
M  END
>  <UniqueID>  (21) 
21

>  <SMILES>  (21) 
[O-]c1ccc(-c2ccc(-c3cccc(O)c3)s2)cc1

>  <Energy>  (21) 
63.488778009888264

>  <Genealogy>  (21) 
[O-]c1ccc(-c2ccc(-c3cccc(O)c3)s2)cc1 (protonated)
[O-]c1ccc(-c2ccc(-c3cccc(O)c3)s2)cc1 (3D coordinates assigned)
[O-]c1ccc(-c2ccc(-c3cccc(O)c3)s2)cc1 (optimized conformer: 63.488778009888264 kcal/mol)

>  <smiles>  (21) 
Oc1ccc(-c2ccc(-c3cccc(O)c3)s2)cc1

>  <score_type>  (21) 
oracle

>  <origin>  (21) 
adgpu

>  <m_score__min__energy>  (21) 
-9.5700000000000003

>  <m_primary>  (21) 
energy

$$$$
21:0
     RDKit          3D

 57 57  0  0  0  0  0  0  0  0999 V2000
   -6.0000   24.1910  -31.9650 N   0  0  0  0  0  0  0  0  0  0  0  0
   -6.5130   24.2800  -30.6000 C   0  0  0  0  0  0  0  0  0  0  0  0
   -6.2070   22.9990  -29.8100 C   0  0  0  0  0  0  0  0  0  0  0  0
   -4.8490   23.0140  -29.0790 C   0  0  0  0  0  0  0  0  0  0  0  0
   -3.6300   23.2910  -29.9850 C   0  0  1  0  0  0  0  0  0  0  0  0
   -3.8890   22.8630  -31.3630 N   0  0  0  0  0  0  0  0  0  0  0  0
   -3.3180   24.7610  -29.9530 C   0  0  0  0  0  0  0  0  0  0  0  0
   -3.8700   25.5480  -30.7690 O   0  0  0  0  0  0  0  0  0  0  0  0
   -2.4180   25.2630  -28.9600 N   0  0  0  0  0  0  0  0  0  0  0  0
   -1.1690   24.6090  -28.5830 C   0  0  1  0  0  0  0  0  0  0  0  0
   -0.2480   25.6020  -27.8420 C   0  0  0  0  0  0  0  0  0  0  0  0
   -0.9810   26.7130  -27.0570 C   0  0  0  0  0  0  0  0  0  0  0  0
   -1.9990   26.1830  -26.0350 C   0  0  0  0  0  0  0  0  0  0  0  0
   -1.6380   26.5990  -24.6780 N   0  0  0  0  0  0  0  0  0  0  0  0
   -0.5050   26.0890  -23.9550 C   0  0  0  0  0  0  0  0  0  0  0  0
    0.1820   26.9490  -23.0410 N   0  0  0  0  0  0  0  0  0  0  0  0
   -0.1360   24.8480  -24.0700 N   0  0  0  0  0  0  0  0  0  0  0  0
   -1.4390   23.3810  -27.7540 C   0  0  0  0  0  0  0  0  0  0  0  0
   -1.5970   23.4910  -26.5070 O   0  0  0  0  0  0  0  0  0  0  0  0
   -1.5400   22.1000  -28.3820 N   0  0  0  0  0  0  0  0  0  0  0  0
   -1.8830   20.8820  -27.6660 C   0  0  0  0  0  0  0  0  0  0  0  0
   -0.7090   19.9480  -27.7020 C   0  0  0  0  0  0  0  0  0  0  0  0
    0.5540   20.4210  -28.0960 C   0  0  0  0  0  0  0  0  0  0  0  0
    1.6390   19.5430  -28.1840 C   0  0  0  0  0  0  0  0  0  0  0  0
    1.4670   18.1860  -27.8910 C   0  0  0  0  0  0  0  0  0  0  0  0
    2.5460   17.3140  -27.9800 O   0  0  0  0  0  0  0  0  0  0  0  0
    0.2100   17.7060  -27.5120 C   0  0  0  0  0  0  0  0  0  0  0  0
   -0.8780   18.5810  -27.4240 C   0  0  0  0  0  0  0  0  0  0  0  0
   -5.0450   24.6190  -31.9850 H   0  0  0  0  0  0  0  0  0  0  0  0
   -5.8770   23.1780  -32.1940 H   0  0  0  0  0  0  0  0  0  0  0  0
   -6.0416   25.1354  -30.0940 H   0  0  0  0  0  0  0  0  0  0  0  0
   -7.6043   24.4108  -30.6446 H   0  0  0  0  0  0  0  0  0  0  0  0
   -7.0001   22.8584  -29.0608 H   0  0  0  0  0  0  0  0  0  0  0  0
   -6.1615   22.1799  -30.5428 H   0  0  0  0  0  0  0  0  0  0  0  0
   -4.8852   23.7952  -28.3055 H   0  0  0  0  0  0  0  0  0  0  0  0
   -4.7068   22.0035  -28.6683 H   0  0  0  0  0  0  0  0  0  0  0  0
   -2.7703   22.7169  -29.6090 H   0  0  0  0  0  0  0  0  0  0  0  0
   -3.9370   23.7110  -31.9710 H   0  0  0  0  0  0  0  0  0  0  0  0
   -4.8470   22.4420  -31.4060 H   0  0  0  0  0  0  0  0  0  0  0  0
   -0.6502   24.2826  -29.4964 H   0  0  0  0  0  0  0  0  0  0  0  0
    0.3671   25.0311  -27.1309 H   0  0  0  0  0  0  0  0  0  0  0  0
    0.3410   26.1122  -28.6183 H   0  0  0  0  0  0  0  0  0  0  0  0
   -0.2301   27.3112  -26.5201 H   0  0  0  0  0  0  0  0  0  0  0  0
   -1.5448   27.3058  -27.7924 H   0  0  0  0  0  0  0  0  0  0  0  0
   -2.9957   26.5785  -26.2803 H   0  0  0  0  0  0  0  0  0  0  0  0
   -2.0022   25.0838  -26.0778 H   0  0  0  0  0  0  0  0  0  0  0  0
   -2.1050   27.4560  -24.3050 H   0  0  0  0  0  0  0  0  0  0  0  0
    0.9900   26.6020  -22.4790 H   0  0  0  0  0  0  0  0  0  0  0  0
   -0.1160   27.9430  -22.9280 H   0  0  0  0  0  0  0  0  0  0  0  0
   -0.6540   24.1700  -24.6660 H   0  0  0  0  0  0  0  0  0  0  0  0
    0.6790   24.4830  -23.5280 H   0  0  0  0  0  0  0  0  0  0  0  0
   -2.1294   21.1248  -26.6218 H   0  0  0  0  0  0  0  0  0  0  0  0
   -2.7531   20.4043  -28.1401 H   0  0  0  0  0  0  0  0  0  0  0  0
    0.6899   21.4858  -28.3361 H   0  0  0  0  0  0  0  0  0  0  0  0
    2.6281   19.9196  -28.4837 H   0  0  0  0  0  0  0  0  0  0  0  0
    0.0761   16.6385  -27.2826 H   0  0  0  0  0  0  0  0  0  0  0  0
   -1.8682   18.1979  -27.1365 H   0  0  0  0  0  0  0  0  0  0  0  0
  1  2  1  0
  2  3  1  0
  3  4  1  0
  4  5  1  0
  5  6  1  0
  5  7  1  0
  7  8  2  0
  7  9  1  0
  9 10  1  0
 10 11  1  0
 11 12  1  0
 12 13  1  0
 13 14  1  0
 14 15  1  0
 15 16  1  0
 15 17  2  0
 10 18  1  0
 18 19  2  0
 18 20  1  0
 20 21  1  0
 21 22  1  0
 22 23  2  0
 23 24  1  0
 24 25  2  0
 25 26  1  0
 25 27  1  0
 27 28  2  0
 28 22  1  0
  1 29  1  0
  1 30  1  0
  2 31  1  0
  2 32  1  0
  3 33  1  0
  3 34  1  0
  4 35  1  0
  4 36  1  0
  5 37  1  1
  6 38  1  0
  6 39  1  0
 10 40  1  6
 11 41  1  0
 11 42  1  0
 12 43  1  0
 12 44  1  0
 13 45  1  0
 13 46  1  0
 14 47  1  0
 16 48  1  0
 16 49  1  0
 17 50  1  0
 17 51  1  0
 21 52  1  0
 21 53  1  0
 23 54  1  0
 24 55  1  0
 27 56  1  0
 28 57  1  0
M  CHG  4   9  -1  17   1  20  -1  26  -1
M  END
>  <UniqueID>  (22) 
22

>  <SMILES>  (22) 
NCCC[C@@H](N)C(=O)[N-][C@@H](CCCNC(N)=[NH2+])C(=O)[N-]Cc1ccc([O-])cc1

>  <Energy>  (22) 
37.01690745908848

>  <Genealogy>  (22) 
NCCCC(N)C(=O)[N-]C(CCCNC(N)=[NH2+])C(=O)[N-]Cc1ccc([O-])cc1 (protonated)
NCCC[C@@H](N)C(=O)[N-][C@@H](CCCNC(N)=[NH2+])C(=O)[N-]Cc1ccc([O-])cc1 (chirality)
NCCC[C@@H](N)C(=O)[N-][C@@H](CCCNC(N)=[NH2+])C(=O)[N-]Cc1ccc([O-])cc1 (3D coordinates assigned)
NCCC[C@@H](N)C(=O)[N-][C@@H](CCCNC(N)=[NH2+])C(=O)[N-]Cc1ccc([O-])cc1 (optimized conformer: 37.01690745908848 kcal/mol)

>  <smiles>  (22) 
N=C(N)NCCCC(NC(=O)C(N)CCCN)C(=O)NCc1ccc(O)cc1

>  <score_type>  (22) 
oracle

>  <origin>  (22) 
adgpu

>  <m_score__min__energy>  (22) 
-8.6300000000000008

>  <m_primary>  (22) 
energy

$$$$
22:0
     RDKit          3D

 51 54  0  0  0  0  0  0  0  0999 V2000
   -4.1280   24.6630  -26.8470 C   0  0  0  0  0  0  0  0  0  0  0  0
   -3.4990   24.1680  -28.1550 C   0  0  1  0  0  0  0  0  0  0  0  0
   -4.5420   24.0230  -29.2650 C   0  0  0  0  0  0  0  0  0  0  0  0
   -4.7800   25.0550  -30.2010 C   0  0  0  0  0  0  0  0  0  0  0  0
   -5.7330   24.8940  -31.2120 C   0  0  0  0  0  0  0  0  0  0  0  0
   -6.4650   23.7100  -31.3060 C   0  0  0  0  0  0  0  0  0  0  0  0
   -6.2450   22.6800  -30.3900 C   0  0  0  0  0  0  0  0  0  0  0  0
   -5.2930   22.8330  -29.3770 C   0  0  0  0  0  0  0  0  0  0  0  0
   -2.4250   25.0880  -28.5450 N   0  0  0  0  0  0  0  0  0  0  0  0
   -1.2140   24.3460  -28.5910 C   0  0  0  0  0  0  0  0  0  0  0  0
   -0.1190   24.8440  -28.9630 O   0  0  0  0  0  0  0  0  0  0  0  0
   -1.3660   22.9930  -28.2010 N   0  0  0  0  0  0  0  0  0  0  0  0
   -0.4480   21.8960  -28.5050 C   0  0  0  0  0  0  0  0  0  0  0  0
   -0.9770   21.0280  -29.6130 C   0  0  0  0  0  0  0  0  0  0  0  0
   -0.8500   19.7740  -29.5470 O   0  0  0  0  0  0  0  0  0  0  0  0
   -1.6240   21.6370  -30.7410 N   0  0  0  0  0  0  0  0  0  0  0  0
   -2.2840   20.9050  -31.7890 C   0  0  0  0  0  0  0  0  0  0  0  0
   -1.5460   19.9960  -32.5590 C   0  0  0  0  0  0  0  0  0  0  0  0
   -2.1610   19.2730  -33.5830 C   0  0  0  0  0  0  0  0  0  0  0  0
   -3.5140   19.4720  -33.8660 C   0  0  0  0  0  0  0  0  0  0  0  0
   -4.2570   20.4110  -33.1430 C   0  0  0  0  0  0  0  0  0  0  0  0
   -5.6120   20.5860  -33.4600 O   0  0  0  0  0  0  0  0  0  0  0  0
   -6.6780   19.8880  -32.8730 C   0  0  0  0  0  0  0  0  0  0  0  0
   -7.8430   20.5900  -32.5420 C   0  0  0  0  0  0  0  0  0  0  0  0
   -8.9210   19.9300  -31.9450 C   0  0  0  0  0  0  0  0  0  0  0  0
   -8.8370   18.5630  -31.6640 C   0  0  0  0  0  0  0  0  0  0  0  0
   -7.6700   17.8580  -31.9720 C   0  0  0  0  0  0  0  0  0  0  0  0
   -6.5900   18.5170  -32.5680 C   0  0  0  0  0  0  0  0  0  0  0  0
   -3.6400   21.1220  -32.0970 C   0  0  0  0  0  0  0  0  0  0  0  0
   -2.7570   22.8700  -27.9440 C   0  0  0  0  0  0  0  0  0  0  0  0
   -3.2930   21.7860  -27.5840 O   0  0  0  0  0  0  0  0  0  0  0  0
   -3.5832   24.2343  -25.9929 H   0  0  0  0  0  0  0  0  0  0  0  0
   -4.0705   25.7607  -26.8049 H   0  0  0  0  0  0  0  0  0  0  0  0
   -5.1814   24.3491  -26.8049 H   0  0  0  0  0  0  0  0  0  0  0  0
   -4.2104   25.9936  -30.1337 H   0  0  0  0  0  0  0  0  0  0  0  0
   -5.9060   25.7040  -31.9358 H   0  0  0  0  0  0  0  0  0  0  0  0
   -7.2150   23.5883  -32.1014 H   0  0  0  0  0  0  0  0  0  0  0  0
   -6.8215   21.7462  -30.4650 H   0  0  0  0  0  0  0  0  0  0  0  0
   -5.1275   22.0163  -28.6590 H   0  0  0  0  0  0  0  0  0  0  0  0
    0.5217   22.3154  -28.8111 H   0  0  0  0  0  0  0  0  0  0  0  0
   -0.3385   21.2765  -27.6026 H   0  0  0  0  0  0  0  0  0  0  0  0
   -1.5190   22.6710  -30.8590 H   0  0  0  0  0  0  0  0  0  0  0  0
   -0.4748   19.8511  -32.3553 H   0  0  0  0  0  0  0  0  0  0  0  0
   -1.5789   18.5455  -34.1677 H   0  0  0  0  0  0  0  0  0  0  0  0
   -3.9981   18.8870  -34.6619 H   0  0  0  0  0  0  0  0  0  0  0  0
   -7.9106   21.6675  -32.7529 H   0  0  0  0  0  0  0  0  0  0  0  0
   -9.8364   20.4868  -31.6960 H   0  0  0  0  0  0  0  0  0  0  0  0
   -9.6885   18.0428  -31.2010 H   0  0  0  0  0  0  0  0  0  0  0  0
   -7.6010   16.7838  -31.7454 H   0  0  0  0  0  0  0  0  0  0  0  0
   -5.6689   17.9619  -32.7991 H   0  0  0  0  0  0  0  0  0  0  0  0
   -4.2218   21.8527  -31.5159 H   0  0  0  0  0  0  0  0  0  0  0  0
  2  1  1  1
  2  3  1  0
  3  4  2  0
  4  5  1  0
  5  6  2  0
  6  7  1  0
  7  8  2  0
  2  9  1  0
  9 10  1  0
 10 11  2  0
 10 12  1  0
 12 13  1  0
 13 14  1  0
 14 15  2  0
 14 16  1  0
 16 17  1  0
 17 18  2  0
 18 19  1  0
 19 20  2  0
 20 21  1  0
 21 22  1  0
 22 23  1  0
 23 24  2  0
 24 25  1  0
 25 26  2  0
 26 27  1  0
 27 28  2  0
 21 29  2  0
 12 30  1  0
 30 31  2  0
 30  2  1  0
  8  3  1  0
 29 17  1  0
 28 23  1  0
  1 32  1  0
  1 33  1  0
  1 34  1  0
  4 35  1  0
  5 36  1  0
  6 37  1  0
  7 38  1  0
  8 39  1  0
 13 40  1  0
 13 41  1  0
 16 42  1  0
 18 43  1  0
 19 44  1  0
 20 45  1  0
 24 46  1  0
 25 47  1  0
 26 48  1  0
 27 49  1  0
 28 50  1  0
 29 51  1  0
M  CHG  1   9  -1
M  END
>  <UniqueID>  (23) 
23

>  <SMILES>  (23) 
C[C@@]1(c2ccccc2)[N-]C(=O)N(CC(=O)Nc2cccc(Oc3ccccc3)c2)C1=O

>  <Energy>  (23) 
84.87038804403633

>  <Genealogy>  (23) 
CC1(c2ccccc2)[N-]C(=O)N(CC(=O)Nc2cccc(Oc3ccccc3)c2)C1=O (protonated)
C[C@@]1(c2ccccc2)[N-]C(=O)N(CC(=O)Nc2cccc(Oc3ccccc3)c2)C1=O (chirality)
C[C@@]1(c2ccccc2)[N-]C(=O)N(CC(=O)Nc2cccc(Oc3ccccc3)c2)C1=O (3D coordinates assigned)
C[C@@]1(c2ccccc2)[N-]C(=O)N(CC(=O)Nc2cccc(Oc3ccccc3)c2)C1=O (nonaromatic ring conformer: 84.87038804403633 kcal/mol)

>  <smiles>  (23) 
CC1(c2ccccc2)NC(=O)N(CC(=O)Nc2cccc(Oc3ccccc3)c2)C1=O

>  <score_type>  (23) 
oracle

>  <origin>  (23) 
adgpu

>  <m_score__min__energy>  (23) 
-10.82

>  <m_primary>  (23) 
energy

$$$$
23:0
     RDKit          3D

 43 45  0  0  0  0  0  0  0  0999 V2000
   -9.1410   19.7680  -32.7370 C   0  0  0  0  0  0  0  0  0  0  0  0
   -7.7120   20.1060  -32.5010 C   0  0  0  0  0  0  0  0  0  0  0  0
   -7.3420   21.4090  -32.6730 C   0  0  0  0  0  0  0  0  0  0  0  0
   -6.0300   21.7690  -32.4820 C   0  0  0  0  0  0  0  0  0  0  0  0
   -5.0210   20.8860  -32.1190 C   0  0  0  0  0  0  0  0  0  0  0  0
   -3.6380   21.3390  -32.0010 C   0  0  0  0  0  0  0  0  0  0  0  0
   -2.9030   21.2670  -33.1320 N   0  0  0  0  0  0  0  0  0  0  0  0
   -1.5960   21.5530  -33.1560 C   0  0  0  0  0  0  0  0  0  0  0  0
   -0.8840   21.4780  -34.2260 N   0  0  0  0  0  0  0  0  0  0  0  0
   -1.0180   21.9180  -32.0170 N   0  0  0  0  0  0  0  0  0  0  0  0
   -1.7180   22.0080  -30.8480 C   0  0  0  0  0  0  0  0  0  0  0  0
   -1.0370   22.3620  -29.8290 N   0  0  0  0  0  0  0  0  0  0  0  0
   -3.0720   21.7270  -30.7750 C   0  0  0  0  0  0  0  0  0  0  0  0
   -3.8910   22.0700  -29.5930 C   0  0  0  0  0  0  0  0  0  0  0  0
   -4.7370   23.3240  -29.8150 C   0  0  0  0  0  0  0  0  0  0  0  0
   -4.0900   24.5250  -30.1380 C   0  0  0  0  0  0  0  0  0  0  0  0
   -2.7360   24.6520  -30.0660 F   0  0  0  0  0  0  0  0  0  0  0  0
   -4.7880   25.6700  -30.4560 C   0  0  0  0  0  0  0  0  0  0  0  0
   -6.1680   25.5920  -30.4430 C   0  0  0  0  0  0  0  0  0  0  0  0
   -6.8390   24.4060  -30.1210 C   0  0  0  0  0  0  0  0  0  0  0  0
   -6.1160   23.2480  -29.8010 C   0  0  0  0  0  0  0  0  0  0  0  0
   -6.7740   22.1160  -29.4900 F   0  0  0  0  0  0  0  0  0  0  0  0
   -5.4100   19.5720  -31.9460 C   0  0  0  0  0  0  0  0  0  0  0  0
   -6.7490   19.2010  -32.1400 C   0  0  0  0  0  0  0  0  0  0  0  0
   -7.2020   17.7920  -31.9420 C   0  0  0  0  0  0  0  0  0  0  0  0
   -9.6534   19.6468  -31.7712 H   0  0  0  0  0  0  0  0  0  0  0  0
   -9.6200   20.5776  -33.3072 H   0  0  0  0  0  0  0  0  0  0  0  0
   -9.2065   18.8296  -33.3072 H   0  0  0  0  0  0  0  0  0  0  0  0
   -8.0880   22.1640  -32.9620 H   0  0  0  0  0  0  0  0  0  0  0  0
   -5.7609   22.8258  -32.6260 H   0  0  0  0  0  0  0  0  0  0  0  0
   -3.3400   20.9850  -34.0320 H   0  0  0  0  0  0  0  0  0  0  0  0
   -1.3640   21.1770  -35.1110 H   0  0  0  0  0  0  0  0  0  0  0  0
    0.0170   22.1410  -32.0190 H   0  0  0  0  0  0  0  0  0  0  0  0
   -0.0190   22.5770  -29.8480 H   0  0  0  0  0  0  0  0  0  0  0  0
   -4.5611   21.2265  -29.3705 H   0  0  0  0  0  0  0  0  0  0  0  0
   -3.2055   22.2713  -28.7566 H   0  0  0  0  0  0  0  0  0  0  0  0
   -4.2690   26.6062  -30.7094 H   0  0  0  0  0  0  0  0  0  0  0  0
   -6.7560   26.4875  -30.6928 H   0  0  0  0  0  0  0  0  0  0  0  0
   -7.9387   24.3826  -30.1191 H   0  0  0  0  0  0  0  0  0  0  0  0
   -4.6676   18.8141  -31.6552 H   0  0  0  0  0  0  0  0  0  0  0  0
   -7.2711   17.5769  -30.8654 H   0  0  0  0  0  0  0  0  0  0  0  0
   -8.1893   17.6555  -32.4073 H   0  0  0  0  0  0  0  0  0  0  0  0
   -6.4792   17.1057  -32.4073 H   0  0  0  0  0  0  0  0  0  0  0  0
  1  2  1  0
  2  3  2  0
  3  4  1  0
  4  5  2  0
  5  6  1  0
  6  7  1  0
  7  8  1  0
  8  9  2  3
  8 10  1  0
 10 11  1  0
 11 12  2  3
 11 13  1  0
 13 14  1  0
 14 15  1  0
 15 16  2  0
 16 17  1  0
 16 18  1  0
 18 19  2  0
 19 20  1  0
 20 21  2  0
 21 22  1  0
  5 23  1  0
 23 24  2  0
 24 25  1  0
 24  2  1  0
 13  6  2  0
 21 15  1  0
  1 26  1  0
  1 27  1  0
  1 28  1  0
  3 29  1  0
  4 30  1  0
  7 31  1  0
  9 32  1  0
 10 33  1  0
 12 34  1  0
 14 35  1  0
 14 36  1  0
 18 37  1  0
 19 38  1  0
 20 39  1  0
 23 40  1  0
 25 41  1  0
 25 42  1  0
 25 43  1  0
M  END
>  <smiles>  (24) 
Cc1ccc(-c2[nH]c(=N)[nH]c(=N)c2Cc2c(F)cccc2F)cc1C

>  <score_type>  (24) 
oracle

>  <origin>  (24) 
adgpu

>  <m_score__min__energy>  (24) 
-7.8799999999999999

>  <m_primary>  (24) 
energy

$$$$
24:0
     RDKit          3D

 55 58  0  0  0  0  0  0  0  0999 V2000
   -6.2755   26.3588  -30.3283 H   0  0  0  0  0  0  0  0  0  0  0  0
   -5.6970   25.4410  -30.5100 C   0  0  0  0  0  0  0  0  0  0  0  0
   -4.5780   25.1890  -29.7810 N   0  0  0  0  0  0  0  0  0  0  0  0
   -3.8300   24.0650  -29.9720 C   0  0  0  0  0  0  0  0  0  0  0  0
   -2.7780   23.8220  -29.2440 N   0  0  0  0  0  0  0  0  0  0  0  0
   -2.1980   24.6810  -28.2490 C   0  0  0  0  0  0  0  0  0  0  0  0
   -0.9990   25.3830  -28.4760 C   0  0  0  0  0  0  0  0  0  0  0  0
   -0.4946   25.3048  -29.4504 H   0  0  0  0  0  0  0  0  0  0  0  0
   -0.4460   26.1800  -27.4670 C   0  0  0  0  0  0  0  0  0  0  0  0
    0.4842   26.7364  -27.6544 H   0  0  0  0  0  0  0  0  0  0  0  0
   -1.0750   26.2700  -26.2200 C   0  0  0  0  0  0  0  0  0  0  0  0
   -0.5040   27.0850  -25.1810 C   0  0  0  0  0  0  0  0  0  0  0  0
   -0.0450   27.7420  -24.3460 N   0  0  0  0  0  0  0  0  0  0  0  0
   -2.2510   25.5490  -25.9800 C   0  0  0  0  0  0  0  0  0  0  0  0
   -2.7411   25.6093  -24.9971 H   0  0  0  0  0  0  0  0  0  0  0  0
   -2.8030   24.7530  -26.9870 C   0  0  0  0  0  0  0  0  0  0  0  0
   -3.7196   24.1784  -26.7876 H   0  0  0  0  0  0  0  0  0  0  0  0
   -4.2260   23.1300  -30.9370 C   0  0  0  0  0  0  0  0  0  0  0  0
   -3.6479   22.2049  -31.0786 H   0  0  0  0  0  0  0  0  0  0  0  0
   -5.3630   23.3770  -31.7230 C   0  0  0  0  0  0  0  0  0  0  0  0
   -5.8090   22.4360  -32.7140 N   0  0  0  0  0  0  0  0  0  0  0  0
   -6.6840   22.6600  -33.2420 H   0  0  0  0  0  0  0  0  0  0  0  0
   -5.1310   21.2080  -33.0310 C   0  0  0  0  0  0  0  0  0  0  0  0
   -3.7660   21.2370  -33.3340 C   0  0  0  0  0  0  0  0  0  0  0  0
   -3.2321   22.1985  -33.3566 H   0  0  0  0  0  0  0  0  0  0  0  0
   -3.0760   20.0550  -33.6080 C   0  0  0  0  0  0  0  0  0  0  0  0
   -2.0055   20.0947  -33.8577 H   0  0  0  0  0  0  0  0  0  0  0  0
   -3.7350   18.8160  -33.5680 C   0  0  0  0  0  0  0  0  0  0  0  0
   -2.9460   17.5970  -33.8390 C   0  0  0  0  0  0  0  0  0  0  0  0
   -2.1780   17.5760  -34.8380 O   0  0  0  0  0  0  0  0  0  0  0  0
   -3.0460   16.4560  -32.9690 N   0  0  0  0  0  0  0  0  0  0  0  0
   -3.7330   16.4890  -32.1840 H   0  0  0  0  0  0  0  0  0  0  0  0
   -2.3380   15.2220  -33.1770 C   0  0  0  0  0  0  0  0  0  0  0  0
   -1.2780   14.8360  -32.3400 C   0  0  0  0  0  0  0  0  0  0  0  0
   -0.9649   15.4930  -31.5152 H   0  0  0  0  0  0  0  0  0  0  0  0
   -0.6190   13.6210  -32.5500 C   0  0  0  0  0  0  0  0  0  0  0  0
    0.2231   13.3358  -31.9024 H   0  0  0  0  0  0  0  0  0  0  0  0
   -1.0270   12.7640  -33.5830 C   0  0  0  0  0  0  0  0  0  0  0  0
   -0.2920   11.4800  -33.8370 C   0  0  0  0  0  0  0  0  0  0  0  0
   -0.0253   11.0141  -32.8769 H   0  0  0  0  0  0  0  0  0  0  0  0
   -0.9355   10.7963  -34.4101 H   0  0  0  0  0  0  0  0  0  0  0  0
    0.6234   11.6887  -34.4101 H   0  0  0  0  0  0  0  0  0  0  0  0
   -2.0890   13.1460  -34.4150 C   0  0  0  0  0  0  0  0  0  0  0  0
   -2.4042   12.4877  -35.2380 H   0  0  0  0  0  0  0  0  0  0  0  0
   -2.7490   14.3600  -34.2030 C   0  0  0  0  0  0  0  0  0  0  0  0
   -3.5965   14.6406  -34.8456 H   0  0  0  0  0  0  0  0  0  0  0  0
   -5.1230   18.7760  -33.2820 C   0  0  0  0  0  0  0  0  0  0  0  0
   -5.9070   17.4890  -33.2760 C   0  0  0  0  0  0  0  0  0  0  0  0
   -6.0956   17.1794  -32.2375 H   0  0  0  0  0  0  0  0  0  0  0  0
   -6.8659   17.6414  -33.7931 H   0  0  0  0  0  0  0  0  0  0  0  0
   -5.3318   16.7068  -33.7931 H   0  0  0  0  0  0  0  0  0  0  0  0
   -5.7970   19.9720  -32.9840 C   0  0  0  0  0  0  0  0  0  0  0  0
   -6.8618   19.9402  -32.7099 H   0  0  0  0  0  0  0  0  0  0  0  0
   -6.1130   24.5380  -31.4880 C   0  0  0  0  0  0  0  0  0  0  0  0
   -7.0242   24.7355  -32.0716 H   0  0  0  0  0  0  0  0  0  0  0  0
  1  2  1  0
  2  3  1  0
  3  4  1  0
  4  5  2  0
  5  6  1  0
  6  7  2  0
  7  8  1  0
  7  9  1  0
  9 10  1  0
  9 11  2  0
 11 12  1  0
 12 13  3  0
 11 14  1  0
 14 15  1  0
 14 16  2  0
 16 17  1  0
  4 18  1  0
 18 19  1  0
 18 20  2  0
 20 21  1  0
 21 22  1  0
 21 23  1  0
 23 24  2  0
 24 25  1  0
 24 26  1  0
 26 27  1  0
 26 28  2  0
 28 29  1  0
 29 30  2  0
 29 31  1  0
 31 32  1  0
 31 33  1  0
 33 34  2  0
 34 35  1  0
 34 36  1  0
 36 37  1  0
 36 38  2  0
 38 39  1  0
 39 40  1  0
 39 41  1  0
 39 42  1  0
 38 43  1  0
 43 44  1  0
 43 45  2  0
 45 46  1  0
 28 47  1  0
 47 48  1  0
 48 49  1  0
 48 50  1  0
 48 51  1  0
 47 52  2  0
 52 53  1  0
 20 54  1  0
 54 55  1  0
 54  2  2  0
 16  6  1  0
 52 23  1  0
 45 33  1  0
M  CHG  1   3  -1
M  END
>  <UniqueID>  (25) 
24

>  <SMILES>  (25) 
Cc1ccc(NC(=O)c2ccc(Nc3cc[n-]/c(=N\c4ccc(C#N)cc4)c3)cc2C)cc1

>  <Energy>  (25) 
80.47105619043381

>  <Genealogy>  (25) 
Cc1ccc(NC(=O)c2ccc(Nc3cc[n-]c(=Nc4ccc(C#N)cc4)c3)cc2C)cc1 (protonated)
Cc1ccc(NC(=O)c2ccc(Nc3cc[n-]/c(=N\c4ccc(C#N)cc4)c3)cc2C)cc1 (cis-trans isomerization)
Cc1ccc(NC(=O)c2ccc(Nc3cc[n-]/c(=N\c4ccc(C#N)cc4)c3)cc2C)cc1 (3D coordinates assigned)
Cc1ccc(NC(=O)c2ccc(Nc3cc[n-]/c(=N\c4ccc(C#N)cc4)c3)cc2C)cc1 (optimized conformer: 80.47105619043381 kcal/mol)

>  <smiles>  (25) 
Cc1ccc(NC(=O)c2ccc(Nc3cc[nH]c(=Nc4ccc(C#N)cc4)c3)cc2C)cc1

>  <score_type>  (25) 
oracle

>  <origin>  (25) 
adgpu

>  <m_score__min__energy>  (25) 
-9.4100000000000001

>  <m_primary>  (25) 
energy

$$$$
25:0
     RDKit          3D

 28 30  0  0  0  0  0  0  0  0999 V2000
    0.1290   24.6280  -28.1080 O   0  0  0  0  0  0  0  0  0  0  0  0
   -0.9100   24.4950  -28.8050 C   0  0  0  0  0  0  0  0  0  0  0  0
   -1.8220   25.4790  -28.9490 N   0  0  0  0  0  0  0  0  0  0  0  0
   -2.7370   24.9200  -29.7570 C   0  0  0  0  0  0  0  0  0  0  0  0
   -3.8620   25.5960  -30.2150 O   0  0  0  0  0  0  0  0  0  0  0  0
   -2.3720   23.6260  -30.0750 C   0  0  0  0  0  0  0  0  0  0  0  0
   -3.0840   22.6590  -30.9450 C   0  0  0  0  0  0  0  0  0  0  0  0
   -2.3850   21.7520  -31.7600 C   0  0  0  0  0  0  0  0  0  0  0  0
   -3.0780   20.8580  -32.5790 C   0  0  0  0  0  0  0  0  0  0  0  0
   -4.4730   20.8620  -32.6010 C   0  0  0  0  0  0  0  0  0  0  0  0
   -5.1950   21.7670  -31.8060 C   0  0  0  0  0  0  0  0  0  0  0  0
   -6.6810   21.7750  -31.8330 C   0  0  0  0  0  0  0  0  0  0  0  0
   -7.3890   22.9870  -31.9450 C   0  0  0  0  0  0  0  0  0  0  0  0
   -8.7870   22.9920  -31.9700 C   0  0  0  0  0  0  0  0  0  0  0  0
   -9.4930   21.7890  -31.8840 C   0  0  0  0  0  0  0  0  0  0  0  0
   -8.8030   20.5800  -31.7740 C   0  0  0  0  0  0  0  0  0  0  0  0
   -7.4050   20.5710  -31.7490 C   0  0  0  0  0  0  0  0  0  0  0  0
   -4.4900   22.6660  -30.9850 C   0  0  0  0  0  0  0  0  0  0  0  0
   -1.1970   23.3580  -29.4730 N   0  0  0  0  0  0  0  0  0  0  0  0
   -1.2850   21.7463  -31.7527 H   0  0  0  0  0  0  0  0  0  0  0  0
   -2.5220   20.1481  -33.2090 H   0  0  0  0  0  0  0  0  0  0  0  0
   -5.0111   20.1514  -33.2455 H   0  0  0  0  0  0  0  0  0  0  0  0
   -6.8383   23.9368  -32.0133 H   0  0  0  0  0  0  0  0  0  0  0  0
   -9.3316   23.9437  -32.0574 H   0  0  0  0  0  0  0  0  0  0  0  0
  -10.5928   21.7945  -31.9030 H   0  0  0  0  0  0  0  0  0  0  0  0
   -9.3598   19.6337  -31.7069 H   0  0  0  0  0  0  0  0  0  0  0  0
   -6.8669   19.6155  -31.6630 H   0  0  0  0  0  0  0  0  0  0  0  0
   -5.0463   23.3848  -30.3654 H   0  0  0  0  0  0  0  0  0  0  0  0
  1  2  2  0
  2  3  1  0
  3  4  1  0
  4  5  1  0
  4  6  2  0
  6  7  1  0
  7  8  2  0
  8  9  1  0
  9 10  2  0
 10 11  1  0
 11 12  1  0
 12 13  2  0
 13 14  1  0
 14 15  2  0
 15 16  1  0
 16 17  2  0
 11 18  2  0
  6 19  1  0
 19  2  1  0
 18  7  1  0
 17 12  1  0
  8 20  1  0
  9 21  1  0
 10 22  1  0
 13 23  1  0
 14 24  1  0
 15 25  1  0
 16 26  1  0
 17 27  1  0
 18 28  1  0
M  CHG  3   3  -1   5  -1  19  -1
M  END
>  <UniqueID>  (26) 
25

>  <SMILES>  (26) 
O=c1[n-]c([O-])c(-c2cccc(-c3ccccc3)c2)[n-]1

>  <Energy>  (26) 
68.93979089297525

>  <Genealogy>  (26) 
O=c1[n-]c([O-])c(-c2cccc(-c3ccccc3)c2)[n-]1 (protonated)
O=c1[n-]c([O-])c(-c2cccc(-c3ccccc3)c2)[n-]1 (3D coordinates assigned)
O=c1[n-]c([O-])c(-c2cccc(-c3ccccc3)c2)[n-]1 (optimized conformer: 68.93979089297525 kcal/mol)

>  <smiles>  (26) 
O=c1[nH]c(O)c(-c2cccc(-c3ccccc3)c2)[nH]1

>  <score_type>  (26) 
oracle

>  <origin>  (26) 
adgpu

>  <m_score__min__energy>  (26) 
-12.65

>  <m_primary>  (26) 
energy

$$$$
26:0
     RDKit          3D

 33 35  0  0  0  0  0  0  0  0999 V2000
   -5.0150   26.8910  -30.3230 H   0  0  0  0  0  0  0  0  0  0  0  0
   -5.3350   26.0230  -30.8090 N   0  0  0  0  0  0  0  0  0  0  0  0
   -4.6990   24.9020  -30.6820 C   0  0  0  0  0  0  0  0  0  0  0  0
   -3.5900   24.8460  -29.8960 N   0  0  0  0  0  0  0  0  0  0  0  0
   -2.8840   23.6980  -29.7070 C   0  0  0  0  0  0  0  0  0  0  0  0
   -1.6790   23.7240  -28.8460 C   0  0  0  0  0  0  0  0  0  0  0  0
   -1.2670   22.5410  -28.2070 C   0  0  0  0  0  0  0  0  0  0  0  0
   -1.8396   21.6135  -28.3546 H   0  0  0  0  0  0  0  0  0  0  0  0
   -0.1360   22.5340  -27.3860 C   0  0  0  0  0  0  0  0  0  0  0  0
    0.1747   21.6041  -26.8872 H   0  0  0  0  0  0  0  0  0  0  0  0
    0.6000   23.7050  -27.1980 C   0  0  0  0  0  0  0  0  0  0  0  0
    1.4843   23.6996  -26.5438 H   0  0  0  0  0  0  0  0  0  0  0  0
    0.2140   24.8830  -27.8400 C   0  0  0  0  0  0  0  0  0  0  0  0
    0.7986   25.8031  -27.6933 H   0  0  0  0  0  0  0  0  0  0  0  0
   -0.9140   24.8990  -28.6700 C   0  0  0  0  0  0  0  0  0  0  0  0
   -1.2450   26.0760  -29.3330 O   0  0  0  0  0  0  0  0  0  0  0  0
   -3.2870   22.5280  -30.3660 C   0  0  0  0  0  0  0  0  0  0  0  0
   -2.7129   21.5988  -30.2353 H   0  0  0  0  0  0  0  0  0  0  0  0
   -4.4200   22.5400  -31.1910 C   0  0  0  0  0  0  0  0  0  0  0  0
   -4.8160   21.2870  -31.8800 C   0  0  0  0  0  0  0  0  0  0  0  0
   -3.9590   20.7040  -32.8300 C   0  0  0  0  0  0  0  0  0  0  0  0
   -2.9891   21.1724  -33.0534 H   0  0  0  0  0  0  0  0  0  0  0  0
   -4.3350   19.5310  -33.4920 C   0  0  0  0  0  0  0  0  0  0  0  0
   -3.6574   19.0760  -34.2294 H   0  0  0  0  0  0  0  0  0  0  0  0
   -5.5700   18.9350  -33.2190 C   0  0  0  0  0  0  0  0  0  0  0  0
   -6.0390   17.4650  -34.0520 Cl  0  0  0  0  0  0  0  0  0  0  0  0
   -6.4320   19.5150  -32.2830 C   0  0  0  0  0  0  0  0  0  0  0  0
   -7.4041   19.0472  -32.0678 H   0  0  0  0  0  0  0  0  0  0  0  0
   -6.0600   20.6890  -31.6200 C   0  0  0  0  0  0  0  0  0  0  0  0
   -6.7453   21.1464  -30.8911 H   0  0  0  0  0  0  0  0  0  0  0  0
   -5.1480   23.7430  -31.3440 C   0  0  0  0  0  0  0  0  0  0  0  0
   -6.3610   23.7850  -32.1350 C   0  0  0  0  0  0  0  0  0  0  0  0
   -7.3310   23.8200  -32.7660 N   0  0  0  0  0  0  0  0  0  0  0  0
  1  2  1  0
  2  3  2  0
  3  4  1  0
  4  5  1  0
  5  6  1  0
  6  7  2  0
  7  8  1  0
  7  9  1  0
  9 10  1  0
  9 11  2  0
 11 12  1  0
 11 13  1  0
 13 14  1  0
 13 15  2  0
 15 16  1  0
  5 17  2  0
 17 18  1  0
 17 19  1  0
 19 20  1  0
 20 21  2  0
 21 22  1  0
 21 23  1  0
 23 24  1  0
 23 25  2  0
 25 26  1  0
 25 27  1  0
 27 28  1  0
 27 29  2  0
 29 30  1  0
 19 31  2  0
 31 32  1  0
 32 33  3  0
 31  3  1  0
 15  6  1  0
 29 20  1  0
M  CHG  2   4  -1  16  -1
M  END
>  <UniqueID>  (27) 
26

>  <SMILES>  (27) 
[H]/N=c1\[n-]c(-c2ccccc2[O-])cc(-c2ccc(Cl)cc2)c1C#N

>  <Energy>  (27) 
50.43550383181226

>  <Genealogy>  (27) 
N#Cc1c(-c2ccc(Cl)cc2)cc(-c2ccccc2[O-])[n-]c1=N (protonated)
[H]/N=c1\[n-]c(-c2ccccc2[O-])cc(-c2ccc(Cl)cc2)c1C#N (cis-trans isomerization)
[H]/N=c1\[n-]c(-c2ccccc2[O-])cc(-c2ccc(Cl)cc2)c1C#N (3D coordinates assigned)
[H]/N=c1\[n-]c(-c2ccccc2[O-])cc(-c2ccc(Cl)cc2)c1C#N (optimized conformer: 50.43550383181226 kcal/mol)

>  <smiles>  (27) 
N#Cc1c(-c2ccc(Cl)cc2)cc(-c2ccccc2O)[nH]c1=N

>  <score_type>  (27) 
oracle

>  <origin>  (27) 
adgpu

>  <m_score__min__energy>  (27) 
-13.09

>  <m_primary>  (27) 
energy

$$$$
27:0
     RDKit          3D

 36 38  0  0  0  0  0  0  0  0999 V2000
    1.3440   22.2360  -35.0420 N   0  0  0  0  0  0  0  0  0  0  0  0
    0.8040   20.5950  -34.9950 S   0  0  0  0  0  0  0  0  0  0  0  0
    0.7840   20.0350  -36.3890 O   0  0  0  0  0  0  0  0  0  0  0  0
    1.7510   19.7780  -34.1600 O   0  0  0  0  0  0  0  0  0  0  0  0
   -0.8120   20.5270  -34.3010 C   0  0  0  0  0  0  0  0  0  0  0  0
   -1.2830   21.5810  -33.5070 C   0  0  0  0  0  0  0  0  0  0  0  0
   -2.5700   21.5330  -32.9630 C   0  0  0  0  0  0  0  0  0  0  0  0
   -3.3980   20.4250  -33.1990 C   0  0  0  0  0  0  0  0  0  0  0  0
   -4.7250   20.3930  -32.6460 N   0  0  0  0  0  0  0  0  0  0  0  0
   -5.6870   19.6370  -33.1510 N   0  0  0  0  0  0  0  0  0  0  0  0
   -6.7730   19.7750  -32.3640 C   0  0  0  0  0  0  0  0  0  0  0  0
   -8.0550   19.0330  -32.5680 C   0  0  0  0  0  0  0  0  0  0  0  0
   -8.6750   18.8430  -31.3480 F   0  0  0  0  0  0  0  0  0  0  0  0
   -8.8920   19.7590  -33.3970 F   0  0  0  0  0  0  0  0  0  0  0  0
   -7.8030   17.8030  -33.1470 F   0  0  0  0  0  0  0  0  0  0  0  0
   -6.4900   20.6260  -31.3120 C   0  0  0  0  0  0  0  0  0  0  0  0
   -5.1820   21.0170  -31.5320 C   0  0  0  0  0  0  0  0  0  0  0  0
   -4.4550   22.0220  -30.7250 C   0  0  0  0  0  0  0  0  0  0  0  0
   -3.7370   21.6230  -29.5850 C   0  0  0  0  0  0  0  0  0  0  0  0
   -3.0560   22.5690  -28.8130 C   0  0  0  0  0  0  0  0  0  0  0  0
   -3.0940   23.9210  -29.1660 C   0  0  0  0  0  0  0  0  0  0  0  0
   -3.8220   24.3300  -30.2880 C   0  0  0  0  0  0  0  0  0  0  0  0
   -3.8670   25.6750  -30.6320 O   0  0  0  0  0  0  0  0  0  0  0  0
   -4.5050   23.3870  -31.0620 C   0  0  0  0  0  0  0  0  0  0  0  0
   -2.9350   19.3840  -34.0220 C   0  0  0  0  0  0  0  0  0  0  0  0
   -1.6480   19.4330  -34.5640 C   0  0  0  0  0  0  0  0  0  0  0  0
    1.7240   22.4040  -36.0010 H   0  0  0  0  0  0  0  0  0  0  0  0
   -0.6375   22.4498  -33.3109 H   0  0  0  0  0  0  0  0  0  0  0  0
   -2.9353   22.3679  -32.3470 H   0  0  0  0  0  0  0  0  0  0  0  0
   -7.1542   20.9243  -30.4875 H   0  0  0  0  0  0  0  0  0  0  0  0
   -3.7106   20.5613  -29.2986 H   0  0  0  0  0  0  0  0  0  0  0  0
   -2.4893   22.2488  -27.9263 H   0  0  0  0  0  0  0  0  0  0  0  0
   -2.5516   24.6629  -28.5616 H   0  0  0  0  0  0  0  0  0  0  0  0
   -5.0840   23.7138  -31.9383 H   0  0  0  0  0  0  0  0  0  0  0  0
   -3.5888   18.5268  -34.2405 H   0  0  0  0  0  0  0  0  0  0  0  0
   -1.2895   18.6099  -35.1995 H   0  0  0  0  0  0  0  0  0  0  0  0
  1  2  1  0
  2  3  2  0
  2  4  2  0
  2  5  1  0
  5  6  2  0
  6  7  1  0
  7  8  2  0
  8  9  1  0
  9 10  1  0
 10 11  2  0
 11 12  1  0
 12 13  1  0
 12 14  1  0
 12 15  1  0
 11 16  1  0
 16 17  2  0
 17 18  1  0
 18 19  2  0
 19 20  1  0
 20 21  2  0
 21 22  1  0
 22 23  1  0
 22 24  2  0
  8 25  1  0
 25 26  2  0
 26  5  1  0
 17  9  1  0
 24 18  1  0
  1 27  1  0
  6 28  1  0
  7 29  1  0
 16 30  1  0
 19 31  1  0
 20 32  1  0
 21 33  1  0
 24 34  1  0
 25 35  1  0
 26 36  1  0
M  CHG  2   1  -1  23  -1
M  END
>  <UniqueID>  (28) 
27

>  <SMILES>  (28) 
[NH-]S(=O)(=O)c1ccc(-n2nc(C(F)(F)F)cc2-c2cccc([O-])c2)cc1

>  <Energy>  (28) 
76.31889869275169

>  <Genealogy>  (28) 
[NH-]S(=O)(=O)c1ccc(-n2nc(C(F)(F)F)cc2-c2cccc([O-])c2)cc1 (protonated)
[NH-]S(=O)(=O)c1ccc(-n2nc(C(F)(F)F)cc2-c2cccc([O-])c2)cc1 (3D coordinates assigned)
[NH-]S(=O)(=O)c1ccc(-n2nc(C(F)(F)F)cc2-c2cccc([O-])c2)cc1 (optimized conformer: 76.31889869275169 kcal/mol)

>  <smiles>  (28) 
NS(=O)(=O)c1ccc(-n2nc(C(F)(F)F)cc2-c2cccc(O)c2)cc1

>  <score_type>  (28) 
oracle

>  <origin>  (28) 
adgpu

>  <m_score__min__energy>  (28) 
-10.369999999999999

>  <m_primary>  (28) 
energy

$$$$
28:0
     RDKit          3D

 48 50  0  0  0  0  0  0  0  0999 V2000
    0.4940   21.9120  -35.4240 C   0  0  0  0  0  0  0  0  0  0  0  0
   -0.2930   21.8720  -34.2370 O   0  0  0  0  0  0  0  0  0  0  0  0
   -1.2780   20.9060  -33.9680 C   0  0  0  0  0  0  0  0  0  0  0  0
   -2.4960   21.3330  -33.4290 C   0  0  0  0  0  0  0  0  0  0  0  0
   -3.5150   20.4140  -33.1620 C   0  0  0  0  0  0  0  0  0  0  0  0
   -3.3380   19.0470  -33.4340 C   0  0  0  0  0  0  0  0  0  0  0  0
   -4.4130   18.1290  -33.1610 N   0  0  0  0  0  0  0  0  0  0  0  0
   -5.9590   18.1920  -33.9490 S   0  0  0  0  0  0  0  0  0  0  0  0
   -6.4460   16.7920  -34.1970 O   0  0  0  0  0  0  0  0  0  0  0  0
   -5.8100   18.8980  -35.2690 O   0  0  0  0  0  0  0  0  0  0  0  0
   -7.1240   19.0210  -32.9190 C   0  0  0  0  0  0  0  0  0  0  0  0
   -7.9230   18.2990  -32.0240 C   0  0  0  0  0  0  0  0  0  0  0  0
   -8.8420   18.9670  -31.2110 C   0  0  0  0  0  0  0  0  0  0  0  0
   -8.9540   20.3590  -31.2740 C   0  0  0  0  0  0  0  0  0  0  0  0
   -8.1430   21.0980  -32.1510 C   0  0  0  0  0  0  0  0  0  0  0  0
   -8.2480   22.5780  -32.1870 C   0  0  0  0  0  0  0  0  0  0  0  0
   -9.3820   23.1160  -32.0870 O   0  0  0  0  0  0  0  0  0  0  0  0
   -7.1040   23.4230  -32.3820 N   0  0  0  0  0  0  0  0  0  0  0  0
   -6.0430   23.6520  -31.4430 C   0  0  0  0  0  0  0  0  0  0  0  0
   -4.7970   23.0530  -31.6730 C   0  0  0  0  0  0  0  0  0  0  0  0
   -3.7430   23.2490  -30.7760 C   0  0  0  0  0  0  0  0  0  0  0  0
   -3.9190   24.0620  -29.6480 C   0  0  0  0  0  0  0  0  0  0  0  0
   -2.5890   24.2850  -28.5150 S   0  0  0  0  0  0  0  0  0  0  0  0
   -1.6710   25.6750  -28.9760 N   0  0  0  0  0  0  0  0  0  0  0  0
   -3.1400   24.4830  -27.1300 O   0  0  0  0  0  0  0  0  0  0  0  0
   -1.6960   23.0760  -28.5130 O   0  0  0  0  0  0  0  0  0  0  0  0
   -5.1570   24.6840  -29.4280 C   0  0  0  0  0  0  0  0  0  0  0  0
   -6.2090   24.4920  -30.3280 C   0  0  0  0  0  0  0  0  0  0  0  0
   -7.2450   20.4140  -32.9900 C   0  0  0  0  0  0  0  0  0  0  0  0
   -2.1050   18.6130  -33.9580 C   0  0  0  0  0  0  0  0  0  0  0  0
   -1.0850   19.5340  -34.2240 C   0  0  0  0  0  0  0  0  0  0  0  0
    1.5594   21.9662  -35.1559 H   0  0  0  0  0  0  0  0  0  0  0  0
    0.3107   21.0034  -36.0163 H   0  0  0  0  0  0  0  0  0  0  0  0
    0.2195   22.7974  -36.0163 H   0  0  0  0  0  0  0  0  0  0  0  0
   -2.6533   22.4002  -33.2135 H   0  0  0  0  0  0  0  0  0  0  0  0
   -4.4657   20.7649  -32.7343 H   0  0  0  0  0  0  0  0  0  0  0  0
   -4.3040   17.4370  -32.3840 H   0  0  0  0  0  0  0  0  0  0  0  0
   -7.8270   17.2050  -31.9610 H   0  0  0  0  0  0  0  0  0  0  0  0
   -9.4791   18.3961  -30.5195 H   0  0  0  0  0  0  0  0  0  0  0  0
   -9.6815   20.8786  -30.6331 H   0  0  0  0  0  0  0  0  0  0  0  0
   -4.6477   22.4254  -32.5640 H   0  0  0  0  0  0  0  0  0  0  0  0
   -2.7724   22.7636  -30.9560 H   0  0  0  0  0  0  0  0  0  0  0  0
   -1.6020   25.6630  -30.0180 H   0  0  0  0  0  0  0  0  0  0  0  0
   -5.3002   25.3243  -28.5451 H   0  0  0  0  0  0  0  0  0  0  0  0
   -7.1706   25.0001  -30.1632 H   0  0  0  0  0  0  0  0  0  0  0  0
   -6.6323   20.9785  -33.7083 H   0  0  0  0  0  0  0  0  0  0  0  0
   -1.9425   17.5439  -34.1595 H   0  0  0  0  0  0  0  0  0  0  0  0
   -0.1267   19.1844  -34.6355 H   0  0  0  0  0  0  0  0  0  0  0  0
  1  2  1  0
  2  3  1  0
  3  4  2  0
  4  5  1  0
  5  6  2  0
  6  7  1  0
  7  8  1  0
  8  9  2  0
  8 10  2  0
  8 11  1  0
 11 12  2  0
 12 13  1  0
 13 14  2  0
 14 15  1  0
 15 16  1  0
 16 17  2  0
 16 18  1  0
 18 19  1  0
 19 20  2  0
 20 21  1  0
 21 22  2  0
 22 23  1  0
 23 24  1  0
 23 25  2  0
 23 26  2  0
 22 27  1  0
 27 28  2  0
 15 29  2  0
  6 30  1  0
 30 31  2  0
 31  3  1  0
 29 11  1  0
 28 19  1  0
  1 32  1  0
  1 33  1  0
  1 34  1  0
  4 35  1  0
  5 36  1  0
  7 37  1  0
 12 38  1  0
 13 39  1  0
 14 40  1  0
 20 41  1  0
 21 42  1  0
 24 43  1  0
 27 44  1  0
 28 45  1  0
 29 46  1  0
 30 47  1  0
 31 48  1  0
M  CHG  2  18  -1  24  -1
M  END
>  <UniqueID>  (29) 
28

>  <SMILES>  (29) 
COc1ccc(NS(=O)(=O)c2cccc(C(=O)[N-]c3ccc(S([NH-])(=O)=O)cc3)c2)cc1

>  <Energy>  (29) 
58.280069673943586

>  <Genealogy>  (29) 
COc1ccc(NS(=O)(=O)c2cccc(C(=O)[N-]c3ccc(S([NH-])(=O)=O)cc3)c2)cc1 (protonated)
COc1ccc(NS(=O)(=O)c2cccc(C(=O)[N-]c3ccc(S([NH-])(=O)=O)cc3)c2)cc1 (3D coordinates assigned)
COc1ccc(NS(=O)(=O)c2cccc(C(=O)[N-]c3ccc(S([NH-])(=O)=O)cc3)c2)cc1 (optimized conformer: 58.280069673943586 kcal/mol)

>  <smiles>  (29) 
COc1ccc(NS(=O)(=O)c2cccc(C(=O)Nc3ccc(S(N)(=O)=O)cc3)c2)cc1

>  <score_type>  (29) 
oracle

>  <origin>  (29) 
adgpu

>  <m_score__min__energy>  (29) 
-12.18

>  <m_primary>  (29) 
energy

$$$$
29:0
     RDKit          3D

 44 46  0  0  0  0  0  0  0  0999 V2000
    0.0070   25.0810  -27.5850 C   0  0  0  0  0  0  0  0  0  0  0  0
   -1.1820   26.0150  -27.7380 C   0  0  0  0  0  0  0  0  0  0  0  0
   -1.9050   25.6730  -28.9180 O   0  0  0  0  0  0  0  0  0  0  0  0
   -2.7480   24.5570  -29.0410 C   0  0  0  0  0  0  0  0  0  0  0  0
   -2.6230   23.4300  -28.2080 C   0  0  0  0  0  0  0  0  0  0  0  0
   -3.4750   22.3250  -28.3690 C   0  0  0  0  0  0  0  0  0  0  0  0
   -3.3680   21.1700  -27.5170 N   0  0  0  0  0  0  0  0  0  0  0  0
   -2.3070   20.2060  -27.5980 C   0  0  0  0  0  0  0  0  0  0  0  0
   -2.2740   19.1420  -26.6840 C   0  0  0  0  0  0  0  0  0  0  0  0
   -1.2620   18.1810  -26.7530 C   0  0  0  0  0  0  0  0  0  0  0  0
   -0.2850   18.2630  -27.7470 C   0  0  0  0  0  0  0  0  0  0  0  0
   -0.3220   19.3030  -28.6800 C   0  0  0  0  0  0  0  0  0  0  0  0
   -1.3330   20.2690  -28.6150 C   0  0  0  0  0  0  0  0  0  0  0  0
   -1.3810   21.2370  -29.5650 F   0  0  0  0  0  0  0  0  0  0  0  0
   -4.4810   22.3690  -29.3420 C   0  0  0  0  0  0  0  0  0  0  0  0
   -4.6260   23.4910  -30.1720 C   0  0  0  0  0  0  0  0  0  0  0  0
   -5.6790   23.4890  -31.2470 C   0  0  0  0  0  0  0  0  0  0  0  0
   -5.2490   22.2490  -32.5100 S   0  0  0  0  0  0  0  0  0  0  0  0
   -6.7810   21.3430  -32.3120 C   0  0  0  0  0  0  0  0  0  0  0  0
   -7.9240   21.9870  -31.8230 C   0  0  0  0  0  0  0  0  0  0  0  0
   -9.1080   21.2620  -31.6820 C   0  0  0  0  0  0  0  0  0  0  0  0
   -9.1400   19.9110  -32.0290 C   0  0  0  0  0  0  0  0  0  0  0  0
   -7.9800   19.3020  -32.5150 C   0  0  0  0  0  0  0  0  0  0  0  0
   -6.8360   20.0250  -32.6470 N   0  0  0  0  0  0  0  0  0  0  0  0
   -3.7440   24.5770  -30.0260 C   0  0  0  0  0  0  0  0  0  0  0  0
   -3.8530   25.6870  -30.8610 O   0  0  0  0  0  0  0  0  0  0  0  0
    0.2118   24.9201  -26.5163 H   0  0  0  0  0  0  0  0  0  0  0  0
   -0.2199   24.1171  -28.0640 H   0  0  0  0  0  0  0  0  0  0  0  0
    0.8897   25.5297  -28.0640 H   0  0  0  0  0  0  0  0  0  0  0  0
   -1.8408   25.9166  -26.8626 H   0  0  0  0  0  0  0  0  0  0  0  0
   -0.8260   27.0531  -27.8135 H   0  0  0  0  0  0  0  0  0  0  0  0
   -1.8515   23.4142  -27.4241 H   0  0  0  0  0  0  0  0  0  0  0  0
   -4.0870   21.0430  -26.7690 H   0  0  0  0  0  0  0  0  0  0  0  0
   -3.0498   19.0639  -25.9081 H   0  0  0  0  0  0  0  0  0  0  0  0
   -1.2350   17.3586  -26.0230 H   0  0  0  0  0  0  0  0  0  0  0  0
    0.5142   17.5088  -27.7959 H   0  0  0  0  0  0  0  0  0  0  0  0
    0.4446   19.3625  -29.4666 H   0  0  0  0  0  0  0  0  0  0  0  0
   -5.1648   21.5150  -29.4569 H   0  0  0  0  0  0  0  0  0  0  0  0
   -6.6549   23.2397  -30.8048 H   0  0  0  0  0  0  0  0  0  0  0  0
   -5.7325   24.4846  -31.7118 H   0  0  0  0  0  0  0  0  0  0  0  0
   -7.8891   23.0528  -31.5529 H   0  0  0  0  0  0  0  0  0  0  0  0
  -10.0137   21.7544  -31.2983 H   0  0  0  0  0  0  0  0  0  0  0  0
  -10.0686   19.3313  -31.9211 H   0  0  0  0  0  0  0  0  0  0  0  0
   -7.9923   18.2372  -32.7909 H   0  0  0  0  0  0  0  0  0  0  0  0
  1  2  1  0
  2  3  1  0
  3  4  1  0
  4  5  2  0
  5  6  1  0
  6  7  1  0
  7  8  1  0
  8  9  2  0
  9 10  1  0
 10 11  2  0
 11 12  1  0
 12 13  2  0
 13 14  1  0
  6 15  2  0
 15 16  1  0
 16 17  1  0
 17 18  1  0
 18 19  1  0
 19 20  2  0
 20 21  1  0
 21 22  2  0
 22 23  1  0
 23 24  2  0
 16 25  2  0
 25 26  1  0
 25  4  1  0
 13  8  1  0
 24 19  1  0
  1 27  1  0
  1 28  1  0
  1 29  1  0
  2 30  1  0
  2 31  1  0
  5 32  1  0
  7 33  1  0
  9 34  1  0
 10 35  1  0
 11 36  1  0
 12 37  1  0
 15 38  1  0
 17 39  1  0
 17 40  1  0
 20 41  1  0
 21 42  1  0
 22 43  1  0
 23 44  1  0
M  CHG  1  26  -1
M  END
>  <UniqueID>  (30) 
29

>  <SMILES>  (30) 
CCOc1cc(Nc2ccccc2F)cc(CSc2ccccn2)c1[O-]

>  <Energy>  (30) 
46.28576493081094

>  <Genealogy>  (30) 
CCOc1cc(Nc2ccccc2F)cc(CSc2ccccn2)c1[O-] (protonated)
CCOc1cc(Nc2ccccc2F)cc(CSc2ccccn2)c1[O-] (3D coordinates assigned)
CCOc1cc(Nc2ccccc2F)cc(CSc2ccccn2)c1[O-] (optimized conformer: 46.28576493081094 kcal/mol)

>  <smiles>  (30) 
CCOc1cc(Nc2ccccc2F)cc(CSc2ccccn2)c1O

>  <score_type>  (30) 
oracle

>  <origin>  (30) 
adgpu

>  <m_score__min__energy>  (30) 
-12.130000000000001

>  <m_primary>  (30) 
energy

$$$$
30:0
     RDKit          3D

 51 54  0  0  0  0  0  0  0  0999 V2000
   -1.1310   18.2210  -26.9620 N   0  0  0  0  0  0  0  0  0  0  0  0
   -2.3060   19.0370  -26.8970 C   0  0  0  0  0  0  0  0  0  0  0  0
   -3.2620   18.6710  -26.1610 O   0  0  0  0  0  0  0  0  0  0  0  0
   -2.4220   20.2940  -27.6770 C   0  0  0  0  0  0  0  0  0  0  0  0
   -1.4750   20.5940  -28.6750 C   0  0  0  0  0  0  0  0  0  0  0  0
   -1.5800   21.7690  -29.4270 C   0  0  0  0  0  0  0  0  0  0  0  0
   -2.6480   22.6470  -29.2190 C   0  0  0  0  0  0  0  0  0  0  0  0
   -2.7040   23.8700  -29.9660 N   0  0  0  0  0  0  0  0  0  0  0  0
   -3.9110   24.4500  -30.4690 C   0  0  0  0  0  0  0  0  0  0  0  0
   -3.9100   25.6630  -30.8070 O   0  0  0  0  0  0  0  0  0  0  0  0
   -5.1280   23.6300  -30.6670 C   0  0  0  0  0  0  0  0  0  0  0  0
   -5.0150   22.3060  -31.1260 C   0  0  0  0  0  0  0  0  0  0  0  0
   -6.1600   21.5560  -31.4370 C   0  0  0  0  0  0  0  0  0  0  0  0
   -5.9990   19.9410  -32.1440 S   0  0  0  0  0  0  0  0  0  0  0  0
   -7.3750   19.3580  -32.3090 O   0  0  0  0  0  0  0  0  0  0  0  0
   -5.2500   19.0630  -31.1770 O   0  0  0  0  0  0  0  0  0  0  0  0
   -5.2140   19.9360  -33.7160 N   0  0  0  0  0  0  0  0  0  0  0  0
   -4.8670   18.5890  -34.2000 C   0  0  0  0  0  0  0  0  0  0  0  0
   -3.7430   17.9350  -33.3800 C   0  0  0  0  0  0  0  0  0  0  0  0
   -2.6440   18.9020  -33.0220 C   0  0  0  0  0  0  0  0  0  0  0  0
   -1.4670   18.4120  -32.4310 C   0  0  0  0  0  0  0  0  0  0  0  0
   -0.4580   19.2910  -32.0300 C   0  0  0  0  0  0  0  0  0  0  0  0
   -0.6110   20.6660  -32.2260 C   0  0  0  0  0  0  0  0  0  0  0  0
   -1.7760   21.1630  -32.8130 C   0  0  0  0  0  0  0  0  0  0  0  0
   -2.8150   20.2950  -33.1790 C   0  0  0  0  0  0  0  0  0  0  0  0
   -4.0730   20.8640  -33.7940 C   0  0  0  0  0  0  0  0  0  0  0  0
   -7.4260   22.1260  -31.2530 C   0  0  0  0  0  0  0  0  0  0  0  0
   -7.5480   23.4270  -30.7590 C   0  0  0  0  0  0  0  0  0  0  0  0
   -6.4080   24.1840  -30.4790 C   0  0  0  0  0  0  0  0  0  0  0  0
   -6.5550   25.4540  -30.0230 F   0  0  0  0  0  0  0  0  0  0  0  0
   -3.6000   22.3540  -28.2290 C   0  0  0  0  0  0  0  0  0  0  0  0
   -3.4830   21.1920  -27.4590 C   0  0  0  0  0  0  0  0  0  0  0  0
   -1.0350   17.3900  -26.3350 H   0  0  0  0  0  0  0  0  0  0  0  0
   -0.4060   18.3620  -27.6980 H   0  0  0  0  0  0  0  0  0  0  0  0
   -0.6448   19.8979  -28.8651 H   0  0  0  0  0  0  0  0  0  0  0  0
   -0.8186   22.0032  -30.1856 H   0  0  0  0  0  0  0  0  0  0  0  0
   -4.0193   21.8533  -31.2426 H   0  0  0  0  0  0  0  0  0  0  0  0
   -5.7621   17.9523  -34.1406 H   0  0  0  0  0  0  0  0  0  0  0  0
   -4.5076   18.6902  -35.2347 H   0  0  0  0  0  0  0  0  0  0  0  0
   -4.1737   17.5327  -32.4512 H   0  0  0  0  0  0  0  0  0  0  0  0
   -3.2984   17.1425  -33.9999 H   0  0  0  0  0  0  0  0  0  0  0  0
   -1.3394   17.3295  -32.2832 H   0  0  0  0  0  0  0  0  0  0  0  0
    0.4568   18.9008  -31.5600 H   0  0  0  0  0  0  0  0  0  0  0  0
    0.1871   21.3573  -31.9176 H   0  0  0  0  0  0  0  0  0  0  0  0
   -1.8799   22.2437  -32.9898 H   0  0  0  0  0  0  0  0  0  0  0  0
   -4.3362   21.7907  -33.2630 H   0  0  0  0  0  0  0  0  0  0  0  0
   -3.8678   21.0493  -34.8587 H   0  0  0  0  0  0  0  0  0  0  0  0
   -8.3283   21.5467  -31.4986 H   0  0  0  0  0  0  0  0  0  0  0  0
   -8.5462   23.8572  -30.5898 H   0  0  0  0  0  0  0  0  0  0  0  0
   -4.4416   23.0414  -28.0583 H   0  0  0  0  0  0  0  0  0  0  0  0
   -4.2264   20.9786  -26.6768 H   0  0  0  0  0  0  0  0  0  0  0  0
  1  2  1  0
  2  3  2  0
  2  4  1  0
  4  5  2  0
  5  6  1  0
  6  7  2  0
  7  8  1  0
  8  9  1  0
  9 10  2  0
  9 11  1  0
 11 12  2  0
 12 13  1  0
 13 14  1  0
 14 15  2  0
 14 16  2  0
 14 17  1  0
 17 18  1  0
 18 19  1  0
 19 20  1  0
 20 21  2  0
 21 22  1  0
 22 23  2  0
 23 24  1  0
 24 25  2  0
 25 26  1  0
 13 27  2  0
 27 28  1  0
 28 29  2  0
 29 30  1  0
  7 31  1  0
 31 32  2  0
 32  4  1  0
 29 11  1  0
 26 17  1  0
 25 20  1  0
  1 33  1  0
  1 34  1  0
  5 35  1  0
  6 36  1  0
 12 37  1  0
 18 38  1  0
 18 39  1  0
 19 40  1  0
 19 41  1  0
 21 42  1  0
 22 43  1  0
 23 44  1  0
 24 45  1  0
 26 46  1  0
 26 47  1  0
 27 48  1  0
 28 49  1  0
 31 50  1  0
 32 51  1  0
M  CHG  1   8  -1
M  END
>  <UniqueID>  (31) 
30

>  <SMILES>  (31) 
NC(=O)c1ccc([N-]C(=O)c2cc(S(=O)(=O)N3CCc4ccccc4C3)ccc2F)cc1

>  <Energy>  (31) 
67.63395841495357

>  <Genealogy>  (31) 
NC(=O)c1ccc([N-]C(=O)c2cc(S(=O)(=O)N3CCc4ccccc4C3)ccc2F)cc1 (protonated)
NC(=O)c1ccc([N-]C(=O)c2cc(S(=O)(=O)N3CCc4ccccc4C3)ccc2F)cc1 (3D coordinates assigned)
NC(=O)c1ccc([N-]C(=O)c2cc(S(=O)(=O)N3CCc4ccccc4C3)ccc2F)cc1 (nonaromatic ring conformer: 67.63395841495357 kcal/mol)

>  <smiles>  (31) 
NC(=O)c1ccc(NC(=O)c2cc(S(=O)(=O)N3CCc4ccccc4C3)ccc2F)cc1

>  <score_type>  (31) 
oracle

>  <origin>  (31) 
adgpu

>  <m_score__min__energy>  (31) 
-11.91

>  <m_primary>  (31) 
energy

$$$$
31:0
     RDKit          3D

 33 36  0  0  0  0  0  0  0  0999 V2000
   -1.5514   22.2609  -30.9708 H   0  0  0  0  0  0  0  0  0  0  0  0
   -1.7690   21.7340  -30.0300 C   0  0  0  0  0  0  0  0  0  0  0  0
   -0.9450   20.7300  -29.6020 N   0  0  0  0  0  0  0  0  0  0  0  0
   -1.2560   20.0930  -28.4490 C   0  0  0  0  0  0  0  0  0  0  0  0
   -2.3570   20.4200  -27.7260 C   0  0  0  0  0  0  0  0  0  0  0  0
   -3.1980   21.4090  -28.1110 N   0  0  0  0  0  0  0  0  0  0  0  0
   -2.9080   22.0970  -29.2580 C   0  0  0  0  0  0  0  0  0  0  0  0
   -3.8060   23.1820  -29.7040 C   0  0  0  0  0  0  0  0  0  0  0  0
   -5.0730   22.8040  -30.1750 C   0  0  0  0  0  0  0  0  0  0  0  0
   -5.4223   21.7709  -30.0312 H   0  0  0  0  0  0  0  0  0  0  0  0
   -5.8920   23.7260  -30.8230 C   0  0  0  0  0  0  0  0  0  0  0  0
   -6.8874   23.4283  -31.1843 H   0  0  0  0  0  0  0  0  0  0  0  0
   -5.4370   25.0270  -31.0080 C   0  0  0  0  0  0  0  0  0  0  0  0
   -6.0556   25.7532  -31.5557 H   0  0  0  0  0  0  0  0  0  0  0  0
   -4.2300   25.4010  -30.5130 N   0  0  0  0  0  0  0  0  0  0  0  0
   -3.4120   24.5500  -29.8350 C   0  0  0  0  0  0  0  0  0  0  0  0
   -2.3160   25.0540  -29.3300 N   0  0  0  0  0  0  0  0  0  0  0  0
   -1.4100   24.4870  -28.3760 C   0  0  0  0  0  0  0  0  0  0  0  0
   -0.1310   24.1790  -28.7360 N   0  0  0  0  0  0  0  0  0  0  0  0
    0.7410   23.6090  -27.8620 C   0  0  0  0  0  0  0  0  0  0  0  0
    1.7707   23.3871  -28.1789 H   0  0  0  0  0  0  0  0  0  0  0  0
    0.3300   23.3050  -26.5620 C   0  0  0  0  0  0  0  0  0  0  0  0
    1.0347   22.8575  -25.8457 H   0  0  0  0  0  0  0  0  0  0  0  0
   -0.9860   23.5760  -26.1830 C   0  0  0  0  0  0  0  0  0  0  0  0
   -1.3276   23.3320  -25.1662 H   0  0  0  0  0  0  0  0  0  0  0  0
   -1.8680   24.1570  -27.0960 C   0  0  0  0  0  0  0  0  0  0  0  0
   -2.9124   24.3533  -26.8118 H   0  0  0  0  0  0  0  0  0  0  0  0
   -2.4010   19.6050  -26.6210 C   0  0  0  0  0  0  0  0  0  0  0  0
   -3.1548   19.5939  -25.8200 H   0  0  0  0  0  0  0  0  0  0  0  0
   -1.2700   18.7930  -26.7460 C   0  0  0  0  0  0  0  0  0  0  0  0
   -0.9835   18.0107  -26.0277 H   0  0  0  0  0  0  0  0  0  0  0  0
   -0.5720   19.0960  -27.8690 N   0  0  0  0  0  0  0  0  0  0  0  0
    0.3090   18.6490  -28.2070 H   0  0  0  0  0  0  0  0  0  0  0  0
  1  2  1  0
  2  3  2  0
  3  4  1  0
  4  5  2  0
  5  6  1  0
  6  7  2  0
  7  8  1  0
  8  9  2  0
  9 10  1  0
  9 11  1  0
 11 12  1  0
 11 13  2  0
 13 14  1  0
 13 15  1  0
 15 16  1  0
 16 17  2  0
 17 18  1  0
 18 19  2  0
 19 20  1  0
 20 21  1  0
 20 22  2  0
 22 23  1  0
 22 24  1  0
 24 25  1  0
 24 26  2  0
 26 27  1  0
  5 28  1  0
 28 29  1  0
 28 30  2  0
 30 31  1  0
 30 32  1  0
 32 33  1  0
  7  2  1  0
 16  8  1  0
 26 18  1  0
 32  4  1  0
M  CHG  1  15  -1
M  END
>  <UniqueID>  (32) 
31

>  <SMILES>  (32) 
c1ccc(/N=c2/[n-]cccc2-c2cnc3[nH]ccc3n2)nc1

>  <Energy>  (32) 
96.34880828982608

>  <Genealogy>  (32) 
c1ccc(N=c2[n-]cccc2-c2cnc3[nH]ccc3n2)nc1 (protonated)
c1ccc(/N=c2/[n-]cccc2-c2cnc3[nH]ccc3n2)nc1 (cis-trans isomerization)
c1ccc(/N=c2/[n-]cccc2-c2cnc3[nH]ccc3n2)nc1 (3D coordinates assigned)
c1ccc(/N=c2/[n-]cccc2-c2cnc3[nH]ccc3n2)nc1 (optimized conformer: 96.34880828982608 kcal/mol)

>  <smiles>  (32) 
c1ccc(N=c2[nH]cccc2-c2cnc3[nH]ccc3n2)nc1

>  <score_type>  (32) 
oracle

>  <origin>  (32) 
adgpu

>  <m_score__min__energy>  (32) 
-8.9900000000000002

>  <m_primary>  (32) 
energy

$$$$
32:0
     RDKit          3D

 38 40  0  0  0  0  0  0  0  0999 V2000
   -1.8630   23.3060  -30.0320 O   0  0  0  0  0  0  0  0  0  0  0  0
   -2.1340   24.1360  -29.1240 C   0  0  0  0  0  0  0  0  0  0  0  0
   -3.4610   24.6770  -29.0100 N   0  0  0  0  0  0  0  0  0  0  0  0
   -4.6190   24.0930  -29.6320 C   0  0  0  0  0  0  0  0  0  0  0  0
   -5.7200   24.9060  -29.9400 C   0  0  0  0  0  0  0  0  0  0  0  0
   -6.8650   24.3580  -30.5250 C   0  0  0  0  0  0  0  0  0  0  0  0
   -6.9290   22.9870  -30.8060 C   0  0  0  0  0  0  0  0  0  0  0  0
   -8.3790   22.2930  -31.5400 S   0  0  0  0  0  0  0  0  0  0  0  0
   -9.0530   23.3430  -32.3780 O   0  0  0  0  0  0  0  0  0  0  0  0
   -9.3320   21.8850  -30.4510 O   0  0  0  0  0  0  0  0  0  0  0  0
   -8.0330   20.9030  -32.5420 N   0  0  0  0  0  0  0  0  0  0  0  0
   -8.1540   19.6480  -31.8020 C   0  0  0  0  0  0  0  0  0  0  0  0
   -7.2640   18.6430  -32.5170 C   0  0  0  0  0  0  0  0  0  0  0  0
   -6.2920   19.4760  -33.3380 C   0  0  0  0  0  0  0  0  0  0  0  0
   -6.6660   20.9240  -33.0580 C   0  0  0  0  0  0  0  0  0  0  0  0
   -5.8440   22.1660  -30.4710 C   0  0  0  0  0  0  0  0  0  0  0  0
   -4.6980   22.7120  -29.8850 C   0  0  0  0  0  0  0  0  0  0  0  0
   -1.0610   24.5680  -28.2150 C   0  0  0  0  0  0  0  0  0  0  0  0
   -1.2160   25.1560  -26.9710 C   0  0  0  0  0  0  0  0  0  0  0  0
    0.0610   25.3740  -26.4980 C   0  0  0  0  0  0  0  0  0  0  0  0
    0.9100   24.9070  -27.4780 C   0  0  0  0  0  0  0  0  0  0  0  0
    2.8140   24.9330  -27.4020 Br  0  0  0  0  0  0  0  0  0  0  0  0
    0.2180   24.4320  -28.4880 O   0  0  0  0  0  0  0  0  0  0  0  0
   -3.5790   25.6010  -28.5370 H   0  0  0  0  0  0  0  0  0  0  0  0
   -5.6819   25.9830  -29.7194 H   0  0  0  0  0  0  0  0  0  0  0  0
   -7.7202   25.0065  -30.7660 H   0  0  0  0  0  0  0  0  0  0  0  0
   -7.8171   19.7841  -30.7638 H   0  0  0  0  0  0  0  0  0  0  0  0
   -9.1981   19.3036  -31.7673 H   0  0  0  0  0  0  0  0  0  0  0  0
   -6.7201   18.0240  -31.7883 H   0  0  0  0  0  0  0  0  0  0  0  0
   -7.8475   17.9560  -33.1475 H   0  0  0  0  0  0  0  0  0  0  0  0
   -5.2561   19.2785  -33.0252 H   0  0  0  0  0  0  0  0  0  0  0  0
   -6.3524   19.2374  -34.4101 H   0  0  0  0  0  0  0  0  0  0  0  0
   -5.9837   21.3558  -32.3110 H   0  0  0  0  0  0  0  0  0  0  0  0
   -6.5916   21.5387  -33.9672 H   0  0  0  0  0  0  0  0  0  0  0  0
   -5.8942   21.0854  -30.6703 H   0  0  0  0  0  0  0  0  0  0  0  0
   -3.8540   22.0580  -29.6206 H   0  0  0  0  0  0  0  0  0  0  0  0
   -2.1619   25.3990  -26.4648 H   0  0  0  0  0  0  0  0  0  0  0  0
    0.3437   25.8273  -25.5364 H   0  0  0  0  0  0  0  0  0  0  0  0
  1  2  2  0
  2  3  1  0
  3  4  1  0
  4  5  2  0
  5  6  1  0
  6  7  2  0
  7  8  1  0
  8  9  2  0
  8 10  2  0
  8 11  1  0
 11 12  1  0
 12 13  1  0
 13 14  1  0
 14 15  1  0
  7 16  1  0
 16 17  2  0
  2 18  1  0
 18 19  2  0
 19 20  1  0
 20 21  2  0
 21 22  1  0
 21 23  1  0
 17  4  1  0
 23 18  1  0
 15 11  1  0
  3 24  1  0
  5 25  1  0
  6 26  1  0
 12 27  1  0
 12 28  1  0
 13 29  1  0
 13 30  1  0
 14 31  1  0
 14 32  1  0
 15 33  1  0
 15 34  1  0
 16 35  1  0
 17 36  1  0
 19 37  1  0
 20 38  1  0
M  END
>  <UniqueID>  (33) 
32

>  <SMILES>  (33) 
O=C(Nc1ccc(S(=O)(=O)N2CCCC2)cc1)c1ccc(Br)o1

>  <Energy>  (33) 
69.15669954033523

>  <Genealogy>  (33) 
O=C(Nc1ccc(S(=O)(=O)N2CCCC2)cc1)c1ccc(Br)o1 (3D coordinates assigned)
O=C(Nc1ccc(S(=O)(=O)N2CCCC2)cc1)c1ccc(Br)o1 (nonaromatic ring conformer: 69.15669954033523 kcal/mol)

>  <smiles>  (33) 
O=C(Nc1ccc(S(=O)(=O)N2CCCC2)cc1)c1ccc(Br)o1

>  <score_type>  (33) 
oracle

>  <origin>  (33) 
adgpu

>  <m_score__min__energy>  (33) 
-8.8599999999999994

>  <m_primary>  (33) 
energy

$$$$
33:0
     RDKit          3D

 46 49  0  0  0  0  0  0  0  0999 V2000
   -3.8730   25.5710  -30.5270 O   0  0  0  0  0  0  0  0  0  0  0  0
   -4.6340   24.4540  -30.8640 C   0  0  0  0  0  0  0  0  0  0  0  0
   -6.0280   24.5500  -30.8900 C   0  0  0  0  0  0  0  0  0  0  0  0
   -6.8040   23.4360  -31.2260 C   0  0  0  0  0  0  0  0  0  0  0  0
   -6.1910   22.2120  -31.5390 C   0  0  0  0  0  0  0  0  0  0  0  0
   -7.0140   21.0390  -31.8980 C   0  0  0  0  0  0  0  0  0  0  0  0
   -6.5420   19.7740  -31.9280 N   0  0  0  0  0  0  0  0  0  0  0  0
   -7.6160   19.0550  -32.3090 C   0  0  0  0  0  0  0  0  0  0  0  0
   -7.6050   17.5650  -32.5270 C   0  0  0  0  0  0  0  0  0  0  0  0
   -6.5090   17.1180  -33.4130 N   0  0  0  0  0  0  0  0  0  0  0  0
   -6.1010   18.1570  -34.3870 C   0  0  0  0  0  0  0  0  0  0  0  0
   -4.7990   17.7800  -35.0980 C   0  0  0  0  0  0  0  0  0  0  0  0
   -3.7300   17.5510  -34.1180 N   0  0  0  0  0  0  0  0  0  0  0  0
   -2.3470   17.6350  -34.5230 C   0  0  0  0  0  0  0  0  0  0  0  0
   -1.5890   18.7810  -34.2120 C   0  0  0  0  0  0  0  0  0  0  0  0
   -0.2510   18.8730  -34.6040 C   0  0  0  0  0  0  0  0  0  0  0  0
    0.3480   17.8250  -35.3060 C   0  0  0  0  0  0  0  0  0  0  0  0
   -0.3900   16.6810  -35.6130 C   0  0  0  0  0  0  0  0  0  0  0  0
   -1.7300   16.5790  -35.2260 C   0  0  0  0  0  0  0  0  0  0  0  0
   -2.4080   15.4380  -35.5060 F   0  0  0  0  0  0  0  0  0  0  0  0
   -4.0880   17.2300  -32.7300 C   0  0  0  0  0  0  0  0  0  0  0  0
   -5.4000   16.4350  -32.6980 C   0  0  0  0  0  0  0  0  0  0  0  0
   -8.6910   19.8960  -32.4930 C   0  0  0  0  0  0  0  0  0  0  0  0
   -8.2850   21.1130  -32.2300 O   0  0  0  0  0  0  0  0  0  0  0  0
   -4.7880   22.1210  -31.5120 C   0  0  0  0  0  0  0  0  0  0  0  0
   -4.0150   23.2360  -31.1760 C   0  0  0  0  0  0  0  0  0  0  0  0
   -2.9060   25.6610  -30.8170 H   0  0  0  0  0  0  0  0  0  0  0  0
   -6.5164   25.5048  -30.6454 H   0  0  0  0  0  0  0  0  0  0  0  0
   -7.9007   23.5191  -31.2452 H   0  0  0  0  0  0  0  0  0  0  0  0
   -7.4915   17.0690  -31.5517 H   0  0  0  0  0  0  0  0  0  0  0  0
   -8.5531   17.2974  -33.0164 H   0  0  0  0  0  0  0  0  0  0  0  0
   -6.8965   18.2754  -35.1374 H   0  0  0  0  0  0  0  0  0  0  0  0
   -5.9354   19.0967  -33.8397 H   0  0  0  0  0  0  0  0  0  0  0  0
   -4.9578   16.8619  -35.6827 H   0  0  0  0  0  0  0  0  0  0  0  0
   -4.5033   18.6046  -35.7632 H   0  0  0  0  0  0  0  0  0  0  0  0
   -2.0537   19.6091  -33.6567 H   0  0  0  0  0  0  0  0  0  0  0  0
    0.3319   19.7731  -34.3590 H   0  0  0  0  0  0  0  0  0  0  0  0
    1.4005   17.9011  -35.6167 H   0  0  0  0  0  0  0  0  0  0  0  0
    0.0850   15.8549  -36.1625 H   0  0  0  0  0  0  0  0  0  0  0  0
   -3.2863   16.6286  -32.2766 H   0  0  0  0  0  0  0  0  0  0  0  0
   -4.2178   18.1647  -32.1647 H   0  0  0  0  0  0  0  0  0  0  0  0
   -5.2286   15.4563  -33.1699 H   0  0  0  0  0  0  0  0  0  0  0  0
   -5.6993   16.3354  -31.6442 H   0  0  0  0  0  0  0  0  0  0  0  0
   -9.7039   19.6001  -32.8036 H   0  0  0  0  0  0  0  0  0  0  0  0
   -4.2965   21.1678  -31.7565 H   0  0  0  0  0  0  0  0  0  0  0  0
   -2.9180   23.1573  -31.1564 H   0  0  0  0  0  0  0  0  0  0  0  0
  1  2  1  0
  2  3  2  0
  3  4  1  0
  4  5  2  0
  5  6  1  0
  6  7  2  0
  7  8  1  0
  8  9  1  0
  9 10  1  0
 10 11  1  0
 11 12  1  0
 12 13  1  0
 13 14  1  0
 14 15  2  0
 15 16  1  0
 16 17  2  0
 17 18  1  0
 18 19  2  0
 19 20  1  0
 13 21  1  0
 21 22  1  0
  8 23  2  0
 23 24  1  0
  5 25  1  0
 25 26  2  0
 26  2  1  0
 24  6  1  0
 22 10  1  0
 19 14  1  0
  1 27  1  0
  3 28  1  0
  4 29  1  0
  9 30  1  0
  9 31  1  0
 11 32  1  0
 11 33  1  0
 12 34  1  0
 12 35  1  0
 15 36  1  0
 16 37  1  0
 17 38  1  0
 18 39  1  0
 21 40  1  0
 21 41  1  0
 22 42  1  0
 22 43  1  0
 23 44  1  0
 25 45  1  0
 26 46  1  0
M  END
>  <UniqueID>  (34) 
33

>  <SMILES>  (34) 
Oc1ccc(-c2nc(CN3CCN(c4ccccc4F)CC3)co2)cc1

>  <Energy>  (34) 
90.64348900300128

>  <Genealogy>  (34) 
Oc1ccc(-c2nc(CN3CCN(c4ccccc4F)CC3)co2)cc1 (3D coordinates assigned)
Oc1ccc(-c2nc(CN3CCN(c4ccccc4F)CC3)co2)cc1 (nonaromatic ring conformer: 90.64348900300128 kcal/mol)

>  <smiles>  (34) 
Oc1ccc(-c2nc(CN3CCN(c4ccccc4F)CC3)co2)cc1

>  <score_type>  (34) 
oracle

>  <origin>  (34) 
adgpu

>  <m_score__min__energy>  (34) 
-8.6199999999999992

>  <m_primary>  (34) 
energy

$$$$
34:0
     RDKit          3D

 33 35  0  0  1  0  0  0  0  0999 V2000
   -3.4800   25.2850  -30.1380 O   0  0  0  0  0  0  0  0  0  0  0  0
   -4.4910   24.4340  -30.5150 C   0  0  0  0  0  0  0  0  0  0  0  0
   -4.2360   23.2920  -31.2290 C   0  0  0  0  0  0  0  0  0  0  0  0
   -5.2710   22.4470  -31.5980 C   0  0  0  0  0  0  0  0  0  0  0  0
   -6.5920   22.6920  -31.2810 C   0  0  0  0  0  0  0  0  0  0  0  0
   -7.6850   21.8090  -31.6670 C   0  0  0  0  0  0  0  0  0  0  0  0
   -7.4300   20.5350  -32.1390 C   0  0  0  0  0  0  0  0  0  0  0  0
   -8.4680   19.6710  -32.5150 C   0  0  0  0  0  0  0  0  0  0  0  0
   -8.2250   18.4850  -32.9550 N   0  0  0  0  0  0  0  0  0  0  0  0
   -6.8660   18.0690  -33.0500 C   0  0  0  0  0  0  0  0  0  0  0  0
   -6.2590   17.2230  -32.1670 C   0  0  0  0  0  0  0  0  0  0  0  0
   -4.9160   16.8830  -32.3620 C   0  0  0  0  0  0  0  0  0  0  0  0
   -4.2210   17.4110  -33.4510 C   0  0  0  0  0  0  0  0  0  0  0  0
   -2.5390   17.0160  -33.7380 Cl  0  0  0  0  0  0  0  0  0  0  0  0
   -4.8430   18.2630  -34.3360 C   0  0  0  0  0  0  0  0  0  0  0  0
   -6.1550   18.5890  -34.1370 C   0  0  0  0  0  0  0  0  0  0  0  0
   -9.7440   20.1040  -32.4090 N   0  0  0  0  0  0  0  0  0  0  0  0
   -9.9950   21.3470  -31.9480 C   0  0  0  0  0  0  0  0  0  0  0  0
   -8.9820   22.1660  -31.5900 N   0  0  0  0  0  0  0  0  0  0  0  0
   -6.8290   23.8590  -30.5550 C   0  0  0  0  0  0  0  0  0  0  0  0
   -5.7950   24.7040  -30.1850 C   0  0  0  0  0  0  0  0  0  0  0  0
   -2.8380   25.6730  -30.8330 H   0  0  0  0  0  0  0  0  0  0  0  0
   -3.2021   23.0442  -31.5113 H   0  0  0  0  0  0  0  0  0  0  0  0
   -5.0285   21.5392  -32.1699 H   0  0  0  0  0  0  0  0  0  0  0  0
   -6.3884   20.1912  -32.2215 H   0  0  0  0  0  0  0  0  0  0  0  0
   -6.8188   16.8139  -31.3130 H   0  0  0  0  0  0  0  0  0  0  0  0
   -4.4104   16.2030  -31.6606 H   0  0  0  0  0  0  0  0  0  0  0  0
   -4.2905   18.6762  -35.1927 H   0  0  0  0  0  0  0  0  0  0  0  0
   -6.6584   19.2687  -34.8402 H   0  0  0  0  0  0  0  0  0  0  0  0
  -11.0344   21.6968  -31.8629 H   0  0  0  0  0  0  0  0  0  0  0  0
   -9.2630   23.1070  -31.2450 H   0  0  0  0  0  0  0  0  0  0  0  0
   -7.8602   24.1144  -30.2696 H   0  0  0  0  0  0  0  0  0  0  0  0
   -6.0255   25.6143  -29.6122 H   0  0  0  0  0  0  0  0  0  0  0  0
  1  2  1  0
  2  3  2  0
  3  4  1  0
  4  5  2  0
  5  6  1  0
  6  7  2  0
  7  8  1  0
  8  9  2  0
  9 10  1  0
 10 11  2  0
 11 12  1  0
 12 13  2  0
 13 14  1  0
 13 15  1  0
 15 16  2  0
  8 17  1  0
 17 18  2  0
 18 19  1  0
  5 20  1  0
 20 21  2  0
 21  2  1  0
 19  6  1  0
 16 10  1  0
  1 22  1  0
  3 23  1  0
  4 24  1  0
  7 25  1  0
 11 26  1  0
 12 27  1  0
 15 28  1  0
 16 29  1  0
 18 30  1  0
 19 31  1  0
 20 32  1  0
 21 33  1  0
M  END
>  <smiles>  (35) 
Oc1ccc(-c2cc(=Nc3ccc(Cl)cc3)nc[nH]2)cc1

>  <score_type>  (35) 
oracle

>  <origin>  (35) 
adgpu

>  <m_score__min__energy>  (35) 
-9.2300000000000004

>  <m_primary>  (35) 
energy

$$$$
35:0
     RDKit          3D

 59 62  0  0  0  0  0  0  0  0999 V2000
   -3.9430   16.6100  -35.3280 C   0  0  0  0  0  0  0  0  0  0  0  0
   -4.8460   17.1690  -34.2590 C   0  0  0  0  0  0  0  0  0  0  0  0
   -5.2970   18.4950  -34.3790 C   0  0  0  0  0  0  0  0  0  0  0  0
   -6.1330   19.0620  -33.4140 C   0  0  0  0  0  0  0  0  0  0  0  0
   -6.5470   20.3910  -33.5850 O   0  0  0  0  0  0  0  0  0  0  0  0
   -6.3890   21.3950  -32.6230 C   0  0  0  0  0  0  0  0  0  0  0  0
   -7.4590   22.1700  -32.3110 N   0  0  0  0  0  0  0  0  0  0  0  0
   -7.3760   23.1420  -31.3700 C   0  0  0  0  0  0  0  0  0  0  0  0
   -6.2060   23.3610  -30.7230 N   0  0  0  0  0  0  0  0  0  0  0  0
   -5.0920   22.6360  -31.0090 C   0  0  0  0  0  0  0  0  0  0  0  0
   -3.8780   22.9220  -30.3050 N   0  0  0  0  0  0  0  0  0  0  0  0
   -3.2820   22.0700  -29.3230 C   0  0  0  0  0  0  0  0  0  0  0  0
   -3.4840   20.8290  -29.2490 O   0  0  0  0  0  0  0  0  0  0  0  0
   -2.4460   22.8460  -28.4160 C   0  0  0  0  0  0  0  0  0  0  0  0
   -1.6790   22.4530  -27.3280 C   0  0  0  0  0  0  0  0  0  0  0  0
   -0.9910   23.4440  -26.6090 C   0  0  0  0  0  0  0  0  0  0  0  0
   -1.0760   24.8220  -26.9700 C   0  0  0  0  0  0  0  0  0  0  0  0
   -0.3080   25.8720  -26.1420 C   0  0  0  0  0  0  0  0  0  0  0  0
    1.1740   25.4540  -26.0310 C   0  0  0  0  0  0  0  0  0  0  0  0
   -0.4040   27.2480  -26.8360 C   0  0  0  0  0  0  0  0  0  0  0  0
   -0.8600   26.0320  -24.7050 C   0  0  0  0  0  0  0  0  0  0  0  0
   -1.8830   25.1740  -28.0900 C   0  0  0  0  0  0  0  0  0  0  0  0
   -2.5430   24.1650  -28.7860 C   0  0  0  0  0  0  0  0  0  0  0  0
   -3.4460   24.2340  -29.9290 C   0  0  0  0  0  0  0  0  0  0  0  0
   -3.8480   25.2950  -30.4760 O   0  0  0  0  0  0  0  0  0  0  0  0
   -5.1480   21.6260  -31.9920 C   0  0  0  0  0  0  0  0  0  0  0  0
   -3.9480   20.7680  -32.3030 C   0  0  0  0  0  0  0  0  0  0  0  0
   -6.5450   18.2850  -32.3210 C   0  0  0  0  0  0  0  0  0  0  0  0
   -6.1170   16.9640  -32.1930 C   0  0  0  0  0  0  0  0  0  0  0  0
   -5.2730   16.3860  -33.1560 C   0  0  0  0  0  0  0  0  0  0  0  0
   -4.7530   14.6990  -32.9600 S   0  0  0  0  0  0  0  0  0  0  0  0
   -5.6400   13.5820  -34.0280 C   0  0  0  0  0  0  0  0  0  0  0  0
   -4.9820   14.2720  -31.5380 O   0  0  0  0  0  0  0  0  0  0  0  0
   -3.2920   14.5820  -33.2900 O   0  0  0  0  0  0  0  0  0  0  0  0
   -3.0977   16.0867  -34.8572 H   0  0  0  0  0  0  0  0  0  0  0  0
   -4.5088   15.9039  -35.9536 H   0  0  0  0  0  0  0  0  0  0  0  0
   -3.5633   17.4313  -35.9536 H   0  0  0  0  0  0  0  0  0  0  0  0
   -4.9867   19.0958  -35.2466 H   0  0  0  0  0  0  0  0  0  0  0  0
   -8.2589   23.7532  -31.1316 H   0  0  0  0  0  0  0  0  0  0  0  0
   -1.6118   21.3944  -27.0369 H   0  0  0  0  0  0  0  0  0  0  0  0
   -0.3724   23.1513  -25.7478 H   0  0  0  0  0  0  0  0  0  0  0  0
    1.4542   25.3750  -24.9702 H   0  0  0  0  0  0  0  0  0  0  0  0
    1.3181   24.4802  -26.5218 H   0  0  0  0  0  0  0  0  0  0  0  0
    1.8057   26.2090  -26.5218 H   0  0  0  0  0  0  0  0  0  0  0  0
   -0.4592   28.0397  -26.0744 H   0  0  0  0  0  0  0  0  0  0  0  0
    0.4854   27.4048  -27.4640 H   0  0  0  0  0  0  0  0  0  0  0  0
   -1.3065   27.2797  -27.4640 H   0  0  0  0  0  0  0  0  0  0  0  0
   -0.0659   25.8018  -23.9794 H   0  0  0  0  0  0  0  0  0  0  0  0
   -1.2032   27.0666  -24.5571 H   0  0  0  0  0  0  0  0  0  0  0  0
   -1.7033   25.3413  -24.5571 H   0  0  0  0  0  0  0  0  0  0  0  0
   -1.9829   26.2248  -28.3995 H   0  0  0  0  0  0  0  0  0  0  0  0
   -3.4821   20.4349  -31.3639 H   0  0  0  0  0  0  0  0  0  0  0  0
   -4.2655   19.8909  -32.8860 H   0  0  0  0  0  0  0  0  0  0  0  0
   -3.2208   21.3521  -32.8860 H   0  0  0  0  0  0  0  0  0  0  0  0
   -7.2097   18.7204  -31.5603 H   0  0  0  0  0  0  0  0  0  0  0  0
   -6.4439   16.3678  -31.3283 H   0  0  0  0  0  0  0  0  0  0  0  0
   -6.2091   12.8654  -33.4176 H   0  0  0  0  0  0  0  0  0  0  0  0
   -6.3326   14.1541  -34.6629 H   0  0  0  0  0  0  0  0  0  0  0  0
   -4.9259   13.0370  -34.6629 H   0  0  0  0  0  0  0  0  0  0  0  0
  1  2  1  0
  2  3  2  0
  3  4  1  0
  4  5  1  0
  5  6  1  0
  6  7  2  0
  7  8  1  0
  8  9  2  0
  9 10  1  0
 10 11  1  0
 11 12  1  0
 12 13  2  0
 12 14  1  0
 14 15  2  0
 15 16  1  0
 16 17  2  0
 17 18  1  0
 18 19  1  0
 18 20  1  0
 18 21  1  0
 17 22  1  0
 22 23  2  0
 23 24  1  0
 24 25  2  0
 10 26  2  0
 26 27  1  0
  4 28  2  0
 28 29  1  0
 29 30  2  0
 30 31  1  0
 31 32  1  0
 31 33  2  0
 31 34  2  0
 30  2  1  0
 26  6  1  0
 24 11  1  0
 23 14  1  0
  1 35  1  0
  1 36  1  0
  1 37  1  0
  3 38  1  0
  8 39  1  0
 15 40  1  0
 16 41  1  0
 19 42  1  0
 19 43  1  0
 19 44  1  0
 20 45  1  0
 20 46  1  0
 20 47  1  0
 21 48  1  0
 21 49  1  0
 21 50  1  0
 22 51  1  0
 27 52  1  0
 27 53  1  0
 27 54  1  0
 28 55  1  0
 29 56  1  0
 32 57  1  0
 32 58  1  0
 32 59  1  0
M  END
>  <UniqueID>  (36) 
34

>  <SMILES>  (36) 
Cc1cc(Oc2ncnc(N3C(=O)c4ccc(C(C)(C)C)cc4C3=O)c2C)ccc1S(C)(=O)=O

>  <Energy>  (36) 
112.69562286779872

>  <Genealogy>  (36) 
Cc1cc(Oc2ncnc(N3C(=O)c4ccc(C(C)(C)C)cc4C3=O)c2C)ccc1S(C)(=O)=O (3D coordinates assigned)
Cc1cc(Oc2ncnc(N3C(=O)c4ccc(C(C)(C)C)cc4C3=O)c2C)ccc1S(C)(=O)=O (nonaromatic ring conformer: 112.69562286779872 kcal/mol)

>  <smiles>  (36) 
Cc1cc(Oc2ncnc(N3C(=O)c4ccc(C(C)(C)C)cc4C3=O)c2C)ccc1S(C)(=O)=O

>  <score_type>  (36) 
oracle

>  <origin>  (36) 
adgpu

>  <m_score__min__energy>  (36) 
-9.9499999999999993

>  <m_primary>  (36) 
energy

$$$$
36:0
     RDKit          3D

 53 55  0  0  0  0  0  0  0  0999 V2000
   -0.9530   26.0010  -27.7440 C   0  0  0  0  0  0  0  0  0  0  0  0
   -1.2290   25.0790  -28.9320 C   0  0  0  0  0  0  0  0  0  0  0  0
   -0.9330   23.6070  -28.6060 C   0  0  0  0  0  0  0  0  0  0  0  0
   -1.9680   22.7110  -29.1540 N   0  0  0  0  0  0  0  0  0  0  0  0
   -1.7180   21.3070  -29.4020 C   0  0  0  0  0  0  0  0  0  0  0  0
   -1.3610   20.9280  -30.5510 O   0  0  0  0  0  0  0  0  0  0  0  0
   -1.8940   20.2810  -28.3600 C   0  0  0  0  0  0  0  0  0  0  0  0
   -2.9990   20.1030  -27.5520 C   0  0  0  0  0  0  0  0  0  0  0  0
   -2.6520   19.0870  -26.6810 C   0  0  0  0  0  0  0  0  0  0  0  0
   -3.5180   18.5470  -25.5930 C   0  0  0  0  0  0  0  0  0  0  0  0
   -1.4240   18.6820  -26.9130 O   0  0  0  0  0  0  0  0  0  0  0  0
   -0.9410   19.3820  -27.9150 C   0  0  0  0  0  0  0  0  0  0  0  0
    0.4420   19.2180  -28.4550 C   0  0  0  0  0  0  0  0  0  0  0  0
   -3.2790   23.2520  -29.4100 C   0  0  0  0  0  0  0  0  0  0  0  0
   -3.8770   23.1730  -30.6860 C   0  0  0  0  0  0  0  0  0  0  0  0
   -3.1550   22.5500  -31.7650 N   0  0  0  0  0  0  0  0  0  0  0  0
   -5.1530   23.6660  -30.8750 N   0  0  0  0  0  0  0  0  0  0  0  0
   -5.8440   23.5000  -32.1750 C   0  0  0  0  0  0  0  0  0  0  0  0
   -6.8620   22.3870  -32.1100 C   0  0  0  0  0  0  0  0  0  0  0  0
   -8.2070   22.6700  -31.8110 C   0  0  0  0  0  0  0  0  0  0  0  0
   -9.1480   21.6380  -31.7530 C   0  0  0  0  0  0  0  0  0  0  0  0
   -8.7590   20.3190  -32.0070 C   0  0  0  0  0  0  0  0  0  0  0  0
   -7.4300   20.0330  -32.3260 C   0  0  0  0  0  0  0  0  0  0  0  0
   -6.4850   21.0620  -32.3840 C   0  0  0  0  0  0  0  0  0  0  0  0
   -5.8140   24.2640  -29.8250 C   0  0  0  0  0  0  0  0  0  0  0  0
   -6.9820   24.7190  -29.9730 O   0  0  0  0  0  0  0  0  0  0  0  0
   -5.2240   24.3680  -28.6060 N   0  0  0  0  0  0  0  0  0  0  0  0
   -3.9830   23.8750  -28.3780 C   0  0  0  0  0  0  0  0  0  0  0  0
   -3.4670   23.9900  -27.2330 O   0  0  0  0  0  0  0  0  0  0  0  0
   -1.1179   25.4501  -26.8063 H   0  0  0  0  0  0  0  0  0  0  0  0
    0.0892   26.3505  -27.7855 H   0  0  0  0  0  0  0  0  0  0  0  0
   -1.6317   26.8657  -27.7855 H   0  0  0  0  0  0  0  0  0  0  0  0
   -2.2879   25.1731  -29.2148 H   0  0  0  0  0  0  0  0  0  0  0  0
   -0.5659   25.3822  -29.7556 H   0  0  0  0  0  0  0  0  0  0  0  0
    0.0408   23.3343  -29.0388 H   0  0  0  0  0  0  0  0  0  0  0  0
   -0.9226   23.4922  -27.5121 H   0  0  0  0  0  0  0  0  0  0  0  0
   -3.9514   20.6519  -27.5925 H   0  0  0  0  0  0  0  0  0  0  0  0
   -3.0890   18.8145  -24.6161 H   0  0  0  0  0  0  0  0  0  0  0  0
   -4.5270   18.9763  -25.6803 H   0  0  0  0  0  0  0  0  0  0  0  0
   -3.5766   17.4520  -25.6803 H   0  0  0  0  0  0  0  0  0  0  0  0
    1.1538   19.1336  -27.6206 H   0  0  0  0  0  0  0  0  0  0  0  0
    0.4896   18.3079  -29.0710 H   0  0  0  0  0  0  0  0  0  0  0  0
    0.7011   20.0917  -29.0710 H   0  0  0  0  0  0  0  0  0  0  0  0
   -3.5070   22.5270  -32.7440 H   0  0  0  0  0  0  0  0  0  0  0  0
   -2.2190   22.1130  -31.6160 H   0  0  0  0  0  0  0  0  0  0  0  0
   -6.3546   24.4395  -32.4332 H   0  0  0  0  0  0  0  0  0  0  0  0
   -5.0951   23.2449  -32.9392 H   0  0  0  0  0  0  0  0  0  0  0  0
   -8.5196   23.7076  -31.6221 H   0  0  0  0  0  0  0  0  0  0  0  0
  -10.1961   21.8637  -31.5072 H   0  0  0  0  0  0  0  0  0  0  0  0
   -9.4995   19.5072  -31.9555 H   0  0  0  0  0  0  0  0  0  0  0  0
   -7.1259   18.9962  -32.5321 H   0  0  0  0  0  0  0  0  0  0  0  0
   -5.4414   20.8327  -32.6454 H   0  0  0  0  0  0  0  0  0  0  0  0
   -5.7420   24.8310  -27.8240 H   0  0  0  0  0  0  0  0  0  0  0  0
  1  2  1  0
  2  3  1  0
  3  4  1  0
  4  5  1  0
  5  6  2  0
  5  7  1  0
  7  8  1  0
  8  9  2  0
  9 10  1  0
  9 11  1  0
 11 12  1  0
 12 13  1  0
  4 14  1  0
 14 15  2  0
 15 16  1  0
 15 17  1  0
 17 18  1  0
 18 19  1  0
 19 20  2  0
 20 21  1  0
 21 22  2  0
 22 23  1  0
 23 24  2  0
 17 25  1  0
 25 26  2  0
 25 27  1  0
 27 28  1  0
 28 29  2  0
 12  7  2  0
 28 14  1  0
 24 19  1  0
  1 30  1  0
  1 31  1  0
  1 32  1  0
  2 33  1  0
  2 34  1  0
  3 35  1  0
  3 36  1  0
  8 37  1  0
 10 38  1  0
 10 39  1  0
 10 40  1  0
 13 41  1  0
 13 42  1  0
 13 43  1  0
 16 44  1  0
 16 45  1  0
 18 46  1  0
 18 47  1  0
 20 48  1  0
 21 49  1  0
 22 50  1  0
 23 51  1  0
 24 52  1  0
 27 53  1  0
M  END
>  <UniqueID>  (37) 
35

>  <SMILES>  (37) 
CCCN(C(=O)c1cc(C)oc1C)c1c(N)n(Cc2ccccc2)c(=O)[nH]c1=O

>  <Energy>  (37) 
93.32561817191267

>  <Genealogy>  (37) 
CCCN(C(=O)c1cc(C)oc1C)c1c(N)n(Cc2ccccc2)c(=O)[nH]c1=O (3D coordinates assigned)
CCCN(C(=O)c1cc(C)oc1C)c1c(N)n(Cc2ccccc2)c(=O)[nH]c1=O (optimized conformer: 93.32561817191267 kcal/mol)

>  <smiles>  (37) 
CCCN(C(=O)c1cc(C)oc1C)c1c(N)n(Cc2ccccc2)c(=O)[nH]c1=O

>  <score_type>  (37) 
oracle

>  <origin>  (37) 
adgpu

>  <m_score__min__energy>  (37) 
-8.5399999999999991

>  <m_primary>  (37) 
energy

$$$$
37:0
     RDKit          3D

 59 61  0  0  0  0  0  0  0  0999 V2000
   -6.3780   19.4950  -33.5520 C   0  0  0  0  0  0  0  0  0  0  0  0
   -6.7900   19.3100  -32.0890 C   0  0  0  0  0  0  0  0  0  0  0  0
   -6.5850   17.8560  -31.6540 C   0  0  0  0  0  0  0  0  0  0  0  0
   -8.2400   19.6990  -31.9170 C   0  0  0  0  0  0  0  0  0  0  0  0
   -8.6810   20.9340  -31.6340 C   0  0  0  0  0  0  0  0  0  0  0  0
   -7.8150   22.0970  -31.3630 C   0  0  0  0  0  0  0  0  0  0  0  0
   -7.1060   22.7330  -32.3930 C   0  0  0  0  0  0  0  0  0  0  0  0
   -6.2740   23.8210  -32.1140 C   0  0  0  0  0  0  0  0  0  0  0  0
   -6.1210   24.2800  -30.7930 C   0  0  0  0  0  0  0  0  0  0  0  0
   -5.2440   25.4380  -30.4950 C   0  0  0  0  0  0  0  0  0  0  0  0
   -5.7530   26.5540  -30.2060 O   0  0  0  0  0  0  0  0  0  0  0  0
   -3.8190   25.2720  -30.4810 N   0  0  0  0  0  0  0  0  0  0  0  0
   -3.0900   24.1800  -29.9030 C   0  0  0  0  0  0  0  0  0  0  0  0
   -3.0480   22.9120  -30.5060 C   0  0  0  0  0  0  0  0  0  0  0  0
   -2.3410   21.8700  -29.9010 C   0  0  0  0  0  0  0  0  0  0  0  0
   -1.6810   22.0790  -28.6870 C   0  0  0  0  0  0  0  0  0  0  0  0
   -1.7320   23.3350  -28.0570 C   0  0  0  0  0  0  0  0  0  0  0  0
   -1.0360   23.5590  -26.7650 C   0  0  0  0  0  0  0  0  0  0  0  0
   -0.3750   22.5000  -26.1150 C   0  0  0  0  0  0  0  0  0  0  0  0
    0.2650   22.7090  -24.8910 C   0  0  0  0  0  0  0  0  0  0  0  0
    0.2530   23.9740  -24.3010 C   0  0  0  0  0  0  0  0  0  0  0  0
   -0.3950   25.0400  -24.9340 C   0  0  0  0  0  0  0  0  0  0  0  0
   -0.4140   26.6230  -24.1620 S   0  0  0  0  0  0  0  0  0  0  0  0
   -1.6580   26.8110  -23.3390 O   0  0  0  0  0  0  0  0  0  0  0  0
   -0.3870   27.6820  -25.2280 O   0  0  0  0  0  0  0  0  0  0  0  0
    0.9830   26.7950  -23.1480 N   0  0  0  0  0  0  0  0  0  0  0  0
    1.6180   28.0500  -22.8430 C   0  0  0  0  0  0  0  0  0  0  0  0
    2.8190   28.0460  -22.0650 N   0  0  0  0  0  0  0  0  0  0  0  0
    1.1230   29.1810  -23.2490 N   0  0  0  0  0  0  0  0  0  0  0  0
   -1.0360   24.8320  -26.1640 C   0  0  0  0  0  0  0  0  0  0  0  0
   -2.4490   24.3770  -28.6730 C   0  0  0  0  0  0  0  0  0  0  0  0
   -6.8040   23.6140  -29.7590 C   0  0  0  0  0  0  0  0  0  0  0  0
   -7.6370   22.5280  -30.0420 C   0  0  0  0  0  0  0  0  0  0  0  0
   -5.3753   19.9452  -33.5964 H   0  0  0  0  0  0  0  0  0  0  0  0
   -6.3634   18.5170  -34.0553 H   0  0  0  0  0  0  0  0  0  0  0  0
   -7.0992   20.1557  -34.0553 H   0  0  0  0  0  0  0  0  0  0  0  0
   -6.1608   19.9556  -31.4587 H   0  0  0  0  0  0  0  0  0  0  0  0
   -6.5770   17.7996  -30.5555 H   0  0  0  0  0  0  0  0  0  0  0  0
   -7.4047   17.2366  -32.0470 H   0  0  0  0  0  0  0  0  0  0  0  0
   -5.6260   17.4874  -32.0470 H   0  0  0  0  0  0  0  0  0  0  0  0
   -8.9939   18.9065  -32.0331 H   0  0  0  0  0  0  0  0  0  0  0  0
   -9.7693   21.0910  -31.6016 H   0  0  0  0  0  0  0  0  0  0  0  0
   -7.2055   22.3729  -33.4276 H   0  0  0  0  0  0  0  0  0  0  0  0
   -5.7356   24.3214  -32.9324 H   0  0  0  0  0  0  0  0  0  0  0  0
   -3.5731   22.7391  -31.4570 H   0  0  0  0  0  0  0  0  0  0  0  0
   -2.3037   20.8814  -30.3819 H   0  0  0  0  0  0  0  0  0  0  0  0
   -1.1184   21.2562  -28.2217 H   0  0  0  0  0  0  0  0  0  0  0  0
   -0.3623   21.5005  -26.5741 H   0  0  0  0  0  0  0  0  0  0  0  0
    0.7794   21.8750  -24.3911 H   0  0  0  0  0  0  0  0  0  0  0  0
    0.7547   24.1332  -23.3351 H   0  0  0  0  0  0  0  0  0  0  0  0
    1.3990   25.9200  -22.7580 H   0  0  0  0  0  0  0  0  0  0  0  0
    3.3120   28.9370  -21.8320 H   0  0  0  0  0  0  0  0  0  0  0  0
    3.2210   27.1470  -21.7180 H   0  0  0  0  0  0  0  0  0  0  0  0
    1.5980   30.0830  -23.0150 H   0  0  0  0  0  0  0  0  0  0  0  0
    0.2490   29.2420  -23.8110 H   0  0  0  0  0  0  0  0  0  0  0  0
   -1.5431   25.6708  -26.6634 H   0  0  0  0  0  0  0  0  0  0  0  0
   -2.5071   25.3597  -28.1822 H   0  0  0  0  0  0  0  0  0  0  0  0
   -6.6814   23.9508  -28.7190 H   0  0  0  0  0  0  0  0  0  0  0  0
   -8.1558   22.0087  -29.2228 H   0  0  0  0  0  0  0  0  0  0  0  0
  1  2  1  0
  2  3  1  0
  2  4  1  0
  4  5  2  3
  5  6  1  0
  6  7  2  0
  7  8  1  0
  8  9  2  0
  9 10  1  0
 10 11  2  0
 10 12  1  0
 12 13  1  0
 13 14  2  0
 14 15  1  0
 15 16  2  0
 16 17  1  0
 17 18  1  0
 18 19  2  0
 19 20  1  0
 20 21  2  0
 21 22  1  0
 22 23  1  0
 23 24  2  0
 23 25  2  0
 23 26  1  0
 26 27  1  0
 27 28  1  0
 27 29  2  0
 22 30  2  0
 17 31  2  0
  9 32  1  0
 32 33  2  0
 33  6  1  0
 31 13  1  0
 30 18  1  0
  1 34  1  0
  1 35  1  0
  1 36  1  0
  2 37  1  0
  3 38  1  0
  3 39  1  0
  3 40  1  0
  4 41  1  0
  5 42  1  0
  7 43  1  0
  8 44  1  0
 14 45  1  0
 15 46  1  0
 16 47  1  0
 19 48  1  0
 20 49  1  0
 21 50  1  0
 26 51  1  0
 28 52  1  0
 28 53  1  0
 29 54  1  0
 29 55  1  0
 30 56  1  0
 31 57  1  0
 32 58  1  0
 33 59  1  0
M  CHG  2  12  -1  29   1
M  END
>  <UniqueID>  (38) 
36

>  <SMILES>  (38) 
CC(C)C=Cc1ccc(C(=O)[N-]c2cccc(-c3cccc(S(=O)(=O)NC(N)=[NH2+])c3)c2)cc1

>  <Energy>  (38) 
72.70788752663748

>  <Genealogy>  (38) 
CC(C)C=Cc1ccc(C(=O)[N-]c2cccc(-c3cccc(S(=O)(=O)NC(N)=[NH2+])c3)c2)cc1 (protonated)
CC(C)C=Cc1ccc(C(=O)[N-]c2cccc(-c3cccc(S(=O)(=O)NC(N)=[NH2+])c3)c2)cc1 (3D coordinates assigned)
CC(C)C=Cc1ccc(C(=O)[N-]c2cccc(-c3cccc(S(=O)(=O)NC(N)=[NH2+])c3)c2)cc1 (optimized conformer: 72.70788752663748 kcal/mol)

>  <smiles>  (38) 
CC(C)C=Cc1ccc(C(=O)Nc2cccc(-c3cccc(S(=O)(=O)NC(=N)N)c3)c2)cc1

>  <score_type>  (38) 
oracle

>  <origin>  (38) 
adgpu

>  <m_score__min__energy>  (38) 
-14.08

>  <m_primary>  (38) 
energy

$$$$
38:0
     RDKit          3D

 40 42  0  0  0  0  0  0  0  0999 V2000
   -3.0380   20.0600  -31.8920 C   0  0  0  0  0  0  0  0  0  0  0  0
   -2.2810   21.0570  -31.0630 C   0  0  0  0  0  0  0  0  0  0  0  0
   -0.9960   20.7540  -30.5980 C   0  0  0  0  0  0  0  0  0  0  0  0
   -0.2740   21.6950  -29.8630 C   0  0  0  0  0  0  0  0  0  0  0  0
   -0.8140   22.9580  -29.5960 C   0  0  0  0  0  0  0  0  0  0  0  0
   -0.0100   23.8780  -28.9190 O   0  0  0  0  0  0  0  0  0  0  0  0
   -2.1230   23.2710  -30.0420 C   0  0  0  0  0  0  0  0  0  0  0  0
   -2.7890   24.5520  -29.7220 C   0  0  0  0  0  0  0  0  0  0  0  0
   -2.3640   25.2690  -28.7780 O   0  0  0  0  0  0  0  0  0  0  0  0
   -3.9260   24.9680  -30.4920 N   0  0  0  0  0  0  0  0  0  0  0  0
   -5.1560   24.2480  -30.6590 C   0  0  0  0  0  0  0  0  0  0  0  0
   -5.7210   23.4850  -29.6200 C   0  0  0  0  0  0  0  0  0  0  0  0
   -6.9110   22.7800  -29.8320 C   0  0  0  0  0  0  0  0  0  0  0  0
   -7.5400   22.8210  -31.0810 C   0  0  0  0  0  0  0  0  0  0  0  0
   -9.0680   21.9240  -31.3480 S   0  0  0  0  0  0  0  0  0  0  0  0
   -8.2150   20.4590  -31.9280 C   0  0  0  0  0  0  0  0  0  0  0  0
   -8.6530   19.1880  -31.5330 C   0  0  0  0  0  0  0  0  0  0  0  0
   -7.9830   18.0460  -31.9830 C   0  0  0  0  0  0  0  0  0  0  0  0
   -6.8770   18.1700  -32.8290 C   0  0  0  0  0  0  0  0  0  0  0  0
   -6.4410   19.4370  -33.2280 C   0  0  0  0  0  0  0  0  0  0  0  0
   -7.1090   20.5810  -32.7800 C   0  0  0  0  0  0  0  0  0  0  0  0
   -6.9660   23.5560  -32.1240 C   0  0  0  0  0  0  0  0  0  0  0  0
   -5.7760   24.2600  -31.9150 C   0  0  0  0  0  0  0  0  0  0  0  0
   -2.8310   22.3180  -30.7980 C   0  0  0  0  0  0  0  0  0  0  0  0
   -3.5691   19.3605  -31.2298 H   0  0  0  0  0  0  0  0  0  0  0  0
   -3.7650   20.5877  -32.5268 H   0  0  0  0  0  0  0  0  0  0  0  0
   -2.3344   19.5014  -32.5268 H   0  0  0  0  0  0  0  0  0  0  0  0
   -0.5536   19.7701  -30.8129 H   0  0  0  0  0  0  0  0  0  0  0  0
    0.7293   21.4415  -29.4899 H   0  0  0  0  0  0  0  0  0  0  0  0
   -0.3700   24.7070  -28.4650 H   0  0  0  0  0  0  0  0  0  0  0  0
   -5.2258   23.4428  -28.6387 H   0  0  0  0  0  0  0  0  0  0  0  0
   -7.3532   22.1919  -29.0143 H   0  0  0  0  0  0  0  0  0  0  0  0
   -9.5241   19.0885  -30.8687 H   0  0  0  0  0  0  0  0  0  0  0  0
   -8.3267   17.0488  -31.6709 H   0  0  0  0  0  0  0  0  0  0  0  0
   -6.3499   17.2709  -33.1807 H   0  0  0  0  0  0  0  0  0  0  0  0
   -5.5717   19.5341  -33.8950 H   0  0  0  0  0  0  0  0  0  0  0  0
   -6.7662   21.5771  -33.0965 H   0  0  0  0  0  0  0  0  0  0  0  0
   -7.4519   23.5801  -33.1106 H   0  0  0  0  0  0  0  0  0  0  0  0
   -5.3239   24.8268  -32.7422 H   0  0  0  0  0  0  0  0  0  0  0  0
   -3.8298   22.5667  -31.1861 H   0  0  0  0  0  0  0  0  0  0  0  0
  1  2  1  0
  2  3  2  0
  3  4  1  0
  4  5  2  0
  5  6  1  0
  5  7  1  0
  7  8  1  0
  8  9  2  0
  8 10  1  0
 10 11  1  0
 11 12  2  0
 12 13  1  0
 13 14  2  0
 14 15  1  0
 15 16  1  0
 16 17  2  0
 17 18  1  0
 18 19  2  0
 19 20  1  0
 20 21  2  0
 14 22  1  0
 22 23  2  0
  7 24  2  0
 24  2  1  0
 23 11  1  0
 21 16  1  0
  1 25  1  0
  1 26  1  0
  1 27  1  0
  3 28  1  0
  4 29  1  0
  6 30  1  0
 12 31  1  0
 13 32  1  0
 17 33  1  0
 18 34  1  0
 19 35  1  0
 20 36  1  0
 21 37  1  0
 22 38  1  0
 23 39  1  0
 24 40  1  0
M  CHG  1  10  -1
M  END
>  <UniqueID>  (39) 
37

>  <SMILES>  (39) 
Cc1ccc(O)c(C(=O)[N-]c2ccc(Sc3ccccc3)cc2)c1

>  <Energy>  (39) 
46.50585342276142

>  <Genealogy>  (39) 
Cc1ccc(O)c(C(=O)[N-]c2ccc(Sc3ccccc3)cc2)c1 (protonated)
Cc1ccc(O)c(C(=O)[N-]c2ccc(Sc3ccccc3)cc2)c1 (3D coordinates assigned)
Cc1ccc(O)c(C(=O)[N-]c2ccc(Sc3ccccc3)cc2)c1 (optimized conformer: 46.50585342276142 kcal/mol)

>  <smiles>  (39) 
Cc1ccc(O)c(C(=O)Nc2ccc(Sc3ccccc3)cc2)c1

>  <score_type>  (39) 
oracle

>  <origin>  (39) 
adgpu

>  <m_score__min__energy>  (39) 
-10.58

>  <m_primary>  (39) 
energy

$$$$
39:0
     RDKit          3D

 37 39  0  0  0  0  0  0  0  0999 V2000
   -0.2020   20.4790  -32.5890 C   0  0  0  0  0  0  0  0  0  0  0  0
   -1.2210   21.3110  -31.8900 C   0  0  0  0  0  0  0  0  0  0  0  0
   -1.0420   21.8300  -30.6560 N   0  0  0  0  0  0  0  0  0  0  0  0
   -2.1460   22.4900  -30.2100 C   0  0  0  0  0  0  0  0  0  0  0  0
   -2.1590   23.1390  -28.8600 C   0  0  0  0  0  0  0  0  0  0  0  0
   -3.2260   22.4940  -31.1060 C   0  0  0  0  0  0  0  0  0  0  0  0
   -4.5400   23.1470  -30.9250 C   0  0  0  0  0  0  0  0  0  0  0  0
   -5.7180   22.3960  -31.0710 C   0  0  0  0  0  0  0  0  0  0  0  0
   -6.9730   22.9990  -30.9290 C   0  0  0  0  0  0  0  0  0  0  0  0
   -8.4240   22.0410  -31.1970 S   0  0  0  0  0  0  0  0  0  0  0  0
   -9.1990   21.9290  -29.9130 O   0  0  0  0  0  0  0  0  0  0  0  0
   -9.3060   22.6920  -32.2270 O   0  0  0  0  0  0  0  0  0  0  0  0
   -7.9450   20.4440  -31.7590 C   0  0  0  0  0  0  0  0  0  0  0  0
   -8.6690   19.3100  -31.3680 C   0  0  0  0  0  0  0  0  0  0  0  0
   -8.3150   18.0480  -31.8540 C   0  0  0  0  0  0  0  0  0  0  0  0
   -7.2430   17.9130  -32.7400 C   0  0  0  0  0  0  0  0  0  0  0  0
   -6.5220   19.0420  -33.1420 C   0  0  0  0  0  0  0  0  0  0  0  0
   -5.1880   18.8770  -34.2690 Cl  0  0  0  0  0  0  0  0  0  0  0  0
   -6.8710   20.3060  -32.6510 C   0  0  0  0  0  0  0  0  0  0  0  0
   -7.0560   24.3610  -30.6110 C   0  0  0  0  0  0  0  0  0  0  0  0
   -5.8900   25.1100  -30.4390 C   0  0  0  0  0  0  0  0  0  0  0  0
   -4.6350   24.5140  -30.5990 C   0  0  0  0  0  0  0  0  0  0  0  0
   -3.4920   25.2930  -30.4500 O   0  0  0  0  0  0  0  0  0  0  0  0
   -2.7650   21.6240  -32.4740 S   0  0  0  0  0  0  0  0  0  0  0  0
    0.4258   19.9664  -31.8452 H   0  0  0  0  0  0  0  0  0  0  0  0
   -0.7077   19.7324  -33.2190 H   0  0  0  0  0  0  0  0  0  0  0  0
    0.4284   21.1238  -33.2190 H   0  0  0  0  0  0  0  0  0  0  0  0
   -2.1435   22.3634  -28.0801 H   0  0  0  0  0  0  0  0  0  0  0  0
   -1.2736   23.7831  -28.7543 H   0  0  0  0  0  0  0  0  0  0  0  0
   -3.0695   23.7471  -28.7543 H   0  0  0  0  0  0  0  0  0  0  0  0
   -5.6534   21.3219  -31.2995 H   0  0  0  0  0  0  0  0  0  0  0  0
   -9.5184   19.4130  -30.6767 H   0  0  0  0  0  0  0  0  0  0  0  0
   -8.8815   17.1595  -31.5383 H   0  0  0  0  0  0  0  0  0  0  0  0
   -6.9662   16.9190  -33.1212 H   0  0  0  0  0  0  0  0  0  0  0  0
   -6.3016   21.1931  -32.9655 H   0  0  0  0  0  0  0  0  0  0  0  0
   -8.0395   24.8403  -30.4968 H   0  0  0  0  0  0  0  0  0  0  0  0
   -5.9591   26.1758  -30.1759 H   0  0  0  0  0  0  0  0  0  0  0  0
  1  2  1  0
  2  3  2  0
  3  4  1  0
  4  5  1  0
  4  6  2  0
  6  7  1  0
  7  8  2  0
  8  9  1  0
  9 10  1  0
 10 11  2  0
 10 12  2  0
 10 13  1  0
 13 14  2  0
 14 15  1  0
 15 16  2  0
 16 17  1  0
 17 18  1  0
 17 19  2  0
  9 20  2  0
 20 21  1  0
 21 22  2  0
 22 23  1  0
  6 24  1  0
 24  2  1  0
 22  7  1  0
 19 13  1  0
  1 25  1  0
  1 26  1  0
  1 27  1  0
  5 28  1  0
  5 29  1  0
  5 30  1  0
  8 31  1  0
 14 32  1  0
 15 33  1  0
 16 34  1  0
 19 35  1  0
 20 36  1  0
 21 37  1  0
M  CHG  1  23  -1
M  END
>  <UniqueID>  (40) 
38

>  <SMILES>  (40) 
Cc1nc(C)c(-c2cc(S(=O)(=O)c3cccc(Cl)c3)ccc2[O-])s1

>  <Energy>  (40) 
73.34745354271008

>  <Genealogy>  (40) 
Cc1nc(C)c(-c2cc(S(=O)(=O)c3cccc(Cl)c3)ccc2[O-])s1 (protonated)
Cc1nc(C)c(-c2cc(S(=O)(=O)c3cccc(Cl)c3)ccc2[O-])s1 (3D coordinates assigned)
Cc1nc(C)c(-c2cc(S(=O)(=O)c3cccc(Cl)c3)ccc2[O-])s1 (optimized conformer: 73.34745354271008 kcal/mol)

>  <smiles>  (40) 
Cc1nc(C)c(-c2cc(S(=O)(=O)c3cccc(Cl)c3)ccc2O)s1

>  <score_type>  (40) 
oracle

>  <origin>  (40) 
adgpu

>  <m_score__min__energy>  (40) 
-13

>  <m_primary>  (40) 
energy

$$$$
40:0
     RDKit          3D

 56 58  0  0  0  0  0  0  0  0999 V2000
    0.8730   18.7140  -36.6160 C   0  0  0  0  0  0  0  0  0  0  0  0
    1.0650   19.9420  -35.9210 O   0  0  0  0  0  0  0  0  0  0  0  0
    0.4040   20.2900  -34.7340 C   0  0  0  0  0  0  0  0  0  0  0  0
   -0.8800   20.8650  -34.7260 C   0  0  0  0  0  0  0  0  0  0  0  0
   -1.4860   21.2140  -33.5180 C   0  0  0  0  0  0  0  0  0  0  0  0
   -0.8260   20.9930  -32.3010 C   0  0  0  0  0  0  0  0  0  0  0  0
   -1.4400   21.3840  -31.0610 N   0  0  0  0  0  0  0  0  0  0  0  0
   -1.8230   22.6560  -30.9260 N   0  0  0  0  0  0  0  0  0  0  0  0
   -2.3630   23.1370  -29.7760 C   0  0  0  0  0  0  0  0  0  0  0  0
   -2.7290   24.5610  -29.6910 C   0  0  0  0  0  0  0  0  0  0  0  0
   -2.0400   25.3460  -28.9870 O   0  0  0  0  0  0  0  0  0  0  0  0
   -3.8280   25.0820  -30.4440 N   0  0  0  0  0  0  0  0  0  0  0  0
   -5.2210   24.8540  -30.0730 C   0  0  0  0  0  0  0  0  0  0  0  0
   -6.1040   24.8010  -31.3210 C   0  0  0  0  0  0  0  0  0  0  0  0
   -6.3650   23.3790  -31.7520 C   0  0  0  0  0  0  0  0  0  0  0  0
   -7.6330   22.8060  -31.5950 C   0  0  0  0  0  0  0  0  0  0  0  0
   -7.8530   21.4750  -31.9560 C   0  0  0  0  0  0  0  0  0  0  0  0
   -6.8080   20.6980  -32.4940 C   0  0  0  0  0  0  0  0  0  0  0  0
   -6.9810   19.3490  -32.8390 O   0  0  0  0  0  0  0  0  0  0  0  0
   -7.9970   18.5030  -32.3120 C   0  0  0  0  0  0  0  0  0  0  0  0
   -5.5460   21.2790  -32.6910 C   0  0  0  0  0  0  0  0  0  0  0  0
   -4.5290   20.4870  -33.2480 O   0  0  0  0  0  0  0  0  0  0  0  0
   -4.0510   19.2710  -32.6820 C   0  0  0  0  0  0  0  0  0  0  0  0
   -5.3310   22.6190  -32.3210 C   0  0  0  0  0  0  0  0  0  0  0  0
   -2.5140   22.2780  -28.6860 C   0  0  0  0  0  0  0  0  0  0  0  0
   -2.1340   20.9450  -28.8170 C   0  0  0  0  0  0  0  0  0  0  0  0
   -1.5860   20.5030  -30.0230 C   0  0  0  0  0  0  0  0  0  0  0  0
   -1.2140   19.3030  -30.1320 O   0  0  0  0  0  0  0  0  0  0  0  0
    0.4570   20.4160  -32.2960 C   0  0  0  0  0  0  0  0  0  0  0  0
    1.0930   20.1990  -31.0630 O   0  0  0  0  0  0  0  0  0  0  0  0
    1.7930   19.0110  -30.7100 C   0  0  0  0  0  0  0  0  0  0  0  0
    1.0590   20.0620  -33.5190 C   0  0  0  0  0  0  0  0  0  0  0  0
    0.7454   17.8977  -35.8898 H   0  0  0  0  0  0  0  0  0  0  0  0
   -0.0247   18.7866  -37.2475 H   0  0  0  0  0  0  0  0  0  0  0  0
    1.7500   18.5091  -37.2475 H   0  0  0  0  0  0  0  0  0  0  0  0
   -1.4081   21.0401  -35.6749 H   0  0  0  0  0  0  0  0  0  0  0  0
   -2.4889   21.6658  -33.5209 H   0  0  0  0  0  0  0  0  0  0  0  0
   -5.3004   23.8994  -29.5322 H   0  0  0  0  0  0  0  0  0  0  0  0
   -5.5592   25.6813  -29.4318 H   0  0  0  0  0  0  0  0  0  0  0  0
   -7.0644   25.2900  -31.1007 H   0  0  0  0  0  0  0  0  0  0  0  0
   -5.5798   25.3191  -32.1376 H   0  0  0  0  0  0  0  0  0  0  0  0
   -8.4588   23.4065  -31.1858 H   0  0  0  0  0  0  0  0  0  0  0  0
   -8.8496   21.0299  -31.8193 H   0  0  0  0  0  0  0  0  0  0  0  0
   -7.9636   18.5308  -31.2129 H   0  0  0  0  0  0  0  0  0  0  0  0
   -8.9810   18.8524  -32.6579 H   0  0  0  0  0  0  0  0  0  0  0  0
   -7.8316   17.4720  -32.6579 H   0  0  0  0  0  0  0  0  0  0  0  0
   -4.0787   19.3415  -31.5846 H   0  0  0  0  0  0  0  0  0  0  0  0
   -4.6884   18.4375  -33.0121 H   0  0  0  0  0  0  0  0  0  0  0  0
   -3.0166   19.0946  -33.0121 H   0  0  0  0  0  0  0  0  0  0  0  0
   -4.3429   23.0758  -32.4791 H   0  0  0  0  0  0  0  0  0  0  0  0
   -2.9275   22.6492  -27.7367 H   0  0  0  0  0  0  0  0  0  0  0  0
   -2.2643   20.2460  -27.9777 H   0  0  0  0  0  0  0  0  0  0  0  0
    1.8428   18.9266  -29.6144 H   0  0  0  0  0  0  0  0  0  0  0  0
    1.2648   18.1382  -31.1214 H   0  0  0  0  0  0  0  0  0  0  0  0
    2.8124   19.0501  -31.1214 H   0  0  0  0  0  0  0  0  0  0  0  0
    2.0573   19.6002  -33.5189 H   0  0  0  0  0  0  0  0  0  0  0  0
  1  2  1  0
  2  3  1  0
  3  4  2  0
  4  5  1  0
  5  6  2  0
  6  7  1  0
  7  8  1  0
  8  9  2  0
  9 10  1  0
 10 11  2  0
 10 12  1  0
 12 13  1  0
 13 14  1  0
 14 15  1  0
 15 16  2  0
 16 17  1  0
 17 18  2  0
 18 19  1  0
 19 20  1  0
 18 21  1  0
 21 22  1  0
 22 23  1  0
 21 24  2  0
  9 25  1  0
 25 26  2  0
 26 27  1  0
 27 28  2  0
  6 29  1  0
 29 30  1  0
 30 31  1  0
 29 32  2  0
 32  3  1  0
 27  7  1  0
 24 15  1  0
  1 33  1  0
  1 34  1  0
  1 35  1  0
  4 36  1  0
  5 37  1  0
 13 38  1  0
 13 39  1  0
 14 40  1  0
 14 41  1  0
 16 42  1  0
 17 43  1  0
 20 44  1  0
 20 45  1  0
 20 46  1  0
 23 47  1  0
 23 48  1  0
 23 49  1  0
 24 50  1  0
 25 51  1  0
 26 52  1  0
 31 53  1  0
 31 54  1  0
 31 55  1  0
 32 56  1  0
M  CHG  1  12  -1
M  END
>  <UniqueID>  (41) 
39

>  <SMILES>  (41) 
COc1ccc(-n2nc(C(=O)[N-]CCc3ccc(OC)c(OC)c3)ccc2=O)c(OC)c1

>  <Energy>  (41) 
58.4841862223943

>  <Genealogy>  (41) 
COc1ccc(-n2nc(C(=O)[N-]CCc3ccc(OC)c(OC)c3)ccc2=O)c(OC)c1 (protonated)
COc1ccc(-n2nc(C(=O)[N-]CCc3ccc(OC)c(OC)c3)ccc2=O)c(OC)c1 (3D coordinates assigned)
COc1ccc(-n2nc(C(=O)[N-]CCc3ccc(OC)c(OC)c3)ccc2=O)c(OC)c1 (optimized conformer: 58.4841862223943 kcal/mol)

>  <smiles>  (41) 
COc1ccc(-n2nc(C(=O)NCCc3ccc(OC)c(OC)c3)ccc2=O)c(OC)c1

>  <score_type>  (41) 
oracle

>  <origin>  (41) 
adgpu

>  <m_score__min__energy>  (41) 
-9.0399999999999991

>  <m_primary>  (41) 
energy

$$$$
41:0
     RDKit          3D

 36 38  0  0  0  0  0  0  0  0999 V2000
   -8.5650   20.0700  -32.7210 C   0  0  0  0  0  0  0  0  0  0  0  0
   -7.7210   21.1500  -32.1280 C   0  0  0  0  0  0  0  0  0  0  0  0
   -6.3340   21.2190  -32.2120 C   0  0  0  0  0  0  0  0  0  0  0  0
   -6.0010   22.4050  -31.5940 C   0  0  0  0  0  0  0  0  0  0  0  0
   -4.7580   22.9970  -31.3820 C   0  0  0  0  0  0  0  0  0  0  0  0
   -4.7230   24.2480  -30.7200 C   0  0  0  0  0  0  0  0  0  0  0  0
   -3.4910   24.9370  -30.4680 N   0  0  0  0  0  0  0  0  0  0  0  0
   -2.3720   24.5490  -29.2010 S   0  0  0  0  0  0  0  0  0  0  0  0
   -1.2820   25.5840  -29.1720 O   0  0  0  0  0  0  0  0  0  0  0  0
   -3.0920   24.5530  -27.8830 O   0  0  0  0  0  0  0  0  0  0  0  0
   -1.6580   22.9760  -29.4960 C   0  0  0  0  0  0  0  0  0  0  0  0
   -1.1440   22.1370  -28.5360 C   0  0  0  0  0  0  0  0  0  0  0  0
   -0.6620   21.0520  -29.1630 N   0  0  0  0  0  0  0  0  0  0  0  0
    0.0480   19.9360  -28.5440 C   0  0  0  0  0  0  0  0  0  0  0  0
   -0.8730   21.2680  -30.4790 C   0  0  0  0  0  0  0  0  0  0  0  0
   -0.4630   20.3230  -31.5650 C   0  0  0  0  0  0  0  0  0  0  0  0
   -1.4930   22.4440  -30.7240 N   0  0  0  0  0  0  0  0  0  0  0  0
   -5.9310   24.8490  -30.2930 C   0  0  0  0  0  0  0  0  0  0  0  0
   -7.1690   24.2230  -30.5240 C   0  0  0  0  0  0  0  0  0  0  0  0
   -7.1660   22.9960  -31.1800 C   0  0  0  0  0  0  0  0  0  0  0  0
   -8.2290   22.2410  -31.5060 N   0  0  0  0  0  0  0  0  0  0  0  0
   -9.0258   19.4804  -31.9148 H   0  0  0  0  0  0  0  0  0  0  0  0
   -9.3531   20.5201  -33.3425 H   0  0  0  0  0  0  0  0  0  0  0  0
   -7.9378   19.4140  -33.3425 H   0  0  0  0  0  0  0  0  0  0  0  0
   -5.6527   20.4875  -32.6710 H   0  0  0  0  0  0  0  0  0  0  0  0
   -3.8322   22.5076  -31.7186 H   0  0  0  0  0  0  0  0  0  0  0  0
   -1.1301   22.3210  -27.4516 H   0  0  0  0  0  0  0  0  0  0  0  0
   -0.0097   20.0267  -27.4493 H   0  0  0  0  0  0  0  0  0  0  0  0
   -0.4135   18.9883  -28.8582 H   0  0  0  0  0  0  0  0  0  0  0  0
    1.1020   19.9525  -28.8582 H   0  0  0  0  0  0  0  0  0  0  0  0
   -0.0631   19.4012  -31.1173 H   0  0  0  0  0  0  0  0  0  0  0  0
   -1.3362   20.0792  -32.1879 H   0  0  0  0  0  0  0  0  0  0  0  0
    0.3116   20.7941  -32.1879 H   0  0  0  0  0  0  0  0  0  0  0  0
   -5.9013   25.8183  -29.7737 H   0  0  0  0  0  0  0  0  0  0  0  0
   -8.1101   24.6888  -30.1963 H   0  0  0  0  0  0  0  0  0  0  0  0
   -9.2340   22.4560  -31.3260 H   0  0  0  0  0  0  0  0  0  0  0  0
  1  2  1  0
  2  3  2  0
  3  4  1  0
  4  5  2  0
  5  6  1  0
  6  7  1  0
  7  8  1  0
  8  9  2  0
  8 10  2  0
  8 11  1  0
 11 12  2  0
 12 13  1  0
 13 14  1  0
 13 15  1  0
 15 16  1  0
 15 17  2  0
  6 18  2  0
 18 19  1  0
 19 20  2  0
 20 21  1  0
 21  2  1  0
 20  4  1  0
 17 11  1  0
  1 22  1  0
  1 23  1  0
  1 24  1  0
  3 25  1  0
  5 26  1  0
 12 27  1  0
 14 28  1  0
 14 29  1  0
 14 30  1  0
 16 31  1  0
 16 32  1  0
 16 33  1  0
 18 34  1  0
 19 35  1  0
 21 36  1  0
M  CHG  1   7  -1
M  END
>  <UniqueID>  (42) 
40

>  <SMILES>  (42) 
Cc1cc2cc([N-]S(=O)(=O)c3cn(C)c(C)n3)ccc2[nH]1

>  <Energy>  (42) 
99.01020108474236

>  <Genealogy>  (42) 
Cc1cc2cc([N-]S(=O)(=O)c3cn(C)c(C)n3)ccc2[nH]1 (protonated)
Cc1cc2cc([N-]S(=O)(=O)c3cn(C)c(C)n3)ccc2[nH]1 (3D coordinates assigned)
Cc1cc2cc([N-]S(=O)(=O)c3cn(C)c(C)n3)ccc2[nH]1 (optimized conformer: 99.01020108474236 kcal/mol)

>  <smiles>  (42) 
Cc1cc2cc(NS(=O)(=O)c3cn(C)c(C)n3)ccc2[nH]1

>  <score_type>  (42) 
oracle

>  <origin>  (42) 
adgpu

>  <m_score__min__energy>  (42) 
-8.9100000000000001

>  <m_primary>  (42) 
energy

$$$$
42:0
     RDKit          3D

 37 39  0  0  0  0  0  0  0  0999 V2000
   -3.1279   15.3819  -32.8657 H   0  0  0  0  0  0  0  0  0  0  0  0
   -3.8370   16.1730  -33.1510 C   0  0  0  0  0  0  0  0  0  0  0  0
   -3.5070   17.0740  -34.1670 C   0  0  0  0  0  0  0  0  0  0  0  0
   -2.5410   16.9865  -34.6859 H   0  0  0  0  0  0  0  0  0  0  0  0
   -4.4020   18.0860  -34.5250 C   0  0  0  0  0  0  0  0  0  0  0  0
   -4.1426   18.7861  -35.3328 H   0  0  0  0  0  0  0  0  0  0  0  0
   -5.6340   18.2130  -33.8560 C   0  0  0  0  0  0  0  0  0  0  0  0
   -6.5830   19.2300  -34.2220 N   0  0  0  0  0  0  0  0  0  0  0  0
   -6.8570   19.3050  -35.2280 H   0  0  0  0  0  0  0  0  0  0  0  0
   -7.1790   20.1580  -33.2990 C   0  0  0  0  0  0  0  0  0  0  0  0
   -6.3990   21.1220  -32.6360 C   0  0  0  0  0  0  0  0  0  0  0  0
   -5.3183   21.1855  -32.8309 H   0  0  0  0  0  0  0  0  0  0  0  0
   -7.0050   22.0070  -31.7210 C   0  0  0  0  0  0  0  0  0  0  0  0
   -6.3480   22.9350  -31.0790 N   0  0  0  0  0  0  0  0  0  0  0  0
   -4.9800   23.3500  -31.2410 C   0  0  0  0  0  0  0  0  0  0  0  0
   -4.6720   24.5710  -31.1810 O   0  0  0  0  0  0  0  0  0  0  0  0
   -3.9140   22.3310  -31.3880 C   0  0  0  0  0  0  0  0  0  0  0  0
   -3.3110   21.7570  -30.2520 C   0  0  0  0  0  0  0  0  0  0  0  0
   -3.6346   22.0662  -29.2472 H   0  0  0  0  0  0  0  0  0  0  0  0
   -2.3040   20.7970  -30.3920 C   0  0  0  0  0  0  0  0  0  0  0  0
   -1.8402   20.3537  -29.4985 H   0  0  0  0  0  0  0  0  0  0  0  0
   -1.8860   20.4000  -31.6640 C   0  0  0  0  0  0  0  0  0  0  0  0
   -1.0936   19.6446  -31.7716 H   0  0  0  0  0  0  0  0  0  0  0  0
   -2.4740   20.9620  -32.8000 C   0  0  0  0  0  0  0  0  0  0  0  0
   -2.0670   20.5760  -34.0340 F   0  0  0  0  0  0  0  0  0  0  0  0
   -3.4820   21.9230  -32.6650 C   0  0  0  0  0  0  0  0  0  0  0  0
   -3.9405   22.3631  -33.5628 H   0  0  0  0  0  0  0  0  0  0  0  0
   -8.3710   21.8620  -31.4540 C   0  0  0  0  0  0  0  0  0  0  0  0
   -8.8627   22.5249  -30.7268 H   0  0  0  0  0  0  0  0  0  0  0  0
   -9.1090   20.8770  -32.1100 C   0  0  0  0  0  0  0  0  0  0  0  0
  -10.1830   20.7664  -31.8998 H   0  0  0  0  0  0  0  0  0  0  0  0
   -8.5070   20.0530  -33.0080 N   0  0  0  0  0  0  0  0  0  0  0  0
   -9.0830   19.3230  -33.4840 H   0  0  0  0  0  0  0  0  0  0  0  0
   -5.9660   17.2890  -32.8530 C   0  0  0  0  0  0  0  0  0  0  0  0
   -6.9381   17.3607  -32.3432 H   0  0  0  0  0  0  0  0  0  0  0  0
   -5.0670   16.2770  -32.4980 C   0  0  0  0  0  0  0  0  0  0  0  0
   -5.3295   15.5627  -31.7037 H   0  0  0  0  0  0  0  0  0  0  0  0
  1  2  1  0
  2  3  2  0
  3  4  1  0
  3  5  1  0
  5  6  1  0
  5  7  2  0
  7  8  1  0
  8  9  1  0
  8 10  1  0
 10 11  2  0
 11 12  1  0
 11 13  1  0
 13 14  2  0
 14 15  1  0
 15 16  2  0
 15 17  1  0
 17 18  2  0
 18 19  1  0
 18 20  1  0
 20 21  1  0
 20 22  2  0
 22 23  1  0
 22 24  1  0
 24 25  1  0
 24 26  2  0
 26 27  1  0
 13 28  1  0
 28 29  1  0
 28 30  2  0
 30 31  1  0
 30 32  1  0
 32 33  1  0
  7 34  1  0
 34 35  1  0
 34 36  2  0
 36 37  1  0
 36  2  1  0
 32 10  1  0
 26 17  1  0
M  END
>  <UniqueID>  (43) 
41

>  <SMILES>  (43) 
O=C(/N=c1/cc[nH]c(Nc2ccccc2)c1)c1cccc(F)c1

>  <Energy>  (43) 
53.48486179855904

>  <Genealogy>  (43) 
O=C(/N=c1/cc[nH]c(Nc2ccccc2)c1)c1cccc(F)c1 (cis-trans isomerization)
O=C(/N=c1/cc[nH]c(Nc2ccccc2)c1)c1cccc(F)c1 (3D coordinates assigned)
O=C(/N=c1/cc[nH]c(Nc2ccccc2)c1)c1cccc(F)c1 (optimized conformer: 53.48486179855904 kcal/mol)

>  <smiles>  (43) 
O=C(N=c1cc[nH]c(Nc2ccccc2)c1)c1cccc(F)c1

>  <score_type>  (43) 
oracle

>  <origin>  (43) 
adgpu

>  <m_score__min__energy>  (43) 
-8.3200000000000003

>  <m_primary>  (43) 
energy

$$$$
43:0
     RDKit          3D

 42 44  0  0  1  0  0  0  0  0999 V2000
   -0.8590   26.9150  -27.8460 C   0  0  0  0  0  0  0  0  0  0  0  0
   -1.3340   26.0370  -28.8470 O   0  0  0  0  0  0  0  0  0  0  0  0
   -1.5330   24.6810  -28.6340 C   0  0  0  0  0  0  0  0  0  0  0  0
   -0.7590   23.9250  -27.7770 C   0  0  0  0  0  0  0  0  0  0  0  0
   -1.0140   22.5640  -27.6080 C   0  0  0  0  0  0  0  0  0  0  0  0
   -2.0670   21.9780  -28.3210 C   0  0  0  0  0  0  0  0  0  0  0  0
   -2.8510   22.7170  -29.1830 C   0  0  0  0  0  0  0  0  0  0  0  0
   -3.9210   22.2080  -29.9330 N   0  0  0  0  0  0  0  0  0  0  0  0
   -3.7210   21.7270  -31.1110 C   0  0  0  0  0  0  0  0  0  0  0  0
   -2.4670   21.6910  -31.6850 C   0  0  0  0  0  0  0  0  0  0  0  0
   -2.3700   21.1520  -32.9500 C   0  0  0  0  0  0  0  0  0  0  0  0
   -1.0370   21.1010  -33.5860 C   0  0  0  0  0  0  0  0  0  0  0  0
   -3.4610   20.6900  -33.5750 N   0  0  0  0  0  0  0  0  0  0  0  0
   -4.7060   20.7200  -33.0170 C   0  0  0  0  0  0  0  0  0  0  0  0
   -5.8040   20.1910  -33.8280 C   0  0  0  0  0  0  0  0  0  0  0  0
   -6.8830   19.7150  -32.9400 C   0  0  0  0  0  0  0  0  0  0  0  0
   -7.7390   20.4940  -32.2270 C   0  0  0  0  0  0  0  0  0  0  0  0
   -7.6520   22.2320  -32.3350 Cl  0  0  0  0  0  0  0  0  0  0  0  0
   -8.7270   19.9660  -31.3930 C   0  0  0  0  0  0  0  0  0  0  0  0
   -8.8590   18.6010  -31.2740 C   0  0  0  0  0  0  0  0  0  0  0  0
   -8.0030   17.7940  -31.9870 C   0  0  0  0  0  0  0  0  0  0  0  0
   -7.0330   18.3320  -32.8060 C   0  0  0  0  0  0  0  0  0  0  0  0
   -5.9960   17.2370  -33.6710 Cl  0  0  0  0  0  0  0  0  0  0  0  0
   -4.8010   21.2420  -31.7930 N   0  0  0  0  0  0  0  0  0  0  0  0
   -2.5670   24.0790  -29.3280 C   0  0  0  0  0  0  0  0  0  0  0  0
   -1.0852   26.4968  -26.8540 H   0  0  0  0  0  0  0  0  0  0  0  0
    0.2289   27.0383  -27.9525 H   0  0  0  0  0  0  0  0  0  0  0  0
   -1.3510   27.8930  -27.9525 H   0  0  0  0  0  0  0  0  0  0  0  0
    0.0648   24.3991  -27.2233 H   0  0  0  0  0  0  0  0  0  0  0  0
   -0.3976   21.9607  -26.9254 H   0  0  0  0  0  0  0  0  0  0  0  0
   -2.2737   20.9054  -28.1911 H   0  0  0  0  0  0  0  0  0  0  0  0
   -1.5827   22.0758  -31.1560 H   0  0  0  0  0  0  0  0  0  0  0  0
   -0.2603   21.0713  -32.8077 H   0  0  0  0  0  0  0  0  0  0  0  0
   -0.9636   20.1994  -34.2119 H   0  0  0  0  0  0  0  0  0  0  0  0
   -0.8949   21.9944  -34.2119 H   0  0  0  0  0  0  0  0  0  0  0  0
   -6.1915   20.9846  -34.4838 H   0  0  0  0  0  0  0  0  0  0  0  0
   -5.4379   19.3554  -34.4426 H   0  0  0  0  0  0  0  0  0  0  0  0
   -9.3959   20.6372  -30.8344 H   0  0  0  0  0  0  0  0  0  0  0  0
   -9.6316   18.1653  -30.6234 H   0  0  0  0  0  0  0  0  0  0  0  0
   -8.0939   16.7010  -31.9023 H   0  0  0  0  0  0  0  0  0  0  0  0
   -5.7200   21.2980  -31.3330 H   0  0  0  0  0  0  0  0  0  0  0  0
   -3.1806   24.6857  -30.0102 H   0  0  0  0  0  0  0  0  0  0  0  0
  1  2  1  0
  2  3  1  0
  3  4  2  0
  4  5  1  0
  5  6  2  0
  6  7  1  0
  7  8  1  0
  8  9  2  0
  9 10  1  0
 10 11  2  0
 11 12  1  0
 11 13  1  0
 13 14  2  0
 14 15  1  0
 15 16  1  0
 16 17  2  0
 17 18  1  0
 17 19  1  0
 19 20  2  0
 20 21  1  0
 21 22  2  0
 22 23  1  0
 14 24  1  0
  7 25  2  0
 25  3  1  0
 24  9  1  0
 22 16  1  0
  1 26  1  0
  1 27  1  0
  1 28  1  0
  4 29  1  0
  5 30  1  0
  6 31  1  0
 10 32  1  0
 12 33  1  0
 12 34  1  0
 12 35  1  0
 15 36  1  0
 15 37  1  0
 19 38  1  0
 20 39  1  0
 21 40  1  0
 24 41  1  0
 25 42  1  0
M  END
>  <smiles>  (44) 
COc1cccc(N=c2cc(C)nc(Cc3c(Cl)cccc3Cl)[nH]2)c1

>  <score_type>  (44) 
oracle

>  <origin>  (44) 
adgpu

>  <m_score__min__energy>  (44) 
-8.7899999999999991

>  <m_primary>  (44) 
energy

$$$$
44:0
     RDKit          3D

 38 40  0  0  0  0  0  0  0  0999 V2000
   -2.9210   15.1510  -35.3150 C   0  0  0  0  0  0  0  0  0  0  0  0
   -3.9670   15.9150  -34.5590 C   0  0  0  0  0  0  0  0  0  0  0  0
   -4.5540   17.0570  -35.1240 C   0  0  0  0  0  0  0  0  0  0  0  0
   -5.5020   17.7910  -34.4050 C   0  0  0  0  0  0  0  0  0  0  0  0
   -5.8780   17.3910  -33.1110 C   0  0  0  0  0  0  0  0  0  0  0  0
   -6.8300   18.1470  -32.3410 N   0  0  0  0  0  0  0  0  0  0  0  0
   -6.8070   19.5790  -32.2020 C   0  0  0  0  0  0  0  0  0  0  0  0
   -7.9700   20.2500  -31.8020 C   0  0  0  0  0  0  0  0  0  0  0  0
   -7.9800   21.6430  -31.6800 C   0  0  0  0  0  0  0  0  0  0  0  0
   -9.1420   22.2860  -31.2670 O   0  0  0  0  0  0  0  0  0  0  0  0
   -6.8230   22.3830  -31.9710 C   0  0  0  0  0  0  0  0  0  0  0  0
   -6.8280   24.1720  -31.8030 S   0  0  0  0  0  0  0  0  0  0  0  0
   -5.3980   24.1620  -30.7270 C   0  0  0  0  0  0  0  0  0  0  0  0
   -5.1880   23.2890  -29.6830 C   0  0  0  0  0  0  0  0  0  0  0  0
   -4.0030   23.5980  -29.1330 N   0  0  0  0  0  0  0  0  0  0  0  0
   -3.4020   22.9950  -27.9490 C   0  0  0  0  0  0  0  0  0  0  0  0
   -3.5450   24.6530  -29.8360 C   0  0  0  0  0  0  0  0  0  0  0  0
   -2.3460   25.2990  -29.5610 O   0  0  0  0  0  0  0  0  0  0  0  0
   -4.3710   25.0300  -30.8340 N   0  0  0  0  0  0  0  0  0  0  0  0
   -5.6640   21.7180  -32.4020 C   0  0  0  0  0  0  0  0  0  0  0  0
   -4.5160   22.4350  -32.7150 O   0  0  0  0  0  0  0  0  0  0  0  0
   -5.6590   20.3250  -32.5220 C   0  0  0  0  0  0  0  0  0  0  0  0
   -5.2590   16.2720  -32.5340 C   0  0  0  0  0  0  0  0  0  0  0  0
   -4.3110   15.5380  -33.2530 C   0  0  0  0  0  0  0  0  0  0  0  0
   -2.2431   14.6559  -34.6041 H   0  0  0  0  0  0  0  0  0  0  0  0
   -3.4061   14.3931  -35.9477 H   0  0  0  0  0  0  0  0  0  0  0  0
   -2.3466   15.8437  -35.9477 H   0  0  0  0  0  0  0  0  0  0  0  0
   -4.2672   17.3762  -36.1368 H   0  0  0  0  0  0  0  0  0  0  0  0
   -5.9562   18.6864  -34.8544 H   0  0  0  0  0  0  0  0  0  0  0  0
   -7.5860   17.6210  -31.8480 H   0  0  0  0  0  0  0  0  0  0  0  0
   -8.8825   19.6765  -31.5822 H   0  0  0  0  0  0  0  0  0  0  0  0
   -5.8665   22.4860  -29.3592 H   0  0  0  0  0  0  0  0  0  0  0  0
   -3.8453   23.4398  -27.0459 H   0  0  0  0  0  0  0  0  0  0  0  0
   -3.5898   21.9112  -27.9540 H   0  0  0  0  0  0  0  0  0  0  0  0
   -2.3175   23.1792  -27.9540 H   0  0  0  0  0  0  0  0  0  0  0  0
   -4.7513   19.8095  -32.8689 H   0  0  0  0  0  0  0  0  0  0  0  0
   -5.5213   15.9702  -31.5092 H   0  0  0  0  0  0  0  0  0  0  0  0
   -3.8329   14.6610  -32.7922 H   0  0  0  0  0  0  0  0  0  0  0  0
  1  2  1  0
  2  3  2  0
  3  4  1  0
  4  5  2  0
  5  6  1  0
  6  7  1  0
  7  8  2  0
  8  9  1  0
  9 10  1  0
  9 11  2  0
 11 12  1  0
 12 13  1  0
 13 14  2  0
 14 15  1  0
 15 16  1  0
 15 17  1  0
 17 18  1  0
 17 19  2  0
 11 20  1  0
 20 21  1  0
 20 22  2  0
  5 23  1  0
 23 24  2  0
 24  2  1  0
 22  7  1  0
 19 13  1  0
  1 25  1  0
  1 26  1  0
  1 27  1  0
  3 28  1  0
  4 29  1  0
  6 30  1  0
  8 31  1  0
 14 32  1  0
 16 33  1  0
 16 34  1  0
 16 35  1  0
 22 36  1  0
 23 37  1  0
 24 38  1  0
M  CHG  3  10  -1  18  -1  21  -1
M  END
>  <UniqueID>  (45) 
42

>  <SMILES>  (45) 
Cc1ccc(Nc2cc([O-])c(Sc3cn(C)c([O-])n3)c([O-])c2)cc1

>  <Energy>  (45) 
71.0990786112315

>  <Genealogy>  (45) 
Cc1ccc(Nc2cc([O-])c(Sc3cn(C)c([O-])n3)c([O-])c2)cc1 (protonated)
Cc1ccc(Nc2cc([O-])c(Sc3cn(C)c([O-])n3)c([O-])c2)cc1 (3D coordinates assigned)
Cc1ccc(Nc2cc([O-])c(Sc3cn(C)c([O-])n3)c([O-])c2)cc1 (optimized conformer: 71.0990786112315 kcal/mol)

>  <smiles>  (45) 
Cc1ccc(Nc2cc(O)c(Sc3cn(C)c(O)n3)c(O)c2)cc1

>  <score_type>  (45) 
oracle

>  <origin>  (45) 
adgpu

>  <m_score__min__energy>  (45) 
-10.85

>  <m_primary>  (45) 
energy

$$$$
45:0
     RDKit          3D

 60 63  0  0  0  0  0  0  0  0999 V2000
    0.8970   18.2220  -31.5210 C   0  0  0  0  0  0  0  0  0  0  0  0
   -0.5240   18.1850  -31.6240 O   0  0  0  0  0  0  0  0  0  0  0  0
   -1.3090   19.1870  -32.2150 C   0  0  0  0  0  0  0  0  0  0  0  0
   -2.2500   18.8790  -33.2190 C   0  0  0  0  0  0  0  0  0  0  0  0
   -2.9880   19.8930  -33.8350 C   0  0  0  0  0  0  0  0  0  0  0  0
   -2.7960   21.2220  -33.4670 C   0  0  0  0  0  0  0  0  0  0  0  0
   -1.8760   21.5410  -32.4680 C   0  0  0  0  0  0  0  0  0  0  0  0
   -1.1410   20.5370  -31.8220 C   0  0  0  0  0  0  0  0  0  0  0  0
   -0.2230   20.9490  -30.7950 N   0  0  0  0  0  0  0  0  0  0  0  0
   -0.5090   20.9750  -29.0850 S   0  0  0  0  0  0  0  0  0  0  0  0
    0.7920   20.8650  -28.3430 O   0  0  0  0  0  0  0  0  0  0  0  0
   -1.3990   19.8260  -28.7090 O   0  0  0  0  0  0  0  0  0  0  0  0
   -1.2710   22.5190  -28.6900 C   0  0  0  0  0  0  0  0  0  0  0  0
   -2.0370   23.1500  -29.6790 C   0  0  0  0  0  0  0  0  0  0  0  0
   -2.7240   24.3380  -29.4080 C   0  0  0  0  0  0  0  0  0  0  0  0
   -3.4910   24.9460  -30.4570 N   0  0  0  0  0  0  0  0  0  0  0  0
   -4.9200   24.9140  -30.5840 C   0  0  0  0  0  0  0  0  0  0  0  0
   -5.6030   25.9270  -30.2760 O   0  0  0  0  0  0  0  0  0  0  0  0
   -5.5960   23.6680  -31.0140 C   0  0  0  0  0  0  0  0  0  0  0  0
   -6.9360   23.6910  -31.4410 C   0  0  0  0  0  0  0  0  0  0  0  0
   -7.5690   22.5150  -31.8490 C   0  0  0  0  0  0  0  0  0  0  0  0
   -6.8720   21.2990  -31.8460 C   0  0  0  0  0  0  0  0  0  0  0  0
   -7.6700   19.8150  -32.3730 S   0  0  0  0  0  0  0  0  0  0  0  0
   -8.6910   20.1560  -33.4260 O   0  0  0  0  0  0  0  0  0  0  0  0
   -8.3940   19.1990  -31.2060 O   0  0  0  0  0  0  0  0  0  0  0  0
   -6.5310   18.6580  -33.0190 N   0  0  0  0  0  0  0  0  0  0  0  0
   -6.1200   19.0430  -34.3800 C   0  0  0  0  0  0  0  0  0  0  0  0
   -5.2570   17.9340  -35.0190 C   0  0  0  0  0  0  0  0  0  0  0  0
   -4.9210   16.9350  -34.0760 O   0  0  0  0  0  0  0  0  0  0  0  0
   -6.0990   16.3000  -33.6060 C   0  0  0  0  0  0  0  0  0  0  0  0
   -7.1150   17.3100  -33.0320 C   0  0  0  0  0  0  0  0  0  0  0  0
   -5.5380   21.2690  -31.4220 C   0  0  0  0  0  0  0  0  0  0  0  0
   -4.9050   22.4420  -31.0030 C   0  0  0  0  0  0  0  0  0  0  0  0
   -2.6080   24.9270  -28.1380 C   0  0  0  0  0  0  0  0  0  0  0  0
   -1.8300   24.3160  -27.1500 C   0  0  0  0  0  0  0  0  0  0  0  0
   -1.1630   23.1110  -27.4130 C   0  0  0  0  0  0  0  0  0  0  0  0
   -0.4020   22.5120  -26.4100 O   0  0  0  0  0  0  0  0  0  0  0  0
    1.1877   18.2296  -30.4601 H   0  0  0  0  0  0  0  0  0  0  0  0
    1.3234   17.3347  -32.0117 H   0  0  0  0  0  0  0  0  0  0  0  0
    1.2767   19.1303  -32.0117 H   0  0  0  0  0  0  0  0  0  0  0  0
   -2.4043   17.8322  -33.5196 H   0  0  0  0  0  0  0  0  0  0  0  0
   -3.7232   19.6405  -34.6133 H   0  0  0  0  0  0  0  0  0  0  0  0
   -3.3689   22.0192  -33.9632 H   0  0  0  0  0  0  0  0  0  0  0  0
   -1.7255   22.5929  -32.1837 H   0  0  0  0  0  0  0  0  0  0  0  0
   -2.0990   22.7048  -30.6830 H   0  0  0  0  0  0  0  0  0  0  0  0
   -7.4891   24.6418  -31.4536 H   0  0  0  0  0  0  0  0  0  0  0  0
   -8.6194   22.5431  -32.1742 H   0  0  0  0  0  0  0  0  0  0  0  0
   -7.0165   19.2044  -34.9967 H   0  0  0  0  0  0  0  0  0  0  0  0
   -5.5264   19.9674  -34.3239 H   0  0  0  0  0  0  0  0  0  0  0  0
   -5.8199   17.4729  -35.8439 H   0  0  0  0  0  0  0  0  0  0  0  0
   -4.3261   18.3889  -35.3886 H   0  0  0  0  0  0  0  0  0  0  0  0
   -6.5687   15.7609  -34.4419 H   0  0  0  0  0  0  0  0  0  0  0  0
   -5.8125   15.6118  -32.7971 H   0  0  0  0  0  0  0  0  0  0  0  0
   -8.0202   17.3112  -33.6570 H   0  0  0  0  0  0  0  0  0  0  0  0
   -7.3723   17.0181  -32.0031 H   0  0  0  0  0  0  0  0  0  0  0  0
   -4.9858   20.3177  -31.4187 H   0  0  0  0  0  0  0  0  0  0  0  0
   -3.8597   22.4070  -30.6623 H   0  0  0  0  0  0  0  0  0  0  0  0
   -3.1301   25.8704  -27.9205 H   0  0  0  0  0  0  0  0  0  0  0  0
   -1.7405   24.7842  -26.1587 H   0  0  0  0  0  0  0  0  0  0  0  0
    0.0410   21.6100  -26.5440 H   0  0  0  0  0  0  0  0  0  0  0  0
  1  2  1  0
  2  3  1  0
  3  4  2  0
  4  5  1  0
  5  6  2  0
  6  7  1  0
  7  8  2  0
  8  9  1  0
  9 10  1  0
 10 11  2  0
 10 12  2  0
 10 13  1  0
 13 14  2  0
 14 15  1  0
 15 16  1  0
 16 17  1  0
 17 18  2  0
 17 19  1  0
 19 20  2  0
 20 21  1  0
 21 22  2  0
 22 23  1  0
 23 24  2  0
 23 25  2  0
 23 26  1  0
 26 27  1  0
 27 28  1  0
 28 29  1  0
 29 30  1  0
 30 31  1  0
 22 32  1  0
 32 33  2  0
 15 34  2  0
 34 35  1  0
 35 36  2  0
 36 37  1  0
  8  3  1  0
 36 13  1  0
 33 19  1  0
 31 26  1  0
  1 38  1  0
  1 39  1  0
  1 40  1  0
  4 41  1  0
  5 42  1  0
  6 43  1  0
  7 44  1  0
 14 45  1  0
 20 46  1  0
 21 47  1  0
 27 48  1  0
 27 49  1  0
 28 50  1  0
 28 51  1  0
 30 52  1  0
 30 53  1  0
 31 54  1  0
 31 55  1  0
 32 56  1  0
 33 57  1  0
 34 58  1  0
 35 59  1  0
 37 60  1  0
M  CHG  2   9  -1  16  -1
M  END
>  <UniqueID>  (46) 
43

>  <SMILES>  (46) 
COc1ccccc1[N-]S(=O)(=O)c1cc([N-]C(=O)c2ccc(S(=O)(=O)N3CCOCC3)cc2)ccc1O

>  <Energy>  (46) 
83.84054533126786

>  <Genealogy>  (46) 
COc1ccccc1[N-]S(=O)(=O)c1cc([N-]C(=O)c2ccc(S(=O)(=O)N3CCOCC3)cc2)ccc1O (protonated)
COc1ccccc1[N-]S(=O)(=O)c1cc([N-]C(=O)c2ccc(S(=O)(=O)N3CCOCC3)cc2)ccc1O (3D coordinates assigned)
COc1ccccc1[N-]S(=O)(=O)c1cc([N-]C(=O)c2ccc(S(=O)(=O)N3CCOCC3)cc2)ccc1O (nonaromatic ring conformer: 83.84054533126786 kcal/mol)

>  <smiles>  (46) 
COc1ccccc1NS(=O)(=O)c1cc(NC(=O)c2ccc(S(=O)(=O)N3CCOCC3)cc2)ccc1O

>  <score_type>  (46) 
oracle

>  <origin>  (46) 
adgpu

>  <m_score__min__energy>  (46) 
-11.98

>  <m_primary>  (46) 
energy

$$$$
46:0
     RDKit          3D

 35 37  0  0  1  0  0  0  0  0999 V2000
    0.3060   22.7010  -35.5810 O   0  0  0  0  0  0  0  0  0  0  0  0
    0.2560   21.4900  -34.8810 C   0  0  0  0  0  0  0  0  0  0  0  0
    1.3780   21.1270  -34.1510 C   0  0  0  0  0  0  0  0  0  0  0  0
    1.3670   19.9330  -33.4440 C   0  0  0  0  0  0  0  0  0  0  0  0
    0.2320   19.1330  -33.4880 C   0  0  0  0  0  0  0  0  0  0  0  0
   -0.8910   19.4810  -34.2110 C   0  0  0  0  0  0  0  0  0  0  0  0
   -2.0220   18.6160  -34.2140 N   0  0  0  0  0  0  0  0  0  0  0  0
   -3.1550   19.0750  -33.8150 C   0  0  0  0  0  0  0  0  0  0  0  0
   -4.1990   18.2190  -33.8350 N   0  0  0  0  0  0  0  0  0  0  0  0
   -5.4300   18.5880  -33.4410 C   0  0  0  0  0  0  0  0  0  0  0  0
   -6.7480   17.4490  -33.4840 Cl  0  0  0  0  0  0  0  0  0  0  0  0
   -5.5970   19.8780  -33.0130 C   0  0  0  0  0  0  0  0  0  0  0  0
   -4.5430   20.7760  -32.9830 C   0  0  0  0  0  0  0  0  0  0  0  0
   -4.7680   21.9730  -32.5690 N   0  0  0  0  0  0  0  0  0  0  0  0
   -6.0550   22.4630  -32.1250 C   0  0  0  0  0  0  0  0  0  0  0  0
   -5.9170   23.6830  -31.2640 C   0  0  0  0  0  0  0  0  0  0  0  0
   -6.8600   24.1470  -30.3450 C   0  0  0  0  0  0  0  0  0  0  0  0
   -6.3580   25.2990  -29.7530 C   0  0  0  0  0  0  0  0  0  0  0  0
   -5.1120   25.4800  -30.3540 C   0  0  0  0  0  0  0  0  0  0  0  0
   -4.8980   24.5210  -31.2230 O   0  0  0  0  0  0  0  0  0  0  0  0
   -3.3200   20.3570  -33.3890 N   0  0  0  0  0  0  0  0  0  0  0  0
   -0.8720   20.6750  -34.9140 C   0  0  0  0  0  0  0  0  0  0  0  0
   -0.4900   23.0660  -36.0830 H   0  0  0  0  0  0  0  0  0  0  0  0
    2.2651   21.7772  -34.1327 H   0  0  0  0  0  0  0  0  0  0  0  0
    2.2446   19.6243  -32.8570 H   0  0  0  0  0  0  0  0  0  0  0  0
    0.2282   18.1874  -32.9259 H   0  0  0  0  0  0  0  0  0  0  0  0
   -4.0710   17.2360  -34.1620 H   0  0  0  0  0  0  0  0  0  0  0  0
   -6.5932   20.2093  -32.6848 H   0  0  0  0  0  0  0  0  0  0  0  0
   -6.6636   22.7153  -33.0059 H   0  0  0  0  0  0  0  0  0  0  0  0
   -6.5347   21.6739  -31.5273 H   0  0  0  0  0  0  0  0  0  0  0  0
   -7.8323   23.6810  -30.1274 H   0  0  0  0  0  0  0  0  0  0  0  0
   -6.8345   25.9260  -28.9850 H   0  0  0  0  0  0  0  0  0  0  0  0
   -4.4151   26.3018  -30.1328 H   0  0  0  0  0  0  0  0  0  0  0  0
   -2.5180   21.0050  -33.3770 H   0  0  0  0  0  0  0  0  0  0  0  0
   -1.7514   20.9799  -35.5002 H   0  0  0  0  0  0  0  0  0  0  0  0
  1  2  1  0
  2  3  2  0
  3  4  1  0
  4  5  2  0
  5  6  1  0
  6  7  1  0
  7  8  2  0
  8  9  1  0
  9 10  1  0
 10 11  1  0
 10 12  2  0
 12 13  1  0
 13 14  2  0
 14 15  1  0
 15 16  1  0
 16 17  2  0
 17 18  1  0
 18 19  2  0
 19 20  1  0
 13 21  1  0
  6 22  2  0
 22  2  1  0
 21  8  1  0
 20 16  1  0
  1 23  1  0
  3 24  1  0
  4 25  1  0
  5 26  1  0
  9 27  1  0
 12 28  1  0
 15 29  1  0
 15 30  1  0
 17 31  1  0
 18 32  1  0
 19 33  1  0
 21 34  1  0
 22 35  1  0
M  END
>  <smiles>  (47) 
Oc1cccc(N=c2[nH]c(Cl)cc(=NCc3ccco3)[nH]2)c1

>  <score_type>  (47) 
oracle

>  <origin>  (47) 
adgpu

>  <m_score__min__energy>  (47) 
-7.9400000000000004

>  <m_primary>  (47) 
energy

$$$$
47:0
     RDKit          3D

 54 56  0  0  0  0  0  0  0  0999 V2000
   -6.5370   16.5970  -33.8120 C   0  0  0  0  0  0  0  0  0  0  0  0
   -6.5460   18.1020  -34.0540 C   0  0  0  0  0  0  0  0  0  0  0  0
   -6.5190   18.8240  -32.7720 N   0  0  0  0  0  0  0  0  0  0  0  0
   -5.3760   18.6830  -31.8610 C   0  0  0  0  0  0  0  0  0  0  0  0
   -4.3790   19.7980  -32.0620 C   0  0  0  0  0  0  0  0  0  0  0  0
   -4.2640   20.4310  -33.3090 C   0  0  0  0  0  0  0  0  0  0  0  0
   -3.3220   21.4440  -33.5010 C   0  0  0  0  0  0  0  0  0  0  0  0
   -2.4790   21.8270  -32.4540 C   0  0  0  0  0  0  0  0  0  0  0  0
   -2.5620   21.1870  -31.2050 C   0  0  0  0  0  0  0  0  0  0  0  0
   -1.6850   21.6320  -30.0600 C   0  0  0  0  0  0  0  0  0  0  0  0
   -1.3100   22.9550  -30.2170 F   0  0  0  0  0  0  0  0  0  0  0  0
   -2.3570   21.5140  -28.8550 F   0  0  0  0  0  0  0  0  0  0  0  0
   -0.5500   20.8420  -30.0220 F   0  0  0  0  0  0  0  0  0  0  0  0
   -3.5330   20.1900  -31.0110 C   0  0  0  0  0  0  0  0  0  0  0  0
   -7.5130   19.8310  -32.5080 C   0  0  0  0  0  0  0  0  0  0  0  0
   -8.8770   19.5430  -32.6710 C   0  0  0  0  0  0  0  0  0  0  0  0
   -9.8390   20.5210  -32.4050 C   0  0  0  0  0  0  0  0  0  0  0  0
   -9.4460   21.7940  -31.9840 C   0  0  0  0  0  0  0  0  0  0  0  0
   -8.0820   22.1010  -31.8360 C   0  0  0  0  0  0  0  0  0  0  0  0
   -7.6500   23.3630  -31.4010 O   0  0  0  0  0  0  0  0  0  0  0  0
   -6.4910   23.6090  -30.6500 C   0  0  0  0  0  0  0  0  0  0  0  0
   -5.8180   24.8210  -30.8290 C   0  0  0  0  0  0  0  0  0  0  0  0
   -4.6690   25.1100  -30.0870 C   0  0  0  0  0  0  0  0  0  0  0  0
   -4.1840   24.1950  -29.1340 C   0  0  0  0  0  0  0  0  0  0  0  0
   -2.9620   24.5120  -28.3570 C   0  0  0  0  0  0  0  0  0  0  0  0
   -2.8000   23.9910  -27.2180 O   0  0  0  0  0  0  0  0  0  0  0  0
   -1.9510   25.3870  -28.8820 N   0  0  0  0  0  0  0  0  0  0  0  0
   -0.8300   25.8350  -28.0660 C   0  0  0  0  0  0  0  0  0  0  0  0
   -4.8690   22.9800  -28.9510 C   0  0  0  0  0  0  0  0  0  0  0  0
   -6.0160   22.6930  -29.6960 C   0  0  0  0  0  0  0  0  0  0  0  0
   -7.1250   21.1100  -32.0850 C   0  0  0  0  0  0  0  0  0  0  0  0
   -6.5358   16.3996  -32.7299 H   0  0  0  0  0  0  0  0  0  0  0  0
   -7.4325   16.1473  -34.2658 H   0  0  0  0  0  0  0  0  0  0  0  0
   -5.6362   16.1580  -34.2658 H   0  0  0  0  0  0  0  0  0  0  0  0
   -5.6615   18.3799  -34.6460 H   0  0  0  0  0  0  0  0  0  0  0  0
   -7.4629   18.3721  -34.5983 H   0  0  0  0  0  0  0  0  0  0  0  0
   -5.7389   18.7086  -30.8229 H   0  0  0  0  0  0  0  0  0  0  0  0
   -4.8767   17.7260  -32.0730 H   0  0  0  0  0  0  0  0  0  0  0  0
   -4.9189   20.1279  -34.1392 H   0  0  0  0  0  0  0  0  0  0  0  0
   -3.2433   21.9418  -34.4788 H   0  0  0  0  0  0  0  0  0  0  0  0
   -1.7468   22.6333  -32.6080 H   0  0  0  0  0  0  0  0  0  0  0  0
   -3.6318   19.7112  -30.0256 H   0  0  0  0  0  0  0  0  0  0  0  0
   -9.1898   18.5441  -33.0093 H   0  0  0  0  0  0  0  0  0  0  0  0
  -10.9071   20.2883  -32.5272 H   0  0  0  0  0  0  0  0  0  0  0  0
  -10.2065   22.5587  -31.7676 H   0  0  0  0  0  0  0  0  0  0  0  0
   -6.1951   25.5525  -31.5588 H   0  0  0  0  0  0  0  0  0  0  0  0
   -4.1396   26.0605  -30.2494 H   0  0  0  0  0  0  0  0  0  0  0  0
   -1.9780   25.6810  -29.8840 H   0  0  0  0  0  0  0  0  0  0  0  0
   -1.0872   25.7322  -27.0014 H   0  0  0  0  0  0  0  0  0  0  0  0
    0.0550   25.2215  -28.2903 H   0  0  0  0  0  0  0  0  0  0  0  0
   -0.6116   26.8895  -28.2903 H   0  0  0  0  0  0  0  0  0  0  0  0
   -4.4990   22.2502  -28.2158 H   0  0  0  0  0  0  0  0  0  0  0  0
   -6.5499   21.7449  -29.5348 H   0  0  0  0  0  0  0  0  0  0  0  0
   -6.0576   21.3373  -31.9473 H   0  0  0  0  0  0  0  0  0  0  0  0
  1  2  1  0
  2  3  1  0
  3  4  1  0
  4  5  1  0
  5  6  2  0
  6  7  1  0
  7  8  2  0
  8  9  1  0
  9 10  1  0
 10 11  1  0
 10 12  1  0
 10 13  1  0
  9 14  2  0
  3 15  1  0
 15 16  2  0
 16 17  1  0
 17 18  2  0
 18 19  1  0
 19 20  1  0
 20 21  1  0
 21 22  2  0
 22 23  1  0
 23 24  2  0
 24 25  1  0
 25 26  2  0
 25 27  1  0
 27 28  1  0
 24 29  1  0
 29 30  2  0
 19 31  2  0
 14  5  1  0
 31 15  1  0
 30 21  1  0
  1 32  1  0
  1 33  1  0
  1 34  1  0
  2 35  1  0
  2 36  1  0
  4 37  1  0
  4 38  1  0
  6 39  1  0
  7 40  1  0
  8 41  1  0
 14 42  1  0
 16 43  1  0
 17 44  1  0
 18 45  1  0
 22 46  1  0
 23 47  1  0
 27 48  1  0
 28 49  1  0
 28 50  1  0
 28 51  1  0
 29 52  1  0
 30 53  1  0
 31 54  1  0
M  END
>  <UniqueID>  (48) 
44

>  <SMILES>  (48) 
CCN(Cc1cccc(C(F)(F)F)c1)c1cccc(Oc2ccc(C(=O)NC)cc2)c1

>  <Energy>  (48) 
62.74858251040482

>  <Genealogy>  (48) 
CCN(Cc1cccc(C(F)(F)F)c1)c1cccc(Oc2ccc(C(=O)NC)cc2)c1 (3D coordinates assigned)
CCN(Cc1cccc(C(F)(F)F)c1)c1cccc(Oc2ccc(C(=O)NC)cc2)c1 (optimized conformer: 62.74858251040482 kcal/mol)

>  <smiles>  (48) 
CCN(Cc1cccc(C(F)(F)F)c1)c1cccc(Oc2ccc(C(=O)NC)cc2)c1

>  <score_type>  (48) 
oracle

>  <origin>  (48) 
adgpu

>  <m_score__min__energy>  (48) 
-9.0899999999999999

>  <m_primary>  (48) 
energy

$$$$
48:0
     RDKit          3D

 46 49  0  0  0  0  0  0  0  0999 V2000
   -2.4556   22.4610  -28.6731 H   0  0  0  0  0  0  0  0  0  0  0  0
   -2.6270   23.2980  -29.3660 C   0  0  0  0  0  0  0  0  0  0  0  0
   -1.8120   24.3080  -29.3530 N   0  0  0  0  0  0  0  0  0  0  0  0
   -0.6710   24.4160  -28.4930 C   0  0  0  0  0  0  0  0  0  0  0  0
   -0.0880   25.5990  -28.2070 N   0  0  0  0  0  0  0  0  0  0  0  0
    0.9650   25.4840  -27.4010 N   0  0  0  0  0  0  0  0  0  0  0  0
    1.2220   24.2090  -27.0340 C   0  0  0  0  0  0  0  0  0  0  0  0
    2.3870   23.8100  -26.1870 C   0  0  0  0  0  0  0  0  0  0  0  0
    2.1343   22.8975  -25.6272 H   0  0  0  0  0  0  0  0  0  0  0  0
    3.2561   23.6227  -26.8348 H   0  0  0  0  0  0  0  0  0  0  0  0
    2.7230   24.9130  -25.2170 C   0  0  0  0  0  0  0  0  0  0  0  0
    1.7060   25.7650  -24.7520 C   0  0  0  0  0  0  0  0  0  0  0  0
    0.6763   25.6381  -25.1176 H   0  0  0  0  0  0  0  0  0  0  0  0
    1.9960   26.7720  -23.8280 C   0  0  0  0  0  0  0  0  0  0  0  0
    1.1960   27.4385  -23.4733 H   0  0  0  0  0  0  0  0  0  0  0  0
    3.2990   26.9340  -23.3540 C   0  0  0  0  0  0  0  0  0  0  0  0
    3.5260   27.7307  -22.6303 H   0  0  0  0  0  0  0  0  0  0  0  0
    4.3150   26.0840  -23.7990 C   0  0  0  0  0  0  0  0  0  0  0  0
    5.3403   26.2116  -23.4215 H   0  0  0  0  0  0  0  0  0  0  0  0
    4.0340   25.0720  -24.7220 C   0  0  0  0  0  0  0  0  0  0  0  0
    5.0580   24.2280  -25.1380 O   0  0  0  0  0  0  0  0  0  0  0  0
    0.1310   23.1350  -27.7370 S   0  0  0  0  0  0  0  0  0  0  0  0
   -3.7880   23.2450  -30.2960 C   0  0  0  0  0  0  0  0  0  0  0  0
   -4.3720   24.4410  -30.7380 C   0  0  0  0  0  0  0  0  0  0  0  0
   -3.8770   25.6740  -30.3250 O   0  0  0  0  0  0  0  0  0  0  0  0
   -5.4310   24.4090  -31.5790 N   0  0  0  0  0  0  0  0  0  0  0  0
   -5.9590   23.2410  -32.0160 C   0  0  0  0  0  0  0  0  0  0  0  0
   -6.9580   23.2720  -32.7850 O   0  0  0  0  0  0  0  0  0  0  0  0
   -5.4190   22.0480  -31.6150 N   0  0  0  0  0  0  0  0  0  0  0  0
   -5.9880   20.8080  -32.0850 C   0  0  0  0  0  0  0  0  0  0  0  0
   -5.2630   19.9790  -32.9540 C   0  0  0  0  0  0  0  0  0  0  0  0
   -4.2568   20.2775  -33.2835 H   0  0  0  0  0  0  0  0  0  0  0  0
   -5.8140   18.7750  -33.4030 C   0  0  0  0  0  0  0  0  0  0  0  0
   -5.2383   18.1328  -34.0858 H   0  0  0  0  0  0  0  0  0  0  0  0
   -7.0920   18.3800  -32.9910 C   0  0  0  0  0  0  0  0  0  0  0  0
   -7.6000   17.1610  -33.4660 O   0  0  0  0  0  0  0  0  0  0  0  0
   -6.8120   16.1530  -34.0930 C   0  0  0  0  0  0  0  0  0  0  0  0
   -6.3281   15.5341  -33.3231 H   0  0  0  0  0  0  0  0  0  0  0  0
   -7.4573   15.5202  -34.7200 H   0  0  0  0  0  0  0  0  0  0  0  0
   -6.0422   16.6265  -34.7200 H   0  0  0  0  0  0  0  0  0  0  0  0
   -7.8210   19.2110  -32.1190 C   0  0  0  0  0  0  0  0  0  0  0  0
   -8.8265   18.9109  -31.7890 H   0  0  0  0  0  0  0  0  0  0  0  0
   -7.2720   20.4160  -31.6710 C   0  0  0  0  0  0  0  0  0  0  0  0
   -7.8482   21.0605  -30.9909 H   0  0  0  0  0  0  0  0  0  0  0  0
   -4.3430   22.0330  -30.7660 C   0  0  0  0  0  0  0  0  0  0  0  0
   -3.8360   20.9290  -30.4170 O   0  0  0  0  0  0  0  0  0  0  0  0
  1  2  1  0
  2  3  2  0
  3  4  1  0
  4  5  2  0
  5  6  1  0
  6  7  2  0
  7  8  1  0
  8  9  1  0
  8 10  1  0
  8 11  1  0
 11 12  2  0
 12 13  1  0
 12 14  1  0
 14 15  1  0
 14 16  2  0
 16 17  1  0
 16 18  1  0
 18 19  1  0
 18 20  2  0
 20 21  1  0
  7 22  1  0
  2 23  1  0
 23 24  2  0
 24 25  1  0
 24 26  1  0
 26 27  1  0
 27 28  2  0
 27 29  1  0
 29 30  1  0
 30 31  2  0
 31 32  1  0
 31 33  1  0
 33 34  1  0
 33 35  2  0
 35 36  1  0
 36 37  1  0
 37 38  1  0
 37 39  1  0
 37 40  1  0
 35 41  1  0
 41 42  1  0
 41 43  2  0
 43 44  1  0
 29 45  1  0
 45 46  2  0
 22  4  1  0
 45 23  1  0
 20 11  1  0
 43 30  1  0
M  CHG  3  21  -1  25  -1  26  -1
M  END
>  <UniqueID>  (49) 
45

>  <SMILES>  (49) 
COc1ccc(-n2c(=O)[n-]c([O-])c(/C=N/c3nnc(Cc4ccccc4[O-])s3)c2=O)cc1

>  <Energy>  (49) 
97.37253450476956

>  <Genealogy>  (49) 
COc1ccc(-n2c(=O)[n-]c([O-])c(C=Nc3nnc(Cc4ccccc4[O-])s3)c2=O)cc1 (protonated)
COc1ccc(-n2c(=O)[n-]c([O-])c(/C=N/c3nnc(Cc4ccccc4[O-])s3)c2=O)cc1 (cis-trans isomerization)
COc1ccc(-n2c(=O)[n-]c([O-])c(/C=N/c3nnc(Cc4ccccc4[O-])s3)c2=O)cc1 (3D coordinates assigned)
COc1ccc(-n2c(=O)[n-]c([O-])c(/C=N/c3nnc(Cc4ccccc4[O-])s3)c2=O)cc1 (optimized conformer: 97.37253450476956 kcal/mol)

>  <smiles>  (49) 
COc1ccc(-n2c(=O)[nH]c(O)c(C=Nc3nnc(Cc4ccccc4O)s3)c2=O)cc1

>  <score_type>  (49) 
oracle

>  <origin>  (49) 
adgpu

>  <m_score__min__energy>  (49) 
-12.75

>  <m_primary>  (49) 
energy

$$$$
