0:0
     RDKit          3D

 55 58  0  0  0  0  0  0  0  0999 V2000
   -3.9180   19.4630  -32.2060 C   0  0  0  0  0  0  0  0  0  0  0  0
   -4.0000   20.8700  -31.6850 C   0  0  0  0  0  0  0  0  0  0  0  0
   -5.1770   21.3290  -31.3800 N   0  0  0  0  0  0  0  0  0  0  0  0
   -5.4850   22.6250  -30.8410 C   0  0  0  0  0  0  0  0  0  0  0  0
   -6.7120   23.1990  -31.2040 C   0  0  0  0  0  0  0  0  0  0  0  0
   -7.1030   24.4340  -30.6880 C   0  0  0  0  0  0  0  0  0  0  0  0
   -6.2830   25.1000  -29.7790 C   0  0  0  0  0  0  0  0  0  0  0  0
   -5.0740   24.5300  -29.3820 C   0  0  0  0  0  0  0  0  0  0  0  0
   -4.6500   23.2950  -29.9050 C   0  0  0  0  0  0  0  0  0  0  0  0
   -3.4320   22.7240  -29.3850 N   0  0  0  0  0  0  0  0  0  0  0  0
   -2.5530   22.0460  -30.0720 C   0  0  0  0  0  0  0  0  0  0  0  0
   -1.3390   21.6400  -29.4250 N   0  0  0  0  0  0  0  0  0  0  0  0
   -1.3600   20.5350  -28.0940 S   0  0  0  0  0  0  0  0  0  0  0  0
   -2.7380   19.9610  -27.9100 O   0  0  0  0  0  0  0  0  0  0  0  0
   -0.9730   21.2590  -26.8350 O   0  0  0  0  0  0  0  0  0  0  0  0
   -0.2180   19.2400  -28.4230 C   0  0  0  0  0  0  0  0  0  0  0  0
   -0.2470   18.0670  -27.6520 C   0  0  0  0  0  0  0  0  0  0  0  0
    0.6860   17.0510  -27.8820 C   0  0  0  0  0  0  0  0  0  0  0  0
    1.6580   17.2060  -28.8770 C   0  0  0  0  0  0  0  0  0  0  0  0
    1.6960   18.3790  -29.6420 C   0  0  0  0  0  0  0  0  0  0  0  0
    0.7630   19.3950  -29.4160 C   0  0  0  0  0  0  0  0  0  0  0  0
   -2.7720   21.7480  -31.5410 C   0  0  1  0  0  0  0  0  0  0  0  0
   -1.5470   21.1660  -32.2220 C   0  0  0  0  0  0  0  0  0  0  0  0
   -0.7280   20.4710  -31.5570 O   0  0  0  0  0  0  0  0  0  0  0  0
   -1.3650   21.3360  -33.6360 N   0  0  0  0  0  0  0  0  0  0  0  0
   -0.1320   21.0630  -34.3260 C   0  0  0  0  0  0  0  0  0  0  0  0
    1.0470   20.7460  -33.6290 C   0  0  0  0  0  0  0  0  0  0  0  0
    2.2360   20.5030  -34.3250 C   0  0  0  0  0  0  0  0  0  0  0  0
    2.2710   20.6040  -35.7240 C   0  0  0  0  0  0  0  0  0  0  0  0
    3.5380   20.3080  -36.4700 C   0  0  0  0  0  0  0  0  0  0  0  0
    1.0980   20.9270  -36.4200 C   0  0  0  0  0  0  0  0  0  0  0  0
   -0.0910   21.1680  -35.7240 C   0  0  0  0  0  0  0  0  0  0  0  0
   -3.8771   18.7607  -31.3604 H   0  0  0  0  0  0  0  0  0  0  0  0
   -4.8051   19.2469  -32.8195 H   0  0  0  0  0  0  0  0  0  0  0  0
   -3.0118   19.3514  -32.8195 H   0  0  0  0  0  0  0  0  0  0  0  0
   -7.3740   22.6685  -31.9043 H   0  0  0  0  0  0  0  0  0  0  0  0
   -8.0583   24.8824  -30.9983 H   0  0  0  0  0  0  0  0  0  0  0  0
   -6.5897   26.0759  -29.3745 H   0  0  0  0  0  0  0  0  0  0  0  0
   -4.4426   25.0537  -28.6492 H   0  0  0  0  0  0  0  0  0  0  0  0
   -3.1870   22.9740  -28.3990 H   0  0  0  0  0  0  0  0  0  0  0  0
   -0.4200   21.8350  -29.8810 H   0  0  0  0  0  0  0  0  0  0  0  0
   -1.0058   17.9468  -26.8647 H   0  0  0  0  0  0  0  0  0  0  0  0
    0.6560   16.1302  -27.2810 H   0  0  0  0  0  0  0  0  0  0  0  0
    2.3919   16.4070  -29.0583 H   0  0  0  0  0  0  0  0  0  0  0  0
    2.4618   18.5008  -30.4222 H   0  0  0  0  0  0  0  0  0  0  0  0
    0.7971   20.3163  -30.0161 H   0  0  0  0  0  0  0  0  0  0  0  0
   -2.9479   22.6969  -32.0689 H   0  0  0  0  0  0  0  0  0  0  0  0
   -2.1940   21.6140  -34.2070 H   0  0  0  0  0  0  0  0  0  0  0  0
    1.0346   20.6887  -32.5306 H   0  0  0  0  0  0  0  0  0  0  0  0
    3.1478   20.2315  -33.7728 H   0  0  0  0  0  0  0  0  0  0  0  0
    4.3501   20.1183  -35.7527 H   0  0  0  0  0  0  0  0  0  0  0  0
    3.3923   19.4197  -37.1022 H   0  0  0  0  0  0  0  0  0  0  0  0
    3.8009   21.1689  -37.1022 H   0  0  0  0  0  0  0  0  0  0  0  0
    1.1126   20.9912  -37.5180 H   0  0  0  0  0  0  0  0  0  0  0  0
   -1.0012   21.4421  -36.2775 H   0  0  0  0  0  0  0  0  0  0  0  0
  1  2  1  0
  2  3  2  0
  3  4  1  0
  4  5  2  0
  5  6  1  0
  6  7  2  0
  7  8  1  0
  8  9  2  0
  9 10  1  0
 10 11  2  0
 11 12  1  0
 12 13  1  0
 13 14  2  0
 13 15  2  0
 13 16  1  0
 16 17  2  0
 17 18  1  0
 18 19  2  0
 19 20  1  0
 20 21  2  0
 11 22  1  0
 22 23  1  0
 23 24  2  0
 23 25  1  0
 25 26  1  0
 26 27  2  0
 27 28  1  0
 28 29  2  0
 29 30  1  0
 29 31  1  0
 31 32  2  0
 22  2  1  0
 32 26  1  0
  9  4  1  0
 21 16  1  0
  1 33  1  0
  1 34  1  0
  1 35  1  0
  5 36  1  0
  6 37  1  0
  7 38  1  0
  8 39  1  0
 10 40  1  0
 12 41  1  0
 17 42  1  0
 18 43  1  0
 19 44  1  0
 20 45  1  0
 21 46  1  0
 22 47  1  6
 25 48  1  0
 27 49  1  0
 28 50  1  0
 30 51  1  0
 30 52  1  0
 30 53  1  0
 31 54  1  0
 32 55  1  0
M  CHG  1  10   1
M  END
>  <UniqueID>  (1) 
1

>  <SMILES>  (1) 
CC1=Nc2ccccc2[NH+]=C(NS(=O)(=O)c2ccccc2)[C@H]1C(=O)Nc1ccc(C)cc1

>  <Energy>  (1) 
81.25839533846971

>  <Genealogy>  (1) 
CC1=Nc2ccccc2[NH+]=C(NS(=O)(=O)c2ccccc2)C1C(=O)Nc1ccc(C)cc1 (protonated)
CC1=Nc2ccccc2[NH+]=C(NS(=O)(=O)c2ccccc2)[C@H]1C(=O)Nc1ccc(C)cc1 (chirality)
CC1=Nc2ccccc2[NH+]=C(NS(=O)(=O)c2ccccc2)[C@H]1C(=O)Nc1ccc(C)cc1 (3D coordinates assigned)
CC1=Nc2ccccc2[NH+]=C(NS(=O)(=O)c2ccccc2)[C@H]1C(=O)Nc1ccc(C)cc1 (nonaromatic ring conformer: 81.25839533846971 kcal/mol)

>  <smiles>  (1) 
CC1=Nc2ccccc2N=C(NS(=O)(=O)c2ccccc2)C1C(=O)Nc1ccc(C)cc1

>  <score_type>  (1) 
oracle

>  <origin>  (1) 
adgpu

>  <m_score__min__energy>  (1) 
-7.4400000000000004

>  <m_primary>  (1) 
energy

$$$$
1:0
     RDKit          3D

 49 52  0  0  0  0  0  0  0  0999 V2000
   -2.7680   21.5090  -31.2640 C   0  0  0  0  0  0  0  0  0  0  0  0
   -2.3210   22.6350  -30.4500 N   0  0  0  0  0  0  0  0  0  0  0  0
   -1.0640   22.8740  -30.0360 C   0  0  0  0  0  0  0  0  0  0  0  0
   -0.9910   24.0260  -29.3440 N   0  0  0  0  0  0  0  0  0  0  0  0
   -2.2140   24.5340  -29.3000 N   0  0  0  0  0  0  0  0  0  0  0  0
   -3.0220   23.6820  -29.9610 C   0  0  0  0  0  0  0  0  0  0  0  0
   -4.4720   23.9180  -30.1350 C   0  0  0  0  0  0  0  0  0  0  0  0
   -5.0440   25.1690  -29.8510 C   0  0  0  0  0  0  0  0  0  0  0  0
   -6.4110   25.3790  -30.0420 C   0  0  0  0  0  0  0  0  0  0  0  0
   -7.2200   24.3490  -30.5270 C   0  0  0  0  0  0  0  0  0  0  0  0
   -6.6650   23.0950  -30.8360 C   0  0  0  0  0  0  0  0  0  0  0  0
   -7.5220   22.0010  -31.3590 C   0  0  0  0  0  0  0  0  0  0  0  0
   -8.9120   22.1780  -31.4740 C   0  0  0  0  0  0  0  0  0  0  0  0
   -9.7160   21.1510  -31.9710 C   0  0  0  0  0  0  0  0  0  0  0  0
   -9.1490   19.9340  -32.3530 C   0  0  0  0  0  0  0  0  0  0  0  0
   -7.7630   19.7270  -32.2380 C   0  0  0  0  0  0  0  0  0  0  0  0
   -7.1500   18.4390  -32.6460 C   0  0  0  0  0  0  0  0  0  0  0  0
   -7.2060   17.4510  -31.8650 O   0  0  0  0  0  0  0  0  0  0  0  0
   -6.5370   18.2910  -33.9380 N   0  0  0  0  0  0  0  0  0  0  0  0
   -5.5890   17.2580  -34.2580 C   0  0  0  0  0  0  0  0  0  0  0  0
   -4.4010   17.5440  -34.9540 C   0  0  0  0  0  0  0  0  0  0  0  0
   -3.5050   16.5200  -35.2750 C   0  0  0  0  0  0  0  0  0  0  0  0
   -3.7890   15.1880  -34.9180 C   0  0  0  0  0  0  0  0  0  0  0  0
   -2.9250   14.1200  -35.2120 O   0  0  0  0  0  0  0  0  0  0  0  0
   -2.7240   13.5570  -36.5070 C   0  0  0  0  0  0  0  0  0  0  0  0
   -2.2470   14.5210  -37.3770 F   0  0  0  0  0  0  0  0  0  0  0  0
   -1.8310   12.5020  -36.4350 F   0  0  0  0  0  0  0  0  0  0  0  0
   -3.9320   13.0860  -36.9830 F   0  0  0  0  0  0  0  0  0  0  0  0
   -4.9830   14.9050  -34.2430 C   0  0  0  0  0  0  0  0  0  0  0  0
   -5.8780   15.9280  -33.9230 C   0  0  0  0  0  0  0  0  0  0  0  0
   -6.9560   20.7720  -31.7460 C   0  0  0  0  0  0  0  0  0  0  0  0
   -5.2860   22.8920  -30.6430 C   0  0  0  0  0  0  0  0  0  0  0  0
   -3.0937   20.6885  -30.6077 H   0  0  0  0  0  0  0  0  0  0  0  0
   -3.6084   21.8263  -31.8989 H   0  0  0  0  0  0  0  0  0  0  0  0
   -1.9388   21.1635  -31.8989 H   0  0  0  0  0  0  0  0  0  0  0  0
   -0.2072   22.2140  -30.2368 H   0  0  0  0  0  0  0  0  0  0  0  0
   -4.4117   25.9874  -29.4762 H   0  0  0  0  0  0  0  0  0  0  0  0
   -6.8525   26.3593  -29.8096 H   0  0  0  0  0  0  0  0  0  0  0  0
   -8.2974   24.5200  -30.6680 H   0  0  0  0  0  0  0  0  0  0  0  0
   -9.3686   23.1316  -31.1705 H   0  0  0  0  0  0  0  0  0  0  0  0
  -10.8019   21.3014  -32.0621 H   0  0  0  0  0  0  0  0  0  0  0  0
   -9.7906   19.1318  -32.7465 H   0  0  0  0  0  0  0  0  0  0  0  0
   -6.8830   18.8950  -34.7170 H   0  0  0  0  0  0  0  0  0  0  0  0
   -4.1753   18.5798  -35.2476 H   0  0  0  0  0  0  0  0  0  0  0  0
   -2.5730   16.7562  -35.8094 H   0  0  0  0  0  0  0  0  0  0  0  0
   -5.2179   13.8676  -33.9624 H   0  0  0  0  0  0  0  0  0  0  0  0
   -6.8176   15.6881  -33.4037 H   0  0  0  0  0  0  0  0  0  0  0  0
   -5.8690   20.6252  -31.6633 H   0  0  0  0  0  0  0  0  0  0  0  0
   -4.8400   21.9180  -30.8930 H   0  0  0  0  0  0  0  0  0  0  0  0
  1  2  1  0
  2  3  1  0
  3  4  2  0
  4  5  1  0
  5  6  2  0
  6  7  1  0
  7  8  2  0
  8  9  1  0
  9 10  2  0
 10 11  1  0
 11 12  1  0
 12 13  2  0
 13 14  1  0
 14 15  2  0
 15 16  1  0
 16 17  1  0
 17 18  2  0
 17 19  1  0
 19 20  1  0
 20 21  2  0
 21 22  1  0
 22 23  2  0
 23 24  1  0
 24 25  1  0
 25 26  1  0
 25 27  1  0
 25 28  1  0
 23 29  1  0
 29 30  2  0
 16 31  2  0
 11 32  2  0
  6  2  1  0
 32  7  1  0
 31 12  1  0
 30 20  1  0
  1 33  1  0
  1 34  1  0
  1 35  1  0
  3 36  1  0
  8 37  1  0
  9 38  1  0
 10 39  1  0
 13 40  1  0
 14 41  1  0
 15 42  1  0
 19 43  1  0
 21 44  1  0
 22 45  1  0
 29 46  1  0
 30 47  1  0
 31 48  1  0
 32 49  1  0
M  END
>  <UniqueID>  (2) 
2

>  <SMILES>  (2) 
Cn1cnnc1-c1cccc(-c2cccc(C(=O)Nc3ccc(OC(F)(F)F)cc3)c2)c1

>  <Energy>  (2) 
103.17822185158023

>  <Genealogy>  (2) 
Cn1cnnc1-c1cccc(-c2cccc(C(=O)Nc3ccc(OC(F)(F)F)cc3)c2)c1 (3D coordinates assigned)
Cn1cnnc1-c1cccc(-c2cccc(C(=O)Nc3ccc(OC(F)(F)F)cc3)c2)c1 (optimized conformer: 103.17822185158023 kcal/mol)

>  <smiles>  (2) 
Cn1cnnc1-c1cccc(-c2cccc(C(=O)Nc3ccc(OC(F)(F)F)cc3)c2)c1

>  <score_type>  (2) 
oracle

>  <origin>  (2) 
adgpu

>  <m_score__min__energy>  (2) 
-9.6300000000000008

>  <m_primary>  (2) 
energy

$$$$
2:0
     RDKit          3D

 48 50  0  0  0  0  0  0  0  0999 V2000
   -5.4020   17.8180  -35.2980 C   0  0  0  0  0  0  0  0  0  0  0  0
   -4.7330   17.7080  -33.9290 C   0  0  0  0  0  0  0  0  0  0  0  0
   -5.0630   18.8620  -33.0800 N   0  0  0  0  0  0  0  0  0  0  0  0
   -4.0930   19.8950  -32.8180 C   0  0  0  0  0  0  0  0  0  0  0  0
   -2.8340   19.8070  -33.3190 N   0  0  0  0  0  0  0  0  0  0  0  0
   -1.9200   20.7820  -33.0710 C   0  0  0  0  0  0  0  0  0  0  0  0
   -0.5860   20.6800  -33.6040 N   0  0  0  0  0  0  0  0  0  0  0  0
   -0.3640   20.8220  -35.0470 C   0  0  0  0  0  0  0  0  0  0  0  0
    0.5410   20.4330  -32.6980 C   0  0  0  0  0  0  0  0  0  0  0  0
   -2.2780   21.8530  -32.3140 N   0  0  0  0  0  0  0  0  0  0  0  0
   -3.5350   21.9540  -31.8070 C   0  0  0  0  0  0  0  0  0  0  0  0
   -3.8990   23.0930  -31.0050 N   0  0  0  0  0  0  0  0  0  0  0  0
   -5.0920   23.7130  -31.0240 C   0  0  0  0  0  0  0  0  0  0  0  0
   -5.0460   24.7520  -30.1220 C   0  0  0  0  0  0  0  0  0  0  0  0
   -6.1800   25.6570  -29.7720 C   0  0  0  0  0  0  0  0  0  0  0  0
   -3.8430   24.7830  -29.5150 N   0  0  0  0  0  0  0  0  0  0  0  0
   -3.1630   23.7640  -30.0820 C   0  0  0  0  0  0  0  0  0  0  0  0
   -1.7560   23.4320  -29.6890 C   0  0  0  0  0  0  0  0  0  0  0  0
   -4.4330   20.9710  -32.0630 N   0  0  0  0  0  0  0  0  0  0  0  0
   -6.4180   19.0420  -32.6340 C   0  0  0  0  0  0  0  0  0  0  0  0
   -7.0650   20.2750  -32.8310 C   0  0  0  0  0  0  0  0  0  0  0  0
   -6.4260   21.2880  -33.4700 F   0  0  0  0  0  0  0  0  0  0  0  0
   -8.3710   20.4640  -32.3720 C   0  0  0  0  0  0  0  0  0  0  0  0
   -9.0390   19.4290  -31.7130 C   0  0  0  0  0  0  0  0  0  0  0  0
   -8.4020   18.2020  -31.5140 C   0  0  0  0  0  0  0  0  0  0  0  0
   -7.0950   18.0060  -31.9700 C   0  0  0  0  0  0  0  0  0  0  0  0
   -6.4840   16.8160  -31.7440 F   0  0  0  0  0  0  0  0  0  0  0  0
   -6.4796   17.9952  -35.1663 H   0  0  0  0  0  0  0  0  0  0  0  0
   -4.9583   18.6553  -35.8567 H   0  0  0  0  0  0  0  0  0  0  0  0
   -5.2498   16.8828  -35.8567 H   0  0  0  0  0  0  0  0  0  0  0  0
   -5.0784   16.7884  -33.4340 H   0  0  0  0  0  0  0  0  0  0  0  0
   -3.6431   17.6847  -34.0756 H   0  0  0  0  0  0  0  0  0  0  0  0
    0.5509   21.4072  -35.2214 H   0  0  0  0  0  0  0  0  0  0  0  0
   -0.2543   19.8260  -35.5009 H   0  0  0  0  0  0  0  0  0  0  0  0
   -1.2222   21.3392  -35.5009 H   0  0  0  0  0  0  0  0  0  0  0  0
    0.1970   20.5084  -31.6559 H   0  0  0  0  0  0  0  0  0  0  0  0
    0.9432   19.4254  -32.8794 H   0  0  0  0  0  0  0  0  0  0  0  0
    1.3278   21.1800  -32.8794 H   0  0  0  0  0  0  0  0  0  0  0  0
   -5.9535   23.4382  -31.6503 H   0  0  0  0  0  0  0  0  0  0  0  0
   -6.2685   25.7276  -28.6778 H   0  0  0  0  0  0  0  0  0  0  0  0
   -5.9934   26.6572  -30.1901 H   0  0  0  0  0  0  0  0  0  0  0  0
   -7.1139   25.2532  -30.1901 H   0  0  0  0  0  0  0  0  0  0  0  0
   -1.6764   23.4132  -28.5920 H   0  0  0  0  0  0  0  0  0  0  0  0
   -1.4855   22.4454  -30.0932 H   0  0  0  0  0  0  0  0  0  0  0  0
   -1.0730   24.1936  -30.0932 H   0  0  0  0  0  0  0  0  0  0  0  0
   -8.8741   21.4294  -32.5298 H   0  0  0  0  0  0  0  0  0  0  0  0
  -10.0666   19.5804  -31.3509 H   0  0  0  0  0  0  0  0  0  0  0  0
   -8.9303   17.3874  -30.9969 H   0  0  0  0  0  0  0  0  0  0  0  0
  1  2  1  0
  2  3  1  0
  3  4  1  0
  4  5  2  0
  5  6  1  0
  6  7  1  0
  7  8  1  0
  7  9  1  0
  6 10  2  0
 10 11  1  0
 11 12  1  0
 12 13  1  0
 13 14  2  0
 14 15  1  0
 14 16  1  0
 16 17  2  0
 17 18  1  0
 11 19  2  0
  3 20  1  0
 20 21  2  0
 21 22  1  0
 21 23  1  0
 23 24  2  0
 24 25  1  0
 25 26  2  0
 26 27  1  0
 19  4  1  0
 26 20  1  0
 17 12  1  0
  1 28  1  0
  1 29  1  0
  1 30  1  0
  2 31  1  0
  2 32  1  0
  8 33  1  0
  8 34  1  0
  8 35  1  0
  9 36  1  0
  9 37  1  0
  9 38  1  0
 13 39  1  0
 15 40  1  0
 15 41  1  0
 15 42  1  0
 18 43  1  0
 18 44  1  0
 18 45  1  0
 23 46  1  0
 24 47  1  0
 25 48  1  0
M  END
>  <UniqueID>  (3) 
3

>  <SMILES>  (3) 
CCN(c1nc(N(C)C)nc(-n2cc(C)nc2C)n1)c1c(F)cccc1F

>  <Energy>  (3) 
78.78468477379253

>  <Genealogy>  (3) 
CCN(c1nc(N(C)C)nc(-n2cc(C)nc2C)n1)c1c(F)cccc1F (3D coordinates assigned)
CCN(c1nc(N(C)C)nc(-n2cc(C)nc2C)n1)c1c(F)cccc1F (optimized conformer: 78.78468477379253 kcal/mol)

>  <smiles>  (3) 
CCN(c1nc(N(C)C)nc(-n2cc(C)nc2C)n1)c1c(F)cccc1F

>  <score_type>  (3) 
oracle

>  <origin>  (3) 
adgpu

>  <m_score__min__energy>  (3) 
-7.5300000000000002

>  <m_primary>  (3) 
energy

$$$$
3:0
     RDKit          3D

 26 27  0  0  0  0  0  0  0  0999 V2000
   -4.2500   25.6750  -30.8420 O   0  0  0  0  0  0  0  0  0  0  0  0
   -4.6640   24.2350  -30.7180 S   0  0  0  0  0  0  0  0  0  0  0  0
   -5.4100   24.0560  -29.4270 O   0  0  0  0  0  0  0  0  0  0  0  0
   -5.6940   23.8380  -32.0260 O   0  0  0  0  0  0  0  0  0  0  0  0
   -6.5280   22.7130  -32.0750 C   0  0  0  0  0  0  0  0  0  0  0  0
   -7.8350   22.7080  -31.5500 C   0  0  0  0  0  0  0  0  0  0  0  0
   -8.6260   21.5570  -31.6360 C   0  0  0  0  0  0  0  0  0  0  0  0
   -8.1210   20.4030  -32.2420 C   0  0  0  0  0  0  0  0  0  0  0  0
   -9.1130   18.9600  -32.3480 Cl  0  0  0  0  0  0  0  0  0  0  0  0
   -6.8220   20.3990  -32.7600 C   0  0  0  0  0  0  0  0  0  0  0  0
   -6.0310   21.5480  -32.6750 C   0  0  0  0  0  0  0  0  0  0  0  0
   -3.2490   23.1750  -30.7170 C   0  0  0  0  0  0  0  0  0  0  0  0
   -3.1090   22.2060  -31.7250 C   0  0  0  0  0  0  0  0  0  0  0  0
   -2.0060   21.3470  -31.7340 C   0  0  0  0  0  0  0  0  0  0  0  0
   -1.8460   20.1370  -32.9930 Cl  0  0  0  0  0  0  0  0  0  0  0  0
   -1.0310   21.4530  -30.7380 C   0  0  0  0  0  0  0  0  0  0  0  0
   -1.1570   22.4160  -29.7350 C   0  0  0  0  0  0  0  0  0  0  0  0
   -2.2590   23.2800  -29.7180 C   0  0  0  0  0  0  0  0  0  0  0  0
   -2.3560   24.4800  -28.4340 Cl  0  0  0  0  0  0  0  0  0  0  0  0
   -8.2357   23.6131  -31.0702 H   0  0  0  0  0  0  0  0  0  0  0  0
   -9.6468   21.5603  -31.2261 H   0  0  0  0  0  0  0  0  0  0  0  0
   -6.4225   19.4907  -33.2347 H   0  0  0  0  0  0  0  0  0  0  0  0
   -5.0094   21.5379  -33.0826 H   0  0  0  0  0  0  0  0  0  0  0  0
   -3.8725   22.1228  -32.5124 H   0  0  0  0  0  0  0  0  0  0  0  0
   -0.1634   20.7768  -30.7445 H   0  0  0  0  0  0  0  0  0  0  0  0
   -0.3866   22.4965  -28.9540 H   0  0  0  0  0  0  0  0  0  0  0  0
  1  2  2  0
  2  3  2  0
  2  4  1  0
  4  5  1  0
  5  6  2  0
  6  7  1  0
  7  8  2  0
  8  9  1  0
  8 10  1  0
 10 11  2  0
  2 12  1  0
 12 13  2  0
 13 14  1  0
 14 15  1  0
 14 16  2  0
 16 17  1  0
 17 18  2  0
 18 19  1  0
 11  5  1  0
 18 12  1  0
  6 20  1  0
  7 21  1  0
 10 22  1  0
 11 23  1  0
 13 24  1  0
 16 25  1  0
 17 26  1  0
M  END
>  <UniqueID>  (4) 
4

>  <SMILES>  (4) 
O=S(=O)(Oc1ccc(Cl)cc1)c1cc(Cl)ccc1Cl

>  <Energy>  (4) 
27.73634860171739

>  <Genealogy>  (4) 
O=S(=O)(Oc1ccc(Cl)cc1)c1cc(Cl)ccc1Cl (3D coordinates assigned)
O=S(=O)(Oc1ccc(Cl)cc1)c1cc(Cl)ccc1Cl (optimized conformer: 27.73634860171739 kcal/mol)

>  <smiles>  (4) 
O=S(=O)(Oc1ccc(Cl)cc1)c1cc(Cl)ccc1Cl

>  <score_type>  (4) 
oracle

>  <origin>  (4) 
adgpu

>  <m_score__min__energy>  (4) 
-7.9800000000000004

>  <m_primary>  (4) 
energy

$$$$
4:0
     RDKit          3D

 26 27  0  0  0  0  0  0  0  0999 V2000
   -4.0600   18.8690  -33.9120 N   0  0  0  0  0  0  0  0  0  0  0  0
   -5.6370   18.2750  -34.2930 S   0  0  0  0  0  0  0  0  0  0  0  0
   -5.6280   16.7750  -34.2110 O   0  0  0  0  0  0  0  0  0  0  0  0
   -6.0100   18.6990  -35.6850 O   0  0  0  0  0  0  0  0  0  0  0  0
   -6.8030   18.9180  -33.1530 C   0  0  0  0  0  0  0  0  0  0  0  0
   -6.9610   20.2550  -32.8240 C   0  0  0  0  0  0  0  0  0  0  0  0
   -7.9690   20.4620  -31.8740 C   0  0  0  0  0  0  0  0  0  0  0  0
   -8.4150   22.0560  -31.2910 S   0  0  0  0  0  0  0  0  0  0  0  0
   -9.3220   22.7270  -32.2830 O   0  0  0  0  0  0  0  0  0  0  0  0
   -9.1530   21.9280  -29.9880 O   0  0  0  0  0  0  0  0  0  0  0  0
   -6.9560   23.0140  -31.0680 C   0  0  0  0  0  0  0  0  0  0  0  0
   -7.0490   24.3520  -30.6580 C   0  0  0  0  0  0  0  0  0  0  0  0
   -5.8880   25.1080  -30.4610 C   0  0  0  0  0  0  0  0  0  0  0  0
   -4.6320   24.5300  -30.6670 C   0  0  0  0  0  0  0  0  0  0  0  0
   -3.4800   25.2810  -30.4720 O   0  0  0  0  0  0  0  0  0  0  0  0
   -4.5360   23.1930  -31.0690 C   0  0  0  0  0  0  0  0  0  0  0  0
   -5.6950   22.4350  -31.2660 C   0  0  0  0  0  0  0  0  0  0  0  0
   -8.6040   19.2960  -31.4600 C   0  0  0  0  0  0  0  0  0  0  0  0
   -7.9020   18.0000  -32.2730 S   0  0  0  0  0  0  0  0  0  0  0  0
   -3.4680   18.7330  -34.7630 H   0  0  0  0  0  0  0  0  0  0  0  0
   -6.3599   21.0657  -33.2616 H   0  0  0  0  0  0  0  0  0  0  0  0
   -8.0361   24.8079  -30.4910 H   0  0  0  0  0  0  0  0  0  0  0  0
   -5.9638   26.1585  -30.1436 H   0  0  0  0  0  0  0  0  0  0  0  0
   -3.5478   22.7375  -31.2303 H   0  0  0  0  0  0  0  0  0  0  0  0
   -5.6167   21.3827  -31.5768 H   0  0  0  0  0  0  0  0  0  0  0  0
   -9.4228   19.2318  -30.7283 H   0  0  0  0  0  0  0  0  0  0  0  0
  1  2  1  0
  2  3  2  0
  2  4  2  0
  2  5  1  0
  5  6  2  0
  6  7  1  0
  7  8  1  0
  8  9  2  0
  8 10  2  0
  8 11  1  0
 11 12  2  0
 12 13  1  0
 13 14  2  0
 14 15  1  0
 14 16  1  0
 16 17  2  0
  7 18  2  0
 18 19  1  0
 19  5  1  0
 17 11  1  0
  1 20  1  0
  6 21  1  0
 12 22  1  0
 13 23  1  0
 16 24  1  0
 17 25  1  0
 18 26  1  0
M  CHG  2   1  -1  15  -1
M  END
>  <UniqueID>  (5) 
5

>  <SMILES>  (5) 
[NH-]S(=O)(=O)c1cc(S(=O)(=O)c2ccc([O-])cc2)cs1

>  <Energy>  (5) 
53.81743514498245

>  <Genealogy>  (5) 
[NH-]S(=O)(=O)c1cc(S(=O)(=O)c2ccc([O-])cc2)cs1 (protonated)
[NH-]S(=O)(=O)c1cc(S(=O)(=O)c2ccc([O-])cc2)cs1 (3D coordinates assigned)
[NH-]S(=O)(=O)c1cc(S(=O)(=O)c2ccc([O-])cc2)cs1 (optimized conformer: 53.81743514498245 kcal/mol)

>  <smiles>  (5) 
NS(=O)(=O)c1cc(S(=O)(=O)c2ccc(O)cc2)cs1

>  <score_type>  (5) 
oracle

>  <origin>  (5) 
adgpu

>  <m_score__min__energy>  (5) 
-11.15

>  <m_primary>  (5) 
energy

$$$$
5:0
     RDKit          3D

 42 45  0  0  0  0  0  0  0  0999 V2000
    0.3210   25.0510  -27.8430 O   0  0  0  0  0  0  0  0  0  0  0  0
   -0.8590   24.7960  -28.1940 C   0  0  0  0  0  0  0  0  0  0  0  0
   -1.4270   25.3210  -29.3000 N   0  0  0  0  0  0  0  0  0  0  0  0
   -2.7070   24.8850  -29.4440 C   0  0  0  0  0  0  0  0  0  0  0  0
   -3.5040   25.2990  -30.5040 O   0  0  0  0  0  0  0  0  0  0  0  0
   -3.1490   24.0040  -28.4590 C   0  0  0  0  0  0  0  0  0  0  0  0
   -4.5240   23.4250  -28.3340 C   0  0  0  0  0  0  0  0  0  0  0  0
   -4.9080   22.7220  -29.6060 C   0  0  0  0  0  0  0  0  0  0  0  0
   -3.9450   22.0110  -30.3390 C   0  0  0  0  0  0  0  0  0  0  0  0
   -4.3060   21.3330  -31.5070 C   0  0  0  0  0  0  0  0  0  0  0  0
   -5.6370   21.3600  -31.9600 C   0  0  0  0  0  0  0  0  0  0  0  0
   -6.0390   20.6830  -33.1210 O   0  0  0  0  0  0  0  0  0  0  0  0
   -5.9520   19.2980  -33.3260 C   0  0  0  0  0  0  0  0  0  0  0  0
   -5.7290   18.7490  -34.6020 C   0  0  0  0  0  0  0  0  0  0  0  0
   -5.6670   17.3620  -34.7710 C   0  0  0  0  0  0  0  0  0  0  0  0
   -5.8480   16.5070  -33.6740 C   0  0  0  0  0  0  0  0  0  0  0  0
   -5.7410   15.0180  -33.8490 C   0  0  0  0  0  0  0  0  0  0  0  0
   -4.6080   14.5060  -33.0860 N   0  0  0  0  0  0  0  0  0  0  0  0
   -3.3060   14.6840  -33.3570 C   0  0  0  0  0  0  0  0  0  0  0  0
   -2.5820   13.9670  -32.4310 C   0  0  0  0  0  0  0  0  0  0  0  0
   -3.4240   13.3310  -31.5900 N   0  0  0  0  0  0  0  0  0  0  0  0
   -4.6540   13.6780  -32.0230 C   0  0  0  0  0  0  0  0  0  0  0  0
   -6.0730   17.0560  -32.4020 C   0  0  0  0  0  0  0  0  0  0  0  0
   -6.1380   18.4430  -32.2350 C   0  0  0  0  0  0  0  0  0  0  0  0
   -6.6020   22.0390  -31.2090 C   0  0  0  0  0  0  0  0  0  0  0  0
   -6.2430   22.7210  -30.0420 C   0  0  0  0  0  0  0  0  0  0  0  0
   -1.9000   23.7820  -27.3480 S   0  0  0  0  0  0  0  0  0  0  0  0
   -4.5413   22.7059  -27.5018 H   0  0  0  0  0  0  0  0  0  0  0  0
   -5.2400   24.2378  -28.1425 H   0  0  0  0  0  0  0  0  0  0  0  0
   -2.9012   21.9872  -29.9927 H   0  0  0  0  0  0  0  0  0  0  0  0
   -3.5457   20.7760  -32.0741 H   0  0  0  0  0  0  0  0  0  0  0  0
   -5.6030   19.4130  -35.4699 H   0  0  0  0  0  0  0  0  0  0  0  0
   -5.4755   16.9399  -35.7686 H   0  0  0  0  0  0  0  0  0  0  0  0
   -6.6659   14.5418  -33.4915 H   0  0  0  0  0  0  0  0  0  0  0  0
   -5.5915   14.7895  -34.9146 H   0  0  0  0  0  0  0  0  0  0  0  0
   -2.8912   15.2938  -34.1731 H   0  0  0  0  0  0  0  0  0  0  0  0
   -1.4840   13.9198  -32.3839 H   0  0  0  0  0  0  0  0  0  0  0  0
   -5.5880   13.3254  -31.5612 H   0  0  0  0  0  0  0  0  0  0  0  0
   -6.1987   16.3929  -31.5333 H   0  0  0  0  0  0  0  0  0  0  0  0
   -6.3368   18.8644  -31.2386 H   0  0  0  0  0  0  0  0  0  0  0  0
   -7.6514   22.0366  -31.5388 H   0  0  0  0  0  0  0  0  0  0  0  0
   -7.0089   23.2585  -29.4636 H   0  0  0  0  0  0  0  0  0  0  0  0
  1  2  2  0
  2  3  1  0
  3  4  1  0
  4  5  1  0
  4  6  2  0
  6  7  1  0
  7  8  1  0
  8  9  2  0
  9 10  1  0
 10 11  2  0
 11 12  1  0
 12 13  1  0
 13 14  2  0
 14 15  1  0
 15 16  2  0
 16 17  1  0
 17 18  1  0
 18 19  1  0
 19 20  2  0
 20 21  1  0
 21 22  2  0
 16 23  1  0
 23 24  2  0
 11 25  1  0
 25 26  2  0
  6 27  1  0
 27  2  1  0
 26  8  1  0
 24 13  1  0
 22 18  1  0
  7 28  1  0
  7 29  1  0
  9 30  1  0
 10 31  1  0
 14 32  1  0
 15 33  1  0
 17 34  1  0
 17 35  1  0
 19 36  1  0
 20 37  1  0
 22 38  1  0
 23 39  1  0
 24 40  1  0
 25 41  1  0
 26 42  1  0
M  CHG  2   3  -1   5  -1
M  END
>  <UniqueID>  (6) 
6

>  <SMILES>  (6) 
O=c1[n-]c([O-])c(Cc2ccc(Oc3ccc(Cn4ccnc4)cc3)cc2)s1

>  <Energy>  (6) 
109.38528820873877

>  <Genealogy>  (6) 
O=c1[n-]c([O-])c(Cc2ccc(Oc3ccc(Cn4ccnc4)cc3)cc2)s1 (protonated)
O=c1[n-]c([O-])c(Cc2ccc(Oc3ccc(Cn4ccnc4)cc3)cc2)s1 (3D coordinates assigned)
O=c1[n-]c([O-])c(Cc2ccc(Oc3ccc(Cn4ccnc4)cc3)cc2)s1 (optimized conformer: 109.38528820873877 kcal/mol)

>  <smiles>  (6) 
O=c1[nH]c(O)c(Cc2ccc(Oc3ccc(Cn4ccnc4)cc3)cc2)s1

>  <score_type>  (6) 
oracle

>  <origin>  (6) 
adgpu

>  <m_score__min__energy>  (6) 
-13.210000000000001

>  <m_primary>  (6) 
energy

$$$$
6:0
     RDKit          3D

 73 76  0  0  0  0  0  0  0  0999 V2000
   -3.0287   21.3768  -30.0187 H   0  0  0  0  0  0  0  0  0  0  0  0
   -2.6100   22.2960  -29.5830 C   0  0  0  0  0  0  0  0  0  0  0  0
   -1.8350   22.2430  -28.4160 C   0  0  0  0  0  0  0  0  0  0  0  0
   -1.6020   21.0020  -27.7150 N   0  0  0  0  0  0  0  0  0  0  0  0
   -2.7620   20.2960  -27.1480 C   0  0  0  0  0  0  0  0  0  0  0  0
   -3.2179   20.9246  -26.3689 H   0  0  0  0  0  0  0  0  0  0  0  0
   -3.4783   20.0993  -27.9593 H   0  0  0  0  0  0  0  0  0  0  0  0
   -2.3550   18.9630  -26.5340 C   0  0  0  0  0  0  0  0  0  0  0  0
   -1.8442   19.1354  -25.5751 H   0  0  0  0  0  0  0  0  0  0  0  0
   -3.2442   18.3415  -26.3525 H   0  0  0  0  0  0  0  0  0  0  0  0
   -1.4510   18.2900  -27.4610 N   0  0  0  0  0  0  0  0  0  0  0  0
   -1.3120   17.3070  -27.1250 H   0  0  0  0  0  0  0  0  0  0  0  0
   -0.1410   18.9550  -27.4750 C   0  0  0  0  0  0  0  0  0  0  0  0
    0.4082   18.6598  -26.5688 H   0  0  0  0  0  0  0  0  0  0  0  0
    0.3703   18.6395  -28.3964 H   0  0  0  0  0  0  0  0  0  0  0  0
   -0.2290   20.5010  -27.5120 C   0  0  0  0  0  0  0  0  0  0  0  0
    0.1491   20.8953  -26.5573 H   0  0  0  0  0  0  0  0  0  0  0  0
    0.3723   20.8415  -28.3679 H   0  0  0  0  0  0  0  0  0  0  0  0
   -1.2920   23.3940  -27.9360 N   0  0  0  0  0  0  0  0  0  0  0  0
   -1.5080   24.5950  -28.5360 C   0  0  0  0  0  0  0  0  0  0  0  0
   -0.9620   25.6830  -28.0740 N   0  0  0  0  0  0  0  0  0  0  0  0
   -0.1620   25.7850  -26.8810 C   0  0  0  0  0  0  0  0  0  0  0  0
   -0.6410   26.4640  -25.7470 C   0  0  0  0  0  0  0  0  0  0  0  0
   -1.6377   26.9287  -25.7726 H   0  0  0  0  0  0  0  0  0  0  0  0
    0.1370   26.5560  -24.5830 C   0  0  0  0  0  0  0  0  0  0  0  0
   -0.4130   27.2510  -23.3680 C   0  0  0  0  0  0  0  0  0  0  0  0
   -0.0272   26.7634  -22.4606 H   0  0  0  0  0  0  0  0  0  0  0  0
   -0.1028   28.3063  -23.3774 H   0  0  0  0  0  0  0  0  0  0  0  0
   -1.5114   27.1916  -23.3774 H   0  0  0  0  0  0  0  0  0  0  0  0
    1.4140   25.9690  -24.5460 C   0  0  0  0  0  0  0  0  0  0  0  0
    2.1590   26.0560  -23.3550 O   0  0  0  0  0  0  0  0  0  0  0  0
    3.5210   25.6600  -23.1920 C   0  0  0  0  0  0  0  0  0  0  0  0
    3.9571   26.2076  -22.3435 H   0  0  0  0  0  0  0  0  0  0  0  0
    4.0692   25.8903  -24.1174 H   0  0  0  0  0  0  0  0  0  0  0  0
    3.6190   24.1600  -22.9240 C   0  0  0  0  0  0  0  0  0  0  0  0
    3.6307   23.9814  -21.8387 H   0  0  0  0  0  0  0  0  0  0  0  0
    2.7522   23.6504  -23.3701 H   0  0  0  0  0  0  0  0  0  0  0  0
    4.5447   23.7675  -23.3701 H   0  0  0  0  0  0  0  0  0  0  0  0
    1.9100   25.3270  -25.6970 C   0  0  0  0  0  0  0  0  0  0  0  0
    2.9149   24.8799  -25.6785 H   0  0  0  0  0  0  0  0  0  0  0  0
    1.1390   25.2500  -26.8680 C   0  0  0  0  0  0  0  0  0  0  0  0
    1.6820   24.5380  -28.0760 C   0  0  0  0  0  0  0  0  0  0  0  0
    2.3196   23.7019  -27.7530 H   0  0  0  0  0  0  0  0  0  0  0  0
    0.8476   24.1510  -28.6794 H   0  0  0  0  0  0  0  0  0  0  0  0
    2.2759   25.2403  -28.6794 H   0  0  0  0  0  0  0  0  0  0  0  0
   -2.2770   24.6580  -29.6520 N   0  0  0  0  0  0  0  0  0  0  0  0
   -2.8430   23.5440  -30.1870 C   0  0  0  0  0  0  0  0  0  0  0  0
   -3.6320   23.6780  -31.3390 O   0  0  0  0  0  0  0  0  0  0  0  0
   -4.9700   23.2680  -31.4370 C   0  0  0  0  0  0  0  0  0  0  0  0
   -5.3220   22.0800  -32.1180 C   0  0  0  0  0  0  0  0  0  0  0  0
   -4.2770   21.1740  -32.7120 C   0  0  0  0  0  0  0  0  0  0  0  0
   -3.7132   20.6852  -31.9038 H   0  0  0  0  0  0  0  0  0  0  0  0
   -4.7654   20.4087  -33.3332 H   0  0  0  0  0  0  0  0  0  0  0  0
   -3.5887   21.7660  -33.3332 H   0  0  0  0  0  0  0  0  0  0  0  0
   -6.6760   21.7510  -32.2760 C   0  0  0  0  0  0  0  0  0  0  0  0
   -6.9550   20.8545  -32.8491 H   0  0  0  0  0  0  0  0  0  0  0  0
   -7.6780   22.5530  -31.7110 C   0  0  0  0  0  0  0  0  0  0  0  0
   -9.1310   22.2160  -31.9220 C   0  0  0  0  0  0  0  0  0  0  0  0
   -9.7535   23.0263  -31.5146 H   0  0  0  0  0  0  0  0  0  0  0  0
   -9.3168   22.1008  -33.0001 H   0  0  0  0  0  0  0  0  0  0  0  0
   -9.4850   20.9040  -31.2150 C   0  0  0  0  0  0  0  0  0  0  0  0
   -8.9279   20.8432  -30.2685 H   0  0  0  0  0  0  0  0  0  0  0  0
  -10.5683   20.8883  -31.0247 H   0  0  0  0  0  0  0  0  0  0  0  0
   -9.1320   19.7260  -32.0680 C   0  0  0  0  0  0  0  0  0  0  0  0
   -9.8220   19.4500  -33.0860 O   0  0  0  0  0  0  0  0  0  0  0  0
   -8.0390   18.9320  -31.7420 O   0  0  0  0  0  0  0  0  0  0  0  0
   -7.3190   23.7000  -30.9910 C   0  0  0  0  0  0  0  0  0  0  0  0
   -8.1022   24.3285  -30.5420 H   0  0  0  0  0  0  0  0  0  0  0  0
   -5.9700   24.0550  -30.8370 C   0  0  0  0  0  0  0  0  0  0  0  0
   -5.6060   25.3140  -30.1030 C   0  0  0  0  0  0  0  0  0  0  0  0
   -5.6579   25.1345  -29.0190 H   0  0  0  0  0  0  0  0  0  0  0  0
   -4.5840   25.6153  -30.3763 H   0  0  0  0  0  0  0  0  0  0  0  0
   -6.3096   26.1142  -30.3763 H   0  0  0  0  0  0  0  0  0  0  0  0
  1  2  1  0
  2  3  1  0
  3  4  1  0
  4  5  1  0
  5  6  1  0
  5  7  1  0
  5  8  1  0
  8  9  1  0
  8 10  1  0
  8 11  1  0
 11 12  1  0
 11 13  1  0
 13 14  1  0
 13 15  1  0
 13 16  1  0
 16 17  1  0
 16 18  1  0
  3 19  2  0
 19 20  1  0
 20 21  2  0
 21 22  1  0
 22 23  2  0
 23 24  1  0
 23 25  1  0
 25 26  1  0
 26 27  1  0
 26 28  1  0
 26 29  1  0
 25 30  2  0
 30 31  1  0
 31 32  1  0
 32 33  1  0
 32 34  1  0
 32 35  1  0
 35 36  1  0
 35 37  1  0
 35 38  1  0
 30 39  1  0
 39 40  1  0
 39 41  2  0
 41 42  1  0
 42 43  1  0
 42 44  1  0
 42 45  1  0
 20 46  1  0
 46 47  1  0
 47 48  1  0
 48 49  1  0
 49 50  2  0
 50 51  1  0
 51 52  1  0
 51 53  1  0
 51 54  1  0
 50 55  1  0
 55 56  1  0
 55 57  2  0
 57 58  1  0
 58 59  1  0
 58 60  1  0
 58 61  1  0
 61 62  1  0
 61 63  1  0
 61 64  1  0
 64 65  2  0
 64 66  1  0
 57 67  1  0
 67 68  1  0
 67 69  2  0
 69 70  1  0
 70 71  1  0
 70 72  1  0
 70 73  1  0
 47  2  2  0
 69 49  1  0
 16  4  1  0
 41 22  1  0
M  CHG  2  46  -1  66  -1
M  END
>  <UniqueID>  (7) 
7

>  <SMILES>  (7) 
CCOc1cc(C)c(/N=c2\nc(N3CCNCC3)cc(Oc3c(C)cc(CCC(=O)[O-])cc3C)[n-]2)cc1C

>  <Energy>  (7) 
88.88567841252026

>  <Genealogy>  (7) 
CCOc1cc(C)c(N=c2nc(N3CCNCC3)cc(Oc3c(C)cc(CCC(=O)[O-])cc3C)[n-]2)cc1C (protonated)
CCOc1cc(C)c(/N=c2\nc(N3CCNCC3)cc(Oc3c(C)cc(CCC(=O)[O-])cc3C)[n-]2)cc1C (cis-trans isomerization)
CCOc1cc(C)c(/N=c2\nc(N3CCNCC3)cc(Oc3c(C)cc(CCC(=O)[O-])cc3C)[n-]2)cc1C (3D coordinates assigned)
CCOc1cc(C)c(/N=c2\nc(N3CCNCC3)cc(Oc3c(C)cc(CCC(=O)[O-])cc3C)[n-]2)cc1C (nonaromatic ring conformer: 88.88567841252026 kcal/mol)

>  <smiles>  (7) 
CCOc1cc(C)c(N=c2nc(N3CCNCC3)cc(Oc3c(C)cc(CCC(=O)O)cc3C)[nH]2)cc1C

>  <score_type>  (7) 
oracle

>  <origin>  (7) 
adgpu

>  <m_score__min__energy>  (7) 
-11.76

>  <m_primary>  (7) 
energy

$$$$
7:0
     RDKit          3D

 24 25  0  0  0  0  0  0  0  0999 V2000
   -8.6091   17.3100  -32.3142 H   0  0  0  0  0  0  0  0  0  0  0  0
   -8.2450   18.3480  -32.3080 C   0  0  0  0  0  0  0  0  0  0  0  0
   -9.1230   19.3950  -32.0140 C   0  0  0  0  0  0  0  0  0  0  0  0
  -10.1783   19.1802  -31.7901 H   0  0  0  0  0  0  0  0  0  0  0  0
   -8.6620   20.7150  -32.0040 C   0  0  0  0  0  0  0  0  0  0  0  0
   -9.3549   21.5359  -31.7673 H   0  0  0  0  0  0  0  0  0  0  0  0
   -7.3180   20.9960  -32.2950 C   0  0  0  0  0  0  0  0  0  0  0  0
   -6.8230   22.4180  -32.2640 C   0  0  0  0  0  0  0  0  0  0  0  0
   -7.5166   23.0299  -31.6686 H   0  0  0  0  0  0  0  0  0  0  0  0
   -6.7703   22.7990  -33.2946 H   0  0  0  0  0  0  0  0  0  0  0  0
   -5.4900   22.4830  -31.6670 N   0  0  0  0  0  0  0  0  0  0  0  0
   -4.9170   23.5840  -31.2780 C   0  0  0  0  0  0  0  0  0  0  0  0
   -5.4710   24.8090  -31.3520 N   0  0  0  0  0  0  0  0  0  0  0  0
   -4.5540   25.6160  -30.8300 N   0  0  0  0  0  0  0  0  0  0  0  0
   -3.4890   24.9210  -30.4520 N   0  0  0  0  0  0  0  0  0  0  0  0
   -3.6930   23.6470  -30.7350 N   0  0  0  0  0  0  0  0  0  0  0  0
   -2.7850   22.5550  -30.4100 C   0  0  0  0  0  0  0  0  0  0  0  0
   -2.7044   22.4581  -29.3172 H   0  0  0  0  0  0  0  0  0  0  0  0
   -3.1731   21.6170  -30.8337 H   0  0  0  0  0  0  0  0  0  0  0  0
   -1.7919   22.7655  -30.8337 H   0  0  0  0  0  0  0  0  0  0  0  0
   -6.4400   19.9390  -32.5870 C   0  0  0  0  0  0  0  0  0  0  0  0
   -5.3837   20.1493  -32.8108 H   0  0  0  0  0  0  0  0  0  0  0  0
   -6.9050   18.6200  -32.5940 C   0  0  0  0  0  0  0  0  0  0  0  0
   -6.2145   17.7955  -32.8251 H   0  0  0  0  0  0  0  0  0  0  0  0
  1  2  1  0
  2  3  2  0
  3  4  1  0
  3  5  1  0
  5  6  1  0
  5  7  2  0
  7  8  1  0
  8  9  1  0
  8 10  1  0
  8 11  1  0
 11 12  2  0
 12 13  1  0
 13 14  1  0
 14 15  2  0
 15 16  1  0
 16 17  1  0
 17 18  1  0
 17 19  1  0
 17 20  1  0
  7 21  1  0
 21 22  1  0
 21 23  2  0
 23 24  1  0
 23  2  1  0
 16 12  1  0
M  CHG  1  13  -1
M  END
>  <UniqueID>  (8) 
8

>  <SMILES>  (8) 
Cn1nn[n-]/c1=N\Cc1ccccc1

>  <Energy>  (8) 
63.68596667149498

>  <Genealogy>  (8) 
Cn1nn[n-]c1=NCc1ccccc1 (protonated)
Cn1nn[n-]/c1=N\Cc1ccccc1 (cis-trans isomerization)
Cn1nn[n-]/c1=N\Cc1ccccc1 (3D coordinates assigned)
Cn1nn[n-]/c1=N\Cc1ccccc1 (optimized conformer: 63.68596667149498 kcal/mol)

>  <smiles>  (8) 
Cn1nn[nH]c1=NCc1ccccc1

>  <score_type>  (8) 
oracle

>  <origin>  (8) 
adgpu

>  <m_score__min__energy>  (8) 
-7.8399999999999999

>  <m_primary>  (8) 
energy

$$$$
8:0
     RDKit          3D

 28 29  0  0  0  0  0  0  0  0999 V2000
   -1.9360   26.0270  -25.8340 C   0  0  0  0  0  0  0  0  0  0  0  0
   -2.7160   24.8520  -26.4070 C   0  0  0  0  0  0  0  0  0  0  0  0
   -2.7710   24.9210  -27.8640 N   0  0  0  0  0  0  0  0  0  0  0  0
   -1.9420   24.0800  -28.6670 C   0  0  0  0  0  0  0  0  0  0  0  0
   -2.1550   23.0860  -29.6100 C   0  0  0  0  0  0  0  0  0  0  0  0
   -3.2900   22.4440  -30.1980 N   0  0  0  0  0  0  0  0  0  0  0  0
   -4.5430   23.1080  -30.4100 C   0  0  0  0  0  0  0  0  0  0  0  0
   -5.7240   22.3520  -30.4260 C   0  0  0  0  0  0  0  0  0  0  0  0
   -6.9590   22.9730  -30.6430 C   0  0  0  0  0  0  0  0  0  0  0  0
   -8.4260   22.0130  -30.6920 Cl  0  0  0  0  0  0  0  0  0  0  0  0
   -7.0220   24.3570  -30.8250 C   0  0  0  0  0  0  0  0  0  0  0  0
   -5.8560   25.1230  -30.7770 C   0  0  0  0  0  0  0  0  0  0  0  0
   -4.6180   24.5090  -30.5560 C   0  0  0  0  0  0  0  0  0  0  0  0
   -3.4770   25.2980  -30.4580 O   0  0  0  0  0  0  0  0  0  0  0  0
   -0.7890   22.9650  -29.7810 C   0  0  0  0  0  0  0  0  0  0  0  0
   -0.0440   22.2590  -30.5090 O   0  0  0  0  0  0  0  0  0  0  0  0
   -0.5780   23.9220  -28.8090 C   0  0  0  0  0  0  0  0  0  0  0  0
    0.4370   24.4490  -28.2840 O   0  0  0  0  0  0  0  0  0  0  0  0
   -1.9640   25.9848  -24.7352 H   0  0  0  0  0  0  0  0  0  0  0  0
   -0.8919   25.9759  -26.1764 H   0  0  0  0  0  0  0  0  0  0  0  0
   -2.3885   26.9694  -26.1764 H   0  0  0  0  0  0  0  0  0  0  0  0
   -2.2238   23.9143  -26.1097 H   0  0  0  0  0  0  0  0  0  0  0  0
   -3.7433   24.8891  -26.0155 H   0  0  0  0  0  0  0  0  0  0  0  0
   -3.6300   25.3190  -28.3060 H   0  0  0  0  0  0  0  0  0  0  0  0
   -3.1600   21.4810  -30.5810 H   0  0  0  0  0  0  0  0  0  0  0  0
   -5.6793   21.2645  -30.2670 H   0  0  0  0  0  0  0  0  0  0  0  0
   -7.9917   24.8436  -31.0063 H   0  0  0  0  0  0  0  0  0  0  0  0
   -5.9105   26.2132  -30.9134 H   0  0  0  0  0  0  0  0  0  0  0  0
  1  2  1  0
  2  3  1  0
  3  4  1  0
  4  5  2  0
  5  6  1  0
  6  7  1  0
  7  8  2  0
  8  9  1  0
  9 10  1  0
  9 11  2  0
 11 12  1  0
 12 13  2  0
 13 14  1  0
  5 15  1  0
 15 16  2  0
 15 17  1  0
 17 18  2  0
 17  4  1  0
 13  7  1  0
  1 19  1  0
  1 20  1  0
  1 21  1  0
  2 22  1  0
  2 23  1  0
  3 24  1  0
  6 25  1  0
  8 26  1  0
 11 27  1  0
 12 28  1  0
M  CHG  1  14  -1
M  END
>  <UniqueID>  (9) 
9

>  <SMILES>  (9) 
CCNc1c(Nc2cc(Cl)ccc2[O-])c(=O)c1=O

>  <Energy>  (9) 
24.92197068042088

>  <Genealogy>  (9) 
CCNc1c(Nc2cc(Cl)ccc2[O-])c(=O)c1=O (protonated)
CCNc1c(Nc2cc(Cl)ccc2[O-])c(=O)c1=O (3D coordinates assigned)
CCNc1c(Nc2cc(Cl)ccc2[O-])c(=O)c1=O (optimized conformer: 24.92197068042088 kcal/mol)

>  <smiles>  (9) 
CCNc1c(Nc2cc(Cl)ccc2O)c(=O)c1=O

>  <score_type>  (9) 
oracle

>  <origin>  (9) 
adgpu

>  <m_score__min__energy>  (9) 
-9.6199999999999992

>  <m_primary>  (9) 
energy

$$$$
9:0
     RDKit          3D

 47 49  0  0  0  0  0  0  0  0999 V2000
    1.0028   20.2483  -32.5778 H   0  0  0  0  0  0  0  0  0  0  0  0
    0.0190   20.5100  -32.1610 C   0  0  0  0  0  0  0  0  0  0  0  0
   -1.0480   20.6660  -32.9890 N   0  0  0  0  0  0  0  0  0  0  0  0
   -2.2730   20.9790  -32.4940 C   0  0  0  0  0  0  0  0  0  0  0  0
   -3.2800   21.1360  -33.3040 N   0  0  0  0  0  0  0  0  0  0  0  0
   -4.6290   21.4030  -32.8800 C   0  0  0  0  0  0  0  0  0  0  0  0
   -5.6290   20.4610  -33.1340 C   0  0  0  0  0  0  0  0  0  0  0  0
   -5.3699   19.5041  -33.6107 H   0  0  0  0  0  0  0  0  0  0  0  0
   -6.9540   20.7260  -32.7870 C   0  0  0  0  0  0  0  0  0  0  0  0
   -7.7354   19.9852  -33.0121 H   0  0  0  0  0  0  0  0  0  0  0  0
   -7.2990   21.9320  -32.1520 C   0  0  0  0  0  0  0  0  0  0  0  0
   -8.7340   22.1890  -31.7800 C   0  0  0  0  0  0  0  0  0  0  0  0
   -8.8313   22.2064  -30.6845 H   0  0  0  0  0  0  0  0  0  0  0  0
   -9.0516   23.1583  -32.1918 H   0  0  0  0  0  0  0  0  0  0  0  0
   -9.3683   21.3902  -32.1918 H   0  0  0  0  0  0  0  0  0  0  0  0
   -6.2850   22.8660  -31.8400 C   0  0  0  0  0  0  0  0  0  0  0  0
   -6.5990   24.1000  -31.1690 N   0  0  0  0  0  0  0  0  0  0  0  0
   -7.5820   24.4560  -31.1690 H   0  0  0  0  0  0  0  0  0  0  0  0
   -5.4770   24.8920  -30.1080 S   0  0  0  0  0  0  0  0  0  0  0  0
   -6.1470   26.0550  -29.4310 O   0  0  0  0  0  0  0  0  0  0  0  0
   -4.3220   25.4080  -30.9170 O   0  0  0  0  0  0  0  0  0  0  0  0
   -4.8710   23.7540  -28.8820 C   0  0  0  0  0  0  0  0  0  0  0  0
   -5.0820   24.1503  -27.8778 H   0  0  0  0  0  0  0  0  0  0  0  0
   -5.3709   22.7819  -29.0051 H   0  0  0  0  0  0  0  0  0  0  0  0
   -3.7854   23.6262  -29.0051 H   0  0  0  0  0  0  0  0  0  0  0  0
   -4.9580   22.5890  -32.2060 C   0  0  0  0  0  0  0  0  0  0  0  0
   -4.1656   23.3115  -31.9611 H   0  0  0  0  0  0  0  0  0  0  0  0
   -2.4260   21.1630  -31.1570 N   0  0  0  0  0  0  0  0  0  0  0  0
   -1.3970   21.0280  -30.2800 C   0  0  0  0  0  0  0  0  0  0  0  0
   -1.6470   21.2290  -28.8680 N   0  0  0  0  0  0  0  0  0  0  0  0
   -1.4110   22.5350  -28.2970 C   0  0  0  0  0  0  0  0  0  0  0  0
   -1.0430   22.6590  -26.9450 C   0  0  0  0  0  0  0  0  0  0  0  0
   -1.0047   21.7655  -26.3046 H   0  0  0  0  0  0  0  0  0  0  0  0
   -0.7260   23.9100  -26.4110 C   0  0  0  0  0  0  0  0  0  0  0  0
   -0.4324   23.9975  -25.3545 H   0  0  0  0  0  0  0  0  0  0  0  0
   -0.7810   25.0490  -27.2150 C   0  0  0  0  0  0  0  0  0  0  0  0
   -0.5201   26.0317  -26.7953 H   0  0  0  0  0  0  0  0  0  0  0  0
   -1.1680   24.9410  -28.5550 C   0  0  0  0  0  0  0  0  0  0  0  0
   -1.2380   26.0780  -29.3510 O   0  0  0  0  0  0  0  0  0  0  0  0
   -1.4800   23.6890  -29.0970 C   0  0  0  0  0  0  0  0  0  0  0  0
   -1.7801   23.6076  -30.1521 H   0  0  0  0  0  0  0  0  0  0  0  0
   -2.3540   20.2180  -28.0700 C   0  0  0  0  0  0  0  0  0  0  0  0
   -2.2076   20.4273  -27.0001 H   0  0  0  0  0  0  0  0  0  0  0  0
   -3.4279   20.2496  -28.3063 H   0  0  0  0  0  0  0  0  0  0  0  0
   -1.9558   19.2202  -28.3063 H   0  0  0  0  0  0  0  0  0  0  0  0
   -0.1300   20.6810  -30.7830 C   0  0  0  0  0  0  0  0  0  0  0  0
    0.7258   20.5471  -30.1049 H   0  0  0  0  0  0  0  0  0  0  0  0
  1  2  1  0
  2  3  1  0
  3  4  1  0
  4  5  2  0
  5  6  1  0
  6  7  2  0
  7  8  1  0
  7  9  1  0
  9 10  1  0
  9 11  2  0
 11 12  1  0
 12 13  1  0
 12 14  1  0
 12 15  1  0
 11 16  1  0
 16 17  1  0
 17 18  1  0
 17 19  1  0
 19 20  2  0
 19 21  2  0
 19 22  1  0
 22 23  1  0
 22 24  1  0
 22 25  1  0
 16 26  2  0
 26 27  1  0
  4 28  1  0
 28 29  2  0
 29 30  1  0
 30 31  1  0
 31 32  2  0
 32 33  1  0
 32 34  1  0
 34 35  1  0
 34 36  2  0
 36 37  1  0
 36 38  1  0
 38 39  1  0
 38 40  2  0
 40 41  1  0
 30 42  1  0
 42 43  1  0
 42 44  1  0
 42 45  1  0
 29 46  1  0
 46 47  1  0
 46  2  2  0
 26  6  1  0
 40 31  1  0
M  CHG  2   3  -1  39  -1
M  END
>  <UniqueID>  (10) 
10

>  <SMILES>  (10) 
Cc1ccc(/N=c2\nc(N(C)c3cccc([O-])c3)cc[n-]2)cc1NS(C)(=O)=O

>  <Energy>  (10) 
60.35019640585976

>  <Genealogy>  (10) 
Cc1ccc(N=c2nc(N(C)c3cccc([O-])c3)cc[n-]2)cc1NS(C)(=O)=O (protonated)
Cc1ccc(/N=c2\nc(N(C)c3cccc([O-])c3)cc[n-]2)cc1NS(C)(=O)=O (cis-trans isomerization)
Cc1ccc(/N=c2\nc(N(C)c3cccc([O-])c3)cc[n-]2)cc1NS(C)(=O)=O (3D coordinates assigned)
Cc1ccc(/N=c2\nc(N(C)c3cccc([O-])c3)cc[n-]2)cc1NS(C)(=O)=O (optimized conformer: 60.35019640585976 kcal/mol)

>  <smiles>  (10) 
Cc1ccc(N=c2nc(N(C)c3cccc(O)c3)cc[nH]2)cc1NS(C)(=O)=O

>  <score_type>  (10) 
oracle

>  <origin>  (10) 
adgpu

>  <m_score__min__energy>  (10) 
-12.6

>  <m_primary>  (10) 
energy

$$$$
10:0
     RDKit          3D

 35 37  0  0  0  0  0  0  0  0999 V2000
   -7.9110   18.2820  -32.1280 C   0  0  0  0  0  0  0  0  0  0  0  0
   -6.6340   18.1690  -32.9530 C   0  0  0  0  0  0  0  0  0  0  0  0
   -6.3920   19.3780  -33.6690 O   0  0  0  0  0  0  0  0  0  0  0  0
   -5.7660   20.4970  -33.1060 C   0  0  0  0  0  0  0  0  0  0  0  0
   -4.5180   20.6450  -33.2030 O   0  0  0  0  0  0  0  0  0  0  0  0
   -6.5620   21.5060  -32.3870 C   0  0  0  0  0  0  0  0  0  0  0  0
   -7.9100   21.4700  -32.2730 N   0  0  0  0  0  0  0  0  0  0  0  0
   -8.3390   22.5120  -31.5680 N   0  0  0  0  0  0  0  0  0  0  0  0
   -7.2490   23.2210  -31.2290 C   0  0  0  0  0  0  0  0  0  0  0  0
   -7.2020   24.3960  -30.4840 C   0  0  0  0  0  0  0  0  0  0  0  0
   -5.9410   24.9700  -30.2440 C   0  0  0  0  0  0  0  0  0  0  0  0
   -4.7610   24.3690  -30.7450 C   0  0  0  0  0  0  0  0  0  0  0  0
   -3.5030   24.9990  -30.4660 N   0  0  0  0  0  0  0  0  0  0  0  0
   -2.4280   24.5480  -29.1830 S   0  0  0  0  0  0  0  0  0  0  0  0
   -3.0670   24.8270  -27.8520 O   0  0  0  0  0  0  0  0  0  0  0  0
   -1.1460   25.3230  -29.3130 O   0  0  0  0  0  0  0  0  0  0  0  0
   -2.0790   22.8350  -29.3050 C   0  0  0  0  0  0  0  0  0  0  0  0
   -2.5190   21.8550  -28.4300 C   0  0  0  0  0  0  0  0  0  0  0  0
   -2.0700   20.5750  -28.7750 C   0  0  0  0  0  0  0  0  0  0  0  0
   -1.2790   20.5510  -29.9170 C   0  0  0  0  0  0  0  0  0  0  0  0
   -1.1350   22.1240  -30.4990 S   0  0  0  0  0  0  0  0  0  0  0  0
   -4.8470   23.1730  -31.4970 C   0  0  0  0  0  0  0  0  0  0  0  0
   -6.1140   22.6310  -31.7180 C   0  0  0  0  0  0  0  0  0  0  0  0
   -7.6591   18.2597  -31.0575 H   0  0  0  0  0  0  0  0  0  0  0  0
   -8.4185   19.2286  -32.3656 H   0  0  0  0  0  0  0  0  0  0  0  0
   -8.5768   17.4393  -32.3656 H   0  0  0  0  0  0  0  0  0  0  0  0
   -5.7858   17.9704  -32.2814 H   0  0  0  0  0  0  0  0  0  0  0  0
   -6.7485   17.3461  -33.6739 H   0  0  0  0  0  0  0  0  0  0  0  0
   -8.5430   20.7410  -32.6700 H   0  0  0  0  0  0  0  0  0  0  0  0
   -8.1208   24.8600  -30.0960 H   0  0  0  0  0  0  0  0  0  0  0  0
   -5.8703   25.8988  -29.6589 H   0  0  0  0  0  0  0  0  0  0  0  0
   -3.1544   22.0612  -27.5561 H   0  0  0  0  0  0  0  0  0  0  0  0
   -2.3198   19.6733  -28.1967 H   0  0  0  0  0  0  0  0  0  0  0  0
   -0.8238   19.6555  -30.3651 H   0  0  0  0  0  0  0  0  0  0  0  0
   -3.9442   22.6863  -31.8945 H   0  0  0  0  0  0  0  0  0  0  0  0
  1  2  1  0
  2  3  1  0
  3  4  1  0
  4  5  2  0
  4  6  1  0
  6  7  1  0
  7  8  1  0
  8  9  2  0
  9 10  1  0
 10 11  2  0
 11 12  1  0
 12 13  1  0
 13 14  1  0
 14 15  2  0
 14 16  2  0
 14 17  1  0
 17 18  2  0
 18 19  1  0
 19 20  2  0
 20 21  1  0
 12 22  2  0
 22 23  1  0
 23  6  2  0
 23  9  1  0
 21 17  1  0
  1 24  1  0
  1 25  1  0
  1 26  1  0
  2 27  1  0
  2 28  1  0
  7 29  1  0
 10 30  1  0
 11 31  1  0
 18 32  1  0
 19 33  1  0
 20 34  1  0
 22 35  1  0
M  CHG  1  13  -1
M  END
>  <UniqueID>  (11) 
11

>  <SMILES>  (11) 
CCOC(=O)c1[nH]nc2ccc([N-]S(=O)(=O)c3cccs3)cc12

>  <Energy>  (11) 
100.92367867865251

>  <Genealogy>  (11) 
CCOC(=O)c1[nH]nc2ccc([N-]S(=O)(=O)c3cccs3)cc12 (protonated)
CCOC(=O)c1[nH]nc2ccc([N-]S(=O)(=O)c3cccs3)cc12 (3D coordinates assigned)
CCOC(=O)c1[nH]nc2ccc([N-]S(=O)(=O)c3cccs3)cc12 (optimized conformer: 100.92367867865251 kcal/mol)

>  <smiles>  (11) 
CCOC(=O)c1[nH]nc2ccc(NS(=O)(=O)c3cccs3)cc12

>  <score_type>  (11) 
oracle

>  <origin>  (11) 
adgpu

>  <m_score__min__energy>  (11) 
-8.9499999999999993

>  <m_primary>  (11) 
energy

$$$$
11:0
     RDKit          3D

 28 30  0  0  0  0  0  0  0  0999 V2000
   -1.6120   25.6450  -29.3160 O   0  0  0  0  0  0  0  0  0  0  0  0
   -1.6270   24.5300  -28.4750 C   0  0  0  0  0  0  0  0  0  0  0  0
   -0.6150   24.4300  -27.5110 C   0  0  0  0  0  0  0  0  0  0  0  0
   -0.6140   23.3830  -26.5880 C   0  0  0  0  0  0  0  0  0  0  0  0
   -1.6250   22.4230  -26.6220 C   0  0  0  0  0  0  0  0  0  0  0  0
   -2.6280   22.4960  -27.5910 C   0  0  0  0  0  0  0  0  0  0  0  0
   -2.6340   23.5320  -28.5420 C   0  0  0  0  0  0  0  0  0  0  0  0
   -3.6730   23.5150  -29.5960 C   0  0  0  0  0  0  0  0  0  0  0  0
   -3.8190   24.4950  -30.5110 N   0  0  0  0  0  0  0  0  0  0  0  0
   -4.8600   24.1540  -31.2050 O   0  0  0  0  0  0  0  0  0  0  0  0
   -5.3500   23.0290  -30.7460 C   0  0  0  0  0  0  0  0  0  0  0  0
   -6.5380   22.3500  -31.3000 C   0  0  0  0  0  0  0  0  0  0  0  0
   -7.7980   22.9720  -31.2430 C   0  0  0  0  0  0  0  0  0  0  0  0
   -8.9240   22.3320  -31.7670 C   0  0  0  0  0  0  0  0  0  0  0  0
   -8.8050   21.0680  -32.3510 C   0  0  0  0  0  0  0  0  0  0  0  0
   -7.5570   20.4420  -32.4120 C   0  0  0  0  0  0  0  0  0  0  0  0
   -6.4270   21.0780  -31.8890 C   0  0  0  0  0  0  0  0  0  0  0  0
   -4.6320   22.5730  -29.7010 N   0  0  0  0  0  0  0  0  0  0  0  0
   -2.0710   25.6710  -30.2160 H   0  0  0  0  0  0  0  0  0  0  0  0
    0.1859   25.1835  -27.4814 H   0  0  0  0  0  0  0  0  0  0  0  0
    0.1840   23.3151  -25.8340 H   0  0  0  0  0  0  0  0  0  0  0  0
   -1.6324   21.6070  -25.8844 H   0  0  0  0  0  0  0  0  0  0  0  0
   -3.4219   21.7349  -27.6106 H   0  0  0  0  0  0  0  0  0  0  0  0
   -7.8975   23.9667  -30.7839 H   0  0  0  0  0  0  0  0  0  0  0  0
   -9.9066   22.8243  -31.7197 H   0  0  0  0  0  0  0  0  0  0  0  0
   -9.6931   20.5661  -32.7624 H   0  0  0  0  0  0  0  0  0  0  0  0
   -7.4636   19.4473  -32.8722 H   0  0  0  0  0  0  0  0  0  0  0  0
   -5.4469   20.5811  -31.9385 H   0  0  0  0  0  0  0  0  0  0  0  0
  1  2  1  0
  2  3  2  0
  3  4  1  0
  4  5  2  0
  5  6  1  0
  6  7  2  0
  7  8  1  0
  8  9  2  0
  9 10  1  0
 10 11  1  0
 11 12  1  0
 12 13  2  0
 13 14  1  0
 14 15  2  0
 15 16  1  0
 16 17  2  0
 11 18  2  0
  7  2  1  0
 18  8  1  0
 17 12  1  0
  1 19  1  0
  3 20  1  0
  4 21  1  0
  5 22  1  0
  6 23  1  0
 13 24  1  0
 14 25  1  0
 15 26  1  0
 16 27  1  0
 17 28  1  0
M  END
>  <UniqueID>  (12) 
12

>  <SMILES>  (12) 
Oc1ccccc1-c1noc(-c2ccccc2)n1

>  <Energy>  (12) 
69.40445432799474

>  <Genealogy>  (12) 
Oc1ccccc1-c1noc(-c2ccccc2)n1 (3D coordinates assigned)
Oc1ccccc1-c1noc(-c2ccccc2)n1 (optimized conformer: 69.40445432799474 kcal/mol)

>  <smiles>  (12) 
Oc1ccccc1-c1noc(-c2ccccc2)n1

>  <score_type>  (12) 
oracle

>  <origin>  (12) 
adgpu

>  <m_score__min__energy>  (12) 
-8.3900000000000006

>  <m_primary>  (12) 
energy

$$$$
12:0
     RDKit          3D

 50 53  0  0  0  0  0  0  0  0999 V2000
   -2.7380   25.1860  -26.4230 C   0  0  0  0  0  0  0  0  0  0  0  0
   -3.3570   24.5970  -27.5630 O   0  0  0  0  0  0  0  0  0  0  0  0
   -2.7560   23.6280  -28.3840 C   0  0  0  0  0  0  0  0  0  0  0  0
   -2.0940   22.5050  -27.8520 C   0  0  0  0  0  0  0  0  0  0  0  0
   -1.4960   21.5580  -28.6970 C   0  0  0  0  0  0  0  0  0  0  0  0
   -0.8380   20.4220  -28.1220 N   0  0  0  0  0  0  0  0  0  0  0  0
   -1.5500   21.7440  -30.0910 C   0  0  0  0  0  0  0  0  0  0  0  0
   -0.8080   20.6040  -31.2090 Cl  0  0  0  0  0  0  0  0  0  0  0  0
   -2.2040   22.8620  -30.6210 C   0  0  0  0  0  0  0  0  0  0  0  0
   -2.8270   23.7950  -29.7750 C   0  0  0  0  0  0  0  0  0  0  0  0
   -3.5030   24.9470  -30.3050 N   0  0  0  0  0  0  0  0  0  0  0  0
   -4.8610   24.9990  -30.7630 C   0  0  0  0  0  0  0  0  0  0  0  0
   -5.4310   26.1210  -30.8220 O   0  0  0  0  0  0  0  0  0  0  0  0
   -5.6230   23.7770  -31.1190 C   0  0  0  0  0  0  0  0  0  0  0  0
   -6.6720   23.8470  -32.0520 C   0  0  0  0  0  0  0  0  0  0  0  0
   -7.3910   22.7000  -32.3980 C   0  0  0  0  0  0  0  0  0  0  0  0
   -7.0780   21.4670  -31.8140 C   0  0  0  0  0  0  0  0  0  0  0  0
   -7.9800   20.0300  -32.2890 S   0  0  0  0  0  0  0  0  0  0  0  0
   -8.8890   20.3840  -33.4310 O   0  0  0  0  0  0  0  0  0  0  0  0
   -8.8100   19.5430  -31.1350 O   0  0  0  0  0  0  0  0  0  0  0  0
   -6.9070   18.7640  -32.7910 N   0  0  0  0  0  0  0  0  0  0  0  0
   -7.3010   17.3660  -32.9490 C   0  0  0  0  0  0  0  0  0  0  0  0
   -6.0470   16.6330  -33.4850 C   0  0  0  0  0  0  0  0  0  0  0  0
   -5.0420   17.7240  -33.6290 C   0  0  0  0  0  0  0  0  0  0  0  0
   -3.7390   17.6350  -34.1210 C   0  0  0  0  0  0  0  0  0  0  0  0
   -2.9690   18.8070  -34.1890 C   0  0  0  0  0  0  0  0  0  0  0  0
   -3.5120   20.0390  -33.7720 C   0  0  0  0  0  0  0  0  0  0  0  0
   -4.8280   20.1030  -33.2840 C   0  0  0  0  0  0  0  0  0  0  0  0
   -5.5670   18.9190  -33.2190 C   0  0  0  0  0  0  0  0  0  0  0  0
   -6.0430   21.3920  -30.8730 C   0  0  0  0  0  0  0  0  0  0  0  0
   -5.3310   22.5400  -30.5150 C   0  0  0  0  0  0  0  0  0  0  0  0
   -3.1799   24.7655  -25.5076 H   0  0  0  0  0  0  0  0  0  0  0  0
   -1.6590   24.9730  -26.4406 H   0  0  0  0  0  0  0  0  0  0  0  0
   -2.8972   26.2743  -26.4406 H   0  0  0  0  0  0  0  0  0  0  0  0
   -2.0451   22.3686  -26.7616 H   0  0  0  0  0  0  0  0  0  0  0  0
   -0.9150   19.4690  -28.5390 H   0  0  0  0  0  0  0  0  0  0  0  0
   -0.2720   20.5230  -27.2490 H   0  0  0  0  0  0  0  0  0  0  0  0
   -2.2306   23.0118  -31.7104 H   0  0  0  0  0  0  0  0  0  0  0  0
   -6.9288   24.8121  -32.5132 H   0  0  0  0  0  0  0  0  0  0  0  0
   -8.2069   22.7663  -33.1328 H   0  0  0  0  0  0  0  0  0  0  0  0
   -7.6078   16.9427  -31.9812 H   0  0  0  0  0  0  0  0  0  0  0  0
   -8.1554   17.2608  -33.6338 H   0  0  0  0  0  0  0  0  0  0  0  0
   -5.7012   15.8715  -32.7705 H   0  0  0  0  0  0  0  0  0  0  0  0
   -6.2342   16.0956  -34.4264 H   0  0  0  0  0  0  0  0  0  0  0  0
   -3.3252   16.6696  -34.4477 H   0  0  0  0  0  0  0  0  0  0  0  0
   -1.9377   18.7636  -34.5693 H   0  0  0  0  0  0  0  0  0  0  0  0
   -2.9034   20.9535  -33.8288 H   0  0  0  0  0  0  0  0  0  0  0  0
   -5.2648   21.0597  -32.9617 H   0  0  0  0  0  0  0  0  0  0  0  0
   -5.7895   20.4251  -30.4138 H   0  0  0  0  0  0  0  0  0  0  0  0
   -4.5372   22.4763  -29.7562 H   0  0  0  0  0  0  0  0  0  0  0  0
  1  2  1  0
  2  3  1  0
  3  4  2  0
  4  5  1  0
  5  6  1  0
  5  7  2  0
  7  8  1  0
  7  9  1  0
  9 10  2  0
 10 11  1  0
 11 12  1  0
 12 13  2  0
 12 14  1  0
 14 15  2  0
 15 16  1  0
 16 17  2  0
 17 18  1  0
 18 19  2  0
 18 20  2  0
 18 21  1  0
 21 22  1  0
 22 23  1  0
 23 24  1  0
 24 25  2  0
 25 26  1  0
 26 27  2  0
 27 28  1  0
 28 29  2  0
 17 30  1  0
 30 31  2  0
 10  3  1  0
 31 14  1  0
 29 21  1  0
 29 24  1  0
  1 32  1  0
  1 33  1  0
  1 34  1  0
  4 35  1  0
  6 36  1  0
  6 37  1  0
  9 38  1  0
 15 39  1  0
 16 40  1  0
 22 41  1  0
 22 42  1  0
 23 43  1  0
 23 44  1  0
 25 45  1  0
 26 46  1  0
 27 47  1  0
 28 48  1  0
 30 49  1  0
 31 50  1  0
M  CHG  1  11  -1
M  END
>  <UniqueID>  (13) 
13

>  <SMILES>  (13) 
COc1cc(N)c(Cl)cc1[N-]C(=O)c1ccc(S(=O)(=O)N2CCc3ccccc32)cc1

>  <Energy>  (13) 
76.37675772951756

>  <Genealogy>  (13) 
COc1cc(N)c(Cl)cc1[N-]C(=O)c1ccc(S(=O)(=O)N2CCc3ccccc32)cc1 (protonated)
COc1cc(N)c(Cl)cc1[N-]C(=O)c1ccc(S(=O)(=O)N2CCc3ccccc32)cc1 (3D coordinates assigned)
COc1cc(N)c(Cl)cc1[N-]C(=O)c1ccc(S(=O)(=O)N2CCc3ccccc32)cc1 (nonaromatic ring conformer: 76.37675772951756 kcal/mol)

>  <smiles>  (13) 
COc1cc(N)c(Cl)cc1NC(=O)c1ccc(S(=O)(=O)N2CCc3ccccc32)cc1

>  <score_type>  (13) 
oracle

>  <origin>  (13) 
adgpu

>  <m_score__min__energy>  (13) 
-12.199999999999999

>  <m_primary>  (13) 
energy

$$$$
13:0
     RDKit          3D

 55 57  0  0  0  0  0  0  0  0999 V2000
   -1.3410   21.1730  -32.2390 C   0  0  0  0  0  0  0  0  0  0  0  0
   -2.6120   21.5480  -32.9790 C   0  0  0  0  0  0  0  0  0  0  0  0
   -3.3570   22.4780  -32.1970 O   0  0  0  0  0  0  0  0  0  0  0  0
   -3.6900   22.2500  -30.8580 C   0  0  0  0  0  0  0  0  0  0  0  0
   -4.5630   21.3840  -30.5720 O   0  0  0  0  0  0  0  0  0  0  0  0
   -3.0020   23.0200  -29.7880 C   0  0  0  0  0  0  0  0  0  0  0  0
   -3.0350   24.4160  -29.7350 C   0  0  0  0  0  0  0  0  0  0  0  0
   -3.8190   25.2580  -30.5900 N   0  0  0  0  0  0  0  0  0  0  0  0
   -5.2420   25.3900  -30.5260 C   0  0  0  0  0  0  0  0  0  0  0  0
   -5.7280   26.4680  -30.0860 O   0  0  0  0  0  0  0  0  0  0  0  0
   -6.1500   24.2820  -30.9080 C   0  0  0  0  0  0  0  0  0  0  0  0
   -6.9060   23.6200  -29.9270 C   0  0  0  0  0  0  0  0  0  0  0  0
   -7.7060   22.5230  -30.2670 C   0  0  0  0  0  0  0  0  0  0  0  0
   -7.7740   22.0830  -31.5960 C   0  0  0  0  0  0  0  0  0  0  0  0
   -8.6740   20.6220  -32.0030 S   0  0  0  0  0  0  0  0  0  0  0  0
   -8.5610   19.6320  -30.8750 O   0  0  0  0  0  0  0  0  0  0  0  0
  -10.1300   20.9330  -32.2120 O   0  0  0  0  0  0  0  0  0  0  0  0
   -7.9920   19.9070  -33.4310 N   0  0  0  0  0  0  0  0  0  0  0  0
   -6.8040   19.1050  -33.4610 C   0  0  0  0  0  0  0  0  0  0  0  0
   -5.5570   19.7440  -33.4810 C   0  0  0  0  0  0  0  0  0  0  0  0
   -4.3770   18.9940  -33.5480 C   0  0  0  0  0  0  0  0  0  0  0  0
   -4.4350   17.5980  -33.5790 C   0  0  0  0  0  0  0  0  0  0  0  0
   -5.6760   16.9440  -33.5320 C   0  0  0  0  0  0  0  0  0  0  0  0
   -5.7520   15.4460  -33.5640 C   0  0  0  0  0  0  0  0  0  0  0  0
   -6.8550   17.7000  -33.4570 C   0  0  0  0  0  0  0  0  0  0  0  0
   -7.0460   22.7600  -32.5820 C   0  0  0  0  0  0  0  0  0  0  0  0
   -6.2270   23.8390  -32.2420 C   0  0  0  0  0  0  0  0  0  0  0  0
   -2.1000   24.9560  -28.4510 S   0  0  0  0  0  0  0  0  0  0  0  0
   -1.6340   23.4320  -27.9200 C   0  0  0  0  0  0  0  0  0  0  0  0
   -0.7750   23.2170  -26.7430 C   0  0  0  0  0  0  0  0  0  0  0  0
   -0.8810   24.0560  -25.5930 N   0  0  0  0  0  0  0  0  0  0  0  0
    0.1040   22.3140  -26.7760 O   0  0  0  0  0  0  0  0  0  0  0  0
   -2.1970   22.4590  -28.7580 C   0  0  0  0  0  0  0  0  0  0  0  0
   -1.9020   20.9880  -28.6390 C   0  0  0  0  0  0  0  0  0  0  0  0
   -1.5189   21.2255  -31.1548 H   0  0  0  0  0  0  0  0  0  0  0  0
   -1.0456   20.1494  -32.5130 H   0  0  0  0  0  0  0  0  0  0  0  0
   -0.5373   21.8723  -32.5130 H   0  0  0  0  0  0  0  0  0  0  0  0
   -2.3530   22.0053  -33.9453 H   0  0  0  0  0  0  0  0  0  0  0  0
   -3.2166   20.6456  -33.1524 H   0  0  0  0  0  0  0  0  0  0  0  0
   -6.8692   23.9662  -28.8836 H   0  0  0  0  0  0  0  0  0  0  0  0
   -8.2837   22.0040  -29.4880 H   0  0  0  0  0  0  0  0  0  0  0  0
   -5.5051   20.8421  -33.4438 H   0  0  0  0  0  0  0  0  0  0  0  0
   -3.4028   19.5041  -33.5763 H   0  0  0  0  0  0  0  0  0  0  0  0
   -3.5068   17.0110  -33.6403 H   0  0  0  0  0  0  0  0  0  0  0  0
   -5.7717   15.0578  -32.5350 H   0  0  0  0  0  0  0  0  0  0  0  0
   -6.6670   15.1364  -34.0902 H   0  0  0  0  0  0  0  0  0  0  0  0
   -4.8730   15.0454  -34.0902 H   0  0  0  0  0  0  0  0  0  0  0  0
   -7.8274   17.1895  -33.3945 H   0  0  0  0  0  0  0  0  0  0  0  0
   -7.1196   22.4398  -33.6318 H   0  0  0  0  0  0  0  0  0  0  0  0
   -5.6386   24.3457  -33.0212 H   0  0  0  0  0  0  0  0  0  0  0  0
   -0.3300   23.8430  -24.7310 H   0  0  0  0  0  0  0  0  0  0  0  0
   -1.5050   24.8950  -25.5970 H   0  0  0  0  0  0  0  0  0  0  0  0
   -1.8463   20.7100  -27.5762 H   0  0  0  0  0  0  0  0  0  0  0  0
   -2.7027   20.4128  -29.1269 H   0  0  0  0  0  0  0  0  0  0  0  0
   -0.9415   20.7660  -29.1269 H   0  0  0  0  0  0  0  0  0  0  0  0
  1  2  1  0
  2  3  1  0
  3  4  1  0
  4  5  2  0
  4  6  1  0
  6  7  2  0
  7  8  1  0
  8  9  1  0
  9 10  2  0
  9 11  1  0
 11 12  2  0
 12 13  1  0
 13 14  2  0
 14 15  1  0
 15 16  2  0
 15 17  2  0
 15 18  1  0
 18 19  1  0
 19 20  2  0
 20 21  1  0
 21 22  2  0
 22 23  1  0
 23 24  1  0
 23 25  2  0
 14 26  1  0
 26 27  2  0
  7 28  1  0
 28 29  1  0
 29 30  1  0
 30 31  1  0
 30 32  2  0
 29 33  2  0
 33 34  1  0
 33  6  1  0
 27 11  1  0
 25 19  1  0
  1 35  1  0
  1 36  1  0
  1 37  1  0
  2 38  1  0
  2 39  1  0
 12 40  1  0
 13 41  1  0
 20 42  1  0
 21 43  1  0
 22 44  1  0
 24 45  1  0
 24 46  1  0
 24 47  1  0
 25 48  1  0
 26 49  1  0
 27 50  1  0
 31 51  1  0
 31 52  1  0
 34 53  1  0
 34 54  1  0
 34 55  1  0
M  CHG  2   8  -1  18  -1
M  END
>  <UniqueID>  (14) 
14

>  <SMILES>  (14) 
CCOC(=O)c1c([N-]C(=O)c2ccc(S(=O)(=O)[N-]c3cccc(C)c3)cc2)sc(C(N)=O)c1C

>  <Energy>  (14) 
94.92932004026473

>  <Genealogy>  (14) 
CCOC(=O)c1c([N-]C(=O)c2ccc(S(=O)(=O)[N-]c3cccc(C)c3)cc2)sc(C(N)=O)c1C (protonated)
CCOC(=O)c1c([N-]C(=O)c2ccc(S(=O)(=O)[N-]c3cccc(C)c3)cc2)sc(C(N)=O)c1C (3D coordinates assigned)
CCOC(=O)c1c([N-]C(=O)c2ccc(S(=O)(=O)[N-]c3cccc(C)c3)cc2)sc(C(N)=O)c1C (optimized conformer: 94.92932004026473 kcal/mol)

>  <smiles>  (14) 
CCOC(=O)c1c(NC(=O)c2ccc(S(=O)(=O)Nc3cccc(C)c3)cc2)sc(C(N)=O)c1C

>  <score_type>  (14) 
oracle

>  <origin>  (14) 
adgpu

>  <m_score__min__energy>  (14) 
-12.51

>  <m_primary>  (14) 
energy

$$$$
14:0
     RDKit          3D

 56 59  0  0  0  0  0  0  0  0999 V2000
   -1.5330   25.1900  -28.5680 C   0  0  0  0  0  0  0  0  0  0  0  0
   -1.8970   23.7360  -28.4130 C   0  0  0  0  0  0  0  0  0  0  0  0
   -0.8690   22.7770  -28.3430 C   0  0  0  0  0  0  0  0  0  0  0  0
   -1.1740   21.4240  -28.1560 C   0  0  0  0  0  0  0  0  0  0  0  0
   -2.5030   21.0150  -28.0320 C   0  0  0  0  0  0  0  0  0  0  0  0
   -3.5360   21.9540  -28.1210 C   0  0  0  0  0  0  0  0  0  0  0  0
   -3.2470   23.3090  -28.3420 C   0  0  0  0  0  0  0  0  0  0  0  0
   -4.3390   24.2260  -28.4680 N   0  0  0  0  0  0  0  0  0  0  0  0
   -4.9790   24.7110  -30.0040 S   0  0  0  0  0  0  0  0  0  0  0  0
   -6.0860   25.7040  -29.7840 O   0  0  0  0  0  0  0  0  0  0  0  0
   -3.9010   25.3410  -30.8400 O   0  0  0  0  0  0  0  0  0  0  0  0
   -5.5870   23.2910  -30.8450 C   0  0  0  0  0  0  0  0  0  0  0  0
   -4.7340   22.2270  -31.1480 C   0  0  0  0  0  0  0  0  0  0  0  0
   -5.2220   21.1100  -31.8230 C   0  0  0  0  0  0  0  0  0  0  0  0
   -6.5640   21.0460  -32.2240 C   0  0  0  0  0  0  0  0  0  0  0  0
   -7.0020   19.8910  -32.9490 N   0  0  0  0  0  0  0  0  0  0  0  0
   -6.2370   18.6730  -33.0360 C   0  0  0  0  0  0  0  0  0  0  0  0
   -6.7430   17.5150  -32.4290 C   0  0  0  0  0  0  0  0  0  0  0  0
   -6.0910   16.2910  -32.5790 C   0  0  0  0  0  0  0  0  0  0  0  0
   -4.9410   16.2010  -33.3620 C   0  0  0  0  0  0  0  0  0  0  0  0
   -4.4080   17.3450  -33.9800 C   0  0  0  0  0  0  0  0  0  0  0  0
   -3.2050   17.2120  -34.8370 C   0  0  0  0  0  0  0  0  0  0  0  0
   -3.2840   16.5580  -35.9110 O   0  0  0  0  0  0  0  0  0  0  0  0
   -1.9360   17.7750  -34.4730 N   0  0  0  0  0  0  0  0  0  0  0  0
   -1.7180   18.9600  -33.6930 C   0  0  0  0  0  0  0  0  0  0  0  0
   -1.2490   20.1180  -34.3330 C   0  0  0  0  0  0  0  0  0  0  0  0
   -0.9880   21.2770  -33.5960 C   0  0  0  0  0  0  0  0  0  0  0  0
   -1.2170   21.2970  -32.2170 C   0  0  0  0  0  0  0  0  0  0  0  0
   -1.7150   20.1580  -31.5750 C   0  0  0  0  0  0  0  0  0  0  0  0
   -1.9680   18.9930  -32.3070 C   0  0  0  0  0  0  0  0  0  0  0  0
   -5.0230   18.5950  -33.7570 C   0  0  0  0  0  0  0  0  0  0  0  0
   -4.4060   19.7530  -34.2170 O   0  0  0  0  0  0  0  0  0  0  0  0
   -7.4530   22.0990  -31.8820 C   0  0  0  0  0  0  0  0  0  0  0  0
   -8.8630   22.0520  -32.1950 N   0  0  0  0  0  0  0  0  0  0  0  0
   -9.5130   23.1120  -32.3160 O   0  0  0  0  0  0  0  0  0  0  0  0
   -9.4960   20.8610  -32.4650 O   0  0  0  0  0  0  0  0  0  0  0  0
   -6.9420   23.2140  -31.1920 C   0  0  0  0  0  0  0  0  0  0  0  0
   -1.4185   25.6473  -27.5741 H   0  0  0  0  0  0  0  0  0  0  0  0
   -0.5861   25.2739  -29.1215 H   0  0  0  0  0  0  0  0  0  0  0  0
   -2.3286   25.7102  -29.1215 H   0  0  0  0  0  0  0  0  0  0  0  0
    0.1805   23.0930  -28.4359 H   0  0  0  0  0  0  0  0  0  0  0  0
   -0.3645   20.6809  -28.1066 H   0  0  0  0  0  0  0  0  0  0  0  0
   -2.7380   19.9536  -27.8642 H   0  0  0  0  0  0  0  0  0  0  0  0
   -4.5814   21.6280  -28.0171 H   0  0  0  0  0  0  0  0  0  0  0  0
   -3.6752   22.2711  -30.8532 H   0  0  0  0  0  0  0  0  0  0  0  0
   -4.5474   20.2696  -32.0436 H   0  0  0  0  0  0  0  0  0  0  0  0
   -7.8330   20.0120  -33.5710 H   0  0  0  0  0  0  0  0  0  0  0  0
   -7.6630   17.5722  -31.8287 H   0  0  0  0  0  0  0  0  0  0  0  0
   -6.4852   15.3945  -32.0782 H   0  0  0  0  0  0  0  0  0  0  0  0
   -4.4472   15.2274  -33.4970 H   0  0  0  0  0  0  0  0  0  0  0  0
   -1.0859   20.1135  -35.4208 H   0  0  0  0  0  0  0  0  0  0  0  0
   -0.6020   22.1743  -34.1018 H   0  0  0  0  0  0  0  0  0  0  0  0
   -1.0058   22.2076  -31.6371 H   0  0  0  0  0  0  0  0  0  0  0  0
   -1.9080   20.1786  -30.4923 H   0  0  0  0  0  0  0  0  0  0  0  0
   -2.3630   18.1007  -31.7992 H   0  0  0  0  0  0  0  0  0  0  0  0
   -7.6176   24.0386  -30.9207 H   0  0  0  0  0  0  0  0  0  0  0  0
  1  2  1  0
  2  3  2  0
  3  4  1  0
  4  5  2  0
  5  6  1  0
  6  7  2  0
  7  8  1  0
  8  9  1  0
  9 10  2  0
  9 11  2  0
  9 12  1  0
 12 13  2  0
 13 14  1  0
 14 15  2  0
 15 16  1  0
 16 17  1  0
 17 18  2  0
 18 19  1  0
 19 20  2  0
 20 21  1  0
 21 22  1  0
 22 23  2  0
 22 24  1  0
 24 25  1  0
 25 26  2  0
 26 27  1  0
 27 28  2  0
 28 29  1  0
 29 30  2  0
 21 31  2  0
 31 32  1  0
 15 33  1  0
 33 34  1  0
 34 35  2  0
 34 36  1  0
 33 37  2  0
  7  2  1  0
 37 12  1  0
 31 17  1  0
 30 25  1  0
  1 38  1  0
  1 39  1  0
  1 40  1  0
  3 41  1  0
  4 42  1  0
  5 43  1  0
  6 44  1  0
 13 45  1  0
 14 46  1  0
 16 47  1  0
 18 48  1  0
 19 49  1  0
 20 50  1  0
 26 51  1  0
 27 52  1  0
 28 53  1  0
 29 54  1  0
 30 55  1  0
 37 56  1  0
M  CHG  5   8  -1  24  -1  32  -1  34   1  36  -1
M  END
>  <UniqueID>  (15) 
15

>  <SMILES>  (15) 
Cc1ccccc1[N-]S(=O)(=O)c1ccc(Nc2cccc(C(=O)[N-]c3ccccc3)c2[O-])c([N+](=O)[O-])c1

>  <Energy>  (15) 
89.75394968740865

>  <Genealogy>  (15) 
Cc1ccccc1[N-]S(=O)(=O)c1ccc(Nc2cccc(C(=O)[N-]c3ccccc3)c2[O-])c([N+](=O)[O-])c1 (protonated)
Cc1ccccc1[N-]S(=O)(=O)c1ccc(Nc2cccc(C(=O)[N-]c3ccccc3)c2[O-])c([N+](=O)[O-])c1 (3D coordinates assigned)
Cc1ccccc1[N-]S(=O)(=O)c1ccc(Nc2cccc(C(=O)[N-]c3ccccc3)c2[O-])c([N+](=O)[O-])c1 (optimized conformer: 89.75394968740865 kcal/mol)

>  <smiles>  (15) 
Cc1ccccc1NS(=O)(=O)c1ccc(Nc2cccc(C(=O)Nc3ccccc3)c2O)c([N+](=O)[O-])c1

>  <score_type>  (15) 
oracle

>  <origin>  (15) 
adgpu

>  <m_score__min__energy>  (15) 
-14.48

>  <m_primary>  (15) 
energy

$$$$
15:0
     RDKit          3D

 40 42  0  0  0  0  0  0  0  0999 V2000
   -5.6200   18.6940  -34.2270 C   0  0  0  0  0  0  0  0  0  0  0  0
   -6.9000   18.0540  -33.1030 S   0  0  0  0  0  0  0  0  0  0  0  0
   -7.4880   19.6870  -32.6480 C   0  0  0  0  0  0  0  0  0  0  0  0
   -8.8200   19.8720  -32.2690 C   0  0  0  0  0  0  0  0  0  0  0  0
   -9.2760   21.1440  -31.9160 C   0  0  0  0  0  0  0  0  0  0  0  0
   -8.4030   22.2360  -31.9520 C   0  0  0  0  0  0  0  0  0  0  0  0
   -7.0660   22.0670  -32.3440 C   0  0  0  0  0  0  0  0  0  0  0  0
   -6.1970   23.2130  -32.3870 N   0  0  0  0  0  0  0  0  0  0  0  0
   -5.2980   23.7890  -31.0200 S   0  0  0  0  0  0  0  0  0  0  0  0
   -4.9700   25.2440  -31.2110 O   0  0  0  0  0  0  0  0  0  0  0  0
   -6.1490   23.6520  -29.7890 O   0  0  0  0  0  0  0  0  0  0  0  0
   -3.7860   22.8760  -30.8510 C   0  0  0  0  0  0  0  0  0  0  0  0
   -3.2160   22.2990  -31.9980 C   0  0  0  0  0  0  0  0  0  0  0  0
   -1.9960   21.6060  -31.9280 C   0  0  0  0  0  0  0  0  0  0  0  0
   -1.3760   21.0070  -33.1330 C   0  0  0  0  0  0  0  0  0  0  0  0
   -1.6290   19.7710  -33.6960 C   0  0  0  0  0  0  0  0  0  0  0  0
   -0.8500   19.6210  -34.7850 N   0  0  0  0  0  0  0  0  0  0  0  0
   -0.1530   20.7740  -34.8400 C   0  0  0  0  0  0  0  0  0  0  0  0
   -0.4620   21.5960  -33.8640 O   0  0  0  0  0  0  0  0  0  0  0  0
   -1.3500   21.4890  -30.6900 C   0  0  0  0  0  0  0  0  0  0  0  0
   -1.9090   22.0510  -29.5430 C   0  0  0  0  0  0  0  0  0  0  0  0
   -3.1320   22.7390  -29.6030 C   0  0  0  0  0  0  0  0  0  0  0  0
   -3.6770   23.3570  -28.3430 C   0  0  0  0  0  0  0  0  0  0  0  0
   -6.6120   20.7780  -32.6830 C   0  0  0  0  0  0  0  0  0  0  0  0
   -4.7891   19.1094  -33.6379 H   0  0  0  0  0  0  0  0  0  0  0  0
   -5.2469   17.8764  -34.8613 H   0  0  0  0  0  0  0  0  0  0  0  0
   -6.0502   19.4830  -34.8613 H   0  0  0  0  0  0  0  0  0  0  0  0
   -9.5098   19.0154  -32.2486 H   0  0  0  0  0  0  0  0  0  0  0  0
  -10.3227   21.2871  -31.6094 H   0  0  0  0  0  0  0  0  0  0  0  0
   -8.7671   23.2352  -31.6709 H   0  0  0  0  0  0  0  0  0  0  0  0
   -6.0020   23.6690  -33.3070 H   0  0  0  0  0  0  0  0  0  0  0  0
   -3.7324   22.3911  -32.9649 H   0  0  0  0  0  0  0  0  0  0  0  0
   -2.3487   19.0305  -33.3171 H   0  0  0  0  0  0  0  0  0  0  0  0
    0.5921   21.0008  -35.6167 H   0  0  0  0  0  0  0  0  0  0  0  0
   -0.3939   20.9493  -30.6226 H   0  0  0  0  0  0  0  0  0  0  0  0
   -1.3862   21.9545  -28.5800 H   0  0  0  0  0  0  0  0  0  0  0  0
   -3.2356   22.8565  -27.4685 H   0  0  0  0  0  0  0  0  0  0  0  0
   -3.4232   24.4271  -28.3199 H   0  0  0  0  0  0  0  0  0  0  0  0
   -4.7704   23.2390  -28.3199 H   0  0  0  0  0  0  0  0  0  0  0  0
   -5.5628   20.6276  -32.9770 H   0  0  0  0  0  0  0  0  0  0  0  0
  1  2  1  0
  2  3  1  0
  3  4  2  0
  4  5  1  0
  5  6  2  0
  6  7  1  0
  7  8  1  0
  8  9  1  0
  9 10  2  0
  9 11  2  0
  9 12  1  0
 12 13  2  0
 13 14  1  0
 14 15  1  0
 15 16  2  0
 16 17  1  0
 17 18  2  0
 18 19  1  0
 14 20  2  0
 20 21  1  0
 21 22  2  0
 22 23  1  0
  7 24  2  0
 24  3  1  0
 22 12  1  0
 19 15  1  0
  1 25  1  0
  1 26  1  0
  1 27  1  0
  4 28  1  0
  5 29  1  0
  6 30  1  0
  8 31  1  0
 13 32  1  0
 16 33  1  0
 18 34  1  0
 20 35  1  0
 21 36  1  0
 23 37  1  0
 23 38  1  0
 23 39  1  0
 24 40  1  0
M  END
>  <UniqueID>  (16) 
16

>  <SMILES>  (16) 
CSc1cccc(NS(=O)(=O)c2cc(-c3cnco3)ccc2C)c1

>  <Energy>  (16) 
71.5741226636242

>  <Genealogy>  (16) 
CSc1cccc(NS(=O)(=O)c2cc(-c3cnco3)ccc2C)c1 (3D coordinates assigned)
CSc1cccc(NS(=O)(=O)c2cc(-c3cnco3)ccc2C)c1 (optimized conformer: 71.5741226636242 kcal/mol)

>  <smiles>  (16) 
CSc1cccc(NS(=O)(=O)c2cc(-c3cnco3)ccc2C)c1

>  <score_type>  (16) 
oracle

>  <origin>  (16) 
adgpu

>  <m_score__min__energy>  (16) 
-8.9900000000000002

>  <m_primary>  (16) 
energy

$$$$
16:0
     RDKit          3D

 73 77  0  0  0  0  0  0  0  0999 V2000
   -1.5060   19.2760  -34.5560 O   0  0  0  0  0  0  0  0  0  0  0  0
   -2.6330   19.5770  -34.0790 C   0  0  0  0  0  0  0  0  0  0  0  0
   -3.8090   18.9070  -34.5450 N   0  0  0  0  0  0  0  0  0  0  0  0
   -4.7900   18.2830  -33.7060 C   0  0  0  0  0  0  0  0  0  0  0  0
   -5.9570   19.0000  -33.4110 C   0  0  0  0  0  0  0  0  0  0  0  0
   -6.9370   18.4610  -32.5700 C   0  0  0  0  0  0  0  0  0  0  0  0
   -8.3820   19.4030  -32.1990 S   0  0  0  0  0  0  0  0  0  0  0  0
   -8.8360   20.0760  -33.4640 O   0  0  0  0  0  0  0  0  0  0  0  0
   -9.4750   18.4820  -31.7320 O   0  0  0  0  0  0  0  0  0  0  0  0
   -8.0130   20.6130  -30.9850 N   0  0  0  0  0  0  0  0  0  0  0  0
   -6.7480   21.3300  -31.2650 C   0  0  0  0  0  0  0  0  0  0  0  0
   -6.8850   22.4070  -32.3520 C   0  0  0  0  0  0  0  0  0  0  0  0
   -8.0210   23.3720  -32.0210 C   0  0  0  0  0  0  0  0  0  0  0  0
   -9.3230   22.6050  -31.8040 C   0  0  0  0  0  0  0  0  0  0  0  0
   -9.1480   21.5270  -30.7230 C   0  0  0  0  0  0  0  0  0  0  0  0
   -6.7510   17.1850  -32.0240 C   0  0  0  0  0  0  0  0  0  0  0  0
   -5.6120   16.4420  -32.3440 C   0  0  0  0  0  0  0  0  0  0  0  0
   -4.6310   16.9680  -33.2000 C   0  0  0  0  0  0  0  0  0  0  0  0
   -3.5460   16.1220  -33.6270 N   0  0  0  0  0  0  0  0  0  0  0  0
   -2.2610   16.1340  -32.9250 C   0  0  0  0  0  0  0  0  0  0  0  0
   -1.1400   16.3760  -33.9390 C   0  0  0  0  0  0  0  0  0  0  0  0
   -1.2150   15.4410  -35.0030 O   0  0  0  0  0  0  0  0  0  0  0  0
   -2.4130   15.6320  -35.7330 C   0  0  0  0  0  0  0  0  0  0  0  0
   -3.6340   15.3340  -34.8580 C   0  0  0  0  0  0  0  0  0  0  0  0
   -2.7410   20.6150  -33.0340 C   0  0  0  0  0  0  0  0  0  0  0  0
   -3.7550   21.5860  -33.0930 C   0  0  0  0  0  0  0  0  0  0  0  0
   -3.8450   22.5740  -32.1090 C   0  0  0  0  0  0  0  0  0  0  0  0
   -2.9110   22.6200  -31.0640 C   0  0  0  0  0  0  0  0  0  0  0  0
   -3.0390   23.8670  -29.8170 S   0  0  0  0  0  0  0  0  0  0  0  0
   -3.9510   23.3820  -28.7240 O   0  0  0  0  0  0  0  0  0  0  0  0
   -3.6600   25.0960  -30.4250 O   0  0  0  0  0  0  0  0  0  0  0  0
   -1.4860   24.2760  -29.1270 N   0  0  0  0  0  0  0  0  0  0  0  0
   -1.6110   25.4360  -28.2250 C   0  0  0  0  0  0  0  0  0  0  0  0
   -0.3260   25.6220  -27.3910 C   0  0  0  0  0  0  0  0  0  0  0  0
    0.7480   24.8920  -27.9520 O   0  0  0  0  0  0  0  0  0  0  0  0
    0.4830   23.5000  -27.8660 C   0  0  0  0  0  0  0  0  0  0  0  0
   -0.9150   23.1290  -28.4090 C   0  0  0  0  0  0  0  0  0  0  0  0
   -1.8910   21.6610  -31.0080 C   0  0  0  0  0  0  0  0  0  0  0  0
   -1.8110   20.6600  -31.9800 C   0  0  0  0  0  0  0  0  0  0  0  0
   -6.1048   19.9994  -33.8461 H   0  0  0  0  0  0  0  0  0  0  0  0
   -7.8540   20.0730  -30.1020 H   0  0  0  0  0  0  0  0  0  0  0  0
   -6.4079   21.8126  -30.3369 H   0  0  0  0  0  0  0  0  0  0  0  0
   -6.0276   20.5854  -31.6345 H   0  0  0  0  0  0  0  0  0  0  0  0
   -5.9427   22.9701  -32.4221 H   0  0  0  0  0  0  0  0  0  0  0  0
   -7.1095   21.9142  -33.3095 H   0  0  0  0  0  0  0  0  0  0  0  0
   -7.7701   23.9270  -31.1050 H   0  0  0  0  0  0  0  0  0  0  0  0
   -8.1531   24.0699  -32.8609 H   0  0  0  0  0  0  0  0  0  0  0  0
  -10.1075   23.3084  -31.4881 H   0  0  0  0  0  0  0  0  0  0  0  0
   -9.6050   22.1153  -32.7477 H   0  0  0  0  0  0  0  0  0  0  0  0
   -8.9790   22.0255  -29.7571 H   0  0  0  0  0  0  0  0  0  0  0  0
  -10.0634   20.9170  -30.7203 H   0  0  0  0  0  0  0  0  0  0  0  0
   -7.5044   16.7662  -31.3407 H   0  0  0  0  0  0  0  0  0  0  0  0
   -5.4824   15.4348  -31.9212 H   0  0  0  0  0  0  0  0  0  0  0  0
   -2.2587   16.9379  -32.1742 H   0  0  0  0  0  0  0  0  0  0  0  0
   -2.1041   15.1686  -32.4216 H   0  0  0  0  0  0  0  0  0  0  0  0
   -1.2345   17.3938  -34.3455 H   0  0  0  0  0  0  0  0  0  0  0  0
   -0.1719   16.2560  -33.4308 H   0  0  0  0  0  0  0  0  0  0  0  0
   -2.4626   16.6750  -36.0788 H   0  0  0  0  0  0  0  0  0  0  0  0
   -2.4172   14.9444  -36.5916 H   0  0  0  0  0  0  0  0  0  0  0  0
   -4.5514   15.6025  -35.4023 H   0  0  0  0  0  0  0  0  0  0  0  0
   -3.6596   14.2625  -34.6107 H   0  0  0  0  0  0  0  0  0  0  0  0
   -4.4819   21.5682  -33.9184 H   0  0  0  0  0  0  0  0  0  0  0  0
   -4.6526   23.3195  -32.1543 H   0  0  0  0  0  0  0  0  0  0  0  0
   -1.7864   26.3416  -28.8242 H   0  0  0  0  0  0  0  0  0  0  0  0
   -2.4539   25.2612  -27.5401 H   0  0  0  0  0  0  0  0  0  0  0  0
   -0.0628   26.6898  -27.3677 H   0  0  0  0  0  0  0  0  0  0  0  0
   -0.5104   25.2503  -26.3723 H   0  0  0  0  0  0  0  0  0  0  0  0
    1.2429   22.9596  -28.4495 H   0  0  0  0  0  0  0  0  0  0  0  0
    0.5139   23.2190  -26.8029 H   0  0  0  0  0  0  0  0  0  0  0  0
   -0.8258   22.2747  -29.0962 H   0  0  0  0  0  0  0  0  0  0  0  0
   -1.5729   22.8597  -27.5695 H   0  0  0  0  0  0  0  0  0  0  0  0
   -1.1502   21.6961  -30.1957 H   0  0  0  0  0  0  0  0  0  0  0  0
   -1.0156   19.9025  -31.9203 H   0  0  0  0  0  0  0  0  0  0  0  0
  1  2  2  0
  2  3  1  0
  3  4  1  0
  4  5  2  0
  5  6  1  0
  6  7  1  0
  7  8  2  0
  7  9  2  0
  7 10  1  0
 10 11  1  0
 11 12  1  0
 12 13  1  0
 13 14  1  0
 14 15  1  0
  6 16  2  0
 16 17  1  0
 17 18  2  0
 18 19  1  0
 19 20  1  0
 20 21  1  0
 21 22  1  0
 22 23  1  0
 23 24  1  0
  2 25  1  0
 25 26  2  0
 26 27  1  0
 27 28  2  0
 28 29  1  0
 29 30  2  0
 29 31  2  0
 29 32  1  0
 32 33  1  0
 33 34  1  0
 34 35  1  0
 35 36  1  0
 36 37  1  0
 28 38  1  0
 38 39  2  0
 18  4  1  0
 24 19  1  0
 39 25  1  0
 15 10  1  0
 37 32  1  0
  5 40  1  0
 10 41  1  0
 11 42  1  0
 11 43  1  0
 12 44  1  0
 12 45  1  0
 13 46  1  0
 13 47  1  0
 14 48  1  0
 14 49  1  0
 15 50  1  0
 15 51  1  0
 16 52  1  0
 17 53  1  0
 20 54  1  0
 20 55  1  0
 21 56  1  0
 21 57  1  0
 23 58  1  0
 23 59  1  0
 24 60  1  0
 24 61  1  0
 26 62  1  0
 27 63  1  0
 33 64  1  0
 33 65  1  0
 34 66  1  0
 34 67  1  0
 36 68  1  0
 36 69  1  0
 37 70  1  0
 37 71  1  0
 38 72  1  0
 39 73  1  0
M  CHG  2   3  -1  10   1
M  END
>  <UniqueID>  (17) 
17

>  <SMILES>  (17) 
O=C([N-]c1cc(S(=O)(=O)[NH+]2CCCCC2)ccc1N1CCOCC1)c1ccc(S(=O)(=O)N2CCOCC2)cc1

>  <Energy>  (17) 
95.15343667802117

>  <Genealogy>  (17) 
O=C([N-]c1cc(S(=O)(=O)[NH+]2CCCCC2)ccc1N1CCOCC1)c1ccc(S(=O)(=O)N2CCOCC2)cc1 (protonated)
O=C([N-]c1cc(S(=O)(=O)[NH+]2CCCCC2)ccc1N1CCOCC1)c1ccc(S(=O)(=O)N2CCOCC2)cc1 (3D coordinates assigned)
O=C([N-]c1cc(S(=O)(=O)[NH+]2CCCCC2)ccc1N1CCOCC1)c1ccc(S(=O)(=O)N2CCOCC2)cc1 (nonaromatic ring conformer: 95.15343667802117 kcal/mol)

>  <smiles>  (17) 
O=C(Nc1cc(S(=O)(=O)N2CCCCC2)ccc1N1CCOCC1)c1ccc(S(=O)(=O)N2CCOCC2)cc1

>  <score_type>  (17) 
oracle

>  <origin>  (17) 
adgpu

>  <m_score__min__energy>  (17) 
-12.380000000000001

>  <m_primary>  (17) 
energy

$$$$
17:0
     RDKit          3D

 79 84  0  0  0  0  0  0  0  0999 V2000
    1.3080   16.3399  -36.5546 H   0  0  0  0  0  0  0  0  0  0  0  0
    0.8130   16.7910  -35.6820 C   0  0  0  0  0  0  0  0  0  0  0  0
    0.4460   18.1000  -35.7130 N   0  0  0  0  0  0  0  0  0  0  0  0
   -0.1490   18.6830  -34.6410 C   0  0  0  0  0  0  0  0  0  0  0  0
   -0.5990   19.9000  -34.7520 N   0  0  0  0  0  0  0  0  0  0  0  0
   -1.3060   20.6150  -33.7290 C   0  0  0  0  0  0  0  0  0  0  0  0
   -2.6800   20.8190  -33.8770 C   0  0  0  0  0  0  0  0  0  0  0  0
   -3.1838   20.4911  -34.7982 H   0  0  0  0  0  0  0  0  0  0  0  0
   -3.4200   21.4360  -32.8650 C   0  0  0  0  0  0  0  0  0  0  0  0
   -4.5073   21.5525  -32.9838 H   0  0  0  0  0  0  0  0  0  0  0  0
   -2.7920   21.9140  -31.6880 C   0  0  0  0  0  0  0  0  0  0  0  0
   -3.5710   22.5050  -30.6010 N   0  0  0  0  0  0  0  0  0  0  0  0
   -5.0380   22.3170  -30.5970 C   0  0  0  0  0  0  0  0  0  0  0  0
   -5.4415   22.7462  -31.5260 H   0  0  0  0  0  0  0  0  0  0  0  0
   -5.2134   21.2346  -30.5101 H   0  0  0  0  0  0  0  0  0  0  0  0
   -5.7620   22.9710  -29.4140 C   0  0  0  0  0  0  0  0  0  0  0  0
   -6.8084   23.1521  -29.7008 H   0  0  0  0  0  0  0  0  0  0  0  0
   -5.6823   22.2828  -28.5596 H   0  0  0  0  0  0  0  0  0  0  0  0
   -5.1610   24.2490  -29.0050 N   0  0  0  0  0  0  0  0  0  0  0  0
   -5.2750   25.2910  -30.0420 C   0  0  0  0  0  0  0  0  0  0  0  0
   -5.3827   26.2752  -29.5626 H   0  0  0  0  0  0  0  0  0  0  0  0
   -4.3709   25.2853  -30.6685 H   0  0  0  0  0  0  0  0  0  0  0  0
   -6.1565   25.0899  -30.6685 H   0  0  0  0  0  0  0  0  0  0  0  0
   -3.7770   24.0290  -28.5670 C   0  0  0  0  0  0  0  0  0  0  0  0
   -3.3475   24.9966  -28.2680 H   0  0  0  0  0  0  0  0  0  0  0  0
   -3.8096   23.3138  -27.7319 H   0  0  0  0  0  0  0  0  0  0  0  0
   -2.8840   23.4150  -29.6570 C   0  0  0  0  0  0  0  0  0  0  0  0
   -2.4435   24.2382  -30.2386 H   0  0  0  0  0  0  0  0  0  0  0  0
   -2.1402   22.7999  -29.1293 H   0  0  0  0  0  0  0  0  0  0  0  0
   -1.3860   21.7650  -31.5920 C   0  0  0  0  0  0  0  0  0  0  0  0
   -0.8588   22.1693  -30.7153 H   0  0  0  0  0  0  0  0  0  0  0  0
   -0.6560   21.1130  -32.5920 C   0  0  0  0  0  0  0  0  0  0  0  0
    0.4320   20.9910  -32.4851 H   0  0  0  0  0  0  0  0  0  0  0  0
   -0.3480   17.9590  -33.5060 N   0  0  0  0  0  0  0  0  0  0  0  0
    0.0210   16.6520  -33.4110 C   0  0  0  0  0  0  0  0  0  0  0  0
    0.5630   16.0150  -34.5430 C   0  0  0  0  0  0  0  0  0  0  0  0
    0.7750   14.5300  -34.5610 C   0  0  0  0  0  0  0  0  0  0  0  0
    1.3510   14.2405  -33.6697 H   0  0  0  0  0  0  0  0  0  0  0  0
    1.3195   14.2706  -35.4809 H   0  0  0  0  0  0  0  0  0  0  0  0
   -0.5510   13.7750  -34.5610 C   0  0  0  0  0  0  0  0  0  0  0  0
   -0.3386   12.6962  -34.5938 H   0  0  0  0  0  0  0  0  0  0  0  0
   -1.1183   14.1125  -35.4409 H   0  0  0  0  0  0  0  0  0  0  0  0
   -1.3770   14.0520  -33.3780 N   0  0  0  0  0  0  0  0  0  0  0  0
   -2.7960   14.1580  -33.5660 C   0  0  0  0  0  0  0  0  0  0  0  0
   -3.6120   13.0230  -33.4670 C   0  0  0  0  0  0  0  0  0  0  0  0
   -3.1777   12.0592  -33.1630 H   0  0  0  0  0  0  0  0  0  0  0  0
   -4.9770   13.1140  -33.7540 C   0  0  0  0  0  0  0  0  0  0  0  0
   -5.6111   12.2183  -33.6783 H   0  0  0  0  0  0  0  0  0  0  0  0
   -5.5470   14.3420  -34.1390 C   0  0  0  0  0  0  0  0  0  0  0  0
   -6.9030   14.4580  -34.4960 O   0  0  0  0  0  0  0  0  0  0  0  0
   -7.6180   13.4740  -35.2280 C   0  0  0  0  0  0  0  0  0  0  0  0
   -8.1170   12.7872  -34.5285 H   0  0  0  0  0  0  0  0  0  0  0  0
   -8.3721   13.9641  -35.8614 H   0  0  0  0  0  0  0  0  0  0  0  0
   -6.9189   12.9082  -35.8614 H   0  0  0  0  0  0  0  0  0  0  0  0
   -4.7300   15.4850  -34.1980 C   0  0  0  0  0  0  0  0  0  0  0  0
   -5.2750   16.7480  -34.5920 N   0  0  0  0  0  0  0  0  0  0  0  0
   -5.6210   16.8350  -35.5690 H   0  0  0  0  0  0  0  0  0  0  0  0
   -4.8500   17.9860  -33.9360 C   0  0  0  0  0  0  0  0  0  0  0  0
   -4.1301   17.7421  -33.1409 H   0  0  0  0  0  0  0  0  0  0  0  0
   -4.3873   18.6394  -34.6903 H   0  0  0  0  0  0  0  0  0  0  0  0
   -6.0200   18.7090  -33.3330 C   0  0  0  0  0  0  0  0  0  0  0  0
   -6.9710   18.1020  -32.5910 N   0  0  0  0  0  0  0  0  0  0  0  0
   -7.8880   18.9930  -32.1230 C   0  0  0  0  0  0  0  0  0  0  0  0
   -9.0750   18.5540  -31.3410 C   0  0  0  0  0  0  0  0  0  0  0  0
   -8.8563   18.6349  -30.2660 H   0  0  0  0  0  0  0  0  0  0  0  0
   -9.9348   19.1936  -31.5894 H   0  0  0  0  0  0  0  0  0  0  0  0
   -9.3117   17.5089  -31.5894 H   0  0  0  0  0  0  0  0  0  0  0  0
   -7.6670   20.3160  -32.4890 C   0  0  0  0  0  0  0  0  0  0  0  0
   -8.2967   21.1762  -32.2179 H   0  0  0  0  0  0  0  0  0  0  0  0
   -6.2690   20.3690  -33.4180 S   0  0  0  0  0  0  0  0  0  0  0  0
   -3.3620   15.3870  -33.9180 C   0  0  0  0  0  0  0  0  0  0  0  0
   -2.7275   16.2837  -33.9753 H   0  0  0  0  0  0  0  0  0  0  0  0
   -0.8230   14.6260  -32.1790 C   0  0  0  0  0  0  0  0  0  0  0  0
   -0.8540   13.9460  -31.1200 O   0  0  0  0  0  0  0  0  0  0  0  0
   -0.2050   15.9340  -32.1800 N   0  0  0  0  0  0  0  0  0  0  0  0
    0.4280   16.4460  -30.9600 C   0  0  0  0  0  0  0  0  0  0  0  0
   -0.0845   16.0315  -30.0793 H   0  0  0  0  0  0  0  0  0  0  0  0
    1.4864   16.1469  -30.9428 H   0  0  0  0  0  0  0  0  0  0  0  0
    0.3568   17.5436  -30.9428 H   0  0  0  0  0  0  0  0  0  0  0  0
  1  2  1  0
  2  3  1  0
  3  4  1  0
  4  5  2  0
  5  6  1  0
  6  7  2  0
  7  8  1  0
  7  9  1  0
  9 10  1  0
  9 11  2  0
 11 12  1  0
 12 13  1  0
 13 14  1  0
 13 15  1  0
 13 16  1  0
 16 17  1  0
 16 18  1  0
 16 19  1  0
 19 20  1  0
 20 21  1  0
 20 22  1  0
 20 23  1  0
 19 24  1  0
 24 25  1  0
 24 26  1  0
 24 27  1  0
 27 28  1  0
 27 29  1  0
 11 30  1  0
 30 31  1  0
 30 32  2  0
 32 33  1  0
  4 34  1  0
 34 35  2  0
 35 36  1  0
 36 37  1  0
 37 38  1  0
 37 39  1  0
 37 40  1  0
 40 41  1  0
 40 42  1  0
 40 43  1  0
 43 44  1  0
 44 45  2  0
 45 46  1  0
 45 47  1  0
 47 48  1  0
 47 49  2  0
 49 50  1  0
 50 51  1  0
 51 52  1  0
 51 53  1  0
 51 54  1  0
 49 55  1  0
 55 56  1  0
 56 57  1  0
 56 58  1  0
 58 59  1  0
 58 60  1  0
 58 61  1  0
 61 62  2  0
 62 63  1  0
 63 64  1  0
 64 65  1  0
 64 66  1  0
 64 67  1  0
 63 68  2  0
 68 69  1  0
 68 70  1  0
 55 71  2  0
 71 72  1  0
 43 73  1  0
 73 74  2  0
 73 75  1  0
 75 76  1  0
 76 77  1  0
 76 78  1  0
 76 79  1  0
 36  2  2  0
 71 44  1  0
 32  6  1  0
 75 35  1  0
 27 12  1  0
 70 61  1  0
M  CHG  1   3  -1
M  END
>  <UniqueID>  (18) 
18

>  <SMILES>  (18) 
COc1ccc(N2CCc3c[n-]/c(=N/c4ccc(N5CCN(C)CC5)cc4)nc3N(C)C2=O)cc1NCc1nc(C)cs1

>  <Energy>  (18) 
151.05441046141567

>  <Genealogy>  (18) 
COc1ccc(N2CCc3c[n-]c(=Nc4ccc(N5CCN(C)CC5)cc4)nc3N(C)C2=O)cc1NCc1nc(C)cs1 (protonated)
COc1ccc(N2CCc3c[n-]/c(=N/c4ccc(N5CCN(C)CC5)cc4)nc3N(C)C2=O)cc1NCc1nc(C)cs1 (cis-trans isomerization)
COc1ccc(N2CCc3c[n-]/c(=N/c4ccc(N5CCN(C)CC5)cc4)nc3N(C)C2=O)cc1NCc1nc(C)cs1 (3D coordinates assigned)
COc1ccc(N2CCc3c[n-]/c(=N/c4ccc(N5CCN(C)CC5)cc4)nc3N(C)C2=O)cc1NCc1nc(C)cs1 (nonaromatic ring conformer: 151.05441046141567 kcal/mol)

>  <smiles>  (18) 
COc1ccc(N2CCc3c[nH]c(=Nc4ccc(N5CCN(C)CC5)cc4)nc3N(C)C2=O)cc1NCc1nc(C)cs1

>  <score_type>  (18) 
oracle

>  <origin>  (18) 
adgpu

>  <m_score__min__energy>  (18) 
-8.1999999999999993

>  <m_primary>  (18) 
energy

$$$$
18:0
     RDKit          3D

 23 24  0  0  0  0  0  0  0  0999 V2000
   -2.3950   23.4980  -31.2240 H   0  0  0  0  0  0  0  0  0  0  0  0
   -2.9220   22.6870  -31.6080 N   0  0  0  0  0  0  0  0  0  0  0  0
   -4.1950   22.5020  -31.4570 C   0  0  0  0  0  0  0  0  0  0  0  0
   -4.8230   21.4150  -31.9440 N   0  0  0  0  0  0  0  0  0  0  0  0
   -6.0940   21.6140  -31.5260 C   0  0  0  0  0  0  0  0  0  0  0  0
   -7.2070   20.6820  -31.8050 C   0  0  0  0  0  0  0  0  0  0  0  0
   -6.9830   19.2940  -31.8450 C   0  0  0  0  0  0  0  0  0  0  0  0
   -5.9721   18.8983  -31.6674 H   0  0  0  0  0  0  0  0  0  0  0  0
   -8.0370   18.4140  -32.1090 C   0  0  0  0  0  0  0  0  0  0  0  0
   -7.8534   17.3298  -32.1372 H   0  0  0  0  0  0  0  0  0  0  0  0
   -9.3230   18.9100  -32.3370 C   0  0  0  0  0  0  0  0  0  0  0  0
  -10.1508   18.2163  -32.5458 H   0  0  0  0  0  0  0  0  0  0  0  0
   -9.5580   20.2860  -32.3000 C   0  0  0  0  0  0  0  0  0  0  0  0
  -10.5713   20.6749  -32.4787 H   0  0  0  0  0  0  0  0  0  0  0  0
   -8.5070   21.1710  -32.0360 C   0  0  0  0  0  0  0  0  0  0  0  0
   -8.6972   22.2541  -32.0088 H   0  0  0  0  0  0  0  0  0  0  0  0
   -6.2330   22.7570  -30.8220 N   0  0  0  0  0  0  0  0  0  0  0  0
   -5.0380   23.3190  -30.7820 N   0  0  0  0  0  0  0  0  0  0  0  0
   -4.7900   24.5790  -30.1320 C   0  0  0  0  0  0  0  0  0  0  0  0
   -3.8140   25.3000  -30.4690 O   0  0  0  0  0  0  0  0  0  0  0  0
   -5.6740   25.0460  -29.1110 N   0  0  0  0  0  0  0  0  0  0  0  0
   -5.5060   25.9690  -28.6520 H   0  0  0  0  0  0  0  0  0  0  0  0
   -6.4890   24.4730  -28.8000 H   0  0  0  0  0  0  0  0  0  0  0  0
  1  2  1  0
  2  3  2  0
  3  4  1  0
  4  5  1  0
  5  6  1  0
  6  7  2  0
  7  8  1  0
  7  9  1  0
  9 10  1  0
  9 11  2  0
 11 12  1  0
 11 13  1  0
 13 14  1  0
 13 15  2  0
 15 16  1  0
  5 17  2  0
 17 18  1  0
 18 19  1  0
 19 20  2  0
 19 21  1  0
 21 22  1  0
 21 23  1  0
 18  3  1  0
 15  6  1  0
M  CHG  1   4  -1
M  END
>  <UniqueID>  (19) 
19

>  <SMILES>  (19) 
[H]/N=c1/[n-]c(-c2ccccc2)nn1C(N)=O

>  <Energy>  (19) 
59.96824803610882

>  <Genealogy>  (19) 
N=c1[n-]c(-c2ccccc2)nn1C(N)=O (protonated)
[H]/N=c1/[n-]c(-c2ccccc2)nn1C(N)=O (cis-trans isomerization)
[H]/N=c1/[n-]c(-c2ccccc2)nn1C(N)=O (3D coordinates assigned)
[H]/N=c1/[n-]c(-c2ccccc2)nn1C(N)=O (optimized conformer: 59.96824803610882 kcal/mol)

>  <smiles>  (19) 
N=c1[nH]c(-c2ccccc2)nn1C(N)=O

>  <score_type>  (19) 
oracle

>  <origin>  (19) 
adgpu

>  <m_score__min__energy>  (19) 
-7.2000000000000002

>  <m_primary>  (19) 
energy

$$$$
19:0
     RDKit          3D

 45 47  0  0  0  0  0  0  0  0999 V2000
   -6.4690   25.1060  -29.8100 C   0  0  0  0  0  0  0  0  0  0  0  0
   -5.0800   24.5160  -30.0410 C   0  0  0  0  0  0  0  0  0  0  0  0
   -5.1300   23.4100  -31.0070 N   0  0  0  0  0  0  0  0  0  0  0  0
   -6.2730   23.2570  -31.8790 C   0  0  0  0  0  0  0  0  0  0  0  0
   -6.5190   24.1390  -32.7460 O   0  0  0  0  0  0  0  0  0  0  0  0
   -7.1960   22.1070  -31.7510 C   0  0  0  0  0  0  0  0  0  0  0  0
   -8.5610   22.2970  -31.4910 C   0  0  0  0  0  0  0  0  0  0  0  0
   -9.3990   21.2300  -31.4000 N   0  0  0  0  0  0  0  0  0  0  0  0
   -8.9500   19.9560  -31.5520 C   0  0  0  0  0  0  0  0  0  0  0  0
   -7.5970   19.7150  -31.7990 C   0  0  0  0  0  0  0  0  0  0  0  0
   -7.0130   18.0750  -32.0070 Cl  0  0  0  0  0  0  0  0  0  0  0  0
   -6.7170   20.7960  -31.8900 C   0  0  0  0  0  0  0  0  0  0  0  0
   -4.1330   22.3670  -30.9290 C   0  0  0  0  0  0  0  0  0  0  0  0
   -3.5120   21.8600  -32.0920 C   0  0  0  0  0  0  0  0  0  0  0  0
   -3.9900   22.2910  -33.3780 N   0  0  0  0  0  0  0  0  0  0  0  0
   -2.4770   20.9540  -31.9770 N   0  0  0  0  0  0  0  0  0  0  0  0
   -1.7740   20.4170  -33.1620 C   0  0  0  0  0  0  0  0  0  0  0  0
   -2.5160   19.2370  -33.7440 C   0  0  0  0  0  0  0  0  0  0  0  0
   -1.8220   18.1100  -34.2200 C   0  0  0  0  0  0  0  0  0  0  0  0
   -2.5180   17.0290  -34.7710 C   0  0  0  0  0  0  0  0  0  0  0  0
   -3.9120   17.0650  -34.8560 C   0  0  0  0  0  0  0  0  0  0  0  0
   -4.6120   18.1810  -34.3940 C   0  0  0  0  0  0  0  0  0  0  0  0
   -3.9190   19.2640  -33.8430 C   0  0  0  0  0  0  0  0  0  0  0  0
   -2.0730   20.5400  -30.7310 C   0  0  0  0  0  0  0  0  0  0  0  0
   -1.1200   19.7240  -30.5980 O   0  0  0  0  0  0  0  0  0  0  0  0
   -2.6930   21.0010  -29.6170 N   0  0  0  0  0  0  0  0  0  0  0  0
   -3.7050   21.8930  -29.6860 C   0  0  0  0  0  0  0  0  0  0  0  0
   -4.2330   22.3100  -28.6220 O   0  0  0  0  0  0  0  0  0  0  0  0
   -6.6582   25.1864  -28.7294 H   0  0  0  0  0  0  0  0  0  0  0  0
   -6.5237   26.1050  -30.2671 H   0  0  0  0  0  0  0  0  0  0  0  0
   -7.2260   24.4517  -30.2671 H   0  0  0  0  0  0  0  0  0  0  0  0
   -4.4155   25.3022  -30.4288 H   0  0  0  0  0  0  0  0  0  0  0  0
   -4.7013   24.1277  -29.0840 H   0  0  0  0  0  0  0  0  0  0  0  0
   -8.9561   23.3152  -31.3599 H   0  0  0  0  0  0  0  0  0  0  0  0
   -9.6537   19.1136  -31.4803 H   0  0  0  0  0  0  0  0  0  0  0  0
   -5.6465   20.6188  -32.0710 H   0  0  0  0  0  0  0  0  0  0  0  0
   -3.4920   22.0670  -34.2660 H   0  0  0  0  0  0  0  0  0  0  0  0
   -4.8150   22.9280  -33.4550 H   0  0  0  0  0  0  0  0  0  0  0  0
   -1.6996   21.2065  -33.9243 H   0  0  0  0  0  0  0  0  0  0  0  0
   -0.7724   20.0831  -32.8534 H   0  0  0  0  0  0  0  0  0  0  0  0
   -0.7242   18.0785  -34.1585 H   0  0  0  0  0  0  0  0  0  0  0  0
   -1.9674   16.1501  -35.1376 H   0  0  0  0  0  0  0  0  0  0  0  0
   -4.4585   16.2133  -35.2873 H   0  0  0  0  0  0  0  0  0  0  0  0
   -5.7095   18.2087  -34.4633 H   0  0  0  0  0  0  0  0  0  0  0  0
   -4.4750   20.1429  -33.4846 H   0  0  0  0  0  0  0  0  0  0  0  0
  1  2  1  0
  2  3  1  0
  3  4  1  0
  4  5  2  0
  4  6  1  0
  6  7  2  0
  7  8  1  0
  8  9  2  0
  9 10  1  0
 10 11  1  0
 10 12  2  0
  3 13  1  0
 13 14  2  0
 14 15  1  0
 14 16  1  0
 16 17  1  0
 17 18  1  0
 18 19  2  0
 19 20  1  0
 20 21  2  0
 21 22  1  0
 22 23  2  0
 16 24  1  0
 24 25  2  0
 24 26  1  0
 26 27  1  0
 27 28  2  0
 12  6  1  0
 27 13  1  0
 23 18  1  0
  1 29  1  0
  1 30  1  0
  1 31  1  0
  2 32  1  0
  2 33  1  0
  7 34  1  0
  9 35  1  0
 12 36  1  0
 15 37  1  0
 15 38  1  0
 17 39  1  0
 17 40  1  0
 19 41  1  0
 20 42  1  0
 21 43  1  0
 22 44  1  0
 23 45  1  0
M  CHG  1  26  -1
M  END
>  <UniqueID>  (20) 
20

>  <SMILES>  (20) 
CCN(C(=O)c1cncc(Cl)c1)c1c(N)n(Cc2ccccc2)c(=O)[n-]c1=O

>  <Energy>  (20) 
61.93563853307272

>  <Genealogy>  (20) 
CCN(C(=O)c1cncc(Cl)c1)c1c(N)n(Cc2ccccc2)c(=O)[n-]c1=O (protonated)
CCN(C(=O)c1cncc(Cl)c1)c1c(N)n(Cc2ccccc2)c(=O)[n-]c1=O (3D coordinates assigned)
CCN(C(=O)c1cncc(Cl)c1)c1c(N)n(Cc2ccccc2)c(=O)[n-]c1=O (optimized conformer: 61.93563853307272 kcal/mol)

>  <smiles>  (20) 
CCN(C(=O)c1cncc(Cl)c1)c1c(N)n(Cc2ccccc2)c(=O)[nH]c1=O

>  <score_type>  (20) 
oracle

>  <origin>  (20) 
adgpu

>  <m_score__min__energy>  (20) 
-9.6999999999999993

>  <m_primary>  (20) 
energy

$$$$
20:0
     RDKit          3D

 53 56  0  0  0  0  0  0  0  0999 V2000
   -2.3790   25.1920  -26.7370 C   0  0  0  0  0  0  0  0  0  0  0  0
   -1.4360   25.0630  -27.9280 C   0  0  0  0  0  0  0  0  0  0  0  0
   -2.1360   25.2830  -29.1530 O   0  0  0  0  0  0  0  0  0  0  0  0
   -3.1080   24.4310  -29.7050 C   0  0  0  0  0  0  0  0  0  0  0  0
   -2.8130   23.1320  -30.1620 C   0  0  0  0  0  0  0  0  0  0  0  0
   -3.8220   22.3280  -30.7010 C   0  0  0  0  0  0  0  0  0  0  0  0
   -5.1410   22.8030  -30.7900 C   0  0  0  0  0  0  0  0  0  0  0  0
   -6.2080   21.9520  -31.3590 C   0  0  0  0  0  0  0  0  0  0  0  0
   -7.5240   22.2370  -31.2750 N   0  0  0  0  0  0  0  0  0  0  0  0
   -8.1200   21.2610  -31.8880 O   0  0  0  0  0  0  0  0  0  0  0  0
   -7.2270   20.4110  -32.3330 C   0  0  0  0  0  0  0  0  0  0  0  0
   -7.5630   19.1560  -33.0910 C   0  0  0  0  0  0  0  0  0  0  0  0
   -7.8100   17.9760  -32.1210 C   0  0  0  0  0  0  0  0  0  0  0  0
   -6.5550   17.1230  -31.8910 C   0  0  0  0  0  0  0  0  0  0  0  0
   -5.9790   16.6660  -33.1650 N   0  0  0  0  0  0  0  0  0  0  0  0
   -5.1420   15.4920  -33.2110 C   0  0  0  0  0  0  0  0  0  0  0  0
   -5.0590   14.8330  -34.2860 O   0  0  0  0  0  0  0  0  0  0  0  0
   -4.4230   15.0510  -32.0430 N   0  0  0  0  0  0  0  0  0  0  0  0
   -3.5160   13.9350  -32.0330 C   0  0  0  0  0  0  0  0  0  0  0  0
   -4.0320   12.6300  -31.9970 C   0  0  0  0  0  0  0  0  0  0  0  0
   -3.1700   11.5290  -31.9680 C   0  0  0  0  0  0  0  0  0  0  0  0
   -1.7860   11.7220  -31.9610 C   0  0  0  0  0  0  0  0  0  0  0  0
   -1.2610   13.0170  -31.9710 C   0  0  0  0  0  0  0  0  0  0  0  0
    0.4770   13.2580  -31.9390 Cl  0  0  0  0  0  0  0  0  0  0  0  0
   -2.1200   14.1220  -31.9980 C   0  0  0  0  0  0  0  0  0  0  0  0
   -6.3250   17.3590  -34.4150 C   0  0  0  0  0  0  0  0  0  0  0  0
   -6.4770   18.8600  -34.1540 C   0  0  0  0  0  0  0  0  0  0  0  0
   -5.9750   20.7990  -32.0240 N   0  0  0  0  0  0  0  0  0  0  0  0
   -5.4330   24.0970  -30.3280 C   0  0  0  0  0  0  0  0  0  0  0  0
   -4.4230   24.9000  -29.7900 C   0  0  0  0  0  0  0  0  0  0  0  0
   -1.8031   25.1132  -25.8031 H   0  0  0  0  0  0  0  0  0  0  0  0
   -2.8854   26.1678  -26.7743 H   0  0  0  0  0  0  0  0  0  0  0  0
   -3.1289   24.3881  -26.7743 H   0  0  0  0  0  0  0  0  0  0  0  0
   -0.6313   25.8070  -27.8335 H   0  0  0  0  0  0  0  0  0  0  0  0
   -1.0168   24.0461  -27.9383 H   0  0  0  0  0  0  0  0  0  0  0  0
   -1.7843   22.7482  -30.0946 H   0  0  0  0  0  0  0  0  0  0  0  0
   -3.5811   21.3158  -31.0581 H   0  0  0  0  0  0  0  0  0  0  0  0
   -8.5058   19.3031  -33.6383 H   0  0  0  0  0  0  0  0  0  0  0  0
   -8.1426   18.3800  -31.1535 H   0  0  0  0  0  0  0  0  0  0  0  0
   -8.5729   17.3271  -32.5760 H   0  0  0  0  0  0  0  0  0  0  0  0
   -5.8063   17.7243  -31.3544 H   0  0  0  0  0  0  0  0  0  0  0  0
   -6.8391   16.2390  -31.3013 H   0  0  0  0  0  0  0  0  0  0  0  0
   -4.6220   15.5090  -31.1250 H   0  0  0  0  0  0  0  0  0  0  0  0
   -5.1206   12.4724  -31.9916 H   0  0  0  0  0  0  0  0  0  0  0  0
   -3.5822   10.5093  -31.9507 H   0  0  0  0  0  0  0  0  0  0  0  0
   -1.1098   10.8545  -31.9476 H   0  0  0  0  0  0  0  0  0  0  0  0
   -1.7035   15.1401  -31.9919 H   0  0  0  0  0  0  0  0  0  0  0  0
   -5.5275   17.1964  -35.1549 H   0  0  0  0  0  0  0  0  0  0  0  0
   -7.2755   16.9602  -34.7990 H   0  0  0  0  0  0  0  0  0  0  0  0
   -5.5149   19.2582  -33.7994 H   0  0  0  0  0  0  0  0  0  0  0  0
   -6.7829   19.3396  -35.0955 H   0  0  0  0  0  0  0  0  0  0  0  0
   -6.4621   24.4806  -30.3899 H   0  0  0  0  0  0  0  0  0  0  0  0
   -4.6649   25.9109  -29.4299 H   0  0  0  0  0  0  0  0  0  0  0  0
  1  2  1  0
  2  3  1  0
  3  4  1  0
  4  5  2  0
  5  6  1  0
  6  7  2  0
  7  8  1  0
  8  9  2  0
  9 10  1  0
 10 11  1  0
 11 12  1  0
 12 13  1  0
 13 14  1  0
 14 15  1  0
 15 16  1  0
 16 17  2  0
 16 18  1  0
 18 19  1  0
 19 20  2  0
 20 21  1  0
 21 22  2  0
 22 23  1  0
 23 24  1  0
 23 25  2  0
 15 26  1  0
 26 27  1  0
 11 28  2  0
  7 29  1  0
 29 30  2  0
 30  4  1  0
 28  8  1  0
 27 12  1  0
 25 19  1  0
  1 31  1  0
  1 32  1  0
  1 33  1  0
  2 34  1  0
  2 35  1  0
  5 36  1  0
  6 37  1  0
 12 38  1  0
 13 39  1  0
 13 40  1  0
 14 41  1  0
 14 42  1  0
 18 43  1  0
 20 44  1  0
 21 45  1  0
 22 46  1  0
 25 47  1  0
 26 48  1  0
 26 49  1  0
 27 50  1  0
 27 51  1  0
 29 52  1  0
 30 53  1  0
M  END
>  <UniqueID>  (21) 
21

>  <SMILES>  (21) 
CCOc1ccc(-c2noc(C3CCN(C(=O)Nc4cccc(Cl)c4)CC3)n2)cc1

>  <Energy>  (21) 
93.60907419839397

>  <Genealogy>  (21) 
CCOc1ccc(-c2noc(C3CCN(C(=O)Nc4cccc(Cl)c4)CC3)n2)cc1 (3D coordinates assigned)
CCOc1ccc(-c2noc(C3CCN(C(=O)Nc4cccc(Cl)c4)CC3)n2)cc1 (nonaromatic ring conformer: 93.60907419839397 kcal/mol)

>  <smiles>  (21) 
CCOc1ccc(-c2noc(C3CCN(C(=O)Nc4cccc(Cl)c4)CC3)n2)cc1

>  <score_type>  (21) 
oracle

>  <origin>  (21) 
adgpu

>  <m_score__min__energy>  (21) 
-8.9100000000000001

>  <m_primary>  (21) 
energy

$$$$
21:0
     RDKit          3D

 48 50  0  0  0  0  0  0  0  0999 V2000
    0.8110   18.3560  -28.2130 C   0  0  0  0  0  0  0  0  0  0  0  0
   -0.5080   18.8800  -28.3230 O   0  0  0  0  0  0  0  0  0  0  0  0
   -0.8150   20.2460  -28.4310 C   0  0  0  0  0  0  0  0  0  0  0  0
   -0.3790   21.0270  -29.5190 C   0  0  0  0  0  0  0  0  0  0  0  0
   -0.7230   22.3790  -29.6010 C   0  0  0  0  0  0  0  0  0  0  0  0
   -1.4990   22.9710  -28.5990 C   0  0  0  0  0  0  0  0  0  0  0  0
   -2.0470   24.6420  -28.7530 S   0  0  0  0  0  0  0  0  0  0  0  0
   -0.8740   25.5600  -28.9550 O   0  0  0  0  0  0  0  0  0  0  0  0
   -2.7680   25.0370  -27.4940 O   0  0  0  0  0  0  0  0  0  0  0  0
   -3.1270   24.7780  -30.1030 N   0  0  0  0  0  0  0  0  0  0  0  0
   -4.2740   23.9340  -30.2090 C   0  0  0  0  0  0  0  0  0  0  0  0
   -5.5890   24.3530  -30.3510 C   0  0  0  0  0  0  0  0  0  0  0  0
   -6.1100   25.7310  -30.0750 C   0  0  0  0  0  0  0  0  0  0  0  0
   -6.3090   23.3480  -30.9080 N   0  0  0  0  0  0  0  0  0  0  0  0
   -7.7240   23.4190  -31.2770 C   0  0  0  0  0  0  0  0  0  0  0  0
   -5.4940   22.3230  -31.1520 N   0  0  0  0  0  0  0  0  0  0  0  0
   -5.8070   21.1670  -31.9470 C   0  0  0  0  0  0  0  0  0  0  0  0
   -4.9910   20.8140  -33.0340 C   0  0  0  0  0  0  0  0  0  0  0  0
   -5.3270   19.7220  -33.8410 C   0  0  0  0  0  0  0  0  0  0  0  0
   -6.4860   18.9850  -33.5770 C   0  0  0  0  0  0  0  0  0  0  0  0
   -7.3090   19.3420  -32.5050 C   0  0  0  0  0  0  0  0  0  0  0  0
   -6.9750   20.4300  -31.6960 C   0  0  0  0  0  0  0  0  0  0  0  0
   -4.2590   22.6610  -30.7320 C   0  0  0  0  0  0  0  0  0  0  0  0
   -3.2290   21.9540  -30.9020 O   0  0  0  0  0  0  0  0  0  0  0  0
   -1.9160   22.2030  -27.5030 C   0  0  0  0  0  0  0  0  0  0  0  0
   -1.5920   20.8350  -27.4210 C   0  0  0  0  0  0  0  0  0  0  0  0
   -2.0380   20.0250  -26.3650 O   0  0  0  0  0  0  0  0  0  0  0  0
   -3.0100   18.9940  -26.4940 C   0  0  0  0  0  0  0  0  0  0  0  0
    1.0763   18.2506  -27.1507 H   0  0  0  0  0  0  0  0  0  0  0  0
    0.8564   17.3715  -28.7017 H   0  0  0  0  0  0  0  0  0  0  0  0
    1.5196   19.0409  -28.7017 H   0  0  0  0  0  0  0  0  0  0  0  0
    0.2357   20.5702  -30.3086 H   0  0  0  0  0  0  0  0  0  0  0  0
   -0.3822   22.9800  -30.4569 H   0  0  0  0  0  0  0  0  0  0  0  0
   -6.1699   25.8895  -28.9881 H   0  0  0  0  0  0  0  0  0  0  0  0
   -5.4311   26.4751  -30.5172 H   0  0  0  0  0  0  0  0  0  0  0  0
   -7.1113   25.8398  -30.5172 H   0  0  0  0  0  0  0  0  0  0  0  0
   -8.3394   23.4499  -30.3658 H   0  0  0  0  0  0  0  0  0  0  0  0
   -7.9028   24.3272  -31.8712 H   0  0  0  0  0  0  0  0  0  0  0  0
   -7.9929   22.5332  -31.8712 H   0  0  0  0  0  0  0  0  0  0  0  0
   -4.0847   21.3981  -33.2515 H   0  0  0  0  0  0  0  0  0  0  0  0
   -4.6787   19.4425  -34.6845 H   0  0  0  0  0  0  0  0  0  0  0  0
   -6.7494   18.1261  -34.2117 H   0  0  0  0  0  0  0  0  0  0  0  0
   -8.2220   18.7644  -32.2982 H   0  0  0  0  0  0  0  0  0  0  0  0
   -7.6301   20.7108  -30.8582 H   0  0  0  0  0  0  0  0  0  0  0  0
   -2.5018   22.6733  -26.6995 H   0  0  0  0  0  0  0  0  0  0  0  0
   -3.3250   18.6599  -25.4944 H   0  0  0  0  0  0  0  0  0  0  0  0
   -3.8817   19.3786  -27.0437 H   0  0  0  0  0  0  0  0  0  0  0  0
   -2.5747   18.1464  -27.0437 H   0  0  0  0  0  0  0  0  0  0  0  0
  1  2  1  0
  2  3  1  0
  3  4  2  0
  4  5  1  0
  5  6  2  0
  6  7  1  0
  7  8  2  0
  7  9  2  0
  7 10  1  0
 10 11  1  0
 11 12  2  0
 12 13  1  0
 12 14  1  0
 14 15  1  0
 14 16  1  0
 16 17  1  0
 17 18  2  0
 18 19  1  0
 19 20  2  0
 20 21  1  0
 21 22  2  0
 16 23  1  0
 23 24  2  0
  6 25  1  0
 25 26  2  0
 26 27  1  0
 27 28  1  0
 26  3  1  0
 23 11  1  0
 22 17  1  0
  1 29  1  0
  1 30  1  0
  1 31  1  0
  4 32  1  0
  5 33  1  0
 13 34  1  0
 13 35  1  0
 13 36  1  0
 15 37  1  0
 15 38  1  0
 15 39  1  0
 18 40  1  0
 19 41  1  0
 20 42  1  0
 21 43  1  0
 22 44  1  0
 25 45  1  0
 28 46  1  0
 28 47  1  0
 28 48  1  0
M  CHG  1  10  -1
M  END
>  <UniqueID>  (22) 
22

>  <SMILES>  (22) 
COc1ccc(S(=O)(=O)[N-]c2c(C)n(C)n(-c3ccccc3)c2=O)cc1OC

>  <Energy>  (22) 
95.47856172052342

>  <Genealogy>  (22) 
COc1ccc(S(=O)(=O)[N-]c2c(C)n(C)n(-c3ccccc3)c2=O)cc1OC (protonated)
COc1ccc(S(=O)(=O)[N-]c2c(C)n(C)n(-c3ccccc3)c2=O)cc1OC (3D coordinates assigned)
COc1ccc(S(=O)(=O)[N-]c2c(C)n(C)n(-c3ccccc3)c2=O)cc1OC (optimized conformer: 95.47856172052342 kcal/mol)

>  <smiles>  (22) 
COc1ccc(S(=O)(=O)Nc2c(C)n(C)n(-c3ccccc3)c2=O)cc1OC

>  <score_type>  (22) 
oracle

>  <origin>  (22) 
adgpu

>  <m_score__min__energy>  (22) 
-9.5899999999999999

>  <m_primary>  (22) 
energy

$$$$
22:0
     RDKit          3D

 54 57  0  0  0  0  0  0  0  0999 V2000
   -1.5130   25.8580  -28.9430 O   0  0  0  0  0  0  0  0  0  0  0  0
   -1.4740   25.2350  -27.8480 C   0  0  0  0  0  0  0  0  0  0  0  0
   -2.0560   23.9240  -27.7460 N   0  0  0  0  0  0  0  0  0  0  0  0
   -2.9870   23.3830  -28.7000 C   0  0  0  0  0  0  0  0  0  0  0  0
   -2.9490   22.0170  -28.9950 C   0  0  0  0  0  0  0  0  0  0  0  0
   -3.8630   21.4610  -29.8880 C   0  0  0  0  0  0  0  0  0  0  0  0
   -4.8530   22.2540  -30.4840 C   0  0  0  0  0  0  0  0  0  0  0  0
   -5.8190   21.6030  -31.3980 C   0  0  0  0  0  0  0  0  0  0  0  0
   -7.1240   21.3850  -30.9300 C   0  0  0  0  0  0  0  0  0  0  0  0
   -8.0540   20.7040  -31.7160 C   0  0  0  0  0  0  0  0  0  0  0  0
   -7.6870   20.2210  -32.9700 C   0  0  0  0  0  0  0  0  0  0  0  0
   -6.3980   20.4460  -33.4590 C   0  0  0  0  0  0  0  0  0  0  0  0
   -5.4590   21.1750  -32.7060 C   0  0  0  0  0  0  0  0  0  0  0  0
   -4.0860   21.4630  -33.3060 C   0  0  0  0  0  0  0  0  0  0  0  0
   -2.9560   20.7370  -32.6780 N   0  0  0  0  0  0  0  0  0  0  0  0
   -2.5710   19.4770  -33.3230 C   0  0  0  0  0  0  0  0  0  0  0  0
   -1.0680   19.3000  -33.1110 C   0  0  0  0  0  0  0  0  0  0  0  0
   -0.6390   20.4740  -32.2490 C   0  0  0  0  0  0  0  0  0  0  0  0
   -1.7290   21.5030  -32.4520 C   0  0  0  0  0  0  0  0  0  0  0  0
   -4.8840   23.6500  -30.2300 C   0  0  0  0  0  0  0  0  0  0  0  0
   -5.8870   24.5620  -30.9140 C   0  0  0  0  0  0  0  0  0  0  0  0
   -6.0500   24.2290  -32.2480 F   0  0  0  0  0  0  0  0  0  0  0  0
   -5.4570   25.8720  -30.8440 F   0  0  0  0  0  0  0  0  0  0  0  0
   -7.1230   24.4570  -30.3020 F   0  0  0  0  0  0  0  0  0  0  0  0
   -3.9660   24.1900  -29.3050 C   0  0  0  0  0  0  0  0  0  0  0  0
   -0.8240   25.8530  -26.6670 C   0  0  0  0  0  0  0  0  0  0  0  0
   -1.6000   26.6530  -25.8090 C   0  0  0  0  0  0  0  0  0  0  0  0
   -1.0210   27.2710  -24.6970 C   0  0  0  0  0  0  0  0  0  0  0  0
    0.3360   27.0980  -24.4270 C   0  0  0  0  0  0  0  0  0  0  0  0
    1.1190   26.3030  -25.2660 C   0  0  0  0  0  0  0  0  0  0  0  0
    0.5530   25.6780  -26.3850 C   0  0  0  0  0  0  0  0  0  0  0  0
    1.6950   24.5440  -27.4310 Br  0  0  0  0  0  0  0  0  0  0  0  0
   -1.7080   23.2940  -26.9890 H   0  0  0  0  0  0  0  0  0  0  0  0
   -2.1921   21.3764  -28.5188 H   0  0  0  0  0  0  0  0  0  0  0  0
   -3.8069   20.3889  -30.1275 H   0  0  0  0  0  0  0  0  0  0  0  0
   -7.4159   21.7539  -29.9357 H   0  0  0  0  0  0  0  0  0  0  0  0
   -9.0779   20.5484  -31.3452 H   0  0  0  0  0  0  0  0  0  0  0  0
   -8.4140   19.6611  -33.5766 H   0  0  0  0  0  0  0  0  0  0  0  0
   -6.1136   20.0486  -34.4445 H   0  0  0  0  0  0  0  0  0  0  0  0
   -4.1161   21.1892  -34.3710 H   0  0  0  0  0  0  0  0  0  0  0  0
   -3.8956   22.5322  -33.1315 H   0  0  0  0  0  0  0  0  0  0  0  0
   -3.1171   18.6381  -32.8668 H   0  0  0  0  0  0  0  0  0  0  0  0
   -2.8136   19.4980  -34.3957 H   0  0  0  0  0  0  0  0  0  0  0  0
   -0.8615   18.3498  -32.5968 H   0  0  0  0  0  0  0  0  0  0  0  0
   -0.5216   19.2732  -34.0653 H   0  0  0  0  0  0  0  0  0  0  0  0
   -0.5742   20.1781  -31.1915 H   0  0  0  0  0  0  0  0  0  0  0  0
    0.3559   20.8554  -32.5223 H   0  0  0  0  0  0  0  0  0  0  0  0
   -1.8307   22.1361  -31.5582 H   0  0  0  0  0  0  0  0  0  0  0  0
   -1.5053   22.1719  -33.2961 H   0  0  0  0  0  0  0  0  0  0  0  0
   -4.0171   25.2596  -29.0532 H   0  0  0  0  0  0  0  0  0  0  0  0
   -2.6714   26.7935  -26.0148 H   0  0  0  0  0  0  0  0  0  0  0  0
   -1.6373   27.8953  -24.0333 H   0  0  0  0  0  0  0  0  0  0  0  0
    0.7896   27.5880  -23.5528 H   0  0  0  0  0  0  0  0  0  0  0  0
    2.1883   26.1663  -25.0469 H   0  0  0  0  0  0  0  0  0  0  0  0
  1  2  2  0
  2  3  1  0
  3  4  1  0
  4  5  2  0
  5  6  1  0
  6  7  2  0
  7  8  1  0
  8  9  2  0
  9 10  1  0
 10 11  2  0
 11 12  1  0
 12 13  2  0
 13 14  1  0
 14 15  1  0
 15 16  1  0
 16 17  1  0
 17 18  1  0
 18 19  1  0
  7 20  1  0
 20 21  1  0
 21 22  1  0
 21 23  1  0
 21 24  1  0
 20 25  2  0
  2 26  1  0
 26 27  2  0
 27 28  1  0
 28 29  2  0
 29 30  1  0
 30 31  2  0
 31 32  1  0
 25  4  1  0
 31 26  1  0
 13  8  1  0
 19 15  1  0
  3 33  1  0
  5 34  1  0
  6 35  1  0
  9 36  1  0
 10 37  1  0
 11 38  1  0
 12 39  1  0
 14 40  1  0
 14 41  1  0
 16 42  1  0
 16 43  1  0
 17 44  1  0
 17 45  1  0
 18 46  1  0
 18 47  1  0
 19 48  1  0
 19 49  1  0
 25 50  1  0
 27 51  1  0
 28 52  1  0
 29 53  1  0
 30 54  1  0
M  END
>  <UniqueID>  (23) 
23

>  <SMILES>  (23) 
O=C(Nc1ccc(-c2ccccc2CN2CCCC2)c(C(F)(F)F)c1)c1ccccc1Br

>  <Energy>  (23) 
85.39412740514818

>  <Genealogy>  (23) 
O=C(Nc1ccc(-c2ccccc2CN2CCCC2)c(C(F)(F)F)c1)c1ccccc1Br (3D coordinates assigned)
O=C(Nc1ccc(-c2ccccc2CN2CCCC2)c(C(F)(F)F)c1)c1ccccc1Br (nonaromatic ring conformer: 85.39412740514818 kcal/mol)

>  <smiles>  (23) 
O=C(Nc1ccc(-c2ccccc2CN2CCCC2)c(C(F)(F)F)c1)c1ccccc1Br

>  <score_type>  (23) 
oracle

>  <origin>  (23) 
adgpu

>  <m_score__min__energy>  (23) 
-9.6400000000000006

>  <m_primary>  (23) 
energy

$$$$
23:0
     RDKit          3D

 30 31  0  0  0  0  0  0  0  0999 V2000
   -9.0820   19.4730  -32.3180 C   0  0  0  0  0  0  0  0  0  0  0  0
   -7.7800   19.5560  -32.0320 C   0  0  0  0  0  0  0  0  0  0  0  0
   -6.8870   20.5650  -32.6980 C   0  0  0  0  0  0  0  0  0  0  0  0
   -6.6860   21.7670  -31.8130 C   0  0  0  0  0  0  0  0  0  0  0  0
   -7.7210   22.6950  -31.6300 C   0  0  0  0  0  0  0  0  0  0  0  0
   -7.5250   23.8200  -30.8270 C   0  0  0  0  0  0  0  0  0  0  0  0
   -6.2880   24.0390  -30.2050 C   0  0  0  0  0  0  0  0  0  0  0  0
   -6.1120   25.1490  -29.3780 O   0  0  0  0  0  0  0  0  0  0  0  0
   -5.2320   23.1280  -30.4030 C   0  0  0  0  0  0  0  0  0  0  0  0
   -3.9110   23.3390  -29.7690 C   0  0  0  0  0  0  0  0  0  0  0  0
   -3.2700   22.2680  -29.1240 C   0  0  0  0  0  0  0  0  0  0  0  0
   -2.0230   22.4490  -28.5200 C   0  0  0  0  0  0  0  0  0  0  0  0
   -1.4000   23.6990  -28.5610 C   0  0  0  0  0  0  0  0  0  0  0  0
   -0.1610   23.8780  -27.9580 O   0  0  0  0  0  0  0  0  0  0  0  0
   -2.0230   24.7690  -29.2100 C   0  0  0  0  0  0  0  0  0  0  0  0
   -3.2700   24.5940  -29.8200 C   0  0  0  0  0  0  0  0  0  0  0  0
   -3.8550   25.6640  -30.4890 O   0  0  0  0  0  0  0  0  0  0  0  0
   -5.4430   21.9910  -31.2020 C   0  0  0  0  0  0  0  0  0  0  0  0
   -9.7093   18.7235  -31.8133 H   0  0  0  0  0  0  0  0  0  0  0  0
   -9.5270   20.1542  -33.0583 H   0  0  0  0  0  0  0  0  0  0  0  0
   -7.3499   18.8678  -31.2895 H   0  0  0  0  0  0  0  0  0  0  0  0
   -5.9109   20.1020  -32.9048 H   0  0  0  0  0  0  0  0  0  0  0  0
   -7.3614   20.8921  -33.6350 H   0  0  0  0  0  0  0  0  0  0  0  0
   -8.6921   22.5358  -32.1215 H   0  0  0  0  0  0  0  0  0  0  0  0
   -8.3454   24.5382  -30.6816 H   0  0  0  0  0  0  0  0  0  0  0  0
   -5.2400   25.6660  -29.3620 H   0  0  0  0  0  0  0  0  0  0  0  0
   -3.7531   21.2802  -29.0943 H   0  0  0  0  0  0  0  0  0  0  0  0
   -1.5313   21.6065  -28.0117 H   0  0  0  0  0  0  0  0  0  0  0  0
   -1.5310   25.7523  -29.2412 H   0  0  0  0  0  0  0  0  0  0  0  0
   -4.6257   21.2698  -31.3497 H   0  0  0  0  0  0  0  0  0  0  0  0
  1  2  2  0
  2  3  1  0
  3  4  1  0
  4  5  2  0
  5  6  1  0
  6  7  2  0
  7  8  1  0
  7  9  1  0
  9 10  1  0
 10 11  2  0
 11 12  1  0
 12 13  2  0
 13 14  1  0
 13 15  1  0
 15 16  2  0
 16 17  1  0
  9 18  2  0
 18  4  1  0
 16 10  1  0
  1 19  1  0
  1 20  1  0
  2 21  1  0
  3 22  1  0
  3 23  1  0
  5 24  1  0
  6 25  1  0
  8 26  1  0
 11 27  1  0
 12 28  1  0
 15 29  1  0
 18 30  1  0
M  CHG  2  14  -1  17  -1
M  END
>  <UniqueID>  (24) 
24

>  <SMILES>  (24) 
C=CCc1ccc(O)c(-c2ccc([O-])cc2[O-])c1

>  <Energy>  (24) 
34.53928628638296

>  <Genealogy>  (24) 
C=CCc1ccc(O)c(-c2ccc([O-])cc2[O-])c1 (protonated)
C=CCc1ccc(O)c(-c2ccc([O-])cc2[O-])c1 (3D coordinates assigned)
C=CCc1ccc(O)c(-c2ccc([O-])cc2[O-])c1 (optimized conformer: 34.53928628638296 kcal/mol)

>  <smiles>  (24) 
C=CCc1ccc(O)c(-c2ccc(O)cc2O)c1

>  <score_type>  (24) 
oracle

>  <origin>  (24) 
adgpu

>  <m_score__min__energy>  (24) 
-9.9299999999999997

>  <m_primary>  (24) 
energy

$$$$
24:0
     RDKit          3D

 39 41  0  0  0  0  0  0  0  0999 V2000
   -1.0080   25.3910  -28.2700 C   0  0  0  0  0  0  0  0  0  0  0  0
   -1.9430   25.3000  -29.3400 O   0  0  0  0  0  0  0  0  0  0  0  0
   -3.0950   24.4990  -29.3180 C   0  0  0  0  0  0  0  0  0  0  0  0
   -3.4600   23.7300  -28.1960 C   0  0  0  0  0  0  0  0  0  0  0  0
   -4.6130   22.9430  -28.2280 C   0  0  0  0  0  0  0  0  0  0  0  0
   -5.4140   22.9150  -29.3720 C   0  0  0  0  0  0  0  0  0  0  0  0
   -5.0720   23.6880  -30.4910 C   0  0  0  0  0  0  0  0  0  0  0  0
   -5.9100   23.6280  -31.7380 C   0  0  0  0  0  0  0  0  0  0  0  0
   -6.0650   22.2070  -32.1800 C   0  0  0  0  0  0  0  0  0  0  0  0
   -7.1420   21.3820  -31.8590 C   0  0  0  0  0  0  0  0  0  0  0  0
   -6.8160   20.1560  -32.4110 C   0  0  0  0  0  0  0  0  0  0  0  0
   -5.6050   20.2830  -33.0130 C   0  0  0  0  0  0  0  0  0  0  0  0
   -5.1230   21.5300  -32.8790 N   0  0  0  0  0  0  0  0  0  0  0  0
   -5.0320   19.2040  -33.6620 C   0  0  0  0  0  0  0  0  0  0  0  0
   -3.9130   19.3290  -34.2330 O   0  0  0  0  0  0  0  0  0  0  0  0
   -5.7110   18.0070  -33.6730 N   0  0  0  0  0  0  0  0  0  0  0  0
   -5.1490   16.8510  -34.3890 C   0  0  0  0  0  0  0  0  0  0  0  0
   -6.9600   17.9090  -33.0790 C   0  0  0  0  0  0  0  0  0  0  0  0
   -7.6030   16.8250  -33.1520 O   0  0  0  0  0  0  0  0  0  0  0  0
   -7.5100   18.9840  -32.4110 N   0  0  0  0  0  0  0  0  0  0  0  0
   -8.8340   18.9070  -31.7760 C   0  0  0  0  0  0  0  0  0  0  0  0
   -3.9040   24.4680  -30.4610 C   0  0  0  0  0  0  0  0  0  0  0  0
   -1.5429   25.3389  -27.3102 H   0  0  0  0  0  0  0  0  0  0  0  0
   -0.2924   24.5583  -28.3366 H   0  0  0  0  0  0  0  0  0  0  0  0
   -0.4664   26.3461  -28.3366 H   0  0  0  0  0  0  0  0  0  0  0  0
   -2.8346   23.7494  -27.2913 H   0  0  0  0  0  0  0  0  0  0  0  0
   -4.8915   22.3429  -27.3492 H   0  0  0  0  0  0  0  0  0  0  0  0
   -6.3154   22.2850  -29.3952 H   0  0  0  0  0  0  0  0  0  0  0  0
   -6.9021   24.0560  -31.5316 H   0  0  0  0  0  0  0  0  0  0  0  0
   -5.4152   24.2029  -32.5346 H   0  0  0  0  0  0  0  0  0  0  0  0
   -8.0478   21.6465  -31.2937 H   0  0  0  0  0  0  0  0  0  0  0  0
   -4.2110   21.9000  -33.2290 H   0  0  0  0  0  0  0  0  0  0  0  0
   -4.7883   16.1090  -33.6614 H   0  0  0  0  0  0  0  0  0  0  0  0
   -5.9270   16.3972  -35.0204 H   0  0  0  0  0  0  0  0  0  0  0  0
   -4.3115   17.1826  -35.0204 H   0  0  0  0  0  0  0  0  0  0  0  0
   -8.7170   18.9138  -30.6823 H   0  0  0  0  0  0  0  0  0  0  0  0
   -9.4399   19.7714  -32.0854 H   0  0  0  0  0  0  0  0  0  0  0  0
   -9.3356   17.9782  -32.0854 H   0  0  0  0  0  0  0  0  0  0  0  0
   -3.6220   25.0603  -31.3440 H   0  0  0  0  0  0  0  0  0  0  0  0
  1  2  1  0
  2  3  1  0
  3  4  2  0
  4  5  1  0
  5  6  2  0
  6  7  1  0
  7  8  1  0
  8  9  1  0
  9 10  2  0
 10 11  1  0
 11 12  2  0
 12 13  1  0
 12 14  1  0
 14 15  2  0
 14 16  1  0
 16 17  1  0
 16 18  1  0
 18 19  2  0
 18 20  1  0
 20 21  1  0
  7 22  2  0
 22  3  1  0
 13  9  1  0
 20 11  1  0
  1 23  1  0
  1 24  1  0
  1 25  1  0
  4 26  1  0
  5 27  1  0
  6 28  1  0
  8 29  1  0
  8 30  1  0
 10 31  1  0
 13 32  1  0
 17 33  1  0
 17 34  1  0
 17 35  1  0
 21 36  1  0
 21 37  1  0
 21 38  1  0
 22 39  1  0
M  END
>  <UniqueID>  (25) 
25

>  <SMILES>  (25) 
COc1cccc(Cc2cc3c([nH]2)c(=O)n(C)c(=O)n3C)c1

>  <Energy>  (25) 
79.15638397748772

>  <Genealogy>  (25) 
COc1cccc(Cc2cc3c([nH]2)c(=O)n(C)c(=O)n3C)c1 (3D coordinates assigned)
COc1cccc(Cc2cc3c([nH]2)c(=O)n(C)c(=O)n3C)c1 (optimized conformer: 79.15638397748772 kcal/mol)

>  <smiles>  (25) 
COc1cccc(Cc2cc3c([nH]2)c(=O)n(C)c(=O)n3C)c1

>  <score_type>  (25) 
oracle

>  <origin>  (25) 
adgpu

>  <m_score__min__energy>  (25) 
-7.7000000000000002

>  <m_primary>  (25) 
energy

$$$$
25:0
     RDKit          3D

 38 41  0  0  0  0  0  0  0  0999 V2000
   -1.5970   21.3540  -34.2160 N   0  0  0  0  0  0  0  0  0  0  0  0
   -1.0660   20.3860  -33.3040 C   0  0  0  0  0  0  0  0  0  0  0  0
   -0.0790   20.7800  -32.3860 C   0  0  0  0  0  0  0  0  0  0  0  0
    0.4270   19.8700  -31.4540 C   0  0  0  0  0  0  0  0  0  0  0  0
   -0.0520   18.5600  -31.4250 C   0  0  0  0  0  0  0  0  0  0  0  0
   -1.0290   18.1530  -32.3370 C   0  0  0  0  0  0  0  0  0  0  0  0
   -1.5310   19.0520  -33.2890 C   0  0  0  0  0  0  0  0  0  0  0  0
   -2.7420   18.4530  -34.4780 S   0  0  0  0  0  0  0  0  0  0  0  0
   -4.1070   19.2140  -33.6010 C   0  0  0  0  0  0  0  0  0  0  0  0
   -4.0540   20.4520  -33.0530 N   0  0  0  0  0  0  0  0  0  0  0  0
   -5.2140   20.6810  -32.4480 N   0  0  0  0  0  0  0  0  0  0  0  0
   -5.4980   21.8740  -31.7070 C   0  0  0  0  0  0  0  0  0  0  0  0
   -6.6940   22.5660  -31.9540 C   0  0  0  0  0  0  0  0  0  0  0  0
   -6.9920   23.7340  -31.2480 C   0  0  0  0  0  0  0  0  0  0  0  0
   -6.1040   24.2140  -30.2800 C   0  0  0  0  0  0  0  0  0  0  0  0
   -6.4810   25.6790  -29.3930 Cl  0  0  0  0  0  0  0  0  0  0  0  0
   -4.9210   23.5180  -30.0120 C   0  0  0  0  0  0  0  0  0  0  0  0
   -4.6150   22.3470  -30.7160 C   0  0  0  0  0  0  0  0  0  0  0  0
   -3.1570   21.4590  -30.2890 Cl  0  0  0  0  0  0  0  0  0  0  0  0
   -6.0000   19.5930  -32.5860 C   0  0  0  0  0  0  0  0  0  0  0  0
   -7.2690   19.3500  -32.0580 C   0  0  0  0  0  0  0  0  0  0  0  0
   -7.8650   18.1060  -32.3380 C   0  0  0  0  0  0  0  0  0  0  0  0
   -7.1840   17.1430  -33.1160 C   0  0  0  0  0  0  0  0  0  0  0  0
   -5.8960   17.4100  -33.6160 C   0  0  0  0  0  0  0  0  0  0  0  0
   -5.3340   18.6500  -33.3190 C   0  0  0  0  0  0  0  0  0  0  0  0
   -0.9960   21.8380  -34.9170 H   0  0  0  0  0  0  0  0  0  0  0  0
   -2.6230   21.5480  -34.2450 H   0  0  0  0  0  0  0  0  0  0  0  0
    0.2988   21.8130  -32.4007 H   0  0  0  0  0  0  0  0  0  0  0  0
    1.2038   20.1869  -30.7425 H   0  0  0  0  0  0  0  0  0  0  0  0
    0.3396   17.8475  -30.6840 H   0  0  0  0  0  0  0  0  0  0  0  0
   -1.4070   17.1204  -32.3081 H   0  0  0  0  0  0  0  0  0  0  0  0
   -7.4002   22.1867  -32.7073 H   0  0  0  0  0  0  0  0  0  0  0  0
   -7.9263   24.2769  -31.4537 H   0  0  0  0  0  0  0  0  0  0  0  0
   -4.2276   23.8923  -29.2445 H   0  0  0  0  0  0  0  0  0  0  0  0
   -7.7849   20.1037  -31.4450 H   0  0  0  0  0  0  0  0  0  0  0  0
   -8.8688   17.8818  -31.9481 H   0  0  0  0  0  0  0  0  0  0  0  0
   -7.6642   16.1773  -33.3325 H   0  0  0  0  0  0  0  0  0  0  0  0
   -5.3530   16.6673  -34.2190 H   0  0  0  0  0  0  0  0  0  0  0  0
  1  2  1  0
  2  3  2  0
  3  4  1  0
  4  5  2  0
  5  6  1  0
  6  7  2  0
  7  8  1  0
  8  9  1  0
  9 10  2  0
 10 11  1  0
 11 12  1  0
 12 13  2  0
 13 14  1  0
 14 15  2  0
 15 16  1  0
 15 17  1  0
 17 18  2  0
 18 19  1  0
 11 20  1  0
 20 21  2  0
 21 22  1  0
 22 23  2  0
 23 24  1  0
 24 25  2  0
  7  2  1  0
 25  9  1  0
 18 12  1  0
 25 20  1  0
  1 26  1  0
  1 27  1  0
  3 28  1  0
  4 29  1  0
  5 30  1  0
  6 31  1  0
 13 32  1  0
 14 33  1  0
 17 34  1  0
 21 35  1  0
 22 36  1  0
 23 37  1  0
 24 38  1  0
M  END
>  <UniqueID>  (26) 
26

>  <SMILES>  (26) 
Nc1ccccc1Sc1nn(-c2ccc(Cl)cc2Cl)c2ccccc12

>  <Energy>  (26) 
85.44021711900486

>  <Genealogy>  (26) 
Nc1ccccc1Sc1nn(-c2ccc(Cl)cc2Cl)c2ccccc12 (3D coordinates assigned)
Nc1ccccc1Sc1nn(-c2ccc(Cl)cc2Cl)c2ccccc12 (optimized conformer: 85.44021711900486 kcal/mol)

>  <smiles>  (26) 
Nc1ccccc1Sc1nn(-c2ccc(Cl)cc2Cl)c2ccccc12

>  <score_type>  (26) 
oracle

>  <origin>  (26) 
adgpu

>  <m_score__min__energy>  (26) 
-9.4499999999999993

>  <m_primary>  (26) 
energy

$$$$
26:0
     RDKit          3D

 26 27  0  0  1  0  0  0  0  0999 V2000
   -3.5840   25.2750  -30.4420 N   0  0  0  0  0  0  0  0  0  0  0  0
   -4.7700   24.7230  -30.5020 C   0  0  0  0  0  0  0  0  0  0  0  0
   -5.7400   25.1960  -29.6810 N   0  0  0  0  0  0  0  0  0  0  0  0
   -6.9850   24.6370  -29.7240 C   0  0  0  0  0  0  0  0  0  0  0  0
   -7.2000   23.6100  -30.6040 C   0  0  0  0  0  0  0  0  0  0  0  0
   -6.2200   23.1250  -31.4410 C   0  0  0  0  0  0  0  0  0  0  0  0
   -6.4440   22.1590  -32.2620 N   0  0  0  0  0  0  0  0  0  0  0  0
   -7.7420   21.5170  -32.3620 C   0  0  0  0  0  0  0  0  0  0  0  0
   -7.4040   20.0900  -32.7160 C   0  0  0  0  0  0  0  0  0  0  0  0
   -6.3970   19.8370  -33.6530 C   0  0  0  0  0  0  0  0  0  0  0  0
   -6.1070   18.5220  -33.9580 C   0  0  0  0  0  0  0  0  0  0  0  0
   -6.7870   17.4810  -33.3630 C   0  0  0  0  0  0  0  0  0  0  0  0
   -6.3410   15.8580  -33.8220 Cl  0  0  0  0  0  0  0  0  0  0  0  0
   -7.7610   17.7450  -32.4560 N   0  0  0  0  0  0  0  0  0  0  0  0
   -8.0600   19.0370  -32.1420 C   0  0  0  0  0  0  0  0  0  0  0  0
   -4.9920   23.7110  -31.3650 N   0  0  0  0  0  0  0  0  0  0  0  0
   -3.5010   26.0480  -29.7480 H   0  0  0  0  0  0  0  0  0  0  0  0
   -5.5800   25.9790  -29.0080 H   0  0  0  0  0  0  0  0  0  0  0  0
   -7.7918   25.0010  -29.0708 H   0  0  0  0  0  0  0  0  0  0  0  0
   -8.1995   23.1524  -30.6440 H   0  0  0  0  0  0  0  0  0  0  0  0
   -8.2802   21.5673  -31.4040 H   0  0  0  0  0  0  0  0  0  0  0  0
   -8.4009   21.9967  -33.1007 H   0  0  0  0  0  0  0  0  0  0  0  0
   -5.8514   20.6625  -34.1335 H   0  0  0  0  0  0  0  0  0  0  0  0
   -5.3171   18.3005  -34.6908 H   0  0  0  0  0  0  0  0  0  0  0  0
   -8.8519   19.2383  -31.4055 H   0  0  0  0  0  0  0  0  0  0  0  0
   -4.2240   23.3500  -32.0040 H   0  0  0  0  0  0  0  0  0  0  0  0
  1  2  2  3
  2  3  1  0
  3  4  1  0
  4  5  2  0
  5  6  1  0
  6  7  2  0
  7  8  1  0
  8  9  1  0
  9 10  2  0
 10 11  1  0
 11 12  2  0
 12 13  1  0
 12 14  1  0
 14 15  2  0
  6 16  1  0
 16  2  1  0
 15  9  1  0
  1 17  1  0
  3 18  1  0
  4 19  1  0
  5 20  1  0
  8 21  1  0
  8 22  1  0
 10 23  1  0
 11 24  1  0
 15 25  1  0
 16 26  1  0
M  END
>  <smiles>  (27) 
N=c1[nH]ccc(=NCc2ccc(Cl)nc2)[nH]1

>  <score_type>  (27) 
oracle

>  <origin>  (27) 
adgpu

>  <m_score__min__energy>  (27) 
-7.1799999999999997

>  <m_primary>  (27) 
energy

$$$$
27:0
     RDKit          3D

 36 38  0  0  0  0  0  0  0  0999 V2000
   -1.8050   25.4780  -28.9370 O   0  0  0  0  0  0  0  0  0  0  0  0
   -2.5670   24.6000  -29.4240 C   0  0  0  0  0  0  0  0  0  0  0  0
   -3.4950   24.9300  -30.4660 N   0  0  0  0  0  0  0  0  0  0  0  0
   -4.6890   24.2120  -30.8080 C   0  0  0  0  0  0  0  0  0  0  0  0
   -5.9130   24.6640  -30.2990 C   0  0  0  0  0  0  0  0  0  0  0  0
   -7.0970   23.9820  -30.5900 C   0  0  0  0  0  0  0  0  0  0  0  0
   -7.0680   22.8240  -31.3760 C   0  0  0  0  0  0  0  0  0  0  0  0
   -8.5620   21.9580  -31.7240 S   0  0  0  0  0  0  0  0  0  0  0  0
   -9.6370   22.9120  -32.1680 O   0  0  0  0  0  0  0  0  0  0  0  0
   -9.0160   21.2530  -30.4780 O   0  0  0  0  0  0  0  0  0  0  0  0
   -8.2950   20.7860  -32.9740 N   0  0  0  0  0  0  0  0  0  0  0  0
   -7.4900   19.6060  -32.8410 C   0  0  0  0  0  0  0  0  0  0  0  0
   -6.4800   19.3740  -33.7840 C   0  0  0  0  0  0  0  0  0  0  0  0
   -5.6780   18.2320  -33.6960 C   0  0  0  0  0  0  0  0  0  0  0  0
   -5.8790   17.3120  -32.6620 C   0  0  0  0  0  0  0  0  0  0  0  0
   -4.8730   15.8800  -32.5540 Cl  0  0  0  0  0  0  0  0  0  0  0  0
   -6.8830   17.5370  -31.7160 C   0  0  0  0  0  0  0  0  0  0  0  0
   -7.6860   18.6790  -31.8010 C   0  0  0  0  0  0  0  0  0  0  0  0
   -5.8450   22.3550  -31.8720 C   0  0  0  0  0  0  0  0  0  0  0  0
   -4.6600   23.0380  -31.5830 C   0  0  0  0  0  0  0  0  0  0  0  0
   -2.5370   23.2390  -28.8780 C   0  0  0  0  0  0  0  0  0  0  0  0
   -3.4720   22.6850  -28.0250 C   0  0  0  0  0  0  0  0  0  0  0  0
   -3.0370   21.4000  -27.7820 C   0  0  0  0  0  0  0  0  0  0  0  0
   -1.8660   21.2500  -28.4990 C   0  0  0  0  0  0  0  0  0  0  0  0
   -1.5950   22.3620  -29.1420 O   0  0  0  0  0  0  0  0  0  0  0  0
   -5.9423   25.5627  -29.6654 H   0  0  0  0  0  0  0  0  0  0  0  0
   -8.0552   24.3562  -30.2002 H   0  0  0  0  0  0  0  0  0  0  0  0
   -6.3170   20.0948  -34.5987 H   0  0  0  0  0  0  0  0  0  0  0  0
   -4.8879   18.0570  -34.4411 H   0  0  0  0  0  0  0  0  0  0  0  0
   -7.0420   16.8140  -30.9024 H   0  0  0  0  0  0  0  0  0  0  0  0
   -8.4731   18.8529  -31.0525 H   0  0  0  0  0  0  0  0  0  0  0  0
   -5.8168   21.4462  -32.4910 H   0  0  0  0  0  0  0  0  0  0  0  0
   -3.7010   22.6561  -31.9630 H   0  0  0  0  0  0  0  0  0  0  0  0
   -4.3749   23.1684  -27.6237 H   0  0  0  0  0  0  0  0  0  0  0  0
   -3.5239   20.6463  -27.1457 H   0  0  0  0  0  0  0  0  0  0  0  0
   -1.2532   20.3369  -28.5270 H   0  0  0  0  0  0  0  0  0  0  0  0
  1  2  2  0
  2  3  1  0
  3  4  1  0
  4  5  2  0
  5  6  1  0
  6  7  2  0
  7  8  1  0
  8  9  2  0
  8 10  2  0
  8 11  1  0
 11 12  1  0
 12 13  2  0
 13 14  1  0
 14 15  2  0
 15 16  1  0
 15 17  1  0
 17 18  2  0
  7 19  1  0
 19 20  2  0
  2 21  1  0
 21 22  2  0
 22 23  1  0
 23 24  2  0
 24 25  1  0
 20  4  1  0
 25 21  1  0
 18 12  1  0
  5 26  1  0
  6 27  1  0
 13 28  1  0
 14 29  1  0
 17 30  1  0
 18 31  1  0
 19 32  1  0
 20 33  1  0
 22 34  1  0
 23 35  1  0
 24 36  1  0
M  CHG  2   3  -1  11  -1
M  END
>  <UniqueID>  (28) 
27

>  <SMILES>  (28) 
O=C([N-]c1ccc(S(=O)(=O)[N-]c2ccc(Cl)cc2)cc1)c1ccco1

>  <Energy>  (28) 
69.89036655262728

>  <Genealogy>  (28) 
O=C([N-]c1ccc(S(=O)(=O)[N-]c2ccc(Cl)cc2)cc1)c1ccco1 (protonated)
O=C([N-]c1ccc(S(=O)(=O)[N-]c2ccc(Cl)cc2)cc1)c1ccco1 (3D coordinates assigned)
O=C([N-]c1ccc(S(=O)(=O)[N-]c2ccc(Cl)cc2)cc1)c1ccco1 (optimized conformer: 69.89036655262728 kcal/mol)

>  <smiles>  (28) 
O=C(Nc1ccc(S(=O)(=O)Nc2ccc(Cl)cc2)cc1)c1ccco1

>  <score_type>  (28) 
oracle

>  <origin>  (28) 
adgpu

>  <m_score__min__energy>  (28) 
-10.619999999999999

>  <m_primary>  (28) 
energy

$$$$
28:0
     RDKit          3D

 54 57  0  0  0  0  0  0  0  0999 V2000
   -1.7764   14.1271  -32.6703 H   0  0  0  0  0  0  0  0  0  0  0  0
   -2.0040   15.0570  -33.2120 C   0  0  0  0  0  0  0  0  0  0  0  0
   -3.2890   15.4910  -33.3040 N   0  0  0  0  0  0  0  0  0  0  0  0
   -3.6230   16.6310  -33.9770 C   0  0  0  0  0  0  0  0  0  0  0  0
   -5.0350   17.0730  -34.0310 C   0  0  0  0  0  0  0  0  0  0  0  0
   -5.4480   17.7440  -35.0170 O   0  0  0  0  0  0  0  0  0  0  0  0
   -5.9300   16.7680  -32.9560 N   0  0  0  0  0  0  0  0  0  0  0  0
   -5.6380   16.1010  -32.2130 H   0  0  0  0  0  0  0  0  0  0  0  0
   -7.2630   17.3590  -32.8830 C   0  0  0  0  0  0  0  0  0  0  0  0
   -7.5504   17.4864  -31.8289 H   0  0  0  0  0  0  0  0  0  0  0  0
   -7.2575   18.3390  -33.3826 H   0  0  0  0  0  0  0  0  0  0  0  0
   -7.9855   16.6969  -33.3826 H   0  0  0  0  0  0  0  0  0  0  0  0
   -2.6130   17.3880  -34.5850 C   0  0  0  0  0  0  0  0  0  0  0  0
   -2.8668   18.3021  -35.1417 H   0  0  0  0  0  0  0  0  0  0  0  0
   -1.2710   16.9730  -34.4800 C   0  0  0  0  0  0  0  0  0  0  0  0
   -0.2190   17.6780  -35.0840 O   0  0  0  0  0  0  0  0  0  0  0  0
   -0.1010   19.0750  -35.1620 C   0  0  0  0  0  0  0  0  0  0  0  0
   -0.8850   19.8690  -34.2970 C   0  0  0  0  0  0  0  0  0  0  0  0
   -1.5932   19.3856  -33.6080 H   0  0  0  0  0  0  0  0  0  0  0  0
   -0.7710   21.2710  -34.3060 C   0  0  0  0  0  0  0  0  0  0  0  0
   -1.3705   21.8944  -33.6263 H   0  0  0  0  0  0  0  0  0  0  0  0
    0.1240   21.8420  -35.2020 C   0  0  0  0  0  0  0  0  0  0  0  0
    0.4280   23.1400  -35.3480 N   0  0  0  0  0  0  0  0  0  0  0  0
    1.3680   23.1090  -36.3270 C   0  0  0  0  0  0  0  0  0  0  0  0
    1.9630   24.1680  -36.7910 N   0  0  0  0  0  0  0  0  0  0  0  0
    1.8310   25.5160  -36.3100 C   0  0  0  0  0  0  0  0  0  0  0  0
    2.9630   26.1580  -35.8040 C   0  0  0  0  0  0  0  0  0  0  0  0
    3.9355   25.6452  -35.8399 H   0  0  0  0  0  0  0  0  0  0  0  0
    2.8830   27.4510  -35.2480 C   0  0  0  0  0  0  0  0  0  0  0  0
    4.0270   28.0920  -34.7470 O   0  0  0  0  0  0  0  0  0  0  0  0
    4.1880   28.5500  -33.4100 C   0  0  0  0  0  0  0  0  0  0  0  0
    3.9062   27.7484  -32.7114 H   0  0  0  0  0  0  0  0  0  0  0  0
    5.2385   28.8300  -33.2423 H   0  0  0  0  0  0  0  0  0  0  0  0
    3.5438   29.4257  -33.2423 H   0  0  0  0  0  0  0  0  0  0  0  0
    1.6260   28.1070  -35.2000 C   0  0  0  0  0  0  0  0  0  0  0  0
    1.4350   29.3870  -34.6530 O   0  0  0  0  0  0  0  0  0  0  0  0
    0.9480   30.5440  -35.3350 C   0  0  0  0  0  0  0  0  0  0  0  0
    0.6309   31.2973  -34.5988 H   0  0  0  0  0  0  0  0  0  0  0  0
    1.7468   30.9612  -35.9657 H   0  0  0  0  0  0  0  0  0  0  0  0
    0.0912   30.2644  -35.9657 H   0  0  0  0  0  0  0  0  0  0  0  0
    0.4860   27.4640  -35.7120 C   0  0  0  0  0  0  0  0  0  0  0  0
   -0.7380   28.1510  -35.6690 O   0  0  0  0  0  0  0  0  0  0  0  0
   -1.6860   28.1870  -36.7330 C   0  0  0  0  0  0  0  0  0  0  0  0
   -2.7034   28.2256  -36.3165 H   0  0  0  0  0  0  0  0  0  0  0  0
   -1.5090   29.0791  -37.3518 H   0  0  0  0  0  0  0  0  0  0  0  0
   -1.5772   27.2841  -37.3518 H   0  0  0  0  0  0  0  0  0  0  0  0
    0.5870   26.1610  -36.2340 C   0  0  0  0  0  0  0  0  0  0  0  0
   -0.3176   25.6433  -36.5857 H   0  0  0  0  0  0  0  0  0  0  0  0
    1.6470   21.8720  -36.8070 N   0  0  0  0  0  0  0  0  0  0  0  0
    0.8500   21.0900  -36.0670 C   0  0  0  0  0  0  0  0  0  0  0  0
    0.7580   19.7010  -36.0940 C   0  0  0  0  0  0  0  0  0  0  0  0
    1.3362   19.1087  -36.8185 H   0  0  0  0  0  0  0  0  0  0  0  0
   -0.9750   15.7870  -33.8020 C   0  0  0  0  0  0  0  0  0  0  0  0
    0.0641   15.4325  -33.7348 H   0  0  0  0  0  0  0  0  0  0  0  0
  1  2  1  0
  2  3  2  0
  3  4  1  0
  4  5  1  0
  5  6  2  0
  5  7  1  0
  7  8  1  0
  7  9  1  0
  9 10  1  0
  9 11  1  0
  9 12  1  0
  4 13  2  0
 13 14  1  0
 13 15  1  0
 15 16  1  0
 16 17  1  0
 17 18  2  0
 18 19  1  0
 18 20  1  0
 20 21  1  0
 20 22  2  0
 22 23  1  0
 23 24  1  0
 24 25  2  0
 25 26  1  0
 26 27  2  0
 27 28  1  0
 27 29  1  0
 29 30  1  0
 30 31  1  0
 31 32  1  0
 31 33  1  0
 31 34  1  0
 29 35  2  0
 35 36  1  0
 36 37  1  0
 37 38  1  0
 37 39  1  0
 37 40  1  0
 35 41  1  0
 41 42  1  0
 42 43  1  0
 43 44  1  0
 43 45  1  0
 43 46  1  0
 41 47  2  0
 47 48  1  0
 24 49  1  0
 49 50  1  0
 50 51  2  0
 51 52  1  0
 15 53  2  0
 53 54  1  0
 53  2  1  0
 51 17  1  0
 50 22  1  0
 47 26  1  0
M  CHG  2  23  -1  49  -1
M  END
>  <UniqueID>  (29) 
28

>  <SMILES>  (29) 
CNC(=O)c1cc(Oc2ccc3[n-]/c(=N\c4cc(OC)c(OC)c(OC)c4)[n-]c3c2)ccn1

>  <Energy>  (29) 
106.52725709734416

>  <Genealogy>  (29) 
CNC(=O)c1cc(Oc2ccc3[n-]c(=Nc4cc(OC)c(OC)c(OC)c4)[n-]c3c2)ccn1 (protonated)
CNC(=O)c1cc(Oc2ccc3[n-]/c(=N\c4cc(OC)c(OC)c(OC)c4)[n-]c3c2)ccn1 (cis-trans isomerization)
CNC(=O)c1cc(Oc2ccc3[n-]/c(=N\c4cc(OC)c(OC)c(OC)c4)[n-]c3c2)ccn1 (3D coordinates assigned)
CNC(=O)c1cc(Oc2ccc3[n-]/c(=N\c4cc(OC)c(OC)c(OC)c4)[n-]c3c2)ccn1 (optimized conformer: 106.52725709734416 kcal/mol)

>  <smiles>  (29) 
CNC(=O)c1cc(Oc2ccc3[nH]c(=Nc4cc(OC)c(OC)c(OC)c4)[nH]c3c2)ccn1

>  <score_type>  (29) 
oracle

>  <origin>  (29) 
adgpu

>  <m_score__min__energy>  (29) 
-10.109999999999999

>  <m_primary>  (29) 
energy

$$$$
29:0
     RDKit          3D

 38 40  0  0  0  0  0  0  0  0999 V2000
   -6.3940   24.7160  -30.0910 C   0  0  0  0  0  0  0  0  0  0  0  0
   -4.6740   24.2610  -30.1070 S   0  0  0  0  0  0  0  0  0  0  0  0
   -4.1860   24.0790  -28.6970 O   0  0  0  0  0  0  0  0  0  0  0  0
   -3.8690   25.3490  -30.7610 O   0  0  0  0  0  0  0  0  0  0  0  0
   -4.4900   22.7570  -31.0010 C   0  0  0  0  0  0  0  0  0  0  0  0
   -4.7740   22.7180  -32.3720 C   0  0  0  0  0  0  0  0  0  0  0  0
   -4.5480   21.5500  -33.1040 C   0  0  0  0  0  0  0  0  0  0  0  0
   -4.0170   20.4120  -32.4740 C   0  0  0  0  0  0  0  0  0  0  0  0
   -3.6540   19.2160  -33.2670 C   0  0  0  0  0  0  0  0  0  0  0  0
   -2.3670   18.6730  -33.1430 C   0  0  0  0  0  0  0  0  0  0  0  0
   -2.0280   17.5060  -33.8270 C   0  0  0  0  0  0  0  0  0  0  0  0
   -2.9820   16.8840  -34.6300 C   0  0  0  0  0  0  0  0  0  0  0  0
   -4.2200   17.4260  -34.7610 N   0  0  0  0  0  0  0  0  0  0  0  0
   -4.5800   18.5760  -34.1300 C   0  0  0  0  0  0  0  0  0  0  0  0
   -5.8740   19.0770  -34.3470 O   0  0  0  0  0  0  0  0  0  0  0  0
   -6.8600   19.2050  -33.3570 C   0  0  0  0  0  0  0  0  0  0  0  0
   -7.4820   20.4370  -33.0830 C   0  0  0  0  0  0  0  0  0  0  0  0
   -8.4220   20.5350  -32.0520 C   0  0  0  0  0  0  0  0  0  0  0  0
   -8.7590   19.4050  -31.3010 C   0  0  0  0  0  0  0  0  0  0  0  0
   -8.1670   18.1720  -31.5900 C   0  0  0  0  0  0  0  0  0  0  0  0
   -7.2290   18.0710  -32.6220 C   0  0  0  0  0  0  0  0  0  0  0  0
   -3.7720   20.4420  -31.0920 C   0  0  0  0  0  0  0  0  0  0  0  0
   -3.9980   21.6130  -30.3620 C   0  0  0  0  0  0  0  0  0  0  0  0
   -6.7394   24.8074  -29.0507 H   0  0  0  0  0  0  0  0  0  0  0  0
   -6.5233   25.6792  -30.6062 H   0  0  0  0  0  0  0  0  0  0  0  0
   -6.9827   23.9427  -30.6062 H   0  0  0  0  0  0  0  0  0  0  0  0
   -5.1764   23.6102  -32.8740 H   0  0  0  0  0  0  0  0  0  0  0  0
   -4.7866   21.5211  -34.1774 H   0  0  0  0  0  0  0  0  0  0  0  0
   -1.6221   19.1695  -32.5038 H   0  0  0  0  0  0  0  0  0  0  0  0
   -1.0178   17.0808  -33.7336 H   0  0  0  0  0  0  0  0  0  0  0  0
   -2.7317   15.9524  -35.1586 H   0  0  0  0  0  0  0  0  0  0  0  0
   -7.2285   21.3249  -33.6809 H   0  0  0  0  0  0  0  0  0  0  0  0
   -8.8968   21.5025  -31.8317 H   0  0  0  0  0  0  0  0  0  0  0  0
   -9.4898   19.4861  -30.4829 H   0  0  0  0  0  0  0  0  0  0  0  0
   -8.4392   17.2809  -31.0053 H   0  0  0  0  0  0  0  0  0  0  0  0
   -6.7783   17.0957  -32.8580 H   0  0  0  0  0  0  0  0  0  0  0  0
   -3.4009   19.5410  -30.5816 H   0  0  0  0  0  0  0  0  0  0  0  0
   -3.7885   21.6352  -29.2824 H   0  0  0  0  0  0  0  0  0  0  0  0
  1  2  1  0
  2  3  2  0
  2  4  2  0
  2  5  1  0
  5  6  2  0
  6  7  1  0
  7  8  2  0
  8  9  1  0
  9 10  2  0
 10 11  1  0
 11 12  2  0
 12 13  1  0
 13 14  2  0
 14 15  1  0
 15 16  1  0
 16 17  2  0
 17 18  1  0
 18 19  2  0
 19 20  1  0
 20 21  2  0
  8 22  1  0
 22 23  2  0
 23  5  1  0
 14  9  1  0
 21 16  1  0
  1 24  1  0
  1 25  1  0
  1 26  1  0
  6 27  1  0
  7 28  1  0
 10 29  1  0
 11 30  1  0
 12 31  1  0
 17 32  1  0
 18 33  1  0
 19 34  1  0
 20 35  1  0
 21 36  1  0
 22 37  1  0
 23 38  1  0
M  END
>  <UniqueID>  (30) 
29

>  <SMILES>  (30) 
CS(=O)(=O)c1ccc(-c2cccnc2Oc2ccccc2)cc1

>  <Energy>  (30) 
50.51469759402008

>  <Genealogy>  (30) 
CS(=O)(=O)c1ccc(-c2cccnc2Oc2ccccc2)cc1 (3D coordinates assigned)
CS(=O)(=O)c1ccc(-c2cccnc2Oc2ccccc2)cc1 (optimized conformer: 50.51469759402008 kcal/mol)

>  <smiles>  (30) 
CS(=O)(=O)c1ccc(-c2cccnc2Oc2ccccc2)cc1

>  <score_type>  (30) 
oracle

>  <origin>  (30) 
adgpu

>  <m_score__min__energy>  (30) 
-8.5899999999999999

>  <m_primary>  (30) 
energy

$$$$
30:0
     RDKit          3D

 46 49  0  0  0  0  0  0  0  0999 V2000
   -3.0790   15.6260  -35.7390 C   0  0  0  0  0  0  0  0  0  0  0  0
   -3.0020   16.8410  -35.0010 O   0  0  0  0  0  0  0  0  0  0  0  0
   -4.1110   17.5090  -34.4580 C   0  0  0  0  0  0  0  0  0  0  0  0
   -5.3650   16.8910  -34.5420 C   0  0  0  0  0  0  0  0  0  0  0  0
   -6.5030   17.5130  -34.0190 C   0  0  0  0  0  0  0  0  0  0  0  0
   -6.3980   18.7640  -33.4050 C   0  0  0  0  0  0  0  0  0  0  0  0
   -7.5020   19.3710  -32.8970 N   0  0  0  0  0  0  0  0  0  0  0  0
   -7.4400   20.5880  -32.2930 C   0  0  0  0  0  0  0  0  0  0  0  0
   -6.2130   21.2640  -32.1780 C   0  0  0  0  0  0  0  0  0  0  0  0
   -6.1320   22.5970  -31.5300 C   0  0  0  0  0  0  0  0  0  0  0  0
   -7.2940   23.2590  -31.0930 C   0  0  0  0  0  0  0  0  0  0  0  0
   -7.2050   24.5070  -30.4730 C   0  0  0  0  0  0  0  0  0  0  0  0
   -5.9580   25.1010  -30.2630 C   0  0  0  0  0  0  0  0  0  0  0  0
   -4.7880   24.4480  -30.6650 C   0  0  0  0  0  0  0  0  0  0  0  0
   -3.5210   25.0840  -30.4300 N   0  0  0  0  0  0  0  0  0  0  0  0
   -2.4490   24.5540  -29.6410 C   0  0  0  0  0  0  0  0  0  0  0  0
   -1.8420   25.3200  -28.8470 O   0  0  0  0  0  0  0  0  0  0  0  0
   -2.0750   23.1750  -29.7570 N   0  0  0  0  0  0  0  0  0  0  0  0
   -2.1140   22.1700  -28.7340 C   0  0  0  0  0  0  0  0  0  0  0  0
   -2.9460   21.0380  -28.8240 C   0  0  0  0  0  0  0  0  0  0  0  0
   -2.9330   20.0740  -27.8110 C   0  0  0  0  0  0  0  0  0  0  0  0
   -2.0810   20.2210  -26.7080 C   0  0  0  0  0  0  0  0  0  0  0  0
   -2.0630   19.2680  -25.6930 O   0  0  0  0  0  0  0  0  0  0  0  0
   -1.2390   21.3330  -26.6270 C   0  0  0  0  0  0  0  0  0  0  0  0
   -1.2490   22.2970  -27.6390 C   0  0  0  0  0  0  0  0  0  0  0  0
   -4.8830   23.2140  -31.3310 C   0  0  0  0  0  0  0  0  0  0  0  0
   -5.0590   20.6500  -32.6930 C   0  0  0  0  0  0  0  0  0  0  0  0
   -5.1420   19.3970  -33.3120 C   0  0  0  0  0  0  0  0  0  0  0  0
   -4.0020   18.7690  -33.8380 C   0  0  0  0  0  0  0  0  0  0  0  0
   -3.1328   14.7765  -35.0422 H   0  0  0  0  0  0  0  0  0  0  0  0
   -3.9782   15.6381  -36.3725 H   0  0  0  0  0  0  0  0  0  0  0  0
   -2.1855   15.5245  -36.3725 H   0  0  0  0  0  0  0  0  0  0  0  0
   -5.4556   15.9065  -35.0242 H   0  0  0  0  0  0  0  0  0  0  0  0
   -7.4821   17.0169  -34.0910 H   0  0  0  0  0  0  0  0  0  0  0  0
   -8.3560   21.0462  -31.8919 H   0  0  0  0  0  0  0  0  0  0  0  0
   -8.2783   22.7907  -31.2406 H   0  0  0  0  0  0  0  0  0  0  0  0
   -8.1200   25.0243  -30.1488 H   0  0  0  0  0  0  0  0  0  0  0  0
   -5.8959   26.0869  -29.7792 H   0  0  0  0  0  0  0  0  0  0  0  0
   -3.6080   20.9114  -29.6933 H   0  0  0  0  0  0  0  0  0  0  0  0
   -3.5938   19.1973  -27.8802 H   0  0  0  0  0  0  0  0  0  0  0  0
   -2.7330   19.2890  -24.9340 H   0  0  0  0  0  0  0  0  0  0  0  0
   -0.5664   21.4501  -25.7645 H   0  0  0  0  0  0  0  0  0  0  0  0
   -0.5726   23.1621  -27.5753 H   0  0  0  0  0  0  0  0  0  0  0  0
   -3.9700   22.7246  -31.7011 H   0  0  0  0  0  0  0  0  0  0  0  0
   -4.0859   21.1560  -32.6095 H   0  0  0  0  0  0  0  0  0  0  0  0
   -3.0213   19.2621  -33.7658 H   0  0  0  0  0  0  0  0  0  0  0  0
  1  2  1  0
  2  3  1  0
  3  4  2  0
  4  5  1  0
  5  6  2  0
  6  7  1  0
  7  8  2  0
  8  9  1  0
  9 10  1  0
 10 11  2  0
 11 12  1  0
 12 13  2  0
 13 14  1  0
 14 15  1  0
 15 16  1  0
 16 17  2  0
 16 18  1  0
 18 19  1  0
 19 20  2  0
 20 21  1  0
 21 22  2  0
 22 23  1  0
 22 24  1  0
 24 25  2  0
 14 26  2  0
  9 27  2  0
 27 28  1  0
 28 29  2  0
 29  3  1  0
 28  6  1  0
 26 10  1  0
 25 19  1  0
  1 30  1  0
  1 31  1  0
  1 32  1  0
  4 33  1  0
  5 34  1  0
  8 35  1  0
 11 36  1  0
 12 37  1  0
 13 38  1  0
 20 39  1  0
 21 40  1  0
 23 41  1  0
 24 42  1  0
 25 43  1  0
 26 44  1  0
 27 45  1  0
 29 46  1  0
M  CHG  2  15  -1  18  -1
M  END
>  <UniqueID>  (31) 
30

>  <SMILES>  (31) 
COc1ccc2ncc(-c3cccc([N-]C(=O)[N-]c4ccc(O)cc4)c3)cc2c1

>  <Energy>  (31) 
64.14364151177656

>  <Genealogy>  (31) 
COc1ccc2ncc(-c3cccc([N-]C(=O)[N-]c4ccc(O)cc4)c3)cc2c1 (protonated)
COc1ccc2ncc(-c3cccc([N-]C(=O)[N-]c4ccc(O)cc4)c3)cc2c1 (3D coordinates assigned)
COc1ccc2ncc(-c3cccc([N-]C(=O)[N-]c4ccc(O)cc4)c3)cc2c1 (optimized conformer: 64.14364151177656 kcal/mol)

>  <smiles>  (31) 
COc1ccc2ncc(-c3cccc(NC(=O)Nc4ccc(O)cc4)c3)cc2c1

>  <score_type>  (31) 
oracle

>  <origin>  (31) 
adgpu

>  <m_score__min__energy>  (31) 
-12.69

>  <m_primary>  (31) 
energy

$$$$
31:0
     RDKit          3D

 41 43  0  0  0  0  0  0  0  0999 V2000
   -9.6680   18.6040  -32.6560 O   0  0  0  0  0  0  0  0  0  0  0  0
   -9.0330   19.6790  -32.4880 C   0  0  0  0  0  0  0  0  0  0  0  0
   -9.7650   20.9060  -32.3760 N   0  0  0  0  0  0  0  0  0  0  0  0
   -9.7180   21.8060  -31.2260 C   0  0  0  0  0  0  0  0  0  0  0  0
   -8.4250   22.5750  -31.2180 C   0  0  0  0  0  0  0  0  0  0  0  0
   -7.5780   22.5230  -30.1030 C   0  0  0  0  0  0  0  0  0  0  0  0
   -6.4000   23.2720  -30.0840 C   0  0  0  0  0  0  0  0  0  0  0  0
   -6.0820   24.0730  -31.1810 C   0  0  0  0  0  0  0  0  0  0  0  0
   -6.9140   24.1170  -32.2560 N   0  0  0  0  0  0  0  0  0  0  0  0
   -8.0640   23.3930  -32.3000 C   0  0  0  0  0  0  0  0  0  0  0  0
   -7.5620   19.6420  -32.4270 C   0  0  0  0  0  0  0  0  0  0  0  0
   -6.7980   20.6210  -33.0800 C   0  0  0  0  0  0  0  0  0  0  0  0
   -5.4030   20.5890  -33.0090 C   0  0  0  0  0  0  0  0  0  0  0  0
   -4.7540   19.5710  -32.3000 C   0  0  0  0  0  0  0  0  0  0  0  0
   -3.3220   19.5870  -32.2140 N   0  0  0  0  0  0  0  0  0  0  0  0
   -2.5140   20.7650  -32.0960 C   0  0  0  0  0  0  0  0  0  0  0  0
   -1.5970   20.9570  -32.9380 O   0  0  0  0  0  0  0  0  0  0  0  0
   -2.6970   21.7230  -30.9830 C   0  0  0  0  0  0  0  0  0  0  0  0
   -2.9730   23.0760  -31.2430 C   0  0  0  0  0  0  0  0  0  0  0  0
   -3.1910   23.9690  -30.1890 C   0  0  0  0  0  0  0  0  0  0  0  0
   -3.4970   25.2970  -30.4640 O   0  0  0  0  0  0  0  0  0  0  0  0
   -3.1150   23.5280  -28.8630 C   0  0  0  0  0  0  0  0  0  0  0  0
   -3.3200   24.4380  -27.8260 O   0  0  0  0  0  0  0  0  0  0  0  0
   -2.8370   22.1760  -28.5960 C   0  0  0  0  0  0  0  0  0  0  0  0
   -2.7600   21.7180  -27.2860 O   0  0  0  0  0  0  0  0  0  0  0  0
   -2.6410   21.2800  -29.6520 C   0  0  0  0  0  0  0  0  0  0  0  0
   -5.5190   18.6010  -31.6300 C   0  0  0  0  0  0  0  0  0  0  0  0
   -6.9150   18.6410  -31.6880 C   0  0  0  0  0  0  0  0  0  0  0  0
  -10.5598   22.5118  -31.2828 H   0  0  0  0  0  0  0  0  0  0  0  0
   -9.7867   21.2115  -30.3030 H   0  0  0  0  0  0  0  0  0  0  0  0
   -7.8415   21.8914  -29.2418 H   0  0  0  0  0  0  0  0  0  0  0  0
   -5.7295   23.2310  -29.2130 H   0  0  0  0  0  0  0  0  0  0  0  0
   -5.1577   24.6694  -31.1765 H   0  0  0  0  0  0  0  0  0  0  0  0
   -8.7134   23.4485  -33.1861 H   0  0  0  0  0  0  0  0  0  0  0  0
   -7.2993   21.4170  -33.6502 H   0  0  0  0  0  0  0  0  0  0  0  0
   -4.8115   21.3677  -33.5128 H   0  0  0  0  0  0  0  0  0  0  0  0
   -3.0179   23.4350  -32.2818 H   0  0  0  0  0  0  0  0  0  0  0  0
   -3.7280   25.3510  -27.9850 H   0  0  0  0  0  0  0  0  0  0  0  0
   -2.4414   20.2197  -29.4379 H   0  0  0  0  0  0  0  0  0  0  0  0
   -5.0171   17.8070  -31.0576 H   0  0  0  0  0  0  0  0  0  0  0  0
   -7.5079   17.8850  -31.1524 H   0  0  0  0  0  0  0  0  0  0  0  0
  1  2  2  0
  2  3  1  0
  3  4  1  0
  4  5  1  0
  5  6  2  0
  6  7  1  0
  7  8  2  0
  8  9  1  0
  9 10  2  0
  2 11  1  0
 11 12  2  0
 12 13  1  0
 13 14  2  0
 14 15  1  0
 15 16  1  0
 16 17  2  0
 16 18  1  0
 18 19  2  0
 19 20  1  0
 20 21  1  0
 20 22  2  0
 22 23  1  0
 22 24  1  0
 24 25  1  0
 24 26  2  0
 14 27  1  0
 27 28  2  0
 10  5  1  0
 28 11  1  0
 26 18  1  0
  4 29  1  0
  4 30  1  0
  6 31  1  0
  7 32  1  0
  8 33  1  0
 10 34  1  0
 12 35  1  0
 13 36  1  0
 19 37  1  0
 23 38  1  0
 26 39  1  0
 27 40  1  0
 28 41  1  0
M  CHG  4   3  -1  15  -1  21  -1  25  -1
M  END
>  <UniqueID>  (32) 
31

>  <SMILES>  (32) 
O=C([N-]Cc1cccnc1)c1ccc([N-]C(=O)c2cc([O-])c(O)c([O-])c2)cc1

>  <Energy>  (32) 
53.561401448357046

>  <Genealogy>  (32) 
O=C([N-]Cc1cccnc1)c1ccc([N-]C(=O)c2cc([O-])c(O)c([O-])c2)cc1 (protonated)
O=C([N-]Cc1cccnc1)c1ccc([N-]C(=O)c2cc([O-])c(O)c([O-])c2)cc1 (3D coordinates assigned)
O=C([N-]Cc1cccnc1)c1ccc([N-]C(=O)c2cc([O-])c(O)c([O-])c2)cc1 (optimized conformer: 53.561401448357046 kcal/mol)

>  <smiles>  (32) 
O=C(NCc1cccnc1)c1ccc(NC(=O)c2cc(O)c(O)c(O)c2)cc1

>  <score_type>  (32) 
oracle

>  <origin>  (32) 
adgpu

>  <m_score__min__energy>  (32) 
-12.029999999999999

>  <m_primary>  (32) 
energy

$$$$
32:0
     RDKit          3D

 39 41  0  0  0  0  0  0  0  0999 V2000
   -8.5520   22.4020  -31.7080 C   0  0  0  0  0  0  0  0  0  0  0  0
   -7.2370   23.0370  -31.3660 C   0  0  0  0  0  0  0  0  0  0  0  0
   -7.1950   24.1990  -30.5830 C   0  0  0  0  0  0  0  0  0  0  0  0
   -5.9720   24.8110  -30.2950 C   0  0  0  0  0  0  0  0  0  0  0  0
   -4.7770   24.2800  -30.7910 C   0  0  0  0  0  0  0  0  0  0  0  0
   -3.5450   24.9370  -30.4650 N   0  0  0  0  0  0  0  0  0  0  0  0
   -2.5490   24.5660  -29.0950 S   0  0  0  0  0  0  0  0  0  0  0  0
   -3.4000   24.5470  -27.8570 O   0  0  0  0  0  0  0  0  0  0  0  0
   -1.4970   25.6300  -28.9500 O   0  0  0  0  0  0  0  0  0  0  0  0
   -1.8120   22.9800  -29.3030 C   0  0  0  0  0  0  0  0  0  0  0  0
   -1.9040   22.0310  -28.2780 C   0  0  0  0  0  0  0  0  0  0  0  0
   -1.3460   20.7610  -28.4450 C   0  0  0  0  0  0  0  0  0  0  0  0
   -0.6840   20.4370  -29.6330 C   0  0  0  0  0  0  0  0  0  0  0  0
   -0.5600   21.3930  -30.6560 C   0  0  0  0  0  0  0  0  0  0  0  0
    0.0840   21.0810  -31.8990 N   0  0  0  0  0  0  0  0  0  0  0  0
   -0.5390   21.0600  -33.1900 C   0  0  0  0  0  0  0  0  0  0  0  0
    0.0790   21.5500  -34.1710 O   0  0  0  0  0  0  0  0  0  0  0  0
   -1.8450   20.4120  -33.4070 C   0  0  0  0  0  0  0  0  0  0  0  0
   -3.0760   20.9470  -33.0780 C   0  0  0  0  0  0  0  0  0  0  0  0
   -4.0060   20.0090  -33.4700 C   0  0  0  0  0  0  0  0  0  0  0  0
   -3.2890   18.9640  -34.0170 C   0  0  0  0  0  0  0  0  0  0  0  0
   -2.0050   19.2350  -33.9670 O   0  0  0  0  0  0  0  0  0  0  0  0
   -1.1430   22.6550  -30.4920 C   0  0  0  0  0  0  0  0  0  0  0  0
   -4.8200   23.1270  -31.5970 C   0  0  0  0  0  0  0  0  0  0  0  0
   -6.0430   22.5140  -31.8850 C   0  0  0  0  0  0  0  0  0  0  0  0
   -9.0864   22.1439  -30.7818 H   0  0  0  0  0  0  0  0  0  0  0  0
   -9.1576   23.1070  -32.2965 H   0  0  0  0  0  0  0  0  0  0  0  0
   -8.3765   21.4894  -32.2965 H   0  0  0  0  0  0  0  0  0  0  0  0
   -8.1287   24.6310  -30.1936 H   0  0  0  0  0  0  0  0  0  0  0  0
   -5.9491   25.7180  -29.6730 H   0  0  0  0  0  0  0  0  0  0  0  0
   -2.4168   22.2858  -27.3388 H   0  0  0  0  0  0  0  0  0  0  0  0
   -1.4277   20.0151  -27.6407 H   0  0  0  0  0  0  0  0  0  0  0  0
   -0.2591   19.4313  -29.7675 H   0  0  0  0  0  0  0  0  0  0  0  0
   -3.2724   21.9192  -32.6023 H   0  0  0  0  0  0  0  0  0  0  0  0
   -5.0990   20.0788  -33.3677 H   0  0  0  0  0  0  0  0  0  0  0  0
   -3.7266   18.0440  -34.4318 H   0  0  0  0  0  0  0  0  0  0  0  0
   -1.0760   23.3970  -31.3013 H   0  0  0  0  0  0  0  0  0  0  0  0
   -3.8877   22.7065  -32.0019 H   0  0  0  0  0  0  0  0  0  0  0  0
   -6.0693   21.6173  -32.5216 H   0  0  0  0  0  0  0  0  0  0  0  0
  1  2  1  0
  2  3  2  0
  3  4  1  0
  4  5  2  0
  5  6  1  0
  6  7  1  0
  7  8  2  0
  7  9  2  0
  7 10  1  0
 10 11  2  0
 11 12  1  0
 12 13  2  0
 13 14  1  0
 14 15  1  0
 15 16  1  0
 16 17  2  0
 16 18  1  0
 18 19  2  0
 19 20  1  0
 20 21  2  0
 21 22  1  0
 14 23  2  0
  5 24  1  0
 24 25  2  0
 25  2  1  0
 23 10  1  0
 22 18  1  0
  1 26  1  0
  1 27  1  0
  1 28  1  0
  3 29  1  0
  4 30  1  0
 11 31  1  0
 12 32  1  0
 13 33  1  0
 19 34  1  0
 20 35  1  0
 21 36  1  0
 23 37  1  0
 24 38  1  0
 25 39  1  0
M  CHG  2   6  -1  15  -1
M  END
>  <UniqueID>  (33) 
32

>  <SMILES>  (33) 
Cc1ccc([N-]S(=O)(=O)c2cccc([N-]C(=O)c3ccco3)c2)cc1

>  <Energy>  (33) 
73.8933000532778

>  <Genealogy>  (33) 
Cc1ccc([N-]S(=O)(=O)c2cccc([N-]C(=O)c3ccco3)c2)cc1 (protonated)
Cc1ccc([N-]S(=O)(=O)c2cccc([N-]C(=O)c3ccco3)c2)cc1 (3D coordinates assigned)
Cc1ccc([N-]S(=O)(=O)c2cccc([N-]C(=O)c3ccco3)c2)cc1 (optimized conformer: 73.8933000532778 kcal/mol)

>  <smiles>  (33) 
Cc1ccc(NS(=O)(=O)c2cccc(NC(=O)c3ccco3)c2)cc1

>  <score_type>  (33) 
oracle

>  <origin>  (33) 
adgpu

>  <m_score__min__energy>  (33) 
-10.02

>  <m_primary>  (33) 
energy

$$$$
33:0
     RDKit          3D

 32 34  0  0  0  0  0  0  0  0999 V2000
   -9.1540   21.5420  -31.2630 C   0  0  0  0  0  0  0  0  0  0  0  0
   -7.8900   22.3130  -30.9080 C   0  0  0  0  0  0  0  0  0  0  0  0
   -6.8350   22.5370  -32.3830 S   0  0  0  0  0  0  0  0  0  0  0  0
   -5.6110   23.5490  -31.5450 C   0  0  0  0  0  0  0  0  0  0  0  0
   -5.6110   24.8930  -31.5850 N   0  0  0  0  0  0  0  0  0  0  0  0
   -4.5910   25.3000  -30.8430 N   0  0  0  0  0  0  0  0  0  0  0  0
   -3.9790   24.1970  -30.3650 C   0  0  0  0  0  0  0  0  0  0  0  0
   -2.8110   24.2640  -29.4660 C   0  0  0  0  0  0  0  0  0  0  0  0
   -2.3870   23.2440  -28.6340 C   0  0  0  0  0  0  0  0  0  0  0  0
   -1.2680   23.7270  -27.9910 C   0  0  0  0  0  0  0  0  0  0  0  0
   -1.0760   25.0070  -28.4680 C   0  0  0  0  0  0  0  0  0  0  0  0
   -2.0100   25.2960  -29.3440 O   0  0  0  0  0  0  0  0  0  0  0  0
   -4.5910   23.0710  -30.8020 N   0  0  0  0  0  0  0  0  0  0  0  0
   -4.2850   21.6670  -30.5190 C   0  0  0  0  0  0  0  0  0  0  0  0
   -3.8810   20.9570  -31.7740 C   0  0  0  0  0  0  0  0  0  0  0  0
   -4.5780   19.9210  -32.3820 C   0  0  0  0  0  0  0  0  0  0  0  0
   -3.9500   19.4350  -33.5340 C   0  0  0  0  0  0  0  0  0  0  0  0
   -2.7610   20.0860  -33.8370 C   0  0  0  0  0  0  0  0  0  0  0  0
   -2.4920   21.2650  -32.6700 S   0  0  0  0  0  0  0  0  0  0  0  0
   -9.6648   21.2304  -30.3400 H   0  0  0  0  0  0  0  0  0  0  0  0
   -9.8229   22.1860  -31.8527 H   0  0  0  0  0  0  0  0  0  0  0  0
   -8.8875   20.6525  -31.8527 H   0  0  0  0  0  0  0  0  0  0  0  0
   -8.1687   23.2999  -30.5101 H   0  0  0  0  0  0  0  0  0  0  0  0
   -7.3276   21.7426  -30.1541 H   0  0  0  0  0  0  0  0  0  0  0  0
   -2.8475   22.2526  -28.5110 H   0  0  0  0  0  0  0  0  0  0  0  0
   -0.6525   23.1988  -27.2479 H   0  0  0  0  0  0  0  0  0  0  0  0
   -0.2640   25.6826  -28.1611 H   0  0  0  0  0  0  0  0  0  0  0  0
   -3.4611   21.6151  -29.7921 H   0  0  0  0  0  0  0  0  0  0  0  0
   -5.1829   21.1821  -30.1083 H   0  0  0  0  0  0  0  0  0  0  0  0
   -5.5282   19.5226  -31.9967 H   0  0  0  0  0  0  0  0  0  0  0  0
   -4.3592   18.6149  -34.1422 H   0  0  0  0  0  0  0  0  0  0  0  0
   -2.1073   19.8673  -34.6942 H   0  0  0  0  0  0  0  0  0  0  0  0
  1  2  1  0
  2  3  1  0
  3  4  1  0
  4  5  2  0
  5  6  1  0
  6  7  2  0
  7  8  1  0
  8  9  2  0
  9 10  1  0
 10 11  2  0
 11 12  1  0
  7 13  1  0
 13 14  1  0
 14 15  1  0
 15 16  2  0
 16 17  1  0
 17 18  2  0
 18 19  1  0
 13  4  1  0
 19 15  1  0
 12  8  1  0
  1 20  1  0
  1 21  1  0
  1 22  1  0
  2 23  1  0
  2 24  1  0
  9 25  1  0
 10 26  1  0
 11 27  1  0
 14 28  1  0
 14 29  1  0
 16 30  1  0
 17 31  1  0
 18 32  1  0
M  END
>  <UniqueID>  (34) 
33

>  <SMILES>  (34) 
CCSc1nnc(-c2ccco2)n1Cc1cccs1

>  <Energy>  (34) 
112.08821612393196

>  <Genealogy>  (34) 
CCSc1nnc(-c2ccco2)n1Cc1cccs1 (3D coordinates assigned)
CCSc1nnc(-c2ccco2)n1Cc1cccs1 (optimized conformer: 112.08821612393196 kcal/mol)

>  <smiles>  (34) 
CCSc1nnc(-c2ccco2)n1Cc1cccs1

>  <score_type>  (34) 
oracle

>  <origin>  (34) 
adgpu

>  <m_score__min__energy>  (34) 
-7.2300000000000004

>  <m_primary>  (34) 
energy

$$$$
34:0
     RDKit          3D

 41 44  0  0  0  0  0  0  0  0999 V2000
    1.3740   23.0170  -35.7050 C   0  0  0  0  0  0  0  0  0  0  0  0
    0.7040   21.7450  -35.2930 C   0  0  0  0  0  0  0  0  0  0  0  0
    1.3050   20.5100  -35.5610 C   0  0  0  0  0  0  0  0  0  0  0  0
    0.6690   19.3390  -35.1510 C   0  0  0  0  0  0  0  0  0  0  0  0
   -0.5560   19.4060  -34.4850 C   0  0  0  0  0  0  0  0  0  0  0  0
   -1.1440   20.6590  -34.2430 C   0  0  0  0  0  0  0  0  0  0  0  0
   -2.3980   20.7830  -33.5470 N   0  0  0  0  0  0  0  0  0  0  0  0
   -2.7460   21.8550  -32.8500 N   0  0  0  0  0  0  0  0  0  0  0  0
   -3.9830   21.6730  -32.3400 C   0  0  0  0  0  0  0  0  0  0  0  0
   -4.6470   22.6460  -31.4450 C   0  0  0  0  0  0  0  0  0  0  0  0
   -4.1940   22.8450  -30.1310 C   0  0  0  0  0  0  0  0  0  0  0  0
   -4.8350   23.7790  -29.3140 C   0  0  0  0  0  0  0  0  0  0  0  0
   -5.8830   24.4990  -29.7940 N   0  0  0  0  0  0  0  0  0  0  0  0
   -6.3340   24.3390  -31.0650 C   0  0  0  0  0  0  0  0  0  0  0  0
   -5.7220   23.4150  -31.9150 C   0  0  0  0  0  0  0  0  0  0  0  0
   -4.4590   20.4270  -32.7490 C   0  0  0  0  0  0  0  0  0  0  0  0
   -5.7980   19.8310  -32.5470 C   0  0  0  0  0  0  0  0  0  0  0  0
   -5.9350   18.5630  -31.9590 C   0  0  0  0  0  0  0  0  0  0  0  0
   -7.2040   18.0070  -31.7660 C   0  0  0  0  0  0  0  0  0  0  0  0
   -8.3460   18.7160  -32.1520 C   0  0  0  0  0  0  0  0  0  0  0  0
   -9.5750   18.1750  -31.9650 F   0  0  0  0  0  0  0  0  0  0  0  0
   -8.2190   19.9820  -32.7280 C   0  0  0  0  0  0  0  0  0  0  0  0
   -6.9520   20.5410  -32.9220 C   0  0  0  0  0  0  0  0  0  0  0  0
   -3.4270   19.9090  -33.5120 C   0  0  0  0  0  0  0  0  0  0  0  0
   -3.4650   18.8210  -34.1450 O   0  0  0  0  0  0  0  0  0  0  0  0
   -0.4900   21.7870  -34.6420 N   0  0  0  0  0  0  0  0  0  0  0  0
    1.6714   23.5816  -34.8091 H   0  0  0  0  0  0  0  0  0  0  0  0
    2.2663   22.7839  -36.3045 H   0  0  0  0  0  0  0  0  0  0  0  0
    0.6770   23.6210  -36.3045 H   0  0  0  0  0  0  0  0  0  0  0  0
    2.2687   20.4636  -36.0894 H   0  0  0  0  0  0  0  0  0  0  0  0
    1.1326   18.3620  -35.3524 H   0  0  0  0  0  0  0  0  0  0  0  0
   -1.0571   18.4850  -34.1522 H   0  0  0  0  0  0  0  0  0  0  0  0
   -2.1330   22.6870  -32.6950 H   0  0  0  0  0  0  0  0  0  0  0  0
   -3.3393   22.2687  -29.7473 H   0  0  0  0  0  0  0  0  0  0  0  0
   -4.4911   23.9321  -28.2804 H   0  0  0  0  0  0  0  0  0  0  0  0
   -7.1829   24.9383  -31.4257 H   0  0  0  0  0  0  0  0  0  0  0  0
   -6.0810   23.2910  -32.9473 H   0  0  0  0  0  0  0  0  0  0  0  0
   -5.0398   18.0042  -31.6486 H   0  0  0  0  0  0  0  0  0  0  0  0
   -7.3038   17.0109  -31.3101 H   0  0  0  0  0  0  0  0  0  0  0  0
   -9.1174   20.5405  -33.0296 H   0  0  0  0  0  0  0  0  0  0  0  0
   -6.8578   21.5411  -33.3702 H   0  0  0  0  0  0  0  0  0  0  0  0
  1  2  1  0
  2  3  2  0
  3  4  1  0
  4  5  2  0
  5  6  1  0
  6  7  1  0
  7  8  1  0
  8  9  1  0
  9 10  1  0
 10 11  2  0
 11 12  1  0
 12 13  2  0
 13 14  1  0
 14 15  2  0
  9 16  2  0
 16 17  1  0
 17 18  2  0
 18 19  1  0
 19 20  2  0
 20 21  1  0
 20 22  1  0
 22 23  2  0
 16 24  1  0
 24 25  2  0
  6 26  2  0
 26  2  1  0
 24  7  1  0
 15 10  1  0
 23 17  1  0
  1 27  1  0
  1 28  1  0
  1 29  1  0
  3 30  1  0
  4 31  1  0
  5 32  1  0
  8 33  1  0
 11 34  1  0
 12 35  1  0
 14 36  1  0
 15 37  1  0
 18 38  1  0
 19 39  1  0
 22 40  1  0
 23 41  1  0
M  END
>  <UniqueID>  (35) 
34

>  <SMILES>  (35) 
Cc1cccc(-n2[nH]c(-c3ccncc3)c(-c3ccc(F)cc3)c2=O)n1

>  <Energy>  (35) 
91.1721829916998

>  <Genealogy>  (35) 
Cc1cccc(-n2[nH]c(-c3ccncc3)c(-c3ccc(F)cc3)c2=O)n1 (3D coordinates assigned)
Cc1cccc(-n2[nH]c(-c3ccncc3)c(-c3ccc(F)cc3)c2=O)n1 (optimized conformer: 91.1721829916998 kcal/mol)

>  <smiles>  (35) 
Cc1cccc(-n2[nH]c(-c3ccncc3)c(-c3ccc(F)cc3)c2=O)n1

>  <score_type>  (35) 
oracle

>  <origin>  (35) 
adgpu

>  <m_score__min__energy>  (35) 
-7.9500000000000002

>  <m_primary>  (35) 
energy

$$$$
35:0
     RDKit          3D

 37 39  0  0  0  0  0  0  0  0999 V2000
   -5.3555   15.5016  -34.6686 H   0  0  0  0  0  0  0  0  0  0  0  0
   -5.7060   16.4370  -34.2080 C   0  0  0  0  0  0  0  0  0  0  0  0
   -6.8900   16.4480  -33.4710 C   0  0  0  0  0  0  0  0  0  0  0  0
   -7.4692   15.5211  -33.3469 H   0  0  0  0  0  0  0  0  0  0  0  0
   -7.3400   17.6350  -32.8910 C   0  0  0  0  0  0  0  0  0  0  0  0
   -8.2731   17.6378  -32.3084 H   0  0  0  0  0  0  0  0  0  0  0  0
   -6.6110   18.8270  -33.0450 C   0  0  0  0  0  0  0  0  0  0  0  0
   -7.1220   20.0770  -32.4300 C   0  0  0  0  0  0  0  0  0  0  0  0
   -8.5020   20.3230  -32.3730 C   0  0  0  0  0  0  0  0  0  0  0  0
   -9.2070   19.5845  -32.7823 H   0  0  0  0  0  0  0  0  0  0  0  0
   -8.9840   21.4990  -31.8000 C   0  0  0  0  0  0  0  0  0  0  0  0
  -10.0675   21.6844  -31.7595 H   0  0  0  0  0  0  0  0  0  0  0  0
   -8.0970   22.4430  -31.2770 C   0  0  0  0  0  0  0  0  0  0  0  0
   -8.4876   23.3658  -30.8232 H   0  0  0  0  0  0  0  0  0  0  0  0
   -6.7070   22.2230  -31.3260 C   0  0  0  0  0  0  0  0  0  0  0  0
   -5.7520   23.2210  -30.7760 C   0  0  0  0  0  0  0  0  0  0  0  0
   -4.1800   22.8880  -30.2450 S   0  0  0  0  0  0  0  0  0  0  0  0
   -3.8670   24.4860  -29.8160 C   0  0  0  0  0  0  0  0  0  0  0  0
   -2.7590   24.9350  -29.3090 N   0  0  0  0  0  0  0  0  0  0  0  0
   -1.5940   24.1040  -29.0290 C   0  0  0  0  0  0  0  0  0  0  0  0
   -1.4632   24.0107  -27.9408 H   0  0  0  0  0  0  0  0  0  0  0  0
   -1.7415   23.1060  -29.4675 H   0  0  0  0  0  0  0  0  0  0  0  0
   -0.6984   24.5684  -29.4675 H   0  0  0  0  0  0  0  0  0  0  0  0
   -4.9310   25.2770  -30.0630 N   0  0  0  0  0  0  0  0  0  0  0  0
   -4.9530   26.3030  -29.8680 H   0  0  0  0  0  0  0  0  0  0  0  0
   -5.9790   24.5910  -30.5930 C   0  0  0  0  0  0  0  0  0  0  0  0
   -6.9310   25.0745  -30.8574 H   0  0  0  0  0  0  0  0  0  0  0  0
   -6.2320   21.0360  -31.9130 C   0  0  0  0  0  0  0  0  0  0  0  0
   -5.1484   20.8550  -31.9686 H   0  0  0  0  0  0  0  0  0  0  0  0
   -5.4020   18.8160  -33.7780 C   0  0  0  0  0  0  0  0  0  0  0  0
   -4.6610   20.0070  -33.8870 O   0  0  0  0  0  0  0  0  0  0  0  0
   -3.3710   20.2370  -33.3280 C   0  0  0  0  0  0  0  0  0  0  0  0
   -2.3940   19.6890  -34.1420 F   0  0  0  0  0  0  0  0  0  0  0  0
   -3.2940   19.6860  -32.0620 F   0  0  0  0  0  0  0  0  0  0  0  0
   -3.1590   21.5990  -33.2350 F   0  0  0  0  0  0  0  0  0  0  0  0
   -4.9640   17.6100  -34.3630 C   0  0  0  0  0  0  0  0  0  0  0  0
   -4.0311   17.5930  -34.9456 H   0  0  0  0  0  0  0  0  0  0  0  0
  1  2  1  0
  2  3  2  0
  3  4  1  0
  3  5  1  0
  5  6  1  0
  5  7  2  0
  7  8  1  0
  8  9  2  0
  9 10  1  0
  9 11  1  0
 11 12  1  0
 11 13  2  0
 13 14  1  0
 13 15  1  0
 15 16  1  0
 16 17  1  0
 17 18  1  0
 18 19  2  0
 19 20  1  0
 20 21  1  0
 20 22  1  0
 20 23  1  0
 18 24  1  0
 24 25  1  0
 24 26  1  0
 26 27  1  0
 15 28  2  0
 28 29  1  0
  7 30  1  0
 30 31  1  0
 31 32  1  0
 32 33  1  0
 32 34  1  0
 32 35  1  0
 30 36  2  0
 36 37  1  0
 36  2  1  0
 28  8  1  0
 26 16  2  0
M  END
>  <UniqueID>  (36) 
35

>  <SMILES>  (36) 
C/N=c1/[nH]cc(-c2cccc(-c3ccccc3OC(F)(F)F)c2)s1

>  <Energy>  (36) 
77.46527444645315

>  <Genealogy>  (36) 
C/N=c1/[nH]cc(-c2cccc(-c3ccccc3OC(F)(F)F)c2)s1 (cis-trans isomerization)
C/N=c1/[nH]cc(-c2cccc(-c3ccccc3OC(F)(F)F)c2)s1 (3D coordinates assigned)
C/N=c1/[nH]cc(-c2cccc(-c3ccccc3OC(F)(F)F)c2)s1 (optimized conformer: 77.46527444645315 kcal/mol)

>  <smiles>  (36) 
CN=c1[nH]cc(-c2cccc(-c3ccccc3OC(F)(F)F)c2)s1

>  <score_type>  (36) 
oracle

>  <origin>  (36) 
adgpu

>  <m_score__min__energy>  (36) 
-8.6600000000000001

>  <m_primary>  (36) 
energy

$$$$
36:0
     RDKit          3D

 23 24  0  0  0  0  0  0  0  0999 V2000
   -7.5501   21.4583  -31.5052 H   0  0  0  0  0  0  0  0  0  0  0  0
   -6.5920   21.0660  -31.8770 C   0  0  0  0  0  0  0  0  0  0  0  0
   -5.5060   21.7580  -31.7040 N   0  0  0  0  0  0  0  0  0  0  0  0
   -5.4570   23.0300  -31.0480 C   0  0  0  0  0  0  0  0  0  0  0  0
   -6.5980   23.7080  -30.7390 N   0  0  0  0  0  0  0  0  0  0  0  0
   -6.5500   24.9140  -30.1160 C   0  0  0  0  0  0  0  0  0  0  0  0
   -7.6180   25.5210  -29.8420 O   0  0  0  0  0  0  0  0  0  0  0  0
   -5.3170   25.4770  -29.7850 C   0  0  0  0  0  0  0  0  0  0  0  0
   -5.2606   26.4538  -29.2823 H   0  0  0  0  0  0  0  0  0  0  0  0
   -4.1570   24.7710  -30.1070 C   0  0  0  0  0  0  0  0  0  0  0  0
   -2.9100   25.2970  -29.7940 O   0  0  0  0  0  0  0  0  0  0  0  0
   -4.2480   23.5670  -30.7300 N   0  0  0  0  0  0  0  0  0  0  0  0
   -6.5580   19.7600  -32.5660 C   0  0  0  0  0  0  0  0  0  0  0  0
   -5.8250   19.6270  -33.7560 C   0  0  0  0  0  0  0  0  0  0  0  0
   -5.2829   20.4929  -34.1639 H   0  0  0  0  0  0  0  0  0  0  0  0
   -5.7800   18.4000  -34.4260 C   0  0  0  0  0  0  0  0  0  0  0  0
   -5.2035   18.3044  -35.3579 H   0  0  0  0  0  0  0  0  0  0  0  0
   -6.4660   17.2950  -33.9140 C   0  0  0  0  0  0  0  0  0  0  0  0
   -6.4200   16.0780  -34.5800 O   0  0  0  0  0  0  0  0  0  0  0  0
   -7.2000   17.4180  -32.7290 C   0  0  0  0  0  0  0  0  0  0  0  0
   -7.7409   16.5493  -32.3255 H   0  0  0  0  0  0  0  0  0  0  0  0
   -7.2470   18.6430  -32.0570 C   0  0  0  0  0  0  0  0  0  0  0  0
   -7.8253   18.7345  -31.1258 H   0  0  0  0  0  0  0  0  0  0  0  0
  1  2  1  0
  2  3  2  0
  3  4  1  0
  4  5  2  0
  5  6  1  0
  6  7  2  0
  6  8  1  0
  8  9  1  0
  8 10  2  0
 10 11  1  0
 10 12  1  0
  2 13  1  0
 13 14  2  0
 14 15  1  0
 14 16  1  0
 16 17  1  0
 16 18  2  0
 18 19  1  0
 18 20  1  0
 20 21  1  0
 20 22  2  0
 22 23  1  0
 12  4  1  0
 22 13  1  0
M  CHG  3  11  -1  12  -1  19  -1
M  END
>  <UniqueID>  (37) 
36

>  <SMILES>  (37) 
O=c1cc([O-])[n-]c(/N=C/c2ccc([O-])cc2)n1

>  <Energy>  (37) 
25.324243583603156

>  <Genealogy>  (37) 
O=c1cc([O-])[n-]c(N=Cc2ccc([O-])cc2)n1 (protonated)
O=c1cc([O-])[n-]c(/N=C/c2ccc([O-])cc2)n1 (cis-trans isomerization)
O=c1cc([O-])[n-]c(/N=C/c2ccc([O-])cc2)n1 (3D coordinates assigned)
O=c1cc([O-])[n-]c(/N=C/c2ccc([O-])cc2)n1 (optimized conformer: 25.324243583603156 kcal/mol)

>  <smiles>  (37) 
O=c1cc(O)[nH]c(N=Cc2ccc(O)cc2)n1

>  <score_type>  (37) 
oracle

>  <origin>  (37) 
adgpu

>  <m_score__min__energy>  (37) 
-9.3200000000000003

>  <m_primary>  (37) 
energy

$$$$
37:0
     RDKit          3D

 45 47  0  0  0  0  0  0  0  0999 V2000
   -4.3490   13.1070  -31.2200 C   0  0  0  0  0  0  0  0  0  0  0  0
   -3.9500   14.2240  -32.1390 C   0  0  0  0  0  0  0  0  0  0  0  0
   -2.7280   14.3610  -32.4180 O   0  0  0  0  0  0  0  0  0  0  0  0
   -4.9510   15.1590  -32.7220 C   0  0  0  0  0  0  0  0  0  0  0  0
   -5.8260   14.7130  -33.7300 C   0  0  0  0  0  0  0  0  0  0  0  0
   -6.7600   15.5830  -34.2950 C   0  0  0  0  0  0  0  0  0  0  0  0
   -6.8440   16.9060  -33.8590 C   0  0  0  0  0  0  0  0  0  0  0  0
   -6.0000   17.3680  -32.8370 C   0  0  0  0  0  0  0  0  0  0  0  0
   -6.0460   18.7340  -32.3880 N   0  0  0  0  0  0  0  0  0  0  0  0
   -7.2500   19.5230  -32.3420 C   0  0  0  0  0  0  0  0  0  0  0  0
   -8.3610   18.9930  -32.6200 O   0  0  0  0  0  0  0  0  0  0  0  0
   -7.2160   20.9570  -31.9650 C   0  0  0  0  0  0  0  0  0  0  0  0
   -8.4100   21.7000  -31.9430 C   0  0  0  0  0  0  0  0  0  0  0  0
   -8.3980   23.0530  -31.5930 C   0  0  0  0  0  0  0  0  0  0  0  0
   -7.1980   23.6770  -31.2480 C   0  0  0  0  0  0  0  0  0  0  0  0
   -6.0030   22.9470  -31.2450 C   0  0  0  0  0  0  0  0  0  0  0  0
   -4.4880   23.7170  -30.7800 S   0  0  0  0  0  0  0  0  0  0  0  0
   -4.5370   25.1970  -31.0470 O   0  0  0  0  0  0  0  0  0  0  0  0
   -3.3700   23.1120  -31.5800 O   0  0  0  0  0  0  0  0  0  0  0  0
   -4.1870   23.4550  -29.0930 N   0  0  0  0  0  0  0  0  0  0  0  0
   -3.2710   24.2140  -28.2900 C   0  0  0  0  0  0  0  0  0  0  0  0
   -3.6260   24.5140  -26.9690 C   0  0  0  0  0  0  0  0  0  0  0  0
   -2.7630   25.2540  -26.1540 C   0  0  0  0  0  0  0  0  0  0  0  0
   -1.5340   25.6930  -26.6540 C   0  0  0  0  0  0  0  0  0  0  0  0
   -1.1680   25.3930  -27.9690 C   0  0  0  0  0  0  0  0  0  0  0  0
   -2.0300   24.6570  -28.7880 C   0  0  0  0  0  0  0  0  0  0  0  0
   -6.0140   21.5920  -31.6010 C   0  0  0  0  0  0  0  0  0  0  0  0
   -5.0440   16.4970  -32.2890 C   0  0  0  0  0  0  0  0  0  0  0  0
   -4.2328   13.4322  -30.1756 H   0  0  0  0  0  0  0  0  0  0  0  0
   -5.3991   12.8371  -31.4053 H   0  0  0  0  0  0  0  0  0  0  0  0
   -3.7075   12.2328  -31.4053 H   0  0  0  0  0  0  0  0  0  0  0  0
   -5.7734   13.6700  -34.0755 H   0  0  0  0  0  0  0  0  0  0  0  0
   -7.4330   15.2241  -35.0876 H   0  0  0  0  0  0  0  0  0  0  0  0
   -7.5741   17.5891  -34.3178 H   0  0  0  0  0  0  0  0  0  0  0  0
   -5.1530   19.1420  -32.0350 H   0  0  0  0  0  0  0  0  0  0  0  0
   -9.3610   21.2123  -32.2034 H   0  0  0  0  0  0  0  0  0  0  0  0
   -9.3361   23.6273  -31.5894 H   0  0  0  0  0  0  0  0  0  0  0  0
   -7.1910   24.7434  -30.9782 H   0  0  0  0  0  0  0  0  0  0  0  0
   -4.5899   24.1654  -26.5696 H   0  0  0  0  0  0  0  0  0  0  0  0
   -3.0518   25.4905  -25.1193 H   0  0  0  0  0  0  0  0  0  0  0  0
   -0.8551   26.2744  -26.0128 H   0  0  0  0  0  0  0  0  0  0  0  0
   -0.1993   25.7367  -28.3608 H   0  0  0  0  0  0  0  0  0  0  0  0
   -1.7385   24.4236  -29.8227 H   0  0  0  0  0  0  0  0  0  0  0  0
   -5.0748   21.0194  -31.5959 H   0  0  0  0  0  0  0  0  0  0  0  0
   -4.3584   16.8642  -31.5111 H   0  0  0  0  0  0  0  0  0  0  0  0
  1  2  1  0
  2  3  2  0
  2  4  1  0
  4  5  2  0
  5  6  1  0
  6  7  2  0
  7  8  1  0
  8  9  1  0
  9 10  1  0
 10 11  2  0
 10 12  1  0
 12 13  2  0
 13 14  1  0
 14 15  2  0
 15 16  1  0
 16 17  1  0
 17 18  2  0
 17 19  2  0
 17 20  1  0
 20 21  1  0
 21 22  2  0
 22 23  1  0
 23 24  2  0
 24 25  1  0
 25 26  2  0
 16 27  2  0
  8 28  2  0
 28  4  1  0
 27 12  1  0
 26 21  1  0
  1 29  1  0
  1 30  1  0
  1 31  1  0
  5 32  1  0
  6 33  1  0
  7 34  1  0
  9 35  1  0
 13 36  1  0
 14 37  1  0
 15 38  1  0
 22 39  1  0
 23 40  1  0
 24 41  1  0
 25 42  1  0
 26 43  1  0
 27 44  1  0
 28 45  1  0
M  CHG  1  20  -1
M  END
>  <UniqueID>  (38) 
37

>  <SMILES>  (38) 
CC(=O)c1cccc(NC(=O)c2cccc(S(=O)(=O)[N-]c3ccccc3)c2)c1

>  <Energy>  (38) 
57.799609726069

>  <Genealogy>  (38) 
CC(=O)c1cccc(NC(=O)c2cccc(S(=O)(=O)[N-]c3ccccc3)c2)c1 (protonated)
CC(=O)c1cccc(NC(=O)c2cccc(S(=O)(=O)[N-]c3ccccc3)c2)c1 (3D coordinates assigned)
CC(=O)c1cccc(NC(=O)c2cccc(S(=O)(=O)[N-]c3ccccc3)c2)c1 (optimized conformer: 57.799609726069 kcal/mol)

>  <smiles>  (38) 
CC(=O)c1cccc(NC(=O)c2cccc(S(=O)(=O)Nc3ccccc3)c2)c1

>  <score_type>  (38) 
oracle

>  <origin>  (38) 
adgpu

>  <m_score__min__energy>  (38) 
-10.01

>  <m_primary>  (38) 
energy

$$$$
38:0
     RDKit          3D

 59 61  0  0  0  0  0  0  0  0999 V2000
   -7.3450   18.1720  -31.6470 C   0  0  0  0  0  0  0  0  0  0  0  0
   -7.1870   18.7960  -33.0320 C   0  0  0  0  0  0  0  0  0  0  0  0
   -6.4210   17.8970  -34.0100 C   0  0  0  0  0  0  0  0  0  0  0  0
   -5.1180   17.5040  -33.4660 N   0  0  0  0  0  0  0  0  0  0  0  0
   -3.9250   18.3170  -33.4590 C   0  0  0  0  0  0  0  0  0  0  0  0
   -2.6720   17.6800  -33.4570 C   0  0  0  0  0  0  0  0  0  0  0  0
   -1.4920   18.4290  -33.4670 C   0  0  0  0  0  0  0  0  0  0  0  0
   -1.5430   19.8280  -33.4790 C   0  0  0  0  0  0  0  0  0  0  0  0
   -0.0460   20.7500  -33.5680 S   0  0  0  0  0  0  0  0  0  0  0  0
    1.0670   19.8660  -34.0630 O   0  0  0  0  0  0  0  0  0  0  0  0
   -0.2080   21.9070  -34.5130 O   0  0  0  0  0  0  0  0  0  0  0  0
    0.3160   21.3380  -31.9780 N   0  0  0  0  0  0  0  0  0  0  0  0
   -0.6380   21.3850  -30.9140 C   0  0  0  0  0  0  0  0  0  0  0  0
   -1.2440   22.6110  -30.6180 C   0  0  0  0  0  0  0  0  0  0  0  0
   -2.1990   22.7060  -29.5990 C   0  0  0  0  0  0  0  0  0  0  0  0
   -3.0150   24.2360  -29.2980 S   0  0  0  0  0  0  0  0  0  0  0  0
   -3.9540   24.1060  -28.1330 O   0  0  0  0  0  0  0  0  0  0  0  0
   -1.9960   25.2930  -28.9760 O   0  0  0  0  0  0  0  0  0  0  0  0
   -3.8810   24.6980  -30.7220 N   0  0  0  0  0  0  0  0  0  0  0  0
   -4.9810   23.9200  -31.1980 C   0  0  0  0  0  0  0  0  0  0  0  0
   -4.7290   22.7120  -31.8630 C   0  0  0  0  0  0  0  0  0  0  0  0
   -5.7890   21.9300  -32.3270 C   0  0  0  0  0  0  0  0  0  0  0  0
   -7.1080   22.3540  -32.1340 C   0  0  0  0  0  0  0  0  0  0  0  0
   -7.3670   23.5650  -31.4840 C   0  0  0  0  0  0  0  0  0  0  0  0
   -6.3040   24.3640  -31.0150 C   0  0  0  0  0  0  0  0  0  0  0  0
   -6.5210   25.6000  -30.3820 O   0  0  0  0  0  0  0  0  0  0  0  0
   -6.3410   25.8410  -28.9880 C   0  0  0  0  0  0  0  0  0  0  0  0
   -2.5430   21.5650  -28.8650 C   0  0  0  0  0  0  0  0  0  0  0  0
   -1.9160   20.3440  -29.1270 C   0  0  0  0  0  0  0  0  0  0  0  0
   -0.9460   20.2430  -30.1470 C   0  0  0  0  0  0  0  0  0  0  0  0
   -0.2630   19.0410  -30.4070 O   0  0  0  0  0  0  0  0  0  0  0  0
    1.1450   18.8690  -30.2930 C   0  0  0  0  0  0  0  0  0  0  0  0
   -2.7860   20.4720  -33.4650 C   0  0  0  0  0  0  0  0  0  0  0  0
   -3.9680   19.7270  -33.4550 C   0  0  0  0  0  0  0  0  0  0  0  0
   -7.1521   18.9339  -30.8774 H   0  0  0  0  0  0  0  0  0  0  0  0
   -8.3690   17.7868  -31.5330 H   0  0  0  0  0  0  0  0  0  0  0  0
   -6.6277   17.3459  -31.5330 H   0  0  0  0  0  0  0  0  0  0  0  0
   -8.1877   18.9907  -33.4451 H   0  0  0  0  0  0  0  0  0  0  0  0
   -6.6055   19.7219  -32.9115 H   0  0  0  0  0  0  0  0  0  0  0  0
   -7.0152   16.9921  -34.2049 H   0  0  0  0  0  0  0  0  0  0  0  0
   -6.2526   18.4608  -34.9394 H   0  0  0  0  0  0  0  0  0  0  0  0
   -5.0430   16.5240  -33.1120 H   0  0  0  0  0  0  0  0  0  0  0  0
   -2.6196   16.5813  -33.4475 H   0  0  0  0  0  0  0  0  0  0  0  0
   -0.5185   17.9168  -33.4654 H   0  0  0  0  0  0  0  0  0  0  0  0
   -0.9674   23.5082  -31.1912 H   0  0  0  0  0  0  0  0  0  0  0  0
   -3.6925   22.3788  -32.0200 H   0  0  0  0  0  0  0  0  0  0  0  0
   -5.5867   20.9805  -32.8443 H   0  0  0  0  0  0  0  0  0  0  0  0
   -7.9425   21.7342  -32.4939 H   0  0  0  0  0  0  0  0  0  0  0  0
   -8.4058   23.8960  -31.3378 H   0  0  0  0  0  0  0  0  0  0  0  0
   -6.9014   25.0907  -28.4108 H   0  0  0  0  0  0  0  0  0  0  0  0
   -5.2718   25.7716  -28.7390 H   0  0  0  0  0  0  0  0  0  0  0  0
   -6.7110   26.8465  -28.7390 H   0  0  0  0  0  0  0  0  0  0  0  0
   -3.3098   21.6297  -28.0790 H   0  0  0  0  0  0  0  0  0  0  0  0
   -2.1802   19.4558  -28.5343 H   0  0  0  0  0  0  0  0  0  0  0  0
    1.4253   18.8348  -29.2299 H   0  0  0  0  0  0  0  0  0  0  0  0
    1.4401   17.9281  -30.7805 H   0  0  0  0  0  0  0  0  0  0  0  0
    1.6579   19.7112  -30.7805 H   0  0  0  0  0  0  0  0  0  0  0  0
   -2.8324   21.5710  -33.4619 H   0  0  0  0  0  0  0  0  0  0  0  0
   -4.9390   20.2437  -33.4439 H   0  0  0  0  0  0  0  0  0  0  0  0
  1  2  1  0
  2  3  1  0
  3  4  1  0
  4  5  1  0
  5  6  2  0
  6  7  1  0
  7  8  2  0
  8  9  1  0
  9 10  2  0
  9 11  2  0
  9 12  1  0
 12 13  1  0
 13 14  2  0
 14 15  1  0
 15 16  1  0
 16 17  2  0
 16 18  2  0
 16 19  1  0
 19 20  1  0
 20 21  2  0
 21 22  1  0
 22 23  2  0
 23 24  1  0
 24 25  2  0
 25 26  1  0
 26 27  1  0
 15 28  2  0
 28 29  1  0
 29 30  2  0
 30 31  1  0
 31 32  1  0
  8 33  1  0
 33 34  2  0
 34  5  1  0
 30 13  1  0
 25 20  1  0
  1 35  1  0
  1 36  1  0
  1 37  1  0
  2 38  1  0
  2 39  1  0
  3 40  1  0
  3 41  1  0
  4 42  1  0
  6 43  1  0
  7 44  1  0
 14 45  1  0
 21 46  1  0
 22 47  1  0
 23 48  1  0
 24 49  1  0
 27 50  1  0
 27 51  1  0
 27 52  1  0
 28 53  1  0
 29 54  1  0
 32 55  1  0
 32 56  1  0
 32 57  1  0
 33 58  1  0
 34 59  1  0
M  CHG  2  12  -1  19  -1
M  END
>  <UniqueID>  (39) 
38

>  <SMILES>  (39) 
CCCNc1ccc(S(=O)(=O)[N-]c2cc(S(=O)(=O)[N-]c3ccccc3OC)ccc2OC)cc1

>  <Energy>  (39) 
75.0605188677786

>  <Genealogy>  (39) 
CCCNc1ccc(S(=O)(=O)[N-]c2cc(S(=O)(=O)[N-]c3ccccc3OC)ccc2OC)cc1 (protonated)
CCCNc1ccc(S(=O)(=O)[N-]c2cc(S(=O)(=O)[N-]c3ccccc3OC)ccc2OC)cc1 (3D coordinates assigned)
CCCNc1ccc(S(=O)(=O)[N-]c2cc(S(=O)(=O)[N-]c3ccccc3OC)ccc2OC)cc1 (optimized conformer: 75.0605188677786 kcal/mol)

>  <smiles>  (39) 
CCCNc1ccc(S(=O)(=O)Nc2cc(S(=O)(=O)Nc3ccccc3OC)ccc2OC)cc1

>  <score_type>  (39) 
oracle

>  <origin>  (39) 
adgpu

>  <m_score__min__energy>  (39) 
-10.949999999999999

>  <m_primary>  (39) 
energy

$$$$
39:0
     RDKit          3D

 43 45  0  0  0  0  0  0  0  0999 V2000
   -6.4550   25.4920  -29.7330 C   0  0  0  0  0  0  0  0  0  0  0  0
   -5.2680   24.6790  -30.1330 C   0  0  0  0  0  0  0  0  0  0  0  0
   -4.0790   24.7150  -29.4990 N   0  0  0  0  0  0  0  0  0  0  0  0
   -3.2690   23.8650  -30.1150 N   0  0  0  0  0  0  0  0  0  0  0  0
   -1.9020   23.6050  -29.6780 C   0  0  0  0  0  0  0  0  0  0  0  0
   -3.9220   23.2560  -31.1300 C   0  0  0  0  0  0  0  0  0  0  0  0
   -3.3490   22.1750  -31.9970 C   0  0  0  0  0  0  0  0  0  0  0  0
   -5.2010   23.7830  -31.1820 C   0  0  0  0  0  0  0  0  0  0  0  0
   -6.2720   23.4390  -32.0680 N   0  0  0  0  0  0  0  0  0  0  0  0
   -7.5690   22.3910  -31.5870 S   0  0  0  0  0  0  0  0  0  0  0  0
   -8.8230   22.8150  -32.2950 O   0  0  0  0  0  0  0  0  0  0  0  0
   -7.7750   22.4700  -30.1000 O   0  0  0  0  0  0  0  0  0  0  0  0
   -7.1580   20.7260  -32.0000 C   0  0  0  0  0  0  0  0  0  0  0  0
   -5.8260   20.3030  -31.9180 C   0  0  0  0  0  0  0  0  0  0  0  0
   -5.4810   18.9860  -32.2330 C   0  0  0  0  0  0  0  0  0  0  0  0
   -6.4670   18.0630  -32.6250 C   0  0  0  0  0  0  0  0  0  0  0  0
   -6.1010   16.6640  -32.9590 C   0  0  0  0  0  0  0  0  0  0  0  0
   -6.8530   15.9310  -33.8970 C   0  0  0  0  0  0  0  0  0  0  0  0
   -6.5070   14.6130  -34.2110 C   0  0  0  0  0  0  0  0  0  0  0  0
   -5.4060   14.0120  -33.5940 C   0  0  0  0  0  0  0  0  0  0  0  0
   -4.9730   12.3590  -33.9900 Cl  0  0  0  0  0  0  0  0  0  0  0  0
   -4.6500   14.7290  -32.6630 C   0  0  0  0  0  0  0  0  0  0  0  0
   -4.9940   16.0470  -32.3460 C   0  0  0  0  0  0  0  0  0  0  0  0
   -7.8060   18.4890  -32.6910 C   0  0  0  0  0  0  0  0  0  0  0  0
   -8.1520   19.8070  -32.3770 C   0  0  0  0  0  0  0  0  0  0  0  0
   -9.4550   20.1770  -32.4370 F   0  0  0  0  0  0  0  0  0  0  0  0
   -6.5173   25.5346  -28.6356 H   0  0  0  0  0  0  0  0  0  0  0  0
   -6.3535   26.5111  -30.1344 H   0  0  0  0  0  0  0  0  0  0  0  0
   -7.3686   25.0291  -30.1344 H   0  0  0  0  0  0  0  0  0  0  0  0
   -1.8636   23.5977  -28.5787 H   0  0  0  0  0  0  0  0  0  0  0  0
   -1.5735   22.6283  -30.0629 H   0  0  0  0  0  0  0  0  0  0  0  0
   -1.2379   24.3929  -30.0629 H   0  0  0  0  0  0  0  0  0  0  0  0
   -2.9281   21.3809  -31.3628 H   0  0  0  0  0  0  0  0  0  0  0  0
   -4.1429   21.7549  -32.6321 H   0  0  0  0  0  0  0  0  0  0  0  0
   -2.5557   22.5962  -32.6321 H   0  0  0  0  0  0  0  0  0  0  0  0
   -6.1400   23.5940  -33.0910 H   0  0  0  0  0  0  0  0  0  0  0  0
   -5.0459   21.0119  -31.6036 H   0  0  0  0  0  0  0  0  0  0  0  0
   -4.4294   18.6686  -32.1739 H   0  0  0  0  0  0  0  0  0  0  0  0
   -7.7197   16.3990  -34.3868 H   0  0  0  0  0  0  0  0  0  0  0  0
   -7.1018   14.0486  -34.9442 H   0  0  0  0  0  0  0  0  0  0  0  0
   -3.7830   14.2561  -32.1787 H   0  0  0  0  0  0  0  0  0  0  0  0
   -4.3949   16.6059  -31.6120 H   0  0  0  0  0  0  0  0  0  0  0  0
   -8.5891   17.7779  -32.9928 H   0  0  0  0  0  0  0  0  0  0  0  0
  1  2  1  0
  2  3  2  0
  3  4  1  0
  4  5  1  0
  4  6  1  0
  6  7  1  0
  6  8  2  0
  8  9  1  0
  9 10  1  0
 10 11  2  0
 10 12  2  0
 10 13  1  0
 13 14  2  0
 14 15  1  0
 15 16  2  0
 16 17  1  0
 17 18  2  0
 18 19  1  0
 19 20  2  0
 20 21  1  0
 20 22  1  0
 22 23  2  0
 16 24  1  0
 24 25  2  0
 25 26  1  0
  8  2  1  0
 25 13  1  0
 23 17  1  0
  1 27  1  0
  1 28  1  0
  1 29  1  0
  5 30  1  0
  5 31  1  0
  5 32  1  0
  7 33  1  0
  7 34  1  0
  7 35  1  0
  9 36  1  0
 14 37  1  0
 15 38  1  0
 18 39  1  0
 19 40  1  0
 22 41  1  0
 23 42  1  0
 24 43  1  0
M  END
>  <UniqueID>  (40) 
39

>  <SMILES>  (40) 
Cc1nn(C)c(C)c1NS(=O)(=O)c1ccc(-c2ccc(Cl)cc2)cc1F

>  <Energy>  (40) 
85.45508737224952

>  <Genealogy>  (40) 
Cc1nn(C)c(C)c1NS(=O)(=O)c1ccc(-c2ccc(Cl)cc2)cc1F (3D coordinates assigned)
Cc1nn(C)c(C)c1NS(=O)(=O)c1ccc(-c2ccc(Cl)cc2)cc1F (optimized conformer: 85.45508737224952 kcal/mol)

>  <smiles>  (40) 
Cc1nn(C)c(C)c1NS(=O)(=O)c1ccc(-c2ccc(Cl)cc2)cc1F

>  <score_type>  (40) 
oracle

>  <origin>  (40) 
adgpu

>  <m_score__min__energy>  (40) 
-8.9700000000000006

>  <m_primary>  (40) 
energy

$$$$
40:0
     RDKit          3D

 39 41  0  0  0  0  0  0  0  0999 V2000
   -1.2880   26.5140  -24.7160 C   0  0  0  0  0  0  0  0  0  0  0  0
   -0.9340   25.6510  -25.8910 C   0  0  0  0  0  0  0  0  0  0  0  0
    0.2270   24.8640  -25.8660 C   0  0  0  0  0  0  0  0  0  0  0  0
    0.5810   24.0980  -26.9780 C   0  0  0  0  0  0  0  0  0  0  0  0
   -0.2160   24.1130  -28.1250 C   0  0  0  0  0  0  0  0  0  0  0  0
   -1.3850   24.8940  -28.1660 C   0  0  0  0  0  0  0  0  0  0  0  0
   -2.2060   24.9550  -29.3450 N   0  0  0  0  0  0  0  0  0  0  0  0
   -3.3780   24.1550  -29.5520 C   0  0  0  0  0  0  0  0  0  0  0  0
   -3.9150   23.5450  -28.5870 O   0  0  0  0  0  0  0  0  0  0  0  0
   -3.9880   24.1300  -30.8450 N   0  0  0  0  0  0  0  0  0  0  0  0
   -5.3710   23.8570  -31.0970 C   0  0  0  0  0  0  0  0  0  0  0  0
   -5.8840   22.7470  -31.7450 C   0  0  0  0  0  0  0  0  0  0  0  0
   -5.1410   21.6920  -32.4730 C   0  0  0  0  0  0  0  0  0  0  0  0
   -3.7830   21.8880  -32.7880 C   0  0  0  0  0  0  0  0  0  0  0  0
   -3.0640   20.9020  -33.4690 C   0  0  0  0  0  0  0  0  0  0  0  0
   -3.6870   19.7060  -33.8330 C   0  0  0  0  0  0  0  0  0  0  0  0
   -5.0290   19.4930  -33.5120 C   0  0  0  0  0  0  0  0  0  0  0  0
   -5.7530   20.4770  -32.8330 C   0  0  0  0  0  0  0  0  0  0  0  0
   -7.2250   22.7490  -31.6020 N   0  0  0  0  0  0  0  0  0  0  0  0
   -7.5410   23.7890  -30.8830 O   0  0  0  0  0  0  0  0  0  0  0  0
   -6.4760   24.4740  -30.5350 C   0  0  0  0  0  0  0  0  0  0  0  0
   -6.5160   25.6790  -29.6530 C   0  0  0  0  0  0  0  0  0  0  0  0
   -1.7230   25.6790  -27.0530 C   0  0  0  0  0  0  0  0  0  0  0  0
   -1.0663   25.9734  -23.7840 H   0  0  0  0  0  0  0  0  0  0  0  0
   -0.6977   27.4415  -24.7512 H   0  0  0  0  0  0  0  0  0  0  0  0
   -2.3596   26.7598  -24.7512 H   0  0  0  0  0  0  0  0  0  0  0  0
    0.8607   24.8505  -24.9670 H   0  0  0  0  0  0  0  0  0  0  0  0
    1.4908   23.4804  -26.9509 H   0  0  0  0  0  0  0  0  0  0  0  0
    0.0718   23.5115  -28.9999 H   0  0  0  0  0  0  0  0  0  0  0  0
   -1.9790   25.6710  -30.0710 H   0  0  0  0  0  0  0  0  0  0  0  0
   -3.2843   22.8240  -32.4960 H   0  0  0  0  0  0  0  0  0  0  0  0
   -2.0057   21.0680  -33.7188 H   0  0  0  0  0  0  0  0  0  0  0  0
   -3.1207   18.9324  -34.3722 H   0  0  0  0  0  0  0  0  0  0  0  0
   -5.5176   18.5487  -33.7941 H   0  0  0  0  0  0  0  0  0  0  0  0
   -6.8084   20.3005  -32.5783 H   0  0  0  0  0  0  0  0  0  0  0  0
   -6.5055   25.3628  -28.5995 H   0  0  0  0  0  0  0  0  0  0  0  0
   -5.6383   26.3106  -29.8550 H   0  0  0  0  0  0  0  0  0  0  0  0
   -7.4336   26.2510  -29.8550 H   0  0  0  0  0  0  0  0  0  0  0  0
   -2.6144   26.3225  -27.0908 H   0  0  0  0  0  0  0  0  0  0  0  0
  1  2  1  0
  2  3  2  0
  3  4  1  0
  4  5  2  0
  5  6  1  0
  6  7  1  0
  7  8  1  0
  8  9  2  0
  8 10  1  0
 10 11  1  0
 11 12  1  0
 12 13  1  0
 13 14  2  0
 14 15  1  0
 15 16  2  0
 16 17  1  0
 17 18  2  0
 12 19  2  0
 19 20  1  0
 20 21  1  0
 21 22  1  0
  6 23  2  0
 23  2  1  0
 21 11  2  0
 18 13  1  0
  1 24  1  0
  1 25  1  0
  1 26  1  0
  3 27  1  0
  4 28  1  0
  5 29  1  0
  7 30  1  0
 14 31  1  0
 15 32  1  0
 16 33  1  0
 17 34  1  0
 18 35  1  0
 22 36  1  0
 22 37  1  0
 22 38  1  0
 23 39  1  0
M  CHG  1  10  -1
M  END
>  <UniqueID>  (41) 
40

>  <SMILES>  (41) 
Cc1cccc(NC(=O)[N-]c2c(-c3ccccc3)noc2C)c1

>  <Energy>  (41) 
82.11785513903253

>  <Genealogy>  (41) 
Cc1cccc(NC(=O)[N-]c2c(-c3ccccc3)noc2C)c1 (protonated)
Cc1cccc(NC(=O)[N-]c2c(-c3ccccc3)noc2C)c1 (3D coordinates assigned)
Cc1cccc(NC(=O)[N-]c2c(-c3ccccc3)noc2C)c1 (optimized conformer: 82.11785513903253 kcal/mol)

>  <smiles>  (41) 
Cc1cccc(NC(=O)Nc2c(-c3ccccc3)noc2C)c1

>  <score_type>  (41) 
oracle

>  <origin>  (41) 
adgpu

>  <m_score__min__energy>  (41) 
-9.5199999999999996

>  <m_primary>  (41) 
energy

$$$$
41:0
     RDKit          3D

 52 56  0  0  0  0  0  0  0  0999 V2000
   -4.2390   24.5270  -26.8740 O   0  0  0  0  0  0  0  0  0  0  0  0
   -3.0890   24.5930  -27.3880 C   0  0  0  0  0  0  0  0  0  0  0  0
   -2.9360   24.4360  -28.8110 N   0  0  0  0  0  0  0  0  0  0  0  0
   -3.8980   23.7990  -29.6710 C   0  0  0  0  0  0  0  0  0  0  0  0
   -3.5450   23.3030  -30.9400 C   0  0  0  0  0  0  0  0  0  0  0  0
   -4.4860   22.6270  -31.7230 C   0  0  0  0  0  0  0  0  0  0  0  0
   -5.8110   22.4830  -31.2790 C   0  0  0  0  0  0  0  0  0  0  0  0
   -6.7690   21.7510  -31.9980 O   0  0  0  0  0  0  0  0  0  0  0  0
   -6.6210   20.4270  -32.4320 C   0  0  0  0  0  0  0  0  0  0  0  0
   -7.7680   19.6560  -32.6560 C   0  0  0  0  0  0  0  0  0  0  0  0
   -7.6560   18.3150  -33.0400 C   0  0  0  0  0  0  0  0  0  0  0  0
   -6.3900   17.7360  -33.2290 C   0  0  0  0  0  0  0  0  0  0  0  0
   -6.2580   16.3060  -33.5690 C   0  0  0  0  0  0  0  0  0  0  0  0
   -7.1850   15.5860  -34.2350 N   0  0  0  0  0  0  0  0  0  0  0  0
   -6.7200   14.3490  -34.3050 N   0  0  0  0  0  0  0  0  0  0  0  0
   -5.5310   14.3660  -33.6790 C   0  0  0  0  0  0  0  0  0  0  0  0
   -4.7780   13.3120  -33.5570 N   0  0  0  0  0  0  0  0  0  0  0  0
   -3.5010   13.2120  -32.8970 C   0  0  0  0  0  0  0  0  0  0  0  0
   -2.5040   14.2110  -32.9850 C   0  0  0  0  0  0  0  0  0  0  0  0
   -1.2790   14.0460  -32.3310 C   0  0  0  0  0  0  0  0  0  0  0  0
   -1.0440   12.9050  -31.5610 C   0  0  0  0  0  0  0  0  0  0  0  0
    0.1410   12.7530  -30.9220 F   0  0  0  0  0  0  0  0  0  0  0  0
   -2.0380   11.9280  -31.4390 C   0  0  0  0  0  0  0  0  0  0  0  0
   -3.2590   12.0830  -32.1020 C   0  0  0  0  0  0  0  0  0  0  0  0
   -5.2330   15.5600  -33.2340 O   0  0  0  0  0  0  0  0  0  0  0  0
   -5.2400   18.5280  -33.0570 C   0  0  0  0  0  0  0  0  0  0  0  0
   -5.3540   19.8660  -32.6670 C   0  0  0  0  0  0  0  0  0  0  0  0
   -6.1750   23.0300  -30.0470 C   0  0  0  0  0  0  0  0  0  0  0  0
   -5.2350   23.6900  -29.2450 C   0  0  0  0  0  0  0  0  0  0  0  0
   -1.9230   24.8990  -26.5180 C   0  0  0  0  0  0  0  0  0  0  0  0
   -1.0200   23.8810  -26.1580 C   0  0  0  0  0  0  0  0  0  0  0  0
    0.0640   24.1600  -25.3260 C   0  0  0  0  0  0  0  0  0  0  0  0
    0.2470   25.4620  -24.8570 C   0  0  0  0  0  0  0  0  0  0  0  0
    1.2110   25.7300  -24.0940 O   0  0  0  0  0  0  0  0  0  0  0  0
   -0.6180   26.4460  -25.2250 N   0  0  0  0  0  0  0  0  0  0  0  0
   -1.6790   26.2020  -26.0380 C   0  0  0  0  0  0  0  0  0  0  0  0
   -2.1510   24.9480  -29.2710 H   0  0  0  0  0  0  0  0  0  0  0  0
   -2.5223   23.4480  -31.3183 H   0  0  0  0  0  0  0  0  0  0  0  0
   -4.1865   22.2049  -32.6937 H   0  0  0  0  0  0  0  0  0  0  0  0
   -8.7632   20.1071  -32.5294 H   0  0  0  0  0  0  0  0  0  0  0  0
   -8.5628   17.7118  -33.1945 H   0  0  0  0  0  0  0  0  0  0  0  0
   -2.6930   15.1226  -33.5709 H   0  0  0  0  0  0  0  0  0  0  0  0
   -0.4992   14.8163  -32.4233 H   0  0  0  0  0  0  0  0  0  0  0  0
   -1.8585   11.0364  -30.8203 H   0  0  0  0  0  0  0  0  0  0  0  0
   -4.0369   11.3121  -31.9989 H   0  0  0  0  0  0  0  0  0  0  0  0
   -4.2451   18.0920  -33.2304 H   0  0  0  0  0  0  0  0  0  0  0  0
   -4.4501   20.4807  -32.5439 H   0  0  0  0  0  0  0  0  0  0  0  0
   -7.2154   22.9414  -29.7010 H   0  0  0  0  0  0  0  0  0  0  0  0
   -5.5420   24.1233  -28.2817 H   0  0  0  0  0  0  0  0  0  0  0  0
   -1.1703   22.8587  -26.5353 H   0  0  0  0  0  0  0  0  0  0  0  0
    0.7670   23.3629  -25.0425 H   0  0  0  0  0  0  0  0  0  0  0  0
   -2.3508   27.0251  -26.3230 H   0  0  0  0  0  0  0  0  0  0  0  0
  1  2  2  0
  2  3  1  0
  3  4  1  0
  4  5  2  0
  5  6  1  0
  6  7  2  0
  7  8  1  0
  8  9  1  0
  9 10  2  0
 10 11  1  0
 11 12  2  0
 12 13  1  0
 13 14  2  0
 14 15  1  0
 15 16  1  0
 16 17  2  3
 17 18  1  0
 18 19  2  0
 19 20  1  0
 20 21  2  0
 21 22  1  0
 21 23  1  0
 23 24  2  0
 16 25  1  0
 12 26  1  0
 26 27  2  0
  7 28  1  0
 28 29  2  0
  2 30  1  0
 30 31  1  0
 31 32  2  0
 32 33  1  0
 33 34  2  0
 33 35  1  0
 35 36  1  0
 29  4  1  0
 36 30  2  0
 27  9  1  0
 25 13  1  0
 24 18  1  0
  3 37  1  0
  5 38  1  0
  6 39  1  0
 10 40  1  0
 11 41  1  0
 19 42  1  0
 20 43  1  0
 23 44  1  0
 24 45  1  0
 26 46  1  0
 27 47  1  0
 28 48  1  0
 29 49  1  0
 31 50  1  0
 32 51  1  0
 36 52  1  0
M  CHG  2  15  -1  35  -1
M  END
>  <UniqueID>  (42) 
41

>  <SMILES>  (42) 
O=C(Nc1ccc(Oc2ccc(-c3n[n-]c(=Nc4ccc(F)cc4)o3)cc2)cc1)c1ccc(=O)[n-]c1

>  <Energy>  (42) 
114.15692540965976

>  <Genealogy>  (42) 
O=C(Nc1ccc(Oc2ccc(-c3n[n-]c(=Nc4ccc(F)cc4)o3)cc2)cc1)c1ccc(=O)[n-]c1 (protonated)
O=C(Nc1ccc(Oc2ccc(-c3n[n-]c(=Nc4ccc(F)cc4)o3)cc2)cc1)c1ccc(=O)[n-]c1 (3D coordinates assigned)
O=C(Nc1ccc(Oc2ccc(-c3n[n-]c(=Nc4ccc(F)cc4)o3)cc2)cc1)c1ccc(=O)[n-]c1 (optimized conformer: 114.15692540965976 kcal/mol)

>  <smiles>  (42) 
O=C(Nc1ccc(Oc2ccc(-c3n[nH]c(=Nc4ccc(F)cc4)o3)cc2)cc1)c1ccc(=O)[nH]c1

>  <score_type>  (42) 
oracle

>  <origin>  (42) 
adgpu

>  <m_score__min__energy>  (42) 
-9.75

>  <m_primary>  (42) 
energy

$$$$
42:0
     RDKit          3D

 48 51  0  0  0  0  0  0  0  0999 V2000
   -2.0600   25.2930  -28.8710 O   0  0  0  0  0  0  0  0  0  0  0  0
   -2.5880   24.5250  -29.7190 C   0  0  0  0  0  0  0  0  0  0  0  0
   -3.7400   24.9720  -30.4400 N   0  0  0  0  0  0  0  0  0  0  0  0
   -4.9410   24.2140  -30.6540 C   0  0  0  0  0  0  0  0  0  0  0  0
   -5.0420   23.4220  -31.8030 C   0  0  0  0  0  0  0  0  0  0  0  0
   -6.2380   22.7640  -32.1100 C   0  0  0  0  0  0  0  0  0  0  0  0
   -7.3490   22.8930  -31.2660 C   0  0  0  0  0  0  0  0  0  0  0  0
   -8.8820   22.1190  -31.6650 S   0  0  0  0  0  0  0  0  0  0  0  0
   -9.5490   21.6910  -30.3890 O   0  0  0  0  0  0  0  0  0  0  0  0
   -9.7880   23.0860  -32.3790 O   0  0  0  0  0  0  0  0  0  0  0  0
   -8.5980   20.7150  -32.6560 N   0  0  0  0  0  0  0  0  0  0  0  0
   -8.0730   19.5980  -31.8670 C   0  0  0  0  0  0  0  0  0  0  0  0
   -7.0960   18.7780  -32.6680 C   0  0  0  0  0  0  0  0  0  0  0  0
   -6.8200   17.4470  -32.3090 C   0  0  0  0  0  0  0  0  0  0  0  0
   -5.9510   16.6760  -33.0860 C   0  0  0  0  0  0  0  0  0  0  0  0
   -5.3520   17.2270  -34.2210 C   0  0  0  0  0  0  0  0  0  0  0  0
   -5.6180   18.5510  -34.5810 C   0  0  0  0  0  0  0  0  0  0  0  0
   -6.4840   19.3260  -33.8060 C   0  0  0  0  0  0  0  0  0  0  0  0
   -7.2470   23.6700  -30.1060 C   0  0  0  0  0  0  0  0  0  0  0  0
   -6.0540   24.3310  -29.8010 C   0  0  0  0  0  0  0  0  0  0  0  0
   -1.9730   23.2150  -29.9820 C   0  0  0  0  0  0  0  0  0  0  0  0
   -2.4090   22.2790  -30.8970 C   0  0  0  0  0  0  0  0  0  0  0  0
   -1.4730   21.2640  -30.8020 C   0  0  0  0  0  0  0  0  0  0  0  0
   -1.4400   20.0140  -31.5900 C   0  0  0  0  0  0  0  0  0  0  0  0
   -0.4940   19.0170  -31.2880 C   0  0  0  0  0  0  0  0  0  0  0  0
   -0.4620   17.8270  -32.0230 C   0  0  0  0  0  0  0  0  0  0  0  0
   -1.3670   17.6240  -33.0690 C   0  0  0  0  0  0  0  0  0  0  0  0
   -1.3230   15.9970  -34.0690 Br  0  0  0  0  0  0  0  0  0  0  0  0
   -2.3000   18.6150  -33.3860 C   0  0  0  0  0  0  0  0  0  0  0  0
   -2.3340   19.8060  -32.6550 C   0  0  0  0  0  0  0  0  0  0  0  0
   -0.5470   21.5910  -29.8770 N   0  0  0  0  0  0  0  0  0  0  0  0
   -0.8470   22.7830  -29.3840 N   0  0  0  0  0  0  0  0  0  0  0  0
   -4.1741   23.3158  -32.4704 H   0  0  0  0  0  0  0  0  0  0  0  0
   -6.3062   22.1440  -33.0160 H   0  0  0  0  0  0  0  0  0  0  0  0
   -7.5631   19.9955  -30.9771 H   0  0  0  0  0  0  0  0  0  0  0  0
   -8.9139   18.9516  -31.5754 H   0  0  0  0  0  0  0  0  0  0  0  0
   -7.2891   17.0114  -31.4145 H   0  0  0  0  0  0  0  0  0  0  0  0
   -5.7386   15.6344  -32.8034 H   0  0  0  0  0  0  0  0  0  0  0  0
   -4.6699   16.6180  -34.8325 H   0  0  0  0  0  0  0  0  0  0  0  0
   -5.1451   18.9831  -35.4752 H   0  0  0  0  0  0  0  0  0  0  0  0
   -6.6870   20.3695  -34.0886 H   0  0  0  0  0  0  0  0  0  0  0  0
   -8.1106   23.7608  -29.4308 H   0  0  0  0  0  0  0  0  0  0  0  0
   -5.9848   24.9449  -28.8909 H   0  0  0  0  0  0  0  0  0  0  0  0
   -3.2934   22.3280  -31.5493 H   0  0  0  0  0  0  0  0  0  0  0  0
    0.2241   19.1741  -30.4697 H   0  0  0  0  0  0  0  0  0  0  0  0
    0.2766   17.0497  -31.7774 H   0  0  0  0  0  0  0  0  0  0  0  0
   -3.0089   18.4575  -34.2122 H   0  0  0  0  0  0  0  0  0  0  0  0
   -3.0651   20.5857  -32.9147 H   0  0  0  0  0  0  0  0  0  0  0  0
  1  2  2  0
  2  3  1  0
  3  4  1  0
  4  5  2  0
  5  6  1  0
  6  7  2  0
  7  8  1  0
  8  9  2  0
  8 10  2  0
  8 11  1  0
 11 12  1  0
 12 13  1  0
 13 14  2  0
 14 15  1  0
 15 16  2  0
 16 17  1  0
 17 18  2  0
  7 19  1  0
 19 20  2  0
  2 21  1  0
 21 22  1  0
 22 23  2  0
 23 24  1  0
 24 25  2  0
 25 26  1  0
 26 27  2  0
 27 28  1  0
 27 29  1  0
 29 30  2  0
 23 31  1  0
 31 32  1  0
 20  4  1  0
 32 21  2  0
 18 13  1  0
 30 24  1  0
  5 33  1  0
  6 34  1  0
 12 35  1  0
 12 36  1  0
 14 37  1  0
 15 38  1  0
 16 39  1  0
 17 40  1  0
 18 41  1  0
 19 42  1  0
 20 43  1  0
 22 44  1  0
 25 45  1  0
 26 46  1  0
 29 47  1  0
 30 48  1  0
M  CHG  3   3  -1  11  -1  31  -1
M  END
>  <UniqueID>  (43) 
42

>  <SMILES>  (43) 
O=C([N-]c1ccc(S(=O)(=O)[N-]Cc2ccccc2)cc1)c1cc(-c2ccc(Br)cc2)[n-]n1

>  <Energy>  (43) 
83.37190934709436

>  <Genealogy>  (43) 
O=C([N-]c1ccc(S(=O)(=O)[N-]Cc2ccccc2)cc1)c1cc(-c2ccc(Br)cc2)[n-]n1 (protonated)
O=C([N-]c1ccc(S(=O)(=O)[N-]Cc2ccccc2)cc1)c1cc(-c2ccc(Br)cc2)[n-]n1 (3D coordinates assigned)
O=C([N-]c1ccc(S(=O)(=O)[N-]Cc2ccccc2)cc1)c1cc(-c2ccc(Br)cc2)[n-]n1 (optimized conformer: 83.37190934709436 kcal/mol)

>  <smiles>  (43) 
O=C(Nc1ccc(S(=O)(=O)NCc2ccccc2)cc1)c1cc(-c2ccc(Br)cc2)[nH]n1

>  <score_type>  (43) 
oracle

>  <origin>  (43) 
adgpu

>  <m_score__min__energy>  (43) 
-12.17

>  <m_primary>  (43) 
energy

$$$$
43:0
     RDKit          3D

 44 46  0  0  0  0  0  0  0  0999 V2000
   -2.3450   23.0080  -30.3820 C   0  0  0  0  0  0  0  0  0  0  0  0
   -2.2610   23.6360  -29.0280 C   0  0  0  0  0  0  0  0  0  0  0  0
   -1.1070   23.8330  -28.3560 N   0  0  0  0  0  0  0  0  0  0  0  0
   -1.4120   24.3830  -27.1870 N   0  0  0  0  0  0  0  0  0  0  0  0
   -0.4160   24.8000  -26.2070 C   0  0  0  0  0  0  0  0  0  0  0  0
   -2.7490   24.5590  -27.0910 C   0  0  0  0  0  0  0  0  0  0  0  0
   -3.4340   25.2920  -25.9740 C   0  0  0  0  0  0  0  0  0  0  0  0
   -3.3200   24.0780  -28.2570 C   0  0  0  0  0  0  0  0  0  0  0  0
   -4.7070   24.0120  -28.6090 N   0  0  0  0  0  0  0  0  0  0  0  0
   -5.2980   24.6170  -30.1280 S   0  0  0  0  0  0  0  0  0  0  0  0
   -6.4220   25.5860  -29.8690 O   0  0  0  0  0  0  0  0  0  0  0  0
   -4.1850   25.3330  -30.8450 O   0  0  0  0  0  0  0  0  0  0  0  0
   -5.8510   23.2920  -31.1500 C   0  0  0  0  0  0  0  0  0  0  0  0
   -4.9230   22.5740  -31.9140 C   0  0  0  0  0  0  0  0  0  0  0  0
   -5.3370   21.4860  -32.6850 C   0  0  0  0  0  0  0  0  0  0  0  0
   -6.6880   21.0970  -32.6910 C   0  0  0  0  0  0  0  0  0  0  0  0
   -7.1480   20.0090  -33.4480 O   0  0  0  0  0  0  0  0  0  0  0  0
   -6.6280   18.7050  -33.4090 C   0  0  0  0  0  0  0  0  0  0  0  0
   -6.6610   17.9190  -32.2400 C   0  0  0  0  0  0  0  0  0  0  0  0
   -7.2430   18.3820  -31.1040 F   0  0  0  0  0  0  0  0  0  0  0  0
   -6.1320   16.6200  -32.2530 C   0  0  0  0  0  0  0  0  0  0  0  0
   -5.5970   16.0880  -33.4270 C   0  0  0  0  0  0  0  0  0  0  0  0
   -5.5830   16.8550  -34.5950 C   0  0  0  0  0  0  0  0  0  0  0  0
   -6.1000   18.1570  -34.5890 C   0  0  0  0  0  0  0  0  0  0  0  0
   -6.1050   18.8850  -35.7320 F   0  0  0  0  0  0  0  0  0  0  0  0
   -7.6170   21.8410  -31.9560 C   0  0  0  0  0  0  0  0  0  0  0  0
   -7.2040   22.9320  -31.1880 C   0  0  0  0  0  0  0  0  0  0  0  0
   -2.4901   21.9229  -30.2745 H   0  0  0  0  0  0  0  0  0  0  0  0
   -3.1936   23.4386  -30.9339 H   0  0  0  0  0  0  0  0  0  0  0  0
   -1.4131   23.2004  -30.9339 H   0  0  0  0  0  0  0  0  0  0  0  0
   -0.8085   24.6357  -25.1926 H   0  0  0  0  0  0  0  0  0  0  0  0
    0.5028   24.2110  -26.3446 H   0  0  0  0  0  0  0  0  0  0  0  0
   -0.1909   25.8679  -26.3446 H   0  0  0  0  0  0  0  0  0  0  0  0
   -3.0745   24.9073  -25.0082 H   0  0  0  0  0  0  0  0  0  0  0  0
   -3.2085   26.3661  -26.0477 H   0  0  0  0  0  0  0  0  0  0  0  0
   -4.5209   25.1396  -26.0477 H   0  0  0  0  0  0  0  0  0  0  0  0
   -5.4070   23.8810  -27.8440 H   0  0  0  0  0  0  0  0  0  0  0  0
   -3.8631   22.8683  -31.9068 H   0  0  0  0  0  0  0  0  0  0  0  0
   -4.6040   20.9316  -33.2895 H   0  0  0  0  0  0  0  0  0  0  0  0
   -6.1389   16.0173  -31.3328 H   0  0  0  0  0  0  0  0  0  0  0  0
   -5.1872   15.0672  -33.4329 H   0  0  0  0  0  0  0  0  0  0  0  0
   -5.1648   16.4352  -35.5218 H   0  0  0  0  0  0  0  0  0  0  0  0
   -8.6814   21.5646  -31.9831 H   0  0  0  0  0  0  0  0  0  0  0  0
   -7.9424   23.5093  -30.6122 H   0  0  0  0  0  0  0  0  0  0  0  0
  1  2  1  0
  2  3  2  0
  3  4  1  0
  4  5  1  0
  4  6  1  0
  6  7  1  0
  6  8  2  0
  8  9  1  0
  9 10  1  0
 10 11  2  0
 10 12  2  0
 10 13  1  0
 13 14  2  0
 14 15  1  0
 15 16  2  0
 16 17  1  0
 17 18  1  0
 18 19  2  0
 19 20  1  0
 19 21  1  0
 21 22  2  0
 22 23  1  0
 23 24  2  0
 24 25  1  0
 16 26  1  0
 26 27  2  0
  8  2  1  0
 27 13  1  0
 24 18  1  0
  1 28  1  0
  1 29  1  0
  1 30  1  0
  5 31  1  0
  5 32  1  0
  5 33  1  0
  7 34  1  0
  7 35  1  0
  7 36  1  0
  9 37  1  0
 14 38  1  0
 15 39  1  0
 21 40  1  0
 22 41  1  0
 23 42  1  0
 26 43  1  0
 27 44  1  0
M  END
>  <UniqueID>  (44) 
43

>  <SMILES>  (44) 
Cc1nn(C)c(C)c1NS(=O)(=O)c1ccc(Oc2c(F)cccc2F)cc1

>  <Energy>  (44) 
86.8414606786278

>  <Genealogy>  (44) 
Cc1nn(C)c(C)c1NS(=O)(=O)c1ccc(Oc2c(F)cccc2F)cc1 (3D coordinates assigned)
Cc1nn(C)c(C)c1NS(=O)(=O)c1ccc(Oc2c(F)cccc2F)cc1 (optimized conformer: 86.8414606786278 kcal/mol)

>  <smiles>  (44) 
Cc1nn(C)c(C)c1NS(=O)(=O)c1ccc(Oc2c(F)cccc2F)cc1

>  <score_type>  (44) 
oracle

>  <origin>  (44) 
adgpu

>  <m_score__min__energy>  (44) 
-9.1899999999999995

>  <m_primary>  (44) 
energy

$$$$
44:0
     RDKit          3D

 41 43  0  0  0  0  0  0  0  0999 V2000
   -3.9120   20.6340  -31.0390 O   0  0  0  0  0  0  0  0  0  0  0  0
   -4.2290   20.9770  -32.2110 C   0  0  0  0  0  0  0  0  0  0  0  0
   -4.0690   19.9960  -33.3340 C   0  0  0  0  0  0  0  0  0  0  0  0
   -5.3400   19.6200  -33.8640 O   0  0  0  0  0  0  0  0  0  0  0  0
   -6.5250   19.5010  -33.1190 C   0  0  0  0  0  0  0  0  0  0  0  0
   -6.9260   18.2220  -32.7140 C   0  0  0  0  0  0  0  0  0  0  0  0
   -8.1040   18.0460  -31.9820 C   0  0  0  0  0  0  0  0  0  0  0  0
   -8.8910   19.1490  -31.6470 C   0  0  0  0  0  0  0  0  0  0  0  0
   -8.5000   20.4330  -32.0400 C   0  0  0  0  0  0  0  0  0  0  0  0
   -9.4900   21.8180  -31.6190 Cl  0  0  0  0  0  0  0  0  0  0  0  0
   -7.3200   20.6120  -32.7710 C   0  0  0  0  0  0  0  0  0  0  0  0
   -4.6810   22.3120  -32.4800 N   0  0  0  0  0  0  0  0  0  0  0  0
   -5.1250   23.2130  -31.4530 C   0  0  0  0  0  0  0  0  0  0  0  0
   -6.4500   23.6890  -31.4520 C   0  0  0  0  0  0  0  0  0  0  0  0
   -6.8790   24.5860  -30.4710 C   0  0  0  0  0  0  0  0  0  0  0  0
   -5.9910   25.0250  -29.4870 C   0  0  0  0  0  0  0  0  0  0  0  0
   -4.6700   24.5700  -29.4850 C   0  0  0  0  0  0  0  0  0  0  0  0
   -4.2310   23.6670  -30.4610 C   0  0  0  0  0  0  0  0  0  0  0  0
   -2.5300   23.0850  -30.3970 S   0  0  0  0  0  0  0  0  0  0  0  0
   -2.1760   23.9850  -28.8880 C   0  0  0  0  0  0  0  0  0  0  0  0
   -2.5720   23.4620  -27.6490 C   0  0  0  0  0  0  0  0  0  0  0  0
   -2.3060   24.1690  -26.4730 C   0  0  0  0  0  0  0  0  0  0  0  0
   -1.6390   25.3990  -26.5300 C   0  0  0  0  0  0  0  0  0  0  0  0
   -1.3070   26.2860  -25.0530 Cl  0  0  0  0  0  0  0  0  0  0  0  0
   -1.2350   25.9180  -27.7650 C   0  0  0  0  0  0  0  0  0  0  0  0
   -1.5010   25.2110  -28.9430 C   0  0  0  0  0  0  0  0  0  0  0  0
   -3.4675   20.4561  -34.1318 H   0  0  0  0  0  0  0  0  0  0  0  0
   -3.5682   19.0962  -32.9473 H   0  0  0  0  0  0  0  0  0  0  0  0
   -6.3093   17.3489  -32.9738 H   0  0  0  0  0  0  0  0  0  0  0  0
   -8.4110   17.0370  -31.6697 H   0  0  0  0  0  0  0  0  0  0  0  0
   -9.8192   19.0083  -31.0736 H   0  0  0  0  0  0  0  0  0  0  0  0
   -7.0118   21.6232  -33.0751 H   0  0  0  0  0  0  0  0  0  0  0  0
   -4.6500   22.6510  -33.4680 H   0  0  0  0  0  0  0  0  0  0  0  0
   -7.1521   23.3522  -32.2290 H   0  0  0  0  0  0  0  0  0  0  0  0
   -7.9180   24.9471  -30.4737 H   0  0  0  0  0  0  0  0  0  0  0  0
   -6.3314   25.7290  -28.7134 H   0  0  0  0  0  0  0  0  0  0  0  0
   -3.9710   24.9231  -28.7125 H   0  0  0  0  0  0  0  0  0  0  0  0
   -3.0926   22.4941  -27.6023 H   0  0  0  0  0  0  0  0  0  0  0  0
   -2.6208   23.7590  -25.5020 H   0  0  0  0  0  0  0  0  0  0  0  0
   -0.7079   26.8825  -27.8100 H   0  0  0  0  0  0  0  0  0  0  0  0
   -1.1797   25.6184  -29.9129 H   0  0  0  0  0  0  0  0  0  0  0  0
  1  2  2  0
  2  3  1  0
  3  4  1  0
  4  5  1  0
  5  6  2  0
  6  7  1  0
  7  8  2  0
  8  9  1  0
  9 10  1  0
  9 11  2  0
  2 12  1  0
 12 13  1  0
 13 14  2  0
 14 15  1  0
 15 16  2  0
 16 17  1  0
 17 18  2  0
 18 19  1  0
 19 20  1  0
 20 21  2  0
 21 22  1  0
 22 23  2  0
 23 24  1  0
 23 25  1  0
 25 26  2  0
 11  5  1  0
 18 13  1  0
 26 20  1  0
  3 27  1  0
  3 28  1  0
  6 29  1  0
  7 30  1  0
  8 31  1  0
 11 32  1  0
 12 33  1  0
 14 34  1  0
 15 35  1  0
 16 36  1  0
 17 37  1  0
 21 38  1  0
 22 39  1  0
 25 40  1  0
 26 41  1  0
M  END
>  <UniqueID>  (45) 
44

>  <SMILES>  (45) 
O=C(COc1cccc(Cl)c1)Nc1ccccc1Sc1ccc(Cl)cc1

>  <Energy>  (45) 
40.87301151347848

>  <Genealogy>  (45) 
O=C(COc1cccc(Cl)c1)Nc1ccccc1Sc1ccc(Cl)cc1 (3D coordinates assigned)
O=C(COc1cccc(Cl)c1)Nc1ccccc1Sc1ccc(Cl)cc1 (optimized conformer: 40.87301151347848 kcal/mol)

>  <smiles>  (45) 
O=C(COc1cccc(Cl)c1)Nc1ccccc1Sc1ccc(Cl)cc1

>  <score_type>  (45) 
oracle

>  <origin>  (45) 
adgpu

>  <m_score__min__energy>  (45) 
-9.3699999999999992

>  <m_primary>  (45) 
energy

$$$$
45:0
     RDKit          3D

 21 22  0  0  0  0  0  0  0  0999 V2000
   -3.8700   25.6790  -30.4740 O   0  0  0  0  0  0  0  0  0  0  0  0
   -3.5620   24.3280  -30.3700 C   0  0  0  0  0  0  0  0  0  0  0  0
   -2.5310   23.8690  -29.5590 C   0  0  0  0  0  0  0  0  0  0  0  0
   -2.4730   22.1940  -29.7010 S   0  0  0  0  0  0  0  0  0  0  0  0
   -3.7560   22.1230  -30.7820 C   0  0  0  0  0  0  0  0  0  0  0  0
   -4.3200   20.7230  -31.4190 S   0  0  0  0  0  0  0  0  0  0  0  0
   -4.2450   23.3620  -31.0560 N   0  0  0  0  0  0  0  0  0  0  0  0
   -5.3880   23.6430  -31.9340 C   0  0  0  0  0  0  0  0  0  0  0  0
   -6.6140   22.9110  -31.4550 C   0  0  0  0  0  0  0  0  0  0  0  0
   -7.3580   22.1050  -32.3300 C   0  0  0  0  0  0  0  0  0  0  0  0
   -8.4810   21.4190  -31.8620 C   0  0  0  0  0  0  0  0  0  0  0  0
   -8.8500   21.5440  -30.5210 C   0  0  0  0  0  0  0  0  0  0  0  0
   -8.1200   22.3290  -29.6840 N   0  0  0  0  0  0  0  0  0  0  0  0
   -7.0220   23.0060  -30.1160 C   0  0  0  0  0  0  0  0  0  0  0  0
   -1.8709   24.4901  -28.9357 H   0  0  0  0  0  0  0  0  0  0  0  0
   -5.5885   24.7246  -31.9322 H   0  0  0  0  0  0  0  0  0  0  0  0
   -5.1463   23.3036  -32.9520 H   0  0  0  0  0  0  0  0  0  0  0  0
   -7.0570   22.0135  -33.3840 H   0  0  0  0  0  0  0  0  0  0  0  0
   -9.0691   20.7864  -32.5431 H   0  0  0  0  0  0  0  0  0  0  0  0
   -9.7318   21.0071  -30.1413 H   0  0  0  0  0  0  0  0  0  0  0  0
   -6.4517   23.6305  -29.4126 H   0  0  0  0  0  0  0  0  0  0  0  0
  1  2  1  0
  2  3  2  0
  3  4  1  0
  4  5  1  0
  5  6  2  0
  5  7  1  0
  7  8  1  0
  8  9  1  0
  9 10  2  0
 10 11  1  0
 11 12  2  0
 12 13  1  0
 13 14  2  0
  7  2  1  0
 14  9  1  0
  3 15  1  0
  8 16  1  0
  8 17  1  0
 10 18  1  0
 11 19  1  0
 12 20  1  0
 14 21  1  0
M  CHG  1   1  -1
M  END
>  <UniqueID>  (46) 
45

>  <SMILES>  (46) 
[O-]c1csc(=S)n1Cc1cccnc1

>  <Energy>  (46) 
53.35990418031915

>  <Genealogy>  (46) 
[O-]c1csc(=S)n1Cc1cccnc1 (protonated)
[O-]c1csc(=S)n1Cc1cccnc1 (3D coordinates assigned)
[O-]c1csc(=S)n1Cc1cccnc1 (optimized conformer: 53.35990418031915 kcal/mol)

>  <smiles>  (46) 
Oc1csc(=S)n1Cc1cccnc1

>  <score_type>  (46) 
oracle

>  <origin>  (46) 
adgpu

>  <m_score__min__energy>  (46) 
-8.1699999999999999

>  <m_primary>  (46) 
energy

$$$$
46:0
     RDKit          3D

 49 52  0  0  0  0  0  0  0  0999 V2000
   -5.8160   24.5090  -30.9300 C   0  0  0  0  0  0  0  0  0  0  0  0
   -4.6780   23.9020  -31.5330 O   0  0  0  0  0  0  0  0  0  0  0  0
   -3.6420   23.2670  -30.8300 C   0  0  0  0  0  0  0  0  0  0  0  0
   -3.3700   23.5780  -29.4820 C   0  0  0  0  0  0  0  0  0  0  0  0
   -2.3040   22.9700  -28.8160 C   0  0  0  0  0  0  0  0  0  0  0  0
   -1.4940   22.0530  -29.4830 C   0  0  0  0  0  0  0  0  0  0  0  0
   -1.7550   21.7290  -30.8140 C   0  0  0  0  0  0  0  0  0  0  0  0
   -2.8380   22.3090  -31.4930 C   0  0  0  0  0  0  0  0  0  0  0  0
   -3.0790   21.9270  -32.8590 N   0  0  0  0  0  0  0  0  0  0  0  0
   -2.6450   20.6890  -33.4420 C   0  0  0  0  0  0  0  0  0  0  0  0
   -1.4180   20.4360  -34.0380 C   0  0  0  0  0  0  0  0  0  0  0  0
   -0.2760   21.3470  -34.2450 C   0  0  0  0  0  0  0  0  0  0  0  0
    0.5550   21.5290  -33.3160 O   0  0  0  0  0  0  0  0  0  0  0  0
   -0.1030   22.0050  -35.5100 N   0  0  0  0  0  0  0  0  0  0  0  0
    0.8300   23.0780  -35.7350 C   0  0  0  0  0  0  0  0  0  0  0  0
    2.2130   22.9000  -35.5430 C   0  0  0  0  0  0  0  0  0  0  0  0
    3.0950   23.9650  -35.7480 C   0  0  0  0  0  0  0  0  0  0  0  0
    2.6060   25.2160  -36.1330 C   0  0  0  0  0  0  0  0  0  0  0  0
    1.2320   25.4070  -36.3040 C   0  0  0  0  0  0  0  0  0  0  0  0
    0.3470   24.3440  -36.0990 C   0  0  0  0  0  0  0  0  0  0  0  0
   -1.5280   19.1400  -34.5090 C   0  0  0  0  0  0  0  0  0  0  0  0
   -2.7550   18.6570  -34.2240 N   0  0  0  0  0  0  0  0  0  0  0  0
   -3.4280   19.5970  -33.5770 N   0  0  0  0  0  0  0  0  0  0  0  0
   -4.7710   19.4130  -33.0970 C   0  0  0  0  0  0  0  0  0  0  0  0
   -5.3250   18.1280  -32.9720 C   0  0  0  0  0  0  0  0  0  0  0  0
   -6.6370   17.9660  -32.5200 C   0  0  0  0  0  0  0  0  0  0  0  0
   -7.4170   19.0830  -32.1990 C   0  0  0  0  0  0  0  0  0  0  0  0
   -9.0640   18.8370  -31.6350 Cl  0  0  0  0  0  0  0  0  0  0  0  0
   -6.8780   20.3720  -32.3390 C   0  0  0  0  0  0  0  0  0  0  0  0
   -7.8260   21.8020  -31.9560 Cl  0  0  0  0  0  0  0  0  0  0  0  0
   -5.5630   20.5320  -32.7930 C   0  0  0  0  0  0  0  0  0  0  0  0
   -5.7215   24.4586  -29.8352 H   0  0  0  0  0  0  0  0  0  0  0  0
   -5.8802   25.5611  -31.2444 H   0  0  0  0  0  0  0  0  0  0  0  0
   -6.7255   23.9762  -31.2444 H   0  0  0  0  0  0  0  0  0  0  0  0
   -4.0022   24.3049  -28.9511 H   0  0  0  0  0  0  0  0  0  0  0  0
   -2.1032   23.2154  -27.7627 H   0  0  0  0  0  0  0  0  0  0  0  0
   -0.6479   21.5843  -28.9591 H   0  0  0  0  0  0  0  0  0  0  0  0
   -1.1056   21.0116  -31.3371 H   0  0  0  0  0  0  0  0  0  0  0  0
   -3.6130   22.5870  -33.4700 H   0  0  0  0  0  0  0  0  0  0  0  0
   -0.5960   21.6060  -36.3400 H   0  0  0  0  0  0  0  0  0  0  0  0
    2.6012   21.9193  -35.2305 H   0  0  0  0  0  0  0  0  0  0  0  0
    4.1758   23.8179  -35.6060 H   0  0  0  0  0  0  0  0  0  0  0  0
    3.3024   26.0506  -36.3015 H   0  0  0  0  0  0  0  0  0  0  0  0
    0.8467   26.3939  -36.6000 H   0  0  0  0  0  0  0  0  0  0  0  0
   -0.7345   24.5013  -36.2239 H   0  0  0  0  0  0  0  0  0  0  0  0
   -0.7359   18.5875  -35.0356 H   0  0  0  0  0  0  0  0  0  0  0  0
   -4.7227   17.2449  -33.2313 H   0  0  0  0  0  0  0  0  0  0  0  0
   -7.0591   16.9556  -32.4159 H   0  0  0  0  0  0  0  0  0  0  0  0
   -5.1468   21.5432  -32.9125 H   0  0  0  0  0  0  0  0  0  0  0  0
  1  2  1  0
  2  3  1  0
  3  4  2  0
  4  5  1  0
  5  6  2  0
  6  7  1  0
  7  8  2  0
  8  9  1  0
  9 10  1  0
 10 11  2  0
 11 12  1  0
 12 13  2  0
 12 14  1  0
 14 15  1  0
 15 16  2  0
 16 17  1  0
 17 18  2  0
 18 19  1  0
 19 20  2  0
 11 21  1  0
 21 22  2  0
 22 23  1  0
 23 24  1  0
 24 25  2  0
 25 26  1  0
 26 27  2  0
 27 28  1  0
 27 29  1  0
 29 30  1  0
 29 31  2  0
  8  3  1  0
 23 10  1  0
 31 24  1  0
 20 15  1  0
  1 32  1  0
  1 33  1  0
  1 34  1  0
  4 35  1  0
  5 36  1  0
  6 37  1  0
  7 38  1  0
  9 39  1  0
 14 40  1  0
 16 41  1  0
 17 42  1  0
 18 43  1  0
 19 44  1  0
 20 45  1  0
 21 46  1  0
 25 47  1  0
 26 48  1  0
 31 49  1  0
M  END
>  <UniqueID>  (47) 
46

>  <SMILES>  (47) 
COc1ccccc1Nc1c(C(=O)Nc2ccccc2)cnn1-c1ccc(Cl)c(Cl)c1

>  <Energy>  (47) 
99.94317385572138

>  <Genealogy>  (47) 
COc1ccccc1Nc1c(C(=O)Nc2ccccc2)cnn1-c1ccc(Cl)c(Cl)c1 (3D coordinates assigned)
COc1ccccc1Nc1c(C(=O)Nc2ccccc2)cnn1-c1ccc(Cl)c(Cl)c1 (optimized conformer: 99.94317385572138 kcal/mol)

>  <smiles>  (47) 
COc1ccccc1Nc1c(C(=O)Nc2ccccc2)cnn1-c1ccc(Cl)c(Cl)c1

>  <score_type>  (47) 
oracle

>  <origin>  (47) 
adgpu

>  <m_score__min__energy>  (47) 
-9.6500000000000004

>  <m_primary>  (47) 
energy

$$$$
47:0
     RDKit          3D

 56 59  0  0  0  0  0  0  0  0999 V2000
   -5.4530   18.9570  -33.8690 C   0  0  0  0  0  0  0  0  0  0  0  0
   -6.6680   19.2950  -33.0510 C   0  0  0  0  0  0  0  0  0  0  0  0
   -7.5440   18.2880  -32.6200 C   0  0  0  0  0  0  0  0  0  0  0  0
   -8.6950   18.6210  -31.8990 C   0  0  0  0  0  0  0  0  0  0  0  0
   -8.9860   19.9600  -31.6160 C   0  0  0  0  0  0  0  0  0  0  0  0
   -8.1120   20.9800  -32.0340 C   0  0  0  0  0  0  0  0  0  0  0  0
   -8.4130   22.4250  -31.7220 C   0  0  0  0  0  0  0  0  0  0  0  0
   -7.1440   23.2130  -31.6230 C   0  0  0  0  0  0  0  0  0  0  0  0
   -6.6940   23.8060  -32.6400 O   0  0  0  0  0  0  0  0  0  0  0  0
   -6.4120   23.2270  -30.3970 N   0  0  0  0  0  0  0  0  0  0  0  0
   -5.2640   24.4650  -30.0090 S   0  0  0  0  0  0  0  0  0  0  0  0
   -5.8410   25.3730  -28.9590 O   0  0  0  0  0  0  0  0  0  0  0  0
   -4.9820   25.2810  -31.2420 O   0  0  0  0  0  0  0  0  0  0  0  0
   -3.7880   23.7150  -29.3860 C   0  0  0  0  0  0  0  0  0  0  0  0
   -3.2330   24.1860  -28.1870 C   0  0  0  0  0  0  0  0  0  0  0  0
   -2.0480   23.6420  -27.6950 C   0  0  0  0  0  0  0  0  0  0  0  0
   -1.3910   22.6350  -28.4050 C   0  0  0  0  0  0  0  0  0  0  0  0
   -1.9200   22.1520  -29.6150 C   0  0  0  0  0  0  0  0  0  0  0  0
   -1.1650   21.0910  -30.3810 C   0  0  0  0  0  0  0  0  0  0  0  0
   -1.0340   21.4330  -31.7620 O   0  0  0  0  0  0  0  0  0  0  0  0
   -0.9200   20.4840  -32.7870 C   0  0  0  0  0  0  0  0  0  0  0  0
   -1.5800   19.2580  -32.6360 C   0  0  0  0  0  0  0  0  0  0  0  0
   -1.5080   18.2860  -33.6330 C   0  0  0  0  0  0  0  0  0  0  0  0
   -0.7780   18.5250  -34.7990 C   0  0  0  0  0  0  0  0  0  0  0  0
   -0.1160   19.7570  -34.9840 C   0  0  0  0  0  0  0  0  0  0  0  0
    0.6090   20.0600  -36.1620 C   0  0  0  0  0  0  0  0  0  0  0  0
    0.7530   19.0730  -37.2930 C   0  0  0  0  0  0  0  0  0  0  0  0
    1.1980   21.3270  -36.2820 C   0  0  0  0  0  0  0  0  0  0  0  0
    1.0550   22.2500  -35.2450 C   0  0  0  0  0  0  0  0  0  0  0  0
    1.5810   23.3910  -35.3430 O   0  0  0  0  0  0  0  0  0  0  0  0
    0.3710   21.9320  -34.1510 O   0  0  0  0  0  0  0  0  0  0  0  0
   -0.2020   20.7470  -33.9710 C   0  0  0  0  0  0  0  0  0  0  0  0
   -3.1400   22.6780  -30.0970 C   0  0  0  0  0  0  0  0  0  0  0  0
   -3.8470   22.0430  -31.5890 Cl  0  0  0  0  0  0  0  0  0  0  0  0
   -6.9590   20.6390  -32.7600 C   0  0  0  0  0  0  0  0  0  0  0  0
   -4.6129   18.7233  -33.1984 H   0  0  0  0  0  0  0  0  0  0  0  0
   -5.6692   18.0849  -34.5036 H   0  0  0  0  0  0  0  0  0  0  0  0
   -5.1878   19.8155  -34.5036 H   0  0  0  0  0  0  0  0  0  0  0  0
   -7.3253   17.2347  -32.8495 H   0  0  0  0  0  0  0  0  0  0  0  0
   -9.3739   17.8276  -31.5532 H   0  0  0  0  0  0  0  0  0  0  0  0
   -9.9024   20.2163  -31.0641 H   0  0  0  0  0  0  0  0  0  0  0  0
   -9.0393   22.8457  -32.5224 H   0  0  0  0  0  0  0  0  0  0  0  0
   -8.9426   22.4793  -30.7594 H   0  0  0  0  0  0  0  0  0  0  0  0
   -3.7367   24.9905  -27.6311 H   0  0  0  0  0  0  0  0  0  0  0  0
   -1.6294   24.0067  -26.7454 H   0  0  0  0  0  0  0  0  0  0  0  0
   -0.4518   22.2161  -28.0145 H   0  0  0  0  0  0  0  0  0  0  0  0
   -0.1617   20.9808  -29.9437 H   0  0  0  0  0  0  0  0  0  0  0  0
   -1.7291   20.1492  -30.3116 H   0  0  0  0  0  0  0  0  0  0  0  0
   -2.1603   19.0602  -31.7227 H   0  0  0  0  0  0  0  0  0  0  0  0
   -2.0288   17.3262  -33.5003 H   0  0  0  0  0  0  0  0  0  0  0  0
   -0.7188   17.7493  -35.5767 H   0  0  0  0  0  0  0  0  0  0  0  0
    0.9003   18.0633  -36.8820 H   0  0  0  0  0  0  0  0  0  0  0  0
   -0.1569   19.0882  -37.9110 H   0  0  0  0  0  0  0  0  0  0  0  0
    1.6206   19.3475  -37.9110 H   0  0  0  0  0  0  0  0  0  0  0  0
    1.7676   21.5909  -37.1853 H   0  0  0  0  0  0  0  0  0  0  0  0
   -6.2775   21.4310  -33.1040 H   0  0  0  0  0  0  0  0  0  0  0  0
  1  2  1  0
  2  3  2  0
  3  4  1  0
  4  5  2  0
  5  6  1  0
  6  7  1  0
  7  8  1  0
  8  9  2  0
  8 10  1  0
 10 11  1  0
 11 12  2  0
 11 13  2  0
 11 14  1  0
 14 15  2  0
 15 16  1  0
 16 17  2  0
 17 18  1  0
 18 19  1  0
 19 20  1  0
 20 21  1  0
 21 22  2  0
 22 23  1  0
 23 24  2  0
 24 25  1  0
 25 26  1  0
 26 27  1  0
 26 28  2  0
 28 29  1  0
 29 30  2  0
 29 31  1  0
 31 32  1  0
 18 33  2  0
 33 34  1  0
  6 35  2  0
 35  2  1  0
 33 14  1  0
 32 21  1  0
 32 25  2  0
  1 36  1  0
  1 37  1  0
  1 38  1  0
  3 39  1  0
  4 40  1  0
  5 41  1  0
  7 42  1  0
  7 43  1  0
 15 44  1  0
 16 45  1  0
 17 46  1  0
 19 47  1  0
 19 48  1  0
 22 49  1  0
 23 50  1  0
 24 51  1  0
 27 52  1  0
 27 53  1  0
 27 54  1  0
 28 55  1  0
 35 56  1  0
M  CHG  1  10  -1
M  END
>  <UniqueID>  (48) 
47

>  <SMILES>  (48) 
Cc1cccc(CC(=O)[N-]S(=O)(=O)c2cccc(COc3cccc4c(C)cc(=O)oc34)c2Cl)c1

>  <Energy>  (48) 
64.79656012358635

>  <Genealogy>  (48) 
Cc1cccc(CC(=O)[N-]S(=O)(=O)c2cccc(COc3cccc4c(C)cc(=O)oc34)c2Cl)c1 (protonated)
Cc1cccc(CC(=O)[N-]S(=O)(=O)c2cccc(COc3cccc4c(C)cc(=O)oc34)c2Cl)c1 (3D coordinates assigned)
Cc1cccc(CC(=O)[N-]S(=O)(=O)c2cccc(COc3cccc4c(C)cc(=O)oc34)c2Cl)c1 (optimized conformer: 64.79656012358635 kcal/mol)

>  <smiles>  (48) 
Cc1cccc(CC(=O)NS(=O)(=O)c2cccc(COc3cccc4c(C)cc(=O)oc34)c2Cl)c1

>  <score_type>  (48) 
oracle

>  <origin>  (48) 
adgpu

>  <m_score__min__energy>  (48) 
-11.75

>  <m_primary>  (48) 
energy

$$$$
48:0
     RDKit          3D

 57 60  0  0  0  0  0  0  0  0999 V2000
    0.6901   23.5703  -29.5162 H   0  0  0  0  0  0  0  0  0  0  0  0
   -0.3560   23.7700  -29.2410 C   0  0  0  0  0  0  0  0  0  0  0  0
   -1.3610   23.1910  -29.9430 N   0  0  0  0  0  0  0  0  0  0  0  0
   -2.6670   23.4070  -29.6390 C   0  0  0  0  0  0  0  0  0  0  0  0
   -3.6650   22.7870  -30.3990 C   0  0  0  0  0  0  0  0  0  0  0  0
   -3.3833   22.1323  -31.2369 H   0  0  0  0  0  0  0  0  0  0  0  0
   -5.0240   22.9920  -30.1030 C   0  0  0  0  0  0  0  0  0  0  0  0
   -6.0810   22.3280  -30.9100 C   0  0  0  0  0  0  0  0  0  0  0  0
   -7.4410   22.5820  -30.6520 C   0  0  0  0  0  0  0  0  0  0  0  0
   -7.7237   23.2766  -29.8472 H   0  0  0  0  0  0  0  0  0  0  0  0
   -8.4350   21.9580  -31.4110 C   0  0  0  0  0  0  0  0  0  0  0  0
   -9.4952   22.1609  -31.1993 H   0  0  0  0  0  0  0  0  0  0  0  0
   -8.0860   21.0780  -32.4370 C   0  0  0  0  0  0  0  0  0  0  0  0
   -8.8723   20.5914  -33.0328 H   0  0  0  0  0  0  0  0  0  0  0  0
   -6.7360   20.8120  -32.7110 C   0  0  0  0  0  0  0  0  0  0  0  0
   -6.3520   19.8900  -33.8380 C   0  0  0  0  0  0  0  0  0  0  0  0
   -6.2800   20.4685  -34.7708 H   0  0  0  0  0  0  0  0  0  0  0  0
   -7.1194   19.1080  -33.9359 H   0  0  0  0  0  0  0  0  0  0  0  0
   -5.0570   19.2540  -33.5620 N   0  0  0  0  0  0  0  0  0  0  0  0
   -4.9210   19.2590  -32.5220 H   0  0  0  0  0  0  0  0  0  0  0  0
   -5.0450   17.8520  -34.0080 C   0  0  0  0  0  0  0  0  0  0  0  0
   -4.0102   17.5495  -34.2265 H   0  0  0  0  0  0  0  0  0  0  0  0
   -5.6637   17.7589  -34.9127 H   0  0  0  0  0  0  0  0  0  0  0  0
   -5.6160   16.9450  -32.9200 C   0  0  0  0  0  0  0  0  0  0  0  0
   -4.8993   16.1396  -32.7016 H   0  0  0  0  0  0  0  0  0  0  0  0
   -6.5645   16.5100  -33.2681 H   0  0  0  0  0  0  0  0  0  0  0  0
   -5.8480   17.6980  -31.7480 O   0  0  0  0  0  0  0  0  0  0  0  0
   -7.2380   17.8180  -31.5380 C   0  0  0  0  0  0  0  0  0  0  0  0
   -7.4454   17.8359  -30.4579 H   0  0  0  0  0  0  0  0  0  0  0  0
   -7.5989   18.7506  -31.9962 H   0  0  0  0  0  0  0  0  0  0  0  0
   -7.7534   16.9610  -31.9962 H   0  0  0  0  0  0  0  0  0  0  0  0
   -5.7390   21.4380  -31.9460 C   0  0  0  0  0  0  0  0  0  0  0  0
   -4.6797   21.2310  -32.1582 H   0  0  0  0  0  0  0  0  0  0  0  0
   -5.3660   23.8360  -29.0310 C   0  0  0  0  0  0  0  0  0  0  0  0
   -6.4256   24.0044  -28.7881 H   0  0  0  0  0  0  0  0  0  0  0  0
   -4.3750   24.4630  -28.2710 C   0  0  0  0  0  0  0  0  0  0  0  0
   -4.6613   25.1219  -27.4380 H   0  0  0  0  0  0  0  0  0  0  0  0
   -3.0130   24.2580  -28.5630 C   0  0  0  0  0  0  0  0  0  0  0  0
   -1.9830   24.8670  -27.8080 C   0  0  0  0  0  0  0  0  0  0  0  0
   -2.2930   25.6700  -26.8230 N   0  0  0  0  0  0  0  0  0  0  0  0
   -1.3960   26.3050  -25.9000 C   0  0  0  0  0  0  0  0  0  0  0  0
   -1.1560   25.7560  -24.6310 C   0  0  0  0  0  0  0  0  0  0  0  0
   -1.6288   24.8043  -24.3469 H   0  0  0  0  0  0  0  0  0  0  0  0
   -0.3190   26.4140  -23.7280 C   0  0  0  0  0  0  0  0  0  0  0  0
   -0.1228   25.9735  -22.7393 H   0  0  0  0  0  0  0  0  0  0  0  0
    0.2700   27.6320  -24.0790 C   0  0  0  0  0  0  0  0  0  0  0  0
    0.9377   28.1409  -23.3683 H   0  0  0  0  0  0  0  0  0  0  0  0
    0.0160   28.2080  -25.3280 C   0  0  0  0  0  0  0  0  0  0  0  0
    0.6240   29.4360  -25.6310 O   0  0  0  0  0  0  0  0  0  0  0  0
    0.2180   30.2950  -26.6910 C   0  0  0  0  0  0  0  0  0  0  0  0
   -0.2166   31.2145  -26.2718 H   0  0  0  0  0  0  0  0  0  0  0  0
    1.0904   30.5510  -27.3101 H   0  0  0  0  0  0  0  0  0  0  0  0
   -0.5336   29.7834  -27.3101 H   0  0  0  0  0  0  0  0  0  0  0  0
   -0.8340   27.5430  -26.2340 C   0  0  0  0  0  0  0  0  0  0  0  0
   -1.0573   27.9994  -27.2096 H   0  0  0  0  0  0  0  0  0  0  0  0
   -0.6430   24.6180  -28.1710 C   0  0  0  0  0  0  0  0  0  0  0  0
    0.1759   25.0925  -27.6104 H   0  0  0  0  0  0  0  0  0  0  0  0
  1  2  1  0
  2  3  1  0
  3  4  1  0
  4  5  2  0
  5  6  1  0
  5  7  1  0
  7  8  1  0
  8  9  2  0
  9 10  1  0
  9 11  1  0
 11 12  1  0
 11 13  2  0
 13 14  1  0
 13 15  1  0
 15 16  1  0
 16 17  1  0
 16 18  1  0
 16 19  1  0
 19 20  1  0
 19 21  1  0
 21 22  1  0
 21 23  1  0
 21 24  1  0
 24 25  1  0
 24 26  1  0
 24 27  1  0
 27 28  1  0
 28 29  1  0
 28 30  1  0
 28 31  1  0
 15 32  2  0
 32 33  1  0
  7 34  2  0
 34 35  1  0
 34 36  1  0
 36 37  1  0
 36 38  2  0
 38 39  1  0
 39 40  2  0
 40 41  1  0
 41 42  2  0
 42 43  1  0
 42 44  1  0
 44 45  1  0
 44 46  2  0
 46 47  1  0
 46 48  1  0
 48 49  1  0
 49 50  1  0
 50 51  1  0
 50 52  1  0
 50 53  1  0
 48 54  2  0
 54 55  1  0
 39 56  1  0
 56 57  1  0
 56  2  2  0
 38  4  1  0
 54 41  1  0
 32  8  1  0
M  CHG  1   3  -1
M  END
>  <UniqueID>  (49) 
48

>  <SMILES>  (49) 
COCCNCc1cccc(-c2ccc3/c(=N/c4cccc(OC)c4)cc[n-]c3c2)c1

>  <Energy>  (49) 
77.59091700531123

>  <Genealogy>  (49) 
COCCNCc1cccc(-c2ccc3c(=Nc4cccc(OC)c4)cc[n-]c3c2)c1 (protonated)
COCCNCc1cccc(-c2ccc3/c(=N/c4cccc(OC)c4)cc[n-]c3c2)c1 (cis-trans isomerization)
COCCNCc1cccc(-c2ccc3/c(=N/c4cccc(OC)c4)cc[n-]c3c2)c1 (3D coordinates assigned)
COCCNCc1cccc(-c2ccc3/c(=N/c4cccc(OC)c4)cc[n-]c3c2)c1 (optimized conformer: 77.59091700531123 kcal/mol)

>  <smiles>  (49) 
COCCNCc1cccc(-c2ccc3c(=Nc4cccc(OC)c4)cc[nH]c3c2)c1

>  <score_type>  (49) 
oracle

>  <origin>  (49) 
adgpu

>  <m_score__min__energy>  (49) 
-9.0999999999999996

>  <m_primary>  (49) 
energy

$$$$
