0:0
     RDKit          3D

 52 55  0  0  0  0  0  0  0  0999 V2000
   -6.4890   24.1360  -31.7460 C   0  0  0  0  0  0  0  0  0  0  0  0
   -7.1460   22.8010  -31.9390 C   0  0  0  0  0  0  0  0  0  0  0  0
   -8.5080   22.6350  -31.6560 C   0  0  0  0  0  0  0  0  0  0  0  0
   -9.1100   21.3820  -31.7940 C   0  0  0  0  0  0  0  0  0  0  0  0
   -8.3570   20.2690  -32.2000 C   0  0  0  0  0  0  0  0  0  0  0  0
   -9.0370   18.9360  -32.3450 C   0  0  0  0  0  0  0  0  0  0  0  0
   -6.9860   20.4360  -32.4990 C   0  0  0  0  0  0  0  0  0  0  0  0
   -6.1810   19.3350  -32.9440 N   0  0  0  0  0  0  0  0  0  0  0  0
   -5.4610   18.5130  -31.9720 C   0  0  0  0  0  0  0  0  0  0  0  0
   -3.9890   18.3070  -32.3940 C   0  0  0  0  0  0  0  0  0  0  0  0
   -3.7430   18.4160  -33.8610 N   0  0  0  0  0  0  0  0  0  0  0  0
   -3.1830   19.7500  -34.2120 C   0  0  0  0  0  0  0  0  0  0  0  0
   -2.6030   20.4700  -33.0140 C   0  0  0  0  0  0  0  0  0  0  0  0
   -1.3530   20.0960  -32.4960 C   0  0  0  0  0  0  0  0  0  0  0  0
   -0.8240   20.7480  -31.3790 C   0  0  0  0  0  0  0  0  0  0  0  0
   -1.5400   21.7830  -30.7630 C   0  0  0  0  0  0  0  0  0  0  0  0
   -1.0190   22.4410  -29.6370 C   0  0  0  0  0  0  0  0  0  0  0  0
   -1.7410   23.4740  -29.0300 C   0  0  0  0  0  0  0  0  0  0  0  0
   -1.2340   24.1050  -27.9430 F   0  0  0  0  0  0  0  0  0  0  0  0
   -2.9840   23.8560  -29.5430 C   0  0  0  0  0  0  0  0  0  0  0  0
   -3.5130   23.2090  -30.6630 C   0  0  0  0  0  0  0  0  0  0  0  0
   -2.7980   22.1720  -31.2810 C   0  0  0  0  0  0  0  0  0  0  0  0
   -3.3200   21.5130  -32.4050 C   0  0  0  0  0  0  0  0  0  0  0  0
   -4.9450   18.0610  -34.6550 C   0  0  0  0  0  0  0  0  0  0  0  0
   -6.1210   19.0050  -34.3690 C   0  0  0  0  0  0  0  0  0  0  0  0
   -6.3880   21.6950  -32.3450 C   0  0  0  0  0  0  0  0  0  0  0  0
   -6.3873   24.3426  -30.6704 H   0  0  0  0  0  0  0  0  0  0  0  0
   -5.4931   24.1255  -32.2131 H   0  0  0  0  0  0  0  0  0  0  0  0
   -7.1048   24.9187  -32.2131 H   0  0  0  0  0  0  0  0  0  0  0  0
   -9.1065   23.4959  -31.3234 H   0  0  0  0  0  0  0  0  0  0  0  0
  -10.1833   21.2665  -31.5827 H   0  0  0  0  0  0  0  0  0  0  0  0
   -9.2483   18.5218  -31.3481 H   0  0  0  0  0  0  0  0  0  0  0  0
   -9.9802   19.0636  -32.8965 H   0  0  0  0  0  0  0  0  0  0  0  0
   -8.3801   18.2473  -32.8965 H   0  0  0  0  0  0  0  0  0  0  0  0
   -5.4866   19.0116  -30.9918 H   0  0  0  0  0  0  0  0  0  0  0  0
   -5.9489   17.5285  -31.9199 H   0  0  0  0  0  0  0  0  0  0  0  0
   -3.3768   19.0667  -31.8860 H   0  0  0  0  0  0  0  0  0  0  0  0
   -3.7238   17.2782  -32.1088 H   0  0  0  0  0  0  0  0  0  0  0  0
   -3.0080   17.7070  -34.0940 H   0  0  0  0  0  0  0  0  0  0  0  0
   -2.3880   19.6129  -34.9598 H   0  0  0  0  0  0  0  0  0  0  0  0
   -4.0065   20.3648  -34.6042 H   0  0  0  0  0  0  0  0  0  0  0  0
   -0.7855   19.2834  -32.9731 H   0  0  0  0  0  0  0  0  0  0  0  0
    0.1571   20.4479  -30.9822 H   0  0  0  0  0  0  0  0  0  0  0  0
   -0.0408   22.1434  -29.2314 H   0  0  0  0  0  0  0  0  0  0  0  0
   -3.5481   24.6693  -29.0630 H   0  0  0  0  0  0  0  0  0  0  0  0
   -4.4922   23.5134  -31.0610 H   0  0  0  0  0  0  0  0  0  0  0  0
   -4.2965   21.8152  -32.8114 H   0  0  0  0  0  0  0  0  0  0  0  0
   -4.6944   18.1194  -35.7245 H   0  0  0  0  0  0  0  0  0  0  0  0
   -5.2501   17.0423  -34.3735 H   0  0  0  0  0  0  0  0  0  0  0  0
   -5.9914   19.9304  -34.9494 H   0  0  0  0  0  0  0  0  0  0  0  0
   -7.0568   18.5037  -34.6570 H   0  0  0  0  0  0  0  0  0  0  0  0
   -5.3130   21.8154  -32.5450 H   0  0  0  0  0  0  0  0  0  0  0  0
  1  2  1  0
  2  3  2  0
  3  4  1  0
  4  5  2  0
  5  6  1  0
  5  7  1  0
  7  8  1  0
  8  9  1  0
  9 10  1  0
 10 11  1  0
 11 12  1  0
 12 13  1  0
 13 14  2  0
 14 15  1  0
 15 16  2  0
 16 17  1  0
 17 18  2  0
 18 19  1  0
 18 20  1  0
 20 21  2  0
 21 22  1  0
 22 23  2  0
 11 24  1  0
 24 25  1  0
  7 26  2  0
 26  2  1  0
 25  8  1  0
 23 13  1  0
 22 16  1  0
  1 27  1  0
  1 28  1  0
  1 29  1  0
  3 30  1  0
  4 31  1  0
  6 32  1  0
  6 33  1  0
  6 34  1  0
  9 35  1  0
  9 36  1  0
 10 37  1  0
 10 38  1  0
 11 39  1  0
 12 40  1  0
 12 41  1  0
 14 42  1  0
 15 43  1  0
 17 44  1  0
 20 45  1  0
 21 46  1  0
 23 47  1  0
 24 48  1  0
 24 49  1  0
 25 50  1  0
 25 51  1  0
 26 52  1  0
M  CHG  1  11   1
M  END
>  <UniqueID>  (1) 
1

>  <SMILES>  (1) 
Cc1ccc(C)c(N2CC[NH+](Cc3ccc4cc(F)ccc4c3)CC2)c1

>  <Energy>  (1) 
71.77472191698368

>  <Genealogy>  (1) 
Cc1ccc(C)c(N2CC[NH+](Cc3ccc4cc(F)ccc4c3)CC2)c1 (protonated)
Cc1ccc(C)c(N2CC[NH+](Cc3ccc4cc(F)ccc4c3)CC2)c1 (3D coordinates assigned)
Cc1ccc(C)c(N2CC[NH+](Cc3ccc4cc(F)ccc4c3)CC2)c1 (nonaromatic ring conformer: 71.77472191698368 kcal/mol)

>  <smiles>  (1) 
Cc1ccc(C)c(N2CCN(Cc3ccc4cc(F)ccc4c3)CC2)c1

>  <score_type>  (1) 
oracle

>  <origin>  (1) 
adgpu

>  <m_score__min__energy>  (1) 
-8.0600000000000005

>  <m_primary>  (1) 
energy

$$$$
1:0
     RDKit          3D

 38 40  0  0  0  0  0  0  0  0999 V2000
   -0.3120   26.8530  -28.4890 H   0  0  0  0  0  0  0  0  0  0  0  0
   -1.2270   26.5460  -28.8900 N   0  0  0  0  0  0  0  0  0  0  0  0
   -1.5070   25.2930  -29.0510 C   0  0  0  0  0  0  0  0  0  0  0  0
   -2.7050   24.9340  -29.5760 N   0  0  0  0  0  0  0  0  0  0  0  0
   -3.0400   23.6300  -29.7640 C   0  0  0  0  0  0  0  0  0  0  0  0
   -4.3360   23.3270  -30.4100 C   0  0  0  0  0  0  0  0  0  0  0  0
   -4.3960   22.4130  -31.4750 C   0  0  0  0  0  0  0  0  0  0  0  0
   -3.4784   21.9096  -31.8137 H   0  0  0  0  0  0  0  0  0  0  0  0
   -5.6090   22.1380  -32.1070 C   0  0  0  0  0  0  0  0  0  0  0  0
   -5.6430   21.4150  -32.9353 H   0  0  0  0  0  0  0  0  0  0  0  0
   -6.7890   22.7810  -31.6900 C   0  0  0  0  0  0  0  0  0  0  0  0
   -8.0380   22.5320  -32.2840 O   0  0  0  0  0  0  0  0  0  0  0  0
   -8.8380   21.3690  -32.0670 C   0  0  0  0  0  0  0  0  0  0  0  0
   -9.1811   21.3572  -31.0219 H   0  0  0  0  0  0  0  0  0  0  0  0
   -9.6980   21.3999  -32.7521 H   0  0  0  0  0  0  0  0  0  0  0  0
   -8.0480   20.1180  -32.3410 C   0  0  0  0  0  0  0  0  0  0  0  0
   -7.2290   20.0370  -33.4810 C   0  0  0  0  0  0  0  0  0  0  0  0
   -7.1714   20.8879  -34.1757 H   0  0  0  0  0  0  0  0  0  0  0  0
   -6.4880   18.8800  -33.7350 C   0  0  0  0  0  0  0  0  0  0  0  0
   -5.8531   18.8204  -34.6313 H   0  0  0  0  0  0  0  0  0  0  0  0
   -6.5520   17.7980  -32.8520 C   0  0  0  0  0  0  0  0  0  0  0  0
   -5.9706   16.8866  -33.0553 H   0  0  0  0  0  0  0  0  0  0  0  0
   -7.3550   17.8750  -31.7110 C   0  0  0  0  0  0  0  0  0  0  0  0
   -7.4033   17.0243  -31.0153 H   0  0  0  0  0  0  0  0  0  0  0  0
   -8.0970   19.0310  -31.4520 C   0  0  0  0  0  0  0  0  0  0  0  0
   -8.7218   19.0899  -30.5486 H   0  0  0  0  0  0  0  0  0  0  0  0
   -6.7270   23.7080  -30.6440 C   0  0  0  0  0  0  0  0  0  0  0  0
   -7.6428   24.2240  -30.3199 H   0  0  0  0  0  0  0  0  0  0  0  0
   -5.5110   23.9870  -30.0040 C   0  0  0  0  0  0  0  0  0  0  0  0
   -5.4720   24.9070  -28.9560 O   0  0  0  0  0  0  0  0  0  0  0  0
   -4.6380   25.4450  -28.7520 H   0  0  0  0  0  0  0  0  0  0  0  0
   -2.1250   22.6170  -29.3910 C   0  0  0  0  0  0  0  0  0  0  0  0
   -2.4620   21.2210  -29.4930 N   0  0  0  0  0  0  0  0  0  0  0  0
   -2.1280   20.5610  -30.4990 O   0  0  0  0  0  0  0  0  0  0  0  0
   -3.0670   20.5740  -28.4410 O   0  0  0  0  0  0  0  0  0  0  0  0
   -0.8840   23.0200  -28.8590 C   0  0  0  0  0  0  0  0  0  0  0  0
   -0.0290   22.1680  -28.5020 O   0  0  0  0  0  0  0  0  0  0  0  0
   -0.6070   24.3400  -28.7040 N   0  0  0  0  0  0  0  0  0  0  0  0
  1  2  1  0
  2  3  2  0
  3  4  1  0
  4  5  1  0
  5  6  1  0
  6  7  2  0
  7  8  1  0
  7  9  1  0
  9 10  1  0
  9 11  2  0
 11 12  1  0
 12 13  1  0
 13 14  1  0
 13 15  1  0
 13 16  1  0
 16 17  2  0
 17 18  1  0
 17 19  1  0
 19 20  1  0
 19 21  2  0
 21 22  1  0
 21 23  1  0
 23 24  1  0
 23 25  2  0
 25 26  1  0
 11 27  1  0
 27 28  1  0
 27 29  2  0
 29 30  1  0
 30 31  1  0
  5 32  2  0
 32 33  1  0
 33 34  2  0
 33 35  1  0
 32 36  1  0
 36 37  2  0
 36 38  1  0
 38  3  1  0
 29  6  1  0
 25 16  1  0
M  CHG  4   4  -1  33   1  35  -1  38  -1
M  END
>  <UniqueID>  (2) 
2

>  <SMILES>  (2) 
[H]/N=c1/[n-]c(-c2ccc(OCc3ccccc3)cc2O)c([N+](=O)[O-])c(=O)[n-]1

>  <Energy>  (2) 
53.201635194767526

>  <Genealogy>  (2) 
N=c1[n-]c(-c2ccc(OCc3ccccc3)cc2O)c([N+](=O)[O-])c(=O)[n-]1 (protonated)
[H]/N=c1/[n-]c(-c2ccc(OCc3ccccc3)cc2O)c([N+](=O)[O-])c(=O)[n-]1 (cis-trans isomerization)
[H]/N=c1/[n-]c(-c2ccc(OCc3ccccc3)cc2O)c([N+](=O)[O-])c(=O)[n-]1 (3D coordinates assigned)
[H]/N=c1/[n-]c(-c2ccc(OCc3ccccc3)cc2O)c([N+](=O)[O-])c(=O)[n-]1 (optimized conformer: 53.201635194767526 kcal/mol)

>  <smiles>  (2) 
N=c1[nH]c(-c2ccc(OCc3ccccc3)cc2O)c([N+](=O)[O-])c(=O)[nH]1

>  <score_type>  (2) 
oracle

>  <origin>  (2) 
adgpu

>  <m_score__min__energy>  (2) 
-11.84

>  <m_primary>  (2) 
energy

$$$$
2:0
     RDKit          3D

 46 48  0  0  1  0  0  0  0  0999 V2000
    0.9170   24.4520  -26.8150 C   0  0  0  0  0  0  0  0  0  0  0  0
    0.2930   25.4370  -25.8870 C   0  0  0  0  0  0  0  0  0  0  0  0
    0.7910   25.5350  -24.6050 C   0  0  0  0  0  0  0  0  0  0  0  0
    0.1960   26.4600  -23.7540 C   0  0  0  0  0  0  0  0  0  0  0  0
   -0.8620   27.2610  -24.1700 C   0  0  0  0  0  0  0  0  0  0  0  0
   -1.3300   27.1270  -25.4740 C   0  0  0  0  0  0  0  0  0  0  0  0
   -0.7580   26.2170  -26.3370 C   0  0  0  0  0  0  0  0  0  0  0  0
   -1.1940   26.0350  -27.6800 N   0  0  0  0  0  0  0  0  0  0  0  0
   -2.0910   25.2160  -28.0610 C   0  0  0  0  0  0  0  0  0  0  0  0
   -2.4840   25.0630  -29.3370 N   0  0  0  0  0  0  0  0  0  0  0  0
   -3.4430   24.1710  -29.6590 C   0  0  0  0  0  0  0  0  0  0  0  0
   -3.7720   24.0760  -30.9030 N   0  0  0  0  0  0  0  0  0  0  0  0
   -4.7630   23.1860  -31.4040 C   0  0  0  0  0  0  0  0  0  0  0  0
   -5.9390   23.5730  -31.9660 C   0  0  0  0  0  0  0  0  0  0  0  0
   -6.8490   22.6310  -32.4300 C   0  0  0  0  0  0  0  0  0  0  0  0
   -6.5460   21.2760  -32.3130 C   0  0  0  0  0  0  0  0  0  0  0  0
   -7.5030   20.2550  -32.8020 C   0  0  0  0  0  0  0  0  0  0  0  0
   -8.9580   20.2200  -31.7570 S   0  0  0  0  0  0  0  0  0  0  0  0
   -8.7330   21.4680  -30.5160 C   0  0  0  0  0  0  0  0  0  0  0  0
  -10.1770   20.5270  -32.5660 O   0  0  0  0  0  0  0  0  0  0  0  0
   -9.0440   18.8730  -31.1370 O   0  0  0  0  0  0  0  0  0  0  0  0
   -5.3460   20.8540  -31.7400 C   0  0  0  0  0  0  0  0  0  0  0  0
   -4.4690   21.8260  -31.2920 C   0  0  0  0  0  0  0  0  0  0  0  0
   -4.0620   23.3890  -28.7680 N   0  0  0  0  0  0  0  0  0  0  0  0
   -3.6850   23.5220  -27.4770 C   0  0  0  0  0  0  0  0  0  0  0  0
   -2.7010   24.4310  -27.1090 C   0  0  0  0  0  0  0  0  0  0  0  0
   -2.3560   24.5320  -25.8200 F   0  0  0  0  0  0  0  0  0  0  0  0
    1.4161   23.6641  -26.2319 H   0  0  0  0  0  0  0  0  0  0  0  0
    0.1390   24.0018  -27.4491 H   0  0  0  0  0  0  0  0  0  0  0  0
    1.6564   24.9631  -27.4491 H   0  0  0  0  0  0  0  0  0  0  0  0
    1.6275   24.9052  -24.2680 H   0  0  0  0  0  0  0  0  0  0  0  0
    0.5719   26.5607  -22.7252 H   0  0  0  0  0  0  0  0  0  0  0  0
   -1.3202   27.9865  -23.4817 H   0  0  0  0  0  0  0  0  0  0  0  0
   -2.1652   27.7540  -25.8195 H   0  0  0  0  0  0  0  0  0  0  0  0
   -2.0110   25.6660  -30.0480 H   0  0  0  0  0  0  0  0  0  0  0  0
   -6.1728   24.6442  -32.0544 H   0  0  0  0  0  0  0  0  0  0  0  0
   -7.7980   22.9514  -32.8846 H   0  0  0  0  0  0  0  0  0  0  0  0
   -7.8012   20.5003  -33.8320 H   0  0  0  0  0  0  0  0  0  0  0  0
   -7.0188   19.2677  -32.7763 H   0  0  0  0  0  0  0  0  0  0  0  0
   -8.8152   21.0120  -29.5183 H   0  0  0  0  0  0  0  0  0  0  0  0
   -7.7383   21.9235  -30.6302 H   0  0  0  0  0  0  0  0  0  0  0  0
   -9.5060   22.2422  -30.6302 H   0  0  0  0  0  0  0  0  0  0  0  0
   -5.1052   19.7847  -31.6475 H   0  0  0  0  0  0  0  0  0  0  0  0
   -3.5161   21.5193  -30.8361 H   0  0  0  0  0  0  0  0  0  0  0  0
   -4.7860   22.7240  -29.0600 H   0  0  0  0  0  0  0  0  0  0  0  0
   -4.1645   22.9011  -26.7059 H   0  0  0  0  0  0  0  0  0  0  0  0
  1  2  1  0
  2  3  2  0
  3  4  1  0
  4  5  2  0
  5  6  1  0
  6  7  2  0
  7  8  1  0
  8  9  2  0
  9 10  1  0
 10 11  1  0
 11 12  2  0
 12 13  1  0
 13 14  2  0
 14 15  1  0
 15 16  2  0
 16 17  1  0
 17 18  1  0
 18 19  1  0
 18 20  2  0
 18 21  2  0
 16 22  1  0
 22 23  2  0
 11 24  1  0
 24 25  1  0
 25 26  2  0
 26 27  1  0
  7  2  1  0
 26  9  1  0
 23 13  1  0
  1 28  1  0
  1 29  1  0
  1 30  1  0
  3 31  1  0
  4 32  1  0
  5 33  1  0
  6 34  1  0
 10 35  1  0
 14 36  1  0
 15 37  1  0
 17 38  1  0
 17 39  1  0
 19 40  1  0
 19 41  1  0
 19 42  1  0
 22 43  1  0
 23 44  1  0
 24 45  1  0
 25 46  1  0
M  END
>  <smiles>  (3) 
Cc1ccccc1N=c1[nH]c(=Nc2ccc(CS(C)(=O)=O)cc2)[nH]cc1F

>  <score_type>  (3) 
oracle

>  <origin>  (3) 
adgpu

>  <m_score__min__energy>  (3) 
-9.3599999999999994

>  <m_primary>  (3) 
energy

$$$$
3:0
     RDKit          3D

 44 46  0  0  0  0  0  0  0  0999 V2000
   -2.5040   17.1970  -33.9280 C   0  0  0  0  0  0  0  0  0  0  0  0
   -3.6470   17.7340  -34.5850 O   0  0  0  0  0  0  0  0  0  0  0  0
   -4.8700   18.0010  -33.9520 C   0  0  0  0  0  0  0  0  0  0  0  0
   -5.5270   17.0530  -33.1440 C   0  0  0  0  0  0  0  0  0  0  0  0
   -6.7480   17.3650  -32.5420 C   0  0  0  0  0  0  0  0  0  0  0  0
   -7.3320   18.6230  -32.7400 C   0  0  0  0  0  0  0  0  0  0  0  0
   -8.8880   18.9940  -32.0010 S   0  0  0  0  0  0  0  0  0  0  0  0
   -9.4050   17.8000  -31.2480 O   0  0  0  0  0  0  0  0  0  0  0  0
   -9.8640   19.3480  -33.0860 O   0  0  0  0  0  0  0  0  0  0  0  0
   -8.7500   20.3350  -30.9070 N   0  0  0  0  0  0  0  0  0  0  0  0
   -8.0630   21.5620  -31.2160 C   0  0  0  0  0  0  0  0  0  0  0  0
   -8.7090   22.5270  -32.0050 C   0  0  0  0  0  0  0  0  0  0  0  0
   -8.0620   23.7190  -32.3410 C   0  0  0  0  0  0  0  0  0  0  0  0
   -6.7610   23.9610  -31.8950 C   0  0  0  0  0  0  0  0  0  0  0  0
   -6.1020   23.0090  -31.1050 C   0  0  0  0  0  0  0  0  0  0  0  0
   -4.4520   23.2770  -30.5600 S   0  0  0  0  0  0  0  0  0  0  0  0
   -4.3670   23.0140  -29.0820 O   0  0  0  0  0  0  0  0  0  0  0  0
   -4.0330   24.6990  -30.8150 O   0  0  0  0  0  0  0  0  0  0  0  0
   -3.3770   22.1990  -31.4420 C   0  0  0  0  0  0  0  0  0  0  0  0
   -3.6440   21.8560  -32.7760 C   0  0  0  0  0  0  0  0  0  0  0  0
   -2.7810   21.0000  -33.4660 C   0  0  0  0  0  0  0  0  0  0  0  0
   -1.6430   20.4920  -32.8320 C   0  0  0  0  0  0  0  0  0  0  0  0
   -1.3620   20.8470  -31.5110 C   0  0  0  0  0  0  0  0  0  0  0  0
   -2.2260   21.6990  -30.8150 C   0  0  0  0  0  0  0  0  0  0  0  0
   -6.7550   21.8180  -30.7630 C   0  0  0  0  0  0  0  0  0  0  0  0
   -6.6790   19.5700  -33.5380 C   0  0  0  0  0  0  0  0  0  0  0  0
   -5.4510   19.2620  -34.1340 C   0  0  0  0  0  0  0  0  0  0  0  0
   -2.6428   17.2622  -32.8387 H   0  0  0  0  0  0  0  0  0  0  0  0
   -2.3749   16.1440  -34.2188 H   0  0  0  0  0  0  0  0  0  0  0  0
   -1.6111   17.7698  -34.2188 H   0  0  0  0  0  0  0  0  0  0  0  0
   -5.0764   16.0620  -32.9863 H   0  0  0  0  0  0  0  0  0  0  0  0
   -7.2532   16.6200  -31.9098 H   0  0  0  0  0  0  0  0  0  0  0  0
   -9.2150   20.2360  -29.9780 H   0  0  0  0  0  0  0  0  0  0  0  0
   -9.7332   22.3431  -32.3617 H   0  0  0  0  0  0  0  0  0  0  0  0
   -8.5787   24.4686  -32.9583 H   0  0  0  0  0  0  0  0  0  0  0  0
   -6.2532   24.8990  -32.1637 H   0  0  0  0  0  0  0  0  0  0  0  0
   -4.5339   22.2614  -33.2797 H   0  0  0  0  0  0  0  0  0  0  0  0
   -2.9973   20.7256  -34.5090 H   0  0  0  0  0  0  0  0  0  0  0  0
   -0.9688   19.8125  -33.3740 H   0  0  0  0  0  0  0  0  0  0  0  0
   -0.4601   20.4562  -31.0171 H   0  0  0  0  0  0  0  0  0  0  0  0
   -2.0025   21.9773  -29.7745 H   0  0  0  0  0  0  0  0  0  0  0  0
   -6.2410   21.0758  -30.1346 H   0  0  0  0  0  0  0  0  0  0  0  0
   -7.1327   20.5594  -33.6970 H   0  0  0  0  0  0  0  0  0  0  0  0
   -4.9385   20.0157  -34.7498 H   0  0  0  0  0  0  0  0  0  0  0  0
  1  2  1  0
  2  3  1  0
  3  4  2  0
  4  5  1  0
  5  6  2  0
  6  7  1  0
  7  8  2  0
  7  9  2  0
  7 10  1  0
 10 11  1  0
 11 12  2  0
 12 13  1  0
 13 14  2  0
 14 15  1  0
 15 16  1  0
 16 17  2  0
 16 18  2  0
 16 19  1  0
 19 20  2  0
 20 21  1  0
 21 22  2  0
 22 23  1  0
 23 24  2  0
 15 25  2  0
  6 26  1  0
 26 27  2  0
 27  3  1  0
 25 11  1  0
 24 19  1  0
  1 28  1  0
  1 29  1  0
  1 30  1  0
  4 31  1  0
  5 32  1  0
 10 33  1  0
 12 34  1  0
 13 35  1  0
 14 36  1  0
 20 37  1  0
 21 38  1  0
 22 39  1  0
 23 40  1  0
 24 41  1  0
 25 42  1  0
 26 43  1  0
 27 44  1  0
M  END
>  <UniqueID>  (4) 
3

>  <SMILES>  (4) 
COc1ccc(S(=O)(=O)Nc2cccc(S(=O)(=O)c3ccccc3)c2)cc1

>  <Energy>  (4) 
45.88361653220014

>  <Genealogy>  (4) 
COc1ccc(S(=O)(=O)Nc2cccc(S(=O)(=O)c3ccccc3)c2)cc1 (3D coordinates assigned)
COc1ccc(S(=O)(=O)Nc2cccc(S(=O)(=O)c3ccccc3)c2)cc1 (optimized conformer: 45.88361653220014 kcal/mol)

>  <smiles>  (4) 
COc1ccc(S(=O)(=O)Nc2cccc(S(=O)(=O)c3ccccc3)c2)cc1

>  <score_type>  (4) 
oracle

>  <origin>  (4) 
adgpu

>  <m_score__min__energy>  (4) 
-9.9000000000000004

>  <m_primary>  (4) 
energy

$$$$
4:0
     RDKit          3D

 46 49  0  0  0  0  0  0  0  0999 V2000
   -6.5870   15.9530  -33.6340 N   0  0  0  0  0  0  0  0  0  0  0  0
   -6.8440   17.0210  -33.2740 C   0  0  0  0  0  0  0  0  0  0  0  0
   -7.1660   18.3510  -32.8270 C   0  0  0  0  0  0  0  0  0  0  0  0
   -8.0440   18.5390  -31.7520 C   0  0  0  0  0  0  0  0  0  0  0  0
   -8.3770   19.8320  -31.3370 C   0  0  0  0  0  0  0  0  0  0  0  0
   -7.8340   20.9480  -31.9920 C   0  0  0  0  0  0  0  0  0  0  0  0
   -8.1970   22.3400  -31.5460 C   0  0  0  0  0  0  0  0  0  0  0  0
   -7.1350   23.6040  -32.3310 S   0  0  0  0  0  0  0  0  0  0  0  0
   -6.0740   23.8260  -30.8990 C   0  0  0  0  0  0  0  0  0  0  0  0
   -6.2910   24.7590  -29.9540 N   0  0  0  0  0  0  0  0  0  0  0  0
   -5.3630   24.5840  -29.0230 N   0  0  0  0  0  0  0  0  0  0  0  0
   -4.5960   23.5480  -29.4150 C   0  0  0  0  0  0  0  0  0  0  0  0
   -3.4220   23.0490  -28.6170 C   0  0  0  0  0  0  0  0  0  0  0  0
   -2.6730   24.1840  -27.9610 C   0  0  0  0  0  0  0  0  0  0  0  0
   -1.5750   24.7860  -28.6040 C   0  0  0  0  0  0  0  0  0  0  0  0
   -0.8870   25.8370  -27.9890 C   0  0  0  0  0  0  0  0  0  0  0  0
   -1.2790   26.2880  -26.7270 C   0  0  0  0  0  0  0  0  0  0  0  0
   -2.3500   25.6790  -26.0690 C   0  0  0  0  0  0  0  0  0  0  0  0
   -3.0380   24.6230  -26.6760 C   0  0  0  0  0  0  0  0  0  0  0  0
   -5.0190   23.0450  -30.5940 N   0  0  0  0  0  0  0  0  0  0  0  0
   -4.4370   22.0030  -31.3950 C   0  0  0  0  0  0  0  0  0  0  0  0
   -3.9760   22.2840  -32.6910 C   0  0  0  0  0  0  0  0  0  0  0  0
   -3.4280   21.2690  -33.4800 C   0  0  0  0  0  0  0  0  0  0  0  0
   -3.3390   19.9660  -32.9810 C   0  0  0  0  0  0  0  0  0  0  0  0
   -3.8010   19.6780  -31.6940 C   0  0  0  0  0  0  0  0  0  0  0  0
   -4.3480   20.6940  -30.9040 C   0  0  0  0  0  0  0  0  0  0  0  0
   -6.9580   20.7540  -33.0730 C   0  0  0  0  0  0  0  0  0  0  0  0
   -6.6230   19.4610  -33.4850 C   0  0  0  0  0  0  0  0  0  0  0  0
   -8.4721   17.6683  -31.2336 H   0  0  0  0  0  0  0  0  0  0  0  0
   -9.0679   19.9751  -30.4931 H   0  0  0  0  0  0  0  0  0  0  0  0
   -9.2449   22.5382  -31.8156 H   0  0  0  0  0  0  0  0  0  0  0  0
   -8.0505   22.3990  -30.4574 H   0  0  0  0  0  0  0  0  0  0  0  0
   -3.7858   22.3636  -27.8373 H   0  0  0  0  0  0  0  0  0  0  0  0
   -2.7337   22.5337  -29.3031 H   0  0  0  0  0  0  0  0  0  0  0  0
   -1.2567   24.4283  -29.5943 H   0  0  0  0  0  0  0  0  0  0  0  0
   -0.0354   26.3093  -28.5005 H   0  0  0  0  0  0  0  0  0  0  0  0
   -0.7442   27.1231  -26.2509 H   0  0  0  0  0  0  0  0  0  0  0  0
   -2.6530   26.0304  -25.0717 H   0  0  0  0  0  0  0  0  0  0  0  0
   -3.8683   24.1338  -26.1456 H   0  0  0  0  0  0  0  0  0  0  0  0
   -4.0465   23.3078  -33.0872 H   0  0  0  0  0  0  0  0  0  0  0  0
   -3.0666   21.4953  -34.4940 H   0  0  0  0  0  0  0  0  0  0  0  0
   -2.9054   19.1677  -33.6013 H   0  0  0  0  0  0  0  0  0  0  0  0
   -3.7344   18.6522  -31.3024 H   0  0  0  0  0  0  0  0  0  0  0  0
   -4.7105   20.4640  -29.8912 H   0  0  0  0  0  0  0  0  0  0  0  0
   -6.5340   21.6231  -33.5973 H   0  0  0  0  0  0  0  0  0  0  0  0
   -5.9314   19.3153  -34.3279 H   0  0  0  0  0  0  0  0  0  0  0  0
  1  2  3  0
  2  3  1  0
  3  4  2  0
  4  5  1  0
  5  6  2  0
  6  7  1  0
  7  8  1  0
  8  9  1  0
  9 10  2  0
 10 11  1  0
 11 12  2  0
 12 13  1  0
 13 14  1  0
 14 15  2  0
 15 16  1  0
 16 17  2  0
 17 18  1  0
 18 19  2  0
 12 20  1  0
 20 21  1  0
 21 22  2  0
 22 23  1  0
 23 24  2  0
 24 25  1  0
 25 26  2  0
  6 27  1  0
 27 28  2  0
 28  3  1  0
 20  9  1  0
 26 21  1  0
 19 14  1  0
  4 29  1  0
  5 30  1  0
  7 31  1  0
  7 32  1  0
 13 33  1  0
 13 34  1  0
 15 35  1  0
 16 36  1  0
 17 37  1  0
 18 38  1  0
 19 39  1  0
 22 40  1  0
 23 41  1  0
 24 42  1  0
 25 43  1  0
 26 44  1  0
 27 45  1  0
 28 46  1  0
M  END
>  <UniqueID>  (5) 
4

>  <SMILES>  (5) 
N#Cc1ccc(CSc2nnc(Cc3ccccc3)n2-c2ccccc2)cc1

>  <Energy>  (5) 
79.46822183089212

>  <Genealogy>  (5) 
N#Cc1ccc(CSc2nnc(Cc3ccccc3)n2-c2ccccc2)cc1 (3D coordinates assigned)
N#Cc1ccc(CSc2nnc(Cc3ccccc3)n2-c2ccccc2)cc1 (optimized conformer: 79.46822183089212 kcal/mol)

>  <smiles>  (5) 
N#Cc1ccc(CSc2nnc(Cc3ccccc3)n2-c2ccccc2)cc1

>  <score_type>  (5) 
oracle

>  <origin>  (5) 
adgpu

>  <m_score__min__energy>  (5) 
-9.3900000000000006

>  <m_primary>  (5) 
energy

$$$$
5:0
     RDKit          3D

 53 56  0  0  0  0  0  0  0  0999 V2000
   -4.0560   14.6630  -32.6080 C   0  0  0  0  0  0  0  0  0  0  0  0
   -5.0840   15.7280  -32.4310 C   0  0  0  0  0  0  0  0  0  0  0  0
   -5.9220   16.2190  -33.4110 C   0  0  0  0  0  0  0  0  0  0  0  0
   -6.6720   17.1480  -32.7280 C   0  0  0  0  0  0  0  0  0  0  0  0
   -7.6100   17.8710  -33.2550 N   0  0  0  0  0  0  0  0  0  0  0  0
   -8.5380   19.0230  -32.3500 S   0  0  0  0  0  0  0  0  0  0  0  0
   -8.8610   18.4470  -31.0010 O   0  0  0  0  0  0  0  0  0  0  0  0
   -9.8190   19.3030  -33.0850 O   0  0  0  0  0  0  0  0  0  0  0  0
   -7.6140   20.5060  -32.1330 C   0  0  0  0  0  0  0  0  0  0  0  0
   -6.2600   20.5570  -32.4910 C   0  0  0  0  0  0  0  0  0  0  0  0
   -5.5310   21.7360  -32.3170 C   0  0  0  0  0  0  0  0  0  0  0  0
   -6.1400   22.8740  -31.7720 C   0  0  0  0  0  0  0  0  0  0  0  0
   -5.3590   24.0700  -31.6290 N   0  0  0  0  0  0  0  0  0  0  0  0
   -4.2770   24.2770  -30.7110 C   0  0  0  0  0  0  0  0  0  0  0  0
   -3.8680   25.4420  -30.4590 O   0  0  0  0  0  0  0  0  0  0  0  0
   -3.6740   23.1400  -30.0780 N   0  0  0  0  0  0  0  0  0  0  0  0
   -2.7100   23.2240  -29.0140 C   0  0  0  0  0  0  0  0  0  0  0  0
   -1.7340   24.2310  -29.0490 C   0  0  0  0  0  0  0  0  0  0  0  0
   -0.7730   24.3230  -28.0380 C   0  0  0  0  0  0  0  0  0  0  0  0
   -0.7630   23.3950  -26.9900 C   0  0  0  0  0  0  0  0  0  0  0  0
    0.4290   23.5190  -25.7010 S   0  0  0  0  0  0  0  0  0  0  0  0
    0.2380   22.3940  -24.7230 O   0  0  0  0  0  0  0  0  0  0  0  0
    1.8170   23.4130  -26.2690 O   0  0  0  0  0  0  0  0  0  0  0  0
    0.2360   25.0670  -24.8890 C   0  0  0  0  0  0  0  0  0  0  0  0
   -1.0410   25.6200  -24.7220 C   0  0  0  0  0  0  0  0  0  0  0  0
   -1.1970   26.8410  -24.0570 C   0  0  0  0  0  0  0  0  0  0  0  0
   -0.0770   27.5110  -23.5520 C   0  0  0  0  0  0  0  0  0  0  0  0
    1.1970   26.9580  -23.7090 C   0  0  0  0  0  0  0  0  0  0  0  0
    1.3550   25.7380  -24.3730 C   0  0  0  0  0  0  0  0  0  0  0  0
   -1.7250   22.3780  -26.9570 C   0  0  0  0  0  0  0  0  0  0  0  0
   -2.6880   22.2860  -27.9670 C   0  0  0  0  0  0  0  0  0  0  0  0
   -7.5060   22.8300  -31.4410 C   0  0  0  0  0  0  0  0  0  0  0  0
   -8.2350   21.6510  -31.6180 C   0  0  0  0  0  0  0  0  0  0  0  0
   -6.3050   17.2010  -31.4320 N   0  0  0  0  0  0  0  0  0  0  0  0
   -5.3470   16.3300  -31.2920 O   0  0  0  0  0  0  0  0  0  0  0  0
   -3.7176   14.3125  -31.6218 H   0  0  0  0  0  0  0  0  0  0  0  0
   -4.4921   13.8216  -33.1664 H   0  0  0  0  0  0  0  0  0  0  0  0
   -3.1997   15.0691  -33.1664 H   0  0  0  0  0  0  0  0  0  0  0  0
   -5.9767   15.9378  -34.4730 H   0  0  0  0  0  0  0  0  0  0  0  0
   -5.7698   19.6660  -32.9103 H   0  0  0  0  0  0  0  0  0  0  0  0
   -4.4713   21.7711  -32.6100 H   0  0  0  0  0  0  0  0  0  0  0  0
   -3.8750   22.2000  -30.4880 H   0  0  0  0  0  0  0  0  0  0  0  0
   -1.7248   24.9537  -29.8782 H   0  0  0  0  0  0  0  0  0  0  0  0
   -0.0226   25.1268  -28.0660 H   0  0  0  0  0  0  0  0  0  0  0  0
   -1.9228   25.0927  -25.1148 H   0  0  0  0  0  0  0  0  0  0  0  0
   -2.2002   27.2744  -23.9311 H   0  0  0  0  0  0  0  0  0  0  0  0
   -0.1992   28.4724  -23.0317 H   0  0  0  0  0  0  0  0  0  0  0  0
    2.0768   27.4836  -23.3094 H   0  0  0  0  0  0  0  0  0  0  0  0
    2.3585   25.3033  -24.4912 H   0  0  0  0  0  0  0  0  0  0  0  0
   -1.7233   21.6487  -26.1335 H   0  0  0  0  0  0  0  0  0  0  0  0
   -3.4317   21.4759  -27.9421 H   0  0  0  0  0  0  0  0  0  0  0  0
   -8.0024   23.7266  -31.0414 H   0  0  0  0  0  0  0  0  0  0  0  0
   -9.3018   21.6220  -31.3516 H   0  0  0  0  0  0  0  0  0  0  0  0
  1  2  1  0
  2  3  2  0
  3  4  1  0
  4  5  2  3
  5  6  1  0
  6  7  2  0
  6  8  2  0
  6  9  1  0
  9 10  2  0
 10 11  1  0
 11 12  2  0
 12 13  1  0
 13 14  1  0
 14 15  2  0
 14 16  1  0
 16 17  1  0
 17 18  2  0
 18 19  1  0
 19 20  2  0
 20 21  1  0
 21 22  2  0
 21 23  2  0
 21 24  1  0
 24 25  2  0
 25 26  1  0
 26 27  2  0
 27 28  1  0
 28 29  2  0
 20 30  1  0
 30 31  2  0
 12 32  1  0
 32 33  2  0
  4 34  1  0
 34 35  1  0
 35  2  1  0
 33  9  1  0
 31 17  1  0
 29 24  1  0
  1 36  1  0
  1 37  1  0
  1 38  1  0
  3 39  1  0
 10 40  1  0
 11 41  1  0
 16 42  1  0
 18 43  1  0
 19 44  1  0
 25 45  1  0
 26 46  1  0
 27 47  1  0
 28 48  1  0
 29 49  1  0
 30 50  1  0
 31 51  1  0
 32 52  1  0
 33 53  1  0
M  CHG  2  13  -1  34  -1
M  END
>  <UniqueID>  (6) 
5

>  <SMILES>  (6) 
Cc1cc(=NS(=O)(=O)c2ccc([N-]C(=O)Nc3ccc(S(=O)(=O)c4ccccc4)cc3)cc2)[n-]o1

>  <Energy>  (6) 
98.76950776656476

>  <Genealogy>  (6) 
Cc1cc(=NS(=O)(=O)c2ccc([N-]C(=O)Nc3ccc(S(=O)(=O)c4ccccc4)cc3)cc2)[n-]o1 (protonated)
Cc1cc(=NS(=O)(=O)c2ccc([N-]C(=O)Nc3ccc(S(=O)(=O)c4ccccc4)cc3)cc2)[n-]o1 (3D coordinates assigned)
Cc1cc(=NS(=O)(=O)c2ccc([N-]C(=O)Nc3ccc(S(=O)(=O)c4ccccc4)cc3)cc2)[n-]o1 (optimized conformer: 98.76950776656476 kcal/mol)

>  <smiles>  (6) 
Cc1cc(=NS(=O)(=O)c2ccc(NC(=O)Nc3ccc(S(=O)(=O)c4ccccc4)cc3)cc2)[nH]o1

>  <score_type>  (6) 
oracle

>  <origin>  (6) 
adgpu

>  <m_score__min__energy>  (6) 
-11.699999999999999

>  <m_primary>  (6) 
energy

$$$$
6:0
     RDKit          3D

 45 48  0  0  0  0  0  0  0  0999 V2000
   -1.6040   25.8110  -29.3400 O   0  0  0  0  0  0  0  0  0  0  0  0
   -1.7340   24.6650  -28.5620 C   0  0  0  0  0  0  0  0  0  0  0  0
   -0.9430   24.3510  -27.4760 C   0  0  0  0  0  0  0  0  0  0  0  0
   -1.4020   23.1460  -26.9930 C   0  0  0  0  0  0  0  0  0  0  0  0
   -2.4810   22.7950  -27.7770 C   0  0  0  0  0  0  0  0  0  0  0  0
   -3.2520   21.6490  -27.6100 O   0  0  0  0  0  0  0  0  0  0  0  0
   -2.6810   23.7160  -28.7480 N   0  0  0  0  0  0  0  0  0  0  0  0
   -3.7210   23.7210  -29.7410 C   0  0  0  0  0  0  0  0  0  0  0  0
   -4.8420   24.5510  -29.5960 C   0  0  0  0  0  0  0  0  0  0  0  0
   -5.8740   24.5150  -30.5370 C   0  0  0  0  0  0  0  0  0  0  0  0
   -5.8140   23.6370  -31.6240 C   0  0  0  0  0  0  0  0  0  0  0  0
   -6.8770   23.6200  -32.5290 O   0  0  0  0  0  0  0  0  0  0  0  0
   -4.6950   22.7930  -31.7730 C   0  0  0  0  0  0  0  0  0  0  0  0
   -4.5900   21.5810  -33.1000 S   0  0  0  0  0  0  0  0  0  0  0  0
   -4.9330   20.1360  -32.0290 C   0  0  0  0  0  0  0  0  0  0  0  0
   -6.3950   19.7750  -32.0500 C   0  0  0  0  0  0  0  0  0  0  0  0
   -7.3620   20.7630  -32.3030 C   0  0  0  0  0  0  0  0  0  0  0  0
   -8.7130   20.4170  -32.3970 C   0  0  0  0  0  0  0  0  0  0  0  0
   -9.1080   19.0850  -32.2430 C   0  0  0  0  0  0  0  0  0  0  0  0
   -8.1530   18.0980  -31.9880 C   0  0  0  0  0  0  0  0  0  0  0  0
   -6.8010   18.4390  -31.8880 C   0  0  0  0  0  0  0  0  0  0  0  0
   -3.6460   22.8610  -30.8460 C   0  0  0  0  0  0  0  0  0  0  0  0
   -0.8660   22.4760  -25.7640 C   0  0  0  0  0  0  0  0  0  0  0  0
    0.5330   23.0290  -25.4220 C   0  0  0  0  0  0  0  0  0  0  0  0
    0.5780   24.5700  -25.5110 C   0  0  0  0  0  0  0  0  0  0  0  0
    0.2520   25.0730  -26.9320 C   0  0  0  0  0  0  0  0  0  0  0  0
   -4.9091   25.2342  -28.7365 H   0  0  0  0  0  0  0  0  0  0  0  0
   -6.7407   25.1826  -30.4221 H   0  0  0  0  0  0  0  0  0  0  0  0
   -6.7600   23.3910  -33.5080 H   0  0  0  0  0  0  0  0  0  0  0  0
   -4.3465   19.2771  -32.3872 H   0  0  0  0  0  0  0  0  0  0  0  0
   -4.6536   20.3943  -30.9969 H   0  0  0  0  0  0  0  0  0  0  0  0
   -7.0547   21.8118  -32.4274 H   0  0  0  0  0  0  0  0  0  0  0  0
   -9.4666   21.1941  -32.5925 H   0  0  0  0  0  0  0  0  0  0  0  0
  -10.1711   18.8140  -32.3226 H   0  0  0  0  0  0  0  0  0  0  0  0
   -8.4654   17.0504  -31.8656 H   0  0  0  0  0  0  0  0  0  0  0  0
   -6.0526   17.6596  -31.6819 H   0  0  0  0  0  0  0  0  0  0  0  0
   -2.7541   22.2328  -30.9868 H   0  0  0  0  0  0  0  0  0  0  0  0
   -1.5471   22.6646  -24.9211 H   0  0  0  0  0  0  0  0  0  0  0  0
   -0.7885   21.3946  -25.9500 H   0  0  0  0  0  0  0  0  0  0  0  0
    0.7961   22.7236  -24.3985 H   0  0  0  0  0  0  0  0  0  0  0  0
    1.2489   22.6233  -26.1520 H   0  0  0  0  0  0  0  0  0  0  0  0
   -0.1573   24.9886  -24.8080 H   0  0  0  0  0  0  0  0  0  0  0  0
    1.5977   24.8967  -25.2589 H   0  0  0  0  0  0  0  0  0  0  0  0
    0.0391   26.1516  -26.8955 H   0  0  0  0  0  0  0  0  0  0  0  0
    1.1150   24.8820  -27.5867 H   0  0  0  0  0  0  0  0  0  0  0  0
  1  2  1  0
  2  3  2  0
  3  4  1  0
  4  5  2  0
  5  6  1  0
  5  7  1  0
  7  8  1  0
  8  9  2  0
  9 10  1  0
 10 11  2  0
 11 12  1  0
 11 13  1  0
 13 14  1  0
 14 15  1  0
 15 16  1  0
 16 17  2  0
 17 18  1  0
 18 19  2  0
 19 20  1  0
 20 21  2  0
 13 22  2  0
  4 23  1  0
 23 24  1  0
 24 25  1  0
 25 26  1  0
  7  2  1  0
 22  8  1  0
 26  3  1  0
 21 16  1  0
  9 27  1  0
 10 28  1  0
 12 29  1  0
 15 30  1  0
 15 31  1  0
 17 32  1  0
 18 33  1  0
 19 34  1  0
 20 35  1  0
 21 36  1  0
 22 37  1  0
 23 38  1  0
 23 39  1  0
 24 40  1  0
 24 41  1  0
 25 42  1  0
 25 43  1  0
 26 44  1  0
 26 45  1  0
M  CHG  2   1  -1   6  -1
M  END
>  <UniqueID>  (7) 
6

>  <SMILES>  (7) 
[O-]c1c2c(c([O-])n1-c1ccc(O)c(SCc3ccccc3)c1)CCCC2

>  <Energy>  (7) 
77.19703392331824

>  <Genealogy>  (7) 
[O-]c1c2c(c([O-])n1-c1ccc(O)c(SCc3ccccc3)c1)CCCC2 (protonated)
[O-]c1c2c(c([O-])n1-c1ccc(O)c(SCc3ccccc3)c1)CCCC2 (3D coordinates assigned)
[O-]c1c2c(c([O-])n1-c1ccc(O)c(SCc3ccccc3)c1)CCCC2 (nonaromatic ring conformer: 77.19703392331824 kcal/mol)

>  <smiles>  (7) 
Oc1ccc(-n2c(O)c3c(c2O)CCCC3)cc1SCc1ccccc1

>  <score_type>  (7) 
oracle

>  <origin>  (7) 
adgpu

>  <m_score__min__energy>  (7) 
-11.77

>  <m_primary>  (7) 
energy

$$$$
7:0
     RDKit          3D

 35 36  0  0  0  0  0  0  0  0999 V2000
   -9.1680   20.2460  -32.7230 C   0  0  0  0  0  0  0  0  0  0  0  0
   -8.1970   19.3390  -31.9630 C   0  0  0  0  0  0  0  0  0  0  0  0
   -8.9410   18.1750  -31.2910 C   0  0  0  0  0  0  0  0  0  0  0  0
   -7.0880   18.8450  -32.8860 C   0  0  0  0  0  0  0  0  0  0  0  0
   -7.1570   17.5450  -33.4290 C   0  0  0  0  0  0  0  0  0  0  0  0
   -6.1430   17.0610  -34.2570 C   0  0  0  0  0  0  0  0  0  0  0  0
   -5.0500   17.8670  -34.5680 C   0  0  0  0  0  0  0  0  0  0  0  0
   -4.9730   19.1640  -34.0630 C   0  0  0  0  0  0  0  0  0  0  0  0
   -5.9830   19.6680  -33.2240 C   0  0  0  0  0  0  0  0  0  0  0  0
   -5.9150   21.0330  -32.7830 N   0  0  0  0  0  0  0  0  0  0  0  0
   -5.2420   21.4310  -31.5780 C   0  0  0  0  0  0  0  0  0  0  0  0
   -4.7060   20.5610  -30.8390 O   0  0  0  0  0  0  0  0  0  0  0  0
   -5.2090   22.8550  -31.1710 C   0  0  0  0  0  0  0  0  0  0  0  0
   -3.9860   23.4300  -30.7780 C   0  0  0  0  0  0  0  0  0  0  0  0
   -3.9210   24.7750  -30.4060 C   0  0  0  0  0  0  0  0  0  0  0  0
   -5.0710   25.5620  -30.4220 C   0  0  0  0  0  0  0  0  0  0  0  0
   -6.2930   25.0070  -30.8080 C   0  0  0  0  0  0  0  0  0  0  0  0
   -6.3720   23.6590  -31.1840 C   0  0  0  0  0  0  0  0  0  0  0  0
   -7.9550   23.0130  -31.6050 Cl  0  0  0  0  0  0  0  0  0  0  0  0
   -9.7769   20.8147  -32.0048 H   0  0  0  0  0  0  0  0  0  0  0  0
   -8.5994   20.9439  -33.3552 H   0  0  0  0  0  0  0  0  0  0  0  0
   -9.8255   19.6312  -33.3552 H   0  0  0  0  0  0  0  0  0  0  0  0
   -7.7254   19.9282  -31.1627 H   0  0  0  0  0  0  0  0  0  0  0  0
   -8.8743   18.2794  -30.1980 H   0  0  0  0  0  0  0  0  0  0  0  0
   -9.9975   18.1898  -31.5969 H   0  0  0  0  0  0  0  0  0  0  0  0
   -8.4840   17.2223  -31.5969 H   0  0  0  0  0  0  0  0  0  0  0  0
   -8.0208   16.9046  -33.1970 H   0  0  0  0  0  0  0  0  0  0  0  0
   -6.2069   16.0414  -34.6647 H   0  0  0  0  0  0  0  0  0  0  0  0
   -4.2472   17.4796  -35.2125 H   0  0  0  0  0  0  0  0  0  0  0  0
   -4.1138   19.7996  -34.3233 H   0  0  0  0  0  0  0  0  0  0  0  0
   -6.3710   21.7630  -33.3760 H   0  0  0  0  0  0  0  0  0  0  0  0
   -3.0739   22.8153  -30.7636 H   0  0  0  0  0  0  0  0  0  0  0  0
   -2.9599   25.2138  -30.0998 H   0  0  0  0  0  0  0  0  0  0  0  0
   -5.0161   26.6212  -30.1304 H   0  0  0  0  0  0  0  0  0  0  0  0
   -7.1987   25.6313  -30.8170 H   0  0  0  0  0  0  0  0  0  0  0  0
  1  2  1  0
  2  3  1  0
  2  4  1  0
  4  5  2  0
  5  6  1  0
  6  7  2  0
  7  8  1  0
  8  9  2  0
  9 10  1  0
 10 11  1  0
 11 12  2  0
 11 13  1  0
 13 14  2  0
 14 15  1  0
 15 16  2  0
 16 17  1  0
 17 18  2  0
 18 19  1  0
  9  4  1  0
 18 13  1  0
  1 20  1  0
  1 21  1  0
  1 22  1  0
  2 23  1  0
  3 24  1  0
  3 25  1  0
  3 26  1  0
  5 27  1  0
  6 28  1  0
  7 29  1  0
  8 30  1  0
 10 31  1  0
 14 32  1  0
 15 33  1  0
 16 34  1  0
 17 35  1  0
M  END
>  <UniqueID>  (8) 
7

>  <SMILES>  (8) 
CC(C)c1ccccc1NC(=O)c1ccccc1Cl

>  <Energy>  (8) 
43.3580165938066

>  <Genealogy>  (8) 
CC(C)c1ccccc1NC(=O)c1ccccc1Cl (3D coordinates assigned)
CC(C)c1ccccc1NC(=O)c1ccccc1Cl (optimized conformer: 43.3580165938066 kcal/mol)

>  <smiles>  (8) 
CC(C)c1ccccc1NC(=O)c1ccccc1Cl

>  <score_type>  (8) 
oracle

>  <origin>  (8) 
adgpu

>  <m_score__min__energy>  (8) 
-7.4400000000000004

>  <m_primary>  (8) 
energy

$$$$
8:0
     RDKit          3D

 53 55  0  0  0  0  0  0  0  0999 V2000
   -0.4770   24.1940  -24.4630 C   0  0  0  0  0  0  0  0  0  0  0  0
   -0.4320   25.7160  -24.3490 C   0  0  0  0  0  0  0  0  0  0  0  0
   -1.2080   26.4120  -25.4800 C   0  0  0  0  0  0  0  0  0  0  0  0
   -1.1990   25.6080  -26.7230 N   0  0  0  0  0  0  0  0  0  0  0  0
   -2.3500   25.0070  -27.1940 C   0  0  0  0  0  0  0  0  0  0  0  0
   -3.6140   25.1740  -26.5210 N   0  0  0  0  0  0  0  0  0  0  0  0
   -2.3060   24.2390  -28.3760 C   0  0  0  0  0  0  0  0  0  0  0  0
   -3.4770   23.5570  -28.8670 N   0  0  0  0  0  0  0  0  0  0  0  0
   -3.8760   22.2900  -28.2300 C   0  0  0  0  0  0  0  0  0  0  0  0
   -2.7410   21.2970  -28.2460 C   0  0  0  0  0  0  0  0  0  0  0  0
   -2.1840   20.8810  -29.4660 C   0  0  0  0  0  0  0  0  0  0  0  0
   -1.1590   19.9300  -29.4850 C   0  0  0  0  0  0  0  0  0  0  0  0
   -0.6760   19.3960  -28.2870 C   0  0  0  0  0  0  0  0  0  0  0  0
   -1.2100   19.8200  -27.0680 C   0  0  0  0  0  0  0  0  0  0  0  0
   -2.2330   20.7730  -27.0450 C   0  0  0  0  0  0  0  0  0  0  0  0
   -4.1900   24.1030  -30.0000 C   0  0  0  0  0  0  0  0  0  0  0  0
   -3.8620   25.2240  -30.4720 O   0  0  0  0  0  0  0  0  0  0  0  0
   -5.3020   23.3770  -30.6380 C   0  0  0  0  0  0  0  0  0  0  0  0
   -6.5930   23.4710  -30.1000 C   0  0  0  0  0  0  0  0  0  0  0  0
   -7.6530   22.7830  -30.6930 C   0  0  0  0  0  0  0  0  0  0  0  0
   -7.4310   22.0020  -31.8280 C   0  0  0  0  0  0  0  0  0  0  0  0
   -6.1490   21.9060  -32.3760 C   0  0  0  0  0  0  0  0  0  0  0  0
   -5.0700   22.5920  -31.7840 C   0  0  0  0  0  0  0  0  0  0  0  0
   -3.7630   22.4970  -32.2870 O   0  0  0  0  0  0  0  0  0  0  0  0
   -3.1850   21.3070  -32.8140 C   0  0  0  0  0  0  0  0  0  0  0  0
   -1.0900   24.1250  -29.0540 C   0  0  0  0  0  0  0  0  0  0  0  0
   -1.0070   23.4570  -30.1190 O   0  0  0  0  0  0  0  0  0  0  0  0
    0.0140   24.7290  -28.5620 N   0  0  0  0  0  0  0  0  0  0  0  0
   -0.0220   25.4540  -27.4190 C   0  0  0  0  0  0  0  0  0  0  0  0
    1.0470   25.9840  -27.0090 O   0  0  0  0  0  0  0  0  0  0  0  0
   -0.4901   23.7511  -23.4562 H   0  0  0  0  0  0  0  0  0  0  0  0
   -1.3844   23.8938  -25.0075 H   0  0  0  0  0  0  0  0  0  0  0  0
    0.4111   23.8407  -25.0075 H   0  0  0  0  0  0  0  0  0  0  0  0
   -0.8720   26.0112  -23.3850 H   0  0  0  0  0  0  0  0  0  0  0  0
    0.6205   26.0269  -24.4238 H   0  0  0  0  0  0  0  0  0  0  0  0
   -2.2495   26.5611  -25.1590 H   0  0  0  0  0  0  0  0  0  0  0  0
   -0.7196   27.3750  -25.6900 H   0  0  0  0  0  0  0  0  0  0  0  0
   -4.3320   25.8660  -26.8200 H   0  0  0  0  0  0  0  0  0  0  0  0
   -3.8610   24.6000  -25.6860 H   0  0  0  0  0  0  0  0  0  0  0  0
   -4.1669   22.4872  -27.1877 H   0  0  0  0  0  0  0  0  0  0  0  0
   -4.7212   21.8658  -28.7919 H   0  0  0  0  0  0  0  0  0  0  0  0
   -2.5555   21.3049  -30.4106 H   0  0  0  0  0  0  0  0  0  0  0  0
   -0.7322   19.6017  -30.4442 H   0  0  0  0  0  0  0  0  0  0  0  0
    0.1246   18.6419  -28.3042 H   0  0  0  0  0  0  0  0  0  0  0  0
   -0.8254   19.4038  -26.1252 H   0  0  0  0  0  0  0  0  0  0  0  0
   -2.6420   21.1141  -26.0825 H   0  0  0  0  0  0  0  0  0  0  0  0
   -6.7714   24.0889  -29.2076 H   0  0  0  0  0  0  0  0  0  0  0  0
   -8.6638   22.8565  -30.2654 H   0  0  0  0  0  0  0  0  0  0  0  0
   -8.2679   21.4602  -32.2928 H   0  0  0  0  0  0  0  0  0  0  0  0
   -5.9816   21.2922  -33.2734 H   0  0  0  0  0  0  0  0  0  0  0  0
   -2.8685   20.6554  -31.9862 H   0  0  0  0  0  0  0  0  0  0  0  0
   -3.9279   20.7808  -33.4314 H   0  0  0  0  0  0  0  0  0  0  0  0
   -2.3121   21.5656  -33.4314 H   0  0  0  0  0  0  0  0  0  0  0  0
  1  2  1  0
  2  3  1  0
  3  4  1  0
  4  5  1  0
  5  6  1  0
  5  7  2  0
  7  8  1  0
  8  9  1  0
  9 10  1  0
 10 11  2  0
 11 12  1  0
 12 13  2  0
 13 14  1  0
 14 15  2  0
  8 16  1  0
 16 17  2  0
 16 18  1  0
 18 19  2  0
 19 20  1  0
 20 21  2  0
 21 22  1  0
 22 23  2  0
 23 24  1  0
 24 25  1  0
  7 26  1  0
 26 27  2  0
 26 28  1  0
 28 29  1  0
 29 30  2  0
 29  4  1  0
 15 10  1  0
 23 18  1  0
  1 31  1  0
  1 32  1  0
  1 33  1  0
  2 34  1  0
  2 35  1  0
  3 36  1  0
  3 37  1  0
  6 38  1  0
  6 39  1  0
  9 40  1  0
  9 41  1  0
 11 42  1  0
 12 43  1  0
 13 44  1  0
 14 45  1  0
 15 46  1  0
 19 47  1  0
 20 48  1  0
 21 49  1  0
 22 50  1  0
 25 51  1  0
 25 52  1  0
 25 53  1  0
M  CHG  1  28  -1
M  END
>  <UniqueID>  (9) 
8

>  <SMILES>  (9) 
CCCn1c(N)c(N(Cc2ccccc2)C(=O)c2ccccc2OC)c(=O)[n-]c1=O

>  <Energy>  (9) 
67.46155113463342

>  <Genealogy>  (9) 
CCCn1c(N)c(N(Cc2ccccc2)C(=O)c2ccccc2OC)c(=O)[n-]c1=O (protonated)
CCCn1c(N)c(N(Cc2ccccc2)C(=O)c2ccccc2OC)c(=O)[n-]c1=O (3D coordinates assigned)
CCCn1c(N)c(N(Cc2ccccc2)C(=O)c2ccccc2OC)c(=O)[n-]c1=O (optimized conformer: 67.46155113463342 kcal/mol)

>  <smiles>  (9) 
CCCn1c(N)c(N(Cc2ccccc2)C(=O)c2ccccc2OC)c(=O)[nH]c1=O

>  <score_type>  (9) 
oracle

>  <origin>  (9) 
adgpu

>  <m_score__min__energy>  (9) 
-9.0500000000000007

>  <m_primary>  (9) 
energy

$$$$
9:0
     RDKit          3D

 54 58  0  0  0  0  0  0  0  0999 V2000
    2.8980   28.2440  -35.0440 C   0  0  0  0  0  0  0  0  0  0  0  0
    2.0430   27.2810  -35.8940 C   0  0  0  0  0  0  0  0  0  0  0  0
    2.0020   27.8510  -37.3330 C   0  0  0  0  0  0  0  0  0  0  0  0
    2.6830   25.8630  -35.8700 C   0  0  0  0  0  0  0  0  0  0  0  0
    1.6760   24.7920  -35.9470 N   0  0  0  0  0  0  0  0  0  0  0  0
    2.0200   23.4380  -35.5680 C   0  0  0  0  0  0  0  0  0  0  0  0
    3.3590   23.0310  -35.4180 C   0  0  0  0  0  0  0  0  0  0  0  0
    3.6450   21.7140  -35.0590 C   0  0  0  0  0  0  0  0  0  0  0  0
    2.6070   20.8090  -34.8420 C   0  0  0  0  0  0  0  0  0  0  0  0
    1.2770   21.2400  -34.9760 C   0  0  0  0  0  0  0  0  0  0  0  0
    0.1740   20.3340  -34.7950 N   0  0  0  0  0  0  0  0  0  0  0  0
    0.3250   19.0770  -35.2430 N   0  0  0  0  0  0  0  0  0  0  0  0
   -0.6530   18.1380  -35.1270 C   0  0  0  0  0  0  0  0  0  0  0  0
   -1.8450   18.5130  -34.5300 C   0  0  0  0  0  0  0  0  0  0  0  0
   -3.2170   17.5950  -34.2500 S   0  0  0  0  0  0  0  0  0  0  0  0
   -4.1050   18.8540  -33.5330 C   0  0  0  0  0  0  0  0  0  0  0  0
   -5.4930   18.7320  -33.0160 C   0  0  0  0  0  0  0  0  0  0  0  0
   -5.8860   17.6210  -32.2430 C   0  0  0  0  0  0  0  0  0  0  0  0
   -7.1940   17.5180  -31.7600 C   0  0  0  0  0  0  0  0  0  0  0  0
   -8.1300   18.5210  -32.0410 C   0  0  0  0  0  0  0  0  0  0  0  0
   -9.4360   18.4280  -31.5650 O   0  0  0  0  0  0  0  0  0  0  0  0
   -7.7500   19.6280  -32.8030 C   0  0  0  0  0  0  0  0  0  0  0  0
   -6.4420   19.7360  -33.2860 C   0  0  0  0  0  0  0  0  0  0  0  0
   -3.3070   20.0070  -33.5170 C   0  0  0  0  0  0  0  0  0  0  0  0
   -2.0400   19.7980  -34.0790 C   0  0  0  0  0  0  0  0  0  0  0  0
   -1.0140   20.7350  -34.2220 C   0  0  0  0  0  0  0  0  0  0  0  0
   -1.1940   21.9290  -33.8560 O   0  0  0  0  0  0  0  0  0  0  0  0
    1.0300   22.5260  -35.3480 N   0  0  0  0  0  0  0  0  0  0  0  0
    0.3750   25.0660  -36.5700 C   0  0  0  0  0  0  0  0  0  0  0  0
   -0.2530   26.3750  -36.0510 C   0  0  0  0  0  0  0  0  0  0  0  0
    0.6870   27.2350  -35.3100 N   0  0  0  0  0  0  0  0  0  0  0  0
    2.7219   28.0456  -33.9765 H   0  0  0  0  0  0  0  0  0  0  0  0
    3.9625   28.0901  -35.2748 H   0  0  0  0  0  0  0  0  0  0  0  0
    2.6192   29.2828  -35.2748 H   0  0  0  0  0  0  0  0  0  0  0  0
    1.9231   28.9474  -37.2910 H   0  0  0  0  0  0  0  0  0  0  0  0
    2.9227   27.5697  -37.8652 H   0  0  0  0  0  0  0  0  0  0  0  0
    1.1310   27.4409  -37.8652 H   0  0  0  0  0  0  0  0  0  0  0  0
    3.3654   25.7687  -36.7276 H   0  0  0  0  0  0  0  0  0  0  0  0
    3.2182   25.7525  -34.9154 H   0  0  0  0  0  0  0  0  0  0  0  0
    4.1763   23.7485  -35.5832 H   0  0  0  0  0  0  0  0  0  0  0  0
    4.6900   21.3892  -34.9470 H   0  0  0  0  0  0  0  0  0  0  0  0
    2.8277   19.7667  -34.5683 H   0  0  0  0  0  0  0  0  0  0  0  0
   -0.5015   17.1129  -35.4960 H   0  0  0  0  0  0  0  0  0  0  0  0
   -5.1575   16.8282  -32.0178 H   0  0  0  0  0  0  0  0  0  0  0  0
   -7.4888   16.6463  -31.1573 H   0  0  0  0  0  0  0  0  0  0  0  0
   -9.6930   17.7540  -30.8540 H   0  0  0  0  0  0  0  0  0  0  0  0
   -8.4825   20.4182  -33.0242 H   0  0  0  0  0  0  0  0  0  0  0  0
   -6.1521   20.6136  -33.8824 H   0  0  0  0  0  0  0  0  0  0  0  0
   -3.6397   20.9721  -33.1073 H   0  0  0  0  0  0  0  0  0  0  0  0
    0.5129   25.1460  -37.6584 H   0  0  0  0  0  0  0  0  0  0  0  0
   -0.3041   24.2396  -36.3131 H   0  0  0  0  0  0  0  0  0  0  0  0
   -0.6350   26.9416  -36.9130 H   0  0  0  0  0  0  0  0  0  0  0  0
   -1.0487   26.0904  -35.3468 H   0  0  0  0  0  0  0  0  0  0  0  0
    0.7520   26.8670  -34.3300 H   0  0  0  0  0  0  0  0  0  0  0  0
  1  2  1  0
  2  3  1  0
  2  4  1  0
  4  5  1  0
  5  6  1  0
  6  7  2  0
  7  8  1  0
  8  9  2  0
  9 10  1  0
 10 11  1  0
 11 12  1  0
 12 13  2  0
 13 14  1  0
 14 15  1  0
 15 16  1  0
 16 17  1  0
 17 18  2  0
 18 19  1  0
 19 20  2  0
 20 21  1  0
 20 22  1  0
 22 23  2  0
 16 24  2  0
 24 25  1  0
 25 26  1  0
 26 27  2  0
 10 28  2  0
  5 29  1  0
 29 30  1  0
 30 31  1  0
 31  2  1  0
 28  6  1  0
 26 11  1  0
 25 14  2  0
 23 17  1  0
  1 32  1  0
  1 33  1  0
  1 34  1  0
  3 35  1  0
  3 36  1  0
  3 37  1  0
  4 38  1  0
  4 39  1  0
  7 40  1  0
  8 41  1  0
  9 42  1  0
 13 43  1  0
 18 44  1  0
 19 45  1  0
 21 46  1  0
 22 47  1  0
 23 48  1  0
 24 49  1  0
 29 50  1  0
 29 51  1  0
 30 52  1  0
 30 53  1  0
 31 54  1  0
M  END
>  <UniqueID>  (10) 
9

>  <SMILES>  (10) 
CC1(C)CN(c2cccc(-n3ncc4sc(-c5ccc(O)cc5)cc4c3=O)n2)CCN1

>  <Energy>  (10) 
110.88235064499997

>  <Genealogy>  (10) 
CC1(C)CN(c2cccc(-n3ncc4sc(-c5ccc(O)cc5)cc4c3=O)n2)CCN1 (3D coordinates assigned)
CC1(C)CN(c2cccc(-n3ncc4sc(-c5ccc(O)cc5)cc4c3=O)n2)CCN1 (nonaromatic ring conformer: 110.88235064499997 kcal/mol)

>  <smiles>  (10) 
CC1(C)CN(c2cccc(-n3ncc4sc(-c5ccc(O)cc5)cc4c3=O)n2)CCN1

>  <score_type>  (10) 
oracle

>  <origin>  (10) 
adgpu

>  <m_score__min__energy>  (10) 
-9.2699999999999996

>  <m_primary>  (10) 
energy

$$$$
10:0
     RDKit          3D

 58 61  0  0  0  0  0  0  0  0999 V2000
   -6.2260   25.7940  -29.3820 C   0  0  0  0  0  0  0  0  0  0  0  0
   -6.0480   24.5680  -30.2290 C   0  0  0  0  0  0  0  0  0  0  0  0
   -7.1800   23.8380  -30.6300 C   0  0  0  0  0  0  0  0  0  0  0  0
   -7.0440   22.7200  -31.4570 C   0  0  0  0  0  0  0  0  0  0  0  0
   -5.7800   22.3210  -31.8950 C   0  0  0  0  0  0  0  0  0  0  0  0
   -4.6480   23.0480  -31.5200 C   0  0  0  0  0  0  0  0  0  0  0  0
   -4.7730   24.1810  -30.7050 C   0  0  0  0  0  0  0  0  0  0  0  0
   -3.6080   24.9540  -30.4130 N   0  0  0  0  0  0  0  0  0  0  0  0
   -2.6190   24.6120  -29.0300 S   0  0  0  0  0  0  0  0  0  0  0  0
   -3.4780   24.6820  -27.7990 O   0  0  0  0  0  0  0  0  0  0  0  0
   -1.5250   25.6340  -28.9170 O   0  0  0  0  0  0  0  0  0  0  0  0
   -1.9070   23.0030  -29.1650 C   0  0  0  0  0  0  0  0  0  0  0  0
   -2.1850   22.0080  -28.2200 C   0  0  0  0  0  0  0  0  0  0  0  0
   -1.6260   20.7350  -28.3600 C   0  0  0  0  0  0  0  0  0  0  0  0
   -0.7880   20.4430  -29.4450 C   0  0  0  0  0  0  0  0  0  0  0  0
   -0.2500   19.1670  -29.5940 O   0  0  0  0  0  0  0  0  0  0  0  0
   -0.4940   21.4380  -30.3900 C   0  0  0  0  0  0  0  0  0  0  0  0
    0.3130   21.1010  -31.5310 N   0  0  0  0  0  0  0  0  0  0  0  0
   -0.1560   20.6900  -32.8240 C   0  0  0  0  0  0  0  0  0  0  0  0
    0.6040   20.8440  -33.8160 O   0  0  0  0  0  0  0  0  0  0  0  0
   -1.5150   20.1390  -33.0310 C   0  0  0  0  0  0  0  0  0  0  0  0
   -2.6070   20.9910  -33.2740 C   0  0  0  0  0  0  0  0  0  0  0  0
   -3.8860   20.4610  -33.4680 C   0  0  0  0  0  0  0  0  0  0  0  0
   -4.0950   19.0770  -33.4220 C   0  0  0  0  0  0  0  0  0  0  0  0
   -5.7040   18.4080  -33.7260 S   0  0  0  0  0  0  0  0  0  0  0  0
   -5.6210   16.9070  -33.7000 O   0  0  0  0  0  0  0  0  0  0  0  0
   -6.1510   18.8240  -35.1000 O   0  0  0  0  0  0  0  0  0  0  0  0
   -6.8930   18.9320  -32.5600 N   0  0  0  0  0  0  0  0  0  0  0  0
   -7.7820   17.8470  -32.1550 C   0  0  0  0  0  0  0  0  0  0  0  0
   -9.0340   18.5200  -31.6260 C   0  0  0  0  0  0  0  0  0  0  0  0
   -9.1000   19.8510  -32.3580 C   0  0  0  0  0  0  0  0  0  0  0  0
   -7.7660   19.9820  -33.0870 C   0  0  0  0  0  0  0  0  0  0  0  0
   -3.0070   18.2240  -33.1900 C   0  0  0  0  0  0  0  0  0  0  0  0
   -1.7260   18.7510  -32.9990 C   0  0  0  0  0  0  0  0  0  0  0  0
   -1.0600   22.7160  -30.2410 C   0  0  0  0  0  0  0  0  0  0  0  0
   -6.1854   25.5143  -28.3189 H   0  0  0  0  0  0  0  0  0  0  0  0
   -5.4227   26.5122  -29.6031 H   0  0  0  0  0  0  0  0  0  0  0  0
   -7.2004   26.2541  -29.6031 H   0  0  0  0  0  0  0  0  0  0  0  0
   -8.1792   24.1487  -30.2907 H   0  0  0  0  0  0  0  0  0  0  0  0
   -7.9352   22.1528  -31.7637 H   0  0  0  0  0  0  0  0  0  0  0  0
   -5.6755   21.4332  -32.5360 H   0  0  0  0  0  0  0  0  0  0  0  0
   -3.6536   22.7297  -31.8661 H   0  0  0  0  0  0  0  0  0  0  0  0
   -2.8437   22.2285  -27.3670 H   0  0  0  0  0  0  0  0  0  0  0  0
   -1.8450   19.9570  -27.6139 H   0  0  0  0  0  0  0  0  0  0  0  0
    0.3450   18.9300  -30.3800 H   0  0  0  0  0  0  0  0  0  0  0  0
   -2.4541   22.0797  -33.3116 H   0  0  0  0  0  0  0  0  0  0  0  0
   -4.7339   21.1355  -33.6580 H   0  0  0  0  0  0  0  0  0  0  0  0
   -8.0248   17.2078  -33.0167 H   0  0  0  0  0  0  0  0  0  0  0  0
   -7.3159   17.2013  -31.3962 H   0  0  0  0  0  0  0  0  0  0  0  0
   -9.9235   17.9118  -31.8472 H   0  0  0  0  0  0  0  0  0  0  0  0
   -9.0059   18.6483  -30.5339 H   0  0  0  0  0  0  0  0  0  0  0  0
   -9.9327   19.8536  -33.0767 H   0  0  0  0  0  0  0  0  0  0  0  0
   -9.2710   20.6890  -31.6663 H   0  0  0  0  0  0  0  0  0  0  0  0
   -7.9106   19.8470  -34.1691 H   0  0  0  0  0  0  0  0  0  0  0  0
   -7.3258   20.9778  -32.9301 H   0  0  0  0  0  0  0  0  0  0  0  0
   -3.1617   17.1354  -33.1581 H   0  0  0  0  0  0  0  0  0  0  0  0
   -0.8775   18.0736  -32.8224 H   0  0  0  0  0  0  0  0  0  0  0  0
   -0.8343   23.4998  -30.9791 H   0  0  0  0  0  0  0  0  0  0  0  0
  1  2  1  0
  2  3  2  0
  3  4  1  0
  4  5  2  0
  5  6  1  0
  6  7  2  0
  7  8  1  0
  8  9  1  0
  9 10  2  0
  9 11  2  0
  9 12  1  0
 12 13  2  0
 13 14  1  0
 14 15  2  0
 15 16  1  0
 15 17  1  0
 17 18  1  0
 18 19  1  0
 19 20  2  0
 19 21  1  0
 21 22  2  0
 22 23  1  0
 23 24  2  0
 24 25  1  0
 25 26  2  0
 25 27  2  0
 25 28  1  0
 28 29  1  0
 29 30  1  0
 30 31  1  0
 31 32  1  0
 24 33  1  0
 33 34  2  0
 17 35  2  0
  7  2  1  0
 35 12  1  0
 34 21  1  0
 32 28  1  0
  1 36  1  0
  1 37  1  0
  1 38  1  0
  3 39  1  0
  4 40  1  0
  5 41  1  0
  6 42  1  0
 13 43  1  0
 14 44  1  0
 16 45  1  0
 22 46  1  0
 23 47  1  0
 29 48  1  0
 29 49  1  0
 30 50  1  0
 30 51  1  0
 31 52  1  0
 31 53  1  0
 32 54  1  0
 32 55  1  0
 33 56  1  0
 34 57  1  0
 35 58  1  0
M  CHG  2   8  -1  18  -1
M  END
>  <UniqueID>  (11) 
10

>  <SMILES>  (11) 
Cc1ccccc1[N-]S(=O)(=O)c1ccc(O)c([N-]C(=O)c2ccc(S(=O)(=O)N3CCCC3)cc2)c1

>  <Energy>  (11) 
72.58749979281778

>  <Genealogy>  (11) 
Cc1ccccc1[N-]S(=O)(=O)c1ccc(O)c([N-]C(=O)c2ccc(S(=O)(=O)N3CCCC3)cc2)c1 (protonated)
Cc1ccccc1[N-]S(=O)(=O)c1ccc(O)c([N-]C(=O)c2ccc(S(=O)(=O)N3CCCC3)cc2)c1 (3D coordinates assigned)
Cc1ccccc1[N-]S(=O)(=O)c1ccc(O)c([N-]C(=O)c2ccc(S(=O)(=O)N3CCCC3)cc2)c1 (nonaromatic ring conformer: 72.58749979281778 kcal/mol)

>  <smiles>  (11) 
Cc1ccccc1NS(=O)(=O)c1ccc(O)c(NC(=O)c2ccc(S(=O)(=O)N3CCCC3)cc2)c1

>  <score_type>  (11) 
oracle

>  <origin>  (11) 
adgpu

>  <m_score__min__energy>  (11) 
-13.31

>  <m_primary>  (11) 
energy

$$$$
11:0
     RDKit          3D

 39 41  0  0  0  0  0  0  0  0999 V2000
   -5.3460   23.6040  -29.5080 C   0  0  0  0  0  0  0  0  0  0  0  0
   -4.6510   24.6240  -30.3450 C   0  0  0  0  0  0  0  0  0  0  0  0
   -5.0350   24.8240  -31.5280 O   0  0  0  0  0  0  0  0  0  0  0  0
   -3.4900   25.2890  -29.8280 N   0  0  0  0  0  0  0  0  0  0  0  0
   -2.3020   24.6600  -29.3250 C   0  0  0  0  0  0  0  0  0  0  0  0
   -1.5480   25.3290  -28.3530 C   0  0  0  0  0  0  0  0  0  0  0  0
   -0.3650   24.7690  -27.8660 C   0  0  0  0  0  0  0  0  0  0  0  0
    0.0760   23.5350  -28.3470 C   0  0  0  0  0  0  0  0  0  0  0  0
   -0.6610   22.8490  -29.3190 C   0  0  0  0  0  0  0  0  0  0  0  0
   -0.1480   21.6040  -29.8170 N   0  0  0  0  0  0  0  0  0  0  0  0
   -0.8220   20.6840  -30.6850 C   0  0  0  0  0  0  0  0  0  0  0  0
   -0.1820   20.0840  -31.5870 O   0  0  0  0  0  0  0  0  0  0  0  0
   -2.2360   20.4500  -30.5800 N   0  0  0  0  0  0  0  0  0  0  0  0
   -3.1980   20.8450  -31.3650 C   0  0  0  0  0  0  0  0  0  0  0  0
   -3.1010   21.5880  -32.5330 C   0  0  0  0  0  0  0  0  0  0  0  0
   -4.4080   21.7110  -32.9580 C   0  0  0  0  0  0  0  0  0  0  0  0
   -5.2190   21.0770  -32.0830 N   0  0  0  0  0  0  0  0  0  0  0  0
   -6.6560   20.9540  -32.1500 C   0  0  0  0  0  0  0  0  0  0  0  0
   -7.2720   19.7680  -32.6060 C   0  0  0  0  0  0  0  0  0  0  0  0
   -8.6660   19.6710  -32.6650 C   0  0  0  0  0  0  0  0  0  0  0  0
   -9.4620   20.7510  -32.2780 C   0  0  0  0  0  0  0  0  0  0  0  0
   -8.8680   21.9310  -31.8290 C   0  0  0  0  0  0  0  0  0  0  0  0
   -7.4740   22.0340  -31.7660 C   0  0  0  0  0  0  0  0  0  0  0  0
   -4.4860   20.5460  -31.1160 N   0  0  0  0  0  0  0  0  0  0  0  0
   -1.8380   23.4300  -29.8300 C   0  0  0  0  0  0  0  0  0  0  0  0
   -5.1891   23.8342  -28.4439 H   0  0  0  0  0  0  0  0  0  0  0  0
   -6.4230   23.6184  -29.7314 H   0  0  0  0  0  0  0  0  0  0  0  0
   -4.9385   22.6070  -29.7314 H   0  0  0  0  0  0  0  0  0  0  0  0
   -1.8898   26.3021  -27.9705 H   0  0  0  0  0  0  0  0  0  0  0  0
    0.2204   25.3013  -27.1019 H   0  0  0  0  0  0  0  0  0  0  0  0
    1.0087   23.0991  -27.9596 H   0  0  0  0  0  0  0  0  0  0  0  0
   -2.1931   21.9864  -33.0094 H   0  0  0  0  0  0  0  0  0  0  0  0
   -4.7370   22.2406  -33.8643 H   0  0  0  0  0  0  0  0  0  0  0  0
   -6.6513   18.9147  -32.9169 H   0  0  0  0  0  0  0  0  0  0  0  0
   -9.1366   18.7413  -33.0173 H   0  0  0  0  0  0  0  0  0  0  0  0
  -10.5580   20.6715  -32.3271 H   0  0  0  0  0  0  0  0  0  0  0  0
   -9.4962   22.7810  -31.5243 H   0  0  0  0  0  0  0  0  0  0  0  0
   -7.0124   22.9680  -31.4130 H   0  0  0  0  0  0  0  0  0  0  0  0
   -2.3978   22.9202  -30.6279 H   0  0  0  0  0  0  0  0  0  0  0  0
  1  2  1  0
  2  3  2  0
  2  4  1  0
  4  5  1  0
  5  6  2  0
  6  7  1  0
  7  8  2  0
  8  9  1  0
  9 10  1  0
 10 11  1  0
 11 12  2  0
 11 13  1  0
 13 14  2  3
 14 15  1  0
 15 16  2  0
 16 17  1  0
 17 18  1  0
 18 19  2  0
 19 20  1  0
 20 21  2  0
 21 22  1  0
 22 23  2  0
 17 24  1  0
  9 25  2  0
 25  5  1  0
 24 14  1  0
 23 18  1  0
  1 26  1  0
  1 27  1  0
  1 28  1  0
  6 29  1  0
  7 30  1  0
  8 31  1  0
 15 32  1  0
 16 33  1  0
 19 34  1  0
 20 35  1  0
 21 36  1  0
 22 37  1  0
 23 38  1  0
 25 39  1  0
M  CHG  3   4  -1  10  -1  24  -1
M  END
>  <UniqueID>  (12) 
11

>  <SMILES>  (12) 
CC(=O)[N-]c1cccc([N-]C(=O)N=c2ccn(-c3ccccc3)[n-]2)c1

>  <Energy>  (12) 
84.28832127447536

>  <Genealogy>  (12) 
CC(=O)[N-]c1cccc([N-]C(=O)N=c2ccn(-c3ccccc3)[n-]2)c1 (protonated)
CC(=O)[N-]c1cccc([N-]C(=O)N=c2ccn(-c3ccccc3)[n-]2)c1 (3D coordinates assigned)
CC(=O)[N-]c1cccc([N-]C(=O)N=c2ccn(-c3ccccc3)[n-]2)c1 (optimized conformer: 84.28832127447536 kcal/mol)

>  <smiles>  (12) 
CC(=O)Nc1cccc(NC(=O)N=c2ccn(-c3ccccc3)[nH]2)c1

>  <score_type>  (12) 
oracle

>  <origin>  (12) 
adgpu

>  <m_score__min__energy>  (12) 
-9.8800000000000008

>  <m_primary>  (12) 
energy

$$$$
12:0
     RDKit          3D

 30 31  0  0  0  0  0  0  0  0999 V2000
   -1.7870   22.2020  -30.7610 C   0  0  0  0  0  0  0  0  0  0  0  0
   -2.7400   23.0760  -30.0750 N   0  0  0  0  0  0  0  0  0  0  0  0
   -2.3750   23.6710  -28.7890 C   0  0  0  0  0  0  0  0  0  0  0  0
   -4.0630   23.2480  -30.6170 C   0  0  0  0  0  0  0  0  0  0  0  0
   -4.8450   22.1220  -30.9240 C   0  0  0  0  0  0  0  0  0  0  0  0
   -6.1370   22.2660  -31.4570 C   0  0  0  0  0  0  0  0  0  0  0  0
   -6.9530   21.0720  -31.7800 C   0  0  0  0  0  0  0  0  0  0  0  0
   -8.2690   20.9540  -31.2930 C   0  0  0  0  0  0  0  0  0  0  0  0
   -8.8230   21.9430  -30.5450 F   0  0  0  0  0  0  0  0  0  0  0  0
   -9.0360   19.8260  -31.6000 C   0  0  0  0  0  0  0  0  0  0  0  0
   -8.5020   18.8070  -32.3920 C   0  0  0  0  0  0  0  0  0  0  0  0
   -7.1960   18.9120  -32.8800 C   0  0  0  0  0  0  0  0  0  0  0  0
   -6.6680   17.8930  -33.6630 O   0  0  0  0  0  0  0  0  0  0  0  0
   -6.4220   20.0390  -32.5780 C   0  0  0  0  0  0  0  0  0  0  0  0
   -5.1450   20.1080  -33.0390 F   0  0  0  0  0  0  0  0  0  0  0  0
   -6.6460   23.5550  -31.6800 C   0  0  0  0  0  0  0  0  0  0  0  0
   -5.8780   24.6800  -31.3710 C   0  0  0  0  0  0  0  0  0  0  0  0
   -4.5950   24.5340  -30.8370 C   0  0  0  0  0  0  0  0  0  0  0  0
   -3.8630   25.6690  -30.5090 O   0  0  0  0  0  0  0  0  0  0  0  0
   -1.1901   21.6546  -30.0167 H   0  0  0  0  0  0  0  0  0  0  0  0
   -2.3344   21.4854  -31.3909 H   0  0  0  0  0  0  0  0  0  0  0  0
   -1.1203   22.8092  -31.3909 H   0  0  0  0  0  0  0  0  0  0  0  0
   -2.7601   23.0432  -27.9720 H   0  0  0  0  0  0  0  0  0  0  0  0
   -1.2797   23.7389  -28.7141 H   0  0  0  0  0  0  0  0  0  0  0  0
   -2.8108   24.6782  -28.7141 H   0  0  0  0  0  0  0  0  0  0  0  0
   -4.4407   21.1148  -30.7448 H   0  0  0  0  0  0  0  0  0  0  0  0
  -10.0635   19.7408  -31.2165 H   0  0  0  0  0  0  0  0  0  0  0  0
   -9.1091   17.9216  -32.6319 H   0  0  0  0  0  0  0  0  0  0  0  0
   -7.6549   23.6798  -32.1003 H   0  0  0  0  0  0  0  0  0  0  0  0
   -6.2853   25.6862  -31.5490 H   0  0  0  0  0  0  0  0  0  0  0  0
  1  2  1  0
  2  3  1  0
  2  4  1  0
  4  5  2  0
  5  6  1  0
  6  7  1  0
  7  8  2  0
  8  9  1  0
  8 10  1  0
 10 11  2  0
 11 12  1  0
 12 13  1  0
 12 14  2  0
 14 15  1  0
  6 16  2  0
 16 17  1  0
 17 18  2  0
 18 19  1  0
 18  4  1  0
 14  7  1  0
  1 20  1  0
  1 21  1  0
  1 22  1  0
  3 23  1  0
  3 24  1  0
  3 25  1  0
  5 26  1  0
 10 27  1  0
 11 28  1  0
 16 29  1  0
 17 30  1  0
M  CHG  2  13  -1  19  -1
M  END
>  <UniqueID>  (13) 
12

>  <SMILES>  (13) 
CN(C)c1cc(-c2c(F)ccc([O-])c2F)ccc1[O-]

>  <Energy>  (13) 
41.02045308761327

>  <Genealogy>  (13) 
CN(C)c1cc(-c2c(F)ccc([O-])c2F)ccc1[O-] (protonated)
CN(C)c1cc(-c2c(F)ccc([O-])c2F)ccc1[O-] (3D coordinates assigned)
CN(C)c1cc(-c2c(F)ccc([O-])c2F)ccc1[O-] (optimized conformer: 41.02045308761327 kcal/mol)

>  <smiles>  (13) 
CN(C)c1cc(-c2c(F)ccc(O)c2F)ccc1O

>  <score_type>  (13) 
oracle

>  <origin>  (13) 
adgpu

>  <m_score__min__energy>  (13) 
-9.5999999999999996

>  <m_primary>  (13) 
energy

$$$$
13:0
     RDKit          3D

 38 40  0  0  0  0  0  0  0  0999 V2000
   -3.4950   26.0220  -31.1990 H   0  0  0  0  0  0  0  0  0  0  0  0
   -3.5410   25.2800  -30.4650 N   0  0  0  0  0  0  0  0  0  0  0  0
   -4.5670   24.2920  -30.4870 C   0  0  0  0  0  0  0  0  0  0  0  0
   -5.6390   24.4890  -29.8550 O   0  0  0  0  0  0  0  0  0  0  0  0
   -4.3730   23.0500  -31.2450 C   0  0  0  0  0  0  0  0  0  0  0  0
   -3.1920   22.6740  -31.7780 N   0  0  0  0  0  0  0  0  0  0  0  0
   -3.3780   21.5190  -32.4010 N   0  0  0  0  0  0  0  0  0  0  0  0
   -2.3220   20.8160  -33.0820 C   0  0  0  0  0  0  0  0  0  0  0  0
   -2.3180   19.4120  -33.1640 C   0  0  0  0  0  0  0  0  0  0  0  0
   -3.1235   18.8339  -32.6876 H   0  0  0  0  0  0  0  0  0  0  0  0
   -1.2970   18.7480  -33.8470 C   0  0  0  0  0  0  0  0  0  0  0  0
   -1.2993   17.6494  -33.9024 H   0  0  0  0  0  0  0  0  0  0  0  0
   -0.2730   19.4730  -34.4600 C   0  0  0  0  0  0  0  0  0  0  0  0
    0.5269   18.9443  -34.9990 H   0  0  0  0  0  0  0  0  0  0  0  0
   -0.2620   20.8740  -34.3900 C   0  0  0  0  0  0  0  0  0  0  0  0
    0.8160   21.6600  -35.0850 C   0  0  0  0  0  0  0  0  0  0  0  0
    1.5990   21.9255  -34.3595 H   0  0  0  0  0  0  0  0  0  0  0  0
    1.2475   21.0483  -35.8910 H   0  0  0  0  0  0  0  0  0  0  0  0
    0.2530   22.8780  -35.6560 N   0  0  0  0  0  0  0  0  0  0  0  0
    0.4470   23.6680  -34.9990 H   0  0  0  0  0  0  0  0  0  0  0  0
   -0.7860   22.7640  -35.6860 H   0  0  0  0  0  0  0  0  0  0  0  0
   -1.2980   21.5400  -33.7150 C   0  0  0  0  0  0  0  0  0  0  0  0
   -1.3077   22.6395  -33.6817 H   0  0  0  0  0  0  0  0  0  0  0  0
   -4.6680   21.1420  -32.2500 C   0  0  0  0  0  0  0  0  0  0  0  0
   -5.1610   20.0350  -32.7290 N   0  0  0  0  0  0  0  0  0  0  0  0
   -6.4910   19.5340  -32.5360 C   0  0  0  0  0  0  0  0  0  0  0  0
   -6.7420   18.1600  -32.3690 C   0  0  0  0  0  0  0  0  0  0  0  0
   -5.9036   17.4482  -32.3477 H   0  0  0  0  0  0  0  0  0  0  0  0
   -8.0540   17.6960  -32.2300 C   0  0  0  0  0  0  0  0  0  0  0  0
   -8.2447   16.6229  -32.0812 H   0  0  0  0  0  0  0  0  0  0  0  0
   -9.1230   18.5950  -32.2800 C   0  0  0  0  0  0  0  0  0  0  0  0
  -10.1541   18.2305  -32.1619 H   0  0  0  0  0  0  0  0  0  0  0  0
   -8.8820   19.9570  -32.4800 C   0  0  0  0  0  0  0  0  0  0  0  0
   -9.9200   20.8270  -32.5450 F   0  0  0  0  0  0  0  0  0  0  0  0
   -7.5700   20.4230  -32.6190 C   0  0  0  0  0  0  0  0  0  0  0  0
   -7.3851   21.4931  -32.7944 H   0  0  0  0  0  0  0  0  0  0  0  0
   -5.3470   22.1080  -31.5260 C   0  0  0  0  0  0  0  0  0  0  0  0
   -6.4095   22.1229  -31.2416 H   0  0  0  0  0  0  0  0  0  0  0  0
  1  2  1  0
  2  3  1  0
  3  4  2  0
  3  5  1  0
  5  6  1  0
  6  7  1  0
  7  8  1  0
  8  9  2  0
  9 10  1  0
  9 11  1  0
 11 12  1  0
 11 13  2  0
 13 14  1  0
 13 15  1  0
 15 16  1  0
 16 17  1  0
 16 18  1  0
 16 19  1  0
 19 20  1  0
 19 21  1  0
 15 22  2  0
 22 23  1  0
  7 24  1  0
 24 25  2  0
 25 26  1  0
 26 27  2  0
 27 28  1  0
 27 29  1  0
 29 30  1  0
 29 31  2  0
 31 32  1  0
 31 33  1  0
 33 34  1  0
 33 35  2  0
 35 36  1  0
 24 37  1  0
 37 38  1  0
 37  5  2  0
 22  8  1  0
 35 26  1  0
M  CHG  2   2  -1   6  -1
M  END
>  <UniqueID>  (14) 
13

>  <SMILES>  (14) 
[NH-]C(=O)c1c/c(=N\c2cccc(F)c2)n(-c2cccc(CN)c2)[n-]1

>  <Energy>  (14) 
80.09692049471155

>  <Genealogy>  (14) 
[NH-]C(=O)c1cc(=Nc2cccc(F)c2)n(-c2cccc(CN)c2)[n-]1 (protonated)
[NH-]C(=O)c1c/c(=N\c2cccc(F)c2)n(-c2cccc(CN)c2)[n-]1 (cis-trans isomerization)
[NH-]C(=O)c1c/c(=N\c2cccc(F)c2)n(-c2cccc(CN)c2)[n-]1 (3D coordinates assigned)
[NH-]C(=O)c1c/c(=N\c2cccc(F)c2)n(-c2cccc(CN)c2)[n-]1 (optimized conformer: 80.09692049471155 kcal/mol)

>  <smiles>  (14) 
NCc1cccc(-n2[nH]c(C(N)=O)cc2=Nc2cccc(F)c2)c1

>  <score_type>  (14) 
oracle

>  <origin>  (14) 
adgpu

>  <m_score__min__energy>  (14) 
-11.220000000000001

>  <m_primary>  (14) 
energy

$$$$
14:0
     RDKit          3D

 35 37  0  0  0  0  0  0  0  0999 V2000
   -5.0580   16.8562  -31.9205 H   0  0  0  0  0  0  0  0  0  0  0  0
   -5.5970   17.6900  -32.3940 C   0  0  0  0  0  0  0  0  0  0  0  0
   -6.2650   19.0150  -31.5960 S   0  0  0  0  0  0  0  0  0  0  0  0
   -6.8410   19.7120  -33.0200 C   0  0  0  0  0  0  0  0  0  0  0  0
   -7.4970   20.8280  -33.1150 N   0  0  0  0  0  0  0  0  0  0  0  0
   -7.9120   21.8340  -31.7640 S   0  0  0  0  0  0  0  0  0  0  0  0
   -8.9960   22.7910  -32.1780 O   0  0  0  0  0  0  0  0  0  0  0  0
   -8.3900   20.9850  -30.6180 O   0  0  0  0  0  0  0  0  0  0  0  0
   -6.4910   22.7370  -31.2540 C   0  0  0  0  0  0  0  0  0  0  0  0
   -6.6310   23.9260  -30.5290 C   0  0  0  0  0  0  0  0  0  0  0  0
   -7.6348   24.3019  -30.2820 H   0  0  0  0  0  0  0  0  0  0  0  0
   -5.5020   24.6370  -30.1180 C   0  0  0  0  0  0  0  0  0  0  0  0
   -5.6215   25.5656  -29.5405 H   0  0  0  0  0  0  0  0  0  0  0  0
   -4.2180   24.1760  -30.4360 C   0  0  0  0  0  0  0  0  0  0  0  0
   -3.1130   24.9260  -30.0090 O   0  0  0  0  0  0  0  0  0  0  0  0
   -2.2480   24.5530  -28.9700 C   0  0  0  0  0  0  0  0  0  0  0  0
   -1.3140   25.4500  -28.4150 C   0  0  0  0  0  0  0  0  0  0  0  0
   -1.2458   26.4781  -28.8001 H   0  0  0  0  0  0  0  0  0  0  0  0
   -0.4740   25.0380  -27.3770 C   0  0  0  0  0  0  0  0  0  0  0  0
    0.2592   25.7396  -26.9525 H   0  0  0  0  0  0  0  0  0  0  0  0
   -0.5640   23.7350  -26.8770 C   0  0  0  0  0  0  0  0  0  0  0  0
    0.1005   23.4112  -26.0624 H   0  0  0  0  0  0  0  0  0  0  0  0
   -1.4990   22.8440  -27.4130 C   0  0  0  0  0  0  0  0  0  0  0  0
   -1.6160   21.2120  -26.7810 Cl  0  0  0  0  0  0  0  0  0  0  0  0
   -2.3400   23.2550  -28.4540 C   0  0  0  0  0  0  0  0  0  0  0  0
   -3.0782   22.5531  -28.8693 H   0  0  0  0  0  0  0  0  0  0  0  0
   -4.0720   22.9610  -31.1390 C   0  0  0  0  0  0  0  0  0  0  0  0
   -2.7680   22.4010  -31.3990 C   0  0  0  0  0  0  0  0  0  0  0  0
   -1.7230   21.9510  -31.6070 N   0  0  0  0  0  0  0  0  0  0  0  0
   -5.2090   22.2520  -31.5470 C   0  0  0  0  0  0  0  0  0  0  0  0
   -5.0951   21.3085  -32.1009 H   0  0  0  0  0  0  0  0  0  0  0  0
   -6.5340   18.9550  -34.0940 N   0  0  0  0  0  0  0  0  0  0  0  0
   -6.7940   19.1980  -35.0760 H   0  0  0  0  0  0  0  0  0  0  0  0
   -5.8450   17.8330  -33.7550 C   0  0  0  0  0  0  0  0  0  0  0  0
   -5.5098   17.0957  -34.4993 H   0  0  0  0  0  0  0  0  0  0  0  0
  1  2  1  0
  2  3  1  0
  3  4  1  0
  4  5  2  0
  5  6  1  0
  6  7  2  0
  6  8  2  0
  6  9  1  0
  9 10  2  0
 10 11  1  0
 10 12  1  0
 12 13  1  0
 12 14  2  0
 14 15  1  0
 15 16  1  0
 16 17  2  0
 17 18  1  0
 17 19  1  0
 19 20  1  0
 19 21  2  0
 21 22  1  0
 21 23  1  0
 23 24  1  0
 23 25  2  0
 25 26  1  0
 14 27  1  0
 27 28  1  0
 28 29  3  0
 27 30  2  0
 30 31  1  0
  4 32  1  0
 32 33  1  0
 32 34  1  0
 34 35  1  0
 34  2  2  0
 30  9  1  0
 25 16  1  0
M  END
>  <UniqueID>  (15) 
14

>  <SMILES>  (15) 
N#Cc1cc(S(=O)(=O)/N=c2/[nH]ccs2)ccc1Oc1cccc(Cl)c1

>  <Energy>  (15) 
79.36940499895125

>  <Genealogy>  (15) 
N#Cc1cc(S(=O)(=O)/N=c2/[nH]ccs2)ccc1Oc1cccc(Cl)c1 (cis-trans isomerization)
N#Cc1cc(S(=O)(=O)/N=c2/[nH]ccs2)ccc1Oc1cccc(Cl)c1 (3D coordinates assigned)
N#Cc1cc(S(=O)(=O)/N=c2/[nH]ccs2)ccc1Oc1cccc(Cl)c1 (optimized conformer: 79.36940499895125 kcal/mol)

>  <smiles>  (15) 
N#Cc1cc(S(=O)(=O)N=c2[nH]ccs2)ccc1Oc1cccc(Cl)c1

>  <score_type>  (15) 
oracle

>  <origin>  (15) 
adgpu

>  <m_score__min__energy>  (15) 
-9.2599999999999998

>  <m_primary>  (15) 
energy

$$$$
15:0
     RDKit          3D

 23 24  0  0  0  0  0  0  0  0999 V2000
   -3.8910   25.6800  -30.6450 O   0  0  0  0  0  0  0  0  0  0  0  0
   -3.3440   24.5100  -30.1300 C   0  0  0  0  0  0  0  0  0  0  0  0
   -3.9470   23.2800  -30.4060 C   0  0  0  0  0  0  0  0  0  0  0  0
   -3.4030   22.1000  -29.8920 C   0  0  0  0  0  0  0  0  0  0  0  0
   -2.2460   22.1370  -29.0920 C   0  0  0  0  0  0  0  0  0  0  0  0
   -1.6660   20.8840  -28.5440 C   0  0  0  0  0  0  0  0  0  0  0  0
   -0.4140   20.4220  -28.9890 C   0  0  0  0  0  0  0  0  0  0  0  0
    0.1310   19.2420  -28.4720 C   0  0  0  0  0  0  0  0  0  0  0  0
   -0.5620   18.5070  -27.5070 C   0  0  0  0  0  0  0  0  0  0  0  0
    0.0050   17.3350  -27.0080 O   0  0  0  0  0  0  0  0  0  0  0  0
   -1.8140   18.9580  -27.0560 C   0  0  0  0  0  0  0  0  0  0  0  0
   -2.5210   18.2380  -26.1000 O   0  0  0  0  0  0  0  0  0  0  0  0
   -2.3600   20.1390  -27.5730 C   0  0  0  0  0  0  0  0  0  0  0  0
   -1.6460   23.3810  -28.8190 C   0  0  0  0  0  0  0  0  0  0  0  0
   -2.1920   24.5610  -29.3370 C   0  0  0  0  0  0  0  0  0  0  0  0
   -1.5870   25.7820  -29.0630 O   0  0  0  0  0  0  0  0  0  0  0  0
   -4.8523   23.2406  -31.0296 H   0  0  0  0  0  0  0  0  0  0  0  0
   -3.8826   21.1354  -30.1143 H   0  0  0  0  0  0  0  0  0  0  0  0
    0.1402   20.9926  -29.7488 H   0  0  0  0  0  0  0  0  0  0  0  0
    1.1110   18.8907  -28.8274 H   0  0  0  0  0  0  0  0  0  0  0  0
   -0.4790   16.7460  -26.3400 H   0  0  0  0  0  0  0  0  0  0  0  0
   -3.3406   20.4876  -27.2168 H   0  0  0  0  0  0  0  0  0  0  0  0
   -0.7418   23.4259  -28.1942 H   0  0  0  0  0  0  0  0  0  0  0  0
  1  2  1  0
  2  3  2  0
  3  4  1  0
  4  5  2  0
  5  6  1  0
  6  7  2  0
  7  8  1  0
  8  9  2  0
  9 10  1  0
  9 11  1  0
 11 12  1  0
 11 13  2  0
  5 14  1  0
 14 15  2  0
 15 16  1  0
 15  2  1  0
 13  6  1  0
  3 17  1  0
  4 18  1  0
  7 19  1  0
  8 20  1  0
 10 21  1  0
 13 22  1  0
 14 23  1  0
M  CHG  3   1  -1  12  -1  16  -1
M  END
>  <UniqueID>  (16) 
15

>  <SMILES>  (16) 
[O-]c1ccc(-c2ccc(O)c([O-])c2)cc1[O-]

>  <Energy>  (16) 
29.877418142035527

>  <Genealogy>  (16) 
[O-]c1ccc(-c2ccc(O)c([O-])c2)cc1[O-] (protonated)
[O-]c1ccc(-c2ccc(O)c([O-])c2)cc1[O-] (3D coordinates assigned)
[O-]c1ccc(-c2ccc(O)c([O-])c2)cc1[O-] (optimized conformer: 29.877418142035527 kcal/mol)

>  <smiles>  (16) 
Oc1ccc(-c2ccc(O)c(O)c2)cc1O

>  <score_type>  (16) 
oracle

>  <origin>  (16) 
adgpu

>  <m_score__min__energy>  (16) 
-11.449999999999999

>  <m_primary>  (16) 
energy

$$$$
16:0
     RDKit          3D

 57 60  0  0  0  0  0  0  0  0999 V2000
    1.8690   16.4270  -36.7700 C   0  0  0  0  0  0  0  0  0  0  0  0
    2.5810   17.6320  -37.0310 O   0  0  0  0  0  0  0  0  0  0  0  0
    2.1720   18.9030  -36.6020 C   0  0  0  0  0  0  0  0  0  0  0  0
    2.9750   20.0460  -36.7580 C   0  0  0  0  0  0  0  0  0  0  0  0
    2.5190   21.2930  -36.3290 C   0  0  0  0  0  0  0  0  0  0  0  0
    1.2530   21.4220  -35.7260 C   0  0  0  0  0  0  0  0  0  0  0  0
    0.7650   22.6620  -35.2820 O   0  0  0  0  0  0  0  0  0  0  0  0
    0.7280   23.8450  -36.0720 C   0  0  0  0  0  0  0  0  0  0  0  0
    0.4520   20.2780  -35.5500 C   0  0  0  0  0  0  0  0  0  0  0  0
   -0.8530   20.4070  -34.9600 N   0  0  0  0  0  0  0  0  0  0  0  0
   -1.5410   19.3290  -34.3020 C   0  0  0  0  0  0  0  0  0  0  0  0
   -0.9460   18.2420  -34.0690 O   0  0  0  0  0  0  0  0  0  0  0  0
   -2.9310   19.5110  -33.8300 C   0  0  0  0  0  0  0  0  0  0  0  0
   -3.2820   20.7350  -33.2410 C   0  0  0  0  0  0  0  0  0  0  0  0
   -4.5760   20.9350  -32.7360 C   0  0  0  0  0  0  0  0  0  0  0  0
   -4.9770   22.2190  -32.1030 C   0  0  0  0  0  0  0  0  0  0  0  0
   -6.2940   22.7000  -32.2010 C   0  0  0  0  0  0  0  0  0  0  0  0
   -6.6510   23.9120  -31.6060 C   0  0  0  0  0  0  0  0  0  0  0  0
   -5.6980   24.6720  -30.9060 C   0  0  0  0  0  0  0  0  0  0  0  0
   -6.0220   25.8940  -30.2930 O   0  0  0  0  0  0  0  0  0  0  0  0
   -6.4880   26.0260  -28.9540 C   0  0  0  0  0  0  0  0  0  0  0  0
   -4.3770   24.2090  -30.8110 C   0  0  0  0  0  0  0  0  0  0  0  0
   -3.4460   24.9920  -30.1090 O   0  0  0  0  0  0  0  0  0  0  0  0
   -2.7160   24.5500  -28.9700 C   0  0  0  0  0  0  0  0  0  0  0  0
   -4.0230   22.9860  -31.4150 C   0  0  0  0  0  0  0  0  0  0  0  0
   -5.4910   19.9350  -32.8410 N   0  0  0  0  0  0  0  0  0  0  0  0
   -5.2020   18.7370  -33.4110 C   0  0  0  0  0  0  0  0  0  0  0  0
   -6.1950   17.7550  -33.4920 C   0  0  0  0  0  0  0  0  0  0  0  0
   -5.9210   16.5270  -34.0970 C   0  0  0  0  0  0  0  0  0  0  0  0
   -4.6560   16.2780  -34.6310 C   0  0  0  0  0  0  0  0  0  0  0  0
   -3.6550   17.2490  -34.5550 C   0  0  0  0  0  0  0  0  0  0  0  0
   -3.9070   18.4880  -33.9300 C   0  0  0  0  0  0  0  0  0  0  0  0
    0.9140   19.0300  -36.0040 C   0  0  0  0  0  0  0  0  0  0  0  0
    1.7824   16.2804  -35.6833 H   0  0  0  0  0  0  0  0  0  0  0  0
    0.8640   16.4917  -37.2125 H   0  0  0  0  0  0  0  0  0  0  0  0
    2.4105   15.5779  -37.2125 H   0  0  0  0  0  0  0  0  0  0  0  0
    3.9688   19.9569  -37.2210 H   0  0  0  0  0  0  0  0  0  0  0  0
    3.1531   22.1818  -36.4628 H   0  0  0  0  0  0  0  0  0  0  0  0
    0.7005   24.7253  -35.4130 H   0  0  0  0  0  0  0  0  0  0  0  0
    1.6252   23.8902  -36.7069 H   0  0  0  0  0  0  0  0  0  0  0  0
   -0.1702   23.8340  -36.7069 H   0  0  0  0  0  0  0  0  0  0  0  0
   -1.3040   21.3490  -34.9700 H   0  0  0  0  0  0  0  0  0  0  0  0
   -2.5384   21.5429  -33.1746 H   0  0  0  0  0  0  0  0  0  0  0  0
   -7.0487   22.1178  -32.7501 H   0  0  0  0  0  0  0  0  0  0  0  0
   -7.6864   24.2748  -31.6858 H   0  0  0  0  0  0  0  0  0  0  0  0
   -5.6697   25.7942  -28.2564 H   0  0  0  0  0  0  0  0  0  0  0  0
   -6.8324   27.0570  -28.7856 H   0  0  0  0  0  0  0  0  0  0  0  0
   -7.3219   25.3287  -28.7856 H   0  0  0  0  0  0  0  0  0  0  0  0
   -3.2379   24.8660  -28.0547 H   0  0  0  0  0  0  0  0  0  0  0  0
   -2.6381   23.4529  -28.9875 H   0  0  0  0  0  0  0  0  0  0  0  0
   -1.7078   24.9895  -28.9875 H   0  0  0  0  0  0  0  0  0  0  0  0
   -2.9854   22.6274  -31.3466 H   0  0  0  0  0  0  0  0  0  0  0  0
   -7.1950   17.9510  -33.0777 H   0  0  0  0  0  0  0  0  0  0  0  0
   -6.7028   15.7552  -34.1528 H   0  0  0  0  0  0  0  0  0  0  0  0
   -4.4462   15.3123  -35.1141 H   0  0  0  0  0  0  0  0  0  0  0  0
   -2.6633   17.0461  -34.9855 H   0  0  0  0  0  0  0  0  0  0  0  0
    0.2770   18.1409  -35.8872 H   0  0  0  0  0  0  0  0  0  0  0  0
  1  2  1  0
  2  3  1  0
  3  4  2  0
  4  5  1  0
  5  6  2  0
  6  7  1  0
  7  8  1  0
  6  9  1  0
  9 10  1  0
 10 11  1  0
 11 12  2  0
 11 13  1  0
 13 14  2  0
 14 15  1  0
 15 16  1  0
 16 17  2  0
 17 18  1  0
 18 19  2  0
 19 20  1  0
 20 21  1  0
 19 22  1  0
 22 23  1  0
 23 24  1  0
 22 25  2  0
 15 26  2  0
 26 27  1  0
 27 28  2  0
 28 29  1  0
 29 30  2  0
 30 31  1  0
 31 32  2  0
  9 33  2  0
 33  3  1  0
 32 13  1  0
 25 16  1  0
 32 27  1  0
  1 34  1  0
  1 35  1  0
  1 36  1  0
  4 37  1  0
  5 38  1  0
  8 39  1  0
  8 40  1  0
  8 41  1  0
 10 42  1  0
 14 43  1  0
 17 44  1  0
 18 45  1  0
 21 46  1  0
 21 47  1  0
 21 48  1  0
 24 49  1  0
 24 50  1  0
 24 51  1  0
 25 52  1  0
 28 53  1  0
 29 54  1  0
 30 55  1  0
 31 56  1  0
 33 57  1  0
M  END
>  <UniqueID>  (17) 
16

>  <SMILES>  (17) 
COc1ccc(OC)c(NC(=O)c2cc(-c3ccc(OC)c(OC)c3)nc3ccccc23)c1

>  <Energy>  (17) 
77.3667892495849

>  <Genealogy>  (17) 
COc1ccc(OC)c(NC(=O)c2cc(-c3ccc(OC)c(OC)c3)nc3ccccc23)c1 (3D coordinates assigned)
COc1ccc(OC)c(NC(=O)c2cc(-c3ccc(OC)c(OC)c3)nc3ccccc23)c1 (optimized conformer: 77.3667892495849 kcal/mol)

>  <smiles>  (17) 
COc1ccc(OC)c(NC(=O)c2cc(-c3ccc(OC)c(OC)c3)nc3ccccc23)c1

>  <score_type>  (17) 
oracle

>  <origin>  (17) 
adgpu

>  <m_score__min__energy>  (17) 
-8.7300000000000004

>  <m_primary>  (17) 
energy

$$$$
17:0
     RDKit          3D

 33 34  0  0  0  0  0  0  0  0999 V2000
   -2.5400   24.9080  -28.9670 C   0  0  0  0  0  0  0  0  0  0  0  0
   -3.4780   25.2990  -29.9630 O   0  0  0  0  0  0  0  0  0  0  0  0
   -4.6400   24.5810  -30.2860 C   0  0  0  0  0  0  0  0  0  0  0  0
   -5.9280   25.1170  -30.0930 C   0  0  0  0  0  0  0  0  0  0  0  0
   -7.0610   24.3710  -30.4260 C   0  0  0  0  0  0  0  0  0  0  0  0
   -6.9260   23.0860  -30.9610 C   0  0  0  0  0  0  0  0  0  0  0  0
   -8.3520   22.1340  -31.3570 S   0  0  0  0  0  0  0  0  0  0  0  0
   -9.1650   21.8820  -30.1190 O   0  0  0  0  0  0  0  0  0  0  0  0
   -9.2110   22.8870  -32.3340 O   0  0  0  0  0  0  0  0  0  0  0  0
   -7.8410   20.6040  -32.0580 C   0  0  0  0  0  0  0  0  0  0  0  0
   -6.8820   20.5840  -33.0820 C   0  0  0  0  0  0  0  0  0  0  0  0
   -6.4600   19.3660  -33.6250 C   0  0  0  0  0  0  0  0  0  0  0  0
   -6.9900   18.1650  -33.1450 C   0  0  0  0  0  0  0  0  0  0  0  0
   -7.9390   18.1790  -32.1180 C   0  0  0  0  0  0  0  0  0  0  0  0
   -8.3620   19.3960  -31.5740 C   0  0  0  0  0  0  0  0  0  0  0  0
   -5.6490   22.5430  -31.1480 C   0  0  0  0  0  0  0  0  0  0  0  0
   -4.5000   23.2860  -30.8130 C   0  0  0  0  0  0  0  0  0  0  0  0
   -3.2050   22.7740  -30.9890 O   0  0  0  0  0  0  0  0  0  0  0  0
   -2.8730   21.7020  -31.8650 C   0  0  0  0  0  0  0  0  0  0  0  0
   -2.9683   25.0866  -27.9697 H   0  0  0  0  0  0  0  0  0  0  0  0
   -2.3088   23.8386  -29.0807 H   0  0  0  0  0  0  0  0  0  0  0  0
   -1.6177   25.4966  -29.0807 H   0  0  0  0  0  0  0  0  0  0  0  0
   -6.0424   26.1291  -29.6776 H   0  0  0  0  0  0  0  0  0  0  0  0
   -8.0631   24.7958  -30.2668 H   0  0  0  0  0  0  0  0  0  0  0  0
   -6.4612   21.5280  -33.4585 H   0  0  0  0  0  0  0  0  0  0  0  0
   -5.7107   19.3533  -34.4302 H   0  0  0  0  0  0  0  0  0  0  0  0
   -6.6603   17.2079  -33.5755 H   0  0  0  0  0  0  0  0  0  0  0  0
   -8.3526   17.2332  -31.7382 H   0  0  0  0  0  0  0  0  0  0  0  0
   -9.1059   19.4053  -30.7637 H   0  0  0  0  0  0  0  0  0  0  0  0
   -5.5422   21.5285  -31.5596 H   0  0  0  0  0  0  0  0  0  0  0  0
   -2.5987   20.8163  -31.2731 H   0  0  0  0  0  0  0  0  0  0  0  0
   -3.7398   21.4650  -32.4994 H   0  0  0  0  0  0  0  0  0  0  0  0
   -2.0239   21.9964  -32.4994 H   0  0  0  0  0  0  0  0  0  0  0  0
  1  2  1  0
  2  3  1  0
  3  4  2  0
  4  5  1  0
  5  6  2  0
  6  7  1  0
  7  8  2  0
  7  9  2  0
  7 10  1  0
 10 11  2  0
 11 12  1  0
 12 13  2  0
 13 14  1  0
 14 15  2  0
  6 16  1  0
 16 17  2  0
 17 18  1  0
 18 19  1  0
 17  3  1  0
 15 10  1  0
  1 20  1  0
  1 21  1  0
  1 22  1  0
  4 23  1  0
  5 24  1  0
 11 25  1  0
 12 26  1  0
 13 27  1  0
 14 28  1  0
 15 29  1  0
 16 30  1  0
 19 31  1  0
 19 32  1  0
 19 33  1  0
M  END
>  <UniqueID>  (18) 
17

>  <SMILES>  (18) 
COc1ccc(S(=O)(=O)c2ccccc2)cc1OC

>  <Energy>  (18) 
34.18824219536313

>  <Genealogy>  (18) 
COc1ccc(S(=O)(=O)c2ccccc2)cc1OC (3D coordinates assigned)
COc1ccc(S(=O)(=O)c2ccccc2)cc1OC (optimized conformer: 34.18824219536313 kcal/mol)

>  <smiles>  (18) 
COc1ccc(S(=O)(=O)c2ccccc2)cc1OC

>  <score_type>  (18) 
oracle

>  <origin>  (18) 
adgpu

>  <m_score__min__energy>  (18) 
-8.0099999999999998

>  <m_primary>  (18) 
energy

$$$$
18:0
     RDKit          3D

 53 56  0  0  0  0  0  0  0  0999 V2000
   -9.0760   18.8920  -32.0130 C   0  0  0  0  0  0  0  0  0  0  0  0
   -7.8350   19.6950  -32.2700 C   0  0  0  0  0  0  0  0  0  0  0  0
   -6.6720   19.0650  -32.7190 C   0  0  0  0  0  0  0  0  0  0  0  0
   -5.4940   19.7950  -32.9450 C   0  0  0  0  0  0  0  0  0  0  0  0
   -4.2720   19.0410  -33.4080 C   0  0  0  0  0  0  0  0  0  0  0  0
   -5.4780   21.2000  -32.7080 C   0  0  0  0  0  0  0  0  0  0  0  0
   -4.2390   22.0300  -33.0190 C   0  0  0  0  0  0  0  0  0  0  0  0
   -2.7990   21.5340  -32.0020 S   0  0  0  0  0  0  0  0  0  0  0  0
   -2.9330   22.8980  -30.8420 C   0  0  0  0  0  0  0  0  0  0  0  0
   -3.9730   23.7510  -30.8300 N   0  0  0  0  0  0  0  0  0  0  0  0
   -3.7640   24.6000  -29.8350 N   0  0  0  0  0  0  0  0  0  0  0  0
   -2.5950   24.2550  -29.2620 C   0  0  0  0  0  0  0  0  0  0  0  0
   -2.0460   24.9480  -28.0830 C   0  0  0  0  0  0  0  0  0  0  0  0
   -0.8630   25.6930  -28.1990 C   0  0  0  0  0  0  0  0  0  0  0  0
   -0.3340   26.3520  -27.0850 C   0  0  0  0  0  0  0  0  0  0  0  0
   -0.9750   26.2590  -25.8460 C   0  0  0  0  0  0  0  0  0  0  0  0
   -2.1390   25.4970  -25.7180 C   0  0  0  0  0  0  0  0  0  0  0  0
   -2.6730   24.8380  -26.8300 C   0  0  0  0  0  0  0  0  0  0  0  0
   -2.0420   23.1820  -29.8710 N   0  0  0  0  0  0  0  0  0  0  0  0
   -0.8970   22.3740  -29.4440 C   0  0  0  0  0  0  0  0  0  0  0  0
   -1.3470   21.3160  -28.4810 C   0  0  0  0  0  0  0  0  0  0  0  0
   -0.4730   20.2950  -28.0810 C   0  0  0  0  0  0  0  0  0  0  0  0
   -0.9380   19.2900  -27.2300 C   0  0  0  0  0  0  0  0  0  0  0  0
   -2.2650   19.3060  -26.7960 C   0  0  0  0  0  0  0  0  0  0  0  0
   -3.1100   20.3330  -27.2220 C   0  0  0  0  0  0  0  0  0  0  0  0
   -2.6390   21.3040  -28.0500 N   0  0  0  0  0  0  0  0  0  0  0  0
   -6.6490   21.8220  -32.1880 C   0  0  0  0  0  0  0  0  0  0  0  0
   -6.7070   23.2990  -31.8780 C   0  0  0  0  0  0  0  0  0  0  0  0
   -7.8120   21.0630  -31.9900 C   0  0  0  0  0  0  0  0  0  0  0  0
   -9.2301   18.7923  -30.9284 H   0  0  0  0  0  0  0  0  0  0  0  0
   -9.9418   19.4016  -32.4611 H   0  0  0  0  0  0  0  0  0  0  0  0
   -8.9660   17.8934  -32.4611 H   0  0  0  0  0  0  0  0  0  0  0  0
   -6.6791   17.9798  -32.8984 H   0  0  0  0  0  0  0  0  0  0  0  0
   -3.7042   18.6906  -32.5335 H   0  0  0  0  0  0  0  0  0  0  0  0
   -4.5821   18.1770  -34.0141 H   0  0  0  0  0  0  0  0  0  0  0  0
   -3.6388   19.7057  -34.0141 H   0  0  0  0  0  0  0  0  0  0  0  0
   -3.9837   21.9006  -34.0811 H   0  0  0  0  0  0  0  0  0  0  0  0
   -4.4698   23.0802  -32.7871 H   0  0  0  0  0  0  0  0  0  0  0  0
   -0.3498   25.7590  -29.1697 H   0  0  0  0  0  0  0  0  0  0  0  0
    0.5876   26.9443  -27.1836 H   0  0  0  0  0  0  0  0  0  0  0  0
   -0.5631   26.7855  -24.9724 H   0  0  0  0  0  0  0  0  0  0  0  0
   -2.6366   25.4152  -24.7404 H   0  0  0  0  0  0  0  0  0  0  0  0
   -3.5852   24.2326  -26.7237 H   0  0  0  0  0  0  0  0  0  0  0  0
   -0.4403   21.8960  -30.3232 H   0  0  0  0  0  0  0  0  0  0  0  0
   -0.1609   23.0240  -28.9485 H   0  0  0  0  0  0  0  0  0  0  0  0
    0.5688   20.2857  -28.4341 H   0  0  0  0  0  0  0  0  0  0  0  0
   -0.2604   18.4877  -26.9024 H   0  0  0  0  0  0  0  0  0  0  0  0
   -2.6406   18.5185  -26.1261 H   0  0  0  0  0  0  0  0  0  0  0  0
   -4.1577   20.3567  -26.8876 H   0  0  0  0  0  0  0  0  0  0  0  0
   -6.7127   23.4449  -30.7877 H   0  0  0  0  0  0  0  0  0  0  0  0
   -5.8278   23.7992  -32.3102 H   0  0  0  0  0  0  0  0  0  0  0  0
   -7.6227   23.7287  -32.3102 H   0  0  0  0  0  0  0  0  0  0  0  0
   -8.7199   21.5529  -31.6083 H   0  0  0  0  0  0  0  0  0  0  0  0
  1  2  1  0
  2  3  2  0
  3  4  1  0
  4  5  1  0
  4  6  2  0
  6  7  1  0
  7  8  1  0
  8  9  1  0
  9 10  2  0
 10 11  1  0
 11 12  2  0
 12 13  1  0
 13 14  2  0
 14 15  1  0
 15 16  2  0
 16 17  1  0
 17 18  2  0
 12 19  1  0
 19 20  1  0
 20 21  1  0
 21 22  2  0
 22 23  1  0
 23 24  2  0
 24 25  1  0
 25 26  2  0
  6 27  1  0
 27 28  1  0
 27 29  2  0
 29  2  1  0
 19  9  1  0
 26 21  1  0
 18 13  1  0
  1 30  1  0
  1 31  1  0
  1 32  1  0
  3 33  1  0
  5 34  1  0
  5 35  1  0
  5 36  1  0
  7 37  1  0
  7 38  1  0
 14 39  1  0
 15 40  1  0
 16 41  1  0
 17 42  1  0
 18 43  1  0
 20 44  1  0
 20 45  1  0
 22 46  1  0
 23 47  1  0
 24 48  1  0
 25 49  1  0
 28 50  1  0
 28 51  1  0
 28 52  1  0
 29 53  1  0
M  END
>  <UniqueID>  (19) 
18

>  <SMILES>  (19) 
Cc1cc(C)c(CSc2nnc(-c3ccccc3)n2Cc2ccccn2)c(C)c1

>  <Energy>  (19) 
93.54408642457987

>  <Genealogy>  (19) 
Cc1cc(C)c(CSc2nnc(-c3ccccc3)n2Cc2ccccn2)c(C)c1 (3D coordinates assigned)
Cc1cc(C)c(CSc2nnc(-c3ccccc3)n2Cc2ccccn2)c(C)c1 (optimized conformer: 93.54408642457987 kcal/mol)

>  <smiles>  (19) 
Cc1cc(C)c(CSc2nnc(-c3ccccc3)n2Cc2ccccn2)c(C)c1

>  <score_type>  (19) 
oracle

>  <origin>  (19) 
adgpu

>  <m_score__min__energy>  (19) 
-9.8499999999999996

>  <m_primary>  (19) 
energy

$$$$
19:0
     RDKit          3D

 48 50  0  0  0  0  0  0  0  0999 V2000
    0.0290   27.1260  -22.6710 C   0  0  0  0  0  0  0  0  0  0  0  0
   -0.5770   26.5070  -23.8950 C   0  0  0  0  0  0  0  0  0  0  0  0
   -0.5490   25.1190  -24.0810 C   0  0  0  0  0  0  0  0  0  0  0  0
   -1.1490   24.5510  -25.2060 C   0  0  0  0  0  0  0  0  0  0  0  0
   -1.7970   25.3780  -26.1360 C   0  0  0  0  0  0  0  0  0  0  0  0
   -2.4140   24.8240  -27.3130 N   0  0  0  0  0  0  0  0  0  0  0  0
   -1.9600   25.2680  -28.6400 C   0  0  0  0  0  0  0  0  0  0  0  0
   -2.0720   24.1180  -29.6430 C   0  0  0  0  0  0  0  0  0  0  0  0
   -3.4050   23.5170  -29.5530 N   0  0  0  0  0  0  0  0  0  0  0  0
   -4.3720   23.7290  -30.5980 C   0  0  0  0  0  0  0  0  0  0  0  0
   -4.3870   24.8300  -31.2120 O   0  0  0  0  0  0  0  0  0  0  0  0
   -5.3450   22.6740  -30.9720 C   0  0  0  0  0  0  0  0  0  0  0  0
   -4.9030   21.3750  -31.2540 C   0  0  0  0  0  0  0  0  0  0  0  0
   -5.8150   20.3750  -31.5930 C   0  0  0  0  0  0  0  0  0  0  0  0
   -7.1900   20.6470  -31.6540 C   0  0  0  0  0  0  0  0  0  0  0  0
   -8.2870   19.3010  -32.0030 S   0  0  0  0  0  0  0  0  0  0  0  0
   -7.3490   17.8630  -32.4700 C   0  0  0  0  0  0  0  0  0  0  0  0
   -9.0870   18.9790  -30.7730 O   0  0  0  0  0  0  0  0  0  0  0  0
   -9.2450   19.6670  -33.1010 O   0  0  0  0  0  0  0  0  0  0  0  0
   -7.6480   21.9600  -31.3870 C   0  0  0  0  0  0  0  0  0  0  0  0
   -9.0370   22.3100  -31.4820 N   0  0  0  0  0  0  0  0  0  0  0  0
   -9.8480   21.8760  -30.6390 O   0  0  0  0  0  0  0  0  0  0  0  0
   -9.4370   23.3140  -32.3330 O   0  0  0  0  0  0  0  0  0  0  0  0
   -6.7200   22.9530  -31.0290 C   0  0  0  0  0  0  0  0  0  0  0  0
   -3.8230   23.0270  -28.2350 C   0  0  0  0  0  0  0  0  0  0  0  0
   -3.7270   24.1670  -27.2180 C   0  0  0  0  0  0  0  0  0  0  0  0
   -1.8160   26.7260  -25.9310 N   0  0  0  0  0  0  0  0  0  0  0  0
   -1.2370   27.3000  -24.8440 C   0  0  0  0  0  0  0  0  0  0  0  0
   -0.4150   26.6724  -21.7726 H   0  0  0  0  0  0  0  0  0  0  0  0
    1.1151   26.9515  -22.6713 H   0  0  0  0  0  0  0  0  0  0  0  0
   -0.1685   28.2081  -22.6713 H   0  0  0  0  0  0  0  0  0  0  0  0
   -0.0533   24.4755  -23.3392 H   0  0  0  0  0  0  0  0  0  0  0  0
   -1.1141   23.4627  -25.3624 H   0  0  0  0  0  0  0  0  0  0  0  0
   -2.5857   26.1076  -28.9770 H   0  0  0  0  0  0  0  0  0  0  0  0
   -0.9098   25.5885  -28.5738 H   0  0  0  0  0  0  0  0  0  0  0  0
   -1.9117   24.5028  -30.6609 H   0  0  0  0  0  0  0  0  0  0  0  0
   -1.3114   23.3571  -29.4136 H   0  0  0  0  0  0  0  0  0  0  0  0
   -3.8290   21.1416  -31.2078 H   0  0  0  0  0  0  0  0  0  0  0  0
   -5.4515   19.3609  -31.8152 H   0  0  0  0  0  0  0  0  0  0  0  0
   -7.0070   17.3387  -31.5655 H   0  0  0  0  0  0  0  0  0  0  0  0
   -7.9823   17.1900  -33.0666 H   0  0  0  0  0  0  0  0  0  0  0  0
   -6.4778   18.1713  -33.0666 H   0  0  0  0  0  0  0  0  0  0  0  0
   -7.0768   23.9656  -30.7895 H   0  0  0  0  0  0  0  0  0  0  0  0
   -4.8617   22.6688  -28.2886 H   0  0  0  0  0  0  0  0  0  0  0  0
   -3.1678   22.1998  -27.9244 H   0  0  0  0  0  0  0  0  0  0  0  0
   -4.5176   24.9039  -27.4227 H   0  0  0  0  0  0  0  0  0  0  0  0
   -3.8498   23.7556  -26.2053 H   0  0  0  0  0  0  0  0  0  0  0  0
   -1.2863   28.3905  -24.7083 H   0  0  0  0  0  0  0  0  0  0  0  0
  1  2  1  0
  2  3  2  0
  3  4  1  0
  4  5  2  0
  5  6  1  0
  6  7  1  0
  7  8  1  0
  8  9  1  0
  9 10  1  0
 10 11  2  0
 10 12  1  0
 12 13  2  0
 13 14  1  0
 14 15  2  0
 15 16  1  0
 16 17  1  0
 16 18  2  0
 16 19  2  0
 15 20  1  0
 20 21  1  0
 21 22  2  0
 21 23  1  0
 20 24  2  0
  9 25  1  0
 25 26  1  0
  5 27  1  0
 27 28  2  0
 28  2  1  0
 26  6  1  0
 24 12  1  0
  1 29  1  0
  1 30  1  0
  1 31  1  0
  3 32  1  0
  4 33  1  0
  7 34  1  0
  7 35  1  0
  8 36  1  0
  8 37  1  0
 13 38  1  0
 14 39  1  0
 17 40  1  0
 17 41  1  0
 17 42  1  0
 24 43  1  0
 25 44  1  0
 25 45  1  0
 26 46  1  0
 26 47  1  0
 28 48  1  0
M  CHG  2  21   1  23  -1
M  END
>  <UniqueID>  (20) 
19

>  <SMILES>  (20) 
Cc1ccc(N2CCN(C(=O)c3ccc(S(C)(=O)=O)c([N+](=O)[O-])c3)CC2)nc1

>  <Energy>  (20) 
61.13492377033729

>  <Genealogy>  (20) 
Cc1ccc(N2CCN(C(=O)c3ccc(S(C)(=O)=O)c([N+](=O)[O-])c3)CC2)nc1 (3D coordinates assigned)
Cc1ccc(N2CCN(C(=O)c3ccc(S(C)(=O)=O)c([N+](=O)[O-])c3)CC2)nc1 (nonaromatic ring conformer: 61.13492377033729 kcal/mol)

>  <smiles>  (20) 
Cc1ccc(N2CCN(C(=O)c3ccc(S(C)(=O)=O)c([N+](=O)[O-])c3)CC2)nc1

>  <score_type>  (20) 
oracle

>  <origin>  (20) 
adgpu

>  <m_score__min__energy>  (20) 
-9.0399999999999991

>  <m_primary>  (20) 
energy

$$$$
20:0
     RDKit          3D

 51 54  0  0  0  0  0  0  0  0999 V2000
   -2.8900   25.2970  -29.7240 O   0  0  0  0  0  0  0  0  0  0  0  0
   -4.0650   24.5570  -29.7750 C   0  0  0  0  0  0  0  0  0  0  0  0
   -5.3030   25.2010  -29.6910 C   0  0  0  0  0  0  0  0  0  0  0  0
   -6.4860   24.4570  -29.7410 C   0  0  0  0  0  0  0  0  0  0  0  0
   -6.4390   23.0580  -29.8730 C   0  0  0  0  0  0  0  0  0  0  0  0
   -7.7140   22.2450  -29.9210 C   0  0  0  0  0  0  0  0  0  0  0  0
   -8.3820   22.3370  -31.2460 N   0  0  0  0  0  0  0  0  0  0  0  0
   -9.3450   21.2300  -31.4410 C   0  0  0  0  0  0  0  0  0  0  0  0
   -8.6380   19.8670  -31.4760 C   0  0  0  0  0  0  0  0  0  0  0  0
   -7.3930   19.9360  -32.2500 N   0  0  0  0  0  0  0  0  0  0  0  0
   -6.5230   18.7850  -32.2930 C   0  0  0  0  0  0  0  0  0  0  0  0
   -6.5570   17.8650  -31.2900 N   0  0  0  0  0  0  0  0  0  0  0  0
   -5.7480   16.7740  -31.3030 C   0  0  0  0  0  0  0  0  0  0  0  0
   -4.8620   16.5730  -32.3670 C   0  0  0  0  0  0  0  0  0  0  0  0
   -3.9270   15.3960  -32.3840 C   0  0  0  0  0  0  0  0  0  0  0  0
   -4.7100   14.1100  -32.3790 C   0  0  0  0  0  0  0  0  0  0  0  0
   -5.4200   13.7070  -33.5220 C   0  0  0  0  0  0  0  0  0  0  0  0
   -6.1170   12.4950  -33.5270 C   0  0  0  0  0  0  0  0  0  0  0  0
   -6.1040   11.6740  -32.3960 C   0  0  0  0  0  0  0  0  0  0  0  0
   -5.3900   12.0630  -31.2590 C   0  0  0  0  0  0  0  0  0  0  0  0
   -4.6910   13.2740  -31.2490 C   0  0  0  0  0  0  0  0  0  0  0  0
   -4.8310   17.5330  -33.3840 C   0  0  0  0  0  0  0  0  0  0  0  0
   -5.6570   18.6080  -33.3290 N   0  0  0  0  0  0  0  0  0  0  0  0
   -7.1600   21.0980  -33.1180 C   0  0  0  0  0  0  0  0  0  0  0  0
   -7.4020   22.4270  -32.3670 C   0  0  0  0  0  0  0  0  0  0  0  0
   -5.1910   22.4190  -29.9610 C   0  0  0  0  0  0  0  0  0  0  0  0
   -4.0100   23.1660  -29.9100 C   0  0  0  0  0  0  0  0  0  0  0  0
   -5.3466   26.2950  -29.5854 H   0  0  0  0  0  0  0  0  0  0  0  0
   -7.4577   24.9686  -29.6768 H   0  0  0  0  0  0  0  0  0  0  0  0
   -7.4716   21.1915  -29.7176 H   0  0  0  0  0  0  0  0  0  0  0  0
   -8.4030   22.6474  -29.1638 H   0  0  0  0  0  0  0  0  0  0  0  0
   -8.9540   23.2150  -31.2570 H   0  0  0  0  0  0  0  0  0  0  0  0
  -10.0686   21.2359  -30.6125 H   0  0  0  0  0  0  0  0  0  0  0  0
   -9.8520   21.3801  -32.4056 H   0  0  0  0  0  0  0  0  0  0  0  0
   -8.4042   19.5573  -30.4467 H   0  0  0  0  0  0  0  0  0  0  0  0
   -9.3078   19.1388  -31.9568 H   0  0  0  0  0  0  0  0  0  0  0  0
   -5.7894   16.0486  -30.4771 H   0  0  0  0  0  0  0  0  0  0  0  0
   -3.3049   15.4392  -33.2902 H   0  0  0  0  0  0  0  0  0  0  0  0
   -3.2891   15.4313  -31.4886 H   0  0  0  0  0  0  0  0  0  0  0  0
   -5.4277   14.3473  -34.4164 H   0  0  0  0  0  0  0  0  0  0  0  0
   -6.6766   12.1871  -34.4226 H   0  0  0  0  0  0  0  0  0  0  0  0
   -6.6554   10.7222  -32.4006 H   0  0  0  0  0  0  0  0  0  0  0  0
   -5.3780   11.4150  -30.3702 H   0  0  0  0  0  0  0  0  0  0  0  0
   -4.1248   13.5733  -30.3546 H   0  0  0  0  0  0  0  0  0  0  0  0
   -4.1364   17.4163  -34.2290 H   0  0  0  0  0  0  0  0  0  0  0  0
   -6.1198   21.0740  -33.4750 H   0  0  0  0  0  0  0  0  0  0  0  0
   -7.8657   21.0453  -33.9601 H   0  0  0  0  0  0  0  0  0  0  0  0
   -6.4407   22.7687  -31.9558 H   0  0  0  0  0  0  0  0  0  0  0  0
   -7.8304   23.1261  -33.1003 H   0  0  0  0  0  0  0  0  0  0  0  0
   -5.1426   21.3255  -30.0706 H   0  0  0  0  0  0  0  0  0  0  0  0
   -3.0362   22.6588  -29.9762 H   0  0  0  0  0  0  0  0  0  0  0  0
  1  2  1  0
  2  3  2  0
  3  4  1  0
  4  5  2  0
  5  6  1  0
  6  7  1  0
  7  8  1  0
  8  9  1  0
  9 10  1  0
 10 11  1  0
 11 12  2  0
 12 13  1  0
 13 14  2  0
 14 15  1  0
 15 16  1  0
 16 17  2  0
 17 18  1  0
 18 19  2  0
 19 20  1  0
 20 21  2  0
 14 22  1  0
 22 23  2  0
 10 24  1  0
 24 25  1  0
  5 26  1  0
 26 27  2  0
 27  2  1  0
 25  7  1  0
 23 11  1  0
 21 16  1  0
  3 28  1  0
  4 29  1  0
  6 30  1  0
  6 31  1  0
  7 32  1  0
  8 33  1  0
  8 34  1  0
  9 35  1  0
  9 36  1  0
 13 37  1  0
 15 38  1  0
 15 39  1  0
 17 40  1  0
 18 41  1  0
 19 42  1  0
 20 43  1  0
 21 44  1  0
 22 45  1  0
 24 46  1  0
 24 47  1  0
 25 48  1  0
 25 49  1  0
 26 50  1  0
 27 51  1  0
M  CHG  2   1  -1   7   1
M  END
>  <UniqueID>  (21) 
20

>  <SMILES>  (21) 
[O-]c1ccc(C[NH+]2CCN(c3ncc(Cc4ccccc4)cn3)CC2)cc1

>  <Energy>  (21) 
63.77228604792875

>  <Genealogy>  (21) 
[O-]c1ccc(C[NH+]2CCN(c3ncc(Cc4ccccc4)cn3)CC2)cc1 (protonated)
[O-]c1ccc(C[NH+]2CCN(c3ncc(Cc4ccccc4)cn3)CC2)cc1 (3D coordinates assigned)
[O-]c1ccc(C[NH+]2CCN(c3ncc(Cc4ccccc4)cn3)CC2)cc1 (nonaromatic ring conformer: 63.77228604792875 kcal/mol)

>  <smiles>  (21) 
Oc1ccc(CN2CCN(c3ncc(Cc4ccccc4)cn3)CC2)cc1

>  <score_type>  (21) 
oracle

>  <origin>  (21) 
adgpu

>  <m_score__min__energy>  (21) 
-10.17

>  <m_primary>  (21) 
energy

$$$$
21:0
     RDKit          3D

 45 47  0  0  0  0  0  0  0  0999 V2000
   -6.7730   16.1430  -34.2270 C   0  0  0  0  0  0  0  0  0  0  0  0
   -6.4140   17.3580  -33.4250 C   0  0  0  0  0  0  0  0  0  0  0  0
   -6.7600   17.4300  -32.0690 C   0  0  0  0  0  0  0  0  0  0  0  0
   -6.3390   18.5130  -31.2920 C   0  0  0  0  0  0  0  0  0  0  0  0
   -5.5560   19.5210  -31.8590 C   0  0  0  0  0  0  0  0  0  0  0  0
   -5.1990   19.4610  -33.2200 C   0  0  0  0  0  0  0  0  0  0  0  0
   -4.4010   20.4390  -33.8380 O   0  0  0  0  0  0  0  0  0  0  0  0
   -3.0600   20.7630  -33.4660 C   0  0  0  0  0  0  0  0  0  0  0  0
   -3.0030   21.3880  -32.1070 C   0  0  0  0  0  0  0  0  0  0  0  0
   -2.7050   20.7220  -30.9370 C   0  0  0  0  0  0  0  0  0  0  0  0
   -2.7680   21.6730  -29.9410 C   0  0  0  0  0  0  0  0  0  0  0  0
   -3.1040   22.8590  -30.5680 C   0  0  0  0  0  0  0  0  0  0  0  0
   -3.2940   24.1580  -29.8920 C   0  0  0  0  0  0  0  0  0  0  0  0
   -2.9590   24.2730  -28.6840 O   0  0  0  0  0  0  0  0  0  0  0  0
   -3.8510   25.2990  -30.5570 N   0  0  0  0  0  0  0  0  0  0  0  0
   -5.2700   25.6310  -30.6390 C   0  0  0  0  0  0  0  0  0  0  0  0
   -6.0620   24.6900  -29.7360 C   0  0  0  0  0  0  0  0  0  0  0  0
   -6.7250   23.6060  -30.5400 C   0  0  0  0  0  0  0  0  0  0  0  0
   -6.4600   23.4850  -31.9150 C   0  0  0  0  0  0  0  0  0  0  0  0
   -7.0760   22.4800  -32.6660 C   0  0  0  0  0  0  0  0  0  0  0  0
   -7.9610   21.5920  -32.0510 C   0  0  0  0  0  0  0  0  0  0  0  0
   -8.2140   21.6940  -30.6800 C   0  0  0  0  0  0  0  0  0  0  0  0
   -7.5930   22.6910  -29.9240 C   0  0  0  0  0  0  0  0  0  0  0  0
   -3.2340   22.6560  -31.8590 O   0  0  0  0  0  0  0  0  0  0  0  0
   -5.6430   18.3830  -33.9960 C   0  0  0  0  0  0  0  0  0  0  0  0
   -7.0180   15.3139  -33.5468 H   0  0  0  0  0  0  0  0  0  0  0  0
   -7.6435   16.3664  -34.8613 H   0  0  0  0  0  0  0  0  0  0  0  0
   -5.9209   15.8574  -34.8613 H   0  0  0  0  0  0  0  0  0  0  0  0
   -7.3649   16.6316  -31.6145 H   0  0  0  0  0  0  0  0  0  0  0  0
   -6.6251   18.5715  -30.2315 H   0  0  0  0  0  0  0  0  0  0  0  0
   -5.2169   20.3649  -31.2402 H   0  0  0  0  0  0  0  0  0  0  0  0
   -2.4581   19.8423  -33.4615 H   0  0  0  0  0  0  0  0  0  0  0  0
   -2.6649   21.4859  -34.1950 H   0  0  0  0  0  0  0  0  0  0  0  0
   -2.4667   19.6543  -30.8223 H   0  0  0  0  0  0  0  0  0  0  0  0
   -2.5878   21.5198  -28.8667 H   0  0  0  0  0  0  0  0  0  0  0  0
   -5.4236   26.6699  -30.3118 H   0  0  0  0  0  0  0  0  0  0  0  0
   -5.6144   25.5208  -31.6779 H   0  0  0  0  0  0  0  0  0  0  0  0
   -5.3785   24.2306  -29.0068 H   0  0  0  0  0  0  0  0  0  0  0  0
   -6.8407   25.2709  -29.2200 H   0  0  0  0  0  0  0  0  0  0  0  0
   -5.7647   24.1844  -32.4022 H   0  0  0  0  0  0  0  0  0  0  0  0
   -6.8637   22.3885  -33.7414 H   0  0  0  0  0  0  0  0  0  0  0  0
   -8.4592   20.8120  -32.6455 H   0  0  0  0  0  0  0  0  0  0  0  0
   -8.9038   20.9874  -30.1953 H   0  0  0  0  0  0  0  0  0  0  0  0
   -7.7847   22.7592  -28.8430 H   0  0  0  0  0  0  0  0  0  0  0  0
   -5.3849   18.3389  -35.0644 H   0  0  0  0  0  0  0  0  0  0  0  0
  1  2  1  0
  2  3  2  0
  3  4  1  0
  4  5  2  0
  5  6  1  0
  6  7  1  0
  7  8  1  0
  8  9  1  0
  9 10  2  0
 10 11  1  0
 11 12  2  0
 12 13  1  0
 13 14  2  0
 13 15  1  0
 15 16  1  0
 16 17  1  0
 17 18  1  0
 18 19  2  0
 19 20  1  0
 20 21  2  0
 21 22  1  0
 22 23  2  0
 12 24  1  0
  6 25  2  0
 25  2  1  0
 24  9  1  0
 23 18  1  0
  1 26  1  0
  1 27  1  0
  1 28  1  0
  3 29  1  0
  4 30  1  0
  5 31  1  0
  8 32  1  0
  8 33  1  0
 10 34  1  0
 11 35  1  0
 16 36  1  0
 16 37  1  0
 17 38  1  0
 17 39  1  0
 19 40  1  0
 20 41  1  0
 21 42  1  0
 22 43  1  0
 23 44  1  0
 25 45  1  0
M  CHG  1  15  -1
M  END
>  <UniqueID>  (22) 
21

>  <SMILES>  (22) 
Cc1cccc(OCc2ccc(C(=O)[N-]CCc3ccccc3)o2)c1

>  <Energy>  (22) 
63.03887300720983

>  <Genealogy>  (22) 
Cc1cccc(OCc2ccc(C(=O)[N-]CCc3ccccc3)o2)c1 (protonated)
Cc1cccc(OCc2ccc(C(=O)[N-]CCc3ccccc3)o2)c1 (3D coordinates assigned)
Cc1cccc(OCc2ccc(C(=O)[N-]CCc3ccccc3)o2)c1 (optimized conformer: 63.03887300720983 kcal/mol)

>  <smiles>  (22) 
Cc1cccc(OCc2ccc(C(=O)NCCc3ccccc3)o2)c1

>  <score_type>  (22) 
oracle

>  <origin>  (22) 
adgpu

>  <m_score__min__energy>  (22) 
-9.9100000000000001

>  <m_primary>  (22) 
energy

$$$$
22:0
     RDKit          3D

 45 47  0  0  0  0  0  0  0  0999 V2000
   -9.1296   21.5516  -30.0440 H   0  0  0  0  0  0  0  0  0  0  0  0
   -8.2000   21.8690  -30.5390 C   0  0  0  0  0  0  0  0  0  0  0  0
   -7.3840   22.8320  -29.9360 C   0  0  0  0  0  0  0  0  0  0  0  0
   -7.6798   23.2785  -28.9752 H   0  0  0  0  0  0  0  0  0  0  0  0
   -6.1900   23.2290  -30.5540 C   0  0  0  0  0  0  0  0  0  0  0  0
   -5.1950   24.5010  -29.8520 S   0  0  0  0  0  0  0  0  0  0  0  0
   -6.0760   25.4380  -29.0750 O   0  0  0  0  0  0  0  0  0  0  0  0
   -4.4820   25.2720  -30.9280 O   0  0  0  0  0  0  0  0  0  0  0  0
   -4.0210   23.8010  -28.7870 N   0  0  0  0  0  0  0  0  0  0  0  0
   -2.8140   24.2650  -28.6810 C   0  0  0  0  0  0  0  0  0  0  0  0
   -2.3440   25.2950  -29.3460 O   0  0  0  0  0  0  0  0  0  0  0  0
   -1.0940   25.5040  -29.0470 N   0  0  0  0  0  0  0  0  0  0  0  0
   -0.7390   24.5620  -28.1470 C   0  0  0  0  0  0  0  0  0  0  0  0
    0.6240   24.4530  -27.5460 C   0  0  0  0  0  0  0  0  0  0  0  0
    0.5426   24.4595  -26.4490 H   0  0  0  0  0  0  0  0  0  0  0  0
    1.0950   23.5143  -27.8732 H   0  0  0  0  0  0  0  0  0  0  0  0
    1.2382   25.3049  -27.8732 H   0  0  0  0  0  0  0  0  0  0  0  0
   -1.8270   23.7550  -27.8690 C   0  0  0  0  0  0  0  0  0  0  0  0
   -1.8800   22.5330  -27.0060 C   0  0  0  0  0  0  0  0  0  0  0  0
   -1.8671   22.8310  -25.9472 H   0  0  0  0  0  0  0  0  0  0  0  0
   -2.8032   21.9739  -27.2183 H   0  0  0  0  0  0  0  0  0  0  0  0
   -1.0086   21.8961  -27.2183 H   0  0  0  0  0  0  0  0  0  0  0  0
   -5.8010   22.6310  -31.7590 C   0  0  0  0  0  0  0  0  0  0  0  0
   -4.8505   22.9185  -32.2322 H   0  0  0  0  0  0  0  0  0  0  0  0
   -6.6170   21.6700  -32.3620 C   0  0  0  0  0  0  0  0  0  0  0  0
   -6.3018   21.1960  -33.3033 H   0  0  0  0  0  0  0  0  0  0  0  0
   -7.8390   21.3070  -31.7700 C   0  0  0  0  0  0  0  0  0  0  0  0
   -8.7210   20.3620  -32.3910 N   0  0  0  0  0  0  0  0  0  0  0  0
   -8.5330   18.9400  -32.4260 C   0  0  0  0  0  0  0  0  0  0  0  0
   -9.4620   18.1990  -32.0060 O   0  0  0  0  0  0  0  0  0  0  0  0
   -7.3030   18.3220  -32.9780 C   0  0  0  0  0  0  0  0  0  0  0  0
   -6.8800   17.0520  -32.5500 C   0  0  0  0  0  0  0  0  0  0  0  0
   -7.4530   16.5164  -31.7787 H   0  0  0  0  0  0  0  0  0  0  0  0
   -5.7360   16.4650  -33.0980 C   0  0  0  0  0  0  0  0  0  0  0  0
   -5.4219   15.4643  -32.7664 H   0  0  0  0  0  0  0  0  0  0  0  0
   -4.9840   17.1480  -34.0720 C   0  0  0  0  0  0  0  0  0  0  0  0
   -3.8340   16.5980  -34.6570 O   0  0  0  0  0  0  0  0  0  0  0  0
   -3.3790   15.2670  -34.4350 C   0  0  0  0  0  0  0  0  0  0  0  0
   -3.3141   15.0773  -33.3534 H   0  0  0  0  0  0  0  0  0  0  0  0
   -4.0856   14.5573  -34.8900 H   0  0  0  0  0  0  0  0  0  0  0  0
   -2.3858   15.1383  -34.8900 H   0  0  0  0  0  0  0  0  0  0  0  0
   -5.3900   18.4240  -34.4750 C   0  0  0  0  0  0  0  0  0  0  0  0
   -4.8004   18.9718  -35.2248 H   0  0  0  0  0  0  0  0  0  0  0  0
   -6.5380   19.0100  -33.9340 C   0  0  0  0  0  0  0  0  0  0  0  0
   -6.8439   20.0155  -34.2588 H   0  0  0  0  0  0  0  0  0  0  0  0
  1  2  1  0
  2  3  2  0
  3  4  1  0
  3  5  1  0
  5  6  1  0
  6  7  2  0
  6  8  2  0
  6  9  1  0
  9 10  2  0
 10 11  1  0
 11 12  1  0
 12 13  1  0
 13 14  1  0
 14 15  1  0
 14 16  1  0
 14 17  1  0
 13 18  2  0
 18 19  1  0
 19 20  1  0
 19 21  1  0
 19 22  1  0
  5 23  2  0
 23 24  1  0
 23 25  1  0
 25 26  1  0
 25 27  2  0
 27 28  1  0
 28 29  1  0
 29 30  2  0
 29 31  1  0
 31 32  2  0
 32 33  1  0
 32 34  1  0
 34 35  1  0
 34 36  2  0
 36 37  1  0
 37 38  1  0
 38 39  1  0
 38 40  1  0
 38 41  1  0
 36 42  1  0
 42 43  1  0
 42 44  2  0
 44 45  1  0
 27  2  1  0
 44 31  1  0
 18 10  1  0
M  CHG  2  12  -1  28  -1
M  END
>  <UniqueID>  (23) 
22

>  <SMILES>  (23) 
COc1ccc(C(=O)[N-]c2ccc(S(=O)(=O)/N=c3\o[n-]c(C)c3C)cc2)cc1

>  <Energy>  (23) 
84.04554902014742

>  <Genealogy>  (23) 
COc1ccc(C(=O)[N-]c2ccc(S(=O)(=O)N=c3o[n-]c(C)c3C)cc2)cc1 (protonated)
COc1ccc(C(=O)[N-]c2ccc(S(=O)(=O)/N=c3\o[n-]c(C)c3C)cc2)cc1 (cis-trans isomerization)
COc1ccc(C(=O)[N-]c2ccc(S(=O)(=O)/N=c3\o[n-]c(C)c3C)cc2)cc1 (3D coordinates assigned)
COc1ccc(C(=O)[N-]c2ccc(S(=O)(=O)/N=c3\o[n-]c(C)c3C)cc2)cc1 (optimized conformer: 84.04554902014742 kcal/mol)

>  <smiles>  (23) 
COc1ccc(C(=O)Nc2ccc(S(=O)(=O)N=c3o[nH]c(C)c3C)cc2)cc1

>  <score_type>  (23) 
oracle

>  <origin>  (23) 
adgpu

>  <m_score__min__energy>  (23) 
-12.619999999999999

>  <m_primary>  (23) 
energy

$$$$
23:0
     RDKit          3D

 48 51  0  0  0  0  0  0  0  0999 V2000
   -5.7430   18.0700  -35.4810 C   0  0  0  0  0  0  0  0  0  0  0  0
   -5.1540   18.5940  -34.2150 C   0  0  0  0  0  0  0  0  0  0  0  0
   -3.8290   18.6320  -33.9540 N   0  0  0  0  0  0  0  0  0  0  0  0
   -3.6630   19.1160  -32.7290 N   0  0  0  0  0  0  0  0  0  0  0  0
   -2.3720   19.2890  -32.1160 C   0  0  0  0  0  0  0  0  0  0  0  0
   -1.2840   18.5120  -32.5520 C   0  0  0  0  0  0  0  0  0  0  0  0
   -0.0260   18.6630  -31.9650 C   0  0  0  0  0  0  0  0  0  0  0  0
    0.1660   19.5970  -30.9440 C   0  0  0  0  0  0  0  0  0  0  0  0
   -0.9020   20.3970  -30.5140 C   0  0  0  0  0  0  0  0  0  0  0  0
   -0.6740   21.5790  -29.2300 S   0  0  0  0  0  0  0  0  0  0  0  0
   -0.5820   23.1620  -29.9180 N   0  0  0  0  0  0  0  0  0  0  0  0
    0.5970   21.2740  -28.4860 O   0  0  0  0  0  0  0  0  0  0  0  0
   -1.8240   21.5220  -28.2640 O   0  0  0  0  0  0  0  0  0  0  0  0
   -2.1660   20.2410  -31.1010 C   0  0  0  0  0  0  0  0  0  0  0  0
   -4.8780   19.3700  -32.1930 C   0  0  0  0  0  0  0  0  0  0  0  0
   -5.0750   19.8480  -31.0450 O   0  0  0  0  0  0  0  0  0  0  0  0
   -5.8530   19.0180  -33.1020 C   0  0  0  0  0  0  0  0  0  0  0  0
   -7.2760   19.1800  -32.9970 N   0  0  0  0  0  0  0  0  0  0  0  0
   -7.8740   20.2220  -32.5590 N   0  0  0  0  0  0  0  0  0  0  0  0
   -7.2400   21.3540  -31.9420 C   0  0  0  0  0  0  0  0  0  0  0  0
   -6.2070   22.0540  -32.5880 C   0  0  0  0  0  0  0  0  0  0  0  0
   -5.5930   23.1400  -31.9580 C   0  0  0  0  0  0  0  0  0  0  0  0
   -5.9860   23.5210  -30.6680 C   0  0  0  0  0  0  0  0  0  0  0  0
   -5.1940   24.8850  -29.8870 S   0  0  0  0  0  0  0  0  0  0  0  0
   -6.1960   25.9410  -29.5080 O   0  0  0  0  0  0  0  0  0  0  0  0
   -4.1970   25.4830  -30.8400 O   0  0  0  0  0  0  0  0  0  0  0  0
   -4.3680   24.3450  -28.4620 N   0  0  0  0  0  0  0  0  0  0  0  0
   -3.1150   24.5860  -28.2370 C   0  0  0  0  0  0  0  0  0  0  0  0
   -2.3120   25.2740  -29.0780 N   0  0  0  0  0  0  0  0  0  0  0  0
   -1.0670   25.3920  -28.6200 N   0  0  0  0  0  0  0  0  0  0  0  0
   -0.8730   24.8010  -27.4190 C   0  0  0  0  0  0  0  0  0  0  0  0
   -2.2940   24.0840  -26.8600 S   0  0  0  0  0  0  0  0  0  0  0  0
   -6.9880   22.7980  -30.0080 C   0  0  0  0  0  0  0  0  0  0  0  0
   -7.6030   21.7120  -30.6380 C   0  0  0  0  0  0  0  0  0  0  0  0
   -6.5455   17.3560  -35.2440 H   0  0  0  0  0  0  0  0  0  0  0  0
   -6.1559   18.9048  -36.0664 H   0  0  0  0  0  0  0  0  0  0  0  0
   -4.9620   17.5627  -36.0664 H   0  0  0  0  0  0  0  0  0  0  0  0
   -1.4249   17.7802  -33.3611 H   0  0  0  0  0  0  0  0  0  0  0  0
    0.8166   18.0445  -32.3077 H   0  0  0  0  0  0  0  0  0  0  0  0
    1.1561   19.7048  -30.4770 H   0  0  0  0  0  0  0  0  0  0  0  0
    0.0960   23.7080  -29.3400 H   0  0  0  0  0  0  0  0  0  0  0  0
   -1.5170   23.6070  -29.7880 H   0  0  0  0  0  0  0  0  0  0  0  0
   -3.0042   20.8689  -30.7646 H   0  0  0  0  0  0  0  0  0  0  0  0
   -5.8807   21.7464  -33.5924 H   0  0  0  0  0  0  0  0  0  0  0  0
   -4.7988   23.6974  -32.4763 H   0  0  0  0  0  0  0  0  0  0  0  0
    0.0848   24.7894  -26.8782 H   0  0  0  0  0  0  0  0  0  0  0  0
   -7.2919   23.0857  -28.9907 H   0  0  0  0  0  0  0  0  0  0  0  0
   -8.3754   21.1363  -30.1069 H   0  0  0  0  0  0  0  0  0  0  0  0
  1  2  1  0
  2  3  1  0
  3  4  1  0
  4  5  1  0
  5  6  2  0
  6  7  1  0
  7  8  2  0
  8  9  1  0
  9 10  1  0
 10 11  1  0
 10 12  2  0
 10 13  2  0
  9 14  2  0
  4 15  1  0
 15 16  2  0
 15 17  1  0
 17 18  1  0
 18 19  2  3
 19 20  1  0
 20 21  2  0
 21 22  1  0
 22 23  2  0
 23 24  1  0
 24 25  2  0
 24 26  2  0
 24 27  1  0
 27 28  2  3
 28 29  1  0
 29 30  1  0
 30 31  2  0
 31 32  1  0
 23 33  1  0
 33 34  2  0
 17  2  2  0
 34 20  1  0
 14  5  1  0
 32 28  1  0
  1 35  1  0
  1 36  1  0
  1 37  1  0
  6 38  1  0
  7 39  1  0
  8 40  1  0
 11 41  1  0
 11 42  1  0
 14 43  1  0
 21 44  1  0
 22 45  1  0
 31 46  1  0
 33 47  1  0
 34 48  1  0
M  CHG  2   3  -1  29  -1
M  END
>  <UniqueID>  (24) 
23

>  <SMILES>  (24) 
Cc1[n-]n(-c2cccc(S(N)(=O)=O)c2)c(=O)c1N=Nc1ccc(S(=O)(=O)N=c2[n-]ncs2)cc1

>  <Energy>  (24) 
137.62821867930492

>  <Genealogy>  (24) 
Cc1[n-]n(-c2cccc(S(N)(=O)=O)c2)c(=O)c1N=Nc1ccc(S(=O)(=O)N=c2[n-]ncs2)cc1 (protonated)
Cc1[n-]n(-c2cccc(S(N)(=O)=O)c2)c(=O)c1N=Nc1ccc(S(=O)(=O)N=c2[n-]ncs2)cc1 (3D coordinates assigned)
Cc1[n-]n(-c2cccc(S(N)(=O)=O)c2)c(=O)c1N=Nc1ccc(S(=O)(=O)N=c2[n-]ncs2)cc1 (optimized conformer: 137.62821867930492 kcal/mol)

>  <smiles>  (24) 
Cc1[nH]n(-c2cccc(S(N)(=O)=O)c2)c(=O)c1N=Nc1ccc(S(=O)(=O)N=c2[nH]ncs2)cc1

>  <score_type>  (24) 
oracle

>  <origin>  (24) 
adgpu

>  <m_score__min__energy>  (24) 
-12.06

>  <m_primary>  (24) 
energy

$$$$
24:0
     RDKit          3D

 40 41  0  0  0  0  0  0  0  0999 V2000
   -8.5540   23.0570  -31.9300 C   0  0  0  0  0  0  0  0  0  0  0  0
   -7.0740   22.9070  -31.7710 C   0  0  0  0  0  0  0  0  0  0  0  0
   -6.2980   23.9760  -31.3210 C   0  0  0  0  0  0  0  0  0  0  0  0
   -4.9150   23.8330  -31.2260 C   0  0  0  0  0  0  0  0  0  0  0  0
   -4.2260   24.8100  -30.8250 O   0  0  0  0  0  0  0  0  0  0  0  0
   -4.3000   22.6090  -31.5730 C   0  0  0  0  0  0  0  0  0  0  0  0
   -2.7880   22.4730  -31.5010 C   0  0  0  0  0  0  0  0  0  0  0  0
   -2.3270   21.5870  -30.3330 C   0  0  0  0  0  0  0  0  0  0  0  0
   -2.7700   22.1210  -29.0020 C   0  0  0  0  0  0  0  0  0  0  0  0
   -3.1230   21.3170  -28.0970 O   0  0  0  0  0  0  0  0  0  0  0  0
   -2.8140   23.5370  -28.7760 N   0  0  0  0  0  0  0  0  0  0  0  0
   -3.2380   24.1210  -27.5070 C   0  0  0  0  0  0  0  0  0  0  0  0
   -2.2310   25.1380  -27.0420 C   0  0  0  0  0  0  0  0  0  0  0  0
   -2.0690   25.3890  -25.6700 C   0  0  0  0  0  0  0  0  0  0  0  0
   -1.1410   26.3370  -25.2300 C   0  0  0  0  0  0  0  0  0  0  0  0
   -0.3690   27.0440  -26.1550 C   0  0  0  0  0  0  0  0  0  0  0  0
   -0.5330   26.8140  -27.5230 C   0  0  0  0  0  0  0  0  0  0  0  0
   -1.4670   25.8720  -27.9720 C   0  0  0  0  0  0  0  0  0  0  0  0
   -1.6290   25.6730  -29.3390 O   0  0  0  0  0  0  0  0  0  0  0  0
   -5.1290   21.5470  -32.0150 C   0  0  0  0  0  0  0  0  0  0  0  0
   -4.5830   20.1940  -32.3700 C   0  0  0  0  0  0  0  0  0  0  0  0
   -6.4740   21.7350  -32.1050 N   0  0  0  0  0  0  0  0  0  0  0  0
   -9.0264   23.1049  -30.9378 H   0  0  0  0  0  0  0  0  0  0  0  0
   -8.7713   23.9818  -32.4846 H   0  0  0  0  0  0  0  0  0  0  0  0
   -8.9525   22.1946  -32.4846 H   0  0  0  0  0  0  0  0  0  0  0  0
   -6.7757   24.9270  -31.0426 H   0  0  0  0  0  0  0  0  0  0  0  0
   -2.4294   22.0298  -32.4417 H   0  0  0  0  0  0  0  0  0  0  0  0
   -2.3714   23.4782  -31.3400 H   0  0  0  0  0  0  0  0  0  0  0  0
   -2.7466   20.5790  -30.4669 H   0  0  0  0  0  0  0  0  0  0  0  0
   -1.2272   21.5691  -30.3386 H   0  0  0  0  0  0  0  0  0  0  0  0
   -2.5910   24.1840  -29.5660 H   0  0  0  0  0  0  0  0  0  0  0  0
   -4.2141   24.6104  -27.6401 H   0  0  0  0  0  0  0  0  0  0  0  0
   -3.3179   23.3237  -26.7533 H   0  0  0  0  0  0  0  0  0  0  0  0
   -2.6758   24.8365  -24.9375 H   0  0  0  0  0  0  0  0  0  0  0  0
   -1.0183   26.5267  -24.1534 H   0  0  0  0  0  0  0  0  0  0  0  0
    0.3682   27.7820  -25.8060 H   0  0  0  0  0  0  0  0  0  0  0  0
    0.0733   27.3745  -28.2498 H   0  0  0  0  0  0  0  0  0  0  0  0
   -4.3579   19.6362  -31.4490 H   0  0  0  0  0  0  0  0  0  0  0  0
   -5.3284   19.6412  -32.9605 H   0  0  0  0  0  0  0  0  0  0  0  0
   -3.6627   20.3134  -32.9605 H   0  0  0  0  0  0  0  0  0  0  0  0
  1  2  1  0
  2  3  2  0
  3  4  1  0
  4  5  2  0
  4  6  1  0
  6  7  1  0
  7  8  1  0
  8  9  1  0
  9 10  2  0
  9 11  1  0
 11 12  1  0
 12 13  1  0
 13 14  2  0
 14 15  1  0
 15 16  2  0
 16 17  1  0
 17 18  2  0
 18 19  1  0
  6 20  2  0
 20 21  1  0
 20 22  1  0
 22  2  1  0
 18 13  1  0
  1 23  1  0
  1 24  1  0
  1 25  1  0
  3 26  1  0
  7 27  1  0
  7 28  1  0
  8 29  1  0
  8 30  1  0
 11 31  1  0
 12 32  1  0
 12 33  1  0
 14 34  1  0
 15 35  1  0
 16 36  1  0
 17 37  1  0
 21 38  1  0
 21 39  1  0
 21 40  1  0
M  CHG  2  19  -1  22  -1
M  END
>  <UniqueID>  (25) 
24

>  <SMILES>  (25) 
Cc1cc(=O)c(CCC(=O)NCc2ccccc2[O-])c(C)[n-]1

>  <Energy>  (25) 
32.04949669614004

>  <Genealogy>  (25) 
Cc1cc(=O)c(CCC(=O)NCc2ccccc2[O-])c(C)[n-]1 (protonated)
Cc1cc(=O)c(CCC(=O)NCc2ccccc2[O-])c(C)[n-]1 (3D coordinates assigned)
Cc1cc(=O)c(CCC(=O)NCc2ccccc2[O-])c(C)[n-]1 (optimized conformer: 32.04949669614004 kcal/mol)

>  <smiles>  (25) 
Cc1cc(=O)c(CCC(=O)NCc2ccccc2O)c(C)[nH]1

>  <score_type>  (25) 
oracle

>  <origin>  (25) 
adgpu

>  <m_score__min__energy>  (25) 
-11.470000000000001

>  <m_primary>  (25) 
energy

$$$$
25:0
     RDKit          3D

 30 31  0  0  0  0  0  0  0  0999 V2000
   -7.9410   19.9640  -33.4570 N   0  0  0  0  0  0  0  0  0  0  0  0
   -8.3650   20.8930  -32.0630 S   0  0  0  0  0  0  0  0  0  0  0  0
   -8.6330   19.9680  -30.9080 O   0  0  0  0  0  0  0  0  0  0  0  0
   -9.6110   21.6830  -32.3460 O   0  0  0  0  0  0  0  0  0  0  0  0
   -7.0450   21.9860  -31.6580 C   0  0  0  0  0  0  0  0  0  0  0  0
   -5.7560   21.7460  -32.1510 C   0  0  0  0  0  0  0  0  0  0  0  0
   -4.7040   22.6040  -31.8180 C   0  0  0  0  0  0  0  0  0  0  0  0
   -4.9280   23.7040  -30.9700 C   0  0  0  0  0  0  0  0  0  0  0  0
   -3.8740   24.6110  -30.6160 N   0  0  0  0  0  0  0  0  0  0  0  0
   -2.7880   24.3390  -29.7190 C   0  0  0  0  0  0  0  0  0  0  0  0
   -2.0590   25.2980  -29.3490 O   0  0  0  0  0  0  0  0  0  0  0  0
   -2.5450   22.9830  -29.1680 C   0  0  0  0  0  0  0  0  0  0  0  0
   -3.2610   22.5370  -28.0420 C   0  0  0  0  0  0  0  0  0  0  0  0
   -3.0330   21.2610  -27.5180 C   0  0  0  0  0  0  0  0  0  0  0  0
   -2.0840   20.4230  -28.1050 C   0  0  0  0  0  0  0  0  0  0  0  0
   -1.3580   20.8580  -29.2160 C   0  0  0  0  0  0  0  0  0  0  0  0
   -1.5810   22.1330  -29.7470 C   0  0  0  0  0  0  0  0  0  0  0  0
   -0.8740   22.5240  -30.8370 F   0  0  0  0  0  0  0  0  0  0  0  0
   -6.2210   23.9490  -30.4940 C   0  0  0  0  0  0  0  0  0  0  0  0
   -7.2730   23.0910  -30.8270 C   0  0  0  0  0  0  0  0  0  0  0  0
   -8.4180   20.4050  -34.2740 H   0  0  0  0  0  0  0  0  0  0  0  0
   -8.3680   19.0180  -33.3350 H   0  0  0  0  0  0  0  0  0  0  0  0
   -5.5710   20.8792  -32.8025 H   0  0  0  0  0  0  0  0  0  0  0  0
   -3.6972   22.4185  -32.2205 H   0  0  0  0  0  0  0  0  0  0  0  0
   -4.0049   23.1964  -27.5709 H   0  0  0  0  0  0  0  0  0  0  0  0
   -3.6024   20.9172  -26.6419 H   0  0  0  0  0  0  0  0  0  0  0  0
   -1.9076   19.4188  -27.6922 H   0  0  0  0  0  0  0  0  0  0  0  0
   -0.6087   20.1962  -29.6749 H   0  0  0  0  0  0  0  0  0  0  0  0
   -6.4108   24.8228  -29.8534 H   0  0  0  0  0  0  0  0  0  0  0  0
   -8.2828   23.2838  -30.4356 H   0  0  0  0  0  0  0  0  0  0  0  0
  1  2  1  0
  2  3  2  0
  2  4  2  0
  2  5  1  0
  5  6  2  0
  6  7  1  0
  7  8  2  0
  8  9  1  0
  9 10  1  0
 10 11  2  0
 10 12  1  0
 12 13  2  0
 13 14  1  0
 14 15  2  0
 15 16  1  0
 16 17  2  0
 17 18  1  0
  8 19  1  0
 19 20  2  0
 20  5  1  0
 17 12  1  0
  1 21  1  0
  1 22  1  0
  6 23  1  0
  7 24  1  0
 13 25  1  0
 14 26  1  0
 15 27  1  0
 16 28  1  0
 19 29  1  0
 20 30  1  0
M  CHG  1   9  -1
M  END
>  <UniqueID>  (26) 
25

>  <SMILES>  (26) 
NS(=O)(=O)c1ccc([N-]C(=O)c2ccccc2F)cc1

>  <Energy>  (26) 
36.880468149968095

>  <Genealogy>  (26) 
NS(=O)(=O)c1ccc([N-]C(=O)c2ccccc2F)cc1 (protonated)
NS(=O)(=O)c1ccc([N-]C(=O)c2ccccc2F)cc1 (3D coordinates assigned)
NS(=O)(=O)c1ccc([N-]C(=O)c2ccccc2F)cc1 (optimized conformer: 36.880468149968095 kcal/mol)

>  <smiles>  (26) 
NS(=O)(=O)c1ccc(NC(=O)c2ccccc2F)cc1

>  <score_type>  (26) 
oracle

>  <origin>  (26) 
adgpu

>  <m_score__min__energy>  (26) 
-8.7899999999999991

>  <m_primary>  (26) 
energy

$$$$
26:0
     RDKit          3D

 48 51  0  0  0  0  0  0  0  0999 V2000
   -1.2400   26.0820  -28.2220 C   0  0  0  0  0  0  0  0  0  0  0  0
   -1.7320   25.3070  -29.3100 O   0  0  0  0  0  0  0  0  0  0  0  0
   -2.8790   24.4980  -29.2580 C   0  0  0  0  0  0  0  0  0  0  0  0
   -3.8830   24.5620  -30.2440 C   0  0  0  0  0  0  0  0  0  0  0  0
   -5.0140   23.7340  -30.1700 C   0  0  0  0  0  0  0  0  0  0  0  0
   -6.0290   23.8300  -31.1850 N   0  0  0  0  0  0  0  0  0  0  0  0
   -6.8280   22.7170  -31.6240 C   0  0  0  0  0  0  0  0  0  0  0  0
   -8.2000   22.7130  -31.3700 C   0  0  0  0  0  0  0  0  0  0  0  0
   -8.9780   21.6220  -31.7410 C   0  0  0  0  0  0  0  0  0  0  0  0
   -8.4230   20.5310  -32.3500 N   0  0  0  0  0  0  0  0  0  0  0  0
   -9.3100   19.4130  -32.7100 C   0  0  0  0  0  0  0  0  0  0  0  0
   -7.0670   20.4930  -32.6120 C   0  0  0  0  0  0  0  0  0  0  0  0
   -6.4640   19.3770  -33.2410 C   0  0  0  0  0  0  0  0  0  0  0  0
   -5.0950   19.3620  -33.5100 C   0  0  0  0  0  0  0  0  0  0  0  0
   -4.3000   20.4510  -33.1670 C   0  0  0  0  0  0  0  0  0  0  0  0
   -4.8650   21.5630  -32.5450 C   0  0  0  0  0  0  0  0  0  0  0  0
   -6.2430   21.5970  -32.2500 C   0  0  0  0  0  0  0  0  0  0  0  0
   -5.1530   22.8580  -29.0800 C   0  0  0  0  0  0  0  0  0  0  0  0
   -4.1610   22.7900  -28.1000 C   0  0  0  0  0  0  0  0  0  0  0  0
   -3.0230   23.5990  -28.1890 C   0  0  0  0  0  0  0  0  0  0  0  0
   -1.7580   23.4740  -26.9200 S   0  0  0  0  0  0  0  0  0  0  0  0
   -1.3640   21.7770  -27.3460 C   0  0  0  0  0  0  0  0  0  0  0  0
   -1.6460   20.7440  -26.4430 C   0  0  0  0  0  0  0  0  0  0  0  0
   -1.3460   19.4190  -26.7780 C   0  0  0  0  0  0  0  0  0  0  0  0
   -0.7600   19.1250  -28.0130 C   0  0  0  0  0  0  0  0  0  0  0  0
   -0.4700   17.8410  -28.3370 F   0  0  0  0  0  0  0  0  0  0  0  0
   -0.4730   20.1560  -28.9140 C   0  0  0  0  0  0  0  0  0  0  0  0
   -0.7720   21.4810  -28.5810 C   0  0  0  0  0  0  0  0  0  0  0  0
   -1.5381   25.6124  -27.2730 H   0  0  0  0  0  0  0  0  0  0  0  0
   -0.1426   26.1348  -28.2761 H   0  0  0  0  0  0  0  0  0  0  0  0
   -1.6591   27.0976  -28.2761 H   0  0  0  0  0  0  0  0  0  0  0  0
   -3.7796   25.2684  -31.0809 H   0  0  0  0  0  0  0  0  0  0  0  0
   -6.1500   24.7430  -31.6800 H   0  0  0  0  0  0  0  0  0  0  0  0
   -8.6679   23.5763  -30.8743 H   0  0  0  0  0  0  0  0  0  0  0  0
  -10.0595   21.6369  -31.5409 H   0  0  0  0  0  0  0  0  0  0  0  0
   -9.6886   18.9358  -31.7941 H   0  0  0  0  0  0  0  0  0  0  0  0
  -10.1557   19.7921  -33.3025 H   0  0  0  0  0  0  0  0  0  0  0  0
   -8.7485   18.6756  -33.3025 H   0  0  0  0  0  0  0  0  0  0  0  0
   -7.0823   18.5114  -33.5210 H   0  0  0  0  0  0  0  0  0  0  0  0
   -4.6421   18.4850  -33.9956 H   0  0  0  0  0  0  0  0  0  0  0  0
   -3.2224   20.4344  -33.3873 H   0  0  0  0  0  0  0  0  0  0  0  0
   -4.2299   22.4218  -32.2820 H   0  0  0  0  0  0  0  0  0  0  0  0
   -6.0475   22.2230  -28.9986 H   0  0  0  0  0  0  0  0  0  0  0  0
   -4.2747   22.0968  -27.2535 H   0  0  0  0  0  0  0  0  0  0  0  0
   -2.1037   20.9746  -25.4697 H   0  0  0  0  0  0  0  0  0  0  0  0
   -1.5713   18.6083  -26.0695 H   0  0  0  0  0  0  0  0  0  0  0  0
   -0.0117   19.9243  -29.8853 H   0  0  0  0  0  0  0  0  0  0  0  0
   -0.5423   22.2911  -29.2889 H   0  0  0  0  0  0  0  0  0  0  0  0
  1  2  1  0
  2  3  1  0
  3  4  2  0
  4  5  1  0
  5  6  1  0
  6  7  1  0
  7  8  2  0
  8  9  1  0
  9 10  2  0
 10 11  1  0
 10 12  1  0
 12 13  2  0
 13 14  1  0
 14 15  2  0
 15 16  1  0
 16 17  2  0
  5 18  2  0
 18 19  1  0
 19 20  2  0
 20 21  1  0
 21 22  1  0
 22 23  2  0
 23 24  1  0
 24 25  2  0
 25 26  1  0
 25 27  1  0
 27 28  2  0
 20  3  1  0
 28 22  1  0
 17  7  1  0
 17 12  1  0
  1 29  1  0
  1 30  1  0
  1 31  1  0
  4 32  1  0
  6 33  1  0
  8 34  1  0
  9 35  1  0
 11 36  1  0
 11 37  1  0
 11 38  1  0
 13 39  1  0
 14 40  1  0
 15 41  1  0
 16 42  1  0
 18 43  1  0
 19 44  1  0
 23 45  1  0
 24 46  1  0
 27 47  1  0
 28 48  1  0
M  CHG  1  10   1
M  END
>  <UniqueID>  (27) 
26

>  <SMILES>  (27) 
COc1cc(Nc2cc[n+](C)c3ccccc23)ccc1Sc1ccc(F)cc1

>  <Energy>  (27) 
61.97080848510684

>  <Genealogy>  (27) 
COc1cc(Nc2cc[n+](C)c3ccccc23)ccc1Sc1ccc(F)cc1 (3D coordinates assigned)
COc1cc(Nc2cc[n+](C)c3ccccc23)ccc1Sc1ccc(F)cc1 (optimized conformer: 61.97080848510684 kcal/mol)

>  <smiles>  (27) 
COc1cc(Nc2cc[n+](C)c3ccccc23)ccc1Sc1ccc(F)cc1

>  <score_type>  (27) 
oracle

>  <origin>  (27) 
adgpu

>  <m_score__min__energy>  (27) 
-8.8499999999999996

>  <m_primary>  (27) 
energy

$$$$
27:0
     RDKit          3D

 54 57  0  0  0  0  0  0  0  0999 V2000
   -7.1840   14.7640  -34.2650 C   0  0  0  0  0  0  0  0  0  0  0  0
   -6.9500   16.1530  -34.0550 O   0  0  0  0  0  0  0  0  0  0  0  0
   -5.6770   16.7290  -33.9170 C   0  0  0  0  0  0  0  0  0  0  0  0
   -4.6010   16.0480  -33.3120 C   0  0  0  0  0  0  0  0  0  0  0  0
   -3.3650   16.6830  -33.1570 C   0  0  0  0  0  0  0  0  0  0  0  0
   -3.1970   18.0040  -33.5860 C   0  0  0  0  0  0  0  0  0  0  0  0
   -1.6770   18.8930  -33.2240 S   0  0  0  0  0  0  0  0  0  0  0  0
   -2.1640   20.4820  -34.0110 C   0  0  0  0  0  0  0  0  0  0  0  0
   -2.7620   21.4520  -33.0260 C   0  0  0  0  0  0  0  0  0  0  0  0
   -4.1290   21.7570  -33.0830 C   0  0  0  0  0  0  0  0  0  0  0  0
   -4.7300   22.5180  -32.0710 C   0  0  0  0  0  0  0  0  0  0  0  0
   -6.2210   22.7100  -32.0580 C   0  0  0  0  0  0  0  0  0  0  0  0
   -6.8970   21.3700  -31.9710 C   0  0  0  0  0  0  0  0  0  0  0  0
   -8.2450   21.2320  -32.3420 C   0  0  0  0  0  0  0  0  0  0  0  0
   -8.8530   19.9730  -32.3340 C   0  0  0  0  0  0  0  0  0  0  0  0
   -8.1170   18.8380  -31.9650 C   0  0  0  0  0  0  0  0  0  0  0  0
   -8.7120   17.5780  -31.9580 O   0  0  0  0  0  0  0  0  0  0  0  0
   -6.7740   18.9700  -31.6020 C   0  0  0  0  0  0  0  0  0  0  0  0
   -6.1640   20.2270  -31.6100 C   0  0  0  0  0  0  0  0  0  0  0  0
   -3.9560   22.9660  -30.9890 C   0  0  0  0  0  0  0  0  0  0  0  0
   -2.5890   22.6560  -30.9120 C   0  0  0  0  0  0  0  0  0  0  0  0
   -1.7910   23.0320  -29.7200 C   0  0  0  0  0  0  0  0  0  0  0  0
   -0.9770   22.0710  -29.0940 C   0  0  0  0  0  0  0  0  0  0  0  0
   -0.2440   22.3980  -27.9490 C   0  0  0  0  0  0  0  0  0  0  0  0
   -0.3190   23.6850  -27.4130 C   0  0  0  0  0  0  0  0  0  0  0  0
    0.4100   24.0080  -26.2750 O   0  0  0  0  0  0  0  0  0  0  0  0
   -1.1300   24.6480  -28.0210 C   0  0  0  0  0  0  0  0  0  0  0  0
   -1.8680   24.3290  -29.1650 C   0  0  0  0  0  0  0  0  0  0  0  0
   -2.6920   25.2990  -29.7280 O   0  0  0  0  0  0  0  0  0  0  0  0
   -1.9940   21.9240  -31.9500 C   0  0  0  0  0  0  0  0  0  0  0  0
   -4.2510   18.6660  -34.2280 C   0  0  0  0  0  0  0  0  0  0  0  0
   -5.4840   18.0320  -34.3910 C   0  0  0  0  0  0  0  0  0  0  0  0
   -7.2697   14.2556  -33.2933 H   0  0  0  0  0  0  0  0  0  0  0  0
   -8.1172   14.6310  -34.8319 H   0  0  0  0  0  0  0  0  0  0  0  0
   -6.3459   14.3326  -34.8319 H   0  0  0  0  0  0  0  0  0  0  0  0
   -4.7342   15.0141  -32.9609 H   0  0  0  0  0  0  0  0  0  0  0  0
   -2.5239   16.1434  -32.6973 H   0  0  0  0  0  0  0  0  0  0  0  0
   -1.2716   20.9411  -34.4613 H   0  0  0  0  0  0  0  0  0  0  0  0
   -2.9294   20.2597  -34.7691 H   0  0  0  0  0  0  0  0  0  0  0  0
   -4.7343   21.3966  -33.9278 H   0  0  0  0  0  0  0  0  0  0  0  0
   -6.5046   23.3211  -31.1885 H   0  0  0  0  0  0  0  0  0  0  0  0
   -6.5336   23.2196  -32.9813 H   0  0  0  0  0  0  0  0  0  0  0  0
   -8.8245   22.1182  -32.6400 H   0  0  0  0  0  0  0  0  0  0  0  0
   -9.9110   19.8727  -32.6178 H   0  0  0  0  0  0  0  0  0  0  0  0
   -8.3250   16.8050  -32.4880 H   0  0  0  0  0  0  0  0  0  0  0  0
   -6.1953   18.0816  -31.3091 H   0  0  0  0  0  0  0  0  0  0  0  0
   -5.1040   20.3223  -31.3321 H   0  0  0  0  0  0  0  0  0  0  0  0
   -4.4247   23.5652  -30.1945 H   0  0  0  0  0  0  0  0  0  0  0  0
   -0.9165   21.0539  -29.5085 H   0  0  0  0  0  0  0  0  0  0  0  0
    0.3928   21.6399  -27.4697 H   0  0  0  0  0  0  0  0  0  0  0  0
   -1.1878   25.6615  -27.5973 H   0  0  0  0  0  0  0  0  0  0  0  0
   -0.9139   21.7176  -31.9205 H   0  0  0  0  0  0  0  0  0  0  0  0
   -4.1068   19.6892  -34.6052 H   0  0  0  0  0  0  0  0  0  0  0  0
   -6.3080   18.5589  -34.8944 H   0  0  0  0  0  0  0  0  0  0  0  0
  1  2  1  0
  2  3  1  0
  3  4  2  0
  4  5  1  0
  5  6  2  0
  6  7  1  0
  7  8  1  0
  8  9  1  0
  9 10  2  0
 10 11  1  0
 11 12  1  0
 12 13  1  0
 13 14  2  0
 14 15  1  0
 15 16  2  0
 16 17  1  0
 16 18  1  0
 18 19  2  0
 11 20  2  0
 20 21  1  0
 21 22  1  0
 22 23  2  0
 23 24  1  0
 24 25  2  0
 25 26  1  0
 25 27  1  0
 27 28  2  0
 28 29  1  0
 21 30  2  0
  6 31  1  0
 31 32  2  0
 32  3  1  0
 30  9  1  0
 19 13  1  0
 28 22  1  0
  1 33  1  0
  1 34  1  0
  1 35  1  0
  4 36  1  0
  5 37  1  0
  8 38  1  0
  8 39  1  0
 10 40  1  0
 12 41  1  0
 12 42  1  0
 14 43  1  0
 15 44  1  0
 17 45  1  0
 18 46  1  0
 19 47  1  0
 20 48  1  0
 23 49  1  0
 24 50  1  0
 27 51  1  0
 30 52  1  0
 31 53  1  0
 32 54  1  0
M  CHG  2  26  -1  29  -1
M  END
>  <UniqueID>  (28) 
27

>  <SMILES>  (28) 
COc1ccc(SCc2cc(Cc3ccc(O)cc3)cc(-c3ccc([O-])cc3[O-])c2)cc1

>  <Energy>  (28) 
53.74237509325675

>  <Genealogy>  (28) 
COc1ccc(SCc2cc(Cc3ccc(O)cc3)cc(-c3ccc([O-])cc3[O-])c2)cc1 (protonated)
COc1ccc(SCc2cc(Cc3ccc(O)cc3)cc(-c3ccc([O-])cc3[O-])c2)cc1 (3D coordinates assigned)
COc1ccc(SCc2cc(Cc3ccc(O)cc3)cc(-c3ccc([O-])cc3[O-])c2)cc1 (optimized conformer: 53.74237509325675 kcal/mol)

>  <smiles>  (28) 
COc1ccc(SCc2cc(Cc3ccc(O)cc3)cc(-c3ccc(O)cc3O)c2)cc1

>  <score_type>  (28) 
oracle

>  <origin>  (28) 
adgpu

>  <m_score__min__energy>  (28) 
-12.279999999999999

>  <m_primary>  (28) 
energy

$$$$
28:0
     RDKit          3D

 50 53  0  0  0  0  0  0  0  0999 V2000
   -3.4690   14.5200  -32.8140 C   0  0  0  0  0  0  0  0  0  0  0  0
   -3.7300   15.5170  -33.7960 O   0  0  0  0  0  0  0  0  0  0  0  0
   -4.6940   16.5270  -33.6620 C   0  0  0  0  0  0  0  0  0  0  0  0
   -5.5630   16.6010  -32.5590 C   0  0  0  0  0  0  0  0  0  0  0  0
   -6.5080   17.6280  -32.4700 C   0  0  0  0  0  0  0  0  0  0  0  0
   -6.5970   18.6030  -33.4790 C   0  0  0  0  0  0  0  0  0  0  0  0
   -7.5510   19.6790  -33.4170 N   0  0  0  0  0  0  0  0  0  0  0  0
   -8.0070   20.4870  -31.9500 S   0  0  0  0  0  0  0  0  0  0  0  0
   -8.4780   19.4670  -30.9520 O   0  0  0  0  0  0  0  0  0  0  0  0
   -9.1300   21.4420  -32.2390 O   0  0  0  0  0  0  0  0  0  0  0  0
   -6.6410   21.3980  -31.3130 C   0  0  0  0  0  0  0  0  0  0  0  0
   -6.8520   22.5560  -30.5530 C   0  0  0  0  0  0  0  0  0  0  0  0
   -5.7640   23.2690  -30.0400 C   0  0  0  0  0  0  0  0  0  0  0  0
   -4.4510   22.8410  -30.2960 C   0  0  0  0  0  0  0  0  0  0  0  0
   -3.3110   23.6060  -29.7440 C   0  0  0  0  0  0  0  0  0  0  0  0
   -3.1360   24.9240  -29.9680 N   0  0  0  0  0  0  0  0  0  0  0  0
   -2.0390   25.2910  -29.3230 N   0  0  0  0  0  0  0  0  0  0  0  0
   -1.5610   24.1930  -28.7120 C   0  0  0  0  0  0  0  0  0  0  0  0
   -0.1460   24.1790  -27.8840 S   0  0  0  0  0  0  0  0  0  0  0  0
   -2.3300   23.1100  -28.9540 N   0  0  0  0  0  0  0  0  0  0  0  0
   -2.0650   21.7410  -28.6010 C   0  0  0  0  0  0  0  0  0  0  0  0
   -0.9680   21.0660  -29.1550 C   0  0  0  0  0  0  0  0  0  0  0  0
   -0.7070   19.7400  -28.8040 C   0  0  0  0  0  0  0  0  0  0  0  0
   -1.5330   19.0790  -27.8910 C   0  0  0  0  0  0  0  0  0  0  0  0
   -2.6240   19.7470  -27.3140 C   0  0  0  0  0  0  0  0  0  0  0  0
   -3.5330   19.0300  -26.3600 C   0  0  0  0  0  0  0  0  0  0  0  0
   -2.8970   21.0720  -27.6880 C   0  0  0  0  0  0  0  0  0  0  0  0
   -4.2460   21.6700  -31.0440 C   0  0  0  0  0  0  0  0  0  0  0  0
   -5.3340   20.9600  -31.5570 C   0  0  0  0  0  0  0  0  0  0  0  0
   -5.7320   18.5210  -34.5800 C   0  0  0  0  0  0  0  0  0  0  0  0
   -4.7890   17.4930  -34.6690 C   0  0  0  0  0  0  0  0  0  0  0  0
   -3.5830   14.9553  -31.8102 H   0  0  0  0  0  0  0  0  0  0  0  0
   -4.1800   13.6897  -32.9365 H   0  0  0  0  0  0  0  0  0  0  0  0
   -2.4423   14.1446  -32.9365 H   0  0  0  0  0  0  0  0  0  0  0  0
   -5.4991   15.8464  -31.7612 H   0  0  0  0  0  0  0  0  0  0  0  0
   -7.1860   17.6733  -31.6050 H   0  0  0  0  0  0  0  0  0  0  0  0
   -7.9490   20.0570  -34.3060 H   0  0  0  0  0  0  0  0  0  0  0  0
   -7.8769   22.9054  -30.3593 H   0  0  0  0  0  0  0  0  0  0  0  0
   -5.9373   24.1697  -29.4328 H   0  0  0  0  0  0  0  0  0  0  0  0
   -0.3103   21.5832  -29.8691 H   0  0  0  0  0  0  0  0  0  0  0  0
    0.1514   19.2141  -29.2475 H   0  0  0  0  0  0  0  0  0  0  0  0
   -1.3274   18.0319  -27.6238 H   0  0  0  0  0  0  0  0  0  0  0  0
   -3.2374   19.2632  -25.3265 H   0  0  0  0  0  0  0  0  0  0  0  0
   -4.5703   19.3557  -26.5270 H   0  0  0  0  0  0  0  0  0  0  0  0
   -3.4579   17.9454  -26.5270 H   0  0  0  0  0  0  0  0  0  0  0  0
   -3.7691   21.5905  -27.2630 H   0  0  0  0  0  0  0  0  0  0  0  0
   -3.2228   21.3100  -31.2269 H   0  0  0  0  0  0  0  0  0  0  0  0
   -5.1631   20.0529  -32.1552 H   0  0  0  0  0  0  0  0  0  0  0  0
   -5.7963   19.2725  -35.3807 H   0  0  0  0  0  0  0  0  0  0  0  0
   -4.1163   17.4434  -35.5379 H   0  0  0  0  0  0  0  0  0  0  0  0
  1  2  1  0
  2  3  1  0
  3  4  2  0
  4  5  1  0
  5  6  2  0
  6  7  1  0
  7  8  1  0
  8  9  2  0
  8 10  2  0
  8 11  1  0
 11 12  2  0
 12 13  1  0
 13 14  2  0
 14 15  1  0
 15 16  2  0
 16 17  1  0
 17 18  1  0
 18 19  2  0
 18 20  1  0
 20 21  1  0
 21 22  2  0
 22 23  1  0
 23 24  2  0
 24 25  1  0
 25 26  1  0
 25 27  2  0
 14 28  1  0
 28 29  2  0
  6 30  1  0
 30 31  2  0
 31  3  1  0
 29 11  1  0
 20 15  1  0
 27 21  1  0
  1 32  1  0
  1 33  1  0
  1 34  1  0
  4 35  1  0
  5 36  1  0
  7 37  1  0
 12 38  1  0
 13 39  1  0
 22 40  1  0
 23 41  1  0
 24 42  1  0
 26 43  1  0
 26 44  1  0
 26 45  1  0
 27 46  1  0
 28 47  1  0
 29 48  1  0
 30 49  1  0
 31 50  1  0
M  CHG  1  17  -1
M  END
>  <UniqueID>  (29) 
28

>  <SMILES>  (29) 
COc1ccc(NS(=O)(=O)c2ccc(-c3n[n-]c(=S)n3-c3cccc(C)c3)cc2)cc1

>  <Energy>  (29) 
100.72081137797386

>  <Genealogy>  (29) 
COc1ccc(NS(=O)(=O)c2ccc(-c3n[n-]c(=S)n3-c3cccc(C)c3)cc2)cc1 (protonated)
COc1ccc(NS(=O)(=O)c2ccc(-c3n[n-]c(=S)n3-c3cccc(C)c3)cc2)cc1 (3D coordinates assigned)
COc1ccc(NS(=O)(=O)c2ccc(-c3n[n-]c(=S)n3-c3cccc(C)c3)cc2)cc1 (optimized conformer: 100.72081137797386 kcal/mol)

>  <smiles>  (29) 
COc1ccc(NS(=O)(=O)c2ccc(-c3n[nH]c(=S)n3-c3cccc(C)c3)cc2)cc1

>  <score_type>  (29) 
oracle

>  <origin>  (29) 
adgpu

>  <m_score__min__energy>  (29) 
-11.18

>  <m_primary>  (29) 
energy

$$$$
29:0
     RDKit          3D

 63 68  0  0  0  0  0  0  0  0999 V2000
   -2.0540   19.5190  -26.8170 C   0  0  0  0  0  0  0  0  0  0  0  0
   -2.2120   20.8850  -27.4160 C   0  0  0  0  0  0  0  0  0  0  0  0
   -3.4630   21.3140  -27.8780 C   0  0  0  0  0  0  0  0  0  0  0  0
   -3.6020   22.5690  -28.4790 C   0  0  0  0  0  0  0  0  0  0  0  0
   -2.4840   23.4010  -28.6500 C   0  0  0  0  0  0  0  0  0  0  0  0
   -2.6300   24.7040  -29.3360 C   0  0  0  0  0  0  0  0  0  0  0  0
   -1.9480   25.6860  -28.9400 O   0  0  0  0  0  0  0  0  0  0  0  0
   -3.4970   24.8850  -30.4670 N   0  0  0  0  0  0  0  0  0  0  0  0
   -4.8000   24.3120  -30.6710 C   0  0  0  0  0  0  0  0  0  0  0  0
   -5.9240   25.0630  -30.3140 C   0  0  0  0  0  0  0  0  0  0  0  0
   -7.2040   24.5220  -30.4410 C   0  0  0  0  0  0  0  0  0  0  0  0
   -7.3750   23.2220  -30.9230 C   0  0  0  0  0  0  0  0  0  0  0  0
   -6.2610   22.4420  -31.2930 C   0  0  0  0  0  0  0  0  0  0  0  0
   -6.4400   21.0540  -31.8210 C   0  0  0  0  0  0  0  0  0  0  0  0
   -7.7180   20.4700  -31.8890 C   0  0  0  0  0  0  0  0  0  0  0  0
   -7.8870   19.1780  -32.3910 C   0  0  0  0  0  0  0  0  0  0  0  0
   -6.7880   18.4480  -32.8590 C   0  0  0  0  0  0  0  0  0  0  0  0
   -5.4920   19.0070  -32.7840 C   0  0  0  0  0  0  0  0  0  0  0  0
   -5.3360   20.3100  -32.2810 C   0  0  0  0  0  0  0  0  0  0  0  0
   -4.3750   18.2160  -33.3670 C   0  0  0  0  0  0  0  0  0  0  0  0
   -4.6250   17.1240  -34.1620 C   0  0  0  0  0  0  0  0  0  0  0  0
   -3.3920   16.7580  -34.6800 C   0  0  0  0  0  0  0  0  0  0  0  0
   -3.1060   15.6890  -35.6540 C   0  0  0  0  0  0  0  0  0  0  0  0
   -3.8820   14.4890  -35.6590 N   0  0  0  0  0  0  0  0  0  0  0  0
   -2.1720   15.8210  -36.4880 O   0  0  0  0  0  0  0  0  0  0  0  0
   -2.4460   17.5780  -34.1740 N   0  0  0  0  0  0  0  0  0  0  0  0
   -3.0400   18.4540  -33.3760 N   0  0  0  0  0  0  0  0  0  0  0  0
   -2.3020   19.4310  -32.6350 C   0  0  0  0  0  0  0  0  0  0  0  0
   -1.3940   19.0210  -31.6470 C   0  0  0  0  0  0  0  0  0  0  0  0
   -0.6410   19.9710  -30.9500 C   0  0  0  0  0  0  0  0  0  0  0  0
   -0.8020   21.3330  -31.2260 C   0  0  0  0  0  0  0  0  0  0  0  0
   -0.0660   22.2520  -30.5530 F   0  0  0  0  0  0  0  0  0  0  0  0
   -1.7220   21.7470  -32.1940 C   0  0  0  0  0  0  0  0  0  0  0  0
   -2.4760   20.7990  -32.8960 C   0  0  0  0  0  0  0  0  0  0  0  0
   -6.0080   16.6480  -34.4930 C   0  0  0  0  0  0  0  0  0  0  0  0
   -6.9890   17.0270  -33.3660 C   0  0  0  0  0  0  0  0  0  0  0  0
   -4.9730   22.9990  -31.1440 C   0  0  0  0  0  0  0  0  0  0  0  0
   -1.2300   22.9700  -28.1850 C   0  0  0  0  0  0  0  0  0  0  0  0
   -1.0940   21.7180  -27.5810 C   0  0  0  0  0  0  0  0  0  0  0  0
   -2.0630   19.5965  -25.7198 H   0  0  0  0  0  0  0  0  0  0  0  0
   -2.8838   18.8762  -27.1460 H   0  0  0  0  0  0  0  0  0  0  0  0
   -1.0994   19.0825  -27.1460 H   0  0  0  0  0  0  0  0  0  0  0  0
   -4.3407   20.6602  -27.7674 H   0  0  0  0  0  0  0  0  0  0  0  0
   -4.5922   22.9061  -28.8195 H   0  0  0  0  0  0  0  0  0  0  0  0
   -5.7986   26.0864  -29.9307 H   0  0  0  0  0  0  0  0  0  0  0  0
   -8.0823   25.1219  -30.1603 H   0  0  0  0  0  0  0  0  0  0  0  0
   -8.3881   22.8034  -31.0146 H   0  0  0  0  0  0  0  0  0  0  0  0
   -8.5943   21.0377  -31.5427 H   0  0  0  0  0  0  0  0  0  0  0  0
   -8.8914   18.7304  -32.4189 H   0  0  0  0  0  0  0  0  0  0  0  0
   -4.3318   20.7577  -32.2458 H   0  0  0  0  0  0  0  0  0  0  0  0
   -3.6800   13.7370  -36.3540 H   0  0  0  0  0  0  0  0  0  0  0  0
   -4.6610   14.3470  -34.9780 H   0  0  0  0  0  0  0  0  0  0  0  0
   -1.2744   17.9512  -31.4205 H   0  0  0  0  0  0  0  0  0  0  0  0
    0.0787   19.6470  -30.1838 H   0  0  0  0  0  0  0  0  0  0  0  0
   -1.8535   22.8187  -32.4042 H   0  0  0  0  0  0  0  0  0  0  0  0
   -3.2048   21.1263  -33.6521 H   0  0  0  0  0  0  0  0  0  0  0  0
   -6.3372   17.1152  -35.4328 H   0  0  0  0  0  0  0  0  0  0  0  0
   -5.9931   15.5534  -34.6009 H   0  0  0  0  0  0  0  0  0  0  0  0
   -8.0161   16.9327  -33.7482 H   0  0  0  0  0  0  0  0  0  0  0  0
   -6.8020   16.3460  -32.5226 H   0  0  0  0  0  0  0  0  0  0  0  0
   -4.0898   22.3962  -31.4021 H   0  0  0  0  0  0  0  0  0  0  0  0
   -0.3511   23.6219  -28.2972 H   0  0  0  0  0  0  0  0  0  0  0  0
   -0.1058   21.3829  -27.2328 H   0  0  0  0  0  0  0  0  0  0  0  0
  1  2  1  0
  2  3  2  0
  3  4  1  0
  4  5  2  0
  5  6  1  0
  6  7  2  0
  6  8  1  0
  8  9  1  0
  9 10  2  0
 10 11  1  0
 11 12  2  0
 12 13  1  0
 13 14  1  0
 14 15  2  0
 15 16  1  0
 16 17  2  0
 17 18  1  0
 18 19  2  0
 18 20  1  0
 20 21  2  0
 21 22  1  0
 22 23  1  0
 23 24  1  0
 23 25  2  0
 22 26  2  0
 26 27  1  0
 27 28  1  0
 28 29  2  0
 29 30  1  0
 30 31  2  0
 31 32  1  0
 31 33  1  0
 33 34  2  0
 21 35  1  0
 35 36  1  0
 13 37  2  0
  5 38  1  0
 38 39  2  0
 39  2  1  0
 37  9  1  0
 19 14  1  0
 27 20  1  0
 34 28  1  0
 36 17  1  0
  1 40  1  0
  1 41  1  0
  1 42  1  0
  3 43  1  0
  4 44  1  0
 10 45  1  0
 11 46  1  0
 12 47  1  0
 15 48  1  0
 16 49  1  0
 19 50  1  0
 24 51  1  0
 24 52  1  0
 29 53  1  0
 30 54  1  0
 33 55  1  0
 34 56  1  0
 35 57  1  0
 35 58  1  0
 36 59  1  0
 36 60  1  0
 37 61  1  0
 38 62  1  0
 39 63  1  0
M  CHG  1   8  -1
M  END
>  <UniqueID>  (30) 
29

>  <SMILES>  (30) 
Cc1ccc(C(=O)[N-]c2cccc(-c3ccc4c(c3)-c3c(c(C(N)=O)nn3-c3ccc(F)cc3)CC4)c2)cc1

>  <Energy>  (30) 
125.07399132492405

>  <Genealogy>  (30) 
Cc1ccc(C(=O)[N-]c2cccc(-c3ccc4c(c3)-c3c(c(C(N)=O)nn3-c3ccc(F)cc3)CC4)c2)cc1 (protonated)
Cc1ccc(C(=O)[N-]c2cccc(-c3ccc4c(c3)-c3c(c(C(N)=O)nn3-c3ccc(F)cc3)CC4)c2)cc1 (3D coordinates assigned)
Cc1ccc(C(=O)[N-]c2cccc(-c3ccc4c(c3)-c3c(c(C(N)=O)nn3-c3ccc(F)cc3)CC4)c2)cc1 (nonaromatic ring conformer: 125.07399132492405 kcal/mol)

>  <smiles>  (30) 
Cc1ccc(C(=O)Nc2cccc(-c3ccc4c(c3)-c3c(c(C(N)=O)nn3-c3ccc(F)cc3)CC4)c2)cc1

>  <score_type>  (30) 
oracle

>  <origin>  (30) 
adgpu

>  <m_score__min__energy>  (30) 
-13.57

>  <m_primary>  (30) 
energy

$$$$
30:0
     RDKit          3D

 44 45  0  0  0  0  0  0  0  0999 V2000
   -6.4460   18.6340  -33.6800 C   0  0  0  0  0  0  0  0  0  0  0  0
   -6.4090   18.8710  -32.1720 C   0  0  0  0  0  0  0  0  0  0  0  0
   -7.7490   19.4090  -31.6630 C   0  0  0  0  0  0  0  0  0  0  0  0
   -8.2310   20.4720  -32.5490 N   0  0  0  0  0  0  0  0  0  0  0  0
   -8.5660   21.9030  -31.6200 S   0  0  0  0  0  0  0  0  0  0  0  0
   -9.5780   22.7530  -32.3380 O   0  0  0  0  0  0  0  0  0  0  0  0
   -9.1380   21.5050  -30.2880 O   0  0  0  0  0  0  0  0  0  0  0  0
   -7.0820   22.8160  -31.3630 C   0  0  0  0  0  0  0  0  0  0  0  0
   -7.0910   23.9480  -30.5370 C   0  0  0  0  0  0  0  0  0  0  0  0
   -5.9020   24.6290  -30.2660 C   0  0  0  0  0  0  0  0  0  0  0  0
   -4.6880   24.1800  -30.8020 C   0  0  0  0  0  0  0  0  0  0  0  0
   -3.4800   24.8610  -30.4400 N   0  0  0  0  0  0  0  0  0  0  0  0
   -2.5420   24.5150  -29.0230 S   0  0  0  0  0  0  0  0  0  0  0  0
   -1.3760   25.4630  -28.9630 O   0  0  0  0  0  0  0  0  0  0  0  0
   -3.3980   24.7070  -27.8030 O   0  0  0  0  0  0  0  0  0  0  0  0
   -1.9830   22.8450  -29.0710 C   0  0  0  0  0  0  0  0  0  0  0  0
   -1.1360   22.4210  -30.1020 C   0  0  0  0  0  0  0  0  0  0  0  0
   -0.6500   21.1110  -30.1210 C   0  0  0  0  0  0  0  0  0  0  0  0
   -1.0110   20.2020  -29.1080 C   0  0  0  0  0  0  0  0  0  0  0  0
   -0.5370   18.8810  -29.0860 O   0  0  0  0  0  0  0  0  0  0  0  0
    0.6330   18.4570  -28.3950 C   0  0  0  0  0  0  0  0  0  0  0  0
   -1.8710   20.6300  -28.0830 C   0  0  0  0  0  0  0  0  0  0  0  0
   -2.3460   19.5250  -26.8020 Cl  0  0  0  0  0  0  0  0  0  0  0  0
   -2.3540   21.9430  -28.0660 C   0  0  0  0  0  0  0  0  0  0  0  0
   -4.6860   23.0590  -31.6530 C   0  0  0  0  0  0  0  0  0  0  0  0
   -5.8770   22.3810  -31.9270 C   0  0  0  0  0  0  0  0  0  0  0  0
   -6.6129   17.5651  -33.8792 H   0  0  0  0  0  0  0  0  0  0  0  0
   -7.2633   19.2216  -34.1236 H   0  0  0  0  0  0  0  0  0  0  0  0
   -5.4885   18.9445  -34.1236 H   0  0  0  0  0  0  0  0  0  0  0  0
   -6.1881   17.9203  -31.6647 H   0  0  0  0  0  0  0  0  0  0  0  0
   -5.6296   19.6164  -31.9556 H   0  0  0  0  0  0  0  0  0  0  0  0
   -8.4849   18.5917  -31.6406 H   0  0  0  0  0  0  0  0  0  0  0  0
   -7.6134   19.8166  -30.6503 H   0  0  0  0  0  0  0  0  0  0  0  0
   -7.4600   20.7190  -33.2120 H   0  0  0  0  0  0  0  0  0  0  0  0
   -8.0370   24.3012  -30.1009 H   0  0  0  0  0  0  0  0  0  0  0  0
   -5.9189   25.5243  -29.6271 H   0  0  0  0  0  0  0  0  0  0  0  0
   -0.8519   23.1221  -30.9005 H   0  0  0  0  0  0  0  0  0  0  0  0
    0.0188   20.7879  -30.9324 H   0  0  0  0  0  0  0  0  0  0  0  0
    0.4611   18.5193  -27.3103 H   0  0  0  0  0  0  0  0  0  0  0  0
    0.8650   17.4176  -28.6703 H   0  0  0  0  0  0  0  0  0  0  0  0
    1.4771   19.1064  -28.6703 H   0  0  0  0  0  0  0  0  0  0  0  0
   -3.0280   22.2682  -27.2598 H   0  0  0  0  0  0  0  0  0  0  0  0
   -3.7435   22.7152  -32.1041 H   0  0  0  0  0  0  0  0  0  0  0  0
   -5.8674   21.5021  -32.5884 H   0  0  0  0  0  0  0  0  0  0  0  0
  1  2  1  0
  2  3  1  0
  3  4  1  0
  4  5  1  0
  5  6  2  0
  5  7  2  0
  5  8  1  0
  8  9  2  0
  9 10  1  0
 10 11  2  0
 11 12  1  0
 12 13  1  0
 13 14  2  0
 13 15  2  0
 13 16  1  0
 16 17  2  0
 17 18  1  0
 18 19  2  0
 19 20  1  0
 20 21  1  0
 19 22  1  0
 22 23  1  0
 22 24  2  0
 11 25  1  0
 25 26  2  0
 26  8  1  0
 24 16  1  0
  1 27  1  0
  1 28  1  0
  1 29  1  0
  2 30  1  0
  2 31  1  0
  3 32  1  0
  3 33  1  0
  4 34  1  0
  9 35  1  0
 10 36  1  0
 17 37  1  0
 18 38  1  0
 21 39  1  0
 21 40  1  0
 21 41  1  0
 24 42  1  0
 25 43  1  0
 26 44  1  0
M  CHG  1  12  -1
M  END
>  <UniqueID>  (31) 
30

>  <SMILES>  (31) 
CCCNS(=O)(=O)c1ccc([N-]S(=O)(=O)c2ccc(OC)c(Cl)c2)cc1

>  <Energy>  (31) 
38.55731355927889

>  <Genealogy>  (31) 
CCCNS(=O)(=O)c1ccc([N-]S(=O)(=O)c2ccc(OC)c(Cl)c2)cc1 (protonated)
CCCNS(=O)(=O)c1ccc([N-]S(=O)(=O)c2ccc(OC)c(Cl)c2)cc1 (3D coordinates assigned)
CCCNS(=O)(=O)c1ccc([N-]S(=O)(=O)c2ccc(OC)c(Cl)c2)cc1 (optimized conformer: 38.55731355927889 kcal/mol)

>  <smiles>  (31) 
CCCNS(=O)(=O)c1ccc(NS(=O)(=O)c2ccc(OC)c(Cl)c2)cc1

>  <score_type>  (31) 
oracle

>  <origin>  (31) 
adgpu

>  <m_score__min__energy>  (31) 
-10.42

>  <m_primary>  (31) 
energy

$$$$
31:0
     RDKit          3D

 30 31  0  0  0  0  0  0  0  0999 V2000
   -2.4440   24.2310  -28.9810 C   0  0  0  0  0  0  0  0  0  0  0  0
   -3.1820   24.9380  -29.9640 O   0  0  0  0  0  0  0  0  0  0  0  0
   -4.4410   24.5270  -30.3820 C   0  0  0  0  0  0  0  0  0  0  0  0
   -5.6050   25.1750  -30.0190 C   0  0  0  0  0  0  0  0  0  0  0  0
   -6.8520   24.7410  -30.4530 C   0  0  0  0  0  0  0  0  0  0  0  0
   -6.8960   23.6220  -31.2710 C   0  0  0  0  0  0  0  0  0  0  0  0
   -8.1730   23.0700  -31.7930 C   0  0  0  0  0  0  0  0  0  0  0  0
   -8.7060   21.5980  -30.9040 S   0  0  0  0  0  0  0  0  0  0  0  0
   -8.0400   20.1560  -31.7310 C   0  0  0  0  0  0  0  0  0  0  0  0
   -7.0880   20.2730  -32.6780 N   0  0  0  0  0  0  0  0  0  0  0  0
   -6.5640   19.2050  -33.3210 C   0  0  0  0  0  0  0  0  0  0  0  0
   -5.6530   19.3870  -34.2190 N   0  0  0  0  0  0  0  0  0  0  0  0
   -7.0140   17.9350  -33.0040 C   0  0  0  0  0  0  0  0  0  0  0  0
   -7.9920   17.8180  -32.0310 C   0  0  0  0  0  0  0  0  0  0  0  0
   -8.4810   18.9200  -31.4190 N   0  0  0  0  0  0  0  0  0  0  0  0
   -5.7270   22.9760  -31.6320 C   0  0  0  0  0  0  0  0  0  0  0  0
   -4.4900   23.4120  -31.1970 C   0  0  0  0  0  0  0  0  0  0  0  0
   -3.3860   22.7590  -31.5690 F   0  0  0  0  0  0  0  0  0  0  0  0
   -2.7723   24.5455  -27.9794 H   0  0  0  0  0  0  0  0  0  0  0  0
   -2.6149   23.1510  -29.1005 H   0  0  0  0  0  0  0  0  0  0  0  0
   -1.3723   24.4481  -29.1005 H   0  0  0  0  0  0  0  0  0  0  0  0
   -5.5436   26.0596  -29.3680 H   0  0  0  0  0  0  0  0  0  0  0  0
   -7.7720   25.2668  -30.1579 H   0  0  0  0  0  0  0  0  0  0  0  0
   -8.9535   23.8395  -31.7001 H   0  0  0  0  0  0  0  0  0  0  0  0
   -8.0080   22.7839  -32.8422 H   0  0  0  0  0  0  0  0  0  0  0  0
   -5.2190   18.5980  -34.7420 H   0  0  0  0  0  0  0  0  0  0  0  0
   -6.6074   17.0466  -33.5093 H   0  0  0  0  0  0  0  0  0  0  0  0
   -8.3730   16.8238  -31.7546 H   0  0  0  0  0  0  0  0  0  0  0  0
   -9.2290   18.8330  -30.6750 H   0  0  0  0  0  0  0  0  0  0  0  0
   -5.7838   22.0912  -32.2831 H   0  0  0  0  0  0  0  0  0  0  0  0
  1  2  1  0
  2  3  1  0
  3  4  2  0
  4  5  1  0
  5  6  2  0
  6  7  1  0
  7  8  1  0
  8  9  1  0
  9 10  2  0
 10 11  1  0
 11 12  2  3
 11 13  1  0
 13 14  2  0
 14 15  1  0
  6 16  1  0
 16 17  2  0
 17 18  1  0
 17  3  1  0
 15  9  1  0
  1 19  1  0
  1 20  1  0
  1 21  1  0
  4 22  1  0
  5 23  1  0
  7 24  1  0
  7 25  1  0
 12 26  1  0
 13 27  1  0
 14 28  1  0
 15 29  1  0
 16 30  1  0
M  END
>  <smiles>  (32) 
COc1ccc(CSc2nc(=N)cc[nH]2)cc1F

>  <score_type>  (32) 
oracle

>  <origin>  (32) 
adgpu

>  <m_score__min__energy>  (32) 
-6.8600000000000003

>  <m_primary>  (32) 
energy

$$$$
32:0
     RDKit          3D

 43 45  0  0  0  0  0  0  0  0999 V2000
   -3.8710   25.4650  -30.7080 N   0  0  0  0  0  0  0  0  0  0  0  0
   -4.9370   24.1180  -30.5240 S   0  0  0  0  0  0  0  0  0  0  0  0
   -4.9950   23.7210  -29.0760 O   0  0  0  0  0  0  0  0  0  0  0  0
   -6.3190   24.5040  -30.9740 O   0  0  0  0  0  0  0  0  0  0  0  0
   -4.3510   22.7680  -31.4900 C   0  0  0  0  0  0  0  0  0  0  0  0
   -5.1450   22.2410  -32.5160 C   0  0  0  0  0  0  0  0  0  0  0  0
   -4.6770   21.1770  -33.2920 C   0  0  0  0  0  0  0  0  0  0  0  0
   -3.4080   20.6210  -33.0490 C   0  0  0  0  0  0  0  0  0  0  0  0
   -2.9040   19.5400  -33.8550 N   0  0  0  0  0  0  0  0  0  0  0  0
   -3.1700   18.1510  -33.5890 C   0  0  0  0  0  0  0  0  0  0  0  0
   -4.4410   17.7620  -33.1360 C   0  0  0  0  0  0  0  0  0  0  0  0
   -4.7000   16.4350  -32.7920 C   0  0  0  0  0  0  0  0  0  0  0  0
   -3.6950   15.4640  -32.9010 C   0  0  0  0  0  0  0  0  0  0  0  0
   -3.9560   14.0400  -32.4780 C   0  0  0  0  0  0  0  0  0  0  0  0
   -4.7700   13.3950  -33.3930 F   0  0  0  0  0  0  0  0  0  0  0  0
   -4.5770   14.0380  -31.2430 F   0  0  0  0  0  0  0  0  0  0  0  0
   -2.7680   13.3350  -32.3870 F   0  0  0  0  0  0  0  0  0  0  0  0
   -2.4120   15.8530  -33.3200 C   0  0  0  0  0  0  0  0  0  0  0  0
   -2.1380   17.1870  -33.6710 C   0  0  0  0  0  0  0  0  0  0  0  0
   -0.7770   17.5430  -34.1500 C   0  0  0  0  0  0  0  0  0  0  0  0
    0.2310   17.0670  -33.5630 O   0  0  0  0  0  0  0  0  0  0  0  0
   -0.5730   18.5150  -35.1870 N   0  0  0  0  0  0  0  0  0  0  0  0
   -0.0070   19.6860  -35.0790 C   0  0  0  0  0  0  0  0  0  0  0  0
    0.1880   20.4430  -36.2430 C   0  0  0  0  0  0  0  0  0  0  0  0
    0.7880   21.7010  -36.1620 C   0  0  0  0  0  0  0  0  0  0  0  0
    1.1700   22.1990  -34.9570 N   0  0  0  0  0  0  0  0  0  0  0  0
    0.9790   21.5000  -33.8070 C   0  0  0  0  0  0  0  0  0  0  0  0
    0.3830   20.2380  -33.8400 C   0  0  0  0  0  0  0  0  0  0  0  0
   -2.6050   21.1710  -32.0360 C   0  0  0  0  0  0  0  0  0  0  0  0
   -1.3690   20.6670  -31.7890 F   0  0  0  0  0  0  0  0  0  0  0  0
   -3.0770   22.2350  -31.2590 C   0  0  0  0  0  0  0  0  0  0  0  0
   -3.4790   25.6740  -29.7630 H   0  0  0  0  0  0  0  0  0  0  0  0
   -6.1405   22.6659  -32.7119 H   0  0  0  0  0  0  0  0  0  0  0  0
   -5.3055   20.7715  -34.0985 H   0  0  0  0  0  0  0  0  0  0  0  0
   -2.2790   19.7710  -34.6610 H   0  0  0  0  0  0  0  0  0  0  0  0
   -5.2413   18.5119  -33.0514 H   0  0  0  0  0  0  0  0  0  0  0  0
   -5.6995   16.1488  -32.4328 H   0  0  0  0  0  0  0  0  0  0  0  0
   -1.6093   15.1028  -33.3744 H   0  0  0  0  0  0  0  0  0  0  0  0
   -0.1312   20.0465  -37.2181 H   0  0  0  0  0  0  0  0  0  0  0  0
    0.9519   22.2905  -37.0761 H   0  0  0  0  0  0  0  0  0  0  0  0
    1.2956   21.9308  -32.8457 H   0  0  0  0  0  0  0  0  0  0  0  0
    0.2186   19.6782  -32.9075 H   0  0  0  0  0  0  0  0  0  0  0  0
   -2.4442   22.6545  -30.4631 H   0  0  0  0  0  0  0  0  0  0  0  0
  1  2  1  0
  2  3  2  0
  2  4  2  0
  2  5  1  0
  5  6  2  0
  6  7  1  0
  7  8  2  0
  8  9  1  0
  9 10  1  0
 10 11  2  0
 11 12  1  0
 12 13  2  0
 13 14  1  0
 14 15  1  0
 14 16  1  0
 14 17  1  0
 13 18  1  0
 18 19  2  0
 19 20  1  0
 20 21  2  0
 20 22  1  0
 22 23  2  3
 23 24  1  0
 24 25  2  0
 25 26  1  0
 26 27  1  0
 27 28  2  0
  8 29  1  0
 29 30  1  0
 29 31  2  0
 31  5  1  0
 19 10  1  0
 28 23  1  0
  1 32  1  0
  6 33  1  0
  7 34  1  0
  9 35  1  0
 11 36  1  0
 12 37  1  0
 18 38  1  0
 24 39  1  0
 25 40  1  0
 27 41  1  0
 28 42  1  0
 31 43  1  0
M  CHG  2   1  -1  26  -1
M  END
>  <UniqueID>  (33) 
31

>  <SMILES>  (33) 
[NH-]S(=O)(=O)c1ccc(Nc2ccc(C(F)(F)F)cc2C(=O)N=c2cc[n-]cc2)c(F)c1

>  <Energy>  (33) 
65.25211575533794

>  <Genealogy>  (33) 
[NH-]S(=O)(=O)c1ccc(Nc2ccc(C(F)(F)F)cc2C(=O)N=c2cc[n-]cc2)c(F)c1 (protonated)
[NH-]S(=O)(=O)c1ccc(Nc2ccc(C(F)(F)F)cc2C(=O)N=c2cc[n-]cc2)c(F)c1 (3D coordinates assigned)
[NH-]S(=O)(=O)c1ccc(Nc2ccc(C(F)(F)F)cc2C(=O)N=c2cc[n-]cc2)c(F)c1 (optimized conformer: 65.25211575533794 kcal/mol)

>  <smiles>  (33) 
NS(=O)(=O)c1ccc(Nc2ccc(C(F)(F)F)cc2C(=O)N=c2cc[nH]cc2)c(F)c1

>  <score_type>  (33) 
oracle

>  <origin>  (33) 
adgpu

>  <m_score__min__energy>  (33) 
-10.18

>  <m_primary>  (33) 
energy

$$$$
33:0
     RDKit          3D

 44 46  0  0  0  0  0  0  0  0999 V2000
   -9.4640   21.9470  -31.3920 C   0  0  0  0  0  0  0  0  0  0  0  0
   -8.4710   21.4800  -32.2950 O   0  0  0  0  0  0  0  0  0  0  0  0
   -7.9850   20.1610  -32.3730 C   0  0  0  0  0  0  0  0  0  0  0  0
   -8.8620   19.1400  -31.9790 C   0  0  0  0  0  0  0  0  0  0  0  0
   -8.4540   17.8050  -31.9800 C   0  0  0  0  0  0  0  0  0  0  0  0
   -7.1590   17.4730  -32.3670 C   0  0  0  0  0  0  0  0  0  0  0  0
   -6.2760   18.4710  -32.7830 C   0  0  0  0  0  0  0  0  0  0  0  0
   -6.6810   19.8200  -32.8170 C   0  0  0  0  0  0  0  0  0  0  0  0
   -5.8040   20.8370  -33.3220 N   0  0  0  0  0  0  0  0  0  0  0  0
   -4.3170   21.3650  -32.5990 S   0  0  0  0  0  0  0  0  0  0  0  0
   -3.8240   20.3080  -31.6500 O   0  0  0  0  0  0  0  0  0  0  0  0
   -3.3050   21.5460  -33.6960 O   0  0  0  0  0  0  0  0  0  0  0  0
   -4.5270   22.9050  -31.7570 C   0  0  0  0  0  0  0  0  0  0  0  0
   -3.4980   23.3800  -30.9260 C   0  0  0  0  0  0  0  0  0  0  0  0
   -3.6690   24.5500  -30.1680 C   0  0  0  0  0  0  0  0  0  0  0  0
   -2.6460   25.0400  -29.2900 N   0  0  0  0  0  0  0  0  0  0  0  0
   -1.5270   24.3090  -28.7700 C   0  0  0  0  0  0  0  0  0  0  0  0
   -0.4370   24.9180  -28.6000 O   0  0  0  0  0  0  0  0  0  0  0  0
   -1.6250   22.8950  -28.3570 C   0  0  0  0  0  0  0  0  0  0  0  0
   -0.5620   21.9980  -28.3120 C   0  0  0  0  0  0  0  0  0  0  0  0
   -0.9210   20.7290  -27.8460 C   0  0  0  0  0  0  0  0  0  0  0  0
   -2.2690   20.6250  -27.5270 C   0  0  0  0  0  0  0  0  0  0  0  0
   -2.9430   19.4110  -26.9850 C   0  0  0  0  0  0  0  0  0  0  0  0
   -3.0050   22.1140  -27.7810 S   0  0  0  0  0  0  0  0  0  0  0  0
   -4.8470   25.2880  -30.3050 C   0  0  0  0  0  0  0  0  0  0  0  0
   -5.8670   24.8400  -31.1440 C   0  0  0  0  0  0  0  0  0  0  0  0
   -5.7270   23.6480  -31.8600 C   0  0  0  0  0  0  0  0  0  0  0  0
   -6.7970   23.2340  -32.6580 O   0  0  0  0  0  0  0  0  0  0  0  0
   -9.1239   21.7870  -30.3582 H   0  0  0  0  0  0  0  0  0  0  0  0
   -9.6361   23.0205  -31.5594 H   0  0  0  0  0  0  0  0  0  0  0  0
  -10.4006   21.3950  -31.5594 H   0  0  0  0  0  0  0  0  0  0  0  0
   -9.8850   19.3945  -31.6650 H   0  0  0  0  0  0  0  0  0  0  0  0
   -9.1562   17.0152  -31.6748 H   0  0  0  0  0  0  0  0  0  0  0  0
   -6.8310   16.4233  -32.3451 H   0  0  0  0  0  0  0  0  0  0  0  0
   -5.2539   18.2015  -33.0873 H   0  0  0  0  0  0  0  0  0  0  0  0
   -2.5476   22.8291  -30.8685 H   0  0  0  0  0  0  0  0  0  0  0  0
    0.4624   22.2617  -28.6140 H   0  0  0  0  0  0  0  0  0  0  0  0
   -0.2082   19.8976  -27.7426 H   0  0  0  0  0  0  0  0  0  0  0  0
   -2.9257   19.4421  -25.8856 H   0  0  0  0  0  0  0  0  0  0  0  0
   -3.9856   19.3835  -27.3347 H   0  0  0  0  0  0  0  0  0  0  0  0
   -2.4151   18.5116  -27.3347 H   0  0  0  0  0  0  0  0  0  0  0  0
   -4.9709   26.2283  -29.7477 H   0  0  0  0  0  0  0  0  0  0  0  0
   -6.7900   25.4302  -31.2431 H   0  0  0  0  0  0  0  0  0  0  0  0
   -6.7720   22.4060  -33.2390 H   0  0  0  0  0  0  0  0  0  0  0  0
  1  2  1  0
  2  3  1  0
  3  4  2  0
  4  5  1  0
  5  6  2  0
  6  7  1  0
  7  8  2  0
  8  9  1  0
  9 10  1  0
 10 11  2  0
 10 12  2  0
 10 13  1  0
 13 14  2  0
 14 15  1  0
 15 16  1  0
 16 17  1  0
 17 18  2  0
 17 19  1  0
 19 20  2  0
 20 21  1  0
 21 22  2  0
 22 23  1  0
 22 24  1  0
 15 25  2  0
 25 26  1  0
 26 27  2  0
 27 28  1  0
  8  3  1  0
 27 13  1  0
 24 19  1  0
  1 29  1  0
  1 30  1  0
  1 31  1  0
  4 32  1  0
  5 33  1  0
  6 34  1  0
  7 35  1  0
 14 36  1  0
 20 37  1  0
 21 38  1  0
 23 39  1  0
 23 40  1  0
 23 41  1  0
 25 42  1  0
 26 43  1  0
 28 44  1  0
M  CHG  2   9  -1  16  -1
M  END
>  <UniqueID>  (34) 
32

>  <SMILES>  (34) 
COc1ccccc1[N-]S(=O)(=O)c1cc([N-]C(=O)c2ccc(C)s2)ccc1O

>  <Energy>  (34) 
83.07323411570627

>  <Genealogy>  (34) 
COc1ccccc1[N-]S(=O)(=O)c1cc([N-]C(=O)c2ccc(C)s2)ccc1O (protonated)
COc1ccccc1[N-]S(=O)(=O)c1cc([N-]C(=O)c2ccc(C)s2)ccc1O (3D coordinates assigned)
COc1ccccc1[N-]S(=O)(=O)c1cc([N-]C(=O)c2ccc(C)s2)ccc1O (optimized conformer: 83.07323411570627 kcal/mol)

>  <smiles>  (34) 
COc1ccccc1NS(=O)(=O)c1cc(NC(=O)c2ccc(C)s2)ccc1O

>  <score_type>  (34) 
oracle

>  <origin>  (34) 
adgpu

>  <m_score__min__energy>  (34) 
-10.279999999999999

>  <m_primary>  (34) 
energy

$$$$
34:0
     RDKit          3D

 38 40  0  0  0  0  0  0  0  0999 V2000
   -2.6380   21.1650  -32.6190 C   0  0  0  0  0  0  0  0  0  0  0  0
   -2.4590   22.3000  -31.7780 O   0  0  0  0  0  0  0  0  0  0  0  0
   -2.6150   22.2910  -30.3820 C   0  0  0  0  0  0  0  0  0  0  0  0
   -1.6820   21.6570  -29.5360 C   0  0  0  0  0  0  0  0  0  0  0  0
   -1.8650   21.6660  -28.1530 C   0  0  0  0  0  0  0  0  0  0  0  0
   -2.9730   22.3020  -27.5970 C   0  0  0  0  0  0  0  0  0  0  0  0
   -3.9060   22.9340  -28.4230 C   0  0  0  0  0  0  0  0  0  0  0  0
   -3.7340   22.9340  -29.8180 C   0  0  0  0  0  0  0  0  0  0  0  0
   -4.9120   23.7320  -30.8670 S   0  0  0  0  0  0  0  0  0  0  0  0
   -4.7740   23.1820  -32.2590 O   0  0  0  0  0  0  0  0  0  0  0  0
   -4.6260   25.2090  -30.8840 O   0  0  0  0  0  0  0  0  0  0  0  0
   -6.5950   23.4830  -30.3180 C   0  0  0  0  0  0  0  0  0  0  0  0
   -7.2520   22.4230  -31.1370 C   0  0  0  0  0  0  0  0  0  0  0  0
   -6.5920   21.3650  -31.6550 N   0  0  0  0  0  0  0  0  0  0  0  0
   -7.4230   20.5040  -32.3090 C   0  0  0  0  0  0  0  0  0  0  0  0
   -6.9040   19.2690  -32.9520 C   0  0  0  0  0  0  0  0  0  0  0  0
   -7.2530   17.9880  -32.4800 C   0  0  0  0  0  0  0  0  0  0  0  0
   -6.7540   16.8400  -33.1040 C   0  0  0  0  0  0  0  0  0  0  0  0
   -5.9040   16.9530  -34.2040 C   0  0  0  0  0  0  0  0  0  0  0  0
   -5.5530   18.2150  -34.6870 C   0  0  0  0  0  0  0  0  0  0  0  0
   -6.0500   19.3660  -34.0690 C   0  0  0  0  0  0  0  0  0  0  0  0
   -8.7700   20.8800  -32.2920 C   0  0  0  0  0  0  0  0  0  0  0  0
   -8.9000   22.3230  -31.4380 S   0  0  0  0  0  0  0  0  0  0  0  0
   -2.7795   20.2677  -31.9987 H   0  0  0  0  0  0  0  0  0  0  0  0
   -3.5236   21.3152  -33.2540 H   0  0  0  0  0  0  0  0  0  0  0  0
   -1.7492   21.0353  -33.2540 H   0  0  0  0  0  0  0  0  0  0  0  0
   -0.8054   21.1527  -29.9687 H   0  0  0  0  0  0  0  0  0  0  0  0
   -1.1324   21.1696  -27.4996 H   0  0  0  0  0  0  0  0  0  0  0  0
   -3.1134   22.3066  -26.5060 H   0  0  0  0  0  0  0  0  0  0  0  0
   -4.7795   23.4341  -27.9793 H   0  0  0  0  0  0  0  0  0  0  0  0
   -6.5911   23.1760  -29.2617 H   0  0  0  0  0  0  0  0  0  0  0  0
   -7.1533   24.4237  -30.4333 H   0  0  0  0  0  0  0  0  0  0  0  0
   -7.9235   17.8900  -31.6135 H   0  0  0  0  0  0  0  0  0  0  0  0
   -7.0327   15.8452  -32.7261 H   0  0  0  0  0  0  0  0  0  0  0  0
   -5.5104   16.0484  -34.6907 H   0  0  0  0  0  0  0  0  0  0  0  0
   -4.8840   18.3037  -35.5556 H   0  0  0  0  0  0  0  0  0  0  0  0
   -5.7720   20.3567  -34.4580 H   0  0  0  0  0  0  0  0  0  0  0  0
   -9.6002   20.3278  -32.7565 H   0  0  0  0  0  0  0  0  0  0  0  0
  1  2  1  0
  2  3  1  0
  3  4  2  0
  4  5  1  0
  5  6  2  0
  6  7  1  0
  7  8  2  0
  8  9  1  0
  9 10  2  0
  9 11  2  0
  9 12  1  0
 12 13  1  0
 13 14  2  0
 14 15  1  0
 15 16  1  0
 16 17  2  0
 17 18  1  0
 18 19  2  0
 19 20  1  0
 20 21  2  0
 15 22  2  0
 22 23  1  0
  8  3  1  0
 23 13  1  0
 21 16  1  0
  1 24  1  0
  1 25  1  0
  1 26  1  0
  4 27  1  0
  5 28  1  0
  6 29  1  0
  7 30  1  0
 12 31  1  0
 12 32  1  0
 17 33  1  0
 18 34  1  0
 19 35  1  0
 20 36  1  0
 21 37  1  0
 22 38  1  0
M  END
>  <UniqueID>  (35) 
33

>  <SMILES>  (35) 
COc1ccccc1S(=O)(=O)Cc1nc(-c2ccccc2)cs1

>  <Energy>  (35) 
69.11356863195434

>  <Genealogy>  (35) 
COc1ccccc1S(=O)(=O)Cc1nc(-c2ccccc2)cs1 (3D coordinates assigned)
COc1ccccc1S(=O)(=O)Cc1nc(-c2ccccc2)cs1 (optimized conformer: 69.11356863195434 kcal/mol)

>  <smiles>  (35) 
COc1ccccc1S(=O)(=O)Cc1nc(-c2ccccc2)cs1

>  <score_type>  (35) 
oracle

>  <origin>  (35) 
adgpu

>  <m_score__min__energy>  (35) 
-9.0800000000000001

>  <m_primary>  (35) 
energy

$$$$
35:0
     RDKit          3D

 40 41  0  0  0  0  0  0  0  0999 V2000
   -6.2870   16.0230  -33.8520 C   0  0  0  0  0  0  0  0  0  0  0  0
   -7.2480   17.0740  -33.8300 O   0  0  0  0  0  0  0  0  0  0  0  0
   -7.0890   18.2820  -33.1330 C   0  0  0  0  0  0  0  0  0  0  0  0
   -8.0020   18.7020  -32.1470 C   0  0  0  0  0  0  0  0  0  0  0  0
   -7.8110   19.9110  -31.4750 C   0  0  0  0  0  0  0  0  0  0  0  0
   -6.7030   20.7160  -31.7670 C   0  0  0  0  0  0  0  0  0  0  0  0
   -6.5180   22.0350  -31.0590 C   0  0  0  0  0  0  0  0  0  0  0  0
   -5.3140   22.7740  -31.5810 C   0  0  0  0  0  0  0  0  0  0  0  0
   -5.3730   23.3450  -32.7040 O   0  0  0  0  0  0  0  0  0  0  0  0
   -4.1100   22.9650  -30.7410 C   0  0  0  0  0  0  0  0  0  0  0  0
   -3.4180   21.8340  -30.2650 C   0  0  0  0  0  0  0  0  0  0  0  0
   -3.8610   20.5510  -30.5900 O   0  0  0  0  0  0  0  0  0  0  0  0
   -2.2770   21.9940  -29.4730 C   0  0  0  0  0  0  0  0  0  0  0  0
   -1.8160   23.2680  -29.1550 C   0  0  0  0  0  0  0  0  0  0  0  0
   -2.4940   24.4020  -29.6080 C   0  0  0  0  0  0  0  0  0  0  0  0
   -1.9930   25.6480  -29.2530 O   0  0  0  0  0  0  0  0  0  0  0  0
   -3.6610   24.2630  -30.4020 C   0  0  0  0  0  0  0  0  0  0  0  0
   -4.4170   25.3610  -30.8550 O   0  0  0  0  0  0  0  0  0  0  0  0
   -5.7300   25.7150  -30.4340 C   0  0  0  0  0  0  0  0  0  0  0  0
   -5.7940   20.3040  -32.7520 C   0  0  0  0  0  0  0  0  0  0  0  0
   -5.9810   19.0870  -33.4380 C   0  0  0  0  0  0  0  0  0  0  0  0
   -5.0890   18.6470  -34.4290 O   0  0  0  0  0  0  0  0  0  0  0  0
   -3.6920   18.4570  -34.2320 C   0  0  0  0  0  0  0  0  0  0  0  0
   -6.0288   15.7406  -32.8207 H   0  0  0  0  0  0  0  0  0  0  0  0
   -6.7078   15.1523  -34.3761 H   0  0  0  0  0  0  0  0  0  0  0  0
   -5.3822   16.3644  -34.3761 H   0  0  0  0  0  0  0  0  0  0  0  0
   -8.8716   18.0735  -31.9044 H   0  0  0  0  0  0  0  0  0  0  0  0
   -8.5350   20.2329  -30.7119 H   0  0  0  0  0  0  0  0  0  0  0  0
   -7.4137   22.6541  -31.2155 H   0  0  0  0  0  0  0  0  0  0  0  0
   -6.3644   21.8350  -29.9883 H   0  0  0  0  0  0  0  0  0  0  0  0
   -3.2730   19.8980  -31.0930 H   0  0  0  0  0  0  0  0  0  0  0  0
   -1.7412   21.1089  -29.0995 H   0  0  0  0  0  0  0  0  0  0  0  0
   -0.9101   23.3829  -28.5417 H   0  0  0  0  0  0  0  0  0  0  0  0
   -5.7721   25.7263  -29.3349 H   0  0  0  0  0  0  0  0  0  0  0  0
   -5.9825   26.7133  -30.8209 H   0  0  0  0  0  0  0  0  0  0  0  0
   -6.4501   24.9789  -30.8209 H   0  0  0  0  0  0  0  0  0  0  0  0
   -4.9266   20.9367  -32.9916 H   0  0  0  0  0  0  0  0  0  0  0  0
   -3.4744   18.4274  -33.1541 H   0  0  0  0  0  0  0  0  0  0  0  0
   -3.3821   17.5084  -34.6948 H   0  0  0  0  0  0  0  0  0  0  0  0
   -3.1400   19.2883  -34.6948 H   0  0  0  0  0  0  0  0  0  0  0  0
  1  2  1  0
  2  3  1  0
  3  4  2  0
  4  5  1  0
  5  6  2  0
  6  7  1  0
  7  8  1  0
  8  9  2  0
  8 10  1  0
 10 11  2  0
 11 12  1  0
 11 13  1  0
 13 14  2  0
 14 15  1  0
 15 16  1  0
 15 17  2  0
 17 18  1  0
 18 19  1  0
  6 20  1  0
 20 21  2  0
 21 22  1  0
 22 23  1  0
 21  3  1  0
 17 10  1  0
  1 24  1  0
  1 25  1  0
  1 26  1  0
  4 27  1  0
  5 28  1  0
  7 29  1  0
  7 30  1  0
 12 31  1  0
 13 32  1  0
 14 33  1  0
 19 34  1  0
 19 35  1  0
 19 36  1  0
 20 37  1  0
 23 38  1  0
 23 39  1  0
 23 40  1  0
M  CHG  1  16  -1
M  END
>  <UniqueID>  (36) 
34

>  <SMILES>  (36) 
COc1ccc(CC(=O)c2c(O)ccc([O-])c2OC)cc1OC

>  <Energy>  (36) 
46.50744653565649

>  <Genealogy>  (36) 
COc1ccc(CC(=O)c2c(O)ccc([O-])c2OC)cc1OC (protonated)
COc1ccc(CC(=O)c2c(O)ccc([O-])c2OC)cc1OC (3D coordinates assigned)
COc1ccc(CC(=O)c2c(O)ccc([O-])c2OC)cc1OC (optimized conformer: 46.50744653565649 kcal/mol)

>  <smiles>  (36) 
COc1ccc(CC(=O)c2c(O)ccc(O)c2OC)cc1OC

>  <score_type>  (36) 
oracle

>  <origin>  (36) 
adgpu

>  <m_score__min__energy>  (36) 
-9.6300000000000008

>  <m_primary>  (36) 
energy

$$$$
36:0
     RDKit          3D

 48 50  0  0  0  0  0  0  0  0999 V2000
   -8.6910   19.0340  -32.3530 C   0  0  0  0  0  0  0  0  0  0  0  0
   -7.8450   20.2640  -32.2170 C   0  0  0  0  0  0  0  0  0  0  0  0
   -8.4280   21.4870  -31.8620 C   0  0  0  0  0  0  0  0  0  0  0  0
   -7.6460   22.6430  -31.7720 C   0  0  0  0  0  0  0  0  0  0  0  0
   -6.2660   22.5930  -32.0490 C   0  0  0  0  0  0  0  0  0  0  0  0
   -5.4420   23.7300  -31.9700 O   0  0  0  0  0  0  0  0  0  0  0  0
   -5.7670   24.9360  -31.2800 C   0  0  0  0  0  0  0  0  0  0  0  0
   -4.9710   25.0470  -30.0100 C   0  0  0  0  0  0  0  0  0  0  0  0
   -5.5760   25.2410  -28.9240 O   0  0  0  0  0  0  0  0  0  0  0  0
   -3.5380   24.9950  -30.0040 N   0  0  0  0  0  0  0  0  0  0  0  0
   -2.7280   23.8940  -29.5700 C   0  0  0  0  0  0  0  0  0  0  0  0
   -3.3190   22.6360  -29.4210 C   0  0  0  0  0  0  0  0  0  0  0  0
   -2.5530   21.5360  -29.0240 C   0  0  0  0  0  0  0  0  0  0  0  0
   -1.1730   21.6720  -28.7960 C   0  0  0  0  0  0  0  0  0  0  0  0
   -0.3760   20.4960  -28.3690 C   0  0  0  0  0  0  0  0  0  0  0  0
    0.0590   20.4490  -27.1860 O   0  0  0  0  0  0  0  0  0  0  0  0
   -0.0910   19.4190  -29.2800 N   0  0  0  0  0  0  0  0  0  0  0  0
    0.6780   18.2630  -28.9110 C   0  0  0  0  0  0  0  0  0  0  0  0
    1.8290   17.9200  -29.6430 C   0  0  0  0  0  0  0  0  0  0  0  0
    2.6120   16.8280  -29.2630 C   0  0  0  0  0  0  0  0  0  0  0  0
    2.2610   16.0730  -28.1440 C   0  0  0  0  0  0  0  0  0  0  0  0
    1.1270   16.4080  -27.4010 C   0  0  0  0  0  0  0  0  0  0  0  0
    0.3280   17.5000  -27.7740 C   0  0  0  0  0  0  0  0  0  0  0  0
   -0.8470   17.8020  -27.0090 N   0  0  0  0  0  0  0  0  0  0  0  0
   -0.5790   22.9370  -28.9630 C   0  0  0  0  0  0  0  0  0  0  0  0
   -1.3480   24.0340  -29.3580 C   0  0  0  0  0  0  0  0  0  0  0  0
   -5.6890   21.3690  -32.4240 C   0  0  0  0  0  0  0  0  0  0  0  0
   -3.8210   21.2570  -32.8230 Br  0  0  0  0  0  0  0  0  0  0  0  0
   -6.4740   20.2150  -32.5140 C   0  0  0  0  0  0  0  0  0  0  0  0
   -8.9513   18.6556  -31.3535 H   0  0  0  0  0  0  0  0  0  0  0  0
   -9.6113   19.2809  -32.9027 H   0  0  0  0  0  0  0  0  0  0  0  0
   -8.1313   18.2629  -32.9027 H   0  0  0  0  0  0  0  0  0  0  0  0
   -9.5067   21.5386  -31.6529 H   0  0  0  0  0  0  0  0  0  0  0  0
   -8.1115   23.5969  -31.4832 H   0  0  0  0  0  0  0  0  0  0  0  0
   -5.5384   25.7959  -31.9268 H   0  0  0  0  0  0  0  0  0  0  0  0
   -6.8378   24.9244  -31.0287 H   0  0  0  0  0  0  0  0  0  0  0  0
   -4.3940   22.5108  -29.6175 H   0  0  0  0  0  0  0  0  0  0  0  0
   -3.0343   20.5562  -28.8890 H   0  0  0  0  0  0  0  0  0  0  0  0
   -0.4620   19.4580  -30.2540 H   0  0  0  0  0  0  0  0  0  0  0  0
    2.1147   18.5167  -30.5218 H   0  0  0  0  0  0  0  0  0  0  0  0
    3.5061   16.5631  -29.8465 H   0  0  0  0  0  0  0  0  0  0  0  0
    2.8782   15.2125  -27.8463 H   0  0  0  0  0  0  0  0  0  0  0  0
    0.8579   15.8116  -26.5168 H   0  0  0  0  0  0  0  0  0  0  0  0
   -1.2730   17.1090  -26.3560 H   0  0  0  0  0  0  0  0  0  0  0  0
   -1.2800   18.7510  -27.0570 H   0  0  0  0  0  0  0  0  0  0  0  0
    0.4986   23.0626  -28.7811 H   0  0  0  0  0  0  0  0  0  0  0  0
   -0.8690   25.0135  -29.5038 H   0  0  0  0  0  0  0  0  0  0  0  0
   -6.0143   19.2634  -32.8193 H   0  0  0  0  0  0  0  0  0  0  0  0
  1  2  1  0
  2  3  2  0
  3  4  1  0
  4  5  2  0
  5  6  1  0
  6  7  1  0
  7  8  1  0
  8  9  2  0
  8 10  1  0
 10 11  1  0
 11 12  2  0
 12 13  1  0
 13 14  2  0
 14 15  1  0
 15 16  2  0
 15 17  1  0
 17 18  1  0
 18 19  2  0
 19 20  1  0
 20 21  2  0
 21 22  1  0
 22 23  2  0
 23 24  1  0
 14 25  1  0
 25 26  2  0
  5 27  1  0
 27 28  1  0
 27 29  2  0
 29  2  1  0
 26 11  1  0
 23 18  1  0
  1 30  1  0
  1 31  1  0
  1 32  1  0
  3 33  1  0
  4 34  1  0
  7 35  1  0
  7 36  1  0
 12 37  1  0
 13 38  1  0
 17 39  1  0
 19 40  1  0
 20 41  1  0
 21 42  1  0
 22 43  1  0
 24 44  1  0
 24 45  1  0
 25 46  1  0
 26 47  1  0
 29 48  1  0
M  CHG  1  10  -1
M  END
>  <UniqueID>  (37) 
35

>  <SMILES>  (37) 
Cc1ccc(OCC(=O)[N-]c2ccc(C(=O)Nc3ccccc3N)cc2)c(Br)c1

>  <Energy>  (37) 
61.607353558265956

>  <Genealogy>  (37) 
Cc1ccc(OCC(=O)[N-]c2ccc(C(=O)Nc3ccccc3N)cc2)c(Br)c1 (protonated)
Cc1ccc(OCC(=O)[N-]c2ccc(C(=O)Nc3ccccc3N)cc2)c(Br)c1 (3D coordinates assigned)
Cc1ccc(OCC(=O)[N-]c2ccc(C(=O)Nc3ccccc3N)cc2)c(Br)c1 (optimized conformer: 61.607353558265956 kcal/mol)

>  <smiles>  (37) 
Cc1ccc(OCC(=O)Nc2ccc(C(=O)Nc3ccccc3N)cc2)c(Br)c1

>  <score_type>  (37) 
oracle

>  <origin>  (37) 
adgpu

>  <m_score__min__energy>  (37) 
-10.050000000000001

>  <m_primary>  (37) 
energy

$$$$
37:0
     RDKit          3D

 50 53  0  0  0  0  0  0  0  0999 V2000
   -4.2380   24.0220  -27.6810 C   0  0  0  0  0  0  0  0  0  0  0  0
   -3.7580   23.6910  -29.0210 N   0  0  0  0  0  0  0  0  0  0  0  0
   -2.5430   23.1870  -29.3450 C   0  0  0  0  0  0  0  0  0  0  0  0
   -1.4690   22.7950  -28.3720 C   0  0  0  0  0  0  0  0  0  0  0  0
   -1.8120   21.5340  -27.7160 N   0  0  0  0  0  0  0  0  0  0  0  0
   -1.2620   21.0280  -26.6000 C   0  0  0  0  0  0  0  0  0  0  0  0
   -1.8950   19.8370  -26.3220 C   0  0  0  0  0  0  0  0  0  0  0  0
   -2.8440   19.6000  -27.2530 N   0  0  0  0  0  0  0  0  0  0  0  0
   -2.7670   20.6580  -28.0870 C   0  0  0  0  0  0  0  0  0  0  0  0
   -2.4300   22.9810  -30.6670 N   0  0  0  0  0  0  0  0  0  0  0  0
   -3.5730   23.3610  -31.2150 N   0  0  0  0  0  0  0  0  0  0  0  0
   -4.3800   23.7970  -30.2250 C   0  0  0  0  0  0  0  0  0  0  0  0
   -5.8150   24.2080  -30.5320 C   0  0  1  0  0  0  0  0  0  0  0  0
   -6.1210   24.2030  -32.0450 C   0  0  0  0  0  0  0  0  0  0  0  0
   -6.8420   22.9360  -32.5050 C   0  0  0  0  0  0  0  0  0  0  0  0
   -8.0660   22.7120  -31.7080 N   0  0  1  0  0  0  0  0  0  0  0  0
   -8.9230   21.6480  -32.2890 C   0  0  0  0  0  0  0  0  0  0  0  0
   -8.2570   20.2880  -32.3660 C   0  0  0  0  0  0  0  0  0  0  0  0
   -8.6600   19.2480  -31.5090 C   0  0  0  0  0  0  0  0  0  0  0  0
   -8.0590   17.9890  -31.5970 C   0  0  0  0  0  0  0  0  0  0  0  0
   -7.0500   17.7540  -32.5350 C   0  0  0  0  0  0  0  0  0  0  0  0
   -6.4790   16.5270  -32.6160 F   0  0  0  0  0  0  0  0  0  0  0  0
   -6.6310   18.7880  -33.3820 C   0  0  0  0  0  0  0  0  0  0  0  0
   -5.3580   18.5100  -34.5600 Cl  0  0  0  0  0  0  0  0  0  0  0  0
   -7.2270   20.0510  -33.2930 C   0  0  0  0  0  0  0  0  0  0  0  0
   -7.7270   22.4420  -30.2950 C   0  0  0  0  0  0  0  0  0  0  0  0
   -6.9340   23.5980  -29.6510 C   0  0  0  0  0  0  0  0  0  0  0  0
   -3.5756   23.5652  -26.9310 H   0  0  0  0  0  0  0  0  0  0  0  0
   -4.2400   25.1144  -27.5517 H   0  0  0  0  0  0  0  0  0  0  0  0
   -5.2597   23.6356  -27.5517 H   0  0  0  0  0  0  0  0  0  0  0  0
   -0.5174   22.6763  -28.9108 H   0  0  0  0  0  0  0  0  0  0  0  0
   -1.3750   23.5809  -27.6081 H   0  0  0  0  0  0  0  0  0  0  0  0
   -0.4509   21.4835  -26.0130 H   0  0  0  0  0  0  0  0  0  0  0  0
   -1.6630   19.1792  -25.4714 H   0  0  0  0  0  0  0  0  0  0  0  0
   -3.4104   20.7905  -28.9693 H   0  0  0  0  0  0  0  0  0  0  0  0
   -5.8483   25.2567  -30.2016 H   0  0  0  0  0  0  0  0  0  0  0  0
   -5.1718   24.2852  -32.5948 H   0  0  0  0  0  0  0  0  0  0  0  0
   -6.7886   25.0533  -32.2482 H   0  0  0  0  0  0  0  0  0  0  0  0
   -6.1696   22.0739  -32.3838 H   0  0  0  0  0  0  0  0  0  0  0  0
   -7.1250   23.0543  -33.5614 H   0  0  0  0  0  0  0  0  0  0  0  0
   -8.6360   23.5920  -31.7350 H   0  0  0  0  0  0  0  0  0  0  0  0
   -9.8265   21.5553  -31.6685 H   0  0  0  0  0  0  0  0  0  0  0  0
   -9.1460   21.9503  -33.3229 H   0  0  0  0  0  0  0  0  0  0  0  0
   -9.4516   19.4262  -30.7663 H   0  0  0  0  0  0  0  0  0  0  0  0
   -8.3816   17.1799  -30.9252 H   0  0  0  0  0  0  0  0  0  0  0  0
   -6.8875   20.8633  -33.9524 H   0  0  0  0  0  0  0  0  0  0  0  0
   -7.1197   21.5262  -30.2459 H   0  0  0  0  0  0  0  0  0  0  0  0
   -8.6694   22.3300  -29.7387 H   0  0  0  0  0  0  0  0  0  0  0  0
   -6.4707   23.2189  -28.7282 H   0  0  0  0  0  0  0  0  0  0  0  0
   -7.6605   24.4063  -29.4812 H   0  0  0  0  0  0  0  0  0  0  0  0
  1  2  1  0
  2  3  1  0
  3  4  1  0
  4  5  1  0
  5  6  1  0
  6  7  2  0
  7  8  1  0
  8  9  2  0
  3 10  2  0
 10 11  1  0
 11 12  2  0
 12 13  1  0
 13 14  1  0
 14 15  1  0
 15 16  1  0
 16 17  1  0
 17 18  1  0
 18 19  2  0
 19 20  1  0
 20 21  2  0
 21 22  1  0
 21 23  1  0
 23 24  1  0
 23 25  2  0
 16 26  1  0
 26 27  1  0
 12  2  1  0
 27 13  1  0
  9  5  1  0
 25 18  1  0
  1 28  1  0
  1 29  1  0
  1 30  1  0
  4 31  1  0
  4 32  1  0
  6 33  1  0
  7 34  1  0
  9 35  1  0
 13 36  1  1
 14 37  1  0
 14 38  1  0
 15 39  1  0
 15 40  1  0
 16 41  1  1
 17 42  1  0
 17 43  1  0
 19 44  1  0
 20 45  1  0
 25 46  1  0
 26 47  1  0
 26 48  1  0
 27 49  1  0
 27 50  1  0
M  CHG  1  16   1
M  END
>  <UniqueID>  (38) 
36

>  <SMILES>  (38) 
Cn1c(Cn2ccnc2)nnc1C1CC[NH+](Cc2ccc(F)c(Cl)c2)CC1

>  <Energy>  (38) 
126.66755255196271

>  <Genealogy>  (38) 
Cn1c(Cn2ccnc2)nnc1C1CC[NH+](Cc2ccc(F)c(Cl)c2)CC1 (protonated)
Cn1c(Cn2ccnc2)nnc1C1CC[NH+](Cc2ccc(F)c(Cl)c2)CC1 (3D coordinates assigned)
Cn1c(Cn2ccnc2)nnc1C1CC[NH+](Cc2ccc(F)c(Cl)c2)CC1 (nonaromatic ring conformer: 126.66755255196271 kcal/mol)

>  <smiles>  (38) 
Cn1c(Cn2ccnc2)nnc1C1CCN(Cc2ccc(F)c(Cl)c2)CC1

>  <score_type>  (38) 
oracle

>  <origin>  (38) 
adgpu

>  <m_score__min__energy>  (38) 
-8.2100000000000009

>  <m_primary>  (38) 
energy

$$$$
38:0
     RDKit          3D

 55 58  0  0  0  0  0  0  0  0999 V2000
    1.4960   23.5320  -35.7240 C   0  0  0  0  0  0  0  0  0  0  0  0
    0.6410   22.6740  -34.9800 O   0  0  0  0  0  0  0  0  0  0  0  0
    0.5230   21.2900  -35.1850 C   0  0  0  0  0  0  0  0  0  0  0  0
    0.7790   20.6990  -36.4400 C   0  0  0  0  0  0  0  0  0  0  0  0
    0.6500   19.3190  -36.6120 C   0  0  0  0  0  0  0  0  0  0  0  0
    0.2570   18.5130  -35.5460 C   0  0  0  0  0  0  0  0  0  0  0  0
   -0.0010   19.0820  -34.3000 C   0  0  0  0  0  0  0  0  0  0  0  0
    0.1330   20.4690  -34.1060 C   0  0  0  0  0  0  0  0  0  0  0  0
   -0.1670   21.0570  -32.7470 C   0  0  0  0  0  0  0  0  0  0  0  0
    0.1360   20.1320  -31.6590 N   0  0  0  0  0  0  0  0  0  0  0  0
   -0.0020   20.4180  -30.2600 C   0  0  0  0  0  0  0  0  0  0  0  0
    0.7710   19.8760  -29.4240 O   0  0  0  0  0  0  0  0  0  0  0  0
   -1.0530   21.3460  -29.7930 C   0  0  0  0  0  0  0  0  0  0  0  0
   -2.2040   20.8600  -29.1500 C   0  0  0  0  0  0  0  0  0  0  0  0
   -3.1630   21.7450  -28.6470 C   0  0  0  0  0  0  0  0  0  0  0  0
   -2.9590   23.1370  -28.7260 C   0  0  0  0  0  0  0  0  0  0  0  0
   -3.9430   24.1400  -28.1600 C   0  0  0  0  0  0  0  0  0  0  0  0
   -5.2660   24.0650  -28.7920 N   0  0  0  0  0  0  0  0  0  0  0  0
   -5.1480   24.5010  -30.4720 S   0  0  0  0  0  0  0  0  0  0  0  0
   -6.3430   25.3440  -30.8310 O   0  0  0  0  0  0  0  0  0  0  0  0
   -3.8990   25.2990  -30.7440 O   0  0  0  0  0  0  0  0  0  0  0  0
   -5.1300   23.0210  -31.4450 C   0  0  0  0  0  0  0  0  0  0  0  0
   -3.9070   22.5830  -31.9810 C   0  0  0  0  0  0  0  0  0  0  0  0
   -3.8450   21.4490  -32.7840 C   0  0  0  0  0  0  0  0  0  0  0  0
   -4.9990   20.7260  -33.0670 C   0  0  0  0  0  0  0  0  0  0  0  0
   -6.2320   21.1290  -32.5340 C   0  0  0  0  0  0  0  0  0  0  0  0
   -7.3950   20.3840  -32.7960 C   0  0  0  0  0  0  0  0  0  0  0  0
   -8.5830   20.7530  -32.2500 N   0  0  0  0  0  0  0  0  0  0  0  0
   -8.6900   21.8420  -31.4490 C   0  0  0  0  0  0  0  0  0  0  0  0
   -7.5680   22.6290  -31.1730 C   0  0  0  0  0  0  0  0  0  0  0  0
   -6.3100   22.2770  -31.7090 C   0  0  0  0  0  0  0  0  0  0  0  0
   -1.8280   23.6180  -29.3990 C   0  0  0  0  0  0  0  0  0  0  0  0
   -0.8820   22.7350  -29.9240 C   0  0  0  0  0  0  0  0  0  0  0  0
    2.0997   24.1378  -35.0322 H   0  0  0  0  0  0  0  0  0  0  0  0
    2.1612   22.9271  -36.3578 H   0  0  0  0  0  0  0  0  0  0  0  0
    0.8888   24.1950  -36.3578 H   0  0  0  0  0  0  0  0  0  0  0  0
    1.0823   21.3293  -37.2890 H   0  0  0  0  0  0  0  0  0  0  0  0
    0.8595   18.8670  -37.5927 H   0  0  0  0  0  0  0  0  0  0  0  0
    0.1503   17.4274  -35.6875 H   0  0  0  0  0  0  0  0  0  0  0  0
   -0.3119   18.4414  -33.4616 H   0  0  0  0  0  0  0  0  0  0  0  0
    0.4369   21.9669  -32.6151 H   0  0  0  0  0  0  0  0  0  0  0  0
   -1.2440   21.2776  -32.7083 H   0  0  0  0  0  0  0  0  0  0  0  0
   -2.3519   19.7754  -29.0415 H   0  0  0  0  0  0  0  0  0  0  0  0
   -4.0818   21.3522  -28.1871 H   0  0  0  0  0  0  0  0  0  0  0  0
   -4.0578   23.9490  -27.0828 H   0  0  0  0  0  0  0  0  0  0  0  0
   -3.5401   25.1442  -28.3583 H   0  0  0  0  0  0  0  0  0  0  0  0
   -5.8990   24.7720  -28.3460 H   0  0  0  0  0  0  0  0  0  0  0  0
   -2.9866   23.1444  -31.7626 H   0  0  0  0  0  0  0  0  0  0  0  0
   -2.8792   21.1226  -33.1970 H   0  0  0  0  0  0  0  0  0  0  0  0
   -4.9444   19.8356  -33.7107 H   0  0  0  0  0  0  0  0  0  0  0  0
   -7.3429   19.4982  -33.4461 H   0  0  0  0  0  0  0  0  0  0  0  0
   -9.6649   22.1075  -31.0141 H   0  0  0  0  0  0  0  0  0  0  0  0
   -7.6652   23.5222  -30.5384 H   0  0  0  0  0  0  0  0  0  0  0  0
   -1.6838   24.7023  -29.5150 H   0  0  0  0  0  0  0  0  0  0  0  0
    0.0035   23.1294  -30.4439 H   0  0  0  0  0  0  0  0  0  0  0  0
  1  2  1  0
  2  3  1  0
  3  4  2  0
  4  5  1  0
  5  6  2  0
  6  7  1  0
  7  8  2  0
  8  9  1  0
  9 10  1  0
 10 11  1  0
 11 12  2  0
 11 13  1  0
 13 14  2  0
 14 15  1  0
 15 16  2  0
 16 17  1  0
 17 18  1  0
 18 19  1  0
 19 20  2  0
 19 21  2  0
 19 22  1  0
 22 23  2  0
 23 24  1  0
 24 25  2  0
 25 26  1  0
 26 27  2  0
 27 28  1  0
 28 29  2  0
 29 30  1  0
 30 31  2  0
 16 32  1  0
 32 33  2  0
  8  3  1  0
 33 13  1  0
 31 22  1  0
 31 26  1  0
  1 34  1  0
  1 35  1  0
  1 36  1  0
  4 37  1  0
  5 38  1  0
  6 39  1  0
  7 40  1  0
  9 41  1  0
  9 42  1  0
 14 43  1  0
 15 44  1  0
 17 45  1  0
 17 46  1  0
 18 47  1  0
 23 48  1  0
 24 49  1  0
 25 50  1  0
 27 51  1  0
 29 52  1  0
 30 53  1  0
 32 54  1  0
 33 55  1  0
M  CHG  1  10  -1
M  END
>  <UniqueID>  (39) 
37

>  <SMILES>  (39) 
COc1ccccc1C[N-]C(=O)c1ccc(CNS(=O)(=O)c2cccc3cnccc23)cc1

>  <Energy>  (39) 
70.19945691827866

>  <Genealogy>  (39) 
COc1ccccc1C[N-]C(=O)c1ccc(CNS(=O)(=O)c2cccc3cnccc23)cc1 (protonated)
COc1ccccc1C[N-]C(=O)c1ccc(CNS(=O)(=O)c2cccc3cnccc23)cc1 (3D coordinates assigned)
COc1ccccc1C[N-]C(=O)c1ccc(CNS(=O)(=O)c2cccc3cnccc23)cc1 (optimized conformer: 70.19945691827866 kcal/mol)

>  <smiles>  (39) 
COc1ccccc1CNC(=O)c1ccc(CNS(=O)(=O)c2cccc3cnccc23)cc1

>  <score_type>  (39) 
oracle

>  <origin>  (39) 
adgpu

>  <m_score__min__energy>  (39) 
-12.380000000000001

>  <m_primary>  (39) 
energy

$$$$
39:0
     RDKit          3D

 63 67  0  0  0  0  0  0  0  0999 V2000
   -0.1950   21.4700  -36.2900 O   0  0  0  0  0  0  0  0  0  0  0  0
    0.2680   21.4430  -35.1170 C   0  0  0  0  0  0  0  0  0  0  0  0
    1.3650   22.2990  -34.7690 N   0  0  0  0  0  0  0  0  0  0  0  0
    1.7940   23.3850  -35.6030 C   0  0  0  0  0  0  0  0  0  0  0  0
    3.1510   23.5160  -35.9350 C   0  0  0  0  0  0  0  0  0  0  0  0
    3.5750   24.5380  -36.7890 C   0  0  0  0  0  0  0  0  0  0  0  0
    2.6510   25.4530  -37.2960 C   0  0  0  0  0  0  0  0  0  0  0  0
    1.2960   25.3630  -36.9370 C   0  0  0  0  0  0  0  0  0  0  0  0
    0.1410   26.5400  -37.5610 S   0  0  0  0  0  0  0  0  0  0  0  0
    0.3880   26.7080  -39.0360 O   0  0  0  0  0  0  0  0  0  0  0  0
   -1.2660   26.0490  -37.3590 O   0  0  0  0  0  0  0  0  0  0  0  0
    0.3620   28.0720  -36.7450 N   0  0  0  0  0  0  0  0  0  0  0  0
    0.5030   27.8720  -35.2980 C   0  0  0  0  0  0  0  0  0  0  0  0
   -0.8800   27.9830  -34.6680 C   0  0  0  0  0  0  0  0  0  0  0  0
   -1.7470   28.6600  -35.7140 C   0  0  0  0  0  0  0  0  0  0  0  0
   -0.8290   28.9130  -36.9040 C   0  0  0  0  0  0  0  0  0  0  0  0
    0.8730   24.3310  -36.0860 C   0  0  0  0  0  0  0  0  0  0  0  0
   -0.3000   20.4810  -34.1420 C   0  0  0  0  0  0  0  0  0  0  0  0
    0.4620   20.0710  -33.0320 C   0  0  0  0  0  0  0  0  0  0  0  0
   -0.0700   19.1860  -32.0920 C   0  0  0  0  0  0  0  0  0  0  0  0
   -1.3670   18.6950  -32.2450 C   0  0  0  0  0  0  0  0  0  0  0  0
   -2.1340   19.0760  -33.3550 C   0  0  0  0  0  0  0  0  0  0  0  0
   -3.7790   18.4690  -33.5350 S   0  0  0  0  0  0  0  0  0  0  0  0
   -3.8850   17.1360  -32.8490 O   0  0  0  0  0  0  0  0  0  0  0  0
   -4.0800   18.2750  -34.9960 O   0  0  0  0  0  0  0  0  0  0  0  0
   -4.9180   19.5870  -32.8190 N   0  0  0  0  0  0  0  0  0  0  0  0
   -4.4120   20.9650  -32.9630 C   0  0  0  0  0  0  0  0  0  0  0  0
   -5.3880   22.0210  -32.3960 C   0  0  0  0  0  0  0  0  0  0  0  0
   -6.8080   21.5330  -32.2280 C   0  0  0  0  0  0  0  0  0  0  0  0
   -7.7330   22.3180  -31.5200 C   0  0  0  0  0  0  0  0  0  0  0  0
   -9.0650   21.9080  -31.4020 C   0  0  0  0  0  0  0  0  0  0  0  0
   -9.4930   20.7350  -32.0220 C   0  0  0  0  0  0  0  0  0  0  0  0
   -8.5810   19.9470  -32.7320 C   0  0  0  0  0  0  0  0  0  0  0  0
   -7.2290   20.3230  -32.8080 C   0  0  0  0  0  0  0  0  0  0  0  0
   -6.2210   19.4480  -33.4930 C   0  0  0  0  0  0  0  0  0  0  0  0
   -1.5970   19.9630  -34.3020 C   0  0  0  0  0  0  0  0  0  0  0  0
    1.9640   22.0460  -33.9500 H   0  0  0  0  0  0  0  0  0  0  0  0
    3.8857   22.8100  -35.5206 H   0  0  0  0  0  0  0  0  0  0  0  0
    4.6374   24.6212  -37.0617 H   0  0  0  0  0  0  0  0  0  0  0  0
    2.9852   26.2476  -37.9793 H   0  0  0  0  0  0  0  0  0  0  0  0
    0.9247   26.8758  -35.0986 H   0  0  0  0  0  0  0  0  0  0  0  0
    1.1776   28.6295  -34.8725 H   0  0  0  0  0  0  0  0  0  0  0  0
   -1.2749   26.9847  -34.4285 H   0  0  0  0  0  0  0  0  0  0  0  0
   -0.8560   28.5516  -33.7267 H   0  0  0  0  0  0  0  0  0  0  0  0
   -2.5810   28.0043  -36.0047 H   0  0  0  0  0  0  0  0  0  0  0  0
   -2.1893   29.5931  -35.3349 H   0  0  0  0  0  0  0  0  0  0  0  0
   -1.3482   28.6520  -37.8380 H   0  0  0  0  0  0  0  0  0  0  0  0
   -0.5440   29.9745  -36.9476 H   0  0  0  0  0  0  0  0  0  0  0  0
   -0.1855   24.2616  -35.7949 H   0  0  0  0  0  0  0  0  0  0  0  0
    1.4862   20.4513  -32.9038 H   0  0  0  0  0  0  0  0  0  0  0  0
    0.5355   18.8749  -31.2280 H   0  0  0  0  0  0  0  0  0  0  0  0
   -1.7876   18.0091  -31.4949 H   0  0  0  0  0  0  0  0  0  0  0  0
   -3.4550   21.0464  -32.4267 H   0  0  0  0  0  0  0  0  0  0  0  0
   -4.2940   21.1650  -34.0382 H   0  0  0  0  0  0  0  0  0  0  0  0
   -5.0153   22.3402  -31.4115 H   0  0  0  0  0  0  0  0  0  0  0  0
   -5.4228   22.8411  -33.1283 H   0  0  0  0  0  0  0  0  0  0  0  0
   -7.4079   23.2607  -31.0557 H   0  0  0  0  0  0  0  0  0  0  0  0
   -9.7759   22.5120  -30.8191 H   0  0  0  0  0  0  0  0  0  0  0  0
  -10.5474   20.4292  -31.9529 H   0  0  0  0  0  0  0  0  0  0  0  0
   -8.9234   19.0294  -33.2328 H   0  0  0  0  0  0  0  0  0  0  0  0
   -6.5504   18.3996  -33.4435 H   0  0  0  0  0  0  0  0  0  0  0  0
   -6.1254   19.7506  -34.5462 H   0  0  0  0  0  0  0  0  0  0  0  0
   -2.1966   20.2551  -35.1768 H   0  0  0  0  0  0  0  0  0  0  0  0
  1  2  2  0
  2  3  1  0
  3  4  1  0
  4  5  2  0
  5  6  1  0
  6  7  2  0
  7  8  1  0
  8  9  1  0
  9 10  2  0
  9 11  2  0
  9 12  1  0
 12 13  1  0
 13 14  1  0
 14 15  1  0
 15 16  1  0
  8 17  2  0
  2 18  1  0
 18 19  2  0
 19 20  1  0
 20 21  2  0
 21 22  1  0
 22 23  1  0
 23 24  2  0
 23 25  2  0
 23 26  1  0
 26 27  1  0
 27 28  1  0
 28 29  1  0
 29 30  2  0
 30 31  1  0
 31 32  2  0
 32 33  1  0
 33 34  2  0
 34 35  1  0
 22 36  2  0
 17  4  1  0
 36 18  1  0
 16 12  1  0
 35 26  1  0
 34 29  1  0
  3 37  1  0
  5 38  1  0
  6 39  1  0
  7 40  1  0
 13 41  1  0
 13 42  1  0
 14 43  1  0
 14 44  1  0
 15 45  1  0
 15 46  1  0
 16 47  1  0
 16 48  1  0
 17 49  1  0
 19 50  1  0
 20 51  1  0
 21 52  1  0
 27 53  1  0
 27 54  1  0
 28 55  1  0
 28 56  1  0
 30 57  1  0
 31 58  1  0
 32 59  1  0
 33 60  1  0
 35 61  1  0
 35 62  1  0
 36 63  1  0
M  END
>  <UniqueID>  (40) 
38

>  <SMILES>  (40) 
O=C(Nc1cccc(S(=O)(=O)N2CCCC2)c1)c1cccc(S(=O)(=O)N2CCc3ccccc3C2)c1

>  <Energy>  (40) 
78.86473464689772

>  <Genealogy>  (40) 
O=C(Nc1cccc(S(=O)(=O)N2CCCC2)c1)c1cccc(S(=O)(=O)N2CCc3ccccc3C2)c1 (3D coordinates assigned)
O=C(Nc1cccc(S(=O)(=O)N2CCCC2)c1)c1cccc(S(=O)(=O)N2CCc3ccccc3C2)c1 (nonaromatic ring conformer: 78.86473464689772 kcal/mol)

>  <smiles>  (40) 
O=C(Nc1cccc(S(=O)(=O)N2CCCC2)c1)c1cccc(S(=O)(=O)N2CCc3ccccc3C2)c1

>  <score_type>  (40) 
oracle

>  <origin>  (40) 
adgpu

>  <m_score__min__energy>  (40) 
-12.85

>  <m_primary>  (40) 
energy

$$$$
40:0
     RDKit          3D

 30 31  0  0  0  0  0  0  0  0999 V2000
   -6.0690   25.8300  -29.9720 O   0  0  0  0  0  0  0  0  0  0  0  0
   -5.2790   25.0840  -30.6120 C   0  0  0  0  0  0  0  0  0  0  0  0
   -5.8260   23.9850  -31.4670 C   0  0  0  0  0  0  0  0  0  0  0  0
   -7.1120   23.4210  -30.8580 C   0  0  0  0  0  0  0  0  0  0  0  0
   -7.4840   22.1220  -31.5190 C   0  0  0  0  0  0  0  0  0  0  0  0
   -8.7880   21.6100  -31.3930 C   0  0  0  0  0  0  0  0  0  0  0  0
   -9.1230   20.3870  -31.9810 C   0  0  0  0  0  0  0  0  0  0  0  0
   -8.1590   19.6610  -32.6880 C   0  0  0  0  0  0  0  0  0  0  0  0
   -6.8580   20.1560  -32.8040 C   0  0  0  0  0  0  0  0  0  0  0  0
   -6.5180   21.3800  -32.2190 C   0  0  0  0  0  0  0  0  0  0  0  0
   -3.8640   25.3040  -30.5690 N   0  0  0  0  0  0  0  0  0  0  0  0
   -2.9480   24.6380  -29.6920 C   0  0  0  0  0  0  0  0  0  0  0  0
   -2.1140   25.2960  -29.0130 O   0  0  0  0  0  0  0  0  0  0  0  0
   -2.9820   23.1740  -29.5830 C   0  0  0  0  0  0  0  0  0  0  0  0
   -2.9850   22.4400  -28.4020 C   0  0  0  0  0  0  0  0  0  0  0  0
   -3.0200   21.0560  -28.6130 C   0  0  0  0  0  0  0  0  0  0  0  0
   -3.0460   20.6960  -29.9540 C   0  0  0  0  0  0  0  0  0  0  0  0
   -3.0250   22.1010  -30.8780 S   0  0  0  0  0  0  0  0  0  0  0  0
   -6.0438   24.3810  -32.4699 H   0  0  0  0  0  0  0  0  0  0  0  0
   -5.0798   23.1794  -31.5310 H   0  0  0  0  0  0  0  0  0  0  0  0
   -6.9576   23.2485  -29.7826 H   0  0  0  0  0  0  0  0  0  0  0  0
   -7.9258   24.1445  -31.0137 H   0  0  0  0  0  0  0  0  0  0  0  0
   -9.5464   22.1738  -30.8300 H   0  0  0  0  0  0  0  0  0  0  0  0
  -10.1465   19.9949  -31.8876 H   0  0  0  0  0  0  0  0  0  0  0  0
   -8.4254   18.7002  -33.1527 H   0  0  0  0  0  0  0  0  0  0  0  0
   -6.0995   19.5821  -33.3565 H   0  0  0  0  0  0  0  0  0  0  0  0
   -5.4906   21.7631  -32.3073 H   0  0  0  0  0  0  0  0  0  0  0  0
   -2.9622   22.8999  -27.4030 H   0  0  0  0  0  0  0  0  0  0  0  0
   -3.0263   20.3226  -27.7932 H   0  0  0  0  0  0  0  0  0  0  0  0
   -3.0753   19.6682  -30.3448 H   0  0  0  0  0  0  0  0  0  0  0  0
  1  2  2  0
  2  3  1  0
  3  4  1  0
  4  5  1  0
  5  6  2  0
  6  7  1  0
  7  8  2  0
  8  9  1  0
  9 10  2  0
  2 11  1  0
 11 12  1  0
 12 13  2  0
 12 14  1  0
 14 15  2  0
 15 16  1  0
 16 17  2  0
 17 18  1  0
 10  5  1  0
 18 14  1  0
  3 19  1  0
  3 20  1  0
  4 21  1  0
  4 22  1  0
  6 23  1  0
  7 24  1  0
  8 25  1  0
  9 26  1  0
 10 27  1  0
 15 28  1  0
 16 29  1  0
 17 30  1  0
M  CHG  1  11  -1
M  END
>  <UniqueID>  (41) 
39

>  <SMILES>  (41) 
O=C(CCc1ccccc1)[N-]C(=O)c1cccs1

>  <Energy>  (41) 
51.423599229343054

>  <Genealogy>  (41) 
O=C(CCc1ccccc1)[N-]C(=O)c1cccs1 (protonated)
O=C(CCc1ccccc1)[N-]C(=O)c1cccs1 (3D coordinates assigned)
O=C(CCc1ccccc1)[N-]C(=O)c1cccs1 (optimized conformer: 51.423599229343054 kcal/mol)

>  <smiles>  (41) 
O=C(CCc1ccccc1)NC(=O)c1cccs1

>  <score_type>  (41) 
oracle

>  <origin>  (41) 
adgpu

>  <m_score__min__energy>  (41) 
-8.9399999999999995

>  <m_primary>  (41) 
energy

$$$$
41:0
     RDKit          3D

 44 47  0  0  0  0  0  0  0  0999 V2000
   -1.3570   16.4400  -34.8510 C   0  0  0  0  0  0  0  0  0  0  0  0
   -0.7750   17.6900  -34.4970 O   0  0  0  0  0  0  0  0  0  0  0  0
   -1.4960   18.7890  -34.0060 C   0  0  0  0  0  0  0  0  0  0  0  0
   -1.0860   20.1180  -34.2220 C   0  0  0  0  0  0  0  0  0  0  0  0
   -1.8400   21.1800  -33.7140 C   0  0  0  0  0  0  0  0  0  0  0  0
   -3.0140   20.9350  -32.9770 C   0  0  0  0  0  0  0  0  0  0  0  0
   -3.8120   22.0060  -32.4340 N   0  0  0  0  0  0  0  0  0  0  0  0
   -3.6460   22.5570  -31.0890 C   0  0  0  0  0  0  0  0  0  0  0  0
   -4.6890   23.6110  -30.8180 C   0  0  0  0  0  0  0  0  0  0  0  0
   -4.4050   24.8840  -30.3670 C   0  0  0  0  0  0  0  0  0  0  0  0
   -5.5300   25.6240  -30.3670 N   0  0  0  0  0  0  0  0  0  0  0  0
   -6.4820   24.7890  -30.8310 C   0  0  0  0  0  0  0  0  0  0  0  0
   -6.0070   23.5590  -31.1210 N   0  0  0  0  0  0  0  0  0  0  0  0
   -6.7930   22.4660  -31.6320 C   0  0  0  0  0  0  0  0  0  0  0  0
   -6.2670   21.3480  -32.1730 N   0  0  0  0  0  0  0  0  0  0  0  0
   -7.2180   20.4390  -32.5230 C   0  0  0  0  0  0  0  0  0  0  0  0
   -6.8480   19.1310  -33.1230 C   0  0  0  0  0  0  0  0  0  0  0  0
   -6.1070   19.0970  -34.3220 C   0  0  0  0  0  0  0  0  0  0  0  0
   -5.7480   17.8770  -34.9010 C   0  0  0  0  0  0  0  0  0  0  0  0
   -6.1250   16.6760  -34.2970 C   0  0  0  0  0  0  0  0  0  0  0  0
   -6.8640   16.6940  -33.1120 C   0  0  0  0  0  0  0  0  0  0  0  0
   -7.2260   17.9110  -32.5270 C   0  0  0  0  0  0  0  0  0  0  0  0
   -8.5280   20.8390  -32.2420 C   0  0  0  0  0  0  0  0  0  0  0  0
   -8.4690   22.3660  -31.5390 S   0  0  0  0  0  0  0  0  0  0  0  0
   -3.4170   19.6070  -32.7670 C   0  0  0  0  0  0  0  0  0  0  0  0
   -2.6640   18.5470  -33.2770 C   0  0  0  0  0  0  0  0  0  0  0  0
   -1.6158   15.8842  -33.9377 H   0  0  0  0  0  0  0  0  0  0  0  0
   -2.2667   16.6140  -35.4444 H   0  0  0  0  0  0  0  0  0  0  0  0
   -0.6383   15.8558  -35.4444 H   0  0  0  0  0  0  0  0  0  0  0  0
   -0.1682   20.3220  -34.7931 H   0  0  0  0  0  0  0  0  0  0  0  0
   -1.5133   22.2152  -33.8916 H   0  0  0  0  0  0  0  0  0  0  0  0
   -4.5700   22.4150  -33.0270 H   0  0  0  0  0  0  0  0  0  0  0  0
   -3.7488   21.7478  -30.3510 H   0  0  0  0  0  0  0  0  0  0  0  0
   -2.6489   23.0152  -31.0128 H   0  0  0  0  0  0  0  0  0  0  0  0
   -3.4118   25.2396  -30.0553 H   0  0  0  0  0  0  0  0  0  0  0  0
   -7.5351   25.0796  -30.9597 H   0  0  0  0  0  0  0  0  0  0  0  0
   -5.8090   20.0389  -34.8058 H   0  0  0  0  0  0  0  0  0  0  0  0
   -5.1670   17.8628  -35.8349 H   0  0  0  0  0  0  0  0  0  0  0  0
   -5.8403   15.7167  -34.7539 H   0  0  0  0  0  0  0  0  0  0  0  0
   -7.1622   15.7475  -32.6375 H   0  0  0  0  0  0  0  0  0  0  0  0
   -7.8100   17.9165  -31.5949 H   0  0  0  0  0  0  0  0  0  0  0  0
   -9.4387   20.2565  -32.4453 H   0  0  0  0  0  0  0  0  0  0  0  0
   -4.3338   19.3993  -32.1958 H   0  0  0  0  0  0  0  0  0  0  0  0
   -2.9932   17.5119  -33.1034 H   0  0  0  0  0  0  0  0  0  0  0  0
  1  2  1  0
  2  3  1  0
  3  4  2  0
  4  5  1  0
  5  6  2  0
  6  7  1  0
  7  8  1  0
  8  9  1  0
  9 10  2  0
 10 11  1  0
 11 12  2  0
 12 13  1  0
 13 14  1  0
 14 15  2  0
 15 16  1  0
 16 17  1  0
 17 18  2  0
 18 19  1  0
 19 20  2  0
 20 21  1  0
 21 22  2  0
 16 23  2  0
 23 24  1  0
  6 25  1  0
 25 26  2  0
 26  3  1  0
 13  9  1  0
 24 14  1  0
 22 17  1  0
  1 27  1  0
  1 28  1  0
  1 29  1  0
  4 30  1  0
  5 31  1  0
  7 32  1  0
  8 33  1  0
  8 34  1  0
 10 35  1  0
 12 36  1  0
 18 37  1  0
 19 38  1  0
 20 39  1  0
 21 40  1  0
 22 41  1  0
 23 42  1  0
 25 43  1  0
 26 44  1  0
M  END
>  <UniqueID>  (42) 
40

>  <SMILES>  (42) 
COc1ccc(NCc2cncn2-c2nc(-c3ccccc3)cs2)cc1

>  <Energy>  (42) 
110.85172664202933

>  <Genealogy>  (42) 
COc1ccc(NCc2cncn2-c2nc(-c3ccccc3)cs2)cc1 (3D coordinates assigned)
COc1ccc(NCc2cncn2-c2nc(-c3ccccc3)cs2)cc1 (optimized conformer: 110.85172664202933 kcal/mol)

>  <smiles>  (42) 
COc1ccc(NCc2cncn2-c2nc(-c3ccccc3)cs2)cc1

>  <score_type>  (42) 
oracle

>  <origin>  (42) 
adgpu

>  <m_score__min__energy>  (42) 
-8.3100000000000005

>  <m_primary>  (42) 
energy

$$$$
42:0
     RDKit          3D

 46 48  0  0  0  0  0  0  0  0999 V2000
    1.0190   18.0240  -37.2210 C   0  0  0  0  0  0  0  0  0  0  0  0
    1.0160   19.3380  -36.6760 O   0  0  0  0  0  0  0  0  0  0  0  0
    0.2190   19.7450  -35.5970 C   0  0  0  0  0  0  0  0  0  0  0  0
    0.2300   21.0980  -35.2340 C   0  0  0  0  0  0  0  0  0  0  0  0
   -0.5540   21.5540  -34.1710 C   0  0  0  0  0  0  0  0  0  0  0  0
   -1.3560   20.6570  -33.4510 C   0  0  0  0  0  0  0  0  0  0  0  0
   -2.1780   21.1320  -32.3670 N   0  0  0  0  0  0  0  0  0  0  0  0
   -1.6850   21.1730  -31.0860 C   0  0  0  0  0  0  0  0  0  0  0  0
   -0.2820   20.7080  -30.7710 C   0  0  0  0  0  0  0  0  0  0  0  0
   -2.4950   21.6380  -30.0410 C   0  0  0  0  0  0  0  0  0  0  0  0
   -3.7930   22.0860  -30.2960 C   0  0  0  0  0  0  0  0  0  0  0  0
   -4.5790   22.6820  -29.1540 C   0  0  0  0  0  0  0  0  0  0  0  0
   -4.2740   22.0730  -31.6250 C   0  0  0  0  0  0  0  0  0  0  0  0
   -5.6110   22.6130  -31.9750 C   0  0  0  0  0  0  0  0  0  0  0  0
   -5.9280   24.1840  -31.6430 S   0  0  0  0  0  0  0  0  0  0  0  0
   -6.7120   21.7260  -32.2370 N   0  0  0  0  0  0  0  0  0  0  0  0
   -6.5420   20.3410  -32.5750 C   0  0  0  0  0  0  0  0  0  0  0  0
   -6.2230   19.9860  -33.8950 C   0  0  0  0  0  0  0  0  0  0  0  0
   -6.1050   18.6400  -34.2490 C   0  0  0  0  0  0  0  0  0  0  0  0
   -6.2790   17.6420  -33.2820 C   0  0  0  0  0  0  0  0  0  0  0  0
   -6.1440   15.9550  -33.7310 Cl  0  0  0  0  0  0  0  0  0  0  0  0
   -6.5680   17.9890  -31.9580 C   0  0  0  0  0  0  0  0  0  0  0  0
   -6.6960   19.3330  -31.6040 C   0  0  0  0  0  0  0  0  0  0  0  0
   -3.4500   21.5650  -32.6450 C   0  0  0  0  0  0  0  0  0  0  0  0
   -3.8910   21.5060  -33.8280 O   0  0  0  0  0  0  0  0  0  0  0  0
   -1.3700   19.3030  -33.8070 C   0  0  0  0  0  0  0  0  0  0  0  0
   -0.5880   18.8470  -34.8730 C   0  0  0  0  0  0  0  0  0  0  0  0
    1.0207   17.2880  -36.4035 H   0  0  0  0  0  0  0  0  0  0  0  0
    0.1212   17.8819  -37.8405 H   0  0  0  0  0  0  0  0  0  0  0  0
    1.9175   17.8860  -37.8405 H   0  0  0  0  0  0  0  0  0  0  0  0
    0.8608   21.8070  -35.7902 H   0  0  0  0  0  0  0  0  0  0  0  0
   -0.5420   22.6196  -33.8983 H   0  0  0  0  0  0  0  0  0  0  0  0
   -0.1468   20.6632  -29.6803 H   0  0  0  0  0  0  0  0  0  0  0  0
   -0.1216   19.7086  -31.2017 H   0  0  0  0  0  0  0  0  0  0  0  0
    0.4436   21.4137  -31.2017 H   0  0  0  0  0  0  0  0  0  0  0  0
   -2.1055   21.6502  -29.0123 H   0  0  0  0  0  0  0  0  0  0  0  0
   -4.1446   22.3526  -28.1986 H   0  0  0  0  0  0  0  0  0  0  0  0
   -4.5400   23.7796  -29.2155 H   0  0  0  0  0  0  0  0  0  0  0  0
   -5.6253   22.3483  -29.2155 H   0  0  0  0  0  0  0  0  0  0  0  0
   -7.6830   22.0810  -32.1010 H   0  0  0  0  0  0  0  0  0  0  0  0
   -6.0657   20.7688  -34.6516 H   0  0  0  0  0  0  0  0  0  0  0  0
   -5.8751   18.3635  -35.2886 H   0  0  0  0  0  0  0  0  0  0  0  0
   -6.6941   17.2043  -31.1975 H   0  0  0  0  0  0  0  0  0  0  0  0
   -6.9182   19.6060  -30.5618 H   0  0  0  0  0  0  0  0  0  0  0  0
   -1.9983   18.5954  -33.2462 H   0  0  0  0  0  0  0  0  0  0  0  0
   -0.6036   17.7818  -35.1470 H   0  0  0  0  0  0  0  0  0  0  0  0
  1  2  1  0
  2  3  1  0
  3  4  2  0
  4  5  1  0
  5  6  2  0
  6  7  1  0
  7  8  1  0
  8  9  1  0
  8 10  2  0
 10 11  1  0
 11 12  1  0
 11 13  2  0
 13 14  1  0
 14 15  2  0
 14 16  1  0
 16 17  1  0
 17 18  2  0
 18 19  1  0
 19 20  2  0
 20 21  1  0
 20 22  1  0
 22 23  2  0
 13 24  1  0
 24 25  2  0
  6 26  1  0
 26 27  2  0
 27  3  1  0
 24  7  1  0
 23 17  1  0
  1 28  1  0
  1 29  1  0
  1 30  1  0
  4 31  1  0
  5 32  1  0
  9 33  1  0
  9 34  1  0
  9 35  1  0
 10 36  1  0
 12 37  1  0
 12 38  1  0
 12 39  1  0
 16 40  1  0
 18 41  1  0
 19 42  1  0
 22 43  1  0
 23 44  1  0
 26 45  1  0
 27 46  1  0
M  END
>  <UniqueID>  (43) 
41

>  <SMILES>  (43) 
COc1ccc(-n2c(C)cc(C)c(C(=S)Nc3ccc(Cl)cc3)c2=O)cc1

>  <Energy>  (43) 
69.32199821578105

>  <Genealogy>  (43) 
COc1ccc(-n2c(C)cc(C)c(C(=S)Nc3ccc(Cl)cc3)c2=O)cc1 (3D coordinates assigned)
COc1ccc(-n2c(C)cc(C)c(C(=S)Nc3ccc(Cl)cc3)c2=O)cc1 (optimized conformer: 69.32199821578105 kcal/mol)

>  <smiles>  (43) 
COc1ccc(-n2c(C)cc(C)c(C(=S)Nc3ccc(Cl)cc3)c2=O)cc1

>  <score_type>  (43) 
oracle

>  <origin>  (43) 
adgpu

>  <m_score__min__energy>  (43) 
-7.9500000000000002

>  <m_primary>  (43) 
energy

$$$$
43:0
     RDKit          3D

 44 46  0  0  0  0  0  0  0  0999 V2000
   -3.5970   21.5110  -32.9350 C   0  0  0  0  0  0  0  0  0  0  0  0
   -3.6620   22.6720  -32.1160 O   0  0  0  0  0  0  0  0  0  0  0  0
   -4.8460   23.2150  -31.5910 C   0  0  0  0  0  0  0  0  0  0  0  0
   -6.1040   22.6360  -31.8560 C   0  0  0  0  0  0  0  0  0  0  0  0
   -7.2610   23.1610  -31.2750 C   0  0  0  0  0  0  0  0  0  0  0  0
   -7.1780   24.2600  -30.4200 C   0  0  0  0  0  0  0  0  0  0  0  0
   -5.9400   24.8480  -30.1570 C   0  0  0  0  0  0  0  0  0  0  0  0
   -4.7750   24.3550  -30.7580 C   0  0  0  0  0  0  0  0  0  0  0  0
   -3.5310   25.0120  -30.4690 N   0  0  0  0  0  0  0  0  0  0  0  0
   -2.5110   24.5500  -29.5720 C   0  0  0  0  0  0  0  0  0  0  0  0
   -1.9480   25.3880  -28.8200 O   0  0  0  0  0  0  0  0  0  0  0  0
   -2.0780   23.1330  -29.5310 C   0  0  0  0  0  0  0  0  0  0  0  0
   -1.0510   22.6880  -30.3780 C   0  0  0  0  0  0  0  0  0  0  0  0
   -0.6200   21.3600  -30.3330 C   0  0  0  0  0  0  0  0  0  0  0  0
   -1.2220   20.4440  -29.4590 C   0  0  0  0  0  0  0  0  0  0  0  0
   -0.7400   19.0910  -29.4130 N   0  0  0  0  0  0  0  0  0  0  0  0
   -0.2560   18.4510  -28.2180 C   0  0  0  0  0  0  0  0  0  0  0  0
   -0.5010   18.9550  -27.0890 O   0  0  0  0  0  0  0  0  0  0  0  0
    0.4960   17.1810  -28.3060 C   0  0  0  0  0  0  0  0  0  0  0  0
    1.0480   16.5780  -27.1640 C   0  0  0  0  0  0  0  0  0  0  0  0
    1.7370   15.4130  -27.2870 N   0  0  0  0  0  0  0  0  0  0  0  0
    1.9120   14.8170  -28.4960 C   0  0  0  0  0  0  0  0  0  0  0  0
    2.6580   13.5240  -28.5940 C   0  0  0  0  0  0  0  0  0  0  0  0
    1.3590   15.4110  -29.6350 C   0  0  0  0  0  0  0  0  0  0  0  0
    0.6700   16.5760  -29.5120 N   0  0  0  0  0  0  0  0  0  0  0  0
   -2.2490   20.8880  -28.6080 C   0  0  0  0  0  0  0  0  0  0  0  0
   -2.6810   22.2160  -28.6520 C   0  0  0  0  0  0  0  0  0  0  0  0
   -3.5469   20.6154  -32.2982 H   0  0  0  0  0  0  0  0  0  0  0  0
   -4.4937   21.4596  -33.5701 H   0  0  0  0  0  0  0  0  0  0  0  0
   -2.7002   21.5600  -33.5701 H   0  0  0  0  0  0  0  0  0  0  0  0
   -6.1749   21.7653  -32.5245 H   0  0  0  0  0  0  0  0  0  0  0  0
   -8.2391   22.7069  -31.4922 H   0  0  0  0  0  0  0  0  0  0  0  0
   -8.0886   24.6633  -29.9529 H   0  0  0  0  0  0  0  0  0  0  0  0
   -5.8787   25.7062  -29.4716 H   0  0  0  0  0  0  0  0  0  0  0  0
   -0.5819   23.3904  -31.0827 H   0  0  0  0  0  0  0  0  0  0  0  0
    0.1990   21.0301  -30.9891 H   0  0  0  0  0  0  0  0  0  0  0  0
   -0.8290   18.5150  -30.2800 H   0  0  0  0  0  0  0  0  0  0  0  0
    0.9235   17.0457  -26.1762 H   0  0  0  0  0  0  0  0  0  0  0  0
    2.8748   13.1482  -27.5832 H   0  0  0  0  0  0  0  0  0  0  0  0
    2.0459   12.7877  -29.1355 H   0  0  0  0  0  0  0  0  0  0  0  0
    3.6018   13.6853  -29.1355 H   0  0  0  0  0  0  0  0  0  0  0  0
    1.4806   14.9396  -30.6214 H   0  0  0  0  0  0  0  0  0  0  0  0
   -2.7158   20.1849  -27.9025 H   0  0  0  0  0  0  0  0  0  0  0  0
   -3.4985   22.5465  -27.9944 H   0  0  0  0  0  0  0  0  0  0  0  0
  1  2  1  0
  2  3  1  0
  3  4  2  0
  4  5  1  0
  5  6  2  0
  6  7  1  0
  7  8  2  0
  8  9  1  0
  9 10  1  0
 10 11  2  0
 10 12  1  0
 12 13  2  0
 13 14  1  0
 14 15  2  0
 15 16  1  0
 16 17  1  0
 17 18  2  0
 17 19  1  0
 19 20  2  0
 20 21  1  0
 21 22  2  0
 22 23  1  0
 22 24  1  0
 24 25  2  0
 15 26  1  0
 26 27  2  0
  8  3  1  0
 27 12  1  0
 25 19  1  0
  1 28  1  0
  1 29  1  0
  1 30  1  0
  4 31  1  0
  5 32  1  0
  6 33  1  0
  7 34  1  0
 13 35  1  0
 14 36  1  0
 16 37  1  0
 20 38  1  0
 23 39  1  0
 23 40  1  0
 23 41  1  0
 24 42  1  0
 26 43  1  0
 27 44  1  0
M  CHG  1   9  -1
M  END
>  <UniqueID>  (44) 
42

>  <SMILES>  (44) 
COc1ccccc1[N-]C(=O)c1ccc(NC(=O)c2cnc(C)cn2)cc1

>  <Energy>  (44) 
58.20006683749324

>  <Genealogy>  (44) 
COc1ccccc1[N-]C(=O)c1ccc(NC(=O)c2cnc(C)cn2)cc1 (protonated)
COc1ccccc1[N-]C(=O)c1ccc(NC(=O)c2cnc(C)cn2)cc1 (3D coordinates assigned)
COc1ccccc1[N-]C(=O)c1ccc(NC(=O)c2cnc(C)cn2)cc1 (optimized conformer: 58.20006683749324 kcal/mol)

>  <smiles>  (44) 
COc1ccccc1NC(=O)c1ccc(NC(=O)c2cnc(C)cn2)cc1

>  <score_type>  (44) 
oracle

>  <origin>  (44) 
adgpu

>  <m_score__min__energy>  (44) 
-10.06

>  <m_primary>  (44) 
energy

$$$$
44:0
     RDKit          3D

 45 48  0  0  0  0  0  0  0  0999 V2000
   -1.4732   27.1837  -24.6492 H   0  0  0  0  0  0  0  0  0  0  0  0
   -1.2390   26.2180  -25.1210 C   0  0  0  0  0  0  0  0  0  0  0  0
   -1.3220   26.0830  -26.5090 C   0  0  0  0  0  0  0  0  0  0  0  0
   -1.6295   26.9419  -27.1236 H   0  0  0  0  0  0  0  0  0  0  0  0
   -1.0150   24.8560  -27.1270 C   0  0  0  0  0  0  0  0  0  0  0  0
   -1.0840   24.7180  -28.6010 C   0  0  0  0  0  0  0  0  0  0  0  0
   -0.1240   24.1840  -29.2250 O   0  0  0  0  0  0  0  0  0  0  0  0
   -2.2480   25.1730  -29.3090 N   0  0  0  0  0  0  0  0  0  0  0  0
   -3.3750   24.5350  -29.4220 C   0  0  0  0  0  0  0  0  0  0  0  0
   -3.6130   23.3050  -28.9100 N   0  0  0  0  0  0  0  0  0  0  0  0
   -4.8350   22.8550  -29.1900 N   0  0  0  0  0  0  0  0  0  0  0  0
   -5.5650   23.7270  -29.9210 C   0  0  0  0  0  0  0  0  0  0  0  0
   -7.2310   23.3960  -30.4800 S   0  0  0  0  0  0  0  0  0  0  0  0
   -6.6950   22.9620  -32.1650 C   0  0  0  0  0  0  0  0  0  0  0  0
   -7.2996   23.5188  -32.8961 H   0  0  0  0  0  0  0  0  0  0  0  0
   -5.6337   23.2232  -32.2890 H   0  0  0  0  0  0  0  0  0  0  0  0
   -6.8740   21.4920  -32.3870 C   0  0  0  0  0  0  0  0  0  0  0  0
   -5.9840   20.8190  -33.1580 N   0  0  0  0  0  0  0  0  0  0  0  0
   -6.1120   19.4880  -33.3970 C   0  0  0  0  0  0  0  0  0  0  0  0
   -5.1690   18.8470  -34.2040 C   0  0  0  0  0  0  0  0  0  0  0  0
   -4.3352   19.4171  -34.6396 H   0  0  0  0  0  0  0  0  0  0  0  0
   -5.2900   17.4830  -34.4540 C   0  0  0  0  0  0  0  0  0  0  0  0
   -4.5599   16.9749  -35.1011 H   0  0  0  0  0  0  0  0  0  0  0  0
   -6.3400   16.7600  -33.8820 C   0  0  0  0  0  0  0  0  0  0  0  0
   -6.5040   15.2950  -34.1660 C   0  0  0  0  0  0  0  0  0  0  0  0
   -6.5659   14.7422  -33.2170 H   0  0  0  0  0  0  0  0  0  0  0  0
   -7.4257   15.1346  -34.7445 H   0  0  0  0  0  0  0  0  0  0  0  0
   -5.6406   14.9348  -34.7445 H   0  0  0  0  0  0  0  0  0  0  0  0
   -7.2790   17.4350  -33.0890 C   0  0  0  0  0  0  0  0  0  0  0  0
   -8.1197   16.8771  -32.6508 H   0  0  0  0  0  0  0  0  0  0  0  0
   -7.1640   18.7810  -32.8520 N   0  0  0  0  0  0  0  0  0  0  0  0
   -8.0930   19.4410  -32.0830 C   0  0  0  0  0  0  0  0  0  0  0  0
   -9.0750   18.8280  -31.5820 O   0  0  0  0  0  0  0  0  0  0  0  0
   -7.9650   20.8110  -31.8440 C   0  0  0  0  0  0  0  0  0  0  0  0
   -8.7117   21.3448  -31.2378 H   0  0  0  0  0  0  0  0  0  0  0  0
   -4.7030   25.1340  -30.2630 S   0  0  0  0  0  0  0  0  0  0  0  0
   -0.6330   23.7670  -26.3210 C   0  0  0  0  0  0  0  0  0  0  0  0
   -0.3804   22.8048  -26.7904 H   0  0  0  0  0  0  0  0  0  0  0  0
   -0.5710   23.8960  -24.9250 C   0  0  0  0  0  0  0  0  0  0  0  0
   -0.1280   22.7400  -24.0770 C   0  0  0  0  0  0  0  0  0  0  0  0
   -0.2295   23.0048  -23.0142 H   0  0  0  0  0  0  0  0  0  0  0  0
   -0.7536   21.8625  -24.2976 H   0  0  0  0  0  0  0  0  0  0  0  0
    0.9238   22.5053  -24.2976 H   0  0  0  0  0  0  0  0  0  0  0  0
   -0.8600   25.1320  -24.3310 C   0  0  0  0  0  0  0  0  0  0  0  0
   -0.7879   25.2463  -23.2393 H   0  0  0  0  0  0  0  0  0  0  0  0
  1  2  1  0
  2  3  2  0
  3  4  1  0
  3  5  1  0
  5  6  1  0
  6  7  2  0
  6  8  1  0
  8  9  2  0
  9 10  1  0
 10 11  1  0
 11 12  2  0
 12 13  1  0
 13 14  1  0
 14 15  1  0
 14 16  1  0
 14 17  1  0
 17 18  1  0
 18 19  2  0
 19 20  1  0
 20 21  1  0
 20 22  2  0
 22 23  1  0
 22 24  1  0
 24 25  1  0
 25 26  1  0
 25 27  1  0
 25 28  1  0
 24 29  2  0
 29 30  1  0
 29 31  1  0
 31 32  1  0
 32 33  2  0
 32 34  1  0
 34 35  1  0
 12 36  1  0
  5 37  2  0
 37 38  1  0
 37 39  1  0
 39 40  1  0
 40 41  1  0
 40 42  1  0
 40 43  1  0
 39 44  2  0
 44 45  1  0
 44  2  1  0
 36  9  1  0
 34 17  2  0
 31 19  1  0
M  CHG  1  10  -1
M  END
>  <UniqueID>  (45) 
43

>  <SMILES>  (45) 
Cc1cccc(C(=O)/N=c2\[n-]nc(SCc3cc(=O)n4cc(C)ccc4n3)s2)c1

>  <Energy>  (45) 
86.4729163301234

>  <Genealogy>  (45) 
Cc1cccc(C(=O)N=c2[n-]nc(SCc3cc(=O)n4cc(C)ccc4n3)s2)c1 (protonated)
Cc1cccc(C(=O)/N=c2\[n-]nc(SCc3cc(=O)n4cc(C)ccc4n3)s2)c1 (cis-trans isomerization)
Cc1cccc(C(=O)/N=c2\[n-]nc(SCc3cc(=O)n4cc(C)ccc4n3)s2)c1 (3D coordinates assigned)
Cc1cccc(C(=O)/N=c2\[n-]nc(SCc3cc(=O)n4cc(C)ccc4n3)s2)c1 (optimized conformer: 86.4729163301234 kcal/mol)

>  <smiles>  (45) 
Cc1cccc(C(=O)N=c2[nH]nc(SCc3cc(=O)n4cc(C)ccc4n3)s2)c1

>  <score_type>  (45) 
oracle

>  <origin>  (45) 
adgpu

>  <m_score__min__energy>  (45) 
-12.859999999999999

>  <m_primary>  (45) 
energy

$$$$
45:0
     RDKit          3D

 41 44  0  0  0  0  0  0  0  0999 V2000
   -2.4414   21.4932  -32.9021 H   0  0  0  0  0  0  0  0  0  0  0  0
   -3.3690   20.9040  -32.9520 C   0  0  0  0  0  0  0  0  0  0  0  0
   -3.4670   19.6500  -33.4510 N   0  0  0  0  0  0  0  0  0  0  0  0
   -4.7700   19.3440  -33.2880 C   0  0  0  0  0  0  0  0  0  0  0  0
   -5.3630   18.1290  -33.6240 C   0  0  0  0  0  0  0  0  0  0  0  0
   -4.7823   17.3254  -34.1005 H   0  0  0  0  0  0  0  0  0  0  0  0
   -6.7260   17.9650  -33.3340 C   0  0  0  0  0  0  0  0  0  0  0  0
   -7.2320   17.0242  -33.5965 H   0  0  0  0  0  0  0  0  0  0  0  0
   -7.4490   18.9980  -32.7090 C   0  0  0  0  0  0  0  0  0  0  0  0
   -8.5146   18.8634  -32.4717 H   0  0  0  0  0  0  0  0  0  0  0  0
   -6.8010   20.2000  -32.3910 C   0  0  0  0  0  0  0  0  0  0  0  0
   -7.3414   21.0161  -31.8890 H   0  0  0  0  0  0  0  0  0  0  0  0
   -5.4860   20.3320  -32.7190 N   0  0  0  0  0  0  0  0  0  0  0  0
   -4.6110   21.3360  -32.5130 C   0  0  0  0  0  0  0  0  0  0  0  0
   -4.8930   22.6540  -31.9130 C   0  0  0  0  0  0  0  0  0  0  0  0
   -4.0080   23.1830  -31.0280 N   0  0  0  0  0  0  0  0  0  0  0  0
   -4.2020   24.4030  -30.4550 C   0  0  0  0  0  0  0  0  0  0  0  0
   -3.3350   24.9010  -29.6200 N   0  0  0  0  0  0  0  0  0  0  0  0
   -2.1520   24.2560  -29.1160 C   0  0  0  0  0  0  0  0  0  0  0  0
   -1.0800   25.0430  -28.6730 C   0  0  0  0  0  0  0  0  0  0  0  0
   -1.1640   26.4370  -28.7630 O   0  0  0  0  0  0  0  0  0  0  0  0
   -0.7450   27.3030  -27.7140 C   0  0  0  0  0  0  0  0  0  0  0  0
   -0.9700   26.8381  -26.7428 H   0  0  0  0  0  0  0  0  0  0  0  0
    0.3379   27.4789  -27.7943 H   0  0  0  0  0  0  0  0  0  0  0  0
   -1.2791   28.2613  -27.7943 H   0  0  0  0  0  0  0  0  0  0  0  0
    0.0360   24.4490  -28.1630 N   0  0  0  0  0  0  0  0  0  0  0  0
    0.1520   23.0980  -28.0570 C   0  0  0  0  0  0  0  0  0  0  0  0
    1.3900   22.5020  -27.4680 C   0  0  0  0  0  0  0  0  0  0  0  0
    1.3255   22.5331  -26.3703 H   0  0  0  0  0  0  0  0  0  0  0  0
    1.4881   21.4579  -27.8001 H   0  0  0  0  0  0  0  0  0  0  0  0
    2.2673   23.0764  -27.8001 H   0  0  0  0  0  0  0  0  0  0  0  0
   -0.9120   22.2780  -28.4510 C   0  0  0  0  0  0  0  0  0  0  0  0
   -0.8386   21.1853  -28.3483 H   0  0  0  0  0  0  0  0  0  0  0  0
   -2.0660   22.8600  -28.9750 C   0  0  0  0  0  0  0  0  0  0  0  0
   -2.9112   22.2249  -29.2788 H   0  0  0  0  0  0  0  0  0  0  0  0
   -5.3360   25.1460  -30.8170 C   0  0  0  0  0  0  0  0  0  0  0  0
   -5.5430   26.2850  -30.3170 O   0  0  0  0  0  0  0  0  0  0  0  0
   -6.2150   24.6310  -31.7210 N   0  0  0  0  0  0  0  0  0  0  0  0
   -7.0530   25.1860  -32.0030 H   0  0  0  0  0  0  0  0  0  0  0  0
   -6.0150   23.4070  -32.2800 C   0  0  0  0  0  0  0  0  0  0  0  0
   -6.7304   23.0112  -33.0159 H   0  0  0  0  0  0  0  0  0  0  0  0
  1  2  1  0
  2  3  1  0
  3  4  2  0
  4  5  1  0
  5  6  1  0
  5  7  2  0
  7  8  1  0
  7  9  1  0
  9 10  1  0
  9 11  2  0
 11 12  1  0
 11 13  1  0
 13 14  1  0
 14 15  1  0
 15 16  1  0
 16 17  1  0
 17 18  2  0
 18 19  1  0
 19 20  2  0
 20 21  1  0
 21 22  1  0
 22 23  1  0
 22 24  1  0
 22 25  1  0
 20 26  1  0
 26 27  2  0
 27 28  1  0
 28 29  1  0
 28 30  1  0
 28 31  1  0
 27 32  1  0
 32 33  1  0
 32 34  2  0
 34 35  1  0
 17 36  1  0
 36 37  2  0
 36 38  1  0
 38 39  1  0
 38 40  1  0
 40 41  1  0
 14  2  2  0
 40 15  2  0
 13  4  1  0
 34 19  1  0
M  CHG  1  16  -1
M  END
>  <UniqueID>  (46) 
44

>  <SMILES>  (46) 
COc1nc(C)ccc1/N=c1\[n-]c(-c2cnc3ccccn23)c[nH]c1=O

>  <Energy>  (46) 
90.52436294404721

>  <Genealogy>  (46) 
COc1nc(C)ccc1N=c1[n-]c(-c2cnc3ccccn23)c[nH]c1=O (protonated)
COc1nc(C)ccc1/N=c1\[n-]c(-c2cnc3ccccn23)c[nH]c1=O (cis-trans isomerization)
COc1nc(C)ccc1/N=c1\[n-]c(-c2cnc3ccccn23)c[nH]c1=O (3D coordinates assigned)
COc1nc(C)ccc1/N=c1\[n-]c(-c2cnc3ccccn23)c[nH]c1=O (optimized conformer: 90.52436294404721 kcal/mol)

>  <smiles>  (46) 
COc1nc(C)ccc1N=c1[nH]c(-c2cnc3ccccn23)c[nH]c1=O

>  <score_type>  (46) 
oracle

>  <origin>  (46) 
adgpu

>  <m_score__min__energy>  (46) 
-9.6999999999999993

>  <m_primary>  (46) 
energy

$$$$
46:0
     RDKit          3D

 52 55  0  0  0  0  0  0  0  0999 V2000
   -3.6862   22.8256  -31.1195 H   0  0  0  0  0  0  0  0  0  0  0  0
   -4.5310   22.8320  -30.4150 C   0  0  0  0  0  0  0  0  0  0  0  0
   -4.3060   22.9570  -29.1420 N   0  0  0  0  0  0  0  0  0  0  0  0
   -3.0180   23.0970  -28.5230 C   0  0  0  0  0  0  0  0  0  0  0  0
   -2.3890   22.1350  -27.7530 C   0  0  0  0  0  0  0  0  0  0  0  0
   -2.9020   20.7530  -27.4770 C   0  0  0  0  0  0  0  0  0  0  0  0
   -2.9610   20.5941  -26.3901 H   0  0  0  0  0  0  0  0  0  0  0  0
   -3.9026   20.6382  -27.9192 H   0  0  0  0  0  0  0  0  0  0  0  0
   -2.2186   20.0131  -27.9192 H   0  0  0  0  0  0  0  0  0  0  0  0
   -1.1910   22.6210  -27.3420 N   0  0  0  0  0  0  0  0  0  0  0  0
   -0.2020   21.8970  -26.5390 C   0  0  0  0  0  0  0  0  0  0  0  0
   -0.4131   22.0515  -25.4706 H   0  0  0  0  0  0  0  0  0  0  0  0
   -0.2558   20.8233  -26.7718 H   0  0  0  0  0  0  0  0  0  0  0  0
    0.8053   22.2727  -26.7718 H   0  0  0  0  0  0  0  0  0  0  0  0
   -1.0620   23.8710  -27.7830 N   0  0  0  0  0  0  0  0  0  0  0  0
    0.0450   24.7510  -27.5150 C   0  0  0  0  0  0  0  0  0  0  0  0
   -0.1830   26.0300  -26.9810 C   0  0  0  0  0  0  0  0  0  0  0  0
   -1.2109   26.3630  -26.7747 H   0  0  0  0  0  0  0  0  0  0  0  0
    0.8930   26.8810  -26.7110 C   0  0  0  0  0  0  0  0  0  0  0  0
    0.7095   27.8842  -26.2988 H   0  0  0  0  0  0  0  0  0  0  0  0
    2.2020   26.4590  -26.9640 C   0  0  0  0  0  0  0  0  0  0  0  0
    3.0471   27.1307  -26.7529 H   0  0  0  0  0  0  0  0  0  0  0  0
    2.4360   25.1840  -27.4850 C   0  0  0  0  0  0  0  0  0  0  0  0
    3.4659   24.8513  -27.6815 H   0  0  0  0  0  0  0  0  0  0  0  0
    1.3620   24.3300  -27.7570 C   0  0  0  0  0  0  0  0  0  0  0  0
    1.5502   23.3248  -28.1621 H   0  0  0  0  0  0  0  0  0  0  0  0
   -2.1560   24.1810  -28.5090 C   0  0  0  0  0  0  0  0  0  0  0  0
   -2.3540   25.3040  -29.0460 O   0  0  0  0  0  0  0  0  0  0  0  0
   -5.9140   22.6980  -30.9270 C   0  0  0  0  0  0  0  0  0  0  0  0
   -6.5140   21.4400  -31.0780 C   0  0  0  0  0  0  0  0  0  0  0  0
   -5.9505   20.5345  -30.8087 H   0  0  0  0  0  0  0  0  0  0  0  0
   -7.7890   21.3230  -31.5550 N   0  0  0  0  0  0  0  0  0  0  0  0
   -8.3630   19.9780  -31.7310 C   0  0  0  0  0  0  0  0  0  0  0  0
   -8.4726   19.4984  -30.7471 H   0  0  0  0  0  0  0  0  0  0  0  0
   -9.3456   20.0686  -32.2170 H   0  0  0  0  0  0  0  0  0  0  0  0
   -7.4630   19.1360  -32.5970 C   0  0  0  0  0  0  0  0  0  0  0  0
   -7.2630   17.7770  -32.2980 C   0  0  0  0  0  0  0  0  0  0  0  0
   -7.7875   17.3204  -31.4457 H   0  0  0  0  0  0  0  0  0  0  0  0
   -6.4000   17.0040  -33.0800 C   0  0  0  0  0  0  0  0  0  0  0  0
   -6.2528   15.9393  -32.8462 H   0  0  0  0  0  0  0  0  0  0  0  0
   -5.7240   17.5810  -34.1580 C   0  0  0  0  0  0  0  0  0  0  0  0
   -5.0458   16.9708  -34.7726 H   0  0  0  0  0  0  0  0  0  0  0  0
   -5.9100   18.9340  -34.4550 C   0  0  0  0  0  0  0  0  0  0  0  0
   -5.3766   19.3881  -35.3031 H   0  0  0  0  0  0  0  0  0  0  0  0
   -6.7730   19.7120  -33.6760 C   0  0  0  0  0  0  0  0  0  0  0  0
   -6.9115   20.7780  -33.9093 H   0  0  0  0  0  0  0  0  0  0  0  0
   -8.4910   22.4460  -31.9060 C   0  0  0  0  0  0  0  0  0  0  0  0
   -9.6630   22.3550  -32.3640 O   0  0  0  0  0  0  0  0  0  0  0  0
   -7.9300   23.6760  -31.7620 N   0  0  0  0  0  0  0  0  0  0  0  0
   -8.4800   24.5250  -32.0300 H   0  0  0  0  0  0  0  0  0  0  0  0
   -6.6670   23.8270  -31.2840 C   0  0  0  0  0  0  0  0  0  0  0  0
   -6.1820   24.9850  -31.1670 O   0  0  0  0  0  0  0  0  0  0  0  0
  1  2  1  0
  2  3  2  0
  3  4  1  0
  4  5  2  0
  5  6  1  0
  6  7  1  0
  6  8  1  0
  6  9  1  0
  5 10  1  0
 10 11  1  0
 11 12  1  0
 11 13  1  0
 11 14  1  0
 10 15  1  0
 15 16  1  0
 16 17  2  0
 17 18  1  0
 17 19  1  0
 19 20  1  0
 19 21  2  0
 21 22  1  0
 21 23  1  0
 23 24  1  0
 23 25  2  0
 25 26  1  0
 15 27  1  0
 27 28  2  0
  2 29  1  0
 29 30  2  0
 30 31  1  0
 30 32  1  0
 32 33  1  0
 33 34  1  0
 33 35  1  0
 33 36  1  0
 36 37  2  0
 37 38  1  0
 37 39  1  0
 39 40  1  0
 39 41  2  0
 41 42  1  0
 41 43  1  0
 43 44  1  0
 43 45  2  0
 45 46  1  0
 32 47  1  0
 47 48  2  0
 47 49  1  0
 49 50  1  0
 49 51  1  0
 51 52  2  0
 27  4  1  0
 51 29  1  0
 25 16  1  0
 45 36  1  0
M  END
>  <UniqueID>  (47) 
45

>  <SMILES>  (47) 
Cc1c(/N=C/c2cn(Cc3ccccc3)c(=O)[nH]c2=O)c(=O)n(-c2ccccc2)n1C

>  <Energy>  (47) 
101.57037024953534

>  <Genealogy>  (47) 
Cc1c(/N=C/c2cn(Cc3ccccc3)c(=O)[nH]c2=O)c(=O)n(-c2ccccc2)n1C (cis-trans isomerization)
Cc1c(/N=C/c2cn(Cc3ccccc3)c(=O)[nH]c2=O)c(=O)n(-c2ccccc2)n1C (3D coordinates assigned)
Cc1c(/N=C/c2cn(Cc3ccccc3)c(=O)[nH]c2=O)c(=O)n(-c2ccccc2)n1C (optimized conformer: 101.57037024953534 kcal/mol)

>  <smiles>  (47) 
Cc1c(N=Cc2cn(Cc3ccccc3)c(=O)[nH]c2=O)c(=O)n(-c2ccccc2)n1C

>  <score_type>  (47) 
oracle

>  <origin>  (47) 
adgpu

>  <m_score__min__energy>  (47) 
-8.9900000000000002

>  <m_primary>  (47) 
energy

$$$$
47:0
     RDKit          3D

 44 46  0  0  0  0  0  0  0  0999 V2000
   -6.2180   25.6680  -29.3920 Br  0  0  0  0  0  0  0  0  0  0  0  0
   -5.4610   24.3040  -30.4920 C   0  0  0  0  0  0  0  0  0  0  0  0
   -6.1050   23.9110  -31.6670 C   0  0  0  0  0  0  0  0  0  0  0  0
   -5.5470   22.9190  -32.4770 C   0  0  0  0  0  0  0  0  0  0  0  0
   -4.3110   22.3350  -32.1440 C   0  0  0  0  0  0  0  0  0  0  0  0
   -3.6900   21.2450  -33.0080 C   0  0  0  0  0  0  0  0  0  0  0  0
   -4.4690   19.9780  -33.1300 N   0  0  0  0  0  0  0  0  0  0  0  0
   -5.1800   19.5430  -31.8920 C   0  0  0  0  0  0  0  0  0  0  0  0
   -6.6900   19.4410  -31.9900 C   0  0  0  0  0  0  0  0  0  0  0  0
   -7.4210   20.4810  -32.5930 C   0  0  0  0  0  0  0  0  0  0  0  0
   -8.8100   20.3930  -32.7200 C   0  0  0  0  0  0  0  0  0  0  0  0
   -9.4830   19.2570  -32.2670 C   0  0  0  0  0  0  0  0  0  0  0  0
   -8.7640   18.1980  -31.7090 C   0  0  0  0  0  0  0  0  0  0  0  0
   -7.3740   18.2790  -31.5880 C   0  0  0  0  0  0  0  0  0  0  0  0
   -3.7370   18.8950  -33.8370 C   0  0  0  0  0  0  0  0  0  0  0  0
   -4.4900   17.5800  -33.8330 C   0  0  0  0  0  0  0  0  0  0  0  0
   -5.7590   17.4890  -34.4310 C   0  0  0  0  0  0  0  0  0  0  0  0
   -6.4590   16.2780  -34.4250 C   0  0  0  0  0  0  0  0  0  0  0  0
   -5.8950   15.1470  -33.8280 C   0  0  0  0  0  0  0  0  0  0  0  0
   -4.6300   15.2240  -33.2430 C   0  0  0  0  0  0  0  0  0  0  0  0
   -3.9260   16.4330  -33.2470 C   0  0  0  0  0  0  0  0  0  0  0  0
   -3.7160   22.6800  -30.9170 C   0  0  0  0  0  0  0  0  0  0  0  0
   -4.2740   23.6750  -30.1090 C   0  0  0  0  0  0  0  0  0  0  0  0
   -7.0551   24.3842  -31.9558 H   0  0  0  0  0  0  0  0  0  0  0  0
   -6.0784   22.5917  -33.3828 H   0  0  0  0  0  0  0  0  0  0  0  0
   -3.5549   21.6548  -34.0198 H   0  0  0  0  0  0  0  0  0  0  0  0
   -2.7528   20.9673  -32.5035 H   0  0  0  0  0  0  0  0  0  0  0  0
   -5.2440   20.2440  -33.7830 H   0  0  0  0  0  0  0  0  0  0  0  0
   -4.7937   18.5514  -31.6135 H   0  0  0  0  0  0  0  0  0  0  0  0
   -4.9849   20.3292  -31.1478 H   0  0  0  0  0  0  0  0  0  0  0  0
   -6.8946   21.3712  -32.9678 H   0  0  0  0  0  0  0  0  0  0  0  0
   -9.3734   21.2197  -33.1773 H   0  0  0  0  0  0  0  0  0  0  0  0
  -10.5782   19.1962  -32.3495 H   0  0  0  0  0  0  0  0  0  0  0  0
   -9.2931   17.2975  -31.3637 H   0  0  0  0  0  0  0  0  0  0  0  0
   -6.8110   17.4287  -31.1757 H   0  0  0  0  0  0  0  0  0  0  0  0
   -3.5736   19.2036  -34.8801 H   0  0  0  0  0  0  0  0  0  0  0  0
   -2.7869   18.7351  -33.3061 H   0  0  0  0  0  0  0  0  0  0  0  0
   -6.2041   18.3754  -34.9065 H   0  0  0  0  0  0  0  0  0  0  0  0
   -7.4538   16.2157  -34.8903 H   0  0  0  0  0  0  0  0  0  0  0  0
   -6.4481   14.1962  -33.8192 H   0  0  0  0  0  0  0  0  0  0  0  0
   -4.1855   14.3319  -32.7777 H   0  0  0  0  0  0  0  0  0  0  0  0
   -2.9270   16.4865  -32.7898 H   0  0  0  0  0  0  0  0  0  0  0  0
   -2.8025   22.1617  -30.5900 H   0  0  0  0  0  0  0  0  0  0  0  0
   -3.7778   23.9630  -29.1705 H   0  0  0  0  0  0  0  0  0  0  0  0
  1  2  1  0
  2  3  2  0
  3  4  1  0
  4  5  2  0
  5  6  1  0
  6  7  1  0
  7  8  1  0
  8  9  1  0
  9 10  2  0
 10 11  1  0
 11 12  2  0
 12 13  1  0
 13 14  2  0
  7 15  1  0
 15 16  1  0
 16 17  2  0
 17 18  1  0
 18 19  2  0
 19 20  1  0
 20 21  2  0
  5 22  1  0
 22 23  2  0
 23  2  1  0
 14  9  1  0
 21 16  1  0
  3 24  1  0
  4 25  1  0
  6 26  1  0
  6 27  1  0
  7 28  1  0
  8 29  1  0
  8 30  1  0
 10 31  1  0
 11 32  1  0
 12 33  1  0
 13 34  1  0
 14 35  1  0
 15 36  1  0
 15 37  1  0
 17 38  1  0
 18 39  1  0
 19 40  1  0
 20 41  1  0
 21 42  1  0
 22 43  1  0
 23 44  1  0
M  CHG  1   7   1
M  END
>  <UniqueID>  (48) 
46

>  <SMILES>  (48) 
Brc1ccc(C[NH+](Cc2ccccc2)Cc2ccccc2)cc1

>  <Energy>  (48) 
59.242260440428595

>  <Genealogy>  (48) 
Brc1ccc(C[NH+](Cc2ccccc2)Cc2ccccc2)cc1 (protonated)
Brc1ccc(C[NH+](Cc2ccccc2)Cc2ccccc2)cc1 (3D coordinates assigned)
Brc1ccc(C[NH+](Cc2ccccc2)Cc2ccccc2)cc1 (optimized conformer: 59.242260440428595 kcal/mol)

>  <smiles>  (48) 
Brc1ccc(CN(Cc2ccccc2)Cc2ccccc2)cc1

>  <score_type>  (48) 
oracle

>  <origin>  (48) 
adgpu

>  <m_score__min__energy>  (48) 
-7.5499999999999998

>  <m_primary>  (48) 
energy

$$$$
