0:0
     RDKit          3D

 50 53  0  0  0  0  0  0  0  0999 V2000
    2.0450   24.1410  -26.1580 O   0  0  0  0  0  0  0  0  0  0  0  0
    0.7310   24.0220  -25.4380 S   0  0  0  0  0  0  0  0  0  0  0  0
    0.6900   22.6940  -24.7300 O   0  0  0  0  0  0  0  0  0  0  0  0
   -0.5710   24.1130  -26.6210 C   0  0  0  0  0  0  0  0  0  0  0  0
   -1.6230   23.1880  -26.6010 C   0  0  0  0  0  0  0  0  0  0  0  0
   -2.6690   23.2920  -27.5220 C   0  0  0  0  0  0  0  0  0  0  0  0
   -2.6800   24.3260  -28.4740 C   0  0  0  0  0  0  0  0  0  0  0  0
   -3.7900   24.4410  -29.4440 C   0  0  0  0  0  0  0  0  0  0  0  0
   -4.9180   23.7030  -29.3850 N   0  0  0  0  0  0  0  0  0  0  0  0
   -5.5990   24.1600  -30.4530 C   0  0  0  0  0  0  0  0  0  0  0  0
   -7.2100   23.5490  -30.9360 S   0  0  0  0  0  0  0  0  0  0  0  0
   -6.5770   22.5310  -32.3150 C   0  0  0  0  0  0  0  0  0  0  0  0
   -7.2300   21.1760  -32.3280 C   0  0  0  0  0  0  0  0  0  0  0  0
   -8.4780   20.9790  -31.7140 C   0  0  0  0  0  0  0  0  0  0  0  0
   -9.0650   19.7100  -31.7010 C   0  0  0  0  0  0  0  0  0  0  0  0
   -8.4100   18.6300  -32.2990 C   0  0  0  0  0  0  0  0  0  0  0  0
   -7.1670   18.8170  -32.9100 C   0  0  0  0  0  0  0  0  0  0  0  0
   -6.5310   17.7670  -33.4870 F   0  0  0  0  0  0  0  0  0  0  0  0
   -6.5750   20.0850  -32.9230 C   0  0  0  0  0  0  0  0  0  0  0  0
   -4.9350   25.1190  -31.1230 N   0  0  0  0  0  0  0  0  0  0  0  0
   -3.7910   25.2960  -30.4860 N   0  0  0  0  0  0  0  0  0  0  0  0
   -1.6240   25.2540  -28.4860 C   0  0  0  0  0  0  0  0  0  0  0  0
   -0.5790   25.1480  -27.5630 C   0  0  0  0  0  0  0  0  0  0  0  0
    0.5700   25.3200  -24.2780 N   0  0  0  0  0  0  0  0  0  0  0  0
   -0.8620   25.6850  -24.0870 C   0  0  0  0  0  0  0  0  0  0  0  0
   -1.2680   26.9420  -24.8700 C   0  0  0  0  0  0  0  0  0  0  0  0
   -0.4210   28.1560  -24.4470 C   0  0  0  0  0  0  0  0  0  0  0  0
    1.0020   27.7650  -24.0120 C   0  0  0  0  0  0  0  0  0  0  0  0
    1.4410   26.4550  -24.6750 C   0  0  0  0  0  0  0  0  0  0  0  0
   -1.6257   22.3770  -25.8578 H   0  0  0  0  0  0  0  0  0  0  0  0
   -3.4894   22.5595  -27.5017 H   0  0  0  0  0  0  0  0  0  0  0  0
   -6.7888   23.0417  -33.2660 H   0  0  0  0  0  0  0  0  0  0  0  0
   -5.4932   22.3967  -32.1831 H   0  0  0  0  0  0  0  0  0  0  0  0
   -8.9957   21.8267  -31.2414 H   0  0  0  0  0  0  0  0  0  0  0  0
  -10.0430   19.5617  -31.2198 H   0  0  0  0  0  0  0  0  0  0  0  0
   -8.8730   17.6322  -32.2888 H   0  0  0  0  0  0  0  0  0  0  0  0
   -5.5943   20.2277  -33.4003 H   0  0  0  0  0  0  0  0  0  0  0  0
   -1.6198   26.0681  -29.2257 H   0  0  0  0  0  0  0  0  0  0  0  0
    0.2406   25.8815  -27.5774 H   0  0  0  0  0  0  0  0  0  0  0  0
    0.9280   24.9470  -23.3680 H   0  0  0  0  0  0  0  0  0  0  0  0
   -1.4864   24.8445  -24.4242 H   0  0  0  0  0  0  0  0  0  0  0  0
   -1.0079   25.9005  -23.0182 H   0  0  0  0  0  0  0  0  0  0  0  0
   -1.1216   26.7587  -25.9447 H   0  0  0  0  0  0  0  0  0  0  0  0
   -2.3244   27.1612  -24.6556 H   0  0  0  0  0  0  0  0  0  0  0  0
   -0.3507   28.8496  -25.2979 H   0  0  0  0  0  0  0  0  0  0  0  0
   -0.9165   28.6215  -23.5823 H   0  0  0  0  0  0  0  0  0  0  0  0
    1.6989   28.5654  -24.3015 H   0  0  0  0  0  0  0  0  0  0  0  0
    1.0075   27.6235  -22.9211 H   0  0  0  0  0  0  0  0  0  0  0  0
    1.3942   26.5752  -25.7674 H   0  0  0  0  0  0  0  0  0  0  0  0
    2.4668   26.2314  -24.3467 H   0  0  0  0  0  0  0  0  0  0  0  0
  1  2  2  0
  2  3  2  0
  2  4  1  0
  4  5  2  0
  5  6  1  0
  6  7  2  0
  7  8  1  0
  8  9  2  0
  9 10  1  0
 10 11  1  0
 11 12  1  0
 12 13  1  0
 13 14  2  0
 14 15  1  0
 15 16  2  0
 16 17  1  0
 17 18  1  0
 17 19  2  0
 10 20  2  0
 20 21  1  0
  7 22  1  0
 22 23  2  0
  2 24  1  0
 24 25  1  0
 25 26  1  0
 26 27  1  0
 27 28  1  0
 28 29  1  0
 23  4  1  0
 29 24  1  0
 21  8  1  0
 19 13  1  0
  5 30  1  0
  6 31  1  0
 12 32  1  0
 12 33  1  0
 14 34  1  0
 15 35  1  0
 16 36  1  0
 19 37  1  0
 22 38  1  0
 23 39  1  0
 24 40  1  0
 25 41  1  0
 25 42  1  0
 26 43  1  0
 26 44  1  0
 27 45  1  0
 27 46  1  0
 28 47  1  0
 28 48  1  0
 29 49  1  0
 29 50  1  0
M  CHG  2  21  -1  24   1
M  END
>  <UniqueID>  (1) 
1

>  <SMILES>  (1) 
O=S(=O)(c1ccc(-c2nc(SCc3cccc(F)c3)n[n-]2)cc1)[NH+]1CCCCC1

>  <Energy>  (1) 
85.97809191137114

>  <Genealogy>  (1) 
O=S(=O)(c1ccc(-c2nc(SCc3cccc(F)c3)n[n-]2)cc1)[NH+]1CCCCC1 (protonated)
O=S(=O)(c1ccc(-c2nc(SCc3cccc(F)c3)n[n-]2)cc1)[NH+]1CCCCC1 (3D coordinates assigned)
O=S(=O)(c1ccc(-c2nc(SCc3cccc(F)c3)n[n-]2)cc1)[NH+]1CCCCC1 (nonaromatic ring conformer: 85.97809191137114 kcal/mol)

>  <smiles>  (1) 
O=S(=O)(c1ccc(-c2nc(SCc3cccc(F)c3)n[nH]2)cc1)N1CCCCC1

>  <score_type>  (1) 
oracle

>  <origin>  (1) 
adgpu

>  <m_score__min__energy>  (1) 
-11.94

>  <m_primary>  (1) 
energy

$$$$
1:0
     RDKit          3D

 69 72  0  0  0  0  0  0  0  0999 V2000
   -0.1250   20.7740  -35.1320 C   0  0  0  0  0  0  0  0  0  0  0  0
   -0.6030   19.4210  -34.6220 C   0  0  0  0  0  0  0  0  0  0  0  0
   -1.7210   19.5740  -33.6780 N   0  0  0  0  0  0  0  0  0  0  0  0
   -1.7340   20.6070  -32.6520 C   0  0  0  0  0  0  0  0  0  0  0  0
   -2.8230   21.4890  -32.5050 C   0  0  0  0  0  0  0  0  0  0  0  0
   -2.8270   22.4600  -31.4970 C   0  0  0  0  0  0  0  0  0  0  0  0
   -1.7540   22.5650  -30.6060 C   0  0  0  0  0  0  0  0  0  0  0  0
   -1.7840   23.7560  -29.2980 S   0  0  0  0  0  0  0  0  0  0  0  0
   -0.4830   24.5110  -29.2870 O   0  0  0  0  0  0  0  0  0  0  0  0
   -2.8870   24.7440  -29.5550 O   0  0  0  0  0  0  0  0  0  0  0  0
   -1.9910   23.0030  -27.7310 N   0  0  0  0  0  0  0  0  0  0  0  0
   -0.6790   22.7210  -27.1120 C   0  0  0  0  0  0  0  0  0  0  0  0
   -0.8580   21.9440  -25.8040 C   0  0  0  0  0  0  0  0  0  0  0  0
   -1.5740   20.5990  -26.0290 C   0  0  0  0  0  0  0  0  0  0  0  0
   -2.2820   20.5140  -27.3900 C   0  0  0  0  0  0  0  0  0  0  0  0
   -2.9350   21.8540  -27.7640 C   0  0  0  0  0  0  0  0  0  0  0  0
   -0.6570   21.7110  -30.7540 C   0  0  0  0  0  0  0  0  0  0  0  0
   -0.6430   20.7490  -31.7660 C   0  0  0  0  0  0  0  0  0  0  0  0
   -2.8100   18.6310  -33.7760 C   0  0  0  0  0  0  0  0  0  0  0  0
   -4.0880   18.9200  -34.2160 C   0  0  0  0  0  0  0  0  0  0  0  0
   -4.8560   17.8280  -33.8650 C   0  0  0  0  0  0  0  0  0  0  0  0
   -6.3230   17.7760  -34.0210 C   0  0  0  0  0  0  0  0  0  0  0  0
   -6.8090   16.7580  -34.5910 O   0  0  0  0  0  0  0  0  0  0  0  0
   -7.2190   18.7440  -33.4060 N   0  0  0  0  0  0  0  0  0  0  0  0
   -8.0560   18.1790  -32.3220 C   0  0  0  0  0  0  0  0  0  0  0  0
   -9.0670   19.2190  -31.7840 C   0  0  0  0  0  0  0  0  0  0  0  0
   -8.7150   20.5950  -32.1940 N   0  0  0  0  0  0  0  0  0  0  0  0
   -9.4990   21.5700  -31.4190 C   0  0  0  0  0  0  0  0  0  0  0  0
   -7.2760   20.8340  -32.0010 C   0  0  0  0  0  0  0  0  0  0  0  0
   -6.4450   19.9150  -32.9210 C   0  0  0  0  0  0  0  0  0  0  0  0
   -4.0970   16.9040  -33.2240 N   0  0  0  0  0  0  0  0  0  0  0  0
   -4.5420   15.7050  -32.5180 C   0  0  0  0  0  0  0  0  0  0  0  0
   -2.8410   17.3860  -33.1800 C   0  0  0  0  0  0  0  0  0  0  0  0
    0.1058   21.4272  -34.2776 H   0  0  0  0  0  0  0  0  0  0  0  0
    0.7791   20.6368  -35.7434 H   0  0  0  0  0  0  0  0  0  0  0  0
   -0.9146   21.2352  -35.7434 H   0  0  0  0  0  0  0  0  0  0  0  0
   -0.9350   18.8123  -35.4760 H   0  0  0  0  0  0  0  0  0  0  0  0
    0.2311   18.9312  -34.0982 H   0  0  0  0  0  0  0  0  0  0  0  0
   -3.6800   21.4135  -33.1905 H   0  0  0  0  0  0  0  0  0  0  0  0
   -3.6815   23.1465  -31.4047 H   0  0  0  0  0  0  0  0  0  0  0  0
   -0.0716   22.1234  -27.8077 H   0  0  0  0  0  0  0  0  0  0  0  0
   -0.1769   23.6749  -26.8929 H   0  0  0  0  0  0  0  0  0  0  0  0
    0.1326   21.7508  -25.3666 H   0  0  0  0  0  0  0  0  0  0  0  0
   -1.4779   22.5516  -25.1283 H   0  0  0  0  0  0  0  0  0  0  0  0
   -0.8291   19.7917  -25.9707 H   0  0  0  0  0  0  0  0  0  0  0  0
   -2.3458   20.5038  -25.2510 H   0  0  0  0  0  0  0  0  0  0  0  0
   -1.5447   20.2469  -28.1614 H   0  0  0  0  0  0  0  0  0  0  0  0
   -3.0704   19.7498  -27.3243 H   0  0  0  0  0  0  0  0  0  0  0  0
   -3.3455   21.7696  -28.7810 H   0  0  0  0  0  0  0  0  0  0  0  0
   -3.7152   22.0543  -27.0149 H   0  0  0  0  0  0  0  0  0  0  0  0
    0.1997   21.7974  -30.0695 H   0  0  0  0  0  0  0  0  0  0  0  0
    0.2318   20.0911  -31.8751 H   0  0  0  0  0  0  0  0  0  0  0  0
   -4.4228   19.8293  -34.7366 H   0  0  0  0  0  0  0  0  0  0  0  0
   -7.8630   19.0670  -34.1680 H   0  0  0  0  0  0  0  0  0  0  0  0
   -8.6091   17.3121  -32.7127 H   0  0  0  0  0  0  0  0  0  0  0  0
   -7.3943   17.8818  -31.4950 H   0  0  0  0  0  0  0  0  0  0  0  0
  -10.0669   18.9770  -32.1733 H   0  0  0  0  0  0  0  0  0  0  0  0
   -9.0475   19.1758  -30.6850 H   0  0  0  0  0  0  0  0  0  0  0  0
   -9.3521   21.3873  -30.3443 H   0  0  0  0  0  0  0  0  0  0  0  0
   -9.1655   22.5885  -31.6667 H   0  0  0  0  0  0  0  0  0  0  0  0
  -10.5654   21.4629  -31.6667 H   0  0  0  0  0  0  0  0  0  0  0  0
   -7.0488   21.8839  -32.2380 H   0  0  0  0  0  0  0  0  0  0  0  0
   -7.0174   20.6159  -30.9543 H   0  0  0  0  0  0  0  0  0  0  0  0
   -6.1069   20.4986  -33.7900 H   0  0  0  0  0  0  0  0  0  0  0  0
   -5.5963   19.5342  -32.3339 H   0  0  0  0  0  0  0  0  0  0  0  0
   -4.4793   15.8739  -31.4329 H   0  0  0  0  0  0  0  0  0  0  0  0
   -5.5829   15.4816  -32.7948 H   0  0  0  0  0  0  0  0  0  0  0  0
   -3.8989   14.8566  -32.7948 H   0  0  0  0  0  0  0  0  0  0  0  0
   -1.9758   16.8695  -32.7388 H   0  0  0  0  0  0  0  0  0  0  0  0
  1  2  1  0
  2  3  1  0
  3  4  1  0
  4  5  2  0
  5  6  1  0
  6  7  2  0
  7  8  1  0
  8  9  2  0
  8 10  2  0
  8 11  1  0
 11 12  1  0
 12 13  1  0
 13 14  1  0
 14 15  1  0
 15 16  1  0
  7 17  1  0
 17 18  2  0
  3 19  1  0
 19 20  1  0
 20 21  2  0
 21 22  1  0
 22 23  2  0
 22 24  1  0
 24 25  1  0
 25 26  1  0
 26 27  1  0
 27 28  1  0
 27 29  1  0
 29 30  1  0
 21 31  1  0
 31 32  1  0
 31 33  1  0
 18  4  1  0
 33 19  2  0
 16 11  1  0
 30 24  1  0
  1 34  1  0
  1 35  1  0
  1 36  1  0
  2 37  1  0
  2 38  1  0
  5 39  1  0
  6 40  1  0
 12 41  1  0
 12 42  1  0
 13 43  1  0
 13 44  1  0
 14 45  1  0
 14 46  1  0
 15 47  1  0
 15 48  1  0
 16 49  1  0
 16 50  1  0
 17 51  1  0
 18 52  1  0
 20 53  1  0
 24 54  1  0
 25 55  1  0
 25 56  1  0
 26 57  1  0
 26 58  1  0
 28 59  1  0
 28 60  1  0
 28 61  1  0
 29 62  1  0
 29 63  1  0
 30 64  1  0
 30 65  1  0
 32 66  1  0
 32 67  1  0
 32 68  1  0
 33 69  1  0
M  CHG  1  24   1
M  END
>  <UniqueID>  (2) 
2

>  <SMILES>  (2) 
CCN(c1ccc(S(=O)(=O)N2CCCCC2)cc1)c1cc(C(=O)[NH+]2CCN(C)CC2)n(C)c1

>  <Energy>  (2) 
130.43931692172603

>  <Genealogy>  (2) 
CCN(c1ccc(S(=O)(=O)N2CCCCC2)cc1)c1cc(C(=O)[NH+]2CCN(C)CC2)n(C)c1 (protonated)
CCN(c1ccc(S(=O)(=O)N2CCCCC2)cc1)c1cc(C(=O)[NH+]2CCN(C)CC2)n(C)c1 (3D coordinates assigned)
CCN(c1ccc(S(=O)(=O)N2CCCCC2)cc1)c1cc(C(=O)[NH+]2CCN(C)CC2)n(C)c1 (nonaromatic ring conformer: 130.43931692172603 kcal/mol)

>  <smiles>  (2) 
CCN(c1ccc(S(=O)(=O)N2CCCCC2)cc1)c1cc(C(=O)N2CCN(C)CC2)n(C)c1

>  <score_type>  (2) 
oracle

>  <origin>  (2) 
adgpu

>  <m_score__min__energy>  (2) 
-9.6999999999999993

>  <m_primary>  (2) 
energy

$$$$
2:0
     RDKit          3D

 59 63  0  0  0  0  0  0  0  0999 V2000
   -2.2500   24.8840  -26.7500 O   0  0  0  0  0  0  0  0  0  0  0  0
   -2.7190   24.6380  -27.8910 C   0  0  0  0  0  0  0  0  0  0  0  0
   -2.3590   25.2980  -29.0060 N   0  0  0  0  0  0  0  0  0  0  0  0
   -3.0670   24.7590  -29.9870 N   0  0  0  0  0  0  0  0  0  0  0  0
   -3.8270   23.7940  -29.4260 C   0  0  0  0  0  0  0  0  0  0  0  0
   -4.7780   22.9440  -30.1700 C   0  0  0  0  0  0  0  0  0  0  0  0
   -4.3030   21.9510  -31.0430 C   0  0  0  0  0  0  0  0  0  0  0  0
   -5.2000   21.1310  -31.7370 C   0  0  0  0  0  0  0  0  0  0  0  0
   -6.5820   21.2890  -31.5590 C   0  0  0  0  0  0  0  0  0  0  0  0
   -7.7220   20.2260  -32.3810 S   0  0  0  0  0  0  0  0  0  0  0  0
   -8.0510   19.0760  -31.4720 O   0  0  0  0  0  0  0  0  0  0  0  0
   -8.9940   20.9560  -32.7180 O   0  0  0  0  0  0  0  0  0  0  0  0
   -7.0070   19.6190  -33.8420 N   0  0  0  0  0  0  0  0  0  0  0  0
   -6.0610   18.5360  -33.8730 C   0  0  0  0  0  0  0  0  0  0  0  0
   -6.4730   17.1980  -34.0000 C   0  0  0  0  0  0  0  0  0  0  0  0
   -5.5290   16.1710  -34.0420 C   0  0  0  0  0  0  0  0  0  0  0  0
   -4.1670   16.4610  -33.9430 C   0  0  0  0  0  0  0  0  0  0  0  0
   -3.7310   17.7890  -33.7930 C   0  0  0  0  0  0  0  0  0  0  0  0
   -2.2830   18.1000  -33.6660 C   0  0  0  0  0  0  0  0  0  0  0  0
   -1.4680   18.2100  -34.8090 C   0  0  0  0  0  0  0  0  0  0  0  0
   -0.1120   18.5160  -34.6870 C   0  0  0  0  0  0  0  0  0  0  0  0
    0.4560   18.7100  -33.4240 C   0  0  0  0  0  0  0  0  0  0  0  0
    1.8070   19.0230  -33.3310 O   0  0  0  0  0  0  0  0  0  0  0  0
   -0.3400   18.5930  -32.2660 C   0  0  0  0  0  0  0  0  0  0  0  0
    0.2330   18.8290  -30.8890 C   0  0  0  0  0  0  0  0  0  0  0  0
   -0.2400   20.1170  -30.3410 N   0  0  0  0  0  0  0  0  0  0  0  0
   -1.2640   19.9070  -29.2930 C   0  0  0  0  0  0  0  0  0  0  0  0
   -1.9080   21.2370  -28.8490 C   0  0  0  0  0  0  0  0  0  0  0  0
   -1.1830   22.3810  -29.4100 N   0  0  0  0  0  0  0  0  0  0  0  0
   -1.2240   22.3390  -30.8780 C   0  0  0  0  0  0  0  0  0  0  0  0
   -0.7790   20.9640  -31.4220 C   0  0  0  0  0  0  0  0  0  0  0  0
   -1.7060   18.2980  -32.3970 C   0  0  0  0  0  0  0  0  0  0  0  0
   -4.6900   18.8200  -33.7560 C   0  0  0  0  0  0  0  0  0  0  0  0
   -7.0590   22.2800  -30.6940 C   0  0  0  0  0  0  0  0  0  0  0  0
   -6.1650   23.1060  -30.0040 C   0  0  0  0  0  0  0  0  0  0  0  0
   -3.6150   23.7150  -28.1310 O   0  0  0  0  0  0  0  0  0  0  0  0
   -3.2200   21.8173  -31.1818 H   0  0  0  0  0  0  0  0  0  0  0  0
   -4.8200   20.3605  -32.4239 H   0  0  0  0  0  0  0  0  0  0  0  0
   -7.3850   19.9880  -34.7430 H   0  0  0  0  0  0  0  0  0  0  0  0
   -7.5447   16.9593  -34.0666 H   0  0  0  0  0  0  0  0  0  0  0  0
   -5.8597   15.1279  -34.1537 H   0  0  0  0  0  0  0  0  0  0  0  0
   -3.4303   15.6451  -33.9826 H   0  0  0  0  0  0  0  0  0  0  0  0
   -1.9040   18.0534  -35.8067 H   0  0  0  0  0  0  0  0  0  0  0  0
    0.5127   18.6050  -35.5880 H   0  0  0  0  0  0  0  0  0  0  0  0
   -0.0839   18.0142  -30.2214 H   0  0  0  0  0  0  0  0  0  0  0  0
    1.3302   18.8571  -30.9622 H   0  0  0  0  0  0  0  0  0  0  0  0
   -2.0488   19.2457  -29.6890 H   0  0  0  0  0  0  0  0  0  0  0  0
   -0.7720   19.4558  -28.4187 H   0  0  0  0  0  0  0  0  0  0  0  0
   -2.9512   21.2659  -29.1966 H   0  0  0  0  0  0  0  0  0  0  0  0
   -1.8674   21.2985  -27.7515 H   0  0  0  0  0  0  0  0  0  0  0  0
   -1.6690   23.2540  -29.1010 H   0  0  0  0  0  0  0  0  0  0  0  0
   -2.2529   22.5386  -31.2119 H   0  0  0  0  0  0  0  0  0  0  0  0
   -0.5303   23.1011  -31.2627 H   0  0  0  0  0  0  0  0  0  0  0  0
   -1.6445   20.4597  -31.8765 H   0  0  0  0  0  0  0  0  0  0  0  0
    0.0115   21.1223  -32.1704 H   0  0  0  0  0  0  0  0  0  0  0  0
   -2.3336   18.2205  -31.4970 H   0  0  0  0  0  0  0  0  0  0  0  0
   -4.3608   19.8624  -33.6338 H   0  0  0  0  0  0  0  0  0  0  0  0
   -8.1425   22.4104  -30.5557 H   0  0  0  0  0  0  0  0  0  0  0  0
   -6.5486   23.8852  -29.3290 H   0  0  0  0  0  0  0  0  0  0  0  0
  1  2  2  0
  2  3  1  0
  3  4  1  0
  4  5  2  0
  5  6  1  0
  6  7  2  0
  7  8  1  0
  8  9  2  0
  9 10  1  0
 10 11  2  0
 10 12  2  0
 10 13  1  0
 13 14  1  0
 14 15  2  0
 15 16  1  0
 16 17  2  0
 17 18  1  0
 18 19  1  0
 19 20  2  0
 20 21  1  0
 21 22  2  0
 22 23  1  0
 22 24  1  0
 24 25  1  0
 25 26  1  0
 26 27  1  0
 27 28  1  0
 28 29  1  0
 29 30  1  0
 30 31  1  0
 24 32  2  0
 18 33  2  0
  9 34  1  0
 34 35  2  0
  5 36  1  0
 36  2  1  0
 35  6  1  0
 33 14  1  0
 32 19  1  0
 31 26  1  0
  7 37  1  0
  8 38  1  0
 13 39  1  0
 15 40  1  0
 16 41  1  0
 17 42  1  0
 20 43  1  0
 21 44  1  0
 25 45  1  0
 25 46  1  0
 27 47  1  0
 27 48  1  0
 28 49  1  0
 28 50  1  0
 29 51  1  0
 30 52  1  0
 30 53  1  0
 31 54  1  0
 31 55  1  0
 32 56  1  0
 33 57  1  0
 34 58  1  0
 35 59  1  0
M  CHG  2   3  -1  23  -1
M  END
>  <UniqueID>  (3) 
3

>  <SMILES>  (3) 
O=c1[n-]nc(-c2ccc(S(=O)(=O)Nc3cccc(-c4ccc([O-])c(CN5CCNCC5)c4)c3)cc2)o1

>  <Energy>  (3) 
115.61157605849709

>  <Genealogy>  (3) 
O=c1[n-]nc(-c2ccc(S(=O)(=O)Nc3cccc(-c4ccc([O-])c(CN5CCNCC5)c4)c3)cc2)o1 (protonated)
O=c1[n-]nc(-c2ccc(S(=O)(=O)Nc3cccc(-c4ccc([O-])c(CN5CCNCC5)c4)c3)cc2)o1 (3D coordinates assigned)
O=c1[n-]nc(-c2ccc(S(=O)(=O)Nc3cccc(-c4ccc([O-])c(CN5CCNCC5)c4)c3)cc2)o1 (nonaromatic ring conformer: 115.61157605849709 kcal/mol)

>  <smiles>  (3) 
O=c1[nH]nc(-c2ccc(S(=O)(=O)Nc3cccc(-c4ccc(O)c(CN5CCNCC5)c4)c3)cc2)o1

>  <score_type>  (3) 
oracle

>  <origin>  (3) 
adgpu

>  <m_score__min__energy>  (3) 
-15.039999999999999

>  <m_primary>  (3) 
energy

$$$$
3:0
     RDKit          3D

 52 55  0  0  0  0  0  0  0  0999 V2000
    2.6850   19.3380  -33.2150 C   0  0  0  0  0  0  0  0  0  0  0  0
    1.7870   20.4290  -33.3850 O   0  0  0  0  0  0  0  0  0  0  0  0
    0.4120   20.3770  -33.1050 C   0  0  0  0  0  0  0  0  0  0  0  0
   -0.2000   21.2380  -32.1740 C   0  0  0  0  0  0  0  0  0  0  0  0
   -1.5730   21.1530  -31.9280 C   0  0  0  0  0  0  0  0  0  0  0  0
   -2.3560   20.2080  -32.6080 C   0  0  0  0  0  0  0  0  0  0  0  0
   -3.7370   20.1170  -32.3710 C   0  0  0  0  0  0  0  0  0  0  0  0
   -4.5130   19.1750  -33.0600 C   0  0  0  0  0  0  0  0  0  0  0  0
   -6.2490   19.0600  -32.7740 S   0  0  0  0  0  0  0  0  0  0  0  0
   -6.4870   18.4520  -31.4180 O   0  0  0  0  0  0  0  0  0  0  0  0
   -6.8600   18.1960  -33.8430 O   0  0  0  0  0  0  0  0  0  0  0  0
   -6.9610   20.6420  -32.8380 N   0  0  0  0  0  0  0  0  0  0  0  0
   -6.8160   21.6540  -31.8300 C   0  0  0  0  0  0  0  0  0  0  0  0
   -7.7710   21.7210  -30.8080 C   0  0  0  0  0  0  0  0  0  0  0  0
   -7.6510   22.6700  -29.7880 C   0  0  0  0  0  0  0  0  0  0  0  0
   -6.5660   23.5490  -29.7700 C   0  0  0  0  0  0  0  0  0  0  0  0
   -5.5950   23.4880  -30.7800 C   0  0  0  0  0  0  0  0  0  0  0  0
   -4.4150   24.3670  -30.7330 C   0  0  0  0  0  0  0  0  0  0  0  0
   -4.5740   25.6130  -30.8470 O   0  0  0  0  0  0  0  0  0  0  0  0
   -3.0870   23.8440  -30.5910 N   0  0  0  0  0  0  0  0  0  0  0  0
   -2.1840   23.8410  -29.1060 S   0  0  0  0  0  0  0  0  0  0  0  0
   -0.8540   24.5020  -29.3360 O   0  0  0  0  0  0  0  0  0  0  0  0
   -2.9360   24.6180  -28.0600 O   0  0  0  0  0  0  0  0  0  0  0  0
   -1.8980   22.1840  -28.5740 C   0  0  0  0  0  0  0  0  0  0  0  0
   -0.6180   21.6110  -28.6570 C   0  0  0  0  0  0  0  0  0  0  0  0
   -0.3920   20.3210  -28.1630 C   0  0  0  0  0  0  0  0  0  0  0  0
   -1.4430   19.5950  -27.5960 C   0  0  0  0  0  0  0  0  0  0  0  0
   -2.7240   20.1550  -27.5280 C   0  0  0  0  0  0  0  0  0  0  0  0
   -2.9510   21.4460  -28.0120 C   0  0  0  0  0  0  0  0  0  0  0  0
   -5.7370   22.5570  -31.8240 C   0  0  0  0  0  0  0  0  0  0  0  0
   -3.9040   18.3130  -33.9790 C   0  0  0  0  0  0  0  0  0  0  0  0
   -2.5300   18.3940  -34.2210 C   0  0  0  0  0  0  0  0  0  0  0  0
   -1.7480   19.3400  -33.5430 C   0  0  0  0  0  0  0  0  0  0  0  0
   -0.3680   19.4320  -33.7820 C   0  0  0  0  0  0  0  0  0  0  0  0
    2.8376   19.1526  -32.1415 H   0  0  0  0  0  0  0  0  0  0  0  0
    2.2623   18.4383  -33.6860 H   0  0  0  0  0  0  0  0  0  0  0  0
    3.6492   19.5799  -33.6860 H   0  0  0  0  0  0  0  0  0  0  0  0
    0.4064   21.9822  -31.6370 H   0  0  0  0  0  0  0  0  0  0  0  0
   -2.0417   21.8297  -31.1983 H   0  0  0  0  0  0  0  0  0  0  0  0
   -4.2123   20.7885  -31.6408 H   0  0  0  0  0  0  0  0  0  0  0  0
   -8.6209   21.0227  -30.8076 H   0  0  0  0  0  0  0  0  0  0  0  0
   -8.4137   22.7243  -28.9972 H   0  0  0  0  0  0  0  0  0  0  0  0
   -6.4729   24.2902  -28.9626 H   0  0  0  0  0  0  0  0  0  0  0  0
    0.2084   22.1773  -29.1112 H   0  0  0  0  0  0  0  0  0  0  0  0
    0.6134   19.8784  -28.2211 H   0  0  0  0  0  0  0  0  0  0  0  0
   -1.2635   18.5834  -27.2031 H   0  0  0  0  0  0  0  0  0  0  0  0
   -3.5532   19.5779  -27.0929 H   0  0  0  0  0  0  0  0  0  0  0  0
   -3.9578   21.8850  -27.9523 H   0  0  0  0  0  0  0  0  0  0  0  0
   -5.0004   22.5345  -32.6407 H   0  0  0  0  0  0  0  0  0  0  0  0
   -4.5104   17.5673  -34.5140 H   0  0  0  0  0  0  0  0  0  0  0  0
   -2.0602   17.7131  -34.9461 H   0  0  0  0  0  0  0  0  0  0  0  0
    0.1053   18.7549  -34.5084 H   0  0  0  0  0  0  0  0  0  0  0  0
  1  2  1  0
  2  3  1  0
  3  4  2  0
  4  5  1  0
  5  6  2  0
  6  7  1  0
  7  8  2  0
  8  9  1  0
  9 10  2  0
  9 11  2  0
  9 12  1  0
 12 13  1  0
 13 14  2  0
 14 15  1  0
 15 16  2  0
 16 17  1  0
 17 18  1  0
 18 19  2  0
 18 20  1  0
 20 21  1  0
 21 22  2  0
 21 23  2  0
 21 24  1  0
 24 25  2  0
 25 26  1  0
 26 27  2  0
 27 28  1  0
 28 29  2  0
 17 30  2  0
  8 31  1  0
 31 32  2  0
 32 33  1  0
 33 34  2  0
 34  3  1  0
 33  6  1  0
 30 13  1  0
 29 24  1  0
  1 35  1  0
  1 36  1  0
  1 37  1  0
  4 38  1  0
  5 39  1  0
  7 40  1  0
 14 41  1  0
 15 42  1  0
 16 43  1  0
 25 44  1  0
 26 45  1  0
 27 46  1  0
 28 47  1  0
 29 48  1  0
 30 49  1  0
 31 50  1  0
 32 51  1  0
 34 52  1  0
M  CHG  2  12  -1  20  -1
M  END
>  <UniqueID>  (4) 
4

>  <SMILES>  (4) 
COc1ccc2cc(S(=O)(=O)[N-]c3cccc(C(=O)[N-]S(=O)(=O)c4ccccc4)c3)ccc2c1

>  <Energy>  (4) 
67.59948814357784

>  <Genealogy>  (4) 
COc1ccc2cc(S(=O)(=O)[N-]c3cccc(C(=O)[N-]S(=O)(=O)c4ccccc4)c3)ccc2c1 (protonated)
COc1ccc2cc(S(=O)(=O)[N-]c3cccc(C(=O)[N-]S(=O)(=O)c4ccccc4)c3)ccc2c1 (3D coordinates assigned)
COc1ccc2cc(S(=O)(=O)[N-]c3cccc(C(=O)[N-]S(=O)(=O)c4ccccc4)c3)ccc2c1 (optimized conformer: 67.59948814357784 kcal/mol)

>  <smiles>  (4) 
COc1ccc2cc(S(=O)(=O)Nc3cccc(C(=O)NS(=O)(=O)c4ccccc4)c3)ccc2c1

>  <score_type>  (4) 
oracle

>  <origin>  (4) 
adgpu

>  <m_score__min__energy>  (4) 
-11.9

>  <m_primary>  (4) 
energy

$$$$
4:0
     RDKit          3D

 62 65  0  0  0  0  0  0  0  0999 V2000
   -6.4650   25.9480  -29.3430 C   0  0  0  0  0  0  0  0  0  0  0  0
   -6.2320   24.6440  -30.0570 C   0  0  0  0  0  0  0  0  0  0  0  0
   -7.2050   24.1720  -30.9550 C   0  0  0  0  0  0  0  0  0  0  0  0
   -7.0140   22.9750  -31.6430 C   0  0  0  0  0  0  0  0  0  0  0  0
   -5.8540   22.2240  -31.4420 C   0  0  0  0  0  0  0  0  0  0  0  0
   -5.6250   20.7110  -32.3160 S   0  0  0  0  0  0  0  0  0  0  0  0
   -6.6100   20.6780  -33.4510 O   0  0  0  0  0  0  0  0  0  0  0  0
   -5.9100   19.5360  -31.4270 O   0  0  0  0  0  0  0  0  0  0  0  0
   -3.9680   20.6040  -32.9470 C   0  0  0  0  0  0  0  0  0  0  0  0
   -3.0450   21.5710  -32.5140 C   0  0  0  0  0  0  0  0  0  0  0  0
   -1.7230   21.5490  -32.9560 C   0  0  0  0  0  0  0  0  0  0  0  0
   -1.2960   20.5630  -33.8430 C   0  0  0  0  0  0  0  0  0  0  0  0
    0.3810   20.5270  -34.3740 S   0  0  0  0  0  0  0  0  0  0  0  0
    0.5030   19.7520  -35.6570 O   0  0  0  0  0  0  0  0  0  0  0  0
    0.8640   21.9280  -34.6260 O   0  0  0  0  0  0  0  0  0  0  0  0
    1.3580   19.7690  -33.1230 C   0  0  0  0  0  0  0  0  0  0  0  0
    0.8250   19.5610  -31.8420 C   0  0  0  0  0  0  0  0  0  0  0  0
    1.6120   18.9820  -30.8410 C   0  0  0  0  0  0  0  0  0  0  0  0
    2.9330   18.6140  -31.1120 C   0  0  0  0  0  0  0  0  0  0  0  0
    3.4710   18.8290  -32.3840 C   0  0  0  0  0  0  0  0  0  0  0  0
    2.6870   19.4090  -33.3870 C   0  0  0  0  0  0  0  0  0  0  0  0
   -2.1950   19.5810  -34.2720 C   0  0  0  0  0  0  0  0  0  0  0  0
   -3.5310   19.5820  -33.8350 C   0  0  0  0  0  0  0  0  0  0  0  0
   -4.6000   18.3010  -34.4440 S   0  0  0  0  0  0  0  0  0  0  0  0
   -3.9500   17.6060  -35.6070 O   0  0  0  0  0  0  0  0  0  0  0  0
   -5.8910   18.9000  -34.9310 O   0  0  0  0  0  0  0  0  0  0  0  0
   -4.9440   17.1580  -33.1700 N   0  0  0  0  0  0  0  0  0  0  0  0
   -6.2500   16.4940  -33.3810 C   0  0  0  0  0  0  0  0  0  0  0  0
   -6.0910   15.0340  -33.8410 C   0  0  0  0  0  0  0  0  0  0  0  0
   -5.3510   14.2410  -32.9260 O   0  0  0  0  0  0  0  0  0  0  0  0
   -4.2830   14.9380  -32.2930 C   0  0  0  0  0  0  0  0  0  0  0  0
   -3.8260   16.2080  -33.0300 C   0  0  0  0  0  0  0  0  0  0  0  0
   -4.8870   22.6720  -30.5360 C   0  0  0  0  0  0  0  0  0  0  0  0
   -5.0550   23.8860  -29.8420 C   0  0  0  0  0  0  0  0  0  0  0  0
   -4.0490   24.3380  -28.9140 N   0  0  0  0  0  0  0  0  0  0  0  0
   -2.3490   24.1580  -29.2040 S   0  0  0  0  0  0  0  0  0  0  0  0
   -1.7240   23.4320  -28.0470 O   0  0  0  0  0  0  0  0  0  0  0  0
   -2.1270   23.3680  -30.4630 O   0  0  0  0  0  0  0  0  0  0  0  0
   -1.6340   25.6720  -29.3430 O   0  0  0  0  0  0  0  0  0  0  0  0
   -6.4352   25.7813  -28.2561 H   0  0  0  0  0  0  0  0  0  0  0  0
   -5.6809   26.6659  -29.6255 H   0  0  0  0  0  0  0  0  0  0  0  0
   -7.4492   26.3500  -29.6255 H   0  0  0  0  0  0  0  0  0  0  0  0
   -8.1253   24.7525  -31.1162 H   0  0  0  0  0  0  0  0  0  0  0  0
   -7.7806   22.6202  -32.3476 H   0  0  0  0  0  0  0  0  0  0  0  0
   -3.3703   22.3567  -31.8162 H   0  0  0  0  0  0  0  0  0  0  0  0
   -1.0144   22.3129  -32.6032 H   0  0  0  0  0  0  0  0  0  0  0  0
   -0.2129   19.8535  -31.6246 H   0  0  0  0  0  0  0  0  0  0  0  0
    1.1905   18.8159  -29.8386 H   0  0  0  0  0  0  0  0  0  0  0  0
    3.5490   18.1553  -30.3245 H   0  0  0  0  0  0  0  0  0  0  0  0
    4.5114   18.5420  -32.5965 H   0  0  0  0  0  0  0  0  0  0  0  0
    3.1144   19.5831  -34.3855 H   0  0  0  0  0  0  0  0  0  0  0  0
   -1.8513   18.7961  -34.9618 H   0  0  0  0  0  0  0  0  0  0  0  0
   -6.8119   16.5085  -32.4354 H   0  0  0  0  0  0  0  0  0  0  0  0
   -6.7839   17.0415  -34.1717 H   0  0  0  0  0  0  0  0  0  0  0  0
   -7.0917   14.5925  -33.9577 H   0  0  0  0  0  0  0  0  0  0  0  0
   -5.5343   15.0471  -34.7896 H   0  0  0  0  0  0  0  0  0  0  0  0
   -4.6110   15.2258  -31.2833 H   0  0  0  0  0  0  0  0  0  0  0  0
   -3.4224   14.2530  -32.2862 H   0  0  0  0  0  0  0  0  0  0  0  0
   -3.0156   16.6851  -32.4593 H   0  0  0  0  0  0  0  0  0  0  0  0
   -3.4716   15.9275  -34.0329 H   0  0  0  0  0  0  0  0  0  0  0  0
   -3.9838   22.0684  -30.3633 H   0  0  0  0  0  0  0  0  0  0  0  0
   -4.3230   24.8850  -28.0670 H   0  0  0  0  0  0  0  0  0  0  0  0
  1  2  1  0
  2  3  2  0
  3  4  1  0
  4  5  2  0
  5  6  1  0
  6  7  2  0
  6  8  2  0
  6  9  1  0
  9 10  2  0
 10 11  1  0
 11 12  2  0
 12 13  1  0
 13 14  2  0
 13 15  2  0
 13 16  1  0
 16 17  2  0
 17 18  1  0
 18 19  2  0
 19 20  1  0
 20 21  2  0
 12 22  1  0
 22 23  2  0
 23 24  1  0
 24 25  2  0
 24 26  2  0
 24 27  1  0
 27 28  1  0
 28 29  1  0
 29 30  1  0
 30 31  1  0
 31 32  1  0
  5 33  1  0
 33 34  2  0
 34 35  1  0
 35 36  1  0
 36 37  2  0
 36 38  2  0
 36 39  1  0
 34  2  1  0
 23  9  1  0
 32 27  1  0
 21 16  1  0
  1 40  1  0
  1 41  1  0
  1 42  1  0
  3 43  1  0
  4 44  1  0
 10 45  1  0
 11 46  1  0
 17 47  1  0
 18 48  1  0
 19 49  1  0
 20 50  1  0
 21 51  1  0
 22 52  1  0
 28 53  1  0
 28 54  1  0
 29 55  1  0
 29 56  1  0
 31 57  1  0
 31 58  1  0
 32 59  1  0
 32 60  1  0
 33 61  1  0
 35 62  1  0
M  CHG  1  39  -1
M  END
>  <UniqueID>  (5) 
5

>  <SMILES>  (5) 
Cc1ccc(S(=O)(=O)c2ccc(S(=O)(=O)c3ccccc3)cc2S(=O)(=O)N2CCOCC2)cc1NS(=O)(=O)[O-]

>  <Energy>  (5) 
86.50157434728257

>  <Genealogy>  (5) 
Cc1ccc(S(=O)(=O)c2ccc(S(=O)(=O)c3ccccc3)cc2S(=O)(=O)N2CCOCC2)cc1NS(=O)(=O)[O-] (protonated)
Cc1ccc(S(=O)(=O)c2ccc(S(=O)(=O)c3ccccc3)cc2S(=O)(=O)N2CCOCC2)cc1NS(=O)(=O)[O-] (3D coordinates assigned)
Cc1ccc(S(=O)(=O)c2ccc(S(=O)(=O)c3ccccc3)cc2S(=O)(=O)N2CCOCC2)cc1NS(=O)(=O)[O-] (nonaromatic ring conformer: 86.50157434728257 kcal/mol)

>  <smiles>  (5) 
Cc1ccc(S(=O)(=O)c2ccc(S(=O)(=O)c3ccccc3)cc2S(=O)(=O)N2CCOCC2)cc1NS(=O)(=O)O

>  <score_type>  (5) 
oracle

>  <origin>  (5) 
adgpu

>  <m_score__min__energy>  (5) 
-13.85

>  <m_primary>  (5) 
energy

$$$$
5:0
     RDKit          3D

 57 59  0  0  0  0  0  0  0  0999 V2000
   -0.5660   18.2210  -27.1180 C   0  0  0  0  0  0  0  0  0  0  0  0
   -1.5910   19.6670  -27.2310 S   0  0  0  0  0  0  0  0  0  0  0  0
   -2.9170   19.4030  -26.5740 O   0  0  0  0  0  0  0  0  0  0  0  0
   -0.9190   20.8080  -26.5210 O   0  0  0  0  0  0  0  0  0  0  0  0
   -1.8440   20.0700  -28.9240 C   0  0  0  0  0  0  0  0  0  0  0  0
   -0.7880   19.9320  -29.8360 C   0  0  0  0  0  0  0  0  0  0  0  0
   -0.9710   20.2670  -31.1800 C   0  0  0  0  0  0  0  0  0  0  0  0
   -2.2120   20.7440  -31.6250 C   0  0  0  0  0  0  0  0  0  0  0  0
   -2.4680   21.1370  -33.3200 S   0  0  0  0  0  0  0  0  0  0  0  0
   -1.2050   21.6840  -33.9250 O   0  0  0  0  0  0  0  0  0  0  0  0
   -3.5280   22.1950  -33.4120 O   0  0  0  0  0  0  0  0  0  0  0  0
   -3.0010   19.7330  -34.1980 N   0  0  0  0  0  0  0  0  0  0  0  0
   -2.7650   18.4930  -33.4520 C   0  0  0  0  0  0  0  0  0  0  0  0
   -3.0920   17.2520  -34.2910 C   0  0  0  0  0  0  0  0  0  0  0  0
   -4.1930   16.4390  -33.6820 C   0  0  0  0  0  0  0  0  0  0  0  0
   -3.9460   15.2810  -33.2560 O   0  0  0  0  0  0  0  0  0  0  0  0
   -5.5270   16.9640  -33.6680 N   0  0  0  0  0  0  0  0  0  0  0  0
   -5.9730   18.1990  -33.0880 C   0  0  0  0  0  0  0  0  0  0  0  0
   -6.3970   18.2940  -31.7510 C   0  0  0  0  0  0  0  0  0  0  0  0
   -6.8250   19.5200  -31.2350 C   0  0  0  0  0  0  0  0  0  0  0  0
   -6.8160   20.6690  -32.0370 C   0  0  0  0  0  0  0  0  0  0  0  0
   -7.3660   22.2140  -31.3840 S   0  0  0  0  0  0  0  0  0  0  0  0
   -8.2980   22.8650  -32.3680 O   0  0  0  0  0  0  0  0  0  0  0  0
   -8.1330   21.9640  -30.1140 O   0  0  0  0  0  0  0  0  0  0  0  0
   -6.0340   23.2980  -31.0590 N   0  0  0  0  0  0  0  0  0  0  0  0
   -5.3650   22.9320  -29.8010 C   0  0  0  0  0  0  0  0  0  0  0  0
   -4.2350   23.9350  -29.4860 C   0  0  0  0  0  0  0  0  0  0  0  0
   -4.1170   24.9250  -30.4900 O   0  0  0  0  0  0  0  0  0  0  0  0
   -5.3400   25.6290  -30.6120 C   0  0  0  0  0  0  0  0  0  0  0  0
   -6.5040   24.6900  -30.9930 C   0  0  0  0  0  0  0  0  0  0  0  0
   -6.3600   20.5830  -33.3590 C   0  0  0  0  0  0  0  0  0  0  0  0
   -5.9390   19.3560  -33.8780 C   0  0  0  0  0  0  0  0  0  0  0  0
   -3.2630   20.8920  -30.7120 C   0  0  0  0  0  0  0  0  0  0  0  0
   -3.0810   20.5570  -29.3670 C   0  0  0  0  0  0  0  0  0  0  0  0
   -0.3925   17.9763  -26.0597 H   0  0  0  0  0  0  0  0  0  0  0  0
   -1.0680   17.3762  -27.6122 H   0  0  0  0  0  0  0  0  0  0  0  0
    0.3974   18.4149  -27.6122 H   0  0  0  0  0  0  0  0  0  0  0  0
    0.1879   19.5587  -29.4922 H   0  0  0  0  0  0  0  0  0  0  0  0
   -0.1390   20.1562  -31.8910 H   0  0  0  0  0  0  0  0  0  0  0  0
   -1.7068   18.4526  -33.1542 H   0  0  0  0  0  0  0  0  0  0  0  0
   -3.4241   18.4934  -32.5713 H   0  0  0  0  0  0  0  0  0  0  0  0
   -3.4021   17.5740  -35.2960 H   0  0  0  0  0  0  0  0  0  0  0  0
   -2.1900   16.6241  -34.3360 H   0  0  0  0  0  0  0  0  0  0  0  0
   -6.3918   17.4006  -31.1092 H   0  0  0  0  0  0  0  0  0  0  0  0
   -7.1711   19.5835  -30.1928 H   0  0  0  0  0  0  0  0  0  0  0  0
   -6.0995   22.9435  -28.9823 H   0  0  0  0  0  0  0  0  0  0  0  0
   -4.9329   21.9257  -29.9042 H   0  0  0  0  0  0  0  0  0  0  0  0
   -4.4518   24.4257  -28.5257 H   0  0  0  0  0  0  0  0  0  0  0  0
   -3.2869   23.3791  -29.4404 H   0  0  0  0  0  0  0  0  0  0  0  0
   -5.5711   26.1112  -29.6507 H   0  0  0  0  0  0  0  0  0  0  0  0
   -5.2270   26.3765  -31.4111 H   0  0  0  0  0  0  0  0  0  0  0  0
   -7.2978   24.7698  -30.2357 H   0  0  0  0  0  0  0  0  0  0  0  0
   -6.8938   24.9839  -31.9787 H   0  0  0  0  0  0  0  0  0  0  0  0
   -6.3334   21.4837  -33.9899 H   0  0  0  0  0  0  0  0  0  0  0  0
   -5.5778   19.2977  -34.9154 H   0  0  0  0  0  0  0  0  0  0  0  0
   -4.2362   21.2735  -31.0545 H   0  0  0  0  0  0  0  0  0  0  0  0
   -3.9108   20.6760  -28.6548 H   0  0  0  0  0  0  0  0  0  0  0  0
  1  2  1  0
  2  3  2  0
  2  4  2  0
  2  5  1  0
  5  6  2  0
  6  7  1  0
  7  8  2  0
  8  9  1  0
  9 10  2  0
  9 11  2  0
  9 12  1  0
 12 13  1  0
 13 14  1  0
 14 15  1  0
 15 16  2  0
 15 17  1  0
 17 18  1  0
 18 19  2  0
 19 20  1  0
 20 21  2  0
 21 22  1  0
 22 23  2  0
 22 24  2  0
 22 25  1  0
 25 26  1  0
 26 27  1  0
 27 28  1  0
 28 29  1  0
 29 30  1  0
 21 31  1  0
 31 32  2  0
  8 33  1  0
 33 34  2  0
 34  5  1  0
 32 18  1  0
 30 25  1  0
  1 35  1  0
  1 36  1  0
  1 37  1  0
  6 38  1  0
  7 39  1  0
 13 40  1  0
 13 41  1  0
 14 42  1  0
 14 43  1  0
 19 44  1  0
 20 45  1  0
 26 46  1  0
 26 47  1  0
 27 48  1  0
 27 49  1  0
 29 50  1  0
 29 51  1  0
 30 52  1  0
 30 53  1  0
 31 54  1  0
 32 55  1  0
 33 56  1  0
 34 57  1  0
M  CHG  2  12  -1  17  -1
M  END
>  <UniqueID>  (6) 
6

>  <SMILES>  (6) 
CS(=O)(=O)c1ccc(S(=O)(=O)[N-]CCC(=O)[N-]c2ccc(S(=O)(=O)N3CCOCC3)cc2)cc1

>  <Energy>  (6) 
61.031125989922636

>  <Genealogy>  (6) 
CS(=O)(=O)c1ccc(S(=O)(=O)[N-]CCC(=O)[N-]c2ccc(S(=O)(=O)N3CCOCC3)cc2)cc1 (protonated)
CS(=O)(=O)c1ccc(S(=O)(=O)[N-]CCC(=O)[N-]c2ccc(S(=O)(=O)N3CCOCC3)cc2)cc1 (3D coordinates assigned)
CS(=O)(=O)c1ccc(S(=O)(=O)[N-]CCC(=O)[N-]c2ccc(S(=O)(=O)N3CCOCC3)cc2)cc1 (nonaromatic ring conformer: 61.031125989922636 kcal/mol)

>  <smiles>  (6) 
CS(=O)(=O)c1ccc(S(=O)(=O)NCCC(=O)Nc2ccc(S(=O)(=O)N3CCOCC3)cc2)cc1

>  <score_type>  (6) 
oracle

>  <origin>  (6) 
adgpu

>  <m_score__min__energy>  (6) 
-11.66

>  <m_primary>  (6) 
energy

$$$$
6:0
     RDKit          3D

 45 47  0  0  0  0  0  0  0  0999 V2000
   -2.4970   20.8350  -27.7620 C   0  0  0  0  0  0  0  0  0  0  0  0
   -2.1860   22.2510  -28.1500 C   0  0  0  0  0  0  0  0  0  0  0  0
   -1.0300   22.8790  -27.6660 C   0  0  0  0  0  0  0  0  0  0  0  0
   -0.7250   24.1850  -28.0560 C   0  0  0  0  0  0  0  0  0  0  0  0
   -1.5590   24.8660  -28.9470 C   0  0  0  0  0  0  0  0  0  0  0  0
   -1.2390   26.1650  -29.3280 O   0  0  0  0  0  0  0  0  0  0  0  0
   -2.7070   24.2430  -29.4590 C   0  0  0  0  0  0  0  0  0  0  0  0
   -3.5300   24.9650  -30.3870 N   0  0  0  0  0  0  0  0  0  0  0  0
   -5.2540   24.8290  -30.5110 S   0  0  0  0  0  0  0  0  0  0  0  0
   -5.7920   26.0040  -31.2790 O   0  0  0  0  0  0  0  0  0  0  0  0
   -5.8500   24.8500  -29.1300 O   0  0  0  0  0  0  0  0  0  0  0  0
   -5.6820   23.3420  -31.3660 C   0  0  0  0  0  0  0  0  0  0  0  0
   -4.6580   22.4860  -31.8020 C   0  0  0  0  0  0  0  0  0  0  0  0
   -4.9560   21.3090  -32.5000 C   0  0  0  0  0  0  0  0  0  0  0  0
   -3.6570   20.2380  -33.0300 S   0  0  0  0  0  0  0  0  0  0  0  0
   -3.3380   19.2660  -31.9290 O   0  0  0  0  0  0  0  0  0  0  0  0
   -4.1260   19.4480  -34.2200 O   0  0  0  0  0  0  0  0  0  0  0  0
   -2.2070   21.1240  -33.4540 N   0  0  0  0  0  0  0  0  0  0  0  0
   -1.2750   20.2810  -34.2080 C   0  0  0  0  0  0  0  0  0  0  0  0
   -0.2340   19.7360  -33.2420 C   0  0  0  0  0  0  0  0  0  0  0  0
   -0.3470   20.5860  -31.9920 C   0  0  0  0  0  0  0  0  0  0  0  0
   -1.4840   21.5640  -32.2560 C   0  0  0  0  0  0  0  0  0  0  0  0
   -6.2900   20.9880  -32.7720 C   0  0  0  0  0  0  0  0  0  0  0  0
   -7.3160   21.8290  -32.3420 C   0  0  0  0  0  0  0  0  0  0  0  0
   -7.0280   23.0040  -31.6390 C   0  0  0  0  0  0  0  0  0  0  0  0
   -8.0970   23.8050  -31.2310 O   0  0  0  0  0  0  0  0  0  0  0  0
   -3.0160   22.9310  -29.0540 C   0  0  0  0  0  0  0  0  0  0  0  0
   -2.5155   20.7509  -26.6654 H   0  0  0  0  0  0  0  0  0  0  0  0
   -3.4790   20.5508  -28.1681 H   0  0  0  0  0  0  0  0  0  0  0  0
   -1.7245   20.1654  -28.1681 H   0  0  0  0  0  0  0  0  0  0  0  0
   -0.3613   22.3418  -26.9773 H   0  0  0  0  0  0  0  0  0  0  0  0
    0.1746   24.6792  -27.6605 H   0  0  0  0  0  0  0  0  0  0  0  0
   -3.6091   22.7429  -31.5928 H   0  0  0  0  0  0  0  0  0  0  0  0
   -1.8213   19.4481  -34.6747 H   0  0  0  0  0  0  0  0  0  0  0  0
   -0.7865   20.8698  -34.9984 H   0  0  0  0  0  0  0  0  0  0  0  0
   -0.4427   18.6815  -33.0085 H   0  0  0  0  0  0  0  0  0  0  0  0
    0.7781   19.7782  -33.6707 H   0  0  0  0  0  0  0  0  0  0  0  0
   -0.5782   19.9562  -31.1203 H   0  0  0  0  0  0  0  0  0  0  0  0
    0.5949   21.1102  -31.7726 H   0  0  0  0  0  0  0  0  0  0  0  0
   -2.1678   21.5794  -31.3945 H   0  0  0  0  0  0  0  0  0  0  0  0
   -1.0826   22.5767  -32.4085 H   0  0  0  0  0  0  0  0  0  0  0  0
   -6.5306   20.0692  -33.3269 H   0  0  0  0  0  0  0  0  0  0  0  0
   -8.3621   21.5660  -32.5576 H   0  0  0  0  0  0  0  0  0  0  0  0
   -7.9800   24.6940  -30.7650 H   0  0  0  0  0  0  0  0  0  0  0  0
   -3.9148   22.4351  -29.4491 H   0  0  0  0  0  0  0  0  0  0  0  0
  1  2  1  0
  2  3  2  0
  3  4  1  0
  4  5  2  0
  5  6  1  0
  5  7  1  0
  7  8  1  0
  8  9  1  0
  9 10  2  0
  9 11  2  0
  9 12  1  0
 12 13  2  0
 13 14  1  0
 14 15  1  0
 15 16  2  0
 15 17  2  0
 15 18  1  0
 18 19  1  0
 19 20  1  0
 20 21  1  0
 21 22  1  0
 14 23  2  0
 23 24  1  0
 24 25  2  0
 25 26  1  0
  7 27  2  0
 27  2  1  0
 25 12  1  0
 22 18  1  0
  1 28  1  0
  1 29  1  0
  1 30  1  0
  3 31  1  0
  4 32  1  0
 13 33  1  0
 19 34  1  0
 19 35  1  0
 20 36  1  0
 20 37  1  0
 21 38  1  0
 21 39  1  0
 22 40  1  0
 22 41  1  0
 23 42  1  0
 24 43  1  0
 26 44  1  0
 27 45  1  0
M  CHG  2   6  -1   8  -1
M  END
>  <UniqueID>  (7) 
7

>  <SMILES>  (7) 
Cc1ccc([O-])c([N-]S(=O)(=O)c2cc(S(=O)(=O)N3CCCC3)ccc2O)c1

>  <Energy>  (7) 
49.70666168062744

>  <Genealogy>  (7) 
Cc1ccc([O-])c([N-]S(=O)(=O)c2cc(S(=O)(=O)N3CCCC3)ccc2O)c1 (protonated)
Cc1ccc([O-])c([N-]S(=O)(=O)c2cc(S(=O)(=O)N3CCCC3)ccc2O)c1 (3D coordinates assigned)
Cc1ccc([O-])c([N-]S(=O)(=O)c2cc(S(=O)(=O)N3CCCC3)ccc2O)c1 (nonaromatic ring conformer: 49.70666168062744 kcal/mol)

>  <smiles>  (7) 
Cc1ccc(O)c(NS(=O)(=O)c2cc(S(=O)(=O)N3CCCC3)ccc2O)c1

>  <score_type>  (7) 
oracle

>  <origin>  (7) 
adgpu

>  <m_score__min__energy>  (7) 
-13.31

>  <m_primary>  (7) 
energy

$$$$
7:0
     RDKit          3D

 50 53  0  0  0  0  0  0  0  0999 V2000
   -3.5350   13.6250  -35.0980 C   0  0  0  0  0  0  0  0  0  0  0  0
   -4.8810   14.0390  -34.8830 O   0  0  0  0  0  0  0  0  0  0  0  0
   -5.2650   15.3440  -34.5420 C   0  0  0  0  0  0  0  0  0  0  0  0
   -4.4220   16.4000  -34.9020 C   0  0  0  0  0  0  0  0  0  0  0  0
   -4.7640   17.7200  -34.5940 C   0  0  0  0  0  0  0  0  0  0  0  0
   -5.9700   18.0050  -33.9300 C   0  0  0  0  0  0  0  0  0  0  0  0
   -6.3430   19.3540  -33.5940 N   0  0  0  0  0  0  0  0  0  0  0  0
   -5.4730   20.2810  -32.9230 C   0  0  0  0  0  0  0  0  0  0  0  0
   -4.2330   20.0590  -32.8690 O   0  0  0  0  0  0  0  0  0  0  0  0
   -6.0050   21.5350  -32.3490 C   0  0  0  0  0  0  0  0  0  0  0  0
   -7.3700   21.7960  -32.2310 C   0  0  0  0  0  0  0  0  0  0  0  0
   -7.5720   23.2800  -31.4670 S   0  0  0  0  0  0  0  0  0  0  0  0
   -5.9350   23.6130  -31.3020 C   0  0  0  0  0  0  0  0  0  0  0  0
   -5.2640   25.0090  -30.4820 S   0  0  0  0  0  0  0  0  0  0  0  0
   -5.7350   25.0030  -29.0550 O   0  0  0  0  0  0  0  0  0  0  0  0
   -5.7540   26.2630  -31.1480 O   0  0  0  0  0  0  0  0  0  0  0  0
   -3.5300   24.9870  -30.4990 N   0  0  0  0  0  0  0  0  0  0  0  0
   -2.7590   24.2260  -29.5680 C   0  0  0  0  0  0  0  0  0  0  0  0
   -3.1550   22.9330  -29.2000 C   0  0  0  0  0  0  0  0  0  0  0  0
   -2.3890   22.1810  -28.2990 C   0  0  0  0  0  0  0  0  0  0  0  0
   -1.2070   22.7320  -27.7610 C   0  0  0  0  0  0  0  0  0  0  0  0
   -0.8430   24.0460  -28.0910 C   0  0  0  0  0  0  0  0  0  0  0  0
   -1.6150   24.7900  -28.9900 C   0  0  0  0  0  0  0  0  0  0  0  0
   -1.2310   26.0860  -29.3160 O   0  0  0  0  0  0  0  0  0  0  0  0
   -0.3940   21.9690  -26.7390 C   0  0  0  0  0  0  0  0  0  0  0  0
   -0.6370   20.5190  -26.8020 N   0  0  0  0  0  0  0  0  0  0  0  0
   -2.0760   20.2280  -26.7430 C   0  0  0  0  0  0  0  0  0  0  0  0
   -2.7940   20.7610  -27.9870 C   0  0  0  0  0  0  0  0  0  0  0  0
   -5.1990   22.5680  -31.8410 C   0  0  0  0  0  0  0  0  0  0  0  0
   -6.8020   16.9440  -33.5440 C   0  0  0  0  0  0  0  0  0  0  0  0
   -6.4590   15.6240  -33.8510 C   0  0  0  0  0  0  0  0  0  0  0  0
   -3.0389   13.4724  -34.1281 H   0  0  0  0  0  0  0  0  0  0  0  0
   -3.5274   12.6830  -35.6659 H   0  0  0  0  0  0  0  0  0  0  0  0
   -2.9993   14.3999  -35.6659 H   0  0  0  0  0  0  0  0  0  0  0  0
   -3.4814   16.1901  -35.4323 H   0  0  0  0  0  0  0  0  0  0  0  0
   -4.0859   18.5401  -34.8727 H   0  0  0  0  0  0  0  0  0  0  0  0
   -7.2470   19.7170  -33.9780 H   0  0  0  0  0  0  0  0  0  0  0  0
   -8.1805   21.1394  -32.5801 H   0  0  0  0  0  0  0  0  0  0  0  0
   -4.0758   22.5043  -29.6224 H   0  0  0  0  0  0  0  0  0  0  0  0
    0.0548   24.4941  -27.6403 H   0  0  0  0  0  0  0  0  0  0  0  0
    0.6738   22.1571  -26.9244 H   0  0  0  0  0  0  0  0  0  0  0  0
   -0.6958   22.3178  -25.7404 H   0  0  0  0  0  0  0  0  0  0  0  0
   -0.2440   20.1460  -27.7000 H   0  0  0  0  0  0  0  0  0  0  0  0
   -2.2209   19.1393  -26.6825 H   0  0  0  0  0  0  0  0  0  0  0  0
   -2.4980   20.7221  -25.8554 H   0  0  0  0  0  0  0  0  0  0  0  0
   -2.5419   20.1214  -28.8457 H   0  0  0  0  0  0  0  0  0  0  0  0
   -3.8762   20.7481  -27.7905 H   0  0  0  0  0  0  0  0  0  0  0  0
   -4.0995   22.5498  -31.8680 H   0  0  0  0  0  0  0  0  0  0  0  0
   -7.7322   17.1522  -32.9951 H   0  0  0  0  0  0  0  0  0  0  0  0
   -7.1246   14.8011  -33.5515 H   0  0  0  0  0  0  0  0  0  0  0  0
  1  2  1  0
  2  3  1  0
  3  4  2  0
  4  5  1  0
  5  6  2  0
  6  7  1  0
  7  8  1  0
  8  9  2  0
  8 10  1  0
 10 11  2  0
 11 12  1  0
 12 13  1  0
 13 14  1  0
 14 15  2  0
 14 16  2  0
 14 17  1  0
 17 18  1  0
 18 19  2  0
 19 20  1  0
 20 21  2  0
 21 22  1  0
 22 23  2  0
 23 24  1  0
 21 25  1  0
 25 26  1  0
 26 27  1  0
 27 28  1  0
 13 29  2  0
  6 30  1  0
 30 31  2  0
 31  3  1  0
 29 10  1  0
 23 18  1  0
 28 20  1  0
  1 32  1  0
  1 33  1  0
  1 34  1  0
  4 35  1  0
  5 36  1  0
  7 37  1  0
 11 38  1  0
 19 39  1  0
 22 40  1  0
 25 41  1  0
 25 42  1  0
 26 43  1  0
 27 44  1  0
 27 45  1  0
 28 46  1  0
 28 47  1  0
 29 48  1  0
 30 49  1  0
 31 50  1  0
M  CHG  2  17  -1  24  -1
M  END
>  <UniqueID>  (8) 
8

>  <SMILES>  (8) 
COc1ccc(NC(=O)c2csc(S(=O)(=O)[N-]c3cc4c(cc3[O-])CNCC4)c2)cc1

>  <Energy>  (8) 
91.56834651014127

>  <Genealogy>  (8) 
COc1ccc(NC(=O)c2csc(S(=O)(=O)[N-]c3cc4c(cc3[O-])CNCC4)c2)cc1 (protonated)
COc1ccc(NC(=O)c2csc(S(=O)(=O)[N-]c3cc4c(cc3[O-])CNCC4)c2)cc1 (3D coordinates assigned)
COc1ccc(NC(=O)c2csc(S(=O)(=O)[N-]c3cc4c(cc3[O-])CNCC4)c2)cc1 (nonaromatic ring conformer: 91.56834651014127 kcal/mol)

>  <smiles>  (8) 
COc1ccc(NC(=O)c2csc(S(=O)(=O)Nc3cc4c(cc3O)CNCC4)c2)cc1

>  <score_type>  (8) 
oracle

>  <origin>  (8) 
adgpu

>  <m_score__min__energy>  (8) 
-14.220000000000001

>  <m_primary>  (8) 
energy

$$$$
8:0
     RDKit          3D

 70 74  0  0  0  0  0  0  0  0999 V2000
   -7.5630   22.5090  -30.8030 C   0  0  0  0  0  0  0  0  0  0  0  0
   -8.7750   21.6310  -30.4530 C   0  0  0  0  0  0  0  0  0  0  0  0
   -9.0250   20.5320  -31.4100 N   0  0  0  0  0  0  0  0  0  0  0  0
   -8.7420   19.1930  -30.8510 C   0  0  0  0  0  0  0  0  0  0  0  0
   -8.7240   18.1300  -31.9570 C   0  0  0  0  0  0  0  0  0  0  0  0
   -7.7020   18.4090  -33.0000 N   0  0  0  0  0  0  0  0  0  0  0  0
   -6.2830   17.4070  -32.7900 S   0  0  0  0  0  0  0  0  0  0  0  0
   -6.2700   16.3380  -33.8480 O   0  0  0  0  0  0  0  0  0  0  0  0
   -6.3360   16.7300  -31.4480 O   0  0  0  0  0  0  0  0  0  0  0  0
   -4.7950   18.3520  -32.9030 C   0  0  0  0  0  0  0  0  0  0  0  0
   -3.7720   17.9590  -33.7750 C   0  0  0  0  0  0  0  0  0  0  0  0
   -2.6070   18.7200  -33.8800 C   0  0  0  0  0  0  0  0  0  0  0  0
   -2.4570   19.8830  -33.1210 C   0  0  0  0  0  0  0  0  0  0  0  0
   -3.4750   20.2950  -32.2440 C   0  0  0  0  0  0  0  0  0  0  0  0
   -3.3350   21.5470  -31.4650 C   0  0  0  0  0  0  0  0  0  0  0  0
   -2.4880   21.6130  -30.3490 C   0  0  0  0  0  0  0  0  0  0  0  0
   -2.3840   22.7670  -29.6410 N   0  0  0  0  0  0  0  0  0  0  0  0
   -3.0890   23.8780  -29.9920 C   0  0  0  0  0  0  0  0  0  0  0  0
   -2.9690   24.9900  -29.3280 N   0  0  0  0  0  0  0  0  0  0  0  0
   -2.2070   25.1860  -28.1250 C   0  0  0  0  0  0  0  0  0  0  0  0
   -2.7620   24.9560  -26.8520 C   0  0  0  0  0  0  0  0  0  0  0  0
   -2.0060   25.1910  -25.7010 C   0  0  0  0  0  0  0  0  0  0  0  0
   -0.6900   25.6620  -25.8030 C   0  0  0  0  0  0  0  0  0  0  0  0
    0.2650   25.9550  -24.3450 S   0  0  0  0  0  0  0  0  0  0  0  0
   -0.6510   25.9670  -23.1520 O   0  0  0  0  0  0  0  0  0  0  0  0
    1.2450   24.8280  -24.1680 O   0  0  0  0  0  0  0  0  0  0  0  0
    1.1410   27.4660  -24.4020 N   0  0  0  0  0  0  0  0  0  0  0  0
    1.5760   27.9000  -23.0750 C   0  0  0  0  0  0  0  0  0  0  0  0
    1.6980   29.4160  -23.1310 C   0  0  0  0  0  0  0  0  0  0  0  0
    0.9110   29.8410  -24.3630 C   0  0  0  0  0  0  0  0  0  0  0  0
    0.3200   28.5570  -24.9210 C   0  0  0  0  0  0  0  0  0  0  0  0
   -0.1500   25.9290  -27.0700 C   0  0  0  0  0  0  0  0  0  0  0  0
   -0.9090   25.7010  -28.2220 C   0  0  0  0  0  0  0  0  0  0  0  0
   -3.9040   23.8380  -31.0790 N   0  0  0  0  0  0  0  0  0  0  0  0
   -4.0470   22.7040  -31.8110 C   0  0  0  0  0  0  0  0  0  0  0  0
   -4.6390   19.5140  -32.1320 C   0  0  0  0  0  0  0  0  0  0  0  0
   -7.3070   19.8350  -33.0870 C   0  0  0  0  0  0  0  0  0  0  0  0
   -8.4870   20.7650  -32.7720 C   0  0  0  0  0  0  0  0  0  0  0  0
   -7.0826   22.8570  -29.8767 H   0  0  0  0  0  0  0  0  0  0  0  0
   -6.8426   21.9218  -31.3914 H   0  0  0  0  0  0  0  0  0  0  0  0
   -7.8964   23.3765  -31.3914 H   0  0  0  0  0  0  0  0  0  0  0  0
   -8.6064   21.1910  -29.4590 H   0  0  0  0  0  0  0  0  0  0  0  0
   -9.6587   22.2852  -30.4857 H   0  0  0  0  0  0  0  0  0  0  0  0
   -7.7615   19.2108  -30.3527 H   0  0  0  0  0  0  0  0  0  0  0  0
   -9.5343   18.9381  -30.1318 H   0  0  0  0  0  0  0  0  0  0  0  0
   -8.5062   17.1522  -31.5026 H   0  0  0  0  0  0  0  0  0  0  0  0
   -9.7098   18.1394  -32.4449 H   0  0  0  0  0  0  0  0  0  0  0  0
   -8.1140   18.1390  -33.9250 H   0  0  0  0  0  0  0  0  0  0  0  0
   -3.8872   17.0471  -34.3793 H   0  0  0  0  0  0  0  0  0  0  0  0
   -1.8045   18.4031  -34.5624 H   0  0  0  0  0  0  0  0  0  0  0  0
   -1.5372   20.4796  -33.2102 H   0  0  0  0  0  0  0  0  0  0  0  0
   -1.9073   20.7289  -30.0470 H   0  0  0  0  0  0  0  0  0  0  0  0
   -3.7954   24.5897  -26.7631 H   0  0  0  0  0  0  0  0  0  0  0  0
   -2.4457   25.0055  -24.7099 H   0  0  0  0  0  0  0  0  0  0  0  0
    0.8340   27.6068  -22.3177 H   0  0  0  0  0  0  0  0  0  0  0  0
    2.5343   27.4350  -22.8002 H   0  0  0  0  0  0  0  0  0  0  0  0
    1.2695   29.8701  -22.2253 H   0  0  0  0  0  0  0  0  0  0  0  0
    2.7479   29.7397  -23.1852 H   0  0  0  0  0  0  0  0  0  0  0  0
    0.1123   30.5450  -24.0866 H   0  0  0  0  0  0  0  0  0  0  0  0
    1.5462   30.3551  -25.0994 H   0  0  0  0  0  0  0  0  0  0  0  0
   -0.7218   28.4412  -24.5874 H   0  0  0  0  0  0  0  0  0  0  0  0
    0.3158   28.5648  -26.0210 H   0  0  0  0  0  0  0  0  0  0  0  0
    0.8747   26.3193  -27.1575 H   0  0  0  0  0  0  0  0  0  0  0  0
   -0.4834   25.9278  -29.2107 H   0  0  0  0  0  0  0  0  0  0  0  0
   -4.7235   22.6928  -32.6783 H   0  0  0  0  0  0  0  0  0  0  0  0
   -5.4338   19.8165  -31.4343 H   0  0  0  0  0  0  0  0  0  0  0  0
   -6.4984   20.0267  -32.3663 H   0  0  0  0  0  0  0  0  0  0  0  0
   -6.9715   20.0385  -34.1146 H   0  0  0  0  0  0  0  0  0  0  0  0
   -8.1474   21.8086  -32.8467 H   0  0  0  0  0  0  0  0  0  0  0  0
   -9.2886   20.5566  -33.4959 H   0  0  0  0  0  0  0  0  0  0  0  0
  1  2  1  0
  2  3  1  0
  3  4  1  0
  4  5  1  0
  5  6  1  0
  6  7  1  0
  7  8  2  0
  7  9  2  0
  7 10  1  0
 10 11  2  0
 11 12  1  0
 12 13  2  0
 13 14  1  0
 14 15  1  0
 15 16  1  0
 16 17  2  0
 17 18  1  0
 18 19  2  3
 19 20  1  0
 20 21  2  0
 21 22  1  0
 22 23  2  0
 23 24  1  0
 24 25  2  0
 24 26  2  0
 24 27  1  0
 27 28  1  0
 28 29  1  0
 29 30  1  0
 30 31  1  0
 23 32  1  0
 32 33  2  0
 18 34  1  0
 34 35  1  0
 14 36  2  0
  6 37  1  0
 37 38  1  0
 38  3  1  0
 36 10  1  0
 35 15  2  0
 33 20  1  0
 31 27  1  0
  1 39  1  0
  1 40  1  0
  1 41  1  0
  2 42  1  0
  2 43  1  0
  4 44  1  0
  4 45  1  0
  5 46  1  0
  5 47  1  0
  6 48  1  0
 11 49  1  0
 12 50  1  0
 13 51  1  0
 16 52  1  0
 21 53  1  0
 22 54  1  0
 28 55  1  0
 28 56  1  0
 29 57  1  0
 29 58  1  0
 30 59  1  0
 30 60  1  0
 31 61  1  0
 31 62  1  0
 32 63  1  0
 33 64  1  0
 35 65  1  0
 36 66  1  0
 37 67  1  0
 37 68  1  0
 38 69  1  0
 38 70  1  0
M  CHG  2   6   1  34  -1
M  END
>  <UniqueID>  (9) 
9

>  <SMILES>  (9) 
CCN1CC[NH+](S(=O)(=O)c2cccc(-c3cnc(=Nc4ccc(S(=O)(=O)N5CCCC5)cc4)[n-]c3)c2)CC1

>  <Energy>  (9) 
97.29812133875454

>  <Genealogy>  (9) 
CCN1CC[NH+](S(=O)(=O)c2cccc(-c3cnc(=Nc4ccc(S(=O)(=O)N5CCCC5)cc4)[n-]c3)c2)CC1 (protonated)
CCN1CC[NH+](S(=O)(=O)c2cccc(-c3cnc(=Nc4ccc(S(=O)(=O)N5CCCC5)cc4)[n-]c3)c2)CC1 (3D coordinates assigned)
CCN1CC[NH+](S(=O)(=O)c2cccc(-c3cnc(=Nc4ccc(S(=O)(=O)N5CCCC5)cc4)[n-]c3)c2)CC1 (nonaromatic ring conformer: 97.29812133875454 kcal/mol)

>  <smiles>  (9) 
CCN1CCN(S(=O)(=O)c2cccc(-c3cnc(=Nc4ccc(S(=O)(=O)N5CCCC5)cc4)[nH]c3)c2)CC1

>  <score_type>  (9) 
oracle

>  <origin>  (9) 
adgpu

>  <m_score__min__energy>  (9) 
-11.94

>  <m_primary>  (9) 
energy

$$$$
9:0
     RDKit          3D

 35 36  0  0  1  0  0  0  0  0999 V2000
   -0.4350   21.8320  -26.4580 C   0  0  0  0  0  0  0  0  0  0  0  0
   -1.5110   22.3110  -27.3700 C   0  0  0  0  0  0  0  0  0  0  0  0
   -1.4540   23.5800  -27.9280 C   0  0  0  0  0  0  0  0  0  0  0  0
   -2.4680   24.0200  -28.7820 C   0  0  0  0  0  0  0  0  0  0  0  0
   -2.3350   25.3050  -29.3000 O   0  0  0  0  0  0  0  0  0  0  0  0
   -3.5390   23.2070  -29.0870 C   0  0  0  0  0  0  0  0  0  0  0  0
   -4.7650   23.8190  -30.1580 S   0  0  0  0  0  0  0  0  0  0  0  0
   -5.8950   24.3790  -29.3450 O   0  0  0  0  0  0  0  0  0  0  0  0
   -4.1400   25.0120  -30.8660 O   0  0  0  0  0  0  0  0  0  0  0  0
   -5.3040   22.6230  -31.3040 C   0  0  0  0  0  0  0  0  0  0  0  0
   -6.6660   22.3480  -31.4260 C   0  0  0  0  0  0  0  0  0  0  0  0
   -7.1380   21.4060  -32.3240 C   0  0  0  0  0  0  0  0  0  0  0  0
   -6.2120   20.7370  -33.1070 C   0  0  0  0  0  0  0  0  0  0  0  0
   -6.7060   19.7940  -34.0040 O   0  0  0  0  0  0  0  0  0  0  0  0
   -4.8460   20.9950  -33.0040 C   0  0  0  0  0  0  0  0  0  0  0  0
   -4.3960   21.9480  -32.0920 C   0  0  0  0  0  0  0  0  0  0  0  0
   -3.5980   21.9330  -28.5290 C   0  0  0  0  0  0  0  0  0  0  0  0
   -2.5870   21.5070  -27.6820 C   0  0  0  0  0  0  0  0  0  0  0  0
   -2.7140   20.1610  -27.1330 C   0  0  0  0  0  0  0  0  0  0  0  0
   -3.9270   19.6410  -26.7010 O   0  0  0  0  0  0  0  0  0  0  0  0
   -1.6540   19.4290  -27.0470 N   0  0  0  0  0  0  0  0  0  0  0  0
   -1.7390   18.1370  -26.5280 O   0  0  0  0  0  0  0  0  0  0  0  0
   -0.7502   21.9723  -25.4135 H   0  0  0  0  0  0  0  0  0  0  0  0
   -0.2454   20.7645  -26.6435 H   0  0  0  0  0  0  0  0  0  0  0  0
    0.4852   22.4055  -26.6435 H   0  0  0  0  0  0  0  0  0  0  0  0
   -0.6067   24.2424  -27.6969 H   0  0  0  0  0  0  0  0  0  0  0  0
   -3.1100   25.6860  -29.8010 H   0  0  0  0  0  0  0  0  0  0  0  0
   -7.3823   22.8927  -30.7934 H   0  0  0  0  0  0  0  0  0  0  0  0
   -8.2140   21.1956  -32.4128 H   0  0  0  0  0  0  0  0  0  0  0  0
   -7.5170   20.0020  -34.5730 H   0  0  0  0  0  0  0  0  0  0  0  0
   -4.1294   20.4511  -33.6370 H   0  0  0  0  0  0  0  0  0  0  0  0
   -3.3206   22.1608  -32.0012 H   0  0  0  0  0  0  0  0  0  0  0  0
   -4.4431   21.2675  -28.7592 H   0  0  0  0  0  0  0  0  0  0  0  0
   -4.1710   19.5120  -25.7450 H   0  0  0  0  0  0  0  0  0  0  0  0
   -2.6690   17.8380  -26.2060 H   0  0  0  0  0  0  0  0  0  0  0  0
  1  2  1  0
  2  3  2  0
  3  4  1  0
  4  5  1  0
  4  6  2  0
  6  7  1  0
  7  8  2  0
  7  9  2  0
  7 10  1  0
 10 11  2  0
 11 12  1  0
 12 13  2  0
 13 14  1  0
 13 15  1  0
 15 16  2  0
  6 17  1  0
 17 18  2  0
 18 19  1  0
 19 20  1  0
 19 21  2  0
 21 22  1  0
 18  2  1  0
 16 10  1  0
  1 23  1  0
  1 24  1  0
  1 25  1  0
  3 26  1  0
  5 27  1  0
 11 28  1  0
 12 29  1  0
 14 30  1  0
 15 31  1  0
 16 32  1  0
 17 33  1  0
 20 34  1  0
 22 35  1  0
M  END
>  <smiles>  (10) 
Cc1cc(O)c(S(=O)(=O)c2ccc(O)cc2)cc1C(O)=NO

>  <score_type>  (10) 
oracle

>  <origin>  (10) 
adgpu

>  <m_score__min__energy>  (10) 
-8.2799999999999994

>  <m_primary>  (10) 
energy

$$$$
10:0
     RDKit          3D

 64 68  0  0  0  0  0  0  0  0999 V2000
    0.5100   17.3180  -33.9260 C   0  0  0  0  0  0  0  0  0  0  0  0
   -0.9040   17.7790  -33.7250 C   0  0  0  0  0  0  0  0  0  0  0  0
   -1.9230   16.8490  -33.5100 C   0  0  0  0  0  0  0  0  0  0  0  0
   -3.2480   17.2560  -33.2640 C   0  0  0  0  0  0  0  0  0  0  0  0
   -4.1940   16.1790  -32.7990 C   0  0  0  0  0  0  0  0  0  0  0  0
   -3.5810   18.6500  -33.3340 C   0  0  0  0  0  0  0  0  0  0  0  0
   -4.9030   19.2070  -33.2900 C   0  0  0  0  0  0  0  0  0  0  0  0
   -6.1870   18.4470  -33.5710 C   0  0  0  0  0  0  0  0  0  0  0  0
   -7.2890   19.0310  -32.8110 N   0  0  0  0  0  0  0  0  0  0  0  0
   -8.0930   20.0310  -33.2080 C   0  0  0  0  0  0  0  0  0  0  0  0
   -9.0090   20.2050  -32.1940 C   0  0  0  0  0  0  0  0  0  0  0  0
  -10.1440   21.1730  -32.1720 C   0  0  0  0  0  0  0  0  0  0  0  0
   -9.6600   22.4610  -31.8030 O   0  0  0  0  0  0  0  0  0  0  0  0
   -8.3510   22.7200  -31.3710 C   0  0  0  0  0  0  0  0  0  0  0  0
   -7.4880   23.4070  -32.2340 C   0  0  0  0  0  0  0  0  0  0  0  0
   -6.1770   23.6960  -31.8450 C   0  0  0  0  0  0  0  0  0  0  0  0
   -5.7120   23.2990  -30.5850 C   0  0  0  0  0  0  0  0  0  0  0  0
   -4.0540   23.6660  -30.1100 S   0  0  0  0  0  0  0  0  0  0  0  0
   -3.6380   24.9480  -30.7770 O   0  0  0  0  0  0  0  0  0  0  0  0
   -3.9750   23.8520  -28.6200 O   0  0  0  0  0  0  0  0  0  0  0  0
   -2.9910   22.3690  -30.6020 N   0  0  0  0  0  0  0  0  0  0  0  0
   -3.4760   21.0600  -30.0930 C   0  0  0  0  0  0  0  0  0  0  0  0
   -2.6930   20.5840  -28.8590 C   0  0  0  0  0  0  0  0  0  0  0  0
   -1.2540   20.4430  -29.1470 N   0  0  0  0  0  0  0  0  0  0  0  0
   -0.7410   21.4150  -30.1320 C   0  0  0  0  0  0  0  0  0  0  0  0
   -1.6020   22.6840  -30.1960 C   0  0  0  0  0  0  0  0  0  0  0  0
   -6.5670   22.6050  -29.7200 C   0  0  0  0  0  0  0  0  0  0  0  0
   -7.8790   22.3170  -30.1070 C   0  0  0  0  0  0  0  0  0  0  0  0
   -8.7590   19.2960  -31.2310 N   0  0  0  0  0  0  0  0  0  0  0  0
   -7.7080   18.5970  -31.6330 N   0  0  0  0  0  0  0  0  0  0  0  0
   -5.0390   20.6040  -33.2170 C   0  0  0  0  0  0  0  0  0  0  0  0
   -3.9140   21.4170  -33.2490 C   0  0  0  0  0  0  0  0  0  0  0  0
   -4.0390   22.6680  -33.1760 O   0  0  0  0  0  0  0  0  0  0  0  0
   -2.7110   20.8870  -33.3830 O   0  0  0  0  0  0  0  0  0  0  0  0
   -2.5020   19.5780  -33.4480 C   0  0  0  0  0  0  0  0  0  0  0  0
   -1.1910   19.1380  -33.6380 C   0  0  0  0  0  0  0  0  0  0  0  0
    0.9875   17.1623  -32.9474 H   0  0  0  0  0  0  0  0  0  0  0  0
    0.5110   16.3730  -34.4890 H   0  0  0  0  0  0  0  0  0  0  0  0
    1.0678   18.0808  -34.4890 H   0  0  0  0  0  0  0  0  0  0  0  0
   -1.6854   15.7752  -33.5333 H   0  0  0  0  0  0  0  0  0  0  0  0
   -4.2130   16.1574  -31.6994 H   0  0  0  0  0  0  0  0  0  0  0  0
   -5.2046   16.3895  -33.1791 H   0  0  0  0  0  0  0  0  0  0  0  0
   -3.8550   15.2040  -33.1791 H   0  0  0  0  0  0  0  0  0  0  0  0
   -6.4156   18.5027  -34.6455 H   0  0  0  0  0  0  0  0  0  0  0  0
   -6.0581   17.3965  -33.2712 H   0  0  0  0  0  0  0  0  0  0  0  0
   -8.0324   20.5955  -34.1501 H   0  0  0  0  0  0  0  0  0  0  0  0
  -10.6014   21.2251  -33.1711 H   0  0  0  0  0  0  0  0  0  0  0  0
  -10.8967   20.8403  -31.4421 H   0  0  0  0  0  0  0  0  0  0  0  0
   -7.8448   23.7216  -33.2258 H   0  0  0  0  0  0  0  0  0  0  0  0
   -5.5083   24.2370  -32.5307 H   0  0  0  0  0  0  0  0  0  0  0  0
   -3.0200   22.3380  -31.6490 H   0  0  0  0  0  0  0  0  0  0  0  0
   -4.5375   21.1580  -29.8216 H   0  0  0  0  0  0  0  0  0  0  0  0
   -3.3305   20.3158  -30.8899 H   0  0  0  0  0  0  0  0  0  0  0  0
   -2.8243   21.3167  -28.0491 H   0  0  0  0  0  0  0  0  0  0  0  0
   -3.0821   19.5979  -28.5655 H   0  0  0  0  0  0  0  0  0  0  0  0
   -0.7330   20.5740  -28.2460 H   0  0  0  0  0  0  0  0  0  0  0  0
    0.2846   21.6964  -29.8511 H   0  0  0  0  0  0  0  0  0  0  0  0
   -0.7678   20.9381  -31.1229 H   0  0  0  0  0  0  0  0  0  0  0  0
   -1.6170   23.1578  -29.2034 H   0  0  0  0  0  0  0  0  0  0  0  0
   -1.1662   23.3632  -30.9435 H   0  0  0  0  0  0  0  0  0  0  0  0
   -6.2047   22.2851  -28.7319 H   0  0  0  0  0  0  0  0  0  0  0  0
   -8.5455   21.7733  -29.4213 H   0  0  0  0  0  0  0  0  0  0  0  0
   -6.0392   21.0543  -33.1343 H   0  0  0  0  0  0  0  0  0  0  0  0
   -0.3765   19.8728  -33.7198 H   0  0  0  0  0  0  0  0  0  0  0  0
  1  2  1  0
  2  3  2  0
  3  4  1  0
  4  5  1  0
  4  6  2  0
  6  7  1  0
  7  8  1  0
  8  9  1  0
  9 10  1  0
 10 11  2  0
 11 12  1  0
 12 13  1  0
 13 14  1  0
 14 15  2  0
 15 16  1  0
 16 17  2  0
 17 18  1  0
 18 19  2  0
 18 20  2  0
 18 21  1  0
 21 22  1  0
 22 23  1  0
 23 24  1  0
 24 25  1  0
 25 26  1  0
 17 27  1  0
 27 28  2  0
 11 29  1  0
 29 30  2  0
  7 31  2  0
 31 32  1  0
 32 33  2  0
 32 34  1  0
 34 35  1  0
 35 36  2  0
 36  2  1  0
 35  6  1  0
 30  9  1  0
 28 14  1  0
 26 21  1  0
  1 37  1  0
  1 38  1  0
  1 39  1  0
  3 40  1  0
  5 41  1  0
  5 42  1  0
  5 43  1  0
  8 44  1  0
  8 45  1  0
 10 46  1  0
 12 47  1  0
 12 48  1  0
 15 49  1  0
 16 50  1  0
 21 51  1  0
 22 52  1  0
 22 53  1  0
 23 54  1  0
 23 55  1  0
 24 56  1  0
 25 57  1  0
 25 58  1  0
 26 59  1  0
 26 60  1  0
 27 61  1  0
 28 62  1  0
 31 63  1  0
 36 64  1  0
M  CHG  1  21   1
M  END
>  <UniqueID>  (11) 
10

>  <SMILES>  (11) 
Cc1cc(C)c2c(Cn3cc(COc4ccc(S(=O)(=O)[NH+]5CCNCC5)cc4)nn3)cc(=O)oc2c1

>  <Energy>  (11) 
128.37835963934518

>  <Genealogy>  (11) 
Cc1cc(C)c2c(Cn3cc(COc4ccc(S(=O)(=O)[NH+]5CCNCC5)cc4)nn3)cc(=O)oc2c1 (protonated)
Cc1cc(C)c2c(Cn3cc(COc4ccc(S(=O)(=O)[NH+]5CCNCC5)cc4)nn3)cc(=O)oc2c1 (3D coordinates assigned)
Cc1cc(C)c2c(Cn3cc(COc4ccc(S(=O)(=O)[NH+]5CCNCC5)cc4)nn3)cc(=O)oc2c1 (nonaromatic ring conformer: 128.37835963934518 kcal/mol)

>  <smiles>  (11) 
Cc1cc(C)c2c(Cn3cc(COc4ccc(S(=O)(=O)N5CCNCC5)cc4)nn3)cc(=O)oc2c1

>  <score_type>  (11) 
oracle

>  <origin>  (11) 
adgpu

>  <m_score__min__energy>  (11) 
-11.15

>  <m_primary>  (11) 
energy

$$$$
11:0
     RDKit          3D

 52 55  0  0  0  0  0  0  0  0999 V2000
   -4.3790   22.4460  -27.8730 N   0  0  0  0  0  0  0  0  0  0  0  0
   -3.5210   21.6740  -27.7850 C   0  0  0  0  0  0  0  0  0  0  0  0
   -2.4540   20.7100  -27.6750 C   0  0  0  0  0  0  0  0  0  0  0  0
   -2.6160   19.6140  -26.8160 C   0  0  0  0  0  0  0  0  0  0  0  0
   -1.6160   18.6430  -26.7160 C   0  0  0  0  0  0  0  0  0  0  0  0
   -0.4560   18.7530  -27.4860 C   0  0  0  0  0  0  0  0  0  0  0  0
   -0.2860   19.8420  -28.3430 C   0  0  0  0  0  0  0  0  0  0  0  0
   -1.2670   20.8400  -28.4260 C   0  0  0  0  0  0  0  0  0  0  0  0
   -0.9830   22.2430  -29.5210 S   0  0  0  0  0  0  0  0  0  0  0  0
   -0.3140   23.3020  -28.2230 C   0  0  0  0  0  0  0  0  0  0  0  0
    0.9690   23.0150  -27.7320 C   0  0  0  0  0  0  0  0  0  0  0  0
    1.5480   23.8120  -26.7450 C   0  0  0  0  0  0  0  0  0  0  0  0
    0.8470   24.9010  -26.2270 C   0  0  0  0  0  0  0  0  0  0  0  0
   -0.4370   25.1910  -26.6910 C   0  0  0  0  0  0  0  0  0  0  0  0
   -1.0340   24.4010  -27.6900 C   0  0  0  0  0  0  0  0  0  0  0  0
   -2.4020   24.7350  -28.1460 C   0  0  0  0  0  0  0  0  0  0  0  0
   -3.3060   24.9290  -27.2910 O   0  0  0  0  0  0  0  0  0  0  0  0
   -2.7150   24.9350  -29.5320 N   0  0  0  0  0  0  0  0  0  0  0  0
   -3.8870   24.4990  -30.2410 C   0  0  0  0  0  0  0  0  0  0  0  0
   -5.0130   25.3250  -30.4120 C   0  0  0  0  0  0  0  0  0  0  0  0
   -6.1120   24.8750  -31.1470 C   0  0  0  0  0  0  0  0  0  0  0  0
   -6.0960   23.6040  -31.7250 C   0  0  0  0  0  0  0  0  0  0  0  0
   -4.9780   22.7770  -31.5730 C   0  0  0  0  0  0  0  0  0  0  0  0
   -4.9590   21.1870  -32.3310 S   0  0  0  0  0  0  0  0  0  0  0  0
   -4.6660   20.1600  -31.2740 O   0  0  0  0  0  0  0  0  0  0  0  0
   -3.8730   21.1250  -33.3720 O   0  0  0  0  0  0  0  0  0  0  0  0
   -6.5190   20.8580  -33.0570 N   0  0  0  0  0  0  0  0  0  0  0  0
   -6.4840   19.5990  -33.8100 C   0  0  0  0  0  0  0  0  0  0  0  0
   -6.9340   18.4810  -32.8820 C   0  0  0  0  0  0  0  0  0  0  0  0
   -7.6480   19.1700  -31.7350 C   0  0  0  0  0  0  0  0  0  0  0  0
   -7.5360   20.6620  -32.0180 C   0  0  0  0  0  0  0  0  0  0  0  0
   -3.8720   23.2320  -30.8390 C   0  0  0  0  0  0  0  0  0  0  0  0
   -3.5343   19.5179  -26.2181 H   0  0  0  0  0  0  0  0  0  0  0  0
   -1.7425   17.7919  -26.0307 H   0  0  0  0  0  0  0  0  0  0  0  0
    0.3244   17.9809  -27.4172 H   0  0  0  0  0  0  0  0  0  0  0  0
    0.6235   19.9174  -28.9570 H   0  0  0  0  0  0  0  0  0  0  0  0
    1.5237   22.1524  -28.1298 H   0  0  0  0  0  0  0  0  0  0  0  0
    2.5579   23.5818  -26.3748 H   0  0  0  0  0  0  0  0  0  0  0  0
    1.3066   25.5319  -25.4520 H   0  0  0  0  0  0  0  0  0  0  0  0
   -0.9875   26.0458  -26.2713 H   0  0  0  0  0  0  0  0  0  0  0  0
   -5.0278   26.3299  -29.9647 H   0  0  0  0  0  0  0  0  0  0  0  0
   -6.9921   25.5232  -31.2708 H   0  0  0  0  0  0  0  0  0  0  0  0
   -6.9645   23.2522  -32.3012 H   0  0  0  0  0  0  0  0  0  0  0  0
   -7.1620   19.6622  -34.6739 H   0  0  0  0  0  0  0  0  0  0  0  0
   -5.4659   19.4028  -34.1775 H   0  0  0  0  0  0  0  0  0  0  0  0
   -7.6186   17.7981  -33.4064 H   0  0  0  0  0  0  0  0  0  0  0  0
   -6.0854   17.8759  -32.5302 H   0  0  0  0  0  0  0  0  0  0  0  0
   -8.7041   18.8641  -31.7013 H   0  0  0  0  0  0  0  0  0  0  0  0
   -7.2048   18.9063  -30.7634 H   0  0  0  0  0  0  0  0  0  0  0  0
   -8.5047   21.0481  -32.3680 H   0  0  0  0  0  0  0  0  0  0  0  0
   -7.2517   21.2014  -31.1025 H   0  0  0  0  0  0  0  0  0  0  0  0
   -2.9861   22.5888  -30.7322 H   0  0  0  0  0  0  0  0  0  0  0  0
  1  2  3  0
  2  3  1  0
  3  4  2  0
  4  5  1  0
  5  6  2  0
  6  7  1  0
  7  8  2  0
  8  9  1  0
  9 10  1  0
 10 11  2  0
 11 12  1  0
 12 13  2  0
 13 14  1  0
 14 15  2  0
 15 16  1  0
 16 17  2  0
 16 18  1  0
 18 19  1  0
 19 20  2  0
 20 21  1  0
 21 22  2  0
 22 23  1  0
 23 24  1  0
 24 25  2  0
 24 26  2  0
 24 27  1  0
 27 28  1  0
 28 29  1  0
 29 30  1  0
 30 31  1  0
 23 32  2  0
  8  3  1  0
 15 10  1  0
 32 19  1  0
 31 27  1  0
  4 33  1  0
  5 34  1  0
  6 35  1  0
  7 36  1  0
 11 37  1  0
 12 38  1  0
 13 39  1  0
 14 40  1  0
 20 41  1  0
 21 42  1  0
 22 43  1  0
 28 44  1  0
 28 45  1  0
 29 46  1  0
 29 47  1  0
 30 48  1  0
 30 49  1  0
 31 50  1  0
 31 51  1  0
 32 52  1  0
M  CHG  1  18  -1
M  END
>  <UniqueID>  (12) 
11

>  <SMILES>  (12) 
N#Cc1ccccc1Sc1ccccc1C(=O)[N-]c1cccc(S(=O)(=O)N2CCCC2)c1

>  <Energy>  (12) 
59.75314061675404

>  <Genealogy>  (12) 
N#Cc1ccccc1Sc1ccccc1C(=O)[N-]c1cccc(S(=O)(=O)N2CCCC2)c1 (protonated)
N#Cc1ccccc1Sc1ccccc1C(=O)[N-]c1cccc(S(=O)(=O)N2CCCC2)c1 (3D coordinates assigned)
N#Cc1ccccc1Sc1ccccc1C(=O)[N-]c1cccc(S(=O)(=O)N2CCCC2)c1 (nonaromatic ring conformer: 59.75314061675404 kcal/mol)

>  <smiles>  (12) 
N#Cc1ccccc1Sc1ccccc1C(=O)Nc1cccc(S(=O)(=O)N2CCCC2)c1

>  <score_type>  (12) 
oracle

>  <origin>  (12) 
adgpu

>  <m_score__min__energy>  (12) 
-12.640000000000001

>  <m_primary>  (12) 
energy

$$$$
12:0
     RDKit          3D

 51 53  0  0  0  0  0  0  0  0999 V2000
   -0.9570   19.1560  -28.0200 C   0  0  0  0  0  0  0  0  0  0  0  0
   -2.0020   19.9510  -27.2010 C   0  0  0  0  0  0  0  0  0  0  0  0
   -3.0720   18.9490  -26.7210 C   0  0  0  0  0  0  0  0  0  0  0  0
   -1.2790   20.5520  -25.9850 C   0  0  0  0  0  0  0  0  0  0  0  0
   -2.6730   21.0840  -28.0020 C   0  0  0  0  0  0  0  0  0  0  0  0
   -2.9210   22.3610  -27.4530 C   0  0  0  0  0  0  0  0  0  0  0  0
   -3.5620   23.3570  -28.1980 C   0  0  0  0  0  0  0  0  0  0  0  0
   -3.9750   23.1020  -29.5070 C   0  0  0  0  0  0  0  0  0  0  0  0
   -4.8100   24.3400  -30.4460 S   0  0  0  0  0  0  0  0  0  0  0  0
   -3.8770   25.4390  -30.8620 O   0  0  0  0  0  0  0  0  0  0  0  0
   -5.8930   24.9320  -29.5800 O   0  0  0  0  0  0  0  0  0  0  0  0
   -5.5470   23.6460  -31.8410 N   0  0  0  0  0  0  0  0  0  0  0  0
   -6.6260   22.7050  -31.8490 C   0  0  0  0  0  0  0  0  0  0  0  0
   -7.8550   23.0210  -31.2530 C   0  0  0  0  0  0  0  0  0  0  0  0
   -8.9140   22.1180  -31.2980 C   0  0  0  0  0  0  0  0  0  0  0  0
   -8.7580   20.8800  -31.9150 C   0  0  0  0  0  0  0  0  0  0  0  0
   -7.5340   20.5340  -32.4810 C   0  0  0  0  0  0  0  0  0  0  0  0
   -6.4480   21.4310  -32.4500 C   0  0  0  0  0  0  0  0  0  0  0  0
   -5.1410   21.0080  -33.0330 C   0  0  0  0  0  0  0  0  0  0  0  0
   -4.1750   21.8730  -33.1200 N   0  0  0  0  0  0  0  0  0  0  0  0
   -2.9160   21.5380  -33.5510 O   0  0  0  0  0  0  0  0  0  0  0  0
   -4.9270   19.5930  -33.4270 C   0  0  0  0  0  0  0  0  0  0  0  0
   -3.9360   18.8250  -32.7890 C   0  0  0  0  0  0  0  0  0  0  0  0
   -3.7670   17.4860  -33.1440 C   0  0  0  0  0  0  0  0  0  0  0  0
   -4.5650   16.9260  -34.0930 N   0  0  0  0  0  0  0  0  0  0  0  0
   -5.5390   17.6430  -34.7210 C   0  0  0  0  0  0  0  0  0  0  0  0
   -5.7370   18.9870  -34.4020 C   0  0  0  0  0  0  0  0  0  0  0  0
   -3.7540   21.8370  -30.0660 C   0  0  0  0  0  0  0  0  0  0  0  0
   -3.1130   20.8420  -29.3260 C   0  0  0  0  0  0  0  0  0  0  0  0
   -0.2726   18.6353  -27.3341 H   0  0  0  0  0  0  0  0  0  0  0  0
   -1.4716   18.4190  -28.6540 H   0  0  0  0  0  0  0  0  0  0  0  0
   -0.3840   19.8486  -28.6540 H   0  0  0  0  0  0  0  0  0  0  0  0
   -3.0908   18.9314  -25.6213 H   0  0  0  0  0  0  0  0  0  0  0  0
   -4.0580   19.2561  -27.0997 H   0  0  0  0  0  0  0  0  0  0  0  0
   -2.8302   17.9449  -27.0997 H   0  0  0  0  0  0  0  0  0  0  0  0
   -1.7375   20.1709  -25.0606 H   0  0  0  0  0  0  0  0  0  0  0  0
   -0.2169   20.2669  -26.0121 H   0  0  0  0  0  0  0  0  0  0  0  0
   -1.3652   21.6483  -26.0121 H   0  0  0  0  0  0  0  0  0  0  0  0
   -2.6048   22.5766  -26.4217 H   0  0  0  0  0  0  0  0  0  0  0  0
   -3.7413   24.3456  -27.7502 H   0  0  0  0  0  0  0  0  0  0  0  0
   -7.9836   23.9889  -30.7464 H   0  0  0  0  0  0  0  0  0  0  0  0
   -9.8795   22.3845  -30.8433 H   0  0  0  0  0  0  0  0  0  0  0  0
   -9.6016   20.1752  -31.9554 H   0  0  0  0  0  0  0  0  0  0  0  0
   -7.4135   19.5499  -32.9574 H   0  0  0  0  0  0  0  0  0  0  0  0
   -2.6010   21.8500  -34.4580 H   0  0  0  0  0  0  0  0  0  0  0  0
   -3.2983   19.2771  -32.0151 H   0  0  0  0  0  0  0  0  0  0  0  0
   -2.9875   16.8825  -32.6559 H   0  0  0  0  0  0  0  0  0  0  0  0
   -6.1709   17.1610  -35.4815 H   0  0  0  0  0  0  0  0  0  0  0  0
   -6.5212   19.5675  -34.9100 H   0  0  0  0  0  0  0  0  0  0  0  0
   -4.0871   21.6266  -31.0930 H   0  0  0  0  0  0  0  0  0  0  0  0
   -2.9469   19.8534  -29.7789 H   0  0  0  0  0  0  0  0  0  0  0  0
  1  2  1  0
  2  3  1  0
  2  4  1  0
  2  5  1  0
  5  6  2  0
  6  7  1  0
  7  8  2  0
  8  9  1  0
  9 10  2  0
  9 11  2  0
  9 12  1  0
 12 13  1  0
 13 14  2  0
 14 15  1  0
 15 16  2  0
 16 17  1  0
 17 18  2  0
 18 19  1  0
 19 20  2  3
 20 21  1  0
 19 22  1  0
 22 23  2  0
 23 24  1  0
 24 25  2  0
 25 26  1  0
 26 27  2  0
  8 28  1  0
 28 29  2  0
 29  5  1  0
 18 13  1  0
 27 22  1  0
  1 30  1  0
  1 31  1  0
  1 32  1  0
  3 33  1  0
  3 34  1  0
  3 35  1  0
  4 36  1  0
  4 37  1  0
  4 38  1  0
  6 39  1  0
  7 40  1  0
 14 41  1  0
 15 42  1  0
 16 43  1  0
 17 44  1  0
 21 45  1  0
 23 46  1  0
 24 47  1  0
 26 48  1  0
 27 49  1  0
 28 50  1  0
 29 51  1  0
M  CHG  1  12  -1
M  END
>  <UniqueID>  (13) 
12

>  <SMILES>  (13) 
CC(C)(C)c1ccc(S(=O)(=O)[N-]c2ccccc2C(=NO)c2ccncc2)cc1

>  <Energy>  (13) 
69.42736204345132

>  <Genealogy>  (13) 
CC(C)(C)c1ccc(S(=O)(=O)[N-]c2ccccc2C(=NO)c2ccncc2)cc1 (protonated)
CC(C)(C)c1ccc(S(=O)(=O)[N-]c2ccccc2C(=NO)c2ccncc2)cc1 (3D coordinates assigned)
CC(C)(C)c1ccc(S(=O)(=O)[N-]c2ccccc2C(=NO)c2ccncc2)cc1 (optimized conformer: 69.42736204345132 kcal/mol)

>  <smiles>  (13) 
CC(C)(C)c1ccc(S(=O)(=O)Nc2ccccc2C(=NO)c2ccncc2)cc1

>  <score_type>  (13) 
oracle

>  <origin>  (13) 
adgpu

>  <m_score__min__energy>  (13) 
-11.039999999999999

>  <m_primary>  (13) 
energy

$$$$
13:0
     RDKit          3D

 49 52  0  0  0  0  0  0  0  0999 V2000
   -3.6670   21.7470  -29.1670 O   0  0  0  0  0  0  0  0  0  0  0  0
   -2.7100   21.4690  -29.9400 C   0  0  0  0  0  0  0  0  0  0  0  0
   -1.4300   21.1040  -29.3960 N   0  0  0  0  0  0  0  0  0  0  0  0
   -1.1310   21.2920  -27.9710 C   0  0  0  0  0  0  0  0  0  0  0  0
   -1.1130   22.7590  -27.6320 C   0  0  0  0  0  0  0  0  0  0  0  0
   -1.0740   23.1710  -26.2900 C   0  0  0  0  0  0  0  0  0  0  0  0
   -1.0910   24.5330  -25.9700 C   0  0  0  0  0  0  0  0  0  0  0  0
   -1.1500   25.4900  -26.9860 C   0  0  0  0  0  0  0  0  0  0  0  0
   -1.1950   25.0890  -28.3240 C   0  0  0  0  0  0  0  0  0  0  0  0
   -1.2580   26.0420  -29.3340 O   0  0  0  0  0  0  0  0  0  0  0  0
   -1.1780   23.7270  -28.6480 C   0  0  0  0  0  0  0  0  0  0  0  0
   -0.4840   20.4020  -30.2670 C   0  0  0  0  0  0  0  0  0  0  0  0
   -0.3100   21.1300  -31.6110 C   0  0  0  0  0  0  0  0  0  0  0  0
   -1.5530   21.9260  -32.0770 C   0  0  0  0  0  0  0  0  0  0  0  0
   -2.9030   21.4770  -31.4480 C   0  0  0  0  0  0  0  0  0  0  0  0
   -3.2810   20.0340  -31.9360 C   0  0  0  0  0  0  0  0  0  0  0  0
   -4.4350   20.0270  -32.9380 C   0  0  0  0  0  0  0  0  0  0  0  0
   -5.5950   20.6920  -32.3330 N   0  0  0  0  0  0  0  0  0  0  0  0
   -6.8980   20.0780  -32.3230 C   0  0  0  0  0  0  0  0  0  0  0  0
   -7.0810   18.7550  -31.8930 C   0  0  0  0  0  0  0  0  0  0  0  0
   -8.3640   18.2120  -31.8810 C   0  0  0  0  0  0  0  0  0  0  0  0
   -9.4390   19.0000  -32.2860 C   0  0  0  0  0  0  0  0  0  0  0  0
   -9.2190   20.2820  -32.6770 N   0  0  0  0  0  0  0  0  0  0  0  0
   -7.9910   20.8030  -32.6900 N   0  0  0  0  0  0  0  0  0  0  0  0
   -5.4310   22.0190  -31.7250 C   0  0  0  0  0  0  0  0  0  0  0  0
   -3.9850   22.5330  -31.8530 C   0  0  0  0  0  0  0  0  0  0  0  0
   -1.9021   20.7894  -27.3687 H   0  0  0  0  0  0  0  0  0  0  0  0
   -0.1429   20.8611  -27.7519 H   0  0  0  0  0  0  0  0  0  0  0  0
   -1.0299   22.4201  -25.4874 H   0  0  0  0  0  0  0  0  0  0  0  0
   -1.0579   24.8505  -24.9173 H   0  0  0  0  0  0  0  0  0  0  0  0
   -1.1610   26.5604  -26.7326 H   0  0  0  0  0  0  0  0  0  0  0  0
   -1.2157   23.4138  -29.7018 H   0  0  0  0  0  0  0  0  0  0  0  0
    0.4918   20.3445  -29.7624 H   0  0  0  0  0  0  0  0  0  0  0  0
   -0.8803   19.3957  -30.4677 H   0  0  0  0  0  0  0  0  0  0  0  0
    0.5311   21.8323  -31.5147 H   0  0  0  0  0  0  0  0  0  0  0  0
   -0.1363   20.3509  -32.3679 H   0  0  0  0  0  0  0  0  0  0  0  0
   -1.3943   22.9842  -31.8220 H   0  0  0  0  0  0  0  0  0  0  0  0
   -1.6446   21.7426  -33.1577 H   0  0  0  0  0  0  0  0  0  0  0  0
   -2.3988   19.5830  -32.4139 H   0  0  0  0  0  0  0  0  0  0  0  0
   -3.6067   19.4626  -31.0542 H   0  0  0  0  0  0  0  0  0  0  0  0
   -4.1354   20.5645  -33.8498 H   0  0  0  0  0  0  0  0  0  0  0  0
   -4.6946   18.9906  -33.1997 H   0  0  0  0  0  0  0  0  0  0  0  0
   -6.2199   18.1524  -31.5685 H   0  0  0  0  0  0  0  0  0  0  0  0
   -8.5261   17.1738  -31.5557 H   0  0  0  0  0  0  0  0  0  0  0  0
  -10.4585   18.5870  -32.2891 H   0  0  0  0  0  0  0  0  0  0  0  0
   -6.1062   22.7269  -32.2281 H   0  0  0  0  0  0  0  0  0  0  0  0
   -5.6705   21.9362  -30.6546 H   0  0  0  0  0  0  0  0  0  0  0  0
   -3.8114   22.8241  -32.8995 H   0  0  0  0  0  0  0  0  0  0  0  0
   -3.8826   23.3802  -31.1588 H   0  0  0  0  0  0  0  0  0  0  0  0
  1  2  2  0
  2  3  1  0
  3  4  1  0
  4  5  1  0
  5  6  2  0
  6  7  1  0
  7  8  2  0
  8  9  1  0
  9 10  1  0
  9 11  2  0
  3 12  1  0
 12 13  1  0
 13 14  1  0
 14 15  1  0
 15 16  1  0
 16 17  1  0
 17 18  1  0
 18 19  1  0
 19 20  2  0
 20 21  1  0
 21 22  2  0
 22 23  1  0
 23 24  2  0
 18 25  1  0
 25 26  1  0
 15  2  1  0
 24 19  1  0
 11  5  1  0
 26 15  1  0
  4 27  1  0
  4 28  1  0
  6 29  1  0
  7 30  1  0
  8 31  1  0
 11 32  1  0
 12 33  1  0
 12 34  1  0
 13 35  1  0
 13 36  1  0
 14 37  1  0
 14 38  1  0
 16 39  1  0
 16 40  1  0
 17 41  1  0
 17 42  1  0
 20 43  1  0
 21 44  1  0
 22 45  1  0
 25 46  1  0
 25 47  1  0
 26 48  1  0
 26 49  1  0
M  CHG  1  10  -1
M  END
>  <UniqueID>  (14) 
13

>  <SMILES>  (14) 
O=C1N(Cc2cccc([O-])c2)CCCC12CCN(c1cccnn1)CC2

>  <Energy>  (14) 
64.01354827359854

>  <Genealogy>  (14) 
O=C1N(Cc2cccc([O-])c2)CCCC12CCN(c1cccnn1)CC2 (protonated)
O=C1N(Cc2cccc([O-])c2)CCCC12CCN(c1cccnn1)CC2 (3D coordinates assigned)
O=C1N(Cc2cccc([O-])c2)CCCC12CCN(c1cccnn1)CC2 (nonaromatic ring conformer: 64.01354827359854 kcal/mol)

>  <smiles>  (14) 
O=C1N(Cc2cccc(O)c2)CCCC12CCN(c1cccnn1)CC2

>  <score_type>  (14) 
oracle

>  <origin>  (14) 
adgpu

>  <m_score__min__energy>  (14) 
-11.16

>  <m_primary>  (14) 
energy

$$$$
14:0
     RDKit          3D

 54 57  0  0  0  0  0  0  0  0999 V2000
    0.8880   18.9920  -28.1100 C   0  0  0  0  0  0  0  0  0  0  0  0
   -0.3780   19.7060  -28.3340 N   0  0  0  0  0  0  0  0  0  0  0  0
   -1.3070   19.4510  -27.2190 C   0  0  0  0  0  0  0  0  0  0  0  0
   -2.6930   19.9970  -27.5700 C   0  0  0  0  0  0  0  0  0  0  0  0
   -2.6210   21.4060  -28.1020 C   0  0  0  0  0  0  0  0  0  0  0  0
   -3.7950   22.1670  -28.1900 C   0  0  0  0  0  0  0  0  0  0  0  0
   -3.7690   23.4730  -28.7070 C   0  0  0  0  0  0  0  0  0  0  0  0
   -4.9630   24.2780  -28.7540 N   0  0  0  0  0  0  0  0  0  0  0  0
   -5.7480   24.7210  -30.2380 S   0  0  0  0  0  0  0  0  0  0  0  0
   -4.7550   25.4140  -31.1290 O   0  0  0  0  0  0  0  0  0  0  0  0
   -6.8820   25.6600  -29.9400 O   0  0  0  0  0  0  0  0  0  0  0  0
   -6.3950   23.2860  -31.0290 C   0  0  0  0  0  0  0  0  0  0  0  0
   -7.7790   23.1010  -31.1460 C   0  0  0  0  0  0  0  0  0  0  0  0
   -8.2820   21.9820  -31.8150 C   0  0  0  0  0  0  0  0  0  0  0  0
   -7.4070   21.0440  -32.3670 C   0  0  0  0  0  0  0  0  0  0  0  0
   -6.0210   21.2120  -32.2430 C   0  0  0  0  0  0  0  0  0  0  0  0
   -4.9120   20.0370  -32.9590 S   0  0  0  0  0  0  0  0  0  0  0  0
   -5.5130   19.5110  -34.2330 O   0  0  0  0  0  0  0  0  0  0  0  0
   -4.7440   18.8820  -32.0130 O   0  0  0  0  0  0  0  0  0  0  0  0
   -3.3410   20.7160  -33.3100 N   0  0  0  0  0  0  0  0  0  0  0  0
   -2.4250   19.7230  -33.8690 C   0  0  0  0  0  0  0  0  0  0  0  0
   -1.0200   20.2060  -33.5450 C   0  0  0  0  0  0  0  0  0  0  0  0
   -1.1860   21.1830  -32.3900 C   0  0  0  0  0  0  0  0  0  0  0  0
   -2.6810   21.2250  -32.1100 C   0  0  0  0  0  0  0  0  0  0  0  0
   -5.5200   22.3370  -31.5740 C   0  0  0  0  0  0  0  0  0  0  0  0
   -2.5520   23.9980  -29.1750 C   0  0  0  0  0  0  0  0  0  0  0  0
   -2.4910   25.2880  -29.6910 O   0  0  0  0  0  0  0  0  0  0  0  0
   -1.3840   23.2340  -29.1120 C   0  0  0  0  0  0  0  0  0  0  0  0
   -1.4100   21.9340  -28.5900 C   0  0  0  0  0  0  0  0  0  0  0  0
   -0.1230   21.1550  -28.4620 C   0  0  0  0  0  0  0  0  0  0  0  0
    1.0661   18.8916  -27.0292 H   0  0  0  0  0  0  0  0  0  0  0  0
    0.8312   17.9929  -28.5666 H   0  0  0  0  0  0  0  0  0  0  0  0
    1.7137   19.5575  -28.5666 H   0  0  0  0  0  0  0  0  0  0  0  0
   -1.3749   18.3679  -27.0396 H   0  0  0  0  0  0  0  0  0  0  0  0
   -0.9360   19.9519  -26.3127 H   0  0  0  0  0  0  0  0  0  0  0  0
   -3.1473   19.3502  -28.3350 H   0  0  0  0  0  0  0  0  0  0  0  0
   -3.2988   20.0085  -26.6519 H   0  0  0  0  0  0  0  0  0  0  0  0
   -4.7483   21.7362  -27.8500 H   0  0  0  0  0  0  0  0  0  0  0  0
   -5.4740   24.4930  -27.8700 H   0  0  0  0  0  0  0  0  0  0  0  0
   -8.4704   23.8375  -30.7107 H   0  0  0  0  0  0  0  0  0  0  0  0
   -9.3689   21.8398  -31.9070 H   0  0  0  0  0  0  0  0  0  0  0  0
   -7.8071   20.1697  -32.9013 H   0  0  0  0  0  0  0  0  0  0  0  0
   -2.6044   18.7392  -33.4108 H   0  0  0  0  0  0  0  0  0  0  0  0
   -2.5691   19.6132  -34.9540 H   0  0  0  0  0  0  0  0  0  0  0  0
   -0.3818   19.3614  -33.2462 H   0  0  0  0  0  0  0  0  0  0  0  0
   -0.5384   20.6776  -34.4143 H   0  0  0  0  0  0  0  0  0  0  0  0
   -0.6381   20.8289  -31.5043 H   0  0  0  0  0  0  0  0  0  0  0  0
   -0.7869   22.1784  -32.6348 H   0  0  0  0  0  0  0  0  0  0  0  0
   -2.9237   20.5909  -31.2446 H   0  0  0  0  0  0  0  0  0  0  0  0
   -3.0138   22.2469  -31.8755 H   0  0  0  0  0  0  0  0  0  0  0  0
   -4.4332   22.4758  -31.4762 H   0  0  0  0  0  0  0  0  0  0  0  0
   -0.4357   23.6568  -29.4754 H   0  0  0  0  0  0  0  0  0  0  0  0
    0.4924   21.3320  -29.3564 H   0  0  0  0  0  0  0  0  0  0  0  0
    0.3977   21.4953  -27.5548 H   0  0  0  0  0  0  0  0  0  0  0  0
  1  2  1  0
  2  3  1  0
  3  4  1  0
  4  5  1  0
  5  6  2  0
  6  7  1  0
  7  8  1  0
  8  9  1  0
  9 10  2  0
  9 11  2  0
  9 12  1  0
 12 13  2  0
 13 14  1  0
 14 15  2  0
 15 16  1  0
 16 17  1  0
 17 18  2  0
 17 19  2  0
 17 20  1  0
 20 21  1  0
 21 22  1  0
 22 23  1  0
 23 24  1  0
 16 25  2  0
  7 26  2  0
 26 27  1  0
 26 28  1  0
 28 29  2  0
 29 30  1  0
 30  2  1  0
 29  5  1  0
 25 12  1  0
 24 20  1  0
  1 31  1  0
  1 32  1  0
  1 33  1  0
  3 34  1  0
  3 35  1  0
  4 36  1  0
  4 37  1  0
  6 38  1  0
  8 39  1  0
 13 40  1  0
 14 41  1  0
 15 42  1  0
 21 43  1  0
 21 44  1  0
 22 45  1  0
 22 46  1  0
 23 47  1  0
 23 48  1  0
 24 49  1  0
 24 50  1  0
 25 51  1  0
 28 52  1  0
 30 53  1  0
 30 54  1  0
M  CHG  1  27  -1
M  END
>  <UniqueID>  (15) 
14

>  <SMILES>  (15) 
CN1CCc2cc(NS(=O)(=O)c3cccc(S(=O)(=O)N4CCCC4)c3)c([O-])cc2C1

>  <Energy>  (15) 
61.60776249586029

>  <Genealogy>  (15) 
CN1CCc2cc(NS(=O)(=O)c3cccc(S(=O)(=O)N4CCCC4)c3)c([O-])cc2C1 (protonated)
CN1CCc2cc(NS(=O)(=O)c3cccc(S(=O)(=O)N4CCCC4)c3)c([O-])cc2C1 (3D coordinates assigned)
CN1CCc2cc(NS(=O)(=O)c3cccc(S(=O)(=O)N4CCCC4)c3)c([O-])cc2C1 (nonaromatic ring conformer: 61.60776249586029 kcal/mol)

>  <smiles>  (15) 
CN1CCc2cc(NS(=O)(=O)c3cccc(S(=O)(=O)N4CCCC4)c3)c(O)cc2C1

>  <score_type>  (15) 
oracle

>  <origin>  (15) 
adgpu

>  <m_score__min__energy>  (15) 
-14.52

>  <m_primary>  (15) 
energy

$$$$
15:0
     RDKit          3D

 42 44  0  0  0  0  0  0  0  0999 V2000
   -4.8190   16.4040  -33.1740 C   0  0  0  0  0  0  0  0  0  0  0  0
   -5.4690   17.6800  -33.6010 C   0  0  0  0  0  0  0  0  0  0  0  0
   -5.4890   18.1110  -34.8760 N   0  0  0  0  0  0  0  0  0  0  0  0
   -6.1180   19.2490  -34.8860 O   0  0  0  0  0  0  0  0  0  0  0  0
   -6.5140   19.5890  -33.6820 C   0  0  0  0  0  0  0  0  0  0  0  0
   -7.1580   20.7000  -33.4670 N   0  0  0  0  0  0  0  0  0  0  0  0
   -7.7830   21.3430  -31.9820 S   0  0  0  0  0  0  0  0  0  0  0  0
   -8.9040   22.3060  -32.2560 O   0  0  0  0  0  0  0  0  0  0  0  0
   -8.2620   20.2400  -31.0820 O   0  0  0  0  0  0  0  0  0  0  0  0
   -6.4790   22.2040  -31.1720 C   0  0  0  0  0  0  0  0  0  0  0  0
   -5.1440   21.8560  -31.4190 C   0  0  0  0  0  0  0  0  0  0  0  0
   -4.1070   22.5480  -30.7880 C   0  0  0  0  0  0  0  0  0  0  0  0
   -4.3880   23.5940  -29.8960 C   0  0  0  0  0  0  0  0  0  0  0  0
   -3.3030   24.3070  -29.2780 N   0  0  0  0  0  0  0  0  0  0  0  0
   -2.9550   24.1870  -27.8880 C   0  0  0  0  0  0  0  0  0  0  0  0
   -3.3080   23.1640  -27.2400 O   0  0  0  0  0  0  0  0  0  0  0  0
   -2.1210   25.2170  -27.2250 C   0  0  0  0  0  0  0  0  0  0  0  0
   -2.1800   25.3590  -25.8260 C   0  0  0  0  0  0  0  0  0  0  0  0
   -1.3980   26.3180  -25.1750 C   0  0  0  0  0  0  0  0  0  0  0  0
   -0.5560   27.1520  -25.9120 C   0  0  0  0  0  0  0  0  0  0  0  0
   -0.5000   27.0350  -27.3020 C   0  0  0  0  0  0  0  0  0  0  0  0
   -1.2830   26.0810  -27.9640 C   0  0  0  0  0  0  0  0  0  0  0  0
   -1.2360   26.0220  -29.3530 O   0  0  0  0  0  0  0  0  0  0  0  0
   -5.7280   23.9610  -29.6740 C   0  0  0  0  0  0  0  0  0  0  0  0
   -6.7640   23.2680  -30.3050 C   0  0  0  0  0  0  0  0  0  0  0  0
   -6.1250   18.5920  -32.7850 C   0  0  0  0  0  0  0  0  0  0  0  0
   -6.2670   18.4920  -31.2960 C   0  0  0  0  0  0  0  0  0  0  0  0
   -4.7940   16.3550  -32.0754 H   0  0  0  0  0  0  0  0  0  0  0  0
   -5.3925   15.5512  -33.5661 H   0  0  0  0  0  0  0  0  0  0  0  0
   -3.7920   16.3665  -33.5661 H   0  0  0  0  0  0  0  0  0  0  0  0
   -4.9116   21.0345  -32.1126 H   0  0  0  0  0  0  0  0  0  0  0  0
   -3.0623   22.2706  -30.9921 H   0  0  0  0  0  0  0  0  0  0  0  0
   -2.6620   24.8580  -29.8940 H   0  0  0  0  0  0  0  0  0  0  0  0
   -2.8471   24.7099  -25.2397 H   0  0  0  0  0  0  0  0  0  0  0  0
   -1.4465   26.4152  -24.0804 H   0  0  0  0  0  0  0  0  0  0  0  0
    0.0635   27.9015  -25.3977 H   0  0  0  0  0  0  0  0  0  0  0  0
    0.1626   27.6956  -27.8804 H   0  0  0  0  0  0  0  0  0  0  0  0
   -5.9612   24.7983  -28.9998 H   0  0  0  0  0  0  0  0  0  0  0  0
   -7.8087   23.5588  -30.1205 H   0  0  0  0  0  0  0  0  0  0  0  0
   -5.4595   19.0606  -30.8117 H   0  0  0  0  0  0  0  0  0  0  0  0
   -7.2400   18.9053  -30.9919 H   0  0  0  0  0  0  0  0  0  0  0  0
   -6.2057   17.4367  -30.9919 H   0  0  0  0  0  0  0  0  0  0  0  0
  1  2  1  0
  2  3  1  0
  3  4  1  0
  4  5  1  0
  5  6  2  3
  6  7  1  0
  7  8  2  0
  7  9  2  0
  7 10  1  0
 10 11  2  0
 11 12  1  0
 12 13  2  0
 13 14  1  0
 14 15  1  0
 15 16  2  0
 15 17  1  0
 17 18  2  0
 18 19  1  0
 19 20  2  0
 20 21  1  0
 21 22  2  0
 22 23  1  0
 13 24  1  0
 24 25  2  0
  5 26  1  0
 26 27  1  0
 26  2  2  0
 25 10  1  0
 22 17  1  0
  1 28  1  0
  1 29  1  0
  1 30  1  0
 11 31  1  0
 12 32  1  0
 14 33  1  0
 18 34  1  0
 19 35  1  0
 20 36  1  0
 21 37  1  0
 24 38  1  0
 25 39  1  0
 27 40  1  0
 27 41  1  0
 27 42  1  0
M  CHG  2   3  -1  23  -1
M  END
>  <UniqueID>  (16) 
15

>  <SMILES>  (16) 
Cc1[n-]oc(=NS(=O)(=O)c2ccc(NC(=O)c3ccccc3[O-])cc2)c1C

>  <Energy>  (16) 
92.1575729275352

>  <Genealogy>  (16) 
Cc1[n-]oc(=NS(=O)(=O)c2ccc(NC(=O)c3ccccc3[O-])cc2)c1C (protonated)
Cc1[n-]oc(=NS(=O)(=O)c2ccc(NC(=O)c3ccccc3[O-])cc2)c1C (3D coordinates assigned)
Cc1[n-]oc(=NS(=O)(=O)c2ccc(NC(=O)c3ccccc3[O-])cc2)c1C (optimized conformer: 92.1575729275352 kcal/mol)

>  <smiles>  (16) 
Cc1[nH]oc(=NS(=O)(=O)c2ccc(NC(=O)c3ccccc3O)cc2)c1C

>  <score_type>  (16) 
oracle

>  <origin>  (16) 
adgpu

>  <m_score__min__energy>  (16) 
-11.52

>  <m_primary>  (16) 
energy

$$$$
16:0
     RDKit          3D

 38 39  0  0  0  0  0  0  0  0999 V2000
   -9.0920   20.3920  -31.9360 C   0  0  0  0  0  0  0  0  0  0  0  0
   -7.9430   19.6340  -31.5740 O   0  0  0  0  0  0  0  0  0  0  0  0
   -7.0990   18.9820  -32.4870 C   0  0  0  0  0  0  0  0  0  0  0  0
   -7.1050   17.5800  -32.6380 C   0  0  0  0  0  0  0  0  0  0  0  0
   -6.2510   16.9640  -33.5550 C   0  0  0  0  0  0  0  0  0  0  0  0
   -5.3760   17.7320  -34.3220 C   0  0  0  0  0  0  0  0  0  0  0  0
   -5.3580   19.1210  -34.1820 C   0  0  0  0  0  0  0  0  0  0  0  0
   -6.2270   19.7580  -33.2780 C   0  0  0  0  0  0  0  0  0  0  0  0
   -6.1890   21.1860  -33.1100 N   0  0  0  0  0  0  0  0  0  0  0  0
   -5.0260   21.9190  -32.6840 C   0  0  0  0  0  0  0  0  0  0  0  0
   -3.5280   21.3970  -33.1070 S   0  0  0  0  0  0  0  0  0  0  0  0
   -5.1510   23.2110  -32.0660 N   0  0  0  0  0  0  0  0  0  0  0  0
   -6.4170   23.7960  -31.6240 C   0  0  0  0  0  0  0  0  0  0  0  0
   -6.3080   24.3040  -30.1820 C   0  0  0  0  0  0  0  0  0  0  0  0
   -4.9820   23.9410  -29.5590 C   0  0  0  0  0  0  0  0  0  0  0  0
   -4.9280   22.9270  -28.5850 C   0  0  0  0  0  0  0  0  0  0  0  0
   -3.7190   22.6150  -27.9580 C   0  0  0  0  0  0  0  0  0  0  0  0
   -2.5560   23.3110  -28.2910 C   0  0  0  0  0  0  0  0  0  0  0  0
   -2.5990   24.3230  -29.2530 C   0  0  0  0  0  0  0  0  0  0  0  0
   -3.8040   24.6420  -29.8880 C   0  0  0  0  0  0  0  0  0  0  0  0
   -3.8220   25.6580  -30.8370 O   0  0  0  0  0  0  0  0  0  0  0  0
   -9.6082   20.7325  -31.0263 H   0  0  0  0  0  0  0  0  0  0  0  0
   -8.7833   21.2644  -32.5308 H   0  0  0  0  0  0  0  0  0  0  0  0
   -9.7725   19.7649  -32.5308 H   0  0  0  0  0  0  0  0  0  0  0  0
   -7.7868   16.9677  -32.0295 H   0  0  0  0  0  0  0  0  0  0  0  0
   -6.2686   15.8704  -33.6725 H   0  0  0  0  0  0  0  0  0  0  0  0
   -4.6992   17.2431  -35.0382 H   0  0  0  0  0  0  0  0  0  0  0  0
   -4.6592   19.7214  -34.7830 H   0  0  0  0  0  0  0  0  0  0  0  0
   -7.0390   21.7240  -33.3820 H   0  0  0  0  0  0  0  0  0  0  0  0
   -4.2880   23.7860  -31.9340 H   0  0  0  0  0  0  0  0  0  0  0  0
   -6.6755   24.6371  -32.2841 H   0  0  0  0  0  0  0  0  0  0  0  0
   -7.1971   23.0217  -31.6669 H   0  0  0  0  0  0  0  0  0  0  0  0
   -6.4141   25.3989  -30.1811 H   0  0  0  0  0  0  0  0  0  0  0  0
   -7.1051   23.8293  -29.5909 H   0  0  0  0  0  0  0  0  0  0  0  0
   -5.8420   22.3773  -28.3159 H   0  0  0  0  0  0  0  0  0  0  0  0
   -3.6837   21.8187  -27.1999 H   0  0  0  0  0  0  0  0  0  0  0  0
   -1.6056   23.0627  -27.7960 H   0  0  0  0  0  0  0  0  0  0  0  0
   -1.6814   24.8714  -29.5123 H   0  0  0  0  0  0  0  0  0  0  0  0
  1  2  1  0
  2  3  1  0
  3  4  2  0
  4  5  1  0
  5  6  2  0
  6  7  1  0
  7  8  2  0
  8  9  1  0
  9 10  1  0
 10 11  2  0
 10 12  1  0
 12 13  1  0
 13 14  1  0
 14 15  1  0
 15 16  2  0
 16 17  1  0
 17 18  2  0
 18 19  1  0
 19 20  2  0
 20 21  1  0
  8  3  1  0
 20 15  1  0
  1 22  1  0
  1 23  1  0
  1 24  1  0
  4 25  1  0
  5 26  1  0
  6 27  1  0
  7 28  1  0
  9 29  1  0
 12 30  1  0
 13 31  1  0
 13 32  1  0
 14 33  1  0
 14 34  1  0
 16 35  1  0
 17 36  1  0
 18 37  1  0
 19 38  1  0
M  CHG  1  21  -1
M  END
>  <UniqueID>  (17) 
16

>  <SMILES>  (17) 
COc1ccccc1NC(=S)NCCc1ccccc1[O-]

>  <Energy>  (17) 
38.03641980234999

>  <Genealogy>  (17) 
COc1ccccc1NC(=S)NCCc1ccccc1[O-] (protonated)
COc1ccccc1NC(=S)NCCc1ccccc1[O-] (3D coordinates assigned)
COc1ccccc1NC(=S)NCCc1ccccc1[O-] (optimized conformer: 38.03641980234999 kcal/mol)

>  <smiles>  (17) 
COc1ccccc1NC(=S)NCCc1ccccc1O

>  <score_type>  (17) 
oracle

>  <origin>  (17) 
adgpu

>  <m_score__min__energy>  (17) 
-10.43

>  <m_primary>  (17) 
energy

$$$$
17:0
     RDKit          3D

 57 60  0  0  1  0  0  0  0  0999 V2000
    2.6220   26.4160  -23.4250 C   0  0  0  0  0  0  0  0  0  0  0  0
    2.2090   25.3080  -24.3090 C   0  0  0  0  0  0  0  0  0  0  0  0
    2.7130   24.1690  -24.1340 O   0  0  0  0  0  0  0  0  0  0  0  0
    1.2380   25.4640  -25.3850 C   0  0  0  0  0  0  0  0  0  0  0  0
    1.4910   24.8140  -26.5760 C   0  0  0  0  0  0  0  0  0  0  0  0
    0.5840   24.9380  -27.6330 C   0  0  0  0  0  0  0  0  0  0  0  0
   -0.5640   25.7080  -27.4880 C   0  0  0  0  0  0  0  0  0  0  0  0
   -1.4400   25.7870  -28.6070 N   0  0  0  0  0  0  0  0  0  0  0  0
   -2.2250   24.8000  -28.8960 C   0  0  0  0  0  0  0  0  0  0  0  0
   -2.1580   23.6950  -28.0670 C   0  0  0  0  0  0  0  0  0  0  0  0
   -2.9950   22.6100  -28.3500 C   0  0  0  0  0  0  0  0  0  0  0  0
   -2.9340   21.4210  -27.4710 C   0  0  0  0  0  0  0  0  0  0  0  0
   -3.8140   22.7060  -29.4130 N   0  0  0  0  0  0  0  0  0  0  0  0
   -3.8740   23.7780  -30.2140 C   0  0  0  0  0  0  0  0  0  0  0  0
   -4.6620   23.8610  -31.2290 N   0  0  0  0  0  0  0  0  0  0  0  0
   -5.5090   22.7510  -31.5090 C   0  0  0  0  0  0  0  0  0  0  0  0
   -6.8680   22.8950  -31.3390 C   0  0  0  0  0  0  0  0  0  0  0  0
   -7.7100   21.8360  -31.6050 C   0  0  0  0  0  0  0  0  0  0  0  0
   -7.2680   20.6050  -32.0420 C   0  0  0  0  0  0  0  0  0  0  0  0
   -8.3420   19.2670  -32.3770 S   0  0  0  0  0  0  0  0  0  0  0  0
   -9.0970   18.9670  -31.1240 O   0  0  0  0  0  0  0  0  0  0  0  0
   -9.3170   19.6780  -33.4290 O   0  0  0  0  0  0  0  0  0  0  0  0
   -7.4060   17.9170  -32.8870 N   0  0  0  0  0  0  0  0  0  0  0  0
   -6.6180   17.3560  -31.8350 C   0  0  0  0  0  0  0  0  0  0  0  0
   -5.3950   16.7380  -32.4710 C   0  0  0  0  0  0  0  0  0  0  0  0
   -5.2750   17.4180  -33.7910 C   0  0  0  0  0  0  0  0  0  0  0  0
   -6.5560   18.1960  -33.9960 C   0  0  0  0  0  0  0  0  0  0  0  0
   -5.8870   20.4830  -32.2060 C   0  0  0  0  0  0  0  0  0  0  0  0
   -5.0270   21.5340  -31.9460 C   0  0  0  0  0  0  0  0  0  0  0  0
   -3.0730   24.8260  -29.9460 N   0  0  0  0  0  0  0  0  0  0  0  0
   -0.8220   26.3630  -26.2920 C   0  0  0  0  0  0  0  0  0  0  0  0
    0.1010   26.2220  -25.2550 C   0  0  0  0  0  0  0  0  0  0  0  0
    2.5077   26.1093  -22.3748 H   0  0  0  0  0  0  0  0  0  0  0  0
    3.6746   26.6684  -23.6208 H   0  0  0  0  0  0  0  0  0  0  0  0
    1.9914   27.2958  -23.6208 H   0  0  0  0  0  0  0  0  0  0  0  0
    2.3986   24.2035  -26.6927 H   0  0  0  0  0  0  0  0  0  0  0  0
    0.7802   24.4230  -28.5850 H   0  0  0  0  0  0  0  0  0  0  0  0
   -1.4676   23.6698  -27.2110 H   0  0  0  0  0  0  0  0  0  0  0  0
   -2.9504   21.7416  -26.4189 H   0  0  0  0  0  0  0  0  0  0  0  0
   -3.8001   20.7728  -27.6704 H   0  0  0  0  0  0  0  0  0  0  0  0
   -2.0061   20.8648  -27.6704 H   0  0  0  0  0  0  0  0  0  0  0  0
   -4.4260   21.8750  -29.5960 H   0  0  0  0  0  0  0  0  0  0  0  0
   -7.2812   23.8534  -30.9915 H   0  0  0  0  0  0  0  0  0  0  0  0
   -8.7909   21.9807  -31.4611 H   0  0  0  0  0  0  0  0  0  0  0  0
   -6.3176   18.1438  -31.1285 H   0  0  0  0  0  0  0  0  0  0  0  0
   -7.1920   16.6002  -31.2788 H   0  0  0  0  0  0  0  0  0  0  0  0
   -4.5019   16.9229  -31.8561 H   0  0  0  0  0  0  0  0  0  0  0  0
   -5.4826   15.6460  -32.5702 H   0  0  0  0  0  0  0  0  0  0  0  0
   -4.4127   18.1009  -33.7889 H   0  0  0  0  0  0  0  0  0  0  0  0
   -5.1208   16.6886  -34.5998 H   0  0  0  0  0  0  0  0  0  0  0  0
   -6.3385   19.2733  -34.0413 H   0  0  0  0  0  0  0  0  0  0  0  0
   -7.0405   17.9048  -34.9396 H   0  0  0  0  0  0  0  0  0  0  0  0
   -5.4718   19.5247  -32.5514 H   0  0  0  0  0  0  0  0  0  0  0  0
   -3.9448   21.3983  -32.0893 H   0  0  0  0  0  0  0  0  0  0  0  0
   -3.1000   25.6740  -30.5530 H   0  0  0  0  0  0  0  0  0  0  0  0
   -1.7271   26.9751  -26.1653 H   0  0  0  0  0  0  0  0  0  0  0  0
   -0.0890   26.7357  -24.3010 H   0  0  0  0  0  0  0  0  0  0  0  0
  1  2  1  0
  2  3  2  0
  2  4  1  0
  4  5  2  0
  5  6  1  0
  6  7  2  0
  7  8  1  0
  8  9  2  0
  9 10  1  0
 10 11  2  0
 11 12  1  0
 11 13  1  0
 13 14  1  0
 14 15  2  0
 15 16  1  0
 16 17  2  0
 17 18  1  0
 18 19  2  0
 19 20  1  0
 20 21  2  0
 20 22  2  0
 20 23  1  0
 23 24  1  0
 24 25  1  0
 25 26  1  0
 26 27  1  0
 19 28  1  0
 28 29  2  0
 14 30  1  0
  7 31  1  0
 31 32  2  0
 32  4  1  0
 30  9  1  0
 29 16  1  0
 27 23  1  0
  1 33  1  0
  1 34  1  0
  1 35  1  0
  5 36  1  0
  6 37  1  0
 10 38  1  0
 12 39  1  0
 12 40  1  0
 12 41  1  0
 13 42  1  0
 17 43  1  0
 18 44  1  0
 24 45  1  0
 24 46  1  0
 25 47  1  0
 25 48  1  0
 26 49  1  0
 26 50  1  0
 27 51  1  0
 27 52  1  0
 28 53  1  0
 29 54  1  0
 30 55  1  0
 31 56  1  0
 32 57  1  0
M  END
>  <smiles>  (18) 
CC(=O)c1ccc(N=c2cc(C)[nH]c(=Nc3ccc(S(=O)(=O)N4CCCC4)cc3)[nH]2)cc1

>  <score_type>  (18) 
oracle

>  <origin>  (18) 
adgpu

>  <m_score__min__energy>  (18) 
-10.76

>  <m_primary>  (18) 
energy

$$$$
18:0
     RDKit          3D

 47 50  0  0  0  0  0  0  0  0999 V2000
    3.8830   23.0620  -35.6940 O   0  0  0  0  0  0  0  0  0  0  0  0
    2.6320   23.2170  -35.7150 C   0  0  0  0  0  0  0  0  0  0  0  0
    1.8290   22.2010  -35.3050 N   0  0  0  0  0  0  0  0  0  0  0  0
    0.4750   22.3220  -35.3060 C   0  0  0  0  0  0  0  0  0  0  0  0
   -0.3770   21.1890  -34.8330 C   0  0  0  0  0  0  0  0  0  0  0  0
   -1.2250   21.6350  -33.7260 N   0  0  0  0  0  0  0  0  0  0  0  0
   -2.2200   20.3390  -33.1270 S   0  0  0  0  0  0  0  0  0  0  0  0
   -2.4710   19.3600  -34.2380 O   0  0  0  0  0  0  0  0  0  0  0  0
   -1.5130   19.6190  -32.0120 O   0  0  0  0  0  0  0  0  0  0  0  0
   -3.7620   20.9730  -32.5580 C   0  0  0  0  0  0  0  0  0  0  0  0
   -4.9320   20.2110  -32.6740 C   0  0  0  0  0  0  0  0  0  0  0  0
   -6.1420   20.7090  -32.1860 C   0  0  0  0  0  0  0  0  0  0  0  0
   -6.1900   21.9670  -31.5780 C   0  0  0  0  0  0  0  0  0  0  0  0
   -5.0250   22.7400  -31.4640 C   0  0  0  0  0  0  0  0  0  0  0  0
   -5.0840   24.3340  -30.7110 S   0  0  0  0  0  0  0  0  0  0  0  0
   -5.8230   24.2260  -29.4060 O   0  0  0  0  0  0  0  0  0  0  0  0
   -5.8300   25.3010  -31.5860 O   0  0  0  0  0  0  0  0  0  0  0  0
   -3.4800   24.9110  -30.3800 N   0  0  0  0  0  0  0  0  0  0  0  0
   -2.5960   24.3990  -29.3730 C   0  0  0  0  0  0  0  0  0  0  0  0
   -2.8940   23.1550  -28.8020 C   0  0  0  0  0  0  0  0  0  0  0  0
   -2.0690   22.6130  -27.8100 C   0  0  0  0  0  0  0  0  0  0  0  0
   -0.9350   23.3080  -27.3880 C   0  0  0  0  0  0  0  0  0  0  0  0
   -0.6480   24.5650  -27.9230 C   0  0  0  0  0  0  0  0  0  0  0  0
   -1.4880   25.1290  -28.8910 C   0  0  0  0  0  0  0  0  0  0  0  0
   -1.2360   26.4240  -29.3200 O   0  0  0  0  0  0  0  0  0  0  0  0
   -3.8150   22.2370  -31.9580 C   0  0  0  0  0  0  0  0  0  0  0  0
   -0.1020   23.4700  -35.7500 N   0  0  0  0  0  0  0  0  0  0  0  0
    0.6520   24.5160  -36.1760 C   0  0  0  0  0  0  0  0  0  0  0  0
    0.0360   25.6890  -36.6260 C   0  0  0  0  0  0  0  0  0  0  0  0
    0.8130   26.7670  -37.0580 C   0  0  0  0  0  0  0  0  0  0  0  0
    2.2080   26.6800  -37.0360 C   0  0  0  0  0  0  0  0  0  0  0  0
    2.8350   25.5150  -36.5840 C   0  0  0  0  0  0  0  0  0  0  0  0
    2.0590   24.4210  -36.1570 C   0  0  0  0  0  0  0  0  0  0  0  0
   -1.0112   20.8386  -35.6607 H   0  0  0  0  0  0  0  0  0  0  0  0
    0.2689   20.3681  -34.4880 H   0  0  0  0  0  0  0  0  0  0  0  0
   -4.8975   19.2198  -33.1498 H   0  0  0  0  0  0  0  0  0  0  0  0
   -7.0597   20.1099  -32.2802 H   0  0  0  0  0  0  0  0  0  0  0  0
   -7.1439   22.3517  -31.1880 H   0  0  0  0  0  0  0  0  0  0  0  0
   -3.7831   22.6000  -29.1359 H   0  0  0  0  0  0  0  0  0  0  0  0
   -2.3146   21.6385  -27.3627 H   0  0  0  0  0  0  0  0  0  0  0  0
   -0.2674   22.8655  -26.6340 H   0  0  0  0  0  0  0  0  0  0  0  0
    0.2419   25.1148  -27.5827 H   0  0  0  0  0  0  0  0  0  0  0  0
   -2.8987   22.8398  -31.8740 H   0  0  0  0  0  0  0  0  0  0  0  0
   -1.0614   25.7626  -36.6397 H   0  0  0  0  0  0  0  0  0  0  0  0
    0.3260   27.6860  -37.4161 H   0  0  0  0  0  0  0  0  0  0  0  0
    2.8151   27.5320  -37.3758 H   0  0  0  0  0  0  0  0  0  0  0  0
    3.9331   25.4534  -36.5621 H   0  0  0  0  0  0  0  0  0  0  0  0
  1  2  2  0
  2  3  1  0
  3  4  1  0
  4  5  1  0
  5  6  1  0
  6  7  1  0
  7  8  2  0
  7  9  2  0
  7 10  1  0
 10 11  2  0
 11 12  1  0
 12 13  2  0
 13 14  1  0
 14 15  1  0
 15 16  2  0
 15 17  2  0
 15 18  1  0
 18 19  1  0
 19 20  2  0
 20 21  1  0
 21 22  2  0
 22 23  1  0
 23 24  2  0
 24 25  1  0
 14 26  2  0
  4 27  2  0
 27 28  1  0
 28 29  2  0
 29 30  1  0
 30 31  2  0
 31 32  1  0
 32 33  2  0
 33  2  1  0
 26 10  1  0
 33 28  1  0
 24 19  1  0
  5 34  1  0
  5 35  1  0
 11 36  1  0
 12 37  1  0
 13 38  1  0
 20 39  1  0
 21 40  1  0
 22 41  1  0
 23 42  1  0
 26 43  1  0
 29 44  1  0
 30 45  1  0
 31 46  1  0
 32 47  1  0
M  CHG  4   3  -1   6  -1  18  -1  25  -1
M  END
>  <UniqueID>  (19) 
17

>  <SMILES>  (19) 
O=c1[n-]c(C[N-]S(=O)(=O)c2cccc(S(=O)(=O)[N-]c3ccccc3[O-])c2)nc2ccccc12

>  <Energy>  (19) 
57.089854976824824

>  <Genealogy>  (19) 
O=c1[n-]c(C[N-]S(=O)(=O)c2cccc(S(=O)(=O)[N-]c3ccccc3[O-])c2)nc2ccccc12 (protonated)
O=c1[n-]c(C[N-]S(=O)(=O)c2cccc(S(=O)(=O)[N-]c3ccccc3[O-])c2)nc2ccccc12 (3D coordinates assigned)
O=c1[n-]c(C[N-]S(=O)(=O)c2cccc(S(=O)(=O)[N-]c3ccccc3[O-])c2)nc2ccccc12 (optimized conformer: 57.089854976824824 kcal/mol)

>  <smiles>  (19) 
O=c1[nH]c(CNS(=O)(=O)c2cccc(S(=O)(=O)Nc3ccccc3O)c2)nc2ccccc12

>  <score_type>  (19) 
oracle

>  <origin>  (19) 
adgpu

>  <m_score__min__energy>  (19) 
-15.01

>  <m_primary>  (19) 
energy

$$$$
19:0
     RDKit          3D

 49 51  0  0  1  0  0  0  0  0999 V2000
   -7.7830   18.2300  -31.2300 C   0  0  0  0  0  0  0  0  0  0  0  0
   -7.6920   18.6460  -32.6960 C   0  0  0  0  0  0  0  0  0  0  0  0
   -8.1040   20.1030  -32.7390 C   0  0  0  0  0  0  0  0  0  0  0  0
   -6.3290   18.4600  -33.2340 C   0  0  0  0  0  0  0  0  0  0  0  0
   -5.3020   19.3200  -32.8600 C   0  0  0  0  0  0  0  0  0  0  0  0
   -4.0040   19.1710  -33.3510 C   0  0  0  0  0  0  0  0  0  0  0  0
   -2.9680   20.0990  -32.9330 C   0  0  0  0  0  0  0  0  0  0  0  0
   -3.1390   20.8560  -31.7880 C   0  0  0  0  0  0  0  0  0  0  0  0
   -2.1570   21.7650  -31.3670 C   0  0  0  0  0  0  0  0  0  0  0  0
   -2.3230   22.4550  -30.3140 N   0  0  0  0  0  0  0  0  0  0  0  0
   -3.4670   22.4000  -29.4680 C   0  0  0  0  0  0  0  0  0  0  0  0
   -4.6740   22.9890  -30.1400 C   0  0  0  0  0  0  0  0  0  0  0  0
   -5.8400   22.2880  -30.3240 C   0  0  0  0  0  0  0  0  0  0  0  0
   -6.9410   22.8590  -30.9470 C   0  0  0  0  0  0  0  0  0  0  0  0
   -6.8950   24.1660  -31.4070 C   0  0  0  0  0  0  0  0  0  0  0  0
   -5.7310   24.8850  -31.2300 C   0  0  0  0  0  0  0  0  0  0  0  0
   -4.6500   24.3030  -30.6100 C   0  0  0  0  0  0  0  0  0  0  0  0
   -3.5020   25.0670  -30.4560 O   0  0  0  0  0  0  0  0  0  0  0  0
   -1.0190   21.9310  -32.0610 N   0  0  0  0  0  0  0  0  0  0  0  0
   -0.8760   21.1860  -33.1680 C   0  0  0  0  0  0  0  0  0  0  0  0
    0.2170   21.3410  -33.8430 N   0  0  0  0  0  0  0  0  0  0  0  0
   -1.8110   20.3050  -33.5920 N   0  0  0  0  0  0  0  0  0  0  0  0
   -3.8150   18.1270  -34.2210 C   0  0  0  0  0  0  0  0  0  0  0  0
   -2.5960   17.8630  -34.7770 O   0  0  0  0  0  0  0  0  0  0  0  0
   -4.8510   17.2590  -34.5970 C   0  0  0  0  0  0  0  0  0  0  0  0
   -6.1240   17.4190  -34.1050 C   0  0  0  0  0  0  0  0  0  0  0  0
   -7.1470   16.5740  -34.4690 O   0  0  0  0  0  0  0  0  0  0  0  0
   -7.5920   19.1030  -30.5886 H   0  0  0  0  0  0  0  0  0  0  0  0
   -8.7887   17.8356  -31.0225 H   0  0  0  0  0  0  0  0  0  0  0  0
   -7.0339   17.4517  -31.0225 H   0  0  0  0  0  0  0  0  0  0  0  0
   -8.3458   18.0228  -33.3239 H   0  0  0  0  0  0  0  0  0  0  0  0
   -8.2117   20.4840  -31.7127 H   0  0  0  0  0  0  0  0  0  0  0  0
   -7.3355   20.6859  -33.2677 H   0  0  0  0  0  0  0  0  0  0  0  0
   -9.0640   20.1971  -33.2677 H   0  0  0  0  0  0  0  0  0  0  0  0
   -5.5184   20.1393  -32.1587 H   0  0  0  0  0  0  0  0  0  0  0  0
   -4.0604   20.7433  -31.1977 H   0  0  0  0  0  0  0  0  0  0  0  0
   -3.6749   21.3499  -29.2150 H   0  0  0  0  0  0  0  0  0  0  0  0
   -3.2554   22.9854  -28.5610 H   0  0  0  0  0  0  0  0  0  0  0  0
   -5.9032   21.2487  -29.9691 H   0  0  0  0  0  0  0  0  0  0  0  0
   -7.8598   22.2683  -31.0771 H   0  0  0  0  0  0  0  0  0  0  0  0
   -7.7666   24.6193  -31.9018 H   0  0  0  0  0  0  0  0  0  0  0  0
   -5.6674   25.9242  -31.5849 H   0  0  0  0  0  0  0  0  0  0  0  0
   -2.6230   24.5790  -30.5370 H   0  0  0  0  0  0  0  0  0  0  0  0
   -0.3040   22.6080  -31.7340 H   0  0  0  0  0  0  0  0  0  0  0  0
    0.9680   21.9840  -33.5910 H   0  0  0  0  0  0  0  0  0  0  0  0
   -1.5750   19.7940  -34.4570 H   0  0  0  0  0  0  0  0  0  0  0  0
   -2.5640   17.2490  -35.6010 H   0  0  0  0  0  0  0  0  0  0  0  0
   -4.6409   16.4370  -35.2971 H   0  0  0  0  0  0  0  0  0  0  0  0
   -7.0360   15.6320  -34.8100 H   0  0  0  0  0  0  0  0  0  0  0  0
  1  2  1  0
  2  3  1  0
  2  4  1  0
  4  5  2  0
  5  6  1  0
  6  7  1  0
  7  8  2  0
  8  9  1  0
  9 10  2  0
 10 11  1  0
 11 12  1  0
 12 13  2  0
 13 14  1  0
 14 15  2  0
 15 16  1  0
 16 17  2  0
 17 18  1  0
  9 19  1  0
 19 20  1  0
 20 21  2  3
 20 22  1  0
  6 23  2  0
 23 24  1  0
 23 25  1  0
 25 26  2  0
 26 27  1  0
 26  4  1  0
 22  7  1  0
 17 12  1  0
  1 28  1  0
  1 29  1  0
  1 30  1  0
  2 31  1  0
  3 32  1  0
  3 33  1  0
  3 34  1  0
  5 35  1  0
  8 36  1  0
 11 37  1  0
 11 38  1  0
 13 39  1  0
 14 40  1  0
 15 41  1  0
 16 42  1  0
 18 43  1  0
 19 44  1  0
 21 45  1  0
 22 46  1  0
 24 47  1  0
 25 48  1  0
 27 49  1  0
M  END
>  <smiles>  (20) 
CC(C)c1cc(-c2cc(=NCc3ccccc3O)[nH]c(=N)[nH]2)c(O)cc1O

>  <score_type>  (20) 
oracle

>  <origin>  (20) 
adgpu

>  <m_score__min__energy>  (20) 
-9.1400000000000006

>  <m_primary>  (20) 
energy

$$$$
20:0
     RDKit          3D

 41 43  0  0  0  0  0  0  0  0999 V2000
   -0.7540   26.4130  -27.8690 C   0  0  0  0  0  0  0  0  0  0  0  0
   -1.8220   25.4060  -28.1340 C   0  0  0  0  0  0  0  0  0  0  0  0
   -2.3660   24.5460  -27.2000 C   0  0  0  0  0  0  0  0  0  0  0  0
   -3.2950   23.7920  -27.8840 C   0  0  0  0  0  0  0  0  0  0  0  0
   -3.2530   24.2390  -29.1920 C   0  0  0  0  0  0  0  0  0  0  0  0
   -4.0630   23.7380  -30.3060 C   0  0  0  0  0  0  0  0  0  0  0  0
   -3.5500   23.0250  -31.3320 N   0  0  0  0  0  0  0  0  0  0  0  0
   -4.5050   22.6710  -32.2340 C   0  0  0  0  0  0  0  0  0  0  0  0
   -4.1750   21.8650  -33.4640 C   0  0  0  0  0  0  0  0  0  0  0  0
   -3.4140   20.6240  -33.1830 N   0  0  0  0  0  0  0  0  0  0  0  0
   -2.0340   20.9110  -32.7590 C   0  0  0  0  0  0  0  0  0  0  0  0
   -4.0820   19.7130  -32.2250 C   0  0  0  0  0  0  0  0  0  0  0  0
   -4.9710   18.6810  -32.9340 C   0  0  0  0  0  0  0  0  0  0  0  0
   -6.4300   18.9100  -32.6350 C   0  0  0  0  0  0  0  0  0  0  0  0
   -7.0460   20.1210  -32.9830 C   0  0  0  0  0  0  0  0  0  0  0  0
   -8.3910   20.3350  -32.6750 C   0  0  0  0  0  0  0  0  0  0  0  0
   -9.1080   19.3360  -32.0140 C   0  0  0  0  0  0  0  0  0  0  0  0
   -8.4960   18.1700  -31.6750 N   0  0  0  0  0  0  0  0  0  0  0  0
   -7.1890   17.9380  -31.9650 C   0  0  0  0  0  0  0  0  0  0  0  0
   -5.7930   23.1080  -31.9320 C   0  0  0  0  0  0  0  0  0  0  0  0
   -5.7220   23.9570  -30.4830 S   0  0  0  0  0  0  0  0  0  0  0  0
   -2.3650   25.2010  -29.3120 O   0  0  0  0  0  0  0  0  0  0  0  0
   -0.6255   26.5341  -26.7833 H   0  0  0  0  0  0  0  0  0  0  0  0
    0.1917   26.0703  -28.3142 H   0  0  0  0  0  0  0  0  0  0  0  0
   -1.0406   27.3772  -28.3142 H   0  0  0  0  0  0  0  0  0  0  0  0
   -2.1108   24.4772  -26.1322 H   0  0  0  0  0  0  0  0  0  0  0  0
   -3.9372   22.9985  -27.4742 H   0  0  0  0  0  0  0  0  0  0  0  0
   -5.1171   21.5887  -33.9600 H   0  0  0  0  0  0  0  0  0  0  0  0
   -3.5338   22.4963  -34.0967 H   0  0  0  0  0  0  0  0  0  0  0  0
   -1.9827   20.9217  -31.6602 H   0  0  0  0  0  0  0  0  0  0  0  0
   -1.3611   20.1336  -33.1499 H   0  0  0  0  0  0  0  0  0  0  0  0
   -1.7269   21.8922  -33.1499 H   0  0  0  0  0  0  0  0  0  0  0  0
   -3.3128   19.1807  -31.6463 H   0  0  0  0  0  0  0  0  0  0  0  0
   -4.7241   20.3209  -31.5706 H   0  0  0  0  0  0  0  0  0  0  0  0
   -4.8123   18.7585  -34.0197 H   0  0  0  0  0  0  0  0  0  0  0  0
   -4.6969   17.6804  -32.5683 H   0  0  0  0  0  0  0  0  0  0  0  0
   -6.4692   20.9027  -33.4989 H   0  0  0  0  0  0  0  0  0  0  0  0
   -8.8805   21.2808  -32.9503 H   0  0  0  0  0  0  0  0  0  0  0  0
  -10.1685   19.4922  -31.7673 H   0  0  0  0  0  0  0  0  0  0  0  0
   -6.7240   16.9847  -31.6735 H   0  0  0  0  0  0  0  0  0  0  0  0
   -6.6957   22.9292  -32.5346 H   0  0  0  0  0  0  0  0  0  0  0  0
  1  2  1  0
  2  3  2  0
  3  4  1  0
  4  5  2  0
  5  6  1  0
  6  7  2  0
  7  8  1  0
  8  9  1  0
  9 10  1  0
 10 11  1  0
 10 12  1  0
 12 13  1  0
 13 14  1  0
 14 15  2  0
 15 16  1  0
 16 17  2  0
 17 18  1  0
 18 19  2  0
  8 20  2  0
 20 21  1  0
  5 22  1  0
 22  2  1  0
 21  6  1  0
 19 14  1  0
  1 23  1  0
  1 24  1  0
  1 25  1  0
  3 26  1  0
  4 27  1  0
  9 28  1  0
  9 29  1  0
 11 30  1  0
 11 31  1  0
 11 32  1  0
 12 33  1  0
 12 34  1  0
 13 35  1  0
 13 36  1  0
 15 37  1  0
 16 38  1  0
 17 39  1  0
 19 40  1  0
 20 41  1  0
M  END
>  <UniqueID>  (21) 
18

>  <SMILES>  (21) 
Cc1ccc(-c2nc(CN(C)CCc3cccnc3)cs2)o1

>  <Energy>  (21) 
97.34843160138475

>  <Genealogy>  (21) 
Cc1ccc(-c2nc(CN(C)CCc3cccnc3)cs2)o1 (3D coordinates assigned)
Cc1ccc(-c2nc(CN(C)CCc3cccnc3)cs2)o1 (optimized conformer: 97.34843160138475 kcal/mol)

>  <smiles>  (21) 
Cc1ccc(-c2nc(CN(C)CCc3cccnc3)cs2)o1

>  <score_type>  (21) 
oracle

>  <origin>  (21) 
adgpu

>  <m_score__min__energy>  (21) 
-8.3599999999999994

>  <m_primary>  (21) 
energy

$$$$
21:0
     RDKit          3D

 42 44  0  0  0  0  0  0  0  0999 V2000
   -0.4276   19.2215  -28.9037 H   0  0  0  0  0  0  0  0  0  0  0  0
   -0.8280   20.0870  -29.4520 C   0  0  0  0  0  0  0  0  0  0  0  0
   -0.2140   20.4090  -30.7530 C   0  0  0  0  0  0  0  0  0  0  0  0
    1.0240   20.2290  -30.9040 O   0  0  0  0  0  0  0  0  0  0  0  0
   -1.0260   20.8080  -31.8660 N   0  0  0  0  0  0  0  0  0  0  0  0
   -2.1610   20.1050  -32.3920 C   0  0  0  0  0  0  0  0  0  0  0  0
   -2.1980   18.7010  -32.4700 C   0  0  0  0  0  0  0  0  0  0  0  0
   -1.3492   18.1082  -32.0985 H   0  0  0  0  0  0  0  0  0  0  0  0
   -3.3120   18.0570  -33.0190 C   0  0  0  0  0  0  0  0  0  0  0  0
   -3.3406   16.9585  -33.0691 H   0  0  0  0  0  0  0  0  0  0  0  0
   -4.3910   18.8060  -33.5050 C   0  0  0  0  0  0  0  0  0  0  0  0
   -5.7960   17.9980  -34.1950 S   0  0  0  0  0  0  0  0  0  0  0  0
   -6.1320   18.6400  -35.5110 O   0  0  0  0  0  0  0  0  0  0  0  0
   -5.5060   16.5390  -34.4180 O   0  0  0  0  0  0  0  0  0  0  0  0
   -7.1530   18.1460  -33.1260 N   0  0  0  0  0  0  0  0  0  0  0  0
   -7.6180   19.2880  -32.7270 C   0  0  0  0  0  0  0  0  0  0  0  0
   -7.1140   20.4860  -33.0850 N   0  0  0  0  0  0  0  0  0  0  0  0
   -7.8500   21.3810  -32.4910 O   0  0  0  0  0  0  0  0  0  0  0  0
   -8.7990   20.8170  -31.7780 C   0  0  0  0  0  0  0  0  0  0  0  0
   -9.7940   21.5660  -30.9570 C   0  0  0  0  0  0  0  0  0  0  0  0
   -9.5825   21.4068  -29.8893 H   0  0  0  0  0  0  0  0  0  0  0  0
   -9.7264   22.6393  -31.1881 H   0  0  0  0  0  0  0  0  0  0  0  0
  -10.8068   21.2042  -31.1881 H   0  0  0  0  0  0  0  0  0  0  0  0
   -8.6960   19.4450  -31.8870 C   0  0  0  0  0  0  0  0  0  0  0  0
   -9.3205   18.6699  -31.4187 H   0  0  0  0  0  0  0  0  0  0  0  0
   -4.3410   20.2050  -33.4560 C   0  0  0  0  0  0  0  0  0  0  0  0
   -5.1790   20.7984  -33.8506 H   0  0  0  0  0  0  0  0  0  0  0  0
   -3.2290   20.8480  -32.9070 C   0  0  0  0  0  0  0  0  0  0  0  0
   -3.1927   21.9471  -32.8793 H   0  0  0  0  0  0  0  0  0  0  0  0
   -1.8370   20.7660  -28.8830 C   0  0  0  0  0  0  0  0  0  0  0  0
   -2.2962   20.3315  -27.9828 H   0  0  0  0  0  0  0  0  0  0  0  0
   -2.3790   22.0510  -29.3710 C   0  0  0  0  0  0  0  0  0  0  0  0
   -3.6040   22.0670  -30.0530 C   0  0  0  0  0  0  0  0  0  0  0  0
   -4.1433   21.1252  -30.2324 H   0  0  0  0  0  0  0  0  0  0  0  0
   -4.1430   23.2750  -30.5060 C   0  0  0  0  0  0  0  0  0  0  0  0
   -5.0963   23.2790  -31.0548 H   0  0  0  0  0  0  0  0  0  0  0  0
   -3.4730   24.4780  -30.2630 C   0  0  0  0  0  0  0  0  0  0  0  0
   -4.0120   25.6750  -30.7220 O   0  0  0  0  0  0  0  0  0  0  0  0
   -2.2650   24.4750  -29.5560 C   0  0  0  0  0  0  0  0  0  0  0  0
   -1.5990   25.6680  -29.3030 O   0  0  0  0  0  0  0  0  0  0  0  0
   -1.7270   23.2680  -29.0990 C   0  0  0  0  0  0  0  0  0  0  0  0
   -0.7893   23.2698  -28.5239 H   0  0  0  0  0  0  0  0  0  0  0  0
  1  2  1  0
  2  3  1  0
  3  4  2  0
  3  5  1  0
  5  6  1  0
  6  7  2  0
  7  8  1  0
  7  9  1  0
  9 10  1  0
  9 11  2  0
 11 12  1  0
 12 13  2  0
 12 14  2  0
 12 15  1  0
 15 16  2  0
 16 17  1  0
 17 18  1  0
 18 19  1  0
 19 20  1  0
 20 21  1  0
 20 22  1  0
 20 23  1  0
 19 24  2  0
 24 25  1  0
 11 26  1  0
 26 27  1  0
 26 28  2  0
 28 29  1  0
  2 30  2  3
 30 31  1  0
 30 32  1  0
 32 33  2  0
 33 34  1  0
 33 35  1  0
 35 36  1  0
 35 37  2  0
 37 38  1  0
 37 39  1  0
 39 40  1  0
 39 41  2  0
 41 42  1  0
 28  6  1  0
 41 32  1  0
 24 16  1  0
M  CHG  4   5  -1  17  -1  38  -1  40  -1
M  END
>  <UniqueID>  (22) 
19

>  <SMILES>  (22) 
Cc1c/c(=N/S(=O)(=O)c2ccc([N-]C(=O)C=Cc3ccc([O-])c([O-])c3)cc2)[n-]o1

>  <Energy>  (22) 
87.29132855179185

>  <Genealogy>  (22) 
Cc1cc(=NS(=O)(=O)c2ccc([N-]C(=O)C=Cc3ccc([O-])c([O-])c3)cc2)[n-]o1 (protonated)
Cc1c/c(=N/S(=O)(=O)c2ccc([N-]C(=O)C=Cc3ccc([O-])c([O-])c3)cc2)[n-]o1 (cis-trans isomerization)
Cc1c/c(=N/S(=O)(=O)c2ccc([N-]C(=O)C=Cc3ccc([O-])c([O-])c3)cc2)[n-]o1 (3D coordinates assigned)
Cc1c/c(=N/S(=O)(=O)c2ccc([N-]C(=O)C=Cc3ccc([O-])c([O-])c3)cc2)[n-]o1 (optimized conformer: 87.29132855179185 kcal/mol)

>  <smiles>  (22) 
Cc1cc(=NS(=O)(=O)c2ccc(NC(=O)C=Cc3ccc(O)c(O)c3)cc2)[nH]o1

>  <score_type>  (22) 
oracle

>  <origin>  (22) 
adgpu

>  <m_score__min__energy>  (22) 
-16.030000000000001

>  <m_primary>  (22) 
energy

$$$$
22:0
     RDKit          3D

 59 63  0  0  0  0  0  0  0  0999 V2000
   -4.1640   21.6910  -33.3740 O   0  0  0  0  0  0  0  0  0  0  0  0
   -3.0970   21.1510  -32.9810 C   0  0  0  0  0  0  0  0  0  0  0  0
   -2.9920   20.6190  -31.5810 C   0  0  0  0  0  0  0  0  0  0  0  0
   -1.5920   20.5620  -31.1350 N   0  0  0  0  0  0  0  0  0  0  0  0
   -1.2340   20.8320  -29.4480 S   0  0  0  0  0  0  0  0  0  0  0  0
   -1.8950   19.7550  -28.6330 O   0  0  0  0  0  0  0  0  0  0  0  0
    0.2500   20.7650  -29.2120 O   0  0  0  0  0  0  0  0  0  0  0  0
   -1.8180   22.4130  -28.9370 C   0  0  0  0  0  0  0  0  0  0  0  0
   -1.5890   22.8530  -27.6270 C   0  0  0  0  0  0  0  0  0  0  0  0
   -2.0510   24.1050  -27.2160 C   0  0  0  0  0  0  0  0  0  0  0  0
   -2.7500   24.9230  -28.1080 C   0  0  0  0  0  0  0  0  0  0  0  0
   -3.0030   24.4840  -29.4210 C   0  0  0  0  0  0  0  0  0  0  0  0
   -3.6980   25.2980  -30.3760 N   0  0  0  0  0  0  0  0  0  0  0  0
   -5.1170   25.4940  -30.4610 C   0  0  0  0  0  0  0  0  0  0  0  0
   -5.6140   26.6280  -30.2200 O   0  0  0  0  0  0  0  0  0  0  0  0
   -6.0040   24.3510  -30.7800 C   0  0  0  0  0  0  0  0  0  0  0  0
   -6.3860   23.4420  -29.7760 C   0  0  0  0  0  0  0  0  0  0  0  0
   -7.2230   22.3640  -30.0760 C   0  0  0  0  0  0  0  0  0  0  0  0
   -7.6960   22.1790  -31.3810 C   0  0  0  0  0  0  0  0  0  0  0  0
   -8.7530   20.8170  -31.7400 S   0  0  0  0  0  0  0  0  0  0  0  0
   -9.0590   20.0580  -30.4760 O   0  0  0  0  0  0  0  0  0  0  0  0
  -10.0370   21.3390  -32.3210 O   0  0  0  0  0  0  0  0  0  0  0  0
   -7.9740   19.7660  -32.8940 N   0  0  0  0  0  0  0  0  0  0  0  0
   -6.5620   20.1140  -33.0630 C   0  0  0  0  0  0  0  0  0  0  0  0
   -5.8450   18.8360  -33.4740 C   0  0  0  0  0  0  0  0  0  0  0  0
   -6.7810   17.7030  -33.0820 C   0  0  0  0  0  0  0  0  0  0  0  0
   -7.9830   18.3770  -32.4400 C   0  0  0  0  0  0  0  0  0  0  0  0
   -7.3200   23.0780  -32.3860 C   0  0  0  0  0  0  0  0  0  0  0  0
   -6.4820   24.1570  -32.0890 C   0  0  0  0  0  0  0  0  0  0  0  0
   -2.5130   23.2380  -29.8330 C   0  0  0  0  0  0  0  0  0  0  0  0
   -0.5480   20.2200  -32.0790 C   0  0  0  0  0  0  0  0  0  0  0  0
    0.6890   19.6840  -31.6660 C   0  0  0  0  0  0  0  0  0  0  0  0
    1.6790   19.3840  -32.6070 C   0  0  0  0  0  0  0  0  0  0  0  0
    1.4510   19.6180  -33.9650 C   0  0  0  0  0  0  0  0  0  0  0  0
    0.2290   20.1430  -34.3870 C   0  0  0  0  0  0  0  0  0  0  0  0
   -0.7700   20.4350  -33.4530 C   0  0  0  0  0  0  0  0  0  0  0  0
   -2.0160   20.9750  -33.8950 N   0  0  0  0  0  0  0  0  0  0  0  0
   -3.5572   21.2768  -30.9043 H   0  0  0  0  0  0  0  0  0  0  0  0
   -3.4033   19.5989  -31.5653 H   0  0  0  0  0  0  0  0  0  0  0  0
   -1.0437   22.2105  -26.9201 H   0  0  0  0  0  0  0  0  0  0  0  0
   -1.8644   24.4483  -26.1877 H   0  0  0  0  0  0  0  0  0  0  0  0
   -3.1034   25.9127  -27.7829 H   0  0  0  0  0  0  0  0  0  0  0  0
   -6.0229   23.5811  -28.7470 H   0  0  0  0  0  0  0  0  0  0  0  0
   -7.5116   21.6577  -29.2836 H   0  0  0  0  0  0  0  0  0  0  0  0
   -6.4508   20.8797  -33.8449 H   0  0  0  0  0  0  0  0  0  0  0  0
   -6.1405   20.5237  -32.1332 H   0  0  0  0  0  0  0  0  0  0  0  0
   -5.6646   18.8280  -34.5591 H   0  0  0  0  0  0  0  0  0  0  0  0
   -4.8636   18.7428  -32.9860 H   0  0  0  0  0  0  0  0  0  0  0  0
   -7.0886   17.1328  -33.9709 H   0  0  0  0  0  0  0  0  0  0  0  0
   -6.2972   16.9906  -32.3976 H   0  0  0  0  0  0  0  0  0  0  0  0
   -8.9115   17.8798  -32.7574 H   0  0  0  0  0  0  0  0  0  0  0  0
   -7.9322   18.3177  -31.3428 H   0  0  0  0  0  0  0  0  0  0  0  0
   -7.6854   22.9349  -33.4136 H   0  0  0  0  0  0  0  0  0  0  0  0
   -6.1942   24.8597  -32.8849 H   0  0  0  0  0  0  0  0  0  0  0  0
   -2.6748   22.9038  -30.8684 H   0  0  0  0  0  0  0  0  0  0  0  0
    0.8764   19.5008  -30.5977 H   0  0  0  0  0  0  0  0  0  0  0  0
    2.6399   18.9626  -32.2768 H   0  0  0  0  0  0  0  0  0  0  0  0
    2.2348   19.3884  -34.7018 H   0  0  0  0  0  0  0  0  0  0  0  0
    0.0511   20.3276  -35.4567 H   0  0  0  0  0  0  0  0  0  0  0  0
  1  2  2  0
  2  3  1  0
  3  4  1  0
  4  5  1  0
  5  6  2  0
  5  7  2  0
  5  8  1  0
  8  9  2  0
  9 10  1  0
 10 11  2  0
 11 12  1  0
 12 13  1  0
 13 14  1  0
 14 15  2  0
 14 16  1  0
 16 17  2  0
 17 18  1  0
 18 19  2  0
 19 20  1  0
 20 21  2  0
 20 22  2  0
 20 23  1  0
 23 24  1  0
 24 25  1  0
 25 26  1  0
 26 27  1  0
 19 28  1  0
 28 29  2  0
 12 30  2  0
  4 31  1  0
 31 32  2  0
 32 33  1  0
 33 34  2  0
 34 35  1  0
 35 36  2  0
 36 37  1  0
 37  2  1  0
 30  8  1  0
 36 31  1  0
 29 16  1  0
 27 23  1  0
  3 38  1  0
  3 39  1  0
  9 40  1  0
 10 41  1  0
 11 42  1  0
 17 43  1  0
 18 44  1  0
 24 45  1  0
 24 46  1  0
 25 47  1  0
 25 48  1  0
 26 49  1  0
 26 50  1  0
 27 51  1  0
 27 52  1  0
 28 53  1  0
 29 54  1  0
 30 55  1  0
 32 56  1  0
 33 57  1  0
 34 58  1  0
 35 59  1  0
M  CHG  2  13  -1  37  -1
M  END
>  <UniqueID>  (23) 
20

>  <SMILES>  (23) 
O=C1CN(S(=O)(=O)c2cccc([N-]C(=O)c3ccc(S(=O)(=O)N4CCCC4)cc3)c2)c2ccccc2[N-]1

>  <Energy>  (23) 
74.08456653726229

>  <Genealogy>  (23) 
O=C1CN(S(=O)(=O)c2cccc([N-]C(=O)c3ccc(S(=O)(=O)N4CCCC4)cc3)c2)c2ccccc2[N-]1 (protonated)
O=C1CN(S(=O)(=O)c2cccc([N-]C(=O)c3ccc(S(=O)(=O)N4CCCC4)cc3)c2)c2ccccc2[N-]1 (3D coordinates assigned)
O=C1CN(S(=O)(=O)c2cccc([N-]C(=O)c3ccc(S(=O)(=O)N4CCCC4)cc3)c2)c2ccccc2[N-]1 (nonaromatic ring conformer: 74.08456653726229 kcal/mol)

>  <smiles>  (23) 
O=C1CN(S(=O)(=O)c2cccc(NC(=O)c3ccc(S(=O)(=O)N4CCCC4)cc3)c2)c2ccccc2N1

>  <score_type>  (23) 
oracle

>  <origin>  (23) 
adgpu

>  <m_score__min__energy>  (23) 
-13.27

>  <m_primary>  (23) 
energy

$$$$
23:0
     RDKit          3D

 62 65  0  0  0  0  0  0  0  0999 V2000
   -2.7590   20.0550  -27.4860 C   0  0  0  0  0  0  0  0  0  0  0  0
   -2.0460   20.9630  -28.3190 O   0  0  0  0  0  0  0  0  0  0  0  0
   -1.6380   22.2490  -27.9310 C   0  0  0  0  0  0  0  0  0  0  0  0
   -0.9790   22.4870  -26.7120 C   0  0  0  0  0  0  0  0  0  0  0  0
   -0.5880   23.7790  -26.3610 C   0  0  0  0  0  0  0  0  0  0  0  0
   -0.8280   24.8540  -27.2250 C   0  0  0  0  0  0  0  0  0  0  0  0
   -0.2720   26.4700  -26.7620 S   0  0  0  0  0  0  0  0  0  0  0  0
    1.2010   26.4380  -26.4640 O   0  0  0  0  0  0  0  0  0  0  0  0
   -0.4750   27.3980  -27.9280 O   0  0  0  0  0  0  0  0  0  0  0  0
   -1.1290   27.1020  -25.3710 N   0  0  0  0  0  0  0  0  0  0  0  0
   -0.8250   26.3660  -24.1240 C   0  0  0  0  0  0  0  0  0  0  0  0
    0.1710   27.1060  -23.2170 C   0  0  0  0  0  0  0  0  0  0  0  0
    1.0270   27.9200  -23.9850 O   0  0  0  0  0  0  0  0  0  0  0  0
    0.2960   29.0040  -24.5190 C   0  0  0  0  0  0  0  0  0  0  0  0
   -1.0010   28.5660  -25.2400 C   0  0  0  0  0  0  0  0  0  0  0  0
   -1.4870   24.6260  -28.4470 C   0  0  0  0  0  0  0  0  0  0  0  0
   -1.6910   25.6740  -29.3400 O   0  0  0  0  0  0  0  0  0  0  0  0
   -1.9120   23.3280  -28.7890 C   0  0  0  0  0  0  0  0  0  0  0  0
   -2.5800   23.0810  -30.0340 N   0  0  0  0  0  0  0  0  0  0  0  0
   -4.0100   23.0070  -30.1470 C   0  0  0  0  0  0  0  0  0  0  0  0
   -4.7430   23.3630  -29.1870 O   0  0  0  0  0  0  0  0  0  0  0  0
   -4.6290   22.5620  -31.3590 N   0  0  0  0  0  0  0  0  0  0  0  0
   -6.0370   22.3820  -31.5610 C   0  0  0  0  0  0  0  0  0  0  0  0
   -6.9140   23.4780  -31.6360 C   0  0  0  0  0  0  0  0  0  0  0  0
   -8.2770   23.2710  -31.8620 C   0  0  0  0  0  0  0  0  0  0  0  0
   -8.7720   21.9770  -32.0340 C   0  0  0  0  0  0  0  0  0  0  0  0
   -7.9010   20.8790  -31.9990 C   0  0  0  0  0  0  0  0  0  0  0  0
   -8.5230   19.2400  -32.2270 S   0  0  0  0  0  0  0  0  0  0  0  0
   -8.9060   18.6730  -30.8880 O   0  0  0  0  0  0  0  0  0  0  0  0
   -9.7620   19.3010  -33.0770 O   0  0  0  0  0  0  0  0  0  0  0  0
   -7.3650   18.1730  -32.9850 N   0  0  0  0  0  0  0  0  0  0  0  0
   -6.5000   17.5170  -32.0080 C   0  0  0  0  0  0  0  0  0  0  0  0
   -5.2250   17.1480  -32.7480 C   0  0  0  0  0  0  0  0  0  0  0  0
   -5.1860   18.0660  -33.9620 C   0  0  0  0  0  0  0  0  0  0  0  0
   -6.4640   18.8890  -33.8860 C   0  0  0  0  0  0  0  0  0  0  0  0
   -6.5340   21.0890  -31.7610 C   0  0  0  0  0  0  0  0  0  0  0  0
   -2.5679   20.2984  -26.4304 H   0  0  0  0  0  0  0  0  0  0  0  0
   -3.8364   20.1372  -27.6920 H   0  0  0  0  0  0  0  0  0  0  0  0
   -2.4236   19.0278  -27.6920 H   0  0  0  0  0  0  0  0  0  0  0  0
   -0.7705   21.6489  -26.0308 H   0  0  0  0  0  0  0  0  0  0  0  0
   -0.0870   23.9547  -25.3976 H   0  0  0  0  0  0  0  0  0  0  0  0
   -1.7621   26.2173  -23.5675 H   0  0  0  0  0  0  0  0  0  0  0  0
   -0.3614   25.4105  -24.4108 H   0  0  0  0  0  0  0  0  0  0  0  0
   -0.3850   27.7349  -22.5061 H   0  0  0  0  0  0  0  0  0  0  0  0
    0.7766   26.3650  -22.6746 H   0  0  0  0  0  0  0  0  0  0  0  0
    0.0270   29.6835  -23.6969 H   0  0  0  0  0  0  0  0  0  0  0  0
    0.9367   29.4947  -25.2665 H   0  0  0  0  0  0  0  0  0  0  0  0
   -1.8624   28.9422  -24.6686 H   0  0  0  0  0  0  0  0  0  0  0  0
   -0.9652   28.9826  -26.2574 H   0  0  0  0  0  0  0  0  0  0  0  0
   -1.9910   22.8150  -30.8550 H   0  0  0  0  0  0  0  0  0  0  0  0
   -6.5264   24.5005  -31.5165 H   0  0  0  0  0  0  0  0  0  0  0  0
   -8.9624   24.1303  -31.9046 H   0  0  0  0  0  0  0  0  0  0  0  0
   -9.8482   21.8185  -32.1974 H   0  0  0  0  0  0  0  0  0  0  0  0
   -6.2740   18.2027  -31.1781 H   0  0  0  0  0  0  0  0  0  0  0  0
   -6.9845   16.6280  -31.5779 H   0  0  0  0  0  0  0  0  0  0  0  0
   -4.3458   17.3167  -32.1088 H   0  0  0  0  0  0  0  0  0  0  0  0
   -5.2100   16.0864  -33.0356 H   0  0  0  0  0  0  0  0  0  0  0  0
   -4.3032   18.7210  -33.9213 H   0  0  0  0  0  0  0  0  0  0  0  0
   -5.1193   17.4990  -34.9023 H   0  0  0  0  0  0  0  0  0  0  0  0
   -6.2473   19.8918  -33.4891 H   0  0  0  0  0  0  0  0  0  0  0  0
   -6.9150   19.0167  -34.8812 H   0  0  0  0  0  0  0  0  0  0  0  0
   -5.8473   20.2302  -31.7314 H   0  0  0  0  0  0  0  0  0  0  0  0
  1  2  1  0
  2  3  1  0
  3  4  2  0
  4  5  1  0
  5  6  2  0
  6  7  1  0
  7  8  2  0
  7  9  2  0
  7 10  1  0
 10 11  1  0
 11 12  1  0
 12 13  1  0
 13 14  1  0
 14 15  1  0
  6 16  1  0
 16 17  1  0
 16 18  2  0
 18 19  1  0
 19 20  1  0
 20 21  2  0
 20 22  1  0
 22 23  1  0
 23 24  2  0
 24 25  1  0
 25 26  2  0
 26 27  1  0
 27 28  1  0
 28 29  2  0
 28 30  2  0
 28 31  1  0
 31 32  1  0
 32 33  1  0
 33 34  1  0
 34 35  1  0
 27 36  2  0
 18  3  1  0
 36 23  1  0
 15 10  1  0
 35 31  1  0
  1 37  1  0
  1 38  1  0
  1 39  1  0
  4 40  1  0
  5 41  1  0
 11 42  1  0
 11 43  1  0
 12 44  1  0
 12 45  1  0
 14 46  1  0
 14 47  1  0
 15 48  1  0
 15 49  1  0
 19 50  1  0
 24 51  1  0
 25 52  1  0
 26 53  1  0
 32 54  1  0
 32 55  1  0
 33 56  1  0
 33 57  1  0
 34 58  1  0
 34 59  1  0
 35 60  1  0
 35 61  1  0
 36 62  1  0
M  CHG  2  17  -1  22  -1
M  END
>  <UniqueID>  (24) 
21

>  <SMILES>  (24) 
COc1ccc(S(=O)(=O)N2CCOCC2)c([O-])c1NC(=O)[N-]c1cccc(S(=O)(=O)N2CCCC2)c1

>  <Energy>  (24) 
85.99557019908977

>  <Genealogy>  (24) 
COc1ccc(S(=O)(=O)N2CCOCC2)c([O-])c1NC(=O)[N-]c1cccc(S(=O)(=O)N2CCCC2)c1 (protonated)
COc1ccc(S(=O)(=O)N2CCOCC2)c([O-])c1NC(=O)[N-]c1cccc(S(=O)(=O)N2CCCC2)c1 (3D coordinates assigned)
COc1ccc(S(=O)(=O)N2CCOCC2)c([O-])c1NC(=O)[N-]c1cccc(S(=O)(=O)N2CCCC2)c1 (nonaromatic ring conformer: 85.99557019908977 kcal/mol)

>  <smiles>  (24) 
COc1ccc(S(=O)(=O)N2CCOCC2)c(O)c1NC(=O)Nc1cccc(S(=O)(=O)N2CCCC2)c1

>  <score_type>  (24) 
oracle

>  <origin>  (24) 
adgpu

>  <m_score__min__energy>  (24) 
-14.199999999999999

>  <m_primary>  (24) 
energy

$$$$
24:0
     RDKit          3D

 52 55  0  0  0  0  0  0  0  0999 V2000
    1.3580   23.7520  -36.4390 C   0  0  0  0  0  0  0  0  0  0  0  0
    1.0000   22.9530  -35.2720 N   0  0  0  0  0  0  0  0  0  0  0  0
    0.8390   21.2820  -35.7250 S   0  0  0  0  0  0  0  0  0  0  0  0
   -0.1420   21.1860  -36.8590 O   0  0  0  0  0  0  0  0  0  0  0  0
    2.1600   20.7600  -36.2160 O   0  0  0  0  0  0  0  0  0  0  0  0
    0.2070   20.3420  -34.3560 C   0  0  0  0  0  0  0  0  0  0  0  0
   -1.1870   20.3060  -34.1970 C   0  0  0  0  0  0  0  0  0  0  0  0
   -1.7800   19.5890  -33.1500 C   0  0  0  0  0  0  0  0  0  0  0  0
   -3.2480   19.5820  -33.0080 C   0  0  0  0  0  0  0  0  0  0  0  0
   -3.9840   18.4500  -32.9630 N   0  0  0  0  0  0  0  0  0  0  0  0
   -5.2530   18.7720  -32.7530 N   0  0  0  0  0  0  0  0  0  0  0  0
   -5.3280   20.1110  -32.6580 C   0  0  0  0  0  0  0  0  0  0  0  0
   -4.0890   20.6680  -32.8300 C   0  0  0  0  0  0  0  0  0  0  0  0
   -3.7930   22.1040  -32.5350 C   0  0  0  0  0  0  0  0  0  0  0  0
   -5.0720   22.9360  -32.7140 C   0  0  0  0  0  0  0  0  0  0  0  0
   -6.2200   22.3040  -32.0290 N   0  0  0  0  0  0  0  0  0  0  0  0
   -7.1210   23.1170  -31.2410 C   0  0  0  0  0  0  0  0  0  0  0  0
   -8.3680   22.9520  -31.3490 O   0  0  0  0  0  0  0  0  0  0  0  0
   -6.6010   24.2150  -30.3430 C   0  0  0  0  0  0  0  0  0  0  0  0
   -5.2120   23.9210  -29.8370 C   0  0  0  0  0  0  0  0  0  0  0  0
   -4.8990   22.6500  -29.3230 C   0  0  0  0  0  0  0  0  0  0  0  0
   -3.6160   22.3850  -28.8340 C   0  0  0  0  0  0  0  0  0  0  0  0
   -2.6410   23.3860  -28.8450 C   0  0  0  0  0  0  0  0  0  0  0  0
   -2.9490   24.6580  -29.3390 C   0  0  0  0  0  0  0  0  0  0  0  0
   -1.9820   25.6540  -29.3410 O   0  0  0  0  0  0  0  0  0  0  0  0
   -4.2310   24.9270  -29.8300 C   0  0  0  0  0  0  0  0  0  0  0  0
   -6.5590   20.8970  -32.3320 C   0  0  0  0  0  0  0  0  0  0  0  0
   -0.9640   18.9300  -32.2240 C   0  0  0  0  0  0  0  0  0  0  0  0
    0.4240   18.9630  -32.3600 C   0  0  0  0  0  0  0  0  0  0  0  0
    1.0290   19.6670  -33.4150 C   0  0  0  0  0  0  0  0  0  0  0  0
    2.5310   19.6640  -33.5080 C   0  0  0  0  0  0  0  0  0  0  0  0
    1.7872   24.7099  -36.1099 H   0  0  0  0  0  0  0  0  0  0  0  0
    2.0980   23.2070  -37.0435 H   0  0  0  0  0  0  0  0  0  0  0  0
    0.4587   23.9415  -37.0435 H   0  0  0  0  0  0  0  0  0  0  0  0
   -1.8257   20.8509  -34.9077 H   0  0  0  0  0  0  0  0  0  0  0  0
   -3.4350   22.1996  -31.4993 H   0  0  0  0  0  0  0  0  0  0  0  0
   -3.0180   22.4686  -33.2252 H   0  0  0  0  0  0  0  0  0  0  0  0
   -4.9099   23.9388  -32.2921 H   0  0  0  0  0  0  0  0  0  0  0  0
   -5.2990   22.9999  -33.7884 H   0  0  0  0  0  0  0  0  0  0  0  0
   -6.5802   25.1574  -30.9100 H   0  0  0  0  0  0  0  0  0  0  0  0
   -7.2707   24.2882  -29.4734 H   0  0  0  0  0  0  0  0  0  0  0  0
   -5.6660   21.8617  -29.3055 H   0  0  0  0  0  0  0  0  0  0  0  0
   -3.3738   21.3869  -28.4400 H   0  0  0  0  0  0  0  0  0  0  0  0
   -1.6308   23.1736  -28.4650 H   0  0  0  0  0  0  0  0  0  0  0  0
   -4.4720   25.9299  -30.2121 H   0  0  0  0  0  0  0  0  0  0  0  0
   -7.0518   20.4485  -31.4568 H   0  0  0  0  0  0  0  0  0  0  0  0
   -7.2308   20.8764  -33.2028 H   0  0  0  0  0  0  0  0  0  0  0  0
   -1.4190   18.3834  -31.3849 H   0  0  0  0  0  0  0  0  0  0  0  0
    1.0534   18.4308  -31.6316 H   0  0  0  0  0  0  0  0  0  0  0  0
    2.9611   19.6631  -32.4955 H   0  0  0  0  0  0  0  0  0  0  0  0
    2.8631   18.7652  -34.0482 H   0  0  0  0  0  0  0  0  0  0  0  0
    2.8667   20.5615  -34.0482 H   0  0  0  0  0  0  0  0  0  0  0  0
  1  2  1  0
  2  3  1  0
  3  4  2  0
  3  5  2  0
  3  6  1  0
  6  7  2  0
  7  8  1  0
  8  9  1  0
  9 10  2  0
 10 11  1  0
 11 12  1  0
 12 13  2  0
 13 14  1  0
 14 15  1  0
 15 16  1  0
 16 17  1  0
 17 18  2  0
 17 19  1  0
 19 20  1  0
 20 21  2  0
 21 22  1  0
 22 23  2  0
 23 24  1  0
 24 25  1  0
 24 26  2  0
 16 27  1  0
  8 28  2  0
 28 29  1  0
 29 30  2  0
 30 31  1  0
 30  6  1  0
 13  9  1  0
 26 20  1  0
 27 12  1  0
  1 32  1  0
  1 33  1  0
  1 34  1  0
  7 35  1  0
 14 36  1  0
 14 37  1  0
 15 38  1  0
 15 39  1  0
 19 40  1  0
 19 41  1  0
 21 42  1  0
 22 43  1  0
 23 44  1  0
 26 45  1  0
 27 46  1  0
 27 47  1  0
 28 48  1  0
 29 49  1  0
 31 50  1  0
 31 51  1  0
 31 52  1  0
M  CHG  3   2  -1  11  -1  25  -1
M  END
>  <UniqueID>  (25) 
22

>  <SMILES>  (25) 
C[N-]S(=O)(=O)c1cc(-c2n[n-]c3c2CCN(C(=O)Cc2cccc([O-])c2)C3)ccc1C

>  <Energy>  (25) 
95.17246988057607

>  <Genealogy>  (25) 
C[N-]S(=O)(=O)c1cc(-c2n[n-]c3c2CCN(C(=O)Cc2cccc([O-])c2)C3)ccc1C (protonated)
C[N-]S(=O)(=O)c1cc(-c2n[n-]c3c2CCN(C(=O)Cc2cccc([O-])c2)C3)ccc1C (3D coordinates assigned)
C[N-]S(=O)(=O)c1cc(-c2n[n-]c3c2CCN(C(=O)Cc2cccc([O-])c2)C3)ccc1C (nonaromatic ring conformer: 95.17246988057607 kcal/mol)

>  <smiles>  (25) 
CNS(=O)(=O)c1cc(-c2n[nH]c3c2CCN(C(=O)Cc2cccc(O)c2)C3)ccc1C

>  <score_type>  (25) 
oracle

>  <origin>  (25) 
adgpu

>  <m_score__min__energy>  (25) 
-12.109999999999999

>  <m_primary>  (25) 
energy

$$$$
25:0
     RDKit          3D

 57 60  0  0  0  0  0  0  0  0999 V2000
   -3.7770   25.3070  -30.5140 O   0  0  0  0  0  0  0  0  0  0  0  0
   -3.5410   24.0780  -30.3720 C   0  0  0  0  0  0  0  0  0  0  0  0
   -4.0750   23.1600  -31.3360 N   0  0  0  0  0  0  0  0  0  0  0  0
   -5.4410   22.7250  -31.4190 C   0  0  0  0  0  0  0  0  0  0  0  0
   -6.5120   23.6260  -31.3000 C   0  0  0  0  0  0  0  0  0  0  0  0
   -7.8290   23.1660  -31.3800 C   0  0  0  0  0  0  0  0  0  0  0  0
   -8.0870   21.8090  -31.5930 C   0  0  0  0  0  0  0  0  0  0  0  0
   -7.0240   20.9070  -31.7430 C   0  0  0  0  0  0  0  0  0  0  0  0
   -7.3340   19.1910  -31.9900 S   0  0  0  0  0  0  0  0  0  0  0  0
   -6.6220   18.3850  -30.9380 O   0  0  0  0  0  0  0  0  0  0  0  0
   -8.8110   18.9370  -31.8700 O   0  0  0  0  0  0  0  0  0  0  0  0
   -6.7890   18.7310  -33.5820 N   0  0  0  0  0  0  0  0  0  0  0  0
   -5.3930   19.1130  -33.7910 C   0  0  0  0  0  0  0  0  0  0  0  0
   -4.8370   18.1370  -34.8050 C   0  0  0  0  0  0  0  0  0  0  0  0
   -5.6120   16.8570  -34.5590 C   0  0  0  0  0  0  0  0  0  0  0  0
   -6.8540   17.2780  -33.7790 C   0  0  0  0  0  0  0  0  0  0  0  0
   -5.7040   21.3710  -31.6590 C   0  0  0  0  0  0  0  0  0  0  0  0
   -2.6960   23.6290  -29.2400 C   0  0  0  0  0  0  0  0  0  0  0  0
   -2.7510   22.2860  -28.8330 C   0  0  0  0  0  0  0  0  0  0  0  0
   -1.9600   21.8270  -27.7720 C   0  0  0  0  0  0  0  0  0  0  0  0
   -2.0470   20.1370  -27.2680 S   0  0  0  0  0  0  0  0  0  0  0  0
   -3.4720   19.6650  -27.3600 O   0  0  0  0  0  0  0  0  0  0  0  0
   -1.6140   20.0280  -25.8310 O   0  0  0  0  0  0  0  0  0  0  0  0
   -1.0330   19.1130  -28.2540 N   0  0  0  0  0  0  0  0  0  0  0  0
   -0.2920   18.1610  -27.4140 C   0  0  0  0  0  0  0  0  0  0  0  0
    0.5830   17.2480  -28.3010 C   0  0  0  0  0  0  0  0  0  0  0  0
    0.5960   17.6680  -29.6540 O   0  0  0  0  0  0  0  0  0  0  0  0
    0.9580   19.0330  -29.7290 C   0  0  0  0  0  0  0  0  0  0  0  0
   -0.1010   19.9250  -29.0510 C   0  0  0  0  0  0  0  0  0  0  0  0
   -1.1090   22.7180  -27.1090 C   0  0  0  0  0  0  0  0  0  0  0  0
   -1.0600   24.0600  -27.4920 C   0  0  0  0  0  0  0  0  0  0  0  0
   -1.8570   24.5260  -28.5470 C   0  0  0  0  0  0  0  0  0  0  0  0
   -1.8310   25.8790  -28.8870 O   0  0  0  0  0  0  0  0  0  0  0  0
   -6.3134   24.6965  -31.1434 H   0  0  0  0  0  0  0  0  0  0  0  0
   -8.6647   23.8736  -31.2751 H   0  0  0  0  0  0  0  0  0  0  0  0
   -9.1250   21.4483  -31.6430 H   0  0  0  0  0  0  0  0  0  0  0  0
   -5.3325   20.1410  -34.1778 H   0  0  0  0  0  0  0  0  0  0  0  0
   -4.8234   19.0827  -32.8504 H   0  0  0  0  0  0  0  0  0  0  0  0
   -5.0035   18.5023  -35.8291 H   0  0  0  0  0  0  0  0  0  0  0  0
   -3.7510   17.9967  -34.7009 H   0  0  0  0  0  0  0  0  0  0  0  0
   -5.8970   16.3903  -35.5135 H   0  0  0  0  0  0  0  0  0  0  0  0
   -5.0141   16.1168  -34.0071 H   0  0  0  0  0  0  0  0  0  0  0  0
   -7.7590   17.0176  -34.3475 H   0  0  0  0  0  0  0  0  0  0  0  0
   -6.8926   16.7601  -32.8093 H   0  0  0  0  0  0  0  0  0  0  0  0
   -4.8686   20.6661  -31.7826 H   0  0  0  0  0  0  0  0  0  0  0  0
   -3.4225   21.5870  -29.3530 H   0  0  0  0  0  0  0  0  0  0  0  0
    0.3513   18.7154  -26.7148 H   0  0  0  0  0  0  0  0  0  0  0  0
   -1.0064   17.5423  -26.8510 H   0  0  0  0  0  0  0  0  0  0  0  0
    1.6133   17.2623  -27.9159 H   0  0  0  0  0  0  0  0  0  0  0  0
    0.1562   16.2348  -28.2665 H   0  0  0  0  0  0  0  0  0  0  0  0
    1.9251   19.1766  -29.2248 H   0  0  0  0  0  0  0  0  0  0  0  0
    1.0290   19.3184  -30.7890 H   0  0  0  0  0  0  0  0  0  0  0  0
    0.4035   20.6467  -28.3917 H   0  0  0  0  0  0  0  0  0  0  0  0
   -0.6700   20.4526  -29.8307 H   0  0  0  0  0  0  0  0  0  0  0  0
   -0.4764   22.3602  -26.2833 H   0  0  0  0  0  0  0  0  0  0  0  0
   -0.3921   24.7556  -26.9628 H   0  0  0  0  0  0  0  0  0  0  0  0
   -2.6810   26.4230  -28.9660 H   0  0  0  0  0  0  0  0  0  0  0  0
  1  2  2  0
  2  3  1  0
  3  4  1  0
  4  5  2  0
  5  6  1  0
  6  7  2  0
  7  8  1  0
  8  9  1  0
  9 10  2  0
  9 11  2  0
  9 12  1  0
 12 13  1  0
 13 14  1  0
 14 15  1  0
 15 16  1  0
  8 17  2  0
  2 18  1  0
 18 19  2  0
 19 20  1  0
 20 21  1  0
 21 22  2  0
 21 23  2  0
 21 24  1  0
 24 25  1  0
 25 26  1  0
 26 27  1  0
 27 28  1  0
 28 29  1  0
 20 30  2  0
 30 31  1  0
 31 32  2  0
 32 33  1  0
 17  4  1  0
 32 18  1  0
 16 12  1  0
 29 24  1  0
  5 34  1  0
  6 35  1  0
  7 36  1  0
 13 37  1  0
 13 38  1  0
 14 39  1  0
 14 40  1  0
 15 41  1  0
 15 42  1  0
 16 43  1  0
 16 44  1  0
 17 45  1  0
 19 46  1  0
 25 47  1  0
 25 48  1  0
 26 49  1  0
 26 50  1  0
 28 51  1  0
 28 52  1  0
 29 53  1  0
 29 54  1  0
 30 55  1  0
 31 56  1  0
 33 57  1  0
M  CHG  1   3  -1
M  END
>  <UniqueID>  (26) 
23

>  <SMILES>  (26) 
O=C([N-]c1cccc(S(=O)(=O)N2CCCC2)c1)c1cc(S(=O)(=O)N2CCOCC2)ccc1O

>  <Energy>  (26) 
74.25170002493505

>  <Genealogy>  (26) 
O=C([N-]c1cccc(S(=O)(=O)N2CCCC2)c1)c1cc(S(=O)(=O)N2CCOCC2)ccc1O (protonated)
O=C([N-]c1cccc(S(=O)(=O)N2CCCC2)c1)c1cc(S(=O)(=O)N2CCOCC2)ccc1O (3D coordinates assigned)
O=C([N-]c1cccc(S(=O)(=O)N2CCCC2)c1)c1cc(S(=O)(=O)N2CCOCC2)ccc1O (nonaromatic ring conformer: 74.25170002493505 kcal/mol)

>  <smiles>  (26) 
O=C(Nc1cccc(S(=O)(=O)N2CCCC2)c1)c1cc(S(=O)(=O)N2CCOCC2)ccc1O

>  <score_type>  (26) 
oracle

>  <origin>  (26) 
adgpu

>  <m_score__min__energy>  (26) 
-12.84

>  <m_primary>  (26) 
energy

$$$$
26:0
     RDKit          3D

 50 53  0  0  0  0  0  0  0  0999 V2000
    1.2800   26.8220  -23.3690 C   0  0  0  0  0  0  0  0  0  0  0  0
    0.6410   26.9180  -24.6930 N   0  0  0  0  0  0  0  0  0  0  0  0
    0.7740   25.6440  -25.4510 C   0  0  0  0  0  0  0  0  0  0  0  0
   -0.5170   24.8120  -25.4590 C   0  0  0  0  0  0  0  0  0  0  0  0
   -1.6250   25.6170  -25.9850 N   0  0  0  0  0  0  0  0  0  0  0  0
   -2.7970   24.9760  -26.5190 C   0  0  0  0  0  0  0  0  0  0  0  0
   -3.9270   25.2620  -26.0420 O   0  0  0  0  0  0  0  0  0  0  0  0
   -2.7010   23.9910  -27.6220 C   0  0  0  0  0  0  0  0  0  0  0  0
   -1.7070   24.1090  -28.6090 C   0  0  0  0  0  0  0  0  0  0  0  0
   -1.6240   23.1770  -29.6470 C   0  0  0  0  0  0  0  0  0  0  0  0
   -2.5440   22.1190  -29.7310 C   0  0  0  0  0  0  0  0  0  0  0  0
   -2.4450   21.1470  -30.7880 N   0  0  0  0  0  0  0  0  0  0  0  0
   -1.4890   20.0430  -30.6840 C   0  0  0  0  0  0  0  0  0  0  0  0
   -3.5240   21.2080  -32.1530 S   0  0  0  0  0  0  0  0  0  0  0  0
   -3.9150   19.8170  -32.5650 O   0  0  0  0  0  0  0  0  0  0  0  0
   -2.8240   21.8840  -33.2970 O   0  0  0  0  0  0  0  0  0  0  0  0
   -4.9920   22.0820  -31.7190 C   0  0  0  0  0  0  0  0  0  0  0  0
   -6.2480   21.4360  -31.7520 C   0  0  0  0  0  0  0  0  0  0  0  0
   -7.4250   22.1330  -31.3920 C   0  0  0  0  0  0  0  0  0  0  0  0
   -7.3630   23.4840  -30.9980 C   0  0  0  0  0  0  0  0  0  0  0  0
   -6.1100   24.0860  -30.9830 C   0  0  0  0  0  0  0  0  0  0  0  0
   -5.7860   25.3460  -30.6610 N   0  0  0  0  0  0  0  0  0  0  0  0
   -4.4860   25.3950  -30.8190 O   0  0  0  0  0  0  0  0  0  0  0  0
   -3.9450   24.2690  -31.2160 N   0  0  0  0  0  0  0  0  0  0  0  0
   -4.9780   23.4200  -31.3250 C   0  0  0  0  0  0  0  0  0  0  0  0
   -3.5490   22.0110  -28.7540 C   0  0  0  0  0  0  0  0  0  0  0  0
   -3.6310   22.9400  -27.7150 C   0  0  0  0  0  0  0  0  0  0  0  0
   -1.6170   27.0690  -25.7760 C   0  0  0  0  0  0  0  0  0  0  0  0
   -0.7520   27.4190  -24.5580 C   0  0  0  0  0  0  0  0  0  0  0  0
    0.5174   26.9366  -22.5846 H   0  0  0  0  0  0  0  0  0  0  0  0
    1.7664   25.8407  -23.2669 H   0  0  0  0  0  0  0  0  0  0  0  0
    2.0333   27.6171  -23.2669 H   0  0  0  0  0  0  0  0  0  0  0  0
    1.0443   25.8814  -26.4905 H   0  0  0  0  0  0  0  0  0  0  0  0
    1.5488   25.0437  -24.9516 H   0  0  0  0  0  0  0  0  0  0  0  0
   -0.3760   23.9255  -26.0948 H   0  0  0  0  0  0  0  0  0  0  0  0
   -0.7526   24.4981  -24.4314 H   0  0  0  0  0  0  0  0  0  0  0  0
   -0.9891   24.9412  -28.5639 H   0  0  0  0  0  0  0  0  0  0  0  0
   -0.8319   23.2727  -30.4042 H   0  0  0  0  0  0  0  0  0  0  0  0
   -1.2978   19.8222  -29.6235 H   0  0  0  0  0  0  0  0  0  0  0  0
   -1.9044   19.1507  -31.1752 H   0  0  0  0  0  0  0  0  0  0  0  0
   -0.5465   20.3266  -31.1752 H   0  0  0  0  0  0  0  0  0  0  0  0
   -6.3111   20.3820  -32.0603 H   0  0  0  0  0  0  0  0  0  0  0  0
   -8.3957   21.6163  -31.4199 H   0  0  0  0  0  0  0  0  0  0  0  0
   -8.2688   24.0398  -30.7139 H   0  0  0  0  0  0  0  0  0  0  0  0
   -4.2767   21.1879  -28.8086 H   0  0  0  0  0  0  0  0  0  0  0  0
   -4.4290   22.8493  -26.9634 H   0  0  0  0  0  0  0  0  0  0  0  0
   -1.2062   27.5633  -26.6687 H   0  0  0  0  0  0  0  0  0  0  0  0
   -2.6464   27.4140  -25.5990 H   0  0  0  0  0  0  0  0  0  0  0  0
   -0.7252   28.5129  -24.4457 H   0  0  0  0  0  0  0  0  0  0  0  0
   -1.1997   26.9357  -23.6771 H   0  0  0  0  0  0  0  0  0  0  0  0
  1  2  1  0
  2  3  1  0
  3  4  1  0
  4  5  1  0
  5  6  1  0
  6  7  2  0
  6  8  1  0
  8  9  2  0
  9 10  1  0
 10 11  2  0
 11 12  1  0
 12 13  1  0
 12 14  1  0
 14 15  2  0
 14 16  2  0
 14 17  1  0
 17 18  2  0
 18 19  1  0
 19 20  2  0
 20 21  1  0
 21 22  2  0
 22 23  1  0
 23 24  1  0
 24 25  2  0
 11 26  1  0
 26 27  2  0
  5 28  1  0
 28 29  1  0
 29  2  1  0
 27  8  1  0
 25 17  1  0
 25 21  1  0
  1 30  1  0
  1 31  1  0
  1 32  1  0
  3 33  1  0
  3 34  1  0
  4 35  1  0
  4 36  1  0
  9 37  1  0
 10 38  1  0
 13 39  1  0
 13 40  1  0
 13 41  1  0
 18 42  1  0
 19 43  1  0
 20 44  1  0
 26 45  1  0
 27 46  1  0
 28 47  1  0
 28 48  1  0
 29 49  1  0
 29 50  1  0
M  END
>  <UniqueID>  (27) 
24

>  <SMILES>  (27) 
CN1CCN(C(=O)c2ccc(N(C)S(=O)(=O)c3cccc4nonc34)cc2)CC1

>  <Energy>  (27) 
113.57159416495384

>  <Genealogy>  (27) 
CN1CCN(C(=O)c2ccc(N(C)S(=O)(=O)c3cccc4nonc34)cc2)CC1 (3D coordinates assigned)
CN1CCN(C(=O)c2ccc(N(C)S(=O)(=O)c3cccc4nonc34)cc2)CC1 (nonaromatic ring conformer: 113.57159416495384 kcal/mol)

>  <smiles>  (27) 
CN1CCN(C(=O)c2ccc(N(C)S(=O)(=O)c3cccc4nonc34)cc2)CC1

>  <score_type>  (27) 
oracle

>  <origin>  (27) 
adgpu

>  <m_score__min__energy>  (27) 
-10

>  <m_primary>  (27) 
energy

$$$$
27:0
     RDKit          3D

 26 27  0  0  0  0  0  0  0  0999 V2000
   -4.7150   24.3640  -28.3480 O   0  0  0  0  0  0  0  0  0  0  0  0
   -3.7210   24.5400  -29.1040 C   0  0  0  0  0  0  0  0  0  0  0  0
   -3.8910   25.2590  -30.3320 N   0  0  0  0  0  0  0  0  0  0  0  0
   -5.1880   25.6710  -30.8550 C   0  0  0  0  0  0  0  0  0  0  0  0
   -6.0130   24.4710  -31.1960 C   0  0  0  0  0  0  0  0  0  0  0  0
   -7.0270   23.9450  -30.4220 C   0  0  0  0  0  0  0  0  0  0  0  0
   -7.5150   22.8710  -31.1340 C   0  0  0  0  0  0  0  0  0  0  0  0
   -6.7710   22.8120  -32.2970 C   0  0  0  0  0  0  0  0  0  0  0  0
   -5.8840   23.7810  -32.3050 O   0  0  0  0  0  0  0  0  0  0  0  0
   -2.3870   24.0090  -28.7080 C   0  0  0  0  0  0  0  0  0  0  0  0
   -2.2910   22.6990  -28.2000 C   0  0  0  0  0  0  0  0  0  0  0  0
   -1.0560   22.1660  -27.8160 C   0  0  0  0  0  0  0  0  0  0  0  0
   -0.9950   20.8710  -27.3170 O   0  0  0  0  0  0  0  0  0  0  0  0
    0.1090   22.9380  -27.9360 C   0  0  0  0  0  0  0  0  0  0  0  0
    1.3530   22.4320  -27.5610 O   0  0  0  0  0  0  0  0  0  0  0  0
    0.0270   24.2370  -28.4410 C   0  0  0  0  0  0  0  0  0  0  0  0
   -1.2050   24.7770  -28.8270 C   0  0  0  0  0  0  0  0  0  0  0  0
   -1.2300   26.0730  -29.3300 O   0  0  0  0  0  0  0  0  0  0  0  0
   -5.7129   26.2686  -30.0951 H   0  0  0  0  0  0  0  0  0  0  0  0
   -5.0340   26.2705  -31.7643 H   0  0  0  0  0  0  0  0  0  0  0  0
   -7.3730   24.3069  -29.4426 H   0  0  0  0  0  0  0  0  0  0  0  0
   -8.3318   22.1968  -30.8367 H   0  0  0  0  0  0  0  0  0  0  0  0
   -6.9017   22.0665  -33.0952 H   0  0  0  0  0  0  0  0  0  0  0  0
   -3.1996   22.0865  -28.1039 H   0  0  0  0  0  0  0  0  0  0  0  0
    1.4690   21.4810  -27.2320 H   0  0  0  0  0  0  0  0  0  0  0  0
    0.9404   24.8424  -28.5365 H   0  0  0  0  0  0  0  0  0  0  0  0
  1  2  2  0
  2  3  1  0
  3  4  1  0
  4  5  1  0
  5  6  2  0
  6  7  1  0
  7  8  2  0
  8  9  1  0
  2 10  1  0
 10 11  2  0
 11 12  1  0
 12 13  1  0
 12 14  2  0
 14 15  1  0
 14 16  1  0
 16 17  2  0
 17 18  1  0
  9  5  1  0
 17 10  1  0
  4 19  1  0
  4 20  1  0
  6 21  1  0
  7 22  1  0
  8 23  1  0
 11 24  1  0
 15 25  1  0
 16 26  1  0
M  CHG  3   3  -1  13  -1  18  -1
M  END
>  <UniqueID>  (28) 
25

>  <SMILES>  (28) 
O=C([N-]Cc1ccco1)c1cc([O-])c(O)cc1[O-]

>  <Energy>  (28) 
52.61682866212065

>  <Genealogy>  (28) 
O=C([N-]Cc1ccco1)c1cc([O-])c(O)cc1[O-] (protonated)
O=C([N-]Cc1ccco1)c1cc([O-])c(O)cc1[O-] (3D coordinates assigned)
O=C([N-]Cc1ccco1)c1cc([O-])c(O)cc1[O-] (optimized conformer: 52.61682866212065 kcal/mol)

>  <smiles>  (28) 
O=C(NCc1ccco1)c1cc(O)c(O)cc1O

>  <score_type>  (28) 
oracle

>  <origin>  (28) 
adgpu

>  <m_score__min__energy>  (28) 
-10.029999999999999

>  <m_primary>  (28) 
energy

$$$$
28:0
     RDKit          3D

 41 43  0  0  0  0  0  0  0  0999 V2000
   -0.1645   23.5122  -25.9059 H   0  0  0  0  0  0  0  0  0  0  0  0
   -0.7790   23.8080  -26.7690 C   0  0  0  0  0  0  0  0  0  0  0  0
   -1.6940   22.9050  -27.3180 C   0  0  0  0  0  0  0  0  0  0  0  0
   -1.7910   21.8949  -26.8934 H   0  0  0  0  0  0  0  0  0  0  0  0
   -2.4860   23.2840  -28.4060 C   0  0  0  0  0  0  0  0  0  0  0  0
   -3.1954   22.5660  -28.8434 H   0  0  0  0  0  0  0  0  0  0  0  0
   -2.3800   24.5750  -28.9420 C   0  0  0  0  0  0  0  0  0  0  0  0
   -3.1880   24.9270  -30.0730 N   0  0  0  0  0  0  0  0  0  0  0  0
   -4.3370   24.3950  -30.3630 C   0  0  0  0  0  0  0  0  0  0  0  0
   -5.0610   24.7860  -31.4340 N   0  0  0  0  0  0  0  0  0  0  0  0
   -6.1860   24.0890  -31.5860 N   0  0  0  0  0  0  0  0  0  0  0  0
   -6.3530   23.1370  -30.6430 C   0  0  0  0  0  0  0  0  0  0  0  0
   -7.7560   22.0290  -30.5920 S   0  0  0  0  0  0  0  0  0  0  0  0
   -6.8930   20.7550  -31.5210 C   0  0  0  0  0  0  0  0  0  0  0  0
   -5.5120   20.6100  -31.3500 C   0  0  0  0  0  0  0  0  0  0  0  0
   -4.9761   21.2666  -30.6488 H   0  0  0  0  0  0  0  0  0  0  0  0
   -4.8100   19.6370  -32.0640 C   0  0  0  0  0  0  0  0  0  0  0  0
   -3.7240   19.5314  -31.9249 H   0  0  0  0  0  0  0  0  0  0  0  0
   -5.4850   18.7950  -32.9570 C   0  0  0  0  0  0  0  0  0  0  0  0
   -4.6140   17.5490  -33.8480 S   0  0  0  0  0  0  0  0  0  0  0  0
   -4.6710   16.2670  -33.0630 O   0  0  0  0  0  0  0  0  0  0  0  0
   -5.2720   17.3210  -35.1820 O   0  0  0  0  0  0  0  0  0  0  0  0
   -2.9510   18.0290  -34.0740 N   0  0  0  0  0  0  0  0  0  0  0  0
   -2.5990   17.5920  -34.9580 H   0  0  0  0  0  0  0  0  0  0  0  0
   -2.1310   17.5570  -32.9500 C   0  0  0  0  0  0  0  0  0  0  0  0
   -2.6140   17.8350  -32.0016 H   0  0  0  0  0  0  0  0  0  0  0  0
   -2.0306   16.4629  -33.0034 H   0  0  0  0  0  0  0  0  0  0  0  0
   -1.1345   18.0197  -33.0034 H   0  0  0  0  0  0  0  0  0  0  0  0
   -2.8660   19.4900  -34.1980 C   0  0  0  0  0  0  0  0  0  0  0  0
   -2.8397   19.9421  -33.1956 H   0  0  0  0  0  0  0  0  0  0  0  0
   -1.9507   19.7589  -34.7457 H   0  0  0  0  0  0  0  0  0  0  0  0
   -3.7440   19.8632  -34.7457 H   0  0  0  0  0  0  0  0  0  0  0  0
   -6.8700   18.9270  -33.1200 C   0  0  0  0  0  0  0  0  0  0  0  0
   -7.4045   18.2591  -33.8115 H   0  0  0  0  0  0  0  0  0  0  0  0
   -7.5790   19.9030  -32.4090 C   0  0  0  0  0  0  0  0  0  0  0  0
   -9.4720   20.0310  -32.6740 Br  0  0  0  0  0  0  0  0  0  0  0  0
   -5.0780   23.1140  -29.5440 S   0  0  0  0  0  0  0  0  0  0  0  0
   -1.4300   25.4690  -28.4110 C   0  0  0  0  0  0  0  0  0  0  0  0
   -1.2460   26.7260  -28.9750 O   0  0  0  0  0  0  0  0  0  0  0  0
   -0.6450   25.0870  -27.3170 C   0  0  0  0  0  0  0  0  0  0  0  0
    0.0791   25.7949  -26.8874 H   0  0  0  0  0  0  0  0  0  0  0  0
  1  2  1  0
  2  3  2  0
  3  4  1  0
  3  5  1  0
  5  6  1  0
  5  7  2  0
  7  8  1  0
  8  9  2  0
  9 10  1  0
 10 11  1  0
 11 12  2  0
 12 13  1  0
 13 14  1  0
 14 15  2  0
 15 16  1  0
 15 17  1  0
 17 18  1  0
 17 19  2  0
 19 20  1  0
 20 21  2  0
 20 22  2  0
 20 23  1  0
 23 24  1  0
 23 25  1  0
 25 26  1  0
 25 27  1  0
 25 28  1  0
 23 29  1  0
 29 30  1  0
 29 31  1  0
 29 32  1  0
 19 33  1  0
 33 34  1  0
 33 35  2  0
 35 36  1  0
 12 37  1  0
  7 38  1  0
 38 39  1  0
 38 40  2  0
 40 41  1  0
 40  2  1  0
 37  9  1  0
 35 14  1  0
M  CHG  3  10  -1  23   1  39  -1
M  END
>  <UniqueID>  (29) 
26

>  <SMILES>  (29) 
C[NH+](C)S(=O)(=O)c1ccc(Sc2n[n-]/c(=N/c3ccccc3[O-])s2)c(Br)c1

>  <Energy>  (29) 
80.41051448094275

>  <Genealogy>  (29) 
C[NH+](C)S(=O)(=O)c1ccc(Sc2n[n-]c(=Nc3ccccc3[O-])s2)c(Br)c1 (protonated)
C[NH+](C)S(=O)(=O)c1ccc(Sc2n[n-]/c(=N/c3ccccc3[O-])s2)c(Br)c1 (cis-trans isomerization)
C[NH+](C)S(=O)(=O)c1ccc(Sc2n[n-]/c(=N/c3ccccc3[O-])s2)c(Br)c1 (3D coordinates assigned)
C[NH+](C)S(=O)(=O)c1ccc(Sc2n[n-]/c(=N/c3ccccc3[O-])s2)c(Br)c1 (optimized conformer: 80.41051448094275 kcal/mol)

>  <smiles>  (29) 
CN(C)S(=O)(=O)c1ccc(Sc2n[nH]c(=Nc3ccccc3O)s2)c(Br)c1

>  <score_type>  (29) 
oracle

>  <origin>  (29) 
adgpu

>  <m_score__min__energy>  (29) 
-14.039999999999999

>  <m_primary>  (29) 
energy

$$$$
29:0
     RDKit          3D

 54 57  0  0  0  0  0  0  0  0999 V2000
   -6.4120   25.9600  -29.7680 O   0  0  0  0  0  0  0  0  0  0  0  0
   -5.2720   25.0110  -30.0150 S   0  0  0  0  0  0  0  0  0  0  0  0
   -4.2330   25.7180  -30.8360 O   0  0  0  0  0  0  0  0  0  0  0  0
   -4.5590   24.5090  -28.5130 N   0  0  0  0  0  0  0  0  0  0  0  0
   -3.4270   23.6330  -28.4350 C   0  0  0  0  0  0  0  0  0  0  0  0
   -3.5410   22.3420  -27.8940 C   0  0  0  0  0  0  0  0  0  0  0  0
   -2.4280   21.4940  -27.8330 C   0  0  0  0  0  0  0  0  0  0  0  0
   -1.2000   21.9170  -28.3860 C   0  0  0  0  0  0  0  0  0  0  0  0
   -1.0720   23.2300  -28.8610 C   0  0  0  0  0  0  0  0  0  0  0  0
   -2.1740   24.0950  -28.8660 C   0  0  0  0  0  0  0  0  0  0  0  0
   -2.0280   25.4150  -29.2990 O   0  0  0  0  0  0  0  0  0  0  0  0
    0.0110   21.0130  -28.3600 C   0  0  0  0  0  0  0  0  0  0  0  0
   -0.3450   19.6000  -28.1710 N   0  0  0  0  0  0  0  0  0  0  0  0
   -1.2290   19.4420  -27.0100 C   0  0  0  0  0  0  0  0  0  0  0  0
   -2.5900   20.1070  -27.2650 C   0  0  0  0  0  0  0  0  0  0  0  0
   -5.8160   23.5840  -30.8960 C   0  0  0  0  0  0  0  0  0  0  0  0
   -7.1120   23.0790  -30.7130 C   0  0  0  0  0  0  0  0  0  0  0  0
   -7.5160   21.9240  -31.3870 C   0  0  0  0  0  0  0  0  0  0  0  0
   -6.6320   21.2660  -32.2560 C   0  0  0  0  0  0  0  0  0  0  0  0
   -7.1230   19.7780  -33.0740 S   0  0  0  0  0  0  0  0  0  0  0  0
   -6.7650   19.8850  -34.5320 O   0  0  0  0  0  0  0  0  0  0  0  0
   -8.6210   19.6620  -32.9830 O   0  0  0  0  0  0  0  0  0  0  0  0
   -6.4050   18.3230  -32.4060 N   0  0  0  0  0  0  0  0  0  0  0  0
   -4.9280   18.3240  -32.4040 C   0  0  0  0  0  0  0  0  0  0  0  0
   -4.3060   17.7790  -33.7030 C   0  0  0  0  0  0  0  0  0  0  0  0
   -4.9230   16.4380  -34.0950 C   0  0  0  0  0  0  0  0  0  0  0  0
   -6.4400   16.5730  -34.2010 C   0  0  0  0  0  0  0  0  0  0  0  0
   -7.0200   17.0620  -32.8700 C   0  0  0  0  0  0  0  0  0  0  0  0
   -5.3270   21.7540  -32.4110 C   0  0  0  0  0  0  0  0  0  0  0  0
   -4.9240   22.9100  -31.7420 C   0  0  0  0  0  0  0  0  0  0  0  0
   -4.5131   21.9937  -27.5148 H   0  0  0  0  0  0  0  0  0  0  0  0
   -0.0989   23.5836  -29.2326 H   0  0  0  0  0  0  0  0  0  0  0  0
   -2.8140   26.0500  -29.3360 H   0  0  0  0  0  0  0  0  0  0  0  0
    0.5490   21.1166  -29.3139 H   0  0  0  0  0  0  0  0  0  0  0  0
    0.6364   21.3168  -27.5076 H   0  0  0  0  0  0  0  0  0  0  0  0
   -0.8380   19.2510  -29.0260 H   0  0  0  0  0  0  0  0  0  0  0  0
   -1.3822   18.3700  -26.8168 H   0  0  0  0  0  0  0  0  0  0  0  0
   -0.7585   19.9248  -26.1408 H   0  0  0  0  0  0  0  0  0  0  0  0
   -3.1602   19.4930  -27.9777 H   0  0  0  0  0  0  0  0  0  0  0  0
   -3.1212   20.1864  -26.3050 H   0  0  0  0  0  0  0  0  0  0  0  0
   -7.8114   23.5935  -30.0375 H   0  0  0  0  0  0  0  0  0  0  0  0
   -8.5313   21.5286  -31.2360 H   0  0  0  0  0  0  0  0  0  0  0  0
   -4.5818   19.3582  -32.2606 H   0  0  0  0  0  0  0  0  0  0  0  0
   -4.6076   17.6570  -31.5901 H   0  0  0  0  0  0  0  0  0  0  0  0
   -4.4777   18.5027  -34.5134 H   0  0  0  0  0  0  0  0  0  0  0  0
   -3.2291   17.6295  -33.5356 H   0  0  0  0  0  0  0  0  0  0  0  0
   -4.5167   16.1200  -35.0665 H   0  0  0  0  0  0  0  0  0  0  0  0
   -4.6796   15.6898  -33.3263 H   0  0  0  0  0  0  0  0  0  0  0  0
   -6.6864   17.2960  -34.9926 H   0  0  0  0  0  0  0  0  0  0  0  0
   -6.8725   15.5909  -34.4427 H   0  0  0  0  0  0  0  0  0  0  0  0
   -8.1008   17.2236  -32.9958 H   0  0  0  0  0  0  0  0  0  0  0  0
   -6.8078   16.2921  -32.1135 H   0  0  0  0  0  0  0  0  0  0  0  0
   -4.6177   21.2231  -33.0629 H   0  0  0  0  0  0  0  0  0  0  0  0
   -3.9024   23.2942  -31.8788 H   0  0  0  0  0  0  0  0  0  0  0  0
  1  2  2  0
  2  3  2  0
  2  4  1  0
  4  5  1  0
  5  6  2  0
  6  7  1  0
  7  8  2  0
  8  9  1  0
  9 10  2  0
 10 11  1  0
  8 12  1  0
 12 13  1  0
 13 14  1  0
 14 15  1  0
  2 16  1  0
 16 17  2  0
 17 18  1  0
 18 19  2  0
 19 20  1  0
 20 21  2  0
 20 22  2  0
 20 23  1  0
 23 24  1  0
 24 25  1  0
 25 26  1  0
 26 27  1  0
 27 28  1  0
 19 29  1  0
 29 30  2  0
 10  5  1  0
 30 16  1  0
 15  7  1  0
 28 23  1  0
  6 31  1  0
  9 32  1  0
 11 33  1  0
 12 34  1  0
 12 35  1  0
 13 36  1  0
 14 37  1  0
 14 38  1  0
 15 39  1  0
 15 40  1  0
 17 41  1  0
 18 42  1  0
 24 43  1  0
 24 44  1  0
 25 45  1  0
 25 46  1  0
 26 47  1  0
 26 48  1  0
 27 49  1  0
 27 50  1  0
 28 51  1  0
 28 52  1  0
 29 53  1  0
 30 54  1  0
M  CHG  1   4  -1
M  END
>  <UniqueID>  (30) 
27

>  <SMILES>  (30) 
O=S(=O)([N-]c1cc2c(cc1O)CNCC2)c1ccc(S(=O)(=O)N2CCCCC2)cc1

>  <Energy>  (30) 
64.44056534769061

>  <Genealogy>  (30) 
O=S(=O)([N-]c1cc2c(cc1O)CNCC2)c1ccc(S(=O)(=O)N2CCCCC2)cc1 (protonated)
O=S(=O)([N-]c1cc2c(cc1O)CNCC2)c1ccc(S(=O)(=O)N2CCCCC2)cc1 (3D coordinates assigned)
O=S(=O)([N-]c1cc2c(cc1O)CNCC2)c1ccc(S(=O)(=O)N2CCCCC2)cc1 (nonaromatic ring conformer: 64.44056534769061 kcal/mol)

>  <smiles>  (30) 
O=S(=O)(Nc1cc2c(cc1O)CNCC2)c1ccc(S(=O)(=O)N2CCCCC2)cc1

>  <score_type>  (30) 
oracle

>  <origin>  (30) 
adgpu

>  <m_score__min__energy>  (30) 
-13.380000000000001

>  <m_primary>  (30) 
energy

$$$$
30:0
     RDKit          3D

 45 46  0  0  0  0  0  0  0  0999 V2000
   -3.8320   24.1750  -28.3060 C   0  0  0  0  0  0  0  0  0  0  0  0
   -2.8170   24.5480  -29.3760 C   0  0  0  0  0  0  0  0  0  0  0  0
   -3.4890   25.2440  -30.4640 N   0  0  0  0  0  0  0  0  0  0  0  0
   -4.9130   25.2980  -30.5990 C   0  0  0  0  0  0  0  0  0  0  0  0
   -5.5110   26.4010  -30.4660 O   0  0  0  0  0  0  0  0  0  0  0  0
   -5.6790   24.0740  -30.9370 C   0  0  0  0  0  0  0  0  0  0  0  0
   -7.0380   23.9880  -30.6000 C   0  0  0  0  0  0  0  0  0  0  0  0
   -7.7990   22.8880  -30.9920 C   0  0  0  0  0  0  0  0  0  0  0  0
   -7.2210   21.8450  -31.7380 C   0  0  0  0  0  0  0  0  0  0  0  0
   -7.9870   20.7620  -32.1960 O   0  0  0  0  0  0  0  0  0  0  0  0
   -9.3990   20.6470  -32.0520 C   0  0  0  0  0  0  0  0  0  0  0  0
   -5.8460   21.8990  -32.0440 C   0  0  0  0  0  0  0  0  0  0  0  0
   -5.0810   20.6560  -33.0510 S   0  0  0  0  0  0  0  0  0  0  0  0
   -3.7840   21.1570  -33.6200 O   0  0  0  0  0  0  0  0  0  0  0  0
   -5.9820   20.2900  -34.1960 O   0  0  0  0  0  0  0  0  0  0  0  0
   -4.7690   19.2560  -32.0820 N   0  0  0  0  0  0  0  0  0  0  0  0
   -4.9190   17.9460  -32.6300 C   0  0  0  0  0  0  0  0  0  0  0  0
   -3.9640   17.2290  -33.3240 C   0  0  0  0  0  0  0  0  0  0  0  0
   -2.5390   17.6170  -33.5350 C   0  0  0  0  0  0  0  0  0  0  0  0
   -4.5550   16.1850  -33.9390 N   0  0  0  0  0  0  0  0  0  0  0  0
   -5.8450   16.2120  -33.6330 N   0  0  0  0  0  0  0  0  0  0  0  0
   -6.8250   15.3010  -34.2120 C   0  0  0  0  0  0  0  0  0  0  0  0
   -6.1080   17.2810  -32.8480 C   0  0  0  0  0  0  0  0  0  0  0  0
   -7.4750   17.7300  -32.4330 C   0  0  0  0  0  0  0  0  0  0  0  0
   -5.0810   23.0070  -31.6350 C   0  0  0  0  0  0  0  0  0  0  0  0
   -3.7560   23.0460  -31.9300 F   0  0  0  0  0  0  0  0  0  0  0  0
   -3.3920   24.3367  -27.3109 H   0  0  0  0  0  0  0  0  0  0  0  0
   -4.7288   24.8023  -28.4167 H   0  0  0  0  0  0  0  0  0  0  0  0
   -4.1092   23.1163  -28.4167 H   0  0  0  0  0  0  0  0  0  0  0  0
   -2.0496   25.2045  -28.9399 H   0  0  0  0  0  0  0  0  0  0  0  0
   -2.3424   23.6347  -29.7641 H   0  0  0  0  0  0  0  0  0  0  0  0
   -7.5077   24.7966  -30.0207 H   0  0  0  0  0  0  0  0  0  0  0  0
   -8.8623   22.8350  -30.7152 H   0  0  0  0  0  0  0  0  0  0  0  0
   -9.6580   20.6259  -30.9831 H   0  0  0  0  0  0  0  0  0  0  0  0
   -9.8878   21.5083  -32.5308 H   0  0  0  0  0  0  0  0  0  0  0  0
   -9.7419   19.7179  -32.5308 H   0  0  0  0  0  0  0  0  0  0  0  0
   -2.0472   17.7509  -32.5602 H   0  0  0  0  0  0  0  0  0  0  0  0
   -2.0236   16.8265  -34.1002 H   0  0  0  0  0  0  0  0  0  0  0  0
   -2.4955   18.5597  -34.1002 H   0  0  0  0  0  0  0  0  0  0  0  0
   -7.3731   14.7915  -33.4058 H   0  0  0  0  0  0  0  0  0  0  0  0
   -7.5321   15.8699  -34.8335 H   0  0  0  0  0  0  0  0  0  0  0  0
   -6.3091   14.5543  -34.8335 H   0  0  0  0  0  0  0  0  0  0  0  0
   -7.5367   17.7502  -31.3349 H   0  0  0  0  0  0  0  0  0  0  0  0
   -7.6660   18.7381  -32.8296 H   0  0  0  0  0  0  0  0  0  0  0  0
   -8.2265   17.0315  -32.8296 H   0  0  0  0  0  0  0  0  0  0  0  0
  1  2  1  0
  2  3  1  0
  3  4  1  0
  4  5  2  0
  4  6  1  0
  6  7  2  0
  7  8  1  0
  8  9  2  0
  9 10  1  0
 10 11  1  0
  9 12  1  0
 12 13  1  0
 13 14  2  0
 13 15  2  0
 13 16  1  0
 16 17  1  0
 17 18  1  0
 18 19  1  0
 18 20  2  0
 20 21  1  0
 21 22  1  0
 21 23  1  0
 23 24  1  0
 12 25  2  0
 25 26  1  0
 25  6  1  0
 23 17  2  0
  1 27  1  0
  1 28  1  0
  1 29  1  0
  2 30  1  0
  2 31  1  0
  7 32  1  0
  8 33  1  0
 11 34  1  0
 11 35  1  0
 11 36  1  0
 19 37  1  0
 19 38  1  0
 19 39  1  0
 22 40  1  0
 22 41  1  0
 22 42  1  0
 24 43  1  0
 24 44  1  0
 24 45  1  0
M  CHG  2   3  -1  16  -1
M  END
>  <UniqueID>  (31) 
28

>  <SMILES>  (31) 
CC[N-]C(=O)c1ccc(OC)c(S(=O)(=O)[N-]c2c(C)nn(C)c2C)c1F

>  <Energy>  (31) 
77.9444914078561

>  <Genealogy>  (31) 
CC[N-]C(=O)c1ccc(OC)c(S(=O)(=O)[N-]c2c(C)nn(C)c2C)c1F (protonated)
CC[N-]C(=O)c1ccc(OC)c(S(=O)(=O)[N-]c2c(C)nn(C)c2C)c1F (3D coordinates assigned)
CC[N-]C(=O)c1ccc(OC)c(S(=O)(=O)[N-]c2c(C)nn(C)c2C)c1F (optimized conformer: 77.9444914078561 kcal/mol)

>  <smiles>  (31) 
CCNC(=O)c1ccc(OC)c(S(=O)(=O)Nc2c(C)nn(C)c2C)c1F

>  <score_type>  (31) 
oracle

>  <origin>  (31) 
adgpu

>  <m_score__min__energy>  (31) 
-9.6899999999999995

>  <m_primary>  (31) 
energy

$$$$
31:0
     RDKit          3D

 63 66  0  0  0  0  0  0  0  0999 V2000
   -1.7745   15.5059  -34.8355 H   0  0  0  0  0  0  0  0  0  0  0  0
   -2.4490   16.2970  -34.4760 C   0  0  0  0  0  0  0  0  0  0  0  0
   -1.8280   17.4770  -33.8230 C   0  0  0  0  0  0  0  0  0  0  0  0
   -0.8340   17.3390  -33.0620 O   0  0  0  0  0  0  0  0  0  0  0  0
   -2.3250   18.7990  -34.0620 N   0  0  0  0  0  0  0  0  0  0  0  0
   -2.5440   19.8090  -33.0690 C   0  0  0  0  0  0  0  0  0  0  0  0
   -1.6790   20.9070  -32.9400 C   0  0  0  0  0  0  0  0  0  0  0  0
   -0.7898   20.9830  -33.5831 H   0  0  0  0  0  0  0  0  0  0  0  0
   -1.9440   21.9040  -31.9970 C   0  0  0  0  0  0  0  0  0  0  0  0
   -1.2604   22.7601  -31.8979 H   0  0  0  0  0  0  0  0  0  0  0  0
   -3.0790   21.8170  -31.1760 C   0  0  0  0  0  0  0  0  0  0  0  0
   -3.4370   23.1010  -30.0170 S   0  0  0  0  0  0  0  0  0  0  0  0
   -4.7250   22.7890  -29.3090 O   0  0  0  0  0  0  0  0  0  0  0  0
   -3.6200   24.3970  -30.7570 O   0  0  0  0  0  0  0  0  0  0  0  0
   -2.1600   23.2710  -28.8330 N   0  0  0  0  0  0  0  0  0  0  0  0
   -2.3160   24.5030  -28.0240 C   0  0  0  0  0  0  0  0  0  0  0  0
   -3.2553   24.9976  -28.3123 H   0  0  0  0  0  0  0  0  0  0  0  0
   -2.3225   24.2080  -26.9643 H   0  0  0  0  0  0  0  0  0  0  0  0
   -1.1560   25.4920  -28.2260 C   0  0  0  0  0  0  0  0  0  0  0  0
   -1.1546   25.8304  -29.2726 H   0  0  0  0  0  0  0  0  0  0  0  0
   -1.3032   26.3373  -27.5377 H   0  0  0  0  0  0  0  0  0  0  0  0
    0.0970   24.8990  -27.9340 O   0  0  0  0  0  0  0  0  0  0  0  0
    0.2750   23.6140  -28.5240 C   0  0  0  0  0  0  0  0  0  0  0  0
    1.2211   23.6263  -29.0850 H   0  0  0  0  0  0  0  0  0  0  0  0
    0.2635   22.8944  -27.6921 H   0  0  0  0  0  0  0  0  0  0  0  0
   -0.8420   23.1680  -29.4860 C   0  0  0  0  0  0  0  0  0  0  0  0
   -0.8292   23.8113  -30.3782 H   0  0  0  0  0  0  0  0  0  0  0  0
   -0.6678   22.1198  -29.7706 H   0  0  0  0  0  0  0  0  0  0  0  0
   -3.9490   20.7230  -31.3110 C   0  0  0  0  0  0  0  0  0  0  0  0
   -4.8346   20.6421  -30.6635 H   0  0  0  0  0  0  0  0  0  0  0  0
   -3.6910   19.7370  -32.2670 C   0  0  0  0  0  0  0  0  0  0  0  0
   -4.3927   18.8990  -32.3908 H   0  0  0  0  0  0  0  0  0  0  0  0
   -3.7670   16.1160  -34.6640 C   0  0  0  0  0  0  0  0  0  0  0  0
   -4.0757   15.2706  -35.2965 H   0  0  0  0  0  0  0  0  0  0  0  0
   -4.8380   16.9620  -34.0890 C   0  0  0  0  0  0  0  0  0  0  0  0
   -5.3350   16.6610  -32.8120 C   0  0  0  0  0  0  0  0  0  0  0  0
   -4.9500   15.7868  -32.2666 H   0  0  0  0  0  0  0  0  0  0  0  0
   -6.3170   17.4670  -32.2300 C   0  0  0  0  0  0  0  0  0  0  0  0
   -6.7120   17.2169  -31.2343 H   0  0  0  0  0  0  0  0  0  0  0  0
   -6.8010   18.5940  -32.9110 C   0  0  0  0  0  0  0  0  0  0  0  0
   -8.0230   19.6210  -32.1630 S   0  0  0  0  0  0  0  0  0  0  0  0
   -8.6970   18.8490  -31.0630 O   0  0  0  0  0  0  0  0  0  0  0  0
   -9.0620   19.9950  -33.1850 O   0  0  0  0  0  0  0  0  0  0  0  0
   -7.2750   21.0560  -31.5070 N   0  0  0  0  0  0  0  0  0  0  0  0
   -6.8630   21.9440  -32.6120 C   0  0  0  0  0  0  0  0  0  0  0  0
   -6.1654   21.4045  -33.2695 H   0  0  0  0  0  0  0  0  0  0  0  0
   -7.7565   22.2484  -33.1768 H   0  0  0  0  0  0  0  0  0  0  0  0
   -6.1730   23.1950  -32.0630 C   0  0  0  0  0  0  0  0  0  0  0  0
   -5.2514   22.8990  -31.5404 H   0  0  0  0  0  0  0  0  0  0  0  0
   -5.9374   23.8659  -32.9023 H   0  0  0  0  0  0  0  0  0  0  0  0
   -7.0900   23.9340  -31.0850 C   0  0  0  0  0  0  0  0  0  0  0  0
   -6.5312   24.7582  -30.6175 H   0  0  0  0  0  0  0  0  0  0  0  0
   -7.9556   24.3277  -31.6379 H   0  0  0  0  0  0  0  0  0  0  0  0
   -7.5900   22.9840  -29.9960 C   0  0  0  0  0  0  0  0  0  0  0  0
   -6.7413   22.6741  -29.3685 H   0  0  0  0  0  0  0  0  0  0  0  0
   -8.3419   23.5064  -29.3863 H   0  0  0  0  0  0  0  0  0  0  0  0
   -8.2350   21.7420  -30.6210 C   0  0  0  0  0  0  0  0  0  0  0  0
   -8.5463   21.0537  -29.8214 H   0  0  0  0  0  0  0  0  0  0  0  0
   -9.1086   22.0526  -31.2129 H   0  0  0  0  0  0  0  0  0  0  0  0
   -6.2790   18.9190  -34.1710 C   0  0  0  0  0  0  0  0  0  0  0  0
   -6.6473   19.8071  -34.7054 H   0  0  0  0  0  0  0  0  0  0  0  0
   -5.2920   18.1170  -34.7490 C   0  0  0  0  0  0  0  0  0  0  0  0
   -4.8677   18.3909  -35.7262 H   0  0  0  0  0  0  0  0  0  0  0  0
  1  2  1  0
  2  3  1  0
  3  4  2  0
  3  5  1  0
  5  6  1  0
  6  7  2  0
  7  8  1  0
  7  9  1  0
  9 10  1  0
  9 11  2  0
 11 12  1  0
 12 13  2  0
 12 14  2  0
 12 15  1  0
 15 16  1  0
 16 17  1  0
 16 18  1  0
 16 19  1  0
 19 20  1  0
 19 21  1  0
 19 22  1  0
 22 23  1  0
 23 24  1  0
 23 25  1  0
 23 26  1  0
 26 27  1  0
 26 28  1  0
 11 29  1  0
 29 30  1  0
 29 31  2  0
 31 32  1  0
  2 33  2  0
 33 34  1  0
 33 35  1  0
 35 36  2  0
 36 37  1  0
 36 38  1  0
 38 39  1  0
 38 40  2  0
 40 41  1  0
 41 42  2  0
 41 43  2  0
 41 44  1  0
 44 45  1  0
 45 46  1  0
 45 47  1  0
 45 48  1  0
 48 49  1  0
 48 50  1  0
 48 51  1  0
 51 52  1  0
 51 53  1  0
 51 54  1  0
 54 55  1  0
 54 56  1  0
 54 57  1  0
 57 58  1  0
 57 59  1  0
 40 60  1  0
 60 61  1  0
 60 62  2  0
 62 63  1  0
 31  6  1  0
 62 35  1  0
 26 15  1  0
 57 44  1  0
M  CHG  1   5  -1
M  END
>  <UniqueID>  (32) 
29

>  <SMILES>  (32) 
O=C(/C=C\c1ccc(S(=O)(=O)N2CCCCC2)cc1)[N-]c1ccc(S(=O)(=O)N2CCOCC2)cc1

>  <Energy>  (32) 
85.58974997326237

>  <Genealogy>  (32) 
O=C(C=Cc1ccc(S(=O)(=O)N2CCCCC2)cc1)[N-]c1ccc(S(=O)(=O)N2CCOCC2)cc1 (protonated)
O=C(/C=C\c1ccc(S(=O)(=O)N2CCCCC2)cc1)[N-]c1ccc(S(=O)(=O)N2CCOCC2)cc1 (cis-trans isomerization)
O=C(/C=C\c1ccc(S(=O)(=O)N2CCCCC2)cc1)[N-]c1ccc(S(=O)(=O)N2CCOCC2)cc1 (3D coordinates assigned)
O=C(/C=C\c1ccc(S(=O)(=O)N2CCCCC2)cc1)[N-]c1ccc(S(=O)(=O)N2CCOCC2)cc1 (nonaromatic ring conformer: 85.58974997326237 kcal/mol)

>  <smiles>  (32) 
O=C(C=Cc1ccc(S(=O)(=O)N2CCCCC2)cc1)Nc1ccc(S(=O)(=O)N2CCOCC2)cc1

>  <score_type>  (32) 
oracle

>  <origin>  (32) 
adgpu

>  <m_score__min__energy>  (32) 
-12.67

>  <m_primary>  (32) 
energy

$$$$
32:0
     RDKit          3D

 59 62  0  0  0  0  0  0  0  0999 V2000
   -8.2730   18.6270  -32.4330 C   0  0  0  0  0  0  0  0  0  0  0  0
   -7.7880   20.0330  -32.2410 C   0  0  0  0  0  0  0  0  0  0  0  0
   -8.6300   21.0000  -31.6740 C   0  0  0  0  0  0  0  0  0  0  0  0
   -8.1660   22.3020  -31.4620 C   0  0  0  0  0  0  0  0  0  0  0  0
   -6.8510   22.6510  -31.8040 C   0  0  0  0  0  0  0  0  0  0  0  0
   -6.3470   24.0520  -31.5860 C   0  0  0  0  0  0  0  0  0  0  0  0
   -6.1730   24.4080  -29.7990 S   0  0  0  0  0  0  0  0  0  0  0  0
   -5.2080   22.9140  -29.3560 C   0  0  0  0  0  0  0  0  0  0  0  0
   -4.5100   23.0990  -28.0100 C   0  0  0  0  0  0  0  0  0  0  0  0
   -3.8630   24.4110  -27.9460 N   0  0  0  0  0  0  0  0  0  0  0  0
   -2.7430   24.5820  -29.2630 S   0  0  0  0  0  0  0  0  0  0  0  0
   -3.4830   24.9520  -30.5200 O   0  0  0  0  0  0  0  0  0  0  0  0
   -1.7640   25.6760  -28.9450 O   0  0  0  0  0  0  0  0  0  0  0  0
   -1.8650   23.0730  -29.4890 C   0  0  0  0  0  0  0  0  0  0  0  0
   -0.8420   22.7210  -28.5790 C   0  0  0  0  0  0  0  0  0  0  0  0
   -0.1450   21.5090  -28.7170 C   0  0  0  0  0  0  0  0  0  0  0  0
   -0.4920   20.6710  -29.7740 C   0  0  0  0  0  0  0  0  0  0  0  0
   -1.4970   21.0060  -30.6660 C   0  0  0  0  0  0  0  0  0  0  0  0
   -2.2040   22.2020  -30.5450 C   0  0  0  0  0  0  0  0  0  0  0  0
   -1.6840   19.9860  -31.6500 N   0  0  0  0  0  0  0  0  0  0  0  0
   -2.7500   19.8140  -32.6250 C   0  0  0  0  0  0  0  0  0  0  0  0
   -2.3230   18.7420  -33.6660 C   0  0  0  0  0  0  0  0  0  0  0  0
   -1.2360   19.3200  -34.5980 C   0  0  0  0  0  0  0  0  0  0  0  0
   -3.5440   18.3430  -34.5160 C   0  0  0  0  0  0  0  0  0  0  0  0
   -1.7690   17.4810  -32.9290 C   0  0  0  0  0  0  0  0  0  0  0  0
   -0.7560   17.8070  -31.9130 N   0  0  0  0  0  0  0  0  0  0  0  0
   -0.7800   18.9490  -31.2970 C   0  0  0  0  0  0  0  0  0  0  0  0
    0.0140   19.3520  -30.1420 C   0  0  0  0  0  0  0  0  0  0  0  0
    0.9160   18.6910  -29.5640 O   0  0  0  0  0  0  0  0  0  0  0  0
   -6.0020   21.6750  -32.3520 C   0  0  0  0  0  0  0  0  0  0  0  0
   -6.4660   20.3740  -32.5640 C   0  0  0  0  0  0  0  0  0  0  0  0
   -8.4349   18.1577  -31.4514 H   0  0  0  0  0  0  0  0  0  0  0  0
   -9.2190   18.6389  -32.9942 H   0  0  0  0  0  0  0  0  0  0  0  0
   -7.5209   18.0531  -32.9942 H   0  0  0  0  0  0  0  0  0  0  0  0
   -9.6600   20.7334  -31.3947 H   0  0  0  0  0  0  0  0  0  0  0  0
   -8.8360   23.0569  -31.0246 H   0  0  0  0  0  0  0  0  0  0  0  0
   -5.3670   24.1628  -32.0731 H   0  0  0  0  0  0  0  0  0  0  0  0
   -7.0708   24.7588  -32.0180 H   0  0  0  0  0  0  0  0  0  0  0  0
   -5.8873   22.0510  -29.2945 H   0  0  0  0  0  0  0  0  0  0  0  0
   -4.4441   22.7454  -30.1293 H   0  0  0  0  0  0  0  0  0  0  0  0
   -5.2532   23.0217  -27.2028 H   0  0  0  0  0  0  0  0  0  0  0  0
   -3.7442   22.3178  -27.8951 H   0  0  0  0  0  0  0  0  0  0  0  0
   -4.5990   25.1440  -28.0740 H   0  0  0  0  0  0  0  0  0  0  0  0
   -0.5890   23.4033  -27.7541 H   0  0  0  0  0  0  0  0  0  0  0  0
    0.6512   21.2301  -28.0111 H   0  0  0  0  0  0  0  0  0  0  0  0
   -3.0046   22.4590  -31.2542 H   0  0  0  0  0  0  0  0  0  0  0  0
   -3.6668   19.4854  -32.1135 H   0  0  0  0  0  0  0  0  0  0  0  0
   -2.9411   20.7693  -33.1357 H   0  0  0  0  0  0  0  0  0  0  0  0
   -0.4252   19.7511  -33.9924 H   0  0  0  0  0  0  0  0  0  0  0  0
   -0.8326   18.5173  -35.2328 H   0  0  0  0  0  0  0  0  0  0  0  0
   -1.6759   20.1033  -35.2328 H   0  0  0  0  0  0  0  0  0  0  0  0
   -4.3787   18.0703  -33.8535 H   0  0  0  0  0  0  0  0  0  0  0  0
   -3.8416   19.1906  -35.1508 H   0  0  0  0  0  0  0  0  0  0  0  0
   -3.2837   17.4832  -35.1508 H   0  0  0  0  0  0  0  0  0  0  0  0
   -2.6072   16.9669  -32.4358 H   0  0  0  0  0  0  0  0  0  0  0  0
   -1.2842   16.8452  -33.6845 H   0  0  0  0  0  0  0  0  0  0  0  0
   -0.0970   17.0610  -31.5980 H   0  0  0  0  0  0  0  0  0  0  0  0
   -4.9665   21.9363  -32.6156 H   0  0  0  0  0  0  0  0  0  0  0  0
   -5.7919   19.6141  -32.9859 H   0  0  0  0  0  0  0  0  0  0  0  0
  1  2  1  0
  2  3  2  0
  3  4  1  0
  4  5  2  0
  5  6  1  0
  6  7  1  0
  7  8  1  0
  8  9  1  0
  9 10  1  0
 10 11  1  0
 11 12  2  0
 11 13  2  0
 11 14  1  0
 14 15  2  0
 15 16  1  0
 16 17  2  0
 17 18  1  0
 18 19  2  0
 18 20  1  0
 20 21  1  0
 21 22  1  0
 22 23  1  0
 22 24  1  0
 22 25  1  0
 25 26  1  0
 26 27  2  0
 27 28  1  0
 28 29  2  0
  5 30  1  0
 30 31  2  0
 31  2  1  0
 19 14  1  0
 27 20  1  0
 28 17  1  0
  1 32  1  0
  1 33  1  0
  1 34  1  0
  3 35  1  0
  4 36  1  0
  6 37  1  0
  6 38  1  0
  8 39  1  0
  8 40  1  0
  9 41  1  0
  9 42  1  0
 10 43  1  0
 15 44  1  0
 16 45  1  0
 19 46  1  0
 21 47  1  0
 21 48  1  0
 23 49  1  0
 23 50  1  0
 23 51  1  0
 24 52  1  0
 24 53  1  0
 24 54  1  0
 25 55  1  0
 25 56  1  0
 26 57  1  0
 30 58  1  0
 31 59  1  0
M  CHG  1  26   1
M  END
>  <UniqueID>  (33) 
30

>  <SMILES>  (33) 
Cc1ccc(CSCCNS(=O)(=O)c2ccc3c(c2)N2CC(C)(C)C[NH+]=C2C3=O)cc1

>  <Energy>  (33) 
84.79307258287363

>  <Genealogy>  (33) 
Cc1ccc(CSCCNS(=O)(=O)c2ccc3c(c2)N2CC(C)(C)C[NH+]=C2C3=O)cc1 (protonated)
Cc1ccc(CSCCNS(=O)(=O)c2ccc3c(c2)N2CC(C)(C)C[NH+]=C2C3=O)cc1 (3D coordinates assigned)
Cc1ccc(CSCCNS(=O)(=O)c2ccc3c(c2)N2CC(C)(C)C[NH+]=C2C3=O)cc1 (nonaromatic ring conformer: 84.79307258287363 kcal/mol)

>  <smiles>  (33) 
Cc1ccc(CSCCNS(=O)(=O)c2ccc3c(c2)N2CC(C)(C)CN=C2C3=O)cc1

>  <score_type>  (33) 
oracle

>  <origin>  (33) 
adgpu

>  <m_score__min__energy>  (33) 
-11.02

>  <m_primary>  (33) 
energy

$$$$
33:0
     RDKit          3D

 55 58  0  0  0  0  0  0  0  0999 V2000
   -1.6324   19.8694  -27.8218 H   0  0  0  0  0  0  0  0  0  0  0  0
   -1.4690   20.6600  -28.5690 C   0  0  0  0  0  0  0  0  0  0  0  0
   -1.9700   21.9490  -28.3450 C   0  0  0  0  0  0  0  0  0  0  0  0
   -2.5279   22.1690  -27.4229 H   0  0  0  0  0  0  0  0  0  0  0  0
   -1.7610   22.9590  -29.2950 C   0  0  0  0  0  0  0  0  0  0  0  0
   -2.3750   24.5790  -28.9860 S   0  0  0  0  0  0  0  0  0  0  0  0
   -1.2340   25.5520  -29.0630 O   0  0  0  0  0  0  0  0  0  0  0  0
   -2.9850   24.6760  -27.6130 O   0  0  0  0  0  0  0  0  0  0  0  0
   -3.5550   25.0000  -30.1880 N   0  0  0  0  0  0  0  0  0  0  0  0
   -4.5080   24.1060  -30.7840 C   0  0  0  0  0  0  0  0  0  0  0  0
   -4.1000   22.9630  -31.4990 C   0  0  0  0  0  0  0  0  0  0  0  0
   -3.0268   22.7525  -31.6174 H   0  0  0  0  0  0  0  0  0  0  0  0
   -5.0430   22.0880  -32.0630 C   0  0  0  0  0  0  0  0  0  0  0  0
   -4.6020   20.8810  -32.8100 C   0  0  0  0  0  0  0  0  0  0  0  0
   -3.2390   20.5380  -32.8770 C   0  0  0  0  0  0  0  0  0  0  0  0
   -2.4924   21.1715  -32.3758 H   0  0  0  0  0  0  0  0  0  0  0  0
   -2.8230   19.3940  -33.5780 C   0  0  0  0  0  0  0  0  0  0  0  0
   -1.4310   19.0860  -33.7300 N   0  0  0  0  0  0  0  0  0  0  0  0
   -0.5190   19.8130  -34.3150 C   0  0  0  0  0  0  0  0  0  0  0  0
    0.7640   19.2740  -34.4740 C   0  0  0  0  0  0  0  0  0  0  0  0
    0.9922   18.2704  -34.0857 H   0  0  0  0  0  0  0  0  0  0  0  0
    1.7550   20.0150  -35.1280 C   0  0  0  0  0  0  0  0  0  0  0  0
    3.1330   19.4500  -35.2940 C   0  0  0  0  0  0  0  0  0  0  0  0
    3.5765   19.2682  -34.3039 H   0  0  0  0  0  0  0  0  0  0  0  0
    3.0763   18.5025  -35.8500 H   0  0  0  0  0  0  0  0  0  0  0  0
    3.7577   20.1646  -35.8500 H   0  0  0  0  0  0  0  0  0  0  0  0
    1.4650   21.3160  -35.5590 C   0  0  0  0  0  0  0  0  0  0  0  0
    2.2356   21.9181  -36.0627 H   0  0  0  0  0  0  0  0  0  0  0  0
    0.1900   21.8420  -35.3440 C   0  0  0  0  0  0  0  0  0  0  0  0
   -0.0387   22.8697  -35.6627 H   0  0  0  0  0  0  0  0  0  0  0  0
   -0.7720   21.0900  -34.7420 N   0  0  0  0  0  0  0  0  0  0  0  0
   -1.7000   21.5390  -34.5850 H   0  0  0  0  0  0  0  0  0  0  0  0
   -3.7730   18.6190  -34.2520 C   0  0  0  0  0  0  0  0  0  0  0  0
   -3.4469   17.7470  -34.8379 H   0  0  0  0  0  0  0  0  0  0  0  0
   -5.1340   18.9410  -34.1890 C   0  0  0  0  0  0  0  0  0  0  0  0
   -6.0980   18.1250  -34.8580 N   0  0  0  0  0  0  0  0  0  0  0  0
   -6.1070   17.0890  -34.7260 H   0  0  0  0  0  0  0  0  0  0  0  0
   -6.8170   18.5540  -35.4870 H   0  0  0  0  0  0  0  0  0  0  0  0
   -5.5430   20.0690  -33.4690 C   0  0  0  0  0  0  0  0  0  0  0  0
   -6.6119   20.3236  -33.4177 H   0  0  0  0  0  0  0  0  0  0  0  0
   -6.4080   22.3650  -31.9020 C   0  0  0  0  0  0  0  0  0  0  0  0
   -7.1572   21.6901  -32.3415 H   0  0  0  0  0  0  0  0  0  0  0  0
   -6.8240   23.4910  -31.1880 C   0  0  0  0  0  0  0  0  0  0  0  0
   -7.8985   23.6856  -31.0554 H   0  0  0  0  0  0  0  0  0  0  0  0
   -5.8860   24.3750  -30.6390 C   0  0  0  0  0  0  0  0  0  0  0  0
   -6.3700   25.5640  -29.8490 C   0  0  0  0  0  0  0  0  0  0  0  0
   -6.2828   25.3498  -28.7736 H   0  0  0  0  0  0  0  0  0  0  0  0
   -5.7583   26.4436  -30.0985 H   0  0  0  0  0  0  0  0  0  0  0  0
   -7.4221   25.7663  -30.0985 H   0  0  0  0  0  0  0  0  0  0  0  0
   -1.0390   22.6740  -30.4640 C   0  0  0  0  0  0  0  0  0  0  0  0
   -0.8651   23.4661  -31.2072 H   0  0  0  0  0  0  0  0  0  0  0  0
   -0.5400   21.3880  -30.6880 C   0  0  0  0  0  0  0  0  0  0  0  0
    0.0256   21.1697  -31.6058 H   0  0  0  0  0  0  0  0  0  0  0  0
   -0.7600   20.3770  -29.7440 C   0  0  0  0  0  0  0  0  0  0  0  0
   -0.1390   18.7610  -30.0330 Cl  0  0  0  0  0  0  0  0  0  0  0  0
  1  2  1  0
  2  3  2  0
  3  4  1  0
  3  5  1  0
  5  6  1  0
  6  7  2  0
  6  8  2  0
  6  9  1  0
  9 10  1  0
 10 11  2  0
 11 12  1  0
 11 13  1  0
 13 14  1  0
 14 15  2  0
 15 16  1  0
 15 17  1  0
 17 18  1  0
 18 19  2  0
 19 20  1  0
 20 21  1  0
 20 22  2  0
 22 23  1  0
 23 24  1  0
 23 25  1  0
 23 26  1  0
 22 27  1  0
 27 28  1  0
 27 29  2  0
 29 30  1  0
 29 31  1  0
 31 32  1  0
 17 33  2  0
 33 34  1  0
 33 35  1  0
 35 36  1  0
 36 37  1  0
 36 38  1  0
 35 39  2  0
 39 40  1  0
 13 41  2  0
 41 42  1  0
 41 43  1  0
 43 44  1  0
 43 45  2  0
 45 46  1  0
 46 47  1  0
 46 48  1  0
 46 49  1  0
  5 50  2  0
 50 51  1  0
 50 52  1  0
 52 53  1  0
 52 54  2  0
 54 55  1  0
 54  2  1  0
 45 10  1  0
 39 14  1  0
 31 19  1  0
M  CHG  1   9  -1
M  END
>  <UniqueID>  (34) 
31

>  <SMILES>  (34) 
Cc1cc[nH]/c(=N\c2cc(N)cc(-c3ccc(C)c([N-]S(=O)(=O)c4ccc(Cl)cc4)c3)c2)c1

>  <Energy>  (34) 
72.14471676206658

>  <Genealogy>  (34) 
Cc1cc[nH]c(=Nc2cc(N)cc(-c3ccc(C)c([N-]S(=O)(=O)c4ccc(Cl)cc4)c3)c2)c1 (protonated)
Cc1cc[nH]/c(=N\c2cc(N)cc(-c3ccc(C)c([N-]S(=O)(=O)c4ccc(Cl)cc4)c3)c2)c1 (cis-trans isomerization)
Cc1cc[nH]/c(=N\c2cc(N)cc(-c3ccc(C)c([N-]S(=O)(=O)c4ccc(Cl)cc4)c3)c2)c1 (3D coordinates assigned)
Cc1cc[nH]/c(=N\c2cc(N)cc(-c3ccc(C)c([N-]S(=O)(=O)c4ccc(Cl)cc4)c3)c2)c1 (optimized conformer: 72.14471676206658 kcal/mol)

>  <smiles>  (34) 
Cc1cc[nH]c(=Nc2cc(N)cc(-c3ccc(C)c(NS(=O)(=O)c4ccc(Cl)cc4)c3)c2)c1

>  <score_type>  (34) 
oracle

>  <origin>  (34) 
adgpu

>  <m_score__min__energy>  (34) 
-11.869999999999999

>  <m_primary>  (34) 
energy

$$$$
34:0
     RDKit          3D

 45 47  0  0  0  0  0  0  0  0999 V2000
   -3.5500   21.1080  -30.5380 C   0  0  0  0  0  0  0  0  0  0  0  0
   -4.7940   21.4540  -30.9080 C   0  0  0  0  0  0  0  0  0  0  0  0
   -5.5820   22.4910  -30.3810 C   0  0  0  0  0  0  0  0  0  0  0  0
   -5.2790   23.4890  -29.5270 C   0  0  0  0  0  0  0  0  0  0  0  0
   -3.9210   23.8670  -29.0930 C   0  0  0  0  0  0  0  0  0  0  0  0
   -3.2450   24.9200  -29.7240 C   0  0  0  0  0  0  0  0  0  0  0  0
   -3.8670   25.6540  -30.7290 O   0  0  0  0  0  0  0  0  0  0  0  0
   -1.9770   25.2380  -29.3470 N   0  0  0  0  0  0  0  0  0  0  0  0
   -1.3410   24.5340  -28.3730 C   0  0  0  0  0  0  0  0  0  0  0  0
   -0.1680   24.8420  -28.0330 O   0  0  0  0  0  0  0  0  0  0  0  0
   -1.9660   23.4920  -27.7680 N   0  0  0  0  0  0  0  0  0  0  0  0
   -3.2300   23.1370  -28.1100 C   0  0  0  0  0  0  0  0  0  0  0  0
   -3.7710   22.1500  -27.5420 O   0  0  0  0  0  0  0  0  0  0  0  0
   -6.8450   22.3350  -30.9300 C   0  0  0  0  0  0  0  0  0  0  0  0
   -6.7750   21.2680  -31.8000 C   0  0  0  0  0  0  0  0  0  0  0  0
   -7.9240   20.7620  -32.6200 C   0  0  0  0  0  0  0  0  0  0  0  0
   -5.5340   20.7320  -31.7890 N   0  0  0  0  0  0  0  0  0  0  0  0
   -5.1050   19.5940  -32.5570 C   0  0  0  0  0  0  0  0  0  0  0  0
   -3.9370   19.6660  -33.3300 C   0  0  0  0  0  0  0  0  0  0  0  0
   -3.5160   18.5620  -34.0770 C   0  0  0  0  0  0  0  0  0  0  0  0
   -4.2620   17.3740  -34.0580 C   0  0  0  0  0  0  0  0  0  0  0  0
   -3.7310   15.9660  -34.9700 S   0  0  0  0  0  0  0  0  0  0  0  0
   -4.7400   14.8670  -34.7930 O   0  0  0  0  0  0  0  0  0  0  0  0
   -3.6170   16.2860  -36.4340 O   0  0  0  0  0  0  0  0  0  0  0  0
   -2.1930   15.4250  -34.3830 N   0  0  0  0  0  0  0  0  0  0  0  0
   -1.8460   15.3130  -32.9990 C   0  0  0  0  0  0  0  0  0  0  0  0
   -1.9640   14.0180  -32.2540 C   0  0  0  0  0  0  0  0  0  0  0  0
   -1.4030   16.3270  -32.3990 O   0  0  0  0  0  0  0  0  0  0  0  0
   -5.4320   17.3030  -33.2920 C   0  0  0  0  0  0  0  0  0  0  0  0
   -5.8520   18.4070  -32.5450 C   0  0  0  0  0  0  0  0  0  0  0  0
   -3.0414   20.2693  -31.0358 H   0  0  0  0  0  0  0  0  0  0  0  0
   -3.0399   21.6634  -29.7372 H   0  0  0  0  0  0  0  0  0  0  0  0
   -6.1174   24.0721  -29.1183 H   0  0  0  0  0  0  0  0  0  0  0  0
   -1.4870   26.0340  -29.8160 H   0  0  0  0  0  0  0  0  0  0  0  0
   -7.7336   22.9460  -30.7129 H   0  0  0  0  0  0  0  0  0  0  0  0
   -8.7240   20.4097  -31.9522 H   0  0  0  0  0  0  0  0  0  0  0  0
   -8.3074   21.5745  -33.2547 H   0  0  0  0  0  0  0  0  0  0  0  0
   -7.5835   19.9306  -33.2547 H   0  0  0  0  0  0  0  0  0  0  0  0
   -3.3494   20.5957  -33.3486 H   0  0  0  0  0  0  0  0  0  0  0  0
   -2.5985   18.6248  -34.6806 H   0  0  0  0  0  0  0  0  0  0  0  0
   -1.9461   14.2146  -31.1719 H   0  0  0  0  0  0  0  0  0  0  0  0
   -2.9107   13.5259  -32.5217 H   0  0  0  0  0  0  0  0  0  0  0  0
   -1.1218   13.3629  -32.5217 H   0  0  0  0  0  0  0  0  0  0  0  0
   -6.0226   16.3751  -33.2781 H   0  0  0  0  0  0  0  0  0  0  0  0
   -6.7720   18.3447  -31.9453 H   0  0  0  0  0  0  0  0  0  0  0  0
  1  2  2  0
  2  3  1  0
  3  4  2  3
  4  5  1  0
  5  6  2  0
  6  7  1  0
  6  8  1  0
  8  9  1  0
  9 10  2  0
  9 11  1  0
 11 12  1  0
 12 13  2  0
  3 14  1  0
 14 15  2  0
 15 16  1  0
 15 17  1  0
 17 18  1  0
 18 19  2  0
 19 20  1  0
 20 21  2  0
 21 22  1  0
 22 23  2  0
 22 24  2  0
 22 25  1  0
 25 26  1  0
 26 27  1  0
 26 28  2  0
 21 29  1  0
 29 30  2  0
 17  2  1  0
 30 18  1  0
 12  5  1  0
  1 31  1  0
  1 32  1  0
  4 33  1  0
  8 34  1  0
 14 35  1  0
 16 36  1  0
 16 37  1  0
 16 38  1  0
 19 39  1  0
 20 40  1  0
 27 41  1  0
 27 42  1  0
 27 43  1  0
 29 44  1  0
 30 45  1  0
M  CHG  3   7  -1  11  -1  25  -1
M  END
>  <UniqueID>  (35) 
32

>  <SMILES>  (35) 
C=c1c(=Cc2c([O-])[nH]c(=O)[n-]c2=O)cc(C)n1-c1ccc(S(=O)(=O)[N-]C(C)=O)cc1

>  <Energy>  (35) 
96.40312163455962

>  <Genealogy>  (35) 
C=c1c(=Cc2c([O-])[nH]c(=O)[n-]c2=O)cc(C)n1-c1ccc(S(=O)(=O)[N-]C(C)=O)cc1 (protonated)
C=c1c(=Cc2c([O-])[nH]c(=O)[n-]c2=O)cc(C)n1-c1ccc(S(=O)(=O)[N-]C(C)=O)cc1 (3D coordinates assigned)
C=c1c(=Cc2c([O-])[nH]c(=O)[n-]c2=O)cc(C)n1-c1ccc(S(=O)(=O)[N-]C(C)=O)cc1 (optimized conformer: 96.40312163455962 kcal/mol)

>  <smiles>  (35) 
C=c1c(=Cc2c(O)[nH]c(=O)[nH]c2=O)cc(C)n1-c1ccc(S(=O)(=O)NC(C)=O)cc1

>  <score_type>  (35) 
oracle

>  <origin>  (35) 
adgpu

>  <m_score__min__energy>  (35) 
-12.98

>  <m_primary>  (35) 
energy

$$$$
35:0
     RDKit          3D

 57 60  0  0  0  0  0  0  0  0999 V2000
   -4.5570   25.6840  -30.9920 O   0  0  0  0  0  0  0  0  0  0  0  0
   -4.7030   24.5440  -30.4790 C   0  0  0  0  0  0  0  0  0  0  0  0
   -4.1590   24.3090  -29.1740 N   0  0  0  0  0  0  0  0  0  0  0  0
   -2.9110   23.6690  -28.8660 C   0  0  0  0  0  0  0  0  0  0  0  0
   -2.9400   22.3550  -28.3820 C   0  0  0  0  0  0  0  0  0  0  0  0
   -1.7550   21.6910  -28.0400 C   0  0  0  0  0  0  0  0  0  0  0  0
   -1.8230   20.0410  -27.4260 S   0  0  0  0  0  0  0  0  0  0  0  0
   -1.2690   20.0230  -26.0270 O   0  0  0  0  0  0  0  0  0  0  0  0
   -3.2490   19.5670  -27.3820 O   0  0  0  0  0  0  0  0  0  0  0  0
   -0.8730   18.9930  -28.4520 N   0  0  0  0  0  0  0  0  0  0  0  0
    0.4620   18.7340  -27.8660 C   0  0  0  0  0  0  0  0  0  0  0  0
    1.5720   19.5290  -28.5770 C   0  0  0  0  0  0  0  0  0  0  0  0
    1.6570   19.2510  -29.9680 O   0  0  0  0  0  0  0  0  0  0  0  0
    0.4000   18.9820  -30.5770 C   0  0  0  0  0  0  0  0  0  0  0  0
   -0.8050   19.5550  -29.8140 C   0  0  0  0  0  0  0  0  0  0  0  0
   -0.5290   22.3550  -28.1700 C   0  0  0  0  0  0  0  0  0  0  0  0
   -0.4910   23.6750  -28.6220 C   0  0  0  0  0  0  0  0  0  0  0  0
   -1.6740   24.3430  -28.9570 C   0  0  0  0  0  0  0  0  0  0  0  0
   -1.6080   25.6760  -29.3430 O   0  0  0  0  0  0  0  0  0  0  0  0
   -5.4800   23.5120  -31.2080 C   0  0  0  0  0  0  0  0  0  0  0  0
   -6.8720   23.6370  -31.3160 C   0  0  0  0  0  0  0  0  0  0  0  0
   -7.6210   22.6510  -31.9600 C   0  0  0  0  0  0  0  0  0  0  0  0
   -7.0010   21.5220  -32.5000 C   0  0  0  0  0  0  0  0  0  0  0  0
   -7.8160   20.5450  -33.0740 O   0  0  0  0  0  0  0  0  0  0  0  0
   -5.5930   21.3960  -32.4300 C   0  0  0  0  0  0  0  0  0  0  0  0
   -4.7520   20.0010  -33.1260 S   0  0  0  0  0  0  0  0  0  0  0  0
   -4.5480   18.9810  -32.0410 O   0  0  0  0  0  0  0  0  0  0  0  0
   -5.5850   19.3970  -34.2240 O   0  0  0  0  0  0  0  0  0  0  0  0
   -3.1960   20.4690  -33.7720 N   0  0  0  0  0  0  0  0  0  0  0  0
   -2.4270   19.3070  -34.2190 C   0  0  0  0  0  0  0  0  0  0  0  0
   -0.9670   19.7080  -34.1380 C   0  0  0  0  0  0  0  0  0  0  0  0
   -0.9170   20.7930  -33.0760 C   0  0  0  0  0  0  0  0  0  0  0  0
   -2.3700   21.1100  -32.7470 C   0  0  0  0  0  0  0  0  0  0  0  0
   -4.8490   22.3850  -31.7610 C   0  0  0  0  0  0  0  0  0  0  0  0
   -3.9046   21.8384  -28.2691 H   0  0  0  0  0  0  0  0  0  0  0  0
    0.4448   19.0212  -26.8043 H   0  0  0  0  0  0  0  0  0  0  0  0
    0.6825   17.6631  -27.9870 H   0  0  0  0  0  0  0  0  0  0  0  0
    1.3712   20.6026  -28.4468 H   0  0  0  0  0  0  0  0  0  0  0  0
    2.5291   19.2296  -28.1249 H   0  0  0  0  0  0  0  0  0  0  0  0
    0.4064   19.4160  -31.5878 H   0  0  0  0  0  0  0  0  0  0  0  0
    0.2793   17.8887  -30.5835 H   0  0  0  0  0  0  0  0  0  0  0  0
   -0.7049   20.6485  -29.7491 H   0  0  0  0  0  0  0  0  0  0  0  0
   -1.7256   19.2881  -30.3537 H   0  0  0  0  0  0  0  0  0  0  0  0
    0.4063   21.8351  -27.9153 H   0  0  0  0  0  0  0  0  0  0  0  0
    0.4747   24.1933  -28.7154 H   0  0  0  0  0  0  0  0  0  0  0  0
   -7.3768   24.5170  -30.8909 H   0  0  0  0  0  0  0  0  0  0  0  0
   -8.7120   22.7644  -32.0432 H   0  0  0  0  0  0  0  0  0  0  0  0
   -7.6110   20.0910  -33.9540 H   0  0  0  0  0  0  0  0  0  0  0  0
   -2.6226   18.4455  -33.5636 H   0  0  0  0  0  0  0  0  0  0  0  0
   -2.7051   19.0121  -35.2416 H   0  0  0  0  0  0  0  0  0  0  0  0
   -0.3458   18.8494  -33.8434 H   0  0  0  0  0  0  0  0  0  0  0  0
   -0.5799   20.0586  -35.1061 H   0  0  0  0  0  0  0  0  0  0  0  0
   -0.3907   20.4303  -32.1807 H   0  0  0  0  0  0  0  0  0  0  0  0
   -0.3754   21.6833  -33.4283 H   0  0  0  0  0  0  0  0  0  0  0  0
   -2.6267   20.7132  -31.7537 H   0  0  0  0  0  0  0  0  0  0  0  0
   -2.5389   22.1969  -32.7329 H   0  0  0  0  0  0  0  0  0  0  0  0
   -3.7584   22.2745  -31.6696 H   0  0  0  0  0  0  0  0  0  0  0  0
  1  2  2  0
  2  3  1  0
  3  4  1  0
  4  5  2  0
  5  6  1  0
  6  7  1  0
  7  8  2  0
  7  9  2  0
  7 10  1  0
 10 11  1  0
 11 12  1  0
 12 13  1  0
 13 14  1  0
 14 15  1  0
  6 16  2  0
 16 17  1  0
 17 18  2  0
 18 19  1  0
  2 20  1  0
 20 21  2  0
 21 22  1  0
 22 23  2  0
 23 24  1  0
 23 25  1  0
 25 26  1  0
 26 27  2  0
 26 28  2  0
 26 29  1  0
 29 30  1  0
 30 31  1  0
 31 32  1  0
 32 33  1  0
 25 34  2  0
 18  4  1  0
 34 20  1  0
 15 10  1  0
 33 29  1  0
  5 35  1  0
 11 36  1  0
 11 37  1  0
 12 38  1  0
 12 39  1  0
 14 40  1  0
 14 41  1  0
 15 42  1  0
 15 43  1  0
 16 44  1  0
 17 45  1  0
 21 46  1  0
 22 47  1  0
 24 48  1  0
 30 49  1  0
 30 50  1  0
 31 51  1  0
 31 52  1  0
 32 53  1  0
 32 54  1  0
 33 55  1  0
 33 56  1  0
 34 57  1  0
M  CHG  2   3  -1  19  -1
M  END
>  <UniqueID>  (36) 
33

>  <SMILES>  (36) 
O=C([N-]c1cc(S(=O)(=O)N2CCOCC2)ccc1[O-])c1ccc(O)c(S(=O)(=O)N2CCCC2)c1

>  <Energy>  (36) 
80.00125783658821

>  <Genealogy>  (36) 
O=C([N-]c1cc(S(=O)(=O)N2CCOCC2)ccc1[O-])c1ccc(O)c(S(=O)(=O)N2CCCC2)c1 (protonated)
O=C([N-]c1cc(S(=O)(=O)N2CCOCC2)ccc1[O-])c1ccc(O)c(S(=O)(=O)N2CCCC2)c1 (3D coordinates assigned)
O=C([N-]c1cc(S(=O)(=O)N2CCOCC2)ccc1[O-])c1ccc(O)c(S(=O)(=O)N2CCCC2)c1 (nonaromatic ring conformer: 80.00125783658821 kcal/mol)

>  <smiles>  (36) 
O=C(Nc1cc(S(=O)(=O)N2CCOCC2)ccc1O)c1ccc(O)c(S(=O)(=O)N2CCCC2)c1

>  <score_type>  (36) 
oracle

>  <origin>  (36) 
adgpu

>  <m_score__min__energy>  (36) 
-14.279999999999999

>  <m_primary>  (36) 
energy

$$$$
36:0
     RDKit          3D

 47 49  0  0  0  0  0  0  0  0999 V2000
   -3.8500   15.7590  -34.5730 C   0  0  0  0  0  0  0  0  0  0  0  0
   -4.0990   16.4620  -33.3050 N   0  0  0  0  0  0  0  0  0  0  0  0
   -5.3720   16.0200  -32.6810 C   0  0  0  0  0  0  0  0  0  0  0  0
   -6.4990   17.0460  -32.8640 C   0  0  0  0  0  0  0  0  0  0  0  0
   -6.1450   18.3430  -32.2500 N   0  0  0  0  0  0  0  0  0  0  0  0
   -7.1470   19.6090  -32.9150 S   0  0  0  0  0  0  0  0  0  0  0  0
   -8.6010   19.2620  -32.7390 O   0  0  0  0  0  0  0  0  0  0  0  0
   -6.8640   19.7590  -34.3840 O   0  0  0  0  0  0  0  0  0  0  0  0
   -6.7960   21.1380  -32.1130 C   0  0  0  0  0  0  0  0  0  0  0  0
   -7.3980   21.4540  -30.8860 C   0  0  0  0  0  0  0  0  0  0  0  0
   -7.0970   22.6590  -30.2460 C   0  0  0  0  0  0  0  0  0  0  0  0
   -6.1940   23.5600  -30.8260 C   0  0  0  0  0  0  0  0  0  0  0  0
   -5.8350   25.0840  -30.0200 S   0  0  0  0  0  0  0  0  0  0  0  0
   -7.0740   25.6580  -29.3910 O   0  0  0  0  0  0  0  0  0  0  0  0
   -5.3110   26.0560  -31.0390 O   0  0  0  0  0  0  0  0  0  0  0  0
   -4.6350   24.8380  -28.7910 N   0  0  0  0  0  0  0  0  0  0  0  0
   -3.5670   23.8760  -28.8960 C   0  0  0  0  0  0  0  0  0  0  0  0
   -3.8000   22.4970  -28.7280 C   0  0  0  0  0  0  0  0  0  0  0  0
   -2.7490   21.5810  -28.8390 C   0  0  0  0  0  0  0  0  0  0  0  0
   -1.4560   22.0280  -29.1120 C   0  0  0  0  0  0  0  0  0  0  0  0
   -1.2090   23.3920  -29.2720 C   0  0  0  0  0  0  0  0  0  0  0  0
   -2.2550   24.3150  -29.1650 C   0  0  0  0  0  0  0  0  0  0  0  0
   -1.9830   25.6690  -29.3330 O   0  0  0  0  0  0  0  0  0  0  0  0
   -5.5830   23.2400  -32.0450 C   0  0  0  0  0  0  0  0  0  0  0  0
   -5.8820   22.0330  -32.6850 C   0  0  0  0  0  0  0  0  0  0  0  0
   -4.7060   18.6870  -32.3660 C   0  0  0  0  0  0  0  0  0  0  0  0
   -4.0120   17.9270  -33.5050 C   0  0  0  0  0  0  0  0  0  0  0  0
   -3.4895   14.7411  -34.3633 H   0  0  0  0  0  0  0  0  0  0  0  0
   -4.7838   15.7052  -35.1519 H   0  0  0  0  0  0  0  0  0  0  0  0
   -3.0906   16.3050  -35.1519 H   0  0  0  0  0  0  0  0  0  0  0  0
   -5.6805   15.0701  -33.1419 H   0  0  0  0  0  0  0  0  0  0  0  0
   -5.1947   15.9046  -31.6015 H   0  0  0  0  0  0  0  0  0  0  0  0
   -6.6779   17.1948  -33.9391 H   0  0  0  0  0  0  0  0  0  0  0  0
   -7.4037   16.6619  -32.3701 H   0  0  0  0  0  0  0  0  0  0  0  0
   -8.1088   20.7514  -30.4266 H   0  0  0  0  0  0  0  0  0  0  0  0
   -7.5707   22.9013  -29.2832 H   0  0  0  0  0  0  0  0  0  0  0  0
   -4.6610   25.4910  -27.9780 H   0  0  0  0  0  0  0  0  0  0  0  0
   -4.8162   22.1379  -28.5079 H   0  0  0  0  0  0  0  0  0  0  0  0
   -2.9423   20.5057  -28.7108 H   0  0  0  0  0  0  0  0  0  0  0  0
   -0.6314   21.3054  -29.2011 H   0  0  0  0  0  0  0  0  0  0  0  0
   -0.1881   23.7429  -29.4830 H   0  0  0  0  0  0  0  0  0  0  0  0
   -4.8664   23.9396  -32.5000 H   0  0  0  0  0  0  0  0  0  0  0  0
   -5.3978   21.7852  -33.6411 H   0  0  0  0  0  0  0  0  0  0  0  0
   -4.6152   19.7668  -32.5552 H   0  0  0  0  0  0  0  0  0  0  0  0
   -4.2158   18.3999  -31.4241 H   0  0  0  0  0  0  0  0  0  0  0  0
   -4.4964   18.1881  -34.4575 H   0  0  0  0  0  0  0  0  0  0  0  0
   -2.9500   18.2135  -33.5174 H   0  0  0  0  0  0  0  0  0  0  0  0
  1  2  1  0
  2  3  1  0
  3  4  1  0
  4  5  1  0
  5  6  1  0
  6  7  2  0
  6  8  2  0
  6  9  1  0
  9 10  2  0
 10 11  1  0
 11 12  2  0
 12 13  1  0
 13 14  2  0
 13 15  2  0
 13 16  1  0
 16 17  1  0
 17 18  2  0
 18 19  1  0
 19 20  2  0
 20 21  1  0
 21 22  2  0
 22 23  1  0
 12 24  1  0
 24 25  2  0
  5 26  1  0
 26 27  1  0
 27  2  1  0
 25  9  1  0
 22 17  1  0
  1 28  1  0
  1 29  1  0
  1 30  1  0
  3 31  1  0
  3 32  1  0
  4 33  1  0
  4 34  1  0
 10 35  1  0
 11 36  1  0
 16 37  1  0
 18 38  1  0
 19 39  1  0
 20 40  1  0
 21 41  1  0
 24 42  1  0
 25 43  1  0
 26 44  1  0
 26 45  1  0
 27 46  1  0
 27 47  1  0
M  CHG  1  23  -1
M  END
>  <UniqueID>  (37) 
34

>  <SMILES>  (37) 
CN1CCN(S(=O)(=O)c2ccc(S(=O)(=O)Nc3ccccc3[O-])cc2)CC1

>  <Energy>  (37) 
61.673376751710656

>  <Genealogy>  (37) 
CN1CCN(S(=O)(=O)c2ccc(S(=O)(=O)Nc3ccccc3[O-])cc2)CC1 (protonated)
CN1CCN(S(=O)(=O)c2ccc(S(=O)(=O)Nc3ccccc3[O-])cc2)CC1 (3D coordinates assigned)
CN1CCN(S(=O)(=O)c2ccc(S(=O)(=O)Nc3ccccc3[O-])cc2)CC1 (nonaromatic ring conformer: 61.673376751710656 kcal/mol)

>  <smiles>  (37) 
CN1CCN(S(=O)(=O)c2ccc(S(=O)(=O)Nc3ccccc3O)cc2)CC1

>  <score_type>  (37) 
oracle

>  <origin>  (37) 
adgpu

>  <m_score__min__energy>  (37) 
-13.67

>  <m_primary>  (37) 
energy

$$$$
37:0
     RDKit          3D

 72 75  0  0  0  0  0  0  0  0999 V2000
    0.9210   27.9200  -23.0210 C   0  0  0  0  0  0  0  0  0  0  0  0
   -0.0890   27.8140  -24.0920 N   0  0  0  0  0  0  0  0  0  0  0  0
   -1.2170   26.9270  -23.7170 C   0  0  0  0  0  0  0  0  0  0  0  0
   -1.2310   25.5840  -24.4780 C   0  0  0  0  0  0  0  0  0  0  0  0
    0.1390   25.0630  -24.6460 N   0  0  0  0  0  0  0  0  0  0  0  0
    0.0890   23.4970  -25.4230 S   0  0  0  0  0  0  0  0  0  0  0  0
    1.4800   23.0570  -25.7940 O   0  0  0  0  0  0  0  0  0  0  0  0
   -0.4940   22.4870  -24.4710 O   0  0  0  0  0  0  0  0  0  0  0  0
   -0.8990   23.5530  -26.8830 C   0  0  0  0  0  0  0  0  0  0  0  0
   -1.3280   24.7810  -27.4010 C   0  0  0  0  0  0  0  0  0  0  0  0
   -2.0610   24.8200  -28.5900 C   0  0  0  0  0  0  0  0  0  0  0  0
   -2.3700   23.6330  -29.2660 C   0  0  0  0  0  0  0  0  0  0  0  0
   -1.9580   22.3950  -28.7420 C   0  0  0  0  0  0  0  0  0  0  0  0
   -2.2210   21.1820  -29.3950 O   0  0  0  0  0  0  0  0  0  0  0  0
   -2.6020   21.0300  -30.7390 C   0  0  0  0  0  0  0  0  0  0  0  0
   -1.6100   21.1330  -31.7140 C   0  0  0  0  0  0  0  0  0  0  0  0
   -1.9110   20.9280  -33.0640 C   0  0  0  0  0  0  0  0  0  0  0  0
   -0.8360   20.9890  -34.0750 C   0  0  0  0  0  0  0  0  0  0  0  0
   -0.5100   22.1130  -34.5500 O   0  0  0  0  0  0  0  0  0  0  0  0
   -0.1510   19.8000  -34.5190 N   0  0  0  0  0  0  0  0  0  0  0  0
   -0.8650   18.5230  -34.6050 C   0  0  0  0  0  0  0  0  0  0  0  0
    1.2240   19.9150  -35.0160 C   0  0  0  0  0  0  0  0  0  0  0  0
   -3.2200   20.5920  -33.4370 C   0  0  0  0  0  0  0  0  0  0  0  0
   -4.2540   20.4910  -32.4780 C   0  0  0  0  0  0  0  0  0  0  0  0
   -5.6190   20.1500  -32.8720 N   0  0  0  0  0  0  0  0  0  0  0  0
   -5.9850   18.7520  -33.1450 C   0  0  0  0  0  0  0  0  0  0  0  0
   -6.6480   21.1900  -33.0780 C   0  0  0  0  0  0  0  0  0  0  0  0
   -6.5620   22.2680  -32.0280 C   0  0  0  0  0  0  0  0  0  0  0  0
   -5.7670   23.4090  -32.2380 C   0  0  0  0  0  0  0  0  0  0  0  0
   -5.6930   24.4060  -31.2580 C   0  0  0  0  0  0  0  0  0  0  0  0
   -6.4060   24.2690  -30.0640 C   0  0  0  0  0  0  0  0  0  0  0  0
   -7.1780   23.1240  -29.8380 C   0  0  0  0  0  0  0  0  0  0  0  0
   -7.2430   22.1200  -30.8060 C   0  0  0  0  0  0  0  0  0  0  0  0
   -3.9160   20.7120  -31.1240 C   0  0  0  0  0  0  0  0  0  0  0  0
   -1.2110   22.3660  -27.5610 C   0  0  0  0  0  0  0  0  0  0  0  0
    1.0110   25.9930  -25.4140 C   0  0  0  0  0  0  0  0  0  0  0  0
    0.5150   27.4550  -25.3880 C   0  0  0  0  0  0  0  0  0  0  0  0
    0.4235   27.8678  -22.0413 H   0  0  0  0  0  0  0  0  0  0  0  0
    1.6399   27.0924  -23.1117 H   0  0  0  0  0  0  0  0  0  0  0  0
    1.4524   28.8788  -23.1117 H   0  0  0  0  0  0  0  0  0  0  0  0
   -1.1485   26.7149  -22.6398 H   0  0  0  0  0  0  0  0  0  0  0  0
   -2.1439   27.4564  -23.9829 H   0  0  0  0  0  0  0  0  0  0  0  0
   -1.8274   24.8542  -23.9108 H   0  0  0  0  0  0  0  0  0  0  0  0
   -1.6708   25.7470  -25.4730 H   0  0  0  0  0  0  0  0  0  0  0  0
    0.5510   24.9090  -23.6950 H   0  0  0  0  0  0  0  0  0  0  0  0
   -1.0880   25.7151  -26.8720 H   0  0  0  0  0  0  0  0  0  0  0  0
   -2.3963   25.7857  -28.9962 H   0  0  0  0  0  0  0  0  0  0  0  0
   -2.9360   23.6693  -30.2085 H   0  0  0  0  0  0  0  0  0  0  0  0
   -0.5794   21.3782  -31.4177 H   0  0  0  0  0  0  0  0  0  0  0  0
   -1.0733   18.1504  -33.5912 H   0  0  0  0  0  0  0  0  0  0  0  0
   -1.8127   18.6684  -35.1442 H   0  0  0  0  0  0  0  0  0  0  0  0
   -0.2449   17.7918  -35.1442 H   0  0  0  0  0  0  0  0  0  0  0  0
    1.9180   19.9730  -34.1645 H   0  0  0  0  0  0  0  0  0  0  0  0
    1.4675   19.0341  -35.6281 H   0  0  0  0  0  0  0  0  0  0  0  0
    1.3178   20.8241  -35.6281 H   0  0  0  0  0  0  0  0  0  0  0  0
   -3.4471   20.4032  -34.4966 H   0  0  0  0  0  0  0  0  0  0  0  0
   -6.1250   18.2172  -32.1940 H   0  0  0  0  0  0  0  0  0  0  0  0
   -6.9207   18.7240  -33.7226 H   0  0  0  0  0  0  0  0  0  0  0  0
   -5.1830   18.2691  -33.7226 H   0  0  0  0  0  0  0  0  0  0  0  0
   -6.5036   21.6443  -34.0693 H   0  0  0  0  0  0  0  0  0  0  0  0
   -7.6377   20.7154  -33.0051 H   0  0  0  0  0  0  0  0  0  0  0  0
   -5.2016   23.5184  -33.1752 H   0  0  0  0  0  0  0  0  0  0  0  0
   -5.0728   25.2984  -31.4281 H   0  0  0  0  0  0  0  0  0  0  0  0
   -6.3604   25.0610  -29.3020 H   0  0  0  0  0  0  0  0  0  0  0  0
   -7.7348   23.0147  -28.8957 H   0  0  0  0  0  0  0  0  0  0  0  0
   -7.8291   21.2095  -30.6123 H   0  0  0  0  0  0  0  0  0  0  0  0
   -4.6981   20.6335  -30.3545 H   0  0  0  0  0  0  0  0  0  0  0  0
   -0.8644   21.4023  -27.1595 H   0  0  0  0  0  0  0  0  0  0  0  0
    2.0225   25.9595  -24.9831 H   0  0  0  0  0  0  0  0  0  0  0  0
    0.9969   25.6622  -26.4630 H   0  0  0  0  0  0  0  0  0  0  0  0
    1.3685   28.1223  -25.5783 H   0  0  0  0  0  0  0  0  0  0  0  0
   -0.2580   27.5637  -26.1631 H   0  0  0  0  0  0  0  0  0  0  0  0
  1  2  1  0
  2  3  1  0
  3  4  1  0
  4  5  1  0
  5  6  1  0
  6  7  2  0
  6  8  2  0
  6  9  1  0
  9 10  2  0
 10 11  1  0
 11 12  2  0
 12 13  1  0
 13 14  1  0
 14 15  1  0
 15 16  2  0
 16 17  1  0
 17 18  1  0
 18 19  2  0
 18 20  1  0
 20 21  1  0
 20 22  1  0
 17 23  2  0
 23 24  1  0
 24 25  1  0
 25 26  1  0
 25 27  1  0
 27 28  1  0
 28 29  2  0
 29 30  1  0
 30 31  2  0
 31 32  1  0
 32 33  2  0
 24 34  2  0
 13 35  2  0
  5 36  1  0
 36 37  1  0
 37  2  1  0
 35  9  1  0
 34 15  1  0
 33 28  1  0
  1 38  1  0
  1 39  1  0
  1 40  1  0
  3 41  1  0
  3 42  1  0
  4 43  1  0
  4 44  1  0
  5 45  1  0
 10 46  1  0
 11 47  1  0
 12 48  1  0
 16 49  1  0
 21 50  1  0
 21 51  1  0
 21 52  1  0
 22 53  1  0
 22 54  1  0
 22 55  1  0
 23 56  1  0
 26 57  1  0
 26 58  1  0
 26 59  1  0
 27 60  1  0
 27 61  1  0
 29 62  1  0
 30 63  1  0
 31 64  1  0
 32 65  1  0
 33 66  1  0
 34 67  1  0
 35 68  1  0
 36 69  1  0
 36 70  1  0
 37 71  1  0
 37 72  1  0
M  CHG  1   5   1
M  END
>  <UniqueID>  (38) 
35

>  <SMILES>  (38) 
CN1CC[NH+](S(=O)(=O)c2cccc(Oc3cc(C(=O)N(C)C)cc(N(C)Cc4ccccc4)c3)c2)CC1

>  <Energy>  (38) 
96.51114137125248

>  <Genealogy>  (38) 
CN1CC[NH+](S(=O)(=O)c2cccc(Oc3cc(C(=O)N(C)C)cc(N(C)Cc4ccccc4)c3)c2)CC1 (protonated)
CN1CC[NH+](S(=O)(=O)c2cccc(Oc3cc(C(=O)N(C)C)cc(N(C)Cc4ccccc4)c3)c2)CC1 (3D coordinates assigned)
CN1CC[NH+](S(=O)(=O)c2cccc(Oc3cc(C(=O)N(C)C)cc(N(C)Cc4ccccc4)c3)c2)CC1 (nonaromatic ring conformer: 96.51114137125248 kcal/mol)

>  <smiles>  (38) 
CN1CCN(S(=O)(=O)c2cccc(Oc3cc(C(=O)N(C)C)cc(N(C)Cc4ccccc4)c3)c2)CC1

>  <score_type>  (38) 
oracle

>  <origin>  (38) 
adgpu

>  <m_score__min__energy>  (38) 
-10.25

>  <m_primary>  (38) 
energy

$$$$
38:0
     RDKit          3D

 57 60  0  0  0  0  0  0  0  0999 V2000
   -4.6960   19.8690  -33.8110 O   0  0  0  0  0  0  0  0  0  0  0  0
   -5.8140   19.3040  -33.9560 C   0  0  0  0  0  0  0  0  0  0  0  0
   -5.8750   17.9390  -34.5740 C   0  0  0  0  0  0  0  0  0  0  0  0
   -6.8640   17.0950  -33.8700 N   0  0  0  0  0  0  0  0  0  0  0  0
   -6.6780   17.1040  -32.4160 C   0  0  0  0  0  0  0  0  0  0  0  0
   -5.3630   16.4450  -31.9740 C   0  0  0  0  0  0  0  0  0  0  0  0
   -4.9200   15.2940  -32.7970 N   0  0  0  0  0  0  0  0  0  0  0  0
   -3.7000   14.5780  -32.4010 C   0  0  0  0  0  0  0  0  0  0  0  0
   -3.7790   13.3990  -31.6180 C   0  0  0  0  0  0  0  0  0  0  0  0
   -2.6240   12.7110  -31.2450 C   0  0  0  0  0  0  0  0  0  0  0  0
   -1.4050   13.1650  -31.6240 N   0  0  0  0  0  0  0  0  0  0  0  0
   -1.2700   14.2920  -32.3640 C   0  0  0  0  0  0  0  0  0  0  0  0
   -2.3950   15.0210  -32.7640 C   0  0  0  0  0  0  0  0  0  0  0  0
   -2.1670   16.1450  -33.4850 F   0  0  0  0  0  0  0  0  0  0  0  0
   -5.6010   14.9400  -34.0620 C   0  0  0  0  0  0  0  0  0  0  0  0
   -6.9050   15.7010  -34.3340 C   0  0  0  0  0  0  0  0  0  0  0  0
   -7.0200   19.9530  -33.5240 N   0  0  0  0  0  0  0  0  0  0  0  0
   -7.0550   21.0220  -32.5640 C   0  0  0  0  0  0  0  0  0  0  0  0
   -8.2770   21.3730  -31.9680 C   0  0  0  0  0  0  0  0  0  0  0  0
   -8.3310   22.3860  -31.0090 C   0  0  0  0  0  0  0  0  0  0  0  0
   -7.1630   23.0500  -30.6230 C   0  0  0  0  0  0  0  0  0  0  0  0
   -5.9330   22.6950  -31.1930 C   0  0  0  0  0  0  0  0  0  0  0  0
   -4.4470   23.5050  -30.7020 S   0  0  0  0  0  0  0  0  0  0  0  0
   -4.6520   24.9880  -30.8280 O   0  0  0  0  0  0  0  0  0  0  0  0
   -3.3120   23.0890  -31.5980 O   0  0  0  0  0  0  0  0  0  0  0  0
   -4.0760   23.0960  -29.0400 N   0  0  0  0  0  0  0  0  0  0  0  0
   -2.8100   22.3600  -28.9610 C   0  0  0  0  0  0  0  0  0  0  0  0
   -1.6930   23.3640  -28.7180 C   0  0  0  0  0  0  0  0  0  0  0  0
   -2.3810   24.6280  -28.2370 C   0  0  0  0  0  0  0  0  0  0  0  0
   -3.8710   24.3130  -28.2460 C   0  0  0  0  0  0  0  0  0  0  0  0
   -5.8810   21.6790  -32.1560 C   0  0  0  0  0  0  0  0  0  0  0  0
   -6.1662   18.0328  -35.6306 H   0  0  0  0  0  0  0  0  0  0  0  0
   -4.8843   17.4678  -34.4938 H   0  0  0  0  0  0  0  0  0  0  0  0
   -6.6807   18.1478  -32.0689 H   0  0  0  0  0  0  0  0  0  0  0  0
   -7.5012   16.5222  -31.9759 H   0  0  0  0  0  0  0  0  0  0  0  0
   -4.5727   17.2095  -32.0065 H   0  0  0  0  0  0  0  0  0  0  0  0
   -5.5489   16.0435  -30.9669 H   0  0  0  0  0  0  0  0  0  0  0  0
   -4.7625   13.0221  -31.3007 H   0  0  0  0  0  0  0  0  0  0  0  0
   -2.7034   11.7956  -30.6403 H   0  0  0  0  0  0  0  0  0  0  0  0
   -0.2663   14.6370  -32.6530 H   0  0  0  0  0  0  0  0  0  0  0  0
   -4.9077   15.1447  -34.8911 H   0  0  0  0  0  0  0  0  0  0  0  0
   -5.8780   13.8791  -33.9744 H   0  0  0  0  0  0  0  0  0  0  0  0
   -7.0932   15.6977  -35.4178 H   0  0  0  0  0  0  0  0  0  0  0  0
   -7.7053   15.1921  -33.7766 H   0  0  0  0  0  0  0  0  0  0  0  0
   -7.9220   19.6510  -33.9580 H   0  0  0  0  0  0  0  0  0  0  0  0
   -9.1979   20.8462  -32.2587 H   0  0  0  0  0  0  0  0  0  0  0  0
   -9.2946   22.6623  -30.5561 H   0  0  0  0  0  0  0  0  0  0  0  0
   -7.2094   23.8517  -29.8713 H   0  0  0  0  0  0  0  0  0  0  0  0
   -2.8495   21.6384  -28.1317 H   0  0  0  0  0  0  0  0  0  0  0  0
   -2.6305   21.8097  -29.8964 H   0  0  0  0  0  0  0  0  0  0  0  0
   -0.9989   22.9887  -27.9516 H   0  0  0  0  0  0  0  0  0  0  0  0
   -1.1004   23.5429  -29.6273 H   0  0  0  0  0  0  0  0  0  0  0  0
   -2.0486   24.8826  -27.2198 H   0  0  0  0  0  0  0  0  0  0  0  0
   -2.1436   25.4895  -28.8784 H   0  0  0  0  0  0  0  0  0  0  0  0
   -4.2237   24.1503  -27.2169 H   0  0  0  0  0  0  0  0  0  0  0  0
   -4.4346   25.1512  -28.6817 H   0  0  0  0  0  0  0  0  0  0  0  0
   -4.9143   21.3931  -32.5962 H   0  0  0  0  0  0  0  0  0  0  0  0
  1  2  2  0
  2  3  1  0
  3  4  1  0
  4  5  1  0
  5  6  1  0
  6  7  1  0
  7  8  1  0
  8  9  2  0
  9 10  1  0
 10 11  2  0
 11 12  1  0
 12 13  2  0
 13 14  1  0
  7 15  1  0
 15 16  1  0
  2 17  1  0
 17 18  1  0
 18 19  2  0
 19 20  1  0
 20 21  2  0
 21 22  1  0
 22 23  1  0
 23 24  2  0
 23 25  2  0
 23 26  1  0
 26 27  1  0
 27 28  1  0
 28 29  1  0
 29 30  1  0
 22 31  2  0
 16  4  1  0
 31 18  1  0
 13  8  1  0
 30 26  1  0
  3 32  1  0
  3 33  1  0
  5 34  1  0
  5 35  1  0
  6 36  1  0
  6 37  1  0
  9 38  1  0
 10 39  1  0
 12 40  1  0
 15 41  1  0
 15 42  1  0
 16 43  1  0
 16 44  1  0
 17 45  1  0
 19 46  1  0
 20 47  1  0
 21 48  1  0
 27 49  1  0
 27 50  1  0
 28 51  1  0
 28 52  1  0
 29 53  1  0
 29 54  1  0
 30 55  1  0
 30 56  1  0
 31 57  1  0
M  END
>  <UniqueID>  (39) 
36

>  <SMILES>  (39) 
O=C(CN1CCN(c2ccncc2F)CC1)Nc1cccc(S(=O)(=O)N2CCCC2)c1

>  <Energy>  (39) 
77.71036532824789

>  <Genealogy>  (39) 
O=C(CN1CCN(c2ccncc2F)CC1)Nc1cccc(S(=O)(=O)N2CCCC2)c1 (3D coordinates assigned)
O=C(CN1CCN(c2ccncc2F)CC1)Nc1cccc(S(=O)(=O)N2CCCC2)c1 (nonaromatic ring conformer: 77.71036532824789 kcal/mol)

>  <smiles>  (39) 
O=C(CN1CCN(c2ccncc2F)CC1)Nc1cccc(S(=O)(=O)N2CCCC2)c1

>  <score_type>  (39) 
oracle

>  <origin>  (39) 
adgpu

>  <m_score__min__energy>  (39) 
-9.3900000000000006

>  <m_primary>  (39) 
energy

$$$$
39:0
     RDKit          3D

 55 58  0  0  0  0  0  0  0  0999 V2000
   -0.5470   26.6800  -25.0300 C   0  0  0  0  0  0  0  0  0  0  0  0
   -1.2350   25.9640  -26.1530 C   0  0  0  0  0  0  0  0  0  0  0  0
   -0.6280   25.8750  -27.4150 C   0  0  0  0  0  0  0  0  0  0  0  0
   -1.2510   25.1710  -28.4500 C   0  0  0  0  0  0  0  0  0  0  0  0
   -2.4830   24.5300  -28.2340 C   0  0  0  0  0  0  0  0  0  0  0  0
   -3.1310   23.8050  -29.2980 N   0  0  0  0  0  0  0  0  0  0  0  0
   -3.2050   22.4630  -29.4150 C   0  0  0  0  0  0  0  0  0  0  0  0
   -3.8990   22.1290  -30.5680 C   0  0  0  0  0  0  0  0  0  0  0  0
   -4.1750   20.7630  -31.0470 C   0  0  0  0  0  0  0  0  0  0  0  0
   -3.2100   19.9800  -31.2630 O   0  0  0  0  0  0  0  0  0  0  0  0
   -5.5270   20.3100  -31.2300 N   0  0  0  0  0  0  0  0  0  0  0  0
   -5.8840   19.1490  -32.0010 C   0  0  0  0  0  0  0  0  0  0  0  0
   -7.1680   18.6010  -31.8670 C   0  0  0  0  0  0  0  0  0  0  0  0
   -7.5470   17.4920  -32.6270 C   0  0  0  0  0  0  0  0  0  0  0  0
   -6.6510   16.9280  -33.5390 C   0  0  0  0  0  0  0  0  0  0  0  0
   -5.3720   17.4750  -33.6990 C   0  0  0  0  0  0  0  0  0  0  0  0
   -4.2720   16.7930  -34.8960 S   0  0  0  0  0  0  0  0  0  0  0  0
   -4.5850   17.3960  -36.2360 O   0  0  0  0  0  0  0  0  0  0  0  0
   -4.4690   15.3050  -34.9820 O   0  0  0  0  0  0  0  0  0  0  0  0
   -2.6190   17.1520  -34.4610 N   0  0  0  0  0  0  0  0  0  0  0  0
   -2.4040   16.8710  -33.0240 C   0  0  0  0  0  0  0  0  0  0  0  0
   -0.9150   16.7270  -32.6970 C   0  0  0  0  0  0  0  0  0  0  0  0
   -0.2960   15.5380  -33.4540 C   0  0  0  0  0  0  0  0  0  0  0  0
   -1.0460   15.2060  -34.7550 C   0  0  0  0  0  0  0  0  0  0  0  0
   -1.6690   16.4660  -35.3730 C   0  0  0  0  0  0  0  0  0  0  0  0
   -4.9940   18.5900  -32.9380 C   0  0  0  0  0  0  0  0  0  0  0  0
   -4.2540   23.3160  -31.1860 C   0  0  0  0  0  0  0  0  0  0  0  0
   -3.7610   24.3170  -30.3770 C   0  0  0  0  0  0  0  0  0  0  0  0
   -3.8620   25.6750  -30.6580 O   0  0  0  0  0  0  0  0  0  0  0  0
   -3.0850   24.6160  -26.9660 C   0  0  0  0  0  0  0  0  0  0  0  0
   -2.4610   25.3180  -25.9320 C   0  0  0  0  0  0  0  0  0  0  0  0
   -0.9170   26.2949  -24.0683 H   0  0  0  0  0  0  0  0  0  0  0  0
    0.5381   26.5129  -25.0988 H   0  0  0  0  0  0  0  0  0  0  0  0
   -0.7572   27.7575  -25.0988 H   0  0  0  0  0  0  0  0  0  0  0  0
    0.3428   26.3615  -27.5909 H   0  0  0  0  0  0  0  0  0  0  0  0
   -0.7738   25.1185  -29.4397 H   0  0  0  0  0  0  0  0  0  0  0  0
   -2.7786   21.7417  -28.7023 H   0  0  0  0  0  0  0  0  0  0  0  0
   -6.2850   20.7930  -30.6990 H   0  0  0  0  0  0  0  0  0  0  0  0
   -7.8814   19.0475  -31.1587 H   0  0  0  0  0  0  0  0  0  0  0  0
   -8.5524   17.0620  -32.5074 H   0  0  0  0  0  0  0  0  0  0  0  0
   -6.9512   16.0520  -34.1328 H   0  0  0  0  0  0  0  0  0  0  0  0
   -2.8217   17.6984  -32.4316 H   0  0  0  0  0  0  0  0  0  0  0  0
   -2.9044   15.9225  -32.7792 H   0  0  0  0  0  0  0  0  0  0  0  0
   -0.3920   17.6500  -32.9877 H   0  0  0  0  0  0  0  0  0  0  0  0
   -0.8093   16.5479  -31.6168 H   0  0  0  0  0  0  0  0  0  0  0  0
    0.7471   15.7837  -33.7022 H   0  0  0  0  0  0  0  0  0  0  0  0
   -0.3621   14.6569  -32.7988 H   0  0  0  0  0  0  0  0  0  0  0  0
   -0.3397   14.7652  -35.4739 H   0  0  0  0  0  0  0  0  0  0  0  0
   -1.8536   14.4969  -34.5206 H   0  0  0  0  0  0  0  0  0  0  0  0
   -0.8608   17.1670  -35.6288 H   0  0  0  0  0  0  0  0  0  0  0  0
   -2.2361   16.1503  -36.2611 H   0  0  0  0  0  0  0  0  0  0  0  0
   -3.9955   19.0311  -33.0738 H   0  0  0  0  0  0  0  0  0  0  0  0
   -4.8127   23.4352  -32.1260 H   0  0  0  0  0  0  0  0  0  0  0  0
   -4.0540   24.1271  -26.7871 H   0  0  0  0  0  0  0  0  0  0  0  0
   -2.9330   25.3647  -24.9395 H   0  0  0  0  0  0  0  0  0  0  0  0
  1  2  1  0
  2  3  2  0
  3  4  1  0
  4  5  2  0
  5  6  1  0
  6  7  1  0
  7  8  2  0
  8  9  1  0
  9 10  2  0
  9 11  1  0
 11 12  1  0
 12 13  2  0
 13 14  1  0
 14 15  2  0
 15 16  1  0
 16 17  1  0
 17 18  2  0
 17 19  2  0
 17 20  1  0
 20 21  1  0
 21 22  1  0
 22 23  1  0
 23 24  1  0
 24 25  1  0
 16 26  2  0
  8 27  1  0
 27 28  2  0
 28 29  1  0
  5 30  1  0
 30 31  2  0
 31  2  1  0
 28  6  1  0
 26 12  1  0
 25 20  1  0
  1 32  1  0
  1 33  1  0
  1 34  1  0
  3 35  1  0
  4 36  1  0
  7 37  1  0
 11 38  1  0
 13 39  1  0
 14 40  1  0
 15 41  1  0
 21 42  1  0
 21 43  1  0
 22 44  1  0
 22 45  1  0
 23 46  1  0
 23 47  1  0
 24 48  1  0
 24 49  1  0
 25 50  1  0
 25 51  1  0
 26 52  1  0
 27 53  1  0
 30 54  1  0
 31 55  1  0
M  CHG  1  29  -1
M  END
>  <UniqueID>  (40) 
37

>  <SMILES>  (40) 
Cc1ccc(-n2cc(C(=O)Nc3cccc(S(=O)(=O)N4CCCCC4)c3)cc2[O-])cc1

>  <Energy>  (40) 
97.41207885634242

>  <Genealogy>  (40) 
Cc1ccc(-n2cc(C(=O)Nc3cccc(S(=O)(=O)N4CCCCC4)c3)cc2[O-])cc1 (protonated)
Cc1ccc(-n2cc(C(=O)Nc3cccc(S(=O)(=O)N4CCCCC4)c3)cc2[O-])cc1 (3D coordinates assigned)
Cc1ccc(-n2cc(C(=O)Nc3cccc(S(=O)(=O)N4CCCCC4)c3)cc2[O-])cc1 (nonaromatic ring conformer: 97.41207885634242 kcal/mol)

>  <smiles>  (40) 
Cc1ccc(-n2cc(C(=O)Nc3cccc(S(=O)(=O)N4CCCCC4)c3)cc2O)cc1

>  <score_type>  (40) 
oracle

>  <origin>  (40) 
adgpu

>  <m_score__min__energy>  (40) 
-11.69

>  <m_primary>  (40) 
energy

$$$$
40:0
     RDKit          3D

 47 49  0  0  0  0  0  0  0  0999 V2000
   -6.6111   16.1110  -34.6583 H   0  0  0  0  0  0  0  0  0  0  0  0
   -6.1610   17.0100  -34.2120 C   0  0  0  0  0  0  0  0  0  0  0  0
   -4.9160   17.4040  -34.5880 N   0  0  0  0  0  0  0  0  0  0  0  0
   -4.3230   18.5110  -34.0600 C   0  0  0  0  0  0  0  0  0  0  0  0
   -3.0480   18.9100  -34.4790 O   0  0  0  0  0  0  0  0  0  0  0  0
   -2.0790   19.4870  -33.6050 C   0  0  0  0  0  0  0  0  0  0  0  0
   -1.0734   19.3136  -34.0159 H   0  0  0  0  0  0  0  0  0  0  0  0
   -2.1725   19.0181  -32.6143 H   0  0  0  0  0  0  0  0  0  0  0  0
   -2.3090   20.9870  -33.4610 C   0  0  0  0  0  0  0  0  0  0  0  0
   -2.3495   21.2510  -32.3939 H   0  0  0  0  0  0  0  0  0  0  0  0
   -1.4840   21.5324  -33.9426 H   0  0  0  0  0  0  0  0  0  0  0  0
   -3.2595   21.2601  -33.9426 H   0  0  0  0  0  0  0  0  0  0  0  0
   -5.0000   19.2700  -33.0980 C   0  0  0  0  0  0  0  0  0  0  0  0
   -4.5306   20.1678  -32.6695 H   0  0  0  0  0  0  0  0  0  0  0  0
   -6.2840   18.8760  -32.6840 C   0  0  0  0  0  0  0  0  0  0  0  0
   -7.0230   19.6100  -31.7460 O   0  0  0  0  0  0  0  0  0  0  0  0
   -7.0730   21.0100  -31.6520 C   0  0  0  0  0  0  0  0  0  0  0  0
   -5.9250   21.7650  -31.3480 C   0  0  0  0  0  0  0  0  0  0  0  0
   -4.9606   21.2553  -31.2059 H   0  0  0  0  0  0  0  0  0  0  0  0
   -5.9970   23.1630  -31.2240 C   0  0  0  0  0  0  0  0  0  0  0  0
   -4.7840   23.9570  -30.9120 C   0  0  0  0  0  0  0  0  0  0  0  0
   -4.8660   25.2120  -30.8300 O   0  0  0  0  0  0  0  0  0  0  0  0
   -3.5250   23.3300  -30.6270 N   0  0  0  0  0  0  0  0  0  0  0  0
   -2.6100   23.7600  -29.8030 C   0  0  0  0  0  0  0  0  0  0  0  0
   -1.4060   23.0530  -29.7020 C   0  0  0  0  0  0  0  0  0  0  0  0
   -1.2312   22.1674  -30.3306 H   0  0  0  0  0  0  0  0  0  0  0  0
   -0.4550   23.4650  -28.8250 N   0  0  0  0  0  0  0  0  0  0  0  0
   -0.6370   24.5610  -28.0450 C   0  0  0  0  0  0  0  0  0  0  0  0
    0.4120   24.9610  -27.0580 C   0  0  0  0  0  0  0  0  0  0  0  0
    0.0295   24.8151  -26.0370 H   0  0  0  0  0  0  0  0  0  0  0  0
    1.3092   24.3419  -27.2053 H   0  0  0  0  0  0  0  0  0  0  0  0
    0.6692   26.0203  -27.2053 H   0  0  0  0  0  0  0  0  0  0  0  0
   -1.8420   25.2660  -28.1320 C   0  0  0  0  0  0  0  0  0  0  0  0
   -2.0116   26.1495  -27.4991 H   0  0  0  0  0  0  0  0  0  0  0  0
   -2.8030   24.8550  -29.0020 N   0  0  0  0  0  0  0  0  0  0  0  0
   -3.7030   25.3840  -29.0080 H   0  0  0  0  0  0  0  0  0  0  0  0
   -7.2360   23.8010  -31.3820 C   0  0  0  0  0  0  0  0  0  0  0  0
   -7.3058   24.8937  -31.2762 H   0  0  0  0  0  0  0  0  0  0  0  0
   -8.3820   23.0570  -31.6730 C   0  0  0  0  0  0  0  0  0  0  0  0
   -9.3479   23.5684  -31.7972 H   0  0  0  0  0  0  0  0  0  0  0  0
   -8.3100   21.6620  -31.8080 C   0  0  0  0  0  0  0  0  0  0  0  0
   -9.5490   20.8680  -32.1120 C   0  0  0  0  0  0  0  0  0  0  0  0
  -10.0280   20.5611  -31.1705 H   0  0  0  0  0  0  0  0  0  0  0  0
  -10.2476   21.4870  -32.6940 H   0  0  0  0  0  0  0  0  0  0  0  0
   -9.2784   19.9747  -32.6940 H   0  0  0  0  0  0  0  0  0  0  0  0
   -6.8690   17.7450  -33.2600 C   0  0  0  0  0  0  0  0  0  0  0  0
   -7.8824   17.4357  -32.9645 H   0  0  0  0  0  0  0  0  0  0  0  0
  1  2  1  0
  2  3  2  0
  3  4  1  0
  4  5  1  0
  5  6  1  0
  6  7  1  0
  6  8  1  0
  6  9  1  0
  9 10  1  0
  9 11  1  0
  9 12  1  0
  4 13  2  0
 13 14  1  0
 13 15  1  0
 15 16  1  0
 16 17  1  0
 17 18  2  0
 18 19  1  0
 18 20  1  0
 20 21  1  0
 21 22  2  0
 21 23  1  0
 23 24  2  0
 24 25  1  0
 25 26  1  0
 25 27  2  0
 27 28  1  0
 28 29  1  0
 29 30  1  0
 29 31  1  0
 29 32  1  0
 28 33  2  0
 33 34  1  0
 33 35  1  0
 35 36  1  0
 20 37  2  0
 37 38  1  0
 37 39  1  0
 39 40  1  0
 39 41  2  0
 41 42  1  0
 42 43  1  0
 42 44  1  0
 42 45  1  0
 15 46  2  0
 46 47  1  0
 46  2  1  0
 41 17  1  0
 35 24  1  0
M  END
>  <UniqueID>  (41) 
38

>  <SMILES>  (41) 
CCOc1cc(Oc2cc(C(=O)/N=c3/cnc(C)c[nH]3)ccc2C)ccn1

>  <Energy>  (41) 
57.91880513001715

>  <Genealogy>  (41) 
CCOc1cc(Oc2cc(C(=O)/N=c3/cnc(C)c[nH]3)ccc2C)ccn1 (cis-trans isomerization)
CCOc1cc(Oc2cc(C(=O)/N=c3/cnc(C)c[nH]3)ccc2C)ccn1 (3D coordinates assigned)
CCOc1cc(Oc2cc(C(=O)/N=c3/cnc(C)c[nH]3)ccc2C)ccn1 (optimized conformer: 57.91880513001715 kcal/mol)

>  <smiles>  (41) 
CCOc1cc(Oc2cc(C(=O)N=c3cnc(C)c[nH]3)ccc2C)ccn1

>  <score_type>  (41) 
oracle

>  <origin>  (41) 
adgpu

>  <m_score__min__energy>  (41) 
-8.75

>  <m_primary>  (41) 
energy

$$$$
41:0
     RDKit          3D

 57 60  0  0  0  0  0  0  0  0999 V2000
   -8.1450   21.9240  -30.1880 C   0  0  0  0  0  0  0  0  0  0  0  0
   -6.9840   22.8510  -30.4240 C   0  0  0  0  0  0  0  0  0  0  0  0
   -7.0660   23.8400  -31.4160 C   0  0  0  0  0  0  0  0  0  0  0  0
   -6.0200   24.7550  -31.5870 C   0  0  0  0  0  0  0  0  0  0  0  0
   -4.8830   24.6950  -30.7680 C   0  0  0  0  0  0  0  0  0  0  0  0
   -3.8860   25.6650  -30.8980 O   0  0  0  0  0  0  0  0  0  0  0  0
   -4.7750   23.6790  -29.7950 C   0  0  0  0  0  0  0  0  0  0  0  0
   -3.6220   23.5650  -28.9440 N   0  0  0  0  0  0  0  0  0  0  0  0
   -2.2640   23.7110  -29.3720 C   0  0  0  0  0  0  0  0  0  0  0  0
   -1.7280   24.8520  -29.3420 O   0  0  0  0  0  0  0  0  0  0  0  0
   -1.5240   22.5410  -29.9140 C   0  0  0  0  0  0  0  0  0  0  0  0
   -1.8260   22.0900  -31.2150 C   0  0  0  0  0  0  0  0  0  0  0  0
   -1.1540   20.9940  -31.7730 C   0  0  0  0  0  0  0  0  0  0  0  0
   -1.5150   20.4620  -33.4130 S   0  0  0  0  0  0  0  0  0  0  0  0
   -0.8450   19.1430  -33.6830 O   0  0  0  0  0  0  0  0  0  0  0  0
   -0.9890   21.4770  -34.3880 O   0  0  0  0  0  0  0  0  0  0  0  0
   -3.2440   20.3200  -33.5930 N   0  0  0  0  0  0  0  0  0  0  0  0
   -3.9130   21.6000  -33.3670 C   0  0  0  0  0  0  0  0  0  0  0  0
   -5.3120   21.2770  -32.8530 C   0  0  0  0  0  0  0  0  0  0  0  0
   -5.2630   19.8130  -32.4470 C   0  0  0  0  0  0  0  0  0  0  0  0
   -3.8080   19.4110  -32.5960 C   0  0  0  0  0  0  0  0  0  0  0  0
   -0.1540   20.3490  -31.0410 C   0  0  0  0  0  0  0  0  0  0  0  0
    0.1590   20.7780  -29.7520 C   0  0  0  0  0  0  0  0  0  0  0  0
   -0.5150   21.8630  -29.1750 C   0  0  0  0  0  0  0  0  0  0  0  0
   -0.1940   22.2130  -27.8170 N   0  0  0  0  0  0  0  0  0  0  0  0
   -0.6140   21.3390  -26.7170 C   0  0  0  0  0  0  0  0  0  0  0  0
   -0.8640   22.1630  -25.4400 C   0  0  0  0  0  0  0  0  0  0  0  0
    0.1950   23.0660  -25.1870 O   0  0  0  0  0  0  0  0  0  0  0  0
    0.2630   24.0250  -26.2280 C   0  0  0  0  0  0  0  0  0  0  0  0
    0.6730   23.3700  -27.5480 C   0  0  0  0  0  0  0  0  0  0  0  0
   -5.8440   22.7870  -29.6060 C   0  0  0  0  0  0  0  0  0  0  0  0
   -8.3008   21.7996  -29.1062 H   0  0  0  0  0  0  0  0  0  0  0  0
   -9.0520   22.3492  -30.6426 H   0  0  0  0  0  0  0  0  0  0  0  0
   -7.9312   20.9454  -30.6426 H   0  0  0  0  0  0  0  0  0  0  0  0
   -7.9549   23.8967  -32.0614 H   0  0  0  0  0  0  0  0  0  0  0  0
   -6.0904   25.5258  -32.3686 H   0  0  0  0  0  0  0  0  0  0  0  0
   -3.0630   25.6720  -30.2990 H   0  0  0  0  0  0  0  0  0  0  0  0
   -2.6007   22.6061  -31.8010 H   0  0  0  0  0  0  0  0  0  0  0  0
   -3.3613   22.1897  -32.6202 H   0  0  0  0  0  0  0  0  0  0  0  0
   -3.9580   22.1924  -34.2927 H   0  0  0  0  0  0  0  0  0  0  0  0
   -5.5596   21.9087  -31.9872 H   0  0  0  0  0  0  0  0  0  0  0  0
   -6.0822   21.4652  -33.6154 H   0  0  0  0  0  0  0  0  0  0  0  0
   -5.5931   19.6898  -31.4049 H   0  0  0  0  0  0  0  0  0  0  0  0
   -5.9280   19.1912  -33.0644 H   0  0  0  0  0  0  0  0  0  0  0  0
   -3.2804   19.5193  -31.6369 H   0  0  0  0  0  0  0  0  0  0  0  0
   -3.7077   18.3597  -32.9038 H   0  0  0  0  0  0  0  0  0  0  0  0
    0.3881   19.5000  -31.4831 H   0  0  0  0  0  0  0  0  0  0  0  0
    0.9435   20.2593  -29.1815 H   0  0  0  0  0  0  0  0  0  0  0  0
   -1.5416   20.8201  -27.0006 H   0  0  0  0  0  0  0  0  0  0  0  0
    0.1835   20.6078  -26.5186 H   0  0  0  0  0  0  0  0  0  0  0  0
   -1.7976   22.7323  -25.5596 H   0  0  0  0  0  0  0  0  0  0  0  0
   -0.9337   21.4679  -24.5903 H   0  0  0  0  0  0  0  0  0  0  0  0
   -0.7243   24.4943  -26.3503 H   0  0  0  0  0  0  0  0  0  0  0  0
    1.0171   24.7801  -25.9614 H   0  0  0  0  0  0  0  0  0  0  0  0
    0.5730   24.0998  -28.3650 H   0  0  0  0  0  0  0  0  0  0  0  0
    1.7182   23.0340  -27.4790 H   0  0  0  0  0  0  0  0  0  0  0  0
   -5.7875   22.0307  -28.8092 H   0  0  0  0  0  0  0  0  0  0  0  0
  1  2  1  0
  2  3  2  0
  3  4  1  0
  4  5  2  0
  5  6  1  0
  5  7  1  0
  7  8  1  0
  8  9  1  0
  9 10  2  0
  9 11  1  0
 11 12  2  0
 12 13  1  0
 13 14  1  0
 14 15  2  0
 14 16  2  0
 14 17  1  0
 17 18  1  0
 18 19  1  0
 19 20  1  0
 20 21  1  0
 13 22  2  0
 22 23  1  0
 23 24  2  0
 24 25  1  0
 25 26  1  0
 26 27  1  0
 27 28  1  0
 28 29  1  0
 29 30  1  0
  7 31  2  0
 31  2  1  0
 24 11  1  0
 30 25  1  0
 21 17  1  0
  1 32  1  0
  1 33  1  0
  1 34  1  0
  3 35  1  0
  4 36  1  0
  6 37  1  0
 12 38  1  0
 18 39  1  0
 18 40  1  0
 19 41  1  0
 19 42  1  0
 20 43  1  0
 20 44  1  0
 21 45  1  0
 21 46  1  0
 22 47  1  0
 23 48  1  0
 26 49  1  0
 26 50  1  0
 27 51  1  0
 27 52  1  0
 29 53  1  0
 29 54  1  0
 30 55  1  0
 30 56  1  0
 31 57  1  0
M  CHG  1   8  -1
M  END
>  <UniqueID>  (42) 
39

>  <SMILES>  (42) 
Cc1ccc(O)c([N-]C(=O)c2cc(S(=O)(=O)N3CCCC3)ccc2N2CCOCC2)c1

>  <Energy>  (42) 
74.65689957757549

>  <Genealogy>  (42) 
Cc1ccc(O)c([N-]C(=O)c2cc(S(=O)(=O)N3CCCC3)ccc2N2CCOCC2)c1 (protonated)
Cc1ccc(O)c([N-]C(=O)c2cc(S(=O)(=O)N3CCCC3)ccc2N2CCOCC2)c1 (3D coordinates assigned)
Cc1ccc(O)c([N-]C(=O)c2cc(S(=O)(=O)N3CCCC3)ccc2N2CCOCC2)c1 (nonaromatic ring conformer: 74.65689957757549 kcal/mol)

>  <smiles>  (42) 
Cc1ccc(O)c(NC(=O)c2cc(S(=O)(=O)N3CCCC3)ccc2N2CCOCC2)c1

>  <score_type>  (42) 
oracle

>  <origin>  (42) 
adgpu

>  <m_score__min__energy>  (42) 
-10.779999999999999

>  <m_primary>  (42) 
energy

$$$$
42:0
     RDKit          3D

 57 60  0  0  0  0  0  0  0  0999 V2000
   -6.4420   15.8060  -34.1080 O   0  0  0  0  0  0  0  0  0  0  0  0
   -5.4650   16.3180  -33.4930 C   0  0  0  0  0  0  0  0  0  0  0  0
   -4.3190   15.4600  -33.1180 C   0  0  0  0  0  0  0  0  0  0  0  0
   -4.5970   14.2330  -32.4870 C   0  0  0  0  0  0  0  0  0  0  0  0
   -3.5640   13.3680  -32.1230 C   0  0  0  0  0  0  0  0  0  0  0  0
   -2.2400   13.7170  -32.3770 C   0  0  0  0  0  0  0  0  0  0  0  0
   -1.9420   14.9350  -32.9880 C   0  0  0  0  0  0  0  0  0  0  0  0
   -2.9670   15.8180  -33.3770 C   0  0  0  0  0  0  0  0  0  0  0  0
   -2.4960   17.4030  -34.0330 S   0  0  0  0  0  0  0  0  0  0  0  0
   -3.5220   17.8120  -35.0540 O   0  0  0  0  0  0  0  0  0  0  0  0
   -1.1410   17.3440  -34.6830 O   0  0  0  0  0  0  0  0  0  0  0  0
   -2.4460   18.5980  -32.7520 N   0  0  0  0  0  0  0  0  0  0  0  0
   -2.6710   19.9530  -33.2780 C   0  0  0  0  0  0  0  0  0  0  0  0
   -1.6380   20.8650  -32.6470 C   0  0  0  0  0  0  0  0  0  0  0  0
   -0.4850   19.9470  -32.3330 C   0  0  0  0  0  0  0  0  0  0  0  0
   -1.1410   18.6030  -32.0750 C   0  0  0  0  0  0  0  0  0  0  0  0
   -5.5050   17.7130  -33.1030 N   0  0  0  0  0  0  0  0  0  0  0  0
   -6.0960   17.8540  -31.7490 C   0  0  0  0  0  0  0  0  0  0  0  0
   -6.5760   19.2910  -31.4570 C   0  0  0  0  0  0  0  0  0  0  0  0
   -5.9000   20.2570  -32.3420 N   0  0  0  0  0  0  0  0  0  0  0  0
   -6.2500   21.6420  -31.9560 C   0  0  0  0  0  0  0  0  0  0  0  0
   -5.0990   22.2980  -31.2360 C   0  0  0  0  0  0  0  0  0  0  0  0
   -4.1560   21.5190  -30.5430 C   0  0  0  0  0  0  0  0  0  0  0  0
   -3.1260   22.1350  -29.8280 C   0  0  0  0  0  0  0  0  0  0  0  0
   -3.0280   23.5290  -29.8000 C   0  0  0  0  0  0  0  0  0  0  0  0
   -3.9670   24.3110  -30.4830 C   0  0  0  0  0  0  0  0  0  0  0  0
   -3.8730   25.6980  -30.4520 O   0  0  0  0  0  0  0  0  0  0  0  0
   -5.0010   23.6990  -31.1970 C   0  0  0  0  0  0  0  0  0  0  0  0
   -6.2590   19.9990  -33.7580 C   0  0  0  0  0  0  0  0  0  0  0  0
   -6.2600   18.4940  -34.1020 C   0  0  0  0  0  0  0  0  0  0  0  0
   -5.6400   13.9527  -32.2784 H   0  0  0  0  0  0  0  0  0  0  0  0
   -3.7958   12.4098  -31.6351 H   0  0  0  0  0  0  0  0  0  0  0  0
   -1.4277   13.0309  -32.0953 H   0  0  0  0  0  0  0  0  0  0  0  0
   -0.8921   15.2092  -33.1683 H   0  0  0  0  0  0  0  0  0  0  0  0
   -2.5554   19.9550  -34.3719 H   0  0  0  0  0  0  0  0  0  0  0  0
   -3.6882   20.2969  -33.0393 H   0  0  0  0  0  0  0  0  0  0  0  0
   -1.3303   21.6529  -33.3502 H   0  0  0  0  0  0  0  0  0  0  0  0
   -2.0200   21.3851  -31.7562 H   0  0  0  0  0  0  0  0  0  0  0  0
    0.2085   19.8859  -33.1847 H   0  0  0  0  0  0  0  0  0  0  0  0
    0.1118   20.2964  -31.4776 H   0  0  0  0  0  0  0  0  0  0  0  0
   -0.5095   17.7962  -32.4754 H   0  0  0  0  0  0  0  0  0  0  0  0
   -1.2699   18.4414  -30.9946 H   0  0  0  0  0  0  0  0  0  0  0  0
   -4.5240   18.0840  -33.0750 H   0  0  0  0  0  0  0  0  0  0  0  0
   -6.9553   17.1722  -31.6671 H   0  0  0  0  0  0  0  0  0  0  0  0
   -5.3124   17.6096  -31.0167 H   0  0  0  0  0  0  0  0  0  0  0  0
   -7.6620   19.3493  -31.6217 H   0  0  0  0  0  0  0  0  0  0  0  0
   -6.3341   19.5390  -30.4130 H   0  0  0  0  0  0  0  0  0  0  0  0
   -6.4876   22.2206  -32.8609 H   0  0  0  0  0  0  0  0  0  0  0  0
   -7.1200   21.6141  -31.2835 H   0  0  0  0  0  0  0  0  0  0  0  0
   -4.2294   20.4216  -30.5638 H   0  0  0  0  0  0  0  0  0  0  0  0
   -2.3908   21.5219  -29.2861 H   0  0  0  0  0  0  0  0  0  0  0  0
   -2.2128   24.0118  -29.2411 H   0  0  0  0  0  0  0  0  0  0  0  0
   -5.7398   24.3157  -31.7297 H   0  0  0  0  0  0  0  0  0  0  0  0
   -7.2638   20.4049  -33.9469 H   0  0  0  0  0  0  0  0  0  0  0  0
   -5.5013   20.4860  -34.3894 H   0  0  0  0  0  0  0  0  0  0  0  0
   -7.2989   18.1334  -34.1275 H   0  0  0  0  0  0  0  0  0  0  0  0
   -5.7770   18.3624  -35.0815 H   0  0  0  0  0  0  0  0  0  0  0  0
  1  2  2  0
  2  3  1  0
  3  4  2  0
  4  5  1  0
  5  6  2  0
  6  7  1  0
  7  8  2  0
  8  9  1  0
  9 10  2  0
  9 11  2  0
  9 12  1  0
 12 13  1  0
 13 14  1  0
 14 15  1  0
 15 16  1  0
  2 17  1  0
 17 18  1  0
 18 19  1  0
 19 20  1  0
 20 21  1  0
 21 22  1  0
 22 23  2  0
 23 24  1  0
 24 25  2  0
 25 26  1  0
 26 27  1  0
 26 28  2  0
 20 29  1  0
 29 30  1  0
  8  3  1  0
 16 12  1  0
 30 17  1  0
 28 22  1  0
  4 31  1  0
  5 32  1  0
  6 33  1  0
  7 34  1  0
 13 35  1  0
 13 36  1  0
 14 37  1  0
 14 38  1  0
 15 39  1  0
 15 40  1  0
 16 41  1  0
 16 42  1  0
 17 43  1  0
 18 44  1  0
 18 45  1  0
 19 46  1  0
 19 47  1  0
 21 48  1  0
 21 49  1  0
 23 50  1  0
 24 51  1  0
 25 52  1  0
 28 53  1  0
 29 54  1  0
 29 55  1  0
 30 56  1  0
 30 57  1  0
M  CHG  2  17   1  27  -1
M  END
>  <UniqueID>  (43) 
40

>  <SMILES>  (43) 
O=C(c1ccccc1S(=O)(=O)N1CCCC1)[NH+]1CCN(Cc2cccc([O-])c2)CC1

>  <Energy>  (43) 
79.45071101674857

>  <Genealogy>  (43) 
O=C(c1ccccc1S(=O)(=O)N1CCCC1)[NH+]1CCN(Cc2cccc([O-])c2)CC1 (protonated)
O=C(c1ccccc1S(=O)(=O)N1CCCC1)[NH+]1CCN(Cc2cccc([O-])c2)CC1 (3D coordinates assigned)
O=C(c1ccccc1S(=O)(=O)N1CCCC1)[NH+]1CCN(Cc2cccc([O-])c2)CC1 (nonaromatic ring conformer: 79.45071101674857 kcal/mol)

>  <smiles>  (43) 
O=C(c1ccccc1S(=O)(=O)N1CCCC1)N1CCN(Cc2cccc(O)c2)CC1

>  <score_type>  (43) 
oracle

>  <origin>  (43) 
adgpu

>  <m_score__min__energy>  (43) 
-11.710000000000001

>  <m_primary>  (43) 
energy

$$$$
43:0
     RDKit          3D

 48 50  0  0  0  0  0  0  0  0999 V2000
   -8.6910   21.1430  -31.7380 C   0  0  0  0  0  0  0  0  0  0  0  0
   -7.7750   22.2770  -31.3820 C   0  0  0  0  0  0  0  0  0  0  0  0
   -7.6100   22.6590  -30.0420 C   0  0  0  0  0  0  0  0  0  0  0  0
   -6.7830   23.7380  -29.7130 C   0  0  0  0  0  0  0  0  0  0  0  0
   -6.1310   24.4640  -30.7220 C   0  0  0  0  0  0  0  0  0  0  0  0
   -5.2150   25.5980  -30.3640 C   0  0  0  0  0  0  0  0  0  0  0  0
   -3.8650   25.2840  -30.8230 N   0  0  0  0  0  0  0  0  0  0  0  0
   -3.2590   23.8990  -29.9690 S   0  0  0  0  0  0  0  0  0  0  0  0
   -1.7950   24.0920  -29.6900 O   0  0  0  0  0  0  0  0  0  0  0  0
   -3.9820   23.7560  -28.6570 O   0  0  0  0  0  0  0  0  0  0  0  0
   -3.4680   22.4480  -30.9470 C   0  0  0  0  0  0  0  0  0  0  0  0
   -4.3820   21.4550  -30.5680 C   0  0  0  0  0  0  0  0  0  0  0  0
   -4.5530   20.3180  -31.3630 C   0  0  0  0  0  0  0  0  0  0  0  0
   -3.8160   20.1670  -32.5470 C   0  0  0  0  0  0  0  0  0  0  0  0
   -4.0070   18.7310  -33.5510 S   0  0  0  0  0  0  0  0  0  0  0  0
   -2.9240   18.6870  -34.5940 O   0  0  0  0  0  0  0  0  0  0  0  0
   -3.8780   17.5170  -32.6740 O   0  0  0  0  0  0  0  0  0  0  0  0
   -5.5810   18.7470  -34.3150 N   0  0  0  0  0  0  0  0  0  0  0  0
   -6.0740   17.3840  -34.5450 C   0  0  0  0  0  0  0  0  0  0  0  0
   -6.9360   16.9970  -33.3500 C   0  0  0  0  0  0  0  0  0  0  0  0
   -7.2670   18.3010  -32.6460 C   0  0  0  0  0  0  0  0  0  0  0  0
   -6.5790   19.3930  -33.4530 C   0  0  0  0  0  0  0  0  0  0  0  0
   -2.9050   21.1610  -32.9250 C   0  0  0  0  0  0  0  0  0  0  0  0
   -2.7340   22.2990  -32.1300 C   0  0  0  0  0  0  0  0  0  0  0  0
   -6.2970   24.0820  -32.0630 C   0  0  0  0  0  0  0  0  0  0  0  0
   -7.1230   23.0020  -32.3910 C   0  0  0  0  0  0  0  0  0  0  0  0
   -9.0694   20.6745  -30.8175 H   0  0  0  0  0  0  0  0  0  0  0  0
   -9.5362   21.5260  -32.3287 H   0  0  0  0  0  0  0  0  0  0  0  0
   -8.1388   20.3972  -32.3287 H   0  0  0  0  0  0  0  0  0  0  0  0
   -8.1332   22.1076  -29.2469 H   0  0  0  0  0  0  0  0  0  0  0  0
   -6.6429   24.0189  -28.6587 H   0  0  0  0  0  0  0  0  0  0  0  0
   -5.5640   26.5211  -30.8499 H   0  0  0  0  0  0  0  0  0  0  0  0
   -5.2118   25.7420  -29.2735 H   0  0  0  0  0  0  0  0  0  0  0  0
   -4.9659   21.5708  -29.6430 H   0  0  0  0  0  0  0  0  0  0  0  0
   -5.2678   19.5391  -31.0592 H   0  0  0  0  0  0  0  0  0  0  0  0
   -5.5010   19.2620  -35.2240 H   0  0  0  0  0  0  0  0  0  0  0  0
   -6.6745   17.3530  -35.4661 H   0  0  0  0  0  0  0  0  0  0  0  0
   -5.2334   16.6835  -34.6574 H   0  0  0  0  0  0  0  0  0  0  0  0
   -7.8567   16.4977  -33.6863 H   0  0  0  0  0  0  0  0  0  0  0  0
   -6.4149   16.2949  -32.6825 H   0  0  0  0  0  0  0  0  0  0  0  0
   -8.3549   18.4631  -32.6312 H   0  0  0  0  0  0  0  0  0  0  0  0
   -6.9266   18.2946  -31.6000 H   0  0  0  0  0  0  0  0  0  0  0  0
   -7.3181   19.9259  -34.0693 H   0  0  0  0  0  0  0  0  0  0  0  0
   -6.0977   20.1220  -32.7844 H   0  0  0  0  0  0  0  0  0  0  0  0
   -2.3217   21.0464  -33.8506 H   0  0  0  0  0  0  0  0  0  0  0  0
   -2.0209   23.0791  -32.4350 H   0  0  0  0  0  0  0  0  0  0  0  0
   -5.7754   24.6343  -32.8586 H   0  0  0  0  0  0  0  0  0  0  0  0
   -7.2621   22.7196  -33.4450 H   0  0  0  0  0  0  0  0  0  0  0  0
  1  2  1  0
  2  3  2  0
  3  4  1  0
  4  5  2  0
  5  6  1  0
  6  7  1  0
  7  8  1  0
  8  9  2  0
  8 10  2  0
  8 11  1  0
 11 12  2  0
 12 13  1  0
 13 14  2  0
 14 15  1  0
 15 16  2  0
 15 17  2  0
 15 18  1  0
 18 19  1  0
 19 20  1  0
 20 21  1  0
 21 22  1  0
 14 23  1  0
 23 24  2  0
  5 25  1  0
 25 26  2  0
 26  2  1  0
 24 11  1  0
 22 18  1  0
  1 27  1  0
  1 28  1  0
  1 29  1  0
  3 30  1  0
  4 31  1  0
  6 32  1  0
  6 33  1  0
 12 34  1  0
 13 35  1  0
 18 36  1  0
 19 37  1  0
 19 38  1  0
 20 39  1  0
 20 40  1  0
 21 41  1  0
 21 42  1  0
 22 43  1  0
 22 44  1  0
 23 45  1  0
 24 46  1  0
 25 47  1  0
 26 48  1  0
M  CHG  2   7  -1  18   1
M  END
>  <UniqueID>  (44) 
41

>  <SMILES>  (44) 
Cc1ccc(C[N-]S(=O)(=O)c2ccc(S(=O)(=O)[NH+]3CCCC3)cc2)cc1

>  <Energy>  (44) 
46.93804732503171

>  <Genealogy>  (44) 
Cc1ccc(C[N-]S(=O)(=O)c2ccc(S(=O)(=O)[NH+]3CCCC3)cc2)cc1 (protonated)
Cc1ccc(C[N-]S(=O)(=O)c2ccc(S(=O)(=O)[NH+]3CCCC3)cc2)cc1 (3D coordinates assigned)
Cc1ccc(C[N-]S(=O)(=O)c2ccc(S(=O)(=O)[NH+]3CCCC3)cc2)cc1 (nonaromatic ring conformer: 46.93804732503171 kcal/mol)

>  <smiles>  (44) 
Cc1ccc(CNS(=O)(=O)c2ccc(S(=O)(=O)N3CCCC3)cc2)cc1

>  <score_type>  (44) 
oracle

>  <origin>  (44) 
adgpu

>  <m_score__min__energy>  (44) 
-11.09

>  <m_primary>  (44) 
energy

$$$$
44:0
     RDKit          3D

 26 27  0  0  0  0  0  0  0  0999 V2000
   -5.8070   16.0940  -34.4010 O   0  0  0  0  0  0  0  0  0  0  0  0
   -6.2420   17.1670  -33.9070 C   0  0  0  0  0  0  0  0  0  0  0  0
   -5.7420   18.3970  -34.3470 C   0  0  0  0  0  0  0  0  0  0  0  0
   -6.2370   19.5760  -33.7860 C   0  0  0  0  0  0  0  0  0  0  0  0
   -7.2210   19.5170  -32.7920 C   0  0  0  0  0  0  0  0  0  0  0  0
   -7.8450   20.9960  -32.0710 S   0  0  0  0  0  0  0  0  0  0  0  0
   -7.9570   20.8530  -30.5790 O   0  0  0  0  0  0  0  0  0  0  0  0
   -9.2080   21.2730  -32.6390 O   0  0  0  0  0  0  0  0  0  0  0  0
   -6.7930   22.3280  -32.4360 N   0  0  0  0  0  0  0  0  0  0  0  0
   -6.4660   23.3760  -31.5040 C   0  0  0  0  0  0  0  0  0  0  0  0
   -7.4360   23.9540  -30.6620 C   0  0  0  0  0  0  0  0  0  0  0  0
   -7.0810   24.9660  -29.7660 C   0  0  0  0  0  0  0  0  0  0  0  0
   -5.7590   25.4150  -29.7010 C   0  0  0  0  0  0  0  0  0  0  0  0
   -4.7900   24.8530  -30.5350 C   0  0  0  0  0  0  0  0  0  0  0  0
   -3.4760   25.3000  -30.4740 O   0  0  0  0  0  0  0  0  0  0  0  0
   -5.1420   23.8390  -31.4340 C   0  0  0  0  0  0  0  0  0  0  0  0
   -7.6980   18.2640  -32.3830 C   0  0  0  0  0  0  0  0  0  0  0  0
   -7.2020   17.1290  -32.9440 N   0  0  0  0  0  0  0  0  0  0  0  0
   -4.9670   18.4351  -35.1267 H   0  0  0  0  0  0  0  0  0  0  0  0
   -5.8542   20.5500  -34.1247 H   0  0  0  0  0  0  0  0  0  0  0  0
   -6.3300   22.3200  -33.3720 H   0  0  0  0  0  0  0  0  0  0  0  0
   -8.4787   23.6069  -30.7100 H   0  0  0  0  0  0  0  0  0  0  0  0
   -7.8441   25.4104  -29.1101 H   0  0  0  0  0  0  0  0  0  0  0  0
   -5.4820   26.2104  -28.9935 H   0  0  0  0  0  0  0  0  0  0  0  0
   -4.3755   23.4016  -32.0906 H   0  0  0  0  0  0  0  0  0  0  0  0
   -8.4748   18.1988  -31.6069 H   0  0  0  0  0  0  0  0  0  0  0  0
  1  2  2  0
  2  3  1  0
  3  4  2  0
  4  5  1  0
  5  6  1  0
  6  7  2  0
  6  8  2  0
  6  9  1  0
  9 10  1  0
 10 11  2  0
 11 12  1  0
 12 13  2  0
 13 14  1  0
 14 15  1  0
 14 16  2  0
  5 17  2  0
 17 18  1  0
 18  2  1  0
 16 10  1  0
  3 19  1  0
  4 20  1  0
  9 21  1  0
 11 22  1  0
 12 23  1  0
 13 24  1  0
 16 25  1  0
 17 26  1  0
M  CHG  2  15  -1  18  -1
M  END
>  <UniqueID>  (45) 
42

>  <SMILES>  (45) 
O=c1ccc(S(=O)(=O)Nc2cccc([O-])c2)c[n-]1

>  <Energy>  (45) 
30.602488264677163

>  <Genealogy>  (45) 
O=c1ccc(S(=O)(=O)Nc2cccc([O-])c2)c[n-]1 (protonated)
O=c1ccc(S(=O)(=O)Nc2cccc([O-])c2)c[n-]1 (3D coordinates assigned)
O=c1ccc(S(=O)(=O)Nc2cccc([O-])c2)c[n-]1 (optimized conformer: 30.602488264677163 kcal/mol)

>  <smiles>  (45) 
O=c1ccc(S(=O)(=O)Nc2cccc(O)c2)c[nH]1

>  <score_type>  (45) 
oracle

>  <origin>  (45) 
adgpu

>  <m_score__min__energy>  (45) 
-10.09

>  <m_primary>  (45) 
energy

$$$$
45:0
     RDKit          3D

 49 52  0  0  0  0  0  0  0  0999 V2000
   -4.6542   13.2407  -29.7532 H   0  0  0  0  0  0  0  0  0  0  0  0
   -4.6810   13.1970  -30.8520 C   0  0  0  0  0  0  0  0  0  0  0  0
   -4.1090   14.1510  -31.6340 N   0  0  0  0  0  0  0  0  0  0  0  0
   -4.2740   13.8750  -32.9460 C   0  0  0  0  0  0  0  0  0  0  0  0
   -3.8330   14.6250  -33.9070 N   0  0  0  0  0  0  0  0  0  0  0  0
   -2.9480   16.0970  -33.6620 S   0  0  0  0  0  0  0  0  0  0  0  0
   -1.9870   16.3280  -34.7940 O   0  0  0  0  0  0  0  0  0  0  0  0
   -2.1520   15.9740  -32.3920 O   0  0  0  0  0  0  0  0  0  0  0  0
   -4.0700   17.4480  -33.5410 C   0  0  0  0  0  0  0  0  0  0  0  0
   -3.6810   18.7310  -33.9450 C   0  0  0  0  0  0  0  0  0  0  0  0
   -2.6727   18.8945  -34.3531 H   0  0  0  0  0  0  0  0  0  0  0  0
   -4.5680   19.8040  -33.8320 C   0  0  0  0  0  0  0  0  0  0  0  0
   -4.2547   20.8079  -34.1546 H   0  0  0  0  0  0  0  0  0  0  0  0
   -5.8580   19.6100  -33.3090 C   0  0  0  0  0  0  0  0  0  0  0  0
   -6.7750   20.6700  -33.2120 O   0  0  0  0  0  0  0  0  0  0  0  0
   -6.6270   21.7890  -32.3800 C   0  0  0  0  0  0  0  0  0  0  0  0
   -5.3730   22.3930  -32.1870 C   0  0  0  0  0  0  0  0  0  0  0  0
   -4.4899   21.9931  -32.7068 H   0  0  0  0  0  0  0  0  0  0  0  0
   -5.2360   23.5060  -31.3340 C   0  0  0  0  0  0  0  0  0  0  0  0
   -3.9890   24.1120  -31.1080 O   0  0  0  0  0  0  0  0  0  0  0  0
   -3.1680   23.8890  -29.9960 C   0  0  0  0  0  0  0  0  0  0  0  0
   -2.5610   24.9240  -29.3500 N   0  0  0  0  0  0  0  0  0  0  0  0
   -1.7690   24.7380  -28.2590 C   0  0  0  0  0  0  0  0  0  0  0  0
   -1.1190   25.9350  -27.6300 C   0  0  0  0  0  0  0  0  0  0  0  0
   -1.1676   25.8454  -26.5347 H   0  0  0  0  0  0  0  0  0  0  0  0
   -0.0671   25.9900  -27.9470 H   0  0  0  0  0  0  0  0  0  0  0  0
   -1.6457   26.8472  -27.9470 H   0  0  0  0  0  0  0  0  0  0  0  0
   -1.5410   23.4300  -27.7840 C   0  0  0  0  0  0  0  0  0  0  0  0
   -0.6740   23.1710  -26.6600 C   0  0  0  0  0  0  0  0  0  0  0  0
    0.0220   22.9650  -25.7590 N   0  0  0  0  0  0  0  0  0  0  0  0
   -2.1730   22.3570  -28.4230 C   0  0  0  0  0  0  0  0  0  0  0  0
   -2.0206   21.3317  -28.0550 H   0  0  0  0  0  0  0  0  0  0  0  0
   -2.9960   22.5860  -29.5260 C   0  0  0  0  0  0  0  0  0  0  0  0
   -3.5054   21.7463  -30.0214 H   0  0  0  0  0  0  0  0  0  0  0  0
   -6.3650   23.9890  -30.6510 C   0  0  0  0  0  0  0  0  0  0  0  0
   -6.2520   25.1110  -29.7530 C   0  0  0  0  0  0  0  0  0  0  0  0
   -6.1640   26.0110  -29.0310 N   0  0  0  0  0  0  0  0  0  0  0  0
   -7.6110   23.3800  -30.8360 C   0  0  0  0  0  0  0  0  0  0  0  0
   -8.4927   23.7676  -30.3046 H   0  0  0  0  0  0  0  0  0  0  0  0
   -7.7430   22.2830  -31.6910 C   0  0  0  0  0  0  0  0  0  0  0  0
   -9.4630   21.4760  -31.9160 Br  0  0  0  0  0  0  0  0  0  0  0  0
   -6.2530   18.3190  -32.9190 C   0  0  0  0  0  0  0  0  0  0  0  0
   -7.5730   18.0890  -32.3880 C   0  0  0  0  0  0  0  0  0  0  0  0
   -8.6330   17.9040  -31.9630 N   0  0  0  0  0  0  0  0  0  0  0  0
   -5.3580   17.2450  -33.0290 C   0  0  0  0  0  0  0  0  0  0  0  0
   -5.6688   16.2386  -32.7118 H   0  0  0  0  0  0  0  0  0  0  0  0
   -5.1240   12.4500  -33.1920 S   0  0  0  0  0  0  0  0  0  0  0  0
   -5.3030   12.1610  -31.5430 C   0  0  0  0  0  0  0  0  0  0  0  0
   -5.8213   11.3028  -31.0904 H   0  0  0  0  0  0  0  0  0  0  0  0
  1  2  1  0
  2  3  1  0
  3  4  1  0
  4  5  2  0
  5  6  1  0
  6  7  2  0
  6  8  2  0
  6  9  1  0
  9 10  2  0
 10 11  1  0
 10 12  1  0
 12 13  1  0
 12 14  2  0
 14 15  1  0
 15 16  1  0
 16 17  2  0
 17 18  1  0
 17 19  1  0
 19 20  1  0
 20 21  1  0
 21 22  2  0
 22 23  1  0
 23 24  1  0
 24 25  1  0
 24 26  1  0
 24 27  1  0
 23 28  2  0
 28 29  1  0
 29 30  3  0
 28 31  1  0
 31 32  1  0
 31 33  2  0
 33 34  1  0
 19 35  2  0
 35 36  1  0
 36 37  3  0
 35 38  1  0
 38 39  1  0
 38 40  2  0
 40 41  1  0
 14 42  1  0
 42 43  1  0
 43 44  3  0
 42 45  2  0
 45 46  1  0
  4 47  1  0
 47 48  1  0
 48 49  1  0
 48  2  2  0
 45  9  1  0
 40 16  1  0
 33 21  1  0
M  CHG  1   3  -1
M  END
>  <UniqueID>  (46) 
43

>  <SMILES>  (46) 
Cc1nc(Oc2cc(Oc3ccc(S(=O)(=O)/N=c4\[n-]ccs4)cc3C#N)c(Br)cc2C#N)ccc1C#N

>  <Energy>  (46) 
95.5431933277691

>  <Genealogy>  (46) 
Cc1nc(Oc2cc(Oc3ccc(S(=O)(=O)N=c4[n-]ccs4)cc3C#N)c(Br)cc2C#N)ccc1C#N (protonated)
Cc1nc(Oc2cc(Oc3ccc(S(=O)(=O)/N=c4\[n-]ccs4)cc3C#N)c(Br)cc2C#N)ccc1C#N (cis-trans isomerization)
Cc1nc(Oc2cc(Oc3ccc(S(=O)(=O)/N=c4\[n-]ccs4)cc3C#N)c(Br)cc2C#N)ccc1C#N (3D coordinates assigned)
Cc1nc(Oc2cc(Oc3ccc(S(=O)(=O)/N=c4\[n-]ccs4)cc3C#N)c(Br)cc2C#N)ccc1C#N (optimized conformer: 95.5431933277691 kcal/mol)

>  <smiles>  (46) 
Cc1nc(Oc2cc(Oc3ccc(S(=O)(=O)N=c4[nH]ccs4)cc3C#N)c(Br)cc2C#N)ccc1C#N

>  <score_type>  (46) 
oracle

>  <origin>  (46) 
adgpu

>  <m_score__min__energy>  (46) 
-12.869999999999999

>  <m_primary>  (46) 
energy

$$$$
46:0
     RDKit          3D

 65 68  0  0  0  0  0  0  0  0999 V2000
    0.8120   16.2430  -31.7470 C   0  0  0  0  0  0  0  0  0  0  0  0
    0.8070   16.4140  -30.2550 C   0  0  0  0  0  0  0  0  0  0  0  0
    1.2540   15.4710  -29.5430 O   0  0  0  0  0  0  0  0  0  0  0  0
    0.3370   17.6320  -29.6280 N   0  0  0  0  0  0  0  0  0  0  0  0
   -0.1450   17.5860  -28.2350 C   0  0  0  0  0  0  0  0  0  0  0  0
    0.1930   18.8880  -27.5060 C   0  0  0  0  0  0  0  0  0  0  0  0
   -0.2260   20.0270  -28.3230 N   0  0  0  0  0  0  0  0  0  0  0  0
   -1.3480   20.8440  -27.9370 C   0  0  0  0  0  0  0  0  0  0  0  0
   -2.3170   20.3210  -27.3230 O   0  0  0  0  0  0  0  0  0  0  0  0
   -1.3820   22.2910  -28.2510 C   0  0  0  0  0  0  0  0  0  0  0  0
   -0.4580   23.1690  -27.6590 C   0  0  0  0  0  0  0  0  0  0  0  0
   -0.5360   24.5430  -27.9000 C   0  0  0  0  0  0  0  0  0  0  0  0
   -1.5210   25.0540  -28.7490 C   0  0  0  0  0  0  0  0  0  0  0  0
   -1.5940   26.4250  -28.9670 O   0  0  0  0  0  0  0  0  0  0  0  0
   -2.4220   24.1860  -29.3840 C   0  0  0  0  0  0  0  0  0  0  0  0
   -3.4380   24.7280  -30.2340 N   0  0  0  0  0  0  0  0  0  0  0  0
   -4.8820   23.8760  -30.6720 S   0  0  0  0  0  0  0  0  0  0  0  0
   -5.6840   24.7250  -31.6210 O   0  0  0  0  0  0  0  0  0  0  0  0
   -5.7330   23.5870  -29.4680 O   0  0  0  0  0  0  0  0  0  0  0  0
   -4.4190   22.3730  -31.4600 C   0  0  0  0  0  0  0  0  0  0  0  0
   -4.0660   22.3690  -32.8160 C   0  0  0  0  0  0  0  0  0  0  0  0
   -3.6000   21.1970  -33.4180 C   0  0  0  0  0  0  0  0  0  0  0  0
   -3.4820   20.0180  -32.6690 C   0  0  0  0  0  0  0  0  0  0  0  0
   -2.7880   18.5640  -33.3840 S   0  0  0  0  0  0  0  0  0  0  0  0
   -1.9770   18.9560  -34.5880 O   0  0  0  0  0  0  0  0  0  0  0  0
   -1.8860   17.8830  -32.3930 O   0  0  0  0  0  0  0  0  0  0  0  0
   -4.0680   17.4740  -33.8620 N   0  0  0  0  0  0  0  0  0  0  0  0
   -5.1810   18.2370  -34.4710 C   0  0  0  0  0  0  0  0  0  0  0  0
   -6.4730   17.4130  -34.4990 C   0  0  0  0  0  0  0  0  0  0  0  0
   -6.9360   17.0630  -33.0740 C   0  0  0  0  0  0  0  0  0  0  0  0
   -5.7760   17.0290  -32.0650 C   0  0  0  0  0  0  0  0  0  0  0  0
   -4.4670   16.5900  -32.7370 C   0  0  0  0  0  0  0  0  0  0  0  0
   -3.8460   20.0190  -31.3150 C   0  0  0  0  0  0  0  0  0  0  0  0
   -4.3100   21.1930  -30.7120 C   0  0  0  0  0  0  0  0  0  0  0  0
   -2.3510   22.8060  -29.1280 C   0  0  0  0  0  0  0  0  0  0  0  0
    0.3220   20.1030  -29.6820 C   0  0  0  0  0  0  0  0  0  0  0  0
   -0.0070   18.8160  -30.4390 C   0  0  0  0  0  0  0  0  0  0  0  0
    0.8433   15.1713  -31.9931 H   0  0  0  0  0  0  0  0  0  0  0  0
   -0.0996   16.6899  -32.1704 H   0  0  0  0  0  0  0  0  0  0  0  0
    1.6959   16.7424  -32.1704 H   0  0  0  0  0  0  0  0  0  0  0  0
   -1.2358   17.4437  -28.2342 H   0  0  0  0  0  0  0  0  0  0  0  0
    0.3476   16.7504  -27.7162 H   0  0  0  0  0  0  0  0  0  0  0  0
   -0.3341   18.9154  -26.5409 H   0  0  0  0  0  0  0  0  0  0  0  0
    1.2780   18.9403  -27.3327 H   0  0  0  0  0  0  0  0  0  0  0  0
    0.3306   22.7724  -27.0026 H   0  0  0  0  0  0  0  0  0  0  0  0
    0.1808   25.2251  -27.4195 H   0  0  0  0  0  0  0  0  0  0  0  0
   -4.1560   23.2913  -33.4086 H   0  0  0  0  0  0  0  0  0  0  0  0
   -3.3249   21.1997  -34.4830 H   0  0  0  0  0  0  0  0  0  0  0  0
   -5.3520   19.1512  -33.8836 H   0  0  0  0  0  0  0  0  0  0  0  0
   -4.9055   18.4849  -35.5067 H   0  0  0  0  0  0  0  0  0  0  0  0
   -7.2602   17.9956  -34.9999 H   0  0  0  0  0  0  0  0  0  0  0  0
   -6.2796   16.4772  -35.0439 H   0  0  0  0  0  0  0  0  0  0  0  0
   -7.6660   17.8176  -32.7458 H   0  0  0  0  0  0  0  0  0  0  0  0
   -7.3783   16.0563  -33.1060 H   0  0  0  0  0  0  0  0  0  0  0  0
   -5.6411   18.0344  -31.6396 H   0  0  0  0  0  0  0  0  0  0  0  0
   -6.0224   16.3033  -31.2759 H   0  0  0  0  0  0  0  0  0  0  0  0
   -3.6659   16.5985  -31.9832 H   0  0  0  0  0  0  0  0  0  0  0  0
   -4.6305   15.5840  -33.1507 H   0  0  0  0  0  0  0  0  0  0  0  0
   -3.7665   19.0940  -30.7251 H   0  0  0  0  0  0  0  0  0  0  0  0
   -4.5899   21.1898  -29.6482 H   0  0  0  0  0  0  0  0  0  0  0  0
   -3.0603   22.1232  -29.6186 H   0  0  0  0  0  0  0  0  0  0  0  0
   -0.1214   20.9611  -30.2083 H   0  0  0  0  0  0  0  0  0  0  0  0
    1.4136   20.2279  -29.6298 H   0  0  0  0  0  0  0  0  0  0  0  0
   -1.0827   18.7967  -30.6682 H   0  0  0  0  0  0  0  0  0  0  0  0
    0.5814   18.7917  -31.3681 H   0  0  0  0  0  0  0  0  0  0  0  0
  1  2  1  0
  2  3  2  0
  2  4  1  0
  4  5  1  0
  5  6  1  0
  6  7  1  0
  7  8  1  0
  8  9  2  0
  8 10  1  0
 10 11  2  0
 11 12  1  0
 12 13  2  0
 13 14  1  0
 13 15  1  0
 15 16  1  0
 16 17  1  0
 17 18  2  0
 17 19  2  0
 17 20  1  0
 20 21  2  0
 21 22  1  0
 22 23  2  0
 23 24  1  0
 24 25  2  0
 24 26  2  0
 24 27  1  0
 27 28  1  0
 28 29  1  0
 29 30  1  0
 30 31  1  0
 31 32  1  0
 23 33  1  0
 33 34  2  0
 15 35  2  0
  7 36  1  0
 36 37  1  0
 37  4  1  0
 35 10  1  0
 34 20  1  0
 32 27  1  0
  1 38  1  0
  1 39  1  0
  1 40  1  0
  5 41  1  0
  5 42  1  0
  6 43  1  0
  6 44  1  0
 11 45  1  0
 12 46  1  0
 21 47  1  0
 22 48  1  0
 28 49  1  0
 28 50  1  0
 29 51  1  0
 29 52  1  0
 30 53  1  0
 30 54  1  0
 31 55  1  0
 31 56  1  0
 32 57  1  0
 32 58  1  0
 33 59  1  0
 34 60  1  0
 35 61  1  0
 36 62  1  0
 36 63  1  0
 37 64  1  0
 37 65  1  0
M  CHG  2  14  -1  16  -1
M  END
>  <UniqueID>  (47) 
44

>  <SMILES>  (47) 
CC(=O)N1CCN(C(=O)c2ccc([O-])c([N-]S(=O)(=O)c3ccc(S(=O)(=O)N4CCCCC4)cc3)c2)CC1

>  <Energy>  (47) 
84.63614817959704

>  <Genealogy>  (47) 
CC(=O)N1CCN(C(=O)c2ccc([O-])c([N-]S(=O)(=O)c3ccc(S(=O)(=O)N4CCCCC4)cc3)c2)CC1 (protonated)
CC(=O)N1CCN(C(=O)c2ccc([O-])c([N-]S(=O)(=O)c3ccc(S(=O)(=O)N4CCCCC4)cc3)c2)CC1 (3D coordinates assigned)
CC(=O)N1CCN(C(=O)c2ccc([O-])c([N-]S(=O)(=O)c3ccc(S(=O)(=O)N4CCCCC4)cc3)c2)CC1 (nonaromatic ring conformer: 84.63614817959704 kcal/mol)

>  <smiles>  (47) 
CC(=O)N1CCN(C(=O)c2ccc(O)c(NS(=O)(=O)c3ccc(S(=O)(=O)N4CCCCC4)cc3)c2)CC1

>  <score_type>  (47) 
oracle

>  <origin>  (47) 
adgpu

>  <m_score__min__energy>  (47) 
-16.07

>  <m_primary>  (47) 
energy

$$$$
47:0
     RDKit          3D

 36 38  0  0  0  0  0  0  0  0999 V2000
   -2.7650   19.3110  -33.5900 O   0  0  0  0  0  0  0  0  0  0  0  0
   -2.6430   20.4990  -33.1900 C   0  0  0  0  0  0  0  0  0  0  0  0
   -1.3570   21.1310  -33.2770 N   0  0  0  0  0  0  0  0  0  0  0  0
   -0.5460   21.5580  -32.1390 C   0  0  0  0  0  0  0  0  0  0  0  0
   -0.9990   20.8550  -30.8550 C   0  0  0  0  0  0  0  0  0  0  0  0
   -1.7460   21.8130  -29.9670 C   0  0  0  0  0  0  0  0  0  0  0  0
   -2.7400   21.3450  -29.0920 C   0  0  0  0  0  0  0  0  0  0  0  0
   -3.4550   22.2420  -28.2940 C   0  0  0  0  0  0  0  0  0  0  0  0
   -3.1910   23.6170  -28.3690 C   0  0  0  0  0  0  0  0  0  0  0  0
   -3.8990   24.5170  -27.5740 O   0  0  0  0  0  0  0  0  0  0  0  0
   -2.2100   24.0890  -29.2510 C   0  0  0  0  0  0  0  0  0  0  0  0
   -1.9460   25.4520  -29.3360 O   0  0  0  0  0  0  0  0  0  0  0  0
   -1.4940   23.1920  -30.0490 C   0  0  0  0  0  0  0  0  0  0  0  0
   -3.8310   21.2090  -32.6780 C   0  0  0  0  0  0  0  0  0  0  0  0
   -5.0920   20.5910  -32.6830 C   0  0  0  0  0  0  0  0  0  0  0  0
   -6.2100   21.2570  -32.1730 C   0  0  0  0  0  0  0  0  0  0  0  0
   -6.0810   22.5600  -31.6630 C   0  0  0  0  0  0  0  0  0  0  0  0
   -7.1680   23.2740  -31.1300 C   0  0  0  0  0  0  0  0  0  0  0  0
   -8.3200   22.7640  -31.0860 O   0  0  0  0  0  0  0  0  0  0  0  0
   -6.9800   24.5330  -30.6570 N   0  0  0  0  0  0  0  0  0  0  0  0
   -5.7560   25.1230  -30.6850 C   0  0  0  0  0  0  0  0  0  0  0  0
   -5.6110   26.2900  -30.2390 O   0  0  0  0  0  0  0  0  0  0  0  0
   -4.6880   24.4530  -31.1930 N   0  0  0  0  0  0  0  0  0  0  0  0
   -4.8200   23.1920  -31.6810 C   0  0  0  0  0  0  0  0  0  0  0  0
   -3.7060   22.5200  -32.1950 C   0  0  0  0  0  0  0  0  0  0  0  0
    0.5078   21.3099  -32.3336 H   0  0  0  0  0  0  0  0  0  0  0  0
   -0.6654   22.6436  -32.0080 H   0  0  0  0  0  0  0  0  0  0  0  0
   -1.6580   20.0138  -31.1157 H   0  0  0  0  0  0  0  0  0  0  0  0
   -0.1121   20.4884  -30.3174 H   0  0  0  0  0  0  0  0  0  0  0  0
   -2.9565   20.2680  -29.0347 H   0  0  0  0  0  0  0  0  0  0  0  0
   -4.2270   21.8684  -27.6052 H   0  0  0  0  0  0  0  0  0  0  0  0
   -4.0530   25.4740  -27.8660 H   0  0  0  0  0  0  0  0  0  0  0  0
   -0.7294   23.5682  -30.7446 H   0  0  0  0  0  0  0  0  0  0  0  0
   -5.2007   19.5754  -33.0913 H   0  0  0  0  0  0  0  0  0  0  0  0
   -7.1917   20.7607  -32.1709 H   0  0  0  0  0  0  0  0  0  0  0  0
   -2.7275   23.0219  -32.2205 H   0  0  0  0  0  0  0  0  0  0  0  0
  1  2  2  0
  2  3  1  0
  3  4  1  0
  4  5  1  0
  5  6  1  0
  6  7  2  0
  7  8  1  0
  8  9  2  0
  9 10  1  0
  9 11  1  0
 11 12  1  0
 11 13  2  0
  2 14  1  0
 14 15  2  0
 15 16  1  0
 16 17  2  0
 17 18  1  0
 18 19  2  0
 18 20  1  0
 20 21  1  0
 21 22  2  0
 21 23  1  0
 23 24  1  0
 24 25  2  0
 13  6  1  0
 25 14  1  0
 24 17  1  0
  4 26  1  0
  4 27  1  0
  5 28  1  0
  5 29  1  0
  7 30  1  0
  8 31  1  0
 10 32  1  0
 13 33  1  0
 15 34  1  0
 16 35  1  0
 25 36  1  0
M  CHG  4   3  -1  12  -1  20  -1  23  -1
M  END
>  <UniqueID>  (48) 
45

>  <SMILES>  (48) 
O=C([N-]CCc1ccc(O)c([O-])c1)c1ccc2c(=O)[n-]c(=O)[n-]c2c1

>  <Energy>  (48) 
44.302475576170565

>  <Genealogy>  (48) 
O=C([N-]CCc1ccc(O)c([O-])c1)c1ccc2c(=O)[n-]c(=O)[n-]c2c1 (protonated)
O=C([N-]CCc1ccc(O)c([O-])c1)c1ccc2c(=O)[n-]c(=O)[n-]c2c1 (3D coordinates assigned)
O=C([N-]CCc1ccc(O)c([O-])c1)c1ccc2c(=O)[n-]c(=O)[n-]c2c1 (optimized conformer: 44.302475576170565 kcal/mol)

>  <smiles>  (48) 
O=C(NCCc1ccc(O)c(O)c1)c1ccc2c(=O)[nH]c(=O)[nH]c2c1

>  <score_type>  (48) 
oracle

>  <origin>  (48) 
adgpu

>  <m_score__min__energy>  (48) 
-11.859999999999999

>  <m_primary>  (48) 
energy

$$$$
48:0
     RDKit          3D

 54 57  0  0  0  0  0  0  0  0999 V2000
   -7.3280   24.9270  -29.4250 O   0  0  0  0  0  0  0  0  0  0  0  0
   -5.9350   24.8370  -29.9820 S   0  0  0  0  0  0  0  0  0  0  0  0
   -5.6730   26.0380  -30.8460 O   0  0  0  0  0  0  0  0  0  0  0  0
   -4.7990   24.8140  -28.6700 N   0  0  0  0  0  0  0  0  0  0  0  0
   -3.7600   23.8260  -28.5370 C   0  0  0  0  0  0  0  0  0  0  0  0
   -4.0030   22.5910  -27.9060 C   0  0  0  0  0  0  0  0  0  0  0  0
   -2.9900   21.6280  -27.8040 C   0  0  0  0  0  0  0  0  0  0  0  0
   -1.7040   21.9070  -28.3040 C   0  0  0  0  0  0  0  0  0  0  0  0
   -1.4590   23.1340  -28.9320 C   0  0  0  0  0  0  0  0  0  0  0  0
   -2.4740   24.0900  -29.0440 C   0  0  0  0  0  0  0  0  0  0  0  0
   -2.1980   25.2990  -29.6740 O   0  0  0  0  0  0  0  0  0  0  0  0
   -0.6150   20.8640  -28.2340 C   0  0  0  0  0  0  0  0  0  0  0  0
   -0.8500   19.8740  -27.0860 C   0  0  0  0  0  0  0  0  0  0  0  0
   -2.2640   19.2950  -27.1580 C   0  0  0  0  0  0  0  0  0  0  0  0
   -3.2540   20.3720  -27.1580 N   0  0  0  0  0  0  0  0  0  0  0  0
   -5.7470   23.3850  -30.9620 C   0  0  0  0  0  0  0  0  0  0  0  0
   -6.8360   22.5230  -31.1470 C   0  0  0  0  0  0  0  0  0  0  0  0
   -6.7060   21.3860  -31.9480 C   0  0  0  0  0  0  0  0  0  0  0  0
   -5.4830   21.0980  -32.5680 C   0  0  0  0  0  0  0  0  0  0  0  0
   -5.3100   19.6730  -33.5870 S   0  0  0  0  0  0  0  0  0  0  0  0
   -6.3560   19.6870  -34.6680 O   0  0  0  0  0  0  0  0  0  0  0  0
   -3.9460   19.6980  -34.2200 O   0  0  0  0  0  0  0  0  0  0  0  0
   -5.4920   18.2290  -32.6200 N   0  0  0  0  0  0  0  0  0  0  0  0
   -6.7780   17.5470  -32.9140 C   0  0  0  0  0  0  0  0  0  0  0  0
   -6.6140   16.3160  -33.8150 C   0  0  0  0  0  0  0  0  0  0  0  0
   -5.6650   15.2850  -33.1800 C   0  0  0  0  0  0  0  0  0  0  0  0
   -4.5720   15.9370  -32.3150 C   0  0  0  0  0  0  0  0  0  0  0  0
   -4.2930   17.3730  -32.7670 C   0  0  0  0  0  0  0  0  0  0  0  0
   -4.3930   21.9590  -32.3830 C   0  0  0  0  0  0  0  0  0  0  0  0
   -4.5230   23.0970  -31.5800 C   0  0  0  0  0  0  0  0  0  0  0  0
   -4.8190   25.6300  -28.0190 H   0  0  0  0  0  0  0  0  0  0  0  0
   -4.9986   22.3798  -27.4886 H   0  0  0  0  0  0  0  0  0  0  0  0
   -0.4604   23.3480  -29.3406 H   0  0  0  0  0  0  0  0  0  0  0  0
   -0.5911   20.3094  -29.1836 H   0  0  0  0  0  0  0  0  0  0  0  0
    0.3406   21.3779  -28.0532 H   0  0  0  0  0  0  0  0  0  0  0  0
   -0.1194   19.0549  -27.1592 H   0  0  0  0  0  0  0  0  0  0  0  0
   -0.7312   20.4041  -26.1295 H   0  0  0  0  0  0  0  0  0  0  0  0
   -2.3684   18.7061  -28.0812 H   0  0  0  0  0  0  0  0  0  0  0  0
   -2.4331   18.6534  -26.2807 H   0  0  0  0  0  0  0  0  0  0  0  0
   -4.1930   20.1880  -26.7380 H   0  0  0  0  0  0  0  0  0  0  0  0
   -7.7973   22.7425  -30.6595 H   0  0  0  0  0  0  0  0  0  0  0  0
   -7.5658   20.7152  -32.0923 H   0  0  0  0  0  0  0  0  0  0  0  0
   -7.2301   17.2274  -31.9635 H   0  0  0  0  0  0  0  0  0  0  0  0
   -7.4146   18.2649  -33.4520 H   0  0  0  0  0  0  0  0  0  0  0  0
   -7.5986   15.8503  -33.9692 H   0  0  0  0  0  0  0  0  0  0  0  0
   -6.1844   16.6408  -34.7741 H   0  0  0  0  0  0  0  0  0  0  0  0
   -6.2556   14.6058  -32.5476 H   0  0  0  0  0  0  0  0  0  0  0  0
   -5.1640   14.7468  -33.9981 H   0  0  0  0  0  0  0  0  0  0  0  0
   -4.9036   15.9487  -31.2662 H   0  0  0  0  0  0  0  0  0  0  0  0
   -3.6469   15.3516  -32.4222 H   0  0  0  0  0  0  0  0  0  0  0  0
   -3.4792   17.7890  -32.1549 H   0  0  0  0  0  0  0  0  0  0  0  0
   -4.0110   17.3524  -33.8300 H   0  0  0  0  0  0  0  0  0  0  0  0
   -3.4319   21.7392  -32.8709 H   0  0  0  0  0  0  0  0  0  0  0  0
   -3.6629   23.7669  -31.4335 H   0  0  0  0  0  0  0  0  0  0  0  0
  1  2  2  0
  2  3  2  0
  2  4  1  0
  4  5  1  0
  5  6  2  0
  6  7  1  0
  7  8  2  0
  8  9  1  0
  9 10  2  0
 10 11  1  0
  8 12  1  0
 12 13  1  0
 13 14  1  0
 14 15  1  0
  2 16  1  0
 16 17  2  0
 17 18  1  0
 18 19  2  0
 19 20  1  0
 20 21  2  0
 20 22  2  0
 20 23  1  0
 23 24  1  0
 24 25  1  0
 25 26  1  0
 26 27  1  0
 27 28  1  0
 19 29  1  0
 29 30  2  0
 10  5  1  0
 30 16  1  0
 15  7  1  0
 28 23  1  0
  4 31  1  0
  6 32  1  0
  9 33  1  0
 12 34  1  0
 12 35  1  0
 13 36  1  0
 13 37  1  0
 14 38  1  0
 14 39  1  0
 15 40  1  0
 17 41  1  0
 18 42  1  0
 24 43  1  0
 24 44  1  0
 25 45  1  0
 25 46  1  0
 26 47  1  0
 26 48  1  0
 27 49  1  0
 27 50  1  0
 28 51  1  0
 28 52  1  0
 29 53  1  0
 30 54  1  0
M  CHG  1  11  -1
M  END
>  <UniqueID>  (49) 
46

>  <SMILES>  (49) 
O=S(=O)(Nc1cc2c(cc1[O-])CCCN2)c1ccc(S(=O)(=O)N2CCCCC2)cc1

>  <Energy>  (49) 
62.9959887884312

>  <Genealogy>  (49) 
O=S(=O)(Nc1cc2c(cc1[O-])CCCN2)c1ccc(S(=O)(=O)N2CCCCC2)cc1 (protonated)
O=S(=O)(Nc1cc2c(cc1[O-])CCCN2)c1ccc(S(=O)(=O)N2CCCCC2)cc1 (3D coordinates assigned)
O=S(=O)(Nc1cc2c(cc1[O-])CCCN2)c1ccc(S(=O)(=O)N2CCCCC2)cc1 (nonaromatic ring conformer: 62.9959887884312 kcal/mol)

>  <smiles>  (49) 
O=S(=O)(Nc1cc2c(cc1O)CCCN2)c1ccc(S(=O)(=O)N2CCCCC2)cc1

>  <score_type>  (49) 
oracle

>  <origin>  (49) 
adgpu

>  <m_score__min__energy>  (49) 
-14.720000000000001

>  <m_primary>  (49) 
energy

$$$$
49:0
     RDKit          3D

 56 59  0  0  0  0  0  0  0  0999 V2000
   -2.9310   21.3410  -32.3690 C   0  0  0  0  0  0  0  0  0  0  0  0
   -2.3500   21.9350  -31.1200 C   0  0  0  0  0  0  0  0  0  0  0  0
   -1.0960   22.0340  -31.0220 O   0  0  0  0  0  0  0  0  0  0  0  0
   -3.1960   22.3990  -30.0480 N   0  0  0  0  0  0  0  0  0  0  0  0
   -2.6850   22.3800  -28.6660 C   0  0  0  0  0  0  0  0  0  0  0  0
   -2.5690   23.7880  -28.0520 C   0  0  2  0  0  0  0  0  0  0  0  0
   -3.7820   24.1020  -27.1680 C   0  0  0  0  0  0  0  0  0  0  0  0
   -2.3660   24.8210  -29.1350 C   0  0  0  0  0  0  0  0  0  0  0  0
   -1.2290   25.3130  -29.3570 O   0  0  0  0  0  0  0  0  0  0  0  0
   -3.4880   25.2850  -29.8910 N   0  0  0  0  0  0  0  0  0  0  0  0
   -4.5980   24.4420  -30.2340 C   0  0  0  0  0  0  0  0  0  0  0  0
   -5.8490   25.0290  -30.4600 C   0  0  0  0  0  0  0  0  0  0  0  0
   -6.9320   24.2470  -30.8680 C   0  0  0  0  0  0  0  0  0  0  0  0
   -6.7880   22.8640  -31.0190 C   0  0  0  0  0  0  0  0  0  0  0  0
   -8.1370   21.9110  -31.6310 S   0  0  0  0  0  0  0  0  0  0  0  0
   -9.2770   22.8350  -31.9430 O   0  0  0  0  0  0  0  0  0  0  0  0
   -8.6090   20.9090  -30.6120 O   0  0  0  0  0  0  0  0  0  0  0  0
   -7.6530   21.1110  -33.0950 N   0  0  0  0  0  0  0  0  0  0  0  0
   -7.1300   19.7770  -33.1850 C   0  0  0  0  0  0  0  0  0  0  0  0
   -5.8940   19.5160  -33.7960 C   0  0  0  0  0  0  0  0  0  0  0  0
   -5.4040   18.2070  -33.8820 C   0  0  0  0  0  0  0  0  0  0  0  0
   -6.1360   17.1440  -33.3330 C   0  0  0  0  0  0  0  0  0  0  0  0
   -7.3660   17.4030  -32.7170 C   0  0  0  0  0  0  0  0  0  0  0  0
   -7.8660   18.7080  -32.6390 C   0  0  0  0  0  0  0  0  0  0  0  0
   -9.1040   18.9150  -32.0260 O   0  0  0  0  0  0  0  0  0  0  0  0
   -5.6370   15.7210  -33.4790 C   0  0  0  0  0  0  0  0  0  0  0  0
   -4.1520   15.5880  -33.6380 N   0  0  0  0  0  0  0  0  0  0  0  0
   -3.5840   14.6610  -32.6390 C   0  0  0  0  0  0  0  0  0  0  0  0
   -3.3840   16.8520  -33.6540 C   0  0  0  0  0  0  0  0  0  0  0  0
   -4.0790   17.9100  -34.5070 C   0  0  0  0  0  0  0  0  0  0  0  0
   -5.5520   22.2630  -30.7450 C   0  0  0  0  0  0  0  0  0  0  0  0
   -4.4510   23.0420  -30.3560 C   0  0  0  0  0  0  0  0  0  0  0  0
   -3.6768   20.5785  -32.0999 H   0  0  0  0  0  0  0  0  0  0  0  0
   -3.4132   22.1325  -32.9615 H   0  0  0  0  0  0  0  0  0  0  0  0
   -2.1291   20.8764  -32.9615 H   0  0  0  0  0  0  0  0  0  0  0  0
   -3.3696   21.7820  -28.0466 H   0  0  0  0  0  0  0  0  0  0  0  0
   -1.6743   21.9466  -28.6930 H   0  0  0  0  0  0  0  0  0  0  0  0
   -1.6837   23.8186  -27.3999 H   0  0  0  0  0  0  0  0  0  0  0  0
   -3.4933   24.0273  -26.1092 H   0  0  0  0  0  0  0  0  0  0  0  0
   -4.1364   25.1215  -27.3803 H   0  0  0  0  0  0  0  0  0  0  0  0
   -4.5865   23.3825  -27.3803 H   0  0  0  0  0  0  0  0  0  0  0  0
   -5.9795   26.1116  -30.3155 H   0  0  0  0  0  0  0  0  0  0  0  0
   -7.9033   24.7214  -31.0716 H   0  0  0  0  0  0  0  0  0  0  0  0
   -5.3048   20.3470  -34.2111 H   0  0  0  0  0  0  0  0  0  0  0  0
   -7.9460   16.5718  -32.2895 H   0  0  0  0  0  0  0  0  0  0  0  0
   -9.4480   19.8400  -31.8030 H   0  0  0  0  0  0  0  0  0  0  0  0
   -5.9366   15.1597  -32.5817 H   0  0  0  0  0  0  0  0  0  0  0  0
   -6.0836   15.3300  -34.4051 H   0  0  0  0  0  0  0  0  0  0  0  0
   -3.8096   15.0291  -31.6273 H   0  0  0  0  0  0  0  0  0  0  0  0
   -4.0255   13.6624  -32.7727 H   0  0  0  0  0  0  0  0  0  0  0  0
   -2.4938   14.6009  -32.7727 H   0  0  0  0  0  0  0  0  0  0  0  0
   -3.2890   17.2271  -32.6243 H   0  0  0  0  0  0  0  0  0  0  0  0
   -2.3929   16.6517  -34.0871 H   0  0  0  0  0  0  0  0  0  0  0  0
   -3.4680   18.8241  -34.5397 H   0  0  0  0  0  0  0  0  0  0  0  0
   -4.2141   17.5445  -35.5357 H   0  0  0  0  0  0  0  0  0  0  0  0
   -5.4438   21.1721  -30.8355 H   0  0  0  0  0  0  0  0  0  0  0  0
  1  2  1  0
  2  3  2  0
  2  4  1  0
  4  5  1  0
  5  6  1  0
  6  7  1  0
  6  8  1  0
  8  9  2  0
  8 10  1  0
 10 11  1  0
 11 12  2  0
 12 13  1  0
 13 14  2  0
 14 15  1  0
 15 16  2  0
 15 17  2  0
 15 18  1  0
 18 19  1  0
 19 20  2  0
 20 21  1  0
 21 22  2  0
 22 23  1  0
 23 24  2  0
 24 25  1  0
 22 26  1  0
 26 27  1  0
 27 28  1  0
 27 29  1  0
 29 30  1  0
 14 31  1  0
 31 32  2  0
 32  4  1  0
 32 11  1  0
 24 19  1  0
 30 21  1  0
  1 33  1  0
  1 34  1  0
  1 35  1  0
  5 36  1  0
  5 37  1  0
  6 38  1  1
  7 39  1  0
  7 40  1  0
  7 41  1  0
 12 42  1  0
 13 43  1  0
 20 44  1  0
 23 45  1  0
 25 46  1  0
 26 47  1  0
 26 48  1  0
 28 49  1  0
 28 50  1  0
 28 51  1  0
 29 52  1  0
 29 53  1  0
 30 54  1  0
 30 55  1  0
 31 56  1  0
M  CHG  2  10  -1  18  -1
M  END
>  <UniqueID>  (50) 
47

>  <SMILES>  (50) 
CC(=O)N1C[C@H](C)C(=O)[N-]c2ccc(S(=O)(=O)[N-]c3cc4c(cc3O)CN(C)CC4)cc21

>  <Energy>  (50) 
83.61686411954601

>  <Genealogy>  (50) 
CC(=O)N1CC(C)C(=O)[N-]c2ccc(S(=O)(=O)[N-]c3cc4c(cc3O)CN(C)CC4)cc21 (protonated)
CC(=O)N1C[C@H](C)C(=O)[N-]c2ccc(S(=O)(=O)[N-]c3cc4c(cc3O)CN(C)CC4)cc21 (chirality)
CC(=O)N1C[C@H](C)C(=O)[N-]c2ccc(S(=O)(=O)[N-]c3cc4c(cc3O)CN(C)CC4)cc21 (3D coordinates assigned)
CC(=O)N1C[C@H](C)C(=O)[N-]c2ccc(S(=O)(=O)[N-]c3cc4c(cc3O)CN(C)CC4)cc21 (nonaromatic ring conformer: 83.61686411954601 kcal/mol)

>  <smiles>  (50) 
CC(=O)N1CC(C)C(=O)Nc2ccc(S(=O)(=O)Nc3cc4c(cc3O)CN(C)CC4)cc21

>  <score_type>  (50) 
oracle

>  <origin>  (50) 
adgpu

>  <m_score__min__energy>  (50) 
-11.630000000000001

>  <m_primary>  (50) 
energy

$$$$
