0:0
     RDKit          3D

 49 51  0  0  0  0  0  0  0  0999 V2000
   -1.9620   20.3990  -33.9570 C   0  0  0  0  0  0  0  0  0  0  0  0
   -1.8690   20.8230  -32.5640 N   0  0  0  0  0  0  0  0  0  0  0  0
   -0.8190   20.3500  -31.7040 C   0  0  0  0  0  0  0  0  0  0  0  0
   -0.0470   19.4390  -32.1130 O   0  0  0  0  0  0  0  0  0  0  0  0
   -0.6380   20.8970  -30.3380 C   0  0  0  0  0  0  0  0  0  0  0  0
   -0.6610   20.0350  -29.2280 C   0  0  0  0  0  0  0  0  0  0  0  0
   -0.4700   20.5350  -27.9380 C   0  0  0  0  0  0  0  0  0  0  0  0
   -0.2580   21.9000  -27.7370 C   0  0  0  0  0  0  0  0  0  0  0  0
   -0.2470   22.7810  -28.8300 C   0  0  0  0  0  0  0  0  0  0  0  0
    0.0020   24.1850  -28.6690 N   0  0  0  0  0  0  0  0  0  0  0  0
   -0.9800   25.1980  -28.4290 C   0  0  0  0  0  0  0  0  0  0  0  0
   -1.2410   26.0260  -29.3420 O   0  0  0  0  0  0  0  0  0  0  0  0
   -1.6990   25.2410  -27.1930 N   0  0  0  0  0  0  0  0  0  0  0  0
   -3.0640   24.7530  -27.0320 C   0  0  0  0  0  0  0  0  0  0  0  0
   -3.4850   23.9720  -28.2460 C   0  0  0  0  0  0  0  0  0  0  0  0
   -3.9760   24.6440  -29.3770 C   0  0  0  0  0  0  0  0  0  0  0  0
   -4.3940   23.9250  -30.5010 C   0  0  0  0  0  0  0  0  0  0  0  0
   -4.3230   22.5250  -30.5060 C   0  0  0  0  0  0  0  0  0  0  0  0
   -4.8780   21.6200  -31.9090 S   0  0  0  0  0  0  0  0  0  0  0  0
   -4.3490   20.2140  -31.8510 O   0  0  0  0  0  0  0  0  0  0  0  0
   -4.3640   22.2590  -33.1690 O   0  0  0  0  0  0  0  0  0  0  0  0
   -6.6360   21.6040  -31.9220 C   0  0  0  0  0  0  0  0  0  0  0  0
   -7.3560   22.8080  -31.9320 C   0  0  0  0  0  0  0  0  0  0  0  0
   -8.7540   22.7890  -31.9670 C   0  0  0  0  0  0  0  0  0  0  0  0
   -9.4370   21.5700  -31.9990 C   0  0  0  0  0  0  0  0  0  0  0  0
   -8.7250   20.3680  -31.9980 C   0  0  0  0  0  0  0  0  0  0  0  0
   -7.3270   20.3830  -31.9630 C   0  0  0  0  0  0  0  0  0  0  0  0
   -3.8480   21.8510  -29.3740 C   0  0  0  0  0  0  0  0  0  0  0  0
   -3.4300   22.5700  -28.2500 C   0  0  0  0  0  0  0  0  0  0  0  0
   -0.4120   22.2710  -30.1260 C   0  0  0  0  0  0  0  0  0  0  0  0
   -2.1975   19.3253  -33.9985 H   0  0  0  0  0  0  0  0  0  0  0  0
   -2.7566   20.9684  -34.4613 H   0  0  0  0  0  0  0  0  0  0  0  0
   -1.0020   20.5836  -34.4613 H   0  0  0  0  0  0  0  0  0  0  0  0
   -2.6190   21.4450  -32.1890 H   0  0  0  0  0  0  0  0  0  0  0  0
   -0.8307   18.9584  -29.3765 H   0  0  0  0  0  0  0  0  0  0  0  0
   -0.4867   19.8505  -27.0771 H   0  0  0  0  0  0  0  0  0  0  0  0
   -0.0991   22.2864  -26.7194 H   0  0  0  0  0  0  0  0  0  0  0  0
   -3.1149   24.1026  -26.1464 H   0  0  0  0  0  0  0  0  0  0  0  0
   -3.7391   25.6124  -26.9073 H   0  0  0  0  0  0  0  0  0  0  0  0
   -4.0321   25.7426  -29.3787 H   0  0  0  0  0  0  0  0  0  0  0  0
   -4.7791   24.4586  -31.3825 H   0  0  0  0  0  0  0  0  0  0  0  0
   -6.8202   23.7685  -31.9123 H   0  0  0  0  0  0  0  0  0  0  0  0
   -9.3165   23.7343  -31.9693 H   0  0  0  0  0  0  0  0  0  0  0  0
  -10.5366   21.5570  -32.0250 H   0  0  0  0  0  0  0  0  0  0  0  0
   -9.2641   19.4095  -32.0247 H   0  0  0  0  0  0  0  0  0  0  0  0
   -6.7677   19.4358  -31.9676 H   0  0  0  0  0  0  0  0  0  0  0  0
   -3.8036   20.7519  -29.3691 H   0  0  0  0  0  0  0  0  0  0  0  0
   -3.0564   22.0341  -27.3650 H   0  0  0  0  0  0  0  0  0  0  0  0
   -0.3643   22.9528  -30.9879 H   0  0  0  0  0  0  0  0  0  0  0  0
  1  2  1  0
  2  3  1  0
  3  4  2  0
  3  5  1  0
  5  6  2  0
  6  7  1  0
  7  8  2  0
  8  9  1  0
  9 10  1  0
 10 11  1  0
 11 12  2  0
 11 13  1  0
 13 14  1  0
 14 15  1  0
 15 16  2  0
 16 17  1  0
 17 18  2  0
 18 19  1  0
 19 20  2  0
 19 21  2  0
 19 22  1  0
 22 23  2  0
 23 24  1  0
 24 25  2  0
 25 26  1  0
 26 27  2  0
 18 28  1  0
 28 29  2  0
  9 30  2  0
 30  5  1  0
 29 15  1  0
 27 22  1  0
  1 31  1  0
  1 32  1  0
  1 33  1  0
  2 34  1  0
  6 35  1  0
  7 36  1  0
  8 37  1  0
 14 38  1  0
 14 39  1  0
 16 40  1  0
 17 41  1  0
 23 42  1  0
 24 43  1  0
 25 44  1  0
 26 45  1  0
 27 46  1  0
 28 47  1  0
 29 48  1  0
 30 49  1  0
M  CHG  2  10  -1  13  -1
M  END
>  <UniqueID>  (1) 
1

>  <SMILES>  (1) 
CNC(=O)c1cccc([N-]C(=O)[N-]Cc2ccc(S(=O)(=O)c3ccccc3)cc2)c1

>  <Energy>  (1) 
54.002177969535964

>  <Genealogy>  (1) 
CNC(=O)c1cccc([N-]C(=O)[N-]Cc2ccc(S(=O)(=O)c3ccccc3)cc2)c1 (protonated)
CNC(=O)c1cccc([N-]C(=O)[N-]Cc2ccc(S(=O)(=O)c3ccccc3)cc2)c1 (3D coordinates assigned)
CNC(=O)c1cccc([N-]C(=O)[N-]Cc2ccc(S(=O)(=O)c3ccccc3)cc2)c1 (optimized conformer: 54.002177969535964 kcal/mol)

>  <smiles>  (1) 
CNC(=O)c1cccc(NC(=O)NCc2ccc(S(=O)(=O)c3ccccc3)cc2)c1

>  <score_type>  (1) 
oracle

>  <origin>  (1) 
adgpu

>  <m_score__min__energy>  (1) 
-13.619999999999999

>  <m_primary>  (1) 
energy

$$$$
1:0
     RDKit          3D

 37 38  0  0  0  0  0  0  0  0999 V2000
   -3.4940   18.9030  -26.3560 C   0  0  0  0  0  0  0  0  0  0  0  0
   -2.8050   19.2550  -27.5500 O   0  0  0  0  0  0  0  0  0  0  0  0
   -2.7530   20.5640  -28.0360 C   0  0  0  0  0  0  0  0  0  0  0  0
   -1.9730   20.8500  -29.1570 C   0  0  0  0  0  0  0  0  0  0  0  0
   -1.9230   22.1550  -29.6440 C   0  0  0  0  0  0  0  0  0  0  0  0
   -2.6440   23.1760  -29.0070 C   0  0  0  0  0  0  0  0  0  0  0  0
   -2.5930   24.5500  -29.5480 C   0  0  0  0  0  0  0  0  0  0  0  0
   -1.6600   25.3170  -29.1940 O   0  0  0  0  0  0  0  0  0  0  0  0
   -3.5730   25.0320  -30.4750 N   0  0  0  0  0  0  0  0  0  0  0  0
   -4.9990   25.1250  -30.1880 C   0  0  0  0  0  0  0  0  0  0  0  0
   -5.6960   23.9160  -30.7370 C   0  0  0  0  0  0  0  0  0  0  0  0
   -7.0600   23.7040  -30.4780 C   0  0  0  0  0  0  0  0  0  0  0  0
   -7.7170   22.5940  -31.0170 C   0  0  0  0  0  0  0  0  0  0  0  0
   -7.0250   21.6940  -31.8430 C   0  0  0  0  0  0  0  0  0  0  0  0
   -7.7200   20.4830  -32.3910 C   0  0  0  0  0  0  0  0  0  0  0  0
   -5.6620   21.9040  -32.1010 C   0  0  0  0  0  0  0  0  0  0  0  0
   -5.0050   23.0130  -31.5620 C   0  0  0  0  0  0  0  0  0  0  0  0
   -3.4240   22.8490  -27.8750 C   0  0  0  0  0  0  0  0  0  0  0  0
   -4.2250   23.8830  -27.1410 C   0  0  0  0  0  0  0  0  0  0  0  0
   -3.4540   21.5620  -27.4310 N   0  0  0  0  0  0  0  0  0  0  0  0
   -2.8965   19.2082  -25.4843 H   0  0  0  0  0  0  0  0  0  0  0  0
   -4.4677   19.4141  -26.3303 H   0  0  0  0  0  0  0  0  0  0  0  0
   -3.6505   17.8145  -26.3303 H   0  0  0  0  0  0  0  0  0  0  0  0
   -1.4017   20.0514  -29.6528 H   0  0  0  0  0  0  0  0  0  0  0  0
   -1.3156   22.3853  -30.5317 H   0  0  0  0  0  0  0  0  0  0  0  0
   -5.1521   25.1747  -29.0998 H   0  0  0  0  0  0  0  0  0  0  0  0
   -5.4103   26.0313  -30.6564 H   0  0  0  0  0  0  0  0  0  0  0  0
   -7.6142   24.4151  -29.8478 H   0  0  0  0  0  0  0  0  0  0  0  0
   -8.7806   22.4250  -30.7930 H   0  0  0  0  0  0  0  0  0  0  0  0
   -8.0785   19.8583  -31.5596 H   0  0  0  0  0  0  0  0  0  0  0  0
   -8.5746   20.7983  -33.0077 H   0  0  0  0  0  0  0  0  0  0  0  0
   -7.0166   19.9042  -33.0077 H   0  0  0  0  0  0  0  0  0  0  0  0
   -5.1080   21.1922  -32.7306 H   0  0  0  0  0  0  0  0  0  0  0  0
   -3.9408   23.1800  -31.7849 H   0  0  0  0  0  0  0  0  0  0  0  0
   -4.1100   23.7345  -26.0571 H   0  0  0  0  0  0  0  0  0  0  0  0
   -3.8662   24.8864  -27.4138 H   0  0  0  0  0  0  0  0  0  0  0  0
   -5.2863   23.7864  -27.4138 H   0  0  0  0  0  0  0  0  0  0  0  0
  1  2  1  0
  2  3  1  0
  3  4  2  0
  4  5  1  0
  5  6  2  0
  6  7  1  0
  7  8  2  0
  7  9  1  0
  9 10  1  0
 10 11  1  0
 11 12  2  0
 12 13  1  0
 13 14  2  0
 14 15  1  0
 14 16  1  0
 16 17  2  0
  6 18  1  0
 18 19  1  0
 18 20  2  0
 20  3  1  0
 17 11  1  0
  1 21  1  0
  1 22  1  0
  1 23  1  0
  4 24  1  0
  5 25  1  0
 10 26  1  0
 10 27  1  0
 12 28  1  0
 13 29  1  0
 15 30  1  0
 15 31  1  0
 15 32  1  0
 16 33  1  0
 17 34  1  0
 19 35  1  0
 19 36  1  0
 19 37  1  0
M  CHG  1   9  -1
M  END
>  <UniqueID>  (2) 
2

>  <SMILES>  (2) 
COc1ccc(C(=O)[N-]Cc2ccc(C)cc2)c(C)n1

>  <Energy>  (2) 
38.289468144461

>  <Genealogy>  (2) 
COc1ccc(C(=O)[N-]Cc2ccc(C)cc2)c(C)n1 (protonated)
COc1ccc(C(=O)[N-]Cc2ccc(C)cc2)c(C)n1 (3D coordinates assigned)
COc1ccc(C(=O)[N-]Cc2ccc(C)cc2)c(C)n1 (optimized conformer: 38.289468144461 kcal/mol)

>  <smiles>  (2) 
COc1ccc(C(=O)NCc2ccc(C)cc2)c(C)n1

>  <score_type>  (2) 
oracle

>  <origin>  (2) 
adgpu

>  <m_score__min__energy>  (2) 
-8.7799999999999994

>  <m_primary>  (2) 
energy

$$$$
2:0
     RDKit          3D

 41 44  0  0  0  0  0  0  0  0999 V2000
   -0.5310   18.5960  -34.8110 C   0  0  0  0  0  0  0  0  0  0  0  0
   -1.0640   19.6000  -33.8310 C   0  0  0  0  0  0  0  0  0  0  0  0
   -2.4250   19.9370  -33.8330 C   0  0  0  0  0  0  0  0  0  0  0  0
   -2.9150   20.8980  -32.9440 C   0  0  0  0  0  0  0  0  0  0  0  0
   -2.0480   21.5470  -32.0490 C   0  0  0  0  0  0  0  0  0  0  0  0
   -2.5710   22.5600  -31.1120 C   0  0  0  0  0  0  0  0  0  0  0  0
   -1.9340   22.9380  -29.9810 N   0  0  0  0  0  0  0  0  0  0  0  0
   -2.7580   23.8600  -29.4430 C   0  0  0  0  0  0  0  0  0  0  0  0
   -2.4530   24.5930  -28.1980 C   0  0  0  0  0  0  0  0  0  0  0  0
   -1.2370   25.2870  -28.0800 C   0  0  0  0  0  0  0  0  0  0  0  0
   -0.9350   25.9910  -26.9110 C   0  0  0  0  0  0  0  0  0  0  0  0
   -1.8370   25.9980  -25.8440 C   0  0  0  0  0  0  0  0  0  0  0  0
   -1.5410   26.6800  -24.7100 F   0  0  0  0  0  0  0  0  0  0  0  0
   -3.0400   25.2940  -25.9440 C   0  0  0  0  0  0  0  0  0  0  0  0
   -3.3460   24.5900  -27.1120 C   0  0  0  0  0  0  0  0  0  0  0  0
   -3.8470   24.0190  -30.2790 C   0  0  0  0  0  0  0  0  0  0  0  0
   -5.2090   25.1750  -30.1170 S   0  0  0  0  0  0  0  0  0  0  0  0
   -6.4070   23.9560  -30.6460 C   0  0  0  0  0  0  0  0  0  0  0  0
   -6.6610   23.7600  -32.0070 C   0  0  0  0  0  0  0  0  0  0  0  0
   -7.5890   22.7920  -32.3960 C   0  0  0  0  0  0  0  0  0  0  0  0
   -8.2530   22.0360  -31.4260 C   0  0  0  0  0  0  0  0  0  0  0  0
   -9.4200   20.8160  -31.8980 Cl  0  0  0  0  0  0  0  0  0  0  0  0
   -7.9760   22.2650  -30.0750 C   0  0  0  0  0  0  0  0  0  0  0  0
   -7.0670   23.2110  -29.7170 N   0  0  0  0  0  0  0  0  0  0  0  0
   -3.7050   23.2030  -31.2920 O   0  0  0  0  0  0  0  0  0  0  0  0
   -0.6810   21.2210  -32.0630 C   0  0  0  0  0  0  0  0  0  0  0  0
   -0.1920   20.2590  -32.9510 C   0  0  0  0  0  0  0  0  0  0  0  0
   -0.0833   17.7526  -34.2649 H   0  0  0  0  0  0  0  0  0  0  0  0
   -1.3528   18.2286  -35.4432 H   0  0  0  0  0  0  0  0  0  0  0  0
    0.2337   19.0709  -35.4432 H   0  0  0  0  0  0  0  0  0  0  0  0
   -3.1103   19.4429  -34.5374 H   0  0  0  0  0  0  0  0  0  0  0  0
   -3.9863   21.1477  -32.9452 H   0  0  0  0  0  0  0  0  0  0  0  0
   -0.5184   25.2762  -28.9127 H   0  0  0  0  0  0  0  0  0  0  0  0
    0.0145   26.5405  -26.8308 H   0  0  0  0  0  0  0  0  0  0  0  0
   -3.7476   25.2939  -25.1018 H   0  0  0  0  0  0  0  0  0  0  0  0
   -4.2905   24.0306  -27.1820 H   0  0  0  0  0  0  0  0  0  0  0  0
   -6.1354   24.3619  -32.7630 H   0  0  0  0  0  0  0  0  0  0  0  0
   -7.7970   22.6248  -33.4631 H   0  0  0  0  0  0  0  0  0  0  0  0
   -8.4937   21.6795  -29.3009 H   0  0  0  0  0  0  0  0  0  0  0  0
    0.0084   21.7262  -31.3706 H   0  0  0  0  0  0  0  0  0  0  0  0
    0.8811   20.0174  -32.9601 H   0  0  0  0  0  0  0  0  0  0  0  0
  1  2  1  0
  2  3  2  0
  3  4  1  0
  4  5  2  0
  5  6  1  0
  6  7  2  0
  7  8  1  0
  8  9  1  0
  9 10  2  0
 10 11  1  0
 11 12  2  0
 12 13  1  0
 12 14  1  0
 14 15  2  0
  8 16  2  0
 16 17  1  0
 17 18  1  0
 18 19  2  0
 19 20  1  0
 20 21  2  0
 21 22  1  0
 21 23  1  0
 23 24  2  0
 16 25  1  0
  5 26  1  0
 26 27  2  0
 27  2  1  0
 25  6  1  0
 15  9  1  0
 24 18  1  0
  1 28  1  0
  1 29  1  0
  1 30  1  0
  3 31  1  0
  4 32  1  0
 10 33  1  0
 11 34  1  0
 14 35  1  0
 15 36  1  0
 19 37  1  0
 20 38  1  0
 23 39  1  0
 26 40  1  0
 27 41  1  0
M  END
>  <UniqueID>  (3) 
3

>  <SMILES>  (3) 
Cc1ccc(-c2nc(-c3ccc(F)cc3)c(Sc3ccc(Cl)cn3)o2)cc1

>  <Energy>  (3) 
74.82472952714826

>  <Genealogy>  (3) 
Cc1ccc(-c2nc(-c3ccc(F)cc3)c(Sc3ccc(Cl)cn3)o2)cc1 (3D coordinates assigned)
Cc1ccc(-c2nc(-c3ccc(F)cc3)c(Sc3ccc(Cl)cn3)o2)cc1 (optimized conformer: 74.82472952714826 kcal/mol)

>  <smiles>  (3) 
Cc1ccc(-c2nc(-c3ccc(F)cc3)c(Sc3ccc(Cl)cn3)o2)cc1

>  <score_type>  (3) 
oracle

>  <origin>  (3) 
adgpu

>  <m_score__min__energy>  (3) 
-8.6799999999999997

>  <m_primary>  (3) 
energy

$$$$
3:0
     RDKit          3D

 41 43  0  0  0  0  0  0  0  0999 V2000
   -2.6549   17.5102  -34.9317 H   0  0  0  0  0  0  0  0  0  0  0  0
   -3.2300   18.2840  -34.4020 C   0  0  0  0  0  0  0  0  0  0  0  0
   -2.5670   19.3470  -33.7840 C   0  0  0  0  0  0  0  0  0  0  0  0
   -1.4697   19.4097  -33.8282 H   0  0  0  0  0  0  0  0  0  0  0  0
   -3.2960   20.3320  -33.1090 C   0  0  0  0  0  0  0  0  0  0  0  0
   -2.7679   21.1663  -32.6241 H   0  0  0  0  0  0  0  0  0  0  0  0
   -4.7000   20.2630  -33.0460 C   0  0  0  0  0  0  0  0  0  0  0  0
   -5.4760   21.3080  -32.3320 C   0  0  0  0  0  0  0  0  0  0  0  0
   -6.8810   21.2720  -32.3270 C   0  0  0  0  0  0  0  0  0  0  0  0
   -7.4089   20.4669  -32.8591 H   0  0  0  0  0  0  0  0  0  0  0  0
   -7.6120   22.2530  -31.6500 C   0  0  0  0  0  0  0  0  0  0  0  0
   -9.4050   22.1970  -31.6590 S   0  0  0  0  0  0  0  0  0  0  0  0
   -9.4680   20.5070  -32.3320 C   0  0  0  0  0  0  0  0  0  0  0  0
   -9.4950   19.7834  -31.5040 H   0  0  0  0  0  0  0  0  0  0  0  0
  -10.3711   20.3916  -32.9494 H   0  0  0  0  0  0  0  0  0  0  0  0
   -8.5760   20.3247  -32.9494 H   0  0  0  0  0  0  0  0  0  0  0  0
   -6.9490   23.2830  -30.9790 C   0  0  0  0  0  0  0  0  0  0  0  0
   -7.5306   24.0551  -30.4541 H   0  0  0  0  0  0  0  0  0  0  0  0
   -5.5440   23.3410  -30.9690 C   0  0  0  0  0  0  0  0  0  0  0  0
   -4.8400   24.4310  -30.2520 C   0  0  0  0  0  0  0  0  0  0  0  0
   -4.6150   25.5230  -30.8410 O   0  0  0  0  0  0  0  0  0  0  0  0
   -4.3350   24.2050  -28.9260 N   0  0  0  0  0  0  0  0  0  0  0  0
   -3.1670   24.5180  -28.4330 C   0  0  0  0  0  0  0  0  0  0  0  0
   -2.8620   24.0920  -27.1350 C   0  0  0  0  0  0  0  0  0  0  0  0
   -3.5965   23.5101  -26.5589 H   0  0  0  0  0  0  0  0  0  0  0  0
   -1.6250   24.4070  -26.5740 C   0  0  0  0  0  0  0  0  0  0  0  0
   -1.3802   24.0641  -25.5579 H   0  0  0  0  0  0  0  0  0  0  0  0
   -0.6930   25.1590  -27.3010 C   0  0  0  0  0  0  0  0  0  0  0  0
    0.6250   25.5040  -26.7230 C   0  0  0  0  0  0  0  0  0  0  0  0
    1.6640   25.4720  -27.4350 O   0  0  0  0  0  0  0  0  0  0  0  0
    0.7340   25.8680  -25.3860 O   0  0  0  0  0  0  0  0  0  0  0  0
   -1.0430   25.5900  -28.5890 C   0  0  0  0  0  0  0  0  0  0  0  0
   -0.3305   26.1894  -29.1748 H   0  0  0  0  0  0  0  0  0  0  0  0
   -2.2560   25.2740  -29.1220 N   0  0  0  0  0  0  0  0  0  0  0  0
   -2.4710   25.6710  -30.0610 H   0  0  0  0  0  0  0  0  0  0  0  0
   -4.8170   22.3470  -31.6500 C   0  0  0  0  0  0  0  0  0  0  0  0
   -3.7176   22.3830  -31.6490 H   0  0  0  0  0  0  0  0  0  0  0  0
   -5.3570   19.1870  -33.6740 C   0  0  0  0  0  0  0  0  0  0  0  0
   -6.4542   19.1192  -33.6349 H   0  0  0  0  0  0  0  0  0  0  0  0
   -4.6240   18.2040  -34.3470 C   0  0  0  0  0  0  0  0  0  0  0  0
   -5.1457   17.3667  -34.8337 H   0  0  0  0  0  0  0  0  0  0  0  0
  1  2  1  0
  2  3  2  0
  3  4  1  0
  3  5  1  0
  5  6  1  0
  5  7  2  0
  7  8  1  0
  8  9  2  0
  9 10  1  0
  9 11  1  0
 11 12  1  0
 12 13  1  0
 13 14  1  0
 13 15  1  0
 13 16  1  0
 11 17  2  0
 17 18  1  0
 17 19  1  0
 19 20  1  0
 20 21  2  0
 20 22  1  0
 22 23  2  0
 23 24  1  0
 24 25  1  0
 24 26  2  0
 26 27  1  0
 26 28  1  0
 28 29  1  0
 29 30  2  0
 29 31  1  0
 28 32  2  0
 32 33  1  0
 32 34  1  0
 34 35  1  0
 19 36  2  0
 36 37  1  0
  7 38  1  0
 38 39  1  0
 38 40  2  0
 40 41  1  0
 40  2  1  0
 36  8  1  0
 34 23  1  0
M  CHG  1  31  -1
M  END
>  <UniqueID>  (4) 
4

>  <SMILES>  (4) 
CSc1cc(C(=O)/N=c2/ccc(C(=O)[O-])c[nH]2)cc(-c2ccccc2)c1

>  <Energy>  (4) 
53.61573572699524

>  <Genealogy>  (4) 
CSc1cc(C(=O)N=c2ccc(C(=O)[O-])c[nH]2)cc(-c2ccccc2)c1 (protonated)
CSc1cc(C(=O)/N=c2/ccc(C(=O)[O-])c[nH]2)cc(-c2ccccc2)c1 (cis-trans isomerization)
CSc1cc(C(=O)/N=c2/ccc(C(=O)[O-])c[nH]2)cc(-c2ccccc2)c1 (3D coordinates assigned)
CSc1cc(C(=O)/N=c2/ccc(C(=O)[O-])c[nH]2)cc(-c2ccccc2)c1 (optimized conformer: 53.61573572699524 kcal/mol)

>  <smiles>  (4) 
CSc1cc(C(=O)N=c2ccc(C(=O)O)c[nH]2)cc(-c2ccccc2)c1

>  <score_type>  (4) 
oracle

>  <origin>  (4) 
adgpu

>  <m_score__min__energy>  (4) 
-11.140000000000001

>  <m_primary>  (4) 
energy

$$$$
4:0
     RDKit          3D

 46 48  0  0  0  0  0  0  0  0999 V2000
   -1.3960   26.2820  -25.1050 C   0  0  0  0  0  0  0  0  0  0  0  0
   -2.1420   25.4720  -26.1300 C   0  0  0  0  0  0  0  0  0  0  0  0
   -3.5270   25.2890  -25.9890 C   0  0  0  0  0  0  0  0  0  0  0  0
   -4.2440   24.5450  -26.9290 C   0  0  0  0  0  0  0  0  0  0  0  0
   -3.5900   23.9530  -28.0170 C   0  0  0  0  0  0  0  0  0  0  0  0
   -4.3550   23.2110  -28.9840 N   0  0  0  0  0  0  0  0  0  0  0  0
   -4.8560   23.7760  -30.2070 C   0  0  0  0  0  0  0  0  0  0  0  0
   -4.3130   24.8090  -30.6870 O   0  0  0  0  0  0  0  0  0  0  0  0
   -5.9730   23.1310  -30.9390 C   0  0  0  0  0  0  0  0  0  0  0  0
   -7.1950   23.8030  -31.1250 C   0  0  0  0  0  0  0  0  0  0  0  0
   -8.2400   23.1900  -31.8190 C   0  0  0  0  0  0  0  0  0  0  0  0
   -8.0810   21.9060  -32.3410 C   0  0  0  0  0  0  0  0  0  0  0  0
   -6.8660   21.2180  -32.1790 C   0  0  0  0  0  0  0  0  0  0  0  0
   -6.6940   19.8530  -32.7390 C   0  0  0  0  0  0  0  0  0  0  0  0
   -7.3890   18.7570  -32.1980 C   0  0  0  0  0  0  0  0  0  0  0  0
   -7.2150   17.4810  -32.7350 C   0  0  0  0  0  0  0  0  0  0  0  0
   -6.3480   17.3040  -33.8140 C   0  0  0  0  0  0  0  0  0  0  0  0
   -5.6810   18.3680  -34.3320 N   0  0  0  0  0  0  0  0  0  0  0  0
   -5.8310   19.6220  -33.8270 C   0  0  0  0  0  0  0  0  0  0  0  0
   -5.8170   21.8410  -31.4780 C   0  0  0  0  0  0  0  0  0  0  0  0
   -2.2040   24.1380  -28.1660 C   0  0  0  0  0  0  0  0  0  0  0  0
   -1.4740   24.8770  -27.2220 C   0  0  0  0  0  0  0  0  0  0  0  0
   -0.0550   25.0250  -27.3940 N   0  0  0  0  0  0  0  0  0  0  0  0
    0.7780   23.8330  -27.5480 C   0  0  0  0  0  0  0  0  0  0  0  0
    0.5530   26.3540  -27.4260 C   0  0  0  0  0  0  0  0  0  0  0  0
   -1.6929   25.9597  -24.0961 H   0  0  0  0  0  0  0  0  0  0  0  0
   -0.3142   26.1308  -25.2347 H   0  0  0  0  0  0  0  0  0  0  0  0
   -1.6355   27.3477  -25.2347 H   0  0  0  0  0  0  0  0  0  0  0  0
   -4.0517   25.7352  -25.1313 H   0  0  0  0  0  0  0  0  0  0  0  0
   -5.3311   24.4230  -26.8139 H   0  0  0  0  0  0  0  0  0  0  0  0
   -4.4510   22.1810  -28.8420 H   0  0  0  0  0  0  0  0  0  0  0  0
   -7.3279   24.8175  -30.7212 H   0  0  0  0  0  0  0  0  0  0  0  0
   -9.1932   23.7220  -31.9548 H   0  0  0  0  0  0  0  0  0  0  0  0
   -8.9113   21.4292  -32.8825 H   0  0  0  0  0  0  0  0  0  0  0  0
   -8.0720   18.9060  -31.3487 H   0  0  0  0  0  0  0  0  0  0  0  0
   -7.7564   16.6222  -32.3116 H   0  0  0  0  0  0  0  0  0  0  0  0
   -6.2046   16.3023  -34.2453 H   0  0  0  0  0  0  0  0  0  0  0  0
   -5.2747   20.4605  -34.2713 H   0  0  0  0  0  0  0  0  0  0  0  0
   -4.8613   21.3117  -31.3496 H   0  0  0  0  0  0  0  0  0  0  0  0
   -1.6864   23.6989  -29.0316 H   0  0  0  0  0  0  0  0  0  0  0  0
    1.0494   23.4446  -26.5553 H   0  0  0  0  0  0  0  0  0  0  0  0
    0.2194   23.0644  -28.1023 H   0  0  0  0  0  0  0  0  0  0  0  0
    1.6918   24.0934  -28.1023 H   0  0  0  0  0  0  0  0  0  0  0  0
    0.7149   26.7080  -26.3972 H   0  0  0  0  0  0  0  0  0  0  0  0
    1.5175   26.3034  -27.9524 H   0  0  0  0  0  0  0  0  0  0  0  0
   -0.1160   27.0507  -27.9524 H   0  0  0  0  0  0  0  0  0  0  0  0
  1  2  1  0
  2  3  2  0
  3  4  1  0
  4  5  2  0
  5  6  1  0
  6  7  1  0
  7  8  2  0
  7  9  1  0
  9 10  2  0
 10 11  1  0
 11 12  2  0
 12 13  1  0
 13 14  1  0
 14 15  2  0
 15 16  1  0
 16 17  2  0
 17 18  1  0
 18 19  2  0
 13 20  2  0
  5 21  1  0
 21 22  2  0
 22 23  1  0
 23 24  1  0
 23 25  1  0
 22  2  1  0
 20  9  1  0
 19 14  1  0
  1 26  1  0
  1 27  1  0
  1 28  1  0
  3 29  1  0
  4 30  1  0
  6 31  1  0
 10 32  1  0
 11 33  1  0
 12 34  1  0
 15 35  1  0
 16 36  1  0
 17 37  1  0
 19 38  1  0
 20 39  1  0
 21 40  1  0
 24 41  1  0
 24 42  1  0
 24 43  1  0
 25 44  1  0
 25 45  1  0
 25 46  1  0
M  END
>  <UniqueID>  (5) 
5

>  <SMILES>  (5) 
Cc1ccc(NC(=O)c2cccc(-c3cccnc3)c2)cc1N(C)C

>  <Energy>  (5) 
63.356767016157214

>  <Genealogy>  (5) 
Cc1ccc(NC(=O)c2cccc(-c3cccnc3)c2)cc1N(C)C (3D coordinates assigned)
Cc1ccc(NC(=O)c2cccc(-c3cccnc3)c2)cc1N(C)C (optimized conformer: 63.356767016157214 kcal/mol)

>  <smiles>  (5) 
Cc1ccc(NC(=O)c2cccc(-c3cccnc3)c2)cc1N(C)C

>  <score_type>  (5) 
oracle

>  <origin>  (5) 
adgpu

>  <m_score__min__energy>  (5) 
-8.9000000000000004

>  <m_primary>  (5) 
energy

$$$$
5:0
     RDKit          3D

 55 59  0  0  0  0  0  0  0  0999 V2000
    1.3920   17.1920  -28.9540 C   0  0  0  0  0  0  0  0  0  0  0  0
    0.9660   18.2250  -29.9410 C   0  0  0  0  0  0  0  0  0  0  0  0
    1.7830   18.8460  -30.8670 C   0  0  0  0  0  0  0  0  0  0  0  0
    0.9610   19.7640  -31.4860 C   0  0  0  0  0  0  0  0  0  0  0  0
   -0.2700   19.6770  -30.9390 N   0  0  0  0  0  0  0  0  0  0  0  0
   -1.4110   20.4900  -31.2770 C   0  0  0  0  0  0  0  0  0  0  0  0
   -1.7250   20.7080  -32.6270 C   0  0  0  0  0  0  0  0  0  0  0  0
   -2.7820   21.5410  -32.9880 C   0  0  0  0  0  0  0  0  0  0  0  0
   -3.5650   22.1610  -32.0040 C   0  0  0  0  0  0  0  0  0  0  0  0
   -4.6620   23.0150  -32.3600 N   0  0  0  0  0  0  0  0  0  0  0  0
   -5.3750   23.8040  -31.4020 C   0  0  0  0  0  0  0  0  0  0  0  0
   -5.0320   24.6270  -30.3420 C   0  0  0  0  0  0  0  0  0  0  0  0
   -3.7960   25.0540  -29.7640 N   0  0  0  0  0  0  0  0  0  0  0  0
   -3.0450   24.2140  -28.8320 C   0  0  2  0  0  0  0  0  0  0  0  0
   -3.9830   23.6440  -27.7660 C   0  0  0  0  0  0  0  0  0  0  0  0
   -1.9360   25.0120  -28.2010 C   0  0  0  0  0  0  0  0  0  0  0  0
   -1.1770   24.6350  -27.1080 C   0  0  0  0  0  0  0  0  0  0  0  0
   -0.2990   25.6760  -26.8900 C   0  0  0  0  0  0  0  0  0  0  0  0
   -0.5750   26.6210  -27.8590 C   0  0  0  0  0  0  0  0  0  0  0  0
   -1.5560   26.1970  -28.6230 O   0  0  0  0  0  0  0  0  0  0  0  0
   -6.3700   24.8720  -30.1020 C   0  0  0  0  0  0  0  0  0  0  0  0
   -7.0150   25.5540  -29.2630 O   0  0  0  0  0  0  0  0  0  0  0  0
   -6.7100   24.0830  -31.1820 C   0  0  0  0  0  0  0  0  0  0  0  0
   -7.7910   23.7460  -31.7310 O   0  0  0  0  0  0  0  0  0  0  0  0
   -3.2490   21.9680  -30.6540 C   0  0  0  0  0  0  0  0  0  0  0  0
   -2.1910   21.1230  -30.2750 C   0  0  0  0  0  0  0  0  0  0  0  0
   -1.9670   20.8730  -28.8330 C   0  0  0  0  0  0  0  0  0  0  0  0
   -0.8680   21.4500  -28.1770 C   0  0  0  0  0  0  0  0  0  0  0  0
   -0.6590   21.2160  -26.8150 C   0  0  0  0  0  0  0  0  0  0  0  0
   -1.5490   20.4130  -26.0970 C   0  0  0  0  0  0  0  0  0  0  0  0
   -2.6510   19.8430  -26.7400 C   0  0  0  0  0  0  0  0  0  0  0  0
   -2.8640   20.0750  -28.1020 C   0  0  0  0  0  0  0  0  0  0  0  0
   -0.2710   18.7560  -29.9870 N   0  0  0  0  0  0  0  0  0  0  0  0
    1.2350   17.5727  -27.9340 H   0  0  0  0  0  0  0  0  0  0  0  0
    0.7973   16.2782  -29.0999 H   0  0  0  0  0  0  0  0  0  0  0  0
    2.4580   16.9630  -29.0999 H   0  0  0  0  0  0  0  0  0  0  0  0
    2.8475   18.6519  -31.0652 H   0  0  0  0  0  0  0  0  0  0  0  0
    1.2587   20.4521  -32.2909 H   0  0  0  0  0  0  0  0  0  0  0  0
   -1.1296   20.2154  -33.4098 H   0  0  0  0  0  0  0  0  0  0  0  0
   -3.0035   21.7133  -34.0516 H   0  0  0  0  0  0  0  0  0  0  0  0
   -4.9310   23.1030  -33.3650 H   0  0  0  0  0  0  0  0  0  0  0  0
   -3.4940   26.0420  -29.9250 H   0  0  0  0  0  0  0  0  0  0  0  0
   -2.5973   23.3730  -29.3818 H   0  0  0  0  0  0  0  0  0  0  0  0
   -3.5903   23.8826  -26.7666 H   0  0  0  0  0  0  0  0  0  0  0  0
   -4.9829   24.0873  -27.8825 H   0  0  0  0  0  0  0  0  0  0  0  0
   -4.0501   22.5522  -27.8825 H   0  0  0  0  0  0  0  0  0  0  0  0
   -1.2569   23.7006  -26.5330 H   0  0  0  0  0  0  0  0  0  0  0  0
    0.4668   25.7407  -26.1030 H   0  0  0  0  0  0  0  0  0  0  0  0
   -0.0528   27.5823  -27.9735 H   0  0  0  0  0  0  0  0  0  0  0  0
   -3.8359   22.4840  -29.8798 H   0  0  0  0  0  0  0  0  0  0  0  0
   -0.1689   22.0885  -28.7370 H   0  0  0  0  0  0  0  0  0  0  0  0
    0.2076   21.6648  -26.3074 H   0  0  0  0  0  0  0  0  0  0  0  0
   -1.3821   20.2295  -25.0253 H   0  0  0  0  0  0  0  0  0  0  0  0
   -3.3514   19.2113  -26.1740 H   0  0  0  0  0  0  0  0  0  0  0  0
   -3.7368   19.6314  -28.6035 H   0  0  0  0  0  0  0  0  0  0  0  0
  1  2  1  0
  2  3  1  0
  3  4  2  0
  4  5  1  0
  5  6  1  0
  6  7  2  0
  7  8  1  0
  8  9  2  0
  9 10  1  0
 10 11  1  0
 11 12  2  0
 12 13  1  0
 13 14  1  0
 14 15  1  0
 14 16  1  0
 16 17  2  0
 17 18  1  0
 18 19  2  0
 19 20  1  0
 12 21  1  0
 21 22  2  0
 21 23  1  0
 23 24  2  0
  9 25  1  0
 25 26  2  0
 26 27  1  0
 27 28  2  0
 28 29  1  0
 29 30  2  0
 30 31  1  0
 31 32  2  0
  5 33  1  0
 33  2  2  0
 26  6  1  0
 32 27  1  0
 23 11  1  0
 20 16  1  0
  1 34  1  0
  1 35  1  0
  1 36  1  0
  3 37  1  0
  4 38  1  0
  7 39  1  0
  8 40  1  0
 10 41  1  0
 13 42  1  0
 14 43  1  6
 15 44  1  0
 15 45  1  0
 15 46  1  0
 17 47  1  0
 18 48  1  0
 19 49  1  0
 25 50  1  0
 28 51  1  0
 29 52  1  0
 30 53  1  0
 31 54  1  0
 32 55  1  0
M  END
>  <UniqueID>  (6) 
6

>  <SMILES>  (6) 
Cc1ccn(-c2ccc(Nc3c(N[C@H](C)c4ccco4)c(=O)c3=O)cc2-c2ccccc2)n1

>  <Energy>  (6) 
114.21965050168794

>  <Genealogy>  (6) 
Cc1ccn(-c2ccc(Nc3c(N[C@H](C)c4ccco4)c(=O)c3=O)cc2-c2ccccc2)n1 (chirality)
Cc1ccn(-c2ccc(Nc3c(N[C@H](C)c4ccco4)c(=O)c3=O)cc2-c2ccccc2)n1 (3D coordinates assigned)
Cc1ccn(-c2ccc(Nc3c(N[C@H](C)c4ccco4)c(=O)c3=O)cc2-c2ccccc2)n1 (optimized conformer: 114.21965050168794 kcal/mol)

>  <smiles>  (6) 
Cc1ccn(-c2ccc(Nc3c(NC(C)c4ccco4)c(=O)c3=O)cc2-c2ccccc2)n1

>  <score_type>  (6) 
oracle

>  <origin>  (6) 
adgpu

>  <m_score__min__energy>  (6) 
-10.25

>  <m_primary>  (6) 
energy

$$$$
6:0
     RDKit          3D

 30 31  0  0  0  0  0  0  0  0999 V2000
   -4.2080   24.5880  -28.6800 O   0  0  0  0  0  0  0  0  0  0  0  0
   -4.0270   24.1450  -30.1050 S   0  0  0  0  0  0  0  0  0  0  0  0
   -3.9360   25.3570  -30.9880 O   0  0  0  0  0  0  0  0  0  0  0  0
   -2.5540   23.2370  -30.2330 N   0  0  0  0  0  0  0  0  0  0  0  0
   -1.4810   23.2590  -29.2800 C   0  0  0  0  0  0  0  0  0  0  0  0
   -0.8780   22.0770  -28.8110 C   0  0  0  0  0  0  0  0  0  0  0  0
    0.1700   22.1390  -27.8870 C   0  0  0  0  0  0  0  0  0  0  0  0
    0.6220   23.3750  -27.4230 C   0  0  0  0  0  0  0  0  0  0  0  0
    0.0280   24.5530  -27.8810 C   0  0  0  0  0  0  0  0  0  0  0  0
   -1.0220   24.5000  -28.8080 C   0  0  0  0  0  0  0  0  0  0  0  0
   -1.6140   25.6770  -29.2650 O   0  0  0  0  0  0  0  0  0  0  0  0
   -5.3900   23.1600  -30.6270 C   0  0  0  0  0  0  0  0  0  0  0  0
   -6.6760   23.4130  -30.1310 C   0  0  0  0  0  0  0  0  0  0  0  0
   -7.7550   22.6240  -30.5410 C   0  0  0  0  0  0  0  0  0  0  0  0
   -7.5610   21.5630  -31.4420 C   0  0  0  0  0  0  0  0  0  0  0  0
   -8.7320   20.7430  -31.9220 C   0  0  0  0  0  0  0  0  0  0  0  0
   -9.8750   21.5210  -31.9940 F   0  0  0  0  0  0  0  0  0  0  0  0
   -8.9510   19.7020  -31.0400 F   0  0  0  0  0  0  0  0  0  0  0  0
   -8.4830   20.2230  -33.1800 F   0  0  0  0  0  0  0  0  0  0  0  0
   -6.2740   21.3360  -31.9600 C   0  0  0  0  0  0  0  0  0  0  0  0
   -5.1960   22.1260  -31.5490 C   0  0  0  0  0  0  0  0  0  0  0  0
   -1.2324   21.1005  -29.1726 H   0  0  0  0  0  0  0  0  0  0  0  0
    0.6388   21.2119  -27.5254 H   0  0  0  0  0  0  0  0  0  0  0  0
    1.4464   23.4214  -26.6963 H   0  0  0  0  0  0  0  0  0  0  0  0
    0.3855   25.5260  -27.5129 H   0  0  0  0  0  0  0  0  0  0  0  0
   -2.4980   25.6690  -29.7600 H   0  0  0  0  0  0  0  0  0  0  0  0
   -6.8370   24.2344  -29.4173 H   0  0  0  0  0  0  0  0  0  0  0  0
   -8.7633   22.8353  -30.1555 H   0  0  0  0  0  0  0  0  0  0  0  0
   -6.1140   20.5318  -32.6933 H   0  0  0  0  0  0  0  0  0  0  0  0
   -4.1909   21.9336  -31.9525 H   0  0  0  0  0  0  0  0  0  0  0  0
  1  2  2  0
  2  3  2  0
  2  4  1  0
  4  5  1  0
  5  6  2  0
  6  7  1  0
  7  8  2  0
  8  9  1  0
  9 10  2  0
 10 11  1  0
  2 12  1  0
 12 13  2  0
 13 14  1  0
 14 15  2  0
 15 16  1  0
 16 17  1  0
 16 18  1  0
 16 19  1  0
 15 20  1  0
 20 21  2  0
 10  5  1  0
 21 12  1  0
  6 22  1  0
  7 23  1  0
  8 24  1  0
  9 25  1  0
 11 26  1  0
 13 27  1  0
 14 28  1  0
 20 29  1  0
 21 30  1  0
M  CHG  1   4  -1
M  END
>  <UniqueID>  (7) 
7

>  <SMILES>  (7) 
O=S(=O)([N-]c1ccccc1O)c1ccc(C(F)(F)F)cc1

>  <Energy>  (7) 
34.10413376320088

>  <Genealogy>  (7) 
O=S(=O)([N-]c1ccccc1O)c1ccc(C(F)(F)F)cc1 (protonated)
O=S(=O)([N-]c1ccccc1O)c1ccc(C(F)(F)F)cc1 (3D coordinates assigned)
O=S(=O)([N-]c1ccccc1O)c1ccc(C(F)(F)F)cc1 (optimized conformer: 34.10413376320088 kcal/mol)

>  <smiles>  (7) 
O=S(=O)(Nc1ccccc1O)c1ccc(C(F)(F)F)cc1

>  <score_type>  (7) 
oracle

>  <origin>  (7) 
adgpu

>  <m_score__min__energy>  (7) 
-9.6999999999999993

>  <m_primary>  (7) 
energy

$$$$
7:0
     RDKit          3D

 42 44  0  0  0  0  0  0  0  0999 V2000
   -0.8490   26.4030  -24.0580 C   0  0  0  0  0  0  0  0  0  0  0  0
   -1.3430   26.8820  -25.3030 O   0  0  0  0  0  0  0  0  0  0  0  0
   -1.8470   25.9560  -26.2030 C   0  0  0  0  0  0  0  0  0  0  0  0
   -3.0560   25.3150  -26.0430 C   0  0  0  0  0  0  0  0  0  0  0  0
   -3.4790   24.4060  -26.9920 C   0  0  0  0  0  0  0  0  0  0  0  0
   -2.6880   24.1470  -28.0930 C   0  0  0  0  0  0  0  0  0  0  0  0
   -3.1710   23.1970  -29.0470 N   0  0  0  0  0  0  0  0  0  0  0  0
   -3.7750   23.5940  -30.2720 C   0  0  0  0  0  0  0  0  0  0  0  0
   -3.8640   24.8360  -30.4760 O   0  0  0  0  0  0  0  0  0  0  0  0
   -4.2670   22.6340  -31.2490 C   0  0  0  0  0  0  0  0  0  0  0  0
   -3.4720   22.0510  -32.2120 C   0  0  0  0  0  0  0  0  0  0  0  0
   -3.9690   21.1370  -33.1300 C   0  0  0  0  0  0  0  0  0  0  0  0
   -5.3110   20.7970  -33.0810 C   0  0  0  0  0  0  0  0  0  0  0  0
   -6.1220   21.3690  -32.1240 C   0  0  0  0  0  0  0  0  0  0  0  0
   -7.5540   21.0250  -32.0470 C   0  0  0  0  0  0  0  0  0  0  0  0
   -8.0540   19.7380  -32.0440 C   0  0  0  0  0  0  0  0  0  0  0  0
   -7.2280   18.5050  -32.1200 C   0  0  0  0  0  0  0  0  0  0  0  0
   -9.4050   19.8470  -31.9620 N   0  0  0  0  0  0  0  0  0  0  0  0
   -9.7300   21.1190  -31.9160 N   0  0  0  0  0  0  0  0  0  0  0  0
   -8.6320   21.8830  -31.9640 C   0  0  0  0  0  0  0  0  0  0  0  0
   -8.5120   23.1690  -31.9430 N   0  0  0  0  0  0  0  0  0  0  0  0
   -5.5990   22.2790  -31.2180 C   0  0  0  0  0  0  0  0  0  0  0  0
   -1.4730   24.7730  -28.2820 C   0  0  0  0  0  0  0  0  0  0  0  0
   -1.0780   25.6780  -27.3140 C   0  0  0  0  0  0  0  0  0  0  0  0
   -1.3733   26.9114  -23.2354 H   0  0  0  0  0  0  0  0  0  0  0  0
   -1.0211   25.3188  -23.9879 H   0  0  0  0  0  0  0  0  0  0  0  0
    0.2294   26.6084  -23.9879 H   0  0  0  0  0  0  0  0  0  0  0  0
   -3.6814   25.5265  -25.1631 H   0  0  0  0  0  0  0  0  0  0  0  0
   -4.4429   23.8900  -26.8711 H   0  0  0  0  0  0  0  0  0  0  0  0
   -3.0590   22.1890  -28.8040 H   0  0  0  0  0  0  0  0  0  0  0  0
   -2.4062   22.3197  -32.2543 H   0  0  0  0  0  0  0  0  0  0  0  0
   -3.3070   20.6889  -33.8857 H   0  0  0  0  0  0  0  0  0  0  0  0
   -5.7265   20.0760  -33.8003 H   0  0  0  0  0  0  0  0  0  0  0  0
   -6.9947   18.1567  -31.1030 H   0  0  0  0  0  0  0  0  0  0  0  0
   -7.7851   17.7229  -32.6566 H   0  0  0  0  0  0  0  0  0  0  0  0
   -6.2928   18.7227  -32.6566 H   0  0  0  0  0  0  0  0  0  0  0  0
  -10.0660   19.0220  -31.9410 H   0  0  0  0  0  0  0  0  0  0  0  0
  -10.7200   21.4760  -31.8480 H   0  0  0  0  0  0  0  0  0  0  0  0
   -7.5700   23.5810  -31.9900 H   0  0  0  0  0  0  0  0  0  0  0  0
   -6.2592   22.7262  -30.4602 H   0  0  0  0  0  0  0  0  0  0  0  0
   -0.8476   24.5619  -29.1619 H   0  0  0  0  0  0  0  0  0  0  0  0
   -0.1148   26.1955  -27.4343 H   0  0  0  0  0  0  0  0  0  0  0  0
  1  2  1  0
  2  3  1  0
  3  4  2  0
  4  5  1  0
  5  6  2  0
  6  7  1  0
  7  8  1  0
  8  9  2  0
  8 10  1  0
 10 11  2  0
 11 12  1  0
 12 13  2  0
 13 14  1  0
 14 15  1  0
 15 16  2  0
 16 17  1  0
 16 18  1  0
 18 19  1  0
 19 20  1  0
 20 21  2  3
 14 22  2  0
  6 23  1  0
 23 24  2  0
 24  3  1  0
 22 10  1  0
 20 15  1  0
  1 25  1  0
  1 26  1  0
  1 27  1  0
  4 28  1  0
  5 29  1  0
  7 30  1  0
 11 31  1  0
 12 32  1  0
 13 33  1  0
 17 34  1  0
 17 35  1  0
 17 36  1  0
 18 37  1  0
 19 38  1  0
 21 39  1  0
 22 40  1  0
 23 41  1  0
 24 42  1  0
M  END
>  <smiles>  (8) 
COc1ccc(NC(=O)c2cccc(-c3c(C)[nH][nH]c3=N)c2)cc1

>  <score_type>  (8) 
oracle

>  <origin>  (8) 
adgpu

>  <m_score__min__energy>  (8) 
-8.3200000000000003

>  <m_primary>  (8) 
energy

$$$$
8:0
     RDKit          3D

 26 27  0  0  0  0  0  0  0  0999 V2000
   -1.3890   24.8630  -29.6560 N   0  0  0  0  0  0  0  0  0  0  0  0
   -1.8040   23.6700  -28.9800 C   0  0  0  0  0  0  0  0  0  0  0  0
   -1.5030   23.5160  -27.6180 C   0  0  0  0  0  0  0  0  0  0  0  0
   -1.9220   22.3780  -26.9230 C   0  0  0  0  0  0  0  0  0  0  0  0
   -2.6490   21.3860  -27.5810 C   0  0  0  0  0  0  0  0  0  0  0  0
   -2.9520   21.5240  -28.9360 C   0  0  0  0  0  0  0  0  0  0  0  0
   -2.5240   22.6530  -29.6490 C   0  0  0  0  0  0  0  0  0  0  0  0
   -2.9130   22.7630  -31.4030 S   0  0  0  0  0  0  0  0  0  0  0  0
   -4.5970   23.3160  -31.1050 C   0  0  0  0  0  0  0  0  0  0  0  0
   -5.6450   22.3860  -31.1250 C   0  0  0  0  0  0  0  0  0  0  0  0
   -6.9600   22.8020  -30.8860 C   0  0  0  0  0  0  0  0  0  0  0  0
   -8.3820   21.5270  -30.9040 Br  0  0  0  0  0  0  0  0  0  0  0  0
   -7.2300   24.1500  -30.6340 C   0  0  0  0  0  0  0  0  0  0  0  0
   -6.1910   25.0840  -30.6260 C   0  0  0  0  0  0  0  0  0  0  0  0
   -4.8710   24.6730  -30.8640 C   0  0  0  0  0  0  0  0  0  0  0  0
   -3.8360   25.6060  -30.8660 O   0  0  0  0  0  0  0  0  0  0  0  0
   -2.0390   25.6750  -29.7440 H   0  0  0  0  0  0  0  0  0  0  0  0
   -0.4530   24.9450  -30.1090 H   0  0  0  0  0  0  0  0  0  0  0  0
   -0.9329   24.2969  -27.0933 H   0  0  0  0  0  0  0  0  0  0  0  0
   -1.6782   22.2646  -25.8564 H   0  0  0  0  0  0  0  0  0  0  0  0
   -2.9838   20.4940  -27.0312 H   0  0  0  0  0  0  0  0  0  0  0  0
   -3.5308   20.7415  -29.4486 H   0  0  0  0  0  0  0  0  0  0  0  0
   -5.4337   21.3260  -31.3291 H   0  0  0  0  0  0  0  0  0  0  0  0
   -8.2627   24.4762  -30.4416 H   0  0  0  0  0  0  0  0  0  0  0  0
   -6.4086   26.1448  -30.4325 H   0  0  0  0  0  0  0  0  0  0  0  0
   -3.1630   25.6530  -31.6230 H   0  0  0  0  0  0  0  0  0  0  0  0
  1  2  1  0
  2  3  2  0
  3  4  1  0
  4  5  2  0
  5  6  1  0
  6  7  2  0
  7  8  1  0
  8  9  1  0
  9 10  2  0
 10 11  1  0
 11 12  1  0
 11 13  2  0
 13 14  1  0
 14 15  2  0
 15 16  1  0
  7  2  1  0
 15  9  1  0
  1 17  1  0
  1 18  1  0
  3 19  1  0
  4 20  1  0
  5 21  1  0
  6 22  1  0
 10 23  1  0
 13 24  1  0
 14 25  1  0
 16 26  1  0
M  END
>  <UniqueID>  (9) 
8

>  <SMILES>  (9) 
Nc1ccccc1Sc1cc(Br)ccc1O

>  <Energy>  (9) 
22.51083118076639

>  <Genealogy>  (9) 
Nc1ccccc1Sc1cc(Br)ccc1O (3D coordinates assigned)
Nc1ccccc1Sc1cc(Br)ccc1O (optimized conformer: 22.51083118076639 kcal/mol)

>  <smiles>  (9) 
Nc1ccccc1Sc1cc(Br)ccc1O

>  <score_type>  (9) 
oracle

>  <origin>  (9) 
adgpu

>  <m_score__min__energy>  (9) 
-7.8700000000000001

>  <m_primary>  (9) 
energy

$$$$
9:0
     RDKit          3D

 45 48  0  0  0  0  0  0  0  0999 V2000
   -1.3380   25.0450  -28.5790 H   0  0  0  0  0  0  0  0  0  0  0  0
   -2.0110   25.2980  -29.3380 N   0  0  0  0  0  0  0  0  0  0  0  0
   -3.0840   24.6130  -29.5720 C   0  0  0  0  0  0  0  0  0  0  0  0
   -3.9170   24.9970  -30.5750 N   0  0  0  0  0  0  0  0  0  0  0  0
   -5.0560   24.3160  -30.8670 C   0  0  0  0  0  0  0  0  0  0  0  0
   -5.7008   24.6574  -31.6903 H   0  0  0  0  0  0  0  0  0  0  0  0
   -5.4160   23.1780  -30.1240 C   0  0  0  0  0  0  0  0  0  0  0  0
   -6.6580   22.4330  -30.4410 C   0  0  0  0  0  0  0  0  0  0  0  0
   -7.9380   22.6710  -29.9270 C   0  0  0  0  0  0  0  0  0  0  0  0
   -8.1858   23.4698  -29.2125 H   0  0  0  0  0  0  0  0  0  0  0  0
   -8.8300   21.7840  -30.4290 N   0  0  0  0  0  0  0  0  0  0  0  0
   -9.8510   21.7310  -30.2100 H   0  0  0  0  0  0  0  0  0  0  0  0
   -8.1330   20.9840  -31.2520 C   0  0  0  0  0  0  0  0  0  0  0  0
   -8.5910   19.8930  -31.9790 C   0  0  0  0  0  0  0  0  0  0  0  0
   -9.6499   19.5961  -31.9554 H   0  0  0  0  0  0  0  0  0  0  0  0
   -7.6520   19.1820  -32.7460 C   0  0  0  0  0  0  0  0  0  0  0  0
   -7.9712   18.3109  -33.3371 H   0  0  0  0  0  0  0  0  0  0  0  0
   -6.2880   19.5890  -32.7580 C   0  0  0  0  0  0  0  0  0  0  0  0
   -5.2560   18.8640  -33.5350 C   0  0  0  0  0  0  0  0  0  0  0  0
   -5.6270   17.7590  -34.2370 N   0  0  0  0  0  0  0  0  0  0  0  0
   -4.7410   17.0280  -34.9610 C   0  0  0  0  0  0  0  0  0  0  0  0
   -5.0839   16.1424  -35.5162 H   0  0  0  0  0  0  0  0  0  0  0  0
   -3.3970   17.3980  -35.0020 C   0  0  0  0  0  0  0  0  0  0  0  0
   -2.6794   16.8060  -35.5890 H   0  0  0  0  0  0  0  0  0  0  0  0
   -2.9630   18.5280  -34.2920 C   0  0  0  0  0  0  0  0  0  0  0  0
   -1.5250   18.9090  -34.3210 C   0  0  0  0  0  0  0  0  0  0  0  0
   -0.6540   17.9990  -34.2210 O   0  0  0  0  0  0  0  0  0  0  0  0
   -1.1060   20.2920  -34.4330 N   0  0  0  0  0  0  0  0  0  0  0  0
   -1.8140   20.8430  -34.9740 H   0  0  0  0  0  0  0  0  0  0  0  0
   -0.9720   20.8840  -33.0930 C   0  0  0  0  0  0  0  0  0  0  0  0
   -1.1472   20.1102  -32.3311 H   0  0  0  0  0  0  0  0  0  0  0  0
    0.0417   21.2940  -32.9730 H   0  0  0  0  0  0  0  0  0  0  0  0
   -1.7103   21.6905  -32.9730 H   0  0  0  0  0  0  0  0  0  0  0  0
    0.1630   20.3940  -35.1720 C   0  0  0  0  0  0  0  0  0  0  0  0
    0.9981   20.4611  -34.4591 H   0  0  0  0  0  0  0  0  0  0  0  0
    0.2916   19.5033  -35.8045 H   0  0  0  0  0  0  0  0  0  0  0  0
    0.1476   21.2938  -35.8045 H   0  0  0  0  0  0  0  0  0  0  0  0
   -3.9030   19.2570  -33.5410 C   0  0  0  0  0  0  0  0  0  0  0  0
   -3.5819   20.1333  -32.9588 H   0  0  0  0  0  0  0  0  0  0  0  0
   -5.9000   20.6650  -32.0060 N   0  0  0  0  0  0  0  0  0  0  0  0
   -6.8200   21.3490  -31.2820 C   0  0  0  0  0  0  0  0  0  0  0  0
   -4.5630   22.7650  -29.0880 C   0  0  0  0  0  0  0  0  0  0  0  0
   -4.8146   21.8739  -28.4942 H   0  0  0  0  0  0  0  0  0  0  0  0
   -3.3970   23.4800  -28.8080 C   0  0  0  0  0  0  0  0  0  0  0  0
   -2.7298   23.1572  -27.9952 H   0  0  0  0  0  0  0  0  0  0  0  0
  1  2  1  0
  2  3  2  0
  3  4  1  0
  4  5  1  0
  5  6  1  0
  5  7  2  0
  7  8  1  0
  8  9  2  0
  9 10  1  0
  9 11  1  0
 11 12  1  0
 11 13  1  0
 13 14  2  0
 14 15  1  0
 14 16  1  0
 16 17  1  0
 16 18  2  0
 18 19  1  0
 19 20  2  0
 20 21  1  0
 21 22  1  0
 21 23  2  0
 23 24  1  0
 23 25  1  0
 25 26  1  0
 26 27  2  0
 26 28  1  0
 28 29  1  0
 28 30  1  0
 30 31  1  0
 30 32  1  0
 30 33  1  0
 28 34  1  0
 34 35  1  0
 34 36  1  0
 34 37  1  0
 25 38  2  0
 38 39  1  0
 18 40  1  0
 40 41  2  0
  7 42  1  0
 42 43  1  0
 42 44  2  0
 44 45  1  0
 44  3  1  0
 41  8  1  0
 41 13  1  0
 38 19  1  0
M  CHG  2   4  -1  28   1
M  END
>  <UniqueID>  (10) 
9

>  <SMILES>  (10) 
[H]/N=c1\ccc(-c2c[nH]c3ccc(-c4cc(C(=O)[NH+](C)C)ccn4)nc23)c[n-]1

>  <Energy>  (10) 
96.29646388795709

>  <Genealogy>  (10) 
C[NH+](C)C(=O)c1ccnc(-c2ccc3[nH]cc(-c4ccc(=N)[n-]c4)c3n2)c1 (protonated)
[H]/N=c1\ccc(-c2c[nH]c3ccc(-c4cc(C(=O)[NH+](C)C)ccn4)nc23)c[n-]1 (cis-trans isomerization)
[H]/N=c1\ccc(-c2c[nH]c3ccc(-c4cc(C(=O)[NH+](C)C)ccn4)nc23)c[n-]1 (3D coordinates assigned)
[H]/N=c1\ccc(-c2c[nH]c3ccc(-c4cc(C(=O)[NH+](C)C)ccn4)nc23)c[n-]1 (optimized conformer: 96.29646388795709 kcal/mol)

>  <smiles>  (10) 
CN(C)C(=O)c1ccnc(-c2ccc3[nH]cc(-c4ccc(=N)[nH]c4)c3n2)c1

>  <score_type>  (10) 
oracle

>  <origin>  (10) 
adgpu

>  <m_score__min__energy>  (10) 
-10.23

>  <m_primary>  (10) 
energy

$$$$
10:0
     RDKit          3D

 59 62  0  0  0  0  0  0  0  0999 V2000
   -0.5450   24.2060  -25.8870 C   0  0  0  0  0  0  0  0  0  0  0  0
   -1.3960   24.3660  -27.1110 C   0  0  0  0  0  0  0  0  0  0  0  0
   -2.6980   23.8530  -27.1470 C   0  0  0  0  0  0  0  0  0  0  0  0
   -3.5000   24.0550  -28.2720 C   0  0  0  0  0  0  0  0  0  0  0  0
   -2.9920   24.7840  -29.3680 C   0  0  0  0  0  0  0  0  0  0  0  0
   -3.6920   25.0380  -30.4400 N   0  0  0  0  0  0  0  0  0  0  0  0
   -4.9960   24.5580  -30.8060 C   0  0  0  0  0  0  0  0  0  0  0  0
   -5.9210   25.3610  -31.0960 O   0  0  0  0  0  0  0  0  0  0  0  0
   -5.2720   23.1530  -30.8110 N   0  0  0  0  0  0  0  0  0  0  0  0
   -4.6770   22.1990  -31.7030 C   0  0  0  0  0  0  0  0  0  0  0  0
   -3.2820   22.0960  -31.8270 C   0  0  0  0  0  0  0  0  0  0  0  0
   -2.7130   21.1890  -32.7320 C   0  0  0  0  0  0  0  0  0  0  0  0
   -0.9660   21.1480  -32.9600 S   0  0  0  0  0  0  0  0  0  0  0  0
   -0.3110   21.8250  -31.7880 O   0  0  0  0  0  0  0  0  0  0  0  0
   -0.6040   21.9060  -34.2100 O   0  0  0  0  0  0  0  0  0  0  0  0
   -0.4060   19.4920  -33.0700 N   0  0  0  0  0  0  0  0  0  0  0  0
    1.0580   19.4100  -32.9980 C   0  0  0  0  0  0  0  0  0  0  0  0
    1.4370   19.1880  -31.5420 C   0  0  0  0  0  0  0  0  0  0  0  0
    0.1650   18.7210  -30.8560 C   0  0  0  0  0  0  0  0  0  0  0  0
   -0.9010   18.6950  -31.9430 C   0  0  0  0  0  0  0  0  0  0  0  0
   -3.5440   20.3450  -33.4810 C   0  0  0  0  0  0  0  0  0  0  0  0
   -4.9310   20.4080  -33.3260 C   0  0  0  0  0  0  0  0  0  0  0  0
   -5.5020   21.3340  -32.4430 C   0  0  0  0  0  0  0  0  0  0  0  0
   -6.9290   21.4210  -32.3310 N   0  0  0  0  0  0  0  0  0  0  0  0
   -7.5580   22.7410  -32.1980 C   0  0  0  0  0  0  0  0  0  0  0  0
   -9.0740   22.6200  -31.9940 C   0  0  0  0  0  0  0  0  0  0  0  0
   -9.3920   21.5540  -30.9360 C   0  0  0  0  0  0  0  0  0  0  0  0
   -8.7500   20.1770  -31.2350 C   0  0  0  0  0  0  0  0  0  0  0  0
   -7.7440   20.2030  -32.3960 C   0  0  0  0  0  0  0  0  0  0  0  0
   -1.7330   25.2940  -29.2910 N   0  0  0  0  0  0  0  0  0  0  0  0
   -0.9350   25.1090  -28.2060 C   0  0  0  0  0  0  0  0  0  0  0  0
   -1.1690   24.3233  -24.9887 H   0  0  0  0  0  0  0  0  0  0  0  0
   -0.0868   23.2060  -25.8871 H   0  0  0  0  0  0  0  0  0  0  0  0
    0.2451   24.9713  -25.8871 H   0  0  0  0  0  0  0  0  0  0  0  0
   -3.0900   23.2897  -26.2874 H   0  0  0  0  0  0  0  0  0  0  0  0
   -4.5216   23.6483  -28.3036 H   0  0  0  0  0  0  0  0  0  0  0  0
   -2.6307   22.7319  -31.2093 H   0  0  0  0  0  0  0  0  0  0  0  0
   -0.7450   19.0880  -33.9760 H   0  0  0  0  0  0  0  0  0  0  0  0
    1.4169   18.5700  -33.6109 H   0  0  0  0  0  0  0  0  0  0  0  0
    1.5151   20.3353  -33.3786 H   0  0  0  0  0  0  0  0  0  0  0  0
    2.2206   18.4202  -31.4619 H   0  0  0  0  0  0  0  0  0  0  0  0
    1.8358   20.1036  -31.0809 H   0  0  0  0  0  0  0  0  0  0  0  0
    0.3047   17.7160  -30.4312 H   0  0  0  0  0  0  0  0  0  0  0  0
   -0.1168   19.3851  -30.0256 H   0  0  0  0  0  0  0  0  0  0  0  0
   -1.0811   17.6593  -32.2668 H   0  0  0  0  0  0  0  0  0  0  0  0
   -1.8479   19.1078  -31.5648 H   0  0  0  0  0  0  0  0  0  0  0  0
   -3.1032   19.6313  -34.1926 H   0  0  0  0  0  0  0  0  0  0  0  0
   -5.5776   19.7277  -33.8997 H   0  0  0  0  0  0  0  0  0  0  0  0
   -7.1206   23.2604  -31.3326 H   0  0  0  0  0  0  0  0  0  0  0  0
   -7.3770   23.3060  -33.1243 H   0  0  0  0  0  0  0  0  0  0  0  0
   -9.4729   23.5898  -31.6617 H   0  0  0  0  0  0  0  0  0  0  0  0
   -9.5382   22.3247  -32.9465 H   0  0  0  0  0  0  0  0  0  0  0  0
   -9.0206   21.9075  -29.9628 H   0  0  0  0  0  0  0  0  0  0  0  0
  -10.4826   21.4103  -30.9388 H   0  0  0  0  0  0  0  0  0  0  0  0
   -8.2271   19.8339  -30.3301 H   0  0  0  0  0  0  0  0  0  0  0  0
   -9.5649   19.5001  -31.5312 H   0  0  0  0  0  0  0  0  0  0  0  0
   -7.0881   19.3225  -32.3286 H   0  0  0  0  0  0  0  0  0  0  0  0
   -8.2938   20.1887  -33.3486 H   0  0  0  0  0  0  0  0  0  0  0  0
    0.0753   25.5437  -28.1876 H   0  0  0  0  0  0  0  0  0  0  0  0
  1  2  1  0
  2  3  1  0
  3  4  2  0
  4  5  1  0
  5  6  2  3
  6  7  1  0
  7  8  2  0
  7  9  1  0
  9 10  1  0
 10 11  2  0
 11 12  1  0
 12 13  1  0
 13 14  2  0
 13 15  2  0
 13 16  1  0
 16 17  1  0
 17 18  1  0
 18 19  1  0
 19 20  1  0
 12 21  2  0
 21 22  1  0
 22 23  2  0
 23 24  1  0
 24 25  1  0
 25 26  1  0
 26 27  1  0
 27 28  1  0
 28 29  1  0
  5 30  1  0
 30 31  1  0
 31  2  2  0
 23 10  1  0
 29 24  1  0
 20 16  1  0
  1 32  1  0
  1 33  1  0
  1 34  1  0
  3 35  1  0
  4 36  1  0
 11 37  1  0
 16 38  1  0
 17 39  1  0
 17 40  1  0
 18 41  1  0
 18 42  1  0
 19 43  1  0
 19 44  1  0
 20 45  1  0
 20 46  1  0
 21 47  1  0
 22 48  1  0
 25 49  1  0
 25 50  1  0
 26 51  1  0
 26 52  1  0
 27 53  1  0
 27 54  1  0
 28 55  1  0
 28 56  1  0
 29 57  1  0
 29 58  1  0
 31 59  1  0
M  CHG  3   9  -1  16   1  30  -1
M  END
>  <UniqueID>  (11) 
10

>  <SMILES>  (11) 
Cc1ccc(=NC(=O)[N-]c2cc(S(=O)(=O)[NH+]3CCCC3)ccc2N2CCCCC2)[n-]c1

>  <Energy>  (11) 
77.65716024089804

>  <Genealogy>  (11) 
Cc1ccc(=NC(=O)[N-]c2cc(S(=O)(=O)[NH+]3CCCC3)ccc2N2CCCCC2)[n-]c1 (protonated)
Cc1ccc(=NC(=O)[N-]c2cc(S(=O)(=O)[NH+]3CCCC3)ccc2N2CCCCC2)[n-]c1 (3D coordinates assigned)
Cc1ccc(=NC(=O)[N-]c2cc(S(=O)(=O)[NH+]3CCCC3)ccc2N2CCCCC2)[n-]c1 (nonaromatic ring conformer: 77.65716024089804 kcal/mol)

>  <smiles>  (11) 
Cc1ccc(=NC(=O)Nc2cc(S(=O)(=O)N3CCCC3)ccc2N2CCCCC2)[nH]c1

>  <score_type>  (11) 
oracle

>  <origin>  (11) 
adgpu

>  <m_score__min__energy>  (11) 
-11.539999999999999

>  <m_primary>  (11) 
energy

$$$$
11:0
     RDKit          3D

 32 33  0  0  0  0  0  0  0  0999 V2000
   -9.1030   18.5490  -31.8230 C   0  0  0  0  0  0  0  0  0  0  0  0
   -8.4670   19.2270  -32.9450 N   0  0  0  0  0  0  0  0  0  0  0  0
   -7.1560   19.8060  -32.8930 C   0  0  0  0  0  0  0  0  0  0  0  0
   -6.8510   20.8260  -32.1310 O   0  0  0  0  0  0  0  0  0  0  0  0
   -5.5770   21.0890  -32.3320 C   0  0  0  0  0  0  0  0  0  0  0  0
   -4.8500   22.1810  -31.6500 C   0  0  0  0  0  0  0  0  0  0  0  0
   -5.5090   23.3830  -31.3490 C   0  0  0  0  0  0  0  0  0  0  0  0
   -4.8270   24.4300  -30.7000 C   0  0  0  0  0  0  0  0  0  0  0  0
   -5.4530   25.6460  -30.3810 O   0  0  0  0  0  0  0  0  0  0  0  0
   -6.4870   25.7920  -29.4130 C   0  0  0  0  0  0  0  0  0  0  0  0
   -3.4800   24.2630  -30.3570 C   0  0  0  0  0  0  0  0  0  0  0  0
   -2.8020   25.2940  -29.7150 O   0  0  0  0  0  0  0  0  0  0  0  0
   -2.8070   23.0700  -30.6500 C   0  0  0  0  0  0  0  0  0  0  0  0
   -1.4570   22.9560  -30.2840 O   0  0  0  0  0  0  0  0  0  0  0  0
   -0.9730   23.0460  -28.9460 C   0  0  0  0  0  0  0  0  0  0  0  0
   -3.4990   22.0300  -31.3000 C   0  0  0  0  0  0  0  0  0  0  0  0
   -5.0070   20.2530  -33.2300 N   0  0  0  0  0  0  0  0  0  0  0  0
   -6.0160   19.4370  -33.5850 C   0  0  0  0  0  0  0  0  0  0  0  0
   -5.8650   18.3700  -34.5380 C   0  0  0  0  0  0  0  0  0  0  0  0
   -5.7410   17.5130  -35.3050 N   0  0  0  0  0  0  0  0  0  0  0  0
   -8.7167   18.9608  -30.8790 H   0  0  0  0  0  0  0  0  0  0  0  0
  -10.1913   18.7016  -31.8715 H   0  0  0  0  0  0  0  0  0  0  0  0
   -8.8812   17.4727  -31.8715 H   0  0  0  0  0  0  0  0  0  0  0  0
   -8.9970   19.2980  -33.8440 H   0  0  0  0  0  0  0  0  0  0  0  0
   -6.5671   23.5082  -31.6224 H   0  0  0  0  0  0  0  0  0  0  0  0
   -6.0551   25.7310  -28.4032 H   0  0  0  0  0  0  0  0  0  0  0  0
   -6.9767   26.7682  -29.5440 H   0  0  0  0  0  0  0  0  0  0  0  0
   -7.2279   24.9896  -29.5440 H   0  0  0  0  0  0  0  0  0  0  0  0
   -1.8054   22.8912  -28.2438 H   0  0  0  0  0  0  0  0  0  0  0  0
   -0.2059   22.2751  -28.7809 H   0  0  0  0  0  0  0  0  0  0  0  0
   -0.5343   24.0411  -28.7809 H   0  0  0  0  0  0  0  0  0  0  0  0
   -2.9764   21.0912  -31.5355 H   0  0  0  0  0  0  0  0  0  0  0  0
  1  2  1  0
  2  3  1  0
  3  4  1  0
  4  5  1  0
  5  6  1  0
  6  7  2  0
  7  8  1  0
  8  9  1  0
  9 10  1  0
  8 11  2  0
 11 12  1  0
 11 13  1  0
 13 14  1  0
 14 15  1  0
 13 16  2  0
  5 17  2  0
 17 18  1  0
 18 19  1  0
 19 20  3  0
 18  3  2  0
 16  6  1  0
  1 21  1  0
  1 22  1  0
  1 23  1  0
  2 24  1  0
  7 25  1  0
 10 26  1  0
 10 27  1  0
 10 28  1  0
 15 29  1  0
 15 30  1  0
 15 31  1  0
 16 32  1  0
M  CHG  1  12  -1
M  END
>  <UniqueID>  (12) 
11

>  <SMILES>  (12) 
CNc1oc(-c2cc(OC)c([O-])c(OC)c2)nc1C#N

>  <Energy>  (12) 
60.449868591315074

>  <Genealogy>  (12) 
CNc1oc(-c2cc(OC)c([O-])c(OC)c2)nc1C#N (protonated)
CNc1oc(-c2cc(OC)c([O-])c(OC)c2)nc1C#N (3D coordinates assigned)
CNc1oc(-c2cc(OC)c([O-])c(OC)c2)nc1C#N (optimized conformer: 60.449868591315074 kcal/mol)

>  <smiles>  (12) 
CNc1oc(-c2cc(OC)c(O)c(OC)c2)nc1C#N

>  <score_type>  (12) 
oracle

>  <origin>  (12) 
adgpu

>  <m_score__min__energy>  (12) 
-9.4700000000000006

>  <m_primary>  (12) 
energy

$$$$
12:0
     RDKit          3D

 59 63  0  0  0  0  0  0  0  0999 V2000
   -0.1446   21.6439  -30.0365 H   0  0  0  0  0  0  0  0  0  0  0  0
   -1.0600   22.0050  -30.5280 C   0  0  0  0  0  0  0  0  0  0  0  0
   -1.3260   21.5920  -31.9170 C   0  0  0  0  0  0  0  0  0  0  0  0
   -0.3480   21.5120  -32.7100 O   0  0  0  0  0  0  0  0  0  0  0  0
   -2.6600   21.3230  -32.3990 N   0  0  0  0  0  0  0  0  0  0  0  0
   -2.8380   20.4430  -33.5640 C   0  0  0  0  0  0  0  0  0  0  0  0
   -2.8803   21.0549  -34.4771 H   0  0  0  0  0  0  0  0  0  0  0  0
   -1.9901   19.7442  -33.6157 H   0  0  0  0  0  0  0  0  0  0  0  0
   -4.1390   19.6380  -33.4340 C   0  0  0  0  0  0  0  0  0  0  0  0
   -4.4083   19.2343  -34.4212 H   0  0  0  0  0  0  0  0  0  0  0  0
   -3.9696   18.8282  -32.7091 H   0  0  0  0  0  0  0  0  0  0  0  0
   -5.2470   20.4690  -32.9410 N   0  0  0  0  0  0  0  0  0  0  0  0
   -6.4620   19.8340  -32.5000 C   0  0  0  0  0  0  0  0  0  0  0  0
   -6.5240   18.4370  -32.3540 C   0  0  0  0  0  0  0  0  0  0  0  0
   -5.6458   17.8220  -32.6001 H   0  0  0  0  0  0  0  0  0  0  0  0
   -7.6950   17.8250  -31.8980 C   0  0  0  0  0  0  0  0  0  0  0  0
   -7.7376   16.7310  -31.7918 H   0  0  0  0  0  0  0  0  0  0  0  0
   -8.8110   18.6010  -31.5770 C   0  0  0  0  0  0  0  0  0  0  0  0
   -9.7315   18.1178  -31.2176 H   0  0  0  0  0  0  0  0  0  0  0  0
   -8.7590   19.9890  -31.7120 C   0  0  0  0  0  0  0  0  0  0  0  0
   -9.6380   20.5989  -31.4562 H   0  0  0  0  0  0  0  0  0  0  0  0
   -7.5910   20.6060  -32.1720 C   0  0  0  0  0  0  0  0  0  0  0  0
   -7.5553   21.7003  -32.2777 H   0  0  0  0  0  0  0  0  0  0  0  0
   -5.0470   21.9140  -32.7700 C   0  0  0  0  0  0  0  0  0  0  0  0
   -4.9336   22.3877  -33.7563 H   0  0  0  0  0  0  0  0  0  0  0  0
   -5.9169   22.3458  -32.2535 H   0  0  0  0  0  0  0  0  0  0  0  0
   -3.7860   22.1600  -31.9380 C   0  0  0  0  0  0  0  0  0  0  0  0
   -3.5023   23.2193  -32.0241 H   0  0  0  0  0  0  0  0  0  0  0  0
   -4.0059   21.8965  -30.8929 H   0  0  0  0  0  0  0  0  0  0  0  0
   -1.8850   22.8000  -29.8410 C   0  0  0  0  0  0  0  0  0  0  0  0
   -2.8084   23.1545  -30.3224 H   0  0  0  0  0  0  0  0  0  0  0  0
   -1.5950   23.2160  -28.4580 C   0  0  0  0  0  0  0  0  0  0  0  0
   -1.2180   22.4520  -27.3590 C   0  0  0  0  0  0  0  0  0  0  0  0
   -1.2000   20.9790  -27.2360 C   0  0  0  0  0  0  0  0  0  0  0  0
   -0.0950   20.2320  -27.6870 C   0  0  0  0  0  0  0  0  0  0  0  0
    0.7717   20.7476  -28.1264 H   0  0  0  0  0  0  0  0  0  0  0  0
   -0.0940   18.8380  -27.5790 C   0  0  0  0  0  0  0  0  0  0  0  0
    0.7778   18.2611  -27.9212 H   0  0  0  0  0  0  0  0  0  0  0  0
   -1.1990   18.1770  -27.0370 C   0  0  0  0  0  0  0  0  0  0  0  0
   -1.1946   17.0807  -26.9471 H   0  0  0  0  0  0  0  0  0  0  0  0
   -2.3100   18.9090  -26.6090 C   0  0  0  0  0  0  0  0  0  0  0  0
   -3.1820   18.3868  -26.1884 H   0  0  0  0  0  0  0  0  0  0  0  0
   -2.3160   20.3040  -26.7140 C   0  0  0  0  0  0  0  0  0  0  0  0
   -3.1977   20.8744  -26.3867 H   0  0  0  0  0  0  0  0  0  0  0  0
   -0.9350   23.2760  -26.3300 N   0  0  0  0  0  0  0  0  0  0  0  0
   -1.1290   24.5250  -26.7310 N   0  0  0  0  0  0  0  0  0  0  0  0
   -0.9030   25.6730  -25.8850 C   0  0  0  0  0  0  0  0  0  0  0  0
   -0.8750   25.5630  -24.4780 C   0  0  0  0  0  0  0  0  0  0  0  0
   -1.0220   24.5810  -24.0046 H   0  0  0  0  0  0  0  0  0  0  0  0
   -0.6620   26.6920  -23.6810 C   0  0  0  0  0  0  0  0  0  0  0  0
   -0.6408   26.5940  -22.5856 H   0  0  0  0  0  0  0  0  0  0  0  0
   -0.4760   27.9440  -24.2720 C   0  0  0  0  0  0  0  0  0  0  0  0
   -0.3107   28.8307  -23.6424 H   0  0  0  0  0  0  0  0  0  0  0  0
   -0.5000   28.0690  -25.6610 C   0  0  0  0  0  0  0  0  0  0  0  0
   -0.3511   29.0546  -26.1262 H   0  0  0  0  0  0  0  0  0  0  0  0
   -0.7130   26.9440  -26.4630 C   0  0  0  0  0  0  0  0  0  0  0  0
   -0.7325   27.0521  -27.5575 H   0  0  0  0  0  0  0  0  0  0  0  0
   -1.5410   24.5220  -28.0190 C   0  0  0  0  0  0  0  0  0  0  0  0
   -1.7909   25.4115  -28.6159 H   0  0  0  0  0  0  0  0  0  0  0  0
  1  2  1  0
  2  3  1  0
  3  4  2  0
  3  5  1  0
  5  6  1  0
  6  7  1  0
  6  8  1  0
  6  9  1  0
  9 10  1  0
  9 11  1  0
  9 12  1  0
 12 13  1  0
 13 14  2  0
 14 15  1  0
 14 16  1  0
 16 17  1  0
 16 18  2  0
 18 19  1  0
 18 20  1  0
 20 21  1  0
 20 22  2  0
 22 23  1  0
 12 24  1  0
 24 25  1  0
 24 26  1  0
 24 27  1  0
 27 28  1  0
 27 29  1  0
  2 30  2  0
 30 31  1  0
 30 32  1  0
 32 33  1  0
 33 34  1  0
 34 35  2  0
 35 36  1  0
 35 37  1  0
 37 38  1  0
 37 39  2  0
 39 40  1  0
 39 41  1  0
 41 42  1  0
 41 43  2  0
 43 44  1  0
 33 45  2  0
 45 46  1  0
 46 47  1  0
 47 48  2  0
 48 49  1  0
 48 50  1  0
 50 51  1  0
 50 52  2  0
 52 53  1  0
 52 54  1  0
 54 55  1  0
 54 56  2  0
 56 57  1  0
 46 58  1  0
 58 59  1  0
 27  5  1  0
 58 32  2  0
 22 13  1  0
 43 34  1  0
 56 47  1  0
M  END
>  <UniqueID>  (13) 
12

>  <SMILES>  (13) 
O=C(/C=C/c1cn(-c2ccccc2)nc1-c1ccccc1)N1CCN(c2ccccc2)CC1

>  <Energy>  (13) 
112.4480176390377

>  <Genealogy>  (13) 
O=C(/C=C/c1cn(-c2ccccc2)nc1-c1ccccc1)N1CCN(c2ccccc2)CC1 (cis-trans isomerization)
O=C(/C=C/c1cn(-c2ccccc2)nc1-c1ccccc1)N1CCN(c2ccccc2)CC1 (3D coordinates assigned)
O=C(/C=C/c1cn(-c2ccccc2)nc1-c1ccccc1)N1CCN(c2ccccc2)CC1 (nonaromatic ring conformer: 112.4480176390377 kcal/mol)

>  <smiles>  (13) 
O=C(C=Cc1cn(-c2ccccc2)nc1-c1ccccc1)N1CCN(c2ccccc2)CC1

>  <score_type>  (13) 
oracle

>  <origin>  (13) 
adgpu

>  <m_score__min__energy>  (13) 
-9.9800000000000004

>  <m_primary>  (13) 
energy

$$$$
13:0
     RDKit          3D

 62 65  0  0  0  0  0  0  0  0999 V2000
   -5.3414   26.7181  -30.9604 H   0  0  0  0  0  0  0  0  0  0  0  0
   -5.0840   25.6550  -30.8440 C   0  0  0  0  0  0  0  0  0  0  0  0
   -3.8430   25.3030  -30.4220 N   0  0  0  0  0  0  0  0  0  0  0  0
   -3.4800   24.0040  -30.2620 C   0  0  0  0  0  0  0  0  0  0  0  0
   -2.1870   23.6930  -29.8250 C   0  0  0  0  0  0  0  0  0  0  0  0
   -1.4699   24.5006  -29.6163 H   0  0  0  0  0  0  0  0  0  0  0  0
   -1.8040   22.3600  -29.6530 C   0  0  0  0  0  0  0  0  0  0  0  0
   -0.7856   22.1209  -29.3128 H   0  0  0  0  0  0  0  0  0  0  0  0
   -2.7110   21.3320  -29.9120 C   0  0  0  0  0  0  0  0  0  0  0  0
   -2.4072   20.2843  -29.7704 H   0  0  0  0  0  0  0  0  0  0  0  0
   -4.0050   21.6290  -30.3510 C   0  0  0  0  0  0  0  0  0  0  0  0
   -4.7139   20.8128  -30.5541 H   0  0  0  0  0  0  0  0  0  0  0  0
   -4.4070   22.9680  -30.5350 C   0  0  0  0  0  0  0  0  0  0  0  0
   -5.7050   23.3110  -30.9820 C   0  0  0  0  0  0  0  0  0  0  0  0
   -6.5650   22.3660  -31.2540 N   0  0  0  0  0  0  0  0  0  0  0  0
   -7.9380   22.5470  -31.7260 C   0  0  0  0  0  0  0  0  0  0  0  0
   -7.9961   22.2763  -32.7906 H   0  0  0  0  0  0  0  0  0  0  0  0
   -8.2305   23.5990  -31.5927 H   0  0  0  0  0  0  0  0  0  0  0  0
   -8.8860   21.6570  -30.9250 C   0  0  0  0  0  0  0  0  0  0  0  0
   -9.9168   22.0114  -31.0729 H   0  0  0  0  0  0  0  0  0  0  0  0
   -8.5953   21.7151  -29.8657 H   0  0  0  0  0  0  0  0  0  0  0  0
   -8.7980   20.1850  -31.3640 C   0  0  0  0  0  0  0  0  0  0  0  0
   -9.6923   19.6552  -31.0039 H   0  0  0  0  0  0  0  0  0  0  0  0
   -7.8778   19.7621  -30.9346 H   0  0  0  0  0  0  0  0  0  0  0  0
   -8.7150   20.0310  -32.8940 C   0  0  0  0  0  0  0  0  0  0  0  0
   -9.0659   20.9674  -33.3523 H   0  0  0  0  0  0  0  0  0  0  0  0
   -9.3382   19.1625  -33.1535 H   0  0  0  0  0  0  0  0  0  0  0  0
   -7.2970   19.7300  -33.4370 C   0  0  0  0  0  0  0  0  0  0  0  0
   -6.5621   20.2138  -32.7768 H   0  0  0  0  0  0  0  0  0  0  0  0
   -7.2564   20.1190  -34.4651 H   0  0  0  0  0  0  0  0  0  0  0  0
   -6.9800   18.2720  -33.5080 N   0  0  0  0  0  0  0  0  0  0  0  0
   -7.8780   17.7400  -33.6040 H   0  0  0  0  0  0  0  0  0  0  0  0
   -6.1340   17.9340  -34.6890 C   0  0  0  0  0  0  0  0  0  0  0  0
   -6.2961   18.7039  -35.4577 H   0  0  0  0  0  0  0  0  0  0  0  0
   -6.4399   16.9278  -35.0114 H   0  0  0  0  0  0  0  0  0  0  0  0
   -4.6190   17.8560  -34.3990 C   0  0  0  0  0  0  0  0  0  0  0  0
   -4.0685   18.2479  -35.2670 H   0  0  0  0  0  0  0  0  0  0  0  0
   -4.3577   16.8041  -34.2112 H   0  0  0  0  0  0  0  0  0  0  0  0
   -4.2570   18.6380  -33.2130 N   0  0  0  0  0  0  0  0  0  0  0  0
   -3.0350   19.3990  -33.1850 C   0  0  0  0  0  0  0  0  0  0  0  0
   -3.0800   20.7870  -33.3900 C   0  0  0  0  0  0  0  0  0  0  0  0
   -4.0444   21.2814  -33.5784 H   0  0  0  0  0  0  0  0  0  0  0  0
   -1.9070   21.5430  -33.3560 C   0  0  0  0  0  0  0  0  0  0  0  0
   -1.9506   22.6301  -33.5181 H   0  0  0  0  0  0  0  0  0  0  0  0
   -0.6790   20.9240  -33.1170 C   0  0  0  0  0  0  0  0  0  0  0  0
    0.2426   21.5241  -33.0925 H   0  0  0  0  0  0  0  0  0  0  0  0
   -0.6180   19.5450  -32.9090 C   0  0  0  0  0  0  0  0  0  0  0  0
    0.3527   19.0625  -32.7222 H   0  0  0  0  0  0  0  0  0  0  0  0
   -1.7940   18.7670  -32.9370 C   0  0  0  0  0  0  0  0  0  0  0  0
   -1.7690   17.3830  -32.7070 O   0  0  0  0  0  0  0  0  0  0  0  0
   -0.5940   16.6300  -32.4310 C   0  0  0  0  0  0  0  0  0  0  0  0
   -0.4606   16.5445  -31.3425 H   0  0  0  0  0  0  0  0  0  0  0  0
   -0.6911   15.6254  -32.8686 H   0  0  0  0  0  0  0  0  0  0  0  0
    0.2782   17.1378  -32.8686 H   0  0  0  0  0  0  0  0  0  0  0  0
   -5.0210   18.4690  -31.9740 C   0  0  0  0  0  0  0  0  0  0  0  0
   -5.2058   19.4570  -31.5271 H   0  0  0  0  0  0  0  0  0  0  0  0
   -4.4392   17.8388  -31.2853 H   0  0  0  0  0  0  0  0  0  0  0  0
   -6.3670   17.7820  -32.2500 C   0  0  0  0  0  0  0  0  0  0  0  0
   -7.0518   17.9891  -31.4145 H   0  0  0  0  0  0  0  0  0  0  0  0
   -6.1882   16.7014  -32.3516 H   0  0  0  0  0  0  0  0  0  0  0  0
   -6.0350   24.6750  -31.1310 C   0  0  0  0  0  0  0  0  0  0  0  0
   -7.0396   24.9650  -31.4726 H   0  0  0  0  0  0  0  0  0  0  0  0
  1  2  1  0
  2  3  1  0
  3  4  1  0
  4  5  2  0
  5  6  1  0
  5  7  1  0
  7  8  1  0
  7  9  2  0
  9 10  1  0
  9 11  1  0
 11 12  1  0
 11 13  2  0
 13 14  1  0
 14 15  2  0
 15 16  1  0
 16 17  1  0
 16 18  1  0
 16 19  1  0
 19 20  1  0
 19 21  1  0
 19 22  1  0
 22 23  1  0
 22 24  1  0
 22 25  1  0
 25 26  1  0
 25 27  1  0
 25 28  1  0
 28 29  1  0
 28 30  1  0
 28 31  1  0
 31 32  1  0
 31 33  1  0
 33 34  1  0
 33 35  1  0
 33 36  1  0
 36 37  1  0
 36 38  1  0
 36 39  1  0
 39 40  1  0
 40 41  2  0
 41 42  1  0
 41 43  1  0
 43 44  1  0
 43 45  2  0
 45 46  1  0
 45 47  1  0
 47 48  1  0
 47 49  2  0
 49 50  1  0
 50 51  1  0
 51 52  1  0
 51 53  1  0
 51 54  1  0
 39 55  1  0
 55 56  1  0
 55 57  1  0
 55 58  1  0
 58 59  1  0
 58 60  1  0
 14 61  1  0
 61 62  1  0
 61  2  2  0
 13  4  1  0
 58 31  1  0
 49 40  1  0
M  CHG  2   3  -1  31   1
M  END
>  <UniqueID>  (14) 
13

>  <SMILES>  (14) 
COc1ccccc1N1CC[NH+](CCCCC/N=c2\cc[n-]c3ccccc23)CC1

>  <Energy>  (14) 
80.68775934700355

>  <Genealogy>  (14) 
COc1ccccc1N1CC[NH+](CCCCCN=c2cc[n-]c3ccccc23)CC1 (protonated)
COc1ccccc1N1CC[NH+](CCCCC/N=c2\cc[n-]c3ccccc23)CC1 (cis-trans isomerization)
COc1ccccc1N1CC[NH+](CCCCC/N=c2\cc[n-]c3ccccc23)CC1 (3D coordinates assigned)
COc1ccccc1N1CC[NH+](CCCCC/N=c2\cc[n-]c3ccccc23)CC1 (nonaromatic ring conformer: 80.68775934700355 kcal/mol)

>  <smiles>  (14) 
COc1ccccc1N1CCN(CCCCCN=c2cc[nH]c3ccccc23)CC1

>  <score_type>  (14) 
oracle

>  <origin>  (14) 
adgpu

>  <m_score__min__energy>  (14) 
-9.4900000000000002

>  <m_primary>  (14) 
energy

$$$$
14:0
     RDKit          3D

 34 36  0  0  0  0  0  0  0  0999 V2000
   -3.8770   24.1610  -27.3210 C   0  0  0  0  0  0  0  0  0  0  0  0
   -2.9800   23.8660  -28.2600 C   0  0  0  0  0  0  0  0  0  0  0  0
   -2.6190   24.8050  -29.3360 C   0  0  0  0  0  0  0  0  0  0  0  0
   -1.5880   25.5260  -29.2370 O   0  0  0  0  0  0  0  0  0  0  0  0
   -3.4860   24.9240  -30.4690 N   0  0  0  0  0  0  0  0  0  0  0  0
   -4.8680   24.5430  -30.5330 C   0  0  0  0  0  0  0  0  0  0  0  0
   -5.8900   25.3550  -30.0130 C   0  0  0  0  0  0  0  0  0  0  0  0
   -7.2240   24.9560  -30.1160 C   0  0  0  0  0  0  0  0  0  0  0  0
   -7.5530   23.7550  -30.7480 C   0  0  0  0  0  0  0  0  0  0  0  0
   -6.5470   22.9390  -31.2960 C   0  0  0  0  0  0  0  0  0  0  0  0
   -6.8750   21.6650  -31.9820 C   0  0  0  0  0  0  0  0  0  0  0  0
   -8.1260   21.2020  -32.3390 C   0  0  0  0  0  0  0  0  0  0  0  0
   -7.9990   20.0080  -32.9410 N   0  0  0  0  0  0  0  0  0  0  0  0
   -6.6690   19.7730  -32.9370 C   0  0  0  0  0  0  0  0  0  0  0  0
   -6.0570   18.5530  -33.5060 C   0  0  0  0  0  0  0  0  0  0  0  0
   -6.6650   17.2990  -33.3380 C   0  0  0  0  0  0  0  0  0  0  0  0
   -6.0750   16.1550  -33.8820 C   0  0  0  0  0  0  0  0  0  0  0  0
   -4.8810   16.2740  -34.5930 C   0  0  0  0  0  0  0  0  0  0  0  0
   -4.3020   17.4930  -34.7500 N   0  0  0  0  0  0  0  0  0  0  0  0
   -4.8540   18.6220  -34.2300 C   0  0  0  0  0  0  0  0  0  0  0  0
   -5.9510   20.7610  -32.3610 N   0  0  0  0  0  0  0  0  0  0  0  0
   -5.2060   23.3520  -31.1880 C   0  0  0  0  0  0  0  0  0  0  0  0
   -4.1141   23.4269  -26.5369 H   0  0  0  0  0  0  0  0  0  0  0  0
   -4.3809   25.1388  -27.3295 H   0  0  0  0  0  0  0  0  0  0  0  0
   -2.4891   22.8820  -28.2310 H   0  0  0  0  0  0  0  0  0  0  0  0
   -5.6385   26.3074  -29.5235 H   0  0  0  0  0  0  0  0  0  0  0  0
   -8.0192   25.5904  -29.6975 H   0  0  0  0  0  0  0  0  0  0  0  0
   -8.6061   23.4450  -30.8177 H   0  0  0  0  0  0  0  0  0  0  0  0
   -9.0755   21.7274  -32.1590 H   0  0  0  0  0  0  0  0  0  0  0  0
   -7.6077   17.2167  -32.7771 H   0  0  0  0  0  0  0  0  0  0  0  0
   -6.5476   15.1704  -33.7508 H   0  0  0  0  0  0  0  0  0  0  0  0
   -4.4080   15.3806  -35.0268 H   0  0  0  0  0  0  0  0  0  0  0  0
   -4.3574   19.5925  -34.3765 H   0  0  0  0  0  0  0  0  0  0  0  0
   -4.4110   22.7298  -31.6248 H   0  0  0  0  0  0  0  0  0  0  0  0
  1  2  2  0
  2  3  1  0
  3  4  2  0
  3  5  1  0
  5  6  1  0
  6  7  2  0
  7  8  1  0
  8  9  2  0
  9 10  1  0
 10 11  1  0
 11 12  2  0
 12 13  1  0
 13 14  1  0
 14 15  1  0
 15 16  2  0
 16 17  1  0
 17 18  2  0
 18 19  1  0
 19 20  2  0
 14 21  2  0
 10 22  2  0
 22  6  1  0
 21 11  1  0
 20 15  1  0
  1 23  1  0
  1 24  1  0
  2 25  1  0
  7 26  1  0
  8 27  1  0
  9 28  1  0
 12 29  1  0
 16 30  1  0
 17 31  1  0
 18 32  1  0
 20 33  1  0
 22 34  1  0
M  CHG  2   5  -1  13  -1
M  END
>  <UniqueID>  (15) 
14

>  <SMILES>  (15) 
C=CC(=O)[N-]c1cccc(-c2c[n-]c(-c3cccnc3)n2)c1

>  <Energy>  (15) 
68.57987000522945

>  <Genealogy>  (15) 
C=CC(=O)[N-]c1cccc(-c2c[n-]c(-c3cccnc3)n2)c1 (protonated)
C=CC(=O)[N-]c1cccc(-c2c[n-]c(-c3cccnc3)n2)c1 (3D coordinates assigned)
C=CC(=O)[N-]c1cccc(-c2c[n-]c(-c3cccnc3)n2)c1 (optimized conformer: 68.57987000522945 kcal/mol)

>  <smiles>  (15) 
C=CC(=O)Nc1cccc(-c2c[nH]c(-c3cccnc3)n2)c1

>  <score_type>  (15) 
oracle

>  <origin>  (15) 
adgpu

>  <m_score__min__energy>  (15) 
-9.7100000000000009

>  <m_primary>  (15) 
energy

$$$$
15:0
     RDKit          3D

 57 60  0  0  0  0  0  0  0  0999 V2000
   -4.6770   14.6910  -32.8940 C   0  0  0  0  0  0  0  0  0  0  0  0
   -5.0960   15.5940  -34.0500 C   0  0  0  0  0  0  0  0  0  0  0  0
   -4.7510   17.0360  -33.7580 C   0  0  0  0  0  0  0  0  0  0  0  0
   -3.4320   17.4730  -33.9270 C   0  0  0  0  0  0  0  0  0  0  0  0
   -3.0920   18.7540  -33.6360 N   0  0  0  0  0  0  0  0  0  0  0  0
   -4.0090   19.6420  -33.1700 C   0  0  0  0  0  0  0  0  0  0  0  0
   -3.6170   20.9960  -32.8570 N   0  0  0  0  0  0  0  0  0  0  0  0
   -2.2480   21.2870  -32.4100 C   0  0  0  0  0  0  0  0  0  0  0  0
   -2.0980   21.0580  -30.8940 C   0  0  0  0  0  0  0  0  0  0  0  0
   -3.4080   21.2040  -30.0860 C   0  0  0  0  0  0  0  0  0  0  0  0
   -4.1440   22.4810  -30.4000 C   0  0  0  0  0  0  0  0  0  0  0  0
   -4.6560   22.8670  -31.6330 C   0  0  0  0  0  0  0  0  0  0  0  0
   -5.2840   24.0520  -31.5080 N   0  0  0  0  0  0  0  0  0  0  0  0
   -5.1910   24.4290  -30.2420 N   0  0  0  0  0  0  0  0  0  0  0  0
   -5.7410   25.6850  -29.7420 C   0  0  0  0  0  0  0  0  0  0  0  0
   -4.5080   23.5010  -29.5340 C   0  0  0  0  0  0  0  0  0  0  0  0
   -4.2440   23.5550  -28.0510 C   0  0  0  0  0  0  0  0  0  0  0  0
   -3.0160   24.3760  -27.7430 C   0  0  0  0  0  0  0  0  0  0  0  0
   -2.0040   24.5320  -28.7050 C   0  0  0  0  0  0  0  0  0  0  0  0
   -0.8600   25.2790  -28.4120 C   0  0  0  0  0  0  0  0  0  0  0  0
   -0.7120   25.8690  -27.1550 C   0  0  0  0  0  0  0  0  0  0  0  0
   -1.7110   25.7200  -26.1820 C   0  0  0  0  0  0  0  0  0  0  0  0
   -1.5230   26.2990  -24.8140 C   0  0  0  0  0  0  0  0  0  0  0  0
   -2.8520   24.9580  -26.4740 C   0  0  0  0  0  0  0  0  0  0  0  0
   -4.5800   22.1090  -32.9320 C   0  0  0  0  0  0  0  0  0  0  0  0
   -5.2930   19.2350  -32.9900 N   0  0  0  0  0  0  0  0  0  0  0  0
   -5.6910   17.9640  -33.2600 C   0  0  0  0  0  0  0  0  0  0  0  0
   -7.1290   17.6020  -33.0320 C   0  0  0  0  0  0  0  0  0  0  0  0
   -4.9071   15.1868  -31.9394 H   0  0  0  0  0  0  0  0  0  0  0  0
   -5.2256   13.7395  -32.9545 H   0  0  0  0  0  0  0  0  0  0  0  0
   -3.5962   14.4956  -32.9545 H   0  0  0  0  0  0  0  0  0  0  0  0
   -4.5726   15.2761  -34.9638 H   0  0  0  0  0  0  0  0  0  0  0  0
   -6.1848   15.5125  -34.1838 H   0  0  0  0  0  0  0  0  0  0  0  0
   -2.6673   16.7745  -34.2975 H   0  0  0  0  0  0  0  0  0  0  0  0
   -1.5481   20.6273  -32.9438 H   0  0  0  0  0  0  0  0  0  0  0  0
   -2.0270   22.3425  -32.6270 H   0  0  0  0  0  0  0  0  0  0  0  0
   -1.7107   20.0404  -30.7378 H   0  0  0  0  0  0  0  0  0  0  0  0
   -1.4178   21.8409  -30.5273 H   0  0  0  0  0  0  0  0  0  0  0  0
   -4.0636   20.3527  -30.3213 H   0  0  0  0  0  0  0  0  0  0  0  0
   -3.1403   21.2277  -29.0193 H   0  0  0  0  0  0  0  0  0  0  0  0
   -5.7367   25.6751  -28.6421 H   0  0  0  0  0  0  0  0  0  0  0  0
   -5.1277   26.5236  -30.1035 H   0  0  0  0  0  0  0  0  0  0  0  0
   -6.7732   25.8030  -30.1035 H   0  0  0  0  0  0  0  0  0  0  0  0
   -5.1122   24.0063  -27.5485 H   0  0  0  0  0  0  0  0  0  0  0  0
   -4.0758   22.5295  -27.6904 H   0  0  0  0  0  0  0  0  0  0  0  0
   -2.1128   24.0635  -29.6943 H   0  0  0  0  0  0  0  0  0  0  0  0
   -0.0749   25.4025  -29.1726 H   0  0  0  0  0  0  0  0  0  0  0  0
    0.1919   26.4530  -26.9271 H   0  0  0  0  0  0  0  0  0  0  0  0
   -1.7696   25.5396  -24.0574 H   0  0  0  0  0  0  0  0  0  0  0  0
   -0.4764   26.6140  -24.6898 H   0  0  0  0  0  0  0  0  0  0  0  0
   -2.1849   27.1688  -24.6898 H   0  0  0  0  0  0  0  0  0  0  0  0
   -3.6244   24.8148  -25.7040 H   0  0  0  0  0  0  0  0  0  0  0  0
   -5.5753   21.7042  -33.1675 H   0  0  0  0  0  0  0  0  0  0  0  0
   -4.2419   22.8033  -33.7154 H   0  0  0  0  0  0  0  0  0  0  0  0
   -7.3276   17.5520  -31.9512 H   0  0  0  0  0  0  0  0  0  0  0  0
   -7.7761   18.3653  -33.4888 H   0  0  0  0  0  0  0  0  0  0  0  0
   -7.3376   16.6233  -33.4888 H   0  0  0  0  0  0  0  0  0  0  0  0
  1  2  1  0
  2  3  1  0
  3  4  2  0
  4  5  1  0
  5  6  2  0
  6  7  1  0
  7  8  1  0
  8  9  1  0
  9 10  1  0
 10 11  1  0
 11 12  1  0
 12 13  2  0
 13 14  1  0
 14 15  1  0
 14 16  1  0
 16 17  1  0
 17 18  1  0
 18 19  2  0
 19 20  1  0
 20 21  2  0
 21 22  1  0
 22 23  1  0
 22 24  2  0
 12 25  1  0
  6 26  1  0
 26 27  2  0
 27 28  1  0
 27  3  1  0
 25  7  1  0
 16 11  2  0
 24 18  1  0
  1 29  1  0
  1 30  1  0
  1 31  1  0
  2 32  1  0
  2 33  1  0
  4 34  1  0
  8 35  1  0
  8 36  1  0
  9 37  1  0
  9 38  1  0
 10 39  1  0
 10 40  1  0
 15 41  1  0
 15 42  1  0
 15 43  1  0
 17 44  1  0
 17 45  1  0
 19 46  1  0
 20 47  1  0
 21 48  1  0
 23 49  1  0
 23 50  1  0
 23 51  1  0
 24 52  1  0
 25 53  1  0
 25 54  1  0
 28 55  1  0
 28 56  1  0
 28 57  1  0
M  END
>  <UniqueID>  (16) 
15

>  <SMILES>  (16) 
CCc1cnc(N2CCCc3c(nn(C)c3Cc3cccc(C)c3)C2)nc1C

>  <Energy>  (16) 
88.96457126764633

>  <Genealogy>  (16) 
CCc1cnc(N2CCCc3c(nn(C)c3Cc3cccc(C)c3)C2)nc1C (3D coordinates assigned)
CCc1cnc(N2CCCc3c(nn(C)c3Cc3cccc(C)c3)C2)nc1C (nonaromatic ring conformer: 88.96457126764633 kcal/mol)

>  <smiles>  (16) 
CCc1cnc(N2CCCc3c(nn(C)c3Cc3cccc(C)c3)C2)nc1C

>  <score_type>  (16) 
oracle

>  <origin>  (16) 
adgpu

>  <m_score__min__energy>  (16) 
-7.0199999999999996

>  <m_primary>  (16) 
energy

$$$$
16:0
     RDKit          3D

 24 25  0  0  0  0  0  0  0  0999 V2000
   -3.8360   20.6540  -31.7640 N   0  0  0  0  0  0  0  0  0  0  0  0
   -4.0600   21.7620  -31.5190 C   0  0  0  0  0  0  0  0  0  0  0  0
   -4.3400   23.1420  -31.2130 C   0  0  0  0  0  0  0  0  0  0  0  0
   -5.5050   23.7970  -31.5930 C   0  0  0  0  0  0  0  0  0  0  0  0
   -6.6070   23.2400  -32.3240 N   0  0  0  0  0  0  0  0  0  0  0  0
   -7.7520   22.6160  -31.6670 C   0  0  0  0  0  0  0  0  0  0  0  0
   -7.7840   21.1400  -31.9590 C   0  0  0  0  0  0  0  0  0  0  0  0
   -6.8610   20.5640  -32.8480 C   0  0  0  0  0  0  0  0  0  0  0  0
   -6.8930   19.1900  -33.1050 C   0  0  0  0  0  0  0  0  0  0  0  0
   -7.8460   18.3820  -32.4780 C   0  0  0  0  0  0  0  0  0  0  0  0
   -8.7690   18.9470  -31.5950 C   0  0  0  0  0  0  0  0  0  0  0  0
   -8.7400   20.3210  -31.3350 C   0  0  0  0  0  0  0  0  0  0  0  0
   -5.3610   25.3560  -31.0150 S   0  0  0  0  0  0  0  0  0  0  0  0
   -3.8670   25.2610  -30.2890 N   0  0  0  0  0  0  0  0  0  0  0  0
   -3.4570   23.9810  -30.4960 C   0  0  0  0  0  0  0  0  0  0  0  0
   -2.3450   23.5770  -30.0630 O   0  0  0  0  0  0  0  0  0  0  0  0
   -6.5960   23.2790  -33.3680 H   0  0  0  0  0  0  0  0  0  0  0  0
   -7.6741   22.7689  -30.5805 H   0  0  0  0  0  0  0  0  0  0  0  0
   -8.6760   23.0753  -32.0480 H   0  0  0  0  0  0  0  0  0  0  0  0
   -6.1101   21.1966  -33.3439 H   0  0  0  0  0  0  0  0  0  0  0  0
   -6.1674   18.7443  -33.8014 H   0  0  0  0  0  0  0  0  0  0  0  0
   -7.8690   17.3010  -32.6801 H   0  0  0  0  0  0  0  0  0  0  0  0
   -9.5196   18.3106  -31.1035 H   0  0  0  0  0  0  0  0  0  0  0  0
   -9.4687   20.7622  -30.6391 H   0  0  0  0  0  0  0  0  0  0  0  0
  1  2  3  0
  2  3  1  0
  3  4  2  0
  4  5  1  0
  5  6  1  0
  6  7  1  0
  7  8  2  0
  8  9  1  0
  9 10  2  0
 10 11  1  0
 11 12  2  0
  4 13  1  0
 13 14  1  0
 14 15  1  0
 15 16  2  0
 15  3  1  0
 12  7  1  0
  5 17  1  0
  6 18  1  0
  6 19  1  0
  8 20  1  0
  9 21  1  0
 10 22  1  0
 11 23  1  0
 12 24  1  0
M  CHG  1  14  -1
M  END
>  <UniqueID>  (17) 
16

>  <SMILES>  (17) 
N#Cc1c(NCc2ccccc2)s[n-]c1=O

>  <Energy>  (17) 
55.19442513509464

>  <Genealogy>  (17) 
N#Cc1c(NCc2ccccc2)s[n-]c1=O (protonated)
N#Cc1c(NCc2ccccc2)s[n-]c1=O (3D coordinates assigned)
N#Cc1c(NCc2ccccc2)s[n-]c1=O (optimized conformer: 55.19442513509464 kcal/mol)

>  <smiles>  (17) 
N#Cc1c(NCc2ccccc2)s[nH]c1=O

>  <score_type>  (17) 
oracle

>  <origin>  (17) 
adgpu

>  <m_score__min__energy>  (17) 
-8.25

>  <m_primary>  (17) 
energy

$$$$
17:0
     RDKit          3D

 48 50  0  0  0  0  0  0  0  0999 V2000
   -9.2040   18.1630  -31.5660 C   0  0  0  0  0  0  0  0  0  0  0  0
   -8.0630   18.8940  -32.2070 C   0  0  0  0  0  0  0  0  0  0  0  0
   -7.2320   18.2300  -33.1220 C   0  0  0  0  0  0  0  0  0  0  0  0
   -6.1180   18.8830  -33.6740 C   0  0  0  0  0  0  0  0  0  0  0  0
   -5.2410   18.1810  -34.6700 C   0  0  0  0  0  0  0  0  0  0  0  0
   -5.8560   20.2150  -33.3270 C   0  0  0  0  0  0  0  0  0  0  0  0
   -6.6810   20.8910  -32.4200 C   0  0  0  0  0  0  0  0  0  0  0  0
   -6.3590   22.2110  -32.0750 O   0  0  0  0  0  0  0  0  0  0  0  0
   -5.1620   22.6290  -31.4750 C   0  0  0  0  0  0  0  0  0  0  0  0
   -5.1370   23.8660  -30.8240 C   0  0  0  0  0  0  0  0  0  0  0  0
   -3.9700   24.3140  -30.1980 C   0  0  0  0  0  0  0  0  0  0  0  0
   -2.8060   23.5220  -30.2080 C   0  0  0  0  0  0  0  0  0  0  0  0
   -1.6040   23.9390  -29.5350 N   0  0  0  0  0  0  0  0  0  0  0  0
   -1.2810   23.5870  -28.1760 C   0  0  0  0  0  0  0  0  0  0  0  0
   -1.5530   22.2900  -27.7220 C   0  0  0  0  0  0  0  0  0  0  0  0
   -1.2930   21.9330  -26.4010 C   0  0  0  0  0  0  0  0  0  0  0  0
   -0.7480   22.8610  -25.5040 C   0  0  0  0  0  0  0  0  0  0  0  0
   -0.4190   22.4190  -24.1780 N   0  0  0  0  0  0  0  0  0  0  0  0
   -0.4910   24.1870  -25.9330 C   0  0  0  0  0  0  0  0  0  0  0  0
    0.0880   25.1400  -25.0230 N   0  0  0  0  0  0  0  0  0  0  0  0
   -0.7760   24.5580  -27.2760 C   0  0  0  0  0  0  0  0  0  0  0  0
   -0.5690   25.9520  -27.7380 C   0  0  0  0  0  0  0  0  0  0  0  0
   -1.2270   26.4270  -28.9120 N   0  0  0  0  0  0  0  0  0  0  0  0
    0.2170   26.7170  -27.1130 O   0  0  0  0  0  0  0  0  0  0  0  0
   -2.8460   22.2660  -30.8310 C   0  0  0  0  0  0  0  0  0  0  0  0
   -4.0100   21.8220  -31.4640 C   0  0  0  0  0  0  0  0  0  0  0  0
   -7.7720   20.2170  -31.8420 C   0  0  0  0  0  0  0  0  0  0  0  0
   -9.1097   18.2234  -30.4717 H   0  0  0  0  0  0  0  0  0  0  0  0
  -10.1543   18.6208  -31.8780 H   0  0  0  0  0  0  0  0  0  0  0  0
   -9.1853   17.1083  -31.8780 H   0  0  0  0  0  0  0  0  0  0  0  0
   -7.4545   17.1916  -33.4087 H   0  0  0  0  0  0  0  0  0  0  0  0
   -4.4897   17.5796  -34.1372 H   0  0  0  0  0  0  0  0  0  0  0  0
   -5.8566   17.5233  -35.3013 H   0  0  0  0  0  0  0  0  0  0  0  0
   -4.7341   18.9257  -35.3013 H   0  0  0  0  0  0  0  0  0  0  0  0
   -4.9941   20.7344  -33.7713 H   0  0  0  0  0  0  0  0  0  0  0  0
   -6.0419   24.4911  -30.8042 H   0  0  0  0  0  0  0  0  0  0  0  0
   -3.9611   25.2918  -29.6943 H   0  0  0  0  0  0  0  0  0  0  0  0
   -0.9100   24.5070  -30.0700 H   0  0  0  0  0  0  0  0  0  0  0  0
   -1.9755   21.5472  -28.4146 H   0  0  0  0  0  0  0  0  0  0  0  0
   -1.5178   20.9121  -26.0586 H   0  0  0  0  0  0  0  0  0  0  0  0
   -0.6410   21.4580  -23.8380 H   0  0  0  0  0  0  0  0  0  0  0  0
   -0.0530   23.0950  -23.4700 H   0  0  0  0  0  0  0  0  0  0  0  0
    0.2700   24.8960  -24.0230 H   0  0  0  0  0  0  0  0  0  0  0  0
    0.3560   26.1030  -25.3320 H   0  0  0  0  0  0  0  0  0  0  0  0
   -1.1010   25.9460  -29.8310 H   0  0  0  0  0  0  0  0  0  0  0  0
   -1.9526   21.6244  -30.8212 H   0  0  0  0  0  0  0  0  0  0  0  0
   -4.0254   20.8380  -31.9554 H   0  0  0  0  0  0  0  0  0  0  0  0
   -8.4007   20.7302  -31.0995 H   0  0  0  0  0  0  0  0  0  0  0  0
  1  2  1  0
  2  3  2  0
  3  4  1  0
  4  5  1  0
  4  6  2  0
  6  7  1  0
  7  8  1  0
  8  9  1  0
  9 10  2  0
 10 11  1  0
 11 12  2  0
 12 13  1  0
 13 14  1  0
 14 15  2  0
 15 16  1  0
 16 17  2  0
 17 18  1  0
 17 19  1  0
 19 20  1  0
 19 21  2  0
 21 22  1  0
 22 23  1  0
 22 24  2  0
 12 25  1  0
 25 26  2  0
  7 27  2  0
 27  2  1  0
 26  9  1  0
 21 14  1  0
  1 28  1  0
  1 29  1  0
  1 30  1  0
  3 31  1  0
  5 32  1  0
  5 33  1  0
  5 34  1  0
  6 35  1  0
 10 36  1  0
 11 37  1  0
 13 38  1  0
 15 39  1  0
 16 40  1  0
 18 41  1  0
 18 42  1  0
 20 43  1  0
 20 44  1  0
 23 45  1  0
 25 46  1  0
 26 47  1  0
 27 48  1  0
M  CHG  1  23  -1
M  END
>  <UniqueID>  (18) 
17

>  <SMILES>  (18) 
Cc1cc(C)cc(Oc2ccc(Nc3ccc(N)c(N)c3C([NH-])=O)cc2)c1

>  <Energy>  (18) 
70.66918691452005

>  <Genealogy>  (18) 
Cc1cc(C)cc(Oc2ccc(Nc3ccc(N)c(N)c3C([NH-])=O)cc2)c1 (protonated)
Cc1cc(C)cc(Oc2ccc(Nc3ccc(N)c(N)c3C([NH-])=O)cc2)c1 (3D coordinates assigned)
Cc1cc(C)cc(Oc2ccc(Nc3ccc(N)c(N)c3C([NH-])=O)cc2)c1 (optimized conformer: 70.66918691452005 kcal/mol)

>  <smiles>  (18) 
Cc1cc(C)cc(Oc2ccc(Nc3ccc(N)c(N)c3C(N)=O)cc2)c1

>  <score_type>  (18) 
oracle

>  <origin>  (18) 
adgpu

>  <m_score__min__energy>  (18) 
-10.43

>  <m_primary>  (18) 
energy

$$$$
18:0
     RDKit          3D

 36 38  0  0  0  0  0  0  0  0999 V2000
   -7.7260   22.4180  -31.6030 C   0  0  0  0  0  0  0  0  0  0  0  0
   -6.7810   21.5180  -31.0340 O   0  0  0  0  0  0  0  0  0  0  0  0
   -5.4950   21.2810  -31.5460 C   0  0  0  0  0  0  0  0  0  0  0  0
   -5.2810   20.4280  -32.6450 C   0  0  0  0  0  0  0  0  0  0  0  0
   -3.9920   20.2000  -33.1260 C   0  0  0  0  0  0  0  0  0  0  0  0
   -2.8840   20.8140  -32.5210 C   0  0  0  0  0  0  0  0  0  0  0  0
   -1.5110   20.5620  -33.0290 C   0  0  0  0  0  0  0  0  0  0  0  0
   -0.8620   19.3430  -32.7620 C   0  0  0  0  0  0  0  0  0  0  0  0
    0.4310   19.1090  -33.2370 C   0  0  0  0  0  0  0  0  0  0  0  0
    1.0950   20.0830  -33.9870 C   0  0  0  0  0  0  0  0  0  0  0  0
    2.3850   19.8230  -34.4500 O   0  0  0  0  0  0  0  0  0  0  0  0
    0.4570   21.3040  -34.2610 C   0  0  0  0  0  0  0  0  0  0  0  0
    1.1010   22.2840  -35.0080 O   0  0  0  0  0  0  0  0  0  0  0  0
   -0.8370   21.5400  -33.7840 C   0  0  0  0  0  0  0  0  0  0  0  0
   -3.0940   21.6680  -31.4260 C   0  0  0  0  0  0  0  0  0  0  0  0
   -4.3900   21.9130  -30.9400 C   0  0  0  0  0  0  0  0  0  0  0  0
   -4.5700   22.7990  -29.7330 C   0  0  0  0  0  0  0  0  0  0  0  0
   -3.3000   23.5350  -29.4350 C   0  0  0  0  0  0  0  0  0  0  0  0
   -2.0030   22.9110  -28.5580 S   0  0  0  0  0  0  0  0  0  0  0  0
   -1.1390   24.3500  -28.6550 C   0  0  0  0  0  0  0  0  0  0  0  0
    0.0030   24.5270  -28.1560 O   0  0  0  0  0  0  0  0  0  0  0  0
   -1.8030   25.3110  -29.3300 N   0  0  0  0  0  0  0  0  0  0  0  0
   -3.0100   24.8590  -29.7610 C   0  0  0  0  0  0  0  0  0  0  0  0
   -3.8790   25.6730  -30.4760 O   0  0  0  0  0  0  0  0  0  0  0  0
   -8.2695   22.9357  -30.7989 H   0  0  0  0  0  0  0  0  0  0  0  0
   -7.1999   23.1572  -32.2249 H   0  0  0  0  0  0  0  0  0  0  0  0
   -8.4387   21.8565  -32.2249 H   0  0  0  0  0  0  0  0  0  0  0  0
   -6.1381   19.9368  -33.1288 H   0  0  0  0  0  0  0  0  0  0  0  0
   -3.8421   19.5328  -33.9876 H   0  0  0  0  0  0  0  0  0  0  0  0
   -1.3763   18.5680  -32.1748 H   0  0  0  0  0  0  0  0  0  0  0  0
    0.9289   18.1526  -33.0193 H   0  0  0  0  0  0  0  0  0  0  0  0
    2.9120   20.5050  -34.9830 H   0  0  0  0  0  0  0  0  0  0  0  0
   -1.3318   22.4982  -34.0010 H   0  0  0  0  0  0  0  0  0  0  0  0
   -2.2326   22.1517  -30.9421 H   0  0  0  0  0  0  0  0  0  0  0  0
   -5.3721   23.5250  -29.9320 H   0  0  0  0  0  0  0  0  0  0  0  0
   -4.8337   22.1746  -28.8666 H   0  0  0  0  0  0  0  0  0  0  0  0
  1  2  1  0
  2  3  1  0
  3  4  2  0
  4  5  1  0
  5  6  2  0
  6  7  1  0
  7  8  2  0
  8  9  1  0
  9 10  2  0
 10 11  1  0
 10 12  1  0
 12 13  1  0
 12 14  2  0
  6 15  1  0
 15 16  2  0
 16 17  1  0
 17 18  1  0
 18 19  1  0
 19 20  1  0
 20 21  2  0
 20 22  1  0
 22 23  1  0
 23 24  1  0
 16  3  1  0
 23 18  2  0
 14  7  1  0
  1 25  1  0
  1 26  1  0
  1 27  1  0
  4 28  1  0
  5 29  1  0
  8 30  1  0
  9 31  1  0
 11 32  1  0
 14 33  1  0
 15 34  1  0
 17 35  1  0
 17 36  1  0
M  CHG  3  13  -1  22  -1  24  -1
M  END
>  <UniqueID>  (19) 
18

>  <SMILES>  (19) 
COc1ccc(-c2ccc(O)c([O-])c2)cc1Cc1sc(=O)[n-]c1[O-]

>  <Energy>  (19) 
73.16893095377533

>  <Genealogy>  (19) 
COc1ccc(-c2ccc(O)c([O-])c2)cc1Cc1sc(=O)[n-]c1[O-] (protonated)
COc1ccc(-c2ccc(O)c([O-])c2)cc1Cc1sc(=O)[n-]c1[O-] (3D coordinates assigned)
COc1ccc(-c2ccc(O)c([O-])c2)cc1Cc1sc(=O)[n-]c1[O-] (optimized conformer: 73.16893095377533 kcal/mol)

>  <smiles>  (19) 
COc1ccc(-c2ccc(O)c(O)c2)cc1Cc1sc(=O)[nH]c1O

>  <score_type>  (19) 
oracle

>  <origin>  (19) 
adgpu

>  <m_score__min__energy>  (19) 
-12.359999999999999

>  <m_primary>  (19) 
energy

$$$$
19:0
     RDKit          3D

 50 53  0  0  0  0  0  0  0  0999 V2000
    0.2980   17.2440  -30.9140 C   0  0  0  0  0  0  0  0  0  0  0  0
   -0.6080   18.2300  -31.4010 O   0  0  0  0  0  0  0  0  0  0  0  0
   -0.7840   19.5020  -30.8360 C   0  0  0  0  0  0  0  0  0  0  0  0
   -1.0620   19.6680  -29.4640 C   0  0  0  0  0  0  0  0  0  0  0  0
   -1.2430   20.9440  -28.9280 C   0  0  0  0  0  0  0  0  0  0  0  0
   -1.1540   22.0690  -29.7490 C   0  0  0  0  0  0  0  0  0  0  0  0
   -1.4140   23.8120  -29.0140 Br  0  0  0  0  0  0  0  0  0  0  0  0
   -0.8790   21.9180  -31.1100 C   0  0  0  0  0  0  0  0  0  0  0  0
   -0.6850   20.6420  -31.6600 C   0  0  0  0  0  0  0  0  0  0  0  0
   -0.3870   20.4960  -33.3980 S   0  0  0  0  0  0  0  0  0  0  0  0
    0.4690   21.6450  -33.8500 O   0  0  0  0  0  0  0  0  0  0  0  0
    0.3430   19.2210  -33.7140 O   0  0  0  0  0  0  0  0  0  0  0  0
   -1.8990   20.5560  -34.2440 N   0  0  0  0  0  0  0  0  0  0  0  0
   -3.1490   20.5770  -33.5430 C   0  0  0  0  0  0  0  0  0  0  0  0
   -3.5490   21.7060  -32.8200 C   0  0  0  0  0  0  0  0  0  0  0  0
   -4.7910   21.7350  -32.1830 C   0  0  0  0  0  0  0  0  0  0  0  0
   -5.6600   20.6290  -32.2500 C   0  0  0  0  0  0  0  0  0  0  0  0
   -5.2190   19.4630  -32.9150 C   0  0  0  0  0  0  0  0  0  0  0  0
   -3.9770   19.4500  -33.5680 C   0  0  0  0  0  0  0  0  0  0  0  0
   -6.1050   18.2500  -32.9810 C   0  0  0  0  0  0  0  0  0  0  0  0
   -6.9870   18.1680  -31.7400 C   0  0  0  0  0  0  0  0  0  0  0  0
   -7.8120   19.4480  -31.5890 C   0  0  0  0  0  0  0  0  0  0  0  0
   -6.9700   20.6530  -31.6250 N   0  0  0  0  0  0  0  0  0  0  0  0
   -7.7160   22.1610  -31.1560 S   0  0  0  0  0  0  0  0  0  0  0  0
   -8.3700   22.7920  -32.3520 O   0  0  0  0  0  0  0  0  0  0  0  0
   -8.7530   21.9120  -30.0960 O   0  0  0  0  0  0  0  0  0  0  0  0
   -6.5290   23.2780  -30.5030 C   0  0  0  0  0  0  0  0  0  0  0  0
   -5.7740   23.0770  -29.3580 C   0  0  0  0  0  0  0  0  0  0  0  0
   -4.8870   24.1280  -29.1000 C   0  0  0  0  0  0  0  0  0  0  0  0
   -4.9420   25.1500  -30.0400 C   0  0  0  0  0  0  0  0  0  0  0  0
   -6.0970   24.7450  -31.1970 S   0  0  0  0  0  0  0  0  0  0  0  0
    0.2913   17.2513  -29.8140 H   0  0  0  0  0  0  0  0  0  0  0  0
   -0.0103   16.2521  -31.2760 H   0  0  0  0  0  0  0  0  0  0  0  0
    1.3124   17.4674  -31.2760 H   0  0  0  0  0  0  0  0  0  0  0  0
   -1.1368   18.7858  -28.8113 H   0  0  0  0  0  0  0  0  0  0  0  0
   -1.4564   21.0632  -27.8555 H   0  0  0  0  0  0  0  0  0  0  0  0
   -0.8140   22.8063  -31.7556 H   0  0  0  0  0  0  0  0  0  0  0  0
   -1.8740   20.9090  -35.2280 H   0  0  0  0  0  0  0  0  0  0  0  0
   -2.8803   22.5768  -32.7530 H   0  0  0  0  0  0  0  0  0  0  0  0
   -5.0941   22.6317  -31.6226 H   0  0  0  0  0  0  0  0  0  0  0  0
   -3.6519   18.5461  -34.1039 H   0  0  0  0  0  0  0  0  0  0  0  0
   -6.7425   18.3150  -33.8751 H   0  0  0  0  0  0  0  0  0  0  0  0
   -5.4746   17.3499  -33.0309 H   0  0  0  0  0  0  0  0  0  0  0  0
   -7.6660   17.3076  -31.8336 H   0  0  0  0  0  0  0  0  0  0  0  0
   -6.3469   18.0483  -30.8535 H   0  0  0  0  0  0  0  0  0  0  0  0
   -8.5413   19.4996  -32.4109 H   0  0  0  0  0  0  0  0  0  0  0  0
   -8.3158   19.4144  -30.6118 H   0  0  0  0  0  0  0  0  0  0  0  0
   -5.8628   22.1855  -28.7197 H   0  0  0  0  0  0  0  0  0  0  0  0
   -4.2093   24.1438  -28.2337 H   0  0  0  0  0  0  0  0  0  0  0  0
   -4.3347   26.0671  -30.0301 H   0  0  0  0  0  0  0  0  0  0  0  0
  1  2  1  0
  2  3  1  0
  3  4  2  0
  4  5  1  0
  5  6  2  0
  6  7  1  0
  6  8  1  0
  8  9  2  0
  9 10  1  0
 10 11  2  0
 10 12  2  0
 10 13  1  0
 13 14  1  0
 14 15  2  0
 15 16  1  0
 16 17  2  0
 17 18  1  0
 18 19  2  0
 18 20  1  0
 20 21  1  0
 21 22  1  0
 22 23  1  0
 23 24  1  0
 24 25  2  0
 24 26  2  0
 24 27  1  0
 27 28  2  0
 28 29  1  0
 29 30  2  0
 30 31  1  0
  9  3  1  0
 19 14  1  0
 31 27  1  0
 23 17  1  0
  1 32  1  0
  1 33  1  0
  1 34  1  0
  4 35  1  0
  5 36  1  0
  8 37  1  0
 13 38  1  0
 15 39  1  0
 16 40  1  0
 19 41  1  0
 20 42  1  0
 20 43  1  0
 21 44  1  0
 21 45  1  0
 22 46  1  0
 22 47  1  0
 28 48  1  0
 29 49  1  0
 30 50  1  0
M  END
>  <UniqueID>  (20) 
19

>  <SMILES>  (20) 
COc1ccc(Br)cc1S(=O)(=O)Nc1ccc2c(c1)CCCN2S(=O)(=O)c1cccs1

>  <Energy>  (20) 
87.126348975098

>  <Genealogy>  (20) 
COc1ccc(Br)cc1S(=O)(=O)Nc1ccc2c(c1)CCCN2S(=O)(=O)c1cccs1 (3D coordinates assigned)
COc1ccc(Br)cc1S(=O)(=O)Nc1ccc2c(c1)CCCN2S(=O)(=O)c1cccs1 (nonaromatic ring conformer: 87.126348975098 kcal/mol)

>  <smiles>  (20) 
COc1ccc(Br)cc1S(=O)(=O)Nc1ccc2c(c1)CCCN2S(=O)(=O)c1cccs1

>  <score_type>  (20) 
oracle

>  <origin>  (20) 
adgpu

>  <m_score__min__energy>  (20) 
-10.449999999999999

>  <m_primary>  (20) 
energy

$$$$
20:0
     RDKit          3D

 30 32  0  0  0  0  0  0  0  0999 V2000
   -3.3980   20.5010  -27.1360 O   0  0  0  0  0  0  0  0  0  0  0  0
   -2.3120   20.1070  -27.6410 C   0  0  0  0  0  0  0  0  0  0  0  0
   -1.7410   19.0060  -27.1620 O   0  0  0  0  0  0  0  0  0  0  0  0
   -0.6110   18.5080  -27.6520 C   0  0  0  0  0  0  0  0  0  0  0  0
   -0.0610   17.3460  -27.0990 C   0  0  0  0  0  0  0  0  0  0  0  0
    1.1270   16.8190  -27.6170 C   0  0  0  0  0  0  0  0  0  0  0  0
    1.7710   17.4510  -28.6860 C   0  0  0  0  0  0  0  0  0  0  0  0
    1.2280   18.6130  -29.2450 C   0  0  0  0  0  0  0  0  0  0  0  0
    0.0370   19.1450  -28.7310 C   0  0  0  0  0  0  0  0  0  0  0  0
   -0.5340   20.3050  -29.2610 C   0  0  0  0  0  0  0  0  0  0  0  0
   -1.7220   20.8100  -28.7130 C   0  0  0  0  0  0  0  0  0  0  0  0
   -2.3260   22.0490  -29.2670 C   0  0  0  0  0  0  0  0  0  0  0  0
   -1.7150   23.2900  -29.0460 C   0  0  0  0  0  0  0  0  0  0  0  0
   -2.2800   24.4600  -29.5560 C   0  0  0  0  0  0  0  0  0  0  0  0
   -1.6470   25.6750  -29.3240 O   0  0  0  0  0  0  0  0  0  0  0  0
   -3.4750   24.4090  -30.2940 C   0  0  0  0  0  0  0  0  0  0  0  0
   -4.0360   25.5870  -30.7900 O   0  0  0  0  0  0  0  0  0  0  0  0
   -4.1090   23.1650  -30.5240 C   0  0  0  0  0  0  0  0  0  0  0  0
   -5.3380   23.0720  -31.2770 N   0  0  0  0  0  0  0  0  0  0  0  0
   -6.0650   22.0620  -31.1790 O   0  0  0  0  0  0  0  0  0  0  0  0
   -5.7250   24.0720  -32.1400 O   0  0  0  0  0  0  0  0  0  0  0  0
   -3.5240   21.9960  -29.9980 C   0  0  0  0  0  0  0  0  0  0  0  0
   -0.5628   16.8469  -26.2569 H   0  0  0  0  0  0  0  0  0  0  0  0
    1.5562   15.9043  -27.1821 H   0  0  0  0  0  0  0  0  0  0  0  0
    2.7060   17.0336  -29.0879 H   0  0  0  0  0  0  0  0  0  0  0  0
    1.7347   19.1084  -30.0864 H   0  0  0  0  0  0  0  0  0  0  0  0
   -0.0531   20.8205  -30.1054 H   0  0  0  0  0  0  0  0  0  0  0  0
   -0.7821   23.3429  -28.4656 H   0  0  0  0  0  0  0  0  0  0  0  0
   -4.3010   25.6950  -31.7620 H   0  0  0  0  0  0  0  0  0  0  0  0
   -4.0141   21.0251  -30.1628 H   0  0  0  0  0  0  0  0  0  0  0  0
  1  2  2  0
  2  3  1  0
  3  4  1  0
  4  5  2  0
  5  6  1  0
  6  7  2  0
  7  8  1  0
  8  9  2  0
  9 10  1  0
 10 11  2  0
 11 12  1  0
 12 13  2  0
 13 14  1  0
 14 15  1  0
 14 16  2  0
 16 17  1  0
 16 18  1  0
 18 19  1  0
 19 20  2  0
 19 21  1  0
 18 22  2  0
 11  2  1  0
 22 12  1  0
  9  4  1  0
  5 23  1  0
  6 24  1  0
  7 25  1  0
  8 26  1  0
 10 27  1  0
 13 28  1  0
 17 29  1  0
 22 30  1  0
M  CHG  3  15  -1  19   1  21  -1
M  END
>  <UniqueID>  (21) 
20

>  <SMILES>  (21) 
O=c1oc2ccccc2cc1-c1cc([O-])c(O)c([N+](=O)[O-])c1

>  <Energy>  (21) 
47.3883269128393

>  <Genealogy>  (21) 
O=c1oc2ccccc2cc1-c1cc([O-])c(O)c([N+](=O)[O-])c1 (protonated)
O=c1oc2ccccc2cc1-c1cc([O-])c(O)c([N+](=O)[O-])c1 (3D coordinates assigned)
O=c1oc2ccccc2cc1-c1cc([O-])c(O)c([N+](=O)[O-])c1 (optimized conformer: 47.3883269128393 kcal/mol)

>  <smiles>  (21) 
O=c1oc2ccccc2cc1-c1cc(O)c(O)c([N+](=O)[O-])c1

>  <score_type>  (21) 
oracle

>  <origin>  (21) 
adgpu

>  <m_score__min__energy>  (21) 
-10.09

>  <m_primary>  (21) 
energy

$$$$
21:0
     RDKit          3D

 72 77  0  0  0  0  0  0  0  0999 V2000
   -0.8370   15.5130  -32.6410 C   0  0  0  0  0  0  0  0  0  0  0  0
   -1.1950   16.9700  -32.6570 C   0  0  0  0  0  0  0  0  0  0  0  0
   -0.7700   17.7360  -31.6230 N   0  0  0  0  0  0  0  0  0  0  0  0
   -1.0120   19.0680  -31.5590 C   0  0  0  0  0  0  0  0  0  0  0  0
   -1.7170   19.6880  -32.5570 N   0  0  0  0  0  0  0  0  0  0  0  0
   -2.1390   18.9610  -33.6420 C   0  0  0  0  0  0  0  0  0  0  0  0
   -2.7340   19.5430  -34.5920 O   0  0  0  0  0  0  0  0  0  0  0  0
   -1.9160   17.5710  -33.7110 C   0  0  0  0  0  0  0  0  0  0  0  0
   -2.4400   16.7710  -34.8930 C   0  0  0  0  0  0  0  0  0  0  0  0
   -3.5620   15.7980  -34.4810 C   0  0  0  0  0  0  0  0  0  0  0  0
   -4.8750   16.4750  -34.3880 N   0  0  0  0  0  0  0  0  0  0  0  0
   -5.3440   16.5390  -32.9720 C   0  0  0  0  0  0  0  0  0  0  0  0
   -5.3830   17.9610  -32.3910 C   0  0  0  0  0  0  0  0  0  0  0  0
   -6.1510   18.8330  -33.2790 N   0  0  0  0  0  0  0  0  0  0  0  0
   -7.0770   19.7810  -32.7330 C   0  0  0  0  0  0  0  0  0  0  0  0
   -8.3910   19.4400  -32.6440 N   0  0  0  0  0  0  0  0  0  0  0  0
   -9.3310   20.2970  -32.1700 C   0  0  0  0  0  0  0  0  0  0  0  0
   -8.9700   21.5800  -31.7580 C   0  0  0  0  0  0  0  0  0  0  0  0
   -7.6270   21.9720  -31.8260 C   0  0  0  0  0  0  0  0  0  0  0  0
   -7.2400   23.2550  -31.4140 C   0  0  0  0  0  0  0  0  0  0  0  0
   -5.8950   23.6340  -31.4720 C   0  0  0  0  0  0  0  0  0  0  0  0
   -4.9300   22.7340  -31.9290 C   0  0  0  0  0  0  0  0  0  0  0  0
   -5.3030   21.4530  -32.3460 C   0  0  0  0  0  0  0  0  0  0  0  0
   -6.6560   21.0610  -32.3120 C   0  0  0  0  0  0  0  0  0  0  0  0
   -6.0910   18.6340  -34.7270 C   0  0  0  0  0  0  0  0  0  0  0  0
   -4.8700   17.7840  -35.0910 C   0  0  0  0  0  0  0  0  0  0  0  0
   -1.9410   21.1470  -32.5350 C   0  0  0  0  0  0  0  0  0  0  0  0
   -1.7400   21.7550  -31.1430 C   0  0  0  0  0  0  0  0  0  0  0  0
   -0.4850   21.2620  -30.5400 N   0  0  1  0  0  0  0  0  0  0  0  0
   -0.2060   21.9410  -29.2510 C   0  0  0  0  0  0  0  0  0  0  0  0
   -1.4000   22.7220  -28.7500 C   0  0  0  0  0  0  0  0  0  0  0  0
   -1.4540   24.1170  -28.9190 C   0  0  0  0  0  0  0  0  0  0  0  0
   -2.5680   24.8360  -28.4770 C   0  0  0  0  0  0  0  0  0  0  0  0
   -3.6330   24.1710  -27.8630 C   0  0  0  0  0  0  0  0  0  0  0  0
   -3.5890   22.7850  -27.6930 C   0  0  0  0  0  0  0  0  0  0  0  0
   -2.4770   22.0620  -28.1350 C   0  0  0  0  0  0  0  0  0  0  0  0
   -0.5850   19.8070  -30.3160 C   0  0  0  0  0  0  0  0  0  0  0  0
   -0.7522   15.1677  -31.6001 H   0  0  0  0  0  0  0  0  0  0  0  0
   -1.6204   14.9373  -33.1556 H   0  0  0  0  0  0  0  0  0  0  0  0
    0.1240   15.3659  -33.1556 H   0  0  0  0  0  0  0  0  0  0  0  0
   -2.8340   17.4684  -35.6469 H   0  0  0  0  0  0  0  0  0  0  0  0
   -1.6069   16.1769  -35.2967 H   0  0  0  0  0  0  0  0  0  0  0  0
   -3.6285   14.9948  -35.2297 H   0  0  0  0  0  0  0  0  0  0  0  0
   -3.3155   15.3955  -33.4874 H   0  0  0  0  0  0  0  0  0  0  0  0
   -6.3590   16.1177  -32.9243 H   0  0  0  0  0  0  0  0  0  0  0  0
   -4.6205   15.9689  -32.3707 H   0  0  0  0  0  0  0  0  0  0  0  0
   -5.8584   17.9383  -31.3993 H   0  0  0  0  0  0  0  0  0  0  0  0
   -4.3568   18.3462  -32.2988 H   0  0  0  0  0  0  0  0  0  0  0  0
  -10.3822   19.9784  -32.1105 H   0  0  0  0  0  0  0  0  0  0  0  0
   -9.7333   22.2777  -31.3830 H   0  0  0  0  0  0  0  0  0  0  0  0
   -7.9952   23.9644  -31.0447 H   0  0  0  0  0  0  0  0  0  0  0  0
   -5.5962   24.6446  -31.1565 H   0  0  0  0  0  0  0  0  0  0  0  0
   -3.8723   23.0343  -31.9610 H   0  0  0  0  0  0  0  0  0  0  0  0
   -4.5372   20.7482  -32.7021 H   0  0  0  0  0  0  0  0  0  0  0  0
   -7.0045   18.1209  -35.0619 H   0  0  0  0  0  0  0  0  0  0  0  0
   -6.0089   19.6129  -35.2220 H   0  0  0  0  0  0  0  0  0  0  0  0
   -4.8727   17.6045  -36.1763 H   0  0  0  0  0  0  0  0  0  0  0  0
   -3.9686   18.3331  -34.7814 H   0  0  0  0  0  0  0  0  0  0  0  0
   -1.2348   21.6220  -33.2319 H   0  0  0  0  0  0  0  0  0  0  0  0
   -2.9856   21.3273  -32.8287 H   0  0  0  0  0  0  0  0  0  0  0  0
   -1.6941   22.8506  -31.2296 H   0  0  0  0  0  0  0  0  0  0  0  0
   -2.5832   21.4606  -30.5008 H   0  0  0  0  0  0  0  0  0  0  0  0
    0.3130   21.4410  -31.1960 H   0  0  0  0  0  0  0  0  0  0  0  0
    0.0617   21.1822  -28.5010 H   0  0  0  0  0  0  0  0  0  0  0  0
    0.6191   22.6501  -29.4131 H   0  0  0  0  0  0  0  0  0  0  0  0
   -0.6170   24.6439  -29.4005 H   0  0  0  0  0  0  0  0  0  0  0  0
   -2.6067   25.9269  -28.6126 H   0  0  0  0  0  0  0  0  0  0  0  0
   -4.5071   24.7397  -27.5131 H   0  0  0  0  0  0  0  0  0  0  0  0
   -4.4289   22.2628  -27.2116 H   0  0  0  0  0  0  0  0  0  0  0  0
   -2.4452   20.9707  -28.0005 H   0  0  0  0  0  0  0  0  0  0  0  0
    0.3981   19.4289  -29.9991 H   0  0  0  0  0  0  0  0  0  0  0  0
   -1.3479   19.6358  -29.5422 H   0  0  0  0  0  0  0  0  0  0  0  0
  1  2  1  0
  2  3  1  0
  3  4  2  0
  4  5  1  0
  5  6  1  0
  6  7  2  0
  6  8  1  0
  8  9  1  0
  9 10  1  0
 10 11  1  0
 11 12  1  0
 12 13  1  0
 13 14  1  0
 14 15  1  0
 15 16  2  0
 16 17  1  0
 17 18  2  0
 18 19  1  0
 19 20  2  0
 20 21  1  0
 21 22  2  0
 22 23  1  0
 23 24  2  0
 14 25  1  0
 25 26  1  0
  5 27  1  0
 27 28  1  0
 28 29  1  0
 29 30  1  0
 30 31  1  0
 31 32  2  0
 32 33  1  0
 33 34  2  0
 34 35  1  0
 35 36  2  0
 29 37  1  0
  8  2  2  0
 26 11  1  0
 36 31  1  0
 37  4  1  0
 24 15  1  0
 24 19  1  0
  1 38  1  0
  1 39  1  0
  1 40  1  0
  9 41  1  0
  9 42  1  0
 10 43  1  0
 10 44  1  0
 12 45  1  0
 12 46  1  0
 13 47  1  0
 13 48  1  0
 17 49  1  0
 18 50  1  0
 20 51  1  0
 21 52  1  0
 22 53  1  0
 23 54  1  0
 25 55  1  0
 25 56  1  0
 26 57  1  0
 26 58  1  0
 27 59  1  0
 27 60  1  0
 28 61  1  0
 28 62  1  0
 29 63  1  6
 30 64  1  0
 30 65  1  0
 32 66  1  0
 33 67  1  0
 34 68  1  0
 35 69  1  0
 36 70  1  0
 37 71  1  0
 37 72  1  0
M  CHG  1  29   1
M  END
>  <UniqueID>  (22) 
21

>  <SMILES>  (22) 
Cc1nc2n(c(=O)c1CCN1CCN(c3nccc4ccccc34)CC1)CC[N@@H+](Cc1ccccc1)C2

>  <Energy>  (22) 
105.00096718243036

>  <Genealogy>  (22) 
Cc1nc2n(c(=O)c1CCN1CCN(c3nccc4ccccc34)CC1)CC[NH+](Cc1ccccc1)C2 (protonated)
Cc1nc2n(c(=O)c1CCN1CCN(c3nccc4ccccc34)CC1)CC[N@@H+](Cc1ccccc1)C2 (chirality)
Cc1nc2n(c(=O)c1CCN1CCN(c3nccc4ccccc34)CC1)CC[N@@H+](Cc1ccccc1)C2 (3D coordinates assigned)
Cc1nc2n(c(=O)c1CCN1CCN(c3nccc4ccccc34)CC1)CC[N@@H+](Cc1ccccc1)C2 (nonaromatic ring conformer: 105.00096718243036 kcal/mol)

>  <smiles>  (22) 
Cc1nc2n(c(=O)c1CCN1CCN(c3nccc4ccccc34)CC1)CCN(Cc1ccccc1)C2

>  <score_type>  (22) 
oracle

>  <origin>  (22) 
adgpu

>  <m_score__min__energy>  (22) 
-9.75

>  <m_primary>  (22) 
energy

$$$$
22:0
     RDKit          3D

 35 37  0  0  0  0  0  0  0  0999 V2000
   -3.2420   21.0970  -33.0710 N   0  0  0  0  0  0  0  0  0  0  0  0
   -4.3190   21.2730  -32.6840 C   0  0  0  0  0  0  0  0  0  0  0  0
   -5.6590   21.4900  -32.2000 C   0  0  0  0  0  0  0  0  0  0  0  0
   -6.1610   22.7370  -31.8140 C   0  0  0  0  0  0  0  0  0  0  0  0
   -5.4640   23.9880  -31.8350 N   0  0  0  0  0  0  0  0  0  0  0  0
   -4.6460   24.4950  -30.7750 C   0  0  0  0  0  0  0  0  0  0  0  0
   -4.2100   25.6730  -30.8590 O   0  0  0  0  0  0  0  0  0  0  0  0
   -4.3510   23.6840  -29.6240 N   0  0  0  0  0  0  0  0  0  0  0  0
   -3.4980   24.1000  -28.5450 C   0  0  0  0  0  0  0  0  0  0  0  0
   -2.1000   24.1630  -28.6940 C   0  0  0  0  0  0  0  0  0  0  0  0
   -1.2970   24.5960  -27.6340 C   0  0  0  0  0  0  0  0  0  0  0  0
   -1.8810   24.9830  -26.4250 C   0  0  0  0  0  0  0  0  0  0  0  0
   -1.1000   25.4030  -25.3990 F   0  0  0  0  0  0  0  0  0  0  0  0
   -3.2700   24.9460  -26.2760 C   0  0  0  0  0  0  0  0  0  0  0  0
   -4.0760   24.5160  -27.3350 C   0  0  0  0  0  0  0  0  0  0  0  0
   -7.7990   22.5940  -31.4570 S   0  0  0  0  0  0  0  0  0  0  0  0
   -7.8750   20.9350  -31.7190 C   0  0  0  0  0  0  0  0  0  0  0  0
   -6.6350   20.4790  -32.1560 C   0  0  0  0  0  0  0  0  0  0  0  0
   -6.3870   19.0250  -32.4670 C   0  0  0  0  0  0  0  0  0  0  0  0
   -7.7040   18.2680  -32.7210 C   0  0  0  0  0  0  0  0  0  0  0  0
   -8.7580   18.5990  -31.6510 C   0  0  0  0  0  0  0  0  0  0  0  0
   -9.1140   20.0950  -31.6660 C   0  0  0  0  0  0  0  0  0  0  0  0
   -4.6950   22.6980  -29.6090 H   0  0  0  0  0  0  0  0  0  0  0  0
   -1.6370   23.8705  -29.6480 H   0  0  0  0  0  0  0  0  0  0  0  0
   -0.2040   24.6320  -27.7522 H   0  0  0  0  0  0  0  0  0  0  0  0
   -3.7295   25.2551  -25.3256 H   0  0  0  0  0  0  0  0  0  0  0  0
   -5.1698   24.5036  -27.2192 H   0  0  0  0  0  0  0  0  0  0  0  0
   -5.7556   18.9545  -33.3650 H   0  0  0  0  0  0  0  0  0  0  0  0
   -5.8884   18.5674  -31.5998 H   0  0  0  0  0  0  0  0  0  0  0  0
   -8.0954   18.5527  -33.7088 H   0  0  0  0  0  0  0  0  0  0  0  0
   -7.4960   17.1886  -32.6792 H   0  0  0  0  0  0  0  0  0  0  0  0
   -9.6669   18.0118  -31.8487 H   0  0  0  0  0  0  0  0  0  0  0  0
   -8.3426   18.3494  -30.6635 H   0  0  0  0  0  0  0  0  0  0  0  0
   -9.7335   20.3096  -32.5493 H   0  0  0  0  0  0  0  0  0  0  0  0
   -9.6648   20.3361  -30.7449 H   0  0  0  0  0  0  0  0  0  0  0  0
  1  2  3  0
  2  3  1  0
  3  4  2  0
  4  5  1  0
  5  6  1  0
  6  7  2  0
  6  8  1  0
  8  9  1  0
  9 10  2  0
 10 11  1  0
 11 12  2  0
 12 13  1  0
 12 14  1  0
 14 15  2  0
  4 16  1  0
 16 17  1  0
 17 18  2  0
 18 19  1  0
 19 20  1  0
 20 21  1  0
 21 22  1  0
 18  3  1  0
 15  9  1  0
 22 17  1  0
  8 23  1  0
 10 24  1  0
 11 25  1  0
 14 26  1  0
 15 27  1  0
 19 28  1  0
 19 29  1  0
 20 30  1  0
 20 31  1  0
 21 32  1  0
 21 33  1  0
 22 34  1  0
 22 35  1  0
M  CHG  1   5  -1
M  END
>  <UniqueID>  (23) 
22

>  <SMILES>  (23) 
N#Cc1c([N-]C(=O)Nc2ccc(F)cc2)sc2c1CCCC2

>  <Energy>  (23) 
70.17618969247313

>  <Genealogy>  (23) 
N#Cc1c([N-]C(=O)Nc2ccc(F)cc2)sc2c1CCCC2 (protonated)
N#Cc1c([N-]C(=O)Nc2ccc(F)cc2)sc2c1CCCC2 (3D coordinates assigned)
N#Cc1c([N-]C(=O)Nc2ccc(F)cc2)sc2c1CCCC2 (nonaromatic ring conformer: 70.17618969247313 kcal/mol)

>  <smiles>  (23) 
N#Cc1c(NC(=O)Nc2ccc(F)cc2)sc2c1CCCC2

>  <score_type>  (23) 
oracle

>  <origin>  (23) 
adgpu

>  <m_score__min__energy>  (23) 
-10.16

>  <m_primary>  (23) 
energy

$$$$
23:0
     RDKit          3D

 61 65  0  0  0  0  0  0  0  0999 V2000
   -1.1530   21.0080  -33.8440 C   0  0  0  0  0  0  0  0  0  0  0  0
   -0.5830   21.1440  -32.5460 O   0  0  0  0  0  0  0  0  0  0  0  0
   -1.3200   21.2680  -31.3550 C   0  0  0  0  0  0  0  0  0  0  0  0
   -2.2320   22.3240  -31.1530 C   0  0  0  0  0  0  0  0  0  0  0  0
   -2.9530   22.4380  -29.9450 C   0  0  0  0  0  0  0  0  0  0  0  0
   -3.8880   23.4740  -29.6860 C   0  0  0  0  0  0  0  0  0  0  0  0
   -4.3030   24.4700  -30.7090 C   0  0  0  0  0  0  0  0  0  0  0  0
   -3.9090   25.6640  -30.6250 O   0  0  0  0  0  0  0  0  0  0  0  0
   -5.1850   24.1170  -31.7810 N   0  0  0  0  0  0  0  0  0  0  0  0
   -5.9600   22.9150  -31.8700 C   0  0  0  0  0  0  0  0  0  0  0  0
   -5.3070   21.6930  -32.0520 C   0  0  0  0  0  0  0  0  0  0  0  0
   -6.0390   20.5050  -32.1330 C   0  0  0  0  0  0  0  0  0  0  0  0
   -7.4340   20.5280  -32.0050 C   0  0  0  0  0  0  0  0  0  0  0  0
   -8.3750   19.0470  -32.1540 S   0  0  0  0  0  0  0  0  0  0  0  0
   -9.4970   19.2740  -33.1290 O   0  0  0  0  0  0  0  0  0  0  0  0
   -8.9640   18.6780  -30.8190 O   0  0  0  0  0  0  0  0  0  0  0  0
   -7.3390   17.7700  -32.7390 N   0  0  0  0  0  0  0  0  0  0  0  0
   -6.5460   18.2120  -33.8850 C   0  0  0  0  0  0  0  0  0  0  0  0
   -5.2720   17.3820  -33.8810 C   0  0  0  0  0  0  0  0  0  0  0  0
   -5.1580   16.8230  -32.4720 C   0  0  0  0  0  0  0  0  0  0  0  0
   -6.3700   17.3630  -31.7240 C   0  0  0  0  0  0  0  0  0  0  0  0
   -8.0890   21.7470  -31.7890 C   0  0  0  0  0  0  0  0  0  0  0  0
   -7.3550   22.9340  -31.7090 C   0  0  0  0  0  0  0  0  0  0  0  0
   -4.4500   23.5530  -28.4500 N   0  0  0  0  0  0  0  0  0  0  0  0
   -4.1760   22.6520  -27.4730 C   0  0  0  0  0  0  0  0  0  0  0  0
   -3.3190   21.6320  -27.7130 N   0  0  0  0  0  0  0  0  0  0  0  0
   -2.7020   21.5040  -28.9150 C   0  0  0  0  0  0  0  0  0  0  0  0
   -1.8070   20.4520  -29.1160 C   0  0  0  0  0  0  0  0  0  0  0  0
   -1.1210   20.3180  -30.3330 C   0  0  0  0  0  0  0  0  0  0  0  0
   -0.1900   19.1810  -30.5260 C   0  0  0  0  0  0  0  0  0  0  0  0
    0.9600   19.0720  -29.7290 C   0  0  0  0  0  0  0  0  0  0  0  0
    1.8450   18.0110  -29.9170 C   0  0  0  0  0  0  0  0  0  0  0  0
    1.5750   17.0630  -30.9030 C   0  0  0  0  0  0  0  0  0  0  0  0
    0.4580   17.1770  -31.6700 N   0  0  0  0  0  0  0  0  0  0  0  0
   -0.4260   18.2000  -31.5100 C   0  0  0  0  0  0  0  0  0  0  0  0
   -1.5740   18.2740  -32.3100 O   0  0  0  0  0  0  0  0  0  0  0  0
   -1.7250   17.5300  -33.5150 C   0  0  0  0  0  0  0  0  0  0  0  0
   -2.2192   20.7536  -33.7515 H   0  0  0  0  0  0  0  0  0  0  0  0
   -1.0485   21.9563  -34.3916 H   0  0  0  0  0  0  0  0  0  0  0  0
   -0.6316   20.2090  -34.3916 H   0  0  0  0  0  0  0  0  0  0  0  0
   -2.3837   23.0693  -31.9477 H   0  0  0  0  0  0  0  0  0  0  0  0
   -4.2102   21.6659  -32.1320 H   0  0  0  0  0  0  0  0  0  0  0  0
   -5.5187   19.5499  -32.2976 H   0  0  0  0  0  0  0  0  0  0  0  0
   -7.1037   18.0460  -34.8185 H   0  0  0  0  0  0  0  0  0  0  0  0
   -6.3186   19.2862  -33.8181 H   0  0  0  0  0  0  0  0  0  0  0  0
   -5.3426   16.5652  -34.6144 H   0  0  0  0  0  0  0  0  0  0  0  0
   -4.3920   17.9825  -34.1550 H   0  0  0  0  0  0  0  0  0  0  0  0
   -5.1762   15.7233  -32.4915 H   0  0  0  0  0  0  0  0  0  0  0  0
   -4.2144   17.1181  -31.9897 H   0  0  0  0  0  0  0  0  0  0  0  0
   -6.7994   16.5802  -31.0815 H   0  0  0  0  0  0  0  0  0  0  0  0
   -6.0931   18.2090  -31.0778 H   0  0  0  0  0  0  0  0  0  0  0  0
   -9.1835   21.7704  -31.6821 H   0  0  0  0  0  0  0  0  0  0  0  0
   -7.8719   23.8863  -31.5193 H   0  0  0  0  0  0  0  0  0  0  0  0
   -4.6505   22.7505  -26.4855 H   0  0  0  0  0  0  0  0  0  0  0  0
   -1.6376   19.7204  -28.3122 H   0  0  0  0  0  0  0  0  0  0  0  0
    1.1637   19.8255  -28.9540 H   0  0  0  0  0  0  0  0  0  0  0  0
    2.7471   17.9228  -29.2937 H   0  0  0  0  0  0  0  0  0  0  0  0
    2.2663   16.2220  -31.0606 H   0  0  0  0  0  0  0  0  0  0  0  0
   -1.9384   16.4785  -33.2724 H   0  0  0  0  0  0  0  0  0  0  0  0
   -2.5568   17.9471  -34.1016 H   0  0  0  0  0  0  0  0  0  0  0  0
   -0.7964   17.5898  -34.1016 H   0  0  0  0  0  0  0  0  0  0  0  0
  1  2  1  0
  2  3  1  0
  3  4  2  0
  4  5  1  0
  5  6  2  0
  6  7  1  0
  7  8  2  0
  7  9  1  0
  9 10  1  0
 10 11  2  0
 11 12  1  0
 12 13  2  0
 13 14  1  0
 14 15  2  0
 14 16  2  0
 14 17  1  0
 17 18  1  0
 18 19  1  0
 19 20  1  0
 20 21  1  0
 13 22  1  0
 22 23  2  0
  6 24  1  0
 24 25  2  0
 25 26  1  0
 26 27  2  0
 27 28  1  0
 28 29  2  0
 29 30  1  0
 30 31  2  0
 31 32  1  0
 32 33  2  0
 33 34  1  0
 34 35  2  0
 35 36  1  0
 36 37  1  0
 29  3  1  0
 35 30  1  0
 27  5  1  0
 23 10  1  0
 21 17  1  0
  1 38  1  0
  1 39  1  0
  1 40  1  0
  4 41  1  0
 11 42  1  0
 12 43  1  0
 18 44  1  0
 18 45  1  0
 19 46  1  0
 19 47  1  0
 20 48  1  0
 20 49  1  0
 21 50  1  0
 21 51  1  0
 22 52  1  0
 23 53  1  0
 25 54  1  0
 28 55  1  0
 31 56  1  0
 32 57  1  0
 33 58  1  0
 37 59  1  0
 37 60  1  0
 37 61  1  0
M  CHG  1   9  -1
M  END
>  <UniqueID>  (24) 
23

>  <SMILES>  (24) 
COc1cc2c(C(=O)[N-]c3ccc(S(=O)(=O)N4CCCC4)cc3)ncnc2cc1-c1cccnc1OC

>  <Energy>  (24) 
90.65099409656183

>  <Genealogy>  (24) 
COc1cc2c(C(=O)[N-]c3ccc(S(=O)(=O)N4CCCC4)cc3)ncnc2cc1-c1cccnc1OC (protonated)
COc1cc2c(C(=O)[N-]c3ccc(S(=O)(=O)N4CCCC4)cc3)ncnc2cc1-c1cccnc1OC (3D coordinates assigned)
COc1cc2c(C(=O)[N-]c3ccc(S(=O)(=O)N4CCCC4)cc3)ncnc2cc1-c1cccnc1OC (nonaromatic ring conformer: 90.65099409656183 kcal/mol)

>  <smiles>  (24) 
COc1cc2c(C(=O)Nc3ccc(S(=O)(=O)N4CCCC4)cc3)ncnc2cc1-c1cccnc1OC

>  <score_type>  (24) 
oracle

>  <origin>  (24) 
adgpu

>  <m_score__min__energy>  (24) 
-11.01

>  <m_primary>  (24) 
energy

$$$$
24:0
     RDKit          3D

 46 48  0  0  0  0  0  0  0  0999 V2000
   -8.0021   19.9182  -30.8380 H   0  0  0  0  0  0  0  0  0  0  0  0
   -8.7560   19.7980  -31.6300 C   0  0  0  0  0  0  0  0  0  0  0  0
   -8.9270   18.7070  -32.1500 O   0  0  0  0  0  0  0  0  0  0  0  0
   -9.5750   20.9750  -32.0720 C   0  0  0  0  0  0  0  0  0  0  0  0
   -9.4854   21.0848  -33.1628 H   0  0  0  0  0  0  0  0  0  0  0  0
  -10.6218   20.7981  -31.7841 H   0  0  0  0  0  0  0  0  0  0  0  0
   -9.0990   22.2670  -31.3990 C   0  0  0  0  0  0  0  0  0  0  0  0
   -9.8687   23.0425  -31.5260 H   0  0  0  0  0  0  0  0  0  0  0  0
   -8.9281   22.0617  -30.3319 H   0  0  0  0  0  0  0  0  0  0  0  0
   -7.8110   22.7510  -32.0030 C   0  0  0  0  0  0  0  0  0  0  0  0
   -7.6033   22.5433  -33.0630 H   0  0  0  0  0  0  0  0  0  0  0  0
   -6.9080   23.4310  -31.2790 C   0  0  0  0  0  0  0  0  0  0  0  0
   -7.1226   23.6454  -30.2216 H   0  0  0  0  0  0  0  0  0  0  0  0
   -5.6110   23.9080  -31.8730 C   0  0  0  0  0  0  0  0  0  0  0  0
   -5.5334   23.5533  -32.9114 H   0  0  0  0  0  0  0  0  0  0  0  0
   -5.5865   25.0075  -31.8521 H   0  0  0  0  0  0  0  0  0  0  0  0
   -4.4440   23.3680  -31.0690 C   0  0  0  0  0  0  0  0  0  0  0  0
   -4.1410   21.9840  -31.0690 C   0  0  0  0  0  0  0  0  0  0  0  0
   -4.9860   21.0120  -31.7920 C   0  0  0  0  0  0  0  0  0  0  0  0
   -6.0350   20.5720  -31.2520 O   0  0  0  0  0  0  0  0  0  0  0  0
   -4.5550   20.5220  -33.0680 N   0  0  0  0  0  0  0  0  0  0  0  0
   -4.7550   19.2060  -33.6030 C   0  0  0  0  0  0  0  0  0  0  0  0
   -3.6600   18.5440  -34.1730 C   0  0  0  0  0  0  0  0  0  0  0  0
   -2.6702   19.0240  -34.1708 H   0  0  0  0  0  0  0  0  0  0  0  0
   -3.8160   17.2770  -34.7450 C   0  0  0  0  0  0  0  0  0  0  0  0
   -2.9480   16.7593  -35.1793 H   0  0  0  0  0  0  0  0  0  0  0  0
   -5.0730   16.6690  -34.7650 C   0  0  0  0  0  0  0  0  0  0  0  0
   -5.1938   15.6707  -35.2109 H   0  0  0  0  0  0  0  0  0  0  0  0
   -6.1770   17.3280  -34.2190 C   0  0  0  0  0  0  0  0  0  0  0  0
   -7.1680   16.8511  -34.2419 H   0  0  0  0  0  0  0  0  0  0  0  0
   -6.0240   18.5940  -33.6430 C   0  0  0  0  0  0  0  0  0  0  0  0
   -6.8967   19.1132  -33.2201 H   0  0  0  0  0  0  0  0  0  0  0  0
   -3.0020   21.5140  -30.3950 C   0  0  0  0  0  0  0  0  0  0  0  0
   -2.7150   20.1500  -30.4000 O   0  0  0  0  0  0  0  0  0  0  0  0
   -2.1580   22.4050  -29.7110 C   0  0  0  0  0  0  0  0  0  0  0  0
   -1.0220   21.9270  -29.0290 C   0  0  0  0  0  0  0  0  0  0  0  0
   -0.7969   20.8503  -29.0325 H   0  0  0  0  0  0  0  0  0  0  0  0
   -0.1810   22.8060  -28.3500 C   0  0  0  0  0  0  0  0  0  0  0  0
    0.7037   22.4213  -27.8215 H   0  0  0  0  0  0  0  0  0  0  0  0
   -0.4580   24.1700  -28.3390 C   0  0  0  0  0  0  0  0  0  0  0  0
    0.2098   24.8580  -27.7999 H   0  0  0  0  0  0  0  0  0  0  0  0
   -1.5770   24.6720  -29.0070 C   0  0  0  0  0  0  0  0  0  0  0  0
   -1.8060   26.0440  -28.9620 O   0  0  0  0  0  0  0  0  0  0  0  0
   -2.4470   23.7960  -29.7040 C   0  0  0  0  0  0  0  0  0  0  0  0
   -3.5850   24.2660  -30.3990 C   0  0  0  0  0  0  0  0  0  0  0  0
   -3.8670   25.6300  -30.4380 O   0  0  0  0  0  0  0  0  0  0  0  0
  1  2  1  0
  2  3  2  0
  2  4  1  0
  4  5  1  0
  4  6  1  0
  4  7  1  0
  7  8  1  0
  7  9  1  0
  7 10  1  0
 10 11  1  0
 10 12  2  0
 12 13  1  0
 12 14  1  0
 14 15  1  0
 14 16  1  0
 14 17  1  0
 17 18  2  0
 18 19  1  0
 19 20  2  0
 19 21  1  0
 21 22  1  0
 22 23  2  0
 23 24  1  0
 23 25  1  0
 25 26  1  0
 25 27  2  0
 27 28  1  0
 27 29  1  0
 29 30  1  0
 29 31  2  0
 31 32  1  0
 18 33  1  0
 33 34  1  0
 33 35  2  0
 35 36  1  0
 36 37  1  0
 36 38  2  0
 38 39  1  0
 38 40  1  0
 40 41  1  0
 40 42  2  0
 42 43  1  0
 42 44  1  0
 44 45  2  0
 45 46  1  0
 45 17  1  0
 31 22  1  0
 44 35  1  0
M  CHG  4  21  -1  34  -1  43  -1  46  -1
M  END
>  <UniqueID>  (25) 
24

>  <SMILES>  (25) 
O=CCC/C=C/Cc1c(C(=O)[N-]c2ccccc2)c([O-])c2cccc([O-])c2c1[O-]

>  <Energy>  (25) 
58.04125766934515

>  <Genealogy>  (25) 
O=CCCC=CCc1c(C(=O)[N-]c2ccccc2)c([O-])c2cccc([O-])c2c1[O-] (protonated)
O=CCC/C=C/Cc1c(C(=O)[N-]c2ccccc2)c([O-])c2cccc([O-])c2c1[O-] (cis-trans isomerization)
O=CCC/C=C/Cc1c(C(=O)[N-]c2ccccc2)c([O-])c2cccc([O-])c2c1[O-] (3D coordinates assigned)
O=CCC/C=C/Cc1c(C(=O)[N-]c2ccccc2)c([O-])c2cccc([O-])c2c1[O-] (optimized conformer: 58.04125766934515 kcal/mol)

>  <smiles>  (25) 
O=CCCC=CCc1c(C(=O)Nc2ccccc2)c(O)c2cccc(O)c2c1O

>  <score_type>  (25) 
oracle

>  <origin>  (25) 
adgpu

>  <m_score__min__energy>  (25) 
-14.800000000000001

>  <m_primary>  (25) 
energy

$$$$
25:0
     RDKit          3D

 49 52  0  0  0  0  0  0  0  0999 V2000
   -3.8640   25.6760  -30.4890 O   0  0  0  0  0  0  0  0  0  0  0  0
   -4.7400   24.6340  -30.7670 C   0  0  0  0  0  0  0  0  0  0  0  0
   -4.2420   23.3780  -31.1290 C   0  0  0  0  0  0  0  0  0  0  0  0
   -5.1210   22.3280  -31.4100 C   0  0  0  0  0  0  0  0  0  0  0  0
   -6.5100   22.5250  -31.3310 C   0  0  0  0  0  0  0  0  0  0  0  0
   -7.4350   21.4140  -31.6240 C   0  0  0  0  0  0  0  0  0  0  0  0
   -7.0370   20.1370  -31.8180 N   0  0  0  0  0  0  0  0  0  0  0  0
   -8.1920   19.4870  -32.0620 C   0  0  0  0  0  0  0  0  0  0  0  0
   -8.2910   18.0120  -32.3560 C   0  0  0  0  0  0  0  0  0  0  0  0
   -7.0470   17.4230  -32.9130 N   0  0  0  0  0  0  0  0  0  0  0  0
   -6.0440   17.1370  -31.8550 C   0  0  0  0  0  0  0  0  0  0  0  0
   -4.6480   16.9550  -32.4600 C   0  0  0  0  0  0  0  0  0  0  0  0
   -4.1720   18.2060  -33.0940 N   0  0  0  0  0  0  0  0  0  0  0  0
   -3.1030   17.9210  -34.0740 C   0  0  0  0  0  0  0  0  0  0  0  0
   -2.0800   19.0260  -34.0720 C   0  0  0  0  0  0  0  0  0  0  0  0
   -2.3490   20.2510  -33.4370 C   0  0  0  0  0  0  0  0  0  0  0  0
   -1.3880   21.2660  -33.4320 C   0  0  0  0  0  0  0  0  0  0  0  0
   -0.1550   21.0680  -34.0600 C   0  0  0  0  0  0  0  0  0  0  0  0
    0.1200   19.8530  -34.6940 C   0  0  0  0  0  0  0  0  0  0  0  0
   -0.8380   18.8340  -34.7010 C   0  0  0  0  0  0  0  0  0  0  0  0
   -5.2630   19.0310  -33.6760 C   0  0  0  0  0  0  0  0  0  0  0  0
   -6.4970   18.1940  -34.0630 C   0  0  0  0  0  0  0  0  0  0  0  0
   -9.2410   20.3780  -31.9990 C   0  0  0  0  0  0  0  0  0  0  0  0
   -8.7400   21.5570  -31.7290 O   0  0  0  0  0  0  0  0  0  0  0  0
   -7.0040   23.7900  -30.9650 C   0  0  0  0  0  0  0  0  0  0  0  0
   -6.1200   24.8390  -30.6850 C   0  0  0  0  0  0  0  0  0  0  0  0
   -3.1558   23.2161  -31.1927 H   0  0  0  0  0  0  0  0  0  0  0  0
   -4.7233   21.3426  -31.6944 H   0  0  0  0  0  0  0  0  0  0  0  0
   -8.5328   17.4880  -31.4195 H   0  0  0  0  0  0  0  0  0  0  0  0
   -9.0712   17.8916  -33.1220 H   0  0  0  0  0  0  0  0  0  0  0  0
   -7.3320   16.4900  -33.2980 H   0  0  0  0  0  0  0  0  0  0  0  0
   -6.0217   17.9757  -31.1437 H   0  0  0  0  0  0  0  0  0  0  0  0
   -6.3291   16.2063  -31.3427 H   0  0  0  0  0  0  0  0  0  0  0  0
   -3.9464   16.6670  -31.6633 H   0  0  0  0  0  0  0  0  0  0  0  0
   -4.7018   16.1722  -33.2310 H   0  0  0  0  0  0  0  0  0  0  0  0
   -2.6125   16.9726  -33.8096 H   0  0  0  0  0  0  0  0  0  0  0  0
   -3.5487   17.8495  -35.0771 H   0  0  0  0  0  0  0  0  0  0  0  0
   -3.3185   20.4112  -32.9427 H   0  0  0  0  0  0  0  0  0  0  0  0
   -1.6025   22.2225  -32.9329 H   0  0  0  0  0  0  0  0  0  0  0  0
    0.5992   21.8687  -34.0553 H   0  0  0  0  0  0  0  0  0  0  0  0
    1.0906   19.6981  -35.1878 H   0  0  0  0  0  0  0  0  0  0  0  0
   -0.6185   17.8789  -35.2006 H   0  0  0  0  0  0  0  0  0  0  0  0
   -5.5672   19.7856  -32.9357 H   0  0  0  0  0  0  0  0  0  0  0  0
   -4.8750   19.4965  -34.5941 H   0  0  0  0  0  0  0  0  0  0  0  0
   -7.2781   18.8706  -34.4399 H   0  0  0  0  0  0  0  0  0  0  0  0
   -6.1832   17.4712  -34.8305 H   0  0  0  0  0  0  0  0  0  0  0  0
  -10.3049   20.1419  -32.1483 H   0  0  0  0  0  0  0  0  0  0  0  0
   -8.0894   23.9559  -30.8985 H   0  0  0  0  0  0  0  0  0  0  0  0
   -6.5124   25.8263  -30.4000 H   0  0  0  0  0  0  0  0  0  0  0  0
  1  2  1  0
  2  3  2  0
  3  4  1  0
  4  5  2  0
  5  6  1  0
  6  7  2  0
  7  8  1  0
  8  9  1  0
  9 10  1  0
 10 11  1  0
 11 12  1  0
 12 13  1  0
 13 14  1  0
 14 15  1  0
 15 16  2  0
 16 17  1  0
 17 18  2  0
 18 19  1  0
 19 20  2  0
 13 21  1  0
 21 22  1  0
  8 23  2  0
 23 24  1  0
  5 25  1  0
 25 26  2  0
 26  2  1  0
 24  6  1  0
 22 10  1  0
 20 15  1  0
  3 27  1  0
  4 28  1  0
  9 29  1  0
  9 30  1  0
 10 31  1  0
 11 32  1  0
 11 33  1  0
 12 34  1  0
 12 35  1  0
 14 36  1  0
 14 37  1  0
 16 38  1  0
 17 39  1  0
 18 40  1  0
 19 41  1  0
 20 42  1  0
 21 43  1  0
 21 44  1  0
 22 45  1  0
 22 46  1  0
 23 47  1  0
 25 48  1  0
 26 49  1  0
M  CHG  2   1  -1  10   1
M  END
>  <UniqueID>  (26) 
25

>  <SMILES>  (26) 
[O-]c1ccc(-c2nc(C[NH+]3CCN(Cc4ccccc4)CC3)co2)cc1

>  <Energy>  (26) 
96.49426916935302

>  <Genealogy>  (26) 
[O-]c1ccc(-c2nc(C[NH+]3CCN(Cc4ccccc4)CC3)co2)cc1 (protonated)
[O-]c1ccc(-c2nc(C[NH+]3CCN(Cc4ccccc4)CC3)co2)cc1 (3D coordinates assigned)
[O-]c1ccc(-c2nc(C[NH+]3CCN(Cc4ccccc4)CC3)co2)cc1 (nonaromatic ring conformer: 96.49426916935302 kcal/mol)

>  <smiles>  (26) 
Oc1ccc(-c2nc(CN3CCN(Cc4ccccc4)CC3)co2)cc1

>  <score_type>  (26) 
oracle

>  <origin>  (26) 
adgpu

>  <m_score__min__energy>  (26) 
-10.58

>  <m_primary>  (26) 
energy

$$$$
26:0
     RDKit          3D

 44 46  0  0  0  0  0  0  0  0999 V2000
   -1.4710   19.3090  -26.7570 C   0  0  0  0  0  0  0  0  0  0  0  0
   -0.5610   19.8750  -27.8540 C   0  0  0  0  0  0  0  0  0  0  0  0
    0.2910   18.7700  -28.4890 C   0  0  0  0  0  0  0  0  0  0  0  0
   -1.3660   20.6160  -28.9050 C   0  0  0  0  0  0  0  0  0  0  0  0
   -0.7130   21.2350  -29.9840 C   0  0  0  0  0  0  0  0  0  0  0  0
   -1.4440   21.9140  -30.9620 C   0  0  0  0  0  0  0  0  0  0  0  0
   -2.8480   21.9780  -30.8820 C   0  0  0  0  0  0  0  0  0  0  0  0
   -3.6230   22.6380  -31.8490 O   0  0  0  0  0  0  0  0  0  0  0  0
   -5.0200   22.7510  -31.8040 C   0  0  0  0  0  0  0  0  0  0  0  0
   -5.7820   21.7120  -32.3520 C   0  0  0  0  0  0  0  0  0  0  0  0
   -7.1760   21.7430  -32.2820 C   0  0  0  0  0  0  0  0  0  0  0  0
   -7.8190   22.8200  -31.6710 C   0  0  0  0  0  0  0  0  0  0  0  0
   -7.0730   23.8780  -31.1480 C   0  0  0  0  0  0  0  0  0  0  0  0
   -5.6680   23.8710  -31.2250 C   0  0  0  0  0  0  0  0  0  0  0  0
   -4.9150   25.0490  -30.7370 C   0  0  0  0  0  0  0  0  0  0  0  0
   -5.5020   26.1540  -30.5820 O   0  0  0  0  0  0  0  0  0  0  0  0
   -3.5110   24.9320  -30.4730 N   0  0  0  0  0  0  0  0  0  0  0  0
   -2.8990   24.6370  -29.2090 C   0  0  0  0  0  0  0  0  0  0  0  0
   -1.5300   24.8470  -28.9680 C   0  0  0  0  0  0  0  0  0  0  0  0
   -0.9930   24.5620  -27.7100 C   0  0  0  0  0  0  0  0  0  0  0  0
   -1.8300   24.0820  -26.7000 C   0  0  0  0  0  0  0  0  0  0  0  0
   -3.1550   23.9060  -26.9420 N   0  0  0  0  0  0  0  0  0  0  0  0
   -3.7010   24.1770  -28.1590 C   0  0  0  0  0  0  0  0  0  0  0  0
   -3.4990   21.3780  -29.8000 C   0  0  0  0  0  0  0  0  0  0  0  0
   -2.7690   20.6990  -28.8210 C   0  0  0  0  0  0  0  0  0  0  0  0
   -1.0586   19.5655  -25.7700 H   0  0  0  0  0  0  0  0  0  0  0  0
   -2.4779   19.7404  -26.8571 H   0  0  0  0  0  0  0  0  0  0  0  0
   -1.5292   18.2151  -26.8571 H   0  0  0  0  0  0  0  0  0  0  0  0
    0.1218   20.5977  -27.3834 H   0  0  0  0  0  0  0  0  0  0  0  0
    0.7571   18.1655  -27.6969 H   0  0  0  0  0  0  0  0  0  0  0  0
   -0.3476   18.1274  -29.1128 H   0  0  0  0  0  0  0  0  0  0  0  0
    1.0749   19.2242  -29.1128 H   0  0  0  0  0  0  0  0  0  0  0  0
    0.3833   21.1846  -30.0594 H   0  0  0  0  0  0  0  0  0  0  0  0
   -0.9203   22.4006  -31.7980 H   0  0  0  0  0  0  0  0  0  0  0  0
   -5.2786   20.8651  -32.8413 H   0  0  0  0  0  0  0  0  0  0  0  0
   -7.7670   20.9189  -32.7082 H   0  0  0  0  0  0  0  0  0  0  0  0
   -8.9167   22.8356  -31.6011 H   0  0  0  0  0  0  0  0  0  0  0  0
   -7.5884   24.7249  -30.6713 H   0  0  0  0  0  0  0  0  0  0  0  0
   -0.8828   25.2350  -29.7684 H   0  0  0  0  0  0  0  0  0  0  0  0
    0.0791   24.7142  -27.5167 H   0  0  0  0  0  0  0  0  0  0  0  0
   -1.4161   23.8465  -25.7084 H   0  0  0  0  0  0  0  0  0  0  0  0
   -4.7799   24.0334  -28.3180 H   0  0  0  0  0  0  0  0  0  0  0  0
   -4.5942   21.4409  -29.7188 H   0  0  0  0  0  0  0  0  0  0  0  0
   -3.2944   20.2258  -27.9784 H   0  0  0  0  0  0  0  0  0  0  0  0
  1  2  1  0
  2  3  1  0
  2  4  1  0
  4  5  2  0
  5  6  1  0
  6  7  2  0
  7  8  1  0
  8  9  1  0
  9 10  2  0
 10 11  1  0
 11 12  2  0
 12 13  1  0
 13 14  2  0
 14 15  1  0
 15 16  2  0
 15 17  1  0
 17 18  1  0
 18 19  2  0
 19 20  1  0
 20 21  2  0
 21 22  1  0
 22 23  2  0
  7 24  1  0
 24 25  2  0
 25  4  1  0
 14  9  1  0
 23 18  1  0
  1 26  1  0
  1 27  1  0
  1 28  1  0
  2 29  1  0
  3 30  1  0
  3 31  1  0
  3 32  1  0
  5 33  1  0
  6 34  1  0
 10 35  1  0
 11 36  1  0
 12 37  1  0
 13 38  1  0
 19 39  1  0
 20 40  1  0
 21 41  1  0
 23 42  1  0
 24 43  1  0
 25 44  1  0
M  CHG  1  17  -1
M  END
>  <UniqueID>  (27) 
26

>  <SMILES>  (27) 
CC(C)c1ccc(Oc2ccccc2C(=O)[N-]c2cccnc2)cc1

>  <Energy>  (27) 
58.147359573306034

>  <Genealogy>  (27) 
CC(C)c1ccc(Oc2ccccc2C(=O)[N-]c2cccnc2)cc1 (protonated)
CC(C)c1ccc(Oc2ccccc2C(=O)[N-]c2cccnc2)cc1 (3D coordinates assigned)
CC(C)c1ccc(Oc2ccccc2C(=O)[N-]c2cccnc2)cc1 (optimized conformer: 58.147359573306034 kcal/mol)

>  <smiles>  (27) 
CC(C)c1ccc(Oc2ccccc2C(=O)Nc2cccnc2)cc1

>  <score_type>  (27) 
oracle

>  <origin>  (27) 
adgpu

>  <m_score__min__energy>  (27) 
-9.7599999999999998

>  <m_primary>  (27) 
energy

$$$$
27:0
     RDKit          3D

 48 49  0  0  0  0  0  0  0  0999 V2000
   -6.5520   16.9270  -32.9760 C   0  0  0  0  0  0  0  0  0  0  0  0
   -7.5970   17.8680  -33.2020 O   0  0  0  0  0  0  0  0  0  0  0  0
   -7.6020   19.1830  -32.7130 C   0  0  0  0  0  0  0  0  0  0  0  0
   -8.6390   19.6730  -31.8950 C   0  0  0  0  0  0  0  0  0  0  0  0
   -8.5990   20.9810  -31.4120 C   0  0  0  0  0  0  0  0  0  0  0  0
   -7.5340   21.8290  -31.7500 C   0  0  0  0  0  0  0  0  0  0  0  0
   -7.4630   23.2200  -31.1720 C   0  0  0  0  0  0  0  0  0  0  0  0
   -6.8050   23.2010  -29.7910 C   0  0  0  0  0  0  0  0  0  0  0  0
   -6.0120   24.4230  -29.6010 N   0  0  0  0  0  0  0  0  0  0  0  0
   -4.4300   24.2810  -30.3100 S   0  0  0  0  0  0  0  0  0  0  0  0
   -4.5270   23.4380  -31.5520 O   0  0  0  0  0  0  0  0  0  0  0  0
   -3.9020   25.6320  -30.7030 O   0  0  0  0  0  0  0  0  0  0  0  0
   -3.3410   23.4860  -29.1630 C   0  0  0  0  0  0  0  0  0  0  0  0
   -3.6120   22.1620  -28.7860 C   0  0  0  0  0  0  0  0  0  0  0  0
   -2.7850   21.4940  -27.8700 C   0  0  0  0  0  0  0  0  0  0  0  0
   -3.0610   20.0680  -27.4990 C   0  0  0  0  0  0  0  0  0  0  0  0
   -1.6670   22.1510  -27.3470 C   0  0  0  0  0  0  0  0  0  0  0  0
   -1.4000   23.4760  -27.6980 C   0  0  0  0  0  0  0  0  0  0  0  0
   -2.2340   24.1600  -28.6040 C   0  0  0  0  0  0  0  0  0  0  0  0
   -1.9910   25.4950  -28.9620 O   0  0  0  0  0  0  0  0  0  0  0  0
   -1.1630   26.3920  -28.2290 C   0  0  0  0  0  0  0  0  0  0  0  0
   -6.4970   21.3430  -32.5580 C   0  0  0  0  0  0  0  0  0  0  0  0
   -6.5260   20.0210  -33.0420 C   0  0  0  0  0  0  0  0  0  0  0  0
   -5.4970   19.4980  -33.8430 O   0  0  0  0  0  0  0  0  0  0  0  0
   -4.1180   19.4980  -33.4860 C   0  0  0  0  0  0  0  0  0  0  0  0
   -6.4053   16.7949  -31.8939 H   0  0  0  0  0  0  0  0  0  0  0  0
   -6.8228   15.9623  -33.4298 H   0  0  0  0  0  0  0  0  0  0  0  0
   -5.6208   17.2971  -33.4298 H   0  0  0  0  0  0  0  0  0  0  0  0
   -9.4854   19.0201  -31.6356 H   0  0  0  0  0  0  0  0  0  0  0  0
   -9.4069   21.3494  -30.7627 H   0  0  0  0  0  0  0  0  0  0  0  0
   -6.8727   23.8602  -31.8441 H   0  0  0  0  0  0  0  0  0  0  0  0
   -8.4856   23.6123  -31.0702 H   0  0  0  0  0  0  0  0  0  0  0  0
   -7.5838   23.1468  -29.0161 H   0  0  0  0  0  0  0  0  0  0  0  0
   -6.1451   22.3242  -29.7150 H   0  0  0  0  0  0  0  0  0  0  0  0
   -5.8840   24.5840  -28.5740 H   0  0  0  0  0  0  0  0  0  0  0  0
   -4.4822   21.6420  -29.2131 H   0  0  0  0  0  0  0  0  0  0  0  0
   -3.0797   19.9712  -26.4034 H   0  0  0  0  0  0  0  0  0  0  0  0
   -4.0347   19.7639  -27.9107 H   0  0  0  0  0  0  0  0  0  0  0  0
   -2.2711   19.4226  -27.9107 H   0  0  0  0  0  0  0  0  0  0  0  0
   -0.9946   21.6217  -26.6558 H   0  0  0  0  0  0  0  0  0  0  0  0
   -0.5304   23.9903  -27.2630 H   0  0  0  0  0  0  0  0  0  0  0  0
   -1.3119   26.2307  -27.1511 H   0  0  0  0  0  0  0  0  0  0  0  0
   -0.1088   26.2099  -28.4848 H   0  0  0  0  0  0  0  0  0  0  0  0
   -1.4287   27.4283  -28.4848 H   0  0  0  0  0  0  0  0  0  0  0  0
   -5.6533   21.9999  -32.8162 H   0  0  0  0  0  0  0  0  0  0  0  0
   -3.7630   18.4609  -33.3941 H   0  0  0  0  0  0  0  0  0  0  0  0
   -3.5379   20.0165  -34.2636 H   0  0  0  0  0  0  0  0  0  0  0  0
   -3.9881   20.0165  -32.5246 H   0  0  0  0  0  0  0  0  0  0  0  0
  1  2  1  0
  2  3  1  0
  3  4  2  0
  4  5  1  0
  5  6  2  0
  6  7  1  0
  7  8  1  0
  8  9  1  0
  9 10  1  0
 10 11  2  0
 10 12  2  0
 10 13  1  0
 13 14  2  0
 14 15  1  0
 15 16  1  0
 15 17  2  0
 17 18  1  0
 18 19  2  0
 19 20  1  0
 20 21  1  0
  6 22  1  0
 22 23  2  0
 23 24  1  0
 24 25  1  0
 23  3  1  0
 19 13  1  0
  1 26  1  0
  1 27  1  0
  1 28  1  0
  4 29  1  0
  5 30  1  0
  7 31  1  0
  7 32  1  0
  8 33  1  0
  8 34  1  0
  9 35  1  0
 14 36  1  0
 16 37  1  0
 16 38  1  0
 16 39  1  0
 17 40  1  0
 18 41  1  0
 21 42  1  0
 21 43  1  0
 21 44  1  0
 22 45  1  0
 25 46  1  0
 25 47  1  0
 25 48  1  0
M  END
>  <UniqueID>  (28) 
27

>  <SMILES>  (28) 
COc1ccc(CCNS(=O)(=O)c2cc(C)ccc2OC)cc1OC

>  <Energy>  (28) 
35.38077854551527

>  <Genealogy>  (28) 
COc1ccc(CCNS(=O)(=O)c2cc(C)ccc2OC)cc1OC (3D coordinates assigned)
COc1ccc(CCNS(=O)(=O)c2cc(C)ccc2OC)cc1OC (optimized conformer: 35.38077854551527 kcal/mol)

>  <smiles>  (28) 
COc1ccc(CCNS(=O)(=O)c2cc(C)ccc2OC)cc1OC

>  <score_type>  (28) 
oracle

>  <origin>  (28) 
adgpu

>  <m_score__min__energy>  (28) 
-8.9499999999999993

>  <m_primary>  (28) 
energy

$$$$
28:0
     RDKit          3D

 24 25  0  0  0  0  0  0  0  0999 V2000
   -6.4820   25.2890  -29.7250 C   0  0  0  0  0  0  0  0  0  0  0  0
   -5.3460   24.7470  -31.0380 S   0  0  0  0  0  0  0  0  0  0  0  0
   -6.4010   23.3960  -31.5480 C   0  0  0  0  0  0  0  0  0  0  0  0
   -5.9650   22.1790  -31.9280 N   0  0  0  0  0  0  0  0  0  0  0  0
   -7.0040   21.3470  -32.2620 C   0  0  0  0  0  0  0  0  0  0  0  0
   -6.7680   19.9560  -32.7140 C   0  0  0  0  0  0  0  0  0  0  0  0
   -5.9400   19.6950  -33.8200 C   0  0  0  0  0  0  0  0  0  0  0  0
   -5.7180   18.3820  -34.2460 C   0  0  0  0  0  0  0  0  0  0  0  0
   -6.3330   17.3050  -33.5890 C   0  0  0  0  0  0  0  0  0  0  0  0
   -6.0530   15.8860  -34.0180 C   0  0  0  0  0  0  0  0  0  0  0  0
   -7.1900   15.3500  -34.5920 F   0  0  0  0  0  0  0  0  0  0  0  0
   -5.6880   15.1100  -32.9310 F   0  0  0  0  0  0  0  0  0  0  0  0
   -5.0210   15.8490  -34.9400 F   0  0  0  0  0  0  0  0  0  0  0  0
   -7.1380   17.5630  -32.4670 C   0  0  0  0  0  0  0  0  0  0  0  0
   -7.3610   18.8750  -32.0400 C   0  0  0  0  0  0  0  0  0  0  0  0
   -8.2630   21.8620  -32.1610 N   0  0  0  0  0  0  0  0  0  0  0  0
   -8.0570   23.4230  -31.6290 S   0  0  0  0  0  0  0  0  0  0  0  0
   -6.0353   25.0759  -28.7426 H   0  0  0  0  0  0  0  0  0  0  0  0
   -6.6621   26.3701  -29.8191 H   0  0  0  0  0  0  0  0  0  0  0  0
   -7.4356   24.7488  -29.8191 H   0  0  0  0  0  0  0  0  0  0  0  0
   -5.4633   20.5301  -34.3541 H   0  0  0  0  0  0  0  0  0  0  0  0
   -5.0557   18.1915  -35.1034 H   0  0  0  0  0  0  0  0  0  0  0  0
   -7.5964   16.7258  -31.9202 H   0  0  0  0  0  0  0  0  0  0  0  0
   -8.0061   19.0629  -31.1691 H   0  0  0  0  0  0  0  0  0  0  0  0
  1  2  1  0
  2  3  1  0
  3  4  2  0
  4  5  1  0
  5  6  1  0
  6  7  2  0
  7  8  1  0
  8  9  2  0
  9 10  1  0
 10 11  1  0
 10 12  1  0
 10 13  1  0
  9 14  1  0
 14 15  2  0
  5 16  2  0
 16 17  1  0
 17  3  1  0
 15  6  1  0
  1 18  1  0
  1 19  1  0
  1 20  1  0
  7 21  1  0
  8 22  1  0
 14 23  1  0
 15 24  1  0
M  END
>  <UniqueID>  (29) 
28

>  <SMILES>  (29) 
CSc1nc(-c2ccc(C(F)(F)F)cc2)ns1

>  <Energy>  (29) 
58.89341482012478

>  <Genealogy>  (29) 
CSc1nc(-c2ccc(C(F)(F)F)cc2)ns1 (3D coordinates assigned)
CSc1nc(-c2ccc(C(F)(F)F)cc2)ns1 (optimized conformer: 58.89341482012478 kcal/mol)

>  <smiles>  (29) 
CSc1nc(-c2ccc(C(F)(F)F)cc2)ns1

>  <score_type>  (29) 
oracle

>  <origin>  (29) 
adgpu

>  <m_score__min__energy>  (29) 
-6.1399999999999997

>  <m_primary>  (29) 
energy

$$$$
29:0
     RDKit          3D

 39 41  0  0  0  0  0  0  0  0999 V2000
   -5.6900   24.2570  -32.1600 O   0  0  0  0  0  0  0  0  0  0  0  0
   -5.2410   23.1220  -31.8440 C   0  0  0  0  0  0  0  0  0  0  0  0
   -5.7060   21.9390  -32.5100 N   0  0  0  0  0  0  0  0  0  0  0  0
   -6.9670   21.2750  -32.3270 C   0  0  0  0  0  0  0  0  0  0  0  0
   -8.1140   21.9650  -31.8900 C   0  0  0  0  0  0  0  0  0  0  0  0
   -9.3200   21.2850  -31.7070 C   0  0  0  0  0  0  0  0  0  0  0  0
   -9.4000   19.9170  -31.9690 C   0  0  0  0  0  0  0  0  0  0  0  0
   -8.2790   19.2270  -32.4320 C   0  0  0  0  0  0  0  0  0  0  0  0
   -7.0630   19.9020  -32.6270 C   0  0  0  0  0  0  0  0  0  0  0  0
   -5.9210   19.1900  -33.1310 N   0  0  0  0  0  0  0  0  0  0  0  0
   -6.1270   18.1260  -34.1150 C   0  0  0  0  0  0  0  0  0  0  0  0
   -4.8380   17.8960  -34.9100 C   0  0  0  0  0  0  0  0  0  0  0  0
   -3.7350   17.7100  -34.0450 O   0  0  0  0  0  0  0  0  0  0  0  0
   -3.4980   18.8950  -33.3090 C   0  0  0  0  0  0  0  0  0  0  0  0
   -4.6710   19.1940  -32.3700 C   0  0  0  0  0  0  0  0  0  0  0  0
   -4.2240   23.0140  -30.7810 C   0  0  0  0  0  0  0  0  0  0  0  0
   -3.8480   21.7350  -30.3350 C   0  0  0  0  0  0  0  0  0  0  0  0
   -2.9420   21.5880  -29.2820 C   0  0  0  0  0  0  0  0  0  0  0  0
   -2.3990   22.7150  -28.6640 C   0  0  0  0  0  0  0  0  0  0  0  0
   -2.7470   23.9920  -29.1100 C   0  0  0  0  0  0  0  0  0  0  0  0
   -3.6380   24.1550  -30.1780 C   0  0  0  0  0  0  0  0  0  0  0  0
   -3.8860   25.4520  -30.6330 O   0  0  0  0  0  0  0  0  0  0  0  0
   -8.0598   23.0456  -31.6917 H   0  0  0  0  0  0  0  0  0  0  0  0
  -10.2089   21.8293  -31.3555 H   0  0  0  0  0  0  0  0  0  0  0  0
  -10.3478   19.3818  -31.8104 H   0  0  0  0  0  0  0  0  0  0  0  0
   -8.3480   18.1500  -32.6451 H   0  0  0  0  0  0  0  0  0  0  0  0
   -6.4059   17.1974  -33.5954 H   0  0  0  0  0  0  0  0  0  0  0  0
   -6.9310   18.4211  -34.8053 H   0  0  0  0  0  0  0  0  0  0  0  0
   -4.9576   17.0008  -35.5379 H   0  0  0  0  0  0  0  0  0  0  0  0
   -4.6484   18.7820  -35.5338 H   0  0  0  0  0  0  0  0  0  0  0  0
   -2.5811   18.7728  -32.7136 H   0  0  0  0  0  0  0  0  0  0  0  0
   -3.3872   19.7324  -34.0137 H   0  0  0  0  0  0  0  0  0  0  0  0
   -4.7174   18.4245  -31.5853 H   0  0  0  0  0  0  0  0  0  0  0  0
   -4.5271   20.1819  -31.9081 H   0  0  0  0  0  0  0  0  0  0  0  0
   -4.2708   20.8424  -30.8193 H   0  0  0  0  0  0  0  0  0  0  0  0
   -2.6563   20.5825  -28.9396 H   0  0  0  0  0  0  0  0  0  0  0  0
   -1.6968   22.5977  -27.8255 H   0  0  0  0  0  0  0  0  0  0  0  0
   -2.3175   24.8772  -28.6182 H   0  0  0  0  0  0  0  0  0  0  0  0
   -4.1740   25.6610  -31.5780 H   0  0  0  0  0  0  0  0  0  0  0  0
  1  2  2  0
  2  3  1  0
  3  4  1  0
  4  5  2  0
  5  6  1  0
  6  7  2  0
  7  8  1  0
  8  9  2  0
  9 10  1  0
 10 11  1  0
 11 12  1  0
 12 13  1  0
 13 14  1  0
 14 15  1  0
  2 16  1  0
 16 17  2  0
 17 18  1  0
 18 19  2  0
 19 20  1  0
 20 21  2  0
 21 22  1  0
  9  4  1  0
 15 10  1  0
 21 16  1  0
  5 23  1  0
  6 24  1  0
  7 25  1  0
  8 26  1  0
 11 27  1  0
 11 28  1  0
 12 29  1  0
 12 30  1  0
 14 31  1  0
 14 32  1  0
 15 33  1  0
 15 34  1  0
 17 35  1  0
 18 36  1  0
 19 37  1  0
 20 38  1  0
 22 39  1  0
M  CHG  1   3  -1
M  END
>  <UniqueID>  (30) 
29

>  <SMILES>  (30) 
O=C([N-]c1ccccc1N1CCOCC1)c1ccccc1O

>  <Energy>  (30) 
55.14943237221084

>  <Genealogy>  (30) 
O=C([N-]c1ccccc1N1CCOCC1)c1ccccc1O (protonated)
O=C([N-]c1ccccc1N1CCOCC1)c1ccccc1O (3D coordinates assigned)
O=C([N-]c1ccccc1N1CCOCC1)c1ccccc1O (nonaromatic ring conformer: 55.14943237221084 kcal/mol)

>  <smiles>  (30) 
O=C(Nc1ccccc1N1CCOCC1)c1ccccc1O

>  <score_type>  (30) 
oracle

>  <origin>  (30) 
adgpu

>  <m_score__min__energy>  (30) 
-9.2100000000000009

>  <m_primary>  (30) 
energy

$$$$
30:0
     RDKit          3D

 51 54  0  0  0  0  0  0  0  0999 V2000
   -6.8190   15.2260  -34.2590 C   0  0  0  0  0  0  0  0  0  0  0  0
   -5.8880   16.3710  -33.9930 C   0  0  0  0  0  0  0  0  0  0  0  0
   -5.0710   16.3600  -32.8500 C   0  0  0  0  0  0  0  0  0  0  0  0
   -4.1650   17.3990  -32.6230 C   0  0  0  0  0  0  0  0  0  0  0  0
   -4.0570   18.4540  -33.5450 C   0  0  0  0  0  0  0  0  0  0  0  0
   -2.8690   19.7240  -33.2750 S   0  0  0  0  0  0  0  0  0  0  0  0
   -2.2480   20.1040  -34.5900 O   0  0  0  0  0  0  0  0  0  0  0  0
   -1.7770   19.2440  -32.3610 O   0  0  0  0  0  0  0  0  0  0  0  0
   -3.6750   21.1050  -32.5210 C   0  0  0  0  0  0  0  0  0  0  0  0
   -5.0260   21.4070  -32.6970 C   0  0  0  0  0  0  0  0  0  0  0  0
   -5.9820   20.6090  -33.4030 N   0  0  0  0  0  0  0  0  0  0  0  0
   -7.0770   19.9320  -32.7540 C   0  0  0  0  0  0  0  0  0  0  0  0
   -8.4170   20.2650  -33.0340 C   0  0  0  0  0  0  0  0  0  0  0  0
   -9.4630   19.5690  -32.4130 C   0  0  0  0  0  0  0  0  0  0  0  0
   -9.1820   18.5310  -31.5200 C   0  0  0  0  0  0  0  0  0  0  0  0
   -7.8520   18.1810  -31.2520 C   0  0  0  0  0  0  0  0  0  0  0  0
   -6.8040   18.8770  -31.8660 C   0  0  0  0  0  0  0  0  0  0  0  0
   -5.4070   22.7860  -31.8150 S   0  0  0  0  0  0  0  0  0  0  0  0
   -3.8540   23.0580  -31.2190 C   0  0  0  0  0  0  0  0  0  0  0  0
   -3.5020   24.1190  -30.2500 C   0  0  0  0  0  0  0  0  0  0  0  0
   -3.8570   25.3060  -30.4830 O   0  0  0  0  0  0  0  0  0  0  0  0
   -2.7010   23.8350  -29.0340 C   0  0  0  0  0  0  0  0  0  0  0  0
   -1.7440   24.7530  -28.5620 C   0  0  0  0  0  0  0  0  0  0  0  0
   -0.9990   24.4700  -27.4130 C   0  0  0  0  0  0  0  0  0  0  0  0
   -1.1860   23.2650  -26.7340 C   0  0  0  0  0  0  0  0  0  0  0  0
   -0.1670   22.8830  -25.1660 Br  0  0  0  0  0  0  0  0  0  0  0  0
   -2.1130   22.3340  -27.2130 C   0  0  0  0  0  0  0  0  0  0  0  0
   -2.8640   22.6140  -28.3570 C   0  0  0  0  0  0  0  0  0  0  0  0
   -3.0160   22.0390  -31.6930 C   0  0  0  0  0  0  0  0  0  0  0  0
   -1.6150   21.9780  -31.4040 N   0  0  0  0  0  0  0  0  0  0  0  0
   -4.8660   18.4630  -34.6870 C   0  0  0  0  0  0  0  0  0  0  0  0
   -5.7700   17.4200  -34.9140 C   0  0  0  0  0  0  0  0  0  0  0  0
   -7.1627   14.8033  -33.3034 H   0  0  0  0  0  0  0  0  0  0  0  0
   -7.6855   15.5840  -34.8344 H   0  0  0  0  0  0  0  0  0  0  0  0
   -6.2918   14.4508  -34.8344 H   0  0  0  0  0  0  0  0  0  0  0  0
   -5.1450   15.5305  -32.1314 H   0  0  0  0  0  0  0  0  0  0  0  0
   -3.5352   17.3912  -31.7212 H   0  0  0  0  0  0  0  0  0  0  0  0
   -5.8530   20.4870  -34.4320 H   0  0  0  0  0  0  0  0  0  0  0  0
   -8.6433   21.0749  -33.7432 H   0  0  0  0  0  0  0  0  0  0  0  0
  -10.5070   19.8401  -32.6287 H   0  0  0  0  0  0  0  0  0  0  0  0
  -10.0038   17.9897  -31.0284 H   0  0  0  0  0  0  0  0  0  0  0  0
   -7.6308   17.3572  -30.5574 H   0  0  0  0  0  0  0  0  0  0  0  0
   -5.7619   18.5970  -31.6526 H   0  0  0  0  0  0  0  0  0  0  0  0
   -1.5813   25.6985  -29.1001 H   0  0  0  0  0  0  0  0  0  0  0  0
   -0.2633   25.1993  -27.0431 H   0  0  0  0  0  0  0  0  0  0  0  0
   -2.2513   21.3778  -26.6871 H   0  0  0  0  0  0  0  0  0  0  0  0
   -3.5875   21.8743  -28.7304 H   0  0  0  0  0  0  0  0  0  0  0  0
   -1.0390   21.1630  -31.7090 H   0  0  0  0  0  0  0  0  0  0  0  0
   -1.1480   22.6950  -30.8050 H   0  0  0  0  0  0  0  0  0  0  0  0
   -4.7909   19.2913  -35.4069 H   0  0  0  0  0  0  0  0  0  0  0  0
   -6.3920   17.4235  -35.8212 H   0  0  0  0  0  0  0  0  0  0  0  0
  1  2  1  0
  2  3  2  0
  3  4  1  0
  4  5  2  0
  5  6  1  0
  6  7  2  0
  6  8  2  0
  6  9  1  0
  9 10  2  0
 10 11  1  0
 11 12  1  0
 12 13  2  0
 13 14  1  0
 14 15  2  0
 15 16  1  0
 16 17  2  0
 10 18  1  0
 18 19  1  0
 19 20  1  0
 20 21  2  0
 20 22  1  0
 22 23  2  0
 23 24  1  0
 24 25  2  0
 25 26  1  0
 25 27  1  0
 27 28  2  0
 19 29  2  0
 29 30  1  0
  5 31  1  0
 31 32  2  0
 32  2  1  0
 29  9  1  0
 17 12  1  0
 28 22  1  0
  1 33  1  0
  1 34  1  0
  1 35  1  0
  3 36  1  0
  4 37  1  0
 11 38  1  0
 13 39  1  0
 14 40  1  0
 15 41  1  0
 16 42  1  0
 17 43  1  0
 23 44  1  0
 24 45  1  0
 27 46  1  0
 28 47  1  0
 30 48  1  0
 30 49  1  0
 31 50  1  0
 32 51  1  0
M  END
>  <UniqueID>  (31) 
30

>  <SMILES>  (31) 
Cc1ccc(S(=O)(=O)c2c(Nc3ccccc3)sc(C(=O)c3ccc(Br)cc3)c2N)cc1

>  <Energy>  (31) 
95.7147533233279

>  <Genealogy>  (31) 
Cc1ccc(S(=O)(=O)c2c(Nc3ccccc3)sc(C(=O)c3ccc(Br)cc3)c2N)cc1 (3D coordinates assigned)
Cc1ccc(S(=O)(=O)c2c(Nc3ccccc3)sc(C(=O)c3ccc(Br)cc3)c2N)cc1 (optimized conformer: 95.7147533233279 kcal/mol)

>  <smiles>  (31) 
Cc1ccc(S(=O)(=O)c2c(Nc3ccccc3)sc(C(=O)c3ccc(Br)cc3)c2N)cc1

>  <score_type>  (31) 
oracle

>  <origin>  (31) 
adgpu

>  <m_score__min__energy>  (31) 
-10.43

>  <m_primary>  (31) 
energy

$$$$
31:0
     RDKit          3D

 40 43  0  0  0  0  0  0  0  0999 V2000
   -4.8270   25.4100  -31.2180 O   0  0  0  0  0  0  0  0  0  0  0  0
   -4.7060   24.2570  -30.7200 C   0  0  0  0  0  0  0  0  0  0  0  0
   -3.8150   24.0710  -29.5520 C   0  0  0  0  0  0  0  0  0  0  0  0
   -4.3220   24.2110  -28.2520 C   0  0  0  0  0  0  0  0  0  0  0  0
   -3.4860   24.0480  -27.1430 C   0  0  0  0  0  0  0  0  0  0  0  0
   -2.1210   23.7530  -27.3120 C   0  0  0  0  0  0  0  0  0  0  0  0
   -1.2310   23.5770  -26.1340 C   0  0  0  0  0  0  0  0  0  0  0  0
   -0.5820   22.4220  -25.7240 C   0  0  0  0  0  0  0  0  0  0  0  0
    0.1300   22.6800  -24.6110 N   0  0  0  0  0  0  0  0  0  0  0  0
   -0.0470   23.9540  -24.3020 N   0  0  0  0  0  0  0  0  0  0  0  0
   -0.8630   24.5310  -25.2010 C   0  0  0  0  0  0  0  0  0  0  0  0
   -1.6130   23.6330  -28.6190 C   0  0  0  0  0  0  0  0  0  0  0  0
   -2.4510   23.7960  -29.7260 C   0  0  0  0  0  0  0  0  0  0  0  0
   -5.4330   23.1570  -31.3030 N   0  0  0  0  0  0  0  0  0  0  0  0
   -4.7630   22.2280  -32.2260 C   0  0  0  0  0  0  0  0  0  0  0  0
   -5.1990   20.7930  -31.9440 C   0  0  0  0  0  0  0  0  0  0  0  0
   -6.6950   20.6940  -32.0120 C   0  0  0  0  0  0  0  0  0  0  0  0
   -7.3070   19.5220  -32.4850 C   0  0  0  0  0  0  0  0  0  0  0  0
   -8.6990   19.4230  -32.5260 C   0  0  0  0  0  0  0  0  0  0  0  0
   -9.4900   20.4860  -32.0810 C   0  0  0  0  0  0  0  0  0  0  0  0
   -8.8890   21.6500  -31.5940 C   0  0  0  0  0  0  0  0  0  0  0  0
   -7.4900   21.7660  -31.5580 C   0  0  0  0  0  0  0  0  0  0  0  0
   -6.8630   23.0100  -30.9730 C   0  0  0  0  0  0  0  0  0  0  0  0
   -5.3852   24.4508  -28.1036 H   0  0  0  0  0  0  0  0  0  0  0  0
   -3.8996   24.1514  -26.1290 H   0  0  0  0  0  0  0  0  0  0  0  0
   -0.6400   21.4468  -26.2296 H   0  0  0  0  0  0  0  0  0  0  0  0
    0.3890   24.4250  -23.4800 H   0  0  0  0  0  0  0  0  0  0  0  0
   -1.1839   25.5831  -25.1961 H   0  0  0  0  0  0  0  0  0  0  0  0
   -0.5468   23.4089  -28.7709 H   0  0  0  0  0  0  0  0  0  0  0  0
   -2.0372   23.7079  -30.7414 H   0  0  0  0  0  0  0  0  0  0  0  0
   -5.0279   22.4908  -33.2608 H   0  0  0  0  0  0  0  0  0  0  0  0
   -3.6750   22.3054  -32.0837 H   0  0  0  0  0  0  0  0  0  0  0  0
   -4.7541   20.1221  -32.6936 H   0  0  0  0  0  0  0  0  0  0  0  0
   -4.8608   20.5014  -30.9387 H   0  0  0  0  0  0  0  0  0  0  0  0
   -6.6874   18.6789  -32.8244 H   0  0  0  0  0  0  0  0  0  0  0  0
   -9.1737   18.5075  -32.9089 H   0  0  0  0  0  0  0  0  0  0  0  0
  -10.5866   20.4063  -32.1141 H   0  0  0  0  0  0  0  0  0  0  0  0
   -9.5157   22.4804  -31.2367 H   0  0  0  0  0  0  0  0  0  0  0  0
   -7.4020   23.8871  -31.3604 H   0  0  0  0  0  0  0  0  0  0  0  0
   -6.9363   22.9262  -29.8786 H   0  0  0  0  0  0  0  0  0  0  0  0
  1  2  2  0
  2  3  1  0
  3  4  2  0
  4  5  1  0
  5  6  2  0
  6  7  1  0
  7  8  1  0
  8  9  2  0
  9 10  1  0
 10 11  1  0
  6 12  1  0
 12 13  2  0
  2 14  1  0
 14 15  1  0
 15 16  1  0
 16 17  1  0
 17 18  2  0
 18 19  1  0
 19 20  2  0
 20 21  1  0
 21 22  2  0
 22 23  1  0
 13  3  1  0
 23 14  1  0
 11  7  2  0
 22 17  1  0
  4 24  1  0
  5 25  1  0
  8 26  1  0
 10 27  1  0
 11 28  1  0
 12 29  1  0
 13 30  1  0
 15 31  1  0
 15 32  1  0
 16 33  1  0
 16 34  1  0
 18 35  1  0
 19 36  1  0
 20 37  1  0
 21 38  1  0
 23 39  1  0
 23 40  1  0
M  END
>  <UniqueID>  (32) 
31

>  <SMILES>  (32) 
O=C(c1ccc(-c2cn[nH]c2)cc1)N1CCc2ccccc2C1

>  <Energy>  (32) 
82.86459050138099

>  <Genealogy>  (32) 
O=C(c1ccc(-c2cn[nH]c2)cc1)N1CCc2ccccc2C1 (3D coordinates assigned)
O=C(c1ccc(-c2cn[nH]c2)cc1)N1CCc2ccccc2C1 (nonaromatic ring conformer: 82.86459050138099 kcal/mol)

>  <smiles>  (32) 
O=C(c1ccc(-c2cn[nH]c2)cc1)N1CCc2ccccc2C1

>  <score_type>  (32) 
oracle

>  <origin>  (32) 
adgpu

>  <m_score__min__energy>  (32) 
-9.1099999999999994

>  <m_primary>  (32) 
energy

$$$$
32:0
     RDKit          3D

 57 60  0  0  0  0  0  0  0  0999 V2000
   -2.2103   15.2876  -34.0941 H   0  0  0  0  0  0  0  0  0  0  0  0
   -3.2280   15.6930  -34.1940 C   0  0  0  0  0  0  0  0  0  0  0  0
   -3.5280   16.9760  -34.4770 N   0  0  0  0  0  0  0  0  0  0  0  0
   -4.8760   17.0020  -34.5030 C   0  0  0  0  0  0  0  0  0  0  0  0
   -5.8060   18.5100  -34.7850 S   0  0  0  0  0  0  0  0  0  0  0  0
   -4.9520   19.4340  -33.5010 C   0  0  0  0  0  0  0  0  0  0  0  0
   -3.8160   20.1790  -33.8430 C   0  0  0  0  0  0  0  0  0  0  0  0
   -3.4924   20.2328  -34.8930 H   0  0  0  0  0  0  0  0  0  0  0  0
   -3.0920   20.8540  -32.8570 C   0  0  0  0  0  0  0  0  0  0  0  0
   -2.1985   21.4331  -33.1331 H   0  0  0  0  0  0  0  0  0  0  0  0
   -3.5000   20.7960  -31.5170 C   0  0  0  0  0  0  0  0  0  0  0  0
   -2.6970   21.3850  -30.4860 N   0  0  0  0  0  0  0  0  0  0  0  0
   -2.6780   22.6240  -30.0620 C   0  0  0  0  0  0  0  0  0  0  0  0
   -3.6860   23.5800  -30.3890 C   0  0  0  0  0  0  0  0  0  0  0  0
   -5.0370   23.2120  -30.8760 C   0  0  0  0  0  0  0  0  0  0  0  0
   -5.2550   23.0110  -32.2460 C   0  0  0  0  0  0  0  0  0  0  0  0
   -4.4378   23.1861  -32.9612 H   0  0  0  0  0  0  0  0  0  0  0  0
   -6.5030   22.5900  -32.7080 C   0  0  0  0  0  0  0  0  0  0  0  0
   -6.6678   22.4526  -33.7869 H   0  0  0  0  0  0  0  0  0  0  0  0
   -7.5520   22.3400  -31.8040 C   0  0  0  0  0  0  0  0  0  0  0  0
   -8.8050   21.8760  -32.2370 O   0  0  0  0  0  0  0  0  0  0  0  0
   -9.1640   20.5030  -32.3490 C   0  0  0  0  0  0  0  0  0  0  0  0
   -9.2771   20.0704  -31.3440 H   0  0  0  0  0  0  0  0  0  0  0  0
  -10.1151   20.4160  -32.8948 H   0  0  0  0  0  0  0  0  0  0  0  0
   -8.3772   19.9616  -32.8948 H   0  0  0  0  0  0  0  0  0  0  0  0
   -7.3380   22.5470  -30.4270 C   0  0  0  0  0  0  0  0  0  0  0  0
   -8.3850   22.3020  -29.4810 N   0  0  0  0  0  0  0  0  0  0  0  0
   -8.2700   22.5370  -28.4700 H   0  0  0  0  0  0  0  0  0  0  0  0
   -9.2940   21.8920  -29.7880 H   0  0  0  0  0  0  0  0  0  0  0  0
   -6.0810   22.9720  -29.9710 C   0  0  0  0  0  0  0  0  0  0  0  0
   -5.9129   23.1183  -28.8938 H   0  0  0  0  0  0  0  0  0  0  0  0
   -3.4780   24.9210  -30.0390 C   0  0  0  0  0  0  0  0  0  0  0  0
   -4.2124   25.6824  -30.3405 H   0  0  0  0  0  0  0  0  0  0  0  0
   -2.3830   25.2890  -29.3340 N   0  0  0  0  0  0  0  0  0  0  0  0
   -1.4510   24.3900  -28.9330 C   0  0  0  0  0  0  0  0  0  0  0  0
   -0.5890   24.7259  -28.3379 H   0  0  0  0  0  0  0  0  0  0  0  0
   -1.5780   23.0320  -29.2720 C   0  0  0  0  0  0  0  0  0  0  0  0
   -0.5870   22.0650  -28.8520 N   0  0  0  0  0  0  0  0  0  0  0  0
    0.1650   21.7870  -29.5220 H   0  0  0  0  0  0  0  0  0  0  0  0
   -0.5490   21.4260  -27.5350 C   0  0  0  0  0  0  0  0  0  0  0  0
   -0.4290   22.1993  -26.7619 H   0  0  0  0  0  0  0  0  0  0  0  0
    0.2971   20.7236  -27.5074 H   0  0  0  0  0  0  0  0  0  0  0  0
   -1.8370   20.6520  -27.2730 C   0  0  0  0  0  0  0  0  0  0  0  0
   -1.9939   20.5577  -26.1883 H   0  0  0  0  0  0  0  0  0  0  0  0
   -2.6856   21.1899  -27.7209 H   0  0  0  0  0  0  0  0  0  0  0  0
   -1.7603   19.6502  -27.7209 H   0  0  0  0  0  0  0  0  0  0  0  0
   -4.6130   20.0240  -31.1690 C   0  0  0  0  0  0  0  0  0  0  0  0
   -4.9111   19.9417  -30.1134 H   0  0  0  0  0  0  0  0  0  0  0  0
   -5.3510   19.3550  -32.1530 C   0  0  0  0  0  0  0  0  0  0  0  0
   -6.7130   18.3610  -31.6540 Cl  0  0  0  0  0  0  0  0  0  0  0  0
   -5.4250   15.8000  -34.2340 N   0  0  0  0  0  0  0  0  0  0  0  0
   -6.8370   15.4400  -34.2260 C   0  0  0  0  0  0  0  0  0  0  0  0
   -7.1868   15.3508  -33.1869 H   0  0  0  0  0  0  0  0  0  0  0  0
   -7.4169   16.2190  -34.7425 H   0  0  0  0  0  0  0  0  0  0  0  0
   -6.9732   14.4784  -34.7425 H   0  0  0  0  0  0  0  0  0  0  0  0
   -4.3880   14.9670  -34.0490 C   0  0  0  0  0  0  0  0  0  0  0  0
   -4.4542   13.8928  -33.8215 H   0  0  0  0  0  0  0  0  0  0  0  0
  1  2  1  0
  2  3  1  0
  3  4  2  0
  4  5  1  0
  5  6  1  0
  6  7  2  0
  7  8  1  0
  7  9  1  0
  9 10  1  0
  9 11  2  0
 11 12  1  0
 12 13  2  0
 13 14  1  0
 14 15  1  0
 15 16  2  0
 16 17  1  0
 16 18  1  0
 18 19  1  0
 18 20  2  0
 20 21  1  0
 21 22  1  0
 22 23  1  0
 22 24  1  0
 22 25  1  0
 20 26  1  0
 26 27  1  0
 27 28  1  0
 27 29  1  0
 26 30  2  0
 30 31  1  0
 14 32  2  0
 32 33  1  0
 32 34  1  0
 34 35  1  0
 35 36  1  0
 35 37  2  0
 37 38  1  0
 38 39  1  0
 38 40  1  0
 40 41  1  0
 40 42  1  0
 40 43  1  0
 43 44  1  0
 43 45  1  0
 43 46  1  0
 11 47  1  0
 47 48  1  0
 47 49  2  0
 49 50  1  0
  4 51  1  0
 51 52  1  0
 52 53  1  0
 52 54  1  0
 52 55  1  0
 51 56  1  0
 56 57  1  0
 56  2  2  0
 49  6  1  0
 37 13  1  0
 30 15  1  0
M  CHG  1  34  -1
M  END
>  <UniqueID>  (33) 
32

>  <SMILES>  (33) 
CCNc1c[n-]cc(-c2ccc(OC)c(N)c2)/c1=N\c1ccc(Sc2nccn2C)c(Cl)c1

>  <Energy>  (33) 
102.26393171203945

>  <Genealogy>  (33) 
CCNc1c[n-]cc(-c2ccc(OC)c(N)c2)c1=Nc1ccc(Sc2nccn2C)c(Cl)c1 (protonated)
CCNc1c[n-]cc(-c2ccc(OC)c(N)c2)/c1=N\c1ccc(Sc2nccn2C)c(Cl)c1 (cis-trans isomerization)
CCNc1c[n-]cc(-c2ccc(OC)c(N)c2)/c1=N\c1ccc(Sc2nccn2C)c(Cl)c1 (3D coordinates assigned)
CCNc1c[n-]cc(-c2ccc(OC)c(N)c2)/c1=N\c1ccc(Sc2nccn2C)c(Cl)c1 (optimized conformer: 102.26393171203945 kcal/mol)

>  <smiles>  (33) 
CCNc1c[nH]cc(-c2ccc(OC)c(N)c2)c1=Nc1ccc(Sc2nccn2C)c(Cl)c1

>  <score_type>  (33) 
oracle

>  <origin>  (33) 
adgpu

>  <m_score__min__energy>  (33) 
-9.1899999999999995

>  <m_primary>  (33) 
energy

$$$$
33:0
     RDKit          3D

 55 58  0  0  0  0  0  0  0  0999 V2000
   -3.0523   21.9854  -33.0974 H   0  0  0  0  0  0  0  0  0  0  0  0
   -3.6180   21.0450  -33.1730 C   0  0  0  0  0  0  0  0  0  0  0  0
   -3.0820   19.9110  -33.6960 N   0  0  0  0  0  0  0  0  0  0  0  0
   -3.9640   18.8870  -33.6810 C   0  0  0  0  0  0  0  0  0  0  0  0
   -3.7150   17.6950  -34.1310 N   0  0  0  0  0  0  0  0  0  0  0  0
   -2.4760   17.2430  -34.6940 C   0  0  0  0  0  0  0  0  0  0  0  0
   -2.5050   16.5010  -35.7120 O   0  0  0  0  0  0  0  0  0  0  0  0
   -1.2190   17.5820  -34.0940 N   0  0  0  0  0  0  0  0  0  0  0  0
   -0.4990   18.7880  -34.3720 C   0  0  0  0  0  0  0  0  0  0  0  0
   -0.0780   19.0260  -35.6830 C   0  0  0  0  0  0  0  0  0  0  0  0
   -0.3015   18.2900  -36.4693 H   0  0  0  0  0  0  0  0  0  0  0  0
    0.6240   20.1900  -36.0040 C   0  0  0  0  0  0  0  0  0  0  0  0
    0.9469   20.3672  -37.0405 H   0  0  0  0  0  0  0  0  0  0  0  0
    0.9180   21.1320  -35.0110 C   0  0  0  0  0  0  0  0  0  0  0  0
    1.7030   22.3660  -35.3460 C   0  0  0  0  0  0  0  0  0  0  0  0
    2.0191   22.8629  -34.4170 H   0  0  0  0  0  0  0  0  0  0  0  0
    2.5905   22.0878  -35.9333 H   0  0  0  0  0  0  0  0  0  0  0  0
    1.0749   23.0520  -35.9333 H   0  0  0  0  0  0  0  0  0  0  0  0
    0.5430   20.8760  -33.6840 C   0  0  0  0  0  0  0  0  0  0  0  0
    0.7938   21.6030  -32.8975 H   0  0  0  0  0  0  0  0  0  0  0  0
   -0.1500   19.7000  -33.3490 C   0  0  0  0  0  0  0  0  0  0  0  0
   -0.4920   19.4380  -31.9070 C   0  0  0  0  0  0  0  0  0  0  0  0
    0.2135   19.9785  -31.2588 H   0  0  0  0  0  0  0  0  0  0  0  0
   -1.5159   19.7850  -31.7041 H   0  0  0  0  0  0  0  0  0  0  0  0
   -0.4235   18.3590  -31.7041 H   0  0  0  0  0  0  0  0  0  0  0  0
   -5.4380   19.3390  -33.0240 S   0  0  0  0  0  0  0  0  0  0  0  0
   -4.9420   20.9280  -32.7380 C   0  0  0  0  0  0  0  0  0  0  0  0
   -5.7720   21.9960  -32.1220 C   0  0  0  0  0  0  0  0  0  0  0  0
   -7.1760   21.9400  -32.1750 C   0  0  0  0  0  0  0  0  0  0  0  0
   -7.6698   21.0945  -32.6762 H   0  0  0  0  0  0  0  0  0  0  0  0
   -7.9490   22.9500  -31.5960 C   0  0  0  0  0  0  0  0  0  0  0  0
   -9.0467   22.8936  -31.6405 H   0  0  0  0  0  0  0  0  0  0  0  0
   -7.3340   24.0290  -30.9620 C   0  0  0  0  0  0  0  0  0  0  0  0
   -7.9480   24.8191  -30.5051 H   0  0  0  0  0  0  0  0  0  0  0  0
   -5.9350   24.1100  -30.9050 C   0  0  0  0  0  0  0  0  0  0  0  0
   -5.2800   25.2600  -30.1970 C   0  0  0  0  0  0  0  0  0  0  0  0
   -5.7586   26.2009  -30.5063 H   0  0  0  0  0  0  0  0  0  0  0  0
   -5.3904   25.1308  -29.1102 H   0  0  0  0  0  0  0  0  0  0  0  0
   -3.8650   25.3010  -30.5380 N   0  0  0  0  0  0  0  0  0  0  0  0
   -2.8540   24.7310  -29.7050 C   0  0  0  0  0  0  0  0  0  0  0  0
   -2.7200   23.4800  -29.6710 O   0  0  0  0  0  0  0  0  0  0  0  0
   -1.9720   25.5820  -28.9590 N   0  0  0  0  0  0  0  0  0  0  0  0
   -1.4490   25.3230  -27.6490 C   0  0  0  0  0  0  0  0  0  0  0  0
   -1.9000   26.0220  -26.5140 C   0  0  0  0  0  0  0  0  0  0  0  0
   -2.6946   26.7760  -26.6143 H   0  0  0  0  0  0  0  0  0  0  0  0
   -1.3410   25.7610  -25.2590 C   0  0  0  0  0  0  0  0  0  0  0  0
   -1.7014   26.3050  -24.3735 H   0  0  0  0  0  0  0  0  0  0  0  0
   -0.3250   24.8100  -25.1280 C   0  0  0  0  0  0  0  0  0  0  0  0
    0.1058   24.5980  -24.1383 H   0  0  0  0  0  0  0  0  0  0  0  0
    0.1430   24.1290  -26.2540 C   0  0  0  0  0  0  0  0  0  0  0  0
    0.9477   23.3860  -26.1517 H   0  0  0  0  0  0  0  0  0  0  0  0
   -0.4110   24.3910  -27.5130 C   0  0  0  0  0  0  0  0  0  0  0  0
   -0.0298   23.8629  -28.3995 H   0  0  0  0  0  0  0  0  0  0  0  0
   -5.1600   23.0860  -31.4720 C   0  0  0  0  0  0  0  0  0  0  0  0
   -4.0630   23.1351  -31.4081 H   0  0  0  0  0  0  0  0  0  0  0  0
  1  2  1  0
  2  3  1  0
  3  4  1  0
  4  5  2  0
  5  6  1  0
  6  7  2  0
  6  8  1  0
  8  9  1  0
  9 10  2  0
 10 11  1  0
 10 12  1  0
 12 13  1  0
 12 14  2  0
 14 15  1  0
 15 16  1  0
 15 17  1  0
 15 18  1  0
 14 19  1  0
 19 20  1  0
 19 21  2  0
 21 22  1  0
 22 23  1  0
 22 24  1  0
 22 25  1  0
  4 26  1  0
 26 27  1  0
 27 28  1  0
 28 29  2  0
 29 30  1  0
 29 31  1  0
 31 32  1  0
 31 33  2  0
 33 34  1  0
 33 35  1  0
 35 36  1  0
 36 37  1  0
 36 38  1  0
 36 39  1  0
 39 40  1  0
 40 41  2  0
 40 42  1  0
 42 43  1  0
 43 44  2  0
 44 45  1  0
 44 46  1  0
 46 47  1  0
 46 48  2  0
 48 49  1  0
 48 50  1  0
 50 51  1  0
 50 52  2  0
 52 53  1  0
 35 54  2  0
 54 55  1  0
 27  2  2  0
 54 28  1  0
 21  9  1  0
 52 43  1  0
M  CHG  4   3  -1   8  -1  39  -1  42  -1
M  END
>  <UniqueID>  (34) 
33

>  <SMILES>  (34) 
Cc1ccc([N-]C(=O)/N=c2\[n-]cc(-c3cccc(C[N-]C(=O)[N-]c4ccccc4)c3)s2)c(C)c1

>  <Energy>  (34) 
100.40063110071054

>  <Genealogy>  (34) 
Cc1ccc([N-]C(=O)N=c2[n-]cc(-c3cccc(C[N-]C(=O)[N-]c4ccccc4)c3)s2)c(C)c1 (protonated)
Cc1ccc([N-]C(=O)/N=c2\[n-]cc(-c3cccc(C[N-]C(=O)[N-]c4ccccc4)c3)s2)c(C)c1 (cis-trans isomerization)
Cc1ccc([N-]C(=O)/N=c2\[n-]cc(-c3cccc(C[N-]C(=O)[N-]c4ccccc4)c3)s2)c(C)c1 (3D coordinates assigned)
Cc1ccc([N-]C(=O)/N=c2\[n-]cc(-c3cccc(C[N-]C(=O)[N-]c4ccccc4)c3)s2)c(C)c1 (optimized conformer: 100.40063110071054 kcal/mol)

>  <smiles>  (34) 
Cc1ccc(NC(=O)N=c2[nH]cc(-c3cccc(CNC(=O)Nc4ccccc4)c3)s2)c(C)c1

>  <score_type>  (34) 
oracle

>  <origin>  (34) 
adgpu

>  <m_score__min__energy>  (34) 
-12.710000000000001

>  <m_primary>  (34) 
energy

$$$$
34:0
     RDKit          3D

 48 51  0  0  0  0  0  0  0  0999 V2000
   -1.4720   25.8110  -28.9610 N   0  0  0  0  0  0  0  0  0  0  0  0
   -1.9750   24.1560  -28.9310 S   0  0  0  0  0  0  0  0  0  0  0  0
   -1.8420   23.6380  -27.5260 O   0  0  0  0  0  0  0  0  0  0  0  0
   -1.1010   23.3470  -29.8470 O   0  0  0  0  0  0  0  0  0  0  0  0
   -3.6520   24.0350  -29.4620 C   0  0  0  0  0  0  0  0  0  0  0  0
   -4.4850   23.0250  -28.9620 C   0  0  0  0  0  0  0  0  0  0  0  0
   -5.8150   22.9350  -29.3870 C   0  0  0  0  0  0  0  0  0  0  0  0
   -6.3280   23.8550  -30.3120 C   0  0  0  0  0  0  0  0  0  0  0  0
   -7.6870   23.7100  -30.7540 N   0  0  0  0  0  0  0  0  0  0  0  0
   -8.1310   23.0980  -31.9730 C   0  0  0  0  0  0  0  0  0  0  0  0
   -8.8070   23.7830  -32.7890 O   0  0  0  0  0  0  0  0  0  0  0  0
   -7.7330   21.7040  -32.3630 C   0  0  0  0  0  0  0  0  0  0  0  0
   -8.1620   20.5430  -31.0260 S   0  0  0  0  0  0  0  0  0  0  0  0
   -7.6130   19.0890  -31.9280 C   0  0  0  0  0  0  0  0  0  0  0  0
   -8.3540   17.9710  -32.0550 N   0  0  0  0  0  0  0  0  0  0  0  0
   -7.6110   17.0900  -32.7140 N   0  0  0  0  0  0  0  0  0  0  0  0
   -6.4270   17.6820  -32.9790 C   0  0  0  0  0  0  0  0  0  0  0  0
   -5.3390   17.0120  -33.7300 C   0  0  0  0  0  0  0  0  0  0  0  0
   -4.7690   15.8320  -33.2330 C   0  0  0  0  0  0  0  0  0  0  0  0
   -3.7440   15.2040  -33.9510 C   0  0  0  0  0  0  0  0  0  0  0  0
   -3.3150   15.7310  -35.1310 N   0  0  0  0  0  0  0  0  0  0  0  0
   -3.8610   16.8660  -35.6430 C   0  0  0  0  0  0  0  0  0  0  0  0
   -4.8890   17.5210  -34.9620 C   0  0  0  0  0  0  0  0  0  0  0  0
   -6.3960   18.9480  -32.4980 N   0  0  0  0  0  0  0  0  0  0  0  0
   -5.2720   19.8390  -32.3780 C   0  0  0  0  0  0  0  0  0  0  0  0
   -4.9590   20.7270  -33.4200 C   0  0  0  0  0  0  0  0  0  0  0  0
   -3.8600   21.5840  -33.3090 C   0  0  0  0  0  0  0  0  0  0  0  0
   -3.0620   21.5550  -32.1610 C   0  0  0  0  0  0  0  0  0  0  0  0
   -3.3620   20.6680  -31.1210 C   0  0  0  0  0  0  0  0  0  0  0  0
   -2.3580   20.6320  -29.6820 Cl  0  0  0  0  0  0  0  0  0  0  0  0
   -4.4650   19.8130  -31.2280 C   0  0  0  0  0  0  0  0  0  0  0  0
   -5.4760   24.8340  -30.8540 C   0  0  0  0  0  0  0  0  0  0  0  0
   -4.1490   24.9290  -30.4210 C   0  0  0  0  0  0  0  0  0  0  0  0
   -1.2200   26.0400  -29.9500 H   0  0  0  0  0  0  0  0  0  0  0  0
   -4.0920   22.3008  -28.2332 H   0  0  0  0  0  0  0  0  0  0  0  0
   -6.4620   22.1375  -28.9929 H   0  0  0  0  0  0  0  0  0  0  0  0
   -8.2650   21.4158  -33.2816 H   0  0  0  0  0  0  0  0  0  0  0  0
   -6.6475   21.6716  -32.5378 H   0  0  0  0  0  0  0  0  0  0  0  0
   -5.1246   15.4020  -32.2850 H   0  0  0  0  0  0  0  0  0  0  0  0
   -3.2847   14.2836  -33.5613 H   0  0  0  0  0  0  0  0  0  0  0  0
   -3.4915   17.2697  -36.5972 H   0  0  0  0  0  0  0  0  0  0  0  0
   -5.3438   18.4285  -35.3857 H   0  0  0  0  0  0  0  0  0  0  0  0
   -5.5810   20.7483  -34.3270 H   0  0  0  0  0  0  0  0  0  0  0  0
   -3.6228   22.2818  -34.1255 H   0  0  0  0  0  0  0  0  0  0  0  0
   -2.1977   22.2300  -32.0754 H   0  0  0  0  0  0  0  0  0  0  0  0
   -4.7010   19.1180  -30.4087 H   0  0  0  0  0  0  0  0  0  0  0  0
   -5.8539   25.5268  -31.6203 H   0  0  0  0  0  0  0  0  0  0  0  0
   -3.4926   25.7086  -30.8348 H   0  0  0  0  0  0  0  0  0  0  0  0
  1  2  1  0
  2  3  2  0
  2  4  2  0
  2  5  1  0
  5  6  2  0
  6  7  1  0
  7  8  2  0
  8  9  1  0
  9 10  1  0
 10 11  2  0
 10 12  1  0
 12 13  1  0
 13 14  1  0
 14 15  2  0
 15 16  1  0
 16 17  2  0
 17 18  1  0
 18 19  2  0
 19 20  1  0
 20 21  2  0
 21 22  1  0
 22 23  2  0
 17 24  1  0
 24 25  1  0
 25 26  2  0
 26 27  1  0
 27 28  2  0
 28 29  1  0
 29 30  1  0
 29 31  2  0
  8 32  1  0
 32 33  2  0
 33  5  1  0
 24 14  1  0
 31 25  1  0
 23 18  1  0
  1 34  1  0
  6 35  1  0
  7 36  1  0
 12 37  1  0
 12 38  1  0
 19 39  1  0
 20 40  1  0
 22 41  1  0
 23 42  1  0
 26 43  1  0
 27 44  1  0
 28 45  1  0
 31 46  1  0
 32 47  1  0
 33 48  1  0
M  CHG  2   1  -1   9  -1
M  END
>  <UniqueID>  (35) 
34

>  <SMILES>  (35) 
[NH-]S(=O)(=O)c1ccc([N-]C(=O)CSc2nnc(-c3ccncc3)n2-c2cccc(Cl)c2)cc1

>  <Energy>  (35) 
97.42680947940588

>  <Genealogy>  (35) 
[NH-]S(=O)(=O)c1ccc([N-]C(=O)CSc2nnc(-c3ccncc3)n2-c2cccc(Cl)c2)cc1 (protonated)
[NH-]S(=O)(=O)c1ccc([N-]C(=O)CSc2nnc(-c3ccncc3)n2-c2cccc(Cl)c2)cc1 (3D coordinates assigned)
[NH-]S(=O)(=O)c1ccc([N-]C(=O)CSc2nnc(-c3ccncc3)n2-c2cccc(Cl)c2)cc1 (optimized conformer: 97.42680947940588 kcal/mol)

>  <smiles>  (35) 
NS(=O)(=O)c1ccc(NC(=O)CSc2nnc(-c3ccncc3)n2-c2cccc(Cl)c2)cc1

>  <score_type>  (35) 
oracle

>  <origin>  (35) 
adgpu

>  <m_score__min__energy>  (35) 
-11.74

>  <m_primary>  (35) 
energy

$$$$
35:0
     RDKit          3D

 70 74  0  0  0  0  0  0  0  0999 V2000
   -5.4997   25.3658  -30.4066 H   0  0  0  0  0  0  0  0  0  0  0  0
   -4.6940   24.6170  -30.3960 C   0  0  0  0  0  0  0  0  0  0  0  0
   -3.6360   24.7680  -29.5550 N   0  0  0  0  0  0  0  0  0  0  0  0
   -2.6190   23.8640  -29.5340 C   0  0  0  0  0  0  0  0  0  0  0  0
   -1.5990   23.9880  -28.7330 N   0  0  0  0  0  0  0  0  0  0  0  0
   -1.2710   25.0280  -27.7920 C   0  0  0  0  0  0  0  0  0  0  0  0
   -0.8320   26.3120  -28.1730 C   0  0  0  0  0  0  0  0  0  0  0  0
   -0.7489   26.5687  -29.2394 H   0  0  0  0  0  0  0  0  0  0  0  0
   -0.5020   27.2600  -27.2010 C   0  0  0  0  0  0  0  0  0  0  0  0
   -0.1869   28.2683  -27.5076 H   0  0  0  0  0  0  0  0  0  0  0  0
   -0.5690   26.9370  -25.8380 C   0  0  0  0  0  0  0  0  0  0  0  0
   -0.1880   27.9070  -24.8490 N   0  0  0  0  0  0  0  0  0  0  0  0
    0.6880   27.5210  -23.7400 C   0  0  0  0  0  0  0  0  0  0  0  0
    1.4543   26.8243  -24.1108 H   0  0  0  0  0  0  0  0  0  0  0  0
    0.0798   27.0396  -22.9600 H   0  0  0  0  0  0  0  0  0  0  0  0
    1.3780   28.7560  -23.1370 C   0  0  0  0  0  0  0  0  0  0  0  0
    2.2706   28.4302  -22.5828 H   0  0  0  0  0  0  0  0  0  0  0  0
    0.6606   29.2576  -22.4709 H   0  0  0  0  0  0  0  0  0  0  0  0
    1.7880   29.7200  -24.1810 N   0  0  0  0  0  0  0  0  0  0  0  0
    2.8770   29.1890  -25.0190 C   0  0  0  0  0  0  0  0  0  0  0  0
    3.6783   28.7983  -24.3746 H   0  0  0  0  0  0  0  0  0  0  0  0
    2.4893   28.3788  -25.6541 H   0  0  0  0  0  0  0  0  0  0  0  0
    3.2766   29.9934  -25.6541 H   0  0  0  0  0  0  0  0  0  0  0  0
    0.6550   30.2240  -25.0000 C   0  0  0  0  0  0  0  0  0  0  0  0
    0.9989   30.3260  -26.0399 H   0  0  0  0  0  0  0  0  0  0  0  0
    0.3464   31.1831  -24.5586 H   0  0  0  0  0  0  0  0  0  0  0  0
   -0.5850   29.3100  -24.9880 C   0  0  0  0  0  0  0  0  0  0  0  0
   -1.1379   29.4379  -25.9303 H   0  0  0  0  0  0  0  0  0  0  0  0
   -1.2213   29.5855  -24.1340 H   0  0  0  0  0  0  0  0  0  0  0  0
   -0.9690   25.6470  -25.4570 C   0  0  0  0  0  0  0  0  0  0  0  0
   -1.0400   25.3030  -24.1470 F   0  0  0  0  0  0  0  0  0  0  0  0
   -1.3190   24.7060  -26.4290 C   0  0  0  0  0  0  0  0  0  0  0  0
   -1.6364   23.6991  -26.1201 H   0  0  0  0  0  0  0  0  0  0  0  0
   -2.6820   22.7760  -30.3420 N   0  0  0  0  0  0  0  0  0  0  0  0
   -3.7290   22.5680  -31.1860 C   0  0  0  0  0  0  0  0  0  0  0  0
   -3.7690   21.4190  -31.9870 O   0  0  0  0  0  0  0  0  0  0  0  0
   -2.6350   20.9010  -32.6300 C   0  0  0  0  0  0  0  0  0  0  0  0
   -1.4960   21.7010  -32.7780 C   0  0  0  0  0  0  0  0  0  0  0  0
   -1.5146   22.7494  -32.4454 H   0  0  0  0  0  0  0  0  0  0  0  0
   -0.3340   21.1700  -33.3480 C   0  0  0  0  0  0  0  0  0  0  0  0
    0.5633   21.7980  -33.4499 H   0  0  0  0  0  0  0  0  0  0  0  0
   -0.3100   19.8420  -33.7890 C   0  0  0  0  0  0  0  0  0  0  0  0
    0.6170   19.4174  -34.2017 H   0  0  0  0  0  0  0  0  0  0  0  0
   -1.4630   19.0530  -33.7060 C   0  0  0  0  0  0  0  0  0  0  0  0
   -1.4250   17.6860  -34.1330 N   0  0  0  0  0  0  0  0  0  0  0  0
   -2.5580   17.0090  -34.6910 C   0  0  0  0  0  0  0  0  0  0  0  0
   -2.3990   16.2610  -35.6950 O   0  0  0  0  0  0  0  0  0  0  0  0
   -3.9070   17.2030  -34.1190 C   0  0  0  0  0  0  0  0  0  0  0  0
   -4.2240   16.6840  -32.8520 C   0  0  0  0  0  0  0  0  0  0  0  0
   -3.4453   16.1856  -32.2560 H   0  0  0  0  0  0  0  0  0  0  0  0
   -5.5190   16.7960  -32.3440 C   0  0  0  0  0  0  0  0  0  0  0  0
   -5.7481   16.4008  -31.3433 H   0  0  0  0  0  0  0  0  0  0  0  0
   -6.5310   17.4080  -33.0980 C   0  0  0  0  0  0  0  0  0  0  0  0
   -7.8630   17.4780  -32.5630 N   0  0  0  0  0  0  0  0  0  0  0  0
   -8.4560   16.6170  -32.5740 H   0  0  0  0  0  0  0  0  0  0  0  0
   -8.6580   18.9710  -32.1740 S   0  0  0  0  0  0  0  0  0  0  0  0
   -9.8600   19.1270  -33.0610 O   0  0  0  0  0  0  0  0  0  0  0  0
   -9.1100   18.9530  -30.7420 O   0  0  0  0  0  0  0  0  0  0  0  0
   -7.5640   20.3450  -32.4640 C   0  0  0  0  0  0  0  0  0  0  0  0
   -7.2334   20.7602  -31.5005 H   0  0  0  0  0  0  0  0  0  0  0  0
   -6.6886   20.0025  -33.0354 H   0  0  0  0  0  0  0  0  0  0  0  0
   -8.0939   21.1214  -33.0354 H   0  0  0  0  0  0  0  0  0  0  0  0
   -6.2120   17.9470  -34.3570 C   0  0  0  0  0  0  0  0  0  0  0  0
   -6.9904   18.4504  -34.9492 H   0  0  0  0  0  0  0  0  0  0  0  0
   -4.9110   17.8470  -34.8610 C   0  0  0  0  0  0  0  0  0  0  0  0
   -4.6724   18.2758  -35.8455 H   0  0  0  0  0  0  0  0  0  0  0  0
   -2.6250   19.5890  -33.1300 C   0  0  0  0  0  0  0  0  0  0  0  0
   -3.5362   18.9758  -33.0697 H   0  0  0  0  0  0  0  0  0  0  0  0
   -4.7570   23.5110  -31.2460 C   0  0  0  0  0  0  0  0  0  0  0  0
   -6.1260   23.3000  -32.3260 Cl  0  0  0  0  0  0  0  0  0  0  0  0
  1  2  1  0
  2  3  1  0
  3  4  1  0
  4  5  2  0
  5  6  1  0
  6  7  2  0
  7  8  1  0
  7  9  1  0
  9 10  1  0
  9 11  2  0
 11 12  1  0
 12 13  1  0
 13 14  1  0
 13 15  1  0
 13 16  1  0
 16 17  1  0
 16 18  1  0
 16 19  1  0
 19 20  1  0
 20 21  1  0
 20 22  1  0
 20 23  1  0
 19 24  1  0
 24 25  1  0
 24 26  1  0
 24 27  1  0
 27 28  1  0
 27 29  1  0
 11 30  1  0
 30 31  1  0
 30 32  2  0
 32 33  1  0
  4 34  1  0
 34 35  2  0
 35 36  1  0
 36 37  1  0
 37 38  2  0
 38 39  1  0
 38 40  1  0
 40 41  1  0
 40 42  2  0
 42 43  1  0
 42 44  1  0
 44 45  1  0
 45 46  1  0
 46 47  2  0
 46 48  1  0
 48 49  2  0
 49 50  1  0
 49 51  1  0
 51 52  1  0
 51 53  2  0
 53 54  1  0
 54 55  1  0
 54 56  1  0
 56 57  2  0
 56 58  2  0
 56 59  1  0
 59 60  1  0
 59 61  1  0
 59 62  1  0
 53 63  1  0
 63 64  1  0
 63 65  2  0
 65 66  1  0
 44 67  2  0
 67 68  1  0
 35 69  1  0
 69 70  1  0
 69  2  2  0
 32  6  1  0
 67 37  1  0
 27 12  1  0
 65 48  1  0
M  CHG  2   3  -1  45  -1
M  END
>  <UniqueID>  (36) 
35

>  <SMILES>  (36) 
CN1CCN(c2ccc(/N=c3/nc(Oc4cccc([N-]C(=O)c5ccc(NS(C)(=O)=O)cc5)c4)c(Cl)c[n-]3)cc2F)CC1

>  <Energy>  (36) 
105.4775986729199

>  <Genealogy>  (36) 
CN1CCN(c2ccc(N=c3nc(Oc4cccc([N-]C(=O)c5ccc(NS(C)(=O)=O)cc5)c4)c(Cl)c[n-]3)cc2F)CC1 (protonated)
CN1CCN(c2ccc(/N=c3/nc(Oc4cccc([N-]C(=O)c5ccc(NS(C)(=O)=O)cc5)c4)c(Cl)c[n-]3)cc2F)CC1 (cis-trans isomerization)
CN1CCN(c2ccc(/N=c3/nc(Oc4cccc([N-]C(=O)c5ccc(NS(C)(=O)=O)cc5)c4)c(Cl)c[n-]3)cc2F)CC1 (3D coordinates assigned)
CN1CCN(c2ccc(/N=c3/nc(Oc4cccc([N-]C(=O)c5ccc(NS(C)(=O)=O)cc5)c4)c(Cl)c[n-]3)cc2F)CC1 (nonaromatic ring conformer: 105.4775986729199 kcal/mol)

>  <smiles>  (36) 
CN1CCN(c2ccc(N=c3nc(Oc4cccc(NC(=O)c5ccc(NS(C)(=O)=O)cc5)c4)c(Cl)c[nH]3)cc2F)CC1

>  <score_type>  (36) 
oracle

>  <origin>  (36) 
adgpu

>  <m_score__min__energy>  (36) 
-11.93

>  <m_primary>  (36) 
energy

$$$$
36:0
     RDKit          3D

 46 48  0  0  0  0  0  0  0  0999 V2000
   -6.8420   15.5220  -34.2650 C   0  0  0  0  0  0  0  0  0  0  0  0
   -6.5140   16.8700  -33.6790 C   0  0  0  0  0  0  0  0  0  0  0  0
   -7.3360   17.4000  -32.6700 C   0  0  0  0  0  0  0  0  0  0  0  0
   -7.0510   18.6400  -32.0980 C   0  0  0  0  0  0  0  0  0  0  0  0
   -5.9360   19.3840  -32.5210 C   0  0  0  0  0  0  0  0  0  0  0  0
   -5.6330   20.7050  -31.9070 C   0  0  0  0  0  0  0  0  0  0  0  0
   -4.3260   21.2280  -31.9440 C   0  0  0  0  0  0  0  0  0  0  0  0
   -4.0380   22.4620  -31.3560 C   0  0  0  0  0  0  0  0  0  0  0  0
   -5.0500   23.1910  -30.7170 C   0  0  0  0  0  0  0  0  0  0  0  0
   -4.6940   24.7280  -29.9360 S   0  0  0  0  0  0  0  0  0  0  0  0
   -5.9870   25.3920  -29.5560 O   0  0  0  0  0  0  0  0  0  0  0  0
   -3.9330   25.6390  -30.8580 O   0  0  0  0  0  0  0  0  0  0  0  0
   -3.7560   24.4500  -28.5050 N   0  0  0  0  0  0  0  0  0  0  0  0
   -3.0840   23.2230  -28.1740 C   0  0  0  0  0  0  0  0  0  0  0  0
   -3.7830   22.0040  -28.0880 C   0  0  0  0  0  0  0  0  0  0  0  0
   -3.1080   20.8220  -27.7760 C   0  0  0  0  0  0  0  0  0  0  0  0
   -1.7320   20.8400  -27.5510 C   0  0  0  0  0  0  0  0  0  0  0  0
   -1.0250   22.0440  -27.6280 C   0  0  0  0  0  0  0  0  0  0  0  0
   -1.6940   23.2400  -27.9340 C   0  0  0  0  0  0  0  0  0  0  0  0
   -0.7830   24.7520  -28.0120 S   0  0  0  0  0  0  0  0  0  0  0  0
   -1.3470   25.6970  -29.3450 N   0  0  0  0  0  0  0  0  0  0  0  0
    0.6770   24.4470  -28.1870 O   0  0  0  0  0  0  0  0  0  0  0  0
   -0.9710   25.5400  -26.7450 O   0  0  0  0  0  0  0  0  0  0  0  0
   -6.3520   22.6820  -30.6830 C   0  0  0  0  0  0  0  0  0  0  0  0
   -6.6460   21.4500  -31.2730 C   0  0  0  0  0  0  0  0  0  0  0  0
   -5.1090   18.8560  -33.5310 C   0  0  0  0  0  0  0  0  0  0  0  0
   -5.3770   17.6000  -34.1030 C   0  0  0  0  0  0  0  0  0  0  0  0
   -4.4670   17.0700  -35.1790 C   0  0  0  0  0  0  0  0  0  0  0  0
   -7.0173   14.8017  -33.4523 H   0  0  0  0  0  0  0  0  0  0  0  0
   -7.7468   15.6022  -34.8854 H   0  0  0  0  0  0  0  0  0  0  0  0
   -6.0015   15.1775  -34.8854 H   0  0  0  0  0  0  0  0  0  0  0  0
   -8.2132   16.8313  -32.3277 H   0  0  0  0  0  0  0  0  0  0  0  0
   -7.7049   19.0392  -31.3087 H   0  0  0  0  0  0  0  0  0  0  0  0
   -3.5251   20.6601  -32.4401 H   0  0  0  0  0  0  0  0  0  0  0  0
   -3.0142   22.8625  -31.3947 H   0  0  0  0  0  0  0  0  0  0  0  0
   -4.8680   21.9825  -28.2677 H   0  0  0  0  0  0  0  0  0  0  0  0
   -3.6630   19.8747  -27.7076 H   0  0  0  0  0  0  0  0  0  0  0  0
   -1.2020   19.9060  -27.3127 H   0  0  0  0  0  0  0  0  0  0  0  0
    0.0601   22.0542  -27.4480 H   0  0  0  0  0  0  0  0  0  0  0  0
   -2.3920   25.6690  -29.3250 H   0  0  0  0  0  0  0  0  0  0  0  0
   -7.1500   23.2553  -30.1885 H   0  0  0  0  0  0  0  0  0  0  0  0
   -7.6741   21.0600  -31.2421 H   0  0  0  0  0  0  0  0  0  0  0  0
   -4.2403   19.4349  -33.8776 H   0  0  0  0  0  0  0  0  0  0  0  0
   -3.6049   16.5679  -34.7156 H   0  0  0  0  0  0  0  0  0  0  0  0
   -5.0176   16.3513  -35.8038 H   0  0  0  0  0  0  0  0  0  0  0  0
   -4.1136   17.9035  -35.8038 H   0  0  0  0  0  0  0  0  0  0  0  0
  1  2  1  0
  2  3  2  0
  3  4  1  0
  4  5  2  0
  5  6  1  0
  6  7  2  0
  7  8  1  0
  8  9  2  0
  9 10  1  0
 10 11  2  0
 10 12  2  0
 10 13  1  0
 13 14  1  0
 14 15  2  0
 15 16  1  0
 16 17  2  0
 17 18  1  0
 18 19  2  0
 19 20  1  0
 20 21  1  0
 20 22  2  0
 20 23  2  0
  9 24  1  0
 24 25  2  0
  5 26  1  0
 26 27  2  0
 27 28  1  0
 27  2  1  0
 25  6  1  0
 19 14  1  0
  1 29  1  0
  1 30  1  0
  1 31  1  0
  3 32  1  0
  4 33  1  0
  7 34  1  0
  8 35  1  0
 15 36  1  0
 16 37  1  0
 17 38  1  0
 18 39  1  0
 21 40  1  0
 24 41  1  0
 25 42  1  0
 26 43  1  0
 28 44  1  0
 28 45  1  0
 28 46  1  0
M  CHG  2  13  -1  21  -1
M  END
>  <UniqueID>  (37) 
36

>  <SMILES>  (37) 
Cc1ccc(-c2ccc(S(=O)(=O)[N-]c3ccccc3S([NH-])(=O)=O)cc2)cc1C

>  <Energy>  (37) 
57.7795433167698

>  <Genealogy>  (37) 
Cc1ccc(-c2ccc(S(=O)(=O)[N-]c3ccccc3S([NH-])(=O)=O)cc2)cc1C (protonated)
Cc1ccc(-c2ccc(S(=O)(=O)[N-]c3ccccc3S([NH-])(=O)=O)cc2)cc1C (3D coordinates assigned)
Cc1ccc(-c2ccc(S(=O)(=O)[N-]c3ccccc3S([NH-])(=O)=O)cc2)cc1C (optimized conformer: 57.7795433167698 kcal/mol)

>  <smiles>  (37) 
Cc1ccc(-c2ccc(S(=O)(=O)Nc3ccccc3S(N)(=O)=O)cc2)cc1C

>  <score_type>  (37) 
oracle

>  <origin>  (37) 
adgpu

>  <m_score__min__energy>  (37) 
-13.449999999999999

>  <m_primary>  (37) 
energy

$$$$
37:0
     RDKit          3D

 45 48  0  0  0  0  0  0  0  0999 V2000
   -5.7000   24.9800  -31.1730 C   0  0  0  0  0  0  0  0  0  0  0  0
   -4.7090   24.7650  -30.0790 C   0  0  0  0  0  0  0  0  0  0  0  0
   -4.9080   24.0090  -28.9400 C   0  0  0  0  0  0  0  0  0  0  0  0
   -3.7320   24.0950  -28.2240 C   0  0  0  0  0  0  0  0  0  0  0  0
   -2.8940   24.8940  -28.9770 C   0  0  0  0  0  0  0  0  0  0  0  0
   -1.5080   25.3080  -28.5960 C   0  0  0  0  0  0  0  0  0  0  0  0
   -0.5270   24.3820  -29.1590 N   0  0  0  0  0  0  0  0  0  0  0  0
   -0.5830   22.9510  -29.0830 C   0  0  0  0  0  0  0  0  0  0  0  0
    0.2980   22.3460  -28.4180 O   0  0  0  0  0  0  0  0  0  0  0  0
   -1.6130   22.1600  -29.7780 C   0  0  0  0  0  0  0  0  0  0  0  0
   -1.9490   22.2530  -31.1180 C   0  0  0  0  0  0  0  0  0  0  0  0
   -2.9820   21.3580  -31.3030 C   0  0  0  0  0  0  0  0  0  0  0  0
   -3.7950   21.0240  -32.8210 S   0  0  0  0  0  0  0  0  0  0  0  0
   -4.1060   22.3220  -33.5120 O   0  0  0  0  0  0  0  0  0  0  0  0
   -2.8890   20.2010  -33.6930 O   0  0  0  0  0  0  0  0  0  0  0  0
   -5.2660   20.1600  -32.5200 N   0  0  0  0  0  0  0  0  0  0  0  0
   -5.3780   18.7060  -32.4580 C   0  0  0  0  0  0  0  0  0  0  0  0
   -6.8530   18.4110  -32.0900 C   0  0  0  0  0  0  0  0  0  0  0  0
   -7.4560   19.7690  -31.9630 C   0  0  0  0  0  0  0  0  0  0  0  0
   -8.7720   20.1010  -31.6380 C   0  0  0  0  0  0  0  0  0  0  0  0
   -9.1220   21.4600  -31.5720 C   0  0  0  0  0  0  0  0  0  0  0  0
   -8.1580   22.4550  -31.8300 C   0  0  0  0  0  0  0  0  0  0  0  0
   -6.8410   22.0940  -32.1560 C   0  0  0  0  0  0  0  0  0  0  0  0
   -6.5210   20.7350  -32.2140 C   0  0  0  0  0  0  0  0  0  0  0  0
   -3.2430   20.7650  -30.0860 C   0  0  0  0  0  0  0  0  0  0  0  0
   -2.4120   21.2700  -29.1560 N   0  0  0  0  0  0  0  0  0  0  0  0
   -3.5010   25.2810  -30.0750 O   0  0  0  0  0  0  0  0  0  0  0  0
   -6.6869   25.1941  -30.7369 H   0  0  0  0  0  0  0  0  0  0  0  0
   -5.3815   25.8299  -31.7944 H   0  0  0  0  0  0  0  0  0  0  0  0
   -5.7624   24.0745  -31.7944 H   0  0  0  0  0  0  0  0  0  0  0  0
   -5.8158   23.4537  -28.6617 H   0  0  0  0  0  0  0  0  0  0  0  0
   -3.5082   23.6250  -27.2550 H   0  0  0  0  0  0  0  0  0  0  0  0
   -1.3134   26.3201  -28.9804 H   0  0  0  0  0  0  0  0  0  0  0  0
   -1.4209   25.2971  -27.4995 H   0  0  0  0  0  0  0  0  0  0  0  0
   -1.4887   22.9040  -31.8759 H   0  0  0  0  0  0  0  0  0  0  0  0
   -5.1302   18.2609  -33.4330 H   0  0  0  0  0  0  0  0  0  0  0  0
   -4.6835   18.2779  -31.7201 H   0  0  0  0  0  0  0  0  0  0  0  0
   -7.3487   17.8330  -32.8838 H   0  0  0  0  0  0  0  0  0  0  0  0
   -6.9551   17.8086  -31.1753 H   0  0  0  0  0  0  0  0  0  0  0  0
   -9.5175   19.3172  -31.4383 H   0  0  0  0  0  0  0  0  0  0  0  0
  -10.1526   21.7485  -31.3179 H   0  0  0  0  0  0  0  0  0  0  0  0
   -8.4381   23.5173  -31.7758 H   0  0  0  0  0  0  0  0  0  0  0  0
   -6.0802   22.8616  -32.3606 H   0  0  0  0  0  0  0  0  0  0  0  0
   -4.0108   19.9986  -29.9038 H   0  0  0  0  0  0  0  0  0  0  0  0
   -2.3870   21.0080  -28.1450 H   0  0  0  0  0  0  0  0  0  0  0  0
  1  2  1  0
  2  3  2  0
  3  4  1  0
  4  5  2  0
  5  6  1  0
  6  7  1  0
  7  8  1  0
  8  9  2  0
  8 10  1  0
 10 11  2  0
 11 12  1  0
 12 13  1  0
 13 14  2  0
 13 15  2  0
 13 16  1  0
 16 17  1  0
 17 18  1  0
 18 19  1  0
 19 20  2  0
 20 21  1  0
 21 22  2  0
 22 23  1  0
 23 24  2  0
 12 25  2  0
 25 26  1  0
  5 27  1  0
 27  2  1  0
 26 10  1  0
 24 16  1  0
 24 19  1  0
  1 28  1  0
  1 29  1  0
  1 30  1  0
  3 31  1  0
  4 32  1  0
  6 33  1  0
  6 34  1  0
 11 35  1  0
 17 36  1  0
 17 37  1  0
 18 38  1  0
 18 39  1  0
 20 40  1  0
 21 41  1  0
 22 42  1  0
 23 43  1  0
 25 44  1  0
 26 45  1  0
M  CHG  1   7  -1
M  END
>  <UniqueID>  (38) 
37

>  <SMILES>  (38) 
Cc1ccc(C[N-]C(=O)c2cc(S(=O)(=O)N3CCc4ccccc43)c[nH]2)o1

>  <Energy>  (38) 
113.1187797342364

>  <Genealogy>  (38) 
Cc1ccc(C[N-]C(=O)c2cc(S(=O)(=O)N3CCc4ccccc43)c[nH]2)o1 (protonated)
Cc1ccc(C[N-]C(=O)c2cc(S(=O)(=O)N3CCc4ccccc43)c[nH]2)o1 (3D coordinates assigned)
Cc1ccc(C[N-]C(=O)c2cc(S(=O)(=O)N3CCc4ccccc43)c[nH]2)o1 (nonaromatic ring conformer: 113.1187797342364 kcal/mol)

>  <smiles>  (38) 
Cc1ccc(CNC(=O)c2cc(S(=O)(=O)N3CCc4ccccc43)c[nH]2)o1

>  <score_type>  (38) 
oracle

>  <origin>  (38) 
adgpu

>  <m_score__min__energy>  (38) 
-11.609999999999999

>  <m_primary>  (38) 
energy

$$$$
38:0
     RDKit          3D

 46 49  0  0  0  0  0  0  0  0999 V2000
   -2.9310   25.2830  -30.3750 H   0  0  0  0  0  0  0  0  0  0  0  0
   -3.8670   25.2970  -30.8380 N   0  0  0  0  0  0  0  0  0  0  0  0
   -4.9580   24.4540  -29.7980 S   0  0  0  0  0  0  0  0  0  0  0  0
   -5.7850   25.4450  -29.0270 O   0  0  0  0  0  0  0  0  0  0  0  0
   -4.1740   23.6190  -28.8240 O   0  0  0  0  0  0  0  0  0  0  0  0
   -6.0080   23.4200  -30.7610 C   0  0  0  0  0  0  0  0  0  0  0  0
   -7.2500   23.8950  -31.2020 C   0  0  0  0  0  0  0  0  0  0  0  0
   -7.5682   24.9169  -30.9483 H   0  0  0  0  0  0  0  0  0  0  0  0
   -8.0850   23.0740  -31.9630 C   0  0  0  0  0  0  0  0  0  0  0  0
   -9.0650   23.4461  -32.2964 H   0  0  0  0  0  0  0  0  0  0  0  0
   -7.6780   21.7800  -32.3020 C   0  0  0  0  0  0  0  0  0  0  0  0
   -8.3466   21.1300  -32.8855 H   0  0  0  0  0  0  0  0  0  0  0  0
   -6.4160   21.3070  -31.8990 C   0  0  0  0  0  0  0  0  0  0  0  0
   -5.9690   19.9740  -32.1990 N   0  0  0  0  0  0  0  0  0  0  0  0
   -4.8280   19.6290  -32.7280 C   0  0  0  0  0  0  0  0  0  0  0  0
   -3.8660   20.5600  -32.9800 N   0  0  0  0  0  0  0  0  0  0  0  0
   -2.6640   20.2200  -33.5050 C   0  0  0  0  0  0  0  0  0  0  0  0
   -1.7000   21.2010  -33.7600 C   0  0  0  0  0  0  0  0  0  0  0  0
   -1.9175   22.2570  -33.5417 H   0  0  0  0  0  0  0  0  0  0  0  0
   -0.4590   20.8370  -34.2930 C   0  0  0  0  0  0  0  0  0  0  0  0
    0.2984   21.6084  -34.4963 H   0  0  0  0  0  0  0  0  0  0  0  0
   -0.1790   19.4950  -34.5680 C   0  0  0  0  0  0  0  0  0  0  0  0
    0.7990   19.2131  -34.9851 H   0  0  0  0  0  0  0  0  0  0  0  0
   -1.1400   18.5090  -34.3140 C   0  0  0  0  0  0  0  0  0  0  0  0
   -0.9163   17.4539  -34.5301 H   0  0  0  0  0  0  0  0  0  0  0  0
   -2.3900   18.8680  -33.7830 C   0  0  0  0  0  0  0  0  0  0  0  0
   -3.3400   17.9250  -33.5230 N   0  0  0  0  0  0  0  0  0  0  0  0
   -3.0960   16.9240  -33.6860 H   0  0  0  0  0  0  0  0  0  0  0  0
   -4.5640   18.2740  -33.0140 C   0  0  0  0  0  0  0  0  0  0  0  0
   -5.4820   17.3790  -32.7540 N   0  0  0  0  0  0  0  0  0  0  0  0
   -5.4470   15.9800  -33.0700 C   0  0  0  0  0  0  0  0  0  0  0  0
   -6.3340   15.4220  -34.0050 C   0  0  0  0  0  0  0  0  0  0  0  0
   -7.0394   16.0708  -34.5449 H   0  0  0  0  0  0  0  0  0  0  0  0
   -6.3250   14.0470  -34.2530 C   0  0  0  0  0  0  0  0  0  0  0  0
   -7.0171   13.6190  -34.9932 H   0  0  0  0  0  0  0  0  0  0  0  0
   -5.4360   13.2100  -33.5610 C   0  0  0  0  0  0  0  0  0  0  0  0
   -5.4530   11.7290  -33.7970 C   0  0  0  0  0  0  0  0  0  0  0  0
   -5.4590   11.2037  -32.8305 H   0  0  0  0  0  0  0  0  0  0  0  0
   -6.3543   11.4588  -34.3668 H   0  0  0  0  0  0  0  0  0  0  0  0
   -4.5581   11.4382  -34.3668 H   0  0  0  0  0  0  0  0  0  0  0  0
   -4.5890   13.7620  -32.5870 C   0  0  0  0  0  0  0  0  0  0  0  0
   -3.9142   13.1086  -32.0146 H   0  0  0  0  0  0  0  0  0  0  0  0
   -4.5990   15.1380  -32.3410 C   0  0  0  0  0  0  0  0  0  0  0  0
   -3.9373   15.5612  -31.5709 H   0  0  0  0  0  0  0  0  0  0  0  0
   -5.5980   22.1250  -31.1080 C   0  0  0  0  0  0  0  0  0  0  0  0
   -4.6263   21.7479  -30.7565 H   0  0  0  0  0  0  0  0  0  0  0  0
  1  2  1  0
  2  3  1  0
  3  4  2  0
  3  5  2  0
  3  6  1  0
  6  7  2  0
  7  8  1  0
  7  9  1  0
  9 10  1  0
  9 11  2  0
 11 12  1  0
 11 13  1  0
 13 14  1  0
 14 15  2  3
 15 16  1  0
 16 17  1  0
 17 18  2  0
 18 19  1  0
 18 20  1  0
 20 21  1  0
 20 22  2  0
 22 23  1  0
 22 24  1  0
 24 25  1  0
 24 26  2  0
 26 27  1  0
 27 28  1  0
 27 29  1  0
 29 30  2  0
 30 31  1  0
 31 32  2  0
 32 33  1  0
 32 34  1  0
 34 35  1  0
 34 36  2  0
 36 37  1  0
 37 38  1  0
 37 39  1  0
 37 40  1  0
 36 41  1  0
 41 42  1  0
 41 43  2  0
 43 44  1  0
 13 45  2  0
 45 46  1  0
 45  6  1  0
 29 15  1  0
 43 31  1  0
 26 17  1  0
M  CHG  2   2  -1  16  -1
M  END
>  <UniqueID>  (39) 
38

>  <SMILES>  (39) 
Cc1ccc(/N=c2\[nH]c3ccccc3[n-]c2=Nc2cccc(S([NH-])(=O)=O)c2)cc1

>  <Energy>  (39) 
69.55382102066626

>  <Genealogy>  (39) 
Cc1ccc(N=c2[nH]c3ccccc3[n-]c2=Nc2cccc(S([NH-])(=O)=O)c2)cc1 (protonated)
Cc1ccc(/N=c2\[nH]c3ccccc3[n-]c2=Nc2cccc(S([NH-])(=O)=O)c2)cc1 (cis-trans isomerization)
Cc1ccc(/N=c2\[nH]c3ccccc3[n-]c2=Nc2cccc(S([NH-])(=O)=O)c2)cc1 (3D coordinates assigned)
Cc1ccc(/N=c2\[nH]c3ccccc3[n-]c2=Nc2cccc(S([NH-])(=O)=O)c2)cc1 (optimized conformer: 69.55382102066626 kcal/mol)

>  <smiles>  (39) 
Cc1ccc(N=c2[nH]c3ccccc3[nH]c2=Nc2cccc(S(N)(=O)=O)c2)cc1

>  <score_type>  (39) 
oracle

>  <origin>  (39) 
adgpu

>  <m_score__min__energy>  (39) 
-12.01

>  <m_primary>  (39) 
energy

$$$$
39:0
     RDKit          3D

 41 43  0  0  0  0  0  0  0  0999 V2000
   -3.8590   25.3010  -30.5540 O   0  0  0  0  0  0  0  0  0  0  0  0
   -4.2400   24.1020  -30.4770 C   0  0  0  0  0  0  0  0  0  0  0  0
   -4.2580   23.4170  -29.1490 C   0  0  0  0  0  0  0  0  0  0  0  0
   -3.3820   24.1550  -28.1750 C   0  0  0  0  0  0  0  0  0  0  0  0
   -3.8900   24.5550  -26.9280 C   0  0  0  0  0  0  0  0  0  0  0  0
   -3.0650   25.2110  -26.0080 C   0  0  0  0  0  0  0  0  0  0  0  0
   -1.7260   25.4620  -26.3250 C   0  0  0  0  0  0  0  0  0  0  0  0
   -1.2100   25.0540  -27.5570 C   0  0  0  0  0  0  0  0  0  0  0  0
   -2.0320   24.3990  -28.4790 C   0  0  0  0  0  0  0  0  0  0  0  0
   -4.7570   23.4210  -31.6270 N   0  0  0  0  0  0  0  0  0  0  0  0
   -6.0560   22.8250  -31.7510 C   0  0  0  0  0  0  0  0  0  0  0  0
   -7.1810   23.6550  -31.7150 C   0  0  0  0  0  0  0  0  0  0  0  0
   -8.4620   23.1130  -31.8260 C   0  0  0  0  0  0  0  0  0  0  0  0
   -8.6430   21.7320  -31.9620 C   0  0  0  0  0  0  0  0  0  0  0  0
   -9.9440   21.2500  -32.1180 O   0  0  0  0  0  0  0  0  0  0  0  0
   -7.5170   20.8770  -31.9580 C   0  0  0  0  0  0  0  0  0  0  0  0
   -7.6570   19.4040  -32.0160 C   0  0  0  0  0  0  0  0  0  0  0  0
   -8.6380   18.8660  -31.4330 O   0  0  0  0  0  0  0  0  0  0  0  0
   -6.6570   18.5470  -32.7030 C   0  0  0  0  0  0  0  0  0  0  0  0
   -6.2120   17.3430  -32.1230 C   0  0  0  0  0  0  0  0  0  0  0  0
   -5.2670   16.5480  -32.7790 C   0  0  0  0  0  0  0  0  0  0  0  0
   -4.7500   16.9470  -34.0130 C   0  0  0  0  0  0  0  0  0  0  0  0
   -5.1730   18.1450  -34.5930 C   0  0  0  0  0  0  0  0  0  0  0  0
   -6.1190   18.9440  -33.9420 C   0  0  0  0  0  0  0  0  0  0  0  0
   -6.2310   21.4340  -31.8440 C   0  0  0  0  0  0  0  0  0  0  0  0
   -5.2888   23.3935  -28.7657 H   0  0  0  0  0  0  0  0  0  0  0  0
   -3.8794   22.3911  -29.2679 H   0  0  0  0  0  0  0  0  0  0  0  0
   -4.9407   24.3516  -26.6738 H   0  0  0  0  0  0  0  0  0  0  0  0
   -3.4692   25.5293  -25.0357 H   0  0  0  0  0  0  0  0  0  0  0  0
   -1.0786   25.9814  -25.6031 H   0  0  0  0  0  0  0  0  0  0  0  0
   -0.1554   25.2482  -27.8023 H   0  0  0  0  0  0  0  0  0  0  0  0
   -1.6204   24.0735  -29.4458 H   0  0  0  0  0  0  0  0  0  0  0  0
   -7.0553   24.7416  -31.5985 H   0  0  0  0  0  0  0  0  0  0  0  0
   -9.3382   23.7778  -31.8064 H   0  0  0  0  0  0  0  0  0  0  0  0
  -10.1860   20.2730  -32.0150 H   0  0  0  0  0  0  0  0  0  0  0  0
   -6.6104   17.0261  -31.1479 H   0  0  0  0  0  0  0  0  0  0  0  0
   -4.9301   15.6060  -32.3217 H   0  0  0  0  0  0  0  0  0  0  0  0
   -4.0095   16.3178  -34.5284 H   0  0  0  0  0  0  0  0  0  0  0  0
   -4.7617   18.4608  -35.5631 H   0  0  0  0  0  0  0  0  0  0  0  0
   -6.4447   19.8889  -34.4013 H   0  0  0  0  0  0  0  0  0  0  0  0
   -5.3518   20.7731  -31.8274 H   0  0  0  0  0  0  0  0  0  0  0  0
  1  2  2  0
  2  3  1  0
  3  4  1  0
  4  5  2  0
  5  6  1  0
  6  7  2  0
  7  8  1  0
  8  9  2  0
  2 10  1  0
 10 11  1  0
 11 12  2  0
 12 13  1  0
 13 14  2  0
 14 15  1  0
 14 16  1  0
 16 17  1  0
 17 18  2  0
 17 19  1  0
 19 20  2  0
 20 21  1  0
 21 22  2  0
 22 23  1  0
 23 24  2  0
 16 25  2  0
  9  4  1  0
 25 11  1  0
 24 19  1  0
  3 26  1  0
  3 27  1  0
  5 28  1  0
  6 29  1  0
  7 30  1  0
  8 31  1  0
  9 32  1  0
 12 33  1  0
 13 34  1  0
 15 35  1  0
 20 36  1  0
 21 37  1  0
 22 38  1  0
 23 39  1  0
 24 40  1  0
 25 41  1  0
M  CHG  1  10  -1
M  END
>  <UniqueID>  (40) 
39

>  <SMILES>  (40) 
O=C(Cc1ccccc1)[N-]c1ccc(O)c(C(=O)c2ccccc2)c1

>  <Energy>  (40) 
53.364527636048166

>  <Genealogy>  (40) 
O=C(Cc1ccccc1)[N-]c1ccc(O)c(C(=O)c2ccccc2)c1 (protonated)
O=C(Cc1ccccc1)[N-]c1ccc(O)c(C(=O)c2ccccc2)c1 (3D coordinates assigned)
O=C(Cc1ccccc1)[N-]c1ccc(O)c(C(=O)c2ccccc2)c1 (optimized conformer: 53.364527636048166 kcal/mol)

>  <smiles>  (40) 
O=C(Cc1ccccc1)Nc1ccc(O)c(C(=O)c2ccccc2)c1

>  <score_type>  (40) 
oracle

>  <origin>  (40) 
adgpu

>  <m_score__min__energy>  (40) 
-9.8699999999999992

>  <m_primary>  (40) 
energy

$$$$
40:0
     RDKit          3D

 47 49  0  0  0  0  0  0  0  0999 V2000
   -2.8670   21.8260  -31.4480 C   0  0  0  0  0  0  0  0  0  0  0  0
   -3.4420   23.1230  -31.5750 O   0  0  0  0  0  0  0  0  0  0  0  0
   -4.7190   23.4740  -31.1110 C   0  0  0  0  0  0  0  0  0  0  0  0
   -5.8020   22.5730  -31.1350 C   0  0  0  0  0  0  0  0  0  0  0  0
   -7.0620   22.9590  -30.6490 C   0  0  0  0  0  0  0  0  0  0  0  0
   -8.2050   21.9690  -30.6300 C   0  0  0  0  0  0  0  0  0  0  0  0
   -8.5740   21.5290  -31.9860 N   0  0  0  0  0  0  0  0  0  0  0  0
   -7.8500   20.3480  -32.3760 C   0  0  0  0  0  0  0  0  0  0  0  0
   -8.5760   18.8760  -32.2240 S   0  0  0  0  0  0  0  0  0  0  0  0
   -6.6150   20.4910  -33.1020 N   0  0  0  0  0  0  0  0  0  0  0  0
   -5.7480   19.4090  -33.4830 C   0  0  0  0  0  0  0  0  0  0  0  0
   -6.0700   18.6400  -34.6110 C   0  0  0  0  0  0  0  0  0  0  0  0
   -5.2310   17.6000  -35.0220 C   0  0  0  0  0  0  0  0  0  0  0  0
   -4.0530   17.3300  -34.3190 C   0  0  0  0  0  0  0  0  0  0  0  0
   -2.9740   16.0010  -34.8540 S   0  0  0  0  0  0  0  0  0  0  0  0
   -3.7780   14.7990  -33.7930 C   0  0  0  0  0  0  0  0  0  0  0  0
   -3.2410   14.5070  -32.5320 C   0  0  0  0  0  0  0  0  0  0  0  0
   -3.8660   13.5680  -31.7040 C   0  0  0  0  0  0  0  0  0  0  0  0
   -5.0300   12.9220  -32.1350 C   0  0  0  0  0  0  0  0  0  0  0  0
   -5.5670   13.2120  -33.3930 C   0  0  0  0  0  0  0  0  0  0  0  0
   -4.9440   14.1510  -34.2210 C   0  0  0  0  0  0  0  0  0  0  0  0
   -3.7130   18.1080  -33.2040 C   0  0  0  0  0  0  0  0  0  0  0  0
   -4.5480   19.1520  -32.7960 C   0  0  0  0  0  0  0  0  0  0  0  0
   -7.2390   24.2580  -30.1460 C   0  0  0  0  0  0  0  0  0  0  0  0
   -6.1710   25.1560  -30.1280 C   0  0  0  0  0  0  0  0  0  0  0  0
   -4.9150   24.7660  -30.6040 C   0  0  0  0  0  0  0  0  0  0  0  0
   -3.8590   25.6670  -30.5630 O   0  0  0  0  0  0  0  0  0  0  0  0
   -2.7565   21.5767  -30.3823 H   0  0  0  0  0  0  0  0  0  0  0  0
   -3.5213   21.0859  -31.9318 H   0  0  0  0  0  0  0  0  0  0  0  0
   -1.8792   21.8139  -31.9318 H   0  0  0  0  0  0  0  0  0  0  0  0
   -5.6596   21.5593  -31.5375 H   0  0  0  0  0  0  0  0  0  0  0  0
   -7.9044   21.0902  -30.0406 H   0  0  0  0  0  0  0  0  0  0  0  0
   -9.0788   22.4663  -30.1837 H   0  0  0  0  0  0  0  0  0  0  0  0
   -9.5940   21.2990  -31.9910 H   0  0  0  0  0  0  0  0  0  0  0  0
   -8.4230   22.3010  -32.6740 H   0  0  0  0  0  0  0  0  0  0  0  0
   -6.3800   21.4420  -33.4660 H   0  0  0  0  0  0  0  0  0  0  0  0
   -6.9887   18.8566  -35.1759 H   0  0  0  0  0  0  0  0  0  0  0  0
   -5.4980   16.9932  -35.8998 H   0  0  0  0  0  0  0  0  0  0  0  0
   -2.3271   15.0166  -32.1927 H   0  0  0  0  0  0  0  0  0  0  0  0
   -3.4427   13.3379  -30.7152 H   0  0  0  0  0  0  0  0  0  0  0  0
   -5.5230   12.1854  -31.4836 H   0  0  0  0  0  0  0  0  0  0  0  0
   -6.4804   12.7010  -33.7317 H   0  0  0  0  0  0  0  0  0  0  0  0
   -5.3697   14.3810  -35.2089 H   0  0  0  0  0  0  0  0  0  0  0  0
   -2.7872   17.8966  -32.6489 H   0  0  0  0  0  0  0  0  0  0  0  0
   -4.2656   19.7749  -31.9345 H   0  0  0  0  0  0  0  0  0  0  0  0
   -8.2229   24.5688  -29.7648 H   0  0  0  0  0  0  0  0  0  0  0  0
   -6.3175   26.1741  -29.7381 H   0  0  0  0  0  0  0  0  0  0  0  0
  1  2  1  0
  2  3  1  0
  3  4  2  0
  4  5  1  0
  5  6  1  0
  6  7  1  0
  7  8  1  0
  8  9  2  0
  8 10  1  0
 10 11  1  0
 11 12  2  0
 12 13  1  0
 13 14  2  0
 14 15  1  0
 15 16  1  0
 16 17  2  0
 17 18  1  0
 18 19  2  0
 19 20  1  0
 20 21  2  0
 14 22  1  0
 22 23  2  0
  5 24  2  0
 24 25  1  0
 25 26  2  0
 26 27  1  0
 26  3  1  0
 23 11  1  0
 21 16  1  0
  1 28  1  0
  1 29  1  0
  1 30  1  0
  4 31  1  0
  6 32  1  0
  6 33  1  0
  7 34  1  0
  7 35  1  0
 10 36  1  0
 12 37  1  0
 13 38  1  0
 17 39  1  0
 18 40  1  0
 19 41  1  0
 20 42  1  0
 21 43  1  0
 22 44  1  0
 23 45  1  0
 24 46  1  0
 25 47  1  0
M  CHG  2   7   1  27  -1
M  END
>  <UniqueID>  (41) 
40

>  <SMILES>  (41) 
COc1cc(C[NH2+]C(=S)Nc2ccc(Sc3ccccc3)cc2)ccc1[O-]

>  <Energy>  (41) 
49.32677311890857

>  <Genealogy>  (41) 
COc1cc(C[NH2+]C(=S)Nc2ccc(Sc3ccccc3)cc2)ccc1[O-] (protonated)
COc1cc(C[NH2+]C(=S)Nc2ccc(Sc3ccccc3)cc2)ccc1[O-] (3D coordinates assigned)
COc1cc(C[NH2+]C(=S)Nc2ccc(Sc3ccccc3)cc2)ccc1[O-] (optimized conformer: 49.32677311890857 kcal/mol)

>  <smiles>  (41) 
COc1cc(CNC(=S)Nc2ccc(Sc3ccccc3)cc2)ccc1O

>  <score_type>  (41) 
oracle

>  <origin>  (41) 
adgpu

>  <m_score__min__energy>  (41) 
-10.890000000000001

>  <m_primary>  (41) 
energy

$$$$
41:0
     RDKit          3D

 39 42  0  0  0  0  0  0  0  0999 V2000
   -0.2870   25.4070  -26.6680 C   0  0  0  0  0  0  0  0  0  0  0  0
   -1.1210   24.3720  -26.2460 C   0  0  0  0  0  0  0  0  0  0  0  0
   -2.2170   23.9970  -27.0260 C   0  0  0  0  0  0  0  0  0  0  0  0
   -2.4660   24.6670  -28.2400 C   0  0  0  0  0  0  0  0  0  0  0  0
   -3.6140   24.3290  -29.1150 C   0  0  0  0  0  0  0  0  0  0  0  0
   -4.6230   23.4300  -28.7300 C   0  0  0  0  0  0  0  0  0  0  0  0
   -5.6660   23.1550  -29.6120 C   0  0  0  0  0  0  0  0  0  0  0  0
   -5.6820   23.7720  -30.8610 C   0  0  0  0  0  0  0  0  0  0  0  0
   -7.0050   23.4420  -32.0220 S   0  0  0  0  0  0  0  0  0  0  0  0
   -6.1870   21.9670  -32.7180 C   0  0  0  0  0  0  0  0  0  0  0  0
   -7.0590   20.7530  -32.5090 C   0  0  0  0  0  0  0  0  0  0  0  0
   -8.2700   20.9140  -31.8120 C   0  0  0  0  0  0  0  0  0  0  0  0
   -9.1140   19.8290  -31.5840 C   0  0  0  0  0  0  0  0  0  0  0  0
   -8.7660   18.5600  -32.0370 C   0  0  0  0  0  0  0  0  0  0  0  0
   -7.5600   18.3600  -32.7210 C   0  0  0  0  0  0  0  0  0  0  0  0
   -7.2120   17.0740  -33.1640 C   0  0  0  0  0  0  0  0  0  0  0  0
   -6.0080   16.8610  -33.8350 C   0  0  0  0  0  0  0  0  0  0  0  0
   -5.1400   17.9270  -34.0690 C   0  0  0  0  0  0  0  0  0  0  0  0
   -5.4690   19.2140  -33.6360 C   0  0  0  0  0  0  0  0  0  0  0  0
   -6.6860   19.4560  -32.9600 C   0  0  0  0  0  0  0  0  0  0  0  0
   -4.6820   24.6260  -31.1960 N   0  0  0  0  0  0  0  0  0  0  0  0
   -3.6830   24.8920  -30.3530 N   0  0  0  0  0  0  0  0  0  0  0  0
   -1.6360   25.6820  -28.6160 N   0  0  0  0  0  0  0  0  0  0  0  0
   -0.5660   26.0600  -27.8680 C   0  0  0  0  0  0  0  0  0  0  0  0
    0.5809   25.7048  -26.0612 H   0  0  0  0  0  0  0  0  0  0  0  0
   -0.9156   23.8512  -25.2991 H   0  0  0  0  0  0  0  0  0  0  0  0
   -2.8808   23.1847  -26.6950 H   0  0  0  0  0  0  0  0  0  0  0  0
   -4.5898   22.9480  -27.7418 H   0  0  0  0  0  0  0  0  0  0  0  0
   -6.4678   22.4586  -29.3254 H   0  0  0  0  0  0  0  0  0  0  0  0
   -6.0202   22.1159  -33.7950 H   0  0  0  0  0  0  0  0  0  0  0  0
   -5.2227   21.8133  -32.2116 H   0  0  0  0  0  0  0  0  0  0  0  0
   -8.5547   21.9100  -31.4419 H   0  0  0  0  0  0  0  0  0  0  0  0
  -10.0604   19.9763  -31.0431 H   0  0  0  0  0  0  0  0  0  0  0  0
   -9.4409   17.7102  -31.8572 H   0  0  0  0  0  0  0  0  0  0  0  0
   -7.8928   16.2296  -32.9808 H   0  0  0  0  0  0  0  0  0  0  0  0
   -5.7428   15.8508  -34.1801 H   0  0  0  0  0  0  0  0  0  0  0  0
   -4.1910   17.7537  -34.5975 H   0  0  0  0  0  0  0  0  0  0  0  0
   -4.7745   20.0463  -33.8230 H   0  0  0  0  0  0  0  0  0  0  0  0
    0.0805   26.8818  -28.2096 H   0  0  0  0  0  0  0  0  0  0  0  0
  1  2  2  0
  2  3  1  0
  3  4  2  0
  4  5  1  0
  5  6  2  0
  6  7  1  0
  7  8  2  0
  8  9  1  0
  9 10  1  0
 10 11  1  0
 11 12  2  0
 12 13  1  0
 13 14  2  0
 14 15  1  0
 15 16  2  0
 16 17  1  0
 17 18  2  0
 18 19  1  0
 19 20  2  0
  8 21  1  0
 21 22  2  0
  4 23  1  0
 23 24  2  0
 24  1  1  0
 22  5  1  0
 20 11  1  0
 20 15  1  0
  1 25  1  0
  2 26  1  0
  3 27  1  0
  6 28  1  0
  7 29  1  0
 10 30  1  0
 10 31  1  0
 12 32  1  0
 13 33  1  0
 14 34  1  0
 16 35  1  0
 17 36  1  0
 18 37  1  0
 19 38  1  0
 24 39  1  0
M  END
>  <UniqueID>  (42) 
41

>  <SMILES>  (42) 
c1ccc(-c2ccc(SCc3cccc4ccccc34)nn2)nc1

>  <Energy>  (42) 
50.037308234725174

>  <Genealogy>  (42) 
c1ccc(-c2ccc(SCc3cccc4ccccc34)nn2)nc1 (3D coordinates assigned)
c1ccc(-c2ccc(SCc3cccc4ccccc34)nn2)nc1 (optimized conformer: 50.037308234725174 kcal/mol)

>  <smiles>  (42) 
c1ccc(-c2ccc(SCc3cccc4ccccc34)nn2)nc1

>  <score_type>  (42) 
oracle

>  <origin>  (42) 
adgpu

>  <m_score__min__energy>  (42) 
-10.56

>  <m_primary>  (42) 
energy

$$$$
42:0
     RDKit          3D

 51 54  0  0  0  0  0  0  0  0999 V2000
   -8.3460   22.1750  -30.6280 C   0  0  0  0  0  0  0  0  0  0  0  0
   -8.2140   22.9030  -31.8310 O   0  0  0  0  0  0  0  0  0  0  0  0
   -6.9810   22.5960  -32.4530 C   0  0  0  0  0  0  0  0  0  0  0  0
   -6.7010   21.1060  -32.4180 C   0  0  0  0  0  0  0  0  0  0  0  0
   -7.5910   20.2360  -33.0760 C   0  0  0  0  0  0  0  0  0  0  0  0
   -7.3800   18.8570  -33.0600 C   0  0  0  0  0  0  0  0  0  0  0  0
   -6.2740   18.3250  -32.3990 C   0  0  0  0  0  0  0  0  0  0  0  0
   -5.3660   19.1720  -31.7620 C   0  0  0  0  0  0  0  0  0  0  0  0
   -5.5610   20.5630  -31.7690 C   0  0  0  0  0  0  0  0  0  0  0  0
   -4.5380   21.4210  -31.1250 C   0  0  0  0  0  0  0  0  0  0  0  0
   -4.9350   22.2450  -30.0600 C   0  0  0  0  0  0  0  0  0  0  0  0
   -4.0290   23.1150  -29.4560 C   0  0  0  0  0  0  0  0  0  0  0  0
   -2.7050   23.1890  -29.9100 C   0  0  0  0  0  0  0  0  0  0  0  0
   -1.7440   24.1110  -29.2660 C   0  0  0  0  0  0  0  0  0  0  0  0
   -0.4880   23.7660  -28.9210 N   0  0  0  0  0  0  0  0  0  0  0  0
    0.0640   24.8330  -28.3720 N   0  0  0  0  0  0  0  0  0  0  0  0
   -0.8680   25.8040  -28.4040 C   0  0  0  0  0  0  0  0  0  0  0  0
   -0.6640   27.1650  -27.8220 C   0  0  0  0  0  0  0  0  0  0  0  0
   -0.6430   27.0840  -26.3210 C   0  0  0  0  0  0  0  0  0  0  0  0
    0.0230   28.0650  -25.5680 C   0  0  0  0  0  0  0  0  0  0  0  0
    0.0740   27.9670  -24.1740 C   0  0  0  0  0  0  0  0  0  0  0  0
   -0.5280   26.8860  -23.5230 C   0  0  0  0  0  0  0  0  0  0  0  0
   -0.4730   26.7910  -22.1720 F   0  0  0  0  0  0  0  0  0  0  0  0
   -1.1820   25.9000  -24.2670 C   0  0  0  0  0  0  0  0  0  0  0  0
   -1.2370   25.9950  -25.6620 C   0  0  0  0  0  0  0  0  0  0  0  0
   -2.0280   25.3920  -28.9500 N   0  0  0  0  0  0  0  0  0  0  0  0
   -2.3010   22.3720  -30.9800 C   0  0  0  0  0  0  0  0  0  0  0  0
   -3.2030   21.4850  -31.5970 C   0  0  0  0  0  0  0  0  0  0  0  0
   -2.7160   20.6140  -32.6960 C   0  0  0  0  0  0  0  0  0  0  0  0
   -2.4810   21.1450  -34.0020 N   0  0  0  0  0  0  0  0  0  0  0  0
   -2.4960   19.3920  -32.4840 O   0  0  0  0  0  0  0  0  0  0  0  0
   -8.2227   22.8552  -29.7724 H   0  0  0  0  0  0  0  0  0  0  0  0
   -9.3428   21.7116  -30.5873 H   0  0  0  0  0  0  0  0  0  0  0  0
   -7.5753   21.3911  -30.5873 H   0  0  0  0  0  0  0  0  0  0  0  0
   -7.0156   22.9294  -33.5007 H   0  0  0  0  0  0  0  0  0  0  0  0
   -6.1786   23.1126  -31.9060 H   0  0  0  0  0  0  0  0  0  0  0  0
   -8.4614   20.6476  -33.6080 H   0  0  0  0  0  0  0  0  0  0  0  0
   -8.0883   18.1878  -33.5703 H   0  0  0  0  0  0  0  0  0  0  0  0
   -6.1168   17.2365  -32.3795 H   0  0  0  0  0  0  0  0  0  0  0  0
   -4.4902   18.7467  -31.2501 H   0  0  0  0  0  0  0  0  0  0  0  0
   -5.9729   22.2035  -29.6981 H   0  0  0  0  0  0  0  0  0  0  0  0
   -4.3552   23.7478  -28.6174 H   0  0  0  0  0  0  0  0  0  0  0  0
    0.2930   27.5739  -28.1782 H   0  0  0  0  0  0  0  0  0  0  0  0
   -1.4897   27.8201  -28.1369 H   0  0  0  0  0  0  0  0  0  0  0  0
    0.5058   28.9127  -26.0763 H   0  0  0  0  0  0  0  0  0  0  0  0
    0.5891   28.7425  -23.5881 H   0  0  0  0  0  0  0  0  0  0  0  0
   -1.6540   25.0483  -23.7553 H   0  0  0  0  0  0  0  0  0  0  0  0
   -1.7473   25.2140  -26.2447 H   0  0  0  0  0  0  0  0  0  0  0  0
   -1.2633   22.4267  -31.3409 H   0  0  0  0  0  0  0  0  0  0  0  0
   -2.0950   20.5330  -34.7540 H   0  0  0  0  0  0  0  0  0  0  0  0
   -2.7420   22.1270  -34.2430 H   0  0  0  0  0  0  0  0  0  0  0  0
  1  2  1  0
  2  3  1  0
  3  4  1  0
  4  5  2  0
  5  6  1  0
  6  7  2  0
  7  8  1  0
  8  9  2  0
  9 10  1  0
 10 11  2  0
 11 12  1  0
 12 13  2  0
 13 14  1  0
 14 15  2  0
 15 16  1  0
 16 17  1  0
 17 18  1  0
 18 19  1  0
 19 20  2  0
 20 21  1  0
 21 22  2  0
 22 23  1  0
 22 24  1  0
 24 25  2  0
 17 26  2  0
 13 27  1  0
 27 28  2  0
 28 29  1  0
 29 30  1  0
 29 31  2  0
  9  4  1  0
 28 10  1  0
 26 14  1  0
 25 19  1  0
  1 32  1  0
  1 33  1  0
  1 34  1  0
  3 35  1  0
  3 36  1  0
  5 37  1  0
  6 38  1  0
  7 39  1  0
  8 40  1  0
 11 41  1  0
 12 42  1  0
 18 43  1  0
 18 44  1  0
 20 45  1  0
 21 46  1  0
 24 47  1  0
 25 48  1  0
 27 49  1  0
 30 50  1  0
 30 51  1  0
M  CHG  1  16  -1
M  END
>  <UniqueID>  (43) 
42

>  <SMILES>  (43) 
COCc1ccccc1-c1ccc(-c2n[n-]c(Cc3ccc(F)cc3)n2)cc1C(N)=O

>  <Energy>  (43) 
99.60321157263392

>  <Genealogy>  (43) 
COCc1ccccc1-c1ccc(-c2n[n-]c(Cc3ccc(F)cc3)n2)cc1C(N)=O (protonated)
COCc1ccccc1-c1ccc(-c2n[n-]c(Cc3ccc(F)cc3)n2)cc1C(N)=O (3D coordinates assigned)
COCc1ccccc1-c1ccc(-c2n[n-]c(Cc3ccc(F)cc3)n2)cc1C(N)=O (optimized conformer: 99.60321157263392 kcal/mol)

>  <smiles>  (43) 
COCc1ccccc1-c1ccc(-c2n[nH]c(Cc3ccc(F)cc3)n2)cc1C(N)=O

>  <score_type>  (43) 
oracle

>  <origin>  (43) 
adgpu

>  <m_score__min__energy>  (43) 
-10.02

>  <m_primary>  (43) 
energy

$$$$
43:0
     RDKit          3D

 43 45  0  0  0  0  0  0  0  0999 V2000
   -0.7620   19.8660  -29.0610 C   0  0  0  0  0  0  0  0  0  0  0  0
   -0.4690   19.8150  -30.4540 O   0  0  0  0  0  0  0  0  0  0  0  0
   -1.4060   20.0570  -31.4730 C   0  0  0  0  0  0  0  0  0  0  0  0
   -1.8210   19.0460  -32.3630 C   0  0  0  0  0  0  0  0  0  0  0  0
   -2.7620   19.3230  -33.3560 C   0  0  0  0  0  0  0  0  0  0  0  0
   -3.2950   20.6050  -33.4760 C   0  0  0  0  0  0  0  0  0  0  0  0
   -2.8890   21.6170  -32.6040 C   0  0  0  0  0  0  0  0  0  0  0  0
   -1.9450   21.3500  -31.5940 C   0  0  0  0  0  0  0  0  0  0  0  0
   -1.5320   22.3590  -30.6610 N   0  0  0  0  0  0  0  0  0  0  0  0
   -2.5830   23.2170  -29.5780 S   0  0  0  0  0  0  0  0  0  0  0  0
   -2.6530   22.4700  -28.2770 O   0  0  0  0  0  0  0  0  0  0  0  0
   -2.0150   24.5860  -29.3310 O   0  0  0  0  0  0  0  0  0  0  0  0
   -4.2120   23.3330  -30.2540 C   0  0  0  0  0  0  0  0  0  0  0  0
   -5.0560   22.2130  -30.2320 C   0  0  0  0  0  0  0  0  0  0  0  0
   -6.3350   22.2710  -30.8130 C   0  0  0  0  0  0  0  0  0  0  0  0
   -7.2090   21.1350  -30.8310 N   0  0  0  0  0  0  0  0  0  0  0  0
   -7.7780   20.5240  -32.0000 C   0  0  0  0  0  0  0  0  0  0  0  0
   -8.8940   20.9200  -32.4380 O   0  0  0  0  0  0  0  0  0  0  0  0
   -7.0840   19.3970  -32.6620 C   0  0  0  0  0  0  0  0  0  0  0  0
   -7.0510   18.1240  -32.0600 C   0  0  0  0  0  0  0  0  0  0  0  0
   -6.3950   17.0600  -32.6870 C   0  0  0  0  0  0  0  0  0  0  0  0
   -5.7670   17.2530  -33.9190 C   0  0  0  0  0  0  0  0  0  0  0  0
   -5.7920   18.5090  -34.5280 C   0  0  0  0  0  0  0  0  0  0  0  0
   -6.4470   19.5770  -33.9050 C   0  0  0  0  0  0  0  0  0  0  0  0
   -6.7890   23.4820  -31.3500 C   0  0  0  0  0  0  0  0  0  0  0  0
   -5.9630   24.6070  -31.3510 C   0  0  0  0  0  0  0  0  0  0  0  0
   -4.6750   24.5370  -30.8110 C   0  0  0  0  0  0  0  0  0  0  0  0
   -3.8670   25.6700  -30.8250 O   0  0  0  0  0  0  0  0  0  0  0  0
    0.1618   19.7052  -28.4859 H   0  0  0  0  0  0  0  0  0  0  0  0
   -1.1830   20.8509  -28.8107 H   0  0  0  0  0  0  0  0  0  0  0  0
   -1.4910   19.0812  -28.8107 H   0  0  0  0  0  0  0  0  0  0  0  0
   -1.4010   18.0332  -32.2746 H   0  0  0  0  0  0  0  0  0  0  0  0
   -3.0834   18.5280  -34.0450 H   0  0  0  0  0  0  0  0  0  0  0  0
   -4.0369   20.8200  -34.2591 H   0  0  0  0  0  0  0  0  0  0  0  0
   -3.3089   22.6285  -32.7066 H   0  0  0  0  0  0  0  0  0  0  0  0
   -4.7145   21.2818  -29.7564 H   0  0  0  0  0  0  0  0  0  0  0  0
   -7.5447   17.9657  -31.0899 H   0  0  0  0  0  0  0  0  0  0  0  0
   -6.3737   16.0696  -32.2089 H   0  0  0  0  0  0  0  0  0  0  0  0
   -5.2519   16.4144  -34.4104 H   0  0  0  0  0  0  0  0  0  0  0  0
   -5.2963   18.6591  -35.4985 H   0  0  0  0  0  0  0  0  0  0  0  0
   -6.4645   20.5643  -34.3896 H   0  0  0  0  0  0  0  0  0  0  0  0
   -7.8022   23.5469  -31.7734 H   0  0  0  0  0  0  0  0  0  0  0  0
   -6.3268   25.5530  -31.7785 H   0  0  0  0  0  0  0  0  0  0  0  0
  1  2  1  0
  2  3  1  0
  3  4  2  0
  4  5  1  0
  5  6  2  0
  6  7  1  0
  7  8  2  0
  8  9  1  0
  9 10  1  0
 10 11  2  0
 10 12  2  0
 10 13  1  0
 13 14  2  0
 14 15  1  0
 15 16  1  0
 16 17  1  0
 17 18  2  0
 17 19  1  0
 19 20  2  0
 20 21  1  0
 21 22  2  0
 22 23  1  0
 23 24  2  0
 15 25  2  0
 25 26  1  0
 26 27  2  0
 27 28  1  0
  8  3  1  0
 27 13  1  0
 24 19  1  0
  1 29  1  0
  1 30  1  0
  1 31  1  0
  4 32  1  0
  5 33  1  0
  6 34  1  0
  7 35  1  0
 14 36  1  0
 20 37  1  0
 21 38  1  0
 22 39  1  0
 23 40  1  0
 24 41  1  0
 25 42  1  0
 26 43  1  0
M  CHG  3   9  -1  16  -1  28  -1
M  END
>  <UniqueID>  (44) 
43

>  <SMILES>  (44) 
COc1ccccc1[N-]S(=O)(=O)c1cc([N-]C(=O)c2ccccc2)ccc1[O-]

>  <Energy>  (44) 
52.90546960392223

>  <Genealogy>  (44) 
COc1ccccc1[N-]S(=O)(=O)c1cc([N-]C(=O)c2ccccc2)ccc1[O-] (protonated)
COc1ccccc1[N-]S(=O)(=O)c1cc([N-]C(=O)c2ccccc2)ccc1[O-] (3D coordinates assigned)
COc1ccccc1[N-]S(=O)(=O)c1cc([N-]C(=O)c2ccccc2)ccc1[O-] (optimized conformer: 52.90546960392223 kcal/mol)

>  <smiles>  (44) 
COc1ccccc1NS(=O)(=O)c1cc(NC(=O)c2ccccc2)ccc1O

>  <score_type>  (44) 
oracle

>  <origin>  (44) 
adgpu

>  <m_score__min__energy>  (44) 
-12.92

>  <m_primary>  (44) 
energy

$$$$
44:0
     RDKit          3D

 39 41  0  0  0  0  0  0  0  0999 V2000
   -6.8100   17.4060  -33.6420 C   0  0  0  0  0  0  0  0  0  0  0  0
   -7.3370   18.6550  -33.0590 N   0  0  0  0  0  0  0  0  0  0  0  0
   -7.5010   18.4910  -31.6040 C   0  0  0  0  0  0  0  0  0  0  0  0
   -6.4420   19.8020  -33.3390 C   0  0  0  0  0  0  0  0  0  0  0  0
   -6.7050   20.9640  -32.4090 C   0  0  0  0  0  0  0  0  0  0  0  0
   -8.0150   21.4270  -32.2010 C   0  0  0  0  0  0  0  0  0  0  0  0
   -8.2530   22.4910  -31.3300 C   0  0  0  0  0  0  0  0  0  0  0  0
   -7.1920   23.1000  -30.6560 C   0  0  0  0  0  0  0  0  0  0  0  0
   -5.8760   22.6430  -30.8430 C   0  0  0  0  0  0  0  0  0  0  0  0
   -4.7490   23.2910  -30.1250 C   0  0  0  0  0  0  0  0  0  0  0  0
   -4.0190   22.5690  -29.1700 C   0  0  0  0  0  0  0  0  0  0  0  0
   -2.9650   23.1840  -28.4900 C   0  0  0  0  0  0  0  0  0  0  0  0
   -2.2160   22.4990  -27.5220 C   0  0  0  0  0  0  0  0  0  0  0  0
   -1.1700   23.1500  -26.8600 C   0  0  0  0  0  0  0  0  0  0  0  0
   -0.8700   24.4820  -27.1610 C   0  0  0  0  0  0  0  0  0  0  0  0
   -1.6130   25.1710  -28.1250 C   0  0  0  0  0  0  0  0  0  0  0  0
   -2.6620   24.5280  -28.7920 C   0  0  0  0  0  0  0  0  0  0  0  0
   -3.3660   25.1830  -29.7090 O   0  0  0  0  0  0  0  0  0  0  0  0
   -4.3740   24.6280  -30.3760 C   0  0  0  0  0  0  0  0  0  0  0  0
   -4.9770   25.3100  -31.2480 O   0  0  0  0  0  0  0  0  0  0  0  0
   -5.6410   21.5750  -31.7270 C   0  0  0  0  0  0  0  0  0  0  0  0
   -6.5198   16.7182  -32.8341 H   0  0  0  0  0  0  0  0  0  0  0  0
   -7.5862   16.9353  -34.2632 H   0  0  0  0  0  0  0  0  0  0  0  0
   -5.9312   17.6336  -34.2632 H   0  0  0  0  0  0  0  0  0  0  0  0
   -8.2830   18.8410  -33.4680 H   0  0  0  0  0  0  0  0  0  0  0  0
   -6.8176   19.1744  -31.0787 H   0  0  0  0  0  0  0  0  0  0  0  0
   -8.5390   18.7232  -31.3235 H   0  0  0  0  0  0  0  0  0  0  0  0
   -7.2688   17.4530  -31.3235 H   0  0  0  0  0  0  0  0  0  0  0  0
   -5.3984   19.4769  -33.2153 H   0  0  0  0  0  0  0  0  0  0  0  0
   -6.6335   20.1397  -34.3682 H   0  0  0  0  0  0  0  0  0  0  0  0
   -8.8554   20.9495  -32.7261 H   0  0  0  0  0  0  0  0  0  0  0  0
   -9.2804   22.8516  -31.1736 H   0  0  0  0  0  0  0  0  0  0  0  0
   -7.3873   23.9417  -29.9753 H   0  0  0  0  0  0  0  0  0  0  0  0
   -4.2757   21.5208  -28.9568 H   0  0  0  0  0  0  0  0  0  0  0  0
   -2.4509   21.4511  -27.2838 H   0  0  0  0  0  0  0  0  0  0  0  0
   -0.5822   22.6130  -26.1010 H   0  0  0  0  0  0  0  0  0  0  0  0
   -0.0465   24.9900  -26.6377 H   0  0  0  0  0  0  0  0  0  0  0  0
   -1.3728   26.2186  -28.3590 H   0  0  0  0  0  0  0  0  0  0  0  0
   -4.6138   21.2149  -31.8856 H   0  0  0  0  0  0  0  0  0  0  0  0
  1  2  1  0
  2  3  1  0
  2  4  1  0
  4  5  1  0
  5  6  2  0
  6  7  1  0
  7  8  2  0
  8  9  1  0
  9 10  1  0
 10 11  2  0
 11 12  1  0
 12 13  2  0
 13 14  1  0
 14 15  2  0
 15 16  1  0
 16 17  2  0
 17 18  1  0
 18 19  1  0
 19 20  2  0
  9 21  2  0
 21  5  1  0
 19 10  1  0
 17 12  1  0
  1 22  1  0
  1 23  1  0
  1 24  1  0
  2 25  1  0
  3 26  1  0
  3 27  1  0
  3 28  1  0
  4 29  1  0
  4 30  1  0
  6 31  1  0
  7 32  1  0
  8 33  1  0
 11 34  1  0
 13 35  1  0
 14 36  1  0
 15 37  1  0
 16 38  1  0
 21 39  1  0
M  CHG  1   2   1
M  END
>  <UniqueID>  (45) 
44

>  <SMILES>  (45) 
C[NH+](C)Cc1cccc(-c2cc3ccccc3oc2=O)c1

>  <Energy>  (45) 
51.980487431657906

>  <Genealogy>  (45) 
C[NH+](C)Cc1cccc(-c2cc3ccccc3oc2=O)c1 (protonated)
C[NH+](C)Cc1cccc(-c2cc3ccccc3oc2=O)c1 (3D coordinates assigned)
C[NH+](C)Cc1cccc(-c2cc3ccccc3oc2=O)c1 (optimized conformer: 51.980487431657906 kcal/mol)

>  <smiles>  (45) 
CN(C)Cc1cccc(-c2cc3ccccc3oc2=O)c1

>  <score_type>  (45) 
oracle

>  <origin>  (45) 
adgpu

>  <m_score__min__energy>  (45) 
-8.0500000000000007

>  <m_primary>  (45) 
energy

$$$$
45:0
     RDKit          3D

 38 39  0  0  0  0  0  0  0  0999 V2000
   -2.4760   22.8200  -30.2870 O   0  0  0  0  0  0  0  0  0  0  0  0
   -3.4160   23.8060  -29.6540 S   0  0  0  0  0  0  0  0  0  0  0  0
   -4.6200   23.0690  -29.1380 O   0  0  0  0  0  0  0  0  0  0  0  0
   -3.9000   24.9800  -30.8410 N   0  0  0  0  0  0  0  0  0  0  0  0
   -5.1500   25.6440  -30.4590 C   0  0  0  0  0  0  0  0  0  0  0  0
   -6.3710   24.7620  -30.7640 C   0  0  0  0  0  0  0  0  0  0  0  0
   -6.1560   23.7770  -31.9270 C   0  0  0  0  0  0  0  0  0  0  0  0
   -5.3890   22.5890  -31.5130 N   0  0  0  0  0  0  0  0  0  0  0  0
   -5.3520   21.5610  -32.5670 C   0  0  0  0  0  0  0  0  0  0  0  0
   -6.5370   20.6280  -32.4850 C   0  0  0  0  0  0  0  0  0  0  0  0
   -6.3880   19.2680  -32.8050 C   0  0  0  0  0  0  0  0  0  0  0  0
   -7.4780   18.3970  -32.7020 C   0  0  0  0  0  0  0  0  0  0  0  0
   -8.7180   18.8760  -32.2740 C   0  0  0  0  0  0  0  0  0  0  0  0
   -8.8740   20.2260  -31.9480 C   0  0  0  0  0  0  0  0  0  0  0  0
   -7.7880   21.1000  -32.0510 C   0  0  0  0  0  0  0  0  0  0  0  0
   -2.5950   24.6010  -28.3220 C   0  0  0  0  0  0  0  0  0  0  0  0
   -2.9510   24.5070  -26.9860 C   0  0  0  0  0  0  0  0  0  0  0  0
   -2.1020   25.2350  -26.1440 C   0  0  0  0  0  0  0  0  0  0  0  0
   -1.0820   25.8970  -26.8170 C   0  0  0  0  0  0  0  0  0  0  0  0
   -1.2350   25.5750  -28.4640 S   0  0  0  0  0  0  0  0  0  0  0  0
   -5.1252   25.8599  -29.3807 H   0  0  0  0  0  0  0  0  0  0  0  0
   -5.2402   26.5726  -31.0418 H   0  0  0  0  0  0  0  0  0  0  0  0
   -6.6140   24.1832  -29.8607 H   0  0  0  0  0  0  0  0  0  0  0  0
   -7.1849   25.4379  -31.0653 H   0  0  0  0  0  0  0  0  0  0  0  0
   -7.1375   23.4522  -32.3027 H   0  0  0  0  0  0  0  0  0  0  0  0
   -5.5811   24.2958  -32.7082 H   0  0  0  0  0  0  0  0  0  0  0  0
   -4.4020   22.8730  -31.3050 H   0  0  0  0  0  0  0  0  0  0  0  0
   -5.8030   22.1760  -30.6450 H   0  0  0  0  0  0  0  0  0  0  0  0
   -5.3575   22.0576  -33.5485 H   0  0  0  0  0  0  0  0  0  0  0  0
   -4.4380   20.9645  -32.4297 H   0  0  0  0  0  0  0  0  0  0  0  0
   -5.4112   18.8869  -33.1376 H   0  0  0  0  0  0  0  0  0  0  0  0
   -7.3582   17.3340  -32.9584 H   0  0  0  0  0  0  0  0  0  0  0  0
   -9.5736   18.1894  -32.1933 H   0  0  0  0  0  0  0  0  0  0  0  0
   -9.8515   20.6008  -31.6103 H   0  0  0  0  0  0  0  0  0  0  0  0
   -7.9128   22.1616  -31.7914 H   0  0  0  0  0  0  0  0  0  0  0  0
   -3.8100   23.9221  -26.6253 H   0  0  0  0  0  0  0  0  0  0  0  0
   -2.2301   25.2789  -25.0524 H   0  0  0  0  0  0  0  0  0  0  0  0
   -0.3066   26.5245  -26.3533 H   0  0  0  0  0  0  0  0  0  0  0  0
  1  2  2  0
  2  3  2  0
  2  4  1  0
  4  5  1  0
  5  6  1  0
  6  7  1  0
  7  8  1  0
  8  9  1  0
  9 10  1  0
 10 11  2  0
 11 12  1  0
 12 13  2  0
 13 14  1  0
 14 15  2  0
  2 16  1  0
 16 17  2  0
 17 18  1  0
 18 19  2  0
 19 20  1  0
 15 10  1  0
 20 16  1  0
  5 21  1  0
  5 22  1  0
  6 23  1  0
  6 24  1  0
  7 25  1  0
  7 26  1  0
  8 27  1  0
  8 28  1  0
  9 29  1  0
  9 30  1  0
 11 31  1  0
 12 32  1  0
 13 33  1  0
 14 34  1  0
 15 35  1  0
 17 36  1  0
 18 37  1  0
 19 38  1  0
M  CHG  2   4  -1   8   1
M  END
>  <UniqueID>  (46) 
45

>  <SMILES>  (46) 
O=S(=O)([N-]CCC[NH2+]Cc1ccccc1)c1cccs1

>  <Energy>  (46) 
60.363706058218646

>  <Genealogy>  (46) 
O=S(=O)([N-]CCC[NH2+]Cc1ccccc1)c1cccs1 (protonated)
O=S(=O)([N-]CCC[NH2+]Cc1ccccc1)c1cccs1 (3D coordinates assigned)
O=S(=O)([N-]CCC[NH2+]Cc1ccccc1)c1cccs1 (optimized conformer: 60.363706058218646 kcal/mol)

>  <smiles>  (46) 
O=S(=O)(NCCCNCc1ccccc1)c1cccs1

>  <score_type>  (46) 
oracle

>  <origin>  (46) 
adgpu

>  <m_score__min__energy>  (46) 
-7.4100000000000001

>  <m_primary>  (46) 
energy

$$$$
46:0
     RDKit          3D

 47 51  0  0  0  0  0  0  0  0999 V2000
    1.2060   26.7520  -23.6200 O   0  0  0  0  0  0  0  0  0  0  0  0
    0.2730   25.7420  -23.9230 C   0  0  0  0  0  0  0  0  0  0  0  0
   -0.8330   26.2770  -24.8680 C   0  0  0  0  0  0  0  0  0  0  0  0
   -0.6520   25.8040  -26.3140 C   0  0  0  0  0  0  0  0  0  0  0  0
   -0.5910   24.3330  -26.3680 N   0  0  0  0  0  0  0  0  0  0  0  0
   -1.0650   23.6430  -27.5460 C   0  0  0  0  0  0  0  0  0  0  0  0
   -2.1370   24.1460  -28.3070 C   0  0  0  0  0  0  0  0  0  0  0  0
   -2.5670   23.4550  -29.4500 C   0  0  0  0  0  0  0  0  0  0  0  0
   -3.7070   23.9750  -30.2350 C   0  0  0  0  0  0  0  0  0  0  0  0
   -3.9020   25.2920  -30.4900 N   0  0  0  0  0  0  0  0  0  0  0  0
   -5.0140   25.4410  -31.2020 N   0  0  0  0  0  0  0  0  0  0  0  0
   -5.5220   24.2130  -31.4020 C   0  0  0  0  0  0  0  0  0  0  0  0
   -6.6570   23.8630  -32.1180 C   0  0  0  0  0  0  0  0  0  0  0  0
   -6.9630   22.5370  -32.2280 N   0  0  0  0  0  0  0  0  0  0  0  0
   -6.1880   21.5490  -31.6660 C   0  0  0  0  0  0  0  0  0  0  0  0
   -6.5920   20.1290  -31.8390 C   0  0  0  0  0  0  0  0  0  0  0  0
   -5.6360   19.1020  -31.9610 C   0  0  0  0  0  0  0  0  0  0  0  0
   -6.0560   17.7780  -32.1040 C   0  0  0  0  0  0  0  0  0  0  0  0
   -7.3820   17.4790  -32.1160 N   0  0  0  0  0  0  0  0  0  0  0  0
   -8.3300   18.4440  -31.9970 C   0  0  0  0  0  0  0  0  0  0  0  0
   -7.9540   19.7820  -31.8520 C   0  0  0  0  0  0  0  0  0  0  0  0
   -5.0190   21.9050  -30.9500 C   0  0  0  0  0  0  0  0  0  0  0  0
   -4.7370   23.2640  -30.8220 C   0  0  0  0  0  0  0  0  0  0  0  0
   -1.9340   22.2540  -29.8000 C   0  0  0  0  0  0  0  0  0  0  0  0
   -0.8710   21.7870  -29.0270 C   0  0  0  0  0  0  0  0  0  0  0  0
   -0.4640   22.4830  -27.9340 N   0  0  0  0  0  0  0  0  0  0  0  0
    0.0590   23.5890  -25.2730 C   0  0  0  0  0  0  0  0  0  0  0  0
    1.0000   24.4930  -24.4690 C   0  0  0  0  0  0  0  0  0  0  0  0
    1.4240   26.6750  -22.6540 H   0  0  0  0  0  0  0  0  0  0  0  0
   -0.2431   25.4296  -23.0032 H   0  0  0  0  0  0  0  0  0  0  0  0
   -1.8092   25.9260  -24.5021 H   0  0  0  0  0  0  0  0  0  0  0  0
   -0.7701   27.3752  -24.8664 H   0  0  0  0  0  0  0  0  0  0  0  0
   -1.5012   26.1542  -26.9191 H   0  0  0  0  0  0  0  0  0  0  0  0
    0.2884   26.2154  -26.7095 H   0  0  0  0  0  0  0  0  0  0  0  0
   -2.6366   25.0788  -28.0063 H   0  0  0  0  0  0  0  0  0  0  0  0
   -7.2920   24.6311  -32.5836 H   0  0  0  0  0  0  0  0  0  0  0  0
   -4.5626   19.3419  -31.9437 H   0  0  0  0  0  0  0  0  0  0  0  0
   -5.3117   16.9747  -32.2072 H   0  0  0  0  0  0  0  0  0  0  0  0
   -9.3957   18.1720  -32.0148 H   0  0  0  0  0  0  0  0  0  0  0  0
   -8.7224   20.5622  -31.7482 H   0  0  0  0  0  0  0  0  0  0  0  0
   -4.3604   21.1401  -30.5127 H   0  0  0  0  0  0  0  0  0  0  0  0
   -2.2731   21.6842  -30.6777 H   0  0  0  0  0  0  0  0  0  0  0  0
   -0.3609   20.8524  -29.3034 H   0  0  0  0  0  0  0  0  0  0  0  0
   -0.7155   23.1900  -24.6014 H   0  0  0  0  0  0  0  0  0  0  0  0
    0.6516   22.7724  -25.7112 H   0  0  0  0  0  0  0  0  0  0  0  0
    1.4065   23.9199  -23.6226 H   0  0  0  0  0  0  0  0  0  0  0  0
    1.8025   24.8323  -25.1405 H   0  0  0  0  0  0  0  0  0  0  0  0
  1  2  1  0
  2  3  1  0
  3  4  1  0
  4  5  1  0
  5  6  1  0
  6  7  2  0
  7  8  1  0
  8  9  1  0
  9 10  1  0
 10 11  1  0
 11 12  2  0
 12 13  1  0
 13 14  2  0
 14 15  1  0
 15 16  1  0
 16 17  2  0
 17 18  1  0
 18 19  2  0
 19 20  1  0
 20 21  2  0
 15 22  2  0
 22 23  1  0
  8 24  2  0
 24 25  1  0
 25 26  2  0
  5 27  1  0
 27 28  1  0
 28  2  1  0
 26  6  1  0
 23  9  2  0
 23 12  1  0
 21 16  1  0
  1 29  1  0
  2 30  1  0
  3 31  1  0
  3 32  1  0
  4 33  1  0
  4 34  1  0
  7 35  1  0
 13 36  1  0
 17 37  1  0
 18 38  1  0
 20 39  1  0
 21 40  1  0
 22 41  1  0
 24 42  1  0
 25 43  1  0
 27 44  1  0
 27 45  1  0
 28 46  1  0
 28 47  1  0
M  CHG  1  10  -1
M  END
>  <UniqueID>  (47) 
46

>  <SMILES>  (47) 
OC1CCN(c2cc(-c3[n-]nc4cnc(-c5ccncc5)cc34)ccn2)CC1

>  <Energy>  (47) 
105.99778116339998

>  <Genealogy>  (47) 
OC1CCN(c2cc(-c3[n-]nc4cnc(-c5ccncc5)cc34)ccn2)CC1 (protonated)
OC1CCN(c2cc(-c3[n-]nc4cnc(-c5ccncc5)cc34)ccn2)CC1 (3D coordinates assigned)
OC1CCN(c2cc(-c3[n-]nc4cnc(-c5ccncc5)cc34)ccn2)CC1 (nonaromatic ring conformer: 105.99778116339998 kcal/mol)

>  <smiles>  (47) 
OC1CCN(c2cc(-c3[nH]nc4cnc(-c5ccncc5)cc34)ccn2)CC1

>  <score_type>  (47) 
oracle

>  <origin>  (47) 
adgpu

>  <m_score__min__energy>  (47) 
-11.06

>  <m_primary>  (47) 
energy

$$$$
47:0
     RDKit          3D

 49 51  0  0  0  0  0  0  0  0999 V2000
   -1.7370   21.1650  -32.0480 C   0  0  0  0  0  0  0  0  0  0  0  0
   -2.6210   20.0530  -31.9460 O   0  0  0  0  0  0  0  0  0  0  0  0
   -2.8350   19.0610  -32.9240 C   0  0  0  0  0  0  0  0  0  0  0  0
   -4.1400   18.9030  -33.4240 C   0  0  0  0  0  0  0  0  0  0  0  0
   -5.2290   19.7760  -32.9250 C   0  0  0  0  0  0  0  0  0  0  0  0
   -6.4220   19.2110  -32.4510 C   0  0  0  0  0  0  0  0  0  0  0  0
   -7.4630   20.0260  -31.9750 C   0  0  0  0  0  0  0  0  0  0  0  0
   -8.7310   19.3820  -31.4800 C   0  0  0  0  0  0  0  0  0  0  0  0
   -7.2830   21.4290  -31.9480 C   0  0  0  0  0  0  0  0  0  0  0  0
   -6.0960   21.9900  -32.4400 C   0  0  0  0  0  0  0  0  0  0  0  0
   -5.0790   21.1670  -32.9380 C   0  0  0  0  0  0  0  0  0  0  0  0
   -5.9760   23.4910  -32.4810 C   0  0  0  0  0  0  0  0  0  0  0  0
   -6.4810   24.1350  -31.2440 N   0  0  0  0  0  0  0  0  0  0  0  0
   -5.1740   24.4460  -30.1240 S   0  0  0  0  0  0  0  0  0  0  0  0
   -4.5050   22.9250  -29.4780 C   0  0  0  0  0  0  0  0  0  0  0  0
   -5.6760   25.2870  -28.9820 O   0  0  0  0  0  0  0  0  0  0  0  0
   -4.0810   25.1990  -30.8310 O   0  0  0  0  0  0  0  0  0  0  0  0
   -7.6120   23.4520  -30.5580 C   0  0  0  0  0  0  0  0  0  0  0  0
   -8.3130   22.3940  -31.4230 C   0  0  0  0  0  0  0  0  0  0  0  0
   -4.3850   17.9220  -34.4030 C   0  0  0  0  0  0  0  0  0  0  0  0
   -5.7470   17.7000  -34.9940 C   0  0  0  0  0  0  0  0  0  0  0  0
   -3.3620   17.1350  -34.8210 N   0  0  0  0  0  0  0  0  0  0  0  0
   -2.1190   17.2650  -34.3540 N   0  0  0  0  0  0  0  0  0  0  0  0
   -1.0840   16.3690  -34.8730 C   0  0  0  0  0  0  0  0  0  0  0  0
   -1.8170   18.2130  -33.4150 C   0  0  0  0  0  0  0  0  0  0  0  0
   -0.6330   18.3180  -32.9940 O   0  0  0  0  0  0  0  0  0  0  0  0
   -1.4632   21.5094  -31.0398 H   0  0  0  0  0  0  0  0  0  0  0  0
   -0.8295   20.8633  -32.5915 H   0  0  0  0  0  0  0  0  0  0  0  0
   -2.2356   21.9811  -32.5915 H   0  0  0  0  0  0  0  0  0  0  0  0
   -6.5441   18.1178  -32.4519 H   0  0  0  0  0  0  0  0  0  0  0  0
   -8.7358   19.3796  -30.3800 H   0  0  0  0  0  0  0  0  0  0  0  0
   -9.5984   19.9488  -31.8492 H   0  0  0  0  0  0  0  0  0  0  0  0
   -8.7850   18.3472  -31.8492 H   0  0  0  0  0  0  0  0  0  0  0  0
   -4.1589   21.6154  -33.3409 H   0  0  0  0  0  0  0  0  0  0  0  0
   -4.9164   23.7568  -32.6098 H   0  0  0  0  0  0  0  0  0  0  0  0
   -6.5885   23.8525  -33.3201 H   0  0  0  0  0  0  0  0  0  0  0  0
   -4.5187   22.9562  -28.3785 H   0  0  0  0  0  0  0  0  0  0  0  0
   -5.1139   22.0786  -29.8284 H   0  0  0  0  0  0  0  0  0  0  0  0
   -3.4696   22.8018  -29.8284 H   0  0  0  0  0  0  0  0  0  0  0  0
   -7.2232   22.9594  -29.6546 H   0  0  0  0  0  0  0  0  0  0  0  0
   -8.3604   24.2244  -30.3270 H   0  0  0  0  0  0  0  0  0  0  0  0
   -9.0513   21.8507  -30.8150 H   0  0  0  0  0  0  0  0  0  0  0  0
   -8.8271   22.8826  -32.2638 H   0  0  0  0  0  0  0  0  0  0  0  0
   -6.4826   17.5801  -34.1850 H   0  0  0  0  0  0  0  0  0  0  0  0
   -6.0227   18.5651  -35.6150 H   0  0  0  0  0  0  0  0  0  0  0  0
   -5.7337   16.7922  -35.6150 H   0  0  0  0  0  0  0  0  0  0  0  0
   -0.5468   15.9040  -34.0332 H   0  0  0  0  0  0  0  0  0  0  0  0
   -1.5516   15.5859  -35.4879 H   0  0  0  0  0  0  0  0  0  0  0  0
   -0.3759   16.9440  -35.4879 H   0  0  0  0  0  0  0  0  0  0  0  0
  1  2  1  0
  2  3  1  0
  3  4  2  0
  4  5  1  0
  5  6  2  0
  6  7  1  0
  7  8  1  0
  7  9  2  0
  9 10  1  0
 10 11  2  0
 10 12  1  0
 12 13  1  0
 13 14  1  0
 14 15  1  0
 14 16  2  0
 14 17  2  0
 13 18  1  0
 18 19  1  0
  4 20  1  0
 20 21  1  0
 20 22  2  0
 22 23  1  0
 23 24  1  0
 23 25  1  0
 25 26  2  0
 25  3  1  0
 11  5  1  0
 19  9  1  0
  1 27  1  0
  1 28  1  0
  1 29  1  0
  6 30  1  0
  8 31  1  0
  8 32  1  0
  8 33  1  0
 11 34  1  0
 12 35  1  0
 12 36  1  0
 15 37  1  0
 15 38  1  0
 15 39  1  0
 18 40  1  0
 18 41  1  0
 19 42  1  0
 19 43  1  0
 21 44  1  0
 21 45  1  0
 21 46  1  0
 24 47  1  0
 24 48  1  0
 24 49  1  0
M  END
>  <UniqueID>  (48) 
47

>  <SMILES>  (48) 
COc1c(-c2cc(C)c3c(c2)CN(S(C)(=O)=O)CC3)c(C)nn(C)c1=O

>  <Energy>  (48) 
64.99938617828646

>  <Genealogy>  (48) 
COc1c(-c2cc(C)c3c(c2)CN(S(C)(=O)=O)CC3)c(C)nn(C)c1=O (3D coordinates assigned)
COc1c(-c2cc(C)c3c(c2)CN(S(C)(=O)=O)CC3)c(C)nn(C)c1=O (nonaromatic ring conformer: 64.99938617828646 kcal/mol)

>  <smiles>  (48) 
COc1c(-c2cc(C)c3c(c2)CN(S(C)(=O)=O)CC3)c(C)nn(C)c1=O

>  <score_type>  (48) 
oracle

>  <origin>  (48) 
adgpu

>  <m_score__min__energy>  (48) 
-8.9399999999999995

>  <m_primary>  (48) 
energy

$$$$
48:0
     RDKit          3D

 44 47  0  0  0  0  0  0  0  0999 V2000
   -3.9213   22.8313  -27.9527 H   0  0  0  0  0  0  0  0  0  0  0  0
   -3.4370   22.1890  -28.7030 C   0  0  0  0  0  0  0  0  0  0  0  0
   -3.5910   22.5080  -29.9960 C   0  0  0  0  0  0  0  0  0  0  0  0
   -3.0911   21.8923  -30.7582 H   0  0  0  0  0  0  0  0  0  0  0  0
   -4.4090   23.6580  -30.4320 C   0  0  0  0  0  0  0  0  0  0  0  0
   -3.9550   24.9260  -30.3400 N   0  0  0  0  0  0  0  0  0  0  0  0
   -4.9820   25.6820  -30.7790 C   0  0  0  0  0  0  0  0  0  0  0  0
   -4.9785   26.7801  -30.8435 H   0  0  0  0  0  0  0  0  0  0  0  0
   -6.0350   24.8700  -31.1340 C   0  0  0  0  0  0  0  0  0  0  0  0
   -7.0079   25.2078  -31.5206 H   0  0  0  0  0  0  0  0  0  0  0  0
   -5.6700   23.5940  -30.9270 N   0  0  0  0  0  0  0  0  0  0  0  0
   -6.4370   22.4370  -31.2950 C   0  0  0  0  0  0  0  0  0  0  0  0
   -7.6720   22.1850  -30.6800 C   0  0  0  0  0  0  0  0  0  0  0  0
   -8.0748   22.8997  -29.9473 H   0  0  0  0  0  0  0  0  0  0  0  0
   -8.3930   21.0300  -30.9940 C   0  0  0  0  0  0  0  0  0  0  0  0
   -9.3554   20.8322  -30.4993 H   0  0  0  0  0  0  0  0  0  0  0  0
   -7.8930   20.1240  -31.9370 C   0  0  0  0  0  0  0  0  0  0  0  0
   -8.7860   18.6130  -32.2940 S   0  0  0  0  0  0  0  0  0  0  0  0
   -7.2760   17.6920  -32.5870 C   0  0  0  0  0  0  0  0  0  0  0  0
   -6.5360   17.1970  -31.5060 C   0  0  0  0  0  0  0  0  0  0  0  0
   -6.8770   17.3823  -30.4768 H   0  0  0  0  0  0  0  0  0  0  0  0
   -5.3650   16.4680  -31.7320 C   0  0  0  0  0  0  0  0  0  0  0  0
   -4.7835   16.0836  -30.8810 H   0  0  0  0  0  0  0  0  0  0  0  0
   -4.9320   16.2270  -33.0420 C   0  0  0  0  0  0  0  0  0  0  0  0
   -3.4680   15.3050  -33.3270 Cl  0  0  0  0  0  0  0  0  0  0  0  0
   -5.6700   16.7220  -34.1230 C   0  0  0  0  0  0  0  0  0  0  0  0
   -5.3309   16.5332  -35.1522 H   0  0  0  0  0  0  0  0  0  0  0  0
   -6.8390   17.4570  -33.8960 C   0  0  0  0  0  0  0  0  0  0  0  0
   -7.4149   17.8503  -34.7467 H   0  0  0  0  0  0  0  0  0  0  0  0
   -6.6810   20.3910  -32.5840 C   0  0  0  0  0  0  0  0  0  0  0  0
   -6.2988   19.6936  -33.3439 H   0  0  0  0  0  0  0  0  0  0  0  0
   -5.9560   21.5420  -32.2660 C   0  0  0  0  0  0  0  0  0  0  0  0
   -5.0045   21.7487  -32.7778 H   0  0  0  0  0  0  0  0  0  0  0  0
   -2.6550   21.0250  -28.2200 C   0  0  0  0  0  0  0  0  0  0  0  0
   -3.1010   20.1860  -27.1780 C   0  0  0  0  0  0  0  0  0  0  0  0
   -4.0642   20.3884  -26.6868 H   0  0  0  0  0  0  0  0  0  0  0  0
   -2.3250   19.0980  -26.7660 C   0  0  0  0  0  0  0  0  0  0  0  0
   -2.6777   18.4507  -25.9495 H   0  0  0  0  0  0  0  0  0  0  0  0
   -1.1040   18.8310  -27.3880 C   0  0  0  0  0  0  0  0  0  0  0  0
   -0.4930   17.9785  -27.0566 H   0  0  0  0  0  0  0  0  0  0  0  0
   -0.6580   19.6460  -28.4310 C   0  0  0  0  0  0  0  0  0  0  0  0
    0.3009   19.4310  -28.9253 H   0  0  0  0  0  0  0  0  0  0  0  0
   -1.4300   20.7350  -28.8470 C   0  0  0  0  0  0  0  0  0  0  0  0
   -1.0760   21.3706  -29.6721 H   0  0  0  0  0  0  0  0  0  0  0  0
  1  2  1  0
  2  3  2  0
  3  4  1  0
  3  5  1  0
  5  6  2  0
  6  7  1  0
  7  8  1  0
  7  9  2  0
  9 10  1  0
  9 11  1  0
 11 12  1  0
 12 13  2  0
 13 14  1  0
 13 15  1  0
 15 16  1  0
 15 17  2  0
 17 18  1  0
 18 19  1  0
 19 20  2  0
 20 21  1  0
 20 22  1  0
 22 23  1  0
 22 24  2  0
 24 25  1  0
 24 26  1  0
 26 27  1  0
 26 28  2  0
 28 29  1  0
 17 30  1  0
 30 31  1  0
 30 32  2  0
 32 33  1  0
  2 34  1  0
 34 35  2  0
 35 36  1  0
 35 37  1  0
 37 38  1  0
 37 39  2  0
 39 40  1  0
 39 41  1  0
 41 42  1  0
 41 43  2  0
 43 44  1  0
 11  5  1  0
 32 12  1  0
 43 34  1  0
 28 19  1  0
M  END
>  <UniqueID>  (49) 
48

>  <SMILES>  (49) 
Clc1ccc(Sc2ccc(-n3ccnc3/C=C/c3ccccc3)cc2)cc1

>  <Energy>  (49) 
80.97051915522988

>  <Genealogy>  (49) 
Clc1ccc(Sc2ccc(-n3ccnc3/C=C/c3ccccc3)cc2)cc1 (cis-trans isomerization)
Clc1ccc(Sc2ccc(-n3ccnc3/C=C/c3ccccc3)cc2)cc1 (3D coordinates assigned)
Clc1ccc(Sc2ccc(-n3ccnc3/C=C/c3ccccc3)cc2)cc1 (optimized conformer: 80.97051915522988 kcal/mol)

>  <smiles>  (49) 
Clc1ccc(Sc2ccc(-n3ccnc3C=Cc3ccccc3)cc2)cc1

>  <score_type>  (49) 
oracle

>  <origin>  (49) 
adgpu

>  <m_score__min__energy>  (49) 
-9.5999999999999996

>  <m_primary>  (49) 
energy

$$$$
