0:0
     RDKit          3D

 42 44  0  0  0  0  0  0  0  0999 V2000
   -8.4350   20.2130  -32.3530 C   0  0  0  0  0  0  0  0  0  0  0  0
   -7.5980   21.3970  -31.9860 C   0  0  0  0  0  0  0  0  0  0  0  0
   -8.1060   22.3900  -31.1430 C   0  0  0  0  0  0  0  0  0  0  0  0
   -7.3080   23.4900  -30.8240 C   0  0  0  0  0  0  0  0  0  0  0  0
   -6.0100   23.5900  -31.3410 C   0  0  0  0  0  0  0  0  0  0  0  0
   -5.1720   24.7510  -30.9920 C   0  0  0  0  0  0  0  0  0  0  0  0
   -5.6060   25.9110  -31.2190 O   0  0  0  0  0  0  0  0  0  0  0  0
   -3.8900   24.5980  -30.3740 N   0  0  0  0  0  0  0  0  0  0  0  0
   -3.6740   24.5440  -28.9320 C   0  0  0  0  0  0  0  0  0  0  0  0
   -2.3150   23.9660  -28.6520 C   0  0  0  0  0  0  0  0  0  0  0  0
   -2.1980   22.6630  -28.1390 C   0  0  0  0  0  0  0  0  0  0  0  0
   -0.9400   22.1280  -27.8490 C   0  0  0  0  0  0  0  0  0  0  0  0
    0.2110   22.8900  -28.0610 C   0  0  0  0  0  0  0  0  0  0  0  0
    0.1060   24.1920  -28.5560 C   0  0  0  0  0  0  0  0  0  0  0  0
   -1.1510   24.7350  -28.8470 C   0  0  0  0  0  0  0  0  0  0  0  0
   -1.2360   26.0390  -29.3260 O   0  0  0  0  0  0  0  0  0  0  0  0
   -5.5490   22.5950  -32.2190 C   0  0  0  0  0  0  0  0  0  0  0  0
   -4.2670   22.6990  -32.7790 O   0  0  0  0  0  0  0  0  0  0  0  0
   -3.2050   21.8140  -32.5460 C   0  0  0  0  0  0  0  0  0  0  0  0
   -2.3600   22.0540  -31.4610 C   0  0  0  0  0  0  0  0  0  0  0  0
   -1.2880   21.1930  -31.2130 C   0  0  0  0  0  0  0  0  0  0  0  0
   -1.0550   20.1280  -32.0330 N   0  0  0  0  0  0  0  0  0  0  0  0
    0.0050   19.2810  -31.7860 O   0  0  0  0  0  0  0  0  0  0  0  0
   -1.8530   19.8880  -33.1100 C   0  0  0  0  0  0  0  0  0  0  0  0
   -2.9360   20.7250  -33.3900 C   0  0  0  0  0  0  0  0  0  0  0  0
   -6.3470   21.5260  -32.5040 N   0  0  0  0  0  0  0  0  0  0  0  0
   -8.7871   19.7150  -31.4376 H   0  0  0  0  0  0  0  0  0  0  0  0
   -9.3001   20.5451  -32.9457 H   0  0  0  0  0  0  0  0  0  0  0  0
   -7.8333   19.5082  -32.9457 H   0  0  0  0  0  0  0  0  0  0  0  0
   -9.1241   22.3053  -30.7353 H   0  0  0  0  0  0  0  0  0  0  0  0
   -7.6991   24.2796  -30.1655 H   0  0  0  0  0  0  0  0  0  0  0  0
   -3.7342   25.5595  -28.5136 H   0  0  0  0  0  0  0  0  0  0  0  0
   -4.4451   23.9111  -28.4684 H   0  0  0  0  0  0  0  0  0  0  0  0
   -3.1018   22.0607  -27.9647 H   0  0  0  0  0  0  0  0  0  0  0  0
   -0.8562   21.1051  -27.4531 H   0  0  0  0  0  0  0  0  0  0  0  0
    1.2007   22.4647  -27.8381 H   0  0  0  0  0  0  0  0  0  0  0  0
    1.0135   24.7922  -28.7176 H   0  0  0  0  0  0  0  0  0  0  0  0
   -2.5376   22.9179  -30.8037 H   0  0  0  0  0  0  0  0  0  0  0  0
   -0.6283   21.3749  -30.3518 H   0  0  0  0  0  0  0  0  0  0  0  0
   -0.1130   18.4290  -31.2490 H   0  0  0  0  0  0  0  0  0  0  0  0
   -1.6434   19.0289  -33.7643 H   0  0  0  0  0  0  0  0  0  0  0  0
   -3.5733   20.5321  -34.2655 H   0  0  0  0  0  0  0  0  0  0  0  0
  1  2  1  0
  2  3  2  0
  3  4  1  0
  4  5  2  0
  5  6  1  0
  6  7  2  0
  6  8  1  0
  8  9  1  0
  9 10  1  0
 10 11  2  0
 11 12  1  0
 12 13  2  0
 13 14  1  0
 14 15  2  0
 15 16  1  0
  5 17  1  0
 17 18  1  0
 18 19  1  0
 19 20  2  0
 20 21  1  0
 21 22  2  0
 22 23  1  0
 22 24  1  0
 24 25  2  0
 17 26  2  0
 26  2  1  0
 15 10  1  0
 25 19  1  0
  1 27  1  0
  1 28  1  0
  1 29  1  0
  3 30  1  0
  4 31  1  0
  9 32  1  0
  9 33  1  0
 11 34  1  0
 12 35  1  0
 13 36  1  0
 14 37  1  0
 20 38  1  0
 21 39  1  0
 23 40  1  0
 24 41  1  0
 25 42  1  0
M  CHG  3   8  -1  16  -1  22   1
M  END
>  <UniqueID>  (1) 
1

>  <SMILES>  (1) 
Cc1ccc(C(=O)[N-]Cc2ccccc2[O-])c(Oc2cc[n+](O)cc2)n1

>  <Energy>  (1) 
52.87213963537091

>  <Genealogy>  (1) 
Cc1ccc(C(=O)[N-]Cc2ccccc2[O-])c(Oc2cc[n+](O)cc2)n1 (protonated)
Cc1ccc(C(=O)[N-]Cc2ccccc2[O-])c(Oc2cc[n+](O)cc2)n1 (3D coordinates assigned)
Cc1ccc(C(=O)[N-]Cc2ccccc2[O-])c(Oc2cc[n+](O)cc2)n1 (optimized conformer: 52.87213963537091 kcal/mol)

>  <smiles>  (1) 
Cc1ccc(C(=O)NCc2ccccc2O)c(Oc2cc[n+]([O-])cc2)n1

>  <score_type>  (1) 
oracle

>  <origin>  (1) 
adgpu

>  <m_score__min__energy>  (1) 
-11.359999999999999

>  <m_primary>  (1) 
energy

$$$$
1:0
     RDKit          3D

 60 64  0  0  0  0  0  0  0  0999 V2000
    2.6150   27.1550  -35.5320 C   0  0  0  0  0  0  0  0  0  0  0  0
    1.9560   26.2380  -36.4010 O   0  0  0  0  0  0  0  0  0  0  0  0
    1.6770   24.9020  -36.0790 C   0  0  0  0  0  0  0  0  0  0  0  0
    0.3720   24.3760  -36.1070 C   0  0  0  0  0  0  0  0  0  0  0  0
    0.1450   23.0370  -35.7770 C   0  0  0  0  0  0  0  0  0  0  0  0
    1.2140   22.2030  -35.4070 C   0  0  0  0  0  0  0  0  0  0  0  0
    0.9840   20.8170  -35.0860 N   0  0  0  0  0  0  0  0  0  0  0  0
    0.5720   19.8880  -36.1500 C   0  0  0  0  0  0  0  0  0  0  0  0
   -0.0160   18.5920  -35.5730 C   0  0  0  0  0  0  0  0  0  0  0  0
   -0.8570   18.8940  -34.4060 N   0  0  0  0  0  0  0  0  0  0  0  0
   -2.0960   18.1910  -34.2180 C   0  0  0  0  0  0  0  0  0  0  0  0
   -2.1770   16.9740  -34.5330 O   0  0  0  0  0  0  0  0  0  0  0  0
   -3.2690   18.8510  -33.6230 C   0  0  0  0  0  0  0  0  0  0  0  0
   -3.2290   20.1090  -33.1360 N   0  0  0  0  0  0  0  0  0  0  0  0
   -4.4330   20.4080  -32.6720 N   0  0  0  0  0  0  0  0  0  0  0  0
   -4.7330   21.6620  -32.0350 C   0  0  0  0  0  0  0  0  0  0  0  0
   -5.9130   22.3470  -32.3630 C   0  0  0  0  0  0  0  0  0  0  0  0
   -6.2080   23.5720  -31.7590 C   0  0  0  0  0  0  0  0  0  0  0  0
   -5.3250   24.1330  -30.8300 C   0  0  0  0  0  0  0  0  0  0  0  0
   -5.7340   25.6750  -30.0890 Cl  0  0  0  0  0  0  0  0  0  0  0  0
   -4.1320   23.4650  -30.5120 C   0  0  0  0  0  0  0  0  0  0  0  0
   -2.9860   24.1400  -29.3610 Cl  0  0  0  0  0  0  0  0  0  0  0  0
   -3.8360   22.2390  -31.1200 C   0  0  0  0  0  0  0  0  0  0  0  0
   -5.2530   19.3470  -32.8430 C   0  0  0  0  0  0  0  0  0  0  0  0
   -6.6620   19.3430  -32.5660 N   0  0  0  0  0  0  0  0  0  0  0  0
   -7.6070   20.0100  -33.2550 C   0  0  0  0  0  0  0  0  0  0  0  0
   -8.8490   19.7560  -32.7090 C   0  0  0  0  0  0  0  0  0  0  0  0
   -8.6450   18.8960  -31.6480 C   0  0  0  0  0  0  0  0  0  0  0  0
   -7.2860   18.6590  -31.5880 C   0  0  0  0  0  0  0  0  0  0  0  0
   -4.5460   18.3240  -33.4500 C   0  0  0  0  0  0  0  0  0  0  0  0
   -5.0370   16.9360  -33.7420 C   0  0  0  0  0  0  0  0  0  0  0  0
   -0.3410   19.7540  -33.3270 C   0  0  0  0  0  0  0  0  0  0  0  0
    1.0190   20.3500  -33.6950 C   0  0  0  0  0  0  0  0  0  0  0  0
    2.5150   22.7290  -35.3900 C   0  0  0  0  0  0  0  0  0  0  0  0
    2.7410   24.0680  -35.7200 C   0  0  0  0  0  0  0  0  0  0  0  0
    2.4155   26.8774  -34.4865 H   0  0  0  0  0  0  0  0  0  0  0  0
    3.6985   27.1236  -35.7193 H   0  0  0  0  0  0  0  0  0  0  0  0
    2.2398   28.1719  -35.7193 H   0  0  0  0  0  0  0  0  0  0  0  0
   -0.4728   25.0213  -36.3897 H   0  0  0  0  0  0  0  0  0  0  0  0
   -0.8777   22.6330  -35.8071 H   0  0  0  0  0  0  0  0  0  0  0  0
   -0.1886   20.3772  -36.7762 H   0  0  0  0  0  0  0  0  0  0  0  0
    1.4613   19.6280  -36.7429 H   0  0  0  0  0  0  0  0  0  0  0  0
   -0.6258   18.0953  -36.3420 H   0  0  0  0  0  0  0  0  0  0  0  0
    0.8064   17.9308  -35.2624 H   0  0  0  0  0  0  0  0  0  0  0  0
   -6.6088   21.9177  -33.0989 H   0  0  0  0  0  0  0  0  0  0  0  0
   -7.1394   24.0981  -32.0153 H   0  0  0  0  0  0  0  0  0  0  0  0
   -2.8944   21.7237  -30.8797 H   0  0  0  0  0  0  0  0  0  0  0  0
   -7.4178   20.6595  -34.1224 H   0  0  0  0  0  0  0  0  0  0  0  0
   -9.8130   20.1598  -33.0520 H   0  0  0  0  0  0  0  0  0  0  0  0
   -9.4148   18.4808  -30.9809 H   0  0  0  0  0  0  0  0  0  0  0  0
   -6.7883   18.0097  -30.8526 H   0  0  0  0  0  0  0  0  0  0  0  0
   -5.2242   16.4067  -32.7961 H   0  0  0  0  0  0  0  0  0  0  0  0
   -5.9700   16.9916  -34.3220 H   0  0  0  0  0  0  0  0  0  0  0  0
   -4.2766   16.3925  -34.3220 H   0  0  0  0  0  0  0  0  0  0  0  0
   -1.0544   20.5720  -33.1483 H   0  0  0  0  0  0  0  0  0  0  0  0
   -0.2184   19.1407  -32.4221 H   0  0  0  0  0  0  0  0  0  0  0  0
    1.2415   21.1965  -33.0288 H   0  0  0  0  0  0  0  0  0  0  0  0
    1.7996   19.5830  -33.5835 H   0  0  0  0  0  0  0  0  0  0  0  0
    3.3621   22.0833  -35.1152 H   0  0  0  0  0  0  0  0  0  0  0  0
    3.7648   24.4697  -35.6972 H   0  0  0  0  0  0  0  0  0  0  0  0
  1  2  1  0
  2  3  1  0
  3  4  2  0
  4  5  1  0
  5  6  2  0
  6  7  1  0
  7  8  1  0
  8  9  1  0
  9 10  1  0
 10 11  1  0
 11 12  2  0
 11 13  1  0
 13 14  2  0
 14 15  1  0
 15 16  1  0
 16 17  2  0
 17 18  1  0
 18 19  2  0
 19 20  1  0
 19 21  1  0
 21 22  1  0
 21 23  2  0
 15 24  1  0
 24 25  1  0
 25 26  1  0
 26 27  2  0
 27 28  1  0
 28 29  2  0
 24 30  2  0
 30 31  1  0
 10 32  1  0
 32 33  1  0
  6 34  1  0
 34 35  2  0
 35  3  1  0
 33  7  1  0
 30 13  1  0
 23 16  1  0
 29 25  1  0
  1 36  1  0
  1 37  1  0
  1 38  1  0
  4 39  1  0
  5 40  1  0
  8 41  1  0
  8 42  1  0
  9 43  1  0
  9 44  1  0
 17 45  1  0
 18 46  1  0
 23 47  1  0
 26 48  1  0
 27 49  1  0
 28 50  1  0
 29 51  1  0
 31 52  1  0
 31 53  1  0
 31 54  1  0
 32 55  1  0
 32 56  1  0
 33 57  1  0
 33 58  1  0
 34 59  1  0
 35 60  1  0
M  END
>  <UniqueID>  (2) 
2

>  <SMILES>  (2) 
COc1ccc(N2CCN(C(=O)c3nn(-c4ccc(Cl)c(Cl)c4)c(-n4cccc4)c3C)CC2)cc1

>  <Energy>  (2) 
138.8142699228478

>  <Genealogy>  (2) 
COc1ccc(N2CCN(C(=O)c3nn(-c4ccc(Cl)c(Cl)c4)c(-n4cccc4)c3C)CC2)cc1 (3D coordinates assigned)
COc1ccc(N2CCN(C(=O)c3nn(-c4ccc(Cl)c(Cl)c4)c(-n4cccc4)c3C)CC2)cc1 (nonaromatic ring conformer: 138.8142699228478 kcal/mol)

>  <smiles>  (2) 
COc1ccc(N2CCN(C(=O)c3nn(-c4ccc(Cl)c(Cl)c4)c(-n4cccc4)c3C)CC2)cc1

>  <score_type>  (2) 
oracle

>  <origin>  (2) 
adgpu

>  <m_score__min__energy>  (2) 
-10.07

>  <m_primary>  (2) 
energy

$$$$
2:0
     RDKit          3D

 52 54  0  0  0  0  0  0  0  0999 V2000
   -5.2580   25.7060  -30.2250 C   0  0  0  0  0  0  0  0  0  0  0  0
   -3.8910   25.3230  -30.3330 O   0  0  0  0  0  0  0  0  0  0  0  0
   -3.1630   24.5480  -29.4090 C   0  0  0  0  0  0  0  0  0  0  0  0
   -3.7710   23.3680  -28.9380 C   0  0  0  0  0  0  0  0  0  0  0  0
   -5.0650   22.9850  -29.4400 N   0  0  0  0  0  0  0  0  0  0  0  0
   -5.3330   22.7300  -30.8320 C   0  0  0  0  0  0  0  0  0  0  0  0
   -4.3960   22.7860  -31.6750 O   0  0  0  0  0  0  0  0  0  0  0  0
   -6.6980   22.3930  -31.3000 C   0  0  0  0  0  0  0  0  0  0  0  0
   -7.6680   23.3910  -31.4940 C   0  0  0  0  0  0  0  0  0  0  0  0
   -8.9510   23.0540  -31.9310 C   0  0  0  0  0  0  0  0  0  0  0  0
   -9.2840   21.7210  -32.1730 C   0  0  0  0  0  0  0  0  0  0  0  0
   -8.3370   20.6990  -31.9750 C   0  0  0  0  0  0  0  0  0  0  0  0
   -8.7100   19.2820  -32.2340 C   0  0  0  0  0  0  0  0  0  0  0  0
   -7.7880   18.1450  -31.9080 C   0  0  0  0  0  0  0  0  0  0  0  0
   -9.8320   19.0130  -32.7450 O   0  0  0  0  0  0  0  0  0  0  0  0
   -7.0450   21.0490  -31.5320 C   0  0  0  0  0  0  0  0  0  0  0  0
   -3.0900   22.5430  -28.0300 C   0  0  0  0  0  0  0  0  0  0  0  0
   -1.8280   22.8980  -27.5620 C   0  0  0  0  0  0  0  0  0  0  0  0
   -1.2120   24.0760  -28.0040 C   0  0  0  0  0  0  0  0  0  0  0  0
    0.1300   24.4380  -27.4840 C   0  0  0  0  0  0  0  0  0  0  0  0
    1.1970   23.5410  -27.6550 C   0  0  0  0  0  0  0  0  0  0  0  0
    2.4730   23.8630  -27.1900 C   0  0  0  0  0  0  0  0  0  0  0  0
    2.6970   25.0820  -26.5510 C   0  0  0  0  0  0  0  0  0  0  0  0
    1.6450   25.9830  -26.3710 C   0  0  0  0  0  0  0  0  0  0  0  0
    0.3520   25.6720  -26.8330 C   0  0  0  0  0  0  0  0  0  0  0  0
   -0.7500   26.5720  -26.6340 N   0  0  0  0  0  0  0  0  0  0  0  0
   -1.3970   27.0460  -25.0980 S   0  0  0  0  0  0  0  0  0  0  0  0
   -0.2900   26.5030  -23.8180 C   0  0  0  0  0  0  0  0  0  0  0  0
   -1.5260   28.5430  -25.0370 O   0  0  0  0  0  0  0  0  0  0  0  0
   -2.7400   26.4060  -24.8900 O   0  0  0  0  0  0  0  0  0  0  0  0
   -1.8730   24.9010  -28.9340 C   0  0  0  0  0  0  0  0  0  0  0  0
   -1.2340   26.0510  -29.3840 O   0  0  0  0  0  0  0  0  0  0  0  0
   -5.5343   25.7834  -29.1631 H   0  0  0  0  0  0  0  0  0  0  0  0
   -5.4056   26.6801  -30.7142 H   0  0  0  0  0  0  0  0  0  0  0  0
   -5.8902   24.9504  -30.7142 H   0  0  0  0  0  0  0  0  0  0  0  0
   -5.8300   22.8590  -28.7430 H   0  0  0  0  0  0  0  0  0  0  0  0
   -7.4153   24.4440  -31.3005 H   0  0  0  0  0  0  0  0  0  0  0  0
   -9.7020   23.8428  -32.0850 H   0  0  0  0  0  0  0  0  0  0  0  0
  -10.2958   21.4665  -32.5217 H   0  0  0  0  0  0  0  0  0  0  0  0
   -7.7046   18.0421  -30.8160 H   0  0  0  0  0  0  0  0  0  0  0  0
   -8.1892   17.2138  -32.3344 H   0  0  0  0  0  0  0  0  0  0  0  0
   -6.7940   18.3452  -32.3344 H   0  0  0  0  0  0  0  0  0  0  0  0
   -6.2971   20.2598  -31.3652 H   0  0  0  0  0  0  0  0  0  0  0  0
   -3.5570   21.6086  -27.6854 H   0  0  0  0  0  0  0  0  0  0  0  0
   -1.3108   22.2490  -26.8400 H   0  0  0  0  0  0  0  0  0  0  0  0
    1.0260   22.5782  -28.1588 H   0  0  0  0  0  0  0  0  0  0  0  0
    3.3029   23.1543  -27.3278 H   0  0  0  0  0  0  0  0  0  0  0  0
    3.7042   25.3345  -26.1880 H   0  0  0  0  0  0  0  0  0  0  0  0
    1.8281   26.9423  -25.8647 H   0  0  0  0  0  0  0  0  0  0  0  0
   -0.7322   26.7199  -22.8344 H   0  0  0  0  0  0  0  0  0  0  0  0
   -0.1219   25.4201  -23.9137 H   0  0  0  0  0  0  0  0  0  0  0  0
    0.6692   27.0329  -23.9137 H   0  0  0  0  0  0  0  0  0  0  0  0
  1  2  1  0
  2  3  1  0
  3  4  2  0
  4  5  1  0
  5  6  1  0
  6  7  2  0
  6  8  1  0
  8  9  2  0
  9 10  1  0
 10 11  2  0
 11 12  1  0
 12 13  1  0
 13 14  1  0
 13 15  2  0
 12 16  2  0
  4 17  1  0
 17 18  2  0
 18 19  1  0
 19 20  1  0
 20 21  2  0
 21 22  1  0
 22 23  2  0
 23 24  1  0
 24 25  2  0
 25 26  1  0
 26 27  1  0
 27 28  1  0
 27 29  2  0
 27 30  2  0
 19 31  2  0
 31 32  1  0
 31  3  1  0
 16  8  1  0
 25 20  1  0
  1 33  1  0
  1 34  1  0
  1 35  1  0
  5 36  1  0
  9 37  1  0
 10 38  1  0
 11 39  1  0
 14 40  1  0
 14 41  1  0
 14 42  1  0
 16 43  1  0
 17 44  1  0
 18 45  1  0
 21 46  1  0
 22 47  1  0
 23 48  1  0
 24 49  1  0
 28 50  1  0
 28 51  1  0
 28 52  1  0
M  CHG  2  26  -1  32  -1
M  END
>  <UniqueID>  (3) 
3

>  <SMILES>  (3) 
COc1c(NC(=O)c2cccc(C(C)=O)c2)ccc(-c2ccccc2[N-]S(C)(=O)=O)c1[O-]

>  <Energy>  (3) 
71.36105457694435

>  <Genealogy>  (3) 
COc1c(NC(=O)c2cccc(C(C)=O)c2)ccc(-c2ccccc2[N-]S(C)(=O)=O)c1[O-] (protonated)
COc1c(NC(=O)c2cccc(C(C)=O)c2)ccc(-c2ccccc2[N-]S(C)(=O)=O)c1[O-] (3D coordinates assigned)
COc1c(NC(=O)c2cccc(C(C)=O)c2)ccc(-c2ccccc2[N-]S(C)(=O)=O)c1[O-] (optimized conformer: 71.36105457694435 kcal/mol)

>  <smiles>  (3) 
COc1c(NC(=O)c2cccc(C(C)=O)c2)ccc(-c2ccccc2NS(C)(=O)=O)c1O

>  <score_type>  (3) 
oracle

>  <origin>  (3) 
adgpu

>  <m_score__min__energy>  (3) 
-13.43

>  <m_primary>  (3) 
energy

$$$$
3:0
     RDKit          3D

 55 58  0  0  0  0  0  0  0  0999 V2000
   -7.2410   24.2690  -29.8480 N   0  0  0  0  0  0  0  0  0  0  0  0
   -6.3580   23.6630  -30.2830 C   0  0  0  0  0  0  0  0  0  0  0  0
   -5.2580   22.8980  -30.8270 C   0  0  0  0  0  0  0  0  0  0  0  0
   -5.5440   21.6150  -31.3140 C   0  0  0  0  0  0  0  0  0  0  0  0
   -4.5360   20.8180  -31.8510 C   0  0  0  0  0  0  0  0  0  0  0  0
   -3.2210   21.2910  -31.9220 C   0  0  0  0  0  0  0  0  0  0  0  0
   -2.1860   20.4660  -32.4900 N   0  0  0  0  0  0  0  0  0  0  0  0
   -1.2580   19.7330  -31.6260 C   0  0  0  0  0  0  0  0  0  0  0  0
   -1.1640   18.2510  -32.0420 C   0  0  0  0  0  0  0  0  0  0  0  0
   -1.6620   17.9910  -33.4200 N   0  0  0  0  0  0  0  0  0  0  0  0
   -1.1590   16.6930  -33.9310 C   0  0  0  0  0  0  0  0  0  0  0  0
   -2.1860   15.5950  -33.7650 C   0  0  0  0  0  0  0  0  0  0  0  0
   -1.8190   14.2890  -33.4400 C   0  0  0  0  0  0  0  0  0  0  0  0
   -3.1970   13.3280  -33.4030 S   0  0  0  0  0  0  0  0  0  0  0  0
   -4.2670   14.5530  -33.8030 C   0  0  0  0  0  0  0  0  0  0  0  0
   -5.6780   14.3830  -33.9200 N   0  0  0  0  0  0  0  0  0  0  0  0
   -3.5710   15.7450  -33.9780 C   0  0  0  0  0  0  0  0  0  0  0  0
   -4.2280   17.0290  -34.2810 C   0  0  0  0  0  0  0  0  0  0  0  0
   -3.8280   17.6750  -35.2920 O   0  0  0  0  0  0  0  0  0  0  0  0
   -5.3170   17.5790  -33.4280 C   0  0  0  0  0  0  0  0  0  0  0  0
   -6.1290   18.6260  -33.9080 C   0  0  0  0  0  0  0  0  0  0  0  0
   -7.1750   19.1330  -33.1270 C   0  0  0  0  0  0  0  0  0  0  0  0
   -7.4200   18.6060  -31.8560 C   0  0  0  0  0  0  0  0  0  0  0  0
   -8.4290   19.1020  -31.0960 F   0  0  0  0  0  0  0  0  0  0  0  0
   -6.6190   17.5700  -31.3650 C   0  0  0  0  0  0  0  0  0  0  0  0
   -5.5730   17.0600  -32.1420 C   0  0  0  0  0  0  0  0  0  0  0  0
   -1.2790   19.0920  -34.3330 C   0  0  0  0  0  0  0  0  0  0  0  0
   -2.0280   20.3780  -33.9490 C   0  0  0  0  0  0  0  0  0  0  0  0
   -2.9280   22.5790  -31.4520 C   0  0  0  0  0  0  0  0  0  0  0  0
   -3.9290   23.4000  -30.8930 C   0  0  0  0  0  0  0  0  0  0  0  0
   -3.5500   24.7540  -30.3920 C   0  0  0  0  0  0  0  0  0  0  0  0
   -2.3650   24.9310  -29.6150 N   0  0  0  0  0  0  0  0  0  0  0  0
   -4.2670   25.7610  -30.6330 O   0  0  0  0  0  0  0  0  0  0  0  0
   -6.5750   21.2339  -31.2716 H   0  0  0  0  0  0  0  0  0  0  0  0
   -4.7751   19.8103  -32.2217 H   0  0  0  0  0  0  0  0  0  0  0  0
   -0.2605   20.1908  -31.7002 H   0  0  0  0  0  0  0  0  0  0  0  0
   -1.6305   19.7824  -30.5922 H   0  0  0  0  0  0  0  0  0  0  0  0
   -0.1104   17.9398  -31.9876 H   0  0  0  0  0  0  0  0  0  0  0  0
   -1.8027   17.6792  -31.3527 H   0  0  0  0  0  0  0  0  0  0  0  0
   -2.7100   17.9440  -33.3940 H   0  0  0  0  0  0  0  0  0  0  0  0
   -0.9185   16.7986  -34.9992 H   0  0  0  0  0  0  0  0  0  0  0  0
   -0.2644   16.4184  -33.3528 H   0  0  0  0  0  0  0  0  0  0  0  0
   -0.7937   13.9441  -33.2403 H   0  0  0  0  0  0  0  0  0  0  0  0
   -6.2510   15.0210  -34.5160 H   0  0  0  0  0  0  0  0  0  0  0  0
   -6.1570   13.6150  -33.4000 H   0  0  0  0  0  0  0  0  0  0  0  0
   -5.9394   19.0490  -34.9056 H   0  0  0  0  0  0  0  0  0  0  0  0
   -7.8048   19.9473  -33.5145 H   0  0  0  0  0  0  0  0  0  0  0  0
   -6.8119   17.1548  -30.3648 H   0  0  0  0  0  0  0  0  0  0  0  0
   -4.9454   16.2478  -31.7466 H   0  0  0  0  0  0  0  0  0  0  0  0
   -0.1953   19.2659  -34.2595 H   0  0  0  0  0  0  0  0  0  0  0  0
   -1.5432   18.8145  -35.3641 H   0  0  0  0  0  0  0  0  0  0  0  0
   -1.4577   21.2489  -34.3045 H   0  0  0  0  0  0  0  0  0  0  0  0
   -3.0246   20.3615  -34.4143 H   0  0  0  0  0  0  0  0  0  0  0  0
   -1.8971   22.9565  -31.5206 H   0  0  0  0  0  0  0  0  0  0  0  0
   -1.6040   25.5690  -29.9330 H   0  0  0  0  0  0  0  0  0  0  0  0
  1  2  3  0
  2  3  1  0
  3  4  2  0
  4  5  1  0
  5  6  2  0
  6  7  1  0
  7  8  1  0
  8  9  1  0
  9 10  1  0
 10 11  1  0
 11 12  1  0
 12 13  2  0
 13 14  1  0
 14 15  1  0
 15 16  1  0
 15 17  2  0
 17 18  1  0
 18 19  2  0
 18 20  1  0
 20 21  2  0
 21 22  1  0
 22 23  2  0
 23 24  1  0
 23 25  1  0
 25 26  2  0
 10 27  1  0
 27 28  1  0
  6 29  1  0
 29 30  2  0
 30 31  1  0
 31 32  1  0
 31 33  2  0
 30  3  1  0
 28  7  1  0
 17 12  1  0
 26 20  1  0
  4 34  1  0
  5 35  1  0
  8 36  1  0
  8 37  1  0
  9 38  1  0
  9 39  1  0
 10 40  1  0
 11 41  1  0
 11 42  1  0
 13 43  1  0
 16 44  1  0
 16 45  1  0
 21 46  1  0
 22 47  1  0
 25 48  1  0
 26 49  1  0
 27 50  1  0
 27 51  1  0
 28 52  1  0
 28 53  1  0
 29 54  1  0
 32 55  1  0
M  CHG  2  10   1  32  -1
M  END
>  <UniqueID>  (4) 
4

>  <SMILES>  (4) 
N#Cc1ccc(N2CC[NH+](Cc3csc(N)c3C(=O)c3ccc(F)cc3)CC2)cc1C([NH-])=O

>  <Energy>  (4) 
105.03112966385466

>  <Genealogy>  (4) 
N#Cc1ccc(N2CC[NH+](Cc3csc(N)c3C(=O)c3ccc(F)cc3)CC2)cc1C([NH-])=O (protonated)
N#Cc1ccc(N2CC[NH+](Cc3csc(N)c3C(=O)c3ccc(F)cc3)CC2)cc1C([NH-])=O (3D coordinates assigned)
N#Cc1ccc(N2CC[NH+](Cc3csc(N)c3C(=O)c3ccc(F)cc3)CC2)cc1C([NH-])=O (nonaromatic ring conformer: 105.03112966385466 kcal/mol)

>  <smiles>  (4) 
N#Cc1ccc(N2CCN(Cc3csc(N)c3C(=O)c3ccc(F)cc3)CC2)cc1C(N)=O

>  <score_type>  (4) 
oracle

>  <origin>  (4) 
adgpu

>  <m_score__min__energy>  (4) 
-10.619999999999999

>  <m_primary>  (4) 
energy

$$$$
4:0
     RDKit          3D

 44 46  0  0  0  0  0  0  0  0999 V2000
   -6.0870   24.9590  -31.5850 N   0  0  0  0  0  0  0  0  0  0  0  0
   -6.9250   23.4470  -31.5740 S   0  0  0  0  0  0  0  0  0  0  0  0
   -7.6630   23.3080  -30.2720 O   0  0  0  0  0  0  0  0  0  0  0  0
   -7.9150   23.4070  -32.7030 O   0  0  0  0  0  0  0  0  0  0  0  0
   -5.7590   22.1360  -31.7650 C   0  0  0  0  0  0  0  0  0  0  0  0
   -5.9880   21.1280  -32.7150 C   0  0  0  0  0  0  0  0  0  0  0  0
   -5.0900   20.0650  -32.8480 C   0  0  0  0  0  0  0  0  0  0  0  0
   -5.3880   18.8080  -34.0360 Cl  0  0  0  0  0  0  0  0  0  0  0  0
   -3.9550   20.0030  -32.0370 C   0  0  0  0  0  0  0  0  0  0  0  0
   -3.7180   21.0000  -31.0890 C   0  0  0  0  0  0  0  0  0  0  0  0
   -4.6210   22.0660  -30.9360 C   0  0  0  0  0  0  0  0  0  0  0  0
   -4.3830   23.0940  -29.9620 N   0  0  0  0  0  0  0  0  0  0  0  0
   -3.3050   24.0380  -29.9920 C   0  0  0  0  0  0  0  0  0  0  0  0
   -3.4920   25.1480  -30.5550 O   0  0  0  0  0  0  0  0  0  0  0  0
   -2.0110   23.7670  -29.3160 C   0  0  0  0  0  0  0  0  0  0  0  0
   -1.5760   22.4410  -29.1450 C   0  0  0  0  0  0  0  0  0  0  0  0
   -0.3660   22.1610  -28.4990 C   0  0  0  0  0  0  0  0  0  0  0  0
    0.1590   20.4880  -28.2940 S   0  0  0  0  0  0  0  0  0  0  0  0
   -0.2870   19.6840  -29.4850 O   0  0  0  0  0  0  0  0  0  0  0  0
    1.6610   20.4430  -28.2440 O   0  0  0  0  0  0  0  0  0  0  0  0
   -0.4830   19.7710  -26.8310 N   0  0  0  0  0  0  0  0  0  0  0  0
   -1.5370   20.6110  -26.2530 C   0  0  0  0  0  0  0  0  0  0  0  0
   -2.8820   20.0650  -26.7070 C   0  0  0  0  0  0  0  0  0  0  0  0
   -2.6100   18.6490  -27.1770 C   0  0  0  0  0  0  0  0  0  0  0  0
   -1.0980   18.4660  -27.0990 C   0  0  0  0  0  0  0  0  0  0  0  0
    0.4170   23.2140  -28.0110 C   0  0  0  0  0  0  0  0  0  0  0  0
   -0.0100   24.5340  -28.1650 C   0  0  0  0  0  0  0  0  0  0  0  0
   -1.2160   24.8170  -28.8130 C   0  0  0  0  0  0  0  0  0  0  0  0
   -1.6060   26.1430  -28.9640 O   0  0  0  0  0  0  0  0  0  0  0  0
   -5.2030   24.8230  -31.0450 H   0  0  0  0  0  0  0  0  0  0  0  0
   -6.8791   21.1750  -33.3583 H   0  0  0  0  0  0  0  0  0  0  0  0
   -3.2471   19.1680  -32.1452 H   0  0  0  0  0  0  0  0  0  0  0  0
   -2.8186   20.9509  -30.4576 H   0  0  0  0  0  0  0  0  0  0  0  0
   -2.1940   21.6134  -29.5234 H   0  0  0  0  0  0  0  0  0  0  0  0
   -1.4752   20.5832  -25.1551 H   0  0  0  0  0  0  0  0  0  0  0  0
   -1.4179   21.6528  -26.5855 H   0  0  0  0  0  0  0  0  0  0  0  0
   -3.5969   20.0614  -25.8710 H   0  0  0  0  0  0  0  0  0  0  0  0
   -3.3229   20.6809  -27.5047 H   0  0  0  0  0  0  0  0  0  0  0  0
   -3.1173   17.9246  -26.5229 H   0  0  0  0  0  0  0  0  0  0  0  0
   -2.9848   18.4833  -28.1978 H   0  0  0  0  0  0  0  0  0  0  0  0
   -0.8506   17.7658  -26.2875 H   0  0  0  0  0  0  0  0  0  0  0  0
   -0.7187   18.0590  -28.0479 H   0  0  0  0  0  0  0  0  0  0  0  0
    1.3703   23.0008  -27.5053 H   0  0  0  0  0  0  0  0  0  0  0  0
    0.6064   25.3569  -27.7740 H   0  0  0  0  0  0  0  0  0  0  0  0
  1  2  1  0
  2  3  2  0
  2  4  2  0
  2  5  1  0
  5  6  2  0
  6  7  1  0
  7  8  1  0
  7  9  2  0
  9 10  1  0
 10 11  2  0
 11 12  1  0
 12 13  1  0
 13 14  2  0
 13 15  1  0
 15 16  2  0
 16 17  1  0
 17 18  1  0
 18 19  2  0
 18 20  2  0
 18 21  1  0
 21 22  1  0
 22 23  1  0
 23 24  1  0
 24 25  1  0
 17 26  2  0
 26 27  1  0
 27 28  2  0
 28 29  1  0
 11  5  1  0
 28 15  1  0
 25 21  1  0
  1 30  1  0
  6 31  1  0
  9 32  1  0
 10 33  1  0
 16 34  1  0
 22 35  1  0
 22 36  1  0
 23 37  1  0
 23 38  1  0
 24 39  1  0
 24 40  1  0
 25 41  1  0
 25 42  1  0
 26 43  1  0
 27 44  1  0
M  CHG  3   1  -1  12  -1  29  -1
M  END
>  <UniqueID>  (5) 
5

>  <SMILES>  (5) 
[NH-]S(=O)(=O)c1cc(Cl)ccc1[N-]C(=O)c1cc(S(=O)(=O)N2CCCC2)ccc1[O-]

>  <Energy>  (5) 
52.5760862778235

>  <Genealogy>  (5) 
[NH-]S(=O)(=O)c1cc(Cl)ccc1[N-]C(=O)c1cc(S(=O)(=O)N2CCCC2)ccc1[O-] (protonated)
[NH-]S(=O)(=O)c1cc(Cl)ccc1[N-]C(=O)c1cc(S(=O)(=O)N2CCCC2)ccc1[O-] (3D coordinates assigned)
[NH-]S(=O)(=O)c1cc(Cl)ccc1[N-]C(=O)c1cc(S(=O)(=O)N2CCCC2)ccc1[O-] (nonaromatic ring conformer: 52.5760862778235 kcal/mol)

>  <smiles>  (5) 
NS(=O)(=O)c1cc(Cl)ccc1NC(=O)c1cc(S(=O)(=O)N2CCCC2)ccc1O

>  <score_type>  (5) 
oracle

>  <origin>  (5) 
adgpu

>  <m_score__min__energy>  (5) 
-15

>  <m_primary>  (5) 
energy

$$$$
5:0
     RDKit          3D

 53 56  0  0  0  0  0  0  0  0999 V2000
   -9.0740   23.1190  -31.9720 O   0  0  0  0  0  0  0  0  0  0  0  0
   -7.9680   22.1430  -31.6320 S   0  0  0  0  0  0  0  0  0  0  0  0
   -8.4330   21.2590  -30.4930 O   0  0  0  0  0  0  0  0  0  0  0  0
   -7.6310   21.1540  -33.0300 N   0  0  0  0  0  0  0  0  0  0  0  0
   -7.0120   19.8650  -32.9550 C   0  0  0  0  0  0  0  0  0  0  0  0
   -5.7300   19.6570  -33.4830 C   0  0  0  0  0  0  0  0  0  0  0  0
   -5.1470   18.3820  -33.4730 C   0  0  0  0  0  0  0  0  0  0  0  0
   -5.8620   17.2960  -32.9110 C   0  0  0  0  0  0  0  0  0  0  0  0
   -7.1110   17.5260  -32.3160 C   0  0  0  0  0  0  0  0  0  0  0  0
   -7.6880   18.8000  -32.3350 C   0  0  0  0  0  0  0  0  0  0  0  0
   -8.9390   18.9830  -31.7420 O   0  0  0  0  0  0  0  0  0  0  0  0
   -5.2550   15.9160  -32.8280 C   0  0  0  0  0  0  0  0  0  0  0  0
   -4.1470   15.7060  -33.8640 C   0  0  0  0  0  0  0  0  0  0  0  0
   -3.1460   16.8610  -33.8030 C   0  0  0  0  0  0  0  0  0  0  0  0
   -3.8270   18.1810  -34.1820 C   0  0  0  0  0  0  0  0  0  0  0  0
   -6.5470   23.0580  -31.1230 C   0  0  0  0  0  0  0  0  0  0  0  0
   -6.6030   24.4550  -31.0650 C   0  0  0  0  0  0  0  0  0  0  0  0
   -5.4630   25.1890  -30.7180 C   0  0  0  0  0  0  0  0  0  0  0  0
   -4.2620   24.5330  -30.4290 C   0  0  0  0  0  0  0  0  0  0  0  0
   -3.1450   25.2890  -30.0850 O   0  0  0  0  0  0  0  0  0  0  0  0
   -4.1950   23.1280  -30.4890 C   0  0  0  0  0  0  0  0  0  0  0  0
   -2.6830   22.2600  -30.1730 S   0  0  0  0  0  0  0  0  0  0  0  0
   -2.9780   20.9560  -29.4890 O   0  0  0  0  0  0  0  0  0  0  0  0
   -1.8380   23.0830  -29.2410 O   0  0  0  0  0  0  0  0  0  0  0  0
   -1.7850   21.9520  -31.6390 N   0  0  0  0  0  0  0  0  0  0  0  0
   -0.5680   21.1800  -31.3460 C   0  0  0  0  0  0  0  0  0  0  0  0
    0.1550   20.7980  -32.6550 C   0  0  0  0  0  0  0  0  0  0  0  0
   -0.4710   21.3770  -33.7840 O   0  0  0  0  0  0  0  0  0  0  0  0
   -1.8040   20.9090  -33.8820 C   0  0  0  0  0  0  0  0  0  0  0  0
   -2.6200   21.2270  -32.6100 C   0  0  0  0  0  0  0  0  0  0  0  0
   -5.3430   22.3990  -30.8310 C   0  0  0  0  0  0  0  0  0  0  0  0
   -5.1746   20.5048  -33.9105 H   0  0  0  0  0  0  0  0  0  0  0  0
   -7.6427   16.6953  -31.8290 H   0  0  0  0  0  0  0  0  0  0  0  0
   -9.3430   19.9030  -31.6100 H   0  0  0  0  0  0  0  0  0  0  0  0
   -4.8308   15.7759  -31.8228 H   0  0  0  0  0  0  0  0  0  0  0  0
   -6.0510   15.1850  -33.0332 H   0  0  0  0  0  0  0  0  0  0  0  0
   -3.6255   14.7608  -33.6527 H   0  0  0  0  0  0  0  0  0  0  0  0
   -4.5946   15.6696  -34.8681 H   0  0  0  0  0  0  0  0  0  0  0  0
   -2.7461   16.9401  -32.7813 H   0  0  0  0  0  0  0  0  0  0  0  0
   -2.3307   16.6637  -34.5146 H   0  0  0  0  0  0  0  0  0  0  0  0
   -3.1558   19.0116  -33.9180 H   0  0  0  0  0  0  0  0  0  0  0  0
   -4.0318   18.1506  -35.2623 H   0  0  0  0  0  0  0  0  0  0  0  0
   -7.5442   24.9769  -31.2924 H   0  0  0  0  0  0  0  0  0  0  0  0
   -5.5118   26.2870  -30.6723 H   0  0  0  0  0  0  0  0  0  0  0  0
    0.1056   21.7876  -30.7239 H   0  0  0  0  0  0  0  0  0  0  0  0
   -0.8488   20.2602  -30.8120 H   0  0  0  0  0  0  0  0  0  0  0  0
    1.1957   21.1506  -32.6039 H   0  0  0  0  0  0  0  0  0  0  0  0
    0.1156   19.7040  -32.7631 H   0  0  0  0  0  0  0  0  0  0  0  0
   -2.2877   21.3906  -34.7446 H   0  0  0  0  0  0  0  0  0  0  0  0
   -1.7739   19.8162  -34.0039 H   0  0  0  0  0  0  0  0  0  0  0  0
   -3.4864   21.8487  -32.8800 H   0  0  0  0  0  0  0  0  0  0  0  0
   -2.9610   20.2843  -32.1571 H   0  0  0  0  0  0  0  0  0  0  0  0
   -5.2994   21.3006  -30.8707 H   0  0  0  0  0  0  0  0  0  0  0  0
  1  2  2  0
  2  3  2  0
  2  4  1  0
  4  5  1  0
  5  6  2  0
  6  7  1  0
  7  8  2  0
  8  9  1  0
  9 10  2  0
 10 11  1  0
  8 12  1  0
 12 13  1  0
 13 14  1  0
 14 15  1  0
  2 16  1  0
 16 17  2  0
 17 18  1  0
 18 19  2  0
 19 20  1  0
 19 21  1  0
 21 22  1  0
 22 23  2  0
 22 24  2  0
 22 25  1  0
 25 26  1  0
 26 27  1  0
 27 28  1  0
 28 29  1  0
 29 30  1  0
 21 31  2  0
 10  5  1  0
 31 16  1  0
 15  7  1  0
 30 25  1  0
  6 32  1  0
  9 33  1  0
 11 34  1  0
 12 35  1  0
 12 36  1  0
 13 37  1  0
 13 38  1  0
 14 39  1  0
 14 40  1  0
 15 41  1  0
 15 42  1  0
 17 43  1  0
 18 44  1  0
 26 45  1  0
 26 46  1  0
 27 47  1  0
 27 48  1  0
 29 49  1  0
 29 50  1  0
 30 51  1  0
 30 52  1  0
 31 53  1  0
M  CHG  2   4  -1  20  -1
M  END
>  <UniqueID>  (6) 
6

>  <SMILES>  (6) 
O=S(=O)([N-]c1cc2c(cc1O)CCCC2)c1ccc([O-])c(S(=O)(=O)N2CCOCC2)c1

>  <Energy>  (6) 
70.00813876812293

>  <Genealogy>  (6) 
O=S(=O)([N-]c1cc2c(cc1O)CCCC2)c1ccc([O-])c(S(=O)(=O)N2CCOCC2)c1 (protonated)
O=S(=O)([N-]c1cc2c(cc1O)CCCC2)c1ccc([O-])c(S(=O)(=O)N2CCOCC2)c1 (3D coordinates assigned)
O=S(=O)([N-]c1cc2c(cc1O)CCCC2)c1ccc([O-])c(S(=O)(=O)N2CCOCC2)c1 (nonaromatic ring conformer: 70.00813876812293 kcal/mol)

>  <smiles>  (6) 
O=S(=O)(Nc1cc2c(cc1O)CCCC2)c1ccc(O)c(S(=O)(=O)N2CCOCC2)c1

>  <score_type>  (6) 
oracle

>  <origin>  (6) 
adgpu

>  <m_score__min__energy>  (6) 
-12.380000000000001

>  <m_primary>  (6) 
energy

$$$$
6:0
     RDKit          3D

 49 51  0  0  0  0  0  0  0  0999 V2000
   -5.6540   19.9850  -33.1410 C   0  0  0  0  0  0  0  0  0  0  0  0
   -6.8450   20.6890  -32.5450 C   0  0  0  0  0  0  0  0  0  0  0  0
   -8.1340   20.2150  -32.8440 C   0  0  0  0  0  0  0  0  0  0  0  0
   -9.2630   20.8670  -32.3440 C   0  0  0  0  0  0  0  0  0  0  0  0
   -9.1190   21.9970  -31.5390 C   0  0  0  0  0  0  0  0  0  0  0  0
   -7.8440   22.4690  -31.2180 C   0  0  0  0  0  0  0  0  0  0  0  0
   -6.7010   21.8080  -31.6890 C   0  0  0  0  0  0  0  0  0  0  0  0
   -5.4110   22.3150  -31.3190 N   0  0  0  0  0  0  0  0  0  0  0  0
   -5.1090   23.7160  -31.2960 C   0  0  0  0  0  0  0  0  0  0  0  0
   -5.9460   24.5540  -31.7320 O   0  0  0  0  0  0  0  0  0  0  0  0
   -3.8250   24.1500  -30.8370 N   0  0  0  0  0  0  0  0  0  0  0  0
   -3.1130   23.5920  -29.7230 C   0  0  0  0  0  0  0  0  0  0  0  0
   -3.4230   22.2940  -29.3230 C   0  0  0  0  0  0  0  0  0  0  0  0
   -2.7590   21.7100  -28.2480 C   0  0  0  0  0  0  0  0  0  0  0  0
   -1.7850   22.4210  -27.5280 C   0  0  0  0  0  0  0  0  0  0  0  0
   -1.0730   21.7020  -26.4140 C   0  0  0  0  0  0  0  0  0  0  0  0
   -1.4870   23.7640  -27.8930 C   0  0  0  0  0  0  0  0  0  0  0  0
   -0.2770   24.7590  -27.0230 S   0  0  0  0  0  0  0  0  0  0  0  0
    0.1280   25.9000  -27.9140 O   0  0  0  0  0  0  0  0  0  0  0  0
    0.9710   23.9640  -26.7570 O   0  0  0  0  0  0  0  0  0  0  0  0
   -0.8820   25.4400  -25.5220 N   0  0  0  0  0  0  0  0  0  0  0  0
   -1.6680   26.6780  -25.7100 C   0  0  0  0  0  0  0  0  0  0  0  0
   -0.8840   27.9240  -25.2590 C   0  0  0  0  0  0  0  0  0  0  0  0
   -0.4980   27.8770  -23.8900 O   0  0  0  0  0  0  0  0  0  0  0  0
   -0.2320   26.5630  -23.4130 C   0  0  0  0  0  0  0  0  0  0  0  0
    0.1890   25.5780  -24.5160 C   0  0  0  0  0  0  0  0  0  0  0  0
   -2.1710   24.3400  -28.9920 C   0  0  0  0  0  0  0  0  0  0  0  0
   -1.9490   25.6710  -29.3300 O   0  0  0  0  0  0  0  0  0  0  0  0
   -5.0109   19.6049  -32.3336 H   0  0  0  0  0  0  0  0  0  0  0  0
   -5.9977   19.1449  -33.7623 H   0  0  0  0  0  0  0  0  0  0  0  0
   -5.0837   20.6912  -33.7623 H   0  0  0  0  0  0  0  0  0  0  0  0
   -8.2543   19.3234  -33.4769 H   0  0  0  0  0  0  0  0  0  0  0  0
  -10.2674   20.4890  -32.5853 H   0  0  0  0  0  0  0  0  0  0  0  0
  -10.0099   22.5167  -31.1567 H   0  0  0  0  0  0  0  0  0  0  0  0
   -7.7361   23.3662  -30.5908 H   0  0  0  0  0  0  0  0  0  0  0  0
   -4.6180   21.6410  -31.2300 H   0  0  0  0  0  0  0  0  0  0  0  0
   -4.1975   21.7270  -29.8602 H   0  0  0  0  0  0  0  0  0  0  0  0
   -3.0006   20.6767  -27.9582 H   0  0  0  0  0  0  0  0  0  0  0  0
   -1.4397   22.0723  -25.4453 H   0  0  0  0  0  0  0  0  0  0  0  0
   -1.2676   20.6221  -26.4912 H   0  0  0  0  0  0  0  0  0  0  0  0
    0.0087   21.8861  -26.4912 H   0  0  0  0  0  0  0  0  0  0  0  0
   -1.9202   26.7818  -26.7757 H   0  0  0  0  0  0  0  0  0  0  0  0
   -2.5772   26.6037  -25.0953 H   0  0  0  0  0  0  0  0  0  0  0  0
    0.0231   28.0087  -25.8755 H   0  0  0  0  0  0  0  0  0  0  0  0
   -1.5490   28.7915  -25.3821 H   0  0  0  0  0  0  0  0  0  0  0  0
    0.5781   26.6203  -22.6710 H   0  0  0  0  0  0  0  0  0  0  0  0
   -1.1696   26.1816  -22.9824 H   0  0  0  0  0  0  0  0  0  0  0  0
    1.1002   25.9513  -25.0062 H   0  0  0  0  0  0  0  0  0  0  0  0
    0.3788   24.5946  -24.0613 H   0  0  0  0  0  0  0  0  0  0  0  0
  1  2  1  0
  2  3  2  0
  3  4  1  0
  4  5  2  0
  5  6  1  0
  6  7  2  0
  7  8  1  0
  8  9  1  0
  9 10  2  0
  9 11  1  0
 11 12  1  0
 12 13  2  0
 13 14  1  0
 14 15  2  0
 15 16  1  0
 15 17  1  0
 17 18  1  0
 18 19  2  0
 18 20  2  0
 18 21  1  0
 21 22  1  0
 22 23  1  0
 23 24  1  0
 24 25  1  0
 25 26  1  0
 17 27  2  0
 27 28  1  0
  7  2  1  0
 27 12  1  0
 26 21  1  0
  1 29  1  0
  1 30  1  0
  1 31  1  0
  3 32  1  0
  4 33  1  0
  5 34  1  0
  6 35  1  0
  8 36  1  0
 13 37  1  0
 14 38  1  0
 16 39  1  0
 16 40  1  0
 16 41  1  0
 22 42  1  0
 22 43  1  0
 23 44  1  0
 23 45  1  0
 25 46  1  0
 25 47  1  0
 26 48  1  0
 26 49  1  0
M  CHG  2  11  -1  28  -1
M  END
>  <UniqueID>  (7) 
7

>  <SMILES>  (7) 
Cc1ccccc1NC(=O)[N-]c1ccc(C)c(S(=O)(=O)N2CCOCC2)c1[O-]

>  <Energy>  (7) 
80.12392287233325

>  <Genealogy>  (7) 
Cc1ccccc1NC(=O)[N-]c1ccc(C)c(S(=O)(=O)N2CCOCC2)c1[O-] (protonated)
Cc1ccccc1NC(=O)[N-]c1ccc(C)c(S(=O)(=O)N2CCOCC2)c1[O-] (3D coordinates assigned)
Cc1ccccc1NC(=O)[N-]c1ccc(C)c(S(=O)(=O)N2CCOCC2)c1[O-] (nonaromatic ring conformer: 80.12392287233325 kcal/mol)

>  <smiles>  (7) 
Cc1ccccc1NC(=O)Nc1ccc(C)c(S(=O)(=O)N2CCOCC2)c1O

>  <score_type>  (7) 
oracle

>  <origin>  (7) 
adgpu

>  <m_score__min__energy>  (7) 
-13.33

>  <m_primary>  (7) 
energy

$$$$
7:0
     RDKit          3D

 53 55  0  0  0  0  0  0  0  0999 V2000
   -3.0170   20.5280  -27.5600 C   0  0  0  0  0  0  0  0  0  0  0  0
   -1.5130   20.7790  -27.5550 C   0  0  0  0  0  0  0  0  0  0  0  0
   -1.2150   22.2380  -27.7790 C   0  0  0  0  0  0  0  0  0  0  0  0
   -0.0380   22.8060  -27.2690 C   0  0  0  0  0  0  0  0  0  0  0  0
    0.2330   24.1610  -27.4700 C   0  0  0  0  0  0  0  0  0  0  0  0
   -0.6790   24.9640  -28.1600 C   0  0  0  0  0  0  0  0  0  0  0  0
   -1.8790   24.4230  -28.6380 C   0  0  0  0  0  0  0  0  0  0  0  0
   -2.7840   25.2810  -29.3490 N   0  0  0  0  0  0  0  0  0  0  0  0
   -3.7120   24.8790  -30.3620 C   0  0  0  0  0  0  0  0  0  0  0  0
   -4.6600   25.6400  -30.6970 O   0  0  0  0  0  0  0  0  0  0  0  0
   -3.4840   23.6510  -31.0610 N   0  0  0  0  0  0  0  0  0  0  0  0
   -4.4640   22.6500  -31.3710 C   0  0  0  0  0  0  0  0  0  0  0  0
   -5.6900   23.0550  -31.9140 C   0  0  0  0  0  0  0  0  0  0  0  0
   -6.6680   22.1120  -32.2410 C   0  0  0  0  0  0  0  0  0  0  0  0
   -6.4230   20.7460  -32.0440 C   0  0  0  0  0  0  0  0  0  0  0  0
   -7.6540   19.5450  -32.4230 S   0  0  0  0  0  0  0  0  0  0  0  0
   -8.7910   20.2290  -33.1290 O   0  0  0  0  0  0  0  0  0  0  0  0
   -8.1790   18.9230  -31.1570 O   0  0  0  0  0  0  0  0  0  0  0  0
   -6.9680   18.3100  -33.4520 N   0  0  0  0  0  0  0  0  0  0  0  0
   -6.0770   18.9030  -34.4800 C   0  0  0  0  0  0  0  0  0  0  0  0
   -4.5880   18.7760  -34.1280 C   0  0  0  0  0  0  0  0  0  0  0  0
   -4.1790   17.3040  -33.9470 C   0  0  0  0  0  0  0  0  0  0  0  0
   -5.3420   16.4190  -33.4390 C   0  0  1  0  0  0  0  0  0  0  0  0
   -4.8170   15.2350  -32.6200 C   0  0  0  0  0  0  0  0  0  0  0  0
   -6.3390   17.2580  -32.6220 C   0  0  0  0  0  0  0  0  0  0  0  0
   -5.1900   20.3340  -31.5240 C   0  0  0  0  0  0  0  0  0  0  0  0
   -4.2120   21.2770  -31.1970 C   0  0  0  0  0  0  0  0  0  0  0  0
   -2.1370   23.0520  -28.4590 C   0  0  0  0  0  0  0  0  0  0  0  0
   -3.3820   20.4671  -26.5241 H   0  0  0  0  0  0  0  0  0  0  0  0
   -3.5248   21.3538  -28.0797 H   0  0  0  0  0  0  0  0  0  0  0  0
   -3.2291   19.5820  -28.0797 H   0  0  0  0  0  0  0  0  0  0  0  0
   -1.0990   20.4711  -26.5835 H   0  0  0  0  0  0  0  0  0  0  0  0
   -1.0550   20.1961  -28.3677 H   0  0  0  0  0  0  0  0  0  0  0  0
    0.6738   22.1819  -26.7089 H   0  0  0  0  0  0  0  0  0  0  0  0
    1.1663   24.5972  -27.0844 H   0  0  0  0  0  0  0  0  0  0  0  0
   -0.4530   26.0272  -28.3287 H   0  0  0  0  0  0  0  0  0  0  0  0
   -5.8845   24.1242  -32.0844 H   0  0  0  0  0  0  0  0  0  0  0  0
   -7.6325   22.4425  -32.6540 H   0  0  0  0  0  0  0  0  0  0  0  0
   -6.2560   18.3907  -35.4368 H   0  0  0  0  0  0  0  0  0  0  0  0
   -6.3110   19.9762  -34.5390 H   0  0  0  0  0  0  0  0  0  0  0  0
   -3.9894   19.2169  -34.9387 H   0  0  0  0  0  0  0  0  0  0  0  0
   -4.4094   19.3046  -33.1800 H   0  0  0  0  0  0  0  0  0  0  0  0
   -3.8362   16.9124  -34.9161 H   0  0  0  0  0  0  0  0  0  0  0  0
   -3.3817   17.2715  -33.1899 H   0  0  0  0  0  0  0  0  0  0  0  0
   -5.8706   16.0103  -34.3128 H   0  0  0  0  0  0  0  0  0  0  0  0
   -4.9161   15.4584  -31.5475 H   0  0  0  0  0  0  0  0  0  0  0  0
   -5.4001   14.3343  -32.8623 H   0  0  0  0  0  0  0  0  0  0  0  0
   -3.7580   15.0624  -32.8623 H   0  0  0  0  0  0  0  0  0  0  0  0
   -7.1242   16.5964  -32.2274 H   0  0  0  0  0  0  0  0  0  0  0  0
   -5.7907   17.7456  -31.8025 H   0  0  0  0  0  0  0  0  0  0  0  0
   -4.9903   19.2630  -31.3722 H   0  0  0  0  0  0  0  0  0  0  0  0
   -3.2409   20.9443  -30.8018 H   0  0  0  0  0  0  0  0  0  0  0  0
   -3.0659   22.6143  -28.8536 H   0  0  0  0  0  0  0  0  0  0  0  0
  1  2  1  0
  2  3  1  0
  3  4  2  0
  4  5  1  0
  5  6  2  0
  6  7  1  0
  7  8  1  0
  8  9  1  0
  9 10  2  0
  9 11  1  0
 11 12  1  0
 12 13  2  0
 13 14  1  0
 14 15  2  0
 15 16  1  0
 16 17  2  0
 16 18  2  0
 16 19  1  0
 19 20  1  0
 20 21  1  0
 21 22  1  0
 22 23  1  0
 23 24  1  0
 23 25  1  0
 15 26  1  0
 26 27  2  0
  7 28  2  0
 28  3  1  0
 27 12  1  0
 25 19  1  0
  1 29  1  0
  1 30  1  0
  1 31  1  0
  2 32  1  0
  2 33  1  0
  4 34  1  0
  5 35  1  0
  6 36  1  0
 13 37  1  0
 14 38  1  0
 20 39  1  0
 20 40  1  0
 21 41  1  0
 21 42  1  0
 22 43  1  0
 22 44  1  0
 23 45  1  6
 24 46  1  0
 24 47  1  0
 24 48  1  0
 25 49  1  0
 25 50  1  0
 26 51  1  0
 27 52  1  0
 28 53  1  0
M  CHG  2   8  -1  11  -1
M  END
>  <UniqueID>  (8) 
8

>  <SMILES>  (8) 
CCc1cccc([N-]C(=O)[N-]c2ccc(S(=O)(=O)N3CCC[C@@H](C)C3)cc2)c1

>  <Energy>  (8) 
61.11757915561045

>  <Genealogy>  (8) 
CCc1cccc([N-]C(=O)[N-]c2ccc(S(=O)(=O)N3CCCC(C)C3)cc2)c1 (protonated)
CCc1cccc([N-]C(=O)[N-]c2ccc(S(=O)(=O)N3CCC[C@@H](C)C3)cc2)c1 (chirality)
CCc1cccc([N-]C(=O)[N-]c2ccc(S(=O)(=O)N3CCC[C@@H](C)C3)cc2)c1 (3D coordinates assigned)
CCc1cccc([N-]C(=O)[N-]c2ccc(S(=O)(=O)N3CCC[C@@H](C)C3)cc2)c1 (nonaromatic ring conformer: 61.11757915561045 kcal/mol)

>  <smiles>  (8) 
CCc1cccc(NC(=O)Nc2ccc(S(=O)(=O)N3CCCC(C)C3)cc2)c1

>  <score_type>  (8) 
oracle

>  <origin>  (8) 
adgpu

>  <m_score__min__energy>  (8) 
-12.4

>  <m_primary>  (8) 
energy

$$$$
8:0
     RDKit          3D

 46 48  0  0  0  0  0  0  0  0999 V2000
   -1.4060   21.0500  -27.1950 C   0  0  0  0  0  0  0  0  0  0  0  0
   -2.1080   22.0820  -28.0400 C   0  0  0  0  0  0  0  0  0  0  0  0
   -3.2290   21.6870  -28.7870 C   0  0  0  0  0  0  0  0  0  0  0  0
   -3.9120   22.5990  -29.5860 C   0  0  0  0  0  0  0  0  0  0  0  0
   -3.4980   23.9370  -29.6460 C   0  0  0  0  0  0  0  0  0  0  0  0
   -4.1620   24.8890  -30.4920 N   0  0  0  0  0  0  0  0  0  0  0  0
   -5.3990   24.6870  -31.1840 C   0  0  0  0  0  0  0  0  0  0  0  0
   -6.4390   25.2450  -30.7460 O   0  0  0  0  0  0  0  0  0  0  0  0
   -5.4520   23.8570  -32.3530 N   0  0  0  0  0  0  0  0  0  0  0  0
   -5.0220   22.4920  -32.4600 C   0  0  0  0  0  0  0  0  0  0  0  0
   -5.8940   21.4120  -32.2270 C   0  0  0  0  0  0  0  0  0  0  0  0
   -5.4250   20.0990  -32.3200 C   0  0  0  0  0  0  0  0  0  0  0  0
   -4.0860   19.8500  -32.6300 C   0  0  0  0  0  0  0  0  0  0  0  0
   -3.2060   20.9180  -32.8390 C   0  0  0  0  0  0  0  0  0  0  0  0
   -1.8230   20.6640  -33.1460 C   0  0  0  0  0  0  0  0  0  0  0  0
   -0.7110   20.4590  -33.3930 N   0  0  0  0  0  0  0  0  0  0  0  0
   -3.6740   22.2360  -32.7460 C   0  0  0  0  0  0  0  0  0  0  0  0
   -2.3700   24.3440  -28.9210 C   0  0  0  0  0  0  0  0  0  0  0  0
   -1.9450   25.6640  -29.0370 O   0  0  0  0  0  0  0  0  0  0  0  0
   -1.6790   23.4340  -28.0880 C   0  0  0  0  0  0  0  0  0  0  0  0
   -0.2600   23.9710  -27.1530 S   0  0  0  0  0  0  0  0  0  0  0  0
    0.6870   22.8310  -26.8990 O   0  0  0  0  0  0  0  0  0  0  0  0
    0.4780   25.0180  -27.9400 O   0  0  0  0  0  0  0  0  0  0  0  0
   -0.7810   24.6460  -25.6280 N   0  0  0  0  0  0  0  0  0  0  0  0
    0.3870   25.1330  -24.8680 C   0  0  0  0  0  0  0  0  0  0  0  0
   -0.0470   26.1560  -23.8060 C   0  0  0  0  0  0  0  0  0  0  0  0
   -0.6970   27.3060  -24.3350 O   0  0  0  0  0  0  0  0  0  0  0  0
   -1.2590   27.1050  -25.6240 C   0  0  0  0  0  0  0  0  0  0  0  0
   -1.8150   25.6850  -25.8270 C   0  0  0  0  0  0  0  0  0  0  0  0
   -1.5622   21.2797  -26.1307 H   0  0  0  0  0  0  0  0  0  0  0  0
   -1.8143   20.0534  -27.4188 H   0  0  0  0  0  0  0  0  0  0  0  0
   -0.3291   21.0637  -27.4188 H   0  0  0  0  0  0  0  0  0  0  0  0
   -3.5720   20.6429  -28.7402 H   0  0  0  0  0  0  0  0  0  0  0  0
   -4.7812   22.2683  -30.1735 H   0  0  0  0  0  0  0  0  0  0  0  0
   -6.9468   21.6019  -31.9712 H   0  0  0  0  0  0  0  0  0  0  0  0
   -6.1131   19.2581  -32.1484 H   0  0  0  0  0  0  0  0  0  0  0  0
   -3.7232   18.8146  -32.7099 H   0  0  0  0  0  0  0  0  0  0  0  0
   -2.9789   23.0748  -32.8985 H   0  0  0  0  0  0  0  0  0  0  0  0
    0.8758   24.2818  -24.3715 H   0  0  0  0  0  0  0  0  0  0  0  0
    1.0856   25.6196  -25.5646 H   0  0  0  0  0  0  0  0  0  0  0  0
   -0.7385   25.6585  -23.1101 H   0  0  0  0  0  0  0  0  0  0  0  0
    0.8711   26.5100  -23.3144 H   0  0  0  0  0  0  0  0  0  0  0  0
   -2.0787   27.8250  -25.7643 H   0  0  0  0  0  0  0  0  0  0  0  0
   -0.4530   27.2490  -26.3586 H   0  0  0  0  0  0  0  0  0  0  0  0
   -2.6291   25.5171  -25.1066 H   0  0  0  0  0  0  0  0  0  0  0  0
   -2.1753   25.6085  -26.8635 H   0  0  0  0  0  0  0  0  0  0  0  0
  1  2  1  0
  2  3  2  0
  3  4  1  0
  4  5  2  0
  5  6  1  0
  6  7  1  0
  7  8  2  0
  7  9  1  0
  9 10  1  0
 10 11  2  0
 11 12  1  0
 12 13  2  0
 13 14  1  0
 14 15  1  0
 15 16  3  0
 14 17  2  0
  5 18  1  0
 18 19  1  0
 18 20  2  0
 20 21  1  0
 21 22  2  0
 21 23  2  0
 21 24  1  0
 24 25  1  0
 25 26  1  0
 26 27  1  0
 27 28  1  0
 28 29  1  0
 20  2  1  0
 29 24  1  0
 17 10  1  0
  1 30  1  0
  1 31  1  0
  1 32  1  0
  3 33  1  0
  4 34  1  0
 11 35  1  0
 12 36  1  0
 13 37  1  0
 17 38  1  0
 25 39  1  0
 25 40  1  0
 26 41  1  0
 26 42  1  0
 28 43  1  0
 28 44  1  0
 29 45  1  0
 29 46  1  0
M  CHG  3   6  -1   9  -1  19  -1
M  END
>  <UniqueID>  (9) 
9

>  <SMILES>  (9) 
Cc1ccc([N-]C(=O)[N-]c2cccc(C#N)c2)c([O-])c1S(=O)(=O)N1CCOCC1

>  <Energy>  (9) 
69.31811478328135

>  <Genealogy>  (9) 
Cc1ccc([N-]C(=O)[N-]c2cccc(C#N)c2)c([O-])c1S(=O)(=O)N1CCOCC1 (protonated)
Cc1ccc([N-]C(=O)[N-]c2cccc(C#N)c2)c([O-])c1S(=O)(=O)N1CCOCC1 (3D coordinates assigned)
Cc1ccc([N-]C(=O)[N-]c2cccc(C#N)c2)c([O-])c1S(=O)(=O)N1CCOCC1 (nonaromatic ring conformer: 69.31811478328135 kcal/mol)

>  <smiles>  (9) 
Cc1ccc(NC(=O)Nc2cccc(C#N)c2)c(O)c1S(=O)(=O)N1CCOCC1

>  <score_type>  (9) 
oracle

>  <origin>  (9) 
adgpu

>  <m_score__min__energy>  (9) 
-15.220000000000001

>  <m_primary>  (9) 
energy

$$$$
9:0
     RDKit          3D

 42 43  0  0  0  0  0  0  0  0999 V2000
   -1.2940   25.5720  -28.5880 C   0  0  0  0  0  0  0  0  0  0  0  0
   -2.5040   25.2510  -29.3400 N   0  0  0  0  0  0  0  0  0  0  0  0
   -2.7330   23.5280  -29.3930 S   0  0  0  0  0  0  0  0  0  0  0  0
   -1.6540   22.9080  -30.2390 O   0  0  0  0  0  0  0  0  0  0  0  0
   -2.6360   22.9910  -27.9930 O   0  0  0  0  0  0  0  0  0  0  0  0
   -4.3240   23.1190  -30.0550 C   0  0  0  0  0  0  0  0  0  0  0  0
   -4.4370   22.0250  -30.9270 C   0  0  0  0  0  0  0  0  0  0  0  0
   -5.6790   21.6360  -31.4480 C   0  0  0  0  0  0  0  0  0  0  0  0
   -5.7710   20.2200  -32.5040 S   0  0  0  0  0  0  0  0  0  0  0  0
   -6.6930   20.4840  -33.6620 O   0  0  0  0  0  0  0  0  0  0  0  0
   -6.3100   19.0560  -31.7210 O   0  0  0  0  0  0  0  0  0  0  0  0
   -4.1760   19.8490  -33.1520 C   0  0  0  0  0  0  0  0  0  0  0  0
   -3.2860   20.8920  -33.4390 C   0  0  0  0  0  0  0  0  0  0  0  0
   -2.0060   20.6100  -33.9280 C   0  0  0  0  0  0  0  0  0  0  0  0
   -1.6120   19.2840  -34.1330 C   0  0  0  0  0  0  0  0  0  0  0  0
   -2.4980   18.2400  -33.8530 C   0  0  0  0  0  0  0  0  0  0  0  0
   -3.7780   18.5190  -33.3630 C   0  0  0  0  0  0  0  0  0  0  0  0
   -6.8320   22.3690  -31.1040 C   0  0  0  0  0  0  0  0  0  0  0  0
   -8.1200   22.0070  -31.6220 N   0  0  0  0  0  0  0  0  0  0  0  0
   -9.0060   23.0630  -32.1080 C   0  0  0  0  0  0  0  0  0  0  0  0
   -8.7130   20.7330  -31.2150 C   0  0  0  0  0  0  0  0  0  0  0  0
   -6.7210   23.4740  -30.2520 C   0  0  0  0  0  0  0  0  0  0  0  0
   -5.4810   23.8660  -29.7300 C   0  0  0  0  0  0  0  0  0  0  0  0
   -5.4220   25.0300  -28.8950 N   0  0  0  0  0  0  0  0  0  0  0  0
   -1.5064   25.5157  -27.5102 H   0  0  0  0  0  0  0  0  0  0  0  0
   -0.5018   24.8530  -28.8437 H   0  0  0  0  0  0  0  0  0  0  0  0
   -0.9624   26.5892  -28.8437 H   0  0  0  0  0  0  0  0  0  0  0  0
   -3.5342   21.4623  -31.2068 H   0  0  0  0  0  0  0  0  0  0  0  0
   -3.5945   21.9357  -33.2794 H   0  0  0  0  0  0  0  0  0  0  0  0
   -1.3093   21.4315  -34.1513 H   0  0  0  0  0  0  0  0  0  0  0  0
   -0.6044   19.0626  -34.5148 H   0  0  0  0  0  0  0  0  0  0  0  0
   -2.1883   17.1975  -34.0182 H   0  0  0  0  0  0  0  0  0  0  0  0
   -4.4735   17.6958  -33.1427 H   0  0  0  0  0  0  0  0  0  0  0  0
   -9.4499   23.5921  -31.2518 H   0  0  0  0  0  0  0  0  0  0  0  0
   -8.4294   23.7731  -32.7190 H   0  0  0  0  0  0  0  0  0  0  0  0
   -9.8055   22.6185  -32.7190 H   0  0  0  0  0  0  0  0  0  0  0  0
   -8.7399   20.6753  -30.1168 H   0  0  0  0  0  0  0  0  0  0  0  0
   -9.7368   20.6619  -31.6111 H   0  0  0  0  0  0  0  0  0  0  0  0
   -8.1082   19.9039  -31.6111 H   0  0  0  0  0  0  0  0  0  0  0  0
   -7.6233   24.0449  -29.9875 H   0  0  0  0  0  0  0  0  0  0  0  0
   -4.5760   25.6430  -28.9020 H   0  0  0  0  0  0  0  0  0  0  0  0
   -6.1750   25.2720  -28.2170 H   0  0  0  0  0  0  0  0  0  0  0  0
  1  2  1  0
  2  3  1  0
  3  4  2  0
  3  5  2  0
  3  6  1  0
  6  7  2  0
  7  8  1  0
  8  9  1  0
  9 10  2  0
  9 11  2  0
  9 12  1  0
 12 13  2  0
 13 14  1  0
 14 15  2  0
 15 16  1  0
 16 17  2  0
  8 18  2  0
 18 19  1  0
 19 20  1  0
 19 21  1  0
 18 22  1  0
 22 23  2  0
 23 24  1  0
 23  6  1  0
 17 12  1  0
  1 25  1  0
  1 26  1  0
  1 27  1  0
  7 28  1  0
 13 29  1  0
 14 30  1  0
 15 31  1  0
 16 32  1  0
 17 33  1  0
 20 34  1  0
 20 35  1  0
 20 36  1  0
 21 37  1  0
 21 38  1  0
 21 39  1  0
 22 40  1  0
 24 41  1  0
 24 42  1  0
M  CHG  1   2  -1
M  END
>  <UniqueID>  (10) 
10

>  <SMILES>  (10) 
C[N-]S(=O)(=O)c1cc(S(=O)(=O)c2ccccc2)c(N(C)C)cc1N

>  <Energy>  (10) 
47.04226627597751

>  <Genealogy>  (10) 
C[N-]S(=O)(=O)c1cc(S(=O)(=O)c2ccccc2)c(N(C)C)cc1N (protonated)
C[N-]S(=O)(=O)c1cc(S(=O)(=O)c2ccccc2)c(N(C)C)cc1N (3D coordinates assigned)
C[N-]S(=O)(=O)c1cc(S(=O)(=O)c2ccccc2)c(N(C)C)cc1N (optimized conformer: 47.04226627597751 kcal/mol)

>  <smiles>  (10) 
CNS(=O)(=O)c1cc(S(=O)(=O)c2ccccc2)c(N(C)C)cc1N

>  <score_type>  (10) 
oracle

>  <origin>  (10) 
adgpu

>  <m_score__min__energy>  (10) 
-9.0800000000000001

>  <m_primary>  (10) 
energy

$$$$
10:0
     RDKit          3D

 29 30  0  0  0  0  0  0  0  0999 V2000
   -2.2730   20.3210  -29.1640 H   0  0  0  0  0  0  0  0  0  0  0  0
   -2.4250   21.2670  -29.4890 O   0  0  0  0  0  0  0  0  0  0  0  0
   -1.6450   22.3480  -29.0710 C   0  0  0  0  0  0  0  0  0  0  0  0
   -0.4480   22.0790  -28.3980 C   0  0  0  0  0  0  0  0  0  0  0  0
   -0.1310   21.0372  -28.2428 H   0  0  0  0  0  0  0  0  0  0  0  0
    0.3470   23.1240  -27.9220 C   0  0  0  0  0  0  0  0  0  0  0  0
    1.5310   22.8460  -27.2520 O   0  0  0  0  0  0  0  0  0  0  0  0
   -0.0500   24.4480  -28.1170 C   0  0  0  0  0  0  0  0  0  0  0  0
    0.5736   25.2690  -27.7333 H   0  0  0  0  0  0  0  0  0  0  0  0
   -1.2370   24.7350  -28.7980 C   0  0  0  0  0  0  0  0  0  0  0  0
   -1.6060   26.0620  -28.9900 O   0  0  0  0  0  0  0  0  0  0  0  0
   -2.0400   23.6890  -29.2930 C   0  0  0  0  0  0  0  0  0  0  0  0
   -3.2830   24.0150  -30.0270 C   0  0  0  0  0  0  0  0  0  0  0  0
   -3.5340   25.2220  -30.2850 O   0  0  0  0  0  0  0  0  0  0  0  0
   -4.2320   22.9810  -30.4920 C   0  0  0  0  0  0  0  0  0  0  0  0
   -3.9006   21.9322  -30.5057 H   0  0  0  0  0  0  0  0  0  0  0  0
   -5.4790   23.2640  -30.8980 C   0  0  0  0  0  0  0  0  0  0  0  0
   -5.8062   24.3139  -30.8744 H   0  0  0  0  0  0  0  0  0  0  0  0
   -6.4420   22.2420  -31.3770 C   0  0  0  0  0  0  0  0  0  0  0  0
   -7.7360   22.2290  -30.8300 C   0  0  0  0  0  0  0  0  0  0  0  0
   -8.0131   22.9736  -30.0693 H   0  0  0  0  0  0  0  0  0  0  0  0
   -8.6750   21.2790  -31.2430 C   0  0  0  0  0  0  0  0  0  0  0  0
   -9.6874   21.2840  -30.8128 H   0  0  0  0  0  0  0  0  0  0  0  0
   -8.3290   20.3240  -32.2010 C   0  0  0  0  0  0  0  0  0  0  0  0
   -9.5070   19.1310  -32.7180 Cl  0  0  0  0  0  0  0  0  0  0  0  0
   -7.0410   20.3140  -32.7430 C   0  0  0  0  0  0  0  0  0  0  0  0
   -6.7677   19.5585  -33.4944 H   0  0  0  0  0  0  0  0  0  0  0  0
   -6.0980   21.2630  -32.3320 C   0  0  0  0  0  0  0  0  0  0  0  0
   -5.0832   21.2452  -32.7561 H   0  0  0  0  0  0  0  0  0  0  0  0
  1  2  1  0
  2  3  1  0
  3  4  2  0
  4  5  1  0
  4  6  1  0
  6  7  1  0
  6  8  2  0
  8  9  1  0
  8 10  1  0
 10 11  1  0
 10 12  2  0
 12 13  1  0
 13 14  2  0
 13 15  1  0
 15 16  1  0
 15 17  2  0
 17 18  1  0
 17 19  1  0
 19 20  2  0
 20 21  1  0
 20 22  1  0
 22 23  1  0
 22 24  2  0
 24 25  1  0
 24 26  1  0
 26 27  1  0
 26 28  2  0
 28 29  1  0
 12  3  1  0
 28 19  1  0
M  CHG  2   7  -1  11  -1
M  END
>  <UniqueID>  (11) 
11

>  <SMILES>  (11) 
O=C(/C=C/c1ccc(Cl)cc1)c1c([O-])cc([O-])cc1O

>  <Energy>  (11) 
40.03372910798389

>  <Genealogy>  (11) 
O=C(C=Cc1ccc(Cl)cc1)c1c([O-])cc([O-])cc1O (protonated)
O=C(/C=C/c1ccc(Cl)cc1)c1c([O-])cc([O-])cc1O (cis-trans isomerization)
O=C(/C=C/c1ccc(Cl)cc1)c1c([O-])cc([O-])cc1O (3D coordinates assigned)
O=C(/C=C/c1ccc(Cl)cc1)c1c([O-])cc([O-])cc1O (optimized conformer: 40.03372910798389 kcal/mol)

>  <smiles>  (11) 
O=C(C=Cc1ccc(Cl)cc1)c1c(O)cc(O)cc1O

>  <score_type>  (11) 
oracle

>  <origin>  (11) 
adgpu

>  <m_score__min__energy>  (11) 
-10.609999999999999

>  <m_primary>  (11) 
energy

$$$$
11:0
     RDKit          3D

 53 56  0  0  0  0  0  0  0  0999 V2000
   -7.1710   12.3910  -33.8390 C   0  0  0  0  0  0  0  0  0  0  0  0
   -6.4830   13.7170  -33.9800 C   0  0  0  0  0  0  0  0  0  0  0  0
   -5.1530   13.8670  -33.5610 C   0  0  0  0  0  0  0  0  0  0  0  0
   -4.5240   15.1140  -33.6440 C   0  0  0  0  0  0  0  0  0  0  0  0
   -5.2190   16.2300  -34.1420 C   0  0  0  0  0  0  0  0  0  0  0  0
   -4.5960   17.5300  -34.1700 N   0  0  0  0  0  0  0  0  0  0  0  0
   -5.4180   18.7100  -34.2810 C   0  0  0  0  0  0  0  0  0  0  0  0
   -6.1250   18.8940  -35.3090 O   0  0  0  0  0  0  0  0  0  0  0  0
   -5.4840   19.6360  -33.1880 N   0  0  0  0  0  0  0  0  0  0  0  0
   -6.6760   20.2510  -32.6790 C   0  0  0  0  0  0  0  0  0  0  0  0
   -7.8370   19.4770  -32.5660 C   0  0  0  0  0  0  0  0  0  0  0  0
   -9.0150   20.0360  -32.0600 C   0  0  0  0  0  0  0  0  0  0  0  0
   -9.0300   21.3680  -31.6390 C   0  0  0  0  0  0  0  0  0  0  0  0
  -10.1680   21.9080  -31.1380 F   0  0  0  0  0  0  0  0  0  0  0  0
   -7.8670   22.1390  -31.7190 C   0  0  0  0  0  0  0  0  0  0  0  0
   -6.6910   21.5860  -32.2350 C   0  0  0  0  0  0  0  0  0  0  0  0
   -3.1540   17.6040  -34.2200 C   0  0  0  0  0  0  0  0  0  0  0  0
   -2.3840   16.6620  -34.9150 C   0  0  0  0  0  0  0  0  0  0  0  0
   -0.9950   16.8040  -34.9200 C   0  0  0  0  0  0  0  0  0  0  0  0
   -0.4160   17.8500  -34.2750 N   0  0  0  0  0  0  0  0  0  0  0  0
   -1.1700   18.7680  -33.6140 C   0  0  0  0  0  0  0  0  0  0  0  0
   -0.5880   19.7790  -33.0400 N   0  0  0  0  0  0  0  0  0  0  0  0
   -1.2400   20.8200  -32.2860 C   0  0  0  0  0  0  0  0  0  0  0  0
   -0.6570   21.3900  -31.1360 C   0  0  0  0  0  0  0  0  0  0  0  0
   -1.3280   22.3890  -30.4240 C   0  0  0  0  0  0  0  0  0  0  0  0
   -2.5750   22.8500  -30.8620 C   0  0  0  0  0  0  0  0  0  0  0  0
   -3.4080   24.1090  -29.9570 S   0  0  0  0  0  0  0  0  0  0  0  0
   -2.2540   25.2280  -29.3290 N   0  0  0  0  0  0  0  0  0  0  0  0
   -4.3700   24.8410  -30.8490 O   0  0  0  0  0  0  0  0  0  0  0  0
   -4.1740   23.4880  -28.8270 O   0  0  0  0  0  0  0  0  0  0  0  0
   -3.1370   22.3190  -32.0310 C   0  0  0  0  0  0  0  0  0  0  0  0
   -2.4670   21.3150  -32.7430 C   0  0  0  0  0  0  0  0  0  0  0  0
   -2.5230   18.6380  -33.6040 N   0  0  0  0  0  0  0  0  0  0  0  0
   -6.5560   16.0760  -34.5490 C   0  0  0  0  0  0  0  0  0  0  0  0
   -7.1850   14.8310  -34.4610 C   0  0  0  0  0  0  0  0  0  0  0  0
   -7.2942   12.1535  -32.7720 H   0  0  0  0  0  0  0  0  0  0  0  0
   -8.1588   12.4374  -34.3208 H   0  0  0  0  0  0  0  0  0  0  0  0
   -6.5643   11.6101  -34.3208 H   0  0  0  0  0  0  0  0  0  0  0  0
   -4.6022   13.0008  -33.1656 H   0  0  0  0  0  0  0  0  0  0  0  0
   -3.4791   15.2219  -33.3176 H   0  0  0  0  0  0  0  0  0  0  0  0
   -7.8227   18.4221  -32.8773 H   0  0  0  0  0  0  0  0  0  0  0  0
   -9.9289   19.4274  -31.9936 H   0  0  0  0  0  0  0  0  0  0  0  0
   -7.8769   23.1838  -31.3751 H   0  0  0  0  0  0  0  0  0  0  0  0
   -5.7769   22.1951  -32.2939 H   0  0  0  0  0  0  0  0  0  0  0  0
   -2.8643   15.8271  -35.4462 H   0  0  0  0  0  0  0  0  0  0  0  0
   -0.3692   16.0684  -35.4465 H   0  0  0  0  0  0  0  0  0  0  0  0
    0.3315   21.0469  -30.7968 H   0  0  0  0  0  0  0  0  0  0  0  0
   -0.8743   22.8141  -29.5165 H   0  0  0  0  0  0  0  0  0  0  0  0
   -2.7920   26.0520  -28.9740 H   0  0  0  0  0  0  0  0  0  0  0  0
   -4.1074   22.6916  -32.3909 H   0  0  0  0  0  0  0  0  0  0  0  0
   -2.9082   20.9133  -33.6671 H   0  0  0  0  0  0  0  0  0  0  0  0
   -7.1110   16.9417  -34.9395 H   0  0  0  0  0  0  0  0  0  0  0  0
   -8.2352   14.7248  -34.7704 H   0  0  0  0  0  0  0  0  0  0  0  0
  1  2  1  0
  2  3  2  0
  3  4  1  0
  4  5  2  0
  5  6  1  0
  6  7  1  0
  7  8  2  0
  7  9  1  0
  9 10  1  0
 10 11  2  0
 11 12  1  0
 12 13  2  0
 13 14  1  0
 13 15  1  0
 15 16  2  0
  6 17  1  0
 17 18  1  0
 18 19  2  0
 19 20  1  0
 20 21  1  0
 21 22  2  3
 22 23  1  0
 23 24  2  0
 24 25  1  0
 25 26  2  0
 26 27  1  0
 27 28  1  0
 27 29  2  0
 27 30  2  0
 26 31  1  0
 31 32  2  0
 21 33  1  0
  5 34  1  0
 34 35  2  0
 35  2  1  0
 16 10  1  0
 33 17  2  0
 32 23  1  0
  1 36  1  0
  1 37  1  0
  1 38  1  0
  3 39  1  0
  4 40  1  0
 11 41  1  0
 12 42  1  0
 15 43  1  0
 16 44  1  0
 18 45  1  0
 19 46  1  0
 24 47  1  0
 25 48  1  0
 28 49  1  0
 31 50  1  0
 32 51  1  0
 34 52  1  0
 35 53  1  0
M  CHG  3   9  -1  20  -1  28  -1
M  END
>  <UniqueID>  (12) 
12

>  <SMILES>  (12) 
Cc1ccc(N(C(=O)[N-]c2ccc(F)cc2)c2cc[n-]c(=Nc3ccc(S([NH-])(=O)=O)cc3)n2)cc1

>  <Energy>  (12) 
75.73475635183812

>  <Genealogy>  (12) 
Cc1ccc(N(C(=O)[N-]c2ccc(F)cc2)c2cc[n-]c(=Nc3ccc(S([NH-])(=O)=O)cc3)n2)cc1 (protonated)
Cc1ccc(N(C(=O)[N-]c2ccc(F)cc2)c2cc[n-]c(=Nc3ccc(S([NH-])(=O)=O)cc3)n2)cc1 (3D coordinates assigned)
Cc1ccc(N(C(=O)[N-]c2ccc(F)cc2)c2cc[n-]c(=Nc3ccc(S([NH-])(=O)=O)cc3)n2)cc1 (optimized conformer: 75.73475635183812 kcal/mol)

>  <smiles>  (12) 
Cc1ccc(N(C(=O)Nc2ccc(F)cc2)c2cc[nH]c(=Nc3ccc(S(N)(=O)=O)cc3)n2)cc1

>  <score_type>  (12) 
oracle

>  <origin>  (12) 
adgpu

>  <m_score__min__energy>  (12) 
-11.699999999999999

>  <m_primary>  (12) 
energy

$$$$
12:0
     RDKit          3D

 46 49  0  0  1  0  0  0  0  0999 V2000
   -9.5450   21.8120  -31.9500 C   0  0  0  0  0  0  0  0  0  0  0  0
   -8.4630   20.8010  -32.0730 C   0  0  0  0  0  0  0  0  0  0  0  0
   -7.4790   20.7600  -31.2580 O   0  0  0  0  0  0  0  0  0  0  0  0
   -8.4410   19.8110  -33.1010 N   0  0  0  0  0  0  0  0  0  0  0  0
   -7.3400   18.9100  -33.0930 C   0  0  0  0  0  0  0  0  0  0  0  0
   -7.5540   17.6410  -32.5530 C   0  0  0  0  0  0  0  0  0  0  0  0
   -6.5000   16.7580  -32.5380 C   0  0  0  0  0  0  0  0  0  0  0  0
   -5.2480   17.1170  -33.0460 C   0  0  0  0  0  0  0  0  0  0  0  0
   -5.0700   18.3910  -33.5770 C   0  0  0  0  0  0  0  0  0  0  0  0
   -3.7670   18.6970  -34.0810 N   0  0  0  0  0  0  0  0  0  0  0  0
   -3.0990   19.7240  -33.7090 C   0  0  0  0  0  0  0  0  0  0  0  0
   -1.8470   19.9420  -34.2470 C   0  0  0  0  0  0  0  0  0  0  0  0
   -1.1750   21.0680  -33.8080 C   0  0  0  0  0  0  0  0  0  0  0  0
    0.1560   21.3660  -34.3340 C   0  0  0  0  0  0  0  0  0  0  0  0
    1.2650   20.5530  -34.2230 C   0  0  0  0  0  0  0  0  0  0  0  0
    2.3010   21.2190  -34.8570 C   0  0  0  0  0  0  0  0  0  0  0  0
    1.7530   22.4190  -35.3240 C   0  0  0  0  0  0  0  0  0  0  0  0
    0.4850   22.4550  -34.9890 O   0  0  0  0  0  0  0  0  0  0  0  0
   -1.7420   21.8850  -32.9010 N   0  0  0  0  0  0  0  0  0  0  0  0
   -2.9620   21.6700  -32.3770 C   0  0  0  0  0  0  0  0  0  0  0  0
   -3.5050   22.6030  -31.3990 C   0  0  0  0  0  0  0  0  0  0  0  0
   -2.7000   23.0470  -30.3440 C   0  0  0  0  0  0  0  0  0  0  0  0
   -3.1690   23.9310  -29.3940 C   0  0  0  0  0  0  0  0  0  0  0  0
   -4.4600   24.4080  -29.4550 C   0  0  0  0  0  0  0  0  0  0  0  0
   -5.2600   23.9790  -30.4890 C   0  0  0  0  0  0  0  0  0  0  0  0
   -4.7730   23.0830  -31.4460 C   0  0  0  0  0  0  0  0  0  0  0  0
   -3.6180   20.5760  -32.8040 N   0  0  0  0  0  0  0  0  0  0  0  0
   -6.1080   19.2860  -33.6020 C   0  0  0  0  0  0  0  0  0  0  0  0
   -9.7493   22.0029  -30.8861 H   0  0  0  0  0  0  0  0  0  0  0  0
   -9.2302   22.7470  -32.4364 H   0  0  0  0  0  0  0  0  0  0  0  0
  -10.4565   21.4345  -32.4364 H   0  0  0  0  0  0  0  0  0  0  0  0
   -9.2100   19.7810  -33.8060 H   0  0  0  0  0  0  0  0  0  0  0  0
   -8.5373   17.3554  -32.1510 H   0  0  0  0  0  0  0  0  0  0  0  0
   -6.6445   15.7513  -32.1188 H   0  0  0  0  0  0  0  0  0  0  0  0
   -4.4133   16.4008  -33.0262 H   0  0  0  0  0  0  0  0  0  0  0  0
   -1.4069   19.2563  -34.9860 H   0  0  0  0  0  0  0  0  0  0  0  0
    1.3164   19.5713  -33.7293 H   0  0  0  0  0  0  0  0  0  0  0  0
    3.3399   20.8756  -34.9700 H   0  0  0  0  0  0  0  0  0  0  0  0
    2.2940   23.2001  -35.8783 H   0  0  0  0  0  0  0  0  0  0  0  0
   -1.6652   22.6814  -30.2700 H   0  0  0  0  0  0  0  0  0  0  0  0
   -2.5055   24.2581  -28.5799 H   0  0  0  0  0  0  0  0  0  0  0  0
   -4.8401   25.1112  -28.6993 H   0  0  0  0  0  0  0  0  0  0  0  0
   -6.2946   24.3450  -30.5638 H   0  0  0  0  0  0  0  0  0  0  0  0
   -5.4373   22.7581  -32.2603 H   0  0  0  0  0  0  0  0  0  0  0  0
   -4.5590   20.3620  -32.4350 H   0  0  0  0  0  0  0  0  0  0  0  0
   -5.9640   20.2924  -34.0220 H   0  0  0  0  0  0  0  0  0  0  0  0
  1  2  1  0
  2  3  2  0
  2  4  1  0
  4  5  1  0
  5  6  2  0
  6  7  1  0
  7  8  2  0
  8  9  1  0
  9 10  1  0
 10 11  2  0
 11 12  1  0
 12 13  2  0
 13 14  1  0
 14 15  2  0
 15 16  1  0
 16 17  2  0
 17 18  1  0
 13 19  1  0
 19 20  2  0
 20 21  1  0
 21 22  2  0
 22 23  1  0
 23 24  2  0
 24 25  1  0
 25 26  2  0
 20 27  1  0
  9 28  2  0
 28  5  1  0
 27 11  1  0
 18 14  1  0
 26 21  1  0
  1 29  1  0
  1 30  1  0
  1 31  1  0
  4 32  1  0
  6 33  1  0
  7 34  1  0
  8 35  1  0
 12 36  1  0
 15 37  1  0
 16 38  1  0
 17 39  1  0
 22 40  1  0
 23 41  1  0
 24 42  1  0
 25 43  1  0
 26 44  1  0
 27 45  1  0
 28 46  1  0
M  END
>  <smiles>  (13) 
CC(=O)Nc1cccc(N=c2cc(-c3ccco3)nc(-c3ccccc3)[nH]2)c1

>  <score_type>  (13) 
oracle

>  <origin>  (13) 
adgpu

>  <m_score__min__energy>  (13) 
-9.0099999999999998

>  <m_primary>  (13) 
energy

$$$$
13:0
     RDKit          3D

 49 52  0  0  0  0  0  0  0  0999 V2000
    0.9250   27.6060  -23.4350 C   0  0  0  0  0  0  0  0  0  0  0  0
    1.8800   27.5260  -24.9810 S   0  0  0  0  0  0  0  0  0  0  0  0
    0.6050   26.6260  -25.8550 C   0  0  0  0  0  0  0  0  0  0  0  0
   -0.7000   26.9420  -25.6640 N   0  0  0  0  0  0  0  0  0  0  0  0
   -1.6840   26.2750  -26.3170 C   0  0  0  0  0  0  0  0  0  0  0  0
   -1.3660   25.2400  -27.2100 C   0  0  0  0  0  0  0  0  0  0  0  0
   -2.4480   24.5340  -27.9380 C   0  0  0  0  0  0  0  0  0  0  0  0
   -2.9920   23.5270  -27.4100 O   0  0  0  0  0  0  0  0  0  0  0  0
   -2.8450   24.9640  -29.2520 N   0  0  0  0  0  0  0  0  0  0  0  0
   -3.9720   24.4270  -29.9650 C   0  0  0  0  0  0  0  0  0  0  0  0
   -4.9930   25.2900  -30.3870 C   0  0  0  0  0  0  0  0  0  0  0  0
   -6.1090   24.7910  -31.0630 C   0  0  0  0  0  0  0  0  0  0  0  0
   -6.2290   23.4150  -31.3230 C   0  0  0  0  0  0  0  0  0  0  0  0
   -7.4130   22.8810  -32.0340 C   0  0  0  0  0  0  0  0  0  0  0  0
   -8.1180   23.6550  -32.7350 O   0  0  0  0  0  0  0  0  0  0  0  0
   -7.7520   21.4870  -31.9810 N   0  0  0  0  0  0  0  0  0  0  0  0
   -8.8320   20.9380  -31.1610 C   0  0  0  0  0  0  0  0  0  0  0  0
   -8.8390   19.4130  -31.4280 C   0  0  0  0  0  0  0  0  0  0  0  0
   -7.6610   19.2160  -32.3190 C   0  0  0  0  0  0  0  0  0  0  0  0
   -7.1460   18.0120  -32.8030 C   0  0  0  0  0  0  0  0  0  0  0  0
   -5.9850   18.0510  -33.5920 C   0  0  0  0  0  0  0  0  0  0  0  0
   -5.3550   19.2800  -33.8670 C   0  0  0  0  0  0  0  0  0  0  0  0
   -5.8900   20.4770  -33.3650 C   0  0  0  0  0  0  0  0  0  0  0  0
   -7.0660   20.4140  -32.6070 C   0  0  0  0  0  0  0  0  0  0  0  0
   -5.2260   22.5460  -30.8640 C   0  0  0  0  0  0  0  0  0  0  0  0
   -4.1080   23.0460  -30.1890 C   0  0  0  0  0  0  0  0  0  0  0  0
   -0.0000   24.9230  -27.3890 C   0  0  0  0  0  0  0  0  0  0  0  0
    0.4550   23.8240  -28.3040 C   0  0  0  0  0  0  0  0  0  0  0  0
    0.9440   25.6280  -26.7080 N   0  0  0  0  0  0  0  0  0  0  0  0
    1.6109   27.5485  -22.5769 H   0  0  0  0  0  0  0  0  0  0  0  0
    0.3683   28.5539  -23.3966 H   0  0  0  0  0  0  0  0  0  0  0  0
    0.2183   26.7639  -23.3966 H   0  0  0  0  0  0  0  0  0  0  0  0
   -2.7362   26.5465  -26.1459 H   0  0  0  0  0  0  0  0  0  0  0  0
   -2.2580   25.6720  -29.7470 H   0  0  0  0  0  0  0  0  0  0  0  0
   -4.9148   26.3683  -30.1843 H   0  0  0  0  0  0  0  0  0  0  0  0
   -6.8998   25.4801  -31.3943 H   0  0  0  0  0  0  0  0  0  0  0  0
   -8.6429   21.1385  -30.0961 H   0  0  0  0  0  0  0  0  0  0  0  0
   -9.8004   21.3951  -31.4124 H   0  0  0  0  0  0  0  0  0  0  0  0
   -8.7233   18.8483  -30.4911 H   0  0  0  0  0  0  0  0  0  0  0  0
   -9.7800   19.0582  -31.8736 H   0  0  0  0  0  0  0  0  0  0  0  0
   -7.6379   17.0557  -32.5718 H   0  0  0  0  0  0  0  0  0  0  0  0
   -5.5661   17.1179  -33.9968 H   0  0  0  0  0  0  0  0  0  0  0  0
   -4.4402   19.3023  -34.4775 H   0  0  0  0  0  0  0  0  0  0  0  0
   -5.3976   21.4407  -33.5622 H   0  0  0  0  0  0  0  0  0  0  0  0
   -5.3204   21.4638  -31.0367 H   0  0  0  0  0  0  0  0  0  0  0  0
   -3.3307   22.3547  -29.8313 H   0  0  0  0  0  0  0  0  0  0  0  0
    0.8081   22.9712  -27.7055 H   0  0  0  0  0  0  0  0  0  0  0  0
   -0.3846   23.5040  -28.9386 H   0  0  0  0  0  0  0  0  0  0  0  0
    1.2751   24.1912  -28.9386 H   0  0  0  0  0  0  0  0  0  0  0  0
  1  2  1  0
  2  3  1  0
  3  4  2  0
  4  5  1  0
  5  6  2  0
  6  7  1  0
  7  8  2  0
  7  9  1  0
  9 10  1  0
 10 11  2  0
 11 12  1  0
 12 13  2  0
 13 14  1  0
 14 15  2  0
 14 16  1  0
 16 17  1  0
 17 18  1  0
 18 19  1  0
 19 20  2  0
 20 21  1  0
 21 22  2  0
 22 23  1  0
 23 24  2  0
 13 25  1  0
 25 26  2  0
  6 27  1  0
 27 28  1  0
 27 29  2  0
 29  3  1  0
 26 10  1  0
 24 16  1  0
 24 19  1  0
  1 30  1  0
  1 31  1  0
  1 32  1  0
  5 33  1  0
  9 34  1  0
 11 35  1  0
 12 36  1  0
 17 37  1  0
 17 38  1  0
 18 39  1  0
 18 40  1  0
 20 41  1  0
 21 42  1  0
 22 43  1  0
 23 44  1  0
 25 45  1  0
 26 46  1  0
 28 47  1  0
 28 48  1  0
 28 49  1  0
M  END
>  <UniqueID>  (14) 
13

>  <SMILES>  (14) 
CSc1ncc(C(=O)Nc2ccc(C(=O)N3CCc4ccccc43)cc2)c(C)n1

>  <Energy>  (14) 
77.85974304676563

>  <Genealogy>  (14) 
CSc1ncc(C(=O)Nc2ccc(C(=O)N3CCc4ccccc43)cc2)c(C)n1 (3D coordinates assigned)
CSc1ncc(C(=O)Nc2ccc(C(=O)N3CCc4ccccc43)cc2)c(C)n1 (nonaromatic ring conformer: 77.85974304676563 kcal/mol)

>  <smiles>  (14) 
CSc1ncc(C(=O)Nc2ccc(C(=O)N3CCc4ccccc43)cc2)c(C)n1

>  <score_type>  (14) 
oracle

>  <origin>  (14) 
adgpu

>  <m_score__min__energy>  (14) 
-9.8200000000000003

>  <m_primary>  (14) 
energy

$$$$
14:0
     RDKit          3D

 49 53  0  0  0  0  0  0  0  0999 V2000
   -5.9720   25.0610  -29.9510 O   0  0  0  0  0  0  0  0  0  0  0  0
   -4.9810   24.8470  -30.6970 C   0  0  0  0  0  0  0  0  0  0  0  0
   -5.1410   24.1920  -31.9640 N   0  0  0  0  0  0  0  0  0  0  0  0
   -5.4940   22.8220  -32.2010 C   0  0  0  0  0  0  0  0  0  0  0  0
   -6.8170   22.3370  -31.9980 C   0  0  0  0  0  0  0  0  0  0  0  0
   -7.1160   20.9860  -32.2560 C   0  0  0  0  0  0  0  0  0  0  0  0
   -6.1030   20.1860  -32.7560 C   0  0  0  0  0  0  0  0  0  0  0  0
   -4.8410   20.6290  -32.9740 C   0  0  0  0  0  0  0  0  0  0  0  0
   -4.5010   21.9560  -32.7090 C   0  0  0  0  0  0  0  0  0  0  0  0
   -3.9960   19.5070  -33.4880 C   0  0  0  0  0  0  0  0  0  0  0  0
   -4.9770   18.2940  -33.5090 C   0  0  0  0  0  0  0  0  0  0  0  0
   -6.2580   18.8320  -33.0600 N   0  0  0  0  0  0  0  0  0  0  0  0
   -7.4500   18.1370  -32.6900 C   0  0  0  0  0  0  0  0  0  0  0  0
   -7.5910   16.9160  -32.9640 O   0  0  0  0  0  0  0  0  0  0  0  0
   -8.4980   18.8710  -31.8820 C   0  0  0  0  0  0  0  0  0  0  0  0
   -8.5070   20.4010  -32.1510 C   0  0  0  0  0  0  0  0  0  0  0  0
   -3.6780   25.2340  -30.2530 N   0  0  0  0  0  0  0  0  0  0  0  0
   -2.9030   24.4580  -29.3310 C   0  0  0  0  0  0  0  0  0  0  0  0
   -3.3940   23.2150  -28.9320 C   0  0  0  0  0  0  0  0  0  0  0  0
   -2.7390   22.4830  -27.9450 C   0  0  0  0  0  0  0  0  0  0  0  0
   -1.5750   22.9750  -27.3530 C   0  0  0  0  0  0  0  0  0  0  0  0
   -0.8770   22.0390  -26.0340 Cl  0  0  0  0  0  0  0  0  0  0  0  0
   -1.0180   24.1990  -27.7920 C   0  0  0  0  0  0  0  0  0  0  0  0
    0.4630   24.8410  -27.0430 S   0  0  0  0  0  0  0  0  0  0  0  0
    0.9120   23.9100  -25.9520 O   0  0  0  0  0  0  0  0  0  0  0  0
    1.5780   24.9180  -28.0480 O   0  0  0  0  0  0  0  0  0  0  0  0
    0.1960   26.4700  -26.3360 C   0  0  0  0  0  0  0  0  0  0  0  0
   -0.1970   26.5180  -24.8650 C   0  0  0  0  0  0  0  0  0  0  0  0
   -1.2470   26.7430  -25.9380 C   0  0  0  0  0  0  0  0  0  0  0  0
   -1.6860   24.9370  -28.7950 C   0  0  0  0  0  0  0  0  0  0  0  0
   -1.1290   26.1330  -29.2540 O   0  0  0  0  0  0  0  0  0  0  0  0
   -7.6042   23.0169  -31.6401 H   0  0  0  0  0  0  0  0  0  0  0  0
   -3.4794   22.3205  -32.8922 H   0  0  0  0  0  0  0  0  0  0  0  0
   -3.6215   19.7276  -34.4985 H   0  0  0  0  0  0  0  0  0  0  0  0
   -3.1028   19.3257  -32.8720 H   0  0  0  0  0  0  0  0  0  0  0  0
   -5.0650   17.8862  -34.5268 H   0  0  0  0  0  0  0  0  0  0  0  0
   -4.6283   17.4712  -32.8676 H   0  0  0  0  0  0  0  0  0  0  0  0
   -9.4873   18.4638  -32.1380 H   0  0  0  0  0  0  0  0  0  0  0  0
   -8.2575   18.7243  -30.8187 H   0  0  0  0  0  0  0  0  0  0  0  0
   -9.0394   20.5887  -33.0951 H   0  0  0  0  0  0  0  0  0  0  0  0
   -9.0060   20.8843  -31.2981 H   0  0  0  0  0  0  0  0  0  0  0  0
   -4.3038   22.8106  -29.3997 H   0  0  0  0  0  0  0  0  0  0  0  0
   -3.1422   21.5094  -27.6295 H   0  0  0  0  0  0  0  0  0  0  0  0
    0.9635   26.9752  -26.9408 H   0  0  0  0  0  0  0  0  0  0  0  0
   -0.2094   25.5937  -24.2687 H   0  0  0  0  0  0  0  0  0  0  0  0
    0.1492   27.0809  -23.9856 H   0  0  0  0  0  0  0  0  0  0  0  0
   -2.0203   25.9818  -26.1184 H   0  0  0  0  0  0  0  0  0  0  0  0
   -1.9764   27.5367  -26.1569 H   0  0  0  0  0  0  0  0  0  0  0  0
   -1.2370   26.4630  -30.2050 H   0  0  0  0  0  0  0  0  0  0  0  0
  1  2  2  0
  2  3  1  0
  3  4  1  0
  4  5  2  0
  5  6  1  0
  6  7  2  0
  7  8  1  0
  8  9  2  0
  8 10  1  0
 10 11  1  0
 11 12  1  0
 12 13  1  0
 13 14  2  0
 13 15  1  0
 15 16  1  0
  2 17  1  0
 17 18  1  0
 18 19  2  0
 19 20  1  0
 20 21  2  0
 21 22  1  0
 21 23  1  0
 23 24  1  0
 24 25  2  0
 24 26  2  0
 24 27  1  0
 27 28  1  0
 28 29  1  0
 23 30  2  0
 30 31  1  0
  9  4  1  0
 30 18  1  0
 16  6  1  0
 29 27  1  0
 12  7  1  0
  5 32  1  0
  9 33  1  0
 10 34  1  0
 10 35  1  0
 11 36  1  0
 11 37  1  0
 15 38  1  0
 15 39  1  0
 16 40  1  0
 16 41  1  0
 19 42  1  0
 20 43  1  0
 27 44  1  0
 28 45  1  0
 28 46  1  0
 29 47  1  0
 29 48  1  0
 31 49  1  0
M  CHG  2   3  -1  17  -1
M  END
>  <UniqueID>  (15) 
14

>  <SMILES>  (15) 
O=C([N-]c1cc2c3c(c1)CCN3C(=O)CC2)[N-]c1ccc(Cl)c(S(=O)(=O)C2CC2)c1O

>  <Energy>  (15) 
347.5137346212128

>  <Genealogy>  (15) 
O=C([N-]c1cc2c3c(c1)CCN3C(=O)CC2)[N-]c1ccc(Cl)c(S(=O)(=O)C2CC2)c1O (protonated)
O=C([N-]c1cc2c3c(c1)CCN3C(=O)CC2)[N-]c1ccc(Cl)c(S(=O)(=O)C2CC2)c1O (3D coordinates assigned)
O=C([N-]c1cc2c3c(c1)CCN3C(=O)CC2)[N-]c1ccc(Cl)c(S(=O)(=O)C2CC2)c1O (nonaromatic ring conformer: 347.5137346212128 kcal/mol)

>  <smiles>  (15) 
O=C(Nc1cc2c3c(c1)CCN3C(=O)CC2)Nc1ccc(Cl)c(S(=O)(=O)C2CC2)c1O

>  <score_type>  (15) 
oracle

>  <origin>  (15) 
adgpu

>  <m_score__min__energy>  (15) 
-14.82

>  <m_primary>  (15) 
energy

$$$$
15:0
     RDKit          3D

 62 65  0  0  0  0  0  0  0  0999 V2000
   -8.3680   21.9300  -31.3800 C   0  0  0  0  0  0  0  0  0  0  0  0
   -7.0760   22.6830  -31.2050 C   0  0  0  0  0  0  0  0  0  0  0  0
   -7.0930   23.8170  -30.3760 C   0  0  0  0  0  0  0  0  0  0  0  0
   -5.9350   24.5420  -30.1310 C   0  0  0  0  0  0  0  0  0  0  0  0
   -4.7190   24.1440  -30.6940 C   0  0  0  0  0  0  0  0  0  0  0  0
   -3.5210   24.8940  -30.4480 N   0  0  0  0  0  0  0  0  0  0  0  0
   -2.6610   24.7440  -29.3120 C   0  0  0  0  0  0  0  0  0  0  0  0
   -1.8600   25.6670  -29.0010 O   0  0  0  0  0  0  0  0  0  0  0  0
   -2.6970   23.5610  -28.4990 N   0  0  0  0  0  0  0  0  0  0  0  0
   -2.0710   22.2860  -28.7210 C   0  0  0  0  0  0  0  0  0  0  0  0
   -1.4870   21.6370  -27.6240 C   0  0  0  0  0  0  0  0  0  0  0  0
   -0.8700   20.3930  -27.7820 C   0  0  0  0  0  0  0  0  0  0  0  0
   -0.8200   19.7900  -29.0400 C   0  0  0  0  0  0  0  0  0  0  0  0
   -1.4090   20.4190  -30.1410 C   0  0  0  0  0  0  0  0  0  0  0  0
   -1.2770   19.6980  -31.7420 S   0  0  0  0  0  0  0  0  0  0  0  0
   -0.6680   18.3290  -31.6180 O   0  0  0  0  0  0  0  0  0  0  0  0
   -2.6480   19.5580  -32.3490 O   0  0  0  0  0  0  0  0  0  0  0  0
   -0.2650   20.6980  -32.7540 N   0  0  0  0  0  0  0  0  0  0  0  0
   -1.0530   21.2520  -33.8700 C   0  0  0  0  0  0  0  0  0  0  0  0
   -0.1380   21.8160  -34.9760 C   0  0  0  0  0  0  0  0  0  0  0  0
    1.1680   22.0340  -34.4830 O   0  0  0  0  0  0  0  0  0  0  0  0
    1.7720   20.7980  -34.1360 C   0  0  0  0  0  0  0  0  0  0  0  0
    0.8570   19.9070  -33.2710 C   0  0  0  0  0  0  0  0  0  0  0  0
   -2.0530   21.6520  -29.9770 C   0  0  0  0  0  0  0  0  0  0  0  0
   -4.6770   23.0150  -31.5350 C   0  0  0  0  0  0  0  0  0  0  0  0
   -3.4660   22.6160  -32.1060 O   0  0  0  0  0  0  0  0  0  0  0  0
   -5.8490   22.2690  -31.8000 C   0  0  0  0  0  0  0  0  0  0  0  0
   -5.7160   20.8120  -32.8330 S   0  0  0  0  0  0  0  0  0  0  0  0
   -4.4860   20.8760  -33.6950 O   0  0  0  0  0  0  0  0  0  0  0  0
   -6.8930   20.7920  -33.7730 O   0  0  0  0  0  0  0  0  0  0  0  0
   -5.6600   19.3070  -31.9290 N   0  0  0  0  0  0  0  0  0  0  0  0
   -5.0570   18.1770  -32.6680 C   0  0  0  0  0  0  0  0  0  0  0  0
   -6.1030   17.1740  -33.1780 C   0  0  0  0  0  0  0  0  0  0  0  0
   -7.3160   17.8310  -33.4650 O   0  0  0  0  0  0  0  0  0  0  0  0
   -7.9270   18.2700  -32.2650 C   0  0  0  0  0  0  0  0  0  0  0  0
   -6.9440   18.9690  -31.2940 C   0  0  0  0  0  0  0  0  0  0  0  0
   -8.7868   21.6859  -30.3926 H   0  0  0  0  0  0  0  0  0  0  0  0
   -9.0828   22.5529  -31.9376 H   0  0  0  0  0  0  0  0  0  0  0  0
   -8.1783   21.0010  -31.9376 H   0  0  0  0  0  0  0  0  0  0  0  0
   -8.0390   24.1354  -29.9137 H   0  0  0  0  0  0  0  0  0  0  0  0
   -5.9744   25.4351  -29.4900 H   0  0  0  0  0  0  0  0  0  0  0  0
   -1.5146   22.1105  -26.6315 H   0  0  0  0  0  0  0  0  0  0  0  0
   -0.4228   19.8879  -26.9132 H   0  0  0  0  0  0  0  0  0  0  0  0
   -0.3171   18.8197  -29.1651 H   0  0  0  0  0  0  0  0  0  0  0  0
   -1.6806   20.4552  -34.2958 H   0  0  0  0  0  0  0  0  0  0  0  0
   -1.6753   22.0721  -33.4823 H   0  0  0  0  0  0  0  0  0  0  0  0
   -0.0942   21.0986  -35.8087 H   0  0  0  0  0  0  0  0  0  0  0  0
   -0.5503   22.7762  -35.3196 H   0  0  0  0  0  0  0  0  0  0  0  0
    2.0184   20.2555  -35.0607 H   0  0  0  0  0  0  0  0  0  0  0  0
    2.6707   21.0237  -33.5431 H   0  0  0  0  0  0  0  0  0  0  0  0
    0.4687   19.0797  -33.8832 H   0  0  0  0  0  0  0  0  0  0  0  0
    1.4360   19.5044  -32.4268 H   0  0  0  0  0  0  0  0  0  0  0  0
   -2.5482   22.1280  -30.8362 H   0  0  0  0  0  0  0  0  0  0  0  0
   -3.2170   21.6470  -32.2440 H   0  0  0  0  0  0  0  0  0  0  0  0
   -4.5032   18.5765  -33.5304 H   0  0  0  0  0  0  0  0  0  0  0  0
   -4.3956   17.6408  -31.9716 H   0  0  0  0  0  0  0  0  0  0  0  0
   -5.7269   16.6920  -34.0924 H   0  0  0  0  0  0  0  0  0  0  0  0
   -6.2825   16.4190  -32.3984 H   0  0  0  0  0  0  0  0  0  0  0  0
   -8.7279   18.9793  -32.5208 H   0  0  0  0  0  0  0  0  0  0  0  0
   -8.3111   17.3767  -31.7507 H   0  0  0  0  0  0  0  0  0  0  0  0
   -7.4102   19.8958  -30.9285 H   0  0  0  0  0  0  0  0  0  0  0  0
   -6.7335   18.2674  -30.4733 H   0  0  0  0  0  0  0  0  0  0  0  0
  1  2  1  0
  2  3  2  0
  3  4  1  0
  4  5  2  0
  5  6  1  0
  6  7  1  0
  7  8  2  0
  7  9  1  0
  9 10  1  0
 10 11  2  0
 11 12  1  0
 12 13  2  0
 13 14  1  0
 14 15  1  0
 15 16  2  0
 15 17  2  0
 15 18  1  0
 18 19  1  0
 19 20  1  0
 20 21  1  0
 21 22  1  0
 22 23  1  0
 14 24  2  0
  5 25  1  0
 25 26  1  0
 25 27  2  0
 27 28  1  0
 28 29  2  0
 28 30  2  0
 28 31  1  0
 31 32  1  0
 32 33  1  0
 33 34  1  0
 34 35  1  0
 35 36  1  0
 27  2  1  0
 36 31  1  0
 24 10  1  0
 23 18  1  0
  1 37  1  0
  1 38  1  0
  1 39  1  0
  3 40  1  0
  4 41  1  0
 11 42  1  0
 12 43  1  0
 13 44  1  0
 19 45  1  0
 19 46  1  0
 20 47  1  0
 20 48  1  0
 22 49  1  0
 22 50  1  0
 23 51  1  0
 23 52  1  0
 24 53  1  0
 26 54  1  0
 32 55  1  0
 32 56  1  0
 33 57  1  0
 33 58  1  0
 35 59  1  0
 35 60  1  0
 36 61  1  0
 36 62  1  0
M  CHG  2   6  -1   9  -1
M  END
>  <UniqueID>  (16) 
15

>  <SMILES>  (16) 
Cc1ccc([N-]C(=O)[N-]c2cccc(S(=O)(=O)N3CCOCC3)c2)c(O)c1S(=O)(=O)N1CCOCC1

>  <Energy>  (16) 
93.05977677240213

>  <Genealogy>  (16) 
Cc1ccc([N-]C(=O)[N-]c2cccc(S(=O)(=O)N3CCOCC3)c2)c(O)c1S(=O)(=O)N1CCOCC1 (protonated)
Cc1ccc([N-]C(=O)[N-]c2cccc(S(=O)(=O)N3CCOCC3)c2)c(O)c1S(=O)(=O)N1CCOCC1 (3D coordinates assigned)
Cc1ccc([N-]C(=O)[N-]c2cccc(S(=O)(=O)N3CCOCC3)c2)c(O)c1S(=O)(=O)N1CCOCC1 (nonaromatic ring conformer: 93.05977677240213 kcal/mol)

>  <smiles>  (16) 
Cc1ccc(NC(=O)Nc2cccc(S(=O)(=O)N3CCOCC3)c2)c(O)c1S(=O)(=O)N1CCOCC1

>  <score_type>  (16) 
oracle

>  <origin>  (16) 
adgpu

>  <m_score__min__energy>  (16) 
-12.99

>  <m_primary>  (16) 
energy

$$$$
16:0
     RDKit          3D

 43 44  0  0  0  0  0  0  0  0999 V2000
   -9.2210   18.2350  -31.9770 C   0  0  0  0  0  0  0  0  0  0  0  0
   -7.9150   18.9650  -32.0790 C   0  0  0  0  0  0  0  0  0  0  0  0
   -6.7230   18.3410  -31.6810 C   0  0  0  0  0  0  0  0  0  0  0  0
   -5.5000   19.0070  -31.8100 C   0  0  0  0  0  0  0  0  0  0  0  0
   -5.4560   20.3000  -32.3530 C   0  0  0  0  0  0  0  0  0  0  0  0
   -3.9230   21.1580  -32.4960 S   0  0  0  0  0  0  0  0  0  0  0  0
   -3.8800   21.8680  -33.8200 O   0  0  0  0  0  0  0  0  0  0  0  0
   -2.7790   20.1820  -32.4440 O   0  0  0  0  0  0  0  0  0  0  0  0
   -3.7570   22.3210  -31.2180 N   0  0  0  0  0  0  0  0  0  0  0  0
   -5.0370   22.4830  -30.5220 C   0  0  0  0  0  0  0  0  0  0  0  0
   -5.6470   23.8600  -30.8190 C   0  0  0  0  0  0  0  0  0  0  0  0
   -4.9070   25.0010  -30.1100 C   0  0  0  0  0  0  0  0  0  0  0  0
   -3.4870   24.9760  -30.4580 N   0  0  0  0  0  0  0  0  0  0  0  0
   -2.5370   24.6470  -29.0420 S   0  0  0  0  0  0  0  0  0  0  0  0
   -1.3830   25.6080  -28.9700 O   0  0  0  0  0  0  0  0  0  0  0  0
   -3.3920   24.8390  -27.8210 O   0  0  0  0  0  0  0  0  0  0  0  0
   -1.9430   22.9890  -29.0750 C   0  0  0  0  0  0  0  0  0  0  0  0
   -0.9450   22.6220  -29.9880 C   0  0  0  0  0  0  0  0  0  0  0  0
   -0.4560   21.3120  -30.0060 C   0  0  0  0  0  0  0  0  0  0  0  0
   -0.9580   20.3640  -29.1120 C   0  0  0  0  0  0  0  0  0  0  0  0
   -1.9510   20.7250  -28.1940 C   0  0  0  0  0  0  0  0  0  0  0  0
   -2.5760   19.5370  -27.0640 Cl  0  0  0  0  0  0  0  0  0  0  0  0
   -2.4420   22.0350  -28.1740 C   0  0  0  0  0  0  0  0  0  0  0  0
   -6.6430   20.9190  -32.7600 C   0  0  0  0  0  0  0  0  0  0  0  0
   -7.8660   20.2530  -32.6330 C   0  0  0  0  0  0  0  0  0  0  0  0
   -9.4787   18.0909  -30.9174 H   0  0  0  0  0  0  0  0  0  0  0  0
  -10.0093   18.8233  -32.4694 H   0  0  0  0  0  0  0  0  0  0  0  0
   -9.1329   17.2553  -32.4694 H   0  0  0  0  0  0  0  0  0  0  0  0
   -6.7506   17.3229  -31.2654 H   0  0  0  0  0  0  0  0  0  0  0  0
   -4.5707   18.5162  -31.4851 H   0  0  0  0  0  0  0  0  0  0  0  0
   -3.5130   23.2350  -31.6670 H   0  0  0  0  0  0  0  0  0  0  0  0
   -5.7324   21.7000  -30.8586 H   0  0  0  0  0  0  0  0  0  0  0  0
   -4.8631   22.3999  -29.4390 H   0  0  0  0  0  0  0  0  0  0  0  0
   -5.6074   24.0357  -31.9042 H   0  0  0  0  0  0  0  0  0  0  0  0
   -6.6816   23.8525  -30.4454 H   0  0  0  0  0  0  0  0  0  0  0  0
   -5.3402   25.9632  -30.4206 H   0  0  0  0  0  0  0  0  0  0  0  0
   -5.0119   24.8752  -29.0223 H   0  0  0  0  0  0  0  0  0  0  0  0
   -0.5453   23.3664  -30.6923 H   0  0  0  0  0  0  0  0  0  0  0  0
    0.3257   21.0277  -30.7259 H   0  0  0  0  0  0  0  0  0  0  0  0
   -0.5731   19.3337  -29.1292 H   0  0  0  0  0  0  0  0  0  0  0  0
   -3.2208   22.3181  -27.4506 H   0  0  0  0  0  0  0  0  0  0  0  0
   -6.6140   21.9345  -33.1819 H   0  0  0  0  0  0  0  0  0  0  0  0
   -8.7930   20.7408  -32.9687 H   0  0  0  0  0  0  0  0  0  0  0  0
  1  2  1  0
  2  3  2  0
  3  4  1  0
  4  5  2  0
  5  6  1  0
  6  7  2  0
  6  8  2  0
  6  9  1  0
  9 10  1  0
 10 11  1  0
 11 12  1  0
 12 13  1  0
 13 14  1  0
 14 15  2  0
 14 16  2  0
 14 17  1  0
 17 18  2  0
 18 19  1  0
 19 20  2  0
 20 21  1  0
 21 22  1  0
 21 23  2  0
  5 24  1  0
 24 25  2  0
 25  2  1  0
 23 17  1  0
  1 26  1  0
  1 27  1  0
  1 28  1  0
  3 29  1  0
  4 30  1  0
  9 31  1  0
 10 32  1  0
 10 33  1  0
 11 34  1  0
 11 35  1  0
 12 36  1  0
 12 37  1  0
 18 38  1  0
 19 39  1  0
 20 40  1  0
 23 41  1  0
 24 42  1  0
 25 43  1  0
M  CHG  1  13  -1
M  END
>  <UniqueID>  (17) 
16

>  <SMILES>  (17) 
Cc1ccc(S(=O)(=O)NCCC[N-]S(=O)(=O)c2cccc(Cl)c2)cc1

>  <Energy>  (17) 
34.30656100603635

>  <Genealogy>  (17) 
Cc1ccc(S(=O)(=O)NCCC[N-]S(=O)(=O)c2cccc(Cl)c2)cc1 (protonated)
Cc1ccc(S(=O)(=O)NCCC[N-]S(=O)(=O)c2cccc(Cl)c2)cc1 (3D coordinates assigned)
Cc1ccc(S(=O)(=O)NCCC[N-]S(=O)(=O)c2cccc(Cl)c2)cc1 (optimized conformer: 34.30656100603635 kcal/mol)

>  <smiles>  (17) 
Cc1ccc(S(=O)(=O)NCCCNS(=O)(=O)c2cccc(Cl)c2)cc1

>  <score_type>  (17) 
oracle

>  <origin>  (17) 
adgpu

>  <m_score__min__energy>  (17) 
-10.92

>  <m_primary>  (17) 
energy

$$$$
17:0
     RDKit          3D

 56 59  0  0  0  0  0  0  0  0999 V2000
   -7.2730   23.9180  -30.8660 C   0  0  0  0  0  0  0  0  0  0  0  0
   -7.0640   22.6230  -31.5820 C   0  0  0  0  0  0  0  0  0  0  0  0
   -8.0160   22.0170  -32.3200 N   0  0  0  0  0  0  0  0  0  0  0  0
   -7.4910   20.9300  -32.8050 O   0  0  0  0  0  0  0  0  0  0  0  0
   -6.2420   20.7900  -32.4210 C   0  0  0  0  0  0  0  0  0  0  0  0
   -5.3830   19.6310  -32.8090 C   0  0  0  0  0  0  0  0  0  0  0  0
   -5.9000   21.8730  -31.6270 C   0  0  0  0  0  0  0  0  0  0  0  0
   -4.6090   22.1670  -30.9730 C   0  0  0  0  0  0  0  0  0  0  0  0
   -3.5360   21.8530  -31.5510 O   0  0  0  0  0  0  0  0  0  0  0  0
   -4.5720   22.7460  -29.6610 N   0  0  0  0  0  0  0  0  0  0  0  0
   -3.3710   23.2690  -29.0740 C   0  0  0  0  0  0  0  0  0  0  0  0
   -2.7160   22.5250  -28.0830 C   0  0  0  0  0  0  0  0  0  0  0  0
   -1.5110   22.9820  -27.5320 C   0  0  0  0  0  0  0  0  0  0  0  0
   -0.5910   21.9570  -26.4330 S   0  0  0  0  0  0  0  0  0  0  0  0
   -1.5140   20.9610  -25.7880 O   0  0  0  0  0  0  0  0  0  0  0  0
    0.0300   22.8050  -25.3600 O   0  0  0  0  0  0  0  0  0  0  0  0
    0.6580   21.1060  -27.2830 N   0  0  0  0  0  0  0  0  0  0  0  0
    0.4100   20.4040  -28.5040 C   0  0  0  0  0  0  0  0  0  0  0  0
    0.4860   19.0380  -28.7030 C   0  0  0  0  0  0  0  0  0  0  0  0
    0.9330   18.0240  -27.6910 C   0  0  0  0  0  0  0  0  0  0  0  0
    0.1960   18.7790  -30.0030 N   0  0  0  0  0  0  0  0  0  0  0  0
    0.2110   17.4580  -30.6400 C   0  0  0  0  0  0  0  0  0  0  0  0
   -0.1170   19.9240  -30.6110 N   0  0  0  0  0  0  0  0  0  0  0  0
   -0.5110   20.0760  -31.9850 C   0  0  0  0  0  0  0  0  0  0  0  0
   -1.7260   19.5360  -32.4390 C   0  0  0  0  0  0  0  0  0  0  0  0
   -2.1180   19.7110  -33.7720 C   0  0  0  0  0  0  0  0  0  0  0  0
   -1.2980   20.4230  -34.6580 C   0  0  0  0  0  0  0  0  0  0  0  0
   -0.0910   20.9710  -34.2100 C   0  0  0  0  0  0  0  0  0  0  0  0
    0.2990   20.8030  -32.8760 C   0  0  0  0  0  0  0  0  0  0  0  0
   -0.0000   20.9230  -29.7110 C   0  0  0  0  0  0  0  0  0  0  0  0
   -0.2880   22.1270  -29.9430 O   0  0  0  0  0  0  0  0  0  0  0  0
   -0.9860   24.2150  -27.9390 C   0  0  0  0  0  0  0  0  0  0  0  0
   -1.6530   24.9800  -28.8970 C   0  0  0  0  0  0  0  0  0  0  0  0
   -2.8410   24.5130  -29.4690 C   0  0  0  0  0  0  0  0  0  0  0  0
   -3.4930   25.2970  -30.4130 O   0  0  0  0  0  0  0  0  0  0  0  0
   -7.2451   23.7452  -29.7800 H   0  0  0  0  0  0  0  0  0  0  0  0
   -6.4772   24.6241  -31.1455 H   0  0  0  0  0  0  0  0  0  0  0  0
   -8.2505   24.3379  -31.1455 H   0  0  0  0  0  0  0  0  0  0  0  0
   -5.0118   19.1301  -31.9027 H   0  0  0  0  0  0  0  0  0  0  0  0
   -5.9739   18.9199  -33.4050 H   0  0  0  0  0  0  0  0  0  0  0  0
   -4.5308   19.9895  -33.4050 H   0  0  0  0  0  0  0  0  0  0  0  0
   -5.3790   22.5560  -29.0270 H   0  0  0  0  0  0  0  0  0  0  0  0
   -3.1506   21.5761  -27.7354 H   0  0  0  0  0  0  0  0  0  0  0  0
    0.7601   18.4162  -26.6779 H   0  0  0  0  0  0  0  0  0  0  0  0
    0.3614   17.0940  -27.8266 H   0  0  0  0  0  0  0  0  0  0  0  0
    2.0051   17.8186  -27.8266 H   0  0  0  0  0  0  0  0  0  0  0  0
    0.2199   16.6773  -29.8651 H   0  0  0  0  0  0  0  0  0  0  0  0
   -0.6859   17.3427  -31.2663 H   0  0  0  0  0  0  0  0  0  0  0  0
    1.1103   17.3631  -31.2663 H   0  0  0  0  0  0  0  0  0  0  0  0
   -2.3704   18.9748  -31.7463 H   0  0  0  0  0  0  0  0  0  0  0  0
   -3.0709   19.2890  -34.1242 H   0  0  0  0  0  0  0  0  0  0  0  0
   -1.6037   20.5512  -35.7069 H   0  0  0  0  0  0  0  0  0  0  0  0
    0.5504   21.5329  -34.9049 H   0  0  0  0  0  0  0  0  0  0  0  0
    1.2438   21.2418  -32.5228 H   0  0  0  0  0  0  0  0  0  0  0  0
   -0.0453   24.5815  -27.5023 H   0  0  0  0  0  0  0  0  0  0  0  0
   -1.2430   25.9537  -29.2033 H   0  0  0  0  0  0  0  0  0  0  0  0
  1  2  1  0
  2  3  2  0
  3  4  1  0
  4  5  1  0
  5  6  1  0
  5  7  2  0
  7  8  1  0
  8  9  2  0
  8 10  1  0
 10 11  1  0
 11 12  2  0
 12 13  1  0
 13 14  1  0
 14 15  2  0
 14 16  2  0
 14 17  1  0
 17 18  1  0
 18 19  2  0
 19 20  1  0
 19 21  1  0
 21 22  1  0
 21 23  1  0
 23 24  1  0
 24 25  2  0
 25 26  1  0
 26 27  2  0
 27 28  1  0
 28 29  2  0
 23 30  1  0
 30 31  2  0
 13 32  2  0
 32 33  1  0
 33 34  2  0
 34 35  1  0
  7  2  1  0
 34 11  1  0
 30 18  1  0
 29 24  1  0
  1 36  1  0
  1 37  1  0
  1 38  1  0
  6 39  1  0
  6 40  1  0
  6 41  1  0
 10 42  1  0
 12 43  1  0
 20 44  1  0
 20 45  1  0
 20 46  1  0
 22 47  1  0
 22 48  1  0
 22 49  1  0
 25 50  1  0
 26 51  1  0
 27 52  1  0
 28 53  1  0
 29 54  1  0
 32 55  1  0
 33 56  1  0
M  CHG  2  17  -1  35  -1
M  END
>  <UniqueID>  (18) 
17

>  <SMILES>  (18) 
Cc1noc(C)c1C(=O)Nc1cc(S(=O)(=O)[N-]c2c(C)n(C)n(-c3ccccc3)c2=O)ccc1[O-]

>  <Energy>  (18) 
144.04554915324056

>  <Genealogy>  (18) 
Cc1noc(C)c1C(=O)Nc1cc(S(=O)(=O)[N-]c2c(C)n(C)n(-c3ccccc3)c2=O)ccc1[O-] (protonated)
Cc1noc(C)c1C(=O)Nc1cc(S(=O)(=O)[N-]c2c(C)n(C)n(-c3ccccc3)c2=O)ccc1[O-] (3D coordinates assigned)
Cc1noc(C)c1C(=O)Nc1cc(S(=O)(=O)[N-]c2c(C)n(C)n(-c3ccccc3)c2=O)ccc1[O-] (optimized conformer: 144.04554915324056 kcal/mol)

>  <smiles>  (18) 
Cc1noc(C)c1C(=O)Nc1cc(S(=O)(=O)Nc2c(C)n(C)n(-c3ccccc3)c2=O)ccc1O

>  <score_type>  (18) 
oracle

>  <origin>  (18) 
adgpu

>  <m_score__min__energy>  (18) 
-12.33

>  <m_primary>  (18) 
energy

$$$$
18:0
     RDKit          3D

 54 56  0  0  0  0  0  0  0  0999 V2000
   -0.0830   23.9660  -24.8350 C   0  0  0  0  0  0  0  0  0  0  0  0
    0.0990   24.2260  -26.2240 O   0  0  0  0  0  0  0  0  0  0  0  0
   -0.8770   24.0080  -27.2070 C   0  0  0  0  0  0  0  0  0  0  0  0
   -0.5640   23.4970  -28.4830 C   0  0  0  0  0  0  0  0  0  0  0  0
   -1.5740   23.3010  -29.4290 C   0  0  0  0  0  0  0  0  0  0  0  0
   -2.9100   23.5860  -29.1140 C   0  0  0  0  0  0  0  0  0  0  0  0
   -3.9240   23.3960  -30.1130 N   0  0  0  0  0  0  0  0  0  0  0  0
   -4.5510   24.4700  -30.8380 C   0  0  0  0  0  0  0  0  0  0  0  0
   -4.2320   25.6670  -30.6050 O   0  0  0  0  0  0  0  0  0  0  0  0
   -5.5200   24.2030  -31.8560 N   0  0  0  0  0  0  0  0  0  0  0  0
   -6.4260   23.0910  -31.8780 C   0  0  0  0  0  0  0  0  0  0  0  0
   -7.8050   23.2820  -31.7440 C   0  0  0  0  0  0  0  0  0  0  0  0
   -8.6750   22.1970  -31.8110 C   0  0  0  0  0  0  0  0  0  0  0  0
   -8.1860   20.8930  -31.9930 C   0  0  0  0  0  0  0  0  0  0  0  0
   -9.1890   19.7720  -32.1000 C   0  0  0  0  0  0  0  0  0  0  0  0
   -6.7850   20.6850  -32.1340 C   0  0  0  0  0  0  0  0  0  0  0  0
   -6.0880   19.0460  -32.3050 S   0  0  0  0  0  0  0  0  0  0  0  0
   -6.5600   18.1910  -31.1600 O   0  0  0  0  0  0  0  0  0  0  0  0
   -4.5920   19.1240  -32.1890 O   0  0  0  0  0  0  0  0  0  0  0  0
   -6.4780   18.2720  -33.8410 N   0  0  0  0  0  0  0  0  0  0  0  0
   -5.4430   18.4830  -34.8700 C   0  0  0  0  0  0  0  0  0  0  0  0
   -4.1810   17.6200  -34.6330 C   0  0  0  0  0  0  0  0  0  0  0  0
   -4.4070   16.5830  -33.6080 N   0  0  0  0  0  0  0  0  0  0  0  0
   -3.2860   15.6310  -33.5810 C   0  0  0  0  0  0  0  0  0  0  0  0
   -5.6750   15.8780  -33.8520 C   0  0  0  0  0  0  0  0  0  0  0  0
   -6.8670   16.8500  -33.7340 C   0  0  0  0  0  0  0  0  0  0  0  0
   -5.9240   21.8070  -32.1130 C   0  0  0  0  0  0  0  0  0  0  0  0
   -4.5560   21.6570  -32.3180 O   0  0  0  0  0  0  0  0  0  0  0  0
   -3.2170   24.1190  -27.8510 C   0  0  0  0  0  0  0  0  0  0  0  0
   -2.2080   24.3190  -26.9050 C   0  0  0  0  0  0  0  0  0  0  0  0
    0.4500   24.7274  -24.2465 H   0  0  0  0  0  0  0  0  0  0  0  0
   -1.1555   24.0000  -24.5930 H   0  0  0  0  0  0  0  0  0  0  0  0
    0.3161   22.9699  -24.5930 H   0  0  0  0  0  0  0  0  0  0  0  0
    0.4783   23.2518  -28.7349 H   0  0  0  0  0  0  0  0  0  0  0  0
   -1.3185   22.9200  -30.4288 H   0  0  0  0  0  0  0  0  0  0  0  0
   -4.2540   22.4190  -30.2780 H   0  0  0  0  0  0  0  0  0  0  0  0
   -8.2043   24.2945  -31.5849 H   0  0  0  0  0  0  0  0  0  0  0  0
   -9.7586   22.3631  -31.7203 H   0  0  0  0  0  0  0  0  0  0  0  0
   -9.4819   19.4446  -31.0915 H   0  0  0  0  0  0  0  0  0  0  0  0
  -10.0777   20.1257  -32.6433 H   0  0  0  0  0  0  0  0  0  0  0  0
   -8.7390   18.9280  -32.6433 H   0  0  0  0  0  0  0  0  0  0  0  0
   -5.8658   18.2258  -35.8524 H   0  0  0  0  0  0  0  0  0  0  0  0
   -5.1374   19.5386  -34.8225 H   0  0  0  0  0  0  0  0  0  0  0  0
   -3.9022   17.1309  -35.5780 H   0  0  0  0  0  0  0  0  0  0  0  0
   -3.3780   18.2818  -34.2765 H   0  0  0  0  0  0  0  0  0  0  0  0
   -3.0211   15.4060  -32.5374 H   0  0  0  0  0  0  0  0  0  0  0  0
   -3.5807   14.7029  -34.0927 H   0  0  0  0  0  0  0  0  0  0  0  0
   -2.4179   16.0721  -34.0927 H   0  0  0  0  0  0  0  0  0  0  0  0
   -5.6596   15.4456  -34.8634 H   0  0  0  0  0  0  0  0  0  0  0  0
   -5.7895   15.0830  -33.1005 H   0  0  0  0  0  0  0  0  0  0  0  0
   -7.5829   16.6230  -34.5377 H   0  0  0  0  0  0  0  0  0  0  0  0
   -7.3045   16.7074  -32.7349 H   0  0  0  0  0  0  0  0  0  0  0  0
   -4.2569   24.3803  -27.6054 H   0  0  0  0  0  0  0  0  0  0  0  0
   -2.4619   24.7243  -25.9144 H   0  0  0  0  0  0  0  0  0  0  0  0
  1  2  1  0
  2  3  1  0
  3  4  2  0
  4  5  1  0
  5  6  2  0
  6  7  1  0
  7  8  1  0
  8  9  2  0
  8 10  1  0
 10 11  1  0
 11 12  2  0
 12 13  1  0
 13 14  2  0
 14 15  1  0
 14 16  1  0
 16 17  1  0
 17 18  2  0
 17 19  2  0
 17 20  1  0
 20 21  1  0
 21 22  1  0
 22 23  1  0
 23 24  1  0
 23 25  1  0
 25 26  1  0
 16 27  2  0
 27 28  1  0
  6 29  1  0
 29 30  2  0
 30  3  1  0
 27 11  1  0
 26 20  1  0
  1 31  1  0
  1 32  1  0
  1 33  1  0
  4 34  1  0
  5 35  1  0
  7 36  1  0
 12 37  1  0
 13 38  1  0
 15 39  1  0
 15 40  1  0
 15 41  1  0
 21 42  1  0
 21 43  1  0
 22 44  1  0
 22 45  1  0
 24 46  1  0
 24 47  1  0
 24 48  1  0
 25 49  1  0
 25 50  1  0
 26 51  1  0
 26 52  1  0
 29 53  1  0
 30 54  1  0
M  CHG  2  10  -1  28  -1
M  END
>  <UniqueID>  (19) 
18

>  <SMILES>  (19) 
COc1ccc(NC(=O)[N-]c2ccc(C)c(S(=O)(=O)N3CCN(C)CC3)c2[O-])cc1

>  <Energy>  (19) 
78.41484903796632

>  <Genealogy>  (19) 
COc1ccc(NC(=O)[N-]c2ccc(C)c(S(=O)(=O)N3CCN(C)CC3)c2[O-])cc1 (protonated)
COc1ccc(NC(=O)[N-]c2ccc(C)c(S(=O)(=O)N3CCN(C)CC3)c2[O-])cc1 (3D coordinates assigned)
COc1ccc(NC(=O)[N-]c2ccc(C)c(S(=O)(=O)N3CCN(C)CC3)c2[O-])cc1 (nonaromatic ring conformer: 78.41484903796632 kcal/mol)

>  <smiles>  (19) 
COc1ccc(NC(=O)Nc2ccc(C)c(S(=O)(=O)N3CCN(C)CC3)c2O)cc1

>  <score_type>  (19) 
oracle

>  <origin>  (19) 
adgpu

>  <m_score__min__energy>  (19) 
-12.970000000000001

>  <m_primary>  (19) 
energy

$$$$
19:0
     RDKit          3D

 31 33  0  0  0  0  0  0  0  0999 V2000
   -5.8840   25.9000  -30.8870 O   0  0  0  0  0  0  0  0  0  0  0  0
   -4.9840   25.0180  -30.8760 C   0  0  0  0  0  0  0  0  0  0  0  0
   -3.6870   25.3020  -30.3360 N   0  0  0  0  0  0  0  0  0  0  0  0
   -3.0110   24.5730  -29.2980 C   0  0  0  0  0  0  0  0  0  0  0  0
   -3.5670   23.4160  -28.7210 C   0  0  0  0  0  0  0  0  0  0  0  0
   -2.8920   22.7450  -27.6970 C   0  0  0  0  0  0  0  0  0  0  0  0
   -1.6670   23.2290  -27.2310 C   0  0  0  0  0  0  0  0  0  0  0  0
   -1.1190   24.3900  -27.7830 C   0  0  0  0  0  0  0  0  0  0  0  0
   -1.7910   25.0650  -28.8080 C   0  0  0  0  0  0  0  0  0  0  0  0
   -1.2380   26.2230  -29.3430 O   0  0  0  0  0  0  0  0  0  0  0  0
   -5.2860   23.6700  -31.3720 C   0  0  0  0  0  0  0  0  0  0  0  0
   -6.4920   23.0130  -31.2610 C   0  0  0  0  0  0  0  0  0  0  0  0
   -6.2680   21.7900  -31.8690 C   0  0  0  0  0  0  0  0  0  0  0  0
   -7.2480   20.6820  -32.0310 C   0  0  0  0  0  0  0  0  0  0  0  0
   -6.8200   19.3400  -31.9740 C   0  0  0  0  0  0  0  0  0  0  0  0
   -7.7340   18.2930  -32.1200 C   0  0  0  0  0  0  0  0  0  0  0  0
   -9.0860   18.5660  -32.3240 C   0  0  0  0  0  0  0  0  0  0  0  0
   -9.5290   19.8880  -32.3840 C   0  0  0  0  0  0  0  0  0  0  0  0
   -8.6230   20.9450  -32.2400 C   0  0  0  0  0  0  0  0  0  0  0  0
   -9.1030   22.2480  -32.3160 O   0  0  0  0  0  0  0  0  0  0  0  0
   -4.9930   21.7440  -32.3110 N   0  0  0  0  0  0  0  0  0  0  0  0
   -4.3960   22.8860  -32.0080 N   0  0  0  0  0  0  0  0  0  0  0  0
   -4.5367   23.0381  -29.0772 H   0  0  0  0  0  0  0  0  0  0  0  0
   -3.3259   21.8347  -27.2576 H   0  0  0  0  0  0  0  0  0  0  0  0
   -1.1340   22.6963  -26.4297 H   0  0  0  0  0  0  0  0  0  0  0  0
   -0.1576   24.7739  -27.4110 H   0  0  0  0  0  0  0  0  0  0  0  0
   -7.4200   23.3770  -30.7959 H   0  0  0  0  0  0  0  0  0  0  0  0
   -5.7555   19.1146  -31.8129 H   0  0  0  0  0  0  0  0  0  0  0  0
   -7.3858   17.2506  -32.0738 H   0  0  0  0  0  0  0  0  0  0  0  0
   -9.8032   17.7397  -32.4376 H   0  0  0  0  0  0  0  0  0  0  0  0
  -10.5962   20.1005  -32.5454 H   0  0  0  0  0  0  0  0  0  0  0  0
  1  2  2  0
  2  3  1  0
  3  4  1  0
  4  5  2  0
  5  6  1  0
  6  7  2  0
  7  8  1  0
  8  9  2  0
  9 10  1  0
  2 11  1  0
 11 12  1  0
 12 13  2  0
 13 14  1  0
 14 15  2  0
 15 16  1  0
 16 17  2  0
 17 18  1  0
 18 19  2  0
 19 20  1  0
 13 21  1  0
 21 22  1  0
  9  4  1  0
 22 11  2  0
 19 14  1  0
  5 23  1  0
  6 24  1  0
  7 25  1  0
  8 26  1  0
 12 27  1  0
 15 28  1  0
 16 29  1  0
 17 30  1  0
 18 31  1  0
M  CHG  4   3  -1  10  -1  20  -1  21  -1
M  END
>  <UniqueID>  (20) 
19

>  <SMILES>  (20) 
O=C([N-]c1ccccc1[O-])c1cc(-c2ccccc2[O-])[n-]n1

>  <Energy>  (20) 
69.48036948274896

>  <Genealogy>  (20) 
O=C([N-]c1ccccc1[O-])c1cc(-c2ccccc2[O-])[n-]n1 (protonated)
O=C([N-]c1ccccc1[O-])c1cc(-c2ccccc2[O-])[n-]n1 (3D coordinates assigned)
O=C([N-]c1ccccc1[O-])c1cc(-c2ccccc2[O-])[n-]n1 (optimized conformer: 69.48036948274896 kcal/mol)

>  <smiles>  (20) 
O=C(Nc1ccccc1O)c1cc(-c2ccccc2O)[nH]n1

>  <score_type>  (20) 
oracle

>  <origin>  (20) 
adgpu

>  <m_score__min__energy>  (20) 
-13.18

>  <m_primary>  (20) 
energy

$$$$
20:0
     RDKit          3D

 52 54  0  0  0  0  0  0  0  0999 V2000
   -0.8470   26.9940  -23.3410 C   0  0  0  0  0  0  0  0  0  0  0  0
    0.4750   26.5320  -23.9350 C   0  0  0  0  0  0  0  0  0  0  0  0
    0.2710   25.3270  -24.6670 O   0  0  0  0  0  0  0  0  0  0  0  0
   -0.4980   25.2300  -25.8360 C   0  0  0  0  0  0  0  0  0  0  0  0
   -1.8780   25.0320  -25.7110 C   0  0  0  0  0  0  0  0  0  0  0  0
   -2.6880   24.9270  -26.8440 C   0  0  0  0  0  0  0  0  0  0  0  0
   -2.1240   25.0060  -28.1300 C   0  0  0  0  0  0  0  0  0  0  0  0
   -2.9370   24.9270  -29.3140 N   0  0  0  0  0  0  0  0  0  0  0  0
   -2.9930   23.7840  -30.1790 C   0  0  0  0  0  0  0  0  0  0  0  0
   -2.1320   22.8680  -30.0820 O   0  0  0  0  0  0  0  0  0  0  0  0
   -3.9800   23.7440  -31.2160 N   0  0  0  0  0  0  0  0  0  0  0  0
   -5.2980   23.1840  -31.1190 C   0  0  0  0  0  0  0  0  0  0  0  0
   -6.3100   23.7880  -30.3490 C   0  0  0  0  0  0  0  0  0  0  0  0
   -7.5880   23.2260  -30.3050 C   0  0  0  0  0  0  0  0  0  0  0  0
   -7.8730   22.0680  -31.0330 C   0  0  0  0  0  0  0  0  0  0  0  0
   -6.8790   21.4690  -31.8170 C   0  0  0  0  0  0  0  0  0  0  0  0
   -7.2640   20.0310  -32.7590 S   0  0  0  0  0  0  0  0  0  0  0  0
   -6.9280   20.2980  -34.1990 O   0  0  0  0  0  0  0  0  0  0  0  0
   -8.7340   19.7300  -32.6550 O   0  0  0  0  0  0  0  0  0  0  0  0
   -6.3220   18.6850  -32.1550 N   0  0  0  0  0  0  0  0  0  0  0  0
   -6.9410   17.3770  -32.4910 C   0  0  0  0  0  0  0  0  0  0  0  0
   -6.0740   16.4860  -33.3980 C   0  0  0  0  0  0  0  0  0  0  0  0
   -5.4670   17.3080  -34.5320 C   0  0  0  0  0  0  0  0  0  0  0  0
   -4.6300   18.4870  -34.0050 C   0  0  0  0  0  0  0  0  0  0  0  0
   -4.8970   18.8040  -32.5210 C   0  0  0  0  0  0  0  0  0  0  0  0
   -5.5980   22.0370  -31.8660 C   0  0  0  0  0  0  0  0  0  0  0  0
   -0.7450   25.2270  -28.2570 C   0  0  0  0  0  0  0  0  0  0  0  0
    0.0650   25.3300  -27.1220 C   0  0  0  0  0  0  0  0  0  0  0  0
   -0.7834   26.9718  -22.2431 H   0  0  0  0  0  0  0  0  0  0  0  0
   -1.0605   28.0200  -23.6752 H   0  0  0  0  0  0  0  0  0  0  0  0
   -1.6531   26.3243  -23.6752 H   0  0  0  0  0  0  0  0  0  0  0  0
    0.8657   27.3087  -24.6088 H   0  0  0  0  0  0  0  0  0  0  0  0
    1.1977   26.3516  -23.1256 H   0  0  0  0  0  0  0  0  0  0  0  0
   -2.3291   24.9584  -24.7105 H   0  0  0  0  0  0  0  0  0  0  0  0
   -3.7724   24.7818  -26.7300 H   0  0  0  0  0  0  0  0  0  0  0  0
   -3.4660   25.7790  -29.6090 H   0  0  0  0  0  0  0  0  0  0  0  0
   -6.0938   24.7047  -29.7807 H   0  0  0  0  0  0  0  0  0  0  0  0
   -8.3730   23.6968  -29.6950 H   0  0  0  0  0  0  0  0  0  0  0  0
   -8.8795   21.6262  -30.9903 H   0  0  0  0  0  0  0  0  0  0  0  0
   -7.1314   16.8340  -31.5535 H   0  0  0  0  0  0  0  0  0  0  0  0
   -7.8628   17.5965  -33.0497 H   0  0  0  0  0  0  0  0  0  0  0  0
   -5.2649   16.0401  -32.8008 H   0  0  0  0  0  0  0  0  0  0  0  0
   -6.7060   15.6961  -33.8299 H   0  0  0  0  0  0  0  0  0  0  0  0
   -4.8201   16.6555  -35.1368 H   0  0  0  0  0  0  0  0  0  0  0  0
   -6.2916   17.7185  -35.1333 H   0  0  0  0  0  0  0  0  0  0  0  0
   -3.5646   18.2404  -34.1238 H   0  0  0  0  0  0  0  0  0  0  0  0
   -4.9150   19.3764  -34.5862 H   0  0  0  0  0  0  0  0  0  0  0  0
   -4.3163   18.1038  -31.9026 H   0  0  0  0  0  0  0  0  0  0  0  0
   -4.5981   19.8484  -32.3478 H   0  0  0  0  0  0  0  0  0  0  0  0
   -4.8219   21.5783  -32.4962 H   0  0  0  0  0  0  0  0  0  0  0  0
   -0.2971   25.3200  -29.2574 H   0  0  0  0  0  0  0  0  0  0  0  0
    1.1475   25.4900  -27.2347 H   0  0  0  0  0  0  0  0  0  0  0  0
  1  2  1  0
  2  3  1  0
  3  4  1  0
  4  5  2  0
  5  6  1  0
  6  7  2  0
  7  8  1  0
  8  9  1  0
  9 10  2  0
  9 11  1  0
 11 12  1  0
 12 13  2  0
 13 14  1  0
 14 15  2  0
 15 16  1  0
 16 17  1  0
 17 18  2  0
 17 19  2  0
 17 20  1  0
 20 21  1  0
 21 22  1  0
 22 23  1  0
 23 24  1  0
 24 25  1  0
 16 26  2  0
  7 27  1  0
 27 28  2  0
 28  4  1  0
 26 12  1  0
 25 20  1  0
  1 29  1  0
  1 30  1  0
  1 31  1  0
  2 32  1  0
  2 33  1  0
  5 34  1  0
  6 35  1  0
  8 36  1  0
 13 37  1  0
 14 38  1  0
 15 39  1  0
 21 40  1  0
 21 41  1  0
 22 42  1  0
 22 43  1  0
 23 44  1  0
 23 45  1  0
 24 46  1  0
 24 47  1  0
 25 48  1  0
 25 49  1  0
 26 50  1  0
 27 51  1  0
 28 52  1  0
M  CHG  1  11  -1
M  END
>  <UniqueID>  (21) 
20

>  <SMILES>  (21) 
CCOc1ccc(NC(=O)[N-]c2cccc(S(=O)(=O)N3CCCCC3)c2)cc1

>  <Energy>  (21) 
63.038865694661986

>  <Genealogy>  (21) 
CCOc1ccc(NC(=O)[N-]c2cccc(S(=O)(=O)N3CCCCC3)c2)cc1 (protonated)
CCOc1ccc(NC(=O)[N-]c2cccc(S(=O)(=O)N3CCCCC3)c2)cc1 (3D coordinates assigned)
CCOc1ccc(NC(=O)[N-]c2cccc(S(=O)(=O)N3CCCCC3)c2)cc1 (nonaromatic ring conformer: 63.038865694661986 kcal/mol)

>  <smiles>  (21) 
CCOc1ccc(NC(=O)Nc2cccc(S(=O)(=O)N3CCCCC3)c2)cc1

>  <score_type>  (21) 
oracle

>  <origin>  (21) 
adgpu

>  <m_score__min__energy>  (21) 
-10.779999999999999

>  <m_primary>  (21) 
energy

$$$$
21:0
     RDKit          3D

 52 55  0  0  0  0  0  0  0  0999 V2000
    2.1170   24.5620  -25.5820 C   0  0  0  0  0  0  0  0  0  0  0  0
    1.0910   23.5140  -25.7140 N   0  0  0  0  0  0  0  0  0  0  0  0
   -0.0860   23.7010  -24.8340 C   0  0  0  0  0  0  0  0  0  0  0  0
   -0.9040   24.9710  -25.1160 C   0  0  0  0  0  0  0  0  0  0  0  0
   -1.8970   24.7530  -26.2230 C   0  0  0  0  0  0  0  0  0  0  0  0
   -3.2610   24.9730  -25.9630 C   0  0  0  0  0  0  0  0  0  0  0  0
   -4.2170   24.7800  -26.9580 C   0  0  0  0  0  0  0  0  0  0  0  0
   -3.8360   24.3450  -28.2290 C   0  0  0  0  0  0  0  0  0  0  0  0
   -4.8410   24.1630  -29.2400 N   0  0  0  0  0  0  0  0  0  0  0  0
   -4.8110   24.8010  -30.5300 C   0  0  0  0  0  0  0  0  0  0  0  0
   -3.8870   25.6030  -30.8260 O   0  0  0  0  0  0  0  0  0  0  0  0
   -5.8470   24.5630  -31.4900 N   0  0  0  0  0  0  0  0  0  0  0  0
   -6.5360   23.3210  -31.6950 C   0  0  0  0  0  0  0  0  0  0  0  0
   -7.8510   23.1390  -31.2440 C   0  0  0  0  0  0  0  0  0  0  0  0
   -8.4960   21.9200  -31.4340 C   0  0  0  0  0  0  0  0  0  0  0  0
   -7.8340   20.8550  -32.0520 C   0  0  0  0  0  0  0  0  0  0  0  0
   -8.7470   19.3700  -32.3080 Cl  0  0  0  0  0  0  0  0  0  0  0  0
   -6.4920   21.0030  -32.4720 C   0  0  0  0  0  0  0  0  0  0  0  0
   -5.6220   19.6540  -33.2430 S   0  0  0  0  0  0  0  0  0  0  0  0
   -6.1930   19.3850  -34.6070 O   0  0  0  0  0  0  0  0  0  0  0  0
   -4.1800   20.0330  -33.4290 O   0  0  0  0  0  0  0  0  0  0  0  0
   -5.6930   18.1270  -32.3010 C   0  0  0  0  0  0  0  0  0  0  0  0
   -4.9090   16.9840  -32.9260 C   0  0  0  0  0  0  0  0  0  0  0  0
   -6.4280   16.9540  -32.9320 C   0  0  0  0  0  0  0  0  0  0  0  0
   -5.8530   22.2510  -32.2910 C   0  0  0  0  0  0  0  0  0  0  0  0
   -4.5420   22.4450  -32.7140 O   0  0  0  0  0  0  0  0  0  0  0  0
   -2.4720   24.1600  -28.5100 C   0  0  0  0  0  0  0  0  0  0  0  0
   -1.4890   24.3730  -27.5250 C   0  0  0  0  0  0  0  0  0  0  0  0
   -0.0400   24.1350  -27.9230 C   0  0  0  0  0  0  0  0  0  0  0  0
    0.7920   23.1150  -27.1040 C   0  0  0  0  0  0  0  0  0  0  0  0
    2.3074   24.7565  -24.5162 H   0  0  0  0  0  0  0  0  0  0  0  0
    3.0468   24.2279  -26.0656 H   0  0  0  0  0  0  0  0  0  0  0  0
    1.7632   25.4845  -26.0656 H   0  0  0  0  0  0  0  0  0  0  0  0
   -0.7487   22.8320  -24.9590 H   0  0  0  0  0  0  0  0  0  0  0  0
    0.3046   23.8041  -23.8109 H   0  0  0  0  0  0  0  0  0  0  0  0
   -1.4449   25.2579  -24.2022 H   0  0  0  0  0  0  0  0  0  0  0  0
   -0.2102   25.7661  -25.4267 H   0  0  0  0  0  0  0  0  0  0  0  0
   -3.5773   25.3015  -24.9620 H   0  0  0  0  0  0  0  0  0  0  0  0
   -5.2783   24.9714  -26.7410 H   0  0  0  0  0  0  0  0  0  0  0  0
   -5.5980   23.4710  -29.0410 H   0  0  0  0  0  0  0  0  0  0  0  0
   -8.3753   23.9630  -30.7378 H   0  0  0  0  0  0  0  0  0  0  0  0
   -9.5349   21.7938  -31.0951 H   0  0  0  0  0  0  0  0  0  0  0  0
   -5.7455   18.6167  -31.3174 H   0  0  0  0  0  0  0  0  0  0  0  0
   -4.3585   17.1436  -33.8649 H   0  0  0  0  0  0  0  0  0  0  0  0
   -4.1193   16.3016  -32.5787 H   0  0  0  0  0  0  0  0  0  0  0  0
   -6.9771   17.0921  -33.8751 H   0  0  0  0  0  0  0  0  0  0  0  0
   -7.1932   16.2412  -32.5908 H   0  0  0  0  0  0  0  0  0  0  0  0
   -2.1665   23.8429  -29.5180 H   0  0  0  0  0  0  0  0  0  0  0  0
   -0.0423   23.7889  -28.9671 H   0  0  0  0  0  0  0  0  0  0  0  0
    0.4539   25.0997  -27.7347 H   0  0  0  0  0  0  0  0  0  0  0  0
    0.2331   22.1681  -27.0727 H   0  0  0  0  0  0  0  0  0  0  0  0
    1.7639   23.0373  -27.6133 H   0  0  0  0  0  0  0  0  0  0  0  0
  1  2  1  0
  2  3  1  0
  3  4  1  0
  4  5  1  0
  5  6  2  0
  6  7  1  0
  7  8  2  0
  8  9  1  0
  9 10  1  0
 10 11  2  0
 10 12  1  0
 12 13  1  0
 13 14  2  0
 14 15  1  0
 15 16  2  0
 16 17  1  0
 16 18  1  0
 18 19  1  0
 19 20  2  0
 19 21  2  0
 19 22  1  0
 22 23  1  0
 23 24  1  0
 18 25  2  0
 25 26  1  0
  8 27  1  0
 27 28  2  0
 28 29  1  0
 29 30  1  0
 30  2  1  0
 28  5  1  0
 25 13  1  0
 24 22  1  0
  1 31  1  0
  1 32  1  0
  1 33  1  0
  3 34  1  0
  3 35  1  0
  4 36  1  0
  4 37  1  0
  6 38  1  0
  7 39  1  0
  9 40  1  0
 14 41  1  0
 15 42  1  0
 22 43  1  0
 23 44  1  0
 23 45  1  0
 24 46  1  0
 24 47  1  0
 27 48  1  0
 29 49  1  0
 29 50  1  0
 30 51  1  0
 30 52  1  0
M  CHG  2  12  -1  26  -1
M  END
>  <UniqueID>  (22) 
21

>  <SMILES>  (22) 
CN1CCc2ccc(NC(=O)[N-]c3ccc(Cl)c(S(=O)(=O)C4CC4)c3[O-])cc2CC1

>  <Energy>  (22) 
346.78980471719484

>  <Genealogy>  (22) 
CN1CCc2ccc(NC(=O)[N-]c3ccc(Cl)c(S(=O)(=O)C4CC4)c3[O-])cc2CC1 (protonated)
CN1CCc2ccc(NC(=O)[N-]c3ccc(Cl)c(S(=O)(=O)C4CC4)c3[O-])cc2CC1 (3D coordinates assigned)
CN1CCc2ccc(NC(=O)[N-]c3ccc(Cl)c(S(=O)(=O)C4CC4)c3[O-])cc2CC1 (nonaromatic ring conformer: 346.78980471719484 kcal/mol)

>  <smiles>  (22) 
CN1CCc2ccc(NC(=O)Nc3ccc(Cl)c(S(=O)(=O)C4CC4)c3O)cc2CC1

>  <score_type>  (22) 
oracle

>  <origin>  (22) 
adgpu

>  <m_score__min__energy>  (22) 
-12.369999999999999

>  <m_primary>  (22) 
energy

$$$$
22:0
     RDKit          3D

 43 45  0  0  0  0  0  0  0  0999 V2000
   -2.1480   25.1880  -27.7360 O   0  0  0  0  0  0  0  0  0  0  0  0
   -2.4660   24.4030  -28.6730 C   0  0  0  0  0  0  0  0  0  0  0  0
   -3.0940   24.9120  -29.8540 N   0  0  0  0  0  0  0  0  0  0  0  0
   -4.1910   24.2770  -30.5220 C   0  0  0  0  0  0  0  0  0  0  0  0
   -3.9650   23.0470  -31.1530 C   0  0  0  0  0  0  0  0  0  0  0  0
   -4.9950   22.4000  -31.8480 C   0  0  0  0  0  0  0  0  0  0  0  0
   -4.7000   20.8480  -32.6370 S   0  0  0  0  0  0  0  0  0  0  0  0
   -3.9960   19.9300  -31.6750 O   0  0  0  0  0  0  0  0  0  0  0  0
   -3.8000   21.0570  -33.8230 O   0  0  0  0  0  0  0  0  0  0  0  0
   -6.1920   20.1010  -33.1600 N   0  0  0  0  0  0  0  0  0  0  0  0
   -7.0830   19.8680  -32.0020 C   0  0  0  0  0  0  0  0  0  0  0  0
   -8.1880   18.8630  -32.3420 C   0  0  0  0  0  0  0  0  0  0  0  0
   -7.5950   17.4880  -32.7030 C   0  0  0  0  0  0  0  0  0  0  0  0
   -6.1600   17.5840  -33.2470 C   0  0  0  0  0  0  0  0  0  0  0  0
   -5.9390   18.9040  -34.0010 C   0  0  0  0  0  0  0  0  0  0  0  0
   -6.2610   22.9940  -31.9130 C   0  0  0  0  0  0  0  0  0  0  0  0
   -6.5040   24.2040  -31.2600 C   0  0  0  0  0  0  0  0  0  0  0  0
   -5.4860   24.8410  -30.5420 C   0  0  0  0  0  0  0  0  0  0  0  0
   -5.7990   26.0030  -29.8360 O   0  0  0  0  0  0  0  0  0  0  0  0
   -2.1720   22.9620  -28.5690 C   0  0  0  0  0  0  0  0  0  0  0  0
   -3.0310   22.0890  -27.8810 C   0  0  0  0  0  0  0  0  0  0  0  0
   -2.7140   20.7310  -27.8090 C   0  0  0  0  0  0  0  0  0  0  0  0
   -1.5540   20.2530  -28.4180 C   0  0  0  0  0  0  0  0  0  0  0  0
   -0.7210   21.1480  -29.0950 C   0  0  0  0  0  0  0  0  0  0  0  0
   -1.0450   22.4670  -29.1550 N   0  0  0  0  0  0  0  0  0  0  0  0
   -2.9683   22.5843  -31.1023 H   0  0  0  0  0  0  0  0  0  0  0  0
   -6.4871   19.4755  -31.1649 H   0  0  0  0  0  0  0  0  0  0  0  0
   -7.5551   20.8236  -31.7299 H   0  0  0  0  0  0  0  0  0  0  0  0
   -8.8517   18.7508  -31.4720 H   0  0  0  0  0  0  0  0  0  0  0  0
   -8.7487   19.2405  -33.2098 H   0  0  0  0  0  0  0  0  0  0  0  0
   -7.5875   16.8601  -31.7999 H   0  0  0  0  0  0  0  0  0  0  0  0
   -8.2221   17.0539  -33.4957 H   0  0  0  0  0  0  0  0  0  0  0  0
   -5.4530   17.5284  -32.4061 H   0  0  0  0  0  0  0  0  0  0  0  0
   -5.9964   16.7514  -33.9470 H   0  0  0  0  0  0  0  0  0  0  0  0
   -4.8974   18.9366  -34.3531 H   0  0  0  0  0  0  0  0  0  0  0  0
   -6.6551   18.9305  -34.8355 H   0  0  0  0  0  0  0  0  0  0  0  0
   -7.0670   22.5058  -32.4804 H   0  0  0  0  0  0  0  0  0  0  0  0
   -7.5037   24.6601  -31.3104 H   0  0  0  0  0  0  0  0  0  0  0  0
   -5.3710   26.2400  -28.9510 H   0  0  0  0  0  0  0  0  0  0  0  0
   -3.9450   22.4717  -27.4033 H   0  0  0  0  0  0  0  0  0  0  0  0
   -3.3790   20.0385  -27.2721 H   0  0  0  0  0  0  0  0  0  0  0  0
   -1.2978   19.1845  -28.3661 H   0  0  0  0  0  0  0  0  0  0  0  0
    0.1974   20.7850  -29.5796 H   0  0  0  0  0  0  0  0  0  0  0  0
  1  2  2  0
  2  3  1  0
  3  4  1  0
  4  5  2  0
  5  6  1  0
  6  7  1  0
  7  8  2  0
  7  9  2  0
  7 10  1  0
 10 11  1  0
 11 12  1  0
 12 13  1  0
 13 14  1  0
 14 15  1  0
  6 16  2  0
 16 17  1  0
 17 18  2  0
 18 19  1  0
  2 20  1  0
 20 21  2  0
 21 22  1  0
 22 23  2  0
 23 24  1  0
 24 25  2  0
 18  4  1  0
 25 20  1  0
 15 10  1  0
  5 26  1  0
 11 27  1  0
 11 28  1  0
 12 29  1  0
 12 30  1  0
 13 31  1  0
 13 32  1  0
 14 33  1  0
 14 34  1  0
 15 35  1  0
 15 36  1  0
 16 37  1  0
 17 38  1  0
 19 39  1  0
 21 40  1  0
 22 41  1  0
 23 42  1  0
 24 43  1  0
M  CHG  1   3  -1
M  END
>  <UniqueID>  (23) 
22

>  <SMILES>  (23) 
O=C([N-]c1cc(S(=O)(=O)N2CCCCC2)ccc1O)c1ccccn1

>  <Energy>  (23) 
56.29500815647969

>  <Genealogy>  (23) 
O=C([N-]c1cc(S(=O)(=O)N2CCCCC2)ccc1O)c1ccccn1 (protonated)
O=C([N-]c1cc(S(=O)(=O)N2CCCCC2)ccc1O)c1ccccn1 (3D coordinates assigned)
O=C([N-]c1cc(S(=O)(=O)N2CCCCC2)ccc1O)c1ccccn1 (nonaromatic ring conformer: 56.29500815647969 kcal/mol)

>  <smiles>  (23) 
O=C(Nc1cc(S(=O)(=O)N2CCCCC2)ccc1O)c1ccccn1

>  <score_type>  (23) 
oracle

>  <origin>  (23) 
adgpu

>  <m_score__min__energy>  (23) 
-10.550000000000001

>  <m_primary>  (23) 
energy

$$$$
23:0
     RDKit          3D

 69 73  0  0  0  0  0  0  0  0999 V2000
   -4.8030   15.5500  -32.0970 C   0  0  0  0  0  0  0  0  0  0  0  0
   -4.0490   15.8080  -33.3320 N   0  0  0  0  0  0  0  0  0  0  0  0
   -4.3420   14.7890  -34.3470 C   0  0  0  0  0  0  0  0  0  0  0  0
   -3.3710   14.9350  -35.5340 C   0  0  0  0  0  0  0  0  0  0  0  0
   -2.8700   16.3160  -35.7190 N   0  0  0  0  0  0  0  0  0  0  0  0
   -1.2520   16.5520  -35.0860 S   0  0  0  0  0  0  0  0  0  0  0  0
   -0.7820   15.2720  -34.4530 O   0  0  0  0  0  0  0  0  0  0  0  0
   -0.3130   16.8740  -36.2170 O   0  0  0  0  0  0  0  0  0  0  0  0
   -1.1720   17.8410  -33.8840 C   0  0  0  0  0  0  0  0  0  0  0  0
   -1.4560   19.1650  -34.2460 C   0  0  0  0  0  0  0  0  0  0  0  0
   -1.4810   20.1710  -33.2780 C   0  0  0  0  0  0  0  0  0  0  0  0
   -1.2080   19.8700  -31.9310 C   0  0  0  0  0  0  0  0  0  0  0  0
   -1.2800   20.9080  -30.8790 C   0  0  0  0  0  0  0  0  0  0  0  0
   -1.3160   22.2790  -31.0520 C   0  0  0  0  0  0  0  0  0  0  0  0
   -1.4220   22.7690  -29.7650 C   0  0  0  0  0  0  0  0  0  0  0  0
   -1.5080   24.1840  -29.3610 C   0  0  0  0  0  0  0  0  0  0  0  0
   -0.4600   24.7770  -28.9940 O   0  0  0  0  0  0  0  0  0  0  0  0
   -2.7330   24.9260  -29.4270 N   0  0  0  0  0  0  0  0  0  0  0  0
   -3.9200   24.5510  -30.1420 C   0  0  0  0  0  0  0  0  0  0  0  0
   -5.0100   25.4280  -30.2760 C   0  0  0  0  0  0  0  0  0  0  0  0
   -6.1530   25.0260  -30.9720 C   0  0  0  0  0  0  0  0  0  0  0  0
   -6.2040   23.7630  -31.5650 C   0  0  0  0  0  0  0  0  0  0  0  0
   -5.1010   22.9000  -31.4850 C   0  0  0  0  0  0  0  0  0  0  0  0
   -5.1490   21.3210  -32.2700 S   0  0  0  0  0  0  0  0  0  0  0  0
   -4.7590   20.2620  -31.2770 O   0  0  0  0  0  0  0  0  0  0  0  0
   -4.1400   21.3000  -33.3850 O   0  0  0  0  0  0  0  0  0  0  0  0
   -6.7340   20.9490  -32.9130 N   0  0  0  0  0  0  0  0  0  0  0  0
   -7.8110   21.0950  -31.9050 C   0  0  0  0  0  0  0  0  0  0  0  0
   -8.7810   19.9090  -31.8670 C   0  0  0  0  0  0  0  0  0  0  0  0
   -7.9940   18.6100  -31.7350 C   0  0  0  0  0  0  0  0  0  0  0  0
   -6.9960   18.4270  -32.8890 C   0  0  0  0  0  0  0  0  0  0  0  0
   -6.7480   19.7060  -33.7150 C   0  0  0  0  0  0  0  0  0  0  0  0
   -3.9660   23.2980  -30.7650 C   0  0  0  0  0  0  0  0  0  0  0  0
   -1.4200   21.7430  -28.8910 N   0  0  0  0  0  0  0  0  0  0  0  0
   -1.3400   20.6500  -29.5920 O   0  0  0  0  0  0  0  0  0  0  0  0
   -0.8900   18.5470  -31.5800 C   0  0  0  0  0  0  0  0  0  0  0  0
   -0.8690   17.5420  -32.5490 C   0  0  0  0  0  0  0  0  0  0  0  0
   -3.8200   17.3590  -35.2880 C   0  0  0  0  0  0  0  0  0  0  0  0
   -4.3530   17.1530  -33.8530 C   0  0  0  0  0  0  0  0  0  0  0  0
   -4.1666   15.7678  -31.2266 H   0  0  0  0  0  0  0  0  0  0  0  0
   -5.6941   16.1944  -32.0701 H   0  0  0  0  0  0  0  0  0  0  0  0
   -5.1126   14.4948  -32.0701 H   0  0  0  0  0  0  0  0  0  0  0  0
   -4.2274   13.7890  -33.9032 H   0  0  0  0  0  0  0  0  0  0  0  0
   -5.3735   14.9216  -34.7052 H   0  0  0  0  0  0  0  0  0  0  0  0
   -2.5100   14.2719  -35.3635 H   0  0  0  0  0  0  0  0  0  0  0  0
   -3.9286   14.6678  -36.4438 H   0  0  0  0  0  0  0  0  0  0  0  0
   -1.6602   19.4128  -35.2981 H   0  0  0  0  0  0  0  0  0  0  0  0
   -1.7156   21.2052  -33.5703 H   0  0  0  0  0  0  0  0  0  0  0  0
   -1.2708   22.8463  -31.9933 H   0  0  0  0  0  0  0  0  0  0  0  0
   -4.9632   26.4333  -29.8319 H   0  0  0  0  0  0  0  0  0  0  0  0
   -7.0141   25.7057  -31.0529 H   0  0  0  0  0  0  0  0  0  0  0  0
   -7.1124   23.4435  -32.0968 H   0  0  0  0  0  0  0  0  0  0  0  0
   -7.3471   21.1967  -30.9128 H   0  0  0  0  0  0  0  0  0  0  0  0
   -8.3974   21.9823  -32.1858 H   0  0  0  0  0  0  0  0  0  0  0  0
   -9.4574   20.0165  -31.0063 H   0  0  0  0  0  0  0  0  0  0  0  0
   -9.3690   19.8875  -32.7964 H   0  0  0  0  0  0  0  0  0  0  0  0
   -7.4404   18.6242  -30.7845 H   0  0  0  0  0  0  0  0  0  0  0  0
   -8.7078   17.7736  -31.7647 H   0  0  0  0  0  0  0  0  0  0  0  0
   -6.0356   18.0970  -32.4663 H   0  0  0  0  0  0  0  0  0  0  0  0
   -7.4350   17.6867  -33.5741 H   0  0  0  0  0  0  0  0  0  0  0  0
   -5.7750   19.6088  -34.2187 H   0  0  0  0  0  0  0  0  0  0  0  0
   -7.5855   19.7942  -34.4227 H   0  0  0  0  0  0  0  0  0  0  0  0
   -3.1035   22.6196  -30.6888 H   0  0  0  0  0  0  0  0  0  0  0  0
   -0.6558   18.3012  -30.5337 H   0  0  0  0  0  0  0  0  0  0  0  0
   -0.6135   16.5110  -32.2632 H   0  0  0  0  0  0  0  0  0  0  0  0
   -3.3115   18.3333  -35.3339 H   0  0  0  0  0  0  0  0  0  0  0  0
   -4.6856   17.3074  -35.9648 H   0  0  0  0  0  0  0  0  0  0  0  0
   -3.8902   17.9012  -33.1927 H   0  0  0  0  0  0  0  0  0  0  0  0
   -5.4470   17.2643  -33.8807 H   0  0  0  0  0  0  0  0  0  0  0  0
  1  2  1  0
  2  3  1  0
  3  4  1  0
  4  5  1  0
  5  6  1  0
  6  7  2  0
  6  8  2  0
  6  9  1  0
  9 10  2  0
 10 11  1  0
 11 12  2  0
 12 13  1  0
 13 14  2  0
 14 15  1  0
 15 16  1  0
 16 17  2  0
 16 18  1  0
 18 19  1  0
 19 20  2  0
 20 21  1  0
 21 22  2  0
 22 23  1  0
 23 24  1  0
 24 25  2  0
 24 26  2  0
 24 27  1  0
 27 28  1  0
 28 29  1  0
 29 30  1  0
 30 31  1  0
 31 32  1  0
 23 33  2  0
 15 34  2  0
 34 35  1  0
 12 36  1  0
 36 37  2  0
  5 38  1  0
 38 39  1  0
 39  2  1  0
 37  9  1  0
 35 13  1  0
 33 19  1  0
 32 27  1  0
  1 40  1  0
  1 41  1  0
  1 42  1  0
  3 43  1  0
  3 44  1  0
  4 45  1  0
  4 46  1  0
 10 47  1  0
 11 48  1  0
 14 49  1  0
 20 50  1  0
 21 51  1  0
 22 52  1  0
 28 53  1  0
 28 54  1  0
 29 55  1  0
 29 56  1  0
 30 57  1  0
 30 58  1  0
 31 59  1  0
 31 60  1  0
 32 61  1  0
 32 62  1  0
 33 63  1  0
 36 64  1  0
 37 65  1  0
 38 66  1  0
 38 67  1  0
 39 68  1  0
 39 69  1  0
M  CHG  1  18  -1
M  END
>  <UniqueID>  (24) 
23

>  <SMILES>  (24) 
CN1CCN(S(=O)(=O)c2ccc(-c3cc(C(=O)[N-]c4cccc(S(=O)(=O)N5CCCCC5)c4)no3)cc2)CC1

>  <Energy>  (24) 
124.08387513103499

>  <Genealogy>  (24) 
CN1CCN(S(=O)(=O)c2ccc(-c3cc(C(=O)[N-]c4cccc(S(=O)(=O)N5CCCCC5)c4)no3)cc2)CC1 (protonated)
CN1CCN(S(=O)(=O)c2ccc(-c3cc(C(=O)[N-]c4cccc(S(=O)(=O)N5CCCCC5)c4)no3)cc2)CC1 (3D coordinates assigned)
CN1CCN(S(=O)(=O)c2ccc(-c3cc(C(=O)[N-]c4cccc(S(=O)(=O)N5CCCCC5)c4)no3)cc2)CC1 (nonaromatic ring conformer: 124.08387513103499 kcal/mol)

>  <smiles>  (24) 
CN1CCN(S(=O)(=O)c2ccc(-c3cc(C(=O)Nc4cccc(S(=O)(=O)N5CCCCC5)c4)no3)cc2)CC1

>  <score_type>  (24) 
oracle

>  <origin>  (24) 
adgpu

>  <m_score__min__energy>  (24) 
-12.84

>  <m_primary>  (24) 
energy

$$$$
24:0
     RDKit          3D

 81 85  0  0  0  0  0  0  0  0999 V2000
    0.0100   21.5960  -34.5800 C   0  0  0  0  0  0  0  0  0  0  0  0
    0.3340   20.0910  -34.7240 C   0  0  0  0  0  0  0  0  0  0  0  0
    1.5710   19.7740  -33.8540 C   0  0  0  0  0  0  0  0  0  0  0  0
    0.6550   19.8030  -36.2050 C   0  0  0  0  0  0  0  0  0  0  0  0
   -0.8470   19.2300  -34.2770 C   0  0  0  0  0  0  0  0  0  0  0  0
   -0.9850   17.8980  -34.7110 C   0  0  0  0  0  0  0  0  0  0  0  0
   -2.0390   17.1160  -34.2380 C   0  0  0  0  0  0  0  0  0  0  0  0
   -2.9700   17.6610  -33.3430 C   0  0  0  0  0  0  0  0  0  0  0  0
   -4.0740   16.8070  -32.7880 C   0  0  0  0  0  0  0  0  0  0  0  0
   -5.0610   16.4820  -33.8420 N   0  0  0  0  0  0  0  0  0  0  0  0
   -5.0240   17.4160  -34.9870 C   0  0  0  0  0  0  0  0  0  0  0  0
   -5.4790   18.8470  -34.6220 C   0  0  0  0  0  0  0  0  0  0  0  0
   -6.5660   18.8860  -33.5730 C   0  0  0  0  0  0  0  0  0  0  0  0
   -7.0970   20.1260  -33.1900 C   0  0  0  0  0  0  0  0  0  0  0  0
   -8.0630   20.2040  -32.1760 C   0  0  0  0  0  0  0  0  0  0  0  0
   -8.6110   21.7830  -31.6210 S   0  0  0  0  0  0  0  0  0  0  0  0
   -8.8690   21.7800  -30.1420 O   0  0  0  0  0  0  0  0  0  0  0  0
   -9.8860   22.1330  -32.3340 O   0  0  0  0  0  0  0  0  0  0  0  0
   -7.3970   22.9640  -31.9980 N   0  0  0  0  0  0  0  0  0  0  0  0
   -6.0570   22.9120  -31.4720 C   0  0  0  0  0  0  0  0  0  0  0  0
   -5.4040   21.6920  -31.2390 C   0  0  0  0  0  0  0  0  0  0  0  0
   -4.1030   21.6710  -30.7400 C   0  0  0  0  0  0  0  0  0  0  0  0
   -3.4290   22.8660  -30.4400 C   0  0  0  0  0  0  0  0  0  0  0  0
   -2.0330   22.8180  -29.8530 C   0  0  0  0  0  0  0  0  0  0  0  0
   -1.3390   21.5270  -30.1650 C   0  0  0  0  0  0  0  0  0  0  0  0
   -0.5850   21.4600  -31.1750 O   0  0  0  0  0  0  0  0  0  0  0  0
   -1.4070   20.4160  -29.2590 N   0  0  0  0  0  0  0  0  0  0  0  0
   -2.3610   20.4150  -28.1610 C   0  0  0  0  0  0  0  0  0  0  0  0
   -1.7180   19.6150  -27.0340 C   0  0  2  0  0  0  0  0  0  0  0  0
   -1.2290   20.4710  -26.0610 F   0  0  0  0  0  0  0  0  0  0  0  0
   -0.5640   18.8480  -27.6690 C   0  0  0  0  0  0  0  0  0  0  0  0
   -0.2740   19.5280  -29.0170 C   0  0  1  0  0  0  0  0  0  0  0  0
   -0.1180   18.4930  -30.1460 C   0  0  0  0  0  0  0  0  0  0  0  0
    0.3170   19.1090  -31.3310 O   0  0  0  0  0  0  0  0  0  0  0  0
   -4.0870   24.0920  -30.6610 C   0  0  0  0  0  0  0  0  0  0  0  0
   -3.4560   25.2990  -30.3760 O   0  0  0  0  0  0  0  0  0  0  0  0
   -5.3880   24.1090  -31.1760 C   0  0  0  0  0  0  0  0  0  0  0  0
   -8.5180   19.0310  -31.5570 C   0  0  0  0  0  0  0  0  0  0  0  0
   -7.9920   17.7910  -31.9300 C   0  0  0  0  0  0  0  0  0  0  0  0
   -6.9970   17.7140  -32.9180 C   0  0  0  0  0  0  0  0  0  0  0  0
   -6.4330   16.3710  -33.3080 C   0  0  0  0  0  0  0  0  0  0  0  0
   -2.8300   19.0010  -32.9600 C   0  0  0  0  0  0  0  0  0  0  0  0
   -1.7820   19.7380  -33.4220 N   0  0  0  0  0  0  0  0  0  0  0  0
   -0.0465   21.8585  -33.5133 H   0  0  0  0  0  0  0  0  0  0  0  0
    0.8010   22.1891  -35.0621 H   0  0  0  0  0  0  0  0  0  0  0  0
   -0.9550   21.8111  -35.0621 H   0  0  0  0  0  0  0  0  0  0  0  0
    1.2989   19.8437  -32.7905 H   0  0  0  0  0  0  0  0  0  0  0  0
    1.9244   18.7563  -34.0761 H   0  0  0  0  0  0  0  0  0  0  0  0
    2.3703   20.4963  -34.0761 H   0  0  0  0  0  0  0  0  0  0  0  0
    1.4725   19.0696  -36.2671 H   0  0  0  0  0  0  0  0  0  0  0  0
   -0.2391   19.3985  -36.7020 H   0  0  0  0  0  0  0  0  0  0  0  0
    0.9605   20.7355  -36.7020 H   0  0  0  0  0  0  0  0  0  0  0  0
   -0.2618   17.4738  -35.4231 H   0  0  0  0  0  0  0  0  0  0  0  0
   -2.1395   16.0713  -34.5675 H   0  0  0  0  0  0  0  0  0  0  0  0
   -3.6457   15.8737  -32.3936 H   0  0  0  0  0  0  0  0  0  0  0  0
   -4.5820   17.3615  -31.9852 H   0  0  0  0  0  0  0  0  0  0  0  0
   -3.9924   17.4634  -35.3660 H   0  0  0  0  0  0  0  0  0  0  0  0
   -5.7255   17.0334  -35.7430 H   0  0  0  0  0  0  0  0  0  0  0  0
   -4.6089   19.4025  -34.2422 H   0  0  0  0  0  0  0  0  0  0  0  0
   -5.8954   19.2964  -35.5356 H   0  0  0  0  0  0  0  0  0  0  0  0
   -6.7534   21.0444  -33.6885 H   0  0  0  0  0  0  0  0  0  0  0  0
   -7.6150   23.6450  -32.7610 H   0  0  0  0  0  0  0  0  0  0  0  0
   -5.9227   20.7456  -31.4517 H   0  0  0  0  0  0  0  0  0  0  0  0
   -3.5980   20.7071  -30.5792 H   0  0  0  0  0  0  0  0  0  0  0  0
   -1.4435   23.6482  -30.2694 H   0  0  0  0  0  0  0  0  0  0  0  0
   -2.1201   22.9023  -28.7597 H   0  0  0  0  0  0  0  0  0  0  0  0
   -2.5617   21.4447  -27.8303 H   0  0  0  0  0  0  0  0  0  0  0  0
   -3.3209   19.9733  -28.4667 H   0  0  0  0  0  0  0  0  0  0  0  0
   -2.4437   18.9407  -26.5559 H   0  0  0  0  0  0  0  0  0  0  0  0
    0.3242   18.8941  -27.0217 H   0  0  0  0  0  0  0  0  0  0  0  0
   -0.8207   17.7873  -27.8068 H   0  0  0  0  0  0  0  0  0  0  0  0
    0.6747   20.0842  -28.9925 H   0  0  0  0  0  0  0  0  0  0  0  0
    0.6194   17.7357  -29.8416 H   0  0  0  0  0  0  0  0  0  0  0  0
   -1.0953   18.0233  -30.3311 H   0  0  0  0  0  0  0  0  0  0  0  0
   -0.4640   19.5990  -31.7040 H   0  0  0  0  0  0  0  0  0  0  0  0
   -5.8915   25.0713  -31.3506 H   0  0  0  0  0  0  0  0  0  0  0  0
   -9.2907   19.0868  -30.7761 H   0  0  0  0  0  0  0  0  0  0  0  0
   -8.3585   16.8726  -31.4482 H   0  0  0  0  0  0  0  0  0  0  0  0
   -6.4174   15.7210  -32.4207 H   0  0  0  0  0  0  0  0  0  0  0  0
   -7.0724   15.9501  -34.0980 H   0  0  0  0  0  0  0  0  0  0  0  0
   -3.5678   19.4589  -32.2848 H   0  0  0  0  0  0  0  0  0  0  0  0
  1  2  1  0
  2  3  1  0
  2  4  1  0
  2  5  1  0
  5  6  2  0
  6  7  1  0
  7  8  2  0
  8  9  1  0
  9 10  1  0
 10 11  1  0
 11 12  1  0
 12 13  1  0
 13 14  2  0
 14 15  1  0
 15 16  1  0
 16 17  2  0
 16 18  2  0
 16 19  1  0
 19 20  1  0
 20 21  2  0
 21 22  1  0
 22 23  2  0
 23 24  1  0
 24 25  1  0
 25 26  2  0
 25 27  1  0
 27 28  1  0
 28 29  1  0
 29 30  1  0
 29 31  1  0
 31 32  1  0
 32 33  1  0
 33 34  1  0
 23 35  1  0
 35 36  1  0
 35 37  2  0
 15 38  2  0
 38 39  1  0
 39 40  2  0
 40 41  1  0
  8 42  1  0
 42 43  2  0
 43  5  1  0
 41 10  1  0
 40 13  1  0
 37 20  1  0
 32 27  1  0
  1 44  1  0
  1 45  1  0
  1 46  1  0
  3 47  1  0
  3 48  1  0
  3 49  1  0
  4 50  1  0
  4 51  1  0
  4 52  1  0
  6 53  1  0
  7 54  1  0
  9 55  1  0
  9 56  1  0
 11 57  1  0
 11 58  1  0
 12 59  1  0
 12 60  1  0
 14 61  1  0
 19 62  1  0
 21 63  1  0
 22 64  1  0
 24 65  1  0
 24 66  1  0
 28 67  1  0
 28 68  1  0
 29 69  1  1
 31 70  1  0
 31 71  1  0
 32 72  1  1
 33 73  1  0
 33 74  1  0
 34 75  1  0
 37 76  1  0
 38 77  1  0
 39 78  1  0
 41 79  1  0
 41 80  1  0
 42 81  1  0
M  CHG  1  36  -1
M  END
>  <UniqueID>  (25) 
24

>  <SMILES>  (25) 
CC(C)(C)c1ccc(CN2CCc3cc(S(=O)(=O)Nc4ccc(CC(=O)N5C[C@H](F)C[C@H]5CO)c([O-])c4)ccc3C2)cn1

>  <Energy>  (25) 
98.39480186133241

>  <Genealogy>  (25) 
CC(C)(C)c1ccc(CN2CCc3cc(S(=O)(=O)Nc4ccc(CC(=O)N5CC(F)CC5CO)c([O-])c4)ccc3C2)cn1 (protonated)
CC(C)(C)c1ccc(CN2CCc3cc(S(=O)(=O)Nc4ccc(CC(=O)N5C[C@H](F)C[C@H]5CO)c([O-])c4)ccc3C2)cn1 (chirality)
CC(C)(C)c1ccc(CN2CCc3cc(S(=O)(=O)Nc4ccc(CC(=O)N5C[C@H](F)C[C@H]5CO)c([O-])c4)ccc3C2)cn1 (3D coordinates assigned)
CC(C)(C)c1ccc(CN2CCc3cc(S(=O)(=O)Nc4ccc(CC(=O)N5C[C@H](F)C[C@H]5CO)c([O-])c4)ccc3C2)cn1 (nonaromatic ring conformer: 98.39480186133241 kcal/mol)

>  <smiles>  (25) 
CC(C)(C)c1ccc(CN2CCc3cc(S(=O)(=O)Nc4ccc(CC(=O)N5CC(F)CC5CO)c(O)c4)ccc3C2)cn1

>  <score_type>  (25) 
oracle

>  <origin>  (25) 
adgpu

>  <m_score__min__energy>  (25) 
-14.93

>  <m_primary>  (25) 
energy

$$$$
25:0
     RDKit          3D

 49 53  0  0  0  0  0  0  0  0999 V2000
   -4.2850   23.2800  -29.0800 O   0  0  0  0  0  0  0  0  0  0  0  0
   -4.4860   23.2200  -30.5700 S   0  0  0  0  0  0  0  0  0  0  0  0
   -4.2790   24.5940  -31.1430 O   0  0  0  0  0  0  0  0  0  0  0  0
   -3.3220   22.1240  -31.3070 C   0  0  0  0  0  0  0  0  0  0  0  0
   -1.9420   22.3010  -31.1140 C   0  0  0  0  0  0  0  0  0  0  0  0
   -1.0330   21.3930  -31.6690 C   0  0  0  0  0  0  0  0  0  0  0  0
   -1.5010   20.3030  -32.4080 C   0  0  0  0  0  0  0  0  0  0  0  0
   -2.8760   20.1380  -32.6210 C   0  0  0  0  0  0  0  0  0  0  0  0
   -3.7850   21.0370  -32.0620 C   0  0  0  0  0  0  0  0  0  0  0  0
   -3.3190   19.0620  -33.3980 O   0  0  0  0  0  0  0  0  0  0  0  0
   -2.4070   18.3010  -34.1940 C   0  0  0  0  0  0  0  0  0  0  0  0
   -1.0800   18.1110  -33.4480 C   0  0  0  0  0  0  0  0  0  0  0  0
   -0.6120   19.3630  -32.9400 O   0  0  0  0  0  0  0  0  0  0  0  0
   -6.0950   22.6570  -30.9370 N   0  0  0  0  0  0  0  0  0  0  0  0
   -6.8380   22.3810  -29.6910 C   0  0  0  0  0  0  0  0  0  0  0  0
   -8.3620   22.2980  -29.9140 C   0  0  0  0  0  0  0  0  0  0  0  0
   -8.7270   21.9640  -31.3720 C   0  0  0  0  0  0  0  0  0  0  0  0
   -8.4640   20.4980  -31.6690 C   0  0  0  0  0  0  0  0  0  0  0  0
   -9.0470   19.5230  -30.9260 N   0  0  0  0  0  0  0  0  0  0  0  0
   -8.5630   18.3730  -31.3060 O   0  0  0  0  0  0  0  0  0  0  0  0
   -7.6820   18.5450  -32.2560 C   0  0  0  0  0  0  0  0  0  0  0  0
   -6.9350   17.5720  -32.9110 C   0  0  0  0  0  0  0  0  0  0  0  0
   -6.0330   17.9930  -33.9040 C   0  0  0  0  0  0  0  0  0  0  0  0
   -5.2610   17.0460  -34.5730 O   0  0  0  0  0  0  0  0  0  0  0  0
   -5.9160   19.3670  -34.2170 C   0  0  0  0  0  0  0  0  0  0  0  0
   -6.6900   20.3260  -33.5380 C   0  0  0  0  0  0  0  0  0  0  0  0
   -7.5670   19.8800  -32.5420 C   0  0  0  0  0  0  0  0  0  0  0  0
   -8.0880   22.9770  -32.3540 C   0  0  0  0  0  0  0  0  0  0  0  0
   -6.8000   23.6170  -31.7980 C   0  0  0  0  0  0  0  0  0  0  0  0
   -1.5750   23.1549  -30.5256 H   0  0  0  0  0  0  0  0  0  0  0  0
    0.0478   21.5370  -31.5238 H   0  0  0  0  0  0  0  0  0  0  0  0
   -4.8649   20.8929  -32.2136 H   0  0  0  0  0  0  0  0  0  0  0  0
   -2.8471   17.3159  -34.4084 H   0  0  0  0  0  0  0  0  0  0  0  0
   -2.2155   18.8405  -35.1333 H   0  0  0  0  0  0  0  0  0  0  0  0
   -1.2310   17.4135  -32.6109 H   0  0  0  0  0  0  0  0  0  0  0  0
   -0.3322   17.7063  -34.1459 H   0  0  0  0  0  0  0  0  0  0  0  0
   -6.4898   21.4226  -29.2783 H   0  0  0  0  0  0  0  0  0  0  0  0
   -6.6479   23.2144  -28.9987 H   0  0  0  0  0  0  0  0  0  0  0  0
   -8.7722   21.5149  -29.2594 H   0  0  0  0  0  0  0  0  0  0  0  0
   -8.7883   23.2847  -29.6803 H   0  0  0  0  0  0  0  0  0  0  0  0
   -9.8090   22.0880  -31.5263 H   0  0  0  0  0  0  0  0  0  0  0  0
   -7.0463   16.5068  -32.6602 H   0  0  0  0  0  0  0  0  0  0  0  0
   -4.2480   17.0960  -34.5760 H   0  0  0  0  0  0  0  0  0  0  0  0
   -5.2129   19.6893  -34.9991 H   0  0  0  0  0  0  0  0  0  0  0  0
   -6.6084   21.3953  -33.7827 H   0  0  0  0  0  0  0  0  0  0  0  0
   -7.8444   22.4532  -33.2901 H   0  0  0  0  0  0  0  0  0  0  0  0
   -8.8161   23.7854  -32.5163 H   0  0  0  0  0  0  0  0  0  0  0  0
   -6.1460   23.9056  -32.6341 H   0  0  0  0  0  0  0  0  0  0  0  0
   -7.0638   24.5068  -31.2075 H   0  0  0  0  0  0  0  0  0  0  0  0
  1  2  2  0
  2  3  2  0
  2  4  1  0
  4  5  2  0
  5  6  1  0
  6  7  2  0
  7  8  1  0
  8  9  2  0
  8 10  1  0
 10 11  1  0
 11 12  1  0
 12 13  1  0
  2 14  1  0
 14 15  1  0
 15 16  1  0
 16 17  1  0
 17 18  1  0
 18 19  2  0
 19 20  1  0
 20 21  1  0
 21 22  2  0
 22 23  1  0
 23 24  1  0
 23 25  2  0
 25 26  1  0
 26 27  2  0
 17 28  1  0
 28 29  1  0
  9  4  1  0
 29 14  1  0
 13  7  1  0
 27 18  1  0
 27 21  1  0
  5 30  1  0
  6 31  1  0
  9 32  1  0
 11 33  1  0
 11 34  1  0
 12 35  1  0
 12 36  1  0
 15 37  1  0
 15 38  1  0
 16 39  1  0
 16 40  1  0
 17 41  1  0
 22 42  1  0
 24 43  1  0
 25 44  1  0
 26 45  1  0
 28 46  1  0
 28 47  1  0
 29 48  1  0
 29 49  1  0
M  END
>  <UniqueID>  (26) 
25

>  <SMILES>  (26) 
O=S(=O)(c1ccc2c(c1)OCCO2)N1CCC(c2noc3cc(O)ccc23)CC1

>  <Energy>  (26) 
100.35607005310578

>  <Genealogy>  (26) 
O=S(=O)(c1ccc2c(c1)OCCO2)N1CCC(c2noc3cc(O)ccc23)CC1 (3D coordinates assigned)
O=S(=O)(c1ccc2c(c1)OCCO2)N1CCC(c2noc3cc(O)ccc23)CC1 (nonaromatic ring conformer: 100.35607005310578 kcal/mol)

>  <smiles>  (26) 
O=S(=O)(c1ccc2c(c1)OCCO2)N1CCC(c2noc3cc(O)ccc23)CC1

>  <score_type>  (26) 
oracle

>  <origin>  (26) 
adgpu

>  <m_score__min__energy>  (26) 
-9.9900000000000002

>  <m_primary>  (26) 
energy

$$$$
26:0
     RDKit          3D

 37 39  0  0  0  0  0  0  0  0999 V2000
   -9.8420   21.7630  -30.6800 H   0  0  0  0  0  0  0  0  0  0  0  0
   -8.8230   21.8330  -30.8960 N   0  0  0  0  0  0  0  0  0  0  0  0
   -8.1740   20.8510  -31.4380 C   0  0  0  0  0  0  0  0  0  0  0  0
   -8.8350   19.7040  -31.7490 N   0  0  0  0  0  0  0  0  0  0  0  0
   -8.2200   18.6520  -32.3470 C   0  0  0  0  0  0  0  0  0  0  0  0
   -8.7934   17.7419  -32.5773 H   0  0  0  0  0  0  0  0  0  0  0  0
   -6.8570   18.7190  -32.6730 C   0  0  0  0  0  0  0  0  0  0  0  0
   -6.1760   17.5740  -33.3310 C   0  0  0  0  0  0  0  0  0  0  0  0
   -4.8410   17.6890  -33.7630 C   0  0  0  0  0  0  0  0  0  0  0  0
   -4.2977   18.6335  -33.6125 H   0  0  0  0  0  0  0  0  0  0  0  0
   -4.2010   16.6110  -34.3820 C   0  0  0  0  0  0  0  0  0  0  0  0
   -3.1578   16.7100  -34.7167 H   0  0  0  0  0  0  0  0  0  0  0  0
   -4.8850   15.4080  -34.5760 C   0  0  0  0  0  0  0  0  0  0  0  0
   -4.3802   14.5605  -35.0627 H   0  0  0  0  0  0  0  0  0  0  0  0
   -6.2090   15.2820  -34.1520 C   0  0  0  0  0  0  0  0  0  0  0  0
   -6.7467   14.3349  -34.3063 H   0  0  0  0  0  0  0  0  0  0  0  0
   -6.8530   16.3560  -33.5320 C   0  0  0  0  0  0  0  0  0  0  0  0
   -7.8958   16.2491  -33.1988 H   0  0  0  0  0  0  0  0  0  0  0  0
   -6.1550   19.8930  -32.3610 C   0  0  0  0  0  0  0  0  0  0  0  0
   -5.0865   19.9701  -32.6108 H   0  0  0  0  0  0  0  0  0  0  0  0
   -6.8000   20.9700  -31.7340 C   0  0  0  0  0  0  0  0  0  0  0  0
   -6.0270   22.1970  -31.4110 C   0  0  0  0  0  0  0  0  0  0  0  0
   -6.4480   23.4510  -31.8820 C   0  0  0  0  0  0  0  0  0  0  0  0
   -7.3565   23.5275  -32.4975 H   0  0  0  0  0  0  0  0  0  0  0  0
   -5.7190   24.6020  -31.5730 C   0  0  0  0  0  0  0  0  0  0  0  0
   -6.0520   25.5790  -31.9533 H   0  0  0  0  0  0  0  0  0  0  0  0
   -4.5700   24.5190  -30.7840 C   0  0  0  0  0  0  0  0  0  0  0  0
   -3.8530   25.6770  -30.5000 O   0  0  0  0  0  0  0  0  0  0  0  0
   -4.1470   23.2730  -30.2830 C   0  0  0  0  0  0  0  0  0  0  0  0
   -2.8910   23.1550  -29.4520 C   0  0  0  0  0  0  0  0  0  0  0  0
   -3.0991   22.5264  -28.5736 H   0  0  0  0  0  0  0  0  0  0  0  0
   -2.1027   22.7036  -30.0724 H   0  0  0  0  0  0  0  0  0  0  0  0
   -2.4330   24.4670  -29.0020 N   0  0  0  0  0  0  0  0  0  0  0  0
   -3.2660   25.0500  -28.7550 H   0  0  0  0  0  0  0  0  0  0  0  0
   -1.9390   24.9410  -29.7940 H   0  0  0  0  0  0  0  0  0  0  0  0
   -4.8750   22.1170  -30.6090 C   0  0  0  0  0  0  0  0  0  0  0  0
   -4.5404   21.1389  -30.2330 H   0  0  0  0  0  0  0  0  0  0  0  0
  1  2  1  0
  2  3  2  0
  3  4  1  0
  4  5  1  0
  5  6  1  0
  5  7  2  0
  7  8  1  0
  8  9  2  0
  9 10  1  0
  9 11  1  0
 11 12  1  0
 11 13  2  0
 13 14  1  0
 13 15  1  0
 15 16  1  0
 15 17  2  0
 17 18  1  0
  7 19  1  0
 19 20  1  0
 19 21  2  0
 21 22  1  0
 22 23  2  0
 23 24  1  0
 23 25  1  0
 25 26  1  0
 25 27  2  0
 27 28  1  0
 27 29  1  0
 29 30  1  0
 30 31  1  0
 30 32  1  0
 30 33  1  0
 33 34  1  0
 33 35  1  0
 29 36  2  0
 36 37  1  0
 21  3  1  0
 36 22  1  0
 17  8  1  0
M  CHG  2   4  -1  28  -1
M  END
>  <UniqueID>  (27) 
26

>  <SMILES>  (27) 
[H]/N=c1\[n-]cc(-c2ccccc2)cc1-c1ccc([O-])c(CN)c1

>  <Energy>  (27) 
52.20567031755357

>  <Genealogy>  (27) 
N=c1[n-]cc(-c2ccccc2)cc1-c1ccc([O-])c(CN)c1 (protonated)
[H]/N=c1\[n-]cc(-c2ccccc2)cc1-c1ccc([O-])c(CN)c1 (cis-trans isomerization)
[H]/N=c1\[n-]cc(-c2ccccc2)cc1-c1ccc([O-])c(CN)c1 (3D coordinates assigned)
[H]/N=c1\[n-]cc(-c2ccccc2)cc1-c1ccc([O-])c(CN)c1 (optimized conformer: 52.20567031755357 kcal/mol)

>  <smiles>  (27) 
N=c1[nH]cc(-c2ccccc2)cc1-c1ccc(O)c(CN)c1

>  <score_type>  (27) 
oracle

>  <origin>  (27) 
adgpu

>  <m_score__min__energy>  (27) 
-11.1

>  <m_primary>  (27) 
energy

$$$$
27:0
     RDKit          3D

 46 48  0  0  0  0  0  0  0  0999 V2000
   -4.5060   24.9740  -30.8970 O   0  0  0  0  0  0  0  0  0  0  0  0
   -3.5220   24.3210  -30.4530 C   0  0  0  0  0  0  0  0  0  0  0  0
   -2.6580   24.9240  -29.4840 N   0  0  0  0  0  0  0  0  0  0  0  0
   -2.7470   24.6720  -28.0500 C   0  0  0  0  0  0  0  0  0  0  0  0
   -2.4000   23.2400  -27.7500 C   0  0  0  0  0  0  0  0  0  0  0  0
   -3.3820   22.2420  -27.8290 C   0  0  0  0  0  0  0  0  0  0  0  0
   -3.0480   20.9110  -27.5710 C   0  0  0  0  0  0  0  0  0  0  0  0
   -1.7310   20.5890  -27.2390 C   0  0  0  0  0  0  0  0  0  0  0  0
   -0.7870   21.5660  -27.1720 N   0  0  0  0  0  0  0  0  0  0  0  0
   -1.0880   22.8690  -27.4200 C   0  0  0  0  0  0  0  0  0  0  0  0
   -3.2810   22.9320  -30.9310 C   0  0  0  0  0  0  0  0  0  0  0  0
   -4.3660   22.1730  -31.4130 C   0  0  0  0  0  0  0  0  0  0  0  0
   -4.1800   20.8600  -31.8670 C   0  0  0  0  0  0  0  0  0  0  0  0
   -5.5510   19.9080  -32.4360 S   0  0  0  0  0  0  0  0  0  0  0  0
   -5.2470   18.4500  -32.2250 O   0  0  0  0  0  0  0  0  0  0  0  0
   -5.7620   20.1440  -33.9070 O   0  0  0  0  0  0  0  0  0  0  0  0
   -6.9900   20.3430  -31.5480 N   0  0  0  0  0  0  0  0  0  0  0  0
   -7.4660   21.6770  -31.9800 C   0  0  0  0  0  0  0  0  0  0  0  0
   -8.9290   21.9060  -31.5910 C   0  0  0  0  0  0  0  0  0  0  0  0
   -9.8520   20.8870  -32.2830 C   0  0  0  0  0  0  0  0  0  0  0  0
   -9.1290   19.5770  -32.6380 C   0  0  0  0  0  0  0  0  0  0  0  0
   -8.0120   19.2680  -31.6300 C   0  0  0  0  0  0  0  0  0  0  0  0
   -2.9060   20.2900  -31.8340 C   0  0  0  0  0  0  0  0  0  0  0  0
   -1.8190   21.0290  -31.3660 C   0  0  0  0  0  0  0  0  0  0  0  0
   -1.9930   22.3460  -30.9180 C   0  0  0  0  0  0  0  0  0  0  0  0
   -0.8830   23.0640  -30.4710 O   0  0  0  0  0  0  0  0  0  0  0  0
   -2.0457   25.3340  -27.5209 H   0  0  0  0  0  0  0  0  0  0  0  0
   -3.7761   24.8689  -27.7150 H   0  0  0  0  0  0  0  0  0  0  0  0
   -4.4159   22.5078  -28.0943 H   0  0  0  0  0  0  0  0  0  0  0  0
   -3.8148   20.1244  -27.6288 H   0  0  0  0  0  0  0  0  0  0  0  0
   -1.4563   19.5443  -27.0314 H   0  0  0  0  0  0  0  0  0  0  0  0
   -0.3001   23.6344  -27.3616 H   0  0  0  0  0  0  0  0  0  0  0  0
   -5.3723   22.6168  -31.4332 H   0  0  0  0  0  0  0  0  0  0  0  0
   -6.8447   22.4494  -31.5033 H   0  0  0  0  0  0  0  0  0  0  0  0
   -7.3885   21.7319  -33.0759 H   0  0  0  0  0  0  0  0  0  0  0  0
   -9.0316   21.8013  -30.5008 H   0  0  0  0  0  0  0  0  0  0  0  0
   -9.2218   22.9168  -31.9114 H   0  0  0  0  0  0  0  0  0  0  0  0
  -10.6891   20.6552  -31.6080 H   0  0  0  0  0  0  0  0  0  0  0  0
  -10.2008   21.3394  -33.2231 H   0  0  0  0  0  0  0  0  0  0  0  0
   -9.8568   18.7522  -32.6310 H   0  0  0  0  0  0  0  0  0  0  0  0
   -8.6776   19.6876  -33.6350 H   0  0  0  0  0  0  0  0  0  0  0  0
   -8.4637   19.1372  -30.6356 H   0  0  0  0  0  0  0  0  0  0  0  0
   -7.5026   18.3554  -31.9731 H   0  0  0  0  0  0  0  0  0  0  0  0
   -2.7588   19.2556  -32.1779 H   0  0  0  0  0  0  0  0  0  0  0  0
   -0.8174   20.5746  -31.3484 H   0  0  0  0  0  0  0  0  0  0  0  0
   -0.9330   24.0570  -30.2770 H   0  0  0  0  0  0  0  0  0  0  0  0
  1  2  2  0
  2  3  1  0
  3  4  1  0
  4  5  1  0
  5  6  2  0
  6  7  1  0
  7  8  2  0
  8  9  1  0
  9 10  2  0
  2 11  1  0
 11 12  2  0
 12 13  1  0
 13 14  1  0
 14 15  2  0
 14 16  2  0
 14 17  1  0
 17 18  1  0
 18 19  1  0
 19 20  1  0
 20 21  1  0
 21 22  1  0
 13 23  2  0
 23 24  1  0
 24 25  2  0
 25 26  1  0
 10  5  1  0
 25 11  1  0
 22 17  1  0
  4 27  1  0
  4 28  1  0
  6 29  1  0
  7 30  1  0
  8 31  1  0
 10 32  1  0
 12 33  1  0
 18 34  1  0
 18 35  1  0
 19 36  1  0
 19 37  1  0
 20 38  1  0
 20 39  1  0
 21 40  1  0
 21 41  1  0
 22 42  1  0
 22 43  1  0
 23 44  1  0
 24 45  1  0
 26 46  1  0
M  CHG  1   3  -1
M  END
>  <UniqueID>  (28) 
27

>  <SMILES>  (28) 
O=C([N-]Cc1cccnc1)c1cc(S(=O)(=O)N2CCCCC2)ccc1O

>  <Energy>  (28) 
53.238600888387346

>  <Genealogy>  (28) 
O=C([N-]Cc1cccnc1)c1cc(S(=O)(=O)N2CCCCC2)ccc1O (protonated)
O=C([N-]Cc1cccnc1)c1cc(S(=O)(=O)N2CCCCC2)ccc1O (3D coordinates assigned)
O=C([N-]Cc1cccnc1)c1cc(S(=O)(=O)N2CCCCC2)ccc1O (nonaromatic ring conformer: 53.238600888387346 kcal/mol)

>  <smiles>  (28) 
O=C(NCc1cccnc1)c1cc(S(=O)(=O)N2CCCCC2)ccc1O

>  <score_type>  (28) 
oracle

>  <origin>  (28) 
adgpu

>  <m_score__min__energy>  (28) 
-10.210000000000001

>  <m_primary>  (28) 
energy

$$$$
28:0
     RDKit          3D

 26 27  0  0  0  0  0  0  0  0999 V2000
   -4.0990   25.6720  -30.8530 N   0  0  0  0  0  0  0  0  0  0  0  0
   -4.8020   24.6380  -30.5520 C   0  0  0  0  0  0  0  0  0  0  0  0
   -4.1410   23.3460  -30.1350 C   0  0  0  0  0  0  0  0  0  0  0  0
   -4.8720   22.1410  -30.7470 C   0  0  0  0  0  0  0  0  0  0  0  0
   -6.3390   22.2870  -30.6980 N   0  0  0  0  0  0  0  0  0  0  0  0
   -7.1670   21.3250  -31.3770 C   0  0  0  0  0  0  0  0  0  0  0  0
   -8.5570   21.5060  -31.4600 C   0  0  0  0  0  0  0  0  0  0  0  0
   -9.3470   20.5710  -32.1320 C   0  0  0  0  0  0  0  0  0  0  0  0
   -8.7390   19.4620  -32.7210 C   0  0  0  0  0  0  0  0  0  0  0  0
   -7.3930   19.2980  -32.6380 N   0  0  0  0  0  0  0  0  0  0  0  0
   -6.6020   20.1950  -31.9910 C   0  0  0  0  0  0  0  0  0  0  0  0
   -6.9420   23.4520  -30.0340 C   0  0  0  0  0  0  0  0  0  0  0  0
   -6.3050   24.7410  -30.5580 C   0  0  0  0  0  0  0  0  0  0  0  0
   -3.0690   25.6520  -30.8390 H   0  0  0  0  0  0  0  0  0  0  0  0
   -3.0961   23.3474  -30.4788 H   0  0  0  0  0  0  0  0  0  0  0  0
   -4.1815   23.2653  -29.0387 H   0  0  0  0  0  0  0  0  0  0  0  0
   -4.5626   22.0367  -31.7974 H   0  0  0  0  0  0  0  0  0  0  0  0
   -4.6042   21.2521  -30.1569 H   0  0  0  0  0  0  0  0  0  0  0  0
   -9.0246   22.3862  -30.9946 H   0  0  0  0  0  0  0  0  0  0  0  0
  -10.4366   20.7073  -32.1963 H   0  0  0  0  0  0  0  0  0  0  0  0
   -9.3507   18.7190  -33.2536 H   0  0  0  0  0  0  0  0  0  0  0  0
   -5.5145   20.0350  -31.9482 H   0  0  0  0  0  0  0  0  0  0  0  0
   -8.0224   23.4698  -30.2398 H   0  0  0  0  0  0  0  0  0  0  0  0
   -6.7698   23.3789  -28.9500 H   0  0  0  0  0  0  0  0  0  0  0  0
   -6.6497   24.9208  -31.5870 H   0  0  0  0  0  0  0  0  0  0  0  0
   -6.6032   25.5725  -29.9025 H   0  0  0  0  0  0  0  0  0  0  0  0
  1  2  2  3
  2  3  1  0
  3  4  1  0
  4  5  1  0
  5  6  1  0
  6  7  2  0
  7  8  1  0
  8  9  2  0
  9 10  1  0
 10 11  2  0
  5 12  1  0
 12 13  1  0
 13  2  1  0
 11  6  1  0
  1 14  1  0
  3 15  1  0
  3 16  1  0
  4 17  1  0
  4 18  1  0
  7 19  1  0
  8 20  1  0
  9 21  1  0
 11 22  1  0
 12 23  1  0
 12 24  1  0
 13 25  1  0
 13 26  1  0
M  END
>  <UniqueID>  (29) 
28

>  <SMILES>  (29) 
N=C1CCN(c2cccnc2)CC1

>  <Energy>  (29) 
29.466996467788434

>  <Genealogy>  (29) 
N=C1CCN(c2cccnc2)CC1 (3D coordinates assigned)
N=C1CCN(c2cccnc2)CC1 (nonaromatic ring conformer: 29.466996467788434 kcal/mol)

>  <smiles>  (29) 
N=C1CCN(c2cccnc2)CC1

>  <score_type>  (29) 
oracle

>  <origin>  (29) 
adgpu

>  <m_score__min__energy>  (29) 
-6.4800000000000004

>  <m_primary>  (29) 
energy

$$$$
29:0
     RDKit          3D

 50 53  0  0  0  0  0  0  0  0999 V2000
   -0.4910   26.6290  -22.6960 C   0  0  0  0  0  0  0  0  0  0  0  0
    0.2420   27.4530  -23.6720 N   0  0  0  0  0  0  0  0  0  0  0  0
    1.4370   26.7580  -24.2200 C   0  0  0  0  0  0  0  0  0  0  0  0
    1.3030   26.3420  -25.6980 C   0  0  0  0  0  0  0  0  0  0  0  0
   -0.1160   25.8460  -25.9960 C   0  0  0  0  0  0  0  0  0  0  0  0
   -0.2460   25.2830  -27.6950 S   0  0  0  0  0  0  0  0  0  0  0  0
    1.0990   24.8030  -28.1650 O   0  0  0  0  0  0  0  0  0  0  0  0
   -0.6580   26.4290  -28.5770 O   0  0  0  0  0  0  0  0  0  0  0  0
   -1.4580   23.9850  -27.8000 C   0  0  0  0  0  0  0  0  0  0  0  0
   -1.2880   22.7870  -27.0720 C   0  0  0  0  0  0  0  0  0  0  0  0
    0.1180   22.4900  -26.0540 Cl  0  0  0  0  0  0  0  0  0  0  0  0
   -2.2490   21.7770  -27.1520 C   0  0  0  0  0  0  0  0  0  0  0  0
   -3.3690   21.9280  -27.9650 C   0  0  0  0  0  0  0  0  0  0  0  0
   -3.5350   23.0880  -28.7390 C   0  0  0  0  0  0  0  0  0  0  0  0
   -4.6870   23.2620  -29.5780 N   0  0  0  0  0  0  0  0  0  0  0  0
   -4.7400   23.9720  -30.8200 C   0  0  0  0  0  0  0  0  0  0  0  0
   -4.6610   25.2290  -30.8430 O   0  0  0  0  0  0  0  0  0  0  0  0
   -4.8850   23.2280  -32.0350 N   0  0  0  0  0  0  0  0  0  0  0  0
   -5.7240   22.0820  -32.2440 C   0  0  0  0  0  0  0  0  0  0  0  0
   -5.1160   20.8630  -32.6350 C   0  0  0  0  0  0  0  0  0  0  0  0
   -5.8860   19.7020  -32.8310 C   0  0  0  0  0  0  0  0  0  0  0  0
   -7.2560   19.7980  -32.6140 C   0  0  0  0  0  0  0  0  0  0  0  0
   -8.2720   18.8780  -32.6980 C   0  0  0  0  0  0  0  0  0  0  0  0
   -9.4270   19.4980  -32.3570 N   0  0  0  0  0  0  0  0  0  0  0  0
   -9.1720   20.7710  -32.0610 N   0  0  0  0  0  0  0  0  0  0  0  0
   -7.8510   20.9570  -32.2190 C   0  0  0  0  0  0  0  0  0  0  0  0
   -7.1220   22.1270  -32.0140 C   0  0  0  0  0  0  0  0  0  0  0  0
   -2.5820   24.1240  -28.6470 C   0  0  0  0  0  0  0  0  0  0  0  0
   -2.7380   25.2830  -29.4090 O   0  0  0  0  0  0  0  0  0  0  0  0
   -1.1650   26.9380  -25.6930 C   0  0  0  0  0  0  0  0  0  0  0  0
   -0.6520   28.0090  -24.7080 C   0  0  0  0  0  0  0  0  0  0  0  0
   -0.2167   26.9374  -21.6764 H   0  0  0  0  0  0  0  0  0  0  0  0
   -1.5730   26.7640  -22.8413 H   0  0  0  0  0  0  0  0  0  0  0  0
   -0.2309   25.5701  -22.8413 H   0  0  0  0  0  0  0  0  0  0  0  0
    2.3008   27.4328  -24.1285 H   0  0  0  0  0  0  0  0  0  0  0  0
    1.5573   25.8310  -23.6402 H   0  0  0  0  0  0  0  0  0  0  0  0
    1.5242   27.2087  -26.3383 H   0  0  0  0  0  0  0  0  0  0  0  0
    2.0121   25.5259  -25.9008 H   0  0  0  0  0  0  0  0  0  0  0  0
   -0.3234   24.9923  -25.3340 H   0  0  0  0  0  0  0  0  0  0  0  0
   -2.1199   20.8541  -26.5676 H   0  0  0  0  0  0  0  0  0  0  0  0
   -4.1289   21.1335  -28.0014 H   0  0  0  0  0  0  0  0  0  0  0  0
   -4.0273   20.8241  -32.7873 H   0  0  0  0  0  0  0  0  0  0  0  0
   -5.4221   18.7549  -33.1438 H   0  0  0  0  0  0  0  0  0  0  0  0
   -8.1664   17.8229  -32.9908 H   0  0  0  0  0  0  0  0  0  0  0  0
   -7.6147   23.0538  -31.6849 H   0  0  0  0  0  0  0  0  0  0  0  0
   -1.9960   25.6730  -29.9770 H   0  0  0  0  0  0  0  0  0  0  0  0
   -1.4394   27.4322  -26.6367 H   0  0  0  0  0  0  0  0  0  0  0  0
   -2.0280   26.4442  -25.2225 H   0  0  0  0  0  0  0  0  0  0  0  0
   -0.1000   28.7727  -25.2755 H   0  0  0  0  0  0  0  0  0  0  0  0
   -1.5277   28.4344  -24.1960 H   0  0  0  0  0  0  0  0  0  0  0  0
  1  2  1  0
  2  3  1  0
  3  4  1  0
  4  5  1  0
  5  6  1  0
  6  7  2  0
  6  8  2  0
  6  9  1  0
  9 10  2  0
 10 11  1  0
 10 12  1  0
 12 13  2  0
 13 14  1  0
 14 15  1  0
 15 16  1  0
 16 17  2  0
 16 18  1  0
 18 19  1  0
 19 20  1  0
 20 21  2  0
 21 22  1  0
 22 23  2  0
 23 24  1  0
 24 25  1  0
 25 26  2  0
 26 27  1  0
 14 28  2  0
 28 29  1  0
  5 30  1  0
 30 31  1  0
 31  2  1  0
 28  9  1  0
 27 19  2  0
 26 22  1  0
  1 32  1  0
  1 33  1  0
  1 34  1  0
  3 35  1  0
  3 36  1  0
  4 37  1  0
  4 38  1  0
  5 39  1  0
 12 40  1  0
 13 41  1  0
 20 42  1  0
 21 43  1  0
 23 44  1  0
 27 45  1  0
 29 46  1  0
 30 47  1  0
 30 48  1  0
 31 49  1  0
 31 50  1  0
M  CHG  3  15  -1  18  -1  24  -1
M  END
>  <UniqueID>  (30) 
29

>  <SMILES>  (30) 
CN1CCC(S(=O)(=O)c2c(Cl)ccc([N-]C(=O)[N-]c3ccc4c[n-]nc4c3)c2O)CC1

>  <Energy>  (30) 
107.4827430729232

>  <Genealogy>  (30) 
CN1CCC(S(=O)(=O)c2c(Cl)ccc([N-]C(=O)[N-]c3ccc4c[n-]nc4c3)c2O)CC1 (protonated)
CN1CCC(S(=O)(=O)c2c(Cl)ccc([N-]C(=O)[N-]c3ccc4c[n-]nc4c3)c2O)CC1 (3D coordinates assigned)
CN1CCC(S(=O)(=O)c2c(Cl)ccc([N-]C(=O)[N-]c3ccc4c[n-]nc4c3)c2O)CC1 (nonaromatic ring conformer: 107.4827430729232 kcal/mol)

>  <smiles>  (30) 
CN1CCC(S(=O)(=O)c2c(Cl)ccc(NC(=O)Nc3ccc4c[nH]nc4c3)c2O)CC1

>  <score_type>  (30) 
oracle

>  <origin>  (30) 
adgpu

>  <m_score__min__energy>  (30) 
-13.050000000000001

>  <m_primary>  (30) 
energy

$$$$
30:0
     RDKit          3D

 44 46  0  0  0  0  0  0  0  0999 V2000
   -0.5390   26.8830  -23.4580 C   0  0  0  0  0  0  0  0  0  0  0  0
   -0.8440   26.6000  -24.9000 C   0  0  0  0  0  0  0  0  0  0  0  0
   -0.1400   27.2640  -25.9150 C   0  0  0  0  0  0  0  0  0  0  0  0
   -0.3960   26.9730  -27.2580 C   0  0  0  0  0  0  0  0  0  0  0  0
   -1.3630   26.0110  -27.6040 C   0  0  0  0  0  0  0  0  0  0  0  0
   -1.6380   25.6650  -28.9690 N   0  0  0  0  0  0  0  0  0  0  0  0
   -2.5680   24.6760  -29.4290 C   0  0  0  0  0  0  0  0  0  0  0  0
   -2.5020   23.4920  -29.0050 O   0  0  0  0  0  0  0  0  0  0  0  0
   -3.5110   24.9900  -30.4590 N   0  0  0  0  0  0  0  0  0  0  0  0
   -4.7180   24.2700  -30.7460 C   0  0  0  0  0  0  0  0  0  0  0  0
   -4.6480   22.8830  -30.9300 C   0  0  0  0  0  0  0  0  0  0  0  0
   -5.8050   22.1440  -31.1910 C   0  0  0  0  0  0  0  0  0  0  0  0
   -7.0530   22.7800  -31.2460 C   0  0  0  0  0  0  0  0  0  0  0  0
   -8.5160   21.8460  -31.5810 S   0  0  0  0  0  0  0  0  0  0  0  0
   -9.4810   22.7080  -32.3470 O   0  0  0  0  0  0  0  0  0  0  0  0
   -9.1640   21.4690  -30.2780 O   0  0  0  0  0  0  0  0  0  0  0  0
   -8.2000   20.3930  -32.4990 N   0  0  0  0  0  0  0  0  0  0  0  0
   -6.9550   20.4800  -33.2570 C   0  0  0  0  0  0  0  0  0  0  0  0
   -6.4800   19.0510  -33.4690 C   0  0  0  0  0  0  0  0  0  0  0  0
   -7.2020   18.2260  -32.4130 C   0  0  0  0  0  0  0  0  0  0  0  0
   -8.0540   19.2200  -31.6400 C   0  0  0  0  0  0  0  0  0  0  0  0
   -7.1290   24.1650  -31.0440 C   0  0  0  0  0  0  0  0  0  0  0  0
   -5.9720   24.9050  -30.7850 C   0  0  0  0  0  0  0  0  0  0  0  0
   -2.0320   25.3200  -26.5870 C   0  0  0  0  0  0  0  0  0  0  0  0
   -1.7780   25.6110  -25.2440 C   0  0  0  0  0  0  0  0  0  0  0  0
   -1.1949   26.2744  -22.8182 H   0  0  0  0  0  0  0  0  0  0  0  0
    0.5116   26.6326  -23.2495 H   0  0  0  0  0  0  0  0  0  0  0  0
   -0.7102   27.9494  -23.2495 H   0  0  0  0  0  0  0  0  0  0  0  0
    0.6174   28.0175  -25.6530 H   0  0  0  0  0  0  0  0  0  0  0  0
    0.1609   27.4983  -28.0479 H   0  0  0  0  0  0  0  0  0  0  0  0
   -3.6757   22.3722  -30.8686 H   0  0  0  0  0  0  0  0  0  0  0  0
   -5.7361   21.0583  -31.3540 H   0  0  0  0  0  0  0  0  0  0  0  0
   -7.1330   20.9693  -34.2260 H   0  0  0  0  0  0  0  0  0  0  0  0
   -6.2018   21.0747  -32.7194 H   0  0  0  0  0  0  0  0  0  0  0  0
   -6.7456   18.7025  -34.4780 H   0  0  0  0  0  0  0  0  0  0  0  0
   -5.3870   18.9650  -33.3796 H   0  0  0  0  0  0  0  0  0  0  0  0
   -7.8359   17.4625  -32.8876 H   0  0  0  0  0  0  0  0  0  0  0  0
   -6.4979   17.6927  -31.7574 H   0  0  0  0  0  0  0  0  0  0  0  0
   -9.0399   18.7851  -31.4190 H   0  0  0  0  0  0  0  0  0  0  0  0
   -7.5867   19.4842  -30.6799 H   0  0  0  0  0  0  0  0  0  0  0  0
   -8.1041   24.6720  -31.0896 H   0  0  0  0  0  0  0  0  0  0  0  0
   -6.0427   25.9888  -30.6109 H   0  0  0  0  0  0  0  0  0  0  0  0
   -2.7640   24.5412  -26.8472 H   0  0  0  0  0  0  0  0  0  0  0  0
   -2.3121   25.0629  -24.4539 H   0  0  0  0  0  0  0  0  0  0  0  0
  1  2  1  0
  2  3  2  0
  3  4  1  0
  4  5  2  0
  5  6  1  0
  6  7  1  0
  7  8  2  0
  7  9  1  0
  9 10  1  0
 10 11  2  0
 11 12  1  0
 12 13  2  0
 13 14  1  0
 14 15  2  0
 14 16  2  0
 14 17  1  0
 17 18  1  0
 18 19  1  0
 19 20  1  0
 20 21  1  0
 13 22  1  0
 22 23  2  0
  5 24  1  0
 24 25  2  0
 25  2  1  0
 23 10  1  0
 21 17  1  0
  1 26  1  0
  1 27  1  0
  1 28  1  0
  3 29  1  0
  4 30  1  0
 11 31  1  0
 12 32  1  0
 18 33  1  0
 18 34  1  0
 19 35  1  0
 19 36  1  0
 20 37  1  0
 20 38  1  0
 21 39  1  0
 21 40  1  0
 22 41  1  0
 23 42  1  0
 24 43  1  0
 25 44  1  0
M  CHG  2   6  -1   9  -1
M  END
>  <UniqueID>  (31) 
30

>  <SMILES>  (31) 
Cc1ccc([N-]C(=O)[N-]c2ccc(S(=O)(=O)N3CCCC3)cc2)cc1

>  <Energy>  (31) 
52.05326973508689

>  <Genealogy>  (31) 
Cc1ccc([N-]C(=O)[N-]c2ccc(S(=O)(=O)N3CCCC3)cc2)cc1 (protonated)
Cc1ccc([N-]C(=O)[N-]c2ccc(S(=O)(=O)N3CCCC3)cc2)cc1 (3D coordinates assigned)
Cc1ccc([N-]C(=O)[N-]c2ccc(S(=O)(=O)N3CCCC3)cc2)cc1 (nonaromatic ring conformer: 52.05326973508689 kcal/mol)

>  <smiles>  (31) 
Cc1ccc(NC(=O)Nc2ccc(S(=O)(=O)N3CCCC3)cc2)cc1

>  <score_type>  (31) 
oracle

>  <origin>  (31) 
adgpu

>  <m_score__min__energy>  (31) 
-12.9

>  <m_primary>  (31) 
energy

$$$$
31:0
     RDKit          3D

 48 50  0  0  0  0  0  0  0  0999 V2000
   -4.2700   24.9180  -26.4400 C   0  0  0  0  0  0  0  0  0  0  0  0
   -3.0920   24.6390  -27.3340 C   0  0  0  0  0  0  0  0  0  0  0  0
   -1.8170   25.0800  -26.9410 C   0  0  0  0  0  0  0  0  0  0  0  0
   -0.7090   24.8780  -27.7670 C   0  0  0  0  0  0  0  0  0  0  0  0
   -0.8600   24.2320  -28.9940 C   0  0  0  0  0  0  0  0  0  0  0  0
   -2.1170   23.7710  -29.3910 C   0  0  0  0  0  0  0  0  0  0  0  0
   -3.2340   23.9420  -28.5590 C   0  0  0  0  0  0  0  0  0  0  0  0
   -4.5040   23.4370  -28.9950 N   0  0  0  0  0  0  0  0  0  0  0  0
   -5.0060   23.6630  -30.3210 C   0  0  0  0  0  0  0  0  0  0  0  0
   -4.4860   24.5610  -31.0380 O   0  0  0  0  0  0  0  0  0  0  0  0
   -6.1440   22.8720  -30.8490 C   0  0  0  0  0  0  0  0  0  0  0  0
   -7.3200   23.5160  -31.2590 C   0  0  0  0  0  0  0  0  0  0  0  0
   -8.3880   22.7800  -31.7760 C   0  0  0  0  0  0  0  0  0  0  0  0
   -8.3010   21.3850  -31.9070 C   0  0  0  0  0  0  0  0  0  0  0  0
   -9.4770   20.6320  -32.4690 C   0  0  0  0  0  0  0  0  0  0  0  0
   -7.1230   20.7230  -31.4870 C   0  0  0  0  0  0  0  0  0  0  0  0
   -6.9360   18.9660  -31.6380 S   0  0  0  0  0  0  0  0  0  0  0  0
   -5.7500   18.5010  -30.8380 O   0  0  0  0  0  0  0  0  0  0  0  0
   -8.1650   18.2910  -31.0960 O   0  0  0  0  0  0  0  0  0  0  0  0
   -6.7140   18.5320  -33.3160 N   0  0  0  0  0  0  0  0  0  0  0  0
   -6.9750   17.0910  -33.5340 C   0  0  0  0  0  0  0  0  0  0  0  0
   -5.6760   16.2890  -33.7290 C   0  0  0  0  0  0  0  0  0  0  0  0
   -4.8930   16.7500  -34.8220 O   0  0  0  0  0  0  0  0  0  0  0  0
   -4.9520   18.1580  -35.0170 C   0  0  0  0  0  0  0  0  0  0  0  0
   -5.3730   18.9500  -33.7690 C   0  0  0  0  0  0  0  0  0  0  0  0
   -6.0530   21.4760  -30.9750 C   0  0  0  0  0  0  0  0  0  0  0  0
   -3.9575   24.8440  -25.3879 H   0  0  0  0  0  0  0  0  0  0  0  0
   -4.6498   25.9309  -26.6393 H   0  0  0  0  0  0  0  0  0  0  0  0
   -5.0638   24.1830  -26.6393 H   0  0  0  0  0  0  0  0  0  0  0  0
   -1.6904   25.5889  -25.9741 H   0  0  0  0  0  0  0  0  0  0  0  0
    0.2840   25.2288  -27.4495 H   0  0  0  0  0  0  0  0  0  0  0  0
    0.0114   24.0856  -29.6492 H   0  0  0  0  0  0  0  0  0  0  0  0
   -2.2324   23.2700  -30.3634 H   0  0  0  0  0  0  0  0  0  0  0  0
   -5.1660   23.0880  -28.2650 H   0  0  0  0  0  0  0  0  0  0  0  0
   -7.4019   24.6095  -31.1727 H   0  0  0  0  0  0  0  0  0  0  0  0
   -9.3077   23.2990  -32.0840 H   0  0  0  0  0  0  0  0  0  0  0  0
  -10.0895   20.2398  -31.6438 H   0  0  0  0  0  0  0  0  0  0  0  0
  -10.0847   21.3094  -33.0869 H   0  0  0  0  0  0  0  0  0  0  0  0
   -9.1161   19.7966  -33.0869 H   0  0  0  0  0  0  0  0  0  0  0  0
   -7.5104   16.6916  -32.6600 H   0  0  0  0  0  0  0  0  0  0  0  0
   -7.5750   16.9909  -34.4505 H   0  0  0  0  0  0  0  0  0  0  0  0
   -5.0754   16.3674  -32.8108 H   0  0  0  0  0  0  0  0  0  0  0  0
   -5.9627   15.2497  -33.9472 H   0  0  0  0  0  0  0  0  0  0  0  0
   -3.9551   18.5055  -35.3260 H   0  0  0  0  0  0  0  0  0  0  0  0
   -5.7224   18.3392  -35.7810 H   0  0  0  0  0  0  0  0  0  0  0  0
   -4.6464   18.7682  -32.9634 H   0  0  0  0  0  0  0  0  0  0  0  0
   -5.4017   20.0203  -34.0214 H   0  0  0  0  0  0  0  0  0  0  0  0
   -5.1291   20.9640  -30.6679 H   0  0  0  0  0  0  0  0  0  0  0  0
  1  2  1  0
  2  3  2  0
  3  4  1  0
  4  5  2  0
  5  6  1  0
  6  7  2  0
  7  8  1  0
  8  9  1  0
  9 10  2  0
  9 11  1  0
 11 12  2  0
 12 13  1  0
 13 14  2  0
 14 15  1  0
 14 16  1  0
 16 17  1  0
 17 18  2  0
 17 19  2  0
 17 20  1  0
 20 21  1  0
 21 22  1  0
 22 23  1  0
 23 24  1  0
 24 25  1  0
 16 26  2  0
  7  2  1  0
 26 11  1  0
 25 20  1  0
  1 27  1  0
  1 28  1  0
  1 29  1  0
  3 30  1  0
  4 31  1  0
  5 32  1  0
  6 33  1  0
  8 34  1  0
 12 35  1  0
 13 36  1  0
 15 37  1  0
 15 38  1  0
 15 39  1  0
 21 40  1  0
 21 41  1  0
 22 42  1  0
 22 43  1  0
 24 44  1  0
 24 45  1  0
 25 46  1  0
 25 47  1  0
 26 48  1  0
M  END
>  <UniqueID>  (32) 
31

>  <SMILES>  (32) 
Cc1ccccc1NC(=O)c1ccc(C)c(S(=O)(=O)N2CCOCC2)c1

>  <Energy>  (32) 
69.87021978911835

>  <Genealogy>  (32) 
Cc1ccccc1NC(=O)c1ccc(C)c(S(=O)(=O)N2CCOCC2)c1 (3D coordinates assigned)
Cc1ccccc1NC(=O)c1ccc(C)c(S(=O)(=O)N2CCOCC2)c1 (nonaromatic ring conformer: 69.87021978911835 kcal/mol)

>  <smiles>  (32) 
Cc1ccccc1NC(=O)c1ccc(C)c(S(=O)(=O)N2CCOCC2)c1

>  <score_type>  (32) 
oracle

>  <origin>  (32) 
adgpu

>  <m_score__min__energy>  (32) 
-9.9600000000000009

>  <m_primary>  (32) 
energy

$$$$
32:0
     RDKit          3D

 57 60  0  0  0  0  0  0  0  0999 V2000
   -7.7120   18.5290  -31.5580 C   0  0  0  0  0  0  0  0  0  0  0  0
   -8.6690   18.9930  -32.6480 C   0  0  0  0  0  0  0  0  0  0  0  0
   -9.0000   20.3740  -32.4760 O   0  0  0  0  0  0  0  0  0  0  0  0
   -8.1890   21.3410  -31.8570 C   0  0  0  0  0  0  0  0  0  0  0  0
   -8.4710   21.8770  -30.5840 C   0  0  0  0  0  0  0  0  0  0  0  0
   -7.6220   22.8350  -30.0190 C   0  0  0  0  0  0  0  0  0  0  0  0
   -6.4890   23.2730  -30.7160 C   0  0  0  0  0  0  0  0  0  0  0  0
   -5.3720   24.4240  -29.9960 S   0  0  0  0  0  0  0  0  0  0  0  0
   -5.9680   25.8000  -30.0320 O   0  0  0  0  0  0  0  0  0  0  0  0
   -5.0910   24.0610  -28.5670 O   0  0  0  0  0  0  0  0  0  0  0  0
   -3.8870   24.3770  -30.8890 N   0  0  0  0  0  0  0  0  0  0  0  0
   -2.7100   23.7510  -30.3750 C   0  0  0  0  0  0  0  0  0  0  0  0
   -2.3120   22.4890  -30.8380 C   0  0  0  0  0  0  0  0  0  0  0  0
   -1.1610   21.8770  -30.3250 C   0  0  0  0  0  0  0  0  0  0  0  0
   -0.6480   20.3160  -30.9620 S   0  0  0  0  0  0  0  0  0  0  0  0
    0.8500   20.1740  -30.9120 O   0  0  0  0  0  0  0  0  0  0  0  0
   -1.2550   19.2260  -30.1230 O   0  0  0  0  0  0  0  0  0  0  0  0
   -1.2040   20.1500  -32.5970 N   0  0  0  0  0  0  0  0  0  0  0  0
   -2.4260   19.5130  -32.9980 C   0  0  0  0  0  0  0  0  0  0  0  0
   -2.5890   18.1170  -32.9460 C   0  0  0  0  0  0  0  0  0  0  0  0
   -3.7920   17.5200  -33.3530 C   0  0  0  0  0  0  0  0  0  0  0  0
   -4.8640   18.3340  -33.7910 C   0  0  0  0  0  0  0  0  0  0  0  0
   -4.6960   19.7240  -33.8340 C   0  0  0  0  0  0  0  0  0  0  0  0
   -3.4920   20.3090  -33.4330 C   0  0  0  0  0  0  0  0  0  0  0  0
   -3.3610   21.6950  -33.4690 O   0  0  0  0  0  0  0  0  0  0  0  0
   -6.1540   17.7370  -34.3070 C   0  0  0  0  0  0  0  0  0  0  0  0
   -6.3640   16.2880  -33.8520 C   0  0  0  0  0  0  0  0  0  0  0  0
   -5.0880   15.4660  -34.0500 C   0  0  0  0  0  0  0  0  0  0  0  0
   -3.9570   16.0280  -33.1850 C   0  0  0  0  0  0  0  0  0  0  0  0
   -0.4070   22.5350  -29.3440 C   0  0  0  0  0  0  0  0  0  0  0  0
   -0.7910   23.8020  -28.8930 C   0  0  0  0  0  0  0  0  0  0  0  0
   -1.9360   24.4150  -29.4100 C   0  0  0  0  0  0  0  0  0  0  0  0
   -2.3090   25.6740  -28.9470 O   0  0  0  0  0  0  0  0  0  0  0  0
   -6.2150   22.7500  -31.9850 C   0  0  0  0  0  0  0  0  0  0  0  0
   -7.0590   21.7910  -32.5500 C   0  0  0  0  0  0  0  0  0  0  0  0
   -8.1495   18.7411  -30.5713 H   0  0  0  0  0  0  0  0  0  0  0  0
   -7.5395   17.4472  -31.6577 H   0  0  0  0  0  0  0  0  0  0  0  0
   -6.7558   19.0635  -31.6577 H   0  0  0  0  0  0  0  0  0  0  0  0
   -8.1921   18.8555  -33.6297 H   0  0  0  0  0  0  0  0  0  0  0  0
   -9.5919   18.3977  -32.5853 H   0  0  0  0  0  0  0  0  0  0  0  0
   -9.3617   21.5409  -30.0329 H   0  0  0  0  0  0  0  0  0  0  0  0
   -7.8454   23.2458  -29.0233 H   0  0  0  0  0  0  0  0  0  0  0  0
   -2.9068   21.9765  -31.6084 H   0  0  0  0  0  0  0  0  0  0  0  0
   -1.7645   17.4862  -32.5823 H   0  0  0  0  0  0  0  0  0  0  0  0
   -5.5201   20.3614  -34.1870 H   0  0  0  0  0  0  0  0  0  0  0  0
   -6.9939   18.3454  -33.9403 H   0  0  0  0  0  0  0  0  0  0  0  0
   -6.1004   17.7338  -35.4057 H   0  0  0  0  0  0  0  0  0  0  0  0
   -6.6361   16.2805  -32.7862 H   0  0  0  0  0  0  0  0  0  0  0  0
   -7.1682   15.8418  -34.4556 H   0  0  0  0  0  0  0  0  0  0  0  0
   -5.2804   14.4217  -33.7628 H   0  0  0  0  0  0  0  0  0  0  0  0
   -4.7895   15.5160  -35.1076 H   0  0  0  0  0  0  0  0  0  0  0  0
   -4.1795   15.8137  -32.1293 H   0  0  0  0  0  0  0  0  0  0  0  0
   -3.0199   15.5484  -33.5043 H   0  0  0  0  0  0  0  0  0  0  0  0
    0.4899   22.0534  -28.9273 H   0  0  0  0  0  0  0  0  0  0  0  0
   -0.1903   24.3176  -28.1293 H   0  0  0  0  0  0  0  0  0  0  0  0
   -5.3306   23.0959  -32.5402 H   0  0  0  0  0  0  0  0  0  0  0  0
   -6.8338   21.3861  -33.5477 H   0  0  0  0  0  0  0  0  0  0  0  0
  1  2  1  0
  2  3  1  0
  3  4  1  0
  4  5  2  0
  5  6  1  0
  6  7  2  0
  7  8  1  0
  8  9  2  0
  8 10  2  0
  8 11  1  0
 11 12  1  0
 12 13  2  0
 13 14  1  0
 14 15  1  0
 15 16  2  0
 15 17  2  0
 15 18  1  0
 18 19  1  0
 19 20  2  0
 20 21  1  0
 21 22  2  0
 22 23  1  0
 23 24  2  0
 24 25  1  0
 22 26  1  0
 26 27  1  0
 27 28  1  0
 28 29  1  0
 14 30  2  0
 30 31  1  0
 31 32  2  0
 32 33  1  0
  7 34  1  0
 34 35  2  0
 35  4  1  0
 32 12  1  0
 24 19  1  0
 29 21  1  0
  1 36  1  0
  1 37  1  0
  1 38  1  0
  2 39  1  0
  2 40  1  0
  5 41  1  0
  6 42  1  0
 13 43  1  0
 20 44  1  0
 23 45  1  0
 26 46  1  0
 26 47  1  0
 27 48  1  0
 27 49  1  0
 28 50  1  0
 28 51  1  0
 29 52  1  0
 29 53  1  0
 30 54  1  0
 31 55  1  0
 34 56  1  0
 35 57  1  0
M  CHG  4  11  -1  18  -1  25  -1  33  -1
M  END
>  <UniqueID>  (33) 
32

>  <SMILES>  (33) 
CCOc1ccc(S(=O)(=O)[N-]c2cc(S(=O)(=O)[N-]c3cc4c(cc3[O-])CCCC4)ccc2[O-])cc1

>  <Energy>  (33) 
70.16305797572205

>  <Genealogy>  (33) 
CCOc1ccc(S(=O)(=O)[N-]c2cc(S(=O)(=O)[N-]c3cc4c(cc3[O-])CCCC4)ccc2[O-])cc1 (protonated)
CCOc1ccc(S(=O)(=O)[N-]c2cc(S(=O)(=O)[N-]c3cc4c(cc3[O-])CCCC4)ccc2[O-])cc1 (3D coordinates assigned)
CCOc1ccc(S(=O)(=O)[N-]c2cc(S(=O)(=O)[N-]c3cc4c(cc3[O-])CCCC4)ccc2[O-])cc1 (nonaromatic ring conformer: 70.16305797572205 kcal/mol)

>  <smiles>  (33) 
CCOc1ccc(S(=O)(=O)Nc2cc(S(=O)(=O)Nc3cc4c(cc3O)CCCC4)ccc2O)cc1

>  <score_type>  (33) 
oracle

>  <origin>  (33) 
adgpu

>  <m_score__min__energy>  (33) 
-14.710000000000001

>  <m_primary>  (33) 
energy

$$$$
33:0
     RDKit          3D

 55 58  0  0  0  0  0  0  0  0999 V2000
   -8.2970   20.2890  -32.5730 C   0  0  0  0  0  0  0  0  0  0  0  0
   -7.5500   21.4700  -32.0160 C   0  0  0  0  0  0  0  0  0  0  0  0
   -8.2400   22.6780  -31.8150 C   0  0  0  0  0  0  0  0  0  0  0  0
   -7.5790   23.8040  -31.3210 C   0  0  0  0  0  0  0  0  0  0  0  0
   -6.2150   23.7430  -31.0220 C   0  0  0  0  0  0  0  0  0  0  0  0
   -5.3670   25.1440  -30.3740 S   0  0  0  0  0  0  0  0  0  0  0  0
   -5.7500   25.4010  -28.9440 O   0  0  0  0  0  0  0  0  0  0  0  0
   -5.7350   26.3510  -31.1910 O   0  0  0  0  0  0  0  0  0  0  0  0
   -3.6550   24.8870  -30.4820 N   0  0  0  0  0  0  0  0  0  0  0  0
   -2.8750   24.0890  -29.5810 C   0  0  0  0  0  0  0  0  0  0  0  0
   -3.0880   22.7030  -29.4380 C   0  0  0  0  0  0  0  0  0  0  0  0
   -2.3110   21.9550  -28.5440 C   0  0  0  0  0  0  0  0  0  0  0  0
   -1.3090   22.5830  -27.7890 C   0  0  0  0  0  0  0  0  0  0  0  0
   -1.0780   23.9580  -27.9480 C   0  0  0  0  0  0  0  0  0  0  0  0
   -1.8600   24.7080  -28.8300 C   0  0  0  0  0  0  0  0  0  0  0  0
   -1.6240   26.0700  -28.9690 O   0  0  0  0  0  0  0  0  0  0  0  0
   -0.4310   21.7460  -26.8960 C   0  0  0  0  0  0  0  0  0  0  0  0
   -1.2150   20.6380  -26.1560 C   0  0  0  0  0  0  0  0  0  0  0  0
   -2.4810   20.1200  -26.8860 C   0  0  0  0  0  0  0  0  0  0  0  0
   -2.5200   20.4760  -28.3760 C   0  0  0  0  0  0  0  0  0  0  0  0
   -5.5130   22.5500  -31.2280 C   0  0  0  0  0  0  0  0  0  0  0  0
   -6.1620   21.4110  -31.7300 C   0  0  0  0  0  0  0  0  0  0  0  0
   -5.2100   19.9400  -32.0130 S   0  0  0  0  0  0  0  0  0  0  0  0
   -5.9680   18.7630  -31.4590 O   0  0  0  0  0  0  0  0  0  0  0  0
   -3.8940   20.0360  -31.2870 O   0  0  0  0  0  0  0  0  0  0  0  0
   -4.9290   19.7030  -33.7260 N   0  0  0  0  0  0  0  0  0  0  0  0
   -3.6180   19.0830  -33.9860 C   0  0  0  0  0  0  0  0  0  0  0  0
   -3.5950   17.5800  -33.6200 C   0  0  0  0  0  0  0  0  0  0  0  0
   -4.8830   16.9960  -33.5280 O   0  0  0  0  0  0  0  0  0  0  0  0
   -5.7100   17.4660  -34.5690 C   0  0  0  0  0  0  0  0  0  0  0  0
   -6.0370   18.9570  -34.3650 C   0  0  0  0  0  0  0  0  0  0  0  0
   -8.6843   19.6766  -31.7454 H   0  0  0  0  0  0  0  0  0  0  0  0
   -9.1355   20.6435  -33.1905 H   0  0  0  0  0  0  0  0  0  0  0  0
   -7.6174   19.6833  -33.1905 H   0  0  0  0  0  0  0  0  0  0  0  0
   -9.3131   22.7368  -32.0496 H   0  0  0  0  0  0  0  0  0  0  0  0
   -8.1330   24.7417  -31.1667 H   0  0  0  0  0  0  0  0  0  0  0  0
   -3.8690   22.2057  -30.0319 H   0  0  0  0  0  0  0  0  0  0  0  0
   -0.2769   24.4480  -27.3751 H   0  0  0  0  0  0  0  0  0  0  0  0
    0.3487   21.2739  -27.5118 H   0  0  0  0  0  0  0  0  0  0  0  0
   -0.0003   22.4129  -26.1346 H   0  0  0  0  0  0  0  0  0  0  0  0
   -0.5370   19.7850  -26.0054 H   0  0  0  0  0  0  0  0  0  0  0  0
   -1.5693   21.0912  -25.2184 H   0  0  0  0  0  0  0  0  0  0  0  0
   -2.5143   19.0248  -26.7893 H   0  0  0  0  0  0  0  0  0  0  0  0
   -3.3469   20.6086  -26.4153 H   0  0  0  0  0  0  0  0  0  0  0  0
   -1.7237   19.9310  -28.9041 H   0  0  0  0  0  0  0  0  0  0  0  0
   -3.4974   20.1942  -28.7946 H   0  0  0  0  0  0  0  0  0  0  0  0
   -4.4392   22.5042  -30.9936 H   0  0  0  0  0  0  0  0  0  0  0  0
   -3.3820   19.1902  -35.0550 H   0  0  0  0  0  0  0  0  0  0  0  0
   -2.8742   19.5935  -33.3566 H   0  0  0  0  0  0  0  0  0  0  0  0
   -3.0247   17.0432  -34.3924 H   0  0  0  0  0  0  0  0  0  0  0  0
   -3.1335   17.4986  -32.6248 H   0  0  0  0  0  0  0  0  0  0  0  0
   -5.1909   17.3372  -35.5302 H   0  0  0  0  0  0  0  0  0  0  0  0
   -6.6482   16.8918  -34.5655 H   0  0  0  0  0  0  0  0  0  0  0  0
   -6.2457   19.4089  -35.3459 H   0  0  0  0  0  0  0  0  0  0  0  0
   -6.9077   19.0175  -33.6955 H   0  0  0  0  0  0  0  0  0  0  0  0
  1  2  1  0
  2  3  2  0
  3  4  1  0
  4  5  2  0
  5  6  1  0
  6  7  2  0
  6  8  2  0
  6  9  1  0
  9 10  1  0
 10 11  2  0
 11 12  1  0
 12 13  2  0
 13 14  1  0
 14 15  2  0
 15 16  1  0
 13 17  1  0
 17 18  1  0
 18 19  1  0
 19 20  1  0
  5 21  1  0
 21 22  2  0
 22 23  1  0
 23 24  2  0
 23 25  2  0
 23 26  1  0
 26 27  1  0
 27 28  1  0
 28 29  1  0
 29 30  1  0
 30 31  1  0
 22  2  1  0
 31 26  1  0
 15 10  1  0
 20 12  1  0
  1 32  1  0
  1 33  1  0
  1 34  1  0
  3 35  1  0
  4 36  1  0
 11 37  1  0
 14 38  1  0
 17 39  1  0
 17 40  1  0
 18 41  1  0
 18 42  1  0
 19 43  1  0
 19 44  1  0
 20 45  1  0
 20 46  1  0
 21 47  1  0
 27 48  1  0
 27 49  1  0
 28 50  1  0
 28 51  1  0
 30 52  1  0
 30 53  1  0
 31 54  1  0
 31 55  1  0
M  CHG  2   9  -1  16  -1
M  END
>  <UniqueID>  (34) 
33

>  <SMILES>  (34) 
Cc1ccc(S(=O)(=O)[N-]c2cc3c(cc2[O-])CCCC3)cc1S(=O)(=O)N1CCOCC1

>  <Energy>  (34) 
76.68465191881825

>  <Genealogy>  (34) 
Cc1ccc(S(=O)(=O)[N-]c2cc3c(cc2[O-])CCCC3)cc1S(=O)(=O)N1CCOCC1 (protonated)
Cc1ccc(S(=O)(=O)[N-]c2cc3c(cc2[O-])CCCC3)cc1S(=O)(=O)N1CCOCC1 (3D coordinates assigned)
Cc1ccc(S(=O)(=O)[N-]c2cc3c(cc2[O-])CCCC3)cc1S(=O)(=O)N1CCOCC1 (nonaromatic ring conformer: 76.68465191881825 kcal/mol)

>  <smiles>  (34) 
Cc1ccc(S(=O)(=O)Nc2cc3c(cc2O)CCCC3)cc1S(=O)(=O)N1CCOCC1

>  <score_type>  (34) 
oracle

>  <origin>  (34) 
adgpu

>  <m_score__min__energy>  (34) 
-15.390000000000001

>  <m_primary>  (34) 
energy

$$$$
34:0
     RDKit          3D

 32 34  0  0  0  0  0  0  0  0999 V2000
   -7.3890   18.3310  -32.1950 C   0  0  0  0  0  0  0  0  0  0  0  0
   -8.0160   19.2560  -31.3130 O   0  0  0  0  0  0  0  0  0  0  0  0
   -7.9330   20.6500  -31.4390 C   0  0  0  0  0  0  0  0  0  0  0  0
   -9.0820   21.3530  -31.8190 C   0  0  0  0  0  0  0  0  0  0  0  0
   -9.0460   22.7420  -31.9670 C   0  0  0  0  0  0  0  0  0  0  0  0
   -7.8590   23.4400  -31.7400 C   0  0  0  0  0  0  0  0  0  0  0  0
   -6.6970   22.7540  -31.3580 C   0  0  0  0  0  0  0  0  0  0  0  0
   -5.4660   23.4710  -31.1450 N   0  0  0  0  0  0  0  0  0  0  0  0
   -4.1990   23.0510  -31.3590 C   0  0  0  0  0  0  0  0  0  0  0  0
   -3.8040   21.7920  -32.0170 C   0  0  0  0  0  0  0  0  0  0  0  0
   -4.2570   21.3600  -33.2450 C   0  0  0  0  0  0  0  0  0  0  0  0
   -3.6500   20.1390  -33.4630 C   0  0  0  0  0  0  0  0  0  0  0  0
   -2.8940   19.8270  -32.4340 O   0  0  0  0  0  0  0  0  0  0  0  0
   -2.9740   20.7880  -31.5420 C   0  0  0  0  0  0  0  0  0  0  0  0
   -2.2680   20.7380  -30.2250 C   0  0  0  0  0  0  0  0  0  0  0  0
   -3.3010   23.9290  -30.8700 N   0  0  0  0  0  0  0  0  0  0  0  0
   -3.9850   24.9330  -30.3390 N   0  0  0  0  0  0  0  0  0  0  0  0
   -5.2880   24.6500  -30.5120 C   0  0  0  0  0  0  0  0  0  0  0  0
   -6.4880   25.5780  -29.8910 S   0  0  0  0  0  0  0  0  0  0  0  0
   -6.7390   21.3590  -31.2020 C   0  0  0  0  0  0  0  0  0  0  0  0
   -6.8670   17.5609  -31.6081 H   0  0  0  0  0  0  0  0  0  0  0  0
   -8.1512   17.8547  -32.8292 H   0  0  0  0  0  0  0  0  0  0  0  0
   -6.6643   18.8626  -32.8292 H   0  0  0  0  0  0  0  0  0  0  0  0
  -10.0199   20.8083  -32.0024 H   0  0  0  0  0  0  0  0  0  0  0  0
   -9.9549   23.2863  -32.2630 H   0  0  0  0  0  0  0  0  0  0  0  0
   -7.8347   24.5330  -31.8612 H   0  0  0  0  0  0  0  0  0  0  0  0
   -4.9580   21.8808  -33.9139 H   0  0  0  0  0  0  0  0  0  0  0  0
   -3.7797   19.5201  -34.3631 H   0  0  0  0  0  0  0  0  0  0  0  0
   -3.0061   20.7903  -29.4111 H   0  0  0  0  0  0  0  0  0  0  0  0
   -1.7027   19.7976  -30.1475 H   0  0  0  0  0  0  0  0  0  0  0  0
   -1.5758   21.5894  -30.1475 H   0  0  0  0  0  0  0  0  0  0  0  0
   -5.8336   20.8163  -30.8927 H   0  0  0  0  0  0  0  0  0  0  0  0
  1  2  1  0
  2  3  1  0
  3  4  2  0
  4  5  1  0
  5  6  2  0
  6  7  1  0
  7  8  1  0
  8  9  1  0
  9 10  1  0
 10 11  1  0
 11 12  2  0
 12 13  1  0
 13 14  1  0
 14 15  1  0
  9 16  2  0
 16 17  1  0
 17 18  1  0
 18 19  2  0
  7 20  2  0
 20  3  1  0
 18  8  1  0
 14 10  2  0
  1 21  1  0
  1 22  1  0
  1 23  1  0
  4 24  1  0
  5 25  1  0
  6 26  1  0
 11 27  1  0
 12 28  1  0
 15 29  1  0
 15 30  1  0
 15 31  1  0
 20 32  1  0
M  CHG  1  17  -1
M  END
>  <UniqueID>  (35) 
34

>  <SMILES>  (35) 
COc1cccc(-n2c(-c3ccoc3C)n[n-]c2=S)c1

>  <Energy>  (35) 
103.88624465293265

>  <Genealogy>  (35) 
COc1cccc(-n2c(-c3ccoc3C)n[n-]c2=S)c1 (protonated)
COc1cccc(-n2c(-c3ccoc3C)n[n-]c2=S)c1 (3D coordinates assigned)
COc1cccc(-n2c(-c3ccoc3C)n[n-]c2=S)c1 (optimized conformer: 103.88624465293265 kcal/mol)

>  <smiles>  (35) 
COc1cccc(-n2c(-c3ccoc3C)n[nH]c2=S)c1

>  <score_type>  (35) 
oracle

>  <origin>  (35) 
adgpu

>  <m_score__min__energy>  (35) 
-7.9400000000000004

>  <m_primary>  (35) 
energy

$$$$
35:0
     RDKit          3D

 42 45  0  0  0  0  0  0  0  0999 V2000
   -3.8293   22.3642  -29.9472 H   0  0  0  0  0  0  0  0  0  0  0  0
   -2.7710   22.3140  -30.2430 C   0  0  0  0  0  0  0  0  0  0  0  0
   -1.8230   23.2230  -29.5730 C   0  0  0  0  0  0  0  0  0  0  0  0
   -1.9990   24.5740  -29.3800 C   0  0  0  0  0  0  0  0  0  0  0  0
   -3.1380   25.2980  -29.7100 O   0  0  0  0  0  0  0  0  0  0  0  0
   -0.9030   25.1210  -28.8210 N   0  0  0  0  0  0  0  0  0  0  0  0
   -0.0690   24.0660  -28.7080 C   0  0  0  0  0  0  0  0  0  0  0  0
    1.0950   24.1620  -28.2360 O   0  0  0  0  0  0  0  0  0  0  0  0
   -0.5840   22.9050  -29.1570 N   0  0  0  0  0  0  0  0  0  0  0  0
   -0.0940   21.9850  -29.2250 H   0  0  0  0  0  0  0  0  0  0  0  0
   -2.4250   21.4300  -31.1900 C   0  0  0  0  0  0  0  0  0  0  0  0
   -1.1600   21.0910  -31.6700 C   0  0  0  0  0  0  0  0  0  0  0  0
   -0.2152   21.5519  -31.3459 H   0  0  0  0  0  0  0  0  0  0  0  0
   -1.2710   20.1090  -32.5950 N   0  0  0  0  0  0  0  0  0  0  0  0
   -2.5570   19.8210  -32.7150 N   0  0  0  0  0  0  0  0  0  0  0  0
   -3.1680   18.8920  -33.5080 C   0  0  0  0  0  0  0  0  0  0  0  0
   -2.5280   18.1180  -34.3430 N   0  0  0  0  0  0  0  0  0  0  0  0
   -1.1010   18.0740  -34.6530 C   0  0  0  0  0  0  0  0  0  0  0  0
   -0.6837   19.0889  -34.5763 H   0  0  0  0  0  0  0  0  0  0  0  0
   -0.9735   17.6840  -35.6736 H   0  0  0  0  0  0  0  0  0  0  0  0
   -0.3640   17.1550  -33.6820 C   0  0  0  0  0  0  0  0  0  0  0  0
   -0.5997   17.4489  -32.6485 H   0  0  0  0  0  0  0  0  0  0  0  0
   -0.6813   16.1151  -33.8489 H   0  0  0  0  0  0  0  0  0  0  0  0
    0.7200   17.2389  -33.8489 H   0  0  0  0  0  0  0  0  0  0  0  0
   -4.5210   18.7700  -33.4120 N   0  0  0  0  0  0  0  0  0  0  0  0
   -5.2490   19.5530  -32.5570 C   0  0  0  0  0  0  0  0  0  0  0  0
   -6.6830   19.4030  -32.4770 N   0  0  0  0  0  0  0  0  0  0  0  0
   -7.5580   20.4370  -33.0470 C   0  0  0  0  0  0  0  0  0  0  0  0
   -7.1120   21.4266  -32.8687 H   0  0  0  0  0  0  0  0  0  0  0  0
   -7.6638   20.2564  -34.1269 H   0  0  0  0  0  0  0  0  0  0  0  0
   -8.9440   20.3860  -32.4000 C   0  0  0  0  0  0  0  0  0  0  0  0
   -8.8660   20.7182  -31.3543 H   0  0  0  0  0  0  0  0  0  0  0  0
   -9.6198   21.0466  -32.9629 H   0  0  0  0  0  0  0  0  0  0  0  0
   -9.4660   19.0720  -32.4310 O   0  0  0  0  0  0  0  0  0  0  0  0
   -8.6760   18.2340  -31.6120 C   0  0  0  0  0  0  0  0  0  0  0  0
   -8.6113   18.6715  -30.6048 H   0  0  0  0  0  0  0  0  0  0  0  0
   -9.1452   17.2400  -31.5689 H   0  0  0  0  0  0  0  0  0  0  0  0
   -7.2640   18.0850  -32.1860 C   0  0  0  0  0  0  0  0  0  0  0  0
   -6.6293   17.5636  -31.4543 H   0  0  0  0  0  0  0  0  0  0  0  0
   -7.3199   17.5076  -33.1206 H   0  0  0  0  0  0  0  0  0  0  0  0
   -4.6110   20.4760  -31.7780 N   0  0  0  0  0  0  0  0  0  0  0  0
   -3.2670   20.5860  -31.8790 C   0  0  0  0  0  0  0  0  0  0  0  0
  1  2  1  0
  2  3  1  0
  3  4  2  0
  4  5  1  0
  4  6  1  0
  6  7  1  0
  7  8  2  0
  7  9  1  0
  9 10  1  0
  2 11  2  0
 11 12  1  0
 12 13  1  0
 12 14  2  0
 14 15  1  0
 15 16  1  0
 16 17  2  3
 17 18  1  0
 18 19  1  0
 18 20  1  0
 18 21  1  0
 21 22  1  0
 21 23  1  0
 21 24  1  0
 16 25  1  0
 25 26  2  0
 26 27  1  0
 27 28  1  0
 28 29  1  0
 28 30  1  0
 28 31  1  0
 31 32  1  0
 31 33  1  0
 31 34  1  0
 34 35  1  0
 35 36  1  0
 35 37  1  0
 35 38  1  0
 38 39  1  0
 38 40  1  0
 26 41  1  0
 41 42  2  0
  9  3  1  0
 42 11  1  0
 42 15  1  0
 38 27  1  0
M  CHG  2   5  -1   6  -1
M  END
>  <UniqueID>  (36) 
35

>  <SMILES>  (36) 
CCN=c1nc(N2CCOCC2)nc2/c(=C/c3[nH]c(=O)[n-]c3[O-])cnn12

>  <Energy>  (36) 
122.45149684657109

>  <Genealogy>  (36) 
CCN=c1nc(N2CCOCC2)nc2c(=Cc3[nH]c(=O)[n-]c3[O-])cnn12 (protonated)
CCN=c1nc(N2CCOCC2)nc2/c(=C/c3[nH]c(=O)[n-]c3[O-])cnn12 (cis-trans isomerization)
CCN=c1nc(N2CCOCC2)nc2/c(=C/c3[nH]c(=O)[n-]c3[O-])cnn12 (3D coordinates assigned)
CCN=c1nc(N2CCOCC2)nc2/c(=C/c3[nH]c(=O)[n-]c3[O-])cnn12 (nonaromatic ring conformer: 122.45149684657109 kcal/mol)

>  <smiles>  (36) 
CCN=c1nc(N2CCOCC2)nc2c(=Cc3[nH]c(=O)[nH]c3O)cnn12

>  <score_type>  (36) 
oracle

>  <origin>  (36) 
adgpu

>  <m_score__min__energy>  (36) 
-11.460000000000001

>  <m_primary>  (36) 
energy

$$$$
36:0
     RDKit          3D

 35 36  0  0  0  0  0  0  0  0999 V2000
   -5.7380   26.1340  -30.0960 C   0  0  0  0  0  0  0  0  0  0  0  0
   -4.9750   24.9230  -30.5290 C   0  0  0  0  0  0  0  0  0  0  0  0
   -5.5400   24.0230  -31.4360 C   0  0  0  0  0  0  0  0  0  0  0  0
   -4.8100   22.8910  -31.8230 C   0  0  0  0  0  0  0  0  0  0  0  0
   -5.3540   21.9790  -32.7960 N   0  0  0  0  0  0  0  0  0  0  0  0
   -6.3900   21.0230  -32.5110 C   0  0  0  0  0  0  0  0  0  0  0  0
   -7.5960   21.4110  -31.9080 C   0  0  0  0  0  0  0  0  0  0  0  0
   -8.5800   20.4650  -31.6240 C   0  0  0  0  0  0  0  0  0  0  0  0
   -8.3800   19.1090  -31.9280 C   0  0  0  0  0  0  0  0  0  0  0  0
   -9.4610   18.1110  -31.6030 C   0  0  0  0  0  0  0  0  0  0  0  0
   -7.1530   18.7020  -32.5040 C   0  0  0  0  0  0  0  0  0  0  0  0
   -6.8860   17.2570  -32.8360 C   0  0  0  0  0  0  0  0  0  0  0  0
   -6.1710   19.6670  -32.7910 C   0  0  0  0  0  0  0  0  0  0  0  0
   -3.5180   22.6980  -31.2950 C   0  0  0  0  0  0  0  0  0  0  0  0
   -2.6880   21.5060  -31.7020 C   0  0  0  0  0  0  0  0  0  0  0  0
   -3.0120   23.6650  -30.4020 C   0  0  0  0  0  0  0  0  0  0  0  0
   -1.8550   23.5490  -29.9170 O   0  0  0  0  0  0  0  0  0  0  0  0
   -3.7500   24.7150  -30.0570 O   0  0  0  0  0  0  0  0  0  0  0  0
   -5.7650   26.1769  -28.9972 H   0  0  0  0  0  0  0  0  0  0  0  0
   -5.2452   27.0368  -30.4862 H   0  0  0  0  0  0  0  0  0  0  0  0
   -6.7650   26.0792  -30.4862 H   0  0  0  0  0  0  0  0  0  0  0  0
   -6.5468   24.2009  -31.8419 H   0  0  0  0  0  0  0  0  0  0  0  0
   -4.9950   22.0350  -33.7760 H   0  0  0  0  0  0  0  0  0  0  0  0
   -7.7663   22.4685  -31.6577 H   0  0  0  0  0  0  0  0  0  0  0  0
   -9.5232   20.7845  -31.1567 H   0  0  0  0  0  0  0  0  0  0  0  0
   -9.5597   18.0199  -30.5112 H   0  0  0  0  0  0  0  0  0  0  0  0
  -10.4155   18.4522  -32.0302 H   0  0  0  0  0  0  0  0  0  0  0  0
   -9.1970   17.1323  -32.0302 H   0  0  0  0  0  0  0  0  0  0  0  0
   -6.7795   16.6806  -31.9052 H   0  0  0  0  0  0  0  0  0  0  0  0
   -7.7250   16.8545  -33.4226 H   0  0  0  0  0  0  0  0  0  0  0  0
   -5.9586   17.1809  -33.4226 H   0  0  0  0  0  0  0  0  0  0  0  0
   -5.2178   19.3533  -33.2415 H   0  0  0  0  0  0  0  0  0  0  0  0
   -2.3264   20.9866  -30.8023 H   0  0  0  0  0  0  0  0  0  0  0  0
   -3.3033   20.8178  -32.3002 H   0  0  0  0  0  0  0  0  0  0  0  0
   -1.8291   21.8443  -32.3002 H   0  0  0  0  0  0  0  0  0  0  0  0
  1  2  1  0
  2  3  2  0
  3  4  1  0
  4  5  1  0
  5  6  1  0
  6  7  2  0
  7  8  1  0
  8  9  2  0
  9 10  1  0
  9 11  1  0
 11 12  1  0
 11 13  2  0
  4 14  2  0
 14 15  1  0
 14 16  1  0
 16 17  2  0
 16 18  1  0
 18  2  1  0
 13  6  1  0
  1 19  1  0
  1 20  1  0
  1 21  1  0
  3 22  1  0
  5 23  1  0
  7 24  1  0
  8 25  1  0
 10 26  1  0
 10 27  1  0
 10 28  1  0
 12 29  1  0
 12 30  1  0
 12 31  1  0
 13 32  1  0
 15 33  1  0
 15 34  1  0
 15 35  1  0
M  END
>  <UniqueID>  (37) 
36

>  <SMILES>  (37) 
Cc1cc(Nc2ccc(C)c(C)c2)c(C)c(=O)o1

>  <Energy>  (37) 
42.1423663868759

>  <Genealogy>  (37) 
Cc1cc(Nc2ccc(C)c(C)c2)c(C)c(=O)o1 (3D coordinates assigned)
Cc1cc(Nc2ccc(C)c(C)c2)c(C)c(=O)o1 (optimized conformer: 42.1423663868759 kcal/mol)

>  <smiles>  (37) 
Cc1cc(Nc2ccc(C)c(C)c2)c(C)c(=O)o1

>  <score_type>  (37) 
oracle

>  <origin>  (37) 
adgpu

>  <m_score__min__energy>  (37) 
-7.4900000000000002

>  <m_primary>  (37) 
energy

$$$$
37:0
     RDKit          3D

 42 44  0  0  0  0  0  0  0  0999 V2000
   -2.0310   22.6520  -31.6590 O   0  0  0  0  0  0  0  0  0  0  0  0
   -2.8510   22.4410  -30.7230 C   0  0  0  0  0  0  0  0  0  0  0  0
   -2.4900   21.5480  -29.6610 N   0  0  0  0  0  0  0  0  0  0  0  0
   -1.8080   21.9200  -28.4560 C   0  0  0  0  0  0  0  0  0  0  0  0
   -1.8700   21.0520  -27.3580 C   0  0  0  0  0  0  0  0  0  0  0  0
   -1.2140   21.3690  -26.1650 C   0  0  0  0  0  0  0  0  0  0  0  0
   -0.4750   22.5500  -26.0670 C   0  0  0  0  0  0  0  0  0  0  0  0
   -0.3770   23.4070  -27.1670 C   0  0  0  0  0  0  0  0  0  0  0  0
   -1.0260   23.0910  -28.3700 C   0  0  0  0  0  0  0  0  0  0  0  0
   -0.8670   23.9210  -29.4800 O   0  0  0  0  0  0  0  0  0  0  0  0
   -4.1530   23.1620  -30.7050 C   0  0  0  0  0  0  0  0  0  0  0  0
   -5.3370   22.4570  -31.0000 C   0  0  0  0  0  0  0  0  0  0  0  0
   -6.5800   23.1050  -31.0060 C   0  0  0  0  0  0  0  0  0  0  0  0
   -8.0490   22.2090  -31.4080 S   0  0  0  0  0  0  0  0  0  0  0  0
   -8.9750   23.1000  -32.1870 O   0  0  0  0  0  0  0  0  0  0  0  0
   -8.7480   21.8100  -30.1390 O   0  0  0  0  0  0  0  0  0  0  0  0
   -7.6950   20.7780  -32.3470 N   0  0  0  0  0  0  0  0  0  0  0  0
   -6.7010   19.9370  -31.6530 C   0  0  0  0  0  0  0  0  0  0  0  0
   -6.7580   18.4900  -32.1710 C   0  0  0  0  0  0  0  0  0  0  0  0
   -8.0200   17.8570  -31.9850 O   0  0  0  0  0  0  0  0  0  0  0  0
   -9.1060   18.7660  -31.8680 C   0  0  0  0  0  0  0  0  0  0  0  0
   -8.9250   20.0410  -32.7100 C   0  0  0  0  0  0  0  0  0  0  0  0
   -6.6490   24.4670  -30.6960 C   0  0  0  0  0  0  0  0  0  0  0  0
   -5.4880   25.1780  -30.3960 C   0  0  0  0  0  0  0  0  0  0  0  0
   -4.2440   24.5390  -30.3980 C   0  0  0  0  0  0  0  0  0  0  0  0
   -3.1160   25.2900  -30.0850 O   0  0  0  0  0  0  0  0  0  0  0  0
   -2.4392   20.1139  -27.4353 H   0  0  0  0  0  0  0  0  0  0  0  0
   -1.2798   20.6883  -25.3034 H   0  0  0  0  0  0  0  0  0  0  0  0
    0.0301   22.8059  -25.1239 H   0  0  0  0  0  0  0  0  0  0  0  0
    0.2115   24.3331  -27.0890 H   0  0  0  0  0  0  0  0  0  0  0  0
   -1.6370   24.1210  -30.1080 H   0  0  0  0  0  0  0  0  0  0  0  0
   -5.2850   21.3823  -31.2289 H   0  0  0  0  0  0  0  0  0  0  0  0
   -5.6951   20.3451  -31.8311 H   0  0  0  0  0  0  0  0  0  0  0  0
   -6.9272   19.9368  -30.5765 H   0  0  0  0  0  0  0  0  0  0  0  0
   -6.5308   18.4988  -33.2473 H   0  0  0  0  0  0  0  0  0  0  0  0
   -6.0244   17.9142  -31.5876 H   0  0  0  0  0  0  0  0  0  0  0  0
  -10.0241   18.2575  -32.1972 H   0  0  0  0  0  0  0  0  0  0  0  0
   -9.1595   19.0761  -30.8140 H   0  0  0  0  0  0  0  0  0  0  0  0
   -8.8695   19.7597  -33.7720 H   0  0  0  0  0  0  0  0  0  0  0  0
   -9.7842   20.6998  -32.5158 H   0  0  0  0  0  0  0  0  0  0  0  0
   -7.6226   24.9789  -30.6889 H   0  0  0  0  0  0  0  0  0  0  0  0
   -5.5508   26.2496  -30.1559 H   0  0  0  0  0  0  0  0  0  0  0  0
  1  2  2  0
  2  3  1  0
  3  4  1  0
  4  5  2  0
  5  6  1  0
  6  7  2  0
  7  8  1  0
  8  9  2  0
  9 10  1  0
  2 11  1  0
 11 12  2  0
 12 13  1  0
 13 14  1  0
 14 15  2  0
 14 16  2  0
 14 17  1  0
 17 18  1  0
 18 19  1  0
 19 20  1  0
 20 21  1  0
 21 22  1  0
 13 23  2  0
 23 24  1  0
 24 25  2  0
 25 26  1  0
  9  4  1  0
 25 11  1  0
 22 17  1  0
  5 27  1  0
  6 28  1  0
  7 29  1  0
  8 30  1  0
 10 31  1  0
 12 32  1  0
 18 33  1  0
 18 34  1  0
 19 35  1  0
 19 36  1  0
 21 37  1  0
 21 38  1  0
 22 39  1  0
 22 40  1  0
 23 41  1  0
 24 42  1  0
M  CHG  2   3  -1  26  -1
M  END
>  <UniqueID>  (38) 
37

>  <SMILES>  (38) 
O=C([N-]c1ccccc1O)c1cc(S(=O)(=O)N2CCOCC2)ccc1[O-]

>  <Energy>  (38) 
63.4217083691927

>  <Genealogy>  (38) 
O=C([N-]c1ccccc1O)c1cc(S(=O)(=O)N2CCOCC2)ccc1[O-] (protonated)
O=C([N-]c1ccccc1O)c1cc(S(=O)(=O)N2CCOCC2)ccc1[O-] (3D coordinates assigned)
O=C([N-]c1ccccc1O)c1cc(S(=O)(=O)N2CCOCC2)ccc1[O-] (nonaromatic ring conformer: 63.4217083691927 kcal/mol)

>  <smiles>  (38) 
O=C(Nc1ccccc1O)c1cc(S(=O)(=O)N2CCOCC2)ccc1O

>  <score_type>  (38) 
oracle

>  <origin>  (38) 
adgpu

>  <m_score__min__energy>  (38) 
-13.15

>  <m_primary>  (38) 
energy

$$$$
38:0
     RDKit          3D

 44 46  0  0  0  0  0  0  0  0999 V2000
    1.0800   19.2770  -34.7700 C   0  0  0  0  0  0  0  0  0  0  0  0
   -0.2510   19.7250  -34.2940 C   0  0  0  0  0  0  0  0  0  0  0  0
   -0.3890   21.0250  -33.8660 C   0  0  0  0  0  0  0  0  0  0  0  0
   -1.6290   21.4160  -33.4290 C   0  0  0  0  0  0  0  0  0  0  0  0
   -2.7310   20.5380  -33.4100 C   0  0  0  0  0  0  0  0  0  0  0  0
   -3.8810   20.9080  -33.0020 O   0  0  0  0  0  0  0  0  0  0  0  0
   -5.0450   21.2820  -32.5880 C   0  0  0  0  0  0  0  0  0  0  0  0
   -6.1390   20.5420  -33.1610 C   0  0  0  0  0  0  0  0  0  0  0  0
   -7.4350   20.7910  -32.8500 C   0  0  0  0  0  0  0  0  0  0  0  0
   -7.7060   21.7850  -31.9550 C   0  0  0  0  0  0  0  0  0  0  0  0
   -9.1110   22.0660  -31.6050 C   0  0  0  0  0  0  0  0  0  0  0  0
   -9.5100   23.3280  -32.0030 F   0  0  0  0  0  0  0  0  0  0  0  0
   -9.9510   21.1540  -32.2340 F   0  0  0  0  0  0  0  0  0  0  0  0
   -9.3350   21.9200  -30.2370 F   0  0  0  0  0  0  0  0  0  0  0  0
   -6.6910   22.4990  -31.3990 C   0  0  0  0  0  0  0  0  0  0  0  0
   -5.3330   22.2800  -31.6870 C   0  0  0  0  0  0  0  0  0  0  0  0
   -4.4030   23.1100  -30.9840 C   0  0  0  0  0  0  0  0  0  0  0  0
   -4.4900   24.3910  -31.1420 O   0  0  0  0  0  0  0  0  0  0  0  0
   -3.3660   22.7390  -30.1140 N   0  0  0  0  0  0  0  0  0  0  0  0
   -2.5140   23.7140  -29.4930 C   0  0  0  0  0  0  0  0  0  0  0  0
   -1.1790   23.6190  -29.1780 C   0  0  0  0  0  0  0  0  0  0  0  0
   -0.8640   24.8420  -28.5960 C   0  0  0  0  0  0  0  0  0  0  0  0
    0.2540   25.2010  -28.1540 O   0  0  0  0  0  0  0  0  0  0  0  0
   -1.9800   25.5970  -28.5830 N   0  0  0  0  0  0  0  0  0  0  0  0
   -2.9860   24.9210  -29.1260 N   0  0  0  0  0  0  0  0  0  0  0  0
   -2.5040   19.2240  -33.8660 C   0  0  0  0  0  0  0  0  0  0  0  0
   -3.6690   18.2960  -33.8480 C   0  0  0  0  0  0  0  0  0  0  0  0
   -1.2740   18.8060  -34.3090 C   0  0  0  0  0  0  0  0  0  0  0  0
    1.7246   19.0600  -33.9055 H   0  0  0  0  0  0  0  0  0  0  0  0
    0.9649   18.3681  -35.3788 H   0  0  0  0  0  0  0  0  0  0  0  0
    1.5379   20.0705  -35.3788 H   0  0  0  0  0  0  0  0  0  0  0  0
    0.4611   21.7231  -33.8739 H   0  0  0  0  0  0  0  0  0  0  0  0
   -1.7679   22.4504  -33.0815 H   0  0  0  0  0  0  0  0  0  0  0  0
   -5.9141   19.7414  -33.8810 H   0  0  0  0  0  0  0  0  0  0  0  0
   -8.2472   20.2068  -33.3073 H   0  0  0  0  0  0  0  0  0  0  0  0
   -6.9476   23.2935  -30.6828 H   0  0  0  0  0  0  0  0  0  0  0  0
   -3.2050   21.7690  -29.8980 H   0  0  0  0  0  0  0  0  0  0  0  0
   -0.5081   22.7641  -29.3487 H   0  0  0  0  0  0  0  0  0  0  0  0
   -2.0880   26.5810  -28.2110 H   0  0  0  0  0  0  0  0  0  0  0  0
   -3.9770   25.2750  -29.2420 H   0  0  0  0  0  0  0  0  0  0  0  0
   -3.9460   18.0754  -32.8066 H   0  0  0  0  0  0  0  0  0  0  0  0
   -4.5203   18.7662  -34.3621 H   0  0  0  0  0  0  0  0  0  0  0  0
   -3.4011   17.3611  -34.3621 H   0  0  0  0  0  0  0  0  0  0  0  0
   -1.1129   17.7767  -34.6620 H   0  0  0  0  0  0  0  0  0  0  0  0
  1  2  1  0
  2  3  2  0
  3  4  1  0
  4  5  2  0
  5  6  1  0
  6  7  1  0
  7  8  2  0
  8  9  1  0
  9 10  2  0
 10 11  1  0
 11 12  1  0
 11 13  1  0
 11 14  1  0
 10 15  1  0
 15 16  2  0
 16 17  1  0
 17 18  2  0
 17 19  1  0
 19 20  1  0
 20 21  2  0
 21 22  1  0
 22 23  2  0
 22 24  1  0
 24 25  1  0
  5 26  1  0
 26 27  1  0
 26 28  2  0
 28  2  1  0
 16  7  1  0
 25 20  1  0
  1 29  1  0
  1 30  1  0
  1 31  1  0
  3 32  1  0
  4 33  1  0
  8 34  1  0
  9 35  1  0
 15 36  1  0
 19 37  1  0
 21 38  1  0
 24 39  1  0
 25 40  1  0
 27 41  1  0
 27 42  1  0
 27 43  1  0
 28 44  1  0
M  END
>  <smiles>  (39) 
Cc1ccc(Oc2ccc(C(F)(F)F)cc2C(=O)Nc2cc(=O)[nH][nH]2)c(C)c1

>  <score_type>  (39) 
oracle

>  <origin>  (39) 
adgpu

>  <m_score__min__energy>  (39) 
-8.2400000000000002

>  <m_primary>  (39) 
energy

$$$$
39:0
     RDKit          3D

 57 60  0  0  0  0  0  0  0  0999 V2000
   -0.5100   19.5140  -27.3890 C   0  0  0  0  0  0  0  0  0  0  0  0
   -1.3320   20.7610  -27.5420 C   0  0  0  0  0  0  0  0  0  0  0  0
   -2.7290   20.6760  -27.6300 C   0  0  0  0  0  0  0  0  0  0  0  0
   -3.4950   21.8320  -27.8110 C   0  0  0  0  0  0  0  0  0  0  0  0
   -2.8730   23.0860  -27.9060 C   0  0  0  0  0  0  0  0  0  0  0  0
   -3.6920   24.3220  -28.1480 C   0  0  0  0  0  0  0  0  0  0  0  0
   -4.3930   24.2100  -29.4210 N   0  0  0  0  0  0  0  0  0  0  0  0
   -5.4290   23.4030  -29.6980 C   0  0  0  0  0  0  0  0  0  0  0  0
   -5.8010   23.6980  -30.9920 C   0  0  0  0  0  0  0  0  0  0  0  0
   -6.8810   23.0380  -31.7880 C   0  0  0  0  0  0  0  0  0  0  0  0
   -6.7010   21.5860  -31.7810 N   0  0  0  0  0  0  0  0  0  0  0  0
   -5.4540   20.9320  -32.0940 C   0  0  0  0  0  0  0  0  0  0  0  0
   -4.3240   21.1320  -31.2760 C   0  0  0  0  0  0  0  0  0  0  0  0
   -3.1190   20.4850  -31.5540 C   0  0  0  0  0  0  0  0  0  0  0  0
   -3.0230   19.6240  -32.6440 C   0  0  0  0  0  0  0  0  0  0  0  0
   -4.1280   19.4130  -33.4680 C   0  0  0  0  0  0  0  0  0  0  0  0
   -5.3450   20.0710  -33.2170 C   0  0  0  0  0  0  0  0  0  0  0  0
   -6.5020   19.8210  -34.1550 C   0  0  0  0  0  0  0  0  0  0  0  0
   -7.7670   19.9880  -33.4370 N   0  0  0  0  0  0  0  0  0  0  0  0
   -7.9650   18.6980  -32.2890 S   0  0  0  0  0  0  0  0  0  0  0  0
   -9.3790   18.1850  -32.3410 O   0  0  0  0  0  0  0  0  0  0  0  0
   -7.6930   19.2180  -30.9050 O   0  0  0  0  0  0  0  0  0  0  0  0
   -6.8280   17.4020  -32.6480 C   0  0  0  0  0  0  0  0  0  0  0  0
   -5.8910   16.9800  -31.6920 C   0  0  0  0  0  0  0  0  0  0  0  0
   -5.0050   15.9410  -31.9900 C   0  0  0  0  0  0  0  0  0  0  0  0
   -5.0500   15.3170  -33.2400 C   0  0  0  0  0  0  0  0  0  0  0  0
   -5.9850   15.7300  -34.1940 C   0  0  0  0  0  0  0  0  0  0  0  0
   -6.8720   16.7700  -33.9000 C   0  0  0  0  0  0  0  0  0  0  0  0
   -4.9910   24.6680  -31.4610 N   0  0  0  0  0  0  0  0  0  0  0  0
   -4.1500   24.9670  -30.4800 N   0  0  0  0  0  0  0  0  0  0  0  0
   -1.4730   23.1660  -27.8500 C   0  0  0  0  0  0  0  0  0  0  0  0
   -0.7070   22.0100  -27.6690 C   0  0  0  0  0  0  0  0  0  0  0  0
   -0.3674   19.2977  -26.3199 H   0  0  0  0  0  0  0  0  0  0  0  0
   -1.0300   18.6710  -27.8675 H   0  0  0  0  0  0  0  0  0  0  0  0
    0.4697   19.6596  -27.8675 H   0  0  0  0  0  0  0  0  0  0  0  0
   -3.2241   19.6965  -27.5564 H   0  0  0  0  0  0  0  0  0  0  0  0
   -4.5904   21.7577  -27.8792 H   0  0  0  0  0  0  0  0  0  0  0  0
   -4.4255   24.4384  -27.3365 H   0  0  0  0  0  0  0  0  0  0  0  0
   -3.0271   25.1978  -28.1760 H   0  0  0  0  0  0  0  0  0  0  0  0
   -5.8871   22.6590  -29.0297 H   0  0  0  0  0  0  0  0  0  0  0  0
   -7.8585   23.2847  -31.3481 H   0  0  0  0  0  0  0  0  0  0  0  0
   -6.8330   23.3998  -32.8257 H   0  0  0  0  0  0  0  0  0  0  0  0
   -7.5480   21.0120  -31.5780 H   0  0  0  0  0  0  0  0  0  0  0  0
   -4.3924   21.8054  -30.4089 H   0  0  0  0  0  0  0  0  0  0  0  0
   -2.2433   20.6557  -30.9106 H   0  0  0  0  0  0  0  0  0  0  0  0
   -2.0740   19.1094  -32.8555 H   0  0  0  0  0  0  0  0  0  0  0  0
   -4.0468   18.7252  -34.3226 H   0  0  0  0  0  0  0  0  0  0  0  0
   -6.4578   20.5374  -34.9886 H   0  0  0  0  0  0  0  0  0  0  0  0
   -6.4383   18.7944  -34.5450 H   0  0  0  0  0  0  0  0  0  0  0  0
   -8.5530   19.9040  -34.1210 H   0  0  0  0  0  0  0  0  0  0  0  0
   -5.8539   17.4678  -30.7067 H   0  0  0  0  0  0  0  0  0  0  0  0
   -4.2707   15.6136  -31.2393 H   0  0  0  0  0  0  0  0  0  0  0  0
   -4.3499   14.5012  -33.4731 H   0  0  0  0  0  0  0  0  0  0  0  0
   -6.0228   15.2365  -35.1763 H   0  0  0  0  0  0  0  0  0  0  0  0
   -7.6064   17.0937  -34.6523 H   0  0  0  0  0  0  0  0  0  0  0  0
   -0.9759   24.1423  -27.9489 H   0  0  0  0  0  0  0  0  0  0  0  0
    0.3899   22.0807  -27.6261 H   0  0  0  0  0  0  0  0  0  0  0  0
  1  2  1  0
  2  3  2  0
  3  4  1  0
  4  5  2  0
  5  6  1  0
  6  7  1  0
  7  8  1  0
  8  9  2  0
  9 10  1  0
 10 11  1  0
 11 12  1  0
 12 13  2  0
 13 14  1  0
 14 15  2  0
 15 16  1  0
 16 17  2  0
 17 18  1  0
 18 19  1  0
 19 20  1  0
 20 21  2  0
 20 22  2  0
 20 23  1  0
 23 24  2  0
 24 25  1  0
 25 26  2  0
 26 27  1  0
 27 28  2  0
  9 29  1  0
 29 30  2  0
  5 31  1  0
 31 32  2  0
 32  2  1  0
 30  7  1  0
 17 12  1  0
 28 23  1  0
  1 33  1  0
  1 34  1  0
  1 35  1  0
  3 36  1  0
  4 37  1  0
  6 38  1  0
  6 39  1  0
  8 40  1  0
 10 41  1  0
 10 42  1  0
 11 43  1  0
 13 44  1  0
 14 45  1  0
 15 46  1  0
 16 47  1  0
 18 48  1  0
 18 49  1  0
 19 50  1  0
 24 51  1  0
 25 52  1  0
 26 53  1  0
 27 54  1  0
 28 55  1  0
 31 56  1  0
 32 57  1  0
M  END
>  <UniqueID>  (40) 
38

>  <SMILES>  (40) 
Cc1ccc(Cn2cc(CNc3ccccc3CNS(=O)(=O)c3ccccc3)nn2)cc1

>  <Energy>  (40) 
91.88720130282326

>  <Genealogy>  (40) 
Cc1ccc(Cn2cc(CNc3ccccc3CNS(=O)(=O)c3ccccc3)nn2)cc1 (3D coordinates assigned)
Cc1ccc(Cn2cc(CNc3ccccc3CNS(=O)(=O)c3ccccc3)nn2)cc1 (optimized conformer: 91.88720130282326 kcal/mol)

>  <smiles>  (40) 
Cc1ccc(Cn2cc(CNc3ccccc3CNS(=O)(=O)c3ccccc3)nn2)cc1

>  <score_type>  (40) 
oracle

>  <origin>  (40) 
adgpu

>  <m_score__min__energy>  (40) 
-10.92

>  <m_primary>  (40) 
energy

$$$$
40:0
     RDKit          3D

 55 58  0  0  0  0  0  0  0  0999 V2000
   -4.5200   25.2090  -31.1760 O   0  0  0  0  0  0  0  0  0  0  0  0
   -4.6210   24.0550  -30.6780 C   0  0  0  0  0  0  0  0  0  0  0  0
   -5.5320   23.0630  -31.2940 C   0  0  0  0  0  0  0  0  0  0  0  0
   -6.9190   23.2600  -31.2630 C   0  0  0  0  0  0  0  0  0  0  0  0
   -7.7740   22.3450  -31.8770 C   0  0  0  0  0  0  0  0  0  0  0  0
   -7.2640   21.2240  -32.5380 C   0  0  0  0  0  0  0  0  0  0  0  0
   -8.1710   20.3650  -33.1630 O   0  0  0  0  0  0  0  0  0  0  0  0
   -5.8680   21.0040  -32.5680 C   0  0  0  0  0  0  0  0  0  0  0  0
   -5.1660   19.6060  -33.3970 S   0  0  0  0  0  0  0  0  0  0  0  0
   -5.9790   19.3050  -34.6280 O   0  0  0  0  0  0  0  0  0  0  0  0
   -3.7630   19.9610  -33.8110 O   0  0  0  0  0  0  0  0  0  0  0  0
   -5.1580   18.2130  -32.3240 N   0  0  0  0  0  0  0  0  0  0  0  0
   -6.1460   18.3470  -31.2350 C   0  0  0  0  0  0  0  0  0  0  0  0
   -7.5400   17.8150  -31.6330 C   0  0  0  0  0  0  0  0  0  0  0  0
   -7.6780   17.7500  -33.0370 O   0  0  0  0  0  0  0  0  0  0  0  0
   -6.7930   16.7770  -33.5620 C   0  0  0  0  0  0  0  0  0  0  0  0
   -5.3430   16.9450  -33.0510 C   0  0  0  0  0  0  0  0  0  0  0  0
   -5.0160   21.9360  -31.9530 C   0  0  0  0  0  0  0  0  0  0  0  0
   -3.8230   23.7100  -29.5380 N   0  0  0  0  0  0  0  0  0  0  0  0
   -4.4640   23.3040  -28.2820 C   0  0  0  0  0  0  0  0  0  0  0  0
   -3.7920   22.0440  -27.7200 C   0  0  0  0  0  0  0  0  0  0  0  0
   -2.3470   22.0310  -27.9990 N   0  0  0  0  0  0  0  0  0  0  0  0
   -1.6460   20.7700  -28.0460 C   0  0  0  0  0  0  0  0  0  0  0  0
   -1.8110   19.8270  -27.0160 C   0  0  0  0  0  0  0  0  0  0  0  0
   -1.1820   18.5810  -27.0890 C   0  0  0  0  0  0  0  0  0  0  0  0
   -0.3810   18.2650  -28.1880 C   0  0  0  0  0  0  0  0  0  0  0  0
   -0.2060   19.1940  -29.2180 C   0  0  0  0  0  0  0  0  0  0  0  0
   -0.8380   20.4390  -29.1510 C   0  0  0  0  0  0  0  0  0  0  0  0
   -1.6850   23.2880  -28.3700 C   0  0  0  0  0  0  0  0  0  0  0  0
   -2.3630   23.8740  -29.6100 C   0  0  0  0  0  0  0  0  0  0  0  0
   -7.3355   24.1405  -30.7519 H   0  0  0  0  0  0  0  0  0  0  0  0
   -8.8614   22.5073  -31.8407 H   0  0  0  0  0  0  0  0  0  0  0  0
   -7.9060   19.6830  -33.8590 H   0  0  0  0  0  0  0  0  0  0  0  0
   -5.7882   17.7809  -30.3624 H   0  0  0  0  0  0  0  0  0  0  0  0
   -6.2494   19.4182  -31.0072 H   0  0  0  0  0  0  0  0  0  0  0  0
   -7.6736   16.8076  -31.2119 H   0  0  0  0  0  0  0  0  0  0  0  0
   -8.3021   18.5033  -31.2387 H   0  0  0  0  0  0  0  0  0  0  0  0
   -7.1546   15.7798  -33.2706 H   0  0  0  0  0  0  0  0  0  0  0  0
   -6.7748   16.9023  -34.6547 H   0  0  0  0  0  0  0  0  0  0  0  0
   -5.1055   16.1102  -32.3752 H   0  0  0  0  0  0  0  0  0  0  0  0
   -4.6736   16.9528  -33.9239 H   0  0  0  0  0  0  0  0  0  0  0  0
   -3.9276   21.7804  -31.9883 H   0  0  0  0  0  0  0  0  0  0  0  0
   -4.3745   24.1197  -27.5494 H   0  0  0  0  0  0  0  0  0  0  0  0
   -5.5242   23.0854  -28.4774 H   0  0  0  0  0  0  0  0  0  0  0  0
   -3.9457   22.0127  -26.6312 H   0  0  0  0  0  0  0  0  0  0  0  0
   -4.2443   21.1668  -28.2057 H   0  0  0  0  0  0  0  0  0  0  0  0
   -2.4394   20.0716  -26.1469 H   0  0  0  0  0  0  0  0  0  0  0  0
   -1.3182   17.8485  -26.2797 H   0  0  0  0  0  0  0  0  0  0  0  0
    0.1131   17.2838  -28.2435 H   0  0  0  0  0  0  0  0  0  0  0  0
    0.4290   18.9452  -30.0811 H   0  0  0  0  0  0  0  0  0  0  0  0
   -0.7034   21.1648  -29.9665 H   0  0  0  0  0  0  0  0  0  0  0  0
   -1.7621   24.0028  -27.5375 H   0  0  0  0  0  0  0  0  0  0  0  0
   -0.6247   23.0936  -28.5889 H   0  0  0  0  0  0  0  0  0  0  0  0
   -2.1241   24.9456  -29.6784 H   0  0  0  0  0  0  0  0  0  0  0  0
   -1.9931   23.3400  -30.4977 H   0  0  0  0  0  0  0  0  0  0  0  0
  1  2  2  0
  2  3  1  0
  3  4  2  0
  4  5  1  0
  5  6  2  0
  6  7  1  0
  6  8  1  0
  8  9  1  0
  9 10  2  0
  9 11  2  0
  9 12  1  0
 12 13  1  0
 13 14  1  0
 14 15  1  0
 15 16  1  0
 16 17  1  0
  8 18  2  0
  2 19  1  0
 19 20  1  0
 20 21  1  0
 21 22  1  0
 22 23  1  0
 23 24  2  0
 24 25  1  0
 25 26  2  0
 26 27  1  0
 27 28  2  0
 22 29  1  0
 29 30  1  0
 18  3  1  0
 30 19  1  0
 17 12  1  0
 28 23  1  0
  4 31  1  0
  5 32  1  0
  7 33  1  0
 13 34  1  0
 13 35  1  0
 14 36  1  0
 14 37  1  0
 16 38  1  0
 16 39  1  0
 17 40  1  0
 17 41  1  0
 18 42  1  0
 20 43  1  0
 20 44  1  0
 21 45  1  0
 21 46  1  0
 24 47  1  0
 25 48  1  0
 26 49  1  0
 27 50  1  0
 28 51  1  0
 29 52  1  0
 29 53  1  0
 30 54  1  0
 30 55  1  0
M  END
>  <UniqueID>  (41) 
39

>  <SMILES>  (41) 
O=C(c1ccc(O)c(S(=O)(=O)N2CCOCC2)c1)N1CCN(c2ccccc2)CC1

>  <Energy>  (41) 
77.48732239720678

>  <Genealogy>  (41) 
O=C(c1ccc(O)c(S(=O)(=O)N2CCOCC2)c1)N1CCN(c2ccccc2)CC1 (3D coordinates assigned)
O=C(c1ccc(O)c(S(=O)(=O)N2CCOCC2)c1)N1CCN(c2ccccc2)CC1 (nonaromatic ring conformer: 77.48732239720678 kcal/mol)

>  <smiles>  (41) 
O=C(c1ccc(O)c(S(=O)(=O)N2CCOCC2)c1)N1CCN(c2ccccc2)CC1

>  <score_type>  (41) 
oracle

>  <origin>  (41) 
adgpu

>  <m_score__min__energy>  (41) 
-9.7100000000000009

>  <m_primary>  (41) 
energy

$$$$
41:0
     RDKit          3D

 48 51  0  0  0  0  0  0  0  0999 V2000
   -5.8470   25.5050  -31.2390 O   0  0  0  0  0  0  0  0  0  0  0  0
   -5.1150   24.3810  -30.5590 S   0  0  0  0  0  0  0  0  0  0  0  0
   -5.7310   24.1300  -29.2110 O   0  0  0  0  0  0  0  0  0  0  0  0
   -3.4440   24.8090  -30.3910 N   0  0  0  0  0  0  0  0  0  0  0  0
   -2.5410   24.3380  -29.3800 C   0  0  0  0  0  0  0  0  0  0  0  0
   -2.7040   23.0250  -28.9210 C   0  0  0  0  0  0  0  0  0  0  0  0
   -1.8580   22.4980  -27.9350 C   0  0  0  0  0  0  0  0  0  0  0  0
   -2.0740   20.8410  -27.3710 S   0  0  0  0  0  0  0  0  0  0  0  0
   -3.5360   20.5930  -27.1130 O   0  0  0  0  0  0  0  0  0  0  0  0
   -1.3470   20.6760  -26.0650 O   0  0  0  0  0  0  0  0  0  0  0  0
   -1.4770   19.6550  -28.5140 N   0  0  0  0  0  0  0  0  0  0  0  0
   -0.6040   20.2500  -29.5440 C   0  0  0  0  0  0  0  0  0  0  0  0
    0.8560   20.4370  -29.0660 C   0  0  0  0  0  0  0  0  0  0  0  0
    1.1230   19.8140  -27.8250 O   0  0  0  0  0  0  0  0  0  0  0  0
    0.6470   18.4890  -27.8470 C   0  0  0  0  0  0  0  0  0  0  0  0
   -0.8900   18.4700  -27.8550 C   0  0  0  0  0  0  0  0  0  0  0  0
   -0.8400   23.2970  -27.4020 C   0  0  0  0  0  0  0  0  0  0  0  0
   -0.6540   24.5990  -27.8670 C   0  0  0  0  0  0  0  0  0  0  0  0
   -1.4870   25.1230  -28.8610 C   0  0  0  0  0  0  0  0  0  0  0  0
   -1.2320   26.4030  -29.3340 O   0  0  0  0  0  0  0  0  0  0  0  0
   -5.2280   22.8960  -31.5190 C   0  0  0  0  0  0  0  0  0  0  0  0
   -4.0550   22.3800  -32.0930 C   0  0  0  0  0  0  0  0  0  0  0  0
   -4.0830   21.2100  -32.8500 C   0  0  0  0  0  0  0  0  0  0  0  0
   -5.2830   20.5310  -33.0490 C   0  0  0  0  0  0  0  0  0  0  0  0
   -6.4720   21.0190  -32.4920 C   0  0  0  0  0  0  0  0  0  0  0  0
   -7.6750   20.3270  -32.6990 C   0  0  0  0  0  0  0  0  0  0  0  0
   -8.8650   20.8060  -32.1500 C   0  0  0  0  0  0  0  0  0  0  0  0
   -8.8660   21.9770  -31.3930 C   0  0  0  0  0  0  0  0  0  0  0  0
   -7.6760   22.6780  -31.1780 C   0  0  0  0  0  0  0  0  0  0  0  0
   -6.4580   22.2130  -31.7190 C   0  0  0  0  0  0  0  0  0  0  0  0
   -3.5060   22.3992  -29.3394 H   0  0  0  0  0  0  0  0  0  0  0  0
   -0.6026   19.5915  -30.4251 H   0  0  0  0  0  0  0  0  0  0  0  0
   -1.0038   21.2479  -29.7772 H   0  0  0  0  0  0  0  0  0  0  0  0
    1.5288   20.0086  -29.8235 H   0  0  0  0  0  0  0  0  0  0  0  0
    1.0182   21.5164  -28.9299 H   0  0  0  0  0  0  0  0  0  0  0  0
    1.0201   17.9851  -28.7508 H   0  0  0  0  0  0  0  0  0  0  0  0
    1.0049   17.9671  -26.9473 H   0  0  0  0  0  0  0  0  0  0  0  0
   -1.2270   17.5690  -28.3885 H   0  0  0  0  0  0  0  0  0  0  0  0
   -1.2253   18.4754  -26.8074 H   0  0  0  0  0  0  0  0  0  0  0  0
   -0.1847   22.8972  -26.6142 H   0  0  0  0  0  0  0  0  0  0  0  0
    0.1535   25.2180  -27.4490 H   0  0  0  0  0  0  0  0  0  0  0  0
   -3.1008   22.9064  -31.9432 H   0  0  0  0  0  0  0  0  0  0  0  0
   -3.1538   20.8212  -33.2921 H   0  0  0  0  0  0  0  0  0  0  0  0
   -5.2969   19.6074  -33.6463 H   0  0  0  0  0  0  0  0  0  0  0  0
   -7.6800   19.4034  -33.2964 H   0  0  0  0  0  0  0  0  0  0  0  0
   -9.8047   20.2585  -32.3148 H   0  0  0  0  0  0  0  0  0  0  0  0
   -9.8071   22.3506  -30.9633 H   0  0  0  0  0  0  0  0  0  0  0  0
   -7.6888   23.6018  -30.5809 H   0  0  0  0  0  0  0  0  0  0  0  0
  1  2  2  0
  2  3  2  0
  2  4  1  0
  4  5  1  0
  5  6  2  0
  6  7  1  0
  7  8  1  0
  8  9  2  0
  8 10  2  0
  8 11  1  0
 11 12  1  0
 12 13  1  0
 13 14  1  0
 14 15  1  0
 15 16  1  0
  7 17  2  0
 17 18  1  0
 18 19  2  0
 19 20  1  0
  2 21  1  0
 21 22  2  0
 22 23  1  0
 23 24  2  0
 24 25  1  0
 25 26  2  0
 26 27  1  0
 27 28  2  0
 28 29  1  0
 29 30  2  0
 19  5  1  0
 30 21  1  0
 16 11  1  0
 30 25  1  0
  6 31  1  0
 12 32  1  0
 12 33  1  0
 13 34  1  0
 13 35  1  0
 15 36  1  0
 15 37  1  0
 16 38  1  0
 16 39  1  0
 17 40  1  0
 18 41  1  0
 22 42  1  0
 23 43  1  0
 24 44  1  0
 26 45  1  0
 27 46  1  0
 28 47  1  0
 29 48  1  0
M  CHG  2   4  -1  20  -1
M  END
>  <UniqueID>  (42) 
40

>  <SMILES>  (42) 
O=S(=O)([N-]c1cc(S(=O)(=O)N2CCOCC2)ccc1[O-])c1cccc2ccccc12

>  <Energy>  (42) 
75.52505276707774

>  <Genealogy>  (42) 
O=S(=O)([N-]c1cc(S(=O)(=O)N2CCOCC2)ccc1[O-])c1cccc2ccccc12 (protonated)
O=S(=O)([N-]c1cc(S(=O)(=O)N2CCOCC2)ccc1[O-])c1cccc2ccccc12 (3D coordinates assigned)
O=S(=O)([N-]c1cc(S(=O)(=O)N2CCOCC2)ccc1[O-])c1cccc2ccccc12 (nonaromatic ring conformer: 75.52505276707774 kcal/mol)

>  <smiles>  (42) 
O=S(=O)(Nc1cc(S(=O)(=O)N2CCOCC2)ccc1O)c1cccc2ccccc12

>  <score_type>  (42) 
oracle

>  <origin>  (42) 
adgpu

>  <m_score__min__energy>  (42) 
-14.630000000000001

>  <m_primary>  (42) 
energy

$$$$
42:0
     RDKit          3D

 60 64  0  0  0  0  0  0  0  0999 V2000
   -6.0670   25.4940  -30.7080 C   0  0  0  0  0  0  0  0  0  0  0  0
   -6.2620   24.0540  -31.0470 C   0  0  0  0  0  0  0  0  0  0  0  0
   -7.4380   23.4900  -31.1990 O   0  0  0  0  0  0  0  0  0  0  0  0
   -7.2510   22.2260  -31.5030 C   0  0  0  0  0  0  0  0  0  0  0  0
   -8.5520   21.0960  -31.8220 S   0  0  0  0  0  0  0  0  0  0  0  0
   -8.8600   20.3530  -30.5510 O   0  0  0  0  0  0  0  0  0  0  0  0
   -9.7770   21.8680  -32.2280 O   0  0  0  0  0  0  0  0  0  0  0  0
   -8.0930   19.9510  -33.0690 N   0  0  0  0  0  0  0  0  0  0  0  0
   -8.2930   18.5540  -32.6310 C   0  0  0  0  0  0  0  0  0  0  0  0
   -7.2410   18.1150  -31.5840 C   0  0  0  0  0  0  0  0  0  0  0  0
   -6.0770   18.9240  -31.5710 O   0  0  0  0  0  0  0  0  0  0  0  0
   -5.6840   19.2390  -32.8900 C   0  0  0  0  0  0  0  0  0  0  0  0
   -6.7070   20.1900  -33.5420 C   0  0  0  0  0  0  0  0  0  0  0  0
   -5.9040   21.9320  -31.5560 C   0  0  0  0  0  0  0  0  0  0  0  0
   -5.2640   23.1130  -31.2440 C   0  0  0  0  0  0  0  0  0  0  0  0
   -3.7860   23.3430  -31.2300 C   0  0  0  0  0  0  0  0  0  0  0  0
   -3.4810   24.4640  -30.3520 N   0  0  0  0  0  0  0  0  0  0  0  0
   -2.4640   24.4700  -29.3420 C   0  0  0  0  0  0  0  0  0  0  0  0
   -1.9910   25.5750  -28.9680 O   0  0  0  0  0  0  0  0  0  0  0  0
   -1.9930   23.2330  -28.6860 C   0  0  0  0  0  0  0  0  0  0  0  0
   -1.9740   23.1200  -27.2690 C   0  0  0  0  0  0  0  0  0  0  0  0
   -1.5200   21.9410  -26.6490 C   0  0  0  0  0  0  0  0  0  0  0  0
   -1.1120   20.8940  -27.4690 C   0  0  0  0  0  0  0  0  0  0  0  0
   -0.6500   19.6870  -27.1000 N   0  0  0  0  0  0  0  0  0  0  0  0
   -0.4250   19.0950  -28.3040 C   0  0  0  0  0  0  0  0  0  0  0  0
    0.0930   17.7000  -28.4440 C   0  0  0  0  0  0  0  0  0  0  0  0
    1.4780   17.6030  -27.8660 C   0  0  0  0  0  0  0  0  0  0  0  0
    1.8430   16.4950  -27.0850 C   0  0  0  0  0  0  0  0  0  0  0  0
    3.1220   16.4190  -26.5230 C   0  0  0  0  0  0  0  0  0  0  0  0
    4.0410   17.4520  -26.7310 C   0  0  0  0  0  0  0  0  0  0  0  0
    3.6800   18.5640  -27.4970 C   0  0  0  0  0  0  0  0  0  0  0  0
    2.4020   18.6450  -28.0580 C   0  0  0  0  0  0  0  0  0  0  0  0
   -0.7290   19.8640  -29.3370 O   0  0  0  0  0  0  0  0  0  0  0  0
   -1.1550   20.9870  -28.8260 C   0  0  0  0  0  0  0  0  0  0  0  0
   -1.5940   22.1340  -29.4800 C   0  0  0  0  0  0  0  0  0  0  0  0
   -6.0507   25.6144  -29.6147 H   0  0  0  0  0  0  0  0  0  0  0  0
   -5.1133   25.8441  -31.1297 H   0  0  0  0  0  0  0  0  0  0  0  0
   -6.8933   26.0851  -31.1297 H   0  0  0  0  0  0  0  0  0  0  0  0
   -8.7440   20.1230  -33.8720 H   0  0  0  0  0  0  0  0  0  0  0  0
   -9.2951   18.4617  -32.1869 H   0  0  0  0  0  0  0  0  0  0  0  0
   -8.1851   17.9044  -33.5121 H   0  0  0  0  0  0  0  0  0  0  0  0
   -7.7045   18.1575  -30.5873 H   0  0  0  0  0  0  0  0  0  0  0  0
   -6.9222   17.0979  -31.8560 H   0  0  0  0  0  0  0  0  0  0  0  0
   -4.6983   19.7267  -32.8680 H   0  0  0  0  0  0  0  0  0  0  0  0
   -5.6331   18.3112  -33.4787 H   0  0  0  0  0  0  0  0  0  0  0  0
   -6.4270   21.2263  -33.3020 H   0  0  0  0  0  0  0  0  0  0  0  0
   -6.6892   20.0047  -34.6261 H   0  0  0  0  0  0  0  0  0  0  0  0
   -5.4403   20.9637  -31.7956 H   0  0  0  0  0  0  0  0  0  0  0  0
   -3.2771   22.4396  -30.8626 H   0  0  0  0  0  0  0  0  0  0  0  0
   -3.4388   23.5685  -32.2491 H   0  0  0  0  0  0  0  0  0  0  0  0
   -2.3176   23.9626  -26.6510 H   0  0  0  0  0  0  0  0  0  0  0  0
   -1.4888   21.8505  -25.5532 H   0  0  0  0  0  0  0  0  0  0  0  0
   -0.5741   17.0086  -27.9083 H   0  0  0  0  0  0  0  0  0  0  0  0
    0.1285   17.4343  -29.5108 H   0  0  0  0  0  0  0  0  0  0  0  0
    1.1205   15.6833  -26.9142 H   0  0  0  0  0  0  0  0  0  0  0  0
    3.4048   15.5457  -25.9169 H   0  0  0  0  0  0  0  0  0  0  0  0
    5.0477   17.3896  -26.2920 H   0  0  0  0  0  0  0  0  0  0  0  0
    4.4030   19.3771  -27.6588 H   0  0  0  0  0  0  0  0  0  0  0  0
    2.1186   19.5268  -28.6515 H   0  0  0  0  0  0  0  0  0  0  0  0
   -1.6293   22.1837  -30.5783 H   0  0  0  0  0  0  0  0  0  0  0  0
  1  2  1  0
  2  3  1  0
  3  4  1  0
  4  5  1  0
  5  6  2  0
  5  7  2  0
  5  8  1  0
  8  9  1  0
  9 10  1  0
 10 11  1  0
 11 12  1  0
 12 13  1  0
  4 14  2  0
 14 15  1  0
 15 16  1  0
 16 17  1  0
 17 18  1  0
 18 19  2  0
 18 20  1  0
 20 21  2  0
 21 22  1  0
 22 23  2  0
 23 24  1  0
 24 25  2  0
 25 26  1  0
 26 27  1  0
 27 28  2  0
 28 29  1  0
 29 30  2  0
 30 31  1  0
 31 32  2  0
 25 33  1  0
 33 34  1  0
 34 35  2  0
 15  2  2  0
 35 20  1  0
 13  8  1  0
 34 23  1  0
 32 27  1  0
  1 36  1  0
  1 37  1  0
  1 38  1  0
  8 39  1  0
  9 40  1  0
  9 41  1  0
 10 42  1  0
 10 43  1  0
 12 44  1  0
 12 45  1  0
 13 46  1  0
 13 47  1  0
 14 48  1  0
 16 49  1  0
 16 50  1  0
 21 51  1  0
 22 52  1  0
 26 53  1  0
 26 54  1  0
 28 55  1  0
 29 56  1  0
 30 57  1  0
 31 58  1  0
 32 59  1  0
 35 60  1  0
M  CHG  2   8   1  17  -1
M  END
>  <UniqueID>  (43) 
41

>  <SMILES>  (43) 
Cc1oc(S(=O)(=O)[NH+]2CCOCC2)cc1C[N-]C(=O)c1ccc2nc(Cc3ccccc3)oc2c1

>  <Energy>  (43) 
138.61179189425286

>  <Genealogy>  (43) 
Cc1oc(S(=O)(=O)[NH+]2CCOCC2)cc1C[N-]C(=O)c1ccc2nc(Cc3ccccc3)oc2c1 (protonated)
Cc1oc(S(=O)(=O)[NH+]2CCOCC2)cc1C[N-]C(=O)c1ccc2nc(Cc3ccccc3)oc2c1 (3D coordinates assigned)
Cc1oc(S(=O)(=O)[NH+]2CCOCC2)cc1C[N-]C(=O)c1ccc2nc(Cc3ccccc3)oc2c1 (nonaromatic ring conformer: 138.61179189425286 kcal/mol)

>  <smiles>  (43) 
Cc1oc(S(=O)(=O)N2CCOCC2)cc1CNC(=O)c1ccc2nc(Cc3ccccc3)oc2c1

>  <score_type>  (43) 
oracle

>  <origin>  (43) 
adgpu

>  <m_score__min__energy>  (43) 
-12.02

>  <m_primary>  (43) 
energy

$$$$
43:0
     RDKit          3D

 62 65  0  0  0  0  0  0  0  0999 V2000
    0.2700   18.3510  -30.4680 C   0  0  0  0  0  0  0  0  0  0  0  0
   -0.8540   19.2430  -30.9010 C   0  0  0  0  0  0  0  0  0  0  0  0
   -1.5900   18.8740  -31.8580 O   0  0  0  0  0  0  0  0  0  0  0  0
   -1.1450   20.5220  -30.2130 C   0  0  0  0  0  0  0  0  0  0  0  0
   -0.9320   20.5870  -28.8270 C   0  0  0  0  0  0  0  0  0  0  0  0
   -1.1720   21.7660  -28.1170 C   0  0  0  0  0  0  0  0  0  0  0  0
   -0.8780   21.7580  -26.2270 Br  0  0  0  0  0  0  0  0  0  0  0  0
   -1.6440   22.9050  -28.7880 C   0  0  0  0  0  0  0  0  0  0  0  0
   -1.9550   24.1100  -28.0710 N   0  0  0  0  0  0  0  0  0  0  0  0
   -3.3280   24.3530  -27.6160 C   0  0  0  0  0  0  0  0  0  0  0  0
   -4.2950   24.0090  -28.7150 C   0  0  0  0  0  0  0  0  0  0  0  0
   -4.5010   24.9070  -29.7750 C   0  0  0  0  0  0  0  0  0  0  0  0
   -5.2510   24.5240  -30.8880 C   0  0  0  0  0  0  0  0  0  0  0  0
   -5.7730   23.2280  -30.9720 C   0  0  0  0  0  0  0  0  0  0  0  0
   -6.4290   22.8330  -32.1440 O   0  0  0  0  0  0  0  0  0  0  0  0
   -7.1140   21.6150  -32.3030 C   0  0  0  0  0  0  0  0  0  0  0  0
   -8.4910   21.5770  -31.9940 C   0  0  0  0  0  0  0  0  0  0  0  0
   -9.2320   20.4100  -32.1990 C   0  0  0  0  0  0  0  0  0  0  0  0
   -8.6100   19.2650  -32.7080 C   0  0  0  0  0  0  0  0  0  0  0  0
   -7.2330   19.2790  -33.0070 C   0  0  0  0  0  0  0  0  0  0  0  0
   -6.5650   18.0350  -33.5180 C   0  0  0  0  0  0  0  0  0  0  0  0
   -6.4880   20.4510  -32.7970 C   0  0  0  0  0  0  0  0  0  0  0  0
   -5.6300   22.3510  -29.8870 C   0  0  0  0  0  0  0  0  0  0  0  0
   -4.8930   22.7400  -28.7640 C   0  0  0  0  0  0  0  0  0  0  0  0
   -0.7540   25.3600  -27.9440 S   0  0  0  0  0  0  0  0  0  0  0  0
    0.6060   24.7880  -28.2180 O   0  0  0  0  0  0  0  0  0  0  0  0
   -1.0370   26.4270  -28.9610 O   0  0  0  0  0  0  0  0  0  0  0  0
   -0.7610   26.0500  -26.3240 C   0  0  0  0  0  0  0  0  0  0  0  0
   -0.8290   27.4390  -26.1440 C   0  0  0  0  0  0  0  0  0  0  0  0
   -0.8700   27.9840  -24.8570 C   0  0  0  0  0  0  0  0  0  0  0  0
   -0.8480   27.1450  -23.7450 C   0  0  0  0  0  0  0  0  0  0  0  0
   -0.7770   25.7610  -23.9170 C   0  0  0  0  0  0  0  0  0  0  0  0
   -0.7290   25.2150  -25.2030 C   0  0  0  0  0  0  0  0  0  0  0  0
   -1.8730   22.8480  -30.1690 C   0  0  0  0  0  0  0  0  0  0  0  0
   -1.6430   21.6640  -30.8910 C   0  0  0  0  0  0  0  0  0  0  0  0
   -1.9470   21.6470  -32.3670 C   0  0  0  0  0  0  0  0  0  0  0  0
    0.3103   18.3190  -29.3692 H   0  0  0  0  0  0  0  0  0  0  0  0
    0.1040   17.3361  -30.8585 H   0  0  0  0  0  0  0  0  0  0  0  0
    1.2206   18.7432  -30.8585 H   0  0  0  0  0  0  0  0  0  0  0  0
   -0.5707   19.6963  -28.2920 H   0  0  0  0  0  0  0  0  0  0  0  0
   -3.5375   23.7275  -26.7357 H   0  0  0  0  0  0  0  0  0  0  0  0
   -3.4411   25.4145  -27.3506 H   0  0  0  0  0  0  0  0  0  0  0  0
   -4.0690   25.9175  -29.7278 H   0  0  0  0  0  0  0  0  0  0  0  0
   -5.4323   25.2423  -31.7011 H   0  0  0  0  0  0  0  0  0  0  0  0
   -8.9844   22.4728  -31.5888 H   0  0  0  0  0  0  0  0  0  0  0  0
  -10.3055   20.3917  -31.9599 H   0  0  0  0  0  0  0  0  0  0  0  0
   -9.1979   18.3505  -32.8754 H   0  0  0  0  0  0  0  0  0  0  0  0
   -6.2349   17.4203  -32.6676 H   0  0  0  0  0  0  0  0  0  0  0  0
   -7.2766   17.4618  -34.1304 H   0  0  0  0  0  0  0  0  0  0  0  0
   -5.6941   18.3116  -34.1304 H   0  0  0  0  0  0  0  0  0  0  0  0
   -5.4107   20.4615  -33.0189 H   0  0  0  0  0  0  0  0  0  0  0  0
   -6.0981   21.3561  -29.9194 H   0  0  0  0  0  0  0  0  0  0  0  0
   -4.7814   22.0488  -27.9156 H   0  0  0  0  0  0  0  0  0  0  0  0
   -0.8502   28.1036  -27.0203 H   0  0  0  0  0  0  0  0  0  0  0  0
   -0.9196   29.0746  -24.7226 H   0  0  0  0  0  0  0  0  0  0  0  0
   -0.8865   27.5725  -22.7322 H   0  0  0  0  0  0  0  0  0  0  0  0
   -0.7588   25.0990  -23.0387 H   0  0  0  0  0  0  0  0  0  0  0  0
   -0.6658   24.1246  -25.3334 H   0  0  0  0  0  0  0  0  0  0  0  0
   -2.2378   23.7422  -30.6956 H   0  0  0  0  0  0  0  0  0  0  0  0
   -3.0351   21.5862  -32.5166 H   0  0  0  0  0  0  0  0  0  0  0  0
   -1.5640   22.5680  -32.8309 H   0  0  0  0  0  0  0  0  0  0  0  0
   -1.4638   20.7745  -32.8309 H   0  0  0  0  0  0  0  0  0  0  0  0
  1  2  1  0
  2  3  2  0
  2  4  1  0
  4  5  2  0
  5  6  1  0
  6  7  1  0
  6  8  2  0
  8  9  1  0
  9 10  1  0
 10 11  1  0
 11 12  2  0
 12 13  1  0
 13 14  2  0
 14 15  1  0
 15 16  1  0
 16 17  2  0
 17 18  1  0
 18 19  2  0
 19 20  1  0
 20 21  1  0
 20 22  2  0
 14 23  1  0
 23 24  2  0
  9 25  1  0
 25 26  2  0
 25 27  2  0
 25 28  1  0
 28 29  2  0
 29 30  1  0
 30 31  2  0
 31 32  1  0
 32 33  2  0
  8 34  1  0
 34 35  2  0
 35 36  1  0
 35  4  1  0
 24 11  1  0
 33 28  1  0
 22 16  1  0
  1 37  1  0
  1 38  1  0
  1 39  1  0
  5 40  1  0
 10 41  1  0
 10 42  1  0
 12 43  1  0
 13 44  1  0
 17 45  1  0
 18 46  1  0
 19 47  1  0
 21 48  1  0
 21 49  1  0
 21 50  1  0
 22 51  1  0
 23 52  1  0
 24 53  1  0
 29 54  1  0
 30 55  1  0
 31 56  1  0
 32 57  1  0
 33 58  1  0
 34 59  1  0
 36 60  1  0
 36 61  1  0
 36 62  1  0
M  END
>  <UniqueID>  (44) 
42

>  <SMILES>  (44) 
CC(=O)c1cc(Br)c(N(Cc2ccc(Oc3cccc(C)c3)cc2)S(=O)(=O)c2ccccc2)cc1C

>  <Energy>  (44) 
81.90525631682068

>  <Genealogy>  (44) 
CC(=O)c1cc(Br)c(N(Cc2ccc(Oc3cccc(C)c3)cc2)S(=O)(=O)c2ccccc2)cc1C (3D coordinates assigned)
CC(=O)c1cc(Br)c(N(Cc2ccc(Oc3cccc(C)c3)cc2)S(=O)(=O)c2ccccc2)cc1C (optimized conformer: 81.90525631682068 kcal/mol)

>  <smiles>  (44) 
CC(=O)c1cc(Br)c(N(Cc2ccc(Oc3cccc(C)c3)cc2)S(=O)(=O)c2ccccc2)cc1C

>  <score_type>  (44) 
oracle

>  <origin>  (44) 
adgpu

>  <m_score__min__energy>  (44) 
-10.869999999999999

>  <m_primary>  (44) 
energy

$$$$
44:0
     RDKit          3D

 52 55  0  0  0  0  0  0  0  0999 V2000
   -1.8020   25.6810  -28.9670 N   0  0  0  0  0  0  0  0  0  0  0  0
   -1.0720   24.5120  -28.5930 C   0  0  0  0  0  0  0  0  0  0  0  0
    0.1820   24.5840  -28.4870 O   0  0  0  0  0  0  0  0  0  0  0  0
   -1.7760   23.2320  -28.3160 C   0  0  0  0  0  0  0  0  0  0  0  0
   -3.1920   23.1820  -28.2110 C   0  0  0  0  0  0  0  0  0  0  0  0
   -3.9680   24.3740  -28.3860 N   0  0  0  0  0  0  0  0  0  0  0  0
   -4.8250   24.7400  -29.8470 S   0  0  0  0  0  0  0  0  0  0  0  0
   -3.8560   25.2990  -30.8540 O   0  0  0  0  0  0  0  0  0  0  0  0
   -5.8580   25.7910  -29.5560 O   0  0  0  0  0  0  0  0  0  0  0  0
   -5.6300   23.3160  -30.4990 C   0  0  0  0  0  0  0  0  0  0  0  0
   -4.8920   22.3210  -31.1550 C   0  0  0  0  0  0  0  0  0  0  0  0
   -5.5350   21.1910  -31.6680 C   0  0  0  0  0  0  0  0  0  0  0  0
   -6.9230   21.0520  -31.5420 C   0  0  0  0  0  0  0  0  0  0  0  0
   -7.7320   19.6390  -32.2110 S   0  0  0  0  0  0  0  0  0  0  0  0
   -8.7300   19.1320  -31.2060 O   0  0  0  0  0  0  0  0  0  0  0  0
   -8.4480   20.0190  -33.4770 O   0  0  0  0  0  0  0  0  0  0  0  0
   -6.5540   18.3920  -32.5570 N   0  0  0  0  0  0  0  0  0  0  0  0
   -5.5530   18.8620  -33.5430 C   0  0  0  0  0  0  0  0  0  0  0  0
   -5.8050   18.2810  -34.9470 C   0  0  0  0  0  0  0  0  0  0  0  0
   -5.8060   16.8580  -34.9780 O   0  0  0  0  0  0  0  0  0  0  0  0
   -6.2790   16.2560  -33.7780 C   0  0  0  0  0  0  0  0  0  0  0  0
   -7.2370   17.1510  -32.9720 C   0  0  0  0  0  0  0  0  0  0  0  0
   -7.6600   22.0410  -30.8770 C   0  0  0  0  0  0  0  0  0  0  0  0
   -7.0150   23.1690  -30.3570 C   0  0  0  0  0  0  0  0  0  0  0  0
   -3.8390   21.9590  -27.9290 C   0  0  0  0  0  0  0  0  0  0  0  0
   -3.1000   20.7840  -27.7670 C   0  0  0  0  0  0  0  0  0  0  0  0
   -1.7140   20.8380  -27.8890 C   0  0  0  0  0  0  0  0  0  0  0  0
   -1.0630   22.0200  -28.1650 C   0  0  0  0  0  0  0  0  0  0  0  0
    0.4090   21.8120  -28.2280 C   0  0  0  0  0  0  0  0  0  0  0  0
    0.6090   20.3370  -27.8260 C   0  0  0  0  0  0  0  0  0  0  0  0
   -0.7860   19.6960  -27.7220 C   0  0  0  0  0  0  0  0  0  0  0  0
   -2.7830   25.6130  -29.3250 H   0  0  0  0  0  0  0  0  0  0  0  0
   -3.8031   22.4299  -31.2664 H   0  0  0  0  0  0  0  0  0  0  0  0
   -4.9491   20.4084  -32.1723 H   0  0  0  0  0  0  0  0  0  0  0  0
   -5.5994   19.9595  -33.5998 H   0  0  0  0  0  0  0  0  0  0  0  0
   -4.5622   18.5210  -33.2083 H   0  0  0  0  0  0  0  0  0  0  0  0
   -6.7830   18.6382  -35.3018 H   0  0  0  0  0  0  0  0  0  0  0  0
   -4.9801   18.6193  -35.5913 H   0  0  0  0  0  0  0  0  0  0  0  0
   -6.8087   15.3283  -34.0404 H   0  0  0  0  0  0  0  0  0  0  0  0
   -5.4000   16.0724  -33.1426 H   0  0  0  0  0  0  0  0  0  0  0  0
   -8.1058   17.4067  -33.5963 H   0  0  0  0  0  0  0  0  0  0  0  0
   -7.5643   16.6062  -32.0742 H   0  0  0  0  0  0  0  0  0  0  0  0
   -8.7485   21.9305  -30.7633 H   0  0  0  0  0  0  0  0  0  0  0  0
   -7.5979   23.9423  -29.8352 H   0  0  0  0  0  0  0  0  0  0  0  0
   -4.9347   21.9309  -27.8360 H   0  0  0  0  0  0  0  0  0  0  0  0
   -3.6050   19.8320  -27.5467 H   0  0  0  0  0  0  0  0  0  0  0  0
    0.7836   21.9915  -29.2466 H   0  0  0  0  0  0  0  0  0  0  0  0
    0.9571   22.5025  -27.5701 H   0  0  0  0  0  0  0  0  0  0  0  0
    1.2060   19.8167  -28.5895 H   0  0  0  0  0  0  0  0  0  0  0  0
    1.1426   20.2645  -26.8668 H   0  0  0  0  0  0  0  0  0  0  0  0
   -0.9349   18.9508  -28.5173 H   0  0  0  0  0  0  0  0  0  0  0  0
   -0.9379   19.1602  -26.7734 H   0  0  0  0  0  0  0  0  0  0  0  0
  1  2  1  0
  2  3  2  0
  2  4  1  0
  4  5  2  0
  5  6  1  0
  6  7  1  0
  7  8  2  0
  7  9  2  0
  7 10  1  0
 10 11  2  0
 11 12  1  0
 12 13  2  0
 13 14  1  0
 14 15  2  0
 14 16  2  0
 14 17  1  0
 17 18  1  0
 18 19  1  0
 19 20  1  0
 20 21  1  0
 21 22  1  0
 13 23  1  0
 23 24  2  0
  5 25  1  0
 25 26  2  0
 26 27  1  0
 27 28  2  0
 28 29  1  0
 29 30  1  0
 30 31  1  0
 28  4  1  0
 24 10  1  0
 31 27  1  0
 22 17  1  0
  1 32  1  0
 11 33  1  0
 12 34  1  0
 18 35  1  0
 18 36  1  0
 19 37  1  0
 19 38  1  0
 21 39  1  0
 21 40  1  0
 22 41  1  0
 22 42  1  0
 23 43  1  0
 24 44  1  0
 25 45  1  0
 26 46  1  0
 29 47  1  0
 29 48  1  0
 30 49  1  0
 30 50  1  0
 31 51  1  0
 31 52  1  0
M  CHG  2   1  -1   6  -1
M  END
>  <UniqueID>  (45) 
43

>  <SMILES>  (45) 
[NH-]C(=O)c1c([N-]S(=O)(=O)c2ccc(S(=O)(=O)N3CCOCC3)cc2)ccc2c1CCC2

>  <Energy>  (45) 
86.22718811918075

>  <Genealogy>  (45) 
[NH-]C(=O)c1c([N-]S(=O)(=O)c2ccc(S(=O)(=O)N3CCOCC3)cc2)ccc2c1CCC2 (protonated)
[NH-]C(=O)c1c([N-]S(=O)(=O)c2ccc(S(=O)(=O)N3CCOCC3)cc2)ccc2c1CCC2 (3D coordinates assigned)
[NH-]C(=O)c1c([N-]S(=O)(=O)c2ccc(S(=O)(=O)N3CCOCC3)cc2)ccc2c1CCC2 (nonaromatic ring conformer: 86.22718811918075 kcal/mol)

>  <smiles>  (45) 
NC(=O)c1c(NS(=O)(=O)c2ccc(S(=O)(=O)N3CCOCC3)cc2)ccc2c1CCC2

>  <score_type>  (45) 
oracle

>  <origin>  (45) 
adgpu

>  <m_score__min__energy>  (45) 
-14.130000000000001

>  <m_primary>  (45) 
energy

$$$$
45:0
     RDKit          3D

 55 58  0  0  0  0  0  0  0  0999 V2000
   -5.7450   26.3300  -31.1740 O   0  0  0  0  0  0  0  0  0  0  0  0
   -5.3070   25.0980  -30.4210 S   0  0  0  0  0  0  0  0  0  0  0  0
   -5.7370   25.2330  -28.9780 O   0  0  0  0  0  0  0  0  0  0  0  0
   -3.5680   24.9870  -30.4870 N   0  0  0  0  0  0  0  0  0  0  0  0
   -2.7570   24.1710  -29.6310 C   0  0  0  0  0  0  0  0  0  0  0  0
   -3.1300   22.8620  -29.3000 C   0  0  0  0  0  0  0  0  0  0  0  0
   -2.3110   22.0650  -28.4850 C   0  0  0  0  0  0  0  0  0  0  0  0
   -1.1030   22.6000  -27.9750 C   0  0  0  0  0  0  0  0  0  0  0  0
   -0.7730   23.9360  -28.2500 C   0  0  0  0  0  0  0  0  0  0  0  0
   -1.5920   24.7160  -29.0730 C   0  0  0  0  0  0  0  0  0  0  0  0
   -1.2400   26.0350  -29.3410 O   0  0  0  0  0  0  0  0  0  0  0  0
   -0.2210   21.8100  -27.0380 C   0  0  0  0  0  0  0  0  0  0  0  0
   -0.4940   20.2990  -27.0910 C   0  0  0  0  0  0  0  0  0  0  0  0
   -1.9990   20.0230  -27.0350 C   0  0  0  0  0  0  0  0  0  0  0  0
   -2.6900   20.6200  -28.2600 C   0  0  0  0  0  0  0  0  0  0  0  0
   -6.1020   23.6970  -31.1440 C   0  0  0  0  0  0  0  0  0  0  0  0
   -7.4820   23.7150  -31.3690 C   0  0  0  0  0  0  0  0  0  0  0  0
   -8.1080   22.6160  -31.9620 C   0  0  0  0  0  0  0  0  0  0  0  0
   -7.3640   21.4990  -32.3650 C   0  0  0  0  0  0  0  0  0  0  0  0
   -8.0510   20.4170  -32.9240 O   0  0  0  0  0  0  0  0  0  0  0  0
   -5.9610   21.4930  -32.1860 C   0  0  0  0  0  0  0  0  0  0  0  0
   -4.9540   20.1650  -32.7830 S   0  0  0  0  0  0  0  0  0  0  0  0
   -5.5330   19.6310  -34.0670 O   0  0  0  0  0  0  0  0  0  0  0  0
   -4.9410   19.0730  -31.7470 O   0  0  0  0  0  0  0  0  0  0  0  0
   -3.3210   20.7250  -33.0790 N   0  0  0  0  0  0  0  0  0  0  0  0
   -2.5970   19.7590  -33.9230 C   0  0  0  0  0  0  0  0  0  0  0  0
   -1.2490   20.3500  -34.3820 C   0  0  0  0  0  0  0  0  0  0  0  0
   -0.7620   21.4810  -33.4600 C   0  0  0  0  0  0  0  0  0  0  0  0
   -1.0980   21.1750  -31.9980 C   0  0  0  0  0  0  0  0  0  0  0  0
   -2.6130   20.9290  -31.7990 C   0  0  0  0  0  0  0  0  0  0  0  0
   -5.3500   22.5810  -31.5400 C   0  0  0  0  0  0  0  0  0  0  0  0
   -4.0766   22.4535  -29.6836 H   0  0  0  0  0  0  0  0  0  0  0  0
    0.1375   24.3735  -27.8146 H   0  0  0  0  0  0  0  0  0  0  0  0
    0.8295   21.9866  -27.3124 H   0  0  0  0  0  0  0  0  0  0  0  0
   -0.4396   22.1491  -26.0146 H   0  0  0  0  0  0  0  0  0  0  0  0
   -0.0857   19.8901  -28.0270 H   0  0  0  0  0  0  0  0  0  0  0  0
   -0.0124   19.8202  -26.2257 H   0  0  0  0  0  0  0  0  0  0  0  0
   -2.1688   18.9364  -27.0154 H   0  0  0  0  0  0  0  0  0  0  0  0
   -2.4153   20.4842  -26.1273 H   0  0  0  0  0  0  0  0  0  0  0  0
   -2.4029   20.0367  -29.1473 H   0  0  0  0  0  0  0  0  0  0  0  0
   -3.7755   20.5800  -28.0868 H   0  0  0  0  0  0  0  0  0  0  0  0
   -8.0749   24.5950  -31.0789 H   0  0  0  0  0  0  0  0  0  0  0  0
   -9.1973   22.6275  -32.1143 H   0  0  0  0  0  0  0  0  0  0  0  0
   -7.6810   19.8610  -33.6880 H   0  0  0  0  0  0  0  0  0  0  0  0
   -2.4124   18.8408  -33.3461 H   0  0  0  0  0  0  0  0  0  0  0  0
   -3.2074   19.5324  -34.8096 H   0  0  0  0  0  0  0  0  0  0  0  0
   -0.4952   19.5489  -34.3873 H   0  0  0  0  0  0  0  0  0  0  0  0
   -1.3926   20.7739  -35.3868 H   0  0  0  0  0  0  0  0  0  0  0  0
    0.3278   21.5873  -33.5647 H   0  0  0  0  0  0  0  0  0  0  0  0
   -1.2679   22.4138  -33.7497 H   0  0  0  0  0  0  0  0  0  0  0  0
   -0.5467   20.2757  -31.6861 H   0  0  0  0  0  0  0  0  0  0  0  0
   -0.8088   22.0449  -31.3900 H   0  0  0  0  0  0  0  0  0  0  0  0
   -2.7468   20.0336  -31.1742 H   0  0  0  0  0  0  0  0  0  0  0  0
   -3.0384   21.8221  -31.3179 H   0  0  0  0  0  0  0  0  0  0  0  0
   -4.2682   22.5573  -31.3423 H   0  0  0  0  0  0  0  0  0  0  0  0
  1  2  2  0
  2  3  2  0
  2  4  1  0
  4  5  1  0
  5  6  2  0
  6  7  1  0
  7  8  2  0
  8  9  1  0
  9 10  2  0
 10 11  1  0
  8 12  1  0
 12 13  1  0
 13 14  1  0
 14 15  1  0
  2 16  1  0
 16 17  2  0
 17 18  1  0
 18 19  2  0
 19 20  1  0
 19 21  1  0
 21 22  1  0
 22 23  2  0
 22 24  2  0
 22 25  1  0
 25 26  1  0
 26 27  1  0
 27 28  1  0
 28 29  1  0
 29 30  1  0
 21 31  2  0
 10  5  1  0
 31 16  1  0
 15  7  1  0
 30 25  1  0
  6 32  1  0
  9 33  1  0
 12 34  1  0
 12 35  1  0
 13 36  1  0
 13 37  1  0
 14 38  1  0
 14 39  1  0
 15 40  1  0
 15 41  1  0
 17 42  1  0
 18 43  1  0
 20 44  1  0
 26 45  1  0
 26 46  1  0
 27 47  1  0
 27 48  1  0
 28 49  1  0
 28 50  1  0
 29 51  1  0
 29 52  1  0
 30 53  1  0
 30 54  1  0
 31 55  1  0
M  CHG  2   4  -1  11  -1
M  END
>  <UniqueID>  (46) 
44

>  <SMILES>  (46) 
O=S(=O)([N-]c1cc2c(cc1[O-])CCCC2)c1ccc(O)c(S(=O)(=O)N2CCCCC2)c1

>  <Energy>  (46) 
67.4350007697194

>  <Genealogy>  (46) 
O=S(=O)([N-]c1cc2c(cc1[O-])CCCC2)c1ccc(O)c(S(=O)(=O)N2CCCCC2)c1 (protonated)
O=S(=O)([N-]c1cc2c(cc1[O-])CCCC2)c1ccc(O)c(S(=O)(=O)N2CCCCC2)c1 (3D coordinates assigned)
O=S(=O)([N-]c1cc2c(cc1[O-])CCCC2)c1ccc(O)c(S(=O)(=O)N2CCCCC2)c1 (nonaromatic ring conformer: 67.4350007697194 kcal/mol)

>  <smiles>  (46) 
O=S(=O)(Nc1cc2c(cc1O)CCCC2)c1ccc(O)c(S(=O)(=O)N2CCCCC2)c1

>  <score_type>  (46) 
oracle

>  <origin>  (46) 
adgpu

>  <m_score__min__energy>  (46) 
-14.65

>  <m_primary>  (46) 
energy

$$$$
46:0
     RDKit          3D

 46 48  0  0  0  0  0  0  0  0999 V2000
   -6.3860   19.2960  -33.2670 C   0  0  0  0  0  0  0  0  0  0  0  0
   -6.1130   20.7250  -32.8710 C   0  0  0  0  0  0  0  0  0  0  0  0
   -7.2130   21.5720  -32.6850 C   0  0  0  0  0  0  0  0  0  0  0  0
   -7.0340   22.8950  -32.3050 C   0  0  0  0  0  0  0  0  0  0  0  0
   -5.7600   23.3910  -32.0430 C   0  0  0  0  0  0  0  0  0  0  0  0
   -5.6470   24.7470  -31.5840 N   0  0  0  0  0  0  0  0  0  0  0  0
   -4.9950   25.1990  -30.3880 C   0  0  0  0  0  0  0  0  0  0  0  0
   -5.6960   25.6610  -29.4530 O   0  0  0  0  0  0  0  0  0  0  0  0
   -3.5710   25.1500  -30.2260 N   0  0  0  0  0  0  0  0  0  0  0  0
   -2.8540   24.6160  -29.1030 C   0  0  0  0  0  0  0  0  0  0  0  0
   -3.3230   23.4970  -28.3940 C   0  0  0  0  0  0  0  0  0  0  0  0
   -2.5940   22.9930  -27.3120 C   0  0  0  0  0  0  0  0  0  0  0  0
   -1.4100   23.6160  -26.9150 C   0  0  0  0  0  0  0  0  0  0  0  0
   -0.9600   24.7550  -27.5870 C   0  0  0  0  0  0  0  0  0  0  0  0
   -1.6850   25.2610  -28.6730 C   0  0  0  0  0  0  0  0  0  0  0  0
   -1.2320   26.4010  -29.3280 O   0  0  0  0  0  0  0  0  0  0  0  0
   -4.6280   22.5730  -32.2510 C   0  0  0  0  0  0  0  0  0  0  0  0
   -3.3710   23.1110  -31.9720 O   0  0  0  0  0  0  0  0  0  0  0  0
   -4.7950   21.2410  -32.7320 C   0  0  0  0  0  0  0  0  0  0  0  0
   -3.4000   20.2430  -33.2370 S   0  0  0  0  0  0  0  0  0  0  0  0
   -3.9160   19.0840  -34.0420 O   0  0  0  0  0  0  0  0  0  0  0  0
   -2.4660   21.0100  -34.1310 O   0  0  0  0  0  0  0  0  0  0  0  0
   -2.5580   19.6310  -31.8270 N   0  0  0  0  0  0  0  0  0  0  0  0
   -2.6580   20.5360  -30.6640 C   0  0  0  0  0  0  0  0  0  0  0  0
   -1.4240   21.4430  -30.5040 C   0  0  0  0  0  0  0  0  0  0  0  0
   -0.8330   21.6960  -31.7570 O   0  0  0  0  0  0  0  0  0  0  0  0
   -0.2470   20.5120  -32.2650 C   0  0  0  0  0  0  0  0  0  0  0  0
   -1.1630   19.2700  -32.1380 C   0  0  0  0  0  0  0  0  0  0  0  0
   -6.5035   18.6810  -32.3626 H   0  0  0  0  0  0  0  0  0  0  0  0
   -7.3090   19.2508  -33.8636 H   0  0  0  0  0  0  0  0  0  0  0  0
   -5.5446   18.9137  -33.8636 H   0  0  0  0  0  0  0  0  0  0  0  0
   -8.2304   21.1843  -32.8419 H   0  0  0  0  0  0  0  0  0  0  0  0
   -7.9069   23.5576  -32.2100 H   0  0  0  0  0  0  0  0  0  0  0  0
   -4.2666   23.0159  -28.6910 H   0  0  0  0  0  0  0  0  0  0  0  0
   -2.9544   22.1043  -26.7732 H   0  0  0  0  0  0  0  0  0  0  0  0
   -0.8308   23.2100  -26.0725 H   0  0  0  0  0  0  0  0  0  0  0  0
   -0.0353   25.2549  -27.2628 H   0  0  0  0  0  0  0  0  0  0  0  0
   -3.2260   24.0350  -31.5960 H   0  0  0  0  0  0  0  0  0  0  0  0
   -3.5471   21.1715  -30.7890 H   0  0  0  0  0  0  0  0  0  0  0  0
   -2.7268   19.9094  -29.7625 H   0  0  0  0  0  0  0  0  0  0  0  0
   -1.7317   22.3963  -30.0496 H   0  0  0  0  0  0  0  0  0  0  0  0
   -0.6904   20.9359  -29.8601 H   0  0  0  0  0  0  0  0  0  0  0  0
   -0.0144   20.6666  -33.3290 H   0  0  0  0  0  0  0  0  0  0  0  0
    0.6548   20.3133  -31.6673 H   0  0  0  0  0  0  0  0  0  0  0  0
   -1.1444   18.7184  -33.0895 H   0  0  0  0  0  0  0  0  0  0  0  0
   -0.7824   18.6555  -31.3088 H   0  0  0  0  0  0  0  0  0  0  0  0
  1  2  1  0
  2  3  2  0
  3  4  1  0
  4  5  2  0
  5  6  1  0
  6  7  1  0
  7  8  2  0
  7  9  1  0
  9 10  1  0
 10 11  2  0
 11 12  1  0
 12 13  2  0
 13 14  1  0
 14 15  2  0
 15 16  1  0
  5 17  1  0
 17 18  1  0
 17 19  2  0
 19 20  1  0
 20 21  2  0
 20 22  2  0
 20 23  1  0
 23 24  1  0
 24 25  1  0
 25 26  1  0
 26 27  1  0
 27 28  1  0
 19  2  1  0
 28 23  1  0
 15 10  1  0
  1 29  1  0
  1 30  1  0
  1 31  1  0
  3 32  1  0
  4 33  1  0
 11 34  1  0
 12 35  1  0
 13 36  1  0
 14 37  1  0
 18 38  1  0
 24 39  1  0
 24 40  1  0
 25 41  1  0
 25 42  1  0
 27 43  1  0
 27 44  1  0
 28 45  1  0
 28 46  1  0
M  CHG  3   6  -1   9  -1  16  -1
M  END
>  <UniqueID>  (47) 
45

>  <SMILES>  (47) 
Cc1ccc([N-]C(=O)[N-]c2ccccc2[O-])c(O)c1S(=O)(=O)N1CCOCC1

>  <Energy>  (47) 
73.29448624309293

>  <Genealogy>  (47) 
Cc1ccc([N-]C(=O)[N-]c2ccccc2[O-])c(O)c1S(=O)(=O)N1CCOCC1 (protonated)
Cc1ccc([N-]C(=O)[N-]c2ccccc2[O-])c(O)c1S(=O)(=O)N1CCOCC1 (3D coordinates assigned)
Cc1ccc([N-]C(=O)[N-]c2ccccc2[O-])c(O)c1S(=O)(=O)N1CCOCC1 (nonaromatic ring conformer: 73.29448624309293 kcal/mol)

>  <smiles>  (47) 
Cc1ccc(NC(=O)Nc2ccccc2O)c(O)c1S(=O)(=O)N1CCOCC1

>  <score_type>  (47) 
oracle

>  <origin>  (47) 
adgpu

>  <m_score__min__energy>  (47) 
-14.81

>  <m_primary>  (47) 
energy

$$$$
47:0
     RDKit          3D

 51 54  0  0  0  0  0  0  0  0999 V2000
   -5.6770   25.4190  -28.9090 O   0  0  0  0  0  0  0  0  0  0  0  0
   -5.3380   25.1560  -30.3500 S   0  0  0  0  0  0  0  0  0  0  0  0
   -5.7380   26.3550  -31.1620 O   0  0  0  0  0  0  0  0  0  0  0  0
   -3.6340   24.8720  -30.4810 N   0  0  0  0  0  0  0  0  0  0  0  0
   -2.9080   24.1300  -29.4980 C   0  0  0  0  0  0  0  0  0  0  0  0
   -3.2750   22.8070  -29.2330 C   0  0  0  0  0  0  0  0  0  0  0  0
   -2.5790   22.0450  -28.2810 C   0  0  0  0  0  0  0  0  0  0  0  0
   -1.5240   22.6410  -27.5490 C   0  0  0  0  0  0  0  0  0  0  0  0
   -1.1600   23.9680  -27.8220 C   0  0  0  0  0  0  0  0  0  0  0  0
   -1.8520   24.7140  -28.7790 C   0  0  0  0  0  0  0  0  0  0  0  0
   -1.4980   26.0400  -28.9930 O   0  0  0  0  0  0  0  0  0  0  0  0
   -0.7160   21.8530  -26.5470 C   0  0  0  0  0  0  0  0  0  0  0  0
   -1.4790   20.6330  -26.0200 C   0  0  0  0  0  0  0  0  0  0  0  0
   -2.0370   19.8190  -27.1860 C   0  0  0  0  0  0  0  0  0  0  0  0
   -3.0550   20.6410  -27.9830 C   0  0  0  0  0  0  0  0  0  0  0  0
   -6.2020   23.7250  -30.9040 C   0  0  0  0  0  0  0  0  0  0  0  0
   -5.9180   23.1820  -32.1650 C   0  0  0  0  0  0  0  0  0  0  0  0
   -6.5300   21.9930  -32.5750 C   0  0  0  0  0  0  0  0  0  0  0  0
   -7.4300   21.3340  -31.7260 C   0  0  0  0  0  0  0  0  0  0  0  0
   -8.1370   19.7920  -32.2060 S   0  0  0  0  0  0  0  0  0  0  0  0
   -9.0860   20.0170  -33.3510 O   0  0  0  0  0  0  0  0  0  0  0  0
   -8.9240   19.2300  -31.0540 O   0  0  0  0  0  0  0  0  0  0  0  0
   -6.9110   18.6350  -32.6850 N   0  0  0  0  0  0  0  0  0  0  0  0
   -6.1790   19.0950  -33.8720 C   0  0  0  0  0  0  0  0  0  0  0  0
   -4.8310   19.6480  -33.4290 C   0  0  0  0  0  0  0  0  0  0  0  0
   -4.7170   19.3430  -31.9490 C   0  0  0  0  0  0  0  0  0  0  0  0
   -5.9100   18.4570  -31.6280 C   0  0  0  0  0  0  0  0  0  0  0  0
   -7.7340   21.8920  -30.4740 C   0  0  0  0  0  0  0  0  0  0  0  0
   -7.1190   23.0780  -30.0640 C   0  0  0  0  0  0  0  0  0  0  0  0
   -4.1191   22.3579  -29.7769 H   0  0  0  0  0  0  0  0  0  0  0  0
   -0.3212   24.4257  -27.2770 H   0  0  0  0  0  0  0  0  0  0  0  0
    0.2106   21.5098  -27.0304 H   0  0  0  0  0  0  0  0  0  0  0  0
   -0.5013   22.5121  -25.6929 H   0  0  0  0  0  0  0  0  0  0  0  0
   -0.7961   20.0035  -25.4307 H   0  0  0  0  0  0  0  0  0  0  0  0
   -2.3121   20.9747  -25.3882 H   0  0  0  0  0  0  0  0  0  0  0  0
   -1.2104   19.5261  -27.8500 H   0  0  0  0  0  0  0  0  0  0  0  0
   -2.5397   18.9264  -26.7853 H   0  0  0  0  0  0  0  0  0  0  0  0
   -3.2505   20.1277  -28.9361 H   0  0  0  0  0  0  0  0  0  0  0  0
   -3.9629   20.7256  -27.3677 H   0  0  0  0  0  0  0  0  0  0  0  0
   -5.2109   23.6932  -32.8348 H   0  0  0  0  0  0  0  0  0  0  0  0
   -6.3044   21.5738  -33.5666 H   0  0  0  0  0  0  0  0  0  0  0  0
   -6.0249   18.2521  -34.5618 H   0  0  0  0  0  0  0  0  0  0  0  0
   -6.7545   19.8777  -34.3879 H   0  0  0  0  0  0  0  0  0  0  0  0
   -4.0168   19.1585  -33.9834 H   0  0  0  0  0  0  0  0  0  0  0  0
   -4.7564   20.7281  -33.6235 H   0  0  0  0  0  0  0  0  0  0  0  0
   -3.7762   18.8142  -31.7361 H   0  0  0  0  0  0  0  0  0  0  0  0
   -4.7120   20.2597  -31.3409 H   0  0  0  0  0  0  0  0  0  0  0  0
   -5.5924   17.4045  -31.5894 H   0  0  0  0  0  0  0  0  0  0  0  0
   -6.3356   18.7320  -30.6517 H   0  0  0  0  0  0  0  0  0  0  0  0
   -8.4589   21.3938  -29.8134 H   0  0  0  0  0  0  0  0  0  0  0  0
   -7.3554   23.5055  -29.0784 H   0  0  0  0  0  0  0  0  0  0  0  0
  1  2  2  0
  2  3  2  0
  2  4  1  0
  4  5  1  0
  5  6  2  0
  6  7  1  0
  7  8  2  0
  8  9  1  0
  9 10  2  0
 10 11  1  0
  8 12  1  0
 12 13  1  0
 13 14  1  0
 14 15  1  0
  2 16  1  0
 16 17  2  0
 17 18  1  0
 18 19  2  0
 19 20  1  0
 20 21  2  0
 20 22  2  0
 20 23  1  0
 23 24  1  0
 24 25  1  0
 25 26  1  0
 26 27  1  0
 19 28  1  0
 28 29  2  0
 10  5  1  0
 29 16  1  0
 15  7  1  0
 27 23  1  0
  6 30  1  0
  9 31  1  0
 12 32  1  0
 12 33  1  0
 13 34  1  0
 13 35  1  0
 14 36  1  0
 14 37  1  0
 15 38  1  0
 15 39  1  0
 17 40  1  0
 18 41  1  0
 24 42  1  0
 24 43  1  0
 25 44  1  0
 25 45  1  0
 26 46  1  0
 26 47  1  0
 27 48  1  0
 27 49  1  0
 28 50  1  0
 29 51  1  0
M  CHG  2   4  -1  11  -1
M  END
>  <UniqueID>  (48) 
46

>  <SMILES>  (48) 
O=S(=O)([N-]c1cc2c(cc1[O-])CCCC2)c1ccc(S(=O)(=O)N2CCCC2)cc1

>  <Energy>  (48) 
58.34229889200725

>  <Genealogy>  (48) 
O=S(=O)([N-]c1cc2c(cc1[O-])CCCC2)c1ccc(S(=O)(=O)N2CCCC2)cc1 (protonated)
O=S(=O)([N-]c1cc2c(cc1[O-])CCCC2)c1ccc(S(=O)(=O)N2CCCC2)cc1 (3D coordinates assigned)
O=S(=O)([N-]c1cc2c(cc1[O-])CCCC2)c1ccc(S(=O)(=O)N2CCCC2)cc1 (nonaromatic ring conformer: 58.34229889200725 kcal/mol)

>  <smiles>  (48) 
O=S(=O)(Nc1cc2c(cc1O)CCCC2)c1ccc(S(=O)(=O)N2CCCC2)cc1

>  <score_type>  (48) 
oracle

>  <origin>  (48) 
adgpu

>  <m_score__min__energy>  (48) 
-15.57

>  <m_primary>  (48) 
energy

$$$$
48:0
     RDKit          3D

 46 48  0  0  0  0  0  0  0  0999 V2000
   -3.9080   15.1260  -33.9580 C   0  0  0  0  0  0  0  0  0  0  0  0
   -4.9360   16.1980  -33.7450 C   0  0  0  0  0  0  0  0  0  0  0  0
   -5.1370   17.1850  -34.7200 C   0  0  0  0  0  0  0  0  0  0  0  0
   -6.0700   18.2050  -34.5090 C   0  0  0  0  0  0  0  0  0  0  0  0
   -6.8260   18.2420  -33.3210 C   0  0  0  0  0  0  0  0  0  0  0  0
   -7.8050   19.2710  -33.0930 N   0  0  0  0  0  0  0  0  0  0  0  0
   -7.5430   20.4850  -32.3660 C   0  0  0  0  0  0  0  0  0  0  0  0
   -8.5040   20.9880  -31.4790 C   0  0  0  0  0  0  0  0  0  0  0  0
   -8.2590   22.1660  -30.7660 C   0  0  0  0  0  0  0  0  0  0  0  0
   -7.0500   22.8500  -30.9270 C   0  0  0  0  0  0  0  0  0  0  0  0
   -6.8210   23.9760  -30.2060 F   0  0  0  0  0  0  0  0  0  0  0  0
   -6.0760   22.3620  -31.8140 C   0  0  0  0  0  0  0  0  0  0  0  0
   -4.8220   23.0520  -31.9640 N   0  0  0  0  0  0  0  0  0  0  0  0
   -3.8370   23.1050  -30.9170 C   0  0  0  0  0  0  0  0  0  0  0  0
   -3.2660   21.9140  -30.4360 C   0  0  0  0  0  0  0  0  0  0  0  0
   -2.2700   21.9500  -29.4600 C   0  0  0  0  0  0  0  0  0  0  0  0
   -1.8410   23.1730  -28.9360 C   0  0  0  0  0  0  0  0  0  0  0  0
   -0.5350   23.2010  -27.7560 S   0  0  0  0  0  0  0  0  0  0  0  0
    0.1610   21.5680  -27.6220 C   0  0  0  0  0  0  0  0  0  0  0  0
    0.5390   24.1600  -28.1860 O   0  0  0  0  0  0  0  0  0  0  0  0
   -1.0730   23.6330  -26.4210 O   0  0  0  0  0  0  0  0  0  0  0  0
   -2.4280   24.3640  -29.3880 C   0  0  0  0  0  0  0  0  0  0  0  0
   -3.4210   24.3390  -30.3760 C   0  0  0  0  0  0  0  0  0  0  0  0
   -3.9510   25.5510  -30.8190 O   0  0  0  0  0  0  0  0  0  0  0  0
   -6.3510   21.2040  -32.5610 C   0  0  0  0  0  0  0  0  0  0  0  0
   -6.5870   17.2810  -32.3300 C   0  0  0  0  0  0  0  0  0  0  0  0
   -5.6490   16.2650  -32.5390 C   0  0  0  0  0  0  0  0  0  0  0  0
   -3.5549   14.7578  -32.9835 H   0  0  0  0  0  0  0  0  0  0  0  0
   -4.3560   14.2955  -34.5233 H   0  0  0  0  0  0  0  0  0  0  0  0
   -3.0595   15.5388  -34.5233 H   0  0  0  0  0  0  0  0  0  0  0  0
   -4.5583   17.1570  -35.6551 H   0  0  0  0  0  0  0  0  0  0  0  0
   -6.2142   18.9820  -35.2742 H   0  0  0  0  0  0  0  0  0  0  0  0
   -8.7580   19.1420  -33.5050 H   0  0  0  0  0  0  0  0  0  0  0  0
   -9.4558   20.4537  -31.3428 H   0  0  0  0  0  0  0  0  0  0  0  0
   -9.0210   22.5563  -30.0753 H   0  0  0  0  0  0  0  0  0  0  0  0
   -4.6310   23.5700  -32.8500 H   0  0  0  0  0  0  0  0  0  0  0  0
   -3.6072   20.9462  -30.8322 H   0  0  0  0  0  0  0  0  0  0  0  0
   -1.8204   21.0124  -29.1013 H   0  0  0  0  0  0  0  0  0  0  0  0
    0.2737   21.3035  -26.5603 H   0  0  0  0  0  0  0  0  0  0  0  0
   -0.5066   20.8436  -28.1115 H   0  0  0  0  0  0  0  0  0  0  0  0
    1.1459   21.5479  -28.1115 H   0  0  0  0  0  0  0  0  0  0  0  0
   -2.1059   25.3261  -28.9630 H   0  0  0  0  0  0  0  0  0  0  0  0
   -4.2510   25.7020  -31.7740 H   0  0  0  0  0  0  0  0  0  0  0  0
   -5.6234   20.8554  -33.3087 H   0  0  0  0  0  0  0  0  0  0  0  0
   -7.1411   17.3259  -31.3808 H   0  0  0  0  0  0  0  0  0  0  0  0
   -5.4696   15.5153  -31.7543 H   0  0  0  0  0  0  0  0  0  0  0  0
  1  2  1  0
  2  3  2  0
  3  4  1  0
  4  5  2  0
  5  6  1  0
  6  7  1  0
  7  8  2  0
  8  9  1  0
  9 10  2  0
 10 11  1  0
 10 12  1  0
 12 13  1  0
 13 14  1  0
 14 15  2  0
 15 16  1  0
 16 17  2  0
 17 18  1  0
 18 19  1  0
 18 20  2  0
 18 21  2  0
 17 22  1  0
 22 23  2  0
 23 24  1  0
 12 25  2  0
  5 26  1  0
 26 27  2  0
 27  2  1  0
 25  7  1  0
 23 14  1  0
  1 28  1  0
  1 29  1  0
  1 30  1  0
  3 31  1  0
  4 32  1  0
  6 33  1  0
  8 34  1  0
  9 35  1  0
 13 36  1  0
 15 37  1  0
 16 38  1  0
 19 39  1  0
 19 40  1  0
 19 41  1  0
 22 42  1  0
 24 43  1  0
 25 44  1  0
 26 45  1  0
 27 46  1  0
M  END
>  <UniqueID>  (49) 
47

>  <SMILES>  (49) 
Cc1ccc(Nc2ccc(F)c(Nc3ccc(S(C)(=O)=O)cc3O)c2)cc1

>  <Energy>  (49) 
55.03560372258746

>  <Genealogy>  (49) 
Cc1ccc(Nc2ccc(F)c(Nc3ccc(S(C)(=O)=O)cc3O)c2)cc1 (3D coordinates assigned)
Cc1ccc(Nc2ccc(F)c(Nc3ccc(S(C)(=O)=O)cc3O)c2)cc1 (optimized conformer: 55.03560372258746 kcal/mol)

>  <smiles>  (49) 
Cc1ccc(Nc2ccc(F)c(Nc3ccc(S(C)(=O)=O)cc3O)c2)cc1

>  <score_type>  (49) 
oracle

>  <origin>  (49) 
adgpu

>  <m_score__min__energy>  (49) 
-9.8800000000000008

>  <m_primary>  (49) 
energy

$$$$
