0:0
     RDKit          3D

 36 38  0  0  1  0  0  0  0  0999 V2000
   -0.3750   24.8230  -28.1160 O   0  0  0  0  0  0  0  0  0  0  0  0
   -1.4270   24.1860  -28.4570 C   0  0  0  0  0  0  0  0  0  0  0  0
   -2.2360   24.7350  -29.3850 N   0  0  0  0  0  0  0  0  0  0  0  0
   -3.3540   24.0850  -29.7650 C   0  0  0  0  0  0  0  0  0  0  0  0
   -4.1510   24.5780  -30.6490 N   0  0  0  0  0  0  0  0  0  0  0  0
   -5.3460   23.9390  -31.0900 C   0  0  0  0  0  0  0  0  0  0  0  0
   -6.6070   24.3800  -30.7330 C   0  0  0  0  0  0  0  0  0  0  0  0
   -7.7560   23.7400  -31.1740 C   0  0  0  0  0  0  0  0  0  0  0  0
   -7.6240   22.6270  -31.9980 C   0  0  0  0  0  0  0  0  0  0  0  0
   -6.3670   22.1630  -32.3730 C   0  0  0  0  0  0  0  0  0  0  0  0
   -5.2330   22.8310  -31.9100 C   0  0  0  0  0  0  0  0  0  0  0  0
   -3.6670   22.8550  -29.2010 C   0  0  0  0  0  0  0  0  0  0  0  0
   -2.7870   22.3530  -28.2520 C   0  0  0  0  0  0  0  0  0  0  0  0
   -1.6780   23.0010  -27.8780 N   0  0  0  0  0  0  0  0  0  0  0  0
   -0.8290   22.3920  -26.8820 C   0  0  0  0  0  0  0  0  0  0  0  0
   -0.7360   20.9210  -27.0840 C   0  0  0  0  0  0  0  0  0  0  0  0
   -1.6640   20.0450  -26.5350 C   0  0  0  0  0  0  0  0  0  0  0  0
   -1.5740   18.6850  -26.7250 C   0  0  0  0  0  0  0  0  0  0  0  0
   -0.5170   18.2140  -27.4890 C   0  0  0  0  0  0  0  0  0  0  0  0
    0.4210   19.0490  -28.0520 C   0  0  0  0  0  0  0  0  0  0  0  0
    0.3140   20.4200  -27.8480 C   0  0  0  0  0  0  0  0  0  0  0  0
   -2.0070   25.6740  -29.8230 H   0  0  0  0  0  0  0  0  0  0  0  0
   -6.7015   25.2617  -30.0821 H   0  0  0  0  0  0  0  0  0  0  0  0
   -8.7507   24.1049  -30.8783 H   0  0  0  0  0  0  0  0  0  0  0  0
   -8.5244   22.1074  -32.3575 H   0  0  0  0  0  0  0  0  0  0  0  0
   -6.2688   21.2825  -33.0249 H   0  0  0  0  0  0  0  0  0  0  0  0
   -4.2351   22.4714  -32.2012 H   0  0  0  0  0  0  0  0  0  0  0  0
   -4.5724   22.3029  -29.4934 H   0  0  0  0  0  0  0  0  0  0  0  0
   -3.0111   21.3812  -27.7879 H   0  0  0  0  0  0  0  0  0  0  0  0
    0.1781   22.8287  -26.9529 H   0  0  0  0  0  0  0  0  0  0  0  0
   -1.2637   22.5814  -25.8895 H   0  0  0  0  0  0  0  0  0  0  0  0
   -2.4916   20.4487  -25.9332 H   0  0  0  0  0  0  0  0  0  0  0  0
   -2.3127   17.9975  -26.2873 H   0  0  0  0  0  0  0  0  0  0  0  0
   -0.4246   17.1300  -27.6515 H   0  0  0  0  0  0  0  0  0  0  0  0
    1.2438   18.6374  -28.6549 H   0  0  0  0  0  0  0  0  0  0  0  0
    1.0544   21.1045  -28.2876 H   0  0  0  0  0  0  0  0  0  0  0  0
  1  2  2  0
  2  3  1  0
  3  4  1  0
  4  5  2  0
  5  6  1  0
  6  7  2  0
  7  8  1  0
  8  9  2  0
  9 10  1  0
 10 11  2  0
  4 12  1  0
 12 13  2  0
 13 14  1  0
 14 15  1  0
 15 16  1  0
 16 17  2  0
 17 18  1  0
 18 19  2  0
 19 20  1  0
 20 21  2  0
 14  2  1  0
 21 16  1  0
 11  6  1  0
  3 22  1  0
  7 23  1  0
  8 24  1  0
  9 25  1  0
 10 26  1  0
 11 27  1  0
 12 28  1  0
 13 29  1  0
 15 30  1  0
 15 31  1  0
 17 32  1  0
 18 33  1  0
 19 34  1  0
 20 35  1  0
 21 36  1  0
M  END
>  <smiles>  (1) 
O=c1[nH]c(=Nc2ccccc2)ccn1Cc1ccccc1

>  <score_type>  (1) 
oracle

>  <origin>  (1) 
adgpu

>  <m_score__min__energy>  (1) 
-8.1500000000000004

>  <m_primary>  (1) 
energy

$$$$
1:0
     RDKit          3D

 24 25  0  0  0  0  0  0  0  0999 V2000
   -4.2610   17.1910  -35.7170 F   0  0  0  0  0  0  0  0  0  0  0  0
   -5.0620   17.4120  -34.6450 C   0  0  0  0  0  0  0  0  0  0  0  0
   -5.1480   16.4550  -33.6300 C   0  0  0  0  0  0  0  0  0  0  0  0
   -5.9870   16.6740  -32.5340 C   0  0  0  0  0  0  0  0  0  0  0  0
   -6.7350   17.8530  -32.4490 C   0  0  0  0  0  0  0  0  0  0  0  0
   -6.6380   18.8300  -33.4500 C   0  0  0  0  0  0  0  0  0  0  0  0
   -7.4370   20.0220  -33.3560 N   0  0  0  0  0  0  0  0  0  0  0  0
   -7.0560   21.2000  -32.6260 C   0  0  0  0  0  0  0  0  0  0  0  0
   -8.0120   21.9980  -31.9720 C   0  0  0  0  0  0  0  0  0  0  0  0
   -7.6210   23.1550  -31.2920 C   0  0  0  0  0  0  0  0  0  0  0  0
   -6.2760   23.5370  -31.2730 C   0  0  0  0  0  0  0  0  0  0  0  0
   -5.7870   24.9900  -30.4210 Cl  0  0  0  0  0  0  0  0  0  0  0  0
   -5.3220   22.7620  -31.9410 C   0  0  0  0  0  0  0  0  0  0  0  0
   -5.7120   21.6040  -32.6210 C   0  0  0  0  0  0  0  0  0  0  0  0
   -5.8080   18.5910  -34.5620 C   0  0  0  0  0  0  0  0  0  0  0  0
   -4.5558   15.5302  -33.6938 H   0  0  0  0  0  0  0  0  0  0  0  0
   -6.0592   15.9187  -31.7376 H   0  0  0  0  0  0  0  0  0  0  0  0
   -7.4039   18.0148  -31.5909 H   0  0  0  0  0  0  0  0  0  0  0  0
   -8.3580   20.0310  -33.8510 H   0  0  0  0  0  0  0  0  0  0  0  0
   -9.0733   21.7099  -31.9958 H   0  0  0  0  0  0  0  0  0  0  0  0
   -8.3727   23.7661  -30.7709 H   0  0  0  0  0  0  0  0  0  0  0  0
   -4.2642   23.0637  -31.9314 H   0  0  0  0  0  0  0  0  0  0  0  0
   -4.9599   21.0054  -33.1559 H   0  0  0  0  0  0  0  0  0  0  0  0
   -5.7464   19.3357  -35.3692 H   0  0  0  0  0  0  0  0  0  0  0  0
  1  2  1  0
  2  3  2  0
  3  4  1  0
  4  5  2  0
  5  6  1  0
  6  7  1  0
  7  8  1  0
  8  9  2  0
  9 10  1  0
 10 11  2  0
 11 12  1  0
 11 13  1  0
 13 14  2  0
  6 15  2  0
 15  2  1  0
 14  8  1  0
  3 16  1  0
  4 17  1  0
  5 18  1  0
  7 19  1  0
  9 20  1  0
 10 21  1  0
 13 22  1  0
 14 23  1  0
 15 24  1  0
M  END
>  <UniqueID>  (2) 
1

>  <SMILES>  (2) 
Fc1cccc(Nc2ccc(Cl)cc2)c1

>  <Energy>  (2) 
30.06408720143621

>  <Genealogy>  (2) 
Fc1cccc(Nc2ccc(Cl)cc2)c1 (3D coordinates assigned)
Fc1cccc(Nc2ccc(Cl)cc2)c1 (optimized conformer: 30.06408720143621 kcal/mol)

>  <smiles>  (2) 
Fc1cccc(Nc2ccc(Cl)cc2)c1

>  <score_type>  (2) 
oracle

>  <origin>  (2) 
adgpu

>  <m_score__min__energy>  (2) 
-6.46

>  <m_primary>  (2) 
energy

$$$$
2:0
     RDKit          3D

 13 13  0  0  0  0  0  0  0  0999 V2000
   -8.0600   22.5850  -31.6040 C   0  0  0  0  0  0  0  0  0  0  0  0
   -9.4880   21.5150  -31.9600 S   0  0  0  0  0  0  0  0  0  0  0  0
   -8.4740   20.0710  -32.2640 C   0  0  0  0  0  0  0  0  0  0  0  0
   -7.3470   20.0280  -33.0690 C   0  0  0  0  0  0  0  0  0  0  0  0
   -6.7560   18.7600  -33.1120 C   0  0  0  0  0  0  0  0  0  0  0  0
   -7.4160   17.8120  -32.3400 C   0  0  0  0  0  0  0  0  0  0  0  0
   -8.7380   18.5500  -31.6040 S   0  0  0  0  0  0  0  0  0  0  0  0
   -7.9346   22.6789  -30.5152 H   0  0  0  0  0  0  0  0  0  0  0  0
   -7.1525   22.1427  -32.0408 H   0  0  0  0  0  0  0  0  0  0  0  0
   -8.2296   23.5802  -32.0408 H   0  0  0  0  0  0  0  0  0  0  0  0
   -6.9577   20.8989  -33.6167 H   0  0  0  0  0  0  0  0  0  0  0  0
   -5.8546   18.5354  -33.7011 H   0  0  0  0  0  0  0  0  0  0  0  0
   -7.1240   16.7573  -32.2285 H   0  0  0  0  0  0  0  0  0  0  0  0
  1  2  1  0
  2  3  1  0
  3  4  2  0
  4  5  1  0
  5  6  2  0
  6  7  1  0
  7  3  1  0
  1  8  1  0
  1  9  1  0
  1 10  1  0
  4 11  1  0
  5 12  1  0
  6 13  1  0
M  END
>  <UniqueID>  (3) 
2

>  <SMILES>  (3) 
CSc1cccs1

>  <Energy>  (3) 
33.29233510397793

>  <Genealogy>  (3) 
CSc1cccs1 (3D coordinates assigned)
CSc1cccs1 (optimized conformer: 33.29233510397793 kcal/mol)

>  <smiles>  (3) 
CSc1cccs1

>  <score_type>  (3) 
oracle

>  <origin>  (3) 
adgpu

>  <m_score__min__energy>  (3) 
-3.8900000000000001

>  <m_primary>  (3) 
energy

$$$$
3:0
     RDKit          3D

 38 40  0  0  0  0  0  0  0  0999 V2000
   -8.3940   19.2670  -31.6050 C   0  0  0  0  0  0  0  0  0  0  0  0
   -8.3700   20.5560  -32.3140 N   0  0  0  0  0  0  0  0  0  0  0  0
   -9.1380   21.5730  -31.5610 C   0  0  0  0  0  0  0  0  0  0  0  0
   -8.7300   22.9960  -31.9720 C   0  0  0  0  0  0  0  0  0  0  0  0
   -7.2960   23.2710  -31.6970 N   0  0  0  0  0  0  0  0  0  0  0  0
   -7.1280   24.0770  -30.4690 C   0  0  0  0  0  0  0  0  0  0  0  0
   -5.6830   24.3940  -30.2300 C   0  0  0  0  0  0  0  0  0  0  0  0
   -4.9210   23.9460  -29.1710 C   0  0  0  0  0  0  0  0  0  0  0  0
   -3.6920   24.5470  -29.3800 C   0  0  0  0  0  0  0  0  0  0  0  0
   -2.4750   24.4240  -28.5460 C   0  0  0  0  0  0  0  0  0  0  0  0
   -1.2940   23.9090  -29.1110 C   0  0  0  0  0  0  0  0  0  0  0  0
   -0.1350   23.7860  -28.3390 C   0  0  0  0  0  0  0  0  0  0  0  0
   -0.1420   24.1740  -26.9980 C   0  0  0  0  0  0  0  0  0  0  0  0
   -1.3080   24.6850  -26.4250 C   0  0  0  0  0  0  0  0  0  0  0  0
   -2.4710   24.8120  -27.1920 C   0  0  0  0  0  0  0  0  0  0  0  0
   -3.7670   25.2780  -30.4710 O   0  0  0  0  0  0  0  0  0  0  0  0
   -4.9500   25.2140  -31.0060 N   0  0  0  0  0  0  0  0  0  0  0  0
   -6.4600   22.0440  -31.6580 C   0  0  0  0  0  0  0  0  0  0  0  0
   -6.9800   20.9740  -32.6290 C   0  0  0  0  0  0  0  0  0  0  0  0
   -8.3907   19.4454  -30.5196 H   0  0  0  0  0  0  0  0  0  0  0  0
   -9.3026   18.7127  -31.8827 H   0  0  0  0  0  0  0  0  0  0  0  0
   -7.5066   18.6792  -31.8827 H   0  0  0  0  0  0  0  0  0  0  0  0
  -10.2104   21.4349  -31.7634 H   0  0  0  0  0  0  0  0  0  0  0  0
   -8.9254   21.4462  -30.4892 H   0  0  0  0  0  0  0  0  0  0  0  0
   -8.9140   23.1199  -33.0494 H   0  0  0  0  0  0  0  0  0  0  0  0
   -9.3288   23.7031  -31.3793 H   0  0  0  0  0  0  0  0  0  0  0  0
   -7.6899   25.0167  -30.5755 H   0  0  0  0  0  0  0  0  0  0  0  0
   -7.5064   23.4974  -29.6141 H   0  0  0  0  0  0  0  0  0  0  0  0
   -5.2192   23.2716  -28.3547 H   0  0  0  0  0  0  0  0  0  0  0  0
   -1.2825   23.6011  -30.1670 H   0  0  0  0  0  0  0  0  0  0  0  0
    0.7842   23.3827  -28.7890 H   0  0  0  0  0  0  0  0  0  0  0  0
    0.7714   24.0771  -26.3927 H   0  0  0  0  0  0  0  0  0  0  0  0
   -1.3122   24.9885  -25.3677 H   0  0  0  0  0  0  0  0  0  0  0  0
   -3.3864   25.2167  -26.7357 H   0  0  0  0  0  0  0  0  0  0  0  0
   -5.4282   22.3062  -31.9350 H   0  0  0  0  0  0  0  0  0  0  0  0
   -6.5008   21.6324  -30.6387 H   0  0  0  0  0  0  0  0  0  0  0  0
   -6.9558   21.3813  -33.6505 H   0  0  0  0  0  0  0  0  0  0  0  0
   -6.3326   20.0898  -32.5342 H   0  0  0  0  0  0  0  0  0  0  0  0
  1  2  1  0
  2  3  1  0
  3  4  1  0
  4  5  1  0
  5  6  1  0
  6  7  1  0
  7  8  1  0
  8  9  2  0
  9 10  1  0
 10 11  2  0
 11 12  1  0
 12 13  2  0
 13 14  1  0
 14 15  2  0
  9 16  1  0
 16 17  1  0
  5 18  1  0
 18 19  1  0
 19  2  1  0
 17  7  2  0
 15 10  1  0
  1 20  1  0
  1 21  1  0
  1 22  1  0
  3 23  1  0
  3 24  1  0
  4 25  1  0
  4 26  1  0
  6 27  1  0
  6 28  1  0
  8 29  1  0
 11 30  1  0
 12 31  1  0
 13 32  1  0
 14 33  1  0
 15 34  1  0
 18 35  1  0
 18 36  1  0
 19 37  1  0
 19 38  1  0
M  END
>  <UniqueID>  (4) 
3

>  <SMILES>  (4) 
CN1CCN(Cc2cc(-c3ccccc3)on2)CC1

>  <Energy>  (4) 
81.98211041654898

>  <Genealogy>  (4) 
CN1CCN(Cc2cc(-c3ccccc3)on2)CC1 (3D coordinates assigned)
CN1CCN(Cc2cc(-c3ccccc3)on2)CC1 (nonaromatic ring conformer: 81.98211041654898 kcal/mol)

>  <smiles>  (4) 
CN1CCN(Cc2cc(-c3ccccc3)on2)CC1

>  <score_type>  (4) 
oracle

>  <origin>  (4) 
adgpu

>  <m_score__min__energy>  (4) 
-8.5600000000000005

>  <m_primary>  (4) 
energy

$$$$
4:0
     RDKit          3D

 26 27  0  0  0  0  0  0  0  0999 V2000
   -3.8710   25.2930  -30.7190 O   0  0  0  0  0  0  0  0  0  0  0  0
   -4.2290   24.1650  -30.2860 C   0  0  0  0  0  0  0  0  0  0  0  0
   -3.6050   23.6170  -29.1120 N   0  0  0  0  0  0  0  0  0  0  0  0
   -2.8360   24.3910  -28.1760 C   0  0  0  0  0  0  0  0  0  0  0  0
   -3.3460   24.6220  -26.8880 C   0  0  0  0  0  0  0  0  0  0  0  0
   -2.6270   25.3900  -25.9690 C   0  0  0  0  0  0  0  0  0  0  0  0
   -1.3970   25.9490  -26.3310 C   0  0  0  0  0  0  0  0  0  0  0  0
   -0.4970   26.9160  -25.1770 Cl  0  0  0  0  0  0  0  0  0  0  0  0
   -0.8910   25.7450  -27.6190 C   0  0  0  0  0  0  0  0  0  0  0  0
   -1.6080   24.9760  -28.5410 C   0  0  0  0  0  0  0  0  0  0  0  0
   -5.2790   23.3970  -30.9990 C   0  0  0  0  0  0  0  0  0  0  0  0
   -6.6270   23.7640  -30.8260 C   0  0  0  0  0  0  0  0  0  0  0  0
   -7.6440   23.0780  -31.4950 C   0  0  0  0  0  0  0  0  0  0  0  0
   -7.3310   22.0160  -32.3440 C   0  0  0  0  0  0  0  0  0  0  0  0
   -6.0010   21.6360  -32.5240 C   0  0  0  0  0  0  0  0  0  0  0  0
   -4.9710   22.3150  -31.8590 C   0  0  0  0  0  0  0  0  0  0  0  0
   -3.3250   21.7320  -32.0930 Cl  0  0  0  0  0  0  0  0  0  0  0  0
   -3.6290   22.5800  -28.9860 H   0  0  0  0  0  0  0  0  0  0  0  0
   -4.3183   24.1952  -26.6009 H   0  0  0  0  0  0  0  0  0  0  0  0
   -3.0290   25.5555  -24.9585 H   0  0  0  0  0  0  0  0  0  0  0  0
    0.0727   26.1903  -27.9072 H   0  0  0  0  0  0  0  0  0  0  0  0
   -1.2110   24.8273  -29.5560 H   0  0  0  0  0  0  0  0  0  0  0  0
   -6.8823   24.5993  -30.1574 H   0  0  0  0  0  0  0  0  0  0  0  0
   -8.6932   23.3758  -31.3520 H   0  0  0  0  0  0  0  0  0  0  0  0
   -8.1329   21.4785  -32.8713 H   0  0  0  0  0  0  0  0  0  0  0  0
   -5.7588   20.7971  -33.1929 H   0  0  0  0  0  0  0  0  0  0  0  0
  1  2  2  0
  2  3  1  0
  3  4  1  0
  4  5  2  0
  5  6  1  0
  6  7  2  0
  7  8  1  0
  7  9  1  0
  9 10  2  0
  2 11  1  0
 11 12  2  0
 12 13  1  0
 13 14  2  0
 14 15  1  0
 15 16  2  0
 16 17  1  0
 10  4  1  0
 16 11  1  0
  3 18  1  0
  5 19  1  0
  6 20  1  0
  9 21  1  0
 10 22  1  0
 12 23  1  0
 13 24  1  0
 14 25  1  0
 15 26  1  0
M  END
>  <UniqueID>  (5) 
4

>  <SMILES>  (5) 
O=C(Nc1ccc(Cl)cc1)c1ccccc1Cl

>  <Energy>  (5) 
35.254334757989554

>  <Genealogy>  (5) 
O=C(Nc1ccc(Cl)cc1)c1ccccc1Cl (3D coordinates assigned)
O=C(Nc1ccc(Cl)cc1)c1ccccc1Cl (optimized conformer: 35.254334757989554 kcal/mol)

>  <smiles>  (5) 
O=C(Nc1ccc(Cl)cc1)c1ccccc1Cl

>  <score_type>  (5) 
oracle

>  <origin>  (5) 
adgpu

>  <m_score__min__energy>  (5) 
-7.2400000000000002

>  <m_primary>  (5) 
energy

$$$$
5:0
     RDKit          3D

 30 32  0  0  0  0  0  0  0  0999 V2000
   -1.9950   25.6660  -29.7170 H   0  0  0  0  0  0  0  0  0  0  0  0
   -2.4440   24.7250  -29.6440 N   0  0  0  0  0  0  0  0  0  0  0  0
   -3.5780   24.4810  -30.2160 C   0  0  0  0  0  0  0  0  0  0  0  0
   -4.2620   25.3860  -30.9390 N   0  0  0  0  0  0  0  0  0  0  0  0
   -5.3580   24.7810  -31.3700 N   0  0  0  0  0  0  0  0  0  0  0  0
   -6.0860   25.2450  -31.9590 H   0  0  0  0  0  0  0  0  0  0  0  0
   -5.3820   23.5090  -30.9200 C   0  0  0  0  0  0  0  0  0  0  0  0
   -6.4450   22.5270  -31.2420 C   0  0  0  0  0  0  0  0  0  0  0  0
   -7.7500   22.7840  -30.7860 C   0  0  0  0  0  0  0  0  0  0  0  0
   -7.9434   23.6658  -30.1575 H   0  0  0  0  0  0  0  0  0  0  0  0
   -8.8030   21.9310  -31.1230 C   0  0  0  0  0  0  0  0  0  0  0  0
   -9.8198   22.1446  -30.7617 H   0  0  0  0  0  0  0  0  0  0  0  0
   -8.5680   20.8100  -31.9160 C   0  0  0  0  0  0  0  0  0  0  0  0
   -9.4014   20.1462  -32.1894 H   0  0  0  0  0  0  0  0  0  0  0  0
   -7.2770   20.5280  -32.3640 C   0  0  0  0  0  0  0  0  0  0  0  0
   -7.0991   19.6397  -32.9879 H   0  0  0  0  0  0  0  0  0  0  0  0
   -6.2010   21.3680  -32.0260 C   0  0  0  0  0  0  0  0  0  0  0  0
   -4.8380   20.9690  -32.4500 C   0  0  0  0  0  0  0  0  0  0  0  0
   -3.9870   21.9030  -33.0640 C   0  0  0  0  0  0  0  0  0  0  0  0
   -4.3325   22.9346  -33.2268 H   0  0  0  0  0  0  0  0  0  0  0  0
   -2.7030   21.5270  -33.4690 C   0  0  0  0  0  0  0  0  0  0  0  0
   -2.0387   22.2641  -33.9438 H   0  0  0  0  0  0  0  0  0  0  0  0
   -2.2620   20.2140  -33.2710 C   0  0  0  0  0  0  0  0  0  0  0  0
   -1.2499   19.9203  -33.5862 H   0  0  0  0  0  0  0  0  0  0  0  0
   -3.1070   19.2760  -32.6730 C   0  0  0  0  0  0  0  0  0  0  0  0
   -2.7610   18.2430  -32.5207 H   0  0  0  0  0  0  0  0  0  0  0  0
   -4.3920   19.6490  -32.2680 C   0  0  0  0  0  0  0  0  0  0  0  0
   -5.0572   18.9055  -31.8046 H   0  0  0  0  0  0  0  0  0  0  0  0
   -4.2380   23.2730  -30.1740 C   0  0  0  0  0  0  0  0  0  0  0  0
   -3.9312   22.3447  -29.6699 H   0  0  0  0  0  0  0  0  0  0  0  0
  1  2  1  0
  2  3  2  0
  3  4  1  0
  4  5  1  0
  5  6  1  0
  5  7  1  0
  7  8  1  0
  8  9  2  0
  9 10  1  0
  9 11  1  0
 11 12  1  0
 11 13  2  0
 13 14  1  0
 13 15  1  0
 15 16  1  0
 15 17  2  0
 17 18  1  0
 18 19  2  0
 19 20  1  0
 19 21  1  0
 21 22  1  0
 21 23  2  0
 23 24  1  0
 23 25  1  0
 25 26  1  0
 25 27  2  0
 27 28  1  0
  7 29  2  0
 29 30  1  0
 29  3  1  0
 17  8  1  0
 27 18  1  0
M  CHG  1   4  -1
M  END
>  <UniqueID>  (6) 
5

>  <SMILES>  (6) 
[H]/N=c1/cc(-c2ccccc2-c2ccccc2)[nH][n-]1

>  <Energy>  (6) 
74.46782181828189

>  <Genealogy>  (6) 
N=c1cc(-c2ccccc2-c2ccccc2)[nH][n-]1 (protonated)
[H]/N=c1/cc(-c2ccccc2-c2ccccc2)[nH][n-]1 (cis-trans isomerization)
[H]/N=c1/cc(-c2ccccc2-c2ccccc2)[nH][n-]1 (3D coordinates assigned)
[H]/N=c1/cc(-c2ccccc2-c2ccccc2)[nH][n-]1 (optimized conformer: 74.46782181828189 kcal/mol)

>  <smiles>  (6) 
N=c1cc(-c2ccccc2-c2ccccc2)[nH][nH]1

>  <score_type>  (6) 
oracle

>  <origin>  (6) 
adgpu

>  <m_score__min__energy>  (6) 
-9.4299999999999997

>  <m_primary>  (6) 
energy

$$$$
6:0
     RDKit          3D

 28 30  0  0  0  0  0  0  0  0999 V2000
   -9.1120   18.4150  -31.6350 C   0  0  0  0  0  0  0  0  0  0  0  0
   -8.9410   19.5110  -32.6790 C   0  0  0  0  0  0  0  0  0  0  0  0
   -7.6010   20.0970  -32.5880 N   0  0  0  0  0  0  0  0  0  0  0  0
   -6.4470   19.6020  -33.1050 C   0  0  0  0  0  0  0  0  0  0  0  0
   -6.2610   18.4040  -33.8050 C   0  0  0  0  0  0  0  0  0  0  0  0
   -4.9660   18.0990  -34.2620 C   0  0  0  0  0  0  0  0  0  0  0  0
   -3.8910   18.9830  -34.0210 C   0  0  0  0  0  0  0  0  0  0  0  0
   -4.0980   20.1850  -33.3240 C   0  0  0  0  0  0  0  0  0  0  0  0
   -5.3910   20.4620  -32.8800 C   0  0  0  0  0  0  0  0  0  0  0  0
   -5.9090   21.5460  -32.2080 C   0  0  0  0  0  0  0  0  0  0  0  0
   -5.3130   22.7200  -31.7520 C   0  0  0  0  0  0  0  0  0  0  0  0
   -6.1350   23.6680  -31.1150 C   0  0  0  0  0  0  0  0  0  0  0  0
   -5.3770   25.2970  -30.4680 Br  0  0  0  0  0  0  0  0  0  0  0  0
   -7.5180   23.4250  -30.9590 C   0  0  0  0  0  0  0  0  0  0  0  0
   -8.0940   22.2320  -31.4320 C   0  0  0  0  0  0  0  0  0  0  0  0
   -7.2590   21.2980  -32.0540 C   0  0  0  0  0  0  0  0  0  0  0  0
   -9.0436   18.8535  -30.6285 H   0  0  0  0  0  0  0  0  0  0  0  0
  -10.0954   17.9385  -31.7613 H   0  0  0  0  0  0  0  0  0  0  0  0
   -8.3205   17.6616  -31.7613 H   0  0  0  0  0  0  0  0  0  0  0  0
   -9.0817   19.0817  -33.6819 H   0  0  0  0  0  0  0  0  0  0  0  0
   -9.6881   20.2976  -32.4970 H   0  0  0  0  0  0  0  0  0  0  0  0
   -7.1028   17.7212  -33.9922 H   0  0  0  0  0  0  0  0  0  0  0  0
   -4.7888   17.1632  -34.8123 H   0  0  0  0  0  0  0  0  0  0  0  0
   -2.8837   18.7282  -34.3820 H   0  0  0  0  0  0  0  0  0  0  0  0
   -3.2694   20.8833  -33.1350 H   0  0  0  0  0  0  0  0  0  0  0  0
   -4.2360   22.8997  -31.8855 H   0  0  0  0  0  0  0  0  0  0  0  0
   -8.1504   24.1759  -30.4629 H   0  0  0  0  0  0  0  0  0  0  0  0
   -9.1707   22.0391  -31.3160 H   0  0  0  0  0  0  0  0  0  0  0  0
  1  2  1  0
  2  3  1  0
  3  4  1  0
  4  5  2  0
  5  6  1  0
  6  7  2  0
  7  8  1  0
  8  9  2  0
  9 10  1  0
 10 11  2  0
 11 12  1  0
 12 13  1  0
 12 14  2  0
 14 15  1  0
 15 16  2  0
 16  3  1  0
  9  4  1  0
 16 10  1  0
  1 17  1  0
  1 18  1  0
  1 19  1  0
  2 20  1  0
  2 21  1  0
  5 22  1  0
  6 23  1  0
  7 24  1  0
  8 25  1  0
 11 26  1  0
 14 27  1  0
 15 28  1  0
M  END
>  <UniqueID>  (7) 
6

>  <SMILES>  (7) 
CCn1c2ccccc2c2cc(Br)ccc21

>  <Energy>  (7) 
68.75092923341204

>  <Genealogy>  (7) 
CCn1c2ccccc2c2cc(Br)ccc21 (3D coordinates assigned)
CCn1c2ccccc2c2cc(Br)ccc21 (optimized conformer: 68.75092923341204 kcal/mol)

>  <smiles>  (7) 
CCn1c2ccccc2c2cc(Br)ccc21

>  <score_type>  (7) 
oracle

>  <origin>  (7) 
adgpu

>  <m_score__min__energy>  (7) 
-7.6699999999999999

>  <m_primary>  (7) 
energy

$$$$
7:0
     RDKit          3D

 17 17  0  0  0  0  0  0  0  0999 V2000
   -2.6090   22.6840  -30.4690 C   0  0  0  0  0  0  0  0  0  0  0  0
   -4.0380   22.9010  -30.8890 C   0  0  0  0  0  0  0  0  0  0  0  0
   -4.7740   21.8230  -31.4130 C   0  0  0  0  0  0  0  0  0  0  0  0
   -6.1010   21.9970  -31.8100 C   0  0  0  0  0  0  0  0  0  0  0  0
   -6.7100   23.2450  -31.6890 C   0  0  0  0  0  0  0  0  0  0  0  0
   -5.9940   24.3260  -31.1700 C   0  0  0  0  0  0  0  0  0  0  0  0
   -4.6580   24.1690  -30.7660 C   0  0  0  0  0  0  0  0  0  0  0  0
   -3.9540   25.3020  -30.2380 N   0  0  0  0  0  0  0  0  0  0  0  0
   -2.5470   22.6746  -29.3708 H   0  0  0  0  0  0  0  0  0  0  0  0
   -2.2527   21.7214  -30.8646 H   0  0  0  0  0  0  0  0  0  0  0  0
   -1.9830   23.4974  -30.8646 H   0  0  0  0  0  0  0  0  0  0  0  0
   -4.3002   20.8351  -31.5107 H   0  0  0  0  0  0  0  0  0  0  0  0
   -6.6673   21.1474  -32.2192 H   0  0  0  0  0  0  0  0  0  0  0  0
   -7.7558   23.3786  -32.0027 H   0  0  0  0  0  0  0  0  0  0  0  0
   -6.4803   25.3083  -31.0769 H   0  0  0  0  0  0  0  0  0  0  0  0
   -4.2640   25.7940  -29.3730 H   0  0  0  0  0  0  0  0  0  0  0  0
   -3.1010   25.6660  -30.7180 H   0  0  0  0  0  0  0  0  0  0  0  0
  1  2  1  0
  2  3  2  0
  3  4  1  0
  4  5  2  0
  5  6  1  0
  6  7  2  0
  7  8  1  0
  7  2  1  0
  1  9  1  0
  1 10  1  0
  1 11  1  0
  3 12  1  0
  4 13  1  0
  5 14  1  0
  6 15  1  0
  8 16  1  0
  8 17  1  0
M  END
>  <UniqueID>  (8) 
7

>  <SMILES>  (8) 
Cc1ccccc1N

>  <Energy>  (8) 
15.400857084892674

>  <Genealogy>  (8) 
Cc1ccccc1N (3D coordinates assigned)
Cc1ccccc1N (optimized conformer: 15.400857084892674 kcal/mol)

>  <smiles>  (8) 
Cc1ccccc1N

>  <score_type>  (8) 
oracle

>  <origin>  (8) 
adgpu

>  <m_score__min__energy>  (8) 
-4.8200000000000003

>  <m_primary>  (8) 
energy

$$$$
8:0
     RDKit          3D

 31 32  0  0  0  0  0  0  0  0999 V2000
   -8.0090   20.1360  -32.3000 C   0  0  0  0  0  0  0  0  0  0  0  0
   -7.2840   21.2970  -31.6870 C   0  0  0  0  0  0  0  0  0  0  0  0
   -7.8640   22.0160  -30.6310 C   0  0  0  0  0  0  0  0  0  0  0  0
   -7.2050   23.1210  -30.0860 C   0  0  0  0  0  0  0  0  0  0  0  0
   -5.9680   23.5300  -30.6010 C   0  0  0  0  0  0  0  0  0  0  0  0
   -5.1590   24.9380  -29.9190 S   0  0  0  0  0  0  0  0  0  0  0  0
   -6.1220   26.0820  -29.7580 O   0  0  0  0  0  0  0  0  0  0  0  0
   -4.0550   25.3550  -30.8470 O   0  0  0  0  0  0  0  0  0  0  0  0
   -4.4870   24.5400  -28.3680 N   0  0  0  0  0  0  0  0  0  0  0  0
   -3.5540   23.4600  -28.1660 C   0  0  0  0  0  0  0  0  0  0  0  0
   -4.0100   22.1670  -27.8430 C   0  0  0  0  0  0  0  0  0  0  0  0
   -3.1060   21.1210  -27.6490 C   0  0  0  0  0  0  0  0  0  0  0  0
   -1.7350   21.3480  -27.7660 C   0  0  0  0  0  0  0  0  0  0  0  0
   -1.2610   22.6230  -28.0750 C   0  0  0  0  0  0  0  0  0  0  0  0
    0.0780   22.8250  -28.1850 F   0  0  0  0  0  0  0  0  0  0  0  0
   -2.1600   23.6830  -28.2750 C   0  0  0  0  0  0  0  0  0  0  0  0
   -1.6380   24.9850  -28.6160 C   0  0  0  0  0  0  0  0  0  0  0  0
   -1.2190   26.0290  -28.8890 N   0  0  0  0  0  0  0  0  0  0  0  0
   -5.3930   22.8220  -31.6650 C   0  0  0  0  0  0  0  0  0  0  0  0
   -6.0510   21.7160  -32.2100 C   0  0  0  0  0  0  0  0  0  0  0  0
   -8.4108   19.4926  -31.5034 H   0  0  0  0  0  0  0  0  0  0  0  0
   -8.8358   20.5076  -32.9231 H   0  0  0  0  0  0  0  0  0  0  0  0
   -7.3122   19.5562  -32.9231 H   0  0  0  0  0  0  0  0  0  0  0  0
   -8.8413   21.7086  -30.2306 H   0  0  0  0  0  0  0  0  0  0  0  0
   -7.6593   23.6720  -29.2493 H   0  0  0  0  0  0  0  0  0  0  0  0
   -4.7070   25.1940  -27.5860 H   0  0  0  0  0  0  0  0  0  0  0  0
   -5.0893   21.9796  -27.7426 H   0  0  0  0  0  0  0  0  0  0  0  0
   -3.4762   20.1148  -27.4031 H   0  0  0  0  0  0  0  0  0  0  0  0
   -1.0264   20.5204  -27.6144 H   0  0  0  0  0  0  0  0  0  0  0  0
   -4.4212   23.1376  -32.0723 H   0  0  0  0  0  0  0  0  0  0  0  0
   -5.6003   21.1714  -33.0528 H   0  0  0  0  0  0  0  0  0  0  0  0
  1  2  1  0
  2  3  2  0
  3  4  1  0
  4  5  2  0
  5  6  1  0
  6  7  2  0
  6  8  2  0
  6  9  1  0
  9 10  1  0
 10 11  2  0
 11 12  1  0
 12 13  2  0
 13 14  1  0
 14 15  1  0
 14 16  2  0
 16 17  1  0
 17 18  3  0
  5 19  1  0
 19 20  2  0
 20  2  1  0
 16 10  1  0
  1 21  1  0
  1 22  1  0
  1 23  1  0
  3 24  1  0
  4 25  1  0
  9 26  1  0
 11 27  1  0
 12 28  1  0
 13 29  1  0
 19 30  1  0
 20 31  1  0
M  END
>  <UniqueID>  (9) 
8

>  <SMILES>  (9) 
Cc1ccc(S(=O)(=O)Nc2cccc(F)c2C#N)cc1

>  <Energy>  (9) 
34.675294444451474

>  <Genealogy>  (9) 
Cc1ccc(S(=O)(=O)Nc2cccc(F)c2C#N)cc1 (3D coordinates assigned)
Cc1ccc(S(=O)(=O)Nc2cccc(F)c2C#N)cc1 (optimized conformer: 34.675294444451474 kcal/mol)

>  <smiles>  (9) 
Cc1ccc(S(=O)(=O)Nc2cccc(F)c2C#N)cc1

>  <score_type>  (9) 
oracle

>  <origin>  (9) 
adgpu

>  <m_score__min__energy>  (9) 
-8.2699999999999996

>  <m_primary>  (9) 
energy

$$$$
9:0
     RDKit          3D

 26 27  0  0  0  0  0  0  0  0999 V2000
   -6.1136   25.5383  -29.6951 H   0  0  0  0  0  0  0  0  0  0  0  0
   -6.1170   24.6590  -30.3560 C   0  0  0  0  0  0  0  0  0  0  0  0
   -7.3290   24.0540  -30.7020 C   0  0  0  0  0  0  0  0  0  0  0  0
   -8.2766   24.4774  -30.3375 H   0  0  0  0  0  0  0  0  0  0  0  0
   -7.3410   22.9080  -31.5130 C   0  0  0  0  0  0  0  0  0  0  0  0
   -8.6420   22.2800  -31.9160 C   0  0  0  0  0  0  0  0  0  0  0  0
   -9.2110   22.0053  -31.0156 H   0  0  0  0  0  0  0  0  0  0  0  0
   -9.2250   22.9959  -32.5140 H   0  0  0  0  0  0  0  0  0  0  0  0
   -8.4442   21.3782  -32.5140 H   0  0  0  0  0  0  0  0  0  0  0  0
   -6.1270   22.3880  -31.9880 C   0  0  0  0  0  0  0  0  0  0  0  0
   -6.1286   21.4990  -32.6359 H   0  0  0  0  0  0  0  0  0  0  0  0
   -4.9160   22.9940  -31.6420 C   0  0  0  0  0  0  0  0  0  0  0  0
   -3.9668   22.5634  -31.9937 H   0  0  0  0  0  0  0  0  0  0  0  0
   -4.9080   24.1520  -30.8460 C   0  0  0  0  0  0  0  0  0  0  0  0
   -3.6740   24.7600  -30.4300 N   0  0  0  0  0  0  0  0  0  0  0  0
   -3.0100   24.5440  -29.3260 C   0  0  0  0  0  0  0  0  0  0  0  0
   -3.3730   23.5310  -28.4130 C   0  0  0  0  0  0  0  0  0  0  0  0
   -4.2472   22.8936  -28.6120 H   0  0  0  0  0  0  0  0  0  0  0  0
   -2.6150   23.3430  -27.2550 C   0  0  0  0  0  0  0  0  0  0  0  0
   -2.8961   22.5620  -26.5332 H   0  0  0  0  0  0  0  0  0  0  0  0
   -1.5030   24.1460  -27.0160 C   0  0  0  0  0  0  0  0  0  0  0  0
   -0.9047   24.0087  -26.1032 H   0  0  0  0  0  0  0  0  0  0  0  0
   -1.1550   25.1260  -27.9450 C   0  0  0  0  0  0  0  0  0  0  0  0
   -0.2746   25.7613  -27.7679 H   0  0  0  0  0  0  0  0  0  0  0  0
   -1.9010   25.2990  -29.0700 N   0  0  0  0  0  0  0  0  0  0  0  0
   -1.6140   26.0410  -29.7490 H   0  0  0  0  0  0  0  0  0  0  0  0
  1  2  1  0
  2  3  2  0
  3  4  1  0
  3  5  1  0
  5  6  1  0
  6  7  1  0
  6  8  1  0
  6  9  1  0
  5 10  2  0
 10 11  1  0
 10 12  1  0
 12 13  1  0
 12 14  2  0
 14 15  1  0
 15 16  2  0
 16 17  1  0
 17 18  1  0
 17 19  2  0
 19 20  1  0
 19 21  1  0
 21 22  1  0
 21 23  2  0
 23 24  1  0
 23 25  1  0
 25 26  1  0
 14  2  1  0
 25 16  1  0
M  END
>  <UniqueID>  (10) 
9

>  <SMILES>  (10) 
Cc1ccc(/N=c2\cccc[nH]2)cc1

>  <Energy>  (10) 
35.72008145828571

>  <Genealogy>  (10) 
Cc1ccc(/N=c2\cccc[nH]2)cc1 (cis-trans isomerization)
Cc1ccc(/N=c2\cccc[nH]2)cc1 (3D coordinates assigned)
Cc1ccc(/N=c2\cccc[nH]2)cc1 (optimized conformer: 35.72008145828571 kcal/mol)

>  <smiles>  (10) 
Cc1ccc(N=c2cccc[nH]2)cc1

>  <score_type>  (10) 
oracle

>  <origin>  (10) 
adgpu

>  <m_score__min__energy>  (10) 
-7.04

>  <m_primary>  (10) 
energy

$$$$
10:0
     RDKit          3D

 25 26  0  0  0  0  0  0  0  0999 V2000
   -6.4844   25.3829  -30.7228 H   0  0  0  0  0  0  0  0  0  0  0  0
   -6.5170   24.3410  -31.0740 C   0  0  0  0  0  0  0  0  0  0  0  0
   -7.8860   23.5200  -31.6120 S   0  0  0  0  0  0  0  0  0  0  0  0
   -7.0450   22.1030  -31.9270 C   0  0  0  0  0  0  0  0  0  0  0  0
   -7.6150   21.0160  -32.3580 N   0  0  0  0  0  0  0  0  0  0  0  0
   -6.9550   19.7940  -32.7170 C   0  0  0  0  0  0  0  0  0  0  0  0
   -6.1370   19.7110  -33.8580 C   0  0  0  0  0  0  0  0  0  0  0  0
   -5.9613   20.6062  -34.4727 H   0  0  0  0  0  0  0  0  0  0  0  0
   -5.5460   18.4940  -34.2140 C   0  0  0  0  0  0  0  0  0  0  0  0
   -4.8929   18.4376  -35.0973 H   0  0  0  0  0  0  0  0  0  0  0  0
   -5.7850   17.3500  -33.4480 C   0  0  0  0  0  0  0  0  0  0  0  0
   -5.3119   16.3957  -33.7226 H   0  0  0  0  0  0  0  0  0  0  0  0
   -6.6250   17.4180  -32.3330 C   0  0  0  0  0  0  0  0  0  0  0  0
   -6.8202   16.5148  -31.7362 H   0  0  0  0  0  0  0  0  0  0  0  0
   -7.2180   18.6340  -31.9750 C   0  0  0  0  0  0  0  0  0  0  0  0
   -7.8932   18.6798  -31.1078 H   0  0  0  0  0  0  0  0  0  0  0  0
   -5.7330   22.2230  -31.6120 N   0  0  0  0  0  0  0  0  0  0  0  0
   -5.0310   21.4520  -31.6610 H   0  0  0  0  0  0  0  0  0  0  0  0
   -5.4320   23.4680  -31.1520 C   0  0  0  0  0  0  0  0  0  0  0  0
   -4.0530   23.8350  -30.6810 C   0  0  0  0  0  0  0  0  0  0  0  0
   -3.3107   23.3874  -31.3582 H   0  0  0  0  0  0  0  0  0  0  0  0
   -3.9198   23.4549  -29.6574 H   0  0  0  0  0  0  0  0  0  0  0  0
   -3.8730   25.2840  -30.6660 N   0  0  0  0  0  0  0  0  0  0  0  0
   -4.4810   25.6920  -29.9190 H   0  0  0  0  0  0  0  0  0  0  0  0
   -4.1950   25.6720  -31.5830 H   0  0  0  0  0  0  0  0  0  0  0  0
  1  2  1  0
  2  3  1  0
  3  4  1  0
  4  5  2  0
  5  6  1  0
  6  7  2  0
  7  8  1  0
  7  9  1  0
  9 10  1  0
  9 11  2  0
 11 12  1  0
 11 13  1  0
 13 14  1  0
 13 15  2  0
 15 16  1  0
  4 17  1  0
 17 18  1  0
 17 19  1  0
 19 20  1  0
 20 21  1  0
 20 22  1  0
 20 23  1  0
 23 24  1  0
 23 25  1  0
 19  2  2  0
 15  6  1  0
M  END
>  <UniqueID>  (11) 
10

>  <SMILES>  (11) 
NCc1cs/c(=N/c2ccccc2)[nH]1

>  <Energy>  (11) 
60.30099641222388

>  <Genealogy>  (11) 
NCc1cs/c(=N/c2ccccc2)[nH]1 (cis-trans isomerization)
NCc1cs/c(=N/c2ccccc2)[nH]1 (3D coordinates assigned)
NCc1cs/c(=N/c2ccccc2)[nH]1 (optimized conformer: 60.30099641222388 kcal/mol)

>  <smiles>  (11) 
NCc1csc(=Nc2ccccc2)[nH]1

>  <score_type>  (11) 
oracle

>  <origin>  (11) 
adgpu

>  <m_score__min__energy>  (11) 
-6.7199999999999998

>  <m_primary>  (11) 
energy

$$$$
11:0
     RDKit          3D

 35 36  0  0  0  0  0  0  0  0999 V2000
   -0.4890   27.6440  -27.2670 C   0  0  0  0  0  0  0  0  0  0  0  0
   -0.4860   26.4560  -26.3400 C   0  0  0  0  0  0  0  0  0  0  0  0
   -0.3290   26.6600  -24.9670 C   0  0  0  0  0  0  0  0  0  0  0  0
   -0.3420   25.5740  -24.0990 C   0  0  0  0  0  0  0  0  0  0  0  0
   -0.4980   24.3050  -24.5670 N   0  0  0  0  0  0  0  0  0  0  0  0
   -0.5100   23.2910  -23.6270 O   0  0  0  0  0  0  0  0  0  0  0  0
   -0.6400   24.0550  -25.9130 C   0  0  0  0  0  0  0  0  0  0  0  0
   -0.7880   22.6280  -26.3970 C   0  0  0  0  0  0  0  0  0  0  0  0
   -0.6430   25.1420  -26.8280 C   0  0  0  0  0  0  0  0  0  0  0  0
   -0.8230   24.9230  -28.2800 C   0  0  0  0  0  0  0  0  0  0  0  0
    0.1480   24.5150  -28.9670 O   0  0  0  0  0  0  0  0  0  0  0  0
   -2.0780   25.1760  -28.9190 N   0  0  0  0  0  0  0  0  0  0  0  0
   -3.3290   24.5510  -28.5100 C   0  0  0  0  0  0  0  0  0  0  0  0
   -4.1250   24.1860  -29.7280 C   0  0  0  0  0  0  0  0  0  0  0  0
   -3.7430   23.0940  -30.5240 C   0  0  0  0  0  0  0  0  0  0  0  0
   -4.5060   22.7350  -31.6390 C   0  0  0  0  0  0  0  0  0  0  0  0
   -5.6600   23.4540  -31.9600 C   0  0  0  0  0  0  0  0  0  0  0  0
   -6.0570   24.5330  -31.1630 C   0  0  0  0  0  0  0  0  0  0  0  0
   -5.2960   24.8960  -30.0470 C   0  0  0  0  0  0  0  0  0  0  0  0
   -0.4913   28.5711  -26.6749 H   0  0  0  0  0  0  0  0  0  0  0  0
    0.4092   27.6163  -27.9014 H   0  0  0  0  0  0  0  0  0  0  0  0
   -1.3871   27.6118  -27.9014 H   0  0  0  0  0  0  0  0  0  0  0  0
   -0.1953   27.6783  -24.5732 H   0  0  0  0  0  0  0  0  0  0  0  0
   -0.2245   25.7425  -23.0183 H   0  0  0  0  0  0  0  0  0  0  0  0
   -0.1520   23.4010  -22.6870 H   0  0  0  0  0  0  0  0  0  0  0  0
   -0.8580   21.9527  -25.5315 H   0  0  0  0  0  0  0  0  0  0  0  0
   -1.7001   22.5400  -27.0055 H   0  0  0  0  0  0  0  0  0  0  0  0
    0.0866   22.3546  -27.0055 H   0  0  0  0  0  0  0  0  0  0  0  0
   -3.1126   23.6434  -27.9274 H   0  0  0  0  0  0  0  0  0  0  0  0
   -3.9059   25.2540  -27.8911 H   0  0  0  0  0  0  0  0  0  0  0  0
   -2.8404   22.5192  -30.2693 H   0  0  0  0  0  0  0  0  0  0  0  0
   -4.1971   21.8847  -32.2648 H   0  0  0  0  0  0  0  0  0  0  0  0
   -6.2568   23.1716  -32.8398 H   0  0  0  0  0  0  0  0  0  0  0  0
   -6.9680   25.0961  -31.4141 H   0  0  0  0  0  0  0  0  0  0  0  0
   -5.6146   25.7395  -29.4169 H   0  0  0  0  0  0  0  0  0  0  0  0
  1  2  1  0
  2  3  2  0
  3  4  1  0
  4  5  2  0
  5  6  1  0
  5  7  1  0
  7  8  1  0
  7  9  2  0
  9 10  1  0
 10 11  2  0
 10 12  1  0
 12 13  1  0
 13 14  1  0
 14 15  2  0
 15 16  1  0
 16 17  2  0
 17 18  1  0
 18 19  2  0
  9  2  1  0
 19 14  1  0
  1 20  1  0
  1 21  1  0
  1 22  1  0
  3 23  1  0
  4 24  1  0
  6 25  1  0
  8 26  1  0
  8 27  1  0
  8 28  1  0
 13 29  1  0
 13 30  1  0
 15 31  1  0
 16 32  1  0
 17 33  1  0
 18 34  1  0
 19 35  1  0
M  CHG  2   5   1  12  -1
M  END
>  <UniqueID>  (12) 
11

>  <SMILES>  (12) 
Cc1cc[n+](O)c(C)c1C(=O)[N-]Cc1ccccc1

>  <Energy>  (12) 
43.81281543261702

>  <Genealogy>  (12) 
Cc1cc[n+](O)c(C)c1C(=O)[N-]Cc1ccccc1 (protonated)
Cc1cc[n+](O)c(C)c1C(=O)[N-]Cc1ccccc1 (3D coordinates assigned)
Cc1cc[n+](O)c(C)c1C(=O)[N-]Cc1ccccc1 (optimized conformer: 43.81281543261702 kcal/mol)

>  <smiles>  (12) 
Cc1cc[n+]([O-])c(C)c1C(=O)NCc1ccccc1

>  <score_type>  (12) 
oracle

>  <origin>  (12) 
adgpu

>  <m_score__min__energy>  (12) 
-8.2899999999999991

>  <m_primary>  (12) 
energy

$$$$
12:0
     RDKit          3D

 34 36  0  0  0  0  0  0  0  0999 V2000
   -3.8630   21.5940  -28.7360 O   0  0  0  0  0  0  0  0  0  0  0  0
   -4.0540   22.4630  -29.6300 C   0  0  0  0  0  0  0  0  0  0  0  0
   -4.6260   22.1920  -30.8230 N   0  0  0  0  0  0  0  0  0  0  0  0
   -5.0320   20.8860  -31.3410 C   0  0  0  0  0  0  0  0  0  0  0  0
   -6.5150   20.8710  -31.5840 C   0  0  0  0  0  0  0  0  0  0  0  0
   -7.2980   21.9940  -31.2710 C   0  0  0  0  0  0  0  0  0  0  0  0
   -8.6830   21.9610  -31.4590 C   0  0  0  0  0  0  0  0  0  0  0  0
   -9.2960   20.8050  -31.9490 C   0  0  0  0  0  0  0  0  0  0  0  0
   -8.5260   19.6770  -32.2490 C   0  0  0  0  0  0  0  0  0  0  0  0
   -9.1240   18.5540  -32.7160 F   0  0  0  0  0  0  0  0  0  0  0  0
   -7.1400   19.7070  -32.0630 C   0  0  0  0  0  0  0  0  0  0  0  0
   -4.6540   23.3630  -31.4880 C   0  0  0  0  0  0  0  0  0  0  0  0
   -4.1070   24.3280  -30.6650 C   0  0  0  0  0  0  0  0  0  0  0  0
   -3.9320   25.6690  -30.9930 O   0  0  0  0  0  0  0  0  0  0  0  0
   -3.7300   23.7680  -29.4950 N   0  0  0  0  0  0  0  0  0  0  0  0
   -3.1050   24.4170  -28.3710 C   0  0  0  0  0  0  0  0  0  0  0  0
   -3.7950   24.5560  -27.1550 C   0  0  0  0  0  0  0  0  0  0  0  0
   -3.1880   25.1860  -26.0650 C   0  0  0  0  0  0  0  0  0  0  0  0
   -1.8880   25.6850  -26.1780 C   0  0  0  0  0  0  0  0  0  0  0  0
   -1.1290   26.4770  -24.8080 Cl  0  0  0  0  0  0  0  0  0  0  0  0
   -1.1930   25.5540  -27.3840 C   0  0  0  0  0  0  0  0  0  0  0  0
   -1.7960   24.9230  -28.4760 C   0  0  0  0  0  0  0  0  0  0  0  0
   -4.5054   20.6888  -32.2864 H   0  0  0  0  0  0  0  0  0  0  0  0
   -4.7776   20.1092  -30.6048 H   0  0  0  0  0  0  0  0  0  0  0  0
   -6.8199   22.9028  -30.8765 H   0  0  0  0  0  0  0  0  0  0  0  0
   -9.2909   22.8463  -31.2208 H   0  0  0  0  0  0  0  0  0  0  0  0
  -10.3855   20.7822  -32.0989 H   0  0  0  0  0  0  0  0  0  0  0  0
   -6.5370   18.8161  -32.2925 H   0  0  0  0  0  0  0  0  0  0  0  0
   -5.0429   23.5223  -32.5046 H   0  0  0  0  0  0  0  0  0  0  0  0
   -4.0820   25.9960  -31.9390 H   0  0  0  0  0  0  0  0  0  0  0  0
   -4.8194   24.1665  -27.0603 H   0  0  0  0  0  0  0  0  0  0  0  0
   -3.7350   25.2891  -25.1162 H   0  0  0  0  0  0  0  0  0  0  0  0
   -0.1700   25.9481  -27.4738 H   0  0  0  0  0  0  0  0  0  0  0  0
   -1.2444   24.8215  -29.4223 H   0  0  0  0  0  0  0  0  0  0  0  0
  1  2  2  0
  2  3  1  0
  3  4  1  0
  4  5  1  0
  5  6  2  0
  6  7  1  0
  7  8  2  0
  8  9  1  0
  9 10  1  0
  9 11  2  0
  3 12  1  0
 12 13  2  0
 13 14  1  0
 13 15  1  0
 15 16  1  0
 16 17  2  0
 17 18  1  0
 18 19  2  0
 19 20  1  0
 19 21  1  0
 21 22  2  0
 15  2  1  0
 22 16  1  0
 11  5  1  0
  4 23  1  0
  4 24  1  0
  6 25  1  0
  7 26  1  0
  8 27  1  0
 11 28  1  0
 12 29  1  0
 14 30  1  0
 17 31  1  0
 18 32  1  0
 21 33  1  0
 22 34  1  0
M  END
>  <UniqueID>  (13) 
12

>  <SMILES>  (13) 
O=c1n(Cc2cccc(F)c2)cc(O)n1-c1ccc(Cl)cc1

>  <Energy>  (13) 
73.64302633208479

>  <Genealogy>  (13) 
O=c1n(Cc2cccc(F)c2)cc(O)n1-c1ccc(Cl)cc1 (3D coordinates assigned)
O=c1n(Cc2cccc(F)c2)cc(O)n1-c1ccc(Cl)cc1 (optimized conformer: 73.64302633208479 kcal/mol)

>  <smiles>  (13) 
O=c1n(Cc2cccc(F)c2)cc(O)n1-c1ccc(Cl)cc1

>  <score_type>  (13) 
oracle

>  <origin>  (13) 
adgpu

>  <m_score__min__energy>  (13) 
-8.1500000000000004

>  <m_primary>  (13) 
energy

$$$$
13:0
     RDKit          3D

 36 38  0  0  0  0  0  0  0  0999 V2000
    0.1400   25.7640  -25.8090 C   0  0  0  0  0  0  0  0  0  0  0  0
   -1.0870   25.3660  -26.5750 C   0  0  0  0  0  0  0  0  0  0  0  0
   -2.3360   25.3320  -25.9390 C   0  0  0  0  0  0  0  0  0  0  0  0
   -3.4750   24.9240  -26.6420 C   0  0  0  0  0  0  0  0  0  0  0  0
   -3.3820   24.5470  -27.9900 C   0  0  0  0  0  0  0  0  0  0  0  0
   -4.5640   24.1100  -28.6830 N   0  0  0  0  0  0  0  0  0  0  0  0
   -4.7740   24.2850  -30.0940 C   0  0  0  0  0  0  0  0  0  0  0  0
   -4.0790   25.1160  -30.7410 O   0  0  0  0  0  0  0  0  0  0  0  0
   -5.8250   23.5370  -30.8020 C   0  0  0  0  0  0  0  0  0  0  0  0
   -7.0200   24.0420  -31.2800 C   0  0  0  0  0  0  0  0  0  0  0  0
   -7.6730   22.9750  -31.8570 C   0  0  0  0  0  0  0  0  0  0  0  0
   -6.8390   21.8800  -31.6960 C   0  0  0  0  0  0  0  0  0  0  0  0
   -7.0880   20.4910  -32.1450 C   0  0  0  0  0  0  0  0  0  0  0  0
   -8.1860   19.7810  -31.6260 C   0  0  0  0  0  0  0  0  0  0  0  0
   -8.4410   18.4690  -32.0360 C   0  0  0  0  0  0  0  0  0  0  0  0
   -7.6030   17.8510  -32.9660 C   0  0  0  0  0  0  0  0  0  0  0  0
   -6.5080   18.5440  -33.4900 C   0  0  0  0  0  0  0  0  0  0  0  0
   -5.4570   17.7640  -34.6590 Cl  0  0  0  0  0  0  0  0  0  0  0  0
   -6.2500   19.8570  -33.0820 C   0  0  0  0  0  0  0  0  0  0  0  0
   -5.7470   22.2520  -31.0630 O   0  0  0  0  0  0  0  0  0  0  0  0
   -2.1210   24.5450  -28.6140 C   0  0  0  0  0  0  0  0  0  0  0  0
   -0.9830   24.9500  -27.9100 C   0  0  0  0  0  0  0  0  0  0  0  0
   -0.0638   25.6979  -24.7301 H   0  0  0  0  0  0  0  0  0  0  0  0
    0.9689   25.0886  -26.0676 H   0  0  0  0  0  0  0  0  0  0  0  0
    0.4146   26.7973  -26.0676 H   0  0  0  0  0  0  0  0  0  0  0  0
   -2.4209   25.6273  -24.8828 H   0  0  0  0  0  0  0  0  0  0  0  0
   -4.4503   24.8987  -26.1340 H   0  0  0  0  0  0  0  0  0  0  0  0
   -5.3520   23.7350  -28.1100 H   0  0  0  0  0  0  0  0  0  0  0  0
   -7.3757   25.0808  -31.2134 H   0  0  0  0  0  0  0  0  0  0  0  0
   -8.6578   22.9893  -32.3468 H   0  0  0  0  0  0  0  0  0  0  0  0
   -8.8491   20.2619  -30.8918 H   0  0  0  0  0  0  0  0  0  0  0  0
   -9.3030   17.9229  -31.6253 H   0  0  0  0  0  0  0  0  0  0  0  0
   -7.8045   16.8182  -33.2865 H   0  0  0  0  0  0  0  0  0  0  0  0
   -5.3863   20.3979  -33.4962 H   0  0  0  0  0  0  0  0  0  0  0  0
   -2.0299   24.2229  -29.6618 H   0  0  0  0  0  0  0  0  0  0  0  0
   -0.0011   24.9423  -28.4059 H   0  0  0  0  0  0  0  0  0  0  0  0
  1  2  1  0
  2  3  2  0
  3  4  1  0
  4  5  2  0
  5  6  1  0
  6  7  1  0
  7  8  2  0
  7  9  1  0
  9 10  2  0
 10 11  1  0
 11 12  2  0
 12 13  1  0
 13 14  2  0
 14 15  1  0
 15 16  2  0
 16 17  1  0
 17 18  1  0
 17 19  2  0
 12 20  1  0
  5 21  1  0
 21 22  2  0
 22  2  1  0
 20  9  1  0
 19 13  1  0
  1 23  1  0
  1 24  1  0
  1 25  1  0
  3 26  1  0
  4 27  1  0
  6 28  1  0
 10 29  1  0
 11 30  1  0
 14 31  1  0
 15 32  1  0
 16 33  1  0
 19 34  1  0
 21 35  1  0
 22 36  1  0
M  END
>  <UniqueID>  (14) 
13

>  <SMILES>  (14) 
Cc1ccc(NC(=O)c2ccc(-c3cccc(Cl)c3)o2)cc1

>  <Energy>  (14) 
67.82831675462587

>  <Genealogy>  (14) 
Cc1ccc(NC(=O)c2ccc(-c3cccc(Cl)c3)o2)cc1 (3D coordinates assigned)
Cc1ccc(NC(=O)c2ccc(-c3cccc(Cl)c3)o2)cc1 (optimized conformer: 67.82831675462587 kcal/mol)

>  <smiles>  (14) 
Cc1ccc(NC(=O)c2ccc(-c3cccc(Cl)c3)o2)cc1

>  <score_type>  (14) 
oracle

>  <origin>  (14) 
adgpu

>  <m_score__min__energy>  (14) 
-9.25

>  <m_primary>  (14) 
energy

$$$$
14:0
     RDKit          3D

 35 37  0  0  0  0  0  0  0  0999 V2000
   -1.8640   24.9440  -28.1410 C   0  0  0  0  0  0  0  0  0  0  0  0
   -2.5280   25.2980  -29.3500 O   0  0  0  0  0  0  0  0  0  0  0  0
   -3.5240   24.5240  -29.9650 C   0  0  0  0  0  0  0  0  0  0  0  0
   -4.8030   25.0710  -30.0930 C   0  0  0  0  0  0  0  0  0  0  0  0
   -5.8330   24.3460  -30.6950 C   0  0  0  0  0  0  0  0  0  0  0  0
   -5.6050   23.0460  -31.1880 C   0  0  0  0  0  0  0  0  0  0  0  0
   -6.6330   22.2890  -31.8040 C   0  0  0  0  0  0  0  0  0  0  0  0
   -8.2610   22.9620  -31.9790 Cl  0  0  0  0  0  0  0  0  0  0  0  0
   -6.3550   20.9870  -32.2850 C   0  0  0  0  0  0  0  0  0  0  0  0
   -7.4250   20.1220  -32.9170 C   0  0  0  0  0  0  0  0  0  0  0  0
   -6.8480   18.8150  -33.3950 C   0  0  0  0  0  0  0  0  0  0  0  0
   -6.0770   18.7680  -34.5690 C   0  0  0  0  0  0  0  0  0  0  0  0
   -5.5320   17.5580  -35.0100 C   0  0  0  0  0  0  0  0  0  0  0  0
   -5.7540   16.3850  -34.2830 C   0  0  0  0  0  0  0  0  0  0  0  0
   -6.5220   16.4190  -33.1170 C   0  0  0  0  0  0  0  0  0  0  0  0
   -7.0690   17.6280  -32.6740 C   0  0  0  0  0  0  0  0  0  0  0  0
   -5.0640   20.4580  -32.1410 C   0  0  0  0  0  0  0  0  0  0  0  0
   -4.0510   21.2000  -31.5380 C   0  0  0  0  0  0  0  0  0  0  0  0
   -4.3070   22.4890  -31.0600 C   0  0  0  0  0  0  0  0  0  0  0  0
   -3.2790   23.2280  -30.4510 C   0  0  0  0  0  0  0  0  0  0  0  0
   -2.4700   25.2671  -27.2817 H   0  0  0  0  0  0  0  0  0  0  0  0
   -1.7271   23.8532  -28.1037 H   0  0  0  0  0  0  0  0  0  0  0  0
   -0.8820   25.4383  -28.1037 H   0  0  0  0  0  0  0  0  0  0  0  0
   -5.0009   26.0849  -29.7150 H   0  0  0  0  0  0  0  0  0  0  0  0
   -6.8333   24.7945  -30.7854 H   0  0  0  0  0  0  0  0  0  0  0  0
   -8.2094   19.9186  -32.1731 H   0  0  0  0  0  0  0  0  0  0  0  0
   -7.8443   20.6577  -33.7814 H   0  0  0  0  0  0  0  0  0  0  0  0
   -5.9011   19.6887  -35.1446 H   0  0  0  0  0  0  0  0  0  0  0  0
   -4.9285   17.5293  -35.9292 H   0  0  0  0  0  0  0  0  0  0  0  0
   -5.3233   15.4340  -34.6296 H   0  0  0  0  0  0  0  0  0  0  0  0
   -6.6969   15.4948  -32.5467 H   0  0  0  0  0  0  0  0  0  0  0  0
   -7.6754   17.6503  -31.7565 H   0  0  0  0  0  0  0  0  0  0  0  0
   -4.8487   19.4440  -32.5090 H   0  0  0  0  0  0  0  0  0  0  0  0
   -3.0438   20.7695  -31.4372 H   0  0  0  0  0  0  0  0  0  0  0  0
   -2.2750   22.7892  -30.3538 H   0  0  0  0  0  0  0  0  0  0  0  0
  1  2  1  0
  2  3  1  0
  3  4  2  0
  4  5  1  0
  5  6  2  0
  6  7  1  0
  7  8  1  0
  7  9  2  0
  9 10  1  0
 10 11  1  0
 11 12  2  0
 12 13  1  0
 13 14  2  0
 14 15  1  0
 15 16  2  0
  9 17  1  0
 17 18  2  0
 18 19  1  0
 19 20  2  0
 20  3  1  0
 19  6  1  0
 16 11  1  0
  1 21  1  0
  1 22  1  0
  1 23  1  0
  4 24  1  0
  5 25  1  0
 10 26  1  0
 10 27  1  0
 12 28  1  0
 13 29  1  0
 14 30  1  0
 15 31  1  0
 16 32  1  0
 17 33  1  0
 18 34  1  0
 20 35  1  0
M  END
>  <UniqueID>  (15) 
14

>  <SMILES>  (15) 
COc1ccc2c(Cl)c(Cc3ccccc3)ccc2c1

>  <Energy>  (15) 
42.752505082484994

>  <Genealogy>  (15) 
COc1ccc2c(Cl)c(Cc3ccccc3)ccc2c1 (3D coordinates assigned)
COc1ccc2c(Cl)c(Cc3ccccc3)ccc2c1 (optimized conformer: 42.752505082484994 kcal/mol)

>  <smiles>  (15) 
COc1ccc2c(Cl)c(Cc3ccccc3)ccc2c1

>  <score_type>  (15) 
oracle

>  <origin>  (15) 
adgpu

>  <m_score__min__energy>  (15) 
-8.8000000000000007

>  <m_primary>  (15) 
energy

$$$$
15:0
     RDKit          3D

 24 25  0  0  0  0  0  0  0  0999 V2000
   -4.2170   22.7250  -28.0010 C   0  0  0  0  0  0  0  0  0  0  0  0
   -4.3410   23.7190  -29.1140 C   0  0  0  0  0  0  0  0  0  0  0  0
   -5.5110   24.0370  -29.7720 C   0  0  0  0  0  0  0  0  0  0  0  0
   -5.1770   25.0210  -30.6800 C   0  0  0  0  0  0  0  0  0  0  0  0
   -3.8920   25.2850  -30.5990 O   0  0  0  0  0  0  0  0  0  0  0  0
   -3.3540   24.5140  -29.6810 C   0  0  0  0  0  0  0  0  0  0  0  0
   -1.9190   24.5590  -29.3420 C   0  0  0  0  0  0  0  0  0  0  0  0
   -1.2470   23.4970  -29.4110 O   0  0  0  0  0  0  0  0  0  0  0  0
   -1.2590   25.7690  -28.9530 N   0  0  0  0  0  0  0  0  0  0  0  0
   -1.1320   26.2680  -27.6150 C   0  0  0  0  0  0  0  0  0  0  0  0
   -1.7480   25.5780  -26.5680 C   0  0  0  0  0  0  0  0  0  0  0  0
   -1.6430   26.0510  -25.2590 C   0  0  0  0  0  0  0  0  0  0  0  0
   -0.9300   27.2260  -25.0120 C   0  0  0  0  0  0  0  0  0  0  0  0
   -0.3550   27.9020  -26.0420 N   0  0  0  0  0  0  0  0  0  0  0  0
   -0.4420   27.4590  -27.3250 C   0  0  0  0  0  0  0  0  0  0  0  0
   -4.2821   23.2465  -27.0347 H   0  0  0  0  0  0  0  0  0  0  0  0
   -5.0302   21.9880  -28.0753 H   0  0  0  0  0  0  0  0  0  0  0  0
   -3.2477   22.2103  -28.0753 H   0  0  0  0  0  0  0  0  0  0  0  0
   -6.5055   23.5968  -29.6069 H   0  0  0  0  0  0  0  0  0  0  0  0
   -5.8810   25.5111  -31.3686 H   0  0  0  0  0  0  0  0  0  0  0  0
   -2.3171   24.6598  -26.7757 H   0  0  0  0  0  0  0  0  0  0  0  0
   -2.1169   25.5039  -24.4307 H   0  0  0  0  0  0  0  0  0  0  0  0
   -0.8335   27.6048  -23.9838 H   0  0  0  0  0  0  0  0  0  0  0  0
    0.0280   28.0330  -28.1372 H   0  0  0  0  0  0  0  0  0  0  0  0
  1  2  1  0
  2  3  1  0
  3  4  2  0
  4  5  1  0
  5  6  1  0
  6  7  1  0
  7  8  2  0
  7  9  1  0
  9 10  1  0
 10 11  2  0
 11 12  1  0
 12 13  2  0
 13 14  1  0
 14 15  2  0
  6  2  2  0
 15 10  1  0
  1 16  1  0
  1 17  1  0
  1 18  1  0
  3 19  1  0
  4 20  1  0
 11 21  1  0
 12 22  1  0
 13 23  1  0
 15 24  1  0
M  CHG  1   9  -1
M  END
>  <UniqueID>  (16) 
15

>  <SMILES>  (16) 
Cc1ccoc1C(=O)[N-]c1cccnc1

>  <Energy>  (16) 
57.25116532547195

>  <Genealogy>  (16) 
Cc1ccoc1C(=O)[N-]c1cccnc1 (protonated)
Cc1ccoc1C(=O)[N-]c1cccnc1 (3D coordinates assigned)
Cc1ccoc1C(=O)[N-]c1cccnc1 (optimized conformer: 57.25116532547195 kcal/mol)

>  <smiles>  (16) 
Cc1ccoc1C(=O)Nc1cccnc1

>  <score_type>  (16) 
oracle

>  <origin>  (16) 
adgpu

>  <m_score__min__energy>  (16) 
-7.1299999999999999

>  <m_primary>  (16) 
energy

$$$$
16:0
     RDKit          3D

 38 40  0  0  0  0  0  0  0  0999 V2000
   -2.9040   16.6730  -35.3080 C   0  0  0  0  0  0  0  0  0  0  0  0
   -3.7400   17.5680  -34.4560 C   0  0  0  0  0  0  0  0  0  0  0  0
   -5.1120   17.5010  -34.3160 C   0  0  0  0  0  0  0  0  0  0  0  0
   -5.4210   18.5550  -33.4780 C   0  0  0  0  0  0  0  0  0  0  0  0
   -6.7700   18.8370  -32.9380 C   0  0  0  0  0  0  0  0  0  0  0  0
   -7.4230   20.0380  -33.2680 C   0  0  0  0  0  0  0  0  0  0  0  0
   -8.7010   20.3060  -32.7690 C   0  0  0  0  0  0  0  0  0  0  0  0
   -9.3410   19.3760  -31.9460 C   0  0  0  0  0  0  0  0  0  0  0  0
   -8.7070   18.1720  -31.6270 C   0  0  0  0  0  0  0  0  0  0  0  0
   -7.4300   17.8990  -32.1250 C   0  0  0  0  0  0  0  0  0  0  0  0
   -4.2770   19.2170  -33.1740 N   0  0  0  0  0  0  0  0  0  0  0  0
   -4.1270   20.4280  -32.4130 C   0  0  0  0  0  0  0  0  0  0  0  0
   -4.8140   21.5870  -32.8050 C   0  0  0  0  0  0  0  0  0  0  0  0
   -4.6840   22.7680  -32.0680 C   0  0  0  0  0  0  0  0  0  0  0  0
   -3.8810   22.7980  -30.9200 C   0  0  0  0  0  0  0  0  0  0  0  0
   -3.6980   24.2910  -30.0050 S   0  0  0  0  0  0  0  0  0  0  0  0
   -4.6110   24.1660  -28.4850 C   0  0  0  0  0  0  0  0  0  0  0  0
   -4.2180   25.4480  -30.8120 O   0  0  0  0  0  0  0  0  0  0  0  0
   -2.2450   24.5290  -29.7030 O   0  0  0  0  0  0  0  0  0  0  0  0
   -3.2070   21.6390  -30.5170 C   0  0  0  0  0  0  0  0  0  0  0  0
   -3.3360   20.4580  -31.2530 C   0  0  0  0  0  0  0  0  0  0  0  0
   -3.2550   18.6200  -33.7700 N   0  0  0  0  0  0  0  0  0  0  0  0
   -2.2943   16.0202  -34.6660 H   0  0  0  0  0  0  0  0  0  0  0  0
   -3.5570   16.0564  -35.9431 H   0  0  0  0  0  0  0  0  0  0  0  0
   -2.2443   17.2825  -35.9431 H   0  0  0  0  0  0  0  0  0  0  0  0
   -5.8021   16.7738  -34.7687 H   0  0  0  0  0  0  0  0  0  0  0  0
   -6.9259   20.7698  -33.9217 H   0  0  0  0  0  0  0  0  0  0  0  0
   -9.2035   21.2505  -33.0247 H   0  0  0  0  0  0  0  0  0  0  0  0
  -10.3440   19.5914  -31.5490 H   0  0  0  0  0  0  0  0  0  0  0  0
   -9.2138   17.4382  -30.9830 H   0  0  0  0  0  0  0  0  0  0  0  0
   -6.9390   16.9457  -31.8797 H   0  0  0  0  0  0  0  0  0  0  0  0
   -5.4580   21.5663  -33.6965 H   0  0  0  0  0  0  0  0  0  0  0  0
   -5.2138   23.6765  -32.3904 H   0  0  0  0  0  0  0  0  0  0  0  0
   -3.9207   24.2605  -27.6338 H   0  0  0  0  0  0  0  0  0  0  0  0
   -5.3605   24.9699  -28.4403 H   0  0  0  0  0  0  0  0  0  0  0  0
   -5.1168   23.1902  -28.4403 H   0  0  0  0  0  0  0  0  0  0  0  0
   -2.5736   21.6580  -29.6178 H   0  0  0  0  0  0  0  0  0  0  0  0
   -2.8153   19.5473  -30.9220 H   0  0  0  0  0  0  0  0  0  0  0  0
  1  2  1  0
  2  3  1  0
  3  4  2  0
  4  5  1  0
  5  6  2  0
  6  7  1  0
  7  8  2  0
  8  9  1  0
  9 10  2  0
  4 11  1  0
 11 12  1  0
 12 13  2  0
 13 14  1  0
 14 15  2  0
 15 16  1  0
 16 17  1  0
 16 18  2  0
 16 19  2  0
 15 20  1  0
 20 21  2  0
 11 22  1  0
 22  2  2  0
 10  5  1  0
 21 12  1  0
  1 23  1  0
  1 24  1  0
  1 25  1  0
  3 26  1  0
  6 27  1  0
  7 28  1  0
  8 29  1  0
  9 30  1  0
 10 31  1  0
 13 32  1  0
 14 33  1  0
 17 34  1  0
 17 35  1  0
 17 36  1  0
 20 37  1  0
 21 38  1  0
M  END
>  <UniqueID>  (17) 
16

>  <SMILES>  (17) 
Cc1cc(-c2ccccc2)n(-c2ccc(S(C)(=O)=O)cc2)n1

>  <Energy>  (17) 
75.10558422280475

>  <Genealogy>  (17) 
Cc1cc(-c2ccccc2)n(-c2ccc(S(C)(=O)=O)cc2)n1 (3D coordinates assigned)
Cc1cc(-c2ccccc2)n(-c2ccc(S(C)(=O)=O)cc2)n1 (optimized conformer: 75.10558422280475 kcal/mol)

>  <smiles>  (17) 
Cc1cc(-c2ccccc2)n(-c2ccc(S(C)(=O)=O)cc2)n1

>  <score_type>  (17) 
oracle

>  <origin>  (17) 
adgpu

>  <m_score__min__energy>  (17) 
-8.9299999999999997

>  <m_primary>  (17) 
energy

$$$$
17:0
     RDKit          3D

 27 28  0  0  0  0  0  0  0  0999 V2000
   -3.7600   24.0890  -28.2720 O   0  0  0  0  0  0  0  0  0  0  0  0
   -3.1740   24.6620  -29.2290 C   0  0  0  0  0  0  0  0  0  0  0  0
   -3.8030   24.7540  -30.5130 N   0  0  0  0  0  0  0  0  0  0  0  0
   -4.9360   23.9970  -30.9650 C   0  0  0  0  0  0  0  0  0  0  0  0
   -4.7900   22.8070  -31.7020 C   0  0  0  0  0  0  0  0  0  0  0  0
   -5.9180   22.1090  -32.1440 C   0  0  0  0  0  0  0  0  0  0  0  0
   -7.1990   22.5980  -31.8670 C   0  0  0  0  0  0  0  0  0  0  0  0
   -8.2910   21.9210  -32.2980 F   0  0  0  0  0  0  0  0  0  0  0  0
   -7.3500   23.7910  -31.1560 C   0  0  0  0  0  0  0  0  0  0  0  0
   -6.2240   24.4930  -30.7130 C   0  0  0  0  0  0  0  0  0  0  0  0
   -6.3870   25.6520  -30.0270 F   0  0  0  0  0  0  0  0  0  0  0  0
   -1.9140   25.3150  -29.0220 N   0  0  0  0  0  0  0  0  0  0  0  0
   -1.0980   25.1460  -27.8490 C   0  0  0  0  0  0  0  0  0  0  0  0
   -0.0590   24.2020  -27.8660 C   0  0  0  0  0  0  0  0  0  0  0  0
    0.7350   24.0040  -26.7320 C   0  0  0  0  0  0  0  0  0  0  0  0
    0.4900   24.7350  -25.5680 C   0  0  0  0  0  0  0  0  0  0  0  0
   -0.5590   25.6610  -25.5320 C   0  0  0  0  0  0  0  0  0  0  0  0
   -0.8840   26.5600  -24.0610 Cl  0  0  0  0  0  0  0  0  0  0  0  0
   -1.3550   25.8620  -26.6660 C   0  0  0  0  0  0  0  0  0  0  0  0
   -3.7844   22.4245  -31.9312 H   0  0  0  0  0  0  0  0  0  0  0  0
   -5.7979   21.1738  -32.7105 H   0  0  0  0  0  0  0  0  0  0  0  0
   -8.3570   24.1794  -30.9439 H   0  0  0  0  0  0  0  0  0  0  0  0
   -1.6110   26.0140  -29.7390 H   0  0  0  0  0  0  0  0  0  0  0  0
    0.1316   23.6148  -28.7764 H   0  0  0  0  0  0  0  0  0  0  0  0
    1.5545   23.2706  -26.7571 H   0  0  0  0  0  0  0  0  0  0  0  0
    1.1209   24.5833  -24.6798 H   0  0  0  0  0  0  0  0  0  0  0  0
   -2.1850   26.5830  -26.6316 H   0  0  0  0  0  0  0  0  0  0  0  0
  1  2  2  0
  2  3  1  0
  3  4  1  0
  4  5  2  0
  5  6  1  0
  6  7  2  0
  7  8  1  0
  7  9  1  0
  9 10  2  0
 10 11  1  0
  2 12  1  0
 12 13  1  0
 13 14  2  0
 14 15  1  0
 15 16  2  0
 16 17  1  0
 17 18  1  0
 17 19  2  0
 10  4  1  0
 19 13  1  0
  5 20  1  0
  6 21  1  0
  9 22  1  0
 12 23  1  0
 14 24  1  0
 15 25  1  0
 16 26  1  0
 19 27  1  0
M  CHG  1   3  -1
M  END
>  <UniqueID>  (18) 
17

>  <SMILES>  (18) 
O=C([N-]c1ccc(F)cc1F)Nc1cccc(Cl)c1

>  <Energy>  (18) 
34.48488746083892

>  <Genealogy>  (18) 
O=C([N-]c1ccc(F)cc1F)Nc1cccc(Cl)c1 (protonated)
O=C([N-]c1ccc(F)cc1F)Nc1cccc(Cl)c1 (3D coordinates assigned)
O=C([N-]c1ccc(F)cc1F)Nc1cccc(Cl)c1 (optimized conformer: 34.48488746083892 kcal/mol)

>  <smiles>  (18) 
O=C(Nc1cccc(Cl)c1)Nc1ccc(F)cc1F

>  <score_type>  (18) 
oracle

>  <origin>  (18) 
adgpu

>  <m_score__min__energy>  (18) 
-8.1899999999999995

>  <m_primary>  (18) 
energy

$$$$
18:0
     RDKit          3D

 31 32  0  0  0  0  0  0  0  0999 V2000
   -9.4800   18.9980  -32.7120 C   0  0  0  0  0  0  0  0  0  0  0  0
   -8.5320   20.1010  -32.3460 C   0  0  0  0  0  0  0  0  0  0  0  0
   -8.9650   21.1690  -31.5460 C   0  0  0  0  0  0  0  0  0  0  0  0
   -8.0750   22.1790  -31.1730 C   0  0  0  0  0  0  0  0  0  0  0  0
   -6.7260   22.1300  -31.5780 C   0  0  0  0  0  0  0  0  0  0  0  0
   -5.7640   23.1970  -31.2000 C   0  0  0  0  0  0  0  0  0  0  0  0
   -6.1220   24.5540  -31.1990 C   0  0  0  0  0  0  0  0  0  0  0  0
   -5.1670   25.4990  -30.8280 C   0  0  0  0  0  0  0  0  0  0  0  0
   -3.9200   25.1010  -30.4710 N   0  0  0  0  0  0  0  0  0  0  0  0
   -3.5770   23.7850  -30.4640 C   0  0  0  0  0  0  0  0  0  0  0  0
   -2.2500   23.3800  -30.0760 N   0  0  0  0  0  0  0  0  0  0  0  0
   -1.6160   22.2370  -30.7410 C   0  0  0  0  0  0  0  0  0  0  0  0
   -1.5440   24.1120  -29.0210 C   0  0  0  0  0  0  0  0  0  0  0  0
   -4.5010   22.8520  -30.8260 N   0  0  0  0  0  0  0  0  0  0  0  0
   -6.2990   21.0520  -32.3750 C   0  0  0  0  0  0  0  0  0  0  0  0
   -7.1910   20.0430  -32.7460 C   0  0  0  0  0  0  0  0  0  0  0  0
   -9.8767   18.5364  -31.7957 H   0  0  0  0  0  0  0  0  0  0  0  0
  -10.3104   19.4097  -33.3044 H   0  0  0  0  0  0  0  0  0  0  0  0
   -8.9482   18.2389  -33.3044 H   0  0  0  0  0  0  0  0  0  0  0  0
  -10.0117   21.2113  -31.2104 H   0  0  0  0  0  0  0  0  0  0  0  0
   -8.4299   23.0193  -30.5583 H   0  0  0  0  0  0  0  0  0  0  0  0
   -7.1372   24.8659  -31.4856 H   0  0  0  0  0  0  0  0  0  0  0  0
   -5.4245   26.5684  -30.8246 H   0  0  0  0  0  0  0  0  0  0  0  0
   -1.2294   21.5400  -29.9829 H   0  0  0  0  0  0  0  0  0  0  0  0
   -2.3569   21.7212  -31.3694 H   0  0  0  0  0  0  0  0  0  0  0  0
   -0.7861   22.5925  -31.3694 H   0  0  0  0  0  0  0  0  0  0  0  0
   -1.8857   23.7577  -28.0373 H   0  0  0  0  0  0  0  0  0  0  0  0
   -0.4617   23.9404  -29.1169 H   0  0  0  0  0  0  0  0  0  0  0  0
   -1.7546   25.1874  -29.1169 H   0  0  0  0  0  0  0  0  0  0  0  0
   -5.2522   21.0032  -32.7093 H   0  0  0  0  0  0  0  0  0  0  0  0
   -6.8382   19.1982  -33.3557 H   0  0  0  0  0  0  0  0  0  0  0  0
  1  2  1  0
  2  3  2  0
  3  4  1  0
  4  5  2  0
  5  6  1  0
  6  7  2  0
  7  8  1  0
  8  9  2  0
  9 10  1  0
 10 11  1  0
 11 12  1  0
 11 13  1  0
 10 14  2  0
  5 15  1  0
 15 16  2  0
 16  2  1  0
 14  6  1  0
  1 17  1  0
  1 18  1  0
  1 19  1  0
  3 20  1  0
  4 21  1  0
  7 22  1  0
  8 23  1  0
 12 24  1  0
 12 25  1  0
 12 26  1  0
 13 27  1  0
 13 28  1  0
 13 29  1  0
 15 30  1  0
 16 31  1  0
M  END
>  <UniqueID>  (19) 
18

>  <SMILES>  (19) 
Cc1ccc(-c2ccnc(N(C)C)n2)cc1

>  <Energy>  (19) 
32.241313175630715

>  <Genealogy>  (19) 
Cc1ccc(-c2ccnc(N(C)C)n2)cc1 (3D coordinates assigned)
Cc1ccc(-c2ccnc(N(C)C)n2)cc1 (optimized conformer: 32.241313175630715 kcal/mol)

>  <smiles>  (19) 
Cc1ccc(-c2ccnc(N(C)C)n2)cc1

>  <score_type>  (19) 
oracle

>  <origin>  (19) 
adgpu

>  <m_score__min__energy>  (19) 
-6.7300000000000004

>  <m_primary>  (19) 
energy

$$$$
19:0
     RDKit          3D

 46 49  0  0  0  0  0  0  0  0999 V2000
   -3.5520   20.5680  -32.8410 C   0  0  0  0  0  0  0  0  0  0  0  0
   -4.2340   21.9260  -32.9630 C   0  0  0  0  0  0  0  0  0  0  0  0
   -5.6100   21.8930  -32.3450 C   0  0  0  0  0  0  0  0  0  0  0  0
   -6.3560   20.7010  -32.3890 C   0  0  0  0  0  0  0  0  0  0  0  0
   -7.6220   20.6360  -31.8050 C   0  0  0  0  0  0  0  0  0  0  0  0
   -8.1510   21.7510  -31.1570 C   0  0  0  0  0  0  0  0  0  0  0  0
   -7.4180   22.9370  -31.0910 C   0  0  0  0  0  0  0  0  0  0  0  0
   -6.1490   23.0250  -31.6940 C   0  0  0  0  0  0  0  0  0  0  0  0
   -5.3740   24.2310  -31.6050 N   0  0  0  0  0  0  0  0  0  0  0  0
   -4.3010   24.4820  -30.6880 C   0  0  0  0  0  0  0  0  0  0  0  0
   -3.8690   25.6600  -30.5720 O   0  0  0  0  0  0  0  0  0  0  0  0
   -3.7250   23.4110  -29.8410 C   0  0  0  0  0  0  0  0  0  0  0  0
   -4.3550   23.0340  -28.6250 C   0  0  0  0  0  0  0  0  0  0  0  0
   -3.8120   22.0180  -27.8190 C   0  0  0  0  0  0  0  0  0  0  0  0
   -2.6390   21.4020  -28.2430 C   0  0  0  0  0  0  0  0  0  0  0  0
   -2.0110   21.7730  -29.4100 C   0  0  0  0  0  0  0  0  0  0  0  0
   -2.5250   22.7750  -30.2300 C   0  0  0  0  0  0  0  0  0  0  0  0
   -0.8180   20.9470  -29.5550 C   0  0  0  0  0  0  0  0  0  0  0  0
   -0.0250   20.9760  -30.5330 O   0  0  0  0  0  0  0  0  0  0  0  0
   -0.7070   20.0460  -28.4460 N   0  0  0  0  0  0  0  0  0  0  0  0
    0.3170   19.0660  -28.2060 C   0  0  0  0  0  0  0  0  0  0  0  0
    1.6700   19.3870  -28.4080 C   0  0  0  0  0  0  0  0  0  0  0  0
    2.6660   18.4330  -28.1730 C   0  0  0  0  0  0  0  0  0  0  0  0
    2.3200   17.1520  -27.7370 C   0  0  0  0  0  0  0  0  0  0  0  0
    0.9780   16.8190  -27.5330 C   0  0  0  0  0  0  0  0  0  0  0  0
    0.6460   15.5360  -27.1010 O   0  0  0  0  0  0  0  0  0  0  0  0
   -0.0210   17.7740  -27.7660 C   0  0  0  0  0  0  0  0  0  0  0  0
   -1.8490   20.3390  -27.6310 C   0  0  0  0  0  0  0  0  0  0  0  0
   -2.0980   19.7890  -26.5260 O   0  0  0  0  0  0  0  0  0  0  0  0
   -3.4252   20.3156  -31.7779 H   0  0  0  0  0  0  0  0  0  0  0  0
   -4.1720   19.8012  -33.3285 H   0  0  0  0  0  0  0  0  0  0  0  0
   -2.5667   20.6074  -33.3285 H   0  0  0  0  0  0  0  0  0  0  0  0
   -3.6251   22.6828  -32.4468 H   0  0  0  0  0  0  0  0  0  0  0  0
   -4.3329   22.1759  -34.0297 H   0  0  0  0  0  0  0  0  0  0  0  0
   -5.9384   19.8137  -32.8873 H   0  0  0  0  0  0  0  0  0  0  0  0
   -8.2032   19.7035  -31.8562 H   0  0  0  0  0  0  0  0  0  0  0  0
   -9.1485   21.6961  -30.6966 H   0  0  0  0  0  0  0  0  0  0  0  0
   -7.8345   23.8084  -30.5645 H   0  0  0  0  0  0  0  0  0  0  0  0
   -5.2782   23.5427  -28.3104 H   0  0  0  0  0  0  0  0  0  0  0  0
   -4.3007   21.7188  -26.8800 H   0  0  0  0  0  0  0  0  0  0  0  0
   -2.0092   23.0639  -31.1576 H   0  0  0  0  0  0  0  0  0  0  0  0
    1.9476   20.3940  -28.7528 H   0  0  0  0  0  0  0  0  0  0  0  0
    3.7232   18.6922  -28.3318 H   0  0  0  0  0  0  0  0  0  0  0  0
    3.1052   16.4037  -27.5538 H   0  0  0  0  0  0  0  0  0  0  0  0
   -0.1410   15.3710  -26.4850 H   0  0  0  0  0  0  0  0  0  0  0  0
   -1.0767   17.5110  -27.6036 H   0  0  0  0  0  0  0  0  0  0  0  0
  1  2  1  0
  2  3  1  0
  3  4  2  0
  4  5  1  0
  5  6  2  0
  6  7  1  0
  7  8  2  0
  8  9  1  0
  9 10  1  0
 10 11  2  0
 10 12  1  0
 12 13  2  0
 13 14  1  0
 14 15  2  0
 15 16  1  0
 16 17  2  0
 16 18  1  0
 18 19  2  0
 18 20  1  0
 20 21  1  0
 21 22  2  0
 22 23  1  0
 23 24  2  0
 24 25  1  0
 25 26  1  0
 25 27  2  0
 20 28  1  0
 28 29  2  0
  8  3  1  0
 17 12  1  0
 27 21  1  0
 28 15  1  0
  1 30  1  0
  1 31  1  0
  1 32  1  0
  2 33  1  0
  2 34  1  0
  4 35  1  0
  5 36  1  0
  6 37  1  0
  7 38  1  0
 13 39  1  0
 14 40  1  0
 17 41  1  0
 22 42  1  0
 23 43  1  0
 24 44  1  0
 26 45  1  0
 27 46  1  0
M  CHG  1   9  -1
M  END
>  <UniqueID>  (20) 
19

>  <SMILES>  (20) 
CCc1ccccc1[N-]C(=O)c1ccc2c(c1)C(=O)N(c1cccc(O)c1)C2=O

>  <Energy>  (20) 
91.441778646771

>  <Genealogy>  (20) 
CCc1ccccc1[N-]C(=O)c1ccc2c(c1)C(=O)N(c1cccc(O)c1)C2=O (protonated)
CCc1ccccc1[N-]C(=O)c1ccc2c(c1)C(=O)N(c1cccc(O)c1)C2=O (3D coordinates assigned)
CCc1ccccc1[N-]C(=O)c1ccc2c(c1)C(=O)N(c1cccc(O)c1)C2=O (nonaromatic ring conformer: 91.441778646771 kcal/mol)

>  <smiles>  (20) 
CCc1ccccc1NC(=O)c1ccc2c(c1)C(=O)N(c1cccc(O)c1)C2=O

>  <score_type>  (20) 
oracle

>  <origin>  (20) 
adgpu

>  <m_score__min__energy>  (20) 
-10.76

>  <m_primary>  (20) 
energy

$$$$
20:0
     RDKit          3D

 25 26  0  0  0  0  0  0  0  0999 V2000
    1.8840   24.5490  -37.0550 O   0  0  0  0  0  0  0  0  0  0  0  0
    0.8810   24.0600  -36.4670 C   0  0  0  0  0  0  0  0  0  0  0  0
   -0.3660   24.7770  -36.4560 N   0  0  0  0  0  0  0  0  0  0  0  0
   -0.4940   26.1690  -36.7990 C   0  0  0  0  0  0  0  0  0  0  0  0
   -1.2330   26.5320  -37.9350 C   0  0  0  0  0  0  0  0  0  0  0  0
   -1.3890   27.8790  -38.2770 C   0  0  0  0  0  0  0  0  0  0  0  0
   -0.8230   28.8740  -37.4770 C   0  0  0  0  0  0  0  0  0  0  0  0
   -0.1050   28.5250  -36.3290 C   0  0  0  0  0  0  0  0  0  0  0  0
    0.6470   29.8890  -35.2230 Br  0  0  0  0  0  0  0  0  0  0  0  0
    0.0550   27.1780  -35.9860 C   0  0  0  0  0  0  0  0  0  0  0  0
    0.9830   22.7310  -35.8240 C   0  0  0  0  0  0  0  0  0  0  0  0
    2.1180   21.9220  -36.0080 C   0  0  0  0  0  0  0  0  0  0  0  0
    2.1820   20.6760  -35.3810 C   0  0  0  0  0  0  0  0  0  0  0  0
    1.1240   20.2460  -34.5790 C   0  0  0  0  0  0  0  0  0  0  0  0
    0.0120   21.0740  -34.4150 C   0  0  0  0  0  0  0  0  0  0  0  0
   -0.0320   22.2840  -35.0320 N   0  0  0  0  0  0  0  0  0  0  0  0
   -1.2440   24.2390  -36.2790 H   0  0  0  0  0  0  0  0  0  0  0  0
   -1.6925   25.7524  -38.5604 H   0  0  0  0  0  0  0  0  0  0  0  0
   -1.9581   28.1551  -39.1770 H   0  0  0  0  0  0  0  0  0  0  0  0
   -0.9421   29.9329  -37.7501 H   0  0  0  0  0  0  0  0  0  0  0  0
    0.6122   26.9066  -35.0772 H   0  0  0  0  0  0  0  0  0  0  0  0
    2.9488   22.2677  -36.6407 H   0  0  0  0  0  0  0  0  0  0  0  0
    3.0648   20.0345  -35.5190 H   0  0  0  0  0  0  0  0  0  0  0  0
    1.1657   19.2657  -34.0817 H   0  0  0  0  0  0  0  0  0  0  0  0
   -0.8290   20.7468  -33.7860 H   0  0  0  0  0  0  0  0  0  0  0  0
  1  2  2  0
  2  3  1  0
  3  4  1  0
  4  5  2  0
  5  6  1  0
  6  7  2  0
  7  8  1  0
  8  9  1  0
  8 10  2  0
  2 11  1  0
 11 12  2  0
 12 13  1  0
 13 14  2  0
 14 15  1  0
 15 16  2  0
 10  4  1  0
 16 11  1  0
  3 17  1  0
  5 18  1  0
  6 19  1  0
  7 20  1  0
 10 21  1  0
 12 22  1  0
 13 23  1  0
 14 24  1  0
 15 25  1  0
M  END
>  <UniqueID>  (21) 
20

>  <SMILES>  (21) 
O=C(Nc1cccc(Br)c1)c1ccccn1

>  <Energy>  (21) 
30.131270390279056

>  <Genealogy>  (21) 
O=C(Nc1cccc(Br)c1)c1ccccn1 (3D coordinates assigned)
O=C(Nc1cccc(Br)c1)c1ccccn1 (optimized conformer: 30.131270390279056 kcal/mol)

>  <smiles>  (21) 
O=C(Nc1cccc(Br)c1)c1ccccn1

>  <score_type>  (21) 
oracle

>  <origin>  (21) 
adgpu

>  <m_score__min__energy>  (21) 
-6.9199999999999999

>  <m_primary>  (21) 
energy

$$$$
21:0
     RDKit          3D

 22 23  0  0  0  0  0  0  0  0999 V2000
   -6.9098   21.1126  -31.9435 H   0  0  0  0  0  0  0  0  0  0  0  0
   -6.2900   21.9660  -31.6310 C   0  0  0  0  0  0  0  0  0  0  0  0
   -6.6840   23.2760  -31.9750 C   0  0  0  0  0  0  0  0  0  0  0  0
   -7.8670   23.4400  -32.7120 O   0  0  0  0  0  0  0  0  0  0  0  0
   -9.1700   23.1550  -32.2140 C   0  0  0  0  0  0  0  0  0  0  0  0
   -9.1512   23.1591  -31.1142 H   0  0  0  0  0  0  0  0  0  0  0  0
   -9.8747   23.9202  -32.5715 H   0  0  0  0  0  0  0  0  0  0  0  0
   -9.4909   22.1654  -32.5715 H   0  0  0  0  0  0  0  0  0  0  0  0
   -5.8870   24.3750  -31.5740 C   0  0  0  0  0  0  0  0  0  0  0  0
   -6.1808   25.4028  -31.8334 H   0  0  0  0  0  0  0  0  0  0  0  0
   -4.7220   24.1330  -30.8440 C   0  0  0  0  0  0  0  0  0  0  0  0
   -3.8800   25.1040  -30.4050 N   0  0  0  0  0  0  0  0  0  0  0  0
   -2.8400   24.5650  -29.7260 C   0  0  0  0  0  0  0  0  0  0  0  0
   -1.9000   25.2970  -29.2090 N   0  0  0  0  0  0  0  0  0  0  0  0
   -0.7610   24.7640  -28.4710 C   0  0  0  0  0  0  0  0  0  0  0  0
   -0.9500   24.8524  -27.3910 H   0  0  0  0  0  0  0  0  0  0  0  0
   -0.6175   23.7052  -28.7326 H   0  0  0  0  0  0  0  0  0  0  0  0
    0.1438   25.3322  -28.7326 H   0  0  0  0  0  0  0  0  0  0  0  0
   -2.9220   22.8680  -29.6420 S   0  0  0  0  0  0  0  0  0  0  0  0
   -4.3550   22.8380  -30.5170 C   0  0  0  0  0  0  0  0  0  0  0  0
   -5.1170   21.7380  -30.8950 C   0  0  0  0  0  0  0  0  0  0  0  0
   -4.8089   20.7172  -30.6246 H   0  0  0  0  0  0  0  0  0  0  0  0
  1  2  1  0
  2  3  2  0
  3  4  1  0
  4  5  1  0
  5  6  1  0
  5  7  1  0
  5  8  1  0
  3  9  1  0
  9 10  1  0
  9 11  2  0
 11 12  1  0
 12 13  1  0
 13 14  2  0
 14 15  1  0
 15 16  1  0
 15 17  1  0
 15 18  1  0
 13 19  1  0
 19 20  1  0
 20 21  2  0
 21 22  1  0
 21  2  1  0
 20 11  1  0
M  CHG  1  12  -1
M  END
>  <UniqueID>  (22) 
21

>  <SMILES>  (22) 
C/N=c1/[n-]c2cc(OC)ccc2s1

>  <Energy>  (22) 
55.36736627632989

>  <Genealogy>  (22) 
CN=c1[n-]c2cc(OC)ccc2s1 (protonated)
C/N=c1/[n-]c2cc(OC)ccc2s1 (cis-trans isomerization)
C/N=c1/[n-]c2cc(OC)ccc2s1 (3D coordinates assigned)
C/N=c1/[n-]c2cc(OC)ccc2s1 (optimized conformer: 55.36736627632989 kcal/mol)

>  <smiles>  (22) 
CN=c1[nH]c2cc(OC)ccc2s1

>  <score_type>  (22) 
oracle

>  <origin>  (22) 
adgpu

>  <m_score__min__energy>  (22) 
-6.8399999999999999

>  <m_primary>  (22) 
energy

$$$$
22:0
     RDKit          3D

 20 21  0  0  0  0  0  0  0  0999 V2000
   -6.3810   25.7190  -29.3580 C   0  0  0  0  0  0  0  0  0  0  0  0
   -5.8910   24.6710  -30.2970 C   0  0  0  0  0  0  0  0  0  0  0  0
   -4.6630   24.6650  -30.8470 N   0  0  0  0  0  0  0  0  0  0  0  0
   -4.5970   23.5720  -31.5900 N   0  0  0  0  0  0  0  0  0  0  0  0
   -5.7860   22.9500  -31.4600 C   0  0  0  0  0  0  0  0  0  0  0  0
   -6.1440   21.6810  -32.1240 C   0  0  0  0  0  0  0  0  0  0  0  0
   -5.1700   20.9270  -32.8020 C   0  0  0  0  0  0  0  0  0  0  0  0
   -5.5180   19.7270  -33.4290 C   0  0  0  0  0  0  0  0  0  0  0  0
   -6.8380   19.2690  -33.3860 C   0  0  0  0  0  0  0  0  0  0  0  0
   -7.8120   20.0120  -32.7150 C   0  0  0  0  0  0  0  0  0  0  0  0
   -9.0920   19.5680  -32.6730 F   0  0  0  0  0  0  0  0  0  0  0  0
   -7.4690   21.2140  -32.0860 C   0  0  0  0  0  0  0  0  0  0  0  0
   -6.5840   23.6210  -30.6620 O   0  0  0  0  0  0  0  0  0  0  0  0
   -6.2248   25.3848  -28.3217 H   0  0  0  0  0  0  0  0  0  0  0  0
   -5.8264   26.6533  -29.5295 H   0  0  0  0  0  0  0  0  0  0  0  0
   -7.4536   25.8925  -29.5295 H   0  0  0  0  0  0  0  0  0  0  0  0
   -4.1298   21.2828  -32.8392 H   0  0  0  0  0  0  0  0  0  0  0  0
   -4.7512   19.1417  -33.9575 H   0  0  0  0  0  0  0  0  0  0  0  0
   -7.1094   18.3244  -33.8801 H   0  0  0  0  0  0  0  0  0  0  0  0
   -8.2398   21.7959  -31.5595 H   0  0  0  0  0  0  0  0  0  0  0  0
  1  2  1  0
  2  3  2  0
  3  4  1  0
  4  5  2  0
  5  6  1  0
  6  7  2  0
  7  8  1  0
  8  9  2  0
  9 10  1  0
 10 11  1  0
 10 12  2  0
  5 13  1  0
 13  2  1  0
 12  6  1  0
  1 14  1  0
  1 15  1  0
  1 16  1  0
  7 17  1  0
  8 18  1  0
  9 19  1  0
 12 20  1  0
M  END
>  <UniqueID>  (23) 
22

>  <SMILES>  (23) 
Cc1nnc(-c2cccc(F)c2)o1

>  <Energy>  (23) 
53.63397552046983

>  <Genealogy>  (23) 
Cc1nnc(-c2cccc(F)c2)o1 (3D coordinates assigned)
Cc1nnc(-c2cccc(F)c2)o1 (optimized conformer: 53.63397552046983 kcal/mol)

>  <smiles>  (23) 
Cc1nnc(-c2cccc(F)c2)o1

>  <score_type>  (23) 
oracle

>  <origin>  (23) 
adgpu

>  <m_score__min__energy>  (23) 
-5.9000000000000004

>  <m_primary>  (23) 
energy

$$$$
23:0
     RDKit          3D

 30 31  0  0  0  0  0  0  0  0999 V2000
   -9.1080   18.5650  -31.9920 C   0  0  0  0  0  0  0  0  0  0  0  0
   -8.3310   19.8450  -32.0700 C   0  0  0  0  0  0  0  0  0  0  0  0
   -7.0600   19.8680  -32.6610 C   0  0  0  0  0  0  0  0  0  0  0  0
   -6.3200   21.0520  -32.6990 C   0  0  0  0  0  0  0  0  0  0  0  0
   -6.8290   22.2320  -32.1320 C   0  0  0  0  0  0  0  0  0  0  0  0
   -6.0370   23.4320  -32.1840 N   0  0  0  0  0  0  0  0  0  0  0  0
   -5.4600   24.2760  -30.7810 S   0  0  0  0  0  0  0  0  0  0  0  0
   -4.6220   25.4440  -31.2170 O   0  0  0  0  0  0  0  0  0  0  0  0
   -6.6370   24.7850  -29.9960 O   0  0  0  0  0  0  0  0  0  0  0  0
   -4.4700   23.2050  -29.7960 C   0  0  0  0  0  0  0  0  0  0  0  0
   -4.2530   23.4990  -28.4410 C   0  0  0  0  0  0  0  0  0  0  0  0
   -3.4590   22.6560  -27.6580 C   0  0  0  0  0  0  0  0  0  0  0  0
   -2.8810   21.5150  -28.2220 C   0  0  0  0  0  0  0  0  0  0  0  0
   -3.0990   21.2150  -29.5700 C   0  0  0  0  0  0  0  0  0  0  0  0
   -3.8910   22.0570  -30.3560 C   0  0  0  0  0  0  0  0  0  0  0  0
   -8.1010   22.2030  -31.5290 C   0  0  0  0  0  0  0  0  0  0  0  0
   -8.8390   21.0170  -31.4910 C   0  0  0  0  0  0  0  0  0  0  0  0
   -9.2700   18.2981  -30.9372 H   0  0  0  0  0  0  0  0  0  0  0  0
  -10.0798   18.6950  -32.4908 H   0  0  0  0  0  0  0  0  0  0  0  0
   -8.5442   17.7629  -32.4908 H   0  0  0  0  0  0  0  0  0  0  0  0
   -6.6431   18.9483  -33.0973 H   0  0  0  0  0  0  0  0  0  0  0  0
   -5.3295   21.0604  -33.1774 H   0  0  0  0  0  0  0  0  0  0  0  0
   -5.7260   23.7950  -33.1130 H   0  0  0  0  0  0  0  0  0  0  0  0
   -4.7087   24.3948  -27.9940 H   0  0  0  0  0  0  0  0  0  0  0  0
   -3.2889   22.8908  -26.5969 H   0  0  0  0  0  0  0  0  0  0  0  0
   -2.2548   20.8534  -27.6054 H   0  0  0  0  0  0  0  0  0  0  0  0
   -2.6467   20.3153  -30.0126 H   0  0  0  0  0  0  0  0  0  0  0  0
   -4.0605   21.8185  -31.4164 H   0  0  0  0  0  0  0  0  0  0  0  0
   -8.5164   23.1197  -31.0850 H   0  0  0  0  0  0  0  0  0  0  0  0
   -9.8250   21.0025  -31.0037 H   0  0  0  0  0  0  0  0  0  0  0  0
  1  2  1  0
  2  3  2  0
  3  4  1  0
  4  5  2  0
  5  6  1  0
  6  7  1  0
  7  8  2  0
  7  9  2  0
  7 10  1  0
 10 11  2  0
 11 12  1  0
 12 13  2  0
 13 14  1  0
 14 15  2  0
  5 16  1  0
 16 17  2  0
 17  2  1  0
 15 10  1  0
  1 18  1  0
  1 19  1  0
  1 20  1  0
  3 21  1  0
  4 22  1  0
  6 23  1  0
 11 24  1  0
 12 25  1  0
 13 26  1  0
 14 27  1  0
 15 28  1  0
 16 29  1  0
 17 30  1  0
M  END
>  <UniqueID>  (24) 
23

>  <SMILES>  (24) 
Cc1ccc(NS(=O)(=O)c2ccccc2)cc1

>  <Energy>  (24) 
32.33183313346726

>  <Genealogy>  (24) 
Cc1ccc(NS(=O)(=O)c2ccccc2)cc1 (3D coordinates assigned)
Cc1ccc(NS(=O)(=O)c2ccccc2)cc1 (optimized conformer: 32.33183313346726 kcal/mol)

>  <smiles>  (24) 
Cc1ccc(NS(=O)(=O)c2ccccc2)cc1

>  <score_type>  (24) 
oracle

>  <origin>  (24) 
adgpu

>  <m_score__min__energy>  (24) 
-7.46

>  <m_primary>  (24) 
energy

$$$$
24:0
     RDKit          3D

 33 35  0  0  0  0  0  0  0  0999 V2000
   -3.9730   25.5030  -30.4920 N   0  0  0  0  0  0  0  0  0  0  0  0
   -3.8480   24.0770  -30.5180 C   0  0  0  0  0  0  0  0  0  0  0  0
   -4.3630   23.3860  -31.5680 N   0  0  0  0  0  0  0  0  0  0  0  0
   -4.2690   22.0340  -31.6370 C   0  0  0  0  0  0  0  0  0  0  0  0
   -4.9520   21.1620  -33.0400 S   0  0  0  0  0  0  0  0  0  0  0  0
   -6.6280   21.3020  -32.4180 C   0  0  0  0  0  0  0  0  0  0  0  0
   -7.4250   20.1580  -32.2840 C   0  0  0  0  0  0  0  0  0  0  0  0
   -8.7310   20.2680  -31.7950 C   0  0  0  0  0  0  0  0  0  0  0  0
   -9.2420   21.5210  -31.4420 C   0  0  0  0  0  0  0  0  0  0  0  0
   -8.4490   22.6650  -31.5780 C   0  0  0  0  0  0  0  0  0  0  0  0
   -7.1440   22.5570  -32.0670 C   0  0  0  0  0  0  0  0  0  0  0  0
   -3.6370   21.3450  -30.6530 N   0  0  0  0  0  0  0  0  0  0  0  0
   -3.1040   21.9850  -29.5820 C   0  0  0  0  0  0  0  0  0  0  0  0
   -2.4890   21.3160  -28.7090 O   0  0  0  0  0  0  0  0  0  0  0  0
   -3.2210   23.3840  -29.4690 C   0  0  0  0  0  0  0  0  0  0  0  0
   -2.6550   24.1060  -28.3640 N   0  0  0  0  0  0  0  0  0  0  0  0
   -1.4610   24.8980  -28.3990 C   0  0  0  0  0  0  0  0  0  0  0  0
   -1.4940   26.0230  -28.9640 O   0  0  0  0  0  0  0  0  0  0  0  0
   -0.2210   24.4590  -27.7320 C   0  0  0  0  0  0  0  0  0  0  0  0
   -0.1480   23.7500  -26.5480 C   0  0  0  0  0  0  0  0  0  0  0  0
    1.1960   23.5560  -26.3130 C   0  0  0  0  0  0  0  0  0  0  0  0
    1.8590   24.1530  -27.3660 C   0  0  0  0  0  0  0  0  0  0  0  0
    0.9880   24.6800  -28.1950 O   0  0  0  0  0  0  0  0  0  0  0  0
   -4.5290   26.0190  -31.2090 H   0  0  0  0  0  0  0  0  0  0  0  0
   -3.4990   26.0530  -29.7430 H   0  0  0  0  0  0  0  0  0  0  0  0
   -7.0238   19.1726  -32.5634 H   0  0  0  0  0  0  0  0  0  0  0  0
   -9.3559   19.3691  -31.6882 H   0  0  0  0  0  0  0  0  0  0  0  0
  -10.2688   21.6069  -31.0569 H   0  0  0  0  0  0  0  0  0  0  0  0
   -8.8524   23.6499  -31.3001 H   0  0  0  0  0  0  0  0  0  0  0  0
   -6.5217   23.4574  -32.1764 H   0  0  0  0  0  0  0  0  0  0  0  0
   -0.9876   23.4111  -25.9234 H   0  0  0  0  0  0  0  0  0  0  0  0
    1.6488   23.0314  -25.4588 H   0  0  0  0  0  0  0  0  0  0  0  0
    2.9514   24.1828  -27.4916 H   0  0  0  0  0  0  0  0  0  0  0  0
  1  2  1  0
  2  3  1  0
  3  4  1  0
  4  5  1  0
  5  6  1  0
  6  7  2  0
  7  8  1  0
  8  9  2  0
  9 10  1  0
 10 11  2  0
  4 12  2  0
 12 13  1  0
 13 14  2  0
 13 15  1  0
 15 16  1  0
 16 17  1  0
 17 18  2  0
 17 19  1  0
 19 20  2  0
 20 21  1  0
 21 22  2  0
 22 23  1  0
 15  2  2  0
 23 19  1  0
 11  6  1  0
  1 24  1  0
  1 25  1  0
  7 26  1  0
  8 27  1  0
  9 28  1  0
 10 29  1  0
 11 30  1  0
 20 31  1  0
 21 32  1  0
 22 33  1  0
M  CHG  2   3  -1  16  -1
M  END
>  <UniqueID>  (25) 
24

>  <SMILES>  (25) 
Nc1[n-]c(Sc2ccccc2)nc(=O)c1[N-]C(=O)c1ccco1

>  <Energy>  (25) 
63.94918234271568

>  <Genealogy>  (25) 
Nc1[n-]c(Sc2ccccc2)nc(=O)c1[N-]C(=O)c1ccco1 (protonated)
Nc1[n-]c(Sc2ccccc2)nc(=O)c1[N-]C(=O)c1ccco1 (3D coordinates assigned)
Nc1[n-]c(Sc2ccccc2)nc(=O)c1[N-]C(=O)c1ccco1 (optimized conformer: 63.94918234271568 kcal/mol)

>  <smiles>  (25) 
Nc1[nH]c(Sc2ccccc2)nc(=O)c1NC(=O)c1ccco1

>  <score_type>  (25) 
oracle

>  <origin>  (25) 
adgpu

>  <m_score__min__energy>  (25) 
-10.19

>  <m_primary>  (25) 
energy

$$$$
25:0
     RDKit          3D

 27 28  0  0  0  0  0  0  0  0999 V2000
   -4.0290   22.2940  -32.2220 C   0  0  0  0  0  0  0  0  0  0  0  0
   -5.2080   22.8140  -31.5290 N   0  0  0  0  0  0  0  0  0  0  0  0
   -6.5010   22.2050  -31.7320 C   0  0  0  0  0  0  0  0  0  0  0  0
   -6.6170   20.8150  -31.9280 C   0  0  0  0  0  0  0  0  0  0  0  0
   -7.8690   20.2300  -32.1340 C   0  0  0  0  0  0  0  0  0  0  0  0
   -9.0190   21.0220  -32.1490 C   0  0  0  0  0  0  0  0  0  0  0  0
  -10.2330   20.4530  -32.3490 F   0  0  0  0  0  0  0  0  0  0  0  0
   -8.9180   22.4020  -31.9630 C   0  0  0  0  0  0  0  0  0  0  0  0
   -7.6670   22.9930  -31.7570 C   0  0  0  0  0  0  0  0  0  0  0  0
   -5.0130   24.1340  -30.4100 S   0  0  0  0  0  0  0  0  0  0  0  0
   -4.5830   25.3710  -31.1500 O   0  0  0  0  0  0  0  0  0  0  0  0
   -6.3260   24.4090  -29.7320 O   0  0  0  0  0  0  0  0  0  0  0  0
   -3.8040   23.7180  -29.2100 C   0  0  0  0  0  0  0  0  0  0  0  0
   -3.8760   22.6570  -28.3220 C   0  0  0  0  0  0  0  0  0  0  0  0
   -2.7570   22.5700  -27.4870 C   0  0  0  0  0  0  0  0  0  0  0  0
   -1.8100   23.5610  -27.7180 C   0  0  0  0  0  0  0  0  0  0  0  0
   -2.3630   24.5460  -28.9640 S   0  0  0  0  0  0  0  0  0  0  0  0
   -3.2841   21.9655  -31.4823 H   0  0  0  0  0  0  0  0  0  0  0  0
   -4.3207   21.4410  -32.8524 H   0  0  0  0  0  0  0  0  0  0  0  0
   -3.5958   23.0846  -32.8524 H   0  0  0  0  0  0  0  0  0  0  0  0
   -5.7151   20.1853  -31.9188 H   0  0  0  0  0  0  0  0  0  0  0  0
   -7.9490   19.1433  -32.2847 H   0  0  0  0  0  0  0  0  0  0  0  0
   -9.8239   23.0257  -31.9785 H   0  0  0  0  0  0  0  0  0  0  0  0
   -7.5940   24.0812  -31.6135 H   0  0  0  0  0  0  0  0  0  0  0  0
   -4.7234   21.9570  -28.2782 H   0  0  0  0  0  0  0  0  0  0  0  0
   -2.6377   21.7907  -26.7198 H   0  0  0  0  0  0  0  0  0  0  0  0
   -0.8596   23.6807  -27.1773 H   0  0  0  0  0  0  0  0  0  0  0  0
  1  2  1  0
  2  3  1  0
  3  4  2  0
  4  5  1  0
  5  6  2  0
  6  7  1  0
  6  8  1  0
  8  9  2  0
  2 10  1  0
 10 11  2  0
 10 12  2  0
 10 13  1  0
 13 14  2  0
 14 15  1  0
 15 16  2  0
 16 17  1  0
  9  3  1  0
 17 13  1  0
  1 18  1  0
  1 19  1  0
  1 20  1  0
  4 21  1  0
  5 22  1  0
  8 23  1  0
  9 24  1  0
 14 25  1  0
 15 26  1  0
 16 27  1  0
M  END
>  <UniqueID>  (26) 
25

>  <SMILES>  (26) 
CN(c1ccc(F)cc1)S(=O)(=O)c1cccs1

>  <Energy>  (26) 
57.47034338650241

>  <Genealogy>  (26) 
CN(c1ccc(F)cc1)S(=O)(=O)c1cccs1 (3D coordinates assigned)
CN(c1ccc(F)cc1)S(=O)(=O)c1cccs1 (optimized conformer: 57.47034338650241 kcal/mol)

>  <smiles>  (26) 
CN(c1ccc(F)cc1)S(=O)(=O)c1cccs1

>  <score_type>  (26) 
oracle

>  <origin>  (26) 
adgpu

>  <m_score__min__energy>  (26) 
-6.5899999999999999

>  <m_primary>  (26) 
energy

$$$$
26:0
     RDKit          3D

 27 28  0  0  0  0  0  0  0  0999 V2000
   -2.7500   24.5610  -27.1570 C   0  0  0  0  0  0  0  0  0  0  0  0
   -2.3580   24.8230  -28.6070 C   0  0  0  0  0  0  0  0  0  0  0  0
   -3.4360   24.3620  -29.5370 C   0  0  0  0  0  0  0  0  0  0  0  0
   -4.0900   23.1500  -29.4830 C   0  0  0  0  0  0  0  0  0  0  0  0
   -4.9290   23.1840  -30.5830 C   0  0  0  0  0  0  0  0  0  0  0  0
   -5.8810   22.1400  -31.0240 C   0  0  0  0  0  0  0  0  0  0  0  0
   -7.2560   22.3130  -30.7960 C   0  0  0  0  0  0  0  0  0  0  0  0
   -8.1720   21.3390  -31.2050 C   0  0  0  0  0  0  0  0  0  0  0  0
   -7.7300   20.1640  -31.8350 C   0  0  0  0  0  0  0  0  0  0  0  0
   -8.7220   19.1380  -32.3210 C   0  0  0  0  0  0  0  0  0  0  0  0
   -9.3140   18.5260  -31.2320 F   0  0  0  0  0  0  0  0  0  0  0  0
   -8.0930   18.1750  -33.0920 F   0  0  0  0  0  0  0  0  0  0  0  0
   -9.7050   19.7350  -33.0920 F   0  0  0  0  0  0  0  0  0  0  0  0
   -6.3580   20.0030  -32.0880 C   0  0  0  0  0  0  0  0  0  0  0  0
   -5.4420   20.9770  -31.6790 C   0  0  0  0  0  0  0  0  0  0  0  0
   -4.7480   24.3270  -31.2090 O   0  0  0  0  0  0  0  0  0  0  0  0
   -3.8520   25.0580  -30.6120 N   0  0  0  0  0  0  0  0  0  0  0  0
   -2.0243   25.0460  -26.4876 H   0  0  0  0  0  0  0  0  0  0  0  0
   -3.7533   24.9707  -26.9687 H   0  0  0  0  0  0  0  0  0  0  0  0
   -2.7552   23.4773  -26.9687 H   0  0  0  0  0  0  0  0  0  0  0  0
   -2.1961   25.9018  -28.7482 H   0  0  0  0  0  0  0  0  0  0  0  0
   -1.4358   24.2666  -28.8305 H   0  0  0  0  0  0  0  0  0  0  0  0
   -3.9728   22.3462  -28.7413 H   0  0  0  0  0  0  0  0  0  0  0  0
   -7.6152   23.2221  -30.2916 H   0  0  0  0  0  0  0  0  0  0  0  0
   -9.2472   21.4941  -31.0320 H   0  0  0  0  0  0  0  0  0  0  0  0
   -6.0013   19.1039  -32.6119 H   0  0  0  0  0  0  0  0  0  0  0  0
   -4.3688   20.8316  -31.8716 H   0  0  0  0  0  0  0  0  0  0  0  0
  1  2  1  0
  2  3  1  0
  3  4  1  0
  4  5  2  0
  5  6  1  0
  6  7  2  0
  7  8  1  0
  8  9  2  0
  9 10  1  0
 10 11  1  0
 10 12  1  0
 10 13  1  0
  9 14  1  0
 14 15  2  0
  5 16  1  0
 16 17  1  0
 17  3  2  0
 15  6  1  0
  1 18  1  0
  1 19  1  0
  1 20  1  0
  2 21  1  0
  2 22  1  0
  4 23  1  0
  7 24  1  0
  8 25  1  0
 14 26  1  0
 15 27  1  0
M  END
>  <UniqueID>  (27) 
26

>  <SMILES>  (27) 
CCc1cc(-c2ccc(C(F)(F)F)cc2)on1

>  <Energy>  (27) 
55.01275898755455

>  <Genealogy>  (27) 
CCc1cc(-c2ccc(C(F)(F)F)cc2)on1 (3D coordinates assigned)
CCc1cc(-c2ccc(C(F)(F)F)cc2)on1 (optimized conformer: 55.01275898755455 kcal/mol)

>  <smiles>  (27) 
CCc1cc(-c2ccc(C(F)(F)F)cc2)on1

>  <score_type>  (27) 
oracle

>  <origin>  (27) 
adgpu

>  <m_score__min__energy>  (27) 
-6.5

>  <m_primary>  (27) 
energy

$$$$
27:0
     RDKit          3D

 44 47  0  0  0  0  0  0  0  0999 V2000
   -3.5359   24.8833  -29.5624 H   0  0  0  0  0  0  0  0  0  0  0  0
   -4.4760   24.5890  -30.0520 C   0  0  0  0  0  0  0  0  0  0  0  0
   -4.4440   23.8860  -31.2150 N   0  0  0  0  0  0  0  0  0  0  0  0
   -5.5850   23.5000  -31.8480 C   0  0  0  0  0  0  0  0  0  0  0  0
   -5.5251   22.9377  -32.7915 H   0  0  0  0  0  0  0  0  0  0  0  0
   -6.8380   23.8170  -31.3010 C   0  0  0  0  0  0  0  0  0  0  0  0
   -8.1110   23.4000  -31.9900 C   0  0  0  0  0  0  0  0  0  0  0  0
   -7.9230   23.3080  -33.0699 H   0  0  0  0  0  0  0  0  0  0  0  0
   -8.8811   24.1619  -31.7987 H   0  0  0  0  0  0  0  0  0  0  0  0
   -8.5850   22.1140  -31.4740 N   0  0  0  0  0  0  0  0  0  0  0  0
   -9.3040   22.1430  -30.7140 H   0  0  0  0  0  0  0  0  0  0  0  0
   -8.0920   20.8280  -31.9020 C   0  0  0  0  0  0  0  0  0  0  0  0
   -8.9780   19.7450  -31.9620 C   0  0  0  0  0  0  0  0  0  0  0  0
  -10.0355   19.8907  -31.6966 H   0  0  0  0  0  0  0  0  0  0  0  0
   -8.5320   18.4840  -32.3550 C   0  0  0  0  0  0  0  0  0  0  0  0
   -9.2408   17.6439  -32.3972 H   0  0  0  0  0  0  0  0  0  0  0  0
   -7.1880   18.2770  -32.6970 C   0  0  0  0  0  0  0  0  0  0  0  0
   -6.2750   19.3570  -32.6500 C   0  0  0  0  0  0  0  0  0  0  0  0
   -6.7440   20.6300  -32.2560 C   0  0  0  0  0  0  0  0  0  0  0  0
   -6.0454   21.4792  -32.2254 H   0  0  0  0  0  0  0  0  0  0  0  0
   -4.9130   19.1320  -32.9740 C   0  0  0  0  0  0  0  0  0  0  0  0
   -4.0790   20.1400  -32.8700 N   0  0  0  0  0  0  0  0  0  0  0  0
   -2.6500   20.1560  -32.9590 C   0  0  0  0  0  0  0  0  0  0  0  0
   -1.8630   19.8890  -31.8270 C   0  0  0  0  0  0  0  0  0  0  0  0
   -2.3432   19.6135  -30.8765 H   0  0  0  0  0  0  0  0  0  0  0  0
   -0.4700   19.9730  -31.9070 C   0  0  0  0  0  0  0  0  0  0  0  0
    0.1454   19.7447  -31.0243 H   0  0  0  0  0  0  0  0  0  0  0  0
    0.1430   20.3470  -33.1080 C   0  0  0  0  0  0  0  0  0  0  0  0
    1.4950   20.4260  -33.1750 F   0  0  0  0  0  0  0  0  0  0  0  0
   -0.6410   20.6490  -34.2290 C   0  0  0  0  0  0  0  0  0  0  0  0
    0.1150   21.1410  -35.7350 Cl  0  0  0  0  0  0  0  0  0  0  0  0
   -2.0370   20.5670  -34.1490 C   0  0  0  0  0  0  0  0  0  0  0  0
   -2.6530   20.8260  -35.0228 H   0  0  0  0  0  0  0  0  0  0  0  0
   -4.5270   17.8310  -33.4080 C   0  0  0  0  0  0  0  0  0  0  0  0
   -3.2230   17.5150  -33.9450 C   0  0  0  0  0  0  0  0  0  0  0  0
   -2.1820   17.2530  -34.3810 N   0  0  0  0  0  0  0  0  0  0  0  0
   -5.4780   16.8050  -33.4310 C   0  0  0  0  0  0  0  0  0  0  0  0
   -5.1779   15.7943  -33.7448 H   0  0  0  0  0  0  0  0  0  0  0  0
   -6.7640   17.0390  -33.0720 N   0  0  0  0  0  0  0  0  0  0  0  0
   -7.4400   16.2420  -33.1070 H   0  0  0  0  0  0  0  0  0  0  0  0
   -6.8850   24.5530  -30.1080 C   0  0  0  0  0  0  0  0  0  0  0  0
   -7.8554   24.8270  -29.6685 H   0  0  0  0  0  0  0  0  0  0  0  0
   -5.6990   24.9380  -29.4780 C   0  0  0  0  0  0  0  0  0  0  0  0
   -5.7290   25.5104  -28.5391 H   0  0  0  0  0  0  0  0  0  0  0  0
  1  2  1  0
  2  3  2  0
  3  4  1  0
  4  5  1  0
  4  6  2  0
  6  7  1  0
  7  8  1  0
  7  9  1  0
  7 10  1  0
 10 11  1  0
 10 12  1  0
 12 13  2  0
 13 14  1  0
 13 15  1  0
 15 16  1  0
 15 17  2  0
 17 18  1  0
 18 19  2  0
 19 20  1  0
 18 21  1  0
 21 22  2  0
 22 23  1  0
 23 24  2  0
 24 25  1  0
 24 26  1  0
 26 27  1  0
 26 28  2  0
 28 29  1  0
 28 30  1  0
 30 31  1  0
 30 32  2  0
 32 33  1  0
 21 34  1  0
 34 35  1  0
 35 36  3  0
 34 37  2  0
 37 38  1  0
 37 39  1  0
 39 40  1  0
  6 41  1  0
 41 42  1  0
 41 43  2  0
 43 44  1  0
 43  2  1  0
 19 12  1  0
 32 23  1  0
 39 17  1  0
M  END
>  <UniqueID>  (28) 
27

>  <SMILES>  (28) 
N#Cc1c[nH]c2ccc(NCc3cccnc3)cc2/c1=N/c1ccc(F)c(Cl)c1

>  <Energy>  (28) 
69.21083022742498

>  <Genealogy>  (28) 
N#Cc1c[nH]c2ccc(NCc3cccnc3)cc2/c1=N/c1ccc(F)c(Cl)c1 (cis-trans isomerization)
N#Cc1c[nH]c2ccc(NCc3cccnc3)cc2/c1=N/c1ccc(F)c(Cl)c1 (3D coordinates assigned)
N#Cc1c[nH]c2ccc(NCc3cccnc3)cc2/c1=N/c1ccc(F)c(Cl)c1 (optimized conformer: 69.21083022742498 kcal/mol)

>  <smiles>  (28) 
N#Cc1c[nH]c2ccc(NCc3cccnc3)cc2c1=Nc1ccc(F)c(Cl)c1

>  <score_type>  (28) 
oracle

>  <origin>  (28) 
adgpu

>  <m_score__min__energy>  (28) 
-9.3800000000000008

>  <m_primary>  (28) 
energy

$$$$
28:0
     RDKit          3D

 30 30  0  0  0  0  0  0  0  0999 V2000
   -1.7620   21.9220  -31.3920 C   0  0  0  0  0  0  0  0  0  0  0  0
   -2.9310   22.4220  -30.6450 N   0  0  0  0  0  0  0  0  0  0  0  0
   -3.8810   21.3150  -30.4190 C   0  0  0  0  0  0  0  0  0  0  0  0
   -2.4830   23.0370  -29.3710 C   0  0  0  0  0  0  0  0  0  0  0  0
   -2.8590   24.5270  -29.2510 C   0  0  0  0  0  0  0  0  0  0  0  0
   -3.4940   25.0170  -30.4690 N   0  0  0  0  0  0  0  0  0  0  0  0
   -4.8990   25.2650  -30.5940 C   0  0  0  0  0  0  0  0  0  0  0  0
   -5.3410   26.4410  -30.4720 O   0  0  0  0  0  0  0  0  0  0  0  0
   -5.8310   24.1470  -30.8660 C   0  0  0  0  0  0  0  0  0  0  0  0
   -5.8470   23.5180  -32.1260 C   0  0  0  0  0  0  0  0  0  0  0  0
   -6.7240   22.4590  -32.3780 C   0  0  0  0  0  0  0  0  0  0  0  0
   -7.5950   22.0150  -31.3800 C   0  0  0  0  0  0  0  0  0  0  0  0
   -8.6950   20.6870  -31.7000 Cl  0  0  0  0  0  0  0  0  0  0  0  0
   -7.5880   22.6310  -30.1240 C   0  0  0  0  0  0  0  0  0  0  0  0
   -6.7120   23.6900  -29.8680 C   0  0  0  0  0  0  0  0  0  0  0  0
   -0.9883   21.5911  -30.6836 H   0  0  0  0  0  0  0  0  0  0  0  0
   -2.0660   21.0752  -32.0248 H   0  0  0  0  0  0  0  0  0  0  0  0
   -1.3596   22.7268  -32.0248 H   0  0  0  0  0  0  0  0  0  0  0  0
   -3.3980   23.1490  -31.2370 H   0  0  0  0  0  0  0  0  0  0  0  0
   -4.0136   21.1605  -29.3380 H   0  0  0  0  0  0  0  0  0  0  0  0
   -4.8503   21.5647  -30.8753 H   0  0  0  0  0  0  0  0  0  0  0  0
   -3.4871   20.3949  -30.8753 H   0  0  0  0  0  0  0  0  0  0  0  0
   -2.9476   22.4909  -28.5368 H   0  0  0  0  0  0  0  0  0  0  0  0
   -1.3851   22.9738  -29.3457 H   0  0  0  0  0  0  0  0  0  0  0  0
   -3.5554   24.6534  -28.4090 H   0  0  0  0  0  0  0  0  0  0  0  0
   -1.9370   25.1038  -29.0860 H   0  0  0  0  0  0  0  0  0  0  0  0
   -5.1648   23.8624  -32.9172 H   0  0  0  0  0  0  0  0  0  0  0  0
   -6.7283   21.9738  -33.3652 H   0  0  0  0  0  0  0  0  0  0  0  0
   -8.2725   22.2817  -29.3370 H   0  0  0  0  0  0  0  0  0  0  0  0
   -6.7113   24.1701  -28.8783 H   0  0  0  0  0  0  0  0  0  0  0  0
  1  2  1  0
  2  3  1  0
  2  4  1  0
  4  5  1  0
  5  6  1  0
  6  7  1  0
  7  8  2  0
  7  9  1  0
  9 10  2  0
 10 11  1  0
 11 12  2  0
 12 13  1  0
 12 14  1  0
 14 15  2  0
 15  9  1  0
  1 16  1  0
  1 17  1  0
  1 18  1  0
  2 19  1  0
  3 20  1  0
  3 21  1  0
  3 22  1  0
  4 23  1  0
  4 24  1  0
  5 25  1  0
  5 26  1  0
 10 27  1  0
 11 28  1  0
 14 29  1  0
 15 30  1  0
M  CHG  2   2   1   6  -1
M  END
>  <UniqueID>  (29) 
28

>  <SMILES>  (29) 
C[NH+](C)CC[N-]C(=O)c1ccc(Cl)cc1

>  <Energy>  (29) 
27.19672669913126

>  <Genealogy>  (29) 
C[NH+](C)CC[N-]C(=O)c1ccc(Cl)cc1 (protonated)
C[NH+](C)CC[N-]C(=O)c1ccc(Cl)cc1 (3D coordinates assigned)
C[NH+](C)CC[N-]C(=O)c1ccc(Cl)cc1 (optimized conformer: 27.19672669913126 kcal/mol)

>  <smiles>  (29) 
CN(C)CCNC(=O)c1ccc(Cl)cc1

>  <score_type>  (29) 
oracle

>  <origin>  (29) 
adgpu

>  <m_score__min__energy>  (29) 
-6.8300000000000001

>  <m_primary>  (29) 
energy

$$$$
29:0
     RDKit          3D

 39 41  0  0  1  0  0  0  0  0999 V2000
   -6.5300   25.3240  -29.6830 C   0  0  0  0  0  0  0  0  0  0  0  0
   -6.4680   24.9430  -31.0360 O   0  0  0  0  0  0  0  0  0  0  0  0
   -6.0900   23.6660  -31.4610 C   0  0  0  0  0  0  0  0  0  0  0  0
   -7.0550   22.7940  -31.9770 C   0  0  0  0  0  0  0  0  0  0  0  0
   -6.7070   21.5290  -32.4030 C   0  0  0  0  0  0  0  0  0  0  0  0
   -5.3950   21.1100  -32.3240 C   0  0  0  0  0  0  0  0  0  0  0  0
   -4.4460   21.9770  -31.8120 C   0  0  0  0  0  0  0  0  0  0  0  0
   -4.7570   23.2490  -31.3770 C   0  0  0  0  0  0  0  0  0  0  0  0
   -3.7610   24.1200  -30.8550 N   0  0  0  0  0  0  0  0  0  0  0  0
   -3.4060   24.1670  -29.6300 C   0  0  0  0  0  0  0  0  0  0  0  0
   -3.9930   23.3470  -28.7390 N   0  0  0  0  0  0  0  0  0  0  0  0
   -3.5850   23.4340  -27.4670 C   0  0  0  0  0  0  0  0  0  0  0  0
   -2.6110   24.3100  -27.0480 C   0  0  0  0  0  0  0  0  0  0  0  0
   -2.0470   25.1250  -28.0130 C   0  0  0  0  0  0  0  0  0  0  0  0
   -1.1260   25.9770  -27.7100 N   0  0  0  0  0  0  0  0  0  0  0  0
   -0.6360   26.1320  -26.3840 C   0  0  0  0  0  0  0  0  0  0  0  0
   -1.0260   27.1580  -25.5470 C   0  0  0  0  0  0  0  0  0  0  0  0
   -0.5030   27.2490  -24.2530 C   0  0  0  0  0  0  0  0  0  0  0  0
    0.4190   26.3050  -23.7920 C   0  0  0  0  0  0  0  0  0  0  0  0
    0.8000   25.2790  -24.6460 C   0  0  0  0  0  0  0  0  0  0  0  0
    1.7300   24.3340  -24.1710 O   0  0  0  0  0  0  0  0  0  0  0  0
    0.2860   25.1880  -25.9220 C   0  0  0  0  0  0  0  0  0  0  0  0
   -2.4440   25.0510  -29.2960 N   0  0  0  0  0  0  0  0  0  0  0  0
   -6.3860   24.4389  -29.0459 H   0  0  0  0  0  0  0  0  0  0  0  0
   -5.7398   26.0597  -29.4727 H   0  0  0  0  0  0  0  0  0  0  0  0
   -7.5127   25.7712  -29.4727 H   0  0  0  0  0  0  0  0  0  0  0  0
   -8.1032   23.1210  -32.0437 H   0  0  0  0  0  0  0  0  0  0  0  0
   -7.4762   20.8538  -32.8060 H   0  0  0  0  0  0  0  0  0  0  0  0
   -5.1081   20.1034  -32.6624 H   0  0  0  0  0  0  0  0  0  0  0  0
   -3.4013   21.6385  -31.7492 H   0  0  0  0  0  0  0  0  0  0  0  0
   -4.7220   22.6950  -29.0630 H   0  0  0  0  0  0  0  0  0  0  0  0
   -4.0510   22.7733  -26.7212 H   0  0  0  0  0  0  0  0  0  0  0  0
   -2.2955   24.3602  -25.9954 H   0  0  0  0  0  0  0  0  0  0  0  0
   -1.7508   27.9068  -25.8990 H   0  0  0  0  0  0  0  0  0  0  0  0
   -0.8198   28.0699  -23.5929 H   0  0  0  0  0  0  0  0  0  0  0  0
    0.8334   26.3735  -22.7753 H   0  0  0  0  0  0  0  0  0  0  0  0
    1.7730   24.2620  -23.1440 H   0  0  0  0  0  0  0  0  0  0  0  0
    0.6036   24.3668  -26.5813 H   0  0  0  0  0  0  0  0  0  0  0  0
   -2.0100   25.6770  -30.0310 H   0  0  0  0  0  0  0  0  0  0  0  0
  1  2  1  0
  2  3  1  0
  3  4  2  0
  4  5  1  0
  5  6  2  0
  6  7  1  0
  7  8  2  0
  8  9  1  0
  9 10  2  0
 10 11  1  0
 11 12  1  0
 12 13  2  0
 13 14  1  0
 14 15  2  0
 15 16  1  0
 16 17  2  0
 17 18  1  0
 18 19  2  0
 19 20  1  0
 20 21  1  0
 20 22  2  0
 14 23  1  0
  8  3  1  0
 23 10  1  0
 22 16  1  0
  1 24  1  0
  1 25  1  0
  1 26  1  0
  4 27  1  0
  5 28  1  0
  6 29  1  0
  7 30  1  0
 11 31  1  0
 12 32  1  0
 13 33  1  0
 17 34  1  0
 18 35  1  0
 19 36  1  0
 21 37  1  0
 22 38  1  0
 23 39  1  0
M  END
>  <smiles>  (30) 
COc1ccccc1N=c1[nH]ccc(=Nc2cccc(O)c2)[nH]1

>  <score_type>  (30) 
oracle

>  <origin>  (30) 
adgpu

>  <m_score__min__energy>  (30) 
-8.1699999999999999

>  <m_primary>  (30) 
energy

$$$$
30:0
     RDKit          3D

 24 26  0  0  0  0  0  0  0  0999 V2000
   -8.7200   20.3980  -32.3640 C   0  0  0  0  0  0  0  0  0  0  0  0
   -9.1130   21.4380  -31.5200 C   0  0  0  0  0  0  0  0  0  0  0  0
   -8.1660   22.3480  -31.0380 C   0  0  0  0  0  0  0  0  0  0  0  0
   -6.8120   22.2220  -31.3990 C   0  0  0  0  0  0  0  0  0  0  0  0
   -5.8350   23.1560  -30.9050 N   0  0  0  0  0  0  0  0  0  0  0  0
   -5.3700   24.1880  -31.5900 N   0  0  0  0  0  0  0  0  0  0  0  0
   -4.4900   24.8400  -30.8470 N   0  0  0  0  0  0  0  0  0  0  0  0
   -4.4460   24.1550  -29.6860 C   0  0  0  0  0  0  0  0  0  0  0  0
   -3.5970   24.5170  -28.5460 C   0  0  0  0  0  0  0  0  0  0  0  0
   -3.9890   24.5480  -27.2140 C   0  0  0  0  0  0  0  0  0  0  0  0
   -2.9590   24.9310  -26.3470 C   0  0  0  0  0  0  0  0  0  0  0  0
   -1.7590   25.2020  -26.9910 C   0  0  0  0  0  0  0  0  0  0  0  0
   -1.9780   24.9640  -28.6410 S   0  0  0  0  0  0  0  0  0  0  0  0
   -5.2820   23.1000  -29.7050 N   0  0  0  0  0  0  0  0  0  0  0  0
   -6.4270   21.1690  -32.2490 C   0  0  0  0  0  0  0  0  0  0  0  0
   -7.3780   20.2640  -32.7280 C   0  0  0  0  0  0  0  0  0  0  0  0
   -9.4667   19.6843  -32.7423 H   0  0  0  0  0  0  0  0  0  0  0  0
  -10.1698   21.5423  -31.2332 H   0  0  0  0  0  0  0  0  0  0  0  0
   -8.4815   23.1659  -30.3736 H   0  0  0  0  0  0  0  0  0  0  0  0
   -5.0050   24.2972  -26.8750 H   0  0  0  0  0  0  0  0  0  0  0  0
   -3.0881   25.0099  -25.2575 H   0  0  0  0  0  0  0  0  0  0  0  0
   -0.8245   25.5184  -26.5046 H   0  0  0  0  0  0  0  0  0  0  0  0
   -5.3715   21.0575  -32.5381 H   0  0  0  0  0  0  0  0  0  0  0  0
   -7.0691   19.4442  -33.3932 H   0  0  0  0  0  0  0  0  0  0  0  0
  1  2  2  0
  2  3  1  0
  3  4  2  0
  4  5  1  0
  5  6  1  0
  6  7  2  0
  7  8  1  0
  8  9  1  0
  9 10  2  0
 10 11  1  0
 11 12  2  0
 12 13  1  0
  8 14  2  0
  4 15  1  0
 15 16  2  0
 16  1  1  0
 14  5  1  0
 13  9  1  0
  1 17  1  0
  2 18  1  0
  3 19  1  0
 10 20  1  0
 11 21  1  0
 12 22  1  0
 15 23  1  0
 16 24  1  0
M  END
>  <UniqueID>  (31) 
29

>  <SMILES>  (31) 
c1ccc(-n2nnc(-c3cccs3)n2)cc1

>  <Energy>  (31) 
91.29404680482847

>  <Genealogy>  (31) 
c1ccc(-n2nnc(-c3cccs3)n2)cc1 (3D coordinates assigned)
c1ccc(-n2nnc(-c3cccs3)n2)cc1 (optimized conformer: 91.29404680482847 kcal/mol)

>  <smiles>  (31) 
c1ccc(-n2nnc(-c3cccs3)n2)cc1

>  <score_type>  (31) 
oracle

>  <origin>  (31) 
adgpu

>  <m_score__min__energy>  (31) 
-7.4699999999999998

>  <m_primary>  (31) 
energy

$$$$
31:0
     RDKit          3D

 23 24  0  0  0  0  0  0  0  0999 V2000
   -8.5500   22.2830  -31.5920 Br  0  0  0  0  0  0  0  0  0  0  0  0
   -6.8890   23.1010  -31.1250 C   0  0  0  0  0  0  0  0  0  0  0  0
   -5.6830   22.4780  -31.4620 C   0  0  0  0  0  0  0  0  0  0  0  0
   -4.4650   23.0760  -31.1220 C   0  0  0  0  0  0  0  0  0  0  0  0
   -4.4460   24.3000  -30.4270 C   0  0  0  0  0  0  0  0  0  0  0  0
   -3.2480   24.9410  -30.0810 O   0  0  0  0  0  0  0  0  0  0  0  0
   -2.3740   24.5350  -29.0620 C   0  0  0  0  0  0  0  0  0  0  0  0
   -1.0700   24.0820  -29.3340 C   0  0  0  0  0  0  0  0  0  0  0  0
   -0.2360   23.6700  -28.2900 C   0  0  0  0  0  0  0  0  0  0  0  0
   -0.6990   23.6940  -26.9720 C   0  0  0  0  0  0  0  0  0  0  0  0
   -2.0000   24.1250  -26.6970 C   0  0  0  0  0  0  0  0  0  0  0  0
   -2.8360   24.5380  -27.7390 C   0  0  0  0  0  0  0  0  0  0  0  0
   -5.6590   24.9260  -30.1110 C   0  0  0  0  0  0  0  0  0  0  0  0
   -6.8760   24.3270  -30.4520 C   0  0  0  0  0  0  0  0  0  0  0  0
   -5.6923   21.5160  -31.9954 H   0  0  0  0  0  0  0  0  0  0  0  0
   -3.5188   22.5881  -31.3987 H   0  0  0  0  0  0  0  0  0  0  0  0
   -0.7054   24.0518  -30.3714 H   0  0  0  0  0  0  0  0  0  0  0  0
    0.7862   23.3264  -28.5067 H   0  0  0  0  0  0  0  0  0  0  0  0
   -0.0402   23.3740  -26.1513 H   0  0  0  0  0  0  0  0  0  0  0  0
   -2.3665   24.1393  -25.6599 H   0  0  0  0  0  0  0  0  0  0  0  0
   -3.8623   24.8672  -27.5189 H   0  0  0  0  0  0  0  0  0  0  0  0
   -5.6541   25.8954  -29.5911 H   0  0  0  0  0  0  0  0  0  0  0  0
   -7.8237   24.8205  -30.1907 H   0  0  0  0  0  0  0  0  0  0  0  0
  1  2  1  0
  2  3  2  0
  3  4  1  0
  4  5  2  0
  5  6  1  0
  6  7  1  0
  7  8  2  0
  8  9  1  0
  9 10  2  0
 10 11  1  0
 11 12  2  0
  5 13  1  0
 13 14  2  0
 14  2  1  0
 12  7  1  0
  3 15  1  0
  4 16  1  0
  8 17  1  0
  9 18  1  0
 10 19  1  0
 11 20  1  0
 12 21  1  0
 13 22  1  0
 14 23  1  0
M  END
>  <UniqueID>  (32) 
30

>  <SMILES>  (32) 
Brc1ccc(Oc2ccccc2)cc1

>  <Energy>  (32) 
30.122075752388962

>  <Genealogy>  (32) 
Brc1ccc(Oc2ccccc2)cc1 (3D coordinates assigned)
Brc1ccc(Oc2ccccc2)cc1 (optimized conformer: 30.122075752388962 kcal/mol)

>  <smiles>  (32) 
Brc1ccc(Oc2ccccc2)cc1

>  <score_type>  (32) 
oracle

>  <origin>  (32) 
adgpu

>  <m_score__min__energy>  (32) 
-6.2999999999999998

>  <m_primary>  (32) 
energy

$$$$
32:0
     RDKit          3D

 33 34  0  0  0  0  0  0  0  0999 V2000
   -4.1820   25.6400  -30.4690 O   0  0  0  0  0  0  0  0  0  0  0  0
   -3.9230   24.4070  -30.4590 C   0  0  0  0  0  0  0  0  0  0  0  0
   -4.5420   23.5350  -31.4110 N   0  0  0  0  0  0  0  0  0  0  0  0
   -5.8260   23.8140  -32.0450 C   0  0  0  0  0  0  0  0  0  0  0  0
   -6.8990   22.8200  -31.5840 C   0  0  0  0  0  0  0  0  0  0  0  0
   -6.7460   21.4780  -32.2650 C   0  0  0  0  0  0  0  0  0  0  0  0
   -5.4680   21.0840  -32.7020 C   0  0  0  0  0  0  0  0  0  0  0  0
   -5.2750   19.8430  -33.3110 C   0  0  0  0  0  0  0  0  0  0  0  0
   -6.3540   18.9750  -33.4890 C   0  0  0  0  0  0  0  0  0  0  0  0
   -6.1090   17.4160  -34.2540 Cl  0  0  0  0  0  0  0  0  0  0  0  0
   -7.6290   19.3510  -33.0580 C   0  0  0  0  0  0  0  0  0  0  0  0
   -7.8350   20.5930  -32.4460 C   0  0  0  0  0  0  0  0  0  0  0  0
   -9.4710   20.9970  -31.9360 Cl  0  0  0  0  0  0  0  0  0  0  0  0
   -2.9790   23.8650  -29.5250 N   0  0  0  0  0  0  0  0  0  0  0  0
   -2.4730   24.5760  -28.3810 C   0  0  0  0  0  0  0  0  0  0  0  0
   -1.3010   25.3520  -28.4550 C   0  0  0  0  0  0  0  0  0  0  0  0
   -0.8480   26.0540  -27.3340 C   0  0  0  0  0  0  0  0  0  0  0  0
   -1.5650   25.9990  -26.1350 C   0  0  0  0  0  0  0  0  0  0  0  0
   -0.9950   26.8820  -24.7290 Cl  0  0  0  0  0  0  0  0  0  0  0  0
   -2.7420   25.2480  -26.0590 C   0  0  0  0  0  0  0  0  0  0  0  0
   -3.1980   24.5470  -27.1790 C   0  0  0  0  0  0  0  0  0  0  0  0
   -6.1433   24.8333  -31.7798 H   0  0  0  0  0  0  0  0  0  0  0  0
   -5.7055   23.7167  -33.1340 H   0  0  0  0  0  0  0  0  0  0  0  0
   -6.8120   22.6801  -30.4964 H   0  0  0  0  0  0  0  0  0  0  0  0
   -7.8843   23.2301  -31.8504 H   0  0  0  0  0  0  0  0  0  0  0  0
   -4.6122   21.7608  -32.5623 H   0  0  0  0  0  0  0  0  0  0  0  0
   -4.2713   19.5484  -33.6512 H   0  0  0  0  0  0  0  0  0  0  0  0
   -8.4774   18.6656  -33.2008 H   0  0  0  0  0  0  0  0  0  0  0  0
   -2.5910   22.9170  -29.7290 H   0  0  0  0  0  0  0  0  0  0  0  0
   -0.7390   25.4064  -29.3990 H   0  0  0  0  0  0  0  0  0  0  0  0
    0.0741   26.6506  -27.3955 H   0  0  0  0  0  0  0  0  0  0  0  0
   -3.3093   25.2088  -25.1174 H   0  0  0  0  0  0  0  0  0  0  0  0
   -4.1316   23.9685  -27.1182 H   0  0  0  0  0  0  0  0  0  0  0  0
  1  2  2  0
  2  3  1  0
  3  4  1  0
  4  5  1  0
  5  6  1  0
  6  7  2  0
  7  8  1  0
  8  9  2  0
  9 10  1  0
  9 11  1  0
 11 12  2  0
 12 13  1  0
  2 14  1  0
 14 15  1  0
 15 16  2  0
 16 17  1  0
 17 18  2  0
 18 19  1  0
 18 20  1  0
 20 21  2  0
 12  6  1  0
 21 15  1  0
  4 22  1  0
  4 23  1  0
  5 24  1  0
  5 25  1  0
  7 26  1  0
  8 27  1  0
 11 28  1  0
 14 29  1  0
 16 30  1  0
 17 31  1  0
 20 32  1  0
 21 33  1  0
M  CHG  1   3  -1
M  END
>  <UniqueID>  (33) 
31

>  <SMILES>  (33) 
O=C([N-]CCc1ccc(Cl)cc1Cl)Nc1ccc(Cl)cc1

>  <Energy>  (33) 
33.15120511705008

>  <Genealogy>  (33) 
O=C([N-]CCc1ccc(Cl)cc1Cl)Nc1ccc(Cl)cc1 (protonated)
O=C([N-]CCc1ccc(Cl)cc1Cl)Nc1ccc(Cl)cc1 (3D coordinates assigned)
O=C([N-]CCc1ccc(Cl)cc1Cl)Nc1ccc(Cl)cc1 (optimized conformer: 33.15120511705008 kcal/mol)

>  <smiles>  (33) 
O=C(NCCc1ccc(Cl)cc1Cl)Nc1ccc(Cl)cc1

>  <score_type>  (33) 
oracle

>  <origin>  (33) 
adgpu

>  <m_score__min__energy>  (33) 
-9.9100000000000001

>  <m_primary>  (33) 
energy

$$$$
33:0
     RDKit          3D

 30 32  0  0  0  0  0  0  0  0999 V2000
   -2.8290   21.6230  -32.7490 N   0  0  0  0  0  0  0  0  0  0  0  0
   -3.8010   22.1080  -32.3510 C   0  0  0  0  0  0  0  0  0  0  0  0
   -5.0140   22.7090  -31.8540 C   0  0  0  0  0  0  0  0  0  0  0  0
   -5.0600   23.8890  -31.0970 C   0  0  0  0  0  0  0  0  0  0  0  0
   -3.9500   24.7100  -30.7130 N   0  0  0  0  0  0  0  0  0  0  0  0
   -2.9270   24.3370  -29.7830 C   0  0  0  0  0  0  0  0  0  0  0  0
   -2.8650   23.1590  -29.3440 O   0  0  0  0  0  0  0  0  0  0  0  0
   -1.9630   25.2960  -29.3350 N   0  0  0  0  0  0  0  0  0  0  0  0
   -1.6660   25.6250  -27.9710 C   0  0  0  0  0  0  0  0  0  0  0  0
   -0.6760   26.5810  -27.7090 C   0  0  0  0  0  0  0  0  0  0  0  0
   -0.3720   26.9440  -26.3930 C   0  0  0  0  0  0  0  0  0  0  0  0
   -1.0690   26.3650  -25.3280 C   0  0  0  0  0  0  0  0  0  0  0  0
   -0.6900   26.8230  -23.6780 Cl  0  0  0  0  0  0  0  0  0  0  0  0
   -2.0780   25.4300  -25.5810 C   0  0  0  0  0  0  0  0  0  0  0  0
   -2.3830   25.0660  -26.8970 C   0  0  0  0  0  0  0  0  0  0  0  0
   -6.6350   24.1580  -30.5540 S   0  0  0  0  0  0  0  0  0  0  0  0
   -7.2820   22.8070  -31.3110 C   0  0  0  0  0  0  0  0  0  0  0  0
   -8.6040   22.3700  -31.2980 C   0  0  0  0  0  0  0  0  0  0  0  0
   -8.9200   21.1890  -31.9850 C   0  0  0  0  0  0  0  0  0  0  0  0
   -7.9170   20.4700  -32.6620 C   0  0  0  0  0  0  0  0  0  0  0  0
   -6.5880   20.9270  -32.6590 C   0  0  0  0  0  0  0  0  0  0  0  0
   -6.2800   22.1120  -31.9760 C   0  0  0  0  0  0  0  0  0  0  0  0
   -0.1341   27.0493  -28.5439 H   0  0  0  0  0  0  0  0  0  0  0  0
    0.4161   27.6856  -26.1956 H   0  0  0  0  0  0  0  0  0  0  0  0
   -2.6325   24.9803  -24.7442 H   0  0  0  0  0  0  0  0  0  0  0  0
   -3.1861   24.3403  -27.0928 H   0  0  0  0  0  0  0  0  0  0  0  0
   -9.3803   22.9364  -30.7628 H   0  0  0  0  0  0  0  0  0  0  0  0
   -9.9571   20.8226  -31.9949 H   0  0  0  0  0  0  0  0  0  0  0  0
   -8.1751   19.5442  -33.1970 H   0  0  0  0  0  0  0  0  0  0  0  0
   -5.8022   20.3641  -33.1840 H   0  0  0  0  0  0  0  0  0  0  0  0
  1  2  3  0
  2  3  1  0
  3  4  2  0
  4  5  1  0
  5  6  1  0
  6  7  2  0
  6  8  1  0
  8  9  1  0
  9 10  2  0
 10 11  1  0
 11 12  2  0
 12 13  1  0
 12 14  1  0
 14 15  2  0
  4 16  1  0
 16 17  1  0
 17 18  2  0
 18 19  1  0
 19 20  2  0
 20 21  1  0
 21 22  2  0
 22  3  1  0
 15  9  1  0
 22 17  1  0
 10 23  1  0
 11 24  1  0
 14 25  1  0
 15 26  1  0
 18 27  1  0
 19 28  1  0
 20 29  1  0
 21 30  1  0
M  CHG  2   5  -1   8  -1
M  END
>  <UniqueID>  (34) 
32

>  <SMILES>  (34) 
N#Cc1c([N-]C(=O)[N-]c2ccc(Cl)cc2)sc2ccccc12

>  <Energy>  (34) 
72.60810134144006

>  <Genealogy>  (34) 
N#Cc1c([N-]C(=O)[N-]c2ccc(Cl)cc2)sc2ccccc12 (protonated)
N#Cc1c([N-]C(=O)[N-]c2ccc(Cl)cc2)sc2ccccc12 (3D coordinates assigned)
N#Cc1c([N-]C(=O)[N-]c2ccc(Cl)cc2)sc2ccccc12 (optimized conformer: 72.60810134144006 kcal/mol)

>  <smiles>  (34) 
N#Cc1c(NC(=O)Nc2ccc(Cl)cc2)sc2ccccc12

>  <score_type>  (34) 
oracle

>  <origin>  (34) 
adgpu

>  <m_score__min__energy>  (34) 
-11.65

>  <m_primary>  (34) 
energy

$$$$
34:0
     RDKit          3D

 30 31  0  0  0  0  0  0  0  0999 V2000
   -9.0550   20.1240  -32.6630 C   0  0  0  0  0  0  0  0  0  0  0  0
   -8.0440   21.1700  -32.2920 C   0  0  0  0  0  0  0  0  0  0  0  0
   -8.4400   22.3160  -31.5870 C   0  0  0  0  0  0  0  0  0  0  0  0
   -7.4930   23.2730  -31.2100 C   0  0  0  0  0  0  0  0  0  0  0  0
   -6.1350   23.0850  -31.5050 C   0  0  0  0  0  0  0  0  0  0  0  0
   -5.1840   24.0960  -31.1280 N   0  0  0  0  0  0  0  0  0  0  0  0
   -4.2720   23.9800  -30.0240 C   0  0  0  0  0  0  0  0  0  0  0  0
   -4.7640   23.2450  -28.6360 S   0  0  0  0  0  0  0  0  0  0  0  0
   -3.0950   24.8040  -30.0120 N   0  0  0  0  0  0  0  0  0  0  0  0
   -1.9080   24.5140  -29.2540 C   0  0  0  0  0  0  0  0  0  0  0  0
   -1.3420   23.2290  -29.2340 C   0  0  0  0  0  0  0  0  0  0  0  0
   -0.1720   22.9920  -28.5090 C   0  0  0  0  0  0  0  0  0  0  0  0
    0.4310   24.0460  -27.8200 C   0  0  0  0  0  0  0  0  0  0  0  0
   -0.1160   25.2900  -27.8660 N   0  0  0  0  0  0  0  0  0  0  0  0
   -1.2540   25.5450  -28.5650 C   0  0  0  0  0  0  0  0  0  0  0  0
   -5.7410   21.9370  -32.2170 C   0  0  0  0  0  0  0  0  0  0  0  0
   -6.6880   20.9810  -32.5940 C   0  0  0  0  0  0  0  0  0  0  0  0
   -9.4800   19.6843  -31.7487 H   0  0  0  0  0  0  0  0  0  0  0  0
   -9.8587   20.5849  -33.2561 H   0  0  0  0  0  0  0  0  0  0  0  0
   -8.5671   19.3365  -33.2561 H   0  0  0  0  0  0  0  0  0  0  0  0
   -9.4994   22.4624  -31.3298 H   0  0  0  0  0  0  0  0  0  0  0  0
   -7.8156   24.1802  -30.6780 H   0  0  0  0  0  0  0  0  0  0  0  0
   -5.1490   24.9710  -31.6980 H   0  0  0  0  0  0  0  0  0  0  0  0
   -3.1010   25.6680  -30.6000 H   0  0  0  0  0  0  0  0  0  0  0  0
   -1.8203   22.4088  -29.7895 H   0  0  0  0  0  0  0  0  0  0  0  0
    0.2699   21.9851  -28.4811 H   0  0  0  0  0  0  0  0  0  0  0  0
    1.3488   23.8700  -27.2398 H   0  0  0  0  0  0  0  0  0  0  0  0
   -1.6637   26.5656  -28.5900 H   0  0  0  0  0  0  0  0  0  0  0  0
   -4.6824   21.7914  -32.4781 H   0  0  0  0  0  0  0  0  0  0  0  0
   -6.3679   20.0756  -33.1304 H   0  0  0  0  0  0  0  0  0  0  0  0
  1  2  1  0
  2  3  2  0
  3  4  1  0
  4  5  2  0
  5  6  1  0
  6  7  1  0
  7  8  2  0
  7  9  1  0
  9 10  1  0
 10 11  2  0
 11 12  1  0
 12 13  2  0
 13 14  1  0
 14 15  2  0
  5 16  1  0
 16 17  2  0
 17  2  1  0
 15 10  1  0
  1 18  1  0
  1 19  1  0
  1 20  1  0
  3 21  1  0
  4 22  1  0
  6 23  1  0
  9 24  1  0
 11 25  1  0
 12 26  1  0
 13 27  1  0
 15 28  1  0
 16 29  1  0
 17 30  1  0
M  END
>  <UniqueID>  (35) 
33

>  <SMILES>  (35) 
Cc1ccc(NC(=S)Nc2cccnc2)cc1

>  <Energy>  (35) 
40.297420746894154

>  <Genealogy>  (35) 
Cc1ccc(NC(=S)Nc2cccnc2)cc1 (3D coordinates assigned)
Cc1ccc(NC(=S)Nc2cccnc2)cc1 (optimized conformer: 40.297420746894154 kcal/mol)

>  <smiles>  (35) 
Cc1ccc(NC(=S)Nc2cccnc2)cc1

>  <score_type>  (35) 
oracle

>  <origin>  (35) 
adgpu

>  <m_score__min__energy>  (35) 
-6.8700000000000001

>  <m_primary>  (35) 
energy

$$$$
35:0
     RDKit          3D

 21 22  0  0  0  0  0  0  0  0999 V2000
    0.5360   24.5490  -27.8310 O   0  0  0  0  0  0  0  0  0  0  0  0
   -0.4220   24.1060  -28.5170 C   0  0  0  0  0  0  0  0  0  0  0  0
   -1.4260   24.9620  -28.9540 C   0  0  0  0  0  0  0  0  0  0  0  0
   -2.4720   24.4360  -29.7100 C   0  0  0  0  0  0  0  0  0  0  0  0
   -3.4850   25.2860  -30.1450 O   0  0  0  0  0  0  0  0  0  0  0  0
   -2.5040   23.1000  -30.0120 N   0  0  0  0  0  0  0  0  0  0  0  0
   -3.6030   22.5900  -30.7900 C   0  0  0  0  0  0  0  0  0  0  0  0
   -3.3650   21.9690  -32.0260 C   0  0  0  0  0  0  0  0  0  0  0  0
   -4.4320   21.4700  -32.7780 C   0  0  0  0  0  0  0  0  0  0  0  0
   -5.7410   21.5830  -32.3010 C   0  0  0  0  0  0  0  0  0  0  0  0
   -6.7700   21.0950  -33.0390 F   0  0  0  0  0  0  0  0  0  0  0  0
   -5.9850   22.1980  -31.0650 C   0  0  0  0  0  0  0  0  0  0  0  0
   -7.6250   22.3450  -30.4550 Cl  0  0  0  0  0  0  0  0  0  0  0  0
   -4.9170   22.6980  -30.3120 C   0  0  0  0  0  0  0  0  0  0  0  0
   -1.4960   22.2760  -29.5680 C   0  0  0  0  0  0  0  0  0  0  0  0
   -1.4600   20.6720  -29.9270 S   0  0  0  0  0  0  0  0  0  0  0  0
   -0.4750   22.7890  -28.8320 N   0  0  0  0  0  0  0  0  0  0  0  0
   -1.3956   26.0337  -28.7080 H   0  0  0  0  0  0  0  0  0  0  0  0
   -2.3362   21.8749  -32.4037 H   0  0  0  0  0  0  0  0  0  0  0  0
   -4.2412   20.9871  -33.7477 H   0  0  0  0  0  0  0  0  0  0  0  0
   -5.1088   23.1778  -29.3409 H   0  0  0  0  0  0  0  0  0  0  0  0
  1  2  2  0
  2  3  1  0
  3  4  2  0
  4  5  1  0
  4  6  1  0
  6  7  1  0
  7  8  2  0
  8  9  1  0
  9 10  2  0
 10 11  1  0
 10 12  1  0
 12 13  1  0
 12 14  2  0
  6 15  1  0
 15 16  2  0
 15 17  1  0
 17  2  1  0
 14  7  1  0
  3 18  1  0
  8 19  1  0
  9 20  1  0
 14 21  1  0
M  CHG  2   5  -1  17  -1
M  END
>  <UniqueID>  (36) 
34

>  <SMILES>  (36) 
O=c1cc([O-])n(-c2ccc(F)c(Cl)c2)c(=S)[n-]1

>  <Energy>  (36) 
34.13907421123149

>  <Genealogy>  (36) 
O=c1cc([O-])n(-c2ccc(F)c(Cl)c2)c(=S)[n-]1 (protonated)
O=c1cc([O-])n(-c2ccc(F)c(Cl)c2)c(=S)[n-]1 (3D coordinates assigned)
O=c1cc([O-])n(-c2ccc(F)c(Cl)c2)c(=S)[n-]1 (optimized conformer: 34.13907421123149 kcal/mol)

>  <smiles>  (36) 
O=c1cc(O)n(-c2ccc(F)c(Cl)c2)c(=S)[nH]1

>  <score_type>  (36) 
oracle

>  <origin>  (36) 
adgpu

>  <m_score__min__energy>  (36) 
-9.1400000000000006

>  <m_primary>  (36) 
energy

$$$$
36:0
     RDKit          3D

 35 36  0  0  0  0  0  0  0  0999 V2000
   -5.7250   16.6620  -33.7890 C   0  0  0  0  0  0  0  0  0  0  0  0
   -7.1010   16.9500  -33.1730 C   0  0  0  0  0  0  0  0  0  0  0  0
   -7.2090   18.3990  -32.9040 C   0  0  0  0  0  0  0  0  0  0  0  0
   -6.2620   19.2070  -33.4130 N   0  0  0  0  0  0  0  0  0  0  0  0
   -6.2810   20.5450  -33.2260 C   0  0  0  0  0  0  0  0  0  0  0  0
   -7.2920   21.1590  -32.4910 C   0  0  0  0  0  0  0  0  0  0  0  0
   -7.2270   22.6280  -32.3620 C   0  0  0  0  0  0  0  0  0  0  0  0
   -6.2040   23.1380  -31.4530 C   0  0  0  0  0  0  0  0  0  0  0  0
   -6.6240   23.6840  -30.2310 C   0  0  0  0  0  0  0  0  0  0  0  0
   -5.7470   24.1970  -29.3480 N   0  0  0  0  0  0  0  0  0  0  0  0
   -4.4320   24.2030  -29.6100 C   0  0  0  0  0  0  0  0  0  0  0  0
   -3.5920   24.7000  -28.7530 N   0  0  0  0  0  0  0  0  0  0  0  0
   -3.9960   23.6880  -30.7690 N   0  0  0  0  0  0  0  0  0  0  0  0
   -4.8510   23.1650  -31.6780 C   0  0  0  0  0  0  0  0  0  0  0  0
   -4.3360   22.6770  -32.7390 N   0  0  0  0  0  0  0  0  0  0  0  0
   -8.2590   20.3450  -31.9690 C   0  0  0  0  0  0  0  0  0  0  0  0
   -8.2270   18.9630  -32.1690 C   0  0  0  0  0  0  0  0  0  0  0  0
   -9.2810   18.1380  -31.5840 C   0  0  0  0  0  0  0  0  0  0  0  0
   -4.9889   16.5079  -32.9863 H   0  0  0  0  0  0  0  0  0  0  0  0
   -5.7840   15.7567  -34.4111 H   0  0  0  0  0  0  0  0  0  0  0  0
   -5.4160   17.5149  -34.4111 H   0  0  0  0  0  0  0  0  0  0  0  0
   -7.8913   16.6444  -33.8745 H   0  0  0  0  0  0  0  0  0  0  0  0
   -7.2159   16.3864  -32.2353 H   0  0  0  0  0  0  0  0  0  0  0  0
   -5.4819   21.1617  -33.6631 H   0  0  0  0  0  0  0  0  0  0  0  0
   -7.0317   23.0469  -33.3602 H   0  0  0  0  0  0  0  0  0  0  0  0
   -8.1916   22.9347  -31.9312 H   0  0  0  0  0  0  0  0  0  0  0  0
   -7.6968   23.6932  -29.9883 H   0  0  0  0  0  0  0  0  0  0  0  0
   -6.0580   24.6070  -28.4340 H   0  0  0  0  0  0  0  0  0  0  0  0
   -3.9890   25.0900  -27.8600 H   0  0  0  0  0  0  0  0  0  0  0  0
   -2.9650   23.7140  -30.9320 H   0  0  0  0  0  0  0  0  0  0  0  0
   -4.9130   22.2470  -33.4590 H   0  0  0  0  0  0  0  0  0  0  0  0
   -9.0769   20.7867  -31.3809 H   0  0  0  0  0  0  0  0  0  0  0  0
   -9.2185   18.1869  -30.4869 H   0  0  0  0  0  0  0  0  0  0  0  0
  -10.2627   18.5102  -31.9123 H   0  0  0  0  0  0  0  0  0  0  0  0
   -9.1555   17.0957  -31.9123 H   0  0  0  0  0  0  0  0  0  0  0  0
  1  2  1  0
  2  3  1  0
  3  4  2  0
  4  5  1  0
  5  6  2  0
  6  7  1  0
  7  8  1  0
  8  9  2  0
  9 10  1  0
 10 11  1  0
 11 12  2  3
 11 13  1  0
 13 14  1  0
 14 15  2  3
  6 16  1  0
 16 17  2  0
 17 18  1  0
 17  3  1  0
 14  8  1  0
  1 19  1  0
  1 20  1  0
  1 21  1  0
  2 22  1  0
  2 23  1  0
  5 24  1  0
  7 25  1  0
  7 26  1  0
  9 27  1  0
 10 28  1  0
 12 29  1  0
 13 30  1  0
 15 31  1  0
 16 32  1  0
 18 33  1  0
 18 34  1  0
 18 35  1  0
M  END
>  <smiles>  (37) 
CCc1ncc(Cc2c[nH]c(=N)[nH]c2=N)cc1C

>  <score_type>  (37) 
oracle

>  <origin>  (37) 
adgpu

>  <m_score__min__energy>  (37) 
-7.4400000000000004

>  <m_primary>  (37) 
energy

$$$$
37:0
     RDKit          3D

 38 40  0  0  0  0  0  0  0  0999 V2000
    2.6050   17.8110  -27.4970 C   0  0  0  0  0  0  0  0  0  0  0  0
    1.0160   17.3360  -28.1380 S   0  0  0  0  0  0  0  0  0  0  0  0
    0.2780   16.5290  -27.1080 O   0  0  0  0  0  0  0  0  0  0  0  0
    1.2020   16.4910  -29.3690 O   0  0  0  0  0  0  0  0  0  0  0  0
    0.0930   18.7800  -28.5390 C   0  0  0  0  0  0  0  0  0  0  0  0
   -0.7770   19.3440  -27.5990 C   0  0  0  0  0  0  0  0  0  0  0  0
   -1.5210   20.4820  -27.9210 C   0  0  0  0  0  0  0  0  0  0  0  0
   -1.4090   21.0730  -29.1930 C   0  0  0  0  0  0  0  0  0  0  0  0
   -2.2000   22.2810  -29.5390 C   0  0  0  0  0  0  0  0  0  0  0  0
   -1.6640   23.5650  -29.3610 C   0  0  0  0  0  0  0  0  0  0  0  0
   -2.3940   24.6640  -29.6800 N   0  0  0  0  0  0  0  0  0  0  0  0
   -3.6590   24.5780  -30.1760 C   0  0  0  0  0  0  0  0  0  0  0  0
   -4.2940   25.6620  -30.4920 N   0  0  0  0  0  0  0  0  0  0  0  0
   -4.2520   23.3120  -30.3670 C   0  0  0  0  0  0  0  0  0  0  0  0
   -5.6310   23.1590  -30.8970 C   0  0  0  0  0  0  0  0  0  0  0  0
   -5.9390   23.5840  -32.2020 C   0  0  0  0  0  0  0  0  0  0  0  0
   -7.2340   23.4290  -32.7070 C   0  0  0  0  0  0  0  0  0  0  0  0
   -8.2290   22.8460  -31.9200 C   0  0  0  0  0  0  0  0  0  0  0  0
   -7.9310   22.4120  -30.6260 C   0  0  0  0  0  0  0  0  0  0  0  0
   -6.6370   22.5640  -30.1150 C   0  0  0  0  0  0  0  0  0  0  0  0
   -3.5030   22.1680  -30.0480 C   0  0  0  0  0  0  0  0  0  0  0  0
   -0.5380   20.4950  -30.1360 C   0  0  0  0  0  0  0  0  0  0  0  0
    0.2040   19.3560  -29.8110 C   0  0  0  0  0  0  0  0  0  0  0  0
    2.5745   17.8019  -26.3975 H   0  0  0  0  0  0  0  0  0  0  0  0
    3.3690   17.1020  -27.8485 H   0  0  0  0  0  0  0  0  0  0  0  0
    2.8546   18.8230  -27.8485 H   0  0  0  0  0  0  0  0  0  0  0  0
   -0.8755   18.8894  -26.6022 H   0  0  0  0  0  0  0  0  0  0  0  0
   -2.1998   20.9194  -27.1740 H   0  0  0  0  0  0  0  0  0  0  0  0
   -0.6462   23.6820  -28.9606 H   0  0  0  0  0  0  0  0  0  0  0  0
   -3.8640   26.6060  -30.3650 H   0  0  0  0  0  0  0  0  0  0  0  0
   -5.1580   24.0402  -32.8280 H   0  0  0  0  0  0  0  0  0  0  0  0
   -7.4692   23.7673  -33.7269 H   0  0  0  0  0  0  0  0  0  0  0  0
   -9.2474   22.7284  -32.3188 H   0  0  0  0  0  0  0  0  0  0  0  0
   -8.7147   21.9500  -30.0077 H   0  0  0  0  0  0  0  0  0  0  0  0
   -6.4058   22.2165  -29.0972 H   0  0  0  0  0  0  0  0  0  0  0  0
   -3.9428   21.1711  -30.1989 H   0  0  0  0  0  0  0  0  0  0  0  0
   -0.4407   20.9431  -31.1359 H   0  0  0  0  0  0  0  0  0  0  0  0
    0.8780   18.9100  -30.5573 H   0  0  0  0  0  0  0  0  0  0  0  0
  1  2  1  0
  2  3  2  0
  2  4  2  0
  2  5  1  0
  5  6  2  0
  6  7  1  0
  7  8  2  0
  8  9  1  0
  9 10  2  0
 10 11  1  0
 11 12  1  0
 12 13  2  3
 12 14  1  0
 14 15  1  0
 15 16  2  0
 16 17  1  0
 17 18  2  0
 18 19  1  0
 19 20  2  0
 14 21  2  0
  8 22  1  0
 22 23  2  0
 23  5  1  0
 21  9  1  0
 20 15  1  0
  1 24  1  0
  1 25  1  0
  1 26  1  0
  6 27  1  0
  7 28  1  0
 10 29  1  0
 13 30  1  0
 16 31  1  0
 17 32  1  0
 18 33  1  0
 19 34  1  0
 20 35  1  0
 21 36  1  0
 22 37  1  0
 23 38  1  0
M  CHG  1  11  -1
M  END
>  <UniqueID>  (38) 
35

>  <SMILES>  (38) 
CS(=O)(=O)c1ccc(-c2c[n-]c(=N)c(-c3ccccc3)c2)cc1

>  <Energy>  (38) 
51.125797604091275

>  <Genealogy>  (38) 
CS(=O)(=O)c1ccc(-c2c[n-]c(=N)c(-c3ccccc3)c2)cc1 (protonated)
CS(=O)(=O)c1ccc(-c2c[n-]c(=N)c(-c3ccccc3)c2)cc1 (3D coordinates assigned)
CS(=O)(=O)c1ccc(-c2c[n-]c(=N)c(-c3ccccc3)c2)cc1 (optimized conformer: 51.125797604091275 kcal/mol)

>  <smiles>  (38) 
CS(=O)(=O)c1ccc(-c2c[nH]c(=N)c(-c3ccccc3)c2)cc1

>  <score_type>  (38) 
oracle

>  <origin>  (38) 
adgpu

>  <m_score__min__energy>  (38) 
-9.6999999999999993

>  <m_primary>  (38) 
energy

$$$$
38:0
     RDKit          3D

 35 38  0  0  0  0  0  0  0  0999 V2000
    0.1700   26.5530  -26.8380 C   0  0  0  0  0  0  0  0  0  0  0  0
   -0.3420   25.5380  -27.7470 N   0  0  0  0  0  0  0  0  0  0  0  0
   -1.6200   25.4160  -28.1510 C   0  0  0  0  0  0  0  0  0  0  0  0
   -1.7150   24.2870  -28.9450 C   0  0  0  0  0  0  0  0  0  0  0  0
   -2.9270   23.7470  -29.6140 C   0  0  0  0  0  0  0  0  0  0  0  0
   -3.1010   22.3500  -29.7680 C   0  0  0  0  0  0  0  0  0  0  0  0
   -4.2470   21.8490  -30.4000 C   0  0  0  0  0  0  0  0  0  0  0  0
   -5.1660   22.7340  -30.8710 N   0  0  0  0  0  0  0  0  0  0  0  0
   -6.3490   22.5460  -31.4840 C   0  0  0  0  0  0  0  0  0  0  0  0
   -6.9360   21.2520  -31.8940 C   0  0  0  0  0  0  0  0  0  0  0  0
   -6.2100   20.3560  -32.6970 C   0  0  0  0  0  0  0  0  0  0  0  0
   -6.7820   19.1430  -33.0950 C   0  0  0  0  0  0  0  0  0  0  0  0
   -8.0850   18.8200  -32.7040 C   0  0  0  0  0  0  0  0  0  0  0  0
   -8.8190   19.7140  -31.9210 C   0  0  0  0  0  0  0  0  0  0  0  0
   -8.2520   20.9280  -31.5210 C   0  0  0  0  0  0  0  0  0  0  0  0
   -6.9220   23.7930  -31.6730 C   0  0  0  0  0  0  0  0  0  0  0  0
   -6.0990   24.7560  -31.1960 N   0  0  0  0  0  0  0  0  0  0  0  0
   -5.0450   24.0630  -30.7180 C   0  0  0  0  0  0  0  0  0  0  0  0
   -3.9290   24.6190  -30.0960 C   0  0  0  0  0  0  0  0  0  0  0  0
   -0.4300   23.7630  -28.9650 C   0  0  0  0  0  0  0  0  0  0  0  0
    0.3830   24.5390  -28.2220 N   0  0  0  0  0  0  0  0  0  0  0  0
    0.0073   26.2304  -25.7990 H   0  0  0  0  0  0  0  0  0  0  0  0
    1.2467   26.6933  -27.0140 H   0  0  0  0  0  0  0  0  0  0  0  0
   -0.3571   27.5023  -27.0140 H   0  0  0  0  0  0  0  0  0  0  0  0
   -2.4457   26.0960  -27.8944 H   0  0  0  0  0  0  0  0  0  0  0  0
   -2.3349   21.6567  -29.3907 H   0  0  0  0  0  0  0  0  0  0  0  0
   -4.3997   20.7655  -30.5125 H   0  0  0  0  0  0  0  0  0  0  0  0
   -5.1876   20.6095  -33.0140 H   0  0  0  0  0  0  0  0  0  0  0  0
   -6.2057   18.4420  -33.7167 H   0  0  0  0  0  0  0  0  0  0  0  0
   -8.5314   17.8632  -33.0126 H   0  0  0  0  0  0  0  0  0  0  0  0
   -9.8461   19.4623  -31.6182 H   0  0  0  0  0  0  0  0  0  0  0  0
   -8.8380   21.6322  -30.9121 H   0  0  0  0  0  0  0  0  0  0  0  0
   -7.9008   23.9738  -32.1413 H   0  0  0  0  0  0  0  0  0  0  0  0
   -3.8305   25.7087  -29.9831 H   0  0  0  0  0  0  0  0  0  0  0  0
   -0.1228   22.8547  -29.5041 H   0  0  0  0  0  0  0  0  0  0  0  0
  1  2  1  0
  2  3  1  0
  3  4  2  0
  4  5  1  0
  5  6  1  0
  6  7  2  0
  7  8  1  0
  8  9  1  0
  9 10  1  0
 10 11  2  0
 11 12  1  0
 12 13  2  0
 13 14  1  0
 14 15  2  0
  9 16  2  0
 16 17  1  0
 17 18  2  0
 18 19  1  0
  4 20  1  0
 20 21  2  0
 21  2  1  0
 19  5  2  0
 18  8  1  0
 15 10  1  0
  1 22  1  0
  1 23  1  0
  1 24  1  0
  3 25  1  0
  6 26  1  0
  7 27  1  0
 11 28  1  0
 12 29  1  0
 13 30  1  0
 14 31  1  0
 15 32  1  0
 16 33  1  0
 19 34  1  0
 20 35  1  0
M  END
>  <UniqueID>  (39) 
36

>  <SMILES>  (39) 
Cn1cc(-c2ccn3c(-c4ccccc4)cnc3c2)cn1

>  <Energy>  (39) 
110.56521527868202

>  <Genealogy>  (39) 
Cn1cc(-c2ccn3c(-c4ccccc4)cnc3c2)cn1 (3D coordinates assigned)
Cn1cc(-c2ccn3c(-c4ccccc4)cnc3c2)cn1 (optimized conformer: 110.56521527868202 kcal/mol)

>  <smiles>  (39) 
Cn1cc(-c2ccn3c(-c4ccccc4)cnc3c2)cn1

>  <score_type>  (39) 
oracle

>  <origin>  (39) 
adgpu

>  <m_score__min__energy>  (39) 
-7.6500000000000004

>  <m_primary>  (39) 
energy

$$$$
39:0
     RDKit          3D

 38 39  0  0  0  0  0  0  0  0999 V2000
   -0.9140   25.2310  -28.3170 C   0  0  0  0  0  0  0  0  0  0  0  0
   -1.9140   25.3020  -29.3280 O   0  0  0  0  0  0  0  0  0  0  0  0
   -3.0840   24.5300  -29.3410 C   0  0  0  0  0  0  0  0  0  0  0  0
   -3.2640   23.5770  -28.3320 C   0  0  0  0  0  0  0  0  0  0  0  0
   -4.4170   22.7900  -28.2980 C   0  0  0  0  0  0  0  0  0  0  0  0
   -5.4000   22.9410  -29.2780 C   0  0  0  0  0  0  0  0  0  0  0  0
   -5.2290   23.8760  -30.3110 C   0  0  0  0  0  0  0  0  0  0  0  0
   -6.2520   24.0020  -31.4100 C   0  0  0  0  0  0  0  0  0  0  0  0
   -6.3750   22.7310  -32.1420 N   0  0  0  0  0  0  0  0  0  0  0  0
   -7.7550   22.2160  -32.1640 C   0  0  0  0  0  0  0  0  0  0  0  0
   -7.7870   20.7090  -32.2550 C   0  0  0  0  0  0  0  0  0  0  0  0
   -8.8570   20.0010  -31.6830 C   0  0  0  0  0  0  0  0  0  0  0  0
   -8.8860   18.6060  -31.7250 C   0  0  0  0  0  0  0  0  0  0  0  0
   -7.8540   17.9040  -32.3450 C   0  0  0  0  0  0  0  0  0  0  0  0
   -6.7900   18.5930  -32.9300 C   0  0  0  0  0  0  0  0  0  0  0  0
   -6.7460   20.0020  -32.8940 C   0  0  0  0  0  0  0  0  0  0  0  0
   -5.6840   20.7230  -33.4660 O   0  0  0  0  0  0  0  0  0  0  0  0
   -4.3230   20.6050  -33.0670 C   0  0  0  0  0  0  0  0  0  0  0  0
   -4.0760   24.6780  -30.3310 C   0  0  0  0  0  0  0  0  0  0  0  0
   -1.3910   25.2649  -27.3264 H   0  0  0  0  0  0  0  0  0  0  0  0
   -0.3528   24.2907  -28.4218 H   0  0  0  0  0  0  0  0  0  0  0  0
   -0.2256   26.0825  -28.4218 H   0  0  0  0  0  0  0  0  0  0  0  0
   -2.4914   23.4469  -27.5599 H   0  0  0  0  0  0  0  0  0  0  0  0
   -4.5513   22.0487  -27.4965 H   0  0  0  0  0  0  0  0  0  0  0  0
   -6.3110   22.3256  -29.2405 H   0  0  0  0  0  0  0  0  0  0  0  0
   -7.2260   24.2635  -30.9708 H   0  0  0  0  0  0  0  0  0  0  0  0
   -5.9307   24.7879  -32.1094 H   0  0  0  0  0  0  0  0  0  0  0  0
   -6.1000   22.9100  -33.1370 H   0  0  0  0  0  0  0  0  0  0  0  0
   -8.2669   22.5285  -31.2419 H   0  0  0  0  0  0  0  0  0  0  0  0
   -8.2593   22.6241  -33.0523 H   0  0  0  0  0  0  0  0  0  0  0  0
   -9.6780   20.5498  -31.1985 H   0  0  0  0  0  0  0  0  0  0  0  0
   -9.7246   18.0601  -31.2681 H   0  0  0  0  0  0  0  0  0  0  0  0
   -7.8778   16.8046  -32.3735 H   0  0  0  0  0  0  0  0  0  0  0  0
   -5.9809   18.0333  -33.4221 H   0  0  0  0  0  0  0  0  0  0  0  0
   -4.2620   20.5997  -31.9687 H   0  0  0  0  0  0  0  0  0  0  0  0
   -3.9051   19.6673  -33.4620 H   0  0  0  0  0  0  0  0  0  0  0  0
   -3.7499   21.4568  -33.4620 H   0  0  0  0  0  0  0  0  0  0  0  0
   -3.9463   25.4275  -31.1256 H   0  0  0  0  0  0  0  0  0  0  0  0
  1  2  1  0
  2  3  1  0
  3  4  2  0
  4  5  1  0
  5  6  2  0
  6  7  1  0
  7  8  1  0
  8  9  1  0
  9 10  1  0
 10 11  1  0
 11 12  2  0
 12 13  1  0
 13 14  2  0
 14 15  1  0
 15 16  2  0
 16 17  1  0
 17 18  1  0
  7 19  2  0
 19  3  1  0
 16 11  1  0
  1 20  1  0
  1 21  1  0
  1 22  1  0
  4 23  1  0
  5 24  1  0
  6 25  1  0
  8 26  1  0
  8 27  1  0
  9 28  1  0
 10 29  1  0
 10 30  1  0
 12 31  1  0
 13 32  1  0
 14 33  1  0
 15 34  1  0
 18 35  1  0
 18 36  1  0
 18 37  1  0
 19 38  1  0
M  END
>  <UniqueID>  (40) 
37

>  <SMILES>  (40) 
COc1cccc(CNCc2ccccc2OC)c1

>  <Energy>  (40) 
33.14429786909276

>  <Genealogy>  (40) 
COc1cccc(CNCc2ccccc2OC)c1 (3D coordinates assigned)
COc1cccc(CNCc2ccccc2OC)c1 (optimized conformer: 33.14429786909276 kcal/mol)

>  <smiles>  (40) 
COc1cccc(CNCc2ccccc2OC)c1

>  <score_type>  (40) 
oracle

>  <origin>  (40) 
adgpu

>  <m_score__min__energy>  (40) 
-7.29

>  <m_primary>  (40) 
energy

$$$$
40:0
     RDKit          3D

 35 37  0  0  0  0  0  0  0  0999 V2000
   -0.1540   25.9980  -26.1390 C   0  0  0  0  0  0  0  0  0  0  0  0
    0.1250   25.6920  -27.4720 C   0  0  0  0  0  0  0  0  0  0  0  0
   -0.8780   25.1820  -28.3010 C   0  0  0  0  0  0  0  0  0  0  0  0
   -2.1790   24.9680  -27.8010 C   0  0  0  0  0  0  0  0  0  0  0  0
   -3.2630   24.4360  -28.6650 C   0  0  0  0  0  0  0  0  0  0  0  0
   -4.1650   23.4620  -28.2110 C   0  0  0  0  0  0  0  0  0  0  0  0
   -5.1670   23.0040  -29.0630 C   0  0  0  0  0  0  0  0  0  0  0  0
   -5.2550   23.5190  -30.3620 C   0  0  0  0  0  0  0  0  0  0  0  0
   -6.2860   23.0910  -31.2720 N   0  0  0  0  0  0  0  0  0  0  0  0
   -7.5970   23.7590  -31.2260 C   0  0  0  0  0  0  0  0  0  0  0  0
   -8.6180   23.0660  -32.1410 C   0  0  0  0  0  0  0  0  0  0  0  0
   -8.5230   21.5440  -31.9880 C   0  0  0  0  0  0  0  0  0  0  0  0
   -7.1110   20.9980  -32.2930 C   0  0  0  0  0  0  0  0  0  0  0  0
   -6.0260   22.0860  -32.3130 C   0  0  0  0  0  0  0  0  0  0  0  0
   -4.3730   24.4820  -30.7440 N   0  0  0  0  0  0  0  0  0  0  0  0
   -3.4150   24.9210  -29.9270 N   0  0  0  0  0  0  0  0  0  0  0  0
   -2.4480   25.2920  -26.4580 C   0  0  0  0  0  0  0  0  0  0  0  0
   -1.4400   25.8000  -25.6320 C   0  0  0  0  0  0  0  0  0  0  0  0
    0.6389   26.3950  -25.4881 H   0  0  0  0  0  0  0  0  0  0  0  0
    1.1373   25.8527  -27.8712 H   0  0  0  0  0  0  0  0  0  0  0  0
   -0.6509   24.9458  -29.3511 H   0  0  0  0  0  0  0  0  0  0  0  0
   -4.0814   23.0629  -27.1894 H   0  0  0  0  0  0  0  0  0  0  0  0
   -5.8834   22.2438  -28.7182 H   0  0  0  0  0  0  0  0  0  0  0  0
   -7.9722   23.7378  -30.1922 H   0  0  0  0  0  0  0  0  0  0  0  0
   -7.4681   24.7937  -31.5764 H   0  0  0  0  0  0  0  0  0  0  0  0
   -9.6316   23.3954  -31.8686 H   0  0  0  0  0  0  0  0  0  0  0  0
   -8.4022   23.3346  -33.1856 H   0  0  0  0  0  0  0  0  0  0  0  0
   -8.7868   21.2778  -30.9538 H   0  0  0  0  0  0  0  0  0  0  0  0
   -9.2156   21.0946  -32.7149 H   0  0  0  0  0  0  0  0  0  0  0  0
   -6.8491   20.2588  -31.5216 H   0  0  0  0  0  0  0  0  0  0  0  0
   -7.1449   20.5553  -33.2994 H   0  0  0  0  0  0  0  0  0  0  0  0
   -5.0450   21.6225  -32.1318 H   0  0  0  0  0  0  0  0  0  0  0  0
   -6.0358   22.5805  -33.2955 H   0  0  0  0  0  0  0  0  0  0  0  0
   -3.4605   25.1443  -26.0542 H   0  0  0  0  0  0  0  0  0  0  0  0
   -1.6604   26.0437  -24.5822 H   0  0  0  0  0  0  0  0  0  0  0  0
  1  2  2  0
  2  3  1  0
  3  4  2  0
  4  5  1  0
  5  6  2  0
  6  7  1  0
  7  8  2  0
  8  9  1  0
  9 10  1  0
 10 11  1  0
 11 12  1  0
 12 13  1  0
 13 14  1  0
  8 15  1  0
 15 16  2  0
  4 17  1  0
 17 18  2  0
 18  1  1  0
 16  5  1  0
 14  9  1  0
  1 19  1  0
  2 20  1  0
  3 21  1  0
  6 22  1  0
  7 23  1  0
 10 24  1  0
 10 25  1  0
 11 26  1  0
 11 27  1  0
 12 28  1  0
 12 29  1  0
 13 30  1  0
 13 31  1  0
 14 32  1  0
 14 33  1  0
 17 34  1  0
 18 35  1  0
M  END
>  <UniqueID>  (41) 
38

>  <SMILES>  (41) 
c1ccc(-c2ccc(N3CCCCC3)nn2)cc1

>  <Energy>  (41) 
45.68105330652903

>  <Genealogy>  (41) 
c1ccc(-c2ccc(N3CCCCC3)nn2)cc1 (3D coordinates assigned)
c1ccc(-c2ccc(N3CCCCC3)nn2)cc1 (nonaromatic ring conformer: 45.68105330652903 kcal/mol)

>  <smiles>  (41) 
c1ccc(-c2ccc(N3CCCCC3)nn2)cc1

>  <score_type>  (41) 
oracle

>  <origin>  (41) 
adgpu

>  <m_score__min__energy>  (41) 
-7.2400000000000002

>  <m_primary>  (41) 
energy

$$$$
41:0
     RDKit          3D

 31 33  0  0  0  0  0  0  0  0999 V2000
    1.1940   25.3490  -26.6240 C   0  0  0  0  0  0  0  0  0  0  0  0
    0.6420   24.9250  -27.8660 O   0  0  0  0  0  0  0  0  0  0  0  0
   -0.3300   23.9220  -28.0030 C   0  0  0  0  0  0  0  0  0  0  0  0
   -0.2040   22.6710  -27.3720 C   0  0  0  0  0  0  0  0  0  0  0  0
   -1.1980   21.7060  -27.5170 C   0  0  0  0  0  0  0  0  0  0  0  0
   -2.3150   21.9640  -28.3110 C   0  0  0  0  0  0  0  0  0  0  0  0
   -2.4550   23.1940  -28.9740 C   0  0  0  0  0  0  0  0  0  0  0  0
   -3.6160   23.3810  -29.8730 C   0  0  0  0  0  0  0  0  0  0  0  0
   -3.8420   24.5130  -30.5690 N   0  0  0  0  0  0  0  0  0  0  0  0
   -4.9730   24.3160  -31.1740 O   0  0  0  0  0  0  0  0  0  0  0  0
   -5.4380   23.1300  -30.8660 C   0  0  0  0  0  0  0  0  0  0  0  0
   -6.7080   22.5770  -31.3760 C   0  0  0  0  0  0  0  0  0  0  0  0
   -7.8200   23.4120  -31.5620 C   0  0  0  0  0  0  0  0  0  0  0  0
   -9.0150   22.8720  -32.0460 C   0  0  0  0  0  0  0  0  0  0  0  0
   -9.0970   21.5480  -32.3340 N   0  0  0  0  0  0  0  0  0  0  0  0
   -8.0370   20.7140  -32.1660 C   0  0  0  0  0  0  0  0  0  0  0  0
   -6.8230   21.2120  -31.6830 C   0  0  0  0  0  0  0  0  0  0  0  0
   -4.6120   22.4820  -30.0210 N   0  0  0  0  0  0  0  0  0  0  0  0
   -1.4640   24.1920  -28.7890 C   0  0  0  0  0  0  0  0  0  0  0  0
   -1.5840   25.4730  -29.3350 O   0  0  0  0  0  0  0  0  0  0  0  0
    0.6187   24.9071  -25.7971 H   0  0  0  0  0  0  0  0  0  0  0  0
    2.2420   25.0215  -26.5576 H   0  0  0  0  0  0  0  0  0  0  0  0
    1.1478   26.4460  -26.5576 H   0  0  0  0  0  0  0  0  0  0  0  0
    0.6843   22.4537  -26.7608 H   0  0  0  0  0  0  0  0  0  0  0  0
   -1.1016   20.7378  -27.0038 H   0  0  0  0  0  0  0  0  0  0  0  0
   -3.0948   21.1958  -28.4191 H   0  0  0  0  0  0  0  0  0  0  0  0
   -7.7519   24.4848  -31.3284 H   0  0  0  0  0  0  0  0  0  0  0  0
   -9.8906   23.5212  -32.1938 H   0  0  0  0  0  0  0  0  0  0  0  0
   -8.1343   19.6459  -32.4103 H   0  0  0  0  0  0  0  0  0  0  0  0
   -5.9641   20.5389  -31.5446 H   0  0  0  0  0  0  0  0  0  0  0  0
   -2.0930   25.6730  -30.1860 H   0  0  0  0  0  0  0  0  0  0  0  0
  1  2  1  0
  2  3  1  0
  3  4  2  0
  4  5  1  0
  5  6  2  0
  6  7  1  0
  7  8  1  0
  8  9  2  0
  9 10  1  0
 10 11  1  0
 11 12  1  0
 12 13  2  0
 13 14  1  0
 14 15  2  0
 15 16  1  0
 16 17  2  0
 11 18  2  0
  7 19  2  0
 19 20  1  0
 19  3  1  0
 18  8  1  0
 17 12  1  0
  1 21  1  0
  1 22  1  0
  1 23  1  0
  4 24  1  0
  5 25  1  0
  6 26  1  0
 13 27  1  0
 14 28  1  0
 16 29  1  0
 17 30  1  0
 20 31  1  0
M  END
>  <UniqueID>  (42) 
39

>  <SMILES>  (42) 
COc1cccc(-c2noc(-c3ccncc3)n2)c1O

>  <Energy>  (42) 
72.88134497294693

>  <Genealogy>  (42) 
COc1cccc(-c2noc(-c3ccncc3)n2)c1O (3D coordinates assigned)
COc1cccc(-c2noc(-c3ccncc3)n2)c1O (optimized conformer: 72.88134497294693 kcal/mol)

>  <smiles>  (42) 
COc1cccc(-c2noc(-c3ccncc3)n2)c1O

>  <score_type>  (42) 
oracle

>  <origin>  (42) 
adgpu

>  <m_score__min__energy>  (42) 
-8.3100000000000005

>  <m_primary>  (42) 
energy

$$$$
42:0
     RDKit          3D

 27 28  0  0  0  0  0  0  0  0999 V2000
   -2.7500   24.5700  -29.3710 C   0  0  0  0  0  0  0  0  0  0  0  0
   -3.5140   25.2970  -30.3740 N   0  0  0  0  0  0  0  0  0  0  0  0
   -4.8340   24.9730  -30.8350 C   0  0  0  0  0  0  0  0  0  0  0  0
   -5.6990   25.8890  -30.8380 O   0  0  0  0  0  0  0  0  0  0  0  0
   -5.2120   23.6150  -31.3040 C   0  0  0  0  0  0  0  0  0  0  0  0
   -4.2980   22.8370  -31.9460 N   0  0  0  0  0  0  0  0  0  0  0  0
   -4.5910   21.5950  -32.4110 C   0  0  0  0  0  0  0  0  0  0  0  0
   -5.8800   21.0630  -32.2500 C   0  0  0  0  0  0  0  0  0  0  0  0
   -6.2140   19.7070  -32.7560 C   0  0  0  0  0  0  0  0  0  0  0  0
   -5.7320   19.2700  -34.0040 C   0  0  0  0  0  0  0  0  0  0  0  0
   -6.0470   17.9920  -34.4780 C   0  0  0  0  0  0  0  0  0  0  0  0
   -6.8460   17.1390  -33.7130 C   0  0  0  0  0  0  0  0  0  0  0  0
   -7.3310   17.5610  -32.4740 C   0  0  0  0  0  0  0  0  0  0  0  0
   -7.0180   18.8370  -31.9950 C   0  0  0  0  0  0  0  0  0  0  0  0
   -6.8440   21.8470  -31.5980 C   0  0  0  0  0  0  0  0  0  0  0  0
   -6.5190   23.1210  -31.1260 C   0  0  0  0  0  0  0  0  0  0  0  0
   -7.4670   23.8470  -30.4810 F   0  0  0  0  0  0  0  0  0  0  0  0
   -3.0753   24.8795  -28.3668 H   0  0  0  0  0  0  0  0  0  0  0  0
   -2.9178   23.4899  -29.4941 H   0  0  0  0  0  0  0  0  0  0  0  0
   -1.6795   24.7911  -29.4941 H   0  0  0  0  0  0  0  0  0  0  0  0
   -3.8140   21.0028  -32.9165 H   0  0  0  0  0  0  0  0  0  0  0  0
   -5.1032   19.9380  -34.6110 H   0  0  0  0  0  0  0  0  0  0  0  0
   -5.6651   17.6585  -35.4542 H   0  0  0  0  0  0  0  0  0  0  0  0
   -7.0931   16.1345  -34.0871 H   0  0  0  0  0  0  0  0  0  0  0  0
   -7.9607   16.8884  -31.8731 H   0  0  0  0  0  0  0  0  0  0  0  0
   -7.4024   19.1631  -31.0173 H   0  0  0  0  0  0  0  0  0  0  0  0
   -7.8624   21.4558  -31.4576 H   0  0  0  0  0  0  0  0  0  0  0  0
  1  2  1  0
  2  3  1  0
  3  4  2  0
  3  5  1  0
  5  6  2  0
  6  7  1  0
  7  8  2  0
  8  9  1  0
  9 10  2  0
 10 11  1  0
 11 12  2  0
 12 13  1  0
 13 14  2  0
  8 15  1  0
 15 16  2  0
 16 17  1  0
 16  5  1  0
 14  9  1  0
  1 18  1  0
  1 19  1  0
  1 20  1  0
  7 21  1  0
 10 22  1  0
 11 23  1  0
 12 24  1  0
 13 25  1  0
 14 26  1  0
 15 27  1  0
M  CHG  1   2  -1
M  END
>  <UniqueID>  (43) 
40

>  <SMILES>  (43) 
C[N-]C(=O)c1ncc(-c2ccccc2)cc1F

>  <Energy>  (43) 
35.31667711382731

>  <Genealogy>  (43) 
C[N-]C(=O)c1ncc(-c2ccccc2)cc1F (protonated)
C[N-]C(=O)c1ncc(-c2ccccc2)cc1F (3D coordinates assigned)
C[N-]C(=O)c1ncc(-c2ccccc2)cc1F (optimized conformer: 35.31667711382731 kcal/mol)

>  <smiles>  (43) 
CNC(=O)c1ncc(-c2ccccc2)cc1F

>  <score_type>  (43) 
oracle

>  <origin>  (43) 
adgpu

>  <m_score__min__energy>  (43) 
-8.6699999999999999

>  <m_primary>  (43) 
energy

$$$$
43:0
     RDKit          3D

 29 30  0  0  0  0  0  0  0  0999 V2000
   -3.1930   24.1560  -27.7260 C   0  0  0  0  0  0  0  0  0  0  0  0
   -2.3440   24.6760  -29.2020 S   0  0  0  0  0  0  0  0  0  0  0  0
   -1.5370   23.5230  -29.7250 O   0  0  0  0  0  0  0  0  0  0  0  0
   -1.4150   25.8180  -28.8970 O   0  0  0  0  0  0  0  0  0  0  0  0
   -3.4890   25.1490  -30.4150 N   0  0  0  0  0  0  0  0  0  0  0  0
   -4.7890   24.5730  -30.6160 C   0  0  0  0  0  0  0  0  0  0  0  0
   -5.9670   25.2400  -30.2410 C   0  0  0  0  0  0  0  0  0  0  0  0
   -7.2110   24.6420  -30.4490 C   0  0  0  0  0  0  0  0  0  0  0  0
   -7.2970   23.3760  -31.0330 C   0  0  0  0  0  0  0  0  0  0  0  0
   -8.5220   22.8320  -31.2490 F   0  0  0  0  0  0  0  0  0  0  0  0
   -6.1280   22.6930  -31.4180 C   0  0  0  0  0  0  0  0  0  0  0  0
   -6.2150   21.3510  -32.0400 C   0  0  0  0  0  0  0  0  0  0  0  0
   -5.2230   20.9170  -32.9350 C   0  0  0  0  0  0  0  0  0  0  0  0
   -5.3070   19.6510  -33.5210 C   0  0  0  0  0  0  0  0  0  0  0  0
   -6.3780   18.8040  -33.2220 C   0  0  0  0  0  0  0  0  0  0  0  0
   -6.4470   17.2190  -33.9800 Cl  0  0  0  0  0  0  0  0  0  0  0  0
   -7.3750   19.2290  -32.3280 C   0  0  0  0  0  0  0  0  0  0  0  0
   -8.7370   18.1930  -31.9220 Cl  0  0  0  0  0  0  0  0  0  0  0  0
   -7.2900   20.4980  -31.7420 C   0  0  0  0  0  0  0  0  0  0  0  0
   -4.8760   23.3030  -31.2050 C   0  0  0  0  0  0  0  0  0  0  0  0
   -3.7330   22.6490  -31.5410 F   0  0  0  0  0  0  0  0  0  0  0  0
   -2.6347   24.4980  -26.8421 H   0  0  0  0  0  0  0  0  0  0  0  0
   -4.2035   24.5903  -27.7120 H   0  0  0  0  0  0  0  0  0  0  0  0
   -3.2653   23.0585  -27.7120 H   0  0  0  0  0  0  0  0  0  0  0  0
   -5.9089   26.2377  -29.7815 H   0  0  0  0  0  0  0  0  0  0  0  0
   -8.1286   25.1706  -30.1514 H   0  0  0  0  0  0  0  0  0  0  0  0
   -4.3763   21.5766  -33.1757 H   0  0  0  0  0  0  0  0  0  0  0  0
   -4.5262   19.3194  -34.2212 H   0  0  0  0  0  0  0  0  0  0  0  0
   -8.0717   20.8294  -31.0426 H   0  0  0  0  0  0  0  0  0  0  0  0
  1  2  1  0
  2  3  2  0
  2  4  2  0
  2  5  1  0
  5  6  1  0
  6  7  2  0
  7  8  1  0
  8  9  2  0
  9 10  1  0
  9 11  1  0
 11 12  1  0
 12 13  2  0
 13 14  1  0
 14 15  2  0
 15 16  1  0
 15 17  1  0
 17 18  1  0
 17 19  2  0
 11 20  2  0
 20 21  1  0
 20  6  1  0
 19 12  1  0
  1 22  1  0
  1 23  1  0
  1 24  1  0
  7 25  1  0
  8 26  1  0
 13 27  1  0
 14 28  1  0
 19 29  1  0
M  CHG  1   5  -1
M  END
>  <UniqueID>  (44) 
41

>  <SMILES>  (44) 
CS(=O)(=O)[N-]c1ccc(F)c(-c2ccc(Cl)c(Cl)c2)c1F

>  <Energy>  (44) 
36.74967614940016

>  <Genealogy>  (44) 
CS(=O)(=O)[N-]c1ccc(F)c(-c2ccc(Cl)c(Cl)c2)c1F (protonated)
CS(=O)(=O)[N-]c1ccc(F)c(-c2ccc(Cl)c(Cl)c2)c1F (3D coordinates assigned)
CS(=O)(=O)[N-]c1ccc(F)c(-c2ccc(Cl)c(Cl)c2)c1F (optimized conformer: 36.74967614940016 kcal/mol)

>  <smiles>  (44) 
CS(=O)(=O)Nc1ccc(F)c(-c2ccc(Cl)c(Cl)c2)c1F

>  <score_type>  (44) 
oracle

>  <origin>  (44) 
adgpu

>  <m_score__min__energy>  (44) 
-10.49

>  <m_primary>  (44) 
energy

$$$$
44:0
     RDKit          3D

 26 27  0  0  0  0  0  0  0  0999 V2000
   -3.8650   25.4160  -30.2330 O   0  0  0  0  0  0  0  0  0  0  0  0
   -4.6910   24.3590  -30.6090 C   0  0  0  0  0  0  0  0  0  0  0  0
   -5.7320   24.5570  -31.5280 C   0  0  0  0  0  0  0  0  0  0  0  0
   -6.5540   23.4880  -31.8980 C   0  0  0  0  0  0  0  0  0  0  0  0
   -6.3510   22.2140  -31.3450 C   0  0  0  0  0  0  0  0  0  0  0  0
   -7.2110   21.0550  -31.7730 C   0  0  0  0  0  0  0  0  0  0  0  0
   -6.3830   20.0380  -32.5090 C   0  0  0  0  0  0  0  0  0  0  0  0
   -5.0450   20.3170  -32.8370 C   0  0  0  0  0  0  0  0  0  0  0  0
   -4.2640   19.3570  -33.4890 C   0  0  0  0  0  0  0  0  0  0  0  0
   -2.5960   19.7150  -33.8980 Cl  0  0  0  0  0  0  0  0  0  0  0  0
   -4.8100   18.1090  -33.8090 C   0  0  0  0  0  0  0  0  0  0  0  0
   -6.1380   17.8200  -33.4760 C   0  0  0  0  0  0  0  0  0  0  0  0
   -6.8190   16.2520  -33.8680 Cl  0  0  0  0  0  0  0  0  0  0  0  0
   -6.9210   18.7790  -32.8240 C   0  0  0  0  0  0  0  0  0  0  0  0
   -5.3000   22.0180  -30.4340 C   0  0  0  0  0  0  0  0  0  0  0  0
   -4.4790   23.0880  -30.0660 C   0  0  0  0  0  0  0  0  0  0  0  0
   -3.0550   25.6750  -30.7820 H   0  0  0  0  0  0  0  0  0  0  0  0
   -5.9020   25.5549  -31.9584 H   0  0  0  0  0  0  0  0  0  0  0  0
   -7.3635   23.6462  -32.6258 H   0  0  0  0  0  0  0  0  0  0  0  0
   -7.6570   20.5856  -30.8838 H   0  0  0  0  0  0  0  0  0  0  0  0
   -8.0038   21.4235  -32.4406 H   0  0  0  0  0  0  0  0  0  0  0  0
   -4.6103   21.2942  -32.5799 H   0  0  0  0  0  0  0  0  0  0  0  0
   -4.1952   17.3550  -34.3224 H   0  0  0  0  0  0  0  0  0  0  0  0
   -7.9624   18.5461  -32.5569 H   0  0  0  0  0  0  0  0  0  0  0  0
   -5.1223   21.0192  -30.0087 H   0  0  0  0  0  0  0  0  0  0  0  0
   -3.6626   22.9294  -29.3461 H   0  0  0  0  0  0  0  0  0  0  0  0
  1  2  1  0
  2  3  2  0
  3  4  1  0
  4  5  2  0
  5  6  1  0
  6  7  1  0
  7  8  2  0
  8  9  1  0
  9 10  1  0
  9 11  2  0
 11 12  1  0
 12 13  1  0
 12 14  2  0
  5 15  1  0
 15 16  2  0
 16  2  1  0
 14  7  1  0
  1 17  1  0
  3 18  1  0
  4 19  1  0
  6 20  1  0
  6 21  1  0
  8 22  1  0
 11 23  1  0
 14 24  1  0
 15 25  1  0
 16 26  1  0
M  END
>  <UniqueID>  (45) 
42

>  <SMILES>  (45) 
Oc1ccc(Cc2cc(Cl)cc(Cl)c2)cc1

>  <Energy>  (45) 
24.44778084265339

>  <Genealogy>  (45) 
Oc1ccc(Cc2cc(Cl)cc(Cl)c2)cc1 (3D coordinates assigned)
Oc1ccc(Cc2cc(Cl)cc(Cl)c2)cc1 (optimized conformer: 24.44778084265339 kcal/mol)

>  <smiles>  (45) 
Oc1ccc(Cc2cc(Cl)cc(Cl)c2)cc1

>  <score_type>  (45) 
oracle

>  <origin>  (45) 
adgpu

>  <m_score__min__energy>  (45) 
-7.8099999999999996

>  <m_primary>  (45) 
energy

$$$$
45:0
     RDKit          3D

 26 27  0  0  0  0  0  0  0  0999 V2000
   -6.1160   25.6520  -30.3580 O   0  0  0  0  0  0  0  0  0  0  0  0
   -5.3460   24.8140  -30.8720 N   0  0  0  0  0  0  0  0  0  0  0  0
   -3.9920   25.0540  -30.8450 O   0  0  0  0  0  0  0  0  0  0  0  0
   -5.8660   23.6180  -31.4820 C   0  0  0  0  0  0  0  0  0  0  0  0
   -5.0060   22.7000  -32.1120 C   0  0  0  0  0  0  0  0  0  0  0  0
   -5.5160   21.5410  -32.7030 C   0  0  0  0  0  0  0  0  0  0  0  0
   -6.8930   21.2830  -32.6930 C   0  0  0  0  0  0  0  0  0  0  0  0
   -7.3910   20.0700  -33.2830 N   0  0  0  0  0  0  0  0  0  0  0  0
   -6.7660   18.7820  -33.1420 C   0  0  0  0  0  0  0  0  0  0  0  0
   -6.7380   18.1640  -31.8820 C   0  0  0  0  0  0  0  0  0  0  0  0
   -6.1110   16.9250  -31.7160 C   0  0  0  0  0  0  0  0  0  0  0  0
   -5.4950   16.3010  -32.8030 C   0  0  0  0  0  0  0  0  0  0  0  0
   -5.4970   16.9190  -34.0570 C   0  0  0  0  0  0  0  0  0  0  0  0
   -6.1230   18.1580  -34.2260 C   0  0  0  0  0  0  0  0  0  0  0  0
   -7.7530   22.1850  -32.0430 C   0  0  0  0  0  0  0  0  0  0  0  0
   -7.2450   23.3450  -31.4510 C   0  0  0  0  0  0  0  0  0  0  0  0
   -3.9240   22.8961  -32.1396 H   0  0  0  0  0  0  0  0  0  0  0  0
   -4.8305   20.8252  -33.1801 H   0  0  0  0  0  0  0  0  0  0  0  0
   -8.2650   20.1280  -33.8520 H   0  0  0  0  0  0  0  0  0  0  0  0
   -7.2119   18.6570  -31.0204 H   0  0  0  0  0  0  0  0  0  0  0  0
   -6.1030   16.4414  -30.7281 H   0  0  0  0  0  0  0  0  0  0  0  0
   -5.0082   15.3232  -32.6725 H   0  0  0  0  0  0  0  0  0  0  0  0
   -5.0058   16.4303  -34.9114 H   0  0  0  0  0  0  0  0  0  0  0  0
   -6.1124   18.6468  -35.2114 H   0  0  0  0  0  0  0  0  0  0  0  0
   -8.8323   21.9768  -31.9999 H   0  0  0  0  0  0  0  0  0  0  0  0
   -7.9297   24.0500  -30.9569 H   0  0  0  0  0  0  0  0  0  0  0  0
  1  2  2  0
  2  3  1  0
  2  4  1  0
  4  5  2  0
  5  6  1  0
  6  7  2  0
  7  8  1  0
  8  9  1  0
  9 10  2  0
 10 11  1  0
 11 12  2  0
 12 13  1  0
 13 14  2  0
  7 15  1  0
 15 16  2  0
 16  4  1  0
 14  9  1  0
  5 17  1  0
  6 18  1  0
  8 19  1  0
 10 20  1  0
 11 21  1  0
 12 22  1  0
 13 23  1  0
 14 24  1  0
 15 25  1  0
 16 26  1  0
M  CHG  2   2   1   3  -1
M  END
>  <UniqueID>  (46) 
43

>  <SMILES>  (46) 
O=[N+]([O-])c1ccc(Nc2ccccc2)cc1

>  <Energy>  (46) 
33.33272140692195

>  <Genealogy>  (46) 
O=[N+]([O-])c1ccc(Nc2ccccc2)cc1 (3D coordinates assigned)
O=[N+]([O-])c1ccc(Nc2ccccc2)cc1 (optimized conformer: 33.33272140692195 kcal/mol)

>  <smiles>  (46) 
O=[N+]([O-])c1ccc(Nc2ccccc2)cc1

>  <score_type>  (46) 
oracle

>  <origin>  (46) 
adgpu

>  <m_score__min__energy>  (46) 
-7.5300000000000002

>  <m_primary>  (46) 
energy

$$$$
46:0
     RDKit          3D

 28 30  0  0  0  0  0  0  0  0999 V2000
   -8.4830   21.9090  -31.4100 C   0  0  0  0  0  0  0  0  0  0  0  0
   -7.8470   22.3420  -30.0950 C   0  0  0  0  0  0  0  0  0  0  0  0
   -6.3800   22.5840  -30.2760 C   0  0  0  0  0  0  0  0  0  0  0  0
   -5.6770   23.3140  -29.4640 N   0  0  0  0  0  0  0  0  0  0  0  0
   -4.3040   23.4190  -29.9500 C   0  0  1  0  0  0  0  0  0  0  0  0
   -3.8610   24.8400  -30.1300 C   0  0  0  0  0  0  0  0  0  0  0  0
   -4.4270   25.6690  -30.8910 O   0  0  0  0  0  0  0  0  0  0  0  0
   -2.7240   25.1770  -29.3360 N   0  0  0  0  0  0  0  0  0  0  0  0
   -2.4340   23.9710  -28.6400 C   0  0  0  0  0  0  0  0  0  0  0  0
   -1.4010   23.7910  -27.7220 C   0  0  0  0  0  0  0  0  0  0  0  0
   -1.2580   22.5330  -27.1140 C   0  0  0  0  0  0  0  0  0  0  0  0
   -2.1460   21.4850  -27.4300 C   0  0  0  0  0  0  0  0  0  0  0  0
   -3.1810   21.6870  -28.3560 C   0  0  0  0  0  0  0  0  0  0  0  0
   -3.3020   22.9440  -28.9530 C   0  0  0  0  0  0  0  0  0  0  0  0
   -4.3490   22.6250  -31.2060 C   0  0  0  0  0  0  0  0  0  0  0  0
   -3.3870   22.4290  -31.9960 O   0  0  0  0  0  0  0  0  0  0  0  0
   -5.6510   22.1080  -31.4030 N   0  0  0  0  0  0  0  0  0  0  0  0
   -9.3760   21.3010  -31.2027 H   0  0  0  0  0  0  0  0  0  0  0  0
   -8.7716   22.7991  -31.9883 H   0  0  0  0  0  0  0  0  0  0  0  0
   -7.7607   21.3143  -31.9883 H   0  0  0  0  0  0  0  0  0  0  0  0
   -8.3268   23.2694  -29.7490 H   0  0  0  0  0  0  0  0  0  0  0  0
   -7.9866   21.5427  -29.3523 H   0  0  0  0  0  0  0  0  0  0  0  0
   -6.0490   23.7720  -28.6000 H   0  0  0  0  0  0  0  0  0  0  0  0
   -0.7137   24.6149  -27.4793 H   0  0  0  0  0  0  0  0  0  0  0  0
   -0.4491   22.3648  -26.3877 H   0  0  0  0  0  0  0  0  0  0  0  0
   -2.0271   20.5033  -26.9481 H   0  0  0  0  0  0  0  0  0  0  0  0
   -3.8800   20.8751  -28.6056 H   0  0  0  0  0  0  0  0  0  0  0  0
   -6.0020   21.5360  -32.2030 H   0  0  0  0  0  0  0  0  0  0  0  0
  1  2  1  0
  2  3  1  0
  3  4  2  0
  4  5  1  0
  5  6  1  6
  6  7  2  0
  6  8  1  0
  8  9  1  0
  9 10  2  0
 10 11  1  0
 11 12  2  0
 12 13  1  0
 13 14  2  0
  5 15  1  0
 15 16  2  0
 15 17  1  0
 17  3  1  0
 14  5  1  0
 14  9  1  0
  1 18  1  0
  1 19  1  0
  1 20  1  0
  2 21  1  0
  2 22  1  0
  4 23  1  0
 10 24  1  0
 11 25  1  0
 12 26  1  0
 13 27  1  0
 17 28  1  0
M  CHG  2   4   1   8  -1
M  END
>  <UniqueID>  (47) 
44

>  <SMILES>  (47) 
CCC1=[NH+][C@]2(C(=O)[N-]c3ccccc32)C(=O)N1

>  <Energy>  (47) 
65.36531026160665

>  <Genealogy>  (47) 
CCC1=[NH+]C2(C(=O)[N-]c3ccccc32)C(=O)N1 (protonated)
CCC1=[NH+][C@]2(C(=O)[N-]c3ccccc32)C(=O)N1 (chirality)
CCC1=[NH+][C@]2(C(=O)[N-]c3ccccc32)C(=O)N1 (3D coordinates assigned)
CCC1=[NH+][C@]2(C(=O)[N-]c3ccccc32)C(=O)N1 (nonaromatic ring conformer: 65.36531026160665 kcal/mol)

>  <smiles>  (47) 
CCC1=NC2(C(=O)N1)C(=O)Nc1ccccc12

>  <score_type>  (47) 
oracle

>  <origin>  (47) 
adgpu

>  <m_score__min__energy>  (47) 
-7.6799999999999997

>  <m_primary>  (47) 
energy

$$$$
47:0
     RDKit          3D

 48 50  0  0  0  0  0  0  0  0999 V2000
   -3.6520   21.1719  -33.4664 H   0  0  0  0  0  0  0  0  0  0  0  0
   -2.9790   21.4910  -32.6570 C   0  0  0  0  0  0  0  0  0  0  0  0
   -3.4690   22.2560  -31.5900 C   0  0  0  0  0  0  0  0  0  0  0  0
   -4.8580   22.6120  -31.5240 N   0  0  0  0  0  0  0  0  0  0  0  0
   -5.2590   23.9670  -31.2560 C   0  0  0  0  0  0  0  0  0  0  0  0
   -4.3970   24.8880  -31.2120 O   0  0  0  0  0  0  0  0  0  0  0  0
   -6.6350   24.2610  -30.9460 N   0  0  2  0  0  0  0  0  0  0  0  0
   -6.8130   25.2770  -31.1360 H   0  0  0  0  0  0  0  0  0  0  0  0
   -6.8840   24.0200  -29.5140 C   0  0  0  0  0  0  0  0  0  0  0  0
   -6.2217   24.6611  -28.9137 H   0  0  0  0  0  0  0  0  0  0  0  0
   -7.9328   24.2549  -29.2796 H   0  0  0  0  0  0  0  0  0  0  0  0
   -6.6835   22.9641  -29.2796 H   0  0  0  0  0  0  0  0  0  0  0  0
   -7.5550   23.4750  -31.7990 C   0  0  0  0  0  0  0  0  0  0  0  0
   -7.4973   23.8625  -32.8269 H   0  0  0  0  0  0  0  0  0  0  0  0
   -8.5655   23.5797  -31.3771 H   0  0  0  0  0  0  0  0  0  0  0  0
   -7.2220   21.9900  -31.8210 C   0  0  0  0  0  0  0  0  0  0  0  0
   -5.8760   21.6100  -31.6930 C   0  0  0  0  0  0  0  0  0  0  0  0
   -5.5330   20.3000  -31.7670 N   0  0  0  0  0  0  0  0  0  0  0  0
   -6.4440   19.3090  -31.9470 C   0  0  0  0  0  0  0  0  0  0  0  0
   -6.0190   17.9760  -32.0160 O   0  0  0  0  0  0  0  0  0  0  0  0
   -5.8280   17.2660  -33.2390 C   0  0  0  0  0  0  0  0  0  0  0  0
   -6.6888   16.6025  -33.4087 H   0  0  0  0  0  0  0  0  0  0  0  0
   -4.9004   16.6795  -33.1643 H   0  0  0  0  0  0  0  0  0  0  0  0
   -5.7020   18.2310  -34.4130 C   0  0  0  0  0  0  0  0  0  0  0  0
   -5.5683   19.2547  -34.0334 H   0  0  0  0  0  0  0  0  0  0  0  0
   -4.8328   17.9509  -35.0262 H   0  0  0  0  0  0  0  0  0  0  0  0
   -6.6140   18.1835  -35.0262 H   0  0  0  0  0  0  0  0  0  0  0  0
   -7.8090   19.6280  -32.0720 C   0  0  0  0  0  0  0  0  0  0  0  0
   -8.8190   18.5170  -32.2470 C   0  0  0  0  0  0  0  0  0  0  0  0
   -9.1448   18.1587  -31.2593 H   0  0  0  0  0  0  0  0  0  0  0  0
   -9.6882   18.8961  -32.8045 H   0  0  0  0  0  0  0  0  0  0  0  0
   -8.3590   17.6878  -32.8045 H   0  0  0  0  0  0  0  0  0  0  0  0
   -8.1980   20.9930  -32.0820 C   0  0  0  0  0  0  0  0  0  0  0  0
   -9.6380   21.3880  -32.3340 C   0  0  0  0  0  0  0  0  0  0  0  0
  -10.1531   21.5293  -31.3724 H   0  0  0  0  0  0  0  0  0  0  0  0
   -9.6659   22.3270  -32.9063 H   0  0  0  0  0  0  0  0  0  0  0  0
  -10.1410   20.5947  -32.9063 H   0  0  0  0  0  0  0  0  0  0  0  0
   -2.6220   22.6450  -30.5960 N   0  0  0  0  0  0  0  0  0  0  0  0
   -1.2970   22.3180  -30.6040 C   0  0  0  0  0  0  0  0  0  0  0  0
   -0.5060   22.7200  -29.6540 N   0  0  0  0  0  0  0  0  0  0  0  0
   -0.9330   23.5400  -28.5270 C   0  0  0  0  0  0  0  0  0  0  0  0
   -0.6701   23.0351  -27.5858 H   0  0  0  0  0  0  0  0  0  0  0  0
   -0.4290   24.5167  -28.5724 H   0  0  0  0  0  0  0  0  0  0  0  0
   -2.0222   23.6870  -28.5724 H   0  0  0  0  0  0  0  0  0  0  0  0
   -0.7820   21.5490  -31.6530 C   0  0  0  0  0  0  0  0  0  0  0  0
    0.2821   21.2705  -31.6662 H   0  0  0  0  0  0  0  0  0  0  0  0
   -1.6300   21.1380  -32.6830 C   0  0  0  0  0  0  0  0  0  0  0  0
   -1.2345   20.5362  -33.5145 H   0  0  0  0  0  0  0  0  0  0  0  0
  1  2  1  0
  2  3  2  0
  3  4  1  0
  4  5  1  0
  5  6  2  0
  5  7  1  0
  7  8  1  1
  7  9  1  0
  9 10  1  0
  9 11  1  0
  9 12  1  0
  7 13  1  0
 13 14  1  0
 13 15  1  0
 13 16  1  0
 16 17  2  0
 17 18  1  0
 18 19  2  0
 19 20  1  0
 20 21  1  0
 21 22  1  0
 21 23  1  0
 21 24  1  0
 24 25  1  0
 24 26  1  0
 24 27  1  0
 19 28  1  0
 28 29  1  0
 29 30  1  0
 29 31  1  0
 29 32  1  0
 28 33  2  0
 33 34  1  0
 34 35  1  0
 34 36  1  0
 34 37  1  0
  3 38  1  0
 38 39  1  0
 39 40  2  0
 40 41  1  0
 41 42  1  0
 41 43  1  0
 41 44  1  0
 39 45  1  0
 45 46  1  0
 45 47  2  0
 47 48  1  0
 47  2  1  0
 17  4  1  0
 33 16  1  0
M  CHG  2   7   1  38  -1
M  END
>  <UniqueID>  (48) 
45

>  <SMILES>  (48) 
CCOc1nc2c(c(C)c1C)C[N@@H+](C)C(=O)N2c1ccc/c(=N/C)[n-]1

>  <Energy>  (48) 
59.205679493238414

>  <Genealogy>  (48) 
CCOc1nc2c(c(C)c1C)C[NH+](C)C(=O)N2c1cccc(=NC)[n-]1 (protonated)
CCOc1nc2c(c(C)c1C)C[N@@H+](C)C(=O)N2c1cccc(=NC)[n-]1 (chirality)
CCOc1nc2c(c(C)c1C)C[N@@H+](C)C(=O)N2c1ccc/c(=N/C)[n-]1 (cis-trans isomerization)
CCOc1nc2c(c(C)c1C)C[N@@H+](C)C(=O)N2c1ccc/c(=N/C)[n-]1 (3D coordinates assigned)
CCOc1nc2c(c(C)c1C)C[N@@H+](C)C(=O)N2c1ccc/c(=N/C)[n-]1 (nonaromatic ring conformer: 59.205679493238414 kcal/mol)

>  <smiles>  (48) 
CCOc1nc2c(c(C)c1C)CN(C)C(=O)N2c1cccc(=NC)[nH]1

>  <score_type>  (48) 
oracle

>  <origin>  (48) 
adgpu

>  <m_score__min__energy>  (48) 
-8.1400000000000006

>  <m_primary>  (48) 
energy

$$$$
48:0
     RDKit          3D

 26 28  0  0  0  0  0  0  0  0999 V2000
   -2.2690   22.8170  -30.7400 H   0  0  0  0  0  0  0  0  0  0  0  0
   -2.5950   23.7620  -30.4370 N   0  0  0  0  0  0  0  0  0  0  0  0
   -3.8370   24.1280  -30.5090 C   0  0  0  0  0  0  0  0  0  0  0  0
   -4.2110   25.3770  -30.0990 N   0  0  0  0  0  0  0  0  0  0  0  0
   -3.4950   26.0410  -29.7270 H   0  0  0  0  0  0  0  0  0  0  0  0
   -5.5170   25.7770  -30.1670 C   0  0  0  0  0  0  0  0  0  0  0  0
   -5.7965   26.7863  -29.8307 H   0  0  0  0  0  0  0  0  0  0  0  0
   -6.5030   24.9110  -30.6620 C   0  0  0  0  0  0  0  0  0  0  0  0
   -7.5582   25.2149  -30.7258 H   0  0  0  0  0  0  0  0  0  0  0  0
   -6.0820   23.6500  -31.0680 C   0  0  0  0  0  0  0  0  0  0  0  0
   -6.8180   22.6080  -31.5850 C   0  0  0  0  0  0  0  0  0  0  0  0
   -7.8999   22.5698  -31.7802 H   0  0  0  0  0  0  0  0  0  0  0  0
   -5.8640   21.6100  -31.8030 C   0  0  0  0  0  0  0  0  0  0  0  0
   -6.1080   20.2560  -32.3570 C   0  0  0  0  0  0  0  0  0  0  0  0
   -7.1800   19.4620  -31.9050 C   0  0  0  0  0  0  0  0  0  0  0  0
   -7.8550   19.8474  -31.1267 H   0  0  0  0  0  0  0  0  0  0  0  0
   -7.3920   18.1870  -32.4390 C   0  0  0  0  0  0  0  0  0  0  0  0
   -8.2314   17.5742  -32.0785 H   0  0  0  0  0  0  0  0  0  0  0  0
   -6.5410   17.6890  -33.4290 C   0  0  0  0  0  0  0  0  0  0  0  0
   -6.8110   16.0900  -34.0980 Cl  0  0  0  0  0  0  0  0  0  0  0  0
   -5.4750   18.4670  -33.8860 C   0  0  0  0  0  0  0  0  0  0  0  0
   -4.8049   18.0755  -34.6656 H   0  0  0  0  0  0  0  0  0  0  0  0
   -5.2570   19.7430  -33.3550 C   0  0  0  0  0  0  0  0  0  0  0  0
   -4.4150   20.3497  -33.7196 H   0  0  0  0  0  0  0  0  0  0  0  0
   -4.6380   22.0530  -31.4280 N   0  0  0  0  0  0  0  0  0  0  0  0
   -4.7960   23.2890  -30.9870 N   0  0  0  0  0  0  0  0  0  0  0  0
  1  2  1  0
  2  3  2  0
  3  4  1  0
  4  5  1  0
  4  6  1  0
  6  7  1  0
  6  8  2  0
  8  9  1  0
  8 10  1  0
 10 11  2  0
 11 12  1  0
 11 13  1  0
 13 14  1  0
 14 15  2  0
 15 16  1  0
 15 17  1  0
 17 18  1  0
 17 19  2  0
 19 20  1  0
 19 21  1  0
 21 22  1  0
 21 23  2  0
 23 24  1  0
 13 25  2  0
 25 26  1  0
 26  3  1  0
 26 10  1  0
 23 14  1  0
M  END
>  <UniqueID>  (49) 
46

>  <SMILES>  (49) 
[H]/N=c1/[nH]ccc2cc(-c3ccc(Cl)cc3)nn12

>  <Energy>  (49) 
66.31632915687395

>  <Genealogy>  (49) 
[H]/N=c1/[nH]ccc2cc(-c3ccc(Cl)cc3)nn12 (cis-trans isomerization)
[H]/N=c1/[nH]ccc2cc(-c3ccc(Cl)cc3)nn12 (3D coordinates assigned)
[H]/N=c1/[nH]ccc2cc(-c3ccc(Cl)cc3)nn12 (optimized conformer: 66.31632915687395 kcal/mol)

>  <smiles>  (49) 
N=c1[nH]ccc2cc(-c3ccc(Cl)cc3)nn12

>  <score_type>  (49) 
oracle

>  <origin>  (49) 
adgpu

>  <m_score__min__energy>  (49) 
-7.25

>  <m_primary>  (49) 
energy

$$$$
