0:0
     RDKit          3D

 45 48  0  0  0  0  0  0  0  0999 V2000
   -1.5040   22.6570  -30.9850 O   0  0  0  0  0  0  0  0  0  0  0  0
   -2.7170   22.9680  -31.1420 C   0  0  0  0  0  0  0  0  0  0  0  0
   -3.2260   24.1540  -30.5180 N   0  0  0  0  0  0  0  0  0  0  0  0
   -3.1910   24.4320  -29.1100 C   0  0  0  0  0  0  0  0  0  0  0  0
   -4.2230   23.9430  -28.2930 C   0  0  0  0  0  0  0  0  0  0  0  0
   -5.5280   22.9800  -28.9730 Cl  0  0  0  0  0  0  0  0  0  0  0  0
   -4.2110   24.1970  -26.9190 C   0  0  0  0  0  0  0  0  0  0  0  0
   -3.1830   24.9510  -26.3520 C   0  0  0  0  0  0  0  0  0  0  0  0
   -2.1660   25.4780  -27.1580 C   0  0  0  0  0  0  0  0  0  0  0  0
   -0.8740   26.4400  -26.4360 S   0  0  0  0  0  0  0  0  0  0  0  0
   -0.8680   27.8040  -27.0680 O   0  0  0  0  0  0  0  0  0  0  0  0
   -1.0920   26.5990  -24.9570 O   0  0  0  0  0  0  0  0  0  0  0  0
    0.6650   25.6250  -26.6970 C   0  0  0  0  0  0  0  0  0  0  0  0
    1.8520   26.3710  -26.6930 C   0  0  0  0  0  0  0  0  0  0  0  0
    3.0830   25.7350  -26.8810 C   0  0  0  0  0  0  0  0  0  0  0  0
    3.1330   24.3520  -27.0730 C   0  0  0  0  0  0  0  0  0  0  0  0
    1.9520   23.6030  -27.0770 C   0  0  0  0  0  0  0  0  0  0  0  0
    0.7200   24.2370  -26.8890 C   0  0  0  0  0  0  0  0  0  0  0  0
   -2.1790   25.2340  -28.5430 C   0  0  0  0  0  0  0  0  0  0  0  0
   -1.2080   25.8140  -29.3530 O   0  0  0  0  0  0  0  0  0  0  0  0
   -3.6110   22.0790  -31.9340 C   0  0  0  0  0  0  0  0  0  0  0  0
   -5.0060   22.1810  -31.7710 C   0  0  0  0  0  0  0  0  0  0  0  0
   -5.8910   21.3680  -32.5000 C   0  0  0  0  0  0  0  0  0  0  0  0
   -7.3520   21.5290  -32.2920 C   0  0  0  0  0  0  0  0  0  0  0  0
   -8.0060   22.6230  -31.7550 C   0  0  0  0  0  0  0  0  0  0  0  0
   -9.3330   22.2530  -31.7420 C   0  0  0  0  0  0  0  0  0  0  0  0
   -9.4570   21.0080  -32.2360 N   0  0  0  0  0  0  0  0  0  0  0  0
   -8.2530   20.5650  -32.5660 N   0  0  0  0  0  0  0  0  0  0  0  0
   -5.3640   20.4110  -33.3930 C   0  0  0  0  0  0  0  0  0  0  0  0
   -6.2060   19.5460  -34.0900 O   0  0  0  0  0  0  0  0  0  0  0  0
   -3.9790   20.3090  -33.5650 C   0  0  0  0  0  0  0  0  0  0  0  0
   -3.1060   21.1290  -32.8500 C   0  0  0  0  0  0  0  0  0  0  0  0
   -1.7390   20.9850  -33.0640 O   0  0  0  0  0  0  0  0  0  0  0  0
   -5.0153   23.8009  -26.2817 H   0  0  0  0  0  0  0  0  0  0  0  0
   -3.1712   25.1323  -25.2671 H   0  0  0  0  0  0  0  0  0  0  0  0
    1.8148   27.4599  -26.5415 H   0  0  0  0  0  0  0  0  0  0  0  0
    4.0122   26.3237  -26.8777 H   0  0  0  0  0  0  0  0  0  0  0  0
    4.1016   23.8521  -27.2211 H   0  0  0  0  0  0  0  0  0  0  0  0
    1.9923   22.5142  -27.2282 H   0  0  0  0  0  0  0  0  0  0  0  0
   -0.2077   23.6459  -26.8917 H   0  0  0  0  0  0  0  0  0  0  0  0
   -5.4121   22.9131  -31.0574 H   0  0  0  0  0  0  0  0  0  0  0  0
   -7.5666   23.5725  -31.4155 H   0  0  0  0  0  0  0  0  0  0  0  0
  -10.1631   22.8791  -31.3830 H   0  0  0  0  0  0  0  0  0  0  0  0
   -7.2050   19.7090  -34.1540 H   0  0  0  0  0  0  0  0  0  0  0  0
   -3.5732   19.5721  -34.2737 H   0  0  0  0  0  0  0  0  0  0  0  0
  1  2  2  0
  2  3  1  0
  3  4  1  0
  4  5  2  0
  5  6  1  0
  5  7  1  0
  7  8  2  0
  8  9  1  0
  9 10  1  0
 10 11  2  0
 10 12  2  0
 10 13  1  0
 13 14  2  0
 14 15  1  0
 15 16  2  0
 16 17  1  0
 17 18  2  0
  9 19  2  0
 19 20  1  0
  2 21  1  0
 21 22  2  0
 22 23  1  0
 23 24  1  0
 24 25  1  0
 25 26  2  0
 26 27  1  0
 27 28  1  0
 23 29  2  0
 29 30  1  0
 29 31  1  0
 31 32  2  0
 32 33  1  0
 19  4  1  0
 32 21  1  0
 18 13  1  0
 28 24  2  0
  7 34  1  0
  8 35  1  0
 14 36  1  0
 15 37  1  0
 16 38  1  0
 17 39  1  0
 18 40  1  0
 22 41  1  0
 25 42  1  0
 26 43  1  0
 30 44  1  0
 31 45  1  0
M  CHG  4   3  -1  20  -1  27  -1  33  -1
M  END
>  <UniqueID>  (1) 
1

>  <SMILES>  (1) 
O=C([N-]c1c(Cl)ccc(S(=O)(=O)c2ccccc2)c1[O-])c1cc(-c2cc[n-]n2)c(O)cc1[O-]

>  <Energy>  (1) 
94.63893657406553

>  <Genealogy>  (1) 
O=C([N-]c1c(Cl)ccc(S(=O)(=O)c2ccccc2)c1[O-])c1cc(-c2cc[n-]n2)c(O)cc1[O-] (protonated)
O=C([N-]c1c(Cl)ccc(S(=O)(=O)c2ccccc2)c1[O-])c1cc(-c2cc[n-]n2)c(O)cc1[O-] (3D coordinates assigned)
O=C([N-]c1c(Cl)ccc(S(=O)(=O)c2ccccc2)c1[O-])c1cc(-c2cc[n-]n2)c(O)cc1[O-] (optimized conformer: 94.63893657406553 kcal/mol)

>  <smiles>  (1) 
O=C(Nc1c(Cl)ccc(S(=O)(=O)c2ccccc2)c1O)c1cc(-c2cc[nH]n2)c(O)cc1O

>  <score_type>  (1) 
oracle

>  <origin>  (1) 
adgpu

>  <m_score__min__energy>  (1) 
-13.369999999999999

>  <m_primary>  (1) 
energy

$$$$
1:0
     RDKit          3D

 52 54  0  0  0  0  0  0  0  0999 V2000
   -4.2360   17.2850  -34.6250 C   0  0  0  0  0  0  0  0  0  0  0  0
   -3.9170   18.6730  -34.5870 O   0  0  0  0  0  0  0  0  0  0  0  0
   -3.5260   19.3710  -33.4340 C   0  0  0  0  0  0  0  0  0  0  0  0
   -2.1740   19.6530  -33.1600 C   0  0  0  0  0  0  0  0  0  0  0  0
   -1.8160   20.3510  -32.0060 C   0  0  0  0  0  0  0  0  0  0  0  0
   -2.8000   20.7800  -31.1050 C   0  0  0  0  0  0  0  0  0  0  0  0
   -2.4120   21.4920  -29.8370 C   0  0  0  0  0  0  0  0  0  0  0  0
   -1.1090   22.7380  -30.1440 S   0  0  0  0  0  0  0  0  0  0  0  0
   -1.1790   23.4640  -28.4990 C   0  0  0  0  0  0  0  0  0  0  0  0
   -0.5100   22.8280  -27.4440 C   0  0  0  0  0  0  0  0  0  0  0  0
   -0.5230   23.3870  -26.1640 C   0  0  0  0  0  0  0  0  0  0  0  0
   -1.2150   24.5750  -25.9280 C   0  0  0  0  0  0  0  0  0  0  0  0
   -1.8950   25.2090  -26.9710 C   0  0  0  0  0  0  0  0  0  0  0  0
   -1.8700   24.6680  -28.2670 C   0  0  0  0  0  0  0  0  0  0  0  0
   -2.5760   25.3000  -29.3450 N   0  0  0  0  0  0  0  0  0  0  0  0
   -3.8510   24.9020  -29.8630 C   0  0  0  0  0  0  0  0  0  0  0  0
   -4.7750   24.0090  -29.0930 C   0  0  0  0  0  0  0  0  0  0  0  0
   -4.2190   25.3420  -30.9830 O   0  0  0  0  0  0  0  0  0  0  0  0
   -4.1470   20.4980  -31.3700 C   0  0  0  0  0  0  0  0  0  0  0  0
   -4.5140   19.8010  -32.5310 C   0  0  0  0  0  0  0  0  0  0  0  0
   -6.2180   19.4730  -32.8590 S   0  0  0  0  0  0  0  0  0  0  0  0
   -6.5600   18.0610  -32.4710 O   0  0  0  0  0  0  0  0  0  0  0  0
   -6.4630   19.6440  -34.3330 O   0  0  0  0  0  0  0  0  0  0  0  0
   -7.2140   20.5910  -31.9610 N   0  0  0  0  0  0  0  0  0  0  0  0
   -8.6370   20.3360  -32.2420 C   0  0  0  0  0  0  0  0  0  0  0  0
   -9.5210   21.4470  -31.6400 C   0  0  0  0  0  0  0  0  0  0  0  0
   -8.7690   22.3020  -30.8000 O   0  0  0  0  0  0  0  0  0  0  0  0
   -7.7760   22.9650  -31.5620 C   0  0  0  0  0  0  0  0  0  0  0  0
   -6.8660   21.9740  -32.3190 C   0  0  0  0  0  0  0  0  0  0  0  0
   -4.3243   16.9008  -33.5981 H   0  0  0  0  0  0  0  0  0  0  0  0
   -5.1903   17.1424  -35.1531 H   0  0  0  0  0  0  0  0  0  0  0  0
   -3.4397   16.7401  -35.1531 H   0  0  0  0  0  0  0  0  0  0  0  0
   -1.3941   19.3206  -33.8609 H   0  0  0  0  0  0  0  0  0  0  0  0
   -0.7565   20.5655  -31.8025 H   0  0  0  0  0  0  0  0  0  0  0  0
   -3.2984   21.9954  -29.4235 H   0  0  0  0  0  0  0  0  0  0  0  0
   -2.0197   20.7480  -29.1281 H   0  0  0  0  0  0  0  0  0  0  0  0
    0.0272   21.8853  -27.6248 H   0  0  0  0  0  0  0  0  0  0  0  0
    0.0127   22.8902  -25.3417 H   0  0  0  0  0  0  0  0  0  0  0  0
   -1.2253   25.0134  -24.9192 H   0  0  0  0  0  0  0  0  0  0  0  0
   -2.4529   26.1368  -26.7761 H   0  0  0  0  0  0  0  0  0  0  0  0
   -4.6178   24.1609  -28.0149 H   0  0  0  0  0  0  0  0  0  0  0  0
   -5.8170   24.2510  -29.3493 H   0  0  0  0  0  0  0  0  0  0  0  0
   -4.5687   22.9594  -29.3493 H   0  0  0  0  0  0  0  0  0  0  0  0
   -4.9226   20.8257  -30.6622 H   0  0  0  0  0  0  0  0  0  0  0  0
   -8.7896   20.3039  -33.3309 H   0  0  0  0  0  0  0  0  0  0  0  0
   -8.9197   19.3750  -31.7876 H   0  0  0  0  0  0  0  0  0  0  0  0
   -9.9575   22.0402  -32.4571 H   0  0  0  0  0  0  0  0  0  0  0  0
  -10.3112   20.9748  -31.0378 H   0  0  0  0  0  0  0  0  0  0  0  0
   -8.2699   23.6222  -32.2929 H   0  0  0  0  0  0  0  0  0  0  0  0
   -7.1458   23.5412  -30.8686 H   0  0  0  0  0  0  0  0  0  0  0  0
   -6.9985   22.1134  -33.4021 H   0  0  0  0  0  0  0  0  0  0  0  0
   -5.8187   22.1642  -32.0416 H   0  0  0  0  0  0  0  0  0  0  0  0
  1  2  1  0
  2  3  1  0
  3  4  2  0
  4  5  1  0
  5  6  2  0
  6  7  1  0
  7  8  1  0
  8  9  1  0
  9 10  2  0
 10 11  1  0
 11 12  2  0
 12 13  1  0
 13 14  2  0
 14 15  1  0
 15 16  1  0
 16 17  1  0
 16 18  2  0
  6 19  1  0
 19 20  2  0
 20 21  1  0
 21 22  2  0
 21 23  2  0
 21 24  1  0
 24 25  1  0
 25 26  1  0
 26 27  1  0
 27 28  1  0
 28 29  1  0
 20  3  1  0
 29 24  1  0
 14  9  1  0
  1 30  1  0
  1 31  1  0
  1 32  1  0
  4 33  1  0
  5 34  1  0
  7 35  1  0
  7 36  1  0
 10 37  1  0
 11 38  1  0
 12 39  1  0
 13 40  1  0
 17 41  1  0
 17 42  1  0
 17 43  1  0
 19 44  1  0
 25 45  1  0
 25 46  1  0
 26 47  1  0
 26 48  1  0
 28 49  1  0
 28 50  1  0
 29 51  1  0
 29 52  1  0
M  CHG  1  15  -1
M  END
>  <UniqueID>  (2) 
2

>  <SMILES>  (2) 
COc1ccc(CSc2ccccc2[N-]C(C)=O)cc1S(=O)(=O)N1CCOCC1

>  <Energy>  (2) 
57.364198331393936

>  <Genealogy>  (2) 
COc1ccc(CSc2ccccc2[N-]C(C)=O)cc1S(=O)(=O)N1CCOCC1 (protonated)
COc1ccc(CSc2ccccc2[N-]C(C)=O)cc1S(=O)(=O)N1CCOCC1 (3D coordinates assigned)
COc1ccc(CSc2ccccc2[N-]C(C)=O)cc1S(=O)(=O)N1CCOCC1 (nonaromatic ring conformer: 57.364198331393936 kcal/mol)

>  <smiles>  (2) 
COc1ccc(CSc2ccccc2NC(C)=O)cc1S(=O)(=O)N1CCOCC1

>  <score_type>  (2) 
oracle

>  <origin>  (2) 
adgpu

>  <m_score__min__energy>  (2) 
-11.01

>  <m_primary>  (2) 
energy

$$$$
2:0
     RDKit          3D

 28 29  0  0  0  0  0  0  0  0999 V2000
   -5.6550   26.4140  -30.6780 O   0  0  0  0  0  0  0  0  0  0  0  0
   -5.0460   25.3170  -30.7990 C   0  0  0  0  0  0  0  0  0  0  0  0
   -5.7640   24.1320  -31.3630 C   0  0  0  0  0  0  0  0  0  0  0  0
   -6.9840   23.4890  -30.1660 S   0  0  0  0  0  0  0  0  0  0  0  0
   -7.4660   22.0890  -31.1760 C   0  0  0  0  0  0  0  0  0  0  0  0
   -8.7960   21.6520  -31.1920 C   0  0  0  0  0  0  0  0  0  0  0  0
   -9.1470   20.5600  -31.9860 C   0  0  0  0  0  0  0  0  0  0  0  0
   -8.1740   19.9210  -32.7570 C   0  0  0  0  0  0  0  0  0  0  0  0
   -6.8580   20.3890  -32.7210 C   0  0  0  0  0  0  0  0  0  0  0  0
   -6.5350   21.4540  -31.9390 N   0  0  0  0  0  0  0  0  0  0  0  0
   -3.6530   25.2100  -30.4830 N   0  0  0  0  0  0  0  0  0  0  0  0
   -3.0760   24.4710  -29.3960 C   0  0  0  0  0  0  0  0  0  0  0  0
   -3.6680   23.2930  -28.9020 C   0  0  0  0  0  0  0  0  0  0  0  0
   -3.0660   22.5880  -27.8550 C   0  0  0  0  0  0  0  0  0  0  0  0
   -1.8660   23.0420  -27.3030 C   0  0  0  0  0  0  0  0  0  0  0  0
   -1.2610   24.1960  -27.8030 C   0  0  0  0  0  0  0  0  0  0  0  0
   -1.8580   24.9060  -28.8500 C   0  0  0  0  0  0  0  0  0  0  0  0
   -1.2420   26.0520  -29.3410 O   0  0  0  0  0  0  0  0  0  0  0  0
   -6.2848   24.4301  -32.2849 H   0  0  0  0  0  0  0  0  0  0  0  0
   -5.0293   23.3423  -31.5789 H   0  0  0  0  0  0  0  0  0  0  0  0
   -9.5565   22.1645  -30.5846 H   0  0  0  0  0  0  0  0  0  0  0  0
  -10.1874   20.2034  -32.0046 H   0  0  0  0  0  0  0  0  0  0  0  0
   -8.4406   19.0587  -33.3858 H   0  0  0  0  0  0  0  0  0  0  0  0
   -6.0826   19.8958  -33.3255 H   0  0  0  0  0  0  0  0  0  0  0  0
   -4.6074   22.9259  -29.3411 H   0  0  0  0  0  0  0  0  0  0  0  0
   -3.5384   21.6742  -27.4654 H   0  0  0  0  0  0  0  0  0  0  0  0
   -1.3980   22.4902  -26.4745 H   0  0  0  0  0  0  0  0  0  0  0  0
   -0.3120   24.5482  -27.3725 H   0  0  0  0  0  0  0  0  0  0  0  0
  1  2  2  0
  2  3  1  0
  3  4  1  0
  4  5  1  0
  5  6  2  0
  6  7  1  0
  7  8  2  0
  8  9  1  0
  9 10  2  0
  2 11  1  0
 11 12  1  0
 12 13  2  0
 13 14  1  0
 14 15  2  0
 15 16  1  0
 16 17  2  0
 17 18  1  0
 10  5  1  0
 17 12  1  0
  3 19  1  0
  3 20  1  0
  6 21  1  0
  7 22  1  0
  8 23  1  0
  9 24  1  0
 13 25  1  0
 14 26  1  0
 15 27  1  0
 16 28  1  0
M  CHG  2  11  -1  18  -1
M  END
>  <UniqueID>  (3) 
3

>  <SMILES>  (3) 
O=C(CSc1ccccn1)[N-]c1ccccc1[O-]

>  <Energy>  (3) 
28.073474127015036

>  <Genealogy>  (3) 
O=C(CSc1ccccn1)[N-]c1ccccc1[O-] (protonated)
O=C(CSc1ccccn1)[N-]c1ccccc1[O-] (3D coordinates assigned)
O=C(CSc1ccccn1)[N-]c1ccccc1[O-] (optimized conformer: 28.073474127015036 kcal/mol)

>  <smiles>  (3) 
O=C(CSc1ccccn1)Nc1ccccc1O

>  <score_type>  (3) 
oracle

>  <origin>  (3) 
adgpu

>  <m_score__min__energy>  (3) 
-12.140000000000001

>  <m_primary>  (3) 
energy

$$$$
3:0
     RDKit          3D

 38 40  0  0  0  0  0  0  0  0999 V2000
   -3.1320   20.9930  -33.4240 C   0  0  0  0  0  0  0  0  0  0  0  0
   -4.3130   20.0670  -33.3240 C   0  0  0  0  0  0  0  0  0  0  0  0
   -5.6090   20.6020  -33.2550 C   0  0  0  0  0  0  0  0  0  0  0  0
   -6.7290   19.7680  -33.1530 C   0  0  0  0  0  0  0  0  0  0  0  0
   -8.0380   20.3590  -33.0700 N   0  0  0  0  0  0  0  0  0  0  0  0
   -8.5140   21.4730  -31.8260 S   0  0  0  0  0  0  0  0  0  0  0  0
   -9.6300   22.3410  -32.3350 O   0  0  0  0  0  0  0  0  0  0  0  0
   -9.0020   20.6980  -30.6340 O   0  0  0  0  0  0  0  0  0  0  0  0
   -7.1510   22.5010  -31.3930 C   0  0  0  0  0  0  0  0  0  0  0  0
   -7.0130   23.7590  -31.9960 C   0  0  0  0  0  0  0  0  0  0  0  0
   -5.9220   24.5750  -31.6860 C   0  0  0  0  0  0  0  0  0  0  0  0
   -4.9590   24.1410  -30.7700 C   0  0  0  0  0  0  0  0  0  0  0  0
   -3.8940   24.9310  -30.4700 N   0  0  0  0  0  0  0  0  0  0  0  0
   -2.9390   24.5390  -29.5850 C   0  0  0  0  0  0  0  0  0  0  0  0
   -1.9680   25.3010  -29.3340 O   0  0  0  0  0  0  0  0  0  0  0  0
   -3.0340   23.2940  -28.9540 C   0  0  0  0  0  0  0  0  0  0  0  0
   -4.1170   22.4600  -29.2420 C   0  0  0  0  0  0  0  0  0  0  0  0
   -5.0940   22.8750  -30.1550 C   0  0  0  0  0  0  0  0  0  0  0  0
   -6.1910   22.0610  -30.4690 C   0  0  0  0  0  0  0  0  0  0  0  0
   -6.5450   18.3760  -33.1420 C   0  0  0  0  0  0  0  0  0  0  0  0
   -5.2580   17.8190  -33.2020 C   0  0  0  0  0  0  0  0  0  0  0  0
   -5.0940   16.3240  -33.1720 C   0  0  0  0  0  0  0  0  0  0  0  0
   -4.1360   18.6680  -33.2930 C   0  0  0  0  0  0  0  0  0  0  0  0
   -2.5080   17.9800  -33.3720 Cl  0  0  0  0  0  0  0  0  0  0  0  0
   -2.7898   21.2613  -32.4136 H   0  0  0  0  0  0  0  0  0  0  0  0
   -2.3170   20.4907  -33.9658 H   0  0  0  0  0  0  0  0  0  0  0  0
   -3.4254   21.9043  -33.9658 H   0  0  0  0  0  0  0  0  0  0  0  0
   -5.7467   21.6930  -33.2815 H   0  0  0  0  0  0  0  0  0  0  0  0
   -8.7140   20.2100  -33.8530 H   0  0  0  0  0  0  0  0  0  0  0  0
   -7.7678   24.1056  -32.7172 H   0  0  0  0  0  0  0  0  0  0  0  0
   -5.8205   25.5607  -32.1635 H   0  0  0  0  0  0  0  0  0  0  0  0
   -2.2628   22.9747  -28.2375 H   0  0  0  0  0  0  0  0  0  0  0  0
   -4.2021   21.4787  -28.7522 H   0  0  0  0  0  0  0  0  0  0  0  0
   -6.2994   21.0764  -29.9907 H   0  0  0  0  0  0  0  0  0  0  0  0
   -7.4211   17.7132  -33.0856 H   0  0  0  0  0  0  0  0  0  0  0  0
   -5.0563   15.9802  -32.1278 H   0  0  0  0  0  0  0  0  0  0  0  0
   -5.9457   15.8514  -33.6831 H   0  0  0  0  0  0  0  0  0  0  0  0
   -4.1601   16.0472  -33.6831 H   0  0  0  0  0  0  0  0  0  0  0  0
  1  2  1  0
  2  3  2  0
  3  4  1  0
  4  5  1  0
  5  6  1  0
  6  7  2  0
  6  8  2  0
  6  9  1  0
  9 10  2  0
 10 11  1  0
 11 12  2  0
 12 13  1  0
 13 14  1  0
 14 15  2  0
 14 16  1  0
 16 17  2  0
 17 18  1  0
 18 19  2  0
  4 20  2  0
 20 21  1  0
 21 22  1  0
 21 23  2  0
 23 24  1  0
 23  2  1  0
 19  9  1  0
 18 12  1  0
  1 25  1  0
  1 26  1  0
  1 27  1  0
  3 28  1  0
  5 29  1  0
 10 30  1  0
 11 31  1  0
 16 32  1  0
 17 33  1  0
 19 34  1  0
 20 35  1  0
 22 36  1  0
 22 37  1  0
 22 38  1  0
M  CHG  1  13  -1
M  END
>  <UniqueID>  (4) 
4

>  <SMILES>  (4) 
Cc1cc(NS(=O)(=O)c2ccc3[n-]c(=O)ccc3c2)cc(C)c1Cl

>  <Energy>  (4) 
47.285957367648095

>  <Genealogy>  (4) 
Cc1cc(NS(=O)(=O)c2ccc3[n-]c(=O)ccc3c2)cc(C)c1Cl (protonated)
Cc1cc(NS(=O)(=O)c2ccc3[n-]c(=O)ccc3c2)cc(C)c1Cl (3D coordinates assigned)
Cc1cc(NS(=O)(=O)c2ccc3[n-]c(=O)ccc3c2)cc(C)c1Cl (optimized conformer: 47.285957367648095 kcal/mol)

>  <smiles>  (4) 
Cc1cc(NS(=O)(=O)c2ccc3[nH]c(=O)ccc3c2)cc(C)c1Cl

>  <score_type>  (4) 
oracle

>  <origin>  (4) 
adgpu

>  <m_score__min__energy>  (4) 
-11.279999999999999

>  <m_primary>  (4) 
energy

$$$$
4:0
     RDKit          3D

 50 53  0  0  0  0  0  0  0  0999 V2000
    0.3230   16.8090  -27.1780 C   0  0  0  0  0  0  0  0  0  0  0  0
    0.7670   17.7290  -28.2740 C   0  0  0  0  0  0  0  0  0  0  0  0
    1.6900   17.3410  -29.0410 O   0  0  0  0  0  0  0  0  0  0  0  0
    0.1590   19.0720  -28.4720 C   0  0  0  0  0  0  0  0  0  0  0  0
   -0.6890   19.6440  -27.5010 C   0  0  0  0  0  0  0  0  0  0  0  0
   -1.2430   20.9130  -27.7010 C   0  0  0  0  0  0  0  0  0  0  0  0
   -0.9780   21.6230  -28.8780 C   0  0  0  0  0  0  0  0  0  0  0  0
   -1.6500   23.2340  -29.1250 S   0  0  0  0  0  0  0  0  0  0  0  0
   -2.7510   23.4920  -28.1330 O   0  0  0  0  0  0  0  0  0  0  0  0
   -0.5740   24.2640  -28.9260 O   0  0  0  0  0  0  0  0  0  0  0  0
   -2.2580   23.3610  -30.7400 N   0  0  0  0  0  0  0  0  0  0  0  0
   -3.6610   23.3370  -31.0080 C   0  0  0  0  0  0  0  0  0  0  0  0
   -4.2510   22.1460  -31.4380 C   0  0  0  0  0  0  0  0  0  0  0  0
   -5.6420   22.0640  -31.6560 C   0  0  0  0  0  0  0  0  0  0  0  0
   -6.4330   23.2120  -31.4190 C   0  0  0  0  0  0  0  0  0  0  0  0
   -5.8270   24.4160  -31.0290 C   0  0  0  0  0  0  0  0  0  0  0  0
   -4.4490   24.4800  -30.8220 C   0  0  0  0  0  0  0  0  0  0  0  0
   -3.8700   25.6840  -30.4370 O   0  0  0  0  0  0  0  0  0  0  0  0
   -7.9190   23.1670  -31.6370 C   0  0  0  0  0  0  0  0  0  0  0  0
   -8.4580   21.7700  -31.3420 C   0  0  0  0  0  0  0  0  0  0  0  0
   -7.7380   20.7330  -32.2060 C   0  0  0  0  0  0  0  0  0  0  0  0
   -6.2780   20.8230  -32.0650 N   0  0  0  0  0  0  0  0  0  0  0  0
   -5.3460   19.4690  -32.6480 S   0  0  0  0  0  0  0  0  0  0  0  0
   -5.9420   18.9700  -33.9360 O   0  0  0  0  0  0  0  0  0  0  0  0
   -5.3710   18.3530  -31.6400 O   0  0  0  0  0  0  0  0  0  0  0  0
   -3.6810   19.9570  -32.9030 C   0  0  0  0  0  0  0  0  0  0  0  0
   -3.2440   20.8610  -33.8590 C   0  0  0  0  0  0  0  0  0  0  0  0
   -1.8590   21.0570  -33.8280 C   0  0  0  0  0  0  0  0  0  0  0  0
   -1.2120   20.3090  -32.8520 C   0  0  0  0  0  0  0  0  0  0  0  0
   -2.3620   19.4030  -32.0220 S   0  0  0  0  0  0  0  0  0  0  0  0
   -0.1400   21.0610  -29.8480 C   0  0  0  0  0  0  0  0  0  0  0  0
    0.4270   19.8000  -29.6460 C   0  0  0  0  0  0  0  0  0  0  0  0
    0.5441   17.2671  -26.2027 H   0  0  0  0  0  0  0  0  0  0  0  0
   -0.7594   16.6326  -27.2633 H   0  0  0  0  0  0  0  0  0  0  0  0
    0.8583   15.8519  -27.2633 H   0  0  0  0  0  0  0  0  0  0  0  0
   -0.9165   19.0881  -26.5794 H   0  0  0  0  0  0  0  0  0  0  0  0
   -1.8902   21.3552  -26.9293 H   0  0  0  0  0  0  0  0  0  0  0  0
   -3.6220   21.2599  -31.6089 H   0  0  0  0  0  0  0  0  0  0  0  0
   -6.4431   25.3159  -30.8855 H   0  0  0  0  0  0  0  0  0  0  0  0
   -8.4056   23.8920  -30.9679 H   0  0  0  0  0  0  0  0  0  0  0  0
   -8.1334   23.4179  -32.6863 H   0  0  0  0  0  0  0  0  0  0  0  0
   -8.2951   21.5344  -30.2800 H   0  0  0  0  0  0  0  0  0  0  0  0
   -9.5335   21.7442  -31.5715 H   0  0  0  0  0  0  0  0  0  0  0  0
   -8.0637   19.7276  -31.9009 H   0  0  0  0  0  0  0  0  0  0  0  0
   -7.9923   20.9291  -33.2581 H   0  0  0  0  0  0  0  0  0  0  0  0
   -3.9149   21.3701  -34.5667 H   0  0  0  0  0  0  0  0  0  0  0  0
   -1.3321   21.7388  -34.5117 H   0  0  0  0  0  0  0  0  0  0  0  0
   -0.1298   20.3090  -32.6549 H   0  0  0  0  0  0  0  0  0  0  0  0
    0.0733   21.6149  -30.7741 H   0  0  0  0  0  0  0  0  0  0  0  0
    1.0897   19.3720  -30.4126 H   0  0  0  0  0  0  0  0  0  0  0  0
  1  2  1  0
  2  3  2  0
  2  4  1  0
  4  5  2  0
  5  6  1  0
  6  7  2  0
  7  8  1  0
  8  9  2  0
  8 10  2  0
  8 11  1  0
 11 12  1  0
 12 13  2  0
 13 14  1  0
 14 15  2  0
 15 16  1  0
 16 17  2  0
 17 18  1  0
 15 19  1  0
 19 20  1  0
 20 21  1  0
 21 22  1  0
 22 23  1  0
 23 24  2  0
 23 25  2  0
 23 26  1  0
 26 27  2  0
 27 28  1  0
 28 29  2  0
 29 30  1  0
  7 31  1  0
 31 32  2  0
 32  4  1  0
 17 12  1  0
 30 26  1  0
 22 14  1  0
  1 33  1  0
  1 34  1  0
  1 35  1  0
  5 36  1  0
  6 37  1  0
 13 38  1  0
 16 39  1  0
 19 40  1  0
 19 41  1  0
 20 42  1  0
 20 43  1  0
 21 44  1  0
 21 45  1  0
 27 46  1  0
 28 47  1  0
 29 48  1  0
 31 49  1  0
 32 50  1  0
M  CHG  2  11  -1  18  -1
M  END
>  <UniqueID>  (5) 
5

>  <SMILES>  (5) 
CC(=O)c1ccc(S(=O)(=O)[N-]c2cc3c(cc2[O-])CCCN3S(=O)(=O)c2cccs2)cc1

>  <Energy>  (5) 
88.64698698160413

>  <Genealogy>  (5) 
CC(=O)c1ccc(S(=O)(=O)[N-]c2cc3c(cc2[O-])CCCN3S(=O)(=O)c2cccs2)cc1 (protonated)
CC(=O)c1ccc(S(=O)(=O)[N-]c2cc3c(cc2[O-])CCCN3S(=O)(=O)c2cccs2)cc1 (3D coordinates assigned)
CC(=O)c1ccc(S(=O)(=O)[N-]c2cc3c(cc2[O-])CCCN3S(=O)(=O)c2cccs2)cc1 (nonaromatic ring conformer: 88.64698698160413 kcal/mol)

>  <smiles>  (5) 
CC(=O)c1ccc(S(=O)(=O)Nc2cc3c(cc2O)CCCN3S(=O)(=O)c2cccs2)cc1

>  <score_type>  (5) 
oracle

>  <origin>  (5) 
adgpu

>  <m_score__min__energy>  (5) 
-12.9

>  <m_primary>  (5) 
energy

$$$$
5:0
     RDKit          3D

 31 33  0  0  0  0  0  0  0  0999 V2000
   -9.1510   21.1670  -31.9860 C   0  0  0  0  0  0  0  0  0  0  0  0
   -7.7000   21.5130  -31.9630 C   0  0  0  0  0  0  0  0  0  0  0  0
   -7.1330   22.5450  -31.2420 C   0  0  0  0  0  0  0  0  0  0  0  0
   -5.7840   22.4890  -31.5240 C   0  0  0  0  0  0  0  0  0  0  0  0
   -4.7680   23.4210  -31.0090 C   0  0  0  0  0  0  0  0  0  0  0  0
   -4.8750   24.7590  -31.1390 N   0  0  0  0  0  0  0  0  0  0  0  0
   -3.8540   25.2980  -30.4910 N   0  0  0  0  0  0  0  0  0  0  0  0
   -3.1470   24.2820  -29.9650 C   0  0  0  0  0  0  0  0  0  0  0  0
   -1.8360   24.5060  -29.0090 S   0  0  0  0  0  0  0  0  0  0  0  0
   -3.6890   23.0820  -30.2670 N   0  0  0  0  0  0  0  0  0  0  0  0
   -3.3120   21.7660  -29.7390 C   0  0  0  0  0  0  0  0  0  0  0  0
   -2.0560   21.2430  -30.3750 C   0  0  0  0  0  0  0  0  0  0  0  0
   -1.2110   20.2670  -29.8770 C   0  0  0  0  0  0  0  0  0  0  0  0
   -0.1920   20.1510  -30.7980 C   0  0  0  0  0  0  0  0  0  0  0  0
   -0.4730   21.0610  -31.7960 C   0  0  0  0  0  0  0  0  0  0  0  0
   -1.5870   21.6960  -31.5150 O   0  0  0  0  0  0  0  0  0  0  0  0
   -5.6220   21.4540  -32.4340 C   0  0  0  0  0  0  0  0  0  0  0  0
   -4.3530   21.0250  -33.0970 C   0  0  0  0  0  0  0  0  0  0  0  0
   -6.7830   20.8840  -32.6640 O   0  0  0  0  0  0  0  0  0  0  0  0
   -9.5232   21.0783  -30.9547 H   0  0  0  0  0  0  0  0  0  0  0  0
   -9.7082   21.9575  -32.5101 H   0  0  0  0  0  0  0  0  0  0  0  0
   -9.2915   20.2102  -32.5101 H   0  0  0  0  0  0  0  0  0  0  0  0
   -7.6476   23.2597  -30.5830 H   0  0  0  0  0  0  0  0  0  0  0  0
   -3.1517   21.8513  -28.6541 H   0  0  0  0  0  0  0  0  0  0  0  0
   -4.1264   21.0626  -29.9669 H   0  0  0  0  0  0  0  0  0  0  0  0
   -1.3281   19.7013  -28.9409 H   0  0  0  0  0  0  0  0  0  0  0  0
    0.6707   19.4705  -30.7474 H   0  0  0  0  0  0  0  0  0  0  0  0
    0.1431   21.2291  -32.6916 H   0  0  0  0  0  0  0  0  0  0  0  0
   -3.6059   20.7724  -32.3302 H   0  0  0  0  0  0  0  0  0  0  0  0
   -4.5472   20.1426  -33.7244 H   0  0  0  0  0  0  0  0  0  0  0  0
   -3.9720   21.8443  -33.7244 H   0  0  0  0  0  0  0  0  0  0  0  0
  1  2  1  0
  2  3  2  0
  3  4  1  0
  4  5  1  0
  5  6  2  0
  6  7  1  0
  7  8  1  0
  8  9  2  0
  8 10  1  0
 10 11  1  0
 11 12  1  0
 12 13  2  0
 13 14  1  0
 14 15  2  0
 15 16  1  0
  4 17  2  0
 17 18  1  0
 17 19  1  0
 19  2  1  0
 10  5  1  0
 16 12  1  0
  1 20  1  0
  1 21  1  0
  1 22  1  0
  3 23  1  0
 11 24  1  0
 11 25  1  0
 13 26  1  0
 14 27  1  0
 15 28  1  0
 18 29  1  0
 18 30  1  0
 18 31  1  0
M  CHG  1   7  -1
M  END
>  <UniqueID>  (6) 
6

>  <SMILES>  (6) 
Cc1cc(-c2n[n-]c(=S)n2Cc2ccco2)c(C)o1

>  <Energy>  (6) 
123.3686110024629

>  <Genealogy>  (6) 
Cc1cc(-c2n[n-]c(=S)n2Cc2ccco2)c(C)o1 (protonated)
Cc1cc(-c2n[n-]c(=S)n2Cc2ccco2)c(C)o1 (3D coordinates assigned)
Cc1cc(-c2n[n-]c(=S)n2Cc2ccco2)c(C)o1 (optimized conformer: 123.3686110024629 kcal/mol)

>  <smiles>  (6) 
Cc1cc(-c2n[nH]c(=S)n2Cc2ccco2)c(C)o1

>  <score_type>  (6) 
oracle

>  <origin>  (6) 
adgpu

>  <m_score__min__energy>  (6) 
-7.6699999999999999

>  <m_primary>  (6) 
energy

$$$$
6:0
     RDKit          3D

 54 56  0  0  0  0  0  0  0  0999 V2000
   -2.6400   21.5530  -32.8680 C   0  0  0  0  0  0  0  0  0  0  0  0
   -4.0670   21.6050  -32.4240 C   0  0  0  0  0  0  0  0  0  0  0  0
   -4.9990   20.6910  -32.9270 C   0  0  0  0  0  0  0  0  0  0  0  0
   -6.3360   20.7580  -32.5100 C   0  0  0  0  0  0  0  0  0  0  0  0
   -7.3360   19.7710  -33.0540 C   0  0  0  0  0  0  0  0  0  0  0  0
   -6.7210   21.7520  -31.5850 C   0  0  0  0  0  0  0  0  0  0  0  0
   -8.0910   21.8490  -31.1320 C   0  0  0  0  0  0  0  0  0  0  0  0
   -9.1870   21.9270  -30.7700 N   0  0  0  0  0  0  0  0  0  0  0  0
   -5.7490   22.6500  -31.1020 C   0  0  0  0  0  0  0  0  0  0  0  0
   -6.1650   23.9480  -29.9270 S   0  0  0  0  0  0  0  0  0  0  0  0
   -4.5490   23.9230  -29.0710 C   0  0  0  0  0  0  0  0  0  0  0  0
   -3.5830   24.8760  -29.7170 C   0  0  0  0  0  0  0  0  0  0  0  0
   -3.8530   25.3600  -30.8490 O   0  0  0  0  0  0  0  0  0  0  0  0
   -2.3710   25.2800  -29.0680 N   0  0  0  0  0  0  0  0  0  0  0  0
   -1.5530   24.4700  -28.2130 C   0  0  0  0  0  0  0  0  0  0  0  0
   -1.7160   23.0750  -28.1420 C   0  0  0  0  0  0  0  0  0  0  0  0
   -0.8880   22.3110  -27.3160 C   0  0  0  0  0  0  0  0  0  0  0  0
    0.1200   22.9290  -26.5700 C   0  0  0  0  0  0  0  0  0  0  0  0
    0.3120   24.3140  -26.6590 C   0  0  0  0  0  0  0  0  0  0  0  0
    1.5690   25.1080  -25.7130 S   0  0  0  0  0  0  0  0  0  0  0  0
    2.7640   24.2040  -25.5910 O   0  0  0  0  0  0  0  0  0  0  0  0
    1.9940   26.3530  -26.4430 O   0  0  0  0  0  0  0  0  0  0  0  0
    0.9660   25.5470  -24.1260 N   0  0  0  0  0  0  0  0  0  0  0  0
    1.5010   26.8530  -23.6790 C   0  0  0  0  0  0  0  0  0  0  0  0
    0.8880   28.0460  -24.4360 C   0  0  0  0  0  0  0  0  0  0  0  0
   -0.6220   27.8900  -24.6890 C   0  0  0  0  0  0  0  0  0  0  0  0
   -1.2350   26.7900  -23.8250 C   0  0  0  0  0  0  0  0  0  0  0  0
   -0.5200   25.4470  -24.0620 C   0  0  0  0  0  0  0  0  0  0  0  0
   -0.5220   25.0780  -27.4860 C   0  0  0  0  0  0  0  0  0  0  0  0
   -4.4650   22.5550  -31.5370 N   0  0  0  0  0  0  0  0  0  0  0  0
   -1.9824   21.5290  -31.9865 H   0  0  0  0  0  0  0  0  0  0  0  0
   -2.4767   20.6483  -33.4720 H   0  0  0  0  0  0  0  0  0  0  0  0
   -2.4113   22.4434  -33.4720 H   0  0  0  0  0  0  0  0  0  0  0  0
   -4.6838   19.9220  -33.6476 H   0  0  0  0  0  0  0  0  0  0  0  0
   -7.8459   19.2678  -32.2193 H   0  0  0  0  0  0  0  0  0  0  0  0
   -8.0770   20.3015  -33.6700 H   0  0  0  0  0  0  0  0  0  0  0  0
   -6.8152   19.0231  -33.6700 H   0  0  0  0  0  0  0  0  0  0  0  0
   -4.6939   24.2147  -28.0203 H   0  0  0  0  0  0  0  0  0  0  0  0
   -4.1341   22.9062  -29.1348 H   0  0  0  0  0  0  0  0  0  0  0  0
   -2.4983   22.5836  -28.7391 H   0  0  0  0  0  0  0  0  0  0  0  0
   -1.0293   21.2220  -27.2525 H   0  0  0  0  0  0  0  0  0  0  0  0
    0.7636   22.3267  -25.9119 H   0  0  0  0  0  0  0  0  0  0  0  0
    1.3590   24.8280  -23.4740 H   0  0  0  0  0  0  0  0  0  0  0  0
    1.2867   26.9710  -22.6066 H   0  0  0  0  0  0  0  0  0  0  0  0
    2.5816   26.8534  -23.8845 H   0  0  0  0  0  0  0  0  0  0  0  0
    1.0511   28.9579  -23.8429 H   0  0  0  0  0  0  0  0  0  0  0  0
    1.3810   28.0992  -25.4179 H   0  0  0  0  0  0  0  0  0  0  0  0
   -1.1212   28.8427  -24.4584 H   0  0  0  0  0  0  0  0  0  0  0  0
   -0.7634   27.6125  -25.7440 H   0  0  0  0  0  0  0  0  0  0  0  0
   -1.1385   27.0679  -22.7651 H   0  0  0  0  0  0  0  0  0  0  0  0
   -2.2951   26.6780  -24.0962 H   0  0  0  0  0  0  0  0  0  0  0  0
   -0.7845   24.7659  -23.2397 H   0  0  0  0  0  0  0  0  0  0  0  0
   -0.8540   25.0809  -25.0440 H   0  0  0  0  0  0  0  0  0  0  0  0
   -0.3657   26.1640  -27.5648 H   0  0  0  0  0  0  0  0  0  0  0  0
  1  2  1  0
  2  3  2  0
  3  4  1  0
  4  5  1  0
  4  6  2  0
  6  7  1  0
  7  8  3  0
  6  9  1  0
  9 10  1  0
 10 11  1  0
 11 12  1  0
 12 13  2  0
 12 14  1  0
 14 15  1  0
 15 16  2  0
 16 17  1  0
 17 18  2  0
 18 19  1  0
 19 20  1  0
 20 21  2  0
 20 22  2  0
 20 23  1  0
 23 24  1  0
 24 25  1  0
 25 26  1  0
 26 27  1  0
 27 28  1  0
 19 29  2  0
  9 30  2  0
 30  2  1  0
 29 15  1  0
 28 23  1  0
  1 31  1  0
  1 32  1  0
  1 33  1  0
  3 34  1  0
  5 35  1  0
  5 36  1  0
  5 37  1  0
 11 38  1  0
 11 39  1  0
 16 40  1  0
 17 41  1  0
 18 42  1  0
 23 43  1  0
 24 44  1  0
 24 45  1  0
 25 46  1  0
 25 47  1  0
 26 48  1  0
 26 49  1  0
 27 50  1  0
 27 51  1  0
 28 52  1  0
 28 53  1  0
 29 54  1  0
M  CHG  2  14  -1  23   1
M  END
>  <UniqueID>  (7) 
7

>  <SMILES>  (7) 
Cc1cc(C)c(C#N)c(SCC(=O)[N-]c2cccc(S(=O)(=O)[NH+]3CCCCC3)c2)n1

>  <Energy>  (7) 
63.28501902452138

>  <Genealogy>  (7) 
Cc1cc(C)c(C#N)c(SCC(=O)[N-]c2cccc(S(=O)(=O)[NH+]3CCCCC3)c2)n1 (protonated)
Cc1cc(C)c(C#N)c(SCC(=O)[N-]c2cccc(S(=O)(=O)[NH+]3CCCCC3)c2)n1 (3D coordinates assigned)
Cc1cc(C)c(C#N)c(SCC(=O)[N-]c2cccc(S(=O)(=O)[NH+]3CCCCC3)c2)n1 (nonaromatic ring conformer: 63.28501902452138 kcal/mol)

>  <smiles>  (7) 
Cc1cc(C)c(C#N)c(SCC(=O)Nc2cccc(S(=O)(=O)N3CCCCC3)c2)n1

>  <score_type>  (7) 
oracle

>  <origin>  (7) 
adgpu

>  <m_score__min__energy>  (7) 
-12.039999999999999

>  <m_primary>  (7) 
energy

$$$$
7:0
     RDKit          3D

 43 45  0  0  1  0  0  0  0  0999 V2000
   -3.3440   24.1970  -28.0090 C   0  0  0  0  0  0  0  0  0  0  0  0
   -4.7390   24.0220  -28.2800 N   0  0  0  0  0  0  0  0  0  0  0  0
   -5.1230   24.6330  -29.8350 S   0  0  0  0  0  0  0  0  0  0  0  0
   -5.9910   25.8350  -29.6870 O   0  0  0  0  0  0  0  0  0  0  0  0
   -3.8680   25.0000  -30.5880 O   0  0  0  0  0  0  0  0  0  0  0  0
   -5.9580   23.4580  -30.8370 C   0  0  0  0  0  0  0  0  0  0  0  0
   -7.0990   23.8090  -31.5430 C   0  0  0  0  0  0  0  0  0  0  0  0
   -7.7830   22.9150  -32.3400 C   0  0  0  0  0  0  0  0  0  0  0  0
   -7.3080   21.6390  -32.4310 C   0  0  0  0  0  0  0  0  0  0  0  0
   -6.1550   21.2460  -31.7310 C   0  0  0  0  0  0  0  0  0  0  0  0
   -5.7510   19.9040  -31.9290 N   0  0  0  0  0  0  0  0  0  0  0  0
   -4.7310   19.4960  -32.5740 C   0  0  0  0  0  0  0  0  0  0  0  0
   -3.9080   20.4140  -33.1540 C   0  0  0  0  0  0  0  0  0  0  0  0
   -4.0560   21.8040  -33.1350 N   0  0  0  0  0  0  0  0  0  0  0  0
   -2.8020   19.9060  -33.8440 C   0  0  0  0  0  0  0  0  0  0  0  0
   -1.8750   20.7800  -34.4910 N   0  0  0  0  0  0  0  0  0  0  0  0
   -2.5980   18.5730  -33.9070 N   0  0  0  0  0  0  0  0  0  0  0  0
   -3.4030   17.6850  -33.3400 C   0  0  0  0  0  0  0  0  0  0  0  0
   -3.1820   16.3600  -33.4150 N   0  0  0  0  0  0  0  0  0  0  0  0
   -4.0340   15.4970  -32.8170 C   0  0  0  0  0  0  0  0  0  0  0  0
   -3.8600   14.2100  -32.8630 N   0  0  0  0  0  0  0  0  0  0  0  0
   -5.1120   15.9320  -32.1410 N   0  0  0  0  0  0  0  0  0  0  0  0
   -5.3800   17.2500  -32.0360 C   0  0  0  0  0  0  0  0  0  0  0  0
   -6.3800   17.7290  -31.4130 N   0  0  0  0  0  0  0  0  0  0  0  0
   -4.5120   18.1320  -32.6450 C   0  0  0  0  0  0  0  0  0  0  0  0
   -5.4990   22.1580  -30.9470 C   0  0  0  0  0  0  0  0  0  0  0  0
   -3.1815   24.2174  -26.9213 H   0  0  0  0  0  0  0  0  0  0  0  0
   -2.7776   23.3629  -28.4488 H   0  0  0  0  0  0  0  0  0  0  0  0
   -3.0012   25.1452  -28.4488 H   0  0  0  0  0  0  0  0  0  0  0  0
   -5.3740   24.3010  -27.5230 H   0  0  0  0  0  0  0  0  0  0  0  0
   -7.4730   24.8405  -31.4642 H   0  0  0  0  0  0  0  0  0  0  0  0
   -8.6865   23.2221  -32.8872 H   0  0  0  0  0  0  0  0  0  0  0  0
   -7.8353   20.9078  -33.0613 H   0  0  0  0  0  0  0  0  0  0  0  0
   -3.6730   22.4790  -32.4650 H   0  0  0  0  0  0  0  0  0  0  0  0
   -4.6340   22.2290  -33.9260 H   0  0  0  0  0  0  0  0  0  0  0  0
   -2.0580   21.8080  -34.4480 H   0  0  0  0  0  0  0  0  0  0  0  0
   -1.0450   20.3830  -34.9850 H   0  0  0  0  0  0  0  0  0  0  0  0
   -1.7690   18.2250  -34.4270 H   0  0  0  0  0  0  0  0  0  0  0  0
   -2.3660   15.9730  -33.9240 H   0  0  0  0  0  0  0  0  0  0  0  0
   -3.0120   13.9150  -33.3980 H   0  0  0  0  0  0  0  0  0  0  0  0
   -5.7770   15.2780  -31.6770 H   0  0  0  0  0  0  0  0  0  0  0  0
   -7.0980   17.1550  -30.9180 H   0  0  0  0  0  0  0  0  0  0  0  0
   -4.5960   21.8525  -30.3982 H   0  0  0  0  0  0  0  0  0  0  0  0
  1  2  1  0
  2  3  1  0
  3  4  2  0
  3  5  2  0
  3  6  1  0
  6  7  2  0
  7  8  1  0
  8  9  2  0
  9 10  1  0
 10 11  1  0
 11 12  2  0
 12 13  1  0
 13 14  1  0
 13 15  2  0
 15 16  1  0
 15 17  1  0
 17 18  1  0
 18 19  1  0
 19 20  1  0
 20 21  2  3
 20 22  1  0
 22 23  1  0
 23 24  2  3
 23 25  1  0
 10 26  2  0
 26  6  1  0
 25 12  1  0
 25 18  2  0
  1 27  1  0
  1 28  1  0
  1 29  1  0
  2 30  1  0
  7 31  1  0
  8 32  1  0
  9 33  1  0
 14 34  1  0
 14 35  1  0
 16 36  1  0
 16 37  1  0
 17 38  1  0
 19 39  1  0
 21 40  1  0
 22 41  1  0
 24 42  1  0
 26 43  1  0
M  END
>  <smiles>  (8) 
CNS(=O)(=O)c1cccc(N=c2c(N)c(N)[nH]c3[nH]c(=N)[nH]c(=N)c23)c1

>  <score_type>  (8) 
oracle

>  <origin>  (8) 
adgpu

>  <m_score__min__energy>  (8) 
-7.96

>  <m_primary>  (8) 
energy

$$$$
8:0
     RDKit          3D

 61 66  0  0  0  0  0  0  0  0999 V2000
   -0.2448   22.3745  -32.3773 H   0  0  0  0  0  0  0  0  0  0  0  0
   -0.8740   21.5150  -32.6520 C   0  0  0  0  0  0  0  0  0  0  0  0
   -0.2820   20.3050  -33.0280 C   0  0  0  0  0  0  0  0  0  0  0  0
    0.8139   20.2108  -33.0402 H   0  0  0  0  0  0  0  0  0  0  0  0
   -1.0810   19.2130  -33.3890 C   0  0  0  0  0  0  0  0  0  0  0  0
   -0.6097   18.2627  -33.6803 H   0  0  0  0  0  0  0  0  0  0  0  0
   -2.4830   19.3250  -33.3810 C   0  0  0  0  0  0  0  0  0  0  0  0
   -3.3130   18.1430  -33.7010 C   0  0  0  0  0  0  0  0  0  0  0  0
   -2.7900   16.9640  -34.1120 N   0  0  0  0  0  0  0  0  0  0  0  0
   -3.7930   16.1030  -34.2440 N   0  0  0  0  0  0  0  0  0  0  0  0
   -4.9110   16.7730  -33.9090 C   0  0  0  0  0  0  0  0  0  0  0  0
   -6.2100   16.2700  -33.9030 C   0  0  0  0  0  0  0  0  0  0  0  0
   -6.4204   15.2301  -34.1933 H   0  0  0  0  0  0  0  0  0  0  0  0
   -7.2400   17.1390  -33.5130 C   0  0  0  0  0  0  0  0  0  0  0  0
   -8.2752   16.7713  -33.4565 H   0  0  0  0  0  0  0  0  0  0  0  0
   -6.9530   18.4830  -33.1930 C   0  0  0  0  0  0  0  0  0  0  0  0
   -8.2680   19.5990  -32.7060 S   0  0  0  0  0  0  0  0  0  0  0  0
   -7.1230   20.8480  -32.1360 C   0  0  0  0  0  0  0  0  0  0  0  0
   -6.2240   20.6450  -31.1500 N   0  0  0  0  0  0  0  0  0  0  0  0
   -5.5050   21.7320  -30.8710 N   0  0  0  0  0  0  0  0  0  0  0  0
   -5.8350   22.7920  -31.6410 C   0  0  0  0  0  0  0  0  0  0  0  0
   -5.3130   23.9750  -31.5200 N   0  0  0  0  0  0  0  0  0  0  0  0
   -4.2400   24.3190  -30.6330 C   0  0  0  0  0  0  0  0  0  0  0  0
   -3.8800   25.5220  -30.5490 O   0  0  0  0  0  0  0  0  0  0  0  0
   -3.5250   23.3020  -29.9110 N   0  0  0  0  0  0  0  0  0  0  0  0
   -3.5250   22.3310  -30.2990 H   0  0  0  0  0  0  0  0  0  0  0  0
   -2.6800   23.5740  -28.7830 C   0  0  0  0  0  0  0  0  0  0  0  0
   -3.1620   24.2800  -27.6680 C   0  0  0  0  0  0  0  0  0  0  0  0
   -4.1983   24.6487  -27.6599 H   0  0  0  0  0  0  0  0  0  0  0  0
   -2.3320   24.5160  -26.5700 C   0  0  0  0  0  0  0  0  0  0  0  0
   -2.7195   25.0608  -25.6965 H   0  0  0  0  0  0  0  0  0  0  0  0
   -1.0050   24.0600  -26.5780 C   0  0  0  0  0  0  0  0  0  0  0  0
    0.0750   24.4210  -25.2320 S   0  0  0  0  0  0  0  0  0  0  0  0
    1.1870   23.4100  -25.2260 O   0  0  0  0  0  0  0  0  0  0  0  0
   -0.6810   24.3080  -23.9370 O   0  0  0  0  0  0  0  0  0  0  0  0
    0.7250   26.0350  -25.4360 N   0  0  0  0  0  0  0  0  0  0  0  0
   -0.2060   26.9210  -26.1690 C   0  0  0  0  0  0  0  0  0  0  0  0
    0.3793   27.5735  -26.8336 H   0  0  0  0  0  0  0  0  0  0  0  0
   -0.8985   26.2798  -26.7341 H   0  0  0  0  0  0  0  0  0  0  0  0
   -1.0510   27.8040  -25.2310 C   0  0  0  0  0  0  0  0  0  0  0  0
   -0.5282   28.7571  -25.0628 H   0  0  0  0  0  0  0  0  0  0  0  0
   -2.0296   27.9855  -25.6995 H   0  0  0  0  0  0  0  0  0  0  0  0
   -1.2510   27.1600  -23.9930 O   0  0  0  0  0  0  0  0  0  0  0  0
   -0.0300   27.0870  -23.2820 C   0  0  0  0  0  0  0  0  0  0  0  0
    0.2022   28.0857  -22.8837 H   0  0  0  0  0  0  0  0  0  0  0  0
   -0.1624   26.3424  -22.4833 H   0  0  0  0  0  0  0  0  0  0  0  0
    1.1600   26.6170  -24.1540 C   0  0  0  0  0  0  0  0  0  0  0  0
    1.8086   27.4810  -24.3609 H   0  0  0  0  0  0  0  0  0  0  0  0
    1.6947   25.8343  -23.5959 H   0  0  0  0  0  0  0  0  0  0  0  0
   -0.5270   23.3430  -27.6820 C   0  0  0  0  0  0  0  0  0  0  0  0
    0.5116   22.9808  -27.6926 H   0  0  0  0  0  0  0  0  0  0  0  0
   -1.3660   23.0860  -28.7710 C   0  0  0  0  0  0  0  0  0  0  0  0
   -0.9929   22.4979  -29.6224 H   0  0  0  0  0  0  0  0  0  0  0  0
   -7.0740   22.4290  -32.7170 S   0  0  0  0  0  0  0  0  0  0  0  0
   -5.6250   18.9380  -33.2410 C   0  0  0  0  0  0  0  0  0  0  0  0
   -5.3772   19.9855  -33.0142 H   0  0  0  0  0  0  0  0  0  0  0  0
   -4.6540   18.0460  -33.5760 N   0  0  0  0  0  0  0  0  0  0  0  0
   -3.0690   20.5390  -32.9770 C   0  0  0  0  0  0  0  0  0  0  0  0
   -4.1645   20.6306  -32.9370 H   0  0  0  0  0  0  0  0  0  0  0  0
   -2.2670   21.6300  -32.6260 C   0  0  0  0  0  0  0  0  0  0  0  0
   -2.7336   22.5808  -32.3288 H   0  0  0  0  0  0  0  0  0  0  0  0
  1  2  1  0
  2  3  2  0
  3  4  1  0
  3  5  1  0
  5  6  1  0
  5  7  2  0
  7  8  1  0
  8  9  2  0
  9 10  1  0
 10 11  2  0
 11 12  1  0
 12 13  1  0
 12 14  2  0
 14 15  1  0
 14 16  1  0
 16 17  1  0
 17 18  1  0
 18 19  2  0
 19 20  1  0
 20 21  1  0
 21 22  2  0
 22 23  1  0
 23 24  2  0
 23 25  1  0
 25 26  1  0
 25 27  1  0
 27 28  2  0
 28 29  1  0
 28 30  1  0
 30 31  1  0
 30 32  2  0
 32 33  1  0
 33 34  2  0
 33 35  2  0
 33 36  1  0
 36 37  1  0
 37 38  1  0
 37 39  1  0
 37 40  1  0
 40 41  1  0
 40 42  1  0
 40 43  1  0
 43 44  1  0
 44 45  1  0
 44 46  1  0
 44 47  1  0
 47 48  1  0
 47 49  1  0
 32 50  1  0
 50 51  1  0
 50 52  2  0
 52 53  1  0
 21 54  1  0
 16 55  2  0
 55 56  1  0
 55 57  1  0
  7 58  1  0
 58 59  1  0
 58 60  2  0
 60 61  1  0
 60  2  1  0
 57  8  1  0
 57 11  1  0
 54 18  1  0
 52 27  1  0
 47 36  1  0
M  CHG  1  20  -1
M  END
>  <UniqueID>  (9) 
8

>  <SMILES>  (9) 
O=C(/N=c1\[n-]nc(Sc2ccc3nnc(-c4ccccc4)n3c2)s1)Nc1ccc(S(=O)(=O)N2CCOCC2)cc1

>  <Energy>  (9) 
163.26287456436515

>  <Genealogy>  (9) 
O=C(N=c1[n-]nc(Sc2ccc3nnc(-c4ccccc4)n3c2)s1)Nc1ccc(S(=O)(=O)N2CCOCC2)cc1 (protonated)
O=C(/N=c1\[n-]nc(Sc2ccc3nnc(-c4ccccc4)n3c2)s1)Nc1ccc(S(=O)(=O)N2CCOCC2)cc1 (cis-trans isomerization)
O=C(/N=c1\[n-]nc(Sc2ccc3nnc(-c4ccccc4)n3c2)s1)Nc1ccc(S(=O)(=O)N2CCOCC2)cc1 (3D coordinates assigned)
O=C(/N=c1\[n-]nc(Sc2ccc3nnc(-c4ccccc4)n3c2)s1)Nc1ccc(S(=O)(=O)N2CCOCC2)cc1 (nonaromatic ring conformer: 163.26287456436515 kcal/mol)

>  <smiles>  (9) 
O=C(N=c1[nH]nc(Sc2ccc3nnc(-c4ccccc4)n3c2)s1)Nc1ccc(S(=O)(=O)N2CCOCC2)cc1

>  <score_type>  (9) 
oracle

>  <origin>  (9) 
adgpu

>  <m_score__min__energy>  (9) 
-12.140000000000001

>  <m_primary>  (9) 
energy

$$$$
9:0
     RDKit          3D

 53 56  0  0  0  0  0  0  0  0999 V2000
   -4.4710   24.9140  -30.9550 O   0  0  0  0  0  0  0  0  0  0  0  0
   -5.4530   24.4860  -29.9000 S   0  0  0  0  0  0  0  0  0  0  0  0
   -6.4350   25.6030  -29.6840 O   0  0  0  0  0  0  0  0  0  0  0  0
   -4.5890   24.1370  -28.4400 N   0  0  0  0  0  0  0  0  0  0  0  0
   -3.3890   23.3580  -28.4130 C   0  0  0  0  0  0  0  0  0  0  0  0
   -3.3940   22.0400  -27.9260 C   0  0  0  0  0  0  0  0  0  0  0  0
   -2.2200   21.2820  -27.9350 C   0  0  0  0  0  0  0  0  0  0  0  0
   -1.0160   21.8480  -28.3980 C   0  0  0  0  0  0  0  0  0  0  0  0
   -1.0130   23.1620  -28.8870 C   0  0  0  0  0  0  0  0  0  0  0  0
   -2.1940   23.9200  -28.8900 C   0  0  0  0  0  0  0  0  0  0  0  0
   -2.1910   25.2220  -29.3920 O   0  0  0  0  0  0  0  0  0  0  0  0
    0.2450   21.0180  -28.4360 C   0  0  0  0  0  0  0  0  0  0  0  0
    0.1770   19.8400  -27.4500 C   0  0  0  0  0  0  0  0  0  0  0  0
   -1.1400   19.0790  -27.6320 C   0  0  0  0  0  0  0  0  0  0  0  0
   -2.2460   19.9640  -27.4630 O   0  0  0  0  0  0  0  0  0  0  0  0
   -6.2800   23.0220  -30.4260 C   0  0  0  0  0  0  0  0  0  0  0  0
   -7.6800   22.9700  -30.4440 C   0  0  0  0  0  0  0  0  0  0  0  0
   -8.3370   21.8480  -30.9620 C   0  0  0  0  0  0  0  0  0  0  0  0
   -7.5990   20.7740  -31.4780 C   0  0  0  0  0  0  0  0  0  0  0  0
   -8.4230   19.3920  -32.2080 S   0  0  0  0  0  0  0  0  0  0  0  0
   -9.1320   18.6120  -31.1350 O   0  0  0  0  0  0  0  0  0  0  0  0
   -9.4590   19.8980  -33.1740 O   0  0  0  0  0  0  0  0  0  0  0  0
   -7.3140   18.3440  -33.0570 N   0  0  0  0  0  0  0  0  0  0  0  0
   -6.4250   19.1320  -33.9270 C   0  0  0  0  0  0  0  0  0  0  0  0
   -5.6090   18.2050  -34.8490 C   0  0  0  0  0  0  0  0  0  0  0  0
   -5.5360   16.7660  -34.3180 C   0  0  0  0  0  0  0  0  0  0  0  0
   -5.4010   16.7450  -32.7920 C   0  0  0  0  0  0  0  0  0  0  0  0
   -6.5260   17.5470  -32.0960 C   0  0  0  0  0  0  0  0  0  0  0  0
   -6.1970   20.8210  -31.4480 C   0  0  0  0  0  0  0  0  0  0  0  0
   -5.5410   21.9380  -30.9210 C   0  0  0  0  0  0  0  0  0  0  0  0
   -4.3253   21.6033  -27.5363 H   0  0  0  0  0  0  0  0  0  0  0  0
   -0.0801   23.6010  -29.2703 H   0  0  0  0  0  0  0  0  0  0  0  0
   -3.0420   25.6690  -29.7200 H   0  0  0  0  0  0  0  0  0  0  0  0
    0.3826   20.6242  -29.4538 H   0  0  0  0  0  0  0  0  0  0  0  0
    1.0891   21.6610  -28.1462 H   0  0  0  0  0  0  0  0  0  0  0  0
    1.0201   19.1589  -27.6377 H   0  0  0  0  0  0  0  0  0  0  0  0
    0.2312   20.2266  -26.4216 H   0  0  0  0  0  0  0  0  0  0  0  0
   -1.1726   18.6450  -28.6422 H   0  0  0  0  0  0  0  0  0  0  0  0
   -1.2006   18.2798  -26.8786 H   0  0  0  0  0  0  0  0  0  0  0  0
   -8.2649   23.8140  -30.0496 H   0  0  0  0  0  0  0  0  0  0  0  0
   -9.4363   21.8090  -30.9641 H   0  0  0  0  0  0  0  0  0  0  0  0
   -7.0316   19.8121  -34.5430 H   0  0  0  0  0  0  0  0  0  0  0  0
   -5.7305   19.7073  -33.2972 H   0  0  0  0  0  0  0  0  0  0  0  0
   -6.0807   18.1911  -35.8426 H   0  0  0  0  0  0  0  0  0  0  0  0
   -4.5824   18.5975  -34.8949 H   0  0  0  0  0  0  0  0  0  0  0  0
   -6.4533   16.2308  -34.6045 H   0  0  0  0  0  0  0  0  0  0  0  0
   -4.6509   16.2786  -34.7528 H   0  0  0  0  0  0  0  0  0  0  0  0
   -5.4438   15.7015  -32.4467 H   0  0  0  0  0  0  0  0  0  0  0  0
   -4.4405   17.2133  -32.5309 H   0  0  0  0  0  0  0  0  0  0  0  0
   -7.1982   16.8435  -31.5829 H   0  0  0  0  0  0  0  0  0  0  0  0
   -6.0569   18.2413  -31.3834 H   0  0  0  0  0  0  0  0  0  0  0  0
   -5.6118   19.9763  -31.8404 H   0  0  0  0  0  0  0  0  0  0  0  0
   -4.4417   21.9663  -30.8947 H   0  0  0  0  0  0  0  0  0  0  0  0
  1  2  2  0
  2  3  2  0
  2  4  1  0
  4  5  1  0
  5  6  2  0
  6  7  1  0
  7  8  2  0
  8  9  1  0
  9 10  2  0
 10 11  1  0
  8 12  1  0
 12 13  1  0
 13 14  1  0
 14 15  1  0
  2 16  1  0
 16 17  2  0
 17 18  1  0
 18 19  2  0
 19 20  1  0
 20 21  2  0
 20 22  2  0
 20 23  1  0
 23 24  1  0
 24 25  1  0
 25 26  1  0
 26 27  1  0
 27 28  1  0
 19 29  1  0
 29 30  2  0
 10  5  1  0
 30 16  1  0
 15  7  1  0
 28 23  1  0
  6 31  1  0
  9 32  1  0
 11 33  1  0
 12 34  1  0
 12 35  1  0
 13 36  1  0
 13 37  1  0
 14 38  1  0
 14 39  1  0
 17 40  1  0
 18 41  1  0
 24 42  1  0
 24 43  1  0
 25 44  1  0
 25 45  1  0
 26 46  1  0
 26 47  1  0
 27 48  1  0
 27 49  1  0
 28 50  1  0
 28 51  1  0
 29 52  1  0
 30 53  1  0
M  CHG  1   4  -1
M  END
>  <UniqueID>  (10) 
9

>  <SMILES>  (10) 
O=S(=O)([N-]c1cc2c(cc1O)CCCO2)c1ccc(S(=O)(=O)N2CCCCC2)cc1

>  <Energy>  (10) 
63.662234770698696

>  <Genealogy>  (10) 
O=S(=O)([N-]c1cc2c(cc1O)CCCO2)c1ccc(S(=O)(=O)N2CCCCC2)cc1 (protonated)
O=S(=O)([N-]c1cc2c(cc1O)CCCO2)c1ccc(S(=O)(=O)N2CCCCC2)cc1 (3D coordinates assigned)
O=S(=O)([N-]c1cc2c(cc1O)CCCO2)c1ccc(S(=O)(=O)N2CCCCC2)cc1 (nonaromatic ring conformer: 63.662234770698696 kcal/mol)

>  <smiles>  (10) 
O=S(=O)(Nc1cc2c(cc1O)CCCO2)c1ccc(S(=O)(=O)N2CCCCC2)cc1

>  <score_type>  (10) 
oracle

>  <origin>  (10) 
adgpu

>  <m_score__min__energy>  (10) 
-13.52

>  <m_primary>  (10) 
energy

$$$$
10:0
     RDKit          3D

 53 55  0  0  0  0  0  0  0  0999 V2000
   -5.3940   17.7760  -35.0120 C   0  0  0  0  0  0  0  0  0  0  0  0
   -5.4390   17.6160  -33.4880 C   0  0  0  0  0  0  0  0  0  0  0  0
   -6.1850   18.6850  -32.7900 N   0  0  0  0  0  0  0  0  0  0  0  0
   -6.9870   18.1880  -31.6550 C   0  0  0  0  0  0  0  0  0  0  0  0
   -8.4710   18.4690  -31.8690 C   0  0  0  0  0  0  0  0  0  0  0  0
   -5.1910   20.0810  -32.3990 S   0  0  0  0  0  0  0  0  0  0  0  0
   -4.2940   19.7430  -31.2400 O   0  0  0  0  0  0  0  0  0  0  0  0
   -4.3060   20.3950  -33.5730 O   0  0  0  0  0  0  0  0  0  0  0  0
   -6.1130   21.5390  -32.0020 C   0  0  0  0  0  0  0  0  0  0  0  0
   -7.4870   21.6100  -32.2760 C   0  0  0  0  0  0  0  0  0  0  0  0
   -8.2220   22.7380  -31.8990 C   0  0  0  0  0  0  0  0  0  0  0  0
   -7.5980   23.7930  -31.2330 C   0  0  0  0  0  0  0  0  0  0  0  0
   -6.2300   23.7280  -30.9420 C   0  0  0  0  0  0  0  0  0  0  0  0
   -5.4590   25.0430  -30.0590 S   0  0  0  0  0  0  0  0  0  0  0  0
   -4.3350   25.6390  -30.8600 O   0  0  0  0  0  0  0  0  0  0  0  0
   -6.4800   26.1140  -29.8010 O   0  0  0  0  0  0  0  0  0  0  0  0
   -4.8520   24.4550  -28.5420 N   0  0  0  0  0  0  0  0  0  0  0  0
   -3.7190   23.5750  -28.4420 C   0  0  0  0  0  0  0  0  0  0  0  0
   -3.8610   22.2670  -27.9480 C   0  0  0  0  0  0  0  0  0  0  0  0
   -2.7510   21.4190  -27.8320 C   0  0  0  0  0  0  0  0  0  0  0  0
   -1.4850   21.8640  -28.2550 C   0  0  0  0  0  0  0  0  0  0  0  0
   -1.3410   23.1660  -28.7550 C   0  0  0  0  0  0  0  0  0  0  0  0
   -2.4490   24.0150  -28.8560 C   0  0  0  0  0  0  0  0  0  0  0  0
   -2.2780   25.3020  -29.3570 O   0  0  0  0  0  0  0  0  0  0  0  0
   -0.2770   20.9730  -28.1040 C   0  0  0  0  0  0  0  0  0  0  0  0
   -0.6670   19.4880  -28.1190 C   0  0  0  0  0  0  0  0  0  0  0  0
   -1.7640   19.2110  -27.0880 C   0  0  0  0  0  0  0  0  0  0  0  0
   -2.9110   20.0880  -27.3140 N   0  0  0  0  0  0  0  0  0  0  0  0
   -5.4940   22.5970  -31.3210 C   0  0  0  0  0  0  0  0  0  0  0  0
   -5.1041   18.8067  -35.2641 H   0  0  0  0  0  0  0  0  0  0  0  0
   -4.6582   17.0749  -35.4327 H   0  0  0  0  0  0  0  0  0  0  0  0
   -6.3874   17.5612  -35.4327 H   0  0  0  0  0  0  0  0  0  0  0  0
   -5.9172   16.6530  -33.2558 H   0  0  0  0  0  0  0  0  0  0  0  0
   -4.3994   17.6710  -33.1327 H   0  0  0  0  0  0  0  0  0  0  0  0
   -6.8370   17.1027  -31.5566 H   0  0  0  0  0  0  0  0  0  0  0  0
   -6.6605   18.7068  -30.7416 H   0  0  0  0  0  0  0  0  0  0  0  0
   -8.9706   18.5636  -30.8936 H   0  0  0  0  0  0  0  0  0  0  0  0
   -8.5891   19.4055  -32.4339 H   0  0  0  0  0  0  0  0  0  0  0  0
   -8.9233   17.6405  -32.4339 H   0  0  0  0  0  0  0  0  0  0  0  0
   -7.9876   20.7756  -32.7890 H   0  0  0  0  0  0  0  0  0  0  0  0
   -9.2964   22.7938  -32.1284 H   0  0  0  0  0  0  0  0  0  0  0  0
   -8.1814   24.6770  -30.9361 H   0  0  0  0  0  0  0  0  0  0  0  0
   -5.4420   24.6300  -27.7000 H   0  0  0  0  0  0  0  0  0  0  0  0
   -4.8554   21.9043  -27.6487 H   0  0  0  0  0  0  0  0  0  0  0  0
   -0.3495   23.5229  -29.0703 H   0  0  0  0  0  0  0  0  0  0  0  0
    0.4173   21.1685  -28.9345 H   0  0  0  0  0  0  0  0  0  0  0  0
    0.1968   21.1954  -27.1365 H   0  0  0  0  0  0  0  0  0  0  0  0
   -1.0356   19.2207  -29.1203 H   0  0  0  0  0  0  0  0  0  0  0  0
    0.2181   18.8853  -27.8671 H   0  0  0  0  0  0  0  0  0  0  0  0
   -2.0867   18.1630  -27.1752 H   0  0  0  0  0  0  0  0  0  0  0  0
   -1.3630   19.4014  -26.0815 H   0  0  0  0  0  0  0  0  0  0  0  0
   -3.8510   19.7720  -26.9820 H   0  0  0  0  0  0  0  0  0  0  0  0
   -4.4218   22.5388  -31.0822 H   0  0  0  0  0  0  0  0  0  0  0  0
  1  2  1  0
  2  3  1  0
  3  4  1  0
  4  5  1  0
  3  6  1  0
  6  7  2  0
  6  8  2  0
  6  9  1  0
  9 10  2  0
 10 11  1  0
 11 12  2  0
 12 13  1  0
 13 14  1  0
 14 15  2  0
 14 16  2  0
 14 17  1  0
 17 18  1  0
 18 19  2  0
 19 20  1  0
 20 21  2  0
 21 22  1  0
 22 23  2  0
 23 24  1  0
 21 25  1  0
 25 26  1  0
 26 27  1  0
 27 28  1  0
 13 29  2  0
 29  9  1  0
 23 18  1  0
 28 20  1  0
  1 30  1  0
  1 31  1  0
  1 32  1  0
  2 33  1  0
  2 34  1  0
  4 35  1  0
  4 36  1  0
  5 37  1  0
  5 38  1  0
  5 39  1  0
 10 40  1  0
 11 41  1  0
 12 42  1  0
 17 43  1  0
 19 44  1  0
 22 45  1  0
 25 46  1  0
 25 47  1  0
 26 48  1  0
 26 49  1  0
 27 50  1  0
 27 51  1  0
 28 52  1  0
 29 53  1  0
M  CHG  1  24  -1
M  END
>  <UniqueID>  (11) 
10

>  <SMILES>  (11) 
CCN(CC)S(=O)(=O)c1cccc(S(=O)(=O)Nc2cc3c(cc2[O-])CCCN3)c1

>  <Energy>  (11) 
56.14294234307573

>  <Genealogy>  (11) 
CCN(CC)S(=O)(=O)c1cccc(S(=O)(=O)Nc2cc3c(cc2[O-])CCCN3)c1 (protonated)
CCN(CC)S(=O)(=O)c1cccc(S(=O)(=O)Nc2cc3c(cc2[O-])CCCN3)c1 (3D coordinates assigned)
CCN(CC)S(=O)(=O)c1cccc(S(=O)(=O)Nc2cc3c(cc2[O-])CCCN3)c1 (nonaromatic ring conformer: 56.14294234307573 kcal/mol)

>  <smiles>  (11) 
CCN(CC)S(=O)(=O)c1cccc(S(=O)(=O)Nc2cc3c(cc2O)CCCN3)c1

>  <score_type>  (11) 
oracle

>  <origin>  (11) 
adgpu

>  <m_score__min__energy>  (11) 
-13.83

>  <m_primary>  (11) 
energy

$$$$
11:0
     RDKit          3D

 50 52  0  0  0  0  0  0  0  0999 V2000
   -6.0250   17.6070  -34.5700 C   0  0  0  0  0  0  0  0  0  0  0  0
   -6.4070   18.9680  -34.4000 O   0  0  0  0  0  0  0  0  0  0  0  0
   -5.7410   19.8780  -33.5660 C   0  0  0  0  0  0  0  0  0  0  0  0
   -4.3370   19.9370  -33.4800 C   0  0  0  0  0  0  0  0  0  0  0  0
   -3.7220   20.8650  -32.6340 C   0  0  0  0  0  0  0  0  0  0  0  0
   -4.4920   21.7580  -31.8760 C   0  0  0  0  0  0  0  0  0  0  0  0
   -3.8310   22.6830  -30.9960 N   0  0  0  0  0  0  0  0  0  0  0  0
   -4.2050   24.0660  -30.8530 C   0  0  0  0  0  0  0  0  0  0  0  0
   -5.1960   24.5290  -31.4740 O   0  0  0  0  0  0  0  0  0  0  0  0
   -3.4770   24.9350  -29.9760 N   0  0  0  0  0  0  0  0  0  0  0  0
   -2.7320   24.5310  -28.8190 C   0  0  0  0  0  0  0  0  0  0  0  0
   -3.0940   23.3960  -28.0860 C   0  0  0  0  0  0  0  0  0  0  0  0
   -2.3450   23.0040  -26.9800 C   0  0  0  0  0  0  0  0  0  0  0  0
   -1.1950   23.7160  -26.5990 C   0  0  0  0  0  0  0  0  0  0  0  0
   -0.4690   23.2610  -25.3580 C   0  0  0  0  0  0  0  0  0  0  0  0
   -0.7930   24.8510  -27.3570 C   0  0  0  0  0  0  0  0  0  0  0  0
    0.6700   25.8030  -26.9640 S   0  0  0  0  0  0  0  0  0  0  0  0
    1.8250   25.3960  -27.8350 O   0  0  0  0  0  0  0  0  0  0  0  0
    1.0720   25.5130  -25.5450 O   0  0  0  0  0  0  0  0  0  0  0  0
    0.4100   27.5230  -27.1380 N   0  0  0  0  0  0  0  0  0  0  0  0
   -0.7450   27.9650  -26.3400 C   0  0  0  0  0  0  0  0  0  0  0  0
   -0.8560   29.5030  -26.3510 C   0  0  0  0  0  0  0  0  0  0  0  0
    0.0190   30.0740  -27.3060 O   0  0  0  0  0  0  0  0  0  0  0  0
    1.3630   29.7910  -26.9540 C   0  0  0  0  0  0  0  0  0  0  0  0
    1.6080   28.2800  -26.7500 C   0  0  0  0  0  0  0  0  0  0  0  0
   -1.5780   25.2430  -28.4660 C   0  0  0  0  0  0  0  0  0  0  0  0
   -1.2240   26.3530  -29.2260 O   0  0  0  0  0  0  0  0  0  0  0  0
   -5.8930   21.6830  -31.9440 C   0  0  0  0  0  0  0  0  0  0  0  0
   -6.5090   20.7540  -32.7890 C   0  0  0  0  0  0  0  0  0  0  0  0
   -5.8932   17.1373  -33.5841 H   0  0  0  0  0  0  0  0  0  0  0  0
   -6.8081   17.0734  -35.1286 H   0  0  0  0  0  0  0  0  0  0  0  0
   -5.0786   17.5588  -35.1286 H   0  0  0  0  0  0  0  0  0  0  0  0
   -3.7217   19.2507  -34.0804 H   0  0  0  0  0  0  0  0  0  0  0  0
   -2.6247   20.8945  -32.5627 H   0  0  0  0  0  0  0  0  0  0  0  0
   -2.9860   22.3390  -30.4880 H   0  0  0  0  0  0  0  0  0  0  0  0
   -3.9755   22.8099  -28.3852 H   0  0  0  0  0  0  0  0  0  0  0  0
   -2.6575   22.1253  -26.3966 H   0  0  0  0  0  0  0  0  0  0  0  0
   -1.0156   23.6036  -24.4670 H   0  0  0  0  0  0  0  0  0  0  0  0
   -0.4079   22.1627  -25.3509 H   0  0  0  0  0  0  0  0  0  0  0  0
    0.5461   23.6848  -25.3509 H   0  0  0  0  0  0  0  0  0  0  0  0
   -1.6637   27.5333  -26.7639 H   0  0  0  0  0  0  0  0  0  0  0  0
   -0.6091   27.6268  -25.3021 H   0  0  0  0  0  0  0  0  0  0  0  0
   -1.8899   29.7861  -26.5977 H   0  0  0  0  0  0  0  0  0  0  0  0
   -0.5771   29.8788  -25.3555 H   0  0  0  0  0  0  0  0  0  0  0  0
    2.0227   30.1514  -27.7571 H   0  0  0  0  0  0  0  0  0  0  0  0
    1.5763   30.2988  -26.0018 H   0  0  0  0  0  0  0  0  0  0  0  0
    2.4581   27.9611  -27.3710 H   0  0  0  0  0  0  0  0  0  0  0  0
    1.8300   28.0887  -25.6898 H   0  0  0  0  0  0  0  0  0  0  0  0
   -6.5081   22.3575  -31.3303 H   0  0  0  0  0  0  0  0  0  0  0  0
   -7.6068   20.7112  -32.8437 H   0  0  0  0  0  0  0  0  0  0  0  0
  1  2  1  0
  2  3  1  0
  3  4  2  0
  4  5  1  0
  5  6  2  0
  6  7  1  0
  7  8  1  0
  8  9  2  0
  8 10  1  0
 10 11  1  0
 11 12  2  0
 12 13  1  0
 13 14  2  0
 14 15  1  0
 14 16  1  0
 16 17  1  0
 17 18  2  0
 17 19  2  0
 17 20  1  0
 20 21  1  0
 21 22  1  0
 22 23  1  0
 23 24  1  0
 24 25  1  0
 16 26  2  0
 26 27  1  0
  6 28  1  0
 28 29  2  0
 29  3  1  0
 26 11  1  0
 25 20  1  0
  1 30  1  0
  1 31  1  0
  1 32  1  0
  4 33  1  0
  5 34  1  0
  7 35  1  0
 12 36  1  0
 13 37  1  0
 15 38  1  0
 15 39  1  0
 15 40  1  0
 21 41  1  0
 21 42  1  0
 22 43  1  0
 22 44  1  0
 24 45  1  0
 24 46  1  0
 25 47  1  0
 25 48  1  0
 28 49  1  0
 29 50  1  0
M  CHG  2  10  -1  27  -1
M  END
>  <UniqueID>  (12) 
11

>  <SMILES>  (12) 
COc1ccc(NC(=O)[N-]c2ccc(C)c(S(=O)(=O)N3CCOCC3)c2[O-])cc1

>  <Energy>  (12) 
71.29943511258328

>  <Genealogy>  (12) 
COc1ccc(NC(=O)[N-]c2ccc(C)c(S(=O)(=O)N3CCOCC3)c2[O-])cc1 (protonated)
COc1ccc(NC(=O)[N-]c2ccc(C)c(S(=O)(=O)N3CCOCC3)c2[O-])cc1 (3D coordinates assigned)
COc1ccc(NC(=O)[N-]c2ccc(C)c(S(=O)(=O)N3CCOCC3)c2[O-])cc1 (nonaromatic ring conformer: 71.29943511258328 kcal/mol)

>  <smiles>  (12) 
COc1ccc(NC(=O)Nc2ccc(C)c(S(=O)(=O)N3CCOCC3)c2O)cc1

>  <score_type>  (12) 
oracle

>  <origin>  (12) 
adgpu

>  <m_score__min__energy>  (12) 
-12.18

>  <m_primary>  (12) 
energy

$$$$
12:0
     RDKit          3D

 42 44  0  0  0  0  0  0  0  0999 V2000
    0.6600   17.9660  -33.4500 C   0  0  0  0  0  0  0  0  0  0  0  0
   -0.3680   17.6720  -34.3910 O   0  0  0  0  0  0  0  0  0  0  0  0
   -1.7420   17.7240  -34.1080 C   0  0  0  0  0  0  0  0  0  0  0  0
   -2.5510   16.5700  -34.1120 C   0  0  0  0  0  0  0  0  0  0  0  0
   -3.9150   16.6640  -33.8330 C   0  0  0  0  0  0  0  0  0  0  0  0
   -4.4920   17.9050  -33.5460 C   0  0  0  0  0  0  0  0  0  0  0  0
   -6.2190   18.0280  -33.2230 S   0  0  0  0  0  0  0  0  0  0  0  0
   -6.4450   17.9000  -31.7430 O   0  0  0  0  0  0  0  0  0  0  0  0
   -6.9680   16.9330  -33.9310 O   0  0  0  0  0  0  0  0  0  0  0  0
   -6.8230   19.5640  -33.7620 N   0  0  0  0  0  0  0  0  0  0  0  0
   -6.9070   20.7290  -32.9210 C   0  0  0  0  0  0  0  0  0  0  0  0
   -8.1270   21.0320  -32.2930 C   0  0  0  0  0  0  0  0  0  0  0  0
   -8.2400   22.1430  -31.4510 C   0  0  0  0  0  0  0  0  0  0  0  0
   -7.1340   22.9660  -31.2320 C   0  0  0  0  0  0  0  0  0  0  0  0
   -7.2260   24.0470  -30.4140 N   0  0  0  0  0  0  0  0  0  0  0  0
   -6.1580   24.8610  -30.1910 C   0  0  0  0  0  0  0  0  0  0  0  0
   -6.3040   26.0400  -29.2780 C   0  0  0  0  0  0  0  0  0  0  0  0
   -4.9340   24.5720  -30.8220 C   0  0  0  0  0  0  0  0  0  0  0  0
   -3.9240   25.3020  -30.6390 O   0  0  0  0  0  0  0  0  0  0  0  0
   -4.8410   23.4920  -31.6420 N   0  0  0  0  0  0  0  0  0  0  0  0
   -5.9090   22.6800  -31.8630 C   0  0  0  0  0  0  0  0  0  0  0  0
   -5.7970   21.5710  -32.7070 C   0  0  0  0  0  0  0  0  0  0  0  0
   -3.6920   19.0530  -33.5260 C   0  0  0  0  0  0  0  0  0  0  0  0
   -2.3160   18.9720  -33.8160 C   0  0  0  0  0  0  0  0  0  0  0  0
   -1.4900   20.1060  -33.8270 O   0  0  0  0  0  0  0  0  0  0  0  0
   -1.7310   21.2870  -33.0690 C   0  0  0  0  0  0  0  0  0  0  0  0
    0.2659   17.8533  -32.4292 H   0  0  0  0  0  0  0  0  0  0  0  0
    1.5010   17.2724  -33.5970 H   0  0  0  0  0  0  0  0  0  0  0  0
    1.0071   18.9994  -33.5970 H   0  0  0  0  0  0  0  0  0  0  0  0
   -2.1048   15.5899  -34.3363 H   0  0  0  0  0  0  0  0  0  0  0  0
   -4.5389   15.7581  -33.8389 H   0  0  0  0  0  0  0  0  0  0  0  0
   -7.2450   19.5970  -34.7170 H   0  0  0  0  0  0  0  0  0  0  0  0
   -9.0024   20.3886  -32.4655 H   0  0  0  0  0  0  0  0  0  0  0  0
   -9.1993   22.3680  -30.9619 H   0  0  0  0  0  0  0  0  0  0  0  0
   -6.2621   25.7014  -28.2323 H   0  0  0  0  0  0  0  0  0  0  0  0
   -5.4872   26.7525  -29.4657 H   0  0  0  0  0  0  0  0  0  0  0  0
   -7.2699   26.5317  -29.4657 H   0  0  0  0  0  0  0  0  0  0  0  0
   -4.8404   21.3550  -33.2052 H   0  0  0  0  0  0  0  0  0  0  0  0
   -4.1415   20.0268  -33.2818 H   0  0  0  0  0  0  0  0  0  0  0  0
   -1.6827   21.0502  -31.9959 H   0  0  0  0  0  0  0  0  0  0  0  0
   -0.9682   22.0412  -33.3128 H   0  0  0  0  0  0  0  0  0  0  0  0
   -2.7283   21.6820  -33.3128 H   0  0  0  0  0  0  0  0  0  0  0  0
  1  2  1  0
  2  3  1  0
  3  4  2  0
  4  5  1  0
  5  6  2  0
  6  7  1  0
  7  8  2  0
  7  9  2  0
  7 10  1  0
 10 11  1  0
 11 12  2  0
 12 13  1  0
 13 14  2  0
 14 15  1  0
 15 16  2  0
 16 17  1  0
 16 18  1  0
 18 19  2  0
 18 20  1  0
 20 21  1  0
 21 22  2  0
  6 23  1  0
 23 24  2  0
 24 25  1  0
 25 26  1  0
 24  3  1  0
 22 11  1  0
 21 14  1  0
  1 27  1  0
  1 28  1  0
  1 29  1  0
  4 30  1  0
  5 31  1  0
 10 32  1  0
 12 33  1  0
 13 34  1  0
 17 35  1  0
 17 36  1  0
 17 37  1  0
 22 38  1  0
 23 39  1  0
 26 40  1  0
 26 41  1  0
 26 42  1  0
M  CHG  1  20  -1
M  END
>  <UniqueID>  (13) 
12

>  <SMILES>  (13) 
COc1ccc(S(=O)(=O)Nc2ccc3nc(C)c(=O)[n-]c3c2)cc1OC

>  <Energy>  (13) 
48.809250374516225

>  <Genealogy>  (13) 
COc1ccc(S(=O)(=O)Nc2ccc3nc(C)c(=O)[n-]c3c2)cc1OC (protonated)
COc1ccc(S(=O)(=O)Nc2ccc3nc(C)c(=O)[n-]c3c2)cc1OC (3D coordinates assigned)
COc1ccc(S(=O)(=O)Nc2ccc3nc(C)c(=O)[n-]c3c2)cc1OC (optimized conformer: 48.809250374516225 kcal/mol)

>  <smiles>  (13) 
COc1ccc(S(=O)(=O)Nc2ccc3nc(C)c(=O)[nH]c3c2)cc1OC

>  <score_type>  (13) 
oracle

>  <origin>  (13) 
adgpu

>  <m_score__min__energy>  (13) 
-9.8000000000000007

>  <m_primary>  (13) 
energy

$$$$
13:0
     RDKit          3D

 35 37  0  0  0  0  0  0  0  0999 V2000
   -3.9450   25.6650  -30.8350 O   0  0  0  0  0  0  0  0  0  0  0  0
   -4.3540   24.2610  -30.4880 S   0  0  0  0  0  0  0  0  0  0  0  0
   -5.7440   24.2780  -29.9170 O   0  0  0  0  0  0  0  0  0  0  0  0
   -4.3570   23.3040  -31.9360 N   0  0  0  0  0  0  0  0  0  0  0  0
   -5.1260   22.1080  -32.1370 C   0  0  0  0  0  0  0  0  0  0  0  0
   -6.5280   22.0990  -32.0290 C   0  0  0  0  0  0  0  0  0  0  0  0
   -7.2470   20.9100  -32.2140 C   0  0  0  0  0  0  0  0  0  0  0  0
   -6.5620   19.7120  -32.4960 C   0  0  0  0  0  0  0  0  0  0  0  0
   -5.1660   19.7290  -32.6260 C   0  0  0  0  0  0  0  0  0  0  0  0
   -4.4530   20.9170  -32.4420 C   0  0  0  0  0  0  0  0  0  0  0  0
   -3.0680   20.9080  -32.5630 O   0  0  0  0  0  0  0  0  0  0  0  0
   -7.3260   18.4310  -32.7310 C   0  0  0  0  0  0  0  0  0  0  0  0
   -8.6950   18.4510  -32.0390 C   0  0  0  0  0  0  0  0  0  0  0  0
   -9.4660   19.7200  -32.4110 C   0  0  0  0  0  0  0  0  0  0  0  0
   -8.6780   20.9060  -32.0840 N   0  0  0  0  0  0  0  0  0  0  0  0
   -3.2060   23.6060  -29.3170 C   0  0  0  0  0  0  0  0  0  0  0  0
   -3.3710   22.2960  -28.8410 C   0  0  0  0  0  0  0  0  0  0  0  0
   -2.4860   21.7710  -27.8960 C   0  0  0  0  0  0  0  0  0  0  0  0
   -2.7170   20.1410  -27.2910 Cl  0  0  0  0  0  0  0  0  0  0  0  0
   -1.4220   22.5460  -27.4280 C   0  0  0  0  0  0  0  0  0  0  0  0
   -1.2370   23.8470  -27.9070 C   0  0  0  0  0  0  0  0  0  0  0  0
    0.1110   24.8030  -27.3090 Cl  0  0  0  0  0  0  0  0  0  0  0  0
   -2.1240   24.3790  -28.8550 C   0  0  0  0  0  0  0  0  0  0  0  0
   -1.9260   25.6700  -29.3350 O   0  0  0  0  0  0  0  0  0  0  0  0
   -7.0641   23.0313  -31.7978 H   0  0  0  0  0  0  0  0  0  0  0  0
   -4.6287   18.8018  -32.8743 H   0  0  0  0  0  0  0  0  0  0  0  0
   -7.4754   18.2985  -33.8127 H   0  0  0  0  0  0  0  0  0  0  0  0
   -6.7408   17.6007  -32.3089 H   0  0  0  0  0  0  0  0  0  0  0  0
   -9.2733   17.5704  -32.3554 H   0  0  0  0  0  0  0  0  0  0  0  0
   -8.5430   18.4339  -30.9497 H   0  0  0  0  0  0  0  0  0  0  0  0
   -9.6790   19.7120  -33.4901 H   0  0  0  0  0  0  0  0  0  0  0  0
  -10.4067   19.7471  -31.8415 H   0  0  0  0  0  0  0  0  0  0  0  0
   -9.1790   21.7840  -31.8210 H   0  0  0  0  0  0  0  0  0  0  0  0
   -4.2018   21.6792  -29.2141 H   0  0  0  0  0  0  0  0  0  0  0  0
   -0.7283   22.1322  -26.6813 H   0  0  0  0  0  0  0  0  0  0  0  0
  1  2  2  0
  2  3  2  0
  2  4  1  0
  4  5  1  0
  5  6  2  0
  6  7  1  0
  7  8  2  0
  8  9  1  0
  9 10  2  0
 10 11  1  0
  8 12  1  0
 12 13  1  0
 13 14  1  0
 14 15  1  0
  2 16  1  0
 16 17  2  0
 17 18  1  0
 18 19  1  0
 18 20  2  0
 20 21  1  0
 21 22  1  0
 21 23  2  0
 23 24  1  0
 10  5  1  0
 23 16  1  0
 15  7  1  0
  6 25  1  0
  9 26  1  0
 12 27  1  0
 12 28  1  0
 13 29  1  0
 13 30  1  0
 14 31  1  0
 14 32  1  0
 15 33  1  0
 17 34  1  0
 20 35  1  0
M  CHG  3   4  -1  11  -1  24  -1
M  END
>  <UniqueID>  (14) 
13

>  <SMILES>  (14) 
O=S(=O)([N-]c1cc2c(cc1[O-])CCCN2)c1cc(Cl)cc(Cl)c1[O-]

>  <Energy>  (14) 
39.7479275540877

>  <Genealogy>  (14) 
O=S(=O)([N-]c1cc2c(cc1[O-])CCCN2)c1cc(Cl)cc(Cl)c1[O-] (protonated)
O=S(=O)([N-]c1cc2c(cc1[O-])CCCN2)c1cc(Cl)cc(Cl)c1[O-] (3D coordinates assigned)
O=S(=O)([N-]c1cc2c(cc1[O-])CCCN2)c1cc(Cl)cc(Cl)c1[O-] (nonaromatic ring conformer: 39.7479275540877 kcal/mol)

>  <smiles>  (14) 
O=S(=O)(Nc1cc2c(cc1O)CCCN2)c1cc(Cl)cc(Cl)c1O

>  <score_type>  (14) 
oracle

>  <origin>  (14) 
adgpu

>  <m_score__min__energy>  (14) 
-14.08

>  <m_primary>  (14) 
energy

$$$$
14:0
     RDKit          3D

 43 47  0  0  0  0  0  0  0  0999 V2000
   -3.5870   20.1500  -29.9410 C   0  0  0  0  0  0  0  0  0  0  0  0
   -2.4620   20.8330  -30.7490 C   0  0  1  0  0  0  0  0  0  0  0  0
   -2.2260   22.2570  -30.2070 C   0  0  0  0  0  0  0  0  0  0  0  0
   -1.0580   22.6140  -29.4920 C   0  0  0  0  0  0  0  0  0  0  0  0
   -0.8620   23.9250  -29.0470 C   0  0  0  0  0  0  0  0  0  0  0  0
   -1.8060   24.9120  -29.3250 C   0  0  0  0  0  0  0  0  0  0  0  0
   -1.6020   26.2120  -28.8750 O   0  0  0  0  0  0  0  0  0  0  0  0
   -2.9460   24.5940  -30.0640 C   0  0  0  0  0  0  0  0  0  0  0  0
   -3.8790   25.5790  -30.3660 O   0  0  0  0  0  0  0  0  0  0  0  0
   -3.1480   23.2840  -30.5110 C   0  0  0  0  0  0  0  0  0  0  0  0
   -1.2140   19.9710  -30.6550 C   0  0  0  0  0  0  0  0  0  0  0  0
   -0.4560   19.8810  -29.6530 O   0  0  0  0  0  0  0  0  0  0  0  0
   -1.0710   19.1560  -31.8420 C   0  0  0  0  0  0  0  0  0  0  0  0
   -0.1450   18.1480  -32.1160 C   0  0  0  0  0  0  0  0  0  0  0  0
   -0.2560   17.4550  -33.3320 C   0  0  0  0  0  0  0  0  0  0  0  0
    0.6650   16.4650  -33.6510 O   0  0  0  0  0  0  0  0  0  0  0  0
   -1.3140   17.7440  -34.2170 C   0  0  0  0  0  0  0  0  0  0  0  0
   -2.2650   18.7260  -33.8880 C   0  0  0  0  0  0  0  0  0  0  0  0
   -2.0710   19.4760  -32.7230 C   0  0  0  0  0  0  0  0  0  0  0  0
   -2.7410   20.7500  -32.2990 C   0  0  1  0  0  0  0  0  0  0  0  0
   -4.1910   20.9850  -32.7920 C   0  0  0  0  0  0  0  0  0  0  0  0
   -5.0250   19.7490  -33.0150 C   0  0  0  0  0  0  0  0  0  0  0  0
   -6.2560   19.6120  -32.3480 C   0  0  0  0  0  0  0  0  0  0  0  0
   -7.1370   18.5830  -32.6910 C   0  0  0  0  0  0  0  0  0  0  0  0
   -6.8110   17.6970  -33.7190 C   0  0  0  0  0  0  0  0  0  0  0  0
   -5.5920   17.8220  -34.3890 C   0  0  0  0  0  0  0  0  0  0  0  0
   -4.6830   18.8230  -34.0250 C   0  0  0  0  0  0  0  0  0  0  0  0
   -3.4290   18.8420  -34.6460 O   0  0  0  0  0  0  0  0  0  0  0  0
   -3.3903   20.2694  -28.8653 H   0  0  0  0  0  0  0  0  0  0  0  0
   -4.5521   20.6148  -30.1911 H   0  0  0  0  0  0  0  0  0  0  0  0
   -3.6199   19.0793  -30.1911 H   0  0  0  0  0  0  0  0  0  0  0  0
   -0.2944   21.8502  -29.2836 H   0  0  0  0  0  0  0  0  0  0  0  0
    0.0422   24.1788  -28.4743 H   0  0  0  0  0  0  0  0  0  0  0  0
   -4.0403   23.0490  -31.1098 H   0  0  0  0  0  0  0  0  0  0  0  0
    0.6512   17.9029  -31.3977 H   0  0  0  0  0  0  0  0  0  0  0  0
   -1.3961   17.1991  -35.1690 H   0  0  0  0  0  0  0  0  0  0  0  0
   -2.3177   21.6234  -32.8166 H   0  0  0  0  0  0  0  0  0  0  0  0
   -4.7041   21.6058  -32.0428 H   0  0  0  0  0  0  0  0  0  0  0  0
   -4.0937   21.4577  -33.7805 H   0  0  0  0  0  0  0  0  0  0  0  0
   -6.5269   20.3199  -31.5508 H   0  0  0  0  0  0  0  0  0  0  0  0
   -8.0884   18.4711  -32.1503 H   0  0  0  0  0  0  0  0  0  0  0  0
   -7.5145   16.9000  -34.0016 H   0  0  0  0  0  0  0  0  0  0  0  0
   -5.3445   17.1300  -35.2075 H   0  0  0  0  0  0  0  0  0  0  0  0
  2  1  1  1
  2  3  1  0
  3  4  2  0
  4  5  1  0
  5  6  2  0
  6  7  1  0
  6  8  1  0
  8  9  1  0
  8 10  2  0
  2 11  1  0
 11 12  2  0
 11 13  1  0
 13 14  2  0
 14 15  1  0
 15 16  1  0
 15 17  2  0
 17 18  1  0
 18 19  2  0
 19 20  1  0
 20 21  1  0
 21 22  1  0
 22 23  2  0
 23 24  1  0
 24 25  2  0
 25 26  1  0
 26 27  2  0
 27 28  1  0
 20  2  1  0
 27 22  1  0
 10  3  1  0
 19 13  1  0
 28 18  1  0
  1 29  1  0
  1 30  1  0
  1 31  1  0
  4 32  1  0
  5 33  1  0
 10 34  1  0
 14 35  1  0
 17 36  1  0
 20 37  1  6
 21 38  1  0
 21 39  1  0
 23 40  1  0
 24 41  1  0
 25 42  1  0
 26 43  1  0
M  CHG  3   7  -1   9  -1  16  -1
M  END
>  <UniqueID>  (15) 
14

>  <SMILES>  (15) 
C[C@@]1(c2ccc([O-])c([O-])c2)C(=O)c2cc([O-])cc3c2[C@H]1Cc1ccccc1O3

>  <Energy>  (15) 
98.62256598226988

>  <Genealogy>  (15) 
CC1(c2ccc([O-])c([O-])c2)C(=O)c2cc([O-])cc3c2C1Cc1ccccc1O3 (protonated)
C[C@@]1(c2ccc([O-])c([O-])c2)C(=O)c2cc([O-])cc3c2[C@H]1Cc1ccccc1O3 (chirality)
C[C@@]1(c2ccc([O-])c([O-])c2)C(=O)c2cc([O-])cc3c2[C@H]1Cc1ccccc1O3 (3D coordinates assigned)
C[C@@]1(c2ccc([O-])c([O-])c2)C(=O)c2cc([O-])cc3c2[C@H]1Cc1ccccc1O3 (nonaromatic ring conformer: 98.62256598226988 kcal/mol)

>  <smiles>  (15) 
CC1(c2ccc(O)c(O)c2)C(=O)c2cc(O)cc3c2C1Cc1ccccc1O3

>  <score_type>  (15) 
oracle

>  <origin>  (15) 
adgpu

>  <m_score__min__energy>  (15) 
-11.949999999999999

>  <m_primary>  (15) 
energy

$$$$
15:0
     RDKit          3D

 51 54  0  0  0  0  0  0  0  0999 V2000
   -0.5970   27.9290  -23.7460 O   0  0  0  0  0  0  0  0  0  0  0  0
    0.3730   27.2650  -24.6840 S   0  0  0  0  0  0  0  0  0  0  0  0
    1.1320   28.3440  -25.4080 O   0  0  0  0  0  0  0  0  0  0  0  0
   -0.5310   26.3090  -25.8640 C   0  0  0  0  0  0  0  0  0  0  0  0
   -0.4600   26.6210  -27.2290 C   0  0  0  0  0  0  0  0  0  0  0  0
   -1.1920   25.8800  -28.1620 C   0  0  0  0  0  0  0  0  0  0  0  0
   -2.0080   24.8080  -27.7440 C   0  0  0  0  0  0  0  0  0  0  0  0
   -2.8090   24.0140  -28.7150 C   0  0  0  0  0  0  0  0  0  0  0  0
   -3.1030   22.6560  -28.5120 C   0  0  0  0  0  0  0  0  0  0  0  0
   -3.8530   21.9650  -29.4610 C   0  0  0  0  0  0  0  0  0  0  0  0
   -4.3150   22.6390  -30.6020 C   0  0  0  0  0  0  0  0  0  0  0  0
   -5.1080   21.9680  -31.6090 N   0  0  0  0  0  0  0  0  0  0  0  0
   -4.5120   21.6450  -32.9160 C   0  0  0  0  0  0  0  0  0  0  0  0
   -5.0550   20.3090  -33.4340 C   0  0  0  0  0  0  0  0  0  0  0  0
   -6.5970   20.2290  -33.4220 C   0  0  0  0  0  0  0  0  0  0  0  0
   -7.2690   21.4040  -32.7010 C   0  0  0  0  0  0  0  0  0  0  0  0
   -6.5460   21.7400  -31.3930 C   0  0  0  0  0  0  0  0  0  0  0  0
   -4.0090   23.9590  -30.7450 N   0  0  0  0  0  0  0  0  0  0  0  0
   -3.2870   24.6180  -29.8400 N   0  0  0  0  0  0  0  0  0  0  0  0
   -2.0840   24.5120  -26.3690 C   0  0  0  0  0  0  0  0  0  0  0  0
   -1.3540   25.2570  -25.4370 C   0  0  0  0  0  0  0  0  0  0  0  0
    1.4970   26.3020  -23.7560 N   0  0  0  0  0  0  0  0  0  0  0  0
    2.6900   27.0550  -23.3680 C   0  0  0  0  0  0  0  0  0  0  0  0
    3.7890   26.0290  -23.1410 C   0  0  0  0  0  0  0  0  0  0  0  0
    3.3520   24.7920  -23.9130 C   0  0  0  0  0  0  0  0  0  0  0  0
    1.9890   25.1390  -24.4980 C   0  0  0  0  0  0  0  0  0  0  0  0
    0.1748   27.4530  -27.5678 H   0  0  0  0  0  0  0  0  0  0  0  0
   -1.1310   26.1351  -29.2303 H   0  0  0  0  0  0  0  0  0  0  0  0
   -2.7433   22.1409  -27.6091 H   0  0  0  0  0  0  0  0  0  0  0  0
   -4.0815   20.8987  -29.3171 H   0  0  0  0  0  0  0  0  0  0  0  0
   -4.7602   22.4403  -33.6342 H   0  0  0  0  0  0  0  0  0  0  0  0
   -3.4208   21.5669  -32.8015 H   0  0  0  0  0  0  0  0  0  0  0  0
   -4.7064   20.1679  -34.4677 H   0  0  0  0  0  0  0  0  0  0  0  0
   -4.6833   19.5235  -32.7596 H   0  0  0  0  0  0  0  0  0  0  0  0
   -6.9521   20.2112  -34.4630 H   0  0  0  0  0  0  0  0  0  0  0  0
   -6.8676   19.3162  -32.8710 H   0  0  0  0  0  0  0  0  0  0  0  0
   -7.2499   22.2860  -33.3580 H   0  0  0  0  0  0  0  0  0  0  0  0
   -8.3044   21.1193  -32.4626 H   0  0  0  0  0  0  0  0  0  0  0  0
   -6.9906   22.6498  -30.9634 H   0  0  0  0  0  0  0  0  0  0  0  0
   -6.6589   20.8856  -30.7095 H   0  0  0  0  0  0  0  0  0  0  0  0
   -2.7241   23.6864  -26.0246 H   0  0  0  0  0  0  0  0  0  0  0  0
   -1.4257   25.0169  -24.3659 H   0  0  0  0  0  0  0  0  0  0  0  0
    1.0060   25.9710  -22.8900 H   0  0  0  0  0  0  0  0  0  0  0  0
    2.9785   27.7507  -24.1698 H   0  0  0  0  0  0  0  0  0  0  0  0
    2.5081   27.6522  -22.4623 H   0  0  0  0  0  0  0  0  0  0  0  0
    4.7498   26.4027  -23.5247 H   0  0  0  0  0  0  0  0  0  0  0  0
    3.9341   25.8143  -22.0720 H   0  0  0  0  0  0  0  0  0  0  0  0
    4.0691   24.5666  -24.7161 H   0  0  0  0  0  0  0  0  0  0  0  0
    3.3049   23.9029  -23.2671 H   0  0  0  0  0  0  0  0  0  0  0  0
    2.0859   25.3838  -25.5660 H   0  0  0  0  0  0  0  0  0  0  0  0
    1.2936   24.2911  -24.4117 H   0  0  0  0  0  0  0  0  0  0  0  0
  1  2  2  0
  2  3  2  0
  2  4  1  0
  4  5  2  0
  5  6  1  0
  6  7  2  0
  7  8  1  0
  8  9  2  0
  9 10  1  0
 10 11  2  0
 11 12  1  0
 12 13  1  0
 13 14  1  0
 14 15  1  0
 15 16  1  0
 16 17  1  0
 11 18  1  0
 18 19  2  0
  7 20  1  0
 20 21  2  0
  2 22  1  0
 22 23  1  0
 23 24  1  0
 24 25  1  0
 25 26  1  0
 21  4  1  0
 26 22  1  0
 19  8  1  0
 17 12  1  0
  5 27  1  0
  6 28  1  0
  9 29  1  0
 10 30  1  0
 13 31  1  0
 13 32  1  0
 14 33  1  0
 14 34  1  0
 15 35  1  0
 15 36  1  0
 16 37  1  0
 16 38  1  0
 17 39  1  0
 17 40  1  0
 20 41  1  0
 21 42  1  0
 22 43  1  0
 23 44  1  0
 23 45  1  0
 24 46  1  0
 24 47  1  0
 25 48  1  0
 25 49  1  0
 26 50  1  0
 26 51  1  0
M  CHG  1  22   1
M  END
>  <UniqueID>  (16) 
15

>  <SMILES>  (16) 
O=S(=O)(c1ccc(-c2ccc(N3CCCCC3)nn2)cc1)[NH+]1CCCC1

>  <Energy>  (16) 
62.10990394946421

>  <Genealogy>  (16) 
O=S(=O)(c1ccc(-c2ccc(N3CCCCC3)nn2)cc1)[NH+]1CCCC1 (protonated)
O=S(=O)(c1ccc(-c2ccc(N3CCCCC3)nn2)cc1)[NH+]1CCCC1 (3D coordinates assigned)
O=S(=O)(c1ccc(-c2ccc(N3CCCCC3)nn2)cc1)[NH+]1CCCC1 (nonaromatic ring conformer: 62.10990394946421 kcal/mol)

>  <smiles>  (16) 
O=S(=O)(c1ccc(-c2ccc(N3CCCCC3)nn2)cc1)N1CCCC1

>  <score_type>  (16) 
oracle

>  <origin>  (16) 
adgpu

>  <m_score__min__energy>  (16) 
-8.6199999999999992

>  <m_primary>  (16) 
energy

$$$$
16:0
     RDKit          3D

 42 44  0  0  0  0  0  0  0  0999 V2000
   -6.5140   17.7710  -32.9730 C   0  0  0  0  0  0  0  0  0  0  0  0
   -7.5920   18.1830  -31.9700 C   0  0  0  0  0  0  0  0  0  0  0  0
   -8.3980   19.3930  -32.4510 C   0  0  0  0  0  0  0  0  0  0  0  0
   -7.9830   20.6080  -31.7570 N   0  0  0  0  0  0  0  0  0  0  0  0
   -6.8330   21.2810  -31.9280 C   0  0  0  0  0  0  0  0  0  0  0  0
   -6.8620   22.3300  -31.0260 C   0  0  0  0  0  0  0  0  0  0  0  0
   -5.8280   23.3700  -30.8100 C   0  0  0  0  0  0  0  0  0  0  0  0
   -6.1020   24.7270  -31.0500 C   0  0  0  0  0  0  0  0  0  0  0  0
   -5.1000   25.6760  -30.8530 C   0  0  0  0  0  0  0  0  0  0  0  0
   -3.8710   25.2940  -30.4190 N   0  0  0  0  0  0  0  0  0  0  0  0
   -3.5650   23.9960  -30.1550 C   0  0  0  0  0  0  0  0  0  0  0  0
   -2.3570   23.7170  -29.7520 N   0  0  0  0  0  0  0  0  0  0  0  0
   -1.8480   22.4410  -29.3290 C   0  0  0  0  0  0  0  0  0  0  0  0
   -1.8690   22.0610  -27.9770 C   0  0  0  0  0  0  0  0  0  0  0  0
   -1.3200   20.8370  -27.5810 C   0  0  0  0  0  0  0  0  0  0  0  0
   -0.7190   19.9960  -28.5250 C   0  0  0  0  0  0  0  0  0  0  0  0
   -0.0440   18.4480  -28.0290 S   0  0  0  0  0  0  0  0  0  0  0  0
   -0.9710   17.8030  -26.7200 N   0  0  0  0  0  0  0  0  0  0  0  0
    1.3820   18.6310  -27.5920 O   0  0  0  0  0  0  0  0  0  0  0  0
   -0.0730   17.4860  -29.1840 O   0  0  0  0  0  0  0  0  0  0  0  0
   -0.6720   20.3880  -29.8710 C   0  0  0  0  0  0  0  0  0  0  0  0
   -1.2210   21.6120  -30.2660 C   0  0  0  0  0  0  0  0  0  0  0  0
   -4.5470   23.0050  -30.3650 C   0  0  0  0  0  0  0  0  0  0  0  0
   -8.0230   22.2530  -30.3390 N   0  0  0  0  0  0  0  0  0  0  0  0
   -8.6790   21.1990  -30.8000 N   0  0  0  0  0  0  0  0  0  0  0  0
   -5.6200   17.4293  -32.4308 H   0  0  0  0  0  0  0  0  0  0  0  0
   -6.8939   16.9547  -33.6049 H   0  0  0  0  0  0  0  0  0  0  0  0
   -6.2526   18.6326  -33.6049 H   0  0  0  0  0  0  0  0  0  0  0  0
   -8.2787   17.3368  -31.8205 H   0  0  0  0  0  0  0  0  0  0  0  0
   -7.0908   18.4627  -31.0316 H   0  0  0  0  0  0  0  0  0  0  0  0
   -8.2395   19.5241  -33.5316 H   0  0  0  0  0  0  0  0  0  0  0  0
   -9.4617   19.2130  -32.2363 H   0  0  0  0  0  0  0  0  0  0  0  0
   -6.0297   21.0455  -32.6416 H   0  0  0  0  0  0  0  0  0  0  0  0
   -7.1004   25.0385  -31.3910 H   0  0  0  0  0  0  0  0  0  0  0  0
   -5.3056   26.7385  -31.0499 H   0  0  0  0  0  0  0  0  0  0  0  0
   -2.3187   22.7283  -27.2270 H   0  0  0  0  0  0  0  0  0  0  0  0
   -1.3606   20.5342  -26.5243 H   0  0  0  0  0  0  0  0  0  0  0  0
   -0.6700   16.8110  -26.5920 H   0  0  0  0  0  0  0  0  0  0  0  0
   -1.9660   17.7780  -27.0350 H   0  0  0  0  0  0  0  0  0  0  0  0
   -0.2021   19.7310  -30.6177 H   0  0  0  0  0  0  0  0  0  0  0  0
   -1.1597   21.9248  -31.3188 H   0  0  0  0  0  0  0  0  0  0  0  0
   -4.3094   21.9470  -30.1803 H   0  0  0  0  0  0  0  0  0  0  0  0
  1  2  1  0
  2  3  1  0
  3  4  1  0
  4  5  1  0
  5  6  2  0
  6  7  1  0
  7  8  1  0
  8  9  2  0
  9 10  1  0
 10 11  1  0
 11 12  2  3
 12 13  1  0
 13 14  2  0
 14 15  1  0
 15 16  2  0
 16 17  1  0
 17 18  1  0
 17 19  2  0
 17 20  2  0
 16 21  1  0
 21 22  2  0
 11 23  1  0
  6 24  1  0
 24 25  2  0
 25  4  1  0
 23  7  2  0
 22 13  1  0
  1 26  1  0
  1 27  1  0
  1 28  1  0
  2 29  1  0
  2 30  1  0
  3 31  1  0
  3 32  1  0
  5 33  1  0
  8 34  1  0
  9 35  1  0
 14 36  1  0
 15 37  1  0
 18 38  1  0
 18 39  1  0
 21 40  1  0
 22 41  1  0
 23 42  1  0
M  CHG  1  10  -1
M  END
>  <UniqueID>  (17) 
16

>  <SMILES>  (17) 
CCCn1cc(-c2cc[n-]c(=Nc3ccc(S(N)(=O)=O)cc3)c2)nn1

>  <Energy>  (17) 
83.48048692753987

>  <Genealogy>  (17) 
CCCn1cc(-c2cc[n-]c(=Nc3ccc(S(N)(=O)=O)cc3)c2)nn1 (protonated)
CCCn1cc(-c2cc[n-]c(=Nc3ccc(S(N)(=O)=O)cc3)c2)nn1 (3D coordinates assigned)
CCCn1cc(-c2cc[n-]c(=Nc3ccc(S(N)(=O)=O)cc3)c2)nn1 (optimized conformer: 83.48048692753987 kcal/mol)

>  <smiles>  (17) 
CCCn1cc(-c2cc[nH]c(=Nc3ccc(S(N)(=O)=O)cc3)c2)nn1

>  <score_type>  (17) 
oracle

>  <origin>  (17) 
adgpu

>  <m_score__min__energy>  (17) 
-10.08

>  <m_primary>  (17) 
energy

$$$$
17:0
     RDKit          3D

 66 69  0  0  1  0  0  0  0  0999 V2000
    3.7840   24.5520  -27.6170 C   0  0  0  0  0  0  0  0  0  0  0  0
    2.7850   23.7460  -27.3920 C   0  0  0  0  0  0  0  0  0  0  0  0
    1.3850   24.1530  -27.3310 C   0  0  0  0  0  0  0  0  0  0  0  0
    0.8670   24.9230  -28.2010 O   0  0  0  0  0  0  0  0  0  0  0  0
    0.5270   23.6970  -26.2790 N   0  0  0  0  0  0  0  0  0  0  0  0
   -0.8220   24.1660  -26.3300 C   0  0  0  0  0  0  0  0  0  0  0  0
   -1.8030   23.4780  -27.0160 C   0  0  0  0  0  0  0  0  0  0  0  0
   -3.0860   23.9860  -27.0250 C   0  0  0  0  0  0  0  0  0  0  0  0
   -4.1710   23.3620  -27.6960 N   0  0  0  0  0  0  0  0  0  0  0  0
   -4.6880   23.7740  -28.7900 C   0  0  0  0  0  0  0  0  0  0  0  0
   -5.7420   23.1040  -29.3710 C   0  0  0  0  0  0  0  0  0  0  0  0
   -6.2460   23.6070  -30.5500 C   0  0  0  0  0  0  0  0  0  0  0  0
   -7.3100   22.9140  -31.1200 O   0  0  0  0  0  0  0  0  0  0  0  0
   -7.0280   21.8070  -31.9100 C   0  0  0  0  0  0  0  0  0  0  0  0
   -5.8680   21.6720  -32.6410 C   0  0  0  0  0  0  0  0  0  0  0  0
   -5.6480   20.5350  -33.4120 C   0  0  0  0  0  0  0  0  0  0  0  0
   -6.6160   19.5550  -33.4230 C   0  0  0  0  0  0  0  0  0  0  0  0
   -6.4830   18.3490  -34.1850 N   0  0  0  0  0  0  0  0  0  0  0  0
   -6.0730   17.1660  -33.4660 C   0  0  0  0  0  0  0  0  0  0  0  0
   -5.8750   17.3160  -32.2440 O   0  0  0  0  0  0  0  0  0  0  0  0
   -5.9220   15.9510  -34.1420 N   0  0  0  0  0  0  0  0  0  0  0  0
   -5.5310   14.7160  -33.5810 C   0  0  0  0  0  0  0  0  0  0  0  0
   -4.5010   14.5410  -32.6880 C   0  0  0  0  0  0  0  0  0  0  0  0
   -4.1550   13.3010  -32.1630 C   0  0  0  0  0  0  0  0  0  0  0  0
   -3.0340   13.1620  -31.2010 C   0  0  0  0  0  0  0  0  0  0  0  0
   -4.8540   12.1750  -32.5330 C   0  0  0  0  0  0  0  0  0  0  0  0
   -5.8870   12.3510  -33.4290 C   0  0  0  0  0  0  0  0  0  0  0  0
   -6.2260   13.5790  -33.9460 C   0  0  0  0  0  0  0  0  0  0  0  0
   -7.2670   13.6420  -34.8270 F   0  0  0  0  0  0  0  0  0  0  0  0
   -7.7950   19.6710  -32.6910 C   0  0  0  0  0  0  0  0  0  0  0  0
   -8.8350   18.5930  -32.7170 C   0  0  0  0  0  0  0  0  0  0  0  0
   -7.9870   20.8090  -31.9350 C   0  0  0  0  0  0  0  0  0  0  0  0
   -5.7130   24.7140  -31.0970 N   0  0  0  0  0  0  0  0  0  0  0  0
   -4.6710   25.3560  -30.5020 C   0  0  0  0  0  0  0  0  0  0  0  0
   -4.1660   24.8800  -29.3520 N   0  0  0  0  0  0  0  0  0  0  0  0
   -3.3570   25.1640  -26.3520 C   0  0  0  0  0  0  0  0  0  0  0  0
   -2.3850   25.8590  -25.6630 C   0  0  0  0  0  0  0  0  0  0  0  0
   -1.0940   25.3470  -25.6550 C   0  0  0  0  0  0  0  0  0  0  0  0
   -0.0590   26.1010  -24.9140 C   0  0  0  0  0  0  0  0  0  0  0  0
    4.8113   24.1598  -27.6463 H   0  0  0  0  0  0  0  0  0  0  0  0
    3.6000   25.6245  -27.7776 H   0  0  0  0  0  0  0  0  0  0  0  0
    3.0138   22.6813  -27.2368 H   0  0  0  0  0  0  0  0  0  0  0  0
    0.8750   23.0640  -25.5270 H   0  0  0  0  0  0  0  0  0  0  0  0
   -1.5664   22.5431  -27.5451 H   0  0  0  0  0  0  0  0  0  0  0  0
   -6.1659   22.1997  -28.9099 H   0  0  0  0  0  0  0  0  0  0  0  0
   -5.1103   22.4690  -32.6149 H   0  0  0  0  0  0  0  0  0  0  0  0
   -4.7241   20.4214  -33.9982 H   0  0  0  0  0  0  0  0  0  0  0  0
   -6.6720   18.3220  -35.2160 H   0  0  0  0  0  0  0  0  0  0  0  0
   -6.1230   15.9680  -35.1810 H   0  0  0  0  0  0  0  0  0  0  0  0
   -3.9235   15.4230  -32.3741 H   0  0  0  0  0  0  0  0  0  0  0  0
   -3.4243   13.2104  -30.1737 H   0  0  0  0  0  0  0  0  0  0  0  0
   -2.5338   12.1950  -31.3580 H   0  0  0  0  0  0  0  0  0  0  0  0
   -2.3128   13.9776  -31.3580 H   0  0  0  0  0  0  0  0  0  0  0  0
   -4.6008   11.1820  -32.1331 H   0  0  0  0  0  0  0  0  0  0  0  0
   -6.4655   11.4700  -33.7441 H   0  0  0  0  0  0  0  0  0  0  0  0
   -9.1020   18.3162  -31.6864 H   0  0  0  0  0  0  0  0  0  0  0  0
   -9.7297   18.9592  -33.2418 H   0  0  0  0  0  0  0  0  0  0  0  0
   -8.4369   17.7120  -33.2418 H   0  0  0  0  0  0  0  0  0  0  0  0
   -8.9097   20.9242  -31.3473 H   0  0  0  0  0  0  0  0  0  0  0  0
   -6.1020   25.0870  -31.9910 H   0  0  0  0  0  0  0  0  0  0  0  0
   -4.2444   26.2603  -30.9606 H   0  0  0  0  0  0  0  0  0  0  0  0
   -4.3831   25.5601  -26.3669 H   0  0  0  0  0  0  0  0  0  0  0  0
   -2.6257   26.7931  -25.1344 H   0  0  0  0  0  0  0  0  0  0  0  0
   -0.2223   25.9820  -23.8327 H   0  0  0  0  0  0  0  0  0  0  0  0
    0.9363   25.7149  -25.1792 H   0  0  0  0  0  0  0  0  0  0  0  0
   -0.1214   27.1667  -25.1792 H   0  0  0  0  0  0  0  0  0  0  0  0
  1  2  2  0
  2  3  1  0
  3  4  2  0
  3  5  1  0
  5  6  1  0
  6  7  2  0
  7  8  1  0
  8  9  1  0
  9 10  2  0
 10 11  1  0
 11 12  2  0
 12 13  1  0
 13 14  1  0
 14 15  2  0
 15 16  1  0
 16 17  2  0
 17 18  1  0
 18 19  1  0
 19 20  2  0
 19 21  1  0
 21 22  1  0
 22 23  2  0
 23 24  1  0
 24 25  1  0
 24 26  2  0
 26 27  1  0
 27 28  2  0
 28 29  1  0
 17 30  1  0
 30 31  1  0
 30 32  2  0
 12 33  1  0
 33 34  1  0
 34 35  2  0
  8 36  2  0
 36 37  1  0
 37 38  2  0
 38 39  1  0
 38  6  1  0
 35 10  1  0
 32 14  1  0
 28 22  1  0
  1 40  1  0
  1 41  1  0
  2 42  1  0
  5 43  1  0
  7 44  1  0
 11 45  1  0
 15 46  1  0
 16 47  1  0
 18 48  1  0
 21 49  1  0
 23 50  1  0
 25 51  1  0
 25 52  1  0
 25 53  1  0
 26 54  1  0
 27 55  1  0
 31 56  1  0
 31 57  1  0
 31 58  1  0
 32 59  1  0
 33 60  1  0
 34 61  1  0
 36 62  1  0
 37 63  1  0
 39 64  1  0
 39 65  1  0
 39 66  1  0
M  END
>  <smiles>  (18) 
C=CC(=O)Nc1cc(N=c2cc(Oc3ccc(NC(=O)Nc4cc(C)ccc4F)c(C)c3)[nH]cn2)ccc1C

>  <score_type>  (18) 
oracle

>  <origin>  (18) 
adgpu

>  <m_score__min__energy>  (18) 
-10.93

>  <m_primary>  (18) 
energy

$$$$
18:0
     RDKit          3D

 51 53  0  0  0  0  0  0  0  0999 V2000
   -6.3470   25.3200  -29.3620 C   0  0  0  0  0  0  0  0  0  0  0  0
   -7.1240   24.9150  -30.4840 O   0  0  0  0  0  0  0  0  0  0  0  0
   -7.0330   23.6580  -31.1030 C   0  0  0  0  0  0  0  0  0  0  0  0
   -8.1460   22.8050  -31.2250 C   0  0  0  0  0  0  0  0  0  0  0  0
   -8.0150   21.5570  -31.8360 C   0  0  0  0  0  0  0  0  0  0  0  0
   -6.7730   21.1360  -32.3230 C   0  0  0  0  0  0  0  0  0  0  0  0
   -6.6020   19.5380  -33.0500 S   0  0  0  0  0  0  0  0  0  0  0  0
   -6.4820   19.6850  -34.5420 O   0  0  0  0  0  0  0  0  0  0  0  0
   -7.8450   18.7410  -32.7680 O   0  0  0  0  0  0  0  0  0  0  0  0
   -5.2110   18.6660  -32.4380 N   0  0  0  0  0  0  0  0  0  0  0  0
   -5.4170   17.2040  -32.4280 C   0  0  0  0  0  0  0  0  0  0  0  0
   -5.1450   16.5430  -33.8000 C   0  0  0  0  0  0  0  0  0  0  0  0
   -4.5640   17.4240  -34.7400 O   0  0  0  0  0  0  0  0  0  0  0  0
   -3.4670   18.0850  -34.1550 C   0  0  0  0  0  0  0  0  0  0  0  0
   -3.9460   19.0790  -33.0840 C   0  0  0  0  0  0  0  0  0  0  0  0
   -5.6650   21.9850  -32.2150 C   0  0  0  0  0  0  0  0  0  0  0  0
   -5.7910   23.2520  -31.6200 C   0  0  0  0  0  0  0  0  0  0  0  0
   -4.6590   24.1240  -31.4640 N   0  0  0  0  0  0  0  0  0  0  0  0
   -3.5340   23.9110  -30.6040 C   0  0  0  0  0  0  0  0  0  0  0  0
   -2.8090   22.8880  -30.7430 O   0  0  0  0  0  0  0  0  0  0  0  0
   -3.1910   24.9160  -29.6420 N   0  0  0  0  0  0  0  0  0  0  0  0
   -2.1970   24.7340  -28.6160 C   0  0  0  0  0  0  0  0  0  0  0  0
   -1.0880   25.5980  -28.5380 C   0  0  0  0  0  0  0  0  0  0  0  0
   -0.1140   25.4140  -27.5540 C   0  0  0  0  0  0  0  0  0  0  0  0
   -0.2290   24.3640  -26.6420 C   0  0  0  0  0  0  0  0  0  0  0  0
   -1.3150   23.4890  -26.7180 C   0  0  0  0  0  0  0  0  0  0  0  0
   -2.2940   23.6590  -27.7060 C   0  0  0  0  0  0  0  0  0  0  0  0
   -3.6830   22.5170  -27.7480 S   0  0  0  0  0  0  0  0  0  0  0  0
   -2.6250   21.0390  -27.8500 C   0  0  0  0  0  0  0  0  0  0  0  0
   -6.8717   25.0465  -28.4347 H   0  0  0  0  0  0  0  0  0  0  0  0
   -5.3693   24.8168  -29.3922 H   0  0  0  0  0  0  0  0  0  0  0  0
   -6.1996   26.4097  -29.3922 H   0  0  0  0  0  0  0  0  0  0  0  0
   -9.1245   23.1238  -30.8366 H   0  0  0  0  0  0  0  0  0  0  0  0
   -8.8926   20.9013  -31.9351 H   0  0  0  0  0  0  0  0  0  0  0  0
   -4.7383   16.7600  -31.6849 H   0  0  0  0  0  0  0  0  0  0  0  0
   -6.4736   17.0235  -32.1809 H   0  0  0  0  0  0  0  0  0  0  0  0
   -4.4623   15.6938  -33.6491 H   0  0  0  0  0  0  0  0  0  0  0  0
   -6.1166   16.2267  -34.2074 H   0  0  0  0  0  0  0  0  0  0  0  0
   -2.8035   17.3420  -33.6884 H   0  0  0  0  0  0  0  0  0  0  0  0
   -2.9263   18.6380  -34.9373 H   0  0  0  0  0  0  0  0  0  0  0  0
   -3.1683   19.1630  -32.3106 H   0  0  0  0  0  0  0  0  0  0  0  0
   -4.1308   20.0403  -33.5858 H   0  0  0  0  0  0  0  0  0  0  0  0
   -4.6876   21.6576  -32.5991 H   0  0  0  0  0  0  0  0  0  0  0  0
   -3.6650   25.8430  -29.7270 H   0  0  0  0  0  0  0  0  0  0  0  0
   -0.9879   26.4241  -29.2574 H   0  0  0  0  0  0  0  0  0  0  0  0
    0.7455   26.0982  -27.4978 H   0  0  0  0  0  0  0  0  0  0  0  0
    0.5356   24.2255  -25.8634 H   0  0  0  0  0  0  0  0  0  0  0  0
   -1.4023   22.6618  -25.9982 H   0  0  0  0  0  0  0  0  0  0  0  0
   -2.3781   20.6941  -26.8351 H   0  0  0  0  0  0  0  0  0  0  0  0
   -3.1591   20.2422  -28.3883 H   0  0  0  0  0  0  0  0  0  0  0  0
   -1.6985   21.2877  -28.3883 H   0  0  0  0  0  0  0  0  0  0  0  0
  1  2  1  0
  2  3  1  0
  3  4  2  0
  4  5  1  0
  5  6  2  0
  6  7  1  0
  7  8  2  0
  7  9  2  0
  7 10  1  0
 10 11  1  0
 11 12  1  0
 12 13  1  0
 13 14  1  0
 14 15  1  0
  6 16  1  0
 16 17  2  0
 17 18  1  0
 18 19  1  0
 19 20  2  0
 19 21  1  0
 21 22  1  0
 22 23  2  0
 23 24  1  0
 24 25  2  0
 25 26  1  0
 26 27  2  0
 27 28  1  0
 28 29  1  0
 17  3  1  0
 27 22  1  0
 15 10  1  0
  1 30  1  0
  1 31  1  0
  1 32  1  0
  4 33  1  0
  5 34  1  0
 11 35  1  0
 11 36  1  0
 12 37  1  0
 12 38  1  0
 14 39  1  0
 14 40  1  0
 15 41  1  0
 15 42  1  0
 16 43  1  0
 21 44  1  0
 23 45  1  0
 24 46  1  0
 25 47  1  0
 26 48  1  0
 29 49  1  0
 29 50  1  0
 29 51  1  0
M  CHG  1  18  -1
M  END
>  <UniqueID>  (19) 
17

>  <SMILES>  (19) 
COc1ccc(S(=O)(=O)N2CCOCC2)cc1[N-]C(=O)Nc1ccccc1SC

>  <Energy>  (19) 
65.47710523688254

>  <Genealogy>  (19) 
COc1ccc(S(=O)(=O)N2CCOCC2)cc1[N-]C(=O)Nc1ccccc1SC (protonated)
COc1ccc(S(=O)(=O)N2CCOCC2)cc1[N-]C(=O)Nc1ccccc1SC (3D coordinates assigned)
COc1ccc(S(=O)(=O)N2CCOCC2)cc1[N-]C(=O)Nc1ccccc1SC (nonaromatic ring conformer: 65.47710523688254 kcal/mol)

>  <smiles>  (19) 
COc1ccc(S(=O)(=O)N2CCOCC2)cc1NC(=O)Nc1ccccc1SC

>  <score_type>  (19) 
oracle

>  <origin>  (19) 
adgpu

>  <m_score__min__energy>  (19) 
-10.220000000000001

>  <m_primary>  (19) 
energy

$$$$
19:0
     RDKit          3D

 45 48  0  0  0  0  0  0  0  0999 V2000
   -5.1850   25.0300  -31.2320 O   0  0  0  0  0  0  0  0  0  0  0  0
   -5.0140   23.5680  -30.9300 S   0  0  0  0  0  0  0  0  0  0  0  0
   -3.8660   23.0300  -31.7340 O   0  0  0  0  0  0  0  0  0  0  0  0
   -4.6620   23.3770  -29.2420 N   0  0  0  0  0  0  0  0  0  0  0  0
   -3.4880   23.8720  -28.5840 C   0  0  0  0  0  0  0  0  0  0  0  0
   -3.6340   24.4910  -27.3180 C   0  0  0  0  0  0  0  0  0  0  0  0
   -2.5190   25.0120  -26.6360 C   0  0  0  0  0  0  0  0  0  0  0  0
   -1.2780   24.8920  -27.2510 C   0  0  0  0  0  0  0  0  0  0  0  0
   -0.0170   25.2810  -26.8730 C   0  0  0  0  0  0  0  0  0  0  0  0
    0.8460   24.9130  -27.8500 N   0  0  0  0  0  0  0  0  0  0  0  0
    0.1720   24.3070  -28.8270 N   0  0  0  0  0  0  0  0  0  0  0  0
   -1.1220   24.2940  -28.4650 C   0  0  0  0  0  0  0  0  0  0  0  0
   -2.2010   23.7660  -29.1690 C   0  0  0  0  0  0  0  0  0  0  0  0
   -6.4730   22.6760  -31.3540 C   0  0  0  0  0  0  0  0  0  0  0  0
   -7.6750   23.3590  -31.5760 C   0  0  0  0  0  0  0  0  0  0  0  0
   -8.8330   22.6510  -31.9040 C   0  0  0  0  0  0  0  0  0  0  0  0
   -8.8050   21.2540  -32.0110 C   0  0  0  0  0  0  0  0  0  0  0  0
   -9.9670   20.5630  -32.3510 O   0  0  0  0  0  0  0  0  0  0  0  0
   -7.6000   20.5600  -31.7800 C   0  0  0  0  0  0  0  0  0  0  0  0
   -7.5000   18.8000  -31.9090 S   0  0  0  0  0  0  0  0  0  0  0  0
   -8.8490   18.1740  -31.6850 O   0  0  0  0  0  0  0  0  0  0  0  0
   -6.5650   18.2960  -30.8450 O   0  0  0  0  0  0  0  0  0  0  0  0
   -6.8840   18.3520  -33.4810 N   0  0  0  0  0  0  0  0  0  0  0  0
   -6.2670   17.0130  -33.4180 C   0  0  0  0  0  0  0  0  0  0  0  0
   -5.3340   16.7950  -34.6200 C   0  0  0  0  0  0  0  0  0  0  0  0
   -4.2740   17.7400  -34.7240 O   0  0  0  0  0  0  0  0  0  0  0  0
   -4.4970   18.9330  -33.9870 C   0  0  0  0  0  0  0  0  0  0  0  0
   -5.9670   19.3870  -34.0120 C   0  0  0  0  0  0  0  0  0  0  0  0
   -6.4380   21.2810  -31.4690 C   0  0  0  0  0  0  0  0  0  0  0  0
   -4.6323   24.5653  -26.8622 H   0  0  0  0  0  0  0  0  0  0  0  0
   -2.6252   25.4957  -25.6538 H   0  0  0  0  0  0  0  0  0  0  0  0
    0.2465   25.8006  -25.9400 H   0  0  0  0  0  0  0  0  0  0  0  0
   -2.0595   23.2825  -30.1469 H   0  0  0  0  0  0  0  0  0  0  0  0
   -7.7071   24.4553  -31.4919 H   0  0  0  0  0  0  0  0  0  0  0  0
   -9.7736   23.1935  -32.0796 H   0  0  0  0  0  0  0  0  0  0  0  0
   -9.9340   19.6520  -32.7910 H   0  0  0  0  0  0  0  0  0  0  0  0
   -5.6863   16.9251  -32.4879 H   0  0  0  0  0  0  0  0  0  0  0  0
   -7.0617   16.2528  -33.4411 H   0  0  0  0  0  0  0  0  0  0  0  0
   -4.8922   15.7913  -34.5343 H   0  0  0  0  0  0  0  0  0  0  0  0
   -5.9519   16.9176  -35.5218 H   0  0  0  0  0  0  0  0  0  0  0  0
   -4.2008   18.7603  -32.9418 H   0  0  0  0  0  0  0  0  0  0  0  0
   -3.8984   19.7275  -34.4565 H   0  0  0  0  0  0  0  0  0  0  0  0
   -6.0670   20.2957  -33.4003 H   0  0  0  0  0  0  0  0  0  0  0  0
   -6.2432   19.5757  -35.0599 H   0  0  0  0  0  0  0  0  0  0  0  0
   -5.4898   20.7454  -31.3139 H   0  0  0  0  0  0  0  0  0  0  0  0
  1  2  2  0
  2  3  2  0
  2  4  1  0
  4  5  1  0
  5  6  1  0
  6  7  2  0
  7  8  1  0
  8  9  2  0
  9 10  1  0
 10 11  1  0
 11 12  2  0
 12 13  1  0
  2 14  1  0
 14 15  2  0
 15 16  1  0
 16 17  2  0
 17 18  1  0
 17 19  1  0
 19 20  1  0
 20 21  2  0
 20 22  2  0
 20 23  1  0
 23 24  1  0
 24 25  1  0
 25 26  1  0
 26 27  1  0
 27 28  1  0
 19 29  2  0
 13  5  2  0
 29 14  1  0
 12  8  1  0
 28 23  1  0
  6 30  1  0
  7 31  1  0
  9 32  1  0
 13 33  1  0
 15 34  1  0
 16 35  1  0
 18 36  1  0
 24 37  1  0
 24 38  1  0
 25 39  1  0
 25 40  1  0
 27 41  1  0
 27 42  1  0
 28 43  1  0
 28 44  1  0
 29 45  1  0
M  CHG  2   4  -1  10  -1
M  END
>  <UniqueID>  (20) 
18

>  <SMILES>  (20) 
O=S(=O)([N-]c1ccc2c[n-]nc2c1)c1ccc(O)c(S(=O)(=O)N2CCOCC2)c1

>  <Energy>  (20) 
101.68186698156713

>  <Genealogy>  (20) 
O=S(=O)([N-]c1ccc2c[n-]nc2c1)c1ccc(O)c(S(=O)(=O)N2CCOCC2)c1 (protonated)
O=S(=O)([N-]c1ccc2c[n-]nc2c1)c1ccc(O)c(S(=O)(=O)N2CCOCC2)c1 (3D coordinates assigned)
O=S(=O)([N-]c1ccc2c[n-]nc2c1)c1ccc(O)c(S(=O)(=O)N2CCOCC2)c1 (nonaromatic ring conformer: 101.68186698156713 kcal/mol)

>  <smiles>  (20) 
O=S(=O)(Nc1ccc2c[nH]nc2c1)c1ccc(O)c(S(=O)(=O)N2CCOCC2)c1

>  <score_type>  (20) 
oracle

>  <origin>  (20) 
adgpu

>  <m_score__min__energy>  (20) 
-11.109999999999999

>  <m_primary>  (20) 
energy

$$$$
20:0
     RDKit          3D

 69 72  0  0  0  0  0  0  0  0999 V2000
   -0.9340   22.2690  -26.1390 C   0  0  0  0  0  0  0  0  0  0  0  0
   -1.5890   23.1250  -27.1940 C   0  0  0  0  0  0  0  0  0  0  0  0
   -2.7790   22.6600  -27.7750 C   0  0  0  0  0  0  0  0  0  0  0  0
   -3.4180   23.3910  -28.7720 C   0  0  0  0  0  0  0  0  0  0  0  0
   -2.8790   24.5970  -29.2190 C   0  0  0  0  0  0  0  0  0  0  0  0
   -3.5480   25.2950  -30.2790 N   0  0  0  0  0  0  0  0  0  0  0  0
   -4.8070   24.9100  -30.8420 C   0  0  0  0  0  0  0  0  0  0  0  0
   -5.8400   25.6010  -30.6260 O   0  0  0  0  0  0  0  0  0  0  0  0
   -4.8580   23.7940  -31.7360 N   0  0  0  0  0  0  0  0  0  0  0  0
   -5.9950   22.9370  -31.9030 C   0  0  0  0  0  0  0  0  0  0  0  0
   -7.2190   23.5230  -32.2230 C   0  0  0  0  0  0  0  0  0  0  0  0
   -8.3680   22.7480  -32.3040 C   0  0  0  0  0  0  0  0  0  0  0  0
   -8.3090   21.3660  -32.1160 C   0  0  0  0  0  0  0  0  0  0  0  0
   -9.8380   20.4930  -32.1380 Cl  0  0  0  0  0  0  0  0  0  0  0  0
   -7.0620   20.7280  -31.8860 C   0  0  0  0  0  0  0  0  0  0  0  0
   -6.9870   18.9460  -31.8040 S   0  0  0  0  0  0  0  0  0  0  0  0
   -5.8700   18.5440  -30.8820 O   0  0  0  0  0  0  0  0  0  0  0  0
   -8.2480   18.3770  -31.2210 O   0  0  0  0  0  0  0  0  0  0  0  0
   -6.6460   18.2690  -33.4430 C   0  0  0  0  0  0  0  0  0  0  0  0
   -5.8820   16.9300  -33.3890 C   0  0  0  0  0  0  0  0  0  0  0  0
   -4.3530   17.0810  -33.2410 C   0  0  0  0  0  0  0  0  0  0  0  0
   -3.9570   18.4900  -33.0520 N   0  0  0  0  0  0  0  0  0  0  0  0
   -2.4990   18.5880  -32.8850 C   0  0  0  0  0  0  0  0  0  0  0  0
   -4.3990   19.3030  -34.2020 C   0  0  0  0  0  0  0  0  0  0  0  0
   -5.9340   19.2930  -34.3520 C   0  0  0  0  0  0  0  0  0  0  0  0
   -5.8990   21.5380  -31.7470 C   0  0  0  0  0  0  0  0  0  0  0  0
   -4.6430   21.0000  -31.4560 O   0  0  0  0  0  0  0  0  0  0  0  0
   -1.7300   25.1210  -28.5960 C   0  0  0  0  0  0  0  0  0  0  0  0
   -1.2590   26.3750  -28.9740 O   0  0  0  0  0  0  0  0  0  0  0  0
   -1.0740   24.3940  -27.5750 C   0  0  0  0  0  0  0  0  0  0  0  0
    0.3820   25.0760  -26.8050 S   0  0  0  0  0  0  0  0  0  0  0  0
    0.9480   24.1010  -25.8100 O   0  0  0  0  0  0  0  0  0  0  0  0
    1.4410   25.3240  -27.8450 O   0  0  0  0  0  0  0  0  0  0  0  0
   -0.0340   26.6220  -25.9760 C   0  0  0  0  0  0  0  0  0  0  0  0
   -1.2650   26.4590  -25.0530 C   0  0  0  0  0  0  0  0  0  0  0  0
   -0.8400   26.1700  -23.6050 C   0  0  0  0  0  0  0  0  0  0  0  0
   -0.0200   27.2530  -23.0270 N   0  0  0  0  0  0  0  0  0  0  0  0
    0.7660   28.0250  -24.0130 C   0  0  0  0  0  0  0  0  0  0  0  0
    1.1940   27.1680  -25.2130 C   0  0  0  0  0  0  0  0  0  0  0  0
   -1.2156   22.6370  -25.1414 H   0  0  0  0  0  0  0  0  0  0  0  0
   -1.2676   21.2270  -26.2531 H   0  0  0  0  0  0  0  0  0  0  0  0
    0.1589   22.3186  -26.2531 H   0  0  0  0  0  0  0  0  0  0  0  0
   -3.2117   21.7064  -27.4383 H   0  0  0  0  0  0  0  0  0  0  0  0
   -4.3543   23.0151  -29.2103 H   0  0  0  0  0  0  0  0  0  0  0  0
   -7.2746   24.6052  -32.4123 H   0  0  0  0  0  0  0  0  0  0  0  0
   -9.3344   23.2277  -32.5184 H   0  0  0  0  0  0  0  0  0  0  0  0
   -7.6254   18.0517  -33.8941 H   0  0  0  0  0  0  0  0  0  0  0  0
   -6.2566   16.3532  -32.5306 H   0  0  0  0  0  0  0  0  0  0  0  0
   -6.0588   16.4255  -34.3504 H   0  0  0  0  0  0  0  0  0  0  0  0
   -4.0203   16.4977  -32.3697 H   0  0  0  0  0  0  0  0  0  0  0  0
   -3.8823   16.7147  -34.1652 H   0  0  0  0  0  0  0  0  0  0  0  0
   -2.2530   18.6045  -31.8130 H   0  0  0  0  0  0  0  0  0  0  0  0
   -2.0165   17.7203  -33.3586 H   0  0  0  0  0  0  0  0  0  0  0  0
   -2.1370   19.5125  -33.3586 H   0  0  0  0  0  0  0  0  0  0  0  0
   -4.0619   20.3399  -34.0560 H   0  0  0  0  0  0  0  0  0  0  0  0
   -3.9627   18.8712  -35.1148 H   0  0  0  0  0  0  0  0  0  0  0  0
   -6.3123   20.2961  -34.1058 H   0  0  0  0  0  0  0  0  0  0  0  0
   -6.1508   19.0021  -35.3905 H   0  0  0  0  0  0  0  0  0  0  0  0
   -4.4110   20.0260  -31.5610 H   0  0  0  0  0  0  0  0  0  0  0  0
   -0.3128   27.3616  -26.7410 H   0  0  0  0  0  0  0  0  0  0  0  0
   -1.8553   27.3869  -25.0752 H   0  0  0  0  0  0  0  0  0  0  0  0
   -1.8626   25.6100  -25.4164 H   0  0  0  0  0  0  0  0  0  0  0  0
   -1.7440   26.0463  -22.9906 H   0  0  0  0  0  0  0  0  0  0  0  0
   -0.2272   25.2566  -23.6137 H   0  0  0  0  0  0  0  0  0  0  0  0
    0.6410   26.8260  -22.3350 H   0  0  0  0  0  0  0  0  0  0  0  0
    0.1530   28.8628  -24.3768 H   0  0  0  0  0  0  0  0  0  0  0  0
    1.6773   28.3834  -23.5120 H   0  0  0  0  0  0  0  0  0  0  0  0
    1.7967   27.7837  -25.8969 H   0  0  0  0  0  0  0  0  0  0  0  0
    1.7802   26.3150  -24.8405 H   0  0  0  0  0  0  0  0  0  0  0  0
  1  2  1  0
  2  3  2  0
  3  4  1  0
  4  5  2  0
  5  6  1  0
  6  7  1  0
  7  8  2  0
  7  9  1  0
  9 10  1  0
 10 11  2  0
 11 12  1  0
 12 13  2  0
 13 14  1  0
 13 15  1  0
 15 16  1  0
 16 17  2  0
 16 18  2  0
 16 19  1  0
 19 20  1  0
 20 21  1  0
 21 22  1  0
 22 23  1  0
 22 24  1  0
 24 25  1  0
 15 26  2  0
 26 27  1  0
  5 28  1  0
 28 29  1  0
 28 30  2  0
 30 31  1  0
 31 32  2  0
 31 33  2  0
 31 34  1  0
 34 35  1  0
 35 36  1  0
 36 37  1  0
 37 38  1  0
 38 39  1  0
 30  2  1  0
 39 34  1  0
 26 10  1  0
 25 19  1  0
  1 40  1  0
  1 41  1  0
  1 42  1  0
  3 43  1  0
  4 44  1  0
 11 45  1  0
 12 46  1  0
 19 47  1  0
 20 48  1  0
 20 49  1  0
 21 50  1  0
 21 51  1  0
 23 52  1  0
 23 53  1  0
 23 54  1  0
 24 55  1  0
 24 56  1  0
 25 57  1  0
 25 58  1  0
 27 59  1  0
 34 60  1  0
 35 61  1  0
 35 62  1  0
 36 63  1  0
 36 64  1  0
 37 65  1  0
 38 66  1  0
 38 67  1  0
 39 68  1  0
 39 69  1  0
M  CHG  3   6  -1   9  -1  29  -1
M  END
>  <UniqueID>  (21) 
19

>  <SMILES>  (21) 
Cc1ccc([N-]C(=O)[N-]c2ccc(Cl)c(S(=O)(=O)C3CCN(C)CC3)c2O)c([O-])c1S(=O)(=O)C1CCNCC1

>  <Energy>  (21) 
98.86395053291304

>  <Genealogy>  (21) 
Cc1ccc([N-]C(=O)[N-]c2ccc(Cl)c(S(=O)(=O)C3CCN(C)CC3)c2O)c([O-])c1S(=O)(=O)C1CCNCC1 (protonated)
Cc1ccc([N-]C(=O)[N-]c2ccc(Cl)c(S(=O)(=O)C3CCN(C)CC3)c2O)c([O-])c1S(=O)(=O)C1CCNCC1 (3D coordinates assigned)
Cc1ccc([N-]C(=O)[N-]c2ccc(Cl)c(S(=O)(=O)C3CCN(C)CC3)c2O)c([O-])c1S(=O)(=O)C1CCNCC1 (nonaromatic ring conformer: 98.86395053291304 kcal/mol)

>  <smiles>  (21) 
Cc1ccc(NC(=O)Nc2ccc(Cl)c(S(=O)(=O)C3CCN(C)CC3)c2O)c(O)c1S(=O)(=O)C1CCNCC1

>  <score_type>  (21) 
oracle

>  <origin>  (21) 
adgpu

>  <m_score__min__energy>  (21) 
-18.260000000000002

>  <m_primary>  (21) 
energy

$$$$
21:0
     RDKit          3D

 44 46  0  0  0  0  0  0  0  0999 V2000
   -1.5010   25.5470  -28.9770 O   0  0  0  0  0  0  0  0  0  0  0  0
   -2.5940   24.9250  -29.0520 C   0  0  0  0  0  0  0  0  0  0  0  0
   -2.9800   23.9640  -27.9770 C   0  0  0  0  0  0  0  0  0  0  0  0
   -2.4730   22.6020  -28.3320 C   0  0  0  0  0  0  0  0  0  0  0  0
   -2.9740   21.3990  -27.8480 C   0  0  0  0  0  0  0  0  0  0  0  0
   -2.3930   20.2780  -28.4530 C   0  0  0  0  0  0  0  0  0  0  0  0
   -1.4490   20.5940  -29.4240 C   0  0  0  0  0  0  0  0  0  0  0  0
   -1.3450   22.2680  -29.5340 S   0  0  0  0  0  0  0  0  0  0  0  0
   -3.4950   25.1650  -30.1380 N   0  0  0  0  0  0  0  0  0  0  0  0
   -4.5210   24.2630  -30.5750 C   0  0  0  0  0  0  0  0  0  0  0  0
   -4.2050   23.0550  -31.2200 C   0  0  0  0  0  0  0  0  0  0  0  0
   -5.2160   22.2440  -31.7490 C   0  0  0  0  0  0  0  0  0  0  0  0
   -4.7980   20.7670  -32.6160 S   0  0  0  0  0  0  0  0  0  0  0  0
   -4.1870   19.7920  -31.6470 O   0  0  0  0  0  0  0  0  0  0  0  0
   -3.7640   21.0830  -33.6610 O   0  0  0  0  0  0  0  0  0  0  0  0
   -6.1890   20.0190  -33.3730 N   0  0  0  0  0  0  0  0  0  0  0  0
   -5.8250   18.9380  -34.3200 C   0  0  0  0  0  0  0  0  0  0  0  0
   -6.4990   17.5930  -34.0150 C   0  0  0  0  0  0  0  0  0  0  0  0
   -6.4190   17.2970  -32.5230 C   0  0  0  0  0  0  0  0  0  0  0  0
   -7.1550   18.3660  -31.7050 C   0  0  0  0  0  0  0  0  0  0  0  0
   -7.2870   19.7240  -32.4290 C   0  0  0  0  0  0  0  0  0  0  0  0
   -6.5570   22.6210  -31.5930 C   0  0  0  0  0  0  0  0  0  0  0  0
   -6.8790   23.8160  -30.9470 C   0  0  0  0  0  0  0  0  0  0  0  0
   -5.8660   24.6470  -30.4500 C   0  0  0  0  0  0  0  0  0  0  0  0
   -6.1870   25.8550  -29.8330 O   0  0  0  0  0  0  0  0  0  0  0  0
   -2.5387   24.2837  -27.0214 H   0  0  0  0  0  0  0  0  0  0  0  0
   -4.0754   23.9377  -27.8796 H   0  0  0  0  0  0  0  0  0  0  0  0
   -3.7480   21.3344  -27.0691 H   0  0  0  0  0  0  0  0  0  0  0  0
   -2.6583   19.2445  -28.1854 H   0  0  0  0  0  0  0  0  0  0  0  0
   -0.8696   19.8721  -30.0183 H   0  0  0  0  0  0  0  0  0  0  0  0
   -3.1537   22.7440  -31.3100 H   0  0  0  0  0  0  0  0  0  0  0  0
   -6.1185   19.2510  -35.3328 H   0  0  0  0  0  0  0  0  0  0  0  0
   -4.7404   18.7812  -34.2251 H   0  0  0  0  0  0  0  0  0  0  0  0
   -7.5545   17.6366  -34.3217 H   0  0  0  0  0  0  0  0  0  0  0  0
   -5.9821   16.7960  -34.5696 H   0  0  0  0  0  0  0  0  0  0  0  0
   -6.8772   16.3164  -32.3267 H   0  0  0  0  0  0  0  0  0  0  0  0
   -5.3604   17.2973  -32.2241 H   0  0  0  0  0  0  0  0  0  0  0  0
   -8.1651   17.9944  -31.4779 H   0  0  0  0  0  0  0  0  0  0  0  0
   -6.5578   18.5431  -30.7984 H   0  0  0  0  0  0  0  0  0  0  0  0
   -8.2332   19.7248  -32.9900 H   0  0  0  0  0  0  0  0  0  0  0  0
   -7.2507   20.5007  -31.6509 H   0  0  0  0  0  0  0  0  0  0  0  0
   -7.3576   21.9737  -31.9805 H   0  0  0  0  0  0  0  0  0  0  0  0
   -7.9331   24.1067  -30.8275 H   0  0  0  0  0  0  0  0  0  0  0  0
   -5.5000   26.3780  -29.3020 H   0  0  0  0  0  0  0  0  0  0  0  0
  1  2  2  0
  2  3  1  0
  3  4  1  0
  4  5  2  0
  5  6  1  0
  6  7  2  0
  7  8  1  0
  2  9  1  0
  9 10  1  0
 10 11  2  0
 11 12  1  0
 12 13  1  0
 13 14  2  0
 13 15  2  0
 13 16  1  0
 16 17  1  0
 17 18  1  0
 18 19  1  0
 19 20  1  0
 20 21  1  0
 12 22  2  0
 22 23  1  0
 23 24  2  0
 24 25  1  0
  8  4  1  0
 24 10  1  0
 21 16  1  0
  3 26  1  0
  3 27  1  0
  5 28  1  0
  6 29  1  0
  7 30  1  0
 11 31  1  0
 17 32  1  0
 17 33  1  0
 18 34  1  0
 18 35  1  0
 19 36  1  0
 19 37  1  0
 20 38  1  0
 20 39  1  0
 21 40  1  0
 21 41  1  0
 22 42  1  0
 23 43  1  0
 25 44  1  0
M  CHG  1   9  -1
M  END
>  <UniqueID>  (22) 
20

>  <SMILES>  (22) 
O=C(Cc1cccs1)[N-]c1cc(S(=O)(=O)N2CCCCC2)ccc1O

>  <Energy>  (22) 
77.27266000532275

>  <Genealogy>  (22) 
O=C(Cc1cccs1)[N-]c1cc(S(=O)(=O)N2CCCCC2)ccc1O (protonated)
O=C(Cc1cccs1)[N-]c1cc(S(=O)(=O)N2CCCCC2)ccc1O (3D coordinates assigned)
O=C(Cc1cccs1)[N-]c1cc(S(=O)(=O)N2CCCCC2)ccc1O (nonaromatic ring conformer: 77.27266000532275 kcal/mol)

>  <smiles>  (22) 
O=C(Cc1cccs1)Nc1cc(S(=O)(=O)N2CCCCC2)ccc1O

>  <score_type>  (22) 
oracle

>  <origin>  (22) 
adgpu

>  <m_score__min__energy>  (22) 
-10.58

>  <m_primary>  (22) 
energy

$$$$
22:0
     RDKit          3D

 45 47  0  0  0  0  0  0  0  0999 V2000
   -8.7370   18.5750  -31.8780 C   0  0  0  0  0  0  0  0  0  0  0  0
   -9.1050   19.9500  -31.9420 O   0  0  0  0  0  0  0  0  0  0  0  0
   -8.1920   21.0150  -31.9380 C   0  0  0  0  0  0  0  0  0  0  0  0
   -8.5620   22.3250  -31.5770 C   0  0  0  0  0  0  0  0  0  0  0  0
   -7.6150   23.3540  -31.5880 C   0  0  0  0  0  0  0  0  0  0  0  0
   -6.2810   23.0860  -31.9430 C   0  0  0  0  0  0  0  0  0  0  0  0
   -5.2800   24.1140  -31.9810 N   0  0  0  0  0  0  0  0  0  0  0  0
   -5.0140   25.0880  -30.9630 C   0  0  0  0  0  0  0  0  0  0  0  0
   -5.9540   25.7440  -30.4450 O   0  0  0  0  0  0  0  0  0  0  0  0
   -3.6900   25.2490  -30.4440 N   0  0  0  0  0  0  0  0  0  0  0  0
   -3.0900   24.4640  -29.4030 C   0  0  0  0  0  0  0  0  0  0  0  0
   -3.6680   23.2620  -28.9720 C   0  0  0  0  0  0  0  0  0  0  0  0
   -3.0500   22.4990  -27.9840 C   0  0  0  0  0  0  0  0  0  0  0  0
   -1.8360   22.9090  -27.4130 C   0  0  0  0  0  0  0  0  0  0  0  0
   -1.2150   22.0440  -26.3470 C   0  0  0  0  0  0  0  0  0  0  0  0
   -1.2390   24.1250  -27.8380 C   0  0  0  0  0  0  0  0  0  0  0  0
    0.3030   24.6740  -27.1390 S   0  0  0  0  0  0  0  0  0  0  0  0
    0.7820   23.7510  -26.0550 O   0  0  0  0  0  0  0  0  0  0  0  0
    1.3470   24.7080  -28.2200 O   0  0  0  0  0  0  0  0  0  0  0  0
    0.0890   26.2590  -26.4700 N   0  0  0  0  0  0  0  0  0  0  0  0
    1.0100   27.3700  -26.6450 C   0  0  0  0  0  0  0  0  0  0  0  0
    0.3920   28.5390  -25.8360 C   0  0  0  0  0  0  0  0  0  0  0  0
   -0.8290   28.0240  -25.2210 N   0  0  0  0  0  0  0  0  0  0  0  0
   -0.9590   26.6810  -25.6320 C   0  0  0  0  0  0  0  0  0  0  0  0
   -1.9180   25.9440  -25.2790 O   0  0  0  0  0  0  0  0  0  0  0  0
   -1.8660   24.8780  -28.8580 C   0  0  0  0  0  0  0  0  0  0  0  0
   -1.2840   26.0450  -29.3400 O   0  0  0  0  0  0  0  0  0  0  0  0
   -5.9220   21.7880  -32.3240 C   0  0  0  0  0  0  0  0  0  0  0  0
   -6.8690   20.7590  -32.3160 C   0  0  0  0  0  0  0  0  0  0  0  0
   -8.6543   18.2662  -30.8255 H   0  0  0  0  0  0  0  0  0  0  0  0
   -9.5039   17.9665  -32.3796 H   0  0  0  0  0  0  0  0  0  0  0  0
   -7.7687   18.4309  -32.3796 H   0  0  0  0  0  0  0  0  0  0  0  0
   -9.6006   22.5398  -31.2851 H   0  0  0  0  0  0  0  0  0  0  0  0
   -7.9149   24.3773  -31.3178 H   0  0  0  0  0  0  0  0  0  0  0  0
   -4.6143   22.9196  -29.4162 H   0  0  0  0  0  0  0  0  0  0  0  0
   -3.5198   21.5631  -27.6472 H   0  0  0  0  0  0  0  0  0  0  0  0
   -1.4918   22.4295  -25.3547 H   0  0  0  0  0  0  0  0  0  0  0  0
   -1.5795   21.0117  -26.4541 H   0  0  0  0  0  0  0  0  0  0  0  0
   -0.1203   22.0593  -26.4541 H   0  0  0  0  0  0  0  0  0  0  0  0
    2.0048   27.1123  -26.2525 H   0  0  0  0  0  0  0  0  0  0  0  0
    1.1457   27.6294  -27.7053 H   0  0  0  0  0  0  0  0  0  0  0  0
    1.0946   28.8760  -25.0596 H   0  0  0  0  0  0  0  0  0  0  0  0
    0.1752   29.3993  -26.4863 H   0  0  0  0  0  0  0  0  0  0  0  0
   -4.8875   21.5757  -32.6319 H   0  0  0  0  0  0  0  0  0  0  0  0
   -6.5719   19.7412  -32.6089 H   0  0  0  0  0  0  0  0  0  0  0  0
  1  2  1  0
  2  3  1  0
  3  4  2  0
  4  5  1  0
  5  6  2  0
  6  7  1  0
  7  8  1  0
  8  9  2  0
  8 10  1  0
 10 11  1  0
 11 12  2  0
 12 13  1  0
 13 14  2  0
 14 15  1  0
 14 16  1  0
 16 17  1  0
 17 18  2  0
 17 19  2  0
 17 20  1  0
 20 21  1  0
 21 22  1  0
 22 23  1  0
 23 24  1  0
 24 25  2  0
 16 26  2  0
 26 27  1  0
  6 28  1  0
 28 29  2  0
 29  3  1  0
 26 11  1  0
 24 20  1  0
  1 30  1  0
  1 31  1  0
  1 32  1  0
  4 33  1  0
  5 34  1  0
 12 35  1  0
 13 36  1  0
 15 37  1  0
 15 38  1  0
 15 39  1  0
 21 40  1  0
 21 41  1  0
 22 42  1  0
 22 43  1  0
 28 44  1  0
 29 45  1  0
M  CHG  4   7  -1  10  -1  23  -1  27  -1
M  END
>  <UniqueID>  (23) 
21

>  <SMILES>  (23) 
COc1ccc([N-]C(=O)[N-]c2ccc(C)c(S(=O)(=O)N3CC[N-]C3=O)c2[O-])cc1

>  <Energy>  (23) 
71.3982701450165

>  <Genealogy>  (23) 
COc1ccc([N-]C(=O)[N-]c2ccc(C)c(S(=O)(=O)N3CC[N-]C3=O)c2[O-])cc1 (protonated)
COc1ccc([N-]C(=O)[N-]c2ccc(C)c(S(=O)(=O)N3CC[N-]C3=O)c2[O-])cc1 (3D coordinates assigned)
COc1ccc([N-]C(=O)[N-]c2ccc(C)c(S(=O)(=O)N3CC[N-]C3=O)c2[O-])cc1 (nonaromatic ring conformer: 71.3982701450165 kcal/mol)

>  <smiles>  (23) 
COc1ccc(NC(=O)Nc2ccc(C)c(S(=O)(=O)N3CCNC3=O)c2O)cc1

>  <score_type>  (23) 
oracle

>  <origin>  (23) 
adgpu

>  <m_score__min__energy>  (23) 
-14.65

>  <m_primary>  (23) 
energy

$$$$
23:0
     RDKit          3D

 72 75  0  0  0  0  0  0  0  0999 V2000
   -3.6985   18.0121  -32.9314 H   0  0  0  0  0  0  0  0  0  0  0  0
   -3.5820   17.9930  -34.0250 C   0  0  0  0  0  0  0  0  0  0  0  0
   -2.5560   18.5630  -34.5790 N   0  0  0  0  0  0  0  0  0  0  0  0
   -1.5360   19.2700  -33.8620 C   0  0  0  0  0  0  0  0  0  0  0  0
   -0.3370   19.1140  -34.2080 O   0  0  0  0  0  0  0  0  0  0  0  0
   -1.8360   20.1650  -32.7240 C   0  0  0  0  0  0  0  0  0  0  0  0
   -2.9770   20.9290  -32.5000 C   0  0  0  0  0  0  0  0  0  0  0  0
   -4.1890   21.0350  -33.3800 C   0  0  0  0  0  0  0  0  0  0  0  0
   -5.0905   21.1138  -32.7546 H   0  0  0  0  0  0  0  0  0  0  0  0
   -4.1040   21.9291  -34.0151 H   0  0  0  0  0  0  0  0  0  0  0  0
   -4.2605   20.1397  -34.0151 H   0  0  0  0  0  0  0  0  0  0  0  0
   -2.7740   21.5730  -31.2850 C   0  0  0  0  0  0  0  0  0  0  0  0
   -3.7490   22.4610  -30.5610 C   0  0  0  0  0  0  0  0  0  0  0  0
   -4.2635   23.1020  -31.2920 H   0  0  0  0  0  0  0  0  0  0  0  0
   -4.4732   21.8267  -30.0288 H   0  0  0  0  0  0  0  0  0  0  0  0
   -3.0380   23.3340  -29.5510 C   0  0  0  0  0  0  0  0  0  0  0  0
   -2.9630   24.7290  -29.7350 C   0  0  0  0  0  0  0  0  0  0  0  0
   -3.5440   25.3310  -30.8430 O   0  0  0  0  0  0  0  0  0  0  0  0
   -2.3130   25.5050  -28.8280 N   0  0  0  0  0  0  0  0  0  0  0  0
   -1.7180   24.9840  -27.7240 C   0  0  0  0  0  0  0  0  0  0  0  0
   -1.0460   25.8290  -26.8340 C   0  0  0  0  0  0  0  0  0  0  0  0
   -1.0196   26.9122  -27.0238 H   0  0  0  0  0  0  0  0  0  0  0  0
   -0.4050   25.3040  -25.7000 C   0  0  0  0  0  0  0  0  0  0  0  0
    0.3330   26.1860  -24.7690 C   0  0  0  0  0  0  0  0  0  0  0  0
   -0.0520   26.2710  -23.5720 O   0  0  0  0  0  0  0  0  0  0  0  0
    1.4900   26.9380  -25.1940 N   0  0  0  0  0  0  0  0  0  0  0  0
    2.3920   26.4190  -26.2320 C   0  0  0  0  0  0  0  0  0  0  0  0
    2.2733   25.3281  -26.3077 H   0  0  0  0  0  0  0  0  0  0  0  0
    2.1438   26.8850  -27.1970 H   0  0  0  0  0  0  0  0  0  0  0  0
    3.8450   26.7500  -25.8660 C   0  0  0  0  0  0  0  0  0  0  0  0
    4.1035   26.2149  -24.9403 H   0  0  0  0  0  0  0  0  0  0  0  0
    4.4755   26.4382  -26.7117 H   0  0  0  0  0  0  0  0  0  0  0  0
    4.0760   28.2020  -25.6530 N   0  0  0  0  0  0  0  0  0  0  0  0
    4.7470   28.8110  -26.8130 C   0  0  0  0  0  0  0  0  0  0  0  0
    5.5193   29.5120  -26.4635 H   0  0  0  0  0  0  0  0  0  0  0  0
    5.2152   28.0230  -27.4212 H   0  0  0  0  0  0  0  0  0  0  0  0
    4.0079   29.3531  -27.4212 H   0  0  0  0  0  0  0  0  0  0  0  0
    2.8640   28.9780  -25.2960 C   0  0  0  0  0  0  0  0  0  0  0  0
    3.1674   29.8585  -24.7107 H   0  0  0  0  0  0  0  0  0  0  0  0
    2.3638   29.2702  -26.2311 H   0  0  0  0  0  0  0  0  0  0  0  0
    1.8690   28.1550  -24.4690 C   0  0  0  0  0  0  0  0  0  0  0  0
    2.3347   27.8772  -23.5119 H   0  0  0  0  0  0  0  0  0  0  0  0
    0.9679   28.7592  -24.2878 H   0  0  0  0  0  0  0  0  0  0  0  0
   -0.4840   23.9250  -25.4440 C   0  0  0  0  0  0  0  0  0  0  0  0
   -0.0117   23.5101  -24.5413 H   0  0  0  0  0  0  0  0  0  0  0  0
   -1.1580   23.0750  -26.3270 C   0  0  0  0  0  0  0  0  0  0  0  0
   -1.2053   21.9956  -26.1206 H   0  0  0  0  0  0  0  0  0  0  0  0
   -1.7760   23.5970  -27.4790 C   0  0  0  0  0  0  0  0  0  0  0  0
   -2.4500   22.7710  -28.3990 C   0  0  0  0  0  0  0  0  0  0  0  0
   -2.5270   21.5290  -28.1950 O   0  0  0  0  0  0  0  0  0  0  0  0
   -1.5600   21.2550  -30.7930 N   0  0  0  0  0  0  0  0  0  0  0  0
   -1.1450   21.5850  -29.8930 H   0  0  0  0  0  0  0  0  0  0  0  0
   -0.9810   20.4120  -31.6670 C   0  0  0  0  0  0  0  0  0  0  0  0
    0.0255   19.9823  -31.5564 H   0  0  0  0  0  0  0  0  0  0  0  0
   -4.6060   17.3100  -34.8750 C   0  0  0  0  0  0  0  0  0  0  0  0
   -4.1784   16.3807  -35.2794 H   0  0  0  0  0  0  0  0  0  0  0  0
   -4.8936   17.9851  -35.6945 H   0  0  0  0  0  0  0  0  0  0  0  0
   -5.8110   16.9850  -34.0800 N   0  0  0  0  0  0  0  0  0  0  0  0
   -6.0010   15.5570  -33.7170 C   0  0  0  0  0  0  0  0  0  0  0  0
   -6.1424   15.4978  -32.6277 H   0  0  0  0  0  0  0  0  0  0  0  0
   -5.1036   15.0281  -34.0705 H   0  0  0  0  0  0  0  0  0  0  0  0
   -7.1980   14.8690  -34.3910 C   0  0  0  0  0  0  0  0  0  0  0  0
   -7.8781   14.4781  -33.6199 H   0  0  0  0  0  0  0  0  0  0  0  0
   -7.7340   15.5968  -35.0178 H   0  0  0  0  0  0  0  0  0  0  0  0
   -6.8389   14.0395  -35.0178 H   0  0  0  0  0  0  0  0  0  0  0  0
   -6.0970   17.9490  -32.9940 C   0  0  0  0  0  0  0  0  0  0  0  0
   -5.6048   17.5942  -32.0765 H   0  0  0  0  0  0  0  0  0  0  0  0
   -5.7161   18.9267  -33.3242 H   0  0  0  0  0  0  0  0  0  0  0  0
   -7.5890   18.1260  -32.7040 C   0  0  0  0  0  0  0  0  0  0  0  0
   -7.7513   18.1453  -31.6162 H   0  0  0  0  0  0  0  0  0  0  0  0
   -7.9383   19.0719  -33.1437 H   0  0  0  0  0  0  0  0  0  0  0  0
   -8.1499   17.2881  -33.1437 H   0  0  0  0  0  0  0  0  0  0  0  0
  1  2  1  0
  2  3  2  0
  3  4  1  0
  4  5  2  0
  4  6  1  0
  6  7  1  0
  7  8  1  0
  8  9  1  0
  8 10  1  0
  8 11  1  0
  7 12  2  0
 12 13  1  0
 13 14  1  0
 13 15  1  0
 13 16  1  0
 16 17  2  0
 17 18  1  0
 17 19  1  0
 19 20  1  0
 20 21  2  0
 21 22  1  0
 21 23  1  0
 23 24  1  0
 24 25  2  0
 24 26  1  0
 26 27  1  0
 27 28  1  0
 27 29  1  0
 27 30  1  0
 30 31  1  0
 30 32  1  0
 30 33  1  0
 33 34  1  0
 34 35  1  0
 34 36  1  0
 34 37  1  0
 33 38  1  0
 38 39  1  0
 38 40  1  0
 38 41  1  0
 41 42  1  0
 41 43  1  0
 23 44  2  0
 44 45  1  0
 44 46  1  0
 46 47  1  0
 46 48  2  0
 48 49  1  0
 49 50  2  0
 12 51  1  0
 51 52  1  0
 51 53  1  0
 53 54  1  0
  2 55  1  0
 55 56  1  0
 55 57  1  0
 55 58  1  0
 58 59  1  0
 59 60  1  0
 59 61  1  0
 59 62  1  0
 62 63  1  0
 62 64  1  0
 62 65  1  0
 58 66  1  0
 66 67  1  0
 66 68  1  0
 66 69  1  0
 69 70  1  0
 69 71  1  0
 69 72  1  0
 53  6  2  0
 49 16  1  0
 48 20  1  0
 41 26  1  0
M  CHG  2  18  -1  19  -1
M  END
>  <UniqueID>  (24) 
22

>  <SMILES>  (24) 
CCN(CC)C/C=N/C(=O)c1c[nH]c(Cc2c([O-])[n-]c3cc(C(=O)N4CCN(C)CC4)ccc3c2=O)c1C

>  <Energy>  (24) 
124.19536423306847

>  <Genealogy>  (24) 
CCN(CC)CC=NC(=O)c1c[nH]c(Cc2c([O-])[n-]c3cc(C(=O)N4CCN(C)CC4)ccc3c2=O)c1C (protonated)
CCN(CC)C/C=N/C(=O)c1c[nH]c(Cc2c([O-])[n-]c3cc(C(=O)N4CCN(C)CC4)ccc3c2=O)c1C (cis-trans isomerization)
CCN(CC)C/C=N/C(=O)c1c[nH]c(Cc2c([O-])[n-]c3cc(C(=O)N4CCN(C)CC4)ccc3c2=O)c1C (3D coordinates assigned)
CCN(CC)C/C=N/C(=O)c1c[nH]c(Cc2c([O-])[n-]c3cc(C(=O)N4CCN(C)CC4)ccc3c2=O)c1C (nonaromatic ring conformer: 124.19536423306847 kcal/mol)

>  <smiles>  (24) 
CCN(CC)CC=NC(=O)c1c[nH]c(Cc2c(O)[nH]c3cc(C(=O)N4CCN(C)CC4)ccc3c2=O)c1C

>  <score_type>  (24) 
oracle

>  <origin>  (24) 
adgpu

>  <m_score__min__energy>  (24) 
-12.73

>  <m_primary>  (24) 
energy

$$$$
24:0
     RDKit          3D

 46 48  0  0  0  0  0  0  0  0999 V2000
   -9.0524   24.4297  -32.0061 H   0  0  0  0  0  0  0  0  0  0  0  0
   -8.6370   23.4120  -32.0470 C   0  0  0  0  0  0  0  0  0  0  0  0
   -9.4880   22.3090  -31.9890 C   0  0  0  0  0  0  0  0  0  0  0  0
  -10.5739   22.4580  -31.8965 H   0  0  0  0  0  0  0  0  0  0  0  0
   -8.9650   21.0160  -32.0480 C   0  0  0  0  0  0  0  0  0  0  0  0
   -9.6428   20.1510  -31.9993 H   0  0  0  0  0  0  0  0  0  0  0  0
   -7.5810   20.8100  -32.1690 C   0  0  0  0  0  0  0  0  0  0  0  0
   -6.9810   19.1460  -32.2740 S   0  0  0  0  0  0  0  0  0  0  0  0
   -5.9510   18.8420  -31.2240 O   0  0  0  0  0  0  0  0  0  0  0  0
   -8.1470   18.2190  -32.0730 O   0  0  0  0  0  0  0  0  0  0  0  0
   -6.3120   18.8330  -33.8450 N   0  0  0  0  0  0  0  0  0  0  0  0
   -5.5290   17.8680  -34.2380 C   0  0  0  0  0  0  0  0  0  0  0  0
   -5.0970   17.8030  -35.4770 O   0  0  0  0  0  0  0  0  0  0  0  0
   -4.3380   16.7640  -35.6460 N   0  0  0  0  0  0  0  0  0  0  0  0
   -3.8830   16.4990  -36.5470 H   0  0  0  0  0  0  0  0  0  0  0  0
   -4.2590   16.1050  -34.4770 C   0  0  0  0  0  0  0  0  0  0  0  0
   -3.4950   14.8330  -34.2840 C   0  0  0  0  0  0  0  0  0  0  0  0
   -3.3767   14.6360  -33.2083 H   0  0  0  0  0  0  0  0  0  0  0  0
   -4.0433   14.0015  -34.7509 H   0  0  0  0  0  0  0  0  0  0  0  0
   -2.5034   14.9264  -34.7509 H   0  0  0  0  0  0  0  0  0  0  0  0
   -5.0080   16.7820  -33.5230 C   0  0  0  0  0  0  0  0  0  0  0  0
   -5.2400   16.3230  -32.1130 C   0  0  0  0  0  0  0  0  0  0  0  0
   -4.8572   17.0804  -31.4132 H   0  0  0  0  0  0  0  0  0  0  0  0
   -6.3180   16.1812  -31.9462 H   0  0  0  0  0  0  0  0  0  0  0  0
   -4.7149   15.3709  -31.9462 H   0  0  0  0  0  0  0  0  0  0  0  0
   -6.7170   21.9310  -32.2050 C   0  0  0  0  0  0  0  0  0  0  0  0
   -5.2500   21.7860  -32.3090 C   0  0  0  0  0  0  0  0  0  0  0  0
   -4.7350   20.9300  -33.2950 C   0  0  0  0  0  0  0  0  0  0  0  0
   -5.4221   20.4033  -33.9736 H   0  0  0  0  0  0  0  0  0  0  0  0
   -3.3580   20.7420  -33.4210 C   0  0  0  0  0  0  0  0  0  0  0  0
   -2.9641   20.0646  -34.1930 H   0  0  0  0  0  0  0  0  0  0  0  0
   -2.4800   21.4130  -32.5680 C   0  0  0  0  0  0  0  0  0  0  0  0
   -0.7490   21.1750  -32.7290 Cl  0  0  0  0  0  0  0  0  0  0  0  0
   -2.9770   22.2800  -31.5920 C   0  0  0  0  0  0  0  0  0  0  0  0
   -2.2790   22.8109  -30.9279 H   0  0  0  0  0  0  0  0  0  0  0  0
   -4.3610   22.4800  -31.4510 C   0  0  0  0  0  0  0  0  0  0  0  0
   -4.8430   23.4640  -30.4050 C   0  0  0  0  0  0  0  0  0  0  0  0
   -4.3013   23.2843  -29.4647 H   0  0  0  0  0  0  0  0  0  0  0  0
   -5.9238   23.3207  -30.2590 H   0  0  0  0  0  0  0  0  0  0  0  0
   -4.6160   24.7960  -30.8230 O   0  0  0  0  0  0  0  0  0  0  0  0
   -5.6910   25.6200  -30.4290 C   0  0  0  0  0  0  0  0  0  0  0  0
   -5.7405   25.6580  -29.3308 H   0  0  0  0  0  0  0  0  0  0  0  0
   -5.5390   26.6351  -30.8245 H   0  0  0  0  0  0  0  0  0  0  0  0
   -6.6318   25.2095  -30.8245 H   0  0  0  0  0  0  0  0  0  0  0  0
   -7.2580   23.2250  -32.1570 C   0  0  0  0  0  0  0  0  0  0  0  0
   -6.5907   24.0981  -32.2064 H   0  0  0  0  0  0  0  0  0  0  0  0
  1  2  1  0
  2  3  2  0
  3  4  1  0
  3  5  1  0
  5  6  1  0
  5  7  2  0
  7  8  1  0
  8  9  2  0
  8 10  2  0
  8 11  1  0
 11 12  2  0
 12 13  1  0
 13 14  1  0
 14 15  1  0
 14 16  1  0
 16 17  1  0
 17 18  1  0
 17 19  1  0
 17 20  1  0
 16 21  2  0
 21 22  1  0
 22 23  1  0
 22 24  1  0
 22 25  1  0
  7 26  1  0
 26 27  1  0
 27 28  2  0
 28 29  1  0
 28 30  1  0
 30 31  1  0
 30 32  2  0
 32 33  1  0
 32 34  1  0
 34 35  1  0
 34 36  2  0
 36 37  1  0
 37 38  1  0
 37 39  1  0
 37 40  1  0
 40 41  1  0
 41 42  1  0
 41 43  1  0
 41 44  1  0
 26 45  2  0
 45 46  1  0
 45  2  1  0
 21 12  1  0
 36 27  1  0
M  END
>  <UniqueID>  (25) 
23

>  <SMILES>  (25) 
COCc1cc(Cl)ccc1-c1ccccc1S(=O)(=O)/N=c1/o[nH]c(C)c1C

>  <Energy>  (25) 
97.66103509832676

>  <Genealogy>  (25) 
COCc1cc(Cl)ccc1-c1ccccc1S(=O)(=O)/N=c1/o[nH]c(C)c1C (cis-trans isomerization)
COCc1cc(Cl)ccc1-c1ccccc1S(=O)(=O)/N=c1/o[nH]c(C)c1C (3D coordinates assigned)
COCc1cc(Cl)ccc1-c1ccccc1S(=O)(=O)/N=c1/o[nH]c(C)c1C (optimized conformer: 97.66103509832676 kcal/mol)

>  <smiles>  (25) 
COCc1cc(Cl)ccc1-c1ccccc1S(=O)(=O)N=c1o[nH]c(C)c1C

>  <score_type>  (25) 
oracle

>  <origin>  (25) 
adgpu

>  <m_score__min__energy>  (25) 
-9.9000000000000004

>  <m_primary>  (25) 
energy

$$$$
25:0
     RDKit          3D

 44 46  0  0  0  0  0  0  0  0999 V2000
   -8.0030   20.1670  -32.8770 C   0  0  0  0  0  0  0  0  0  0  0  0
   -7.3120   21.3200  -32.1960 C   0  0  0  0  0  0  0  0  0  0  0  0
   -6.0650   21.7580  -32.6760 C   0  0  0  0  0  0  0  0  0  0  0  0
   -5.4040   22.8270  -32.0690 C   0  0  0  0  0  0  0  0  0  0  0  0
   -5.9800   23.4810  -30.9720 C   0  0  0  0  0  0  0  0  0  0  0  0
   -5.1650   24.8530  -30.2260 S   0  0  0  0  0  0  0  0  0  0  0  0
   -5.4570   24.8940  -28.7500 O   0  0  0  0  0  0  0  0  0  0  0  0
   -5.6850   26.1230  -30.8420 O   0  0  0  0  0  0  0  0  0  0  0  0
   -3.4510   24.7760  -30.4630 N   0  0  0  0  0  0  0  0  0  0  0  0
   -2.5500   24.3070  -29.4560 C   0  0  0  0  0  0  0  0  0  0  0  0
   -2.1850   25.1600  -28.4030 C   0  0  0  0  0  0  0  0  0  0  0  0
   -1.2760   24.7390  -27.4310 C   0  0  0  0  0  0  0  0  0  0  0  0
   -0.7250   23.4610  -27.4990 C   0  0  0  0  0  0  0  0  0  0  0  0
   -1.0920   22.5930  -28.5290 C   0  0  0  0  0  0  0  0  0  0  0  0
   -2.0200   22.9910  -29.5110 C   0  0  0  0  0  0  0  0  0  0  0  0
   -2.3710   22.0260  -30.5850 C   0  0  0  0  0  0  0  0  0  0  0  0
   -1.7180   21.9760  -31.7720 N   0  0  0  0  0  0  0  0  0  0  0  0
   -2.1820   20.9880  -32.5850 C   0  0  0  0  0  0  0  0  0  0  0  0
   -1.6220   20.7810  -33.9580 C   0  0  0  0  0  0  0  0  0  0  0  0
   -3.2360   20.2440  -32.0550 C   0  0  0  0  0  0  0  0  0  0  0  0
   -3.9270   19.0840  -32.6970 C   0  0  0  0  0  0  0  0  0  0  0  0
   -3.5550   20.8210  -30.5080 S   0  0  0  0  0  0  0  0  0  0  0  0
   -7.2250   23.0580  -30.4880 C   0  0  0  0  0  0  0  0  0  0  0  0
   -7.9000   21.9800  -31.0890 C   0  0  0  0  0  0  0  0  0  0  0  0
   -9.2350   21.5460  -30.5380 C   0  0  0  0  0  0  0  0  0  0  0  0
   -8.4121   19.4844  -32.1176 H   0  0  0  0  0  0  0  0  0  0  0  0
   -8.8211   20.5491  -33.5053 H   0  0  0  0  0  0  0  0  0  0  0  0
   -7.2803   19.6258  -33.5053 H   0  0  0  0  0  0  0  0  0  0  0  0
   -5.6058   21.2530  -33.5386 H   0  0  0  0  0  0  0  0  0  0  0  0
   -4.4276   23.1571  -32.4532 H   0  0  0  0  0  0  0  0  0  0  0  0
   -2.6190   26.1690  -28.3432 H   0  0  0  0  0  0  0  0  0  0  0  0
   -0.9946   25.4163  -26.6112 H   0  0  0  0  0  0  0  0  0  0  0  0
    0.0008   23.1353  -26.7394 H   0  0  0  0  0  0  0  0  0  0  0  0
   -0.6512   21.5862  -28.5742 H   0  0  0  0  0  0  0  0  0  0  0  0
   -0.5928   20.4006  -33.8807 H   0  0  0  0  0  0  0  0  0  0  0  0
   -2.2423   20.0527  -34.5010 H   0  0  0  0  0  0  0  0  0  0  0  0
   -1.6195   21.7376  -34.5010 H   0  0  0  0  0  0  0  0  0  0  0  0
   -4.3244   18.4169  -31.9178 H   0  0  0  0  0  0  0  0  0  0  0  0
   -4.7541   19.4505  -33.3228 H   0  0  0  0  0  0  0  0  0  0  0  0
   -3.2109   18.5312  -33.3228 H   0  0  0  0  0  0  0  0  0  0  0  0
   -7.6792   23.5741  -29.6293 H   0  0  0  0  0  0  0  0  0  0  0  0
   -9.1992   21.5576  -29.4386 H   0  0  0  0  0  0  0  0  0  0  0  0
  -10.0175   22.2360  -30.8867 H   0  0  0  0  0  0  0  0  0  0  0  0
   -9.4621   20.5278  -30.8867 H   0  0  0  0  0  0  0  0  0  0  0  0
  1  2  1  0
  2  3  2  0
  3  4  1  0
  4  5  2  0
  5  6  1  0
  6  7  2  0
  6  8  2  0
  6  9  1  0
  9 10  1  0
 10 11  2  0
 11 12  1  0
 12 13  2  0
 13 14  1  0
 14 15  2  0
 15 16  1  0
 16 17  2  0
 17 18  1  0
 18 19  1  0
 18 20  2  0
 20 21  1  0
 20 22  1  0
  5 23  1  0
 23 24  2  0
 24 25  1  0
 24  2  1  0
 15 10  1  0
 22 16  1  0
  1 26  1  0
  1 27  1  0
  1 28  1  0
  3 29  1  0
  4 30  1  0
 11 31  1  0
 12 32  1  0
 13 33  1  0
 14 34  1  0
 19 35  1  0
 19 36  1  0
 19 37  1  0
 21 38  1  0
 21 39  1  0
 21 40  1  0
 23 41  1  0
 25 42  1  0
 25 43  1  0
 25 44  1  0
M  CHG  1   9  -1
M  END
>  <UniqueID>  (26) 
24

>  <SMILES>  (26) 
Cc1ccc(S(=O)(=O)[N-]c2ccccc2-c2nc(C)c(C)s2)cc1C

>  <Energy>  (26) 
85.68062364889555

>  <Genealogy>  (26) 
Cc1ccc(S(=O)(=O)[N-]c2ccccc2-c2nc(C)c(C)s2)cc1C (protonated)
Cc1ccc(S(=O)(=O)[N-]c2ccccc2-c2nc(C)c(C)s2)cc1C (3D coordinates assigned)
Cc1ccc(S(=O)(=O)[N-]c2ccccc2-c2nc(C)c(C)s2)cc1C (optimized conformer: 85.68062364889555 kcal/mol)

>  <smiles>  (26) 
Cc1ccc(S(=O)(=O)Nc2ccccc2-c2nc(C)c(C)s2)cc1C

>  <score_type>  (26) 
oracle

>  <origin>  (26) 
adgpu

>  <m_score__min__energy>  (26) 
-9.9299999999999997

>  <m_primary>  (26) 
energy

$$$$
26:0
     RDKit          3D

 57 60  0  0  1  0  0  0  0  0999 V2000
   -9.0980   18.1870  -31.5850 C   0  0  0  0  0  0  0  0  0  0  0  0
   -8.7370   18.8200  -32.8240 N   0  0  0  0  0  0  0  0  0  0  0  0
   -7.1390   19.4760  -32.8100 S   0  0  0  0  0  0  0  0  0  0  0  0
   -6.4820   19.2780  -34.1320 O   0  0  0  0  0  0  0  0  0  0  0  0
   -6.3240   18.6960  -31.7860 O   0  0  0  0  0  0  0  0  0  0  0  0
   -7.1300   21.1220  -32.2840 C   0  0  0  0  0  0  0  0  0  0  0  0
   -8.3450   21.7510  -32.0400 C   0  0  0  0  0  0  0  0  0  0  0  0
   -8.4050   23.0670  -31.6170 C   0  0  0  0  0  0  0  0  0  0  0  0
   -7.2460   23.7950  -31.4270 C   0  0  0  0  0  0  0  0  0  0  0  0
   -6.0340   23.1840  -31.6650 C   0  0  0  0  0  0  0  0  0  0  0  0
   -4.7830   23.8600  -31.4940 N   0  0  0  0  0  0  0  0  0  0  0  0
   -4.2820   23.9550  -30.3010 C   0  0  0  0  0  0  0  0  0  0  0  0
   -3.1130   24.5710  -30.0440 N   0  0  0  0  0  0  0  0  0  0  0  0
   -2.6040   24.6600  -28.7980 C   0  0  0  0  0  0  0  0  0  0  0  0
   -1.3700   25.3080  -28.5070 N   0  0  0  0  0  0  0  0  0  0  0  0
   -0.3730   24.5450  -28.1490 C   0  0  0  0  0  0  0  0  0  0  0  0
   -0.5010   23.1750  -28.0520 C   0  0  0  0  0  0  0  0  0  0  0  0
    0.5390   22.3630  -27.6750 C   0  0  0  0  0  0  0  0  0  0  0  0
    0.4150   20.9700  -27.5790 N   0  0  0  0  0  0  0  0  0  0  0  0
    1.4310   20.0190  -27.9750 C   0  0  0  0  0  0  0  0  0  0  0  0
    0.7410   18.6480  -27.9640 C   0  0  0  0  0  0  0  0  0  0  0  0
   -0.5000   18.6910  -28.7000 N   0  0  0  0  0  0  0  0  0  0  0  0
   -1.4490   19.6380  -28.2070 C   0  0  0  0  0  0  0  0  0  0  0  0
   -0.8290   20.4060  -27.0410 C   0  0  0  0  0  0  0  0  0  0  0  0
    1.7220   22.9370  -27.3900 N   0  0  0  0  0  0  0  0  0  0  0  0
    1.8520   24.2730  -27.4810 C   0  0  0  0  0  0  0  0  0  0  0  0
    3.1700   24.8820  -27.1610 C   0  0  0  0  0  0  0  0  0  0  0  0
    0.8340   25.0700  -27.8510 N   0  0  0  0  0  0  0  0  0  0  0  0
   -3.2920   24.1040  -27.7270 C   0  0  0  0  0  0  0  0  0  0  0  0
   -4.4890   23.4750  -28.0040 C   0  0  0  0  0  0  0  0  0  0  0  0
   -4.9580   23.4110  -29.2650 N   0  0  0  0  0  0  0  0  0  0  0  0
   -5.9730   21.8660  -32.0870 C   0  0  0  0  0  0  0  0  0  0  0  0
   -8.7472   18.8021  -30.7432 H   0  0  0  0  0  0  0  0  0  0  0  0
  -10.1917   18.0822  -31.5318 H   0  0  0  0  0  0  0  0  0  0  0  0
   -8.6313   17.1923  -31.5318 H   0  0  0  0  0  0  0  0  0  0  0  0
   -8.8560   18.2000  -33.6550 H   0  0  0  0  0  0  0  0  0  0  0  0
   -9.2798   21.1901  -32.1864 H   0  0  0  0  0  0  0  0  0  0  0  0
   -9.3820   23.5369  -31.4307 H   0  0  0  0  0  0  0  0  0  0  0  0
   -7.2900   24.8419  -31.0923 H   0  0  0  0  0  0  0  0  0  0  0  0
   -1.4731   22.7162  -28.2856 H   0  0  0  0  0  0  0  0  0  0  0  0
    1.8037   20.2530  -28.9831 H   0  0  0  0  0  0  0  0  0  0  0  0
    2.2973   20.0437  -27.2976 H   0  0  0  0  0  0  0  0  0  0  0  0
    1.4081   17.9051  -28.4256 H   0  0  0  0  0  0  0  0  0  0  0  0
    0.5226   18.3724  -26.9217 H   0  0  0  0  0  0  0  0  0  0  0  0
   -0.8320   17.7280  -28.8260 H   0  0  0  0  0  0  0  0  0  0  0  0
   -1.7189   20.3408  -29.0090 H   0  0  0  0  0  0  0  0  0  0  0  0
   -2.3535   19.1131  -27.8660 H   0  0  0  0  0  0  0  0  0  0  0  0
   -1.5029   21.2072  -26.7033 H   0  0  0  0  0  0  0  0  0  0  0  0
   -0.6478   19.7600  -26.1693 H   0  0  0  0  0  0  0  0  0  0  0  0
    2.5520   22.3780  -27.0980 H   0  0  0  0  0  0  0  0  0  0  0  0
    3.2924   24.9386  -26.0693 H   0  0  0  0  0  0  0  0  0  0  0  0
    3.9731   24.2637  -27.5885 H   0  0  0  0  0  0  0  0  0  0  0  0
    3.2196   25.8943  -27.5885 H   0  0  0  0  0  0  0  0  0  0  0  0
   -2.8993   24.1625  -26.7011 H   0  0  0  0  0  0  0  0  0  0  0  0
   -5.0666   23.0207  -27.1854 H   0  0  0  0  0  0  0  0  0  0  0  0
   -5.8610   22.9270  -29.4160 H   0  0  0  0  0  0  0  0  0  0  0  0
   -4.9929   21.4009  -32.2691 H   0  0  0  0  0  0  0  0  0  0  0  0
  1  2  1  0
  2  3  1  0
  3  4  2  0
  3  5  2  0
  3  6  1  0
  6  7  2  0
  7  8  1  0
  8  9  2  0
  9 10  1  0
 10 11  1  0
 11 12  2  0
 12 13  1  0
 13 14  2  0
 14 15  1  0
 15 16  2  0
 16 17  1  0
 17 18  2  0
 18 19  1  0
 19 20  1  0
 20 21  1  0
 21 22  1  0
 22 23  1  0
 23 24  1  0
 18 25  1  0
 25 26  1  0
 26 27  1  0
 26 28  2  0
 14 29  1  0
 29 30  2  0
 30 31  1  0
 10 32  2  0
 32  6  1  0
 31 12  1  0
 28 16  1  0
 24 19  1  0
  1 33  1  0
  1 34  1  0
  1 35  1  0
  2 36  1  0
  7 37  1  0
  8 38  1  0
  9 39  1  0
 17 40  1  0
 20 41  1  0
 20 42  1  0
 21 43  1  0
 21 44  1  0
 22 45  1  0
 23 46  1  0
 23 47  1  0
 24 48  1  0
 24 49  1  0
 25 50  1  0
 27 51  1  0
 27 52  1  0
 27 53  1  0
 29 54  1  0
 30 55  1  0
 31 56  1  0
 32 57  1  0
M  END
>  <smiles>  (27) 
CNS(=O)(=O)c1cccc(N=c2nc(N=c3cc(N4CCNCC4)[nH]c(C)n3)cc[nH]2)c1

>  <score_type>  (27) 
oracle

>  <origin>  (27) 
adgpu

>  <m_score__min__energy>  (27) 
-10.26

>  <m_primary>  (27) 
energy

$$$$
27:0
     RDKit          3D

 43 45  0  0  0  0  0  0  0  0999 V2000
   -3.4160   16.0460  -33.9940 C   0  0  0  0  0  0  0  0  0  0  0  0
   -4.5710   16.8130  -34.5640 C   0  0  0  0  0  0  0  0  0  0  0  0
   -4.4190   17.4210  -35.6560 O   0  0  0  0  0  0  0  0  0  0  0  0
   -5.8550   16.8430  -33.9270 N   0  0  0  0  0  0  0  0  0  0  0  0
   -6.5130   17.9920  -33.3780 C   0  0  0  0  0  0  0  0  0  0  0  0
   -6.1340   19.2660  -33.8210 C   0  0  0  0  0  0  0  0  0  0  0  0
   -6.7340   20.4100  -33.2870 C   0  0  0  0  0  0  0  0  0  0  0  0
   -7.7060   20.2910  -32.2840 C   0  0  0  0  0  0  0  0  0  0  0  0
   -8.4550   21.7260  -31.5920 S   0  0  0  0  0  0  0  0  0  0  0  0
   -9.9000   21.8230  -31.9950 O   0  0  0  0  0  0  0  0  0  0  0  0
   -8.3690   21.6450  -30.0950 O   0  0  0  0  0  0  0  0  0  0  0  0
   -7.6190   23.1470  -32.1320 N   0  0  0  0  0  0  0  0  0  0  0  0
   -6.4580   23.7090  -31.5070 C   0  0  0  0  0  0  0  0  0  0  0  0
   -6.4830   24.9600  -30.8690 C   0  0  0  0  0  0  0  0  0  0  0  0
   -5.3260   25.4680  -30.2750 C   0  0  0  0  0  0  0  0  0  0  0  0
   -4.1330   24.7430  -30.3140 C   0  0  0  0  0  0  0  0  0  0  0  0
   -2.9940   25.2830  -29.7260 O   0  0  0  0  0  0  0  0  0  0  0  0
   -4.0890   23.4890  -30.9560 C   0  0  0  0  0  0  0  0  0  0  0  0
   -2.8360   22.6960  -30.9910 C   0  0  0  0  0  0  0  0  0  0  0  0
   -1.8870   23.0210  -30.2260 O   0  0  0  0  0  0  0  0  0  0  0  0
   -2.6670   21.5260  -31.8880 C   0  0  0  0  0  0  0  0  0  0  0  0
   -1.7250   21.5340  -32.9310 C   0  0  0  0  0  0  0  0  0  0  0  0
   -1.5760   20.4150  -33.7510 C   0  0  0  0  0  0  0  0  0  0  0  0
   -2.3650   19.2880  -33.5200 C   0  0  0  0  0  0  0  0  0  0  0  0
   -3.2620   19.2820  -32.4990 N   0  0  0  0  0  0  0  0  0  0  0  0
   -3.4270   20.3600  -31.6860 C   0  0  0  0  0  0  0  0  0  0  0  0
   -5.2640   22.9780  -31.5380 C   0  0  0  0  0  0  0  0  0  0  0  0
   -8.0690   19.0210  -31.8190 C   0  0  0  0  0  0  0  0  0  0  0  0
   -7.4700   17.8770  -32.3550 C   0  0  0  0  0  0  0  0  0  0  0  0
   -3.4620   16.0765  -32.8954 H   0  0  0  0  0  0  0  0  0  0  0  0
   -3.4661   15.0011  -34.3342 H   0  0  0  0  0  0  0  0  0  0  0  0
   -2.4724   16.4975  -34.3342 H   0  0  0  0  0  0  0  0  0  0  0  0
   -5.3586   19.3667  -34.5947 H   0  0  0  0  0  0  0  0  0  0  0  0
   -6.4430   21.4051  -33.6544 H   0  0  0  0  0  0  0  0  0  0  0  0
   -7.4165   25.5410  -30.8372 H   0  0  0  0  0  0  0  0  0  0  0  0
   -5.3544   26.4462  -29.7727 H   0  0  0  0  0  0  0  0  0  0  0  0
   -1.1032   22.4253  -33.1014 H   0  0  0  0  0  0  0  0  0  0  0  0
   -0.8435   20.4214  -34.5716 H   0  0  0  0  0  0  0  0  0  0  0  0
   -2.2610   18.4031  -34.1650 H   0  0  0  0  0  0  0  0  0  0  0  0
   -4.1590   20.3196  -30.8659 H   0  0  0  0  0  0  0  0  0  0  0  0
   -5.2443   21.9912  -32.0237 H   0  0  0  0  0  0  0  0  0  0  0  0
   -8.8282   18.9230  -31.0291 H   0  0  0  0  0  0  0  0  0  0  0  0
   -7.7487   16.8832  -31.9747 H   0  0  0  0  0  0  0  0  0  0  0  0
  1  2  1  0
  2  3  2  0
  2  4  1  0
  4  5  1  0
  5  6  2  0
  6  7  1  0
  7  8  2  0
  8  9  1  0
  9 10  2  0
  9 11  2  0
  9 12  1  0
 12 13  1  0
 13 14  2  0
 14 15  1  0
 15 16  2  0
 16 17  1  0
 16 18  1  0
 18 19  1  0
 19 20  2  0
 19 21  1  0
 21 22  2  0
 22 23  1  0
 23 24  2  0
 24 25  1  0
 25 26  2  0
 18 27  2  0
  8 28  1  0
 28 29  2  0
 29  5  1  0
 27 13  1  0
 26 21  1  0
  1 30  1  0
  1 31  1  0
  1 32  1  0
  6 33  1  0
  7 34  1  0
 14 35  1  0
 15 36  1  0
 22 37  1  0
 23 38  1  0
 24 39  1  0
 26 40  1  0
 27 41  1  0
 28 42  1  0
 29 43  1  0
M  CHG  3   4  -1  12  -1  17  -1
M  END
>  <UniqueID>  (28) 
25

>  <SMILES>  (28) 
CC(=O)[N-]c1ccc(S(=O)(=O)[N-]c2ccc([O-])c(C(=O)c3cccnc3)c2)cc1

>  <Energy>  (28) 
60.14948267290433

>  <Genealogy>  (28) 
CC(=O)[N-]c1ccc(S(=O)(=O)[N-]c2ccc([O-])c(C(=O)c3cccnc3)c2)cc1 (protonated)
CC(=O)[N-]c1ccc(S(=O)(=O)[N-]c2ccc([O-])c(C(=O)c3cccnc3)c2)cc1 (3D coordinates assigned)
CC(=O)[N-]c1ccc(S(=O)(=O)[N-]c2ccc([O-])c(C(=O)c3cccnc3)c2)cc1 (optimized conformer: 60.14948267290433 kcal/mol)

>  <smiles>  (28) 
CC(=O)Nc1ccc(S(=O)(=O)Nc2ccc(O)c(C(=O)c3cccnc3)c2)cc1

>  <score_type>  (28) 
oracle

>  <origin>  (28) 
adgpu

>  <m_score__min__energy>  (28) 
-11.83

>  <m_primary>  (28) 
energy

$$$$
28:0
     RDKit          3D

 65 68  0  0  0  0  0  0  0  0999 V2000
   -8.3350   23.3050  -31.5860 C   0  0  0  0  0  0  0  0  0  0  0  0
   -7.2930   22.3230  -32.0260 C   0  0  0  0  0  0  0  0  0  0  0  0
   -5.9480   22.5920  -32.2420 C   0  0  0  0  0  0  0  0  0  0  0  0
   -5.2410   23.8200  -32.0610 N   0  0  0  0  0  0  0  0  0  0  0  0
   -5.0610   24.6020  -30.5250 S   0  0  0  0  0  0  0  0  0  0  0  0
   -6.1220   25.6610  -30.4120 O   0  0  0  0  0  0  0  0  0  0  0  0
   -3.7150   25.2610  -30.4210 O   0  0  0  0  0  0  0  0  0  0  0  0
   -5.3080   23.4310  -29.1950 C   0  0  0  0  0  0  0  0  0  0  0  0
   -4.1150   22.5300  -29.0240 C   0  0  0  0  0  0  0  0  0  0  0  0
   -3.8460   21.9270  -27.7850 C   0  0  0  0  0  0  0  0  0  0  0  0
   -2.7350   21.0930  -27.6310 C   0  0  0  0  0  0  0  0  0  0  0  0
   -1.8690   20.8650  -28.7110 C   0  0  0  0  0  0  0  0  0  0  0  0
   -0.4570   19.8250  -28.5330 S   0  0  0  0  0  0  0  0  0  0  0  0
   -0.6830   18.8570  -27.4050 O   0  0  0  0  0  0  0  0  0  0  0  0
    0.7260   20.6880  -28.1950 O   0  0  0  0  0  0  0  0  0  0  0  0
   -0.1560   18.9560  -30.0240 N   0  0  0  0  0  0  0  0  0  0  0  0
    0.4520   19.8490  -31.0450 C   0  0  0  0  0  0  0  0  0  0  0  0
    0.6460   19.2210  -32.4470 C   0  0  0  0  0  0  0  0  0  0  0  0
   -0.3660   18.1230  -32.8620 C   0  0  0  0  0  0  0  0  0  0  0  0
   -0.3140   16.8410  -32.0170 C   0  0  0  0  0  0  0  0  0  0  0  0
    0.8090   16.8120  -30.9550 C   0  0  0  0  0  0  0  0  0  0  0  0
    0.6010   17.7230  -29.7280 C   0  0  0  0  0  0  0  0  0  0  0  0
   -2.1400   21.4600  -29.9500 C   0  0  0  0  0  0  0  0  0  0  0  0
   -3.2560   22.2860  -30.1070 C   0  0  0  0  0  0  0  0  0  0  0  0
   -5.3830   21.3760  -32.5410 C   0  0  0  0  0  0  0  0  0  0  0  0
   -4.1610   21.1650  -32.7640 O   0  0  0  0  0  0  0  0  0  0  0  0
   -6.3390   20.4250  -32.5500 N   0  0  0  0  0  0  0  0  0  0  0  0
   -6.1320   19.0290  -32.8220 C   0  0  0  0  0  0  0  0  0  0  0  0
   -5.9730   18.5760  -34.1410 C   0  0  0  0  0  0  0  0  0  0  0  0
   -5.7790   17.2160  -34.4000 C   0  0  0  0  0  0  0  0  0  0  0  0
   -5.7480   16.2990  -33.3450 C   0  0  0  0  0  0  0  0  0  0  0  0
   -5.9130   16.7420  -32.0300 C   0  0  0  0  0  0  0  0  0  0  0  0
   -6.1080   18.1010  -31.7670 C   0  0  0  0  0  0  0  0  0  0  0  0
   -7.5020   21.0000  -32.2520 N   0  0  0  0  0  0  0  0  0  0  0  0
   -8.7820   20.2960  -32.1410 C   0  0  0  0  0  0  0  0  0  0  0  0
   -8.3684   23.3364  -30.4870 H   0  0  0  0  0  0  0  0  0  0  0  0
   -8.0849   24.3035  -31.9740 H   0  0  0  0  0  0  0  0  0  0  0  0
   -9.3169   22.9962  -31.9740 H   0  0  0  0  0  0  0  0  0  0  0  0
   -5.4755   23.9837  -28.2588 H   0  0  0  0  0  0  0  0  0  0  0  0
   -6.1791   22.8066  -29.4427 H   0  0  0  0  0  0  0  0  0  0  0  0
   -4.5135   22.1120  -26.9305 H   0  0  0  0  0  0  0  0  0  0  0  0
   -2.5391   20.6141  -26.6603 H   0  0  0  0  0  0  0  0  0  0  0  0
   -1.0980   18.6690  -30.3850 H   0  0  0  0  0  0  0  0  0  0  0  0
   -0.1973   20.7301  -31.1549 H   0  0  0  0  0  0  0  0  0  0  0  0
    1.4612   20.0861  -30.6773 H   0  0  0  0  0  0  0  0  0  0  0  0
    0.5811   20.0317  -33.1876 H   0  0  0  0  0  0  0  0  0  0  0  0
    1.6218   18.7150  -32.4055 H   0  0  0  0  0  0  0  0  0  0  0  0
   -1.3790   18.5442  -32.7815 H   0  0  0  0  0  0  0  0  0  0  0  0
   -0.0968   17.8275  -33.8868 H   0  0  0  0  0  0  0  0  0  0  0  0
   -1.2783   16.7328  -31.4989 H   0  0  0  0  0  0  0  0  0  0  0  0
   -0.1027   16.0174  -32.7149 H   0  0  0  0  0  0  0  0  0  0  0  0
    0.9045   15.7773  -30.5940 H   0  0  0  0  0  0  0  0  0  0  0  0
    1.7069   17.1959  -31.4614 H   0  0  0  0  0  0  0  0  0  0  0  0
    0.0525   17.1544  -28.9626 H   0  0  0  0  0  0  0  0  0  0  0  0
    1.5993   18.0336  -29.3861 H   0  0  0  0  0  0  0  0  0  0  0  0
   -1.4709   21.2760  -30.8035 H   0  0  0  0  0  0  0  0  0  0  0  0
   -3.4624   22.7473  -31.0840 H   0  0  0  0  0  0  0  0  0  0  0  0
   -6.0012   19.2938  -34.9740 H   0  0  0  0  0  0  0  0  0  0  0  0
   -5.6506   16.8669  -35.4352 H   0  0  0  0  0  0  0  0  0  0  0  0
   -5.5938   15.2293  -33.5500 H   0  0  0  0  0  0  0  0  0  0  0  0
   -5.8894   16.0201  -31.2004 H   0  0  0  0  0  0  0  0  0  0  0  0
   -6.2431   18.4451  -30.7310 H   0  0  0  0  0  0  0  0  0  0  0  0
   -9.0335   20.1577  -31.0791 H   0  0  0  0  0  0  0  0  0  0  0  0
   -9.5696   20.8878  -32.6303 H   0  0  0  0  0  0  0  0  0  0  0  0
   -8.7039   19.3139  -32.6303 H   0  0  0  0  0  0  0  0  0  0  0  0
  1  2  1  0
  2  3  2  0
  3  4  1  0
  4  5  1  0
  5  6  2  0
  5  7  2  0
  5  8  1  0
  8  9  1  0
  9 10  2  0
 10 11  1  0
 11 12  2  0
 12 13  1  0
 13 14  2  0
 13 15  2  0
 13 16  1  0
 16 17  1  0
 17 18  1  0
 18 19  1  0
 19 20  1  0
 20 21  1  0
 21 22  1  0
 12 23  1  0
 23 24  2  0
  3 25  1  0
 25 26  2  0
 25 27  1  0
 27 28  1  0
 28 29  2  0
 29 30  1  0
 30 31  2  0
 31 32  1  0
 32 33  2  0
 27 34  1  0
 34 35  1  0
 34  2  1  0
 24  9  1  0
 33 28  1  0
 22 16  1  0
  1 36  1  0
  1 37  1  0
  1 38  1  0
  8 39  1  0
  8 40  1  0
 10 41  1  0
 11 42  1  0
 16 43  1  0
 17 44  1  0
 17 45  1  0
 18 46  1  0
 18 47  1  0
 19 48  1  0
 19 49  1  0
 20 50  1  0
 20 51  1  0
 21 52  1  0
 21 53  1  0
 22 54  1  0
 22 55  1  0
 23 56  1  0
 24 57  1  0
 29 58  1  0
 30 59  1  0
 31 60  1  0
 32 61  1  0
 33 62  1  0
 35 63  1  0
 35 64  1  0
 35 65  1  0
M  CHG  2   4  -1  16   1
M  END
>  <UniqueID>  (29) 
26

>  <SMILES>  (29) 
Cc1c([N-]S(=O)(=O)Cc2ccc(S(=O)(=O)[NH+]3CCCCCC3)cc2)c(=O)n(-c2ccccc2)n1C

>  <Energy>  (29) 
119.38168386211112

>  <Genealogy>  (29) 
Cc1c([N-]S(=O)(=O)Cc2ccc(S(=O)(=O)[NH+]3CCCCCC3)cc2)c(=O)n(-c2ccccc2)n1C (protonated)
Cc1c([N-]S(=O)(=O)Cc2ccc(S(=O)(=O)[NH+]3CCCCCC3)cc2)c(=O)n(-c2ccccc2)n1C (3D coordinates assigned)
Cc1c([N-]S(=O)(=O)Cc2ccc(S(=O)(=O)[NH+]3CCCCCC3)cc2)c(=O)n(-c2ccccc2)n1C (nonaromatic ring conformer: 119.38168386211112 kcal/mol)

>  <smiles>  (29) 
Cc1c(NS(=O)(=O)Cc2ccc(S(=O)(=O)N3CCCCCC3)cc2)c(=O)n(-c2ccccc2)n1C

>  <score_type>  (29) 
oracle

>  <origin>  (29) 
adgpu

>  <m_score__min__energy>  (29) 
-9.8499999999999996

>  <m_primary>  (29) 
energy

$$$$
29:0
     RDKit          3D

 45 47  0  0  0  0  0  0  0  0999 V2000
   -2.6300   21.2820  -29.3900 O   0  0  0  0  0  0  0  0  0  0  0  0
   -2.6630   22.4740  -30.3060 S   0  0  0  0  0  0  0  0  0  0  0  0
   -2.3070   22.0310  -31.6970 O   0  0  0  0  0  0  0  0  0  0  0  0
   -1.5000   23.6420  -29.7620 N   0  0  0  0  0  0  0  0  0  0  0  0
   -1.3270   24.0140  -28.3800 C   0  0  0  0  0  0  0  0  0  0  0  0
   -1.0920   23.0450  -27.3830 C   0  0  0  0  0  0  0  0  0  0  0  0
   -0.9330   23.4280  -26.0490 C   0  0  0  0  0  0  0  0  0  0  0  0
   -0.9970   24.7750  -25.6920 C   0  0  0  0  0  0  0  0  0  0  0  0
   -1.2200   25.7460  -26.6700 C   0  0  0  0  0  0  0  0  0  0  0  0
   -1.3840   25.3720  -28.0090 C   0  0  0  0  0  0  0  0  0  0  0  0
   -1.6090   26.3580  -28.9630 O   0  0  0  0  0  0  0  0  0  0  0  0
   -4.2670   23.1980  -30.3370 C   0  0  0  0  0  0  0  0  0  0  0  0
   -4.4310   24.5400  -29.9690 C   0  0  0  0  0  0  0  0  0  0  0  0
   -5.7040   25.1180  -29.9740 C   0  0  0  0  0  0  0  0  0  0  0  0
   -6.8160   24.3610  -30.3500 C   0  0  0  0  0  0  0  0  0  0  0  0
   -6.6600   23.0210  -30.7280 C   0  0  0  0  0  0  0  0  0  0  0  0
   -8.0560   22.0580  -31.2030 S   0  0  0  0  0  0  0  0  0  0  0  0
   -8.7870   22.7380  -32.3290 O   0  0  0  0  0  0  0  0  0  0  0  0
   -8.9760   21.9340  -30.0210 O   0  0  0  0  0  0  0  0  0  0  0  0
   -7.5310   20.4740  -31.7160 N   0  0  0  0  0  0  0  0  0  0  0  0
   -7.0200   20.5350  -33.0950 C   0  0  0  0  0  0  0  0  0  0  0  0
   -6.3440   19.2040  -33.4750 C   0  0  0  0  0  0  0  0  0  0  0  0
   -6.8740   18.0210  -32.6480 C   0  0  0  0  0  0  0  0  0  0  0  0
   -8.3640   18.1860  -32.3430 C   0  0  0  0  0  0  0  0  0  0  0  0
   -8.6530   19.5170  -31.6110 C   0  0  0  0  0  0  0  0  0  0  0  0
   -5.3840   22.4410  -30.7150 C   0  0  0  0  0  0  0  0  0  0  0  0
   -0.9720   24.1560  -30.5030 H   0  0  0  0  0  0  0  0  0  0  0  0
   -1.0335   21.9813  -27.6572 H   0  0  0  0  0  0  0  0  0  0  0  0
   -0.7566   22.6644  -25.2771 H   0  0  0  0  0  0  0  0  0  0  0  0
   -0.8718   25.0720  -24.6403 H   0  0  0  0  0  0  0  0  0  0  0  0
   -1.2670   26.8081  -26.3876 H   0  0  0  0  0  0  0  0  0  0  0  0
   -3.5568   25.1397  -29.6757 H   0  0  0  0  0  0  0  0  0  0  0  0
   -5.8301   26.1708  -29.6813 H   0  0  0  0  0  0  0  0  0  0  0  0
   -7.8166   24.8180  -30.3493 H   0  0  0  0  0  0  0  0  0  0  0  0
   -7.8562   20.7267  -33.7835 H   0  0  0  0  0  0  0  0  0  0  0  0
   -6.2794   21.3452  -33.1662 H   0  0  0  0  0  0  0  0  0  0  0  0
   -6.5326   19.0033  -34.5400 H   0  0  0  0  0  0  0  0  0  0  0  0
   -5.2682   19.3029  -33.2681 H   0  0  0  0  0  0  0  0  0  0  0  0
   -6.7243   17.0905  -33.2152 H   0  0  0  0  0  0  0  0  0  0  0  0
   -6.3242   17.9861  -31.6959 H   0  0  0  0  0  0  0  0  0  0  0  0
   -8.9256   18.1699  -33.2887 H   0  0  0  0  0  0  0  0  0  0  0  0
   -8.6738   17.3591  -31.6870 H   0  0  0  0  0  0  0  0  0  0  0  0
   -9.5504   19.9751  -32.0524 H   0  0  0  0  0  0  0  0  0  0  0  0
   -8.7996   19.2882  -30.5451 H   0  0  0  0  0  0  0  0  0  0  0  0
   -5.2589   21.3867  -31.0029 H   0  0  0  0  0  0  0  0  0  0  0  0
  1  2  2  0
  2  3  2  0
  2  4  1  0
  4  5  1  0
  5  6  2  0
  6  7  1  0
  7  8  2  0
  8  9  1  0
  9 10  2  0
 10 11  1  0
  2 12  1  0
 12 13  2  0
 13 14  1  0
 14 15  2  0
 15 16  1  0
 16 17  1  0
 17 18  2  0
 17 19  2  0
 17 20  1  0
 20 21  1  0
 21 22  1  0
 22 23  1  0
 23 24  1  0
 24 25  1  0
 16 26  2  0
 10  5  1  0
 26 12  1  0
 25 20  1  0
  4 27  1  0
  6 28  1  0
  7 29  1  0
  8 30  1  0
  9 31  1  0
 13 32  1  0
 14 33  1  0
 15 34  1  0
 21 35  1  0
 21 36  1  0
 22 37  1  0
 22 38  1  0
 23 39  1  0
 23 40  1  0
 24 41  1  0
 24 42  1  0
 25 43  1  0
 25 44  1  0
 26 45  1  0
M  CHG  1  11  -1
M  END
>  <UniqueID>  (30) 
27

>  <SMILES>  (30) 
O=S(=O)(Nc1ccccc1[O-])c1cccc(S(=O)(=O)N2CCCCC2)c1

>  <Energy>  (30) 
51.93968122727889

>  <Genealogy>  (30) 
O=S(=O)(Nc1ccccc1[O-])c1cccc(S(=O)(=O)N2CCCCC2)c1 (protonated)
O=S(=O)(Nc1ccccc1[O-])c1cccc(S(=O)(=O)N2CCCCC2)c1 (3D coordinates assigned)
O=S(=O)(Nc1ccccc1[O-])c1cccc(S(=O)(=O)N2CCCCC2)c1 (nonaromatic ring conformer: 51.93968122727889 kcal/mol)

>  <smiles>  (30) 
O=S(=O)(Nc1ccccc1O)c1cccc(S(=O)(=O)N2CCCCC2)c1

>  <score_type>  (30) 
oracle

>  <origin>  (30) 
adgpu

>  <m_score__min__energy>  (30) 
-13.44

>  <m_primary>  (30) 
energy

$$$$
30:0
     RDKit          3D

 61 64  0  0  0  0  0  0  0  0999 V2000
   -0.4480   26.7810  -23.0270 C   0  0  0  0  0  0  0  0  0  0  0  0
    0.2960   26.8740  -24.6380 S   0  0  0  0  0  0  0  0  0  0  0  0
    0.4980   28.3140  -25.0200 O   0  0  0  0  0  0  0  0  0  0  0  0
    1.6320   26.1880  -24.6120 O   0  0  0  0  0  0  0  0  0  0  0  0
   -0.7600   26.0960  -25.8120 C   0  0  0  0  0  0  0  0  0  0  0  0
   -0.3510   25.9560  -27.1420 C   0  0  0  0  0  0  0  0  0  0  0  0
   -1.2020   25.3610  -28.0770 C   0  0  0  0  0  0  0  0  0  0  0  0
   -2.4670   24.9060  -27.6710 C   0  0  0  0  0  0  0  0  0  0  0  0
   -3.3760   24.3110  -28.6180 N   0  0  0  0  0  0  0  0  0  0  0  0
   -4.8190   24.5460  -28.4980 C   0  0  0  0  0  0  0  0  0  0  0  0
   -5.4320   24.7400  -29.8860 C   0  0  0  0  0  0  0  0  0  0  0  0
   -4.9810   23.6830  -30.8000 N   0  0  0  0  0  0  0  0  0  0  0  0
   -5.8330   23.2980  -31.8930 C   0  0  0  0  0  0  0  0  0  0  0  0
   -6.5290   24.1740  -32.4740 O   0  0  0  0  0  0  0  0  0  0  0  0
   -5.9140   21.8880  -32.3280 C   0  0  0  0  0  0  0  0  0  0  0  0
   -7.1390   21.2010  -32.3340 C   0  0  0  0  0  0  0  0  0  0  0  0
   -7.1770   19.8660  -32.7420 C   0  0  0  0  0  0  0  0  0  0  0  0
   -5.9980   19.2190  -33.1310 C   0  0  0  0  0  0  0  0  0  0  0  0
   -6.0170   17.5390  -33.6630 S   0  0  0  0  0  0  0  0  0  0  0  0
   -7.2500   16.8780  -33.1110 O   0  0  0  0  0  0  0  0  0  0  0  0
   -6.0750   17.4870  -35.1650 O   0  0  0  0  0  0  0  0  0  0  0  0
   -4.5790   16.7260  -33.0770 N   0  0  0  0  0  0  0  0  0  0  0  0
   -4.9200   15.4370  -32.4310 C   0  0  0  0  0  0  0  0  0  0  0  0
   -5.3030   14.3370  -33.4390 C   0  0  0  0  0  0  0  0  0  0  0  0
   -4.4320   14.3440  -34.7070 C   0  0  0  0  0  0  0  0  0  0  0  0
   -3.1700   15.1830  -34.5270 C   0  0  0  0  0  0  0  0  0  0  0  0
   -3.5360   16.6260  -34.1400 C   0  0  0  0  0  0  0  0  0  0  0  0
   -4.7940   19.9340  -33.1080 C   0  0  0  0  0  0  0  0  0  0  0  0
   -4.7800   21.2340  -32.7100 N   0  0  0  0  0  0  0  0  0  0  0  0
   -3.5380   23.4260  -30.8950 C   0  0  0  0  0  0  0  0  0  0  0  0
   -2.9440   23.2230  -29.5020 C   0  0  0  0  0  0  0  0  0  0  0  0
   -2.8490   25.0700  -26.3730 N   0  0  0  0  0  0  0  0  0  0  0  0
   -2.0350   25.6460  -25.4450 C   0  0  0  0  0  0  0  0  0  0  0  0
    0.3315   26.8784  -22.2570 H   0  0  0  0  0  0  0  0  0  0  0  0
   -1.1794   27.5947  -22.9134 H   0  0  0  0  0  0  0  0  0  0  0  0
   -0.9566   25.8123  -22.9134 H   0  0  0  0  0  0  0  0  0  0  0  0
    0.6415   26.3146  -27.4523 H   0  0  0  0  0  0  0  0  0  0  0  0
   -0.8832   25.2498  -29.1239 H   0  0  0  0  0  0  0  0  0  0  0  0
   -5.2901   23.6806  -28.0089 H   0  0  0  0  0  0  0  0  0  0  0  0
   -4.9898   25.4513  -27.8969 H   0  0  0  0  0  0  0  0  0  0  0  0
   -6.5285   24.7053  -29.8055 H   0  0  0  0  0  0  0  0  0  0  0  0
   -5.1114   25.7144  -30.2833 H   0  0  0  0  0  0  0  0  0  0  0  0
   -8.0617   21.7108  -32.0196 H   0  0  0  0  0  0  0  0  0  0  0  0
   -8.1334   19.3227  -32.7577 H   0  0  0  0  0  0  0  0  0  0  0  0
   -4.2010   17.3440  -32.3210 H   0  0  0  0  0  0  0  0  0  0  0  0
   -4.0491   15.0941  -31.8532 H   0  0  0  0  0  0  0  0  0  0  0  0
   -5.7966   15.6136  -31.7904 H   0  0  0  0  0  0  0  0  0  0  0  0
   -5.1951   13.3593  -32.9466 H   0  0  0  0  0  0  0  0  0  0  0  0
   -6.3390   14.5301  -33.7542 H   0  0  0  0  0  0  0  0  0  0  0  0
   -4.1407   13.3101  -34.9438 H   0  0  0  0  0  0  0  0  0  0  0  0
   -5.0219   14.7871  -35.5229 H   0  0  0  0  0  0  0  0  0  0  0  0
   -2.5509   14.7406  -33.7326 H   0  0  0  0  0  0  0  0  0  0  0  0
   -2.6134   15.1983  -35.4757 H   0  0  0  0  0  0  0  0  0  0  0  0
   -2.6262   17.1283  -33.7796 H   0  0  0  0  0  0  0  0  0  0  0  0
   -3.9544   17.0995  -35.0404 H   0  0  0  0  0  0  0  0  0  0  0  0
   -3.8580   19.4429  -33.4125 H   0  0  0  0  0  0  0  0  0  0  0  0
   -3.3692   22.5210  -31.4971 H   0  0  0  0  0  0  0  0  0  0  0  0
   -3.0506   24.2902  -31.3700 H   0  0  0  0  0  0  0  0  0  0  0  0
   -3.2886   22.2614  -29.0939 H   0  0  0  0  0  0  0  0  0  0  0  0
   -1.8461   23.2226  -29.5702 H   0  0  0  0  0  0  0  0  0  0  0  0
   -2.3791   25.7579  -24.4062 H   0  0  0  0  0  0  0  0  0  0  0  0
  1  2  1  0
  2  3  2  0
  2  4  2  0
  2  5  1  0
  5  6  2  0
  6  7  1  0
  7  8  2  0
  8  9  1  0
  9 10  1  0
 10 11  1  0
 11 12  1  0
 12 13  1  0
 13 14  2  0
 13 15  1  0
 15 16  2  0
 16 17  1  0
 17 18  2  0
 18 19  1  0
 19 20  2  0
 19 21  2  0
 19 22  1  0
 22 23  1  0
 23 24  1  0
 24 25  1  0
 25 26  1  0
 26 27  1  0
 18 28  1  0
 28 29  2  0
 12 30  1  0
 30 31  1  0
  8 32  1  0
 32 33  2  0
 33  5  1  0
 31  9  1  0
 29 15  1  0
 27 22  1  0
  1 34  1  0
  1 35  1  0
  1 36  1  0
  6 37  1  0
  7 38  1  0
 10 39  1  0
 10 40  1  0
 11 41  1  0
 11 42  1  0
 16 43  1  0
 17 44  1  0
 22 45  1  0
 23 46  1  0
 23 47  1  0
 24 48  1  0
 24 49  1  0
 25 50  1  0
 25 51  1  0
 26 52  1  0
 26 53  1  0
 27 54  1  0
 27 55  1  0
 28 56  1  0
 30 57  1  0
 30 58  1  0
 31 59  1  0
 31 60  1  0
 33 61  1  0
M  CHG  1  22   1
M  END
>  <UniqueID>  (31) 
28

>  <SMILES>  (31) 
CS(=O)(=O)c1ccc(N2CCN(C(=O)c3ccc(S(=O)(=O)[NH+]4CCCCC4)cn3)CC2)nc1

>  <Energy>  (31) 
74.62723864857335

>  <Genealogy>  (31) 
CS(=O)(=O)c1ccc(N2CCN(C(=O)c3ccc(S(=O)(=O)[NH+]4CCCCC4)cn3)CC2)nc1 (protonated)
CS(=O)(=O)c1ccc(N2CCN(C(=O)c3ccc(S(=O)(=O)[NH+]4CCCCC4)cn3)CC2)nc1 (3D coordinates assigned)
CS(=O)(=O)c1ccc(N2CCN(C(=O)c3ccc(S(=O)(=O)[NH+]4CCCCC4)cn3)CC2)nc1 (nonaromatic ring conformer: 74.62723864857335 kcal/mol)

>  <smiles>  (31) 
CS(=O)(=O)c1ccc(N2CCN(C(=O)c3ccc(S(=O)(=O)N4CCCCC4)cn3)CC2)nc1

>  <score_type>  (31) 
oracle

>  <origin>  (31) 
adgpu

>  <m_score__min__energy>  (31) 
-8.8800000000000008

>  <m_primary>  (31) 
energy

$$$$
31:0
     RDKit          3D

 42 44  0  0  0  0  0  0  0  0999 V2000
   -6.4790   15.5090  -33.9770 C   0  0  0  0  0  0  0  0  0  0  0  0
   -6.3140   16.9810  -34.1470 C   0  0  0  0  0  0  0  0  0  0  0  0
   -6.9900   17.9010  -33.4340 N   0  0  0  0  0  0  0  0  0  0  0  0
   -6.4760   19.0450  -33.9320 C   0  0  0  0  0  0  0  0  0  0  0  0
   -6.8690   20.4090  -33.4500 C   0  0  0  0  0  0  0  0  0  0  0  0
   -6.7390   20.5410  -31.9120 C   0  0  1  0  0  0  0  0  0  0  0  0
   -5.6090   19.6670  -31.3380 C   0  0  0  0  0  0  0  0  0  0  0  0
   -4.2120   20.1940  -31.6970 C   0  0  0  0  0  0  0  0  0  0  0  0
   -4.1630   21.7240  -31.8790 C   0  0  0  0  0  0  0  0  0  0  0  0
   -5.2020   22.4320  -31.1040 N   0  0  0  0  0  0  0  0  0  0  0  0
   -4.9430   22.4400  -29.6460 C   0  0  0  0  0  0  0  0  0  0  0  0
   -3.5330   22.8890  -29.3670 C   0  0  0  0  0  0  0  0  0  0  0  0
   -2.5000   21.9500  -29.2150 C   0  0  0  0  0  0  0  0  0  0  0  0
   -1.1900   22.3770  -28.9760 C   0  0  0  0  0  0  0  0  0  0  0  0
   -0.8980   23.7450  -28.8890 C   0  0  0  0  0  0  0  0  0  0  0  0
    0.4050   24.1760  -28.6510 O   0  0  0  0  0  0  0  0  0  0  0  0
   -1.9250   24.6850  -29.0450 C   0  0  0  0  0  0  0  0  0  0  0  0
   -1.6460   26.0440  -28.9630 O   0  0  0  0  0  0  0  0  0  0  0  0
   -3.2360   24.2580  -29.2850 C   0  0  0  0  0  0  0  0  0  0  0  0
   -6.5830   22.0270  -31.4710 C   0  0  0  0  0  0  0  0  0  0  0  0
   -5.5380   18.8270  -34.8740 N   0  0  0  0  0  0  0  0  0  0  0  0
   -5.4670   17.5360  -34.9780 O   0  0  0  0  0  0  0  0  0  0  0  0
   -6.5064   15.2645  -32.9049 H   0  0  0  0  0  0  0  0  0  0  0  0
   -7.4187   15.1883  -34.4504 H   0  0  0  0  0  0  0  0  0  0  0  0
   -5.6336   14.9882  -34.4504 H   0  0  0  0  0  0  0  0  0  0  0  0
   -6.2170   21.1556  -33.9269 H   0  0  0  0  0  0  0  0  0  0  0  0
   -7.9234   20.5729  -33.7171 H   0  0  0  0  0  0  0  0  0  0  0  0
   -7.6813   20.1630  -31.4888 H   0  0  0  0  0  0  0  0  0  0  0  0
   -5.7051   19.6423  -30.2425 H   0  0  0  0  0  0  0  0  0  0  0  0
   -5.7089   18.6636  -31.7777 H   0  0  0  0  0  0  0  0  0  0  0  0
   -3.5168   19.9163  -30.8910 H   0  0  0  0  0  0  0  0  0  0  0  0
   -3.9326   19.7432  -32.6607 H   0  0  0  0  0  0  0  0  0  0  0  0
   -3.1762   22.0842  -31.5527 H   0  0  0  0  0  0  0  0  0  0  0  0
   -4.3463   21.9343  -32.9430 H   0  0  0  0  0  0  0  0  0  0  0  0
   -5.6467   23.1293  -29.1564 H   0  0  0  0  0  0  0  0  0  0  0  0
   -5.0779   21.4213  -29.2535 H   0  0  0  0  0  0  0  0  0  0  0  0
   -2.7220   20.8749  -29.2842 H   0  0  0  0  0  0  0  0  0  0  0  0
   -0.3856   21.6364  -28.8558 H   0  0  0  0  0  0  0  0  0  0  0  0
    0.6250   25.1580  -28.5350 H   0  0  0  0  0  0  0  0  0  0  0  0
   -4.0384   25.0000  -29.4101 H   0  0  0  0  0  0  0  0  0  0  0  0
   -7.2307   22.1934  -30.5976 H   0  0  0  0  0  0  0  0  0  0  0  0
   -6.8602   22.6369  -32.3434 H   0  0  0  0  0  0  0  0  0  0  0  0
  1  2  1  0
  2  3  2  0
  3  4  1  0
  4  5  1  0
  5  6  1  0
  6  7  1  0
  7  8  1  0
  8  9  1  0
  9 10  1  0
 10 11  1  0
 11 12  1  0
 12 13  2  0
 13 14  1  0
 14 15  2  0
 15 16  1  0
 15 17  1  0
 17 18  1  0
 17 19  2  0
 10 20  1  0
  4 21  2  0
 21 22  1  0
 22  2  1  0
 20  6  1  0
 19 12  1  0
  1 23  1  0
  1 24  1  0
  1 25  1  0
  5 26  1  0
  5 27  1  0
  6 28  1  1
  7 29  1  0
  7 30  1  0
  8 31  1  0
  8 32  1  0
  9 33  1  0
  9 34  1  0
 11 35  1  0
 11 36  1  0
 13 37  1  0
 14 38  1  0
 16 39  1  0
 19 40  1  0
 20 41  1  0
 20 42  1  0
M  CHG  1  18  -1
M  END
>  <UniqueID>  (32) 
29

>  <SMILES>  (32) 
Cc1nc(C[C@H]2CCCN(Cc3ccc(O)c([O-])c3)C2)no1

>  <Energy>  (32) 
83.87176880511085

>  <Genealogy>  (32) 
Cc1nc(CC2CCCN(Cc3ccc(O)c([O-])c3)C2)no1 (protonated)
Cc1nc(C[C@H]2CCCN(Cc3ccc(O)c([O-])c3)C2)no1 (chirality)
Cc1nc(C[C@H]2CCCN(Cc3ccc(O)c([O-])c3)C2)no1 (3D coordinates assigned)
Cc1nc(C[C@H]2CCCN(Cc3ccc(O)c([O-])c3)C2)no1 (nonaromatic ring conformer: 83.87176880511085 kcal/mol)

>  <smiles>  (32) 
Cc1nc(CC2CCCN(Cc3ccc(O)c(O)c3)C2)no1

>  <score_type>  (32) 
oracle

>  <origin>  (32) 
adgpu

>  <m_score__min__energy>  (32) 
-10.83

>  <m_primary>  (32) 
energy

$$$$
32:0
     RDKit          3D

 64 67  0  0  0  0  0  0  0  0999 V2000
   -0.4060   20.5920  -30.8480 C   0  0  0  0  0  0  0  0  0  0  0  0
   -1.6500   21.1960  -30.1580 C   0  0  0  0  0  0  0  0  0  0  0  0
   -1.7510   22.6720  -30.6240 C   0  0  0  0  0  0  0  0  0  0  0  0
   -2.9270   20.4800  -30.6550 C   0  0  0  0  0  0  0  0  0  0  0  0
   -1.5260   21.0580  -28.6170 C   0  0  0  0  0  0  0  0  0  0  0  0
   -2.1350   19.9830  -27.9180 C   0  0  0  0  0  0  0  0  0  0  0  0
   -2.0040   19.8460  -26.5360 C   0  0  0  0  0  0  0  0  0  0  0  0
   -1.2740   20.7750  -25.8050 C   0  0  0  0  0  0  0  0  0  0  0  0
   -0.6670   21.8440  -26.4550 C   0  0  0  0  0  0  0  0  0  0  0  0
   -0.7690   21.9920  -27.8500 C   0  0  0  0  0  0  0  0  0  0  0  0
   -0.1370   23.0810  -28.4720 O   0  0  0  0  0  0  0  0  0  0  0  0
    0.6500   24.0310  -27.8080 C   0  0  0  0  0  0  0  0  0  0  0  0
    1.9960   23.8450  -27.7580 N   0  0  0  0  0  0  0  0  0  0  0  0
    2.8270   24.7250  -27.1390 C   0  0  0  0  0  0  0  0  0  0  0  0
    2.3030   25.8590  -26.5180 C   0  0  0  0  0  0  0  0  0  0  0  0
    0.9240   26.0690  -26.5280 C   0  0  0  0  0  0  0  0  0  0  0  0
    0.0790   25.1560  -27.1760 C   0  0  0  0  0  0  0  0  0  0  0  0
   -1.3470   25.2860  -27.0980 N   0  0  0  0  0  0  0  0  0  0  0  0
   -2.2700   25.0320  -28.1620 C   0  0  0  0  0  0  0  0  0  0  0  0
   -1.9130   25.2810  -29.3430 O   0  0  0  0  0  0  0  0  0  0  0  0
   -3.6140   24.6070  -27.8840 N   0  0  0  0  0  0  0  0  0  0  0  0
   -4.5390   24.1820  -28.8980 C   0  0  0  0  0  0  0  0  0  0  0  0
   -5.1880   25.1090  -29.7330 C   0  0  0  0  0  0  0  0  0  0  0  0
   -6.0980   24.6720  -30.6990 C   0  0  0  0  0  0  0  0  0  0  0  0
   -6.3690   23.3050  -30.8500 C   0  0  0  0  0  0  0  0  0  0  0  0
   -7.5510   22.7580  -32.0440 S   0  0  0  0  0  0  0  0  0  0  0  0
   -8.8920   22.6150  -31.3770 O   0  0  0  0  0  0  0  0  0  0  0  0
   -7.6770   23.7970  -33.1230 O   0  0  0  0  0  0  0  0  0  0  0  0
   -7.1150   21.2290  -32.7730 N   0  0  0  0  0  0  0  0  0  0  0  0
   -7.6160   20.0910  -32.0030 C   0  0  0  0  0  0  0  0  0  0  0  0
   -6.6990   18.9190  -32.3230 C   0  0  0  0  0  0  0  0  0  0  0  0
   -5.4250   19.5440  -32.8740 C   0  0  0  0  0  0  0  0  0  0  0  0
   -5.6660   21.0460  -32.8420 C   0  0  0  0  0  0  0  0  0  0  0  0
   -5.6870   22.3760  -30.0520 C   0  0  0  0  0  0  0  0  0  0  0  0
   -4.7760   22.8130  -29.0850 C   0  0  0  0  0  0  0  0  0  0  0  0
    0.3057   20.2465  -30.0837 H   0  0  0  0  0  0  0  0  0  0  0  0
   -0.7114   19.7419  -31.4757 H   0  0  0  0  0  0  0  0  0  0  0  0
    0.0732   21.3578  -31.4757 H   0  0  0  0  0  0  0  0  0  0  0  0
   -1.7961   23.3318  -29.7450 H   0  0  0  0  0  0  0  0  0  0  0  0
   -0.8682   22.9268  -31.2287 H   0  0  0  0  0  0  0  0  0  0  0  0
   -2.6603   22.8042  -31.2287 H   0  0  0  0  0  0  0  0  0  0  0  0
   -3.5206   20.1472  -29.7908 H   0  0  0  0  0  0  0  0  0  0  0  0
   -3.5237   21.1751  -31.2639 H   0  0  0  0  0  0  0  0  0  0  0  0
   -2.6452   19.6083  -31.2639 H   0  0  0  0  0  0  0  0  0  0  0  0
   -2.7233   19.2416  -28.4786 H   0  0  0  0  0  0  0  0  0  0  0  0
   -2.4810   18.9983  -26.0224 H   0  0  0  0  0  0  0  0  0  0  0  0
   -1.1764   20.6652  -24.7149 H   0  0  0  0  0  0  0  0  0  0  0  0
   -0.0997   22.5834  -25.8706 H   0  0  0  0  0  0  0  0  0  0  0  0
    3.9118   24.5430  -27.1278 H   0  0  0  0  0  0  0  0  0  0  0  0
    2.9709   26.5807  -26.0251 H   0  0  0  0  0  0  0  0  0  0  0  0
    0.4989   26.9513  -26.0273 H   0  0  0  0  0  0  0  0  0  0  0  0
   -3.9840   24.7610  -26.9190 H   0  0  0  0  0  0  0  0  0  0  0  0
   -4.9782   26.1834  -29.6251 H   0  0  0  0  0  0  0  0  0  0  0  0
   -6.6045   25.4046  -31.3445 H   0  0  0  0  0  0  0  0  0  0  0  0
   -7.5842   20.3162  -30.9268 H   0  0  0  0  0  0  0  0  0  0  0  0
   -8.6604   19.8627  -32.2622 H   0  0  0  0  0  0  0  0  0  0  0  0
   -6.4818   18.3402  -31.4132 H   0  0  0  0  0  0  0  0  0  0  0  0
   -7.1581   18.2234  -33.0409 H   0  0  0  0  0  0  0  0  0  0  0  0
   -4.5627   19.2790  -32.2445 H   0  0  0  0  0  0  0  0  0  0  0  0
   -5.2002   19.1871  -33.8899 H   0  0  0  0  0  0  0  0  0  0  0  0
   -5.1837   21.4902  -31.9587 H   0  0  0  0  0  0  0  0  0  0  0  0
   -5.2434   21.5372  -33.7309 H   0  0  0  0  0  0  0  0  0  0  0  0
   -5.8690   21.2996  -30.1868 H   0  0  0  0  0  0  0  0  0  0  0  0
   -4.2414   22.0770  -28.4665 H   0  0  0  0  0  0  0  0  0  0  0  0
  1  2  1  0
  2  3  1  0
  2  4  1  0
  2  5  1  0
  5  6  2  0
  6  7  1  0
  7  8  2  0
  8  9  1  0
  9 10  2  0
 10 11  1  0
 11 12  1  0
 12 13  2  0
 13 14  1  0
 14 15  2  0
 15 16  1  0
 16 17  2  0
 17 18  1  0
 18 19  1  0
 19 20  2  0
 19 21  1  0
 21 22  1  0
 22 23  2  0
 23 24  1  0
 24 25  2  0
 25 26  1  0
 26 27  2  0
 26 28  2  0
 26 29  1  0
 29 30  1  0
 30 31  1  0
 31 32  1  0
 32 33  1  0
 25 34  1  0
 34 35  2  0
 10  5  1  0
 17 12  1  0
 35 22  1  0
 33 29  1  0
  1 36  1  0
  1 37  1  0
  1 38  1  0
  3 39  1  0
  3 40  1  0
  3 41  1  0
  4 42  1  0
  4 43  1  0
  4 44  1  0
  6 45  1  0
  7 46  1  0
  8 47  1  0
  9 48  1  0
 14 49  1  0
 15 50  1  0
 16 51  1  0
 21 52  1  0
 23 53  1  0
 24 54  1  0
 30 55  1  0
 30 56  1  0
 31 57  1  0
 31 58  1  0
 32 59  1  0
 32 60  1  0
 33 61  1  0
 33 62  1  0
 34 63  1  0
 35 64  1  0
M  CHG  1  18  -1
M  END
>  <UniqueID>  (33) 
30

>  <SMILES>  (33) 
CC(C)(C)c1ccccc1Oc1ncccc1[N-]C(=O)Nc1ccc(S(=O)(=O)N2CCCC2)cc1

>  <Energy>  (33) 
86.88678775364296

>  <Genealogy>  (33) 
CC(C)(C)c1ccccc1Oc1ncccc1[N-]C(=O)Nc1ccc(S(=O)(=O)N2CCCC2)cc1 (protonated)
CC(C)(C)c1ccccc1Oc1ncccc1[N-]C(=O)Nc1ccc(S(=O)(=O)N2CCCC2)cc1 (3D coordinates assigned)
CC(C)(C)c1ccccc1Oc1ncccc1[N-]C(=O)Nc1ccc(S(=O)(=O)N2CCCC2)cc1 (nonaromatic ring conformer: 86.88678775364296 kcal/mol)

>  <smiles>  (33) 
CC(C)(C)c1ccccc1Oc1ncccc1NC(=O)Nc1ccc(S(=O)(=O)N2CCCC2)cc1

>  <score_type>  (33) 
oracle

>  <origin>  (33) 
adgpu

>  <m_score__min__energy>  (33) 
-11.44

>  <m_primary>  (33) 
energy

$$$$
33:0
     RDKit          3D

 54 57  0  0  0  0  0  0  0  0999 V2000
    2.0800   25.9010  -23.3680 N   0  0  0  0  0  0  0  0  0  0  0  0
    1.1910   27.0050  -23.5790 C   0  0  0  0  0  0  0  0  0  0  0  0
    0.9070   27.7960  -22.5870 N   0  0  0  0  0  0  0  0  0  0  0  0
    0.5960   27.2290  -24.9210 C   0  0  0  0  0  0  0  0  0  0  0  0
    0.1360   28.5030  -25.3000 C   0  0  0  0  0  0  0  0  0  0  0  0
   -0.4040   28.7100  -26.5710 C   0  0  0  0  0  0  0  0  0  0  0  0
   -0.4980   27.6500  -27.4740 C   0  0  0  0  0  0  0  0  0  0  0  0
   -0.0650   26.3710  -27.1120 C   0  0  0  0  0  0  0  0  0  0  0  0
   -0.1660   25.3340  -28.0520 O   0  0  0  0  0  0  0  0  0  0  0  0
   -0.8400   24.1180  -27.8520 C   0  0  0  0  0  0  0  0  0  0  0  0
   -0.3330   23.1330  -26.9850 C   0  0  0  0  0  0  0  0  0  0  0  0
   -1.0260   21.9350  -26.7970 C   0  0  0  0  0  0  0  0  0  0  0  0
   -2.2270   21.7100  -27.4700 C   0  0  0  0  0  0  0  0  0  0  0  0
   -2.7480   22.6900  -28.3190 C   0  0  0  0  0  0  0  0  0  0  0  0
   -2.0720   23.9110  -28.4940 C   0  0  0  0  0  0  0  0  0  0  0  0
   -2.5740   24.9250  -29.3780 N   0  0  0  0  0  0  0  0  0  0  0  0
   -3.5600   24.7390  -30.3970 C   0  0  0  0  0  0  0  0  0  0  0  0
   -4.2700   25.7180  -30.7480 O   0  0  0  0  0  0  0  0  0  0  0  0
   -3.8100   23.4370  -30.9410 N   0  0  0  0  0  0  0  0  0  0  0  0
   -5.1070   22.8680  -31.1640 C   0  0  0  0  0  0  0  0  0  0  0  0
   -6.2230   23.6800  -30.9760 C   0  0  0  0  0  0  0  0  0  0  0  0
   -7.5000   23.1880  -31.2170 C   0  0  0  0  0  0  0  0  0  0  0  0
   -7.6910   21.8580  -31.6000 C   0  0  0  0  0  0  0  0  0  0  0  0
   -9.3460   21.3770  -31.9610 Cl  0  0  0  0  0  0  0  0  0  0  0  0
   -6.5800   20.9820  -31.7100 C   0  0  0  0  0  0  0  0  0  0  0  0
   -6.8020   19.2480  -32.0580 S   0  0  0  0  0  0  0  0  0  0  0  0
   -8.1860   18.7840  -31.6990 O   0  0  0  0  0  0  0  0  0  0  0  0
   -5.8390   18.4410  -31.2340 O   0  0  0  0  0  0  0  0  0  0  0  0
   -6.4710   18.9720  -33.7990 C   0  0  0  0  0  0  0  0  0  0  0  0
   -5.0410   18.5800  -34.1310 C   0  0  0  0  0  0  0  0  0  0  0  0
   -6.1440   17.5330  -34.1620 C   0  0  0  0  0  0  0  0  0  0  0  0
   -5.2730   21.5130  -31.5220 C   0  0  0  0  0  0  0  0  0  0  0  0
   -4.1270   20.7260  -31.6720 O   0  0  0  0  0  0  0  0  0  0  0  0
    0.5010   26.1680  -25.8390 C   0  0  0  0  0  0  0  0  0  0  0  0
    2.3990   25.3060  -24.1640 H   0  0  0  0  0  0  0  0  0  0  0  0
    2.4680   25.7020  -22.4190 H   0  0  0  0  0  0  0  0  0  0  0  0
    1.3270   27.6420  -21.6440 H   0  0  0  0  0  0  0  0  0  0  0  0
    0.2360   28.5900  -22.6930 H   0  0  0  0  0  0  0  0  0  0  0  0
    0.2020   29.3413  -24.5909 H   0  0  0  0  0  0  0  0  0  0  0  0
   -0.7561   29.7109  -26.8612 H   0  0  0  0  0  0  0  0  0  0  0  0
   -0.9155   27.8220  -28.4770 H   0  0  0  0  0  0  0  0  0  0  0  0
    0.6137   23.3071  -26.4526 H   0  0  0  0  0  0  0  0  0  0  0  0
   -0.6245   21.1685  -26.1179 H   0  0  0  0  0  0  0  0  0  0  0  0
   -2.7645   20.7602  -27.3322 H   0  0  0  0  0  0  0  0  0  0  0  0
   -3.6917   22.5056  -28.8533 H   0  0  0  0  0  0  0  0  0  0  0  0
   -6.0926   24.7175  -30.6345 H   0  0  0  0  0  0  0  0  0  0  0  0
   -8.3695   23.8525  -31.1051 H   0  0  0  0  0  0  0  0  0  0  0  0
   -7.1739   19.7323  -34.1703 H   0  0  0  0  0  0  0  0  0  0  0  0
   -4.5807   18.9220  -35.0697 H   0  0  0  0  0  0  0  0  0  0  0  0
   -4.0706   18.6729  -33.6214 H   0  0  0  0  0  0  0  0  0  0  0  0
   -6.4815   17.1178  -35.1231 H   0  0  0  0  0  0  0  0  0  0  0  0
   -6.3020   16.5549  -33.6841 H   0  0  0  0  0  0  0  0  0  0  0  0
   -3.1870   21.0560  -31.5130 H   0  0  0  0  0  0  0  0  0  0  0  0
    0.8721   25.1708  -25.5600 H   0  0  0  0  0  0  0  0  0  0  0  0
  1  2  1  0
  2  3  2  0
  2  4  1  0
  4  5  2  0
  5  6  1  0
  6  7  2  0
  7  8  1  0
  8  9  1  0
  9 10  1  0
 10 11  2  0
 11 12  1  0
 12 13  2  0
 13 14  1  0
 14 15  2  0
 15 16  1  0
 16 17  1  0
 17 18  2  0
 17 19  1  0
 19 20  1  0
 20 21  2  0
 21 22  1  0
 22 23  2  0
 23 24  1  0
 23 25  1  0
 25 26  1  0
 26 27  2  0
 26 28  2  0
 26 29  1  0
 29 30  1  0
 30 31  1  0
 25 32  2  0
 32 33  1  0
  8 34  2  0
 34  4  1  0
 15 10  1  0
 32 20  1  0
 31 29  1  0
  1 35  1  0
  1 36  1  0
  3 37  1  0
  3 38  1  0
  5 39  1  0
  6 40  1  0
  7 41  1  0
 11 42  1  0
 12 43  1  0
 13 44  1  0
 14 45  1  0
 21 46  1  0
 22 47  1  0
 29 48  1  0
 30 49  1  0
 30 50  1  0
 31 51  1  0
 31 52  1  0
 33 53  1  0
 34 54  1  0
M  CHG  3   3   1  16  -1  19  -1
M  END
>  <UniqueID>  (34) 
31

>  <SMILES>  (34) 
NC(=[NH2+])c1cccc(Oc2ccccc2[N-]C(=O)[N-]c2ccc(Cl)c(S(=O)(=O)C3CC3)c2O)c1

>  <Energy>  (34) 
344.6081342334047

>  <Genealogy>  (34) 
NC(=[NH2+])c1cccc(Oc2ccccc2[N-]C(=O)[N-]c2ccc(Cl)c(S(=O)(=O)C3CC3)c2O)c1 (protonated)
NC(=[NH2+])c1cccc(Oc2ccccc2[N-]C(=O)[N-]c2ccc(Cl)c(S(=O)(=O)C3CC3)c2O)c1 (3D coordinates assigned)
NC(=[NH2+])c1cccc(Oc2ccccc2[N-]C(=O)[N-]c2ccc(Cl)c(S(=O)(=O)C3CC3)c2O)c1 (nonaromatic ring conformer: 344.6081342334047 kcal/mol)

>  <smiles>  (34) 
N=C(N)c1cccc(Oc2ccccc2NC(=O)Nc2ccc(Cl)c(S(=O)(=O)C3CC3)c2O)c1

>  <score_type>  (34) 
oracle

>  <origin>  (34) 
adgpu

>  <m_score__min__energy>  (34) 
-14.31

>  <m_primary>  (34) 
energy

$$$$
34:0
     RDKit          3D

 51 54  0  0  0  0  0  0  0  0999 V2000
   -1.2480   21.2020  -32.7770 C   0  0  0  0  0  0  0  0  0  0  0  0
   -0.7610   20.0680  -31.9240 C   0  0  0  0  0  0  0  0  0  0  0  0
   -0.1680   18.9420  -32.5180 C   0  0  0  0  0  0  0  0  0  0  0  0
    0.3320   17.9070  -31.7240 C   0  0  0  0  0  0  0  0  0  0  0  0
    0.2480   17.9880  -30.3320 C   0  0  0  0  0  0  0  0  0  0  0  0
   -0.3390   19.1120  -29.7230 C   0  0  0  0  0  0  0  0  0  0  0  0
   -0.8240   20.1600  -30.5250 C   0  0  0  0  0  0  0  0  0  0  0  0
   -0.3720   19.1690  -28.2830 N   0  0  0  0  0  0  0  0  0  0  0  0
   -1.6140   20.0450  -27.4270 S   0  0  0  0  0  0  0  0  0  0  0  0
   -2.9450   19.3920  -27.6760 O   0  0  0  0  0  0  0  0  0  0  0  0
   -1.3320   20.0290  -25.9500 O   0  0  0  0  0  0  0  0  0  0  0  0
   -1.6520   21.7280  -27.9470 C   0  0  0  0  0  0  0  0  0  0  0  0
   -0.4970   22.5120  -27.8420 C   0  0  0  0  0  0  0  0  0  0  0  0
   -0.5030   23.8320  -28.2970 C   0  0  0  0  0  0  0  0  0  0  0  0
   -1.6570   24.3780  -28.8660 C   0  0  0  0  0  0  0  0  0  0  0  0
   -1.6260   25.6870  -29.3330 O   0  0  0  0  0  0  0  0  0  0  0  0
   -2.8260   23.5990  -28.9710 C   0  0  0  0  0  0  0  0  0  0  0  0
   -4.2940   24.2280  -29.7260 S   0  0  0  0  0  0  0  0  0  0  0  0
   -5.1650   24.8280  -28.6570 O   0  0  0  0  0  0  0  0  0  0  0  0
   -3.9560   25.3070  -30.7180 O   0  0  0  0  0  0  0  0  0  0  0  0
   -5.1530   22.9270  -30.5110 N   0  0  0  0  0  0  0  0  0  0  0  0
   -4.3420   22.3750  -31.6120 C   0  0  0  0  0  0  0  0  0  0  0  0
   -5.1840   21.4350  -32.4970 C   0  0  0  0  0  0  0  0  0  0  0  0
   -6.4050   21.1040  -31.8670 O   0  0  0  0  0  0  0  0  0  0  0  0
   -7.2010   22.2680  -31.7250 C   0  0  0  0  0  0  0  0  0  0  0  0
   -6.4420   23.4150  -31.0240 C   0  0  0  0  0  0  0  0  0  0  0  0
   -2.8110   22.2720  -28.5160 C   0  0  0  0  0  0  0  0  0  0  0  0
    0.5940   18.3450  -27.5490 C   0  0  0  0  0  0  0  0  0  0  0  0
    0.5770   16.9250  -28.1210 C   0  0  0  0  0  0  0  0  0  0  0  0
    0.7710   16.9600  -29.5370 O   0  0  0  0  0  0  0  0  0  0  0  0
   -1.5997   22.0210  -32.1323 H   0  0  0  0  0  0  0  0  0  0  0  0
   -0.4254   21.5627  -33.4121 H   0  0  0  0  0  0  0  0  0  0  0  0
   -2.0759   20.8538  -33.4121 H   0  0  0  0  0  0  0  0  0  0  0  0
   -0.0969   18.8747  -33.6136 H   0  0  0  0  0  0  0  0  0  0  0  0
    0.7927   17.0266  -32.1959 H   0  0  0  0  0  0  0  0  0  0  0  0
   -1.2547   21.0559  -30.0539 H   0  0  0  0  0  0  0  0  0  0  0  0
    0.4166   22.0875  -27.4004 H   0  0  0  0  0  0  0  0  0  0  0  0
    0.4055   24.4456  -28.2072 H   0  0  0  0  0  0  0  0  0  0  0  0
   -3.9594   23.2025  -32.2275 H   0  0  0  0  0  0  0  0  0  0  0  0
   -3.5091   21.7999  -31.1812 H   0  0  0  0  0  0  0  0  0  0  0  0
   -5.3968   21.9360  -33.4529 H   0  0  0  0  0  0  0  0  0  0  0  0
   -4.6145   20.5091  -32.6652 H   0  0  0  0  0  0  0  0  0  0  0  0
   -7.5117   22.6080  -32.7239 H   0  0  0  0  0  0  0  0  0  0  0  0
   -8.0688   22.0081  -31.1011 H   0  0  0  0  0  0  0  0  0  0  0  0
   -6.2633   24.2269  -31.7443 H   0  0  0  0  0  0  0  0  0  0  0  0
   -7.0468   23.7871  -30.1839 H   0  0  0  0  0  0  0  0  0  0  0  0
   -3.7163   21.6538  -28.6067 H   0  0  0  0  0  0  0  0  0  0  0  0
    1.6012   18.7737  -27.6571 H   0  0  0  0  0  0  0  0  0  0  0  0
    0.3244   18.3186  -26.4829 H   0  0  0  0  0  0  0  0  0  0  0  0
    1.3836   16.3374  -27.6583 H   0  0  0  0  0  0  0  0  0  0  0  0
   -0.3972   16.4626  -27.9038 H   0  0  0  0  0  0  0  0  0  0  0  0
  1  2  1  0
  2  3  2  0
  3  4  1  0
  4  5  2  0
  5  6  1  0
  6  7  2  0
  6  8  1  0
  8  9  1  0
  9 10  2  0
  9 11  2  0
  9 12  1  0
 12 13  2  0
 13 14  1  0
 14 15  2  0
 15 16  1  0
 15 17  1  0
 17 18  1  0
 18 19  2  0
 18 20  2  0
 18 21  1  0
 21 22  1  0
 22 23  1  0
 23 24  1  0
 24 25  1  0
 25 26  1  0
 17 27  2  0
  8 28  1  0
 28 29  1  0
 29 30  1  0
  7  2  1  0
 27 12  1  0
 30  5  1  0
 26 21  1  0
  1 31  1  0
  1 32  1  0
  1 33  1  0
  3 34  1  0
  4 35  1  0
  7 36  1  0
 13 37  1  0
 14 38  1  0
 22 39  1  0
 22 40  1  0
 23 41  1  0
 23 42  1  0
 25 43  1  0
 25 44  1  0
 26 45  1  0
 26 46  1  0
 27 47  1  0
 28 48  1  0
 28 49  1  0
 29 50  1  0
 29 51  1  0
M  CHG  1  16  -1
M  END
>  <UniqueID>  (35) 
32

>  <SMILES>  (35) 
Cc1ccc2c(c1)N(S(=O)(=O)c1ccc([O-])c(S(=O)(=O)N3CCOCC3)c1)CCO2

>  <Energy>  (35) 
65.46690662373744

>  <Genealogy>  (35) 
Cc1ccc2c(c1)N(S(=O)(=O)c1ccc([O-])c(S(=O)(=O)N3CCOCC3)c1)CCO2 (protonated)
Cc1ccc2c(c1)N(S(=O)(=O)c1ccc([O-])c(S(=O)(=O)N3CCOCC3)c1)CCO2 (3D coordinates assigned)
Cc1ccc2c(c1)N(S(=O)(=O)c1ccc([O-])c(S(=O)(=O)N3CCOCC3)c1)CCO2 (nonaromatic ring conformer: 65.46690662373744 kcal/mol)

>  <smiles>  (35) 
Cc1ccc2c(c1)N(S(=O)(=O)c1ccc(O)c(S(=O)(=O)N3CCOCC3)c1)CCO2

>  <score_type>  (35) 
oracle

>  <origin>  (35) 
adgpu

>  <m_score__min__energy>  (35) 
-13.08

>  <m_primary>  (35) 
energy

$$$$
35:0
     RDKit          3D

 62 66  0  0  0  0  0  0  0  0999 V2000
    0.6770   18.2050  -27.5450 C   0  0  0  0  0  0  0  0  0  0  0  0
    1.3420   16.9170  -27.6980 N   0  0  0  0  0  0  0  0  0  0  0  0
    0.9650   15.8570  -27.0020 N   0  0  0  0  0  0  0  0  0  0  0  0
    1.7350   14.8380  -27.4240 C   0  0  0  0  0  0  0  0  0  0  0  0
    1.6170   13.2080  -26.7940 S   0  0  0  0  0  0  0  0  0  0  0  0
    0.2760   13.1120  -25.6290 C   0  0  0  0  0  0  0  0  0  0  0  0
    1.3520   12.2530  -27.9240 O   0  0  0  0  0  0  0  0  0  0  0  0
    2.9080   12.8360  -26.1190 O   0  0  0  0  0  0  0  0  0  0  0  0
    2.6020   15.1990  -28.3890 N   0  0  0  0  0  0  0  0  0  0  0  0
    2.3300   16.5100  -28.5390 C   0  0  0  0  0  0  0  0  0  0  0  0
    2.9890   17.2340  -29.4050 N   0  0  0  0  0  0  0  0  0  0  0  0
    2.8960   18.9230  -29.7940 S   0  0  0  0  0  0  0  0  0  0  0  0
    3.2110   19.7720  -28.5940 O   0  0  0  0  0  0  0  0  0  0  0  0
    3.8280   19.2620  -30.9230 O   0  0  0  0  0  0  0  0  0  0  0  0
    1.2460   19.2610  -30.3090 C   0  0  0  0  0  0  0  0  0  0  0  0
    0.5770   18.3650  -31.1500 C   0  0  0  0  0  0  0  0  0  0  0  0
   -0.7420   18.6160  -31.5410 C   0  0  0  0  0  0  0  0  0  0  0  0
   -1.4150   19.7610  -31.0770 C   0  0  0  0  0  0  0  0  0  0  0  0
   -2.7670   20.0490  -31.4730 N   0  0  0  0  0  0  0  0  0  0  0  0
   -3.3420   21.3660  -31.4690 C   0  0  0  0  0  0  0  0  0  0  0  0
   -2.6000   22.3770  -31.3570 O   0  0  0  0  0  0  0  0  0  0  0  0
   -4.8030   21.5340  -31.6100 C   0  0  0  0  0  0  0  0  0  0  0  0
   -5.5860   20.6290  -32.2450 N   0  0  0  0  0  0  0  0  0  0  0  0
   -6.8470   21.0700  -32.1200 C   0  0  0  0  0  0  0  0  0  0  0  0
   -8.0030   20.4520  -32.5960 C   0  0  0  0  0  0  0  0  0  0  0  0
   -9.2380   21.0730  -32.3370 C   0  0  0  0  0  0  0  0  0  0  0  0
   -9.2910   22.2810  -31.6110 C   0  0  0  0  0  0  0  0  0  0  0  0
   -8.1100   22.8830  -31.1410 C   0  0  0  0  0  0  0  0  0  0  0  0
   -6.8950   22.2500  -31.4190 C   0  0  0  0  0  0  0  0  0  0  0  0
   -5.5880   22.5740  -31.0910 C   0  0  0  0  0  0  0  0  0  0  0  0
   -5.0420   24.0130  -30.2230 S   0  0  0  0  0  0  0  0  0  0  0  0
   -4.5350   25.0270  -31.2110 O   0  0  0  0  0  0  0  0  0  0  0  0
   -6.1800   24.6390  -29.4670 O   0  0  0  0  0  0  0  0  0  0  0  0
   -3.7760   23.5590  -29.0880 C   0  0  0  0  0  0  0  0  0  0  0  0
   -3.8580   22.3330  -28.4130 C   0  0  0  0  0  0  0  0  0  0  0  0
   -2.8560   21.9550  -27.5140 C   0  0  0  0  0  0  0  0  0  0  0  0
   -1.7690   22.8030  -27.2810 C   0  0  0  0  0  0  0  0  0  0  0  0
   -1.6830   24.0280  -27.9500 C   0  0  0  0  0  0  0  0  0  0  0  0
   -2.6840   24.4070  -28.8510 C   0  0  0  0  0  0  0  0  0  0  0  0
   -0.7340   20.6640  -30.2490 C   0  0  0  0  0  0  0  0  0  0  0  0
    0.5850   20.4110  -29.8570 C   0  0  0  0  0  0  0  0  0  0  0  0
    0.5597   18.4323  -26.4752 H   0  0  0  0  0  0  0  0  0  0  0  0
    1.2828   18.9894  -28.0222 H   0  0  0  0  0  0  0  0  0  0  0  0
   -0.3133   18.1653  -28.0222 H   0  0  0  0  0  0  0  0  0  0  0  0
    0.6770   13.1407  -24.6051 H   0  0  0  0  0  0  0  0  0  0  0  0
   -0.4032   13.9638  -25.7808 H   0  0  0  0  0  0  0  0  0  0  0  0
   -0.2750   12.1721  -25.7808 H   0  0  0  0  0  0  0  0  0  0  0  0
    1.0907   17.4594  -31.5051 H   0  0  0  0  0  0  0  0  0  0  0  0
   -1.2559   17.9146  -32.2148 H   0  0  0  0  0  0  0  0  0  0  0  0
   -3.3260   19.2720  -31.8940 H   0  0  0  0  0  0  0  0  0  0  0  0
   -5.2830   19.7410  -32.7050 H   0  0  0  0  0  0  0  0  0  0  0  0
   -7.9505   19.5073  -33.1571 H   0  0  0  0  0  0  0  0  0  0  0  0
  -10.1682   20.6138  -32.7029 H   0  0  0  0  0  0  0  0  0  0  0  0
  -10.2629   22.7557  -31.4109 H   0  0  0  0  0  0  0  0  0  0  0  0
   -8.1414   23.8237  -30.5717 H   0  0  0  0  0  0  0  0  0  0  0  0
   -4.7141   21.6657  -28.5913 H   0  0  0  0  0  0  0  0  0  0  0  0
   -2.9229   20.9902  -26.9899 H   0  0  0  0  0  0  0  0  0  0  0  0
   -0.9820   22.5067  -26.5719 H   0  0  0  0  0  0  0  0  0  0  0  0
   -0.8272   24.6945  -27.7676 H   0  0  0  0  0  0  0  0  0  0  0  0
   -2.6146   25.3719  -29.3746 H   0  0  0  0  0  0  0  0  0  0  0  0
   -1.2402   21.5780  -29.9050 H   0  0  0  0  0  0  0  0  0  0  0  0
    1.1046   21.1167  -29.1922 H   0  0  0  0  0  0  0  0  0  0  0  0
  1  2  1  0
  2  3  1  0
  3  4  2  0
  4  5  1  0
  5  6  1  0
  5  7  2  0
  5  8  2  0
  4  9  1  0
  9 10  1  0
 10 11  2  3
 11 12  1  0
 12 13  2  0
 12 14  2  0
 12 15  1  0
 15 16  2  0
 16 17  1  0
 17 18  2  0
 18 19  1  0
 19 20  1  0
 20 21  2  0
 20 22  1  0
 22 23  1  0
 23 24  1  0
 24 25  2  0
 25 26  1  0
 26 27  2  0
 27 28  1  0
 28 29  2  0
 29 30  1  0
 30 31  1  0
 31 32  2  0
 31 33  2  0
 31 34  1  0
 34 35  2  0
 35 36  1  0
 36 37  2  0
 37 38  1  0
 38 39  2  0
 18 40  1  0
 40 41  2  0
 10  2  1  0
 41 15  1  0
 30 22  2  0
 39 34  1  0
 29 24  1  0
  1 42  1  0
  1 43  1  0
  1 44  1  0
  6 45  1  0
  6 46  1  0
  6 47  1  0
 16 48  1  0
 17 49  1  0
 19 50  1  0
 23 51  1  0
 25 52  1  0
 26 53  1  0
 27 54  1  0
 28 55  1  0
 35 56  1  0
 36 57  1  0
 37 58  1  0
 38 59  1  0
 39 60  1  0
 40 61  1  0
 41 62  1  0
M  CHG  1   9  -1
M  END
>  <UniqueID>  (36) 
33

>  <SMILES>  (36) 
Cn1nc(S(C)(=O)=O)[n-]c1=NS(=O)(=O)c1ccc(NC(=O)c2[nH]c3ccccc3c2S(=O)(=O)c2ccccc2)cc1

>  <Energy>  (36) 
151.8232169690176

>  <Genealogy>  (36) 
Cn1nc(S(C)(=O)=O)[n-]c1=NS(=O)(=O)c1ccc(NC(=O)c2[nH]c3ccccc3c2S(=O)(=O)c2ccccc2)cc1 (protonated)
Cn1nc(S(C)(=O)=O)[n-]c1=NS(=O)(=O)c1ccc(NC(=O)c2[nH]c3ccccc3c2S(=O)(=O)c2ccccc2)cc1 (3D coordinates assigned)
Cn1nc(S(C)(=O)=O)[n-]c1=NS(=O)(=O)c1ccc(NC(=O)c2[nH]c3ccccc3c2S(=O)(=O)c2ccccc2)cc1 (optimized conformer: 151.8232169690176 kcal/mol)

>  <smiles>  (36) 
Cn1nc(S(C)(=O)=O)[nH]c1=NS(=O)(=O)c1ccc(NC(=O)c2[nH]c3ccccc3c2S(=O)(=O)c2ccccc2)cc1

>  <score_type>  (36) 
oracle

>  <origin>  (36) 
adgpu

>  <m_score__min__energy>  (36) 
-11.6

>  <m_primary>  (36) 
energy

$$$$
36:0
     RDKit          3D

 47 49  0  0  0  0  0  0  0  0999 V2000
   -0.7220   22.7440  -27.9680 C   0  0  0  0  0  0  0  0  0  0  0  0
   -1.3010   22.2520  -29.2710 C   0  0  0  0  0  0  0  0  0  0  0  0
   -0.8030   21.0510  -29.8060 C   0  0  0  0  0  0  0  0  0  0  0  0
   -1.2870   20.5550  -31.0130 C   0  0  0  0  0  0  0  0  0  0  0  0
   -2.2760   21.2480  -31.7080 C   0  0  0  0  0  0  0  0  0  0  0  0
   -2.7890   22.4550  -31.2040 C   0  0  0  0  0  0  0  0  0  0  0  0
   -3.8490   23.1240  -31.8990 N   0  0  0  0  0  0  0  0  0  0  0  0
   -5.5280   22.7540  -31.6790 S   0  0  0  0  0  0  0  0  0  0  0  0
   -6.3450   23.7430  -32.4610 O   0  0  0  0  0  0  0  0  0  0  0  0
   -5.8720   22.9060  -30.2240 O   0  0  0  0  0  0  0  0  0  0  0  0
   -5.9080   21.1090  -32.1800 C   0  0  0  0  0  0  0  0  0  0  0  0
   -5.1120   20.4620  -33.1340 C   0  0  0  0  0  0  0  0  0  0  0  0
   -5.3820   19.1380  -33.4950 C   0  0  0  0  0  0  0  0  0  0  0  0
   -6.4590   18.4490  -32.9140 C   0  0  0  0  0  0  0  0  0  0  0  0
   -6.7170   17.0640  -33.2040 N   0  0  0  0  0  0  0  0  0  0  0  0
   -5.7430   16.1410  -33.7210 C   0  0  0  0  0  0  0  0  0  0  0  0
   -4.6100   16.5540  -34.0910 O   0  0  0  0  0  0  0  0  0  0  0  0
   -6.0830   14.7060  -33.8820 C   0  0  0  0  0  0  0  0  0  0  0  0
   -7.2260   14.3440  -34.6210 C   0  0  0  0  0  0  0  0  0  0  0  0
   -7.5700   13.0010  -34.7890 C   0  0  0  0  0  0  0  0  0  0  0  0
   -6.7770   12.0000  -34.2280 C   0  0  0  0  0  0  0  0  0  0  0  0
   -5.6340   12.3390  -33.4990 C   0  0  0  0  0  0  0  0  0  0  0  0
   -5.2800   13.6840  -33.3220 C   0  0  0  0  0  0  0  0  0  0  0  0
   -3.8550   14.0380  -32.3440 Cl  0  0  0  0  0  0  0  0  0  0  0  0
   -7.2610   19.1080  -31.9700 C   0  0  0  0  0  0  0  0  0  0  0  0
   -6.9910   20.4300  -31.6090 C   0  0  0  0  0  0  0  0  0  0  0  0
   -2.2890   22.9830  -29.9870 C   0  0  0  0  0  0  0  0  0  0  0  0
   -2.8860   24.5480  -29.3660 S   0  0  0  0  0  0  0  0  0  0  0  0
   -3.8590   25.3080  -30.5770 N   0  0  0  0  0  0  0  0  0  0  0  0
   -3.7090   24.3230  -28.1270 O   0  0  0  0  0  0  0  0  0  0  0  0
   -1.7540   25.4700  -29.0030 O   0  0  0  0  0  0  0  0  0  0  0  0
   -1.2640   22.2835  -27.1288 H   0  0  0  0  0  0  0  0  0  0  0  0
    0.3417   22.4692  -27.9125 H   0  0  0  0  0  0  0  0  0  0  0  0
   -0.8215   23.8381  -27.9125 H   0  0  0  0  0  0  0  0  0  0  0  0
   -0.0220   20.4971  -29.2645 H   0  0  0  0  0  0  0  0  0  0  0  0
   -0.8879   19.6139  -31.4191 H   0  0  0  0  0  0  0  0  0  0  0  0
   -2.6580   20.8471  -32.6584 H   0  0  0  0  0  0  0  0  0  0  0  0
   -4.2718   20.9970  -33.6007 H   0  0  0  0  0  0  0  0  0  0  0  0
   -4.7471   18.6335  -34.2382 H   0  0  0  0  0  0  0  0  0  0  0  0
   -7.6950   16.7260  -33.0530 H   0  0  0  0  0  0  0  0  0  0  0  0
   -7.8542   15.1272  -35.0705 H   0  0  0  0  0  0  0  0  0  0  0  0
   -8.4679   12.7321  -35.3647 H   0  0  0  0  0  0  0  0  0  0  0  0
   -7.0515   10.9430  -34.3595 H   0  0  0  0  0  0  0  0  0  0  0  0
   -5.0088   11.5465  -33.0618 H   0  0  0  0  0  0  0  0  0  0  0  0
   -8.1092   18.5793  -31.5105 H   0  0  0  0  0  0  0  0  0  0  0  0
   -7.6313   20.9392  -30.8737 H   0  0  0  0  0  0  0  0  0  0  0  0
   -4.6950   24.7030  -30.7150 H   0  0  0  0  0  0  0  0  0  0  0  0
  1  2  1  0
  2  3  2  0
  3  4  1  0
  4  5  2  0
  5  6  1  0
  6  7  1  0
  7  8  1  0
  8  9  2  0
  8 10  2  0
  8 11  1  0
 11 12  2  0
 12 13  1  0
 13 14  2  0
 14 15  1  0
 15 16  1  0
 16 17  2  0
 16 18  1  0
 18 19  2  0
 19 20  1  0
 20 21  2  0
 21 22  1  0
 22 23  2  0
 23 24  1  0
 14 25  1  0
 25 26  2  0
  6 27  2  0
 27 28  1  0
 28 29  1  0
 28 30  2  0
 28 31  2  0
 27  2  1  0
 26 11  1  0
 23 18  1  0
  1 32  1  0
  1 33  1  0
  1 34  1  0
  3 35  1  0
  4 36  1  0
  5 37  1  0
 12 38  1  0
 13 39  1  0
 15 40  1  0
 19 41  1  0
 20 42  1  0
 21 43  1  0
 22 44  1  0
 25 45  1  0
 26 46  1  0
 29 47  1  0
M  CHG  2   7  -1  29  -1
M  END
>  <UniqueID>  (37) 
34

>  <SMILES>  (37) 
Cc1cccc([N-]S(=O)(=O)c2ccc(NC(=O)c3ccccc3Cl)cc2)c1S([NH-])(=O)=O

>  <Energy>  (37) 
69.3434236810136

>  <Genealogy>  (37) 
Cc1cccc([N-]S(=O)(=O)c2ccc(NC(=O)c3ccccc3Cl)cc2)c1S([NH-])(=O)=O (protonated)
Cc1cccc([N-]S(=O)(=O)c2ccc(NC(=O)c3ccccc3Cl)cc2)c1S([NH-])(=O)=O (3D coordinates assigned)
Cc1cccc([N-]S(=O)(=O)c2ccc(NC(=O)c3ccccc3Cl)cc2)c1S([NH-])(=O)=O (optimized conformer: 69.3434236810136 kcal/mol)

>  <smiles>  (37) 
Cc1cccc(NS(=O)(=O)c2ccc(NC(=O)c3ccccc3Cl)cc2)c1S(N)(=O)=O

>  <score_type>  (37) 
oracle

>  <origin>  (37) 
adgpu

>  <m_score__min__energy>  (37) 
-12.57

>  <m_primary>  (37) 
energy

$$$$
37:0
     RDKit          3D

 70 74  0  0  1  0  0  0  0  0999 V2000
   -0.5320   17.7780  -35.6890 C   0  0  0  0  0  0  0  0  0  0  0  0
   -0.7200   18.7720  -34.5940 C   0  0  0  0  0  0  0  0  0  0  0  0
    0.1950   19.7930  -34.4490 C   0  0  0  0  0  0  0  0  0  0  0  0
    0.0180   20.7130  -33.4370 C   0  0  0  0  0  0  0  0  0  0  0  0
   -1.0760   20.6060  -32.5720 C   0  0  0  0  0  0  0  0  0  0  0  0
   -1.1690   21.6000  -31.5670 N   0  0  0  0  0  0  0  0  0  0  0  0
   -1.6600   21.3560  -30.2560 C   0  0  0  0  0  0  0  0  0  0  0  0
   -2.0370   20.1910  -29.9660 O   0  0  0  0  0  0  0  0  0  0  0  0
   -1.7520   22.3850  -29.2280 C   0  0  0  0  0  0  0  0  0  0  0  0
   -2.3430   22.0450  -28.0290 C   0  0  0  0  0  0  0  0  0  0  0  0
   -2.4310   23.0160  -27.0550 C   0  0  0  0  0  0  0  0  0  0  0  0
   -1.9560   24.2880  -27.2460 C   0  0  0  0  0  0  0  0  0  0  0  0
   -2.0920   25.4950  -25.9690 S   0  0  0  0  0  0  0  0  0  0  0  0
   -3.5440   25.6080  -25.6110 O   0  0  0  0  0  0  0  0  0  0  0  0
   -1.6060   26.8190  -26.4560 O   0  0  0  0  0  0  0  0  0  0  0  0
   -1.1120   24.9800  -24.6660 N   0  0  0  0  0  0  0  0  0  0  0  0
   -0.7500   26.0170  -23.7530 C   0  0  0  0  0  0  0  0  0  0  0  0
    0.3540   26.9090  -24.2140 C   0  0  0  0  0  0  0  0  0  0  0  0
    1.4570   26.2060  -24.8260 N   0  0  0  0  0  0  0  0  0  0  0  0
    2.1800   27.2100  -25.6140 C   0  0  0  0  0  0  0  0  0  0  0  0
    1.0450   25.1700  -25.7260 C   0  0  0  0  0  0  0  0  0  0  0  0
    0.0280   24.2250  -25.1470 C   0  0  0  0  0  0  0  0  0  0  0  0
   -1.3680   24.6410  -28.4320 C   0  0  0  0  0  0  0  0  0  0  0  0
   -1.2780   23.6660  -29.4100 C   0  0  0  0  0  0  0  0  0  0  0  0
   -1.9870   19.5810  -32.7240 C   0  0  0  0  0  0  0  0  0  0  0  0
   -1.8140   18.6440  -33.7490 C   0  0  0  0  0  0  0  0  0  0  0  0
   -2.7910   17.5950  -33.8700 C   0  0  0  0  0  0  0  0  0  0  0  0
   -2.5630   16.5050  -33.2610 O   0  0  0  0  0  0  0  0  0  0  0  0
   -3.9940   17.6880  -34.6220 N   0  0  0  0  0  0  0  0  0  0  0  0
   -4.9200   18.5400  -34.2650 C   0  0  0  0  0  0  0  0  0  0  0  0
   -4.8400   19.3940  -33.1850 C   0  0  0  0  0  0  0  0  0  0  0  0
   -6.0030   20.1340  -33.1300 C   0  0  0  0  0  0  0  0  0  0  0  0
   -6.3390   21.1570  -32.1450 C   0  0  0  0  0  0  0  0  0  0  0  0
   -7.6090   21.2160  -31.6120 C   0  0  0  0  0  0  0  0  0  0  0  0
   -7.8890   22.2030  -30.6800 C   0  0  0  0  0  0  0  0  0  0  0  0
   -6.9220   23.1260  -30.2770 C   0  0  0  0  0  0  0  0  0  0  0  0
   -5.6510   23.0370  -30.8360 C   0  0  0  0  0  0  0  0  0  0  0  0
   -5.3710   22.0610  -31.7570 C   0  0  0  0  0  0  0  0  0  0  0  0
   -6.7530   19.7170  -34.1670 N   0  0  0  0  0  0  0  0  0  0  0  0
   -6.1130   18.7670  -34.8480 N   0  0  0  0  0  0  0  0  0  0  0  0
   -0.3442   16.7850  -35.2546 H   0  0  0  0  0  0  0  0  0  0  0  0
   -1.4390   17.7409  -36.3102 H   0  0  0  0  0  0  0  0  0  0  0  0
    0.3260   18.0747  -36.3102 H   0  0  0  0  0  0  0  0  0  0  0  0
    1.0543   19.8727  -35.1311 H   0  0  0  0  0  0  0  0  0  0  0  0
    0.7394   21.5336  -33.3096 H   0  0  0  0  0  0  0  0  0  0  0  0
   -0.8510   22.5600  -31.8270 H   0  0  0  0  0  0  0  0  0  0  0  0
   -2.7319   21.0307  -27.8557 H   0  0  0  0  0  0  0  0  0  0  0  0
   -2.8980   22.7620  -26.0920 H   0  0  0  0  0  0  0  0  0  0  0  0
   -1.6391   26.6395  -23.5744 H   0  0  0  0  0  0  0  0  0  0  0  0
   -0.3793   25.5131  -22.8482 H   0  0  0  0  0  0  0  0  0  0  0  0
   -0.0565   27.6166  -24.9494 H   0  0  0  0  0  0  0  0  0  0  0  0
    0.7522   27.4122  -23.3206 H   0  0  0  0  0  0  0  0  0  0  0  0
    2.6863   27.9131  -24.9362 H   0  0  0  0  0  0  0  0  0  0  0  0
    2.9268   26.7101  -26.2483 H   0  0  0  0  0  0  0  0  0  0  0  0
    1.4691   27.7598  -26.2483 H   0  0  0  0  0  0  0  0  0  0  0  0
    0.6099   25.6411  -26.6197 H   0  0  0  0  0  0  0  0  0  0  0  0
    1.9400   24.5729  -25.9549 H   0  0  0  0  0  0  0  0  0  0  0  0
   -0.3008   23.5189  -25.9237 H   0  0  0  0  0  0  0  0  0  0  0  0
    0.4780   23.6674  -24.3124 H   0  0  0  0  0  0  0  0  0  0  0  0
   -0.9832   25.6577  -28.6000 H   0  0  0  0  0  0  0  0  0  0  0  0
   -0.8093   23.9240  -30.3711 H   0  0  0  0  0  0  0  0  0  0  0  0
   -2.8463   19.5006  -32.0419 H   0  0  0  0  0  0  0  0  0  0  0  0
   -3.9936   19.4718  -32.4868 H   0  0  0  0  0  0  0  0  0  0  0  0
   -8.3822   20.4965  -31.9192 H   0  0  0  0  0  0  0  0  0  0  0  0
   -8.8985   22.2606  -30.2469 H   0  0  0  0  0  0  0  0  0  0  0  0
   -7.1590   23.9039  -29.5363 H   0  0  0  0  0  0  0  0  0  0  0  0
   -4.8692   23.7513  -30.5383 H   0  0  0  0  0  0  0  0  0  0  0  0
   -4.3627   21.9976  -32.1920 H   0  0  0  0  0  0  0  0  0  0  0  0
   -7.7010   20.0810  -34.4110 H   0  0  0  0  0  0  0  0  0  0  0  0
   -6.4800   18.2760  -35.6990 H   0  0  0  0  0  0  0  0  0  0  0  0
  1  2  1  0
  2  3  2  0
  3  4  1  0
  4  5  2  0
  5  6  1  0
  6  7  1  0
  7  8  2  0
  7  9  1  0
  9 10  2  0
 10 11  1  0
 11 12  2  0
 12 13  1  0
 13 14  2  0
 13 15  2  0
 13 16  1  0
 16 17  1  0
 17 18  1  0
 18 19  1  0
 19 20  1  0
 19 21  1  0
 21 22  1  0
 12 23  1  0
 23 24  2  0
  5 25  1  0
 25 26  2  0
 26 27  1  0
 27 28  2  0
 27 29  1  0
 29 30  2  0
 30 31  1  0
 31 32  2  0
 32 33  1  0
 33 34  2  0
 34 35  1  0
 35 36  2  0
 36 37  1  0
 37 38  2  0
 32 39  1  0
 39 40  1  0
 26  2  1  0
 40 30  1  0
 24  9  1  0
 38 33  1  0
 22 16  1  0
  1 41  1  0
  1 42  1  0
  1 43  1  0
  3 44  1  0
  4 45  1  0
  6 46  1  0
 10 47  1  0
 11 48  1  0
 17 49  1  0
 17 50  1  0
 18 51  1  0
 18 52  1  0
 20 53  1  0
 20 54  1  0
 20 55  1  0
 21 56  1  0
 21 57  1  0
 22 58  1  0
 22 59  1  0
 23 60  1  0
 24 61  1  0
 25 62  1  0
 31 63  1  0
 34 64  1  0
 35 65  1  0
 36 66  1  0
 37 67  1  0
 38 68  1  0
 39 69  1  0
 40 70  1  0
M  END
>  <smiles>  (38) 
Cc1ccc(NC(=O)c2ccc(S(=O)(=O)N3CCN(C)CC3)cc2)cc1C(=O)N=c1cc(-c2ccccc2)[nH][nH]1

>  <score_type>  (38) 
oracle

>  <origin>  (38) 
adgpu

>  <m_score__min__energy>  (38) 
-10.779999999999999

>  <m_primary>  (38) 
energy

$$$$
38:0
     RDKit          3D

 60 63  0  0  0  0  0  0  0  0999 V2000
   -6.0520   26.0420  -31.2940 O   0  0  0  0  0  0  0  0  0  0  0  0
   -5.5150   24.9430  -30.4190 S   0  0  0  0  0  0  0  0  0  0  0  0
   -5.8150   25.2780  -28.9850 O   0  0  0  0  0  0  0  0  0  0  0  0
   -3.7950   24.8390  -30.6220 N   0  0  0  0  0  0  0  0  0  0  0  0
   -2.9320   24.2710  -29.6370 C   0  0  0  0  0  0  0  0  0  0  0  0
   -3.0740   24.5910  -28.2780 C   0  0  0  0  0  0  0  0  0  0  0  0
   -2.2660   23.9710  -27.3220 C   0  0  0  0  0  0  0  0  0  0  0  0
   -1.2950   23.0390  -27.7180 C   0  0  0  0  0  0  0  0  0  0  0  0
   -0.3390   22.1860  -26.5060 S   0  0  0  0  0  0  0  0  0  0  0  0
   -0.7920   22.6040  -25.1350 O   0  0  0  0  0  0  0  0  0  0  0  0
    1.1090   22.5650  -26.6540 O   0  0  0  0  0  0  0  0  0  0  0  0
   -0.5080   20.4550  -26.6690 N   0  0  0  0  0  0  0  0  0  0  0  0
    0.2250   19.9800  -27.8620 C   0  0  0  0  0  0  0  0  0  0  0  0
   -0.1280   18.5200  -28.2300 C   0  0  0  0  0  0  0  0  0  0  0  0
   -0.8370   17.8020  -27.0790 C   0  0  0  0  0  0  0  0  0  0  0  0
   -2.1030   18.5620  -26.6510 C   0  0  0  0  0  0  0  0  0  0  0  0
   -1.9320   20.0890  -26.7470 C   0  0  0  0  0  0  0  0  0  0  0  0
   -1.1150   22.7640  -29.0810 C   0  0  0  0  0  0  0  0  0  0  0  0
   -1.9270   23.3820  -30.0350 C   0  0  0  0  0  0  0  0  0  0  0  0
   -6.3090   23.4270  -30.8470 C   0  0  0  0  0  0  0  0  0  0  0  0
   -7.6680   23.4220  -31.1860 C   0  0  0  0  0  0  0  0  0  0  0  0
   -8.2860   22.2380  -31.6010 C   0  0  0  0  0  0  0  0  0  0  0  0
   -7.5510   21.0450  -31.6640 C   0  0  0  0  0  0  0  0  0  0  0  0
   -8.3180   19.5540  -32.2180 S   0  0  0  0  0  0  0  0  0  0  0  0
   -8.8290   18.7910  -31.0280 O   0  0  0  0  0  0  0  0  0  0  0  0
   -9.4920   19.8980  -33.0910 O   0  0  0  0  0  0  0  0  0  0  0  0
   -7.2070   18.5500  -33.1180 N   0  0  0  0  0  0  0  0  0  0  0  0
   -6.2900   19.3830  -33.9080 C   0  0  0  0  0  0  0  0  0  0  0  0
   -5.2830   18.4930  -34.6690 C   0  0  0  0  0  0  0  0  0  0  0  0
   -5.4670   17.1180  -34.3780 O   0  0  0  0  0  0  0  0  0  0  0  0
   -5.3550   16.9090  -32.9830 C   0  0  0  0  0  0  0  0  0  0  0  0
   -6.4450   17.6790  -32.2080 C   0  0  0  0  0  0  0  0  0  0  0  0
   -6.1980   21.0460  -31.3000 C   0  0  0  0  0  0  0  0  0  0  0  0
   -5.5770   22.2330  -30.9000 C   0  0  0  0  0  0  0  0  0  0  0  0
   -3.8239   25.3323  -27.9647 H   0  0  0  0  0  0  0  0  0  0  0  0
   -2.3913   24.2140  -26.2565 H   0  0  0  0  0  0  0  0  0  0  0  0
   -0.0274   20.6295  -28.7132 H   0  0  0  0  0  0  0  0  0  0  0  0
    1.2999   20.0165  -27.6310 H   0  0  0  0  0  0  0  0  0  0  0  0
   -0.7892   18.5238  -29.1091 H   0  0  0  0  0  0  0  0  0  0  0  0
    0.8085   17.9840  -28.4437 H   0  0  0  0  0  0  0  0  0  0  0  0
   -1.1183   16.7899  -27.4054 H   0  0  0  0  0  0  0  0  0  0  0  0
   -0.1507   17.7537  -26.2207 H   0  0  0  0  0  0  0  0  0  0  0  0
   -2.9349   18.2581  -27.3034 H   0  0  0  0  0  0  0  0  0  0  0  0
   -2.3039   18.3127  -25.5986 H   0  0  0  0  0  0  0  0  0  0  0  0
   -2.3438   20.4397  -27.7048 H   0  0  0  0  0  0  0  0  0  0  0  0
   -2.4665   20.5599  -25.9088 H   0  0  0  0  0  0  0  0  0  0  0  0
   -0.3324   22.0598  -29.3999 H   0  0  0  0  0  0  0  0  0  0  0  0
   -1.7759   23.1690  -31.1036 H   0  0  0  0  0  0  0  0  0  0  0  0
   -8.2513   24.3526  -31.1256 H   0  0  0  0  0  0  0  0  0  0  0  0
   -9.3504   22.2424  -31.8785 H   0  0  0  0  0  0  0  0  0  0  0  0
   -6.8693   19.9762  -34.6308 H   0  0  0  0  0  0  0  0  0  0  0  0
   -5.7381   20.0512  -33.2306 H   0  0  0  0  0  0  0  0  0  0  0  0
   -5.4168   18.6487  -35.7497 H   0  0  0  0  0  0  0  0  0  0  0  0
   -4.2691   18.7761  -34.3498 H   0  0  0  0  0  0  0  0  0  0  0  0
   -5.4584   15.8342  -32.7729 H   0  0  0  0  0  0  0  0  0  0  0  0
   -4.3719   17.2784  -32.6558 H   0  0  0  0  0  0  0  0  0  0  0  0
   -7.1308   16.9595  -31.7369 H   0  0  0  0  0  0  0  0  0  0  0  0
   -5.9627   18.3019  -31.4403 H   0  0  0  0  0  0  0  0  0  0  0  0
   -5.6221   20.1092  -31.3291 H   0  0  0  0  0  0  0  0  0  0  0  0
   -4.5116   22.2298  -30.6263 H   0  0  0  0  0  0  0  0  0  0  0  0
  1  2  2  0
  2  3  2  0
  2  4  1  0
  4  5  1  0
  5  6  2  0
  6  7  1  0
  7  8  2  0
  8  9  1  0
  9 10  2  0
  9 11  2  0
  9 12  1  0
 12 13  1  0
 13 14  1  0
 14 15  1  0
 15 16  1  0
 16 17  1  0
  8 18  1  0
 18 19  2  0
  2 20  1  0
 20 21  2  0
 21 22  1  0
 22 23  2  0
 23 24  1  0
 24 25  2  0
 24 26  2  0
 24 27  1  0
 27 28  1  0
 28 29  1  0
 29 30  1  0
 30 31  1  0
 31 32  1  0
 23 33  1  0
 33 34  2  0
 19  5  1  0
 34 20  1  0
 17 12  1  0
 32 27  1  0
  6 35  1  0
  7 36  1  0
 13 37  1  0
 13 38  1  0
 14 39  1  0
 14 40  1  0
 15 41  1  0
 15 42  1  0
 16 43  1  0
 16 44  1  0
 17 45  1  0
 17 46  1  0
 18 47  1  0
 19 48  1  0
 21 49  1  0
 22 50  1  0
 28 51  1  0
 28 52  1  0
 29 53  1  0
 29 54  1  0
 31 55  1  0
 31 56  1  0
 32 57  1  0
 32 58  1  0
 33 59  1  0
 34 60  1  0
M  CHG  1   4  -1
M  END
>  <UniqueID>  (39) 
35

>  <SMILES>  (39) 
O=S(=O)([N-]c1ccc(S(=O)(=O)N2CCCCC2)cc1)c1ccc(S(=O)(=O)N2CCOCC2)cc1

>  <Energy>  (39) 
75.21006455553459

>  <Genealogy>  (39) 
O=S(=O)([N-]c1ccc(S(=O)(=O)N2CCCCC2)cc1)c1ccc(S(=O)(=O)N2CCOCC2)cc1 (protonated)
O=S(=O)([N-]c1ccc(S(=O)(=O)N2CCCCC2)cc1)c1ccc(S(=O)(=O)N2CCOCC2)cc1 (3D coordinates assigned)
O=S(=O)([N-]c1ccc(S(=O)(=O)N2CCCCC2)cc1)c1ccc(S(=O)(=O)N2CCOCC2)cc1 (nonaromatic ring conformer: 75.21006455553459 kcal/mol)

>  <smiles>  (39) 
O=S(=O)(Nc1ccc(S(=O)(=O)N2CCCCC2)cc1)c1ccc(S(=O)(=O)N2CCOCC2)cc1

>  <score_type>  (39) 
oracle

>  <origin>  (39) 
adgpu

>  <m_score__min__energy>  (39) 
-12.59

>  <m_primary>  (39) 
energy

$$$$
39:0
     RDKit          3D

 44 47  0  0  0  0  0  0  0  0999 V2000
   -9.8320   21.8140  -31.9030 C   0  0  0  0  0  0  0  0  0  0  0  0
   -8.5420   21.1670  -32.1240 N   0  0  0  0  0  0  0  0  0  0  0  0
   -8.3420   19.9690  -32.7200 C   0  0  0  0  0  0  0  0  0  0  0  0
   -6.9790   19.6880  -32.7900 C   0  0  0  0  0  0  0  0  0  0  0  0
   -6.3730   18.4660  -33.3620 C   0  0  0  0  0  0  0  0  0  0  0  0
   -5.3110   18.5500  -34.2770 C   0  0  0  0  0  0  0  0  0  0  0  0
   -4.7340   17.3900  -34.8010 C   0  0  0  0  0  0  0  0  0  0  0  0
   -5.2060   16.1230  -34.4130 C   0  0  0  0  0  0  0  0  0  0  0  0
   -4.6650   14.9260  -34.9070 O   0  0  0  0  0  0  0  0  0  0  0  0
   -4.1930   13.8430  -34.1080 C   0  0  0  0  0  0  0  0  0  0  0  0
   -3.1810   13.1940  -34.7870 F   0  0  0  0  0  0  0  0  0  0  0  0
   -3.6930   14.3200  -32.9100 F   0  0  0  0  0  0  0  0  0  0  0  0
   -5.2170   12.9470  -33.8680 F   0  0  0  0  0  0  0  0  0  0  0  0
   -6.2570   16.0410  -33.4920 C   0  0  0  0  0  0  0  0  0  0  0  0
   -6.8320   17.2000  -32.9650 C   0  0  0  0  0  0  0  0  0  0  0  0
   -6.3400   20.7840  -32.2300 C   0  0  0  0  0  0  0  0  0  0  0  0
   -4.9860   21.1000  -32.0990 C   0  0  0  0  0  0  0  0  0  0  0  0
   -4.6480   22.3330  -31.5160 C   0  0  0  0  0  0  0  0  0  0  0  0
   -5.6560   23.2280  -31.0870 C   0  0  0  0  0  0  0  0  0  0  0  0
   -5.2200   24.7780  -30.3780 S   0  0  0  0  0  0  0  0  0  0  0  0
   -5.7770   25.8920  -31.2170 O   0  0  0  0  0  0  0  0  0  0  0  0
   -5.7830   24.8540  -28.9860 O   0  0  0  0  0  0  0  0  0  0  0  0
   -3.4920   24.9170  -30.3240 N   0  0  0  0  0  0  0  0  0  0  0  0
   -2.7550   24.4700  -29.3540 C   0  0  0  0  0  0  0  0  0  0  0  0
   -3.1810   23.8160  -28.2120 C   0  0  0  0  0  0  0  0  0  0  0  0
   -2.0060   23.5650  -27.5290 C   0  0  0  0  0  0  0  0  0  0  0  0
   -0.9980   24.0400  -28.2300 O   0  0  0  0  0  0  0  0  0  0  0  0
   -1.4200   24.5890  -29.3310 N   0  0  0  0  0  0  0  0  0  0  0  0
   -7.0140   22.8960  -31.2600 C   0  0  0  0  0  0  0  0  0  0  0  0
   -7.3220   21.6610  -31.8370 C   0  0  0  0  0  0  0  0  0  0  0  0
  -10.0156   21.9061  -30.8224 H   0  0  0  0  0  0  0  0  0  0  0  0
   -9.8235   22.8145  -32.3601 H   0  0  0  0  0  0  0  0  0  0  0  0
  -10.6288   21.2089  -32.3601 H   0  0  0  0  0  0  0  0  0  0  0  0
   -9.1402   19.3116  -33.0952 H   0  0  0  0  0  0  0  0  0  0  0  0
   -4.9307   19.5356  -34.5834 H   0  0  0  0  0  0  0  0  0  0  0  0
   -3.9060   17.4682  -35.5210 H   0  0  0  0  0  0  0  0  0  0  0  0
   -6.6334   15.0554  -33.1805 H   0  0  0  0  0  0  0  0  0  0  0  0
   -7.6500   17.1201  -32.2339 H   0  0  0  0  0  0  0  0  0  0  0  0
   -4.2066   20.4038  -32.4423 H   0  0  0  0  0  0  0  0  0  0  0  0
   -3.5894   22.6049  -31.3920 H   0  0  0  0  0  0  0  0  0  0  0  0
   -4.2089   23.5575  -27.9178 H   0  0  0  0  0  0  0  0  0  0  0  0
   -1.9262   23.0525  -26.5590 H   0  0  0  0  0  0  0  0  0  0  0  0
   -0.8100   25.0360  -30.0510 H   0  0  0  0  0  0  0  0  0  0  0  0
   -7.8096   23.5893  -30.9497 H   0  0  0  0  0  0  0  0  0  0  0  0
  1  2  1  0
  2  3  1  0
  3  4  2  0
  4  5  1  0
  5  6  2  0
  6  7  1  0
  7  8  2  0
  8  9  1  0
  9 10  1  0
 10 11  1  0
 10 12  1  0
 10 13  1  0
  8 14  1  0
 14 15  2  0
  4 16  1  0
 16 17  2  0
 17 18  1  0
 18 19  2  0
 19 20  1  0
 20 21  2  0
 20 22  2  0
 20 23  1  0
 23 24  2  3
 24 25  1  0
 25 26  2  0
 26 27  1  0
 27 28  1  0
 19 29  1  0
 29 30  2  0
 30  2  1  0
 15  5  1  0
 30 16  1  0
 28 24  1  0
  1 31  1  0
  1 32  1  0
  1 33  1  0
  3 34  1  0
  6 35  1  0
  7 36  1  0
 14 37  1  0
 15 38  1  0
 17 39  1  0
 18 40  1  0
 25 41  1  0
 26 42  1  0
 28 43  1  0
 29 44  1  0
M  END
>  <UniqueID>  (40) 
36

>  <SMILES>  (40) 
Cn1cc(-c2ccc(OC(F)(F)F)cc2)c2ccc(S(=O)(=O)N=c3cco[nH]3)cc21

>  <Energy>  (40) 
122.03656479746775

>  <Genealogy>  (40) 
Cn1cc(-c2ccc(OC(F)(F)F)cc2)c2ccc(S(=O)(=O)N=c3cco[nH]3)cc21 (3D coordinates assigned)
Cn1cc(-c2ccc(OC(F)(F)F)cc2)c2ccc(S(=O)(=O)N=c3cco[nH]3)cc21 (optimized conformer: 122.03656479746775 kcal/mol)

>  <smiles>  (40) 
Cn1cc(-c2ccc(OC(F)(F)F)cc2)c2ccc(S(=O)(=O)N=c3cco[nH]3)cc21

>  <score_type>  (40) 
oracle

>  <origin>  (40) 
adgpu

>  <m_score__min__energy>  (40) 
-9.1099999999999994

>  <m_primary>  (40) 
energy

$$$$
40:0
     RDKit          3D

 52 55  0  0  0  0  0  0  0  0999 V2000
   -3.4520   18.7930  -26.0120 C   0  0  0  0  0  0  0  0  0  0  0  0
   -2.1950   19.1610  -26.5670 O   0  0  0  0  0  0  0  0  0  0  0  0
   -1.9420   20.3750  -27.2220 C   0  0  0  0  0  0  0  0  0  0  0  0
   -2.3070   20.4930  -28.5670 C   0  0  0  0  0  0  0  0  0  0  0  0
   -2.0820   21.6820  -29.2630 C   0  0  0  0  0  0  0  0  0  0  0  0
   -1.4920   22.7810  -28.6170 C   0  0  0  0  0  0  0  0  0  0  0  0
   -1.2740   24.0710  -29.3640 C   0  0  0  0  0  0  0  0  0  0  0  0
   -2.3650   25.0050  -29.1140 N   0  0  0  0  0  0  0  0  0  0  0  0
   -3.6560   24.8950  -29.7250 C   0  0  0  0  0  0  0  0  0  0  0  0
   -3.8810   25.4220  -30.8490 O   0  0  0  0  0  0  0  0  0  0  0  0
   -4.7340   24.1210  -29.0380 C   0  0  0  0  0  0  0  0  0  0  0  0
   -6.2110   23.9900  -30.1050 S   0  0  0  0  0  0  0  0  0  0  0  0
   -5.5950   22.5840  -31.0290 C   0  0  0  0  0  0  0  0  0  0  0  0
   -6.3970   21.6140  -31.5100 N   0  0  0  0  0  0  0  0  0  0  0  0
   -5.5490   20.7620  -32.1140 C   0  0  0  0  0  0  0  0  0  0  0  0
   -5.9900   19.4850  -32.7160 C   0  0  0  0  0  0  0  0  0  0  0  0
   -6.7740   18.5940  -31.9640 C   0  0  0  0  0  0  0  0  0  0  0  0
   -7.1870   17.3770  -32.5190 C   0  0  0  0  0  0  0  0  0  0  0  0
   -6.8090   17.0330  -33.8190 C   0  0  0  0  0  0  0  0  0  0  0  0
   -6.0110   17.9040  -34.5660 C   0  0  0  0  0  0  0  0  0  0  0  0
   -5.5960   19.1210  -34.0160 C   0  0  0  0  0  0  0  0  0  0  0  0
   -4.2550   21.2500  -31.9890 C   0  0  0  0  0  0  0  0  0  0  0  0
   -3.0150   20.7010  -32.5700 C   0  0  0  0  0  0  0  0  0  0  0  0
   -2.7120   19.3320  -32.4610 C   0  0  0  0  0  0  0  0  0  0  0  0
   -1.5380   18.8240  -33.0240 C   0  0  0  0  0  0  0  0  0  0  0  0
   -0.6610   19.6750  -33.7030 C   0  0  0  0  0  0  0  0  0  0  0  0
   -0.9660   21.0340  -33.8350 C   0  0  0  0  0  0  0  0  0  0  0  0
   -2.1410   21.5450  -33.2760 C   0  0  0  0  0  0  0  0  0  0  0  0
   -4.2860   22.4020  -31.2960 N   0  0  0  0  0  0  0  0  0  0  0  0
   -1.1150   22.6650  -27.2700 C   0  0  0  0  0  0  0  0  0  0  0  0
   -1.3390   21.4720  -26.5750 C   0  0  0  0  0  0  0  0  0  0  0  0
   -3.3877   18.8118  -24.9140 H   0  0  0  0  0  0  0  0  0  0  0  0
   -4.2225   19.5033  -26.3464 H   0  0  0  0  0  0  0  0  0  0  0  0
   -3.7178   17.7793  -26.3464 H   0  0  0  0  0  0  0  0  0  0  0  0
   -2.7757   19.6410  -29.0812 H   0  0  0  0  0  0  0  0  0  0  0  0
   -2.3681   21.7587  -30.3224 H   0  0  0  0  0  0  0  0  0  0  0  0
   -0.3282   24.5243  -29.0324 H   0  0  0  0  0  0  0  0  0  0  0  0
   -1.2370   23.8525  -30.4414 H   0  0  0  0  0  0  0  0  0  0  0  0
   -4.3635   23.1112  -28.8079 H   0  0  0  0  0  0  0  0  0  0  0  0
   -5.0112   24.6448  -28.1113 H   0  0  0  0  0  0  0  0  0  0  0  0
   -7.0644   18.8537  -30.9353 H   0  0  0  0  0  0  0  0  0  0  0  0
   -7.8112   16.6894  -31.9295 H   0  0  0  0  0  0  0  0  0  0  0  0
   -7.1389   16.0781  -34.2541 H   0  0  0  0  0  0  0  0  0  0  0  0
   -5.7089   17.6318  -35.5881 H   0  0  0  0  0  0  0  0  0  0  0  0
   -4.9578   19.7974  -34.6036 H   0  0  0  0  0  0  0  0  0  0  0  0
   -3.4015   18.6586  -31.9307 H   0  0  0  0  0  0  0  0  0  0  0  0
   -1.3037   17.7531  -32.9327 H   0  0  0  0  0  0  0  0  0  0  0  0
    0.2692   19.2759  -34.1336 H   0  0  0  0  0  0  0  0  0  0  0  0
   -0.2808   21.7008  -34.3790 H   0  0  0  0  0  0  0  0  0  0  0  0
   -2.3824   22.6122  -33.3893 H   0  0  0  0  0  0  0  0  0  0  0  0
   -0.6413   23.5160  -26.7587 H   0  0  0  0  0  0  0  0  0  0  0  0
   -1.0431   21.3898  -25.5187 H   0  0  0  0  0  0  0  0  0  0  0  0
  1  2  1  0
  2  3  1  0
  3  4  2  0
  4  5  1  0
  5  6  2  0
  6  7  1  0
  7  8  1  0
  8  9  1  0
  9 10  2  0
  9 11  1  0
 11 12  1  0
 12 13  1  0
 13 14  2  0
 14 15  1  0
 15 16  1  0
 16 17  2  0
 17 18  1  0
 18 19  2  0
 19 20  1  0
 20 21  2  0
 15 22  2  0
 22 23  1  0
 23 24  2  0
 24 25  1  0
 25 26  2  0
 26 27  1  0
 27 28  2  0
 22 29  1  0
  6 30  1  0
 30 31  2  0
 31  3  1  0
 29 13  1  0
 21 16  1  0
 28 23  1  0
  1 32  1  0
  1 33  1  0
  1 34  1  0
  4 35  1  0
  5 36  1  0
  7 37  1  0
  7 38  1  0
 11 39  1  0
 11 40  1  0
 17 41  1  0
 18 42  1  0
 19 43  1  0
 20 44  1  0
 21 45  1  0
 24 46  1  0
 25 47  1  0
 26 48  1  0
 27 49  1  0
 28 50  1  0
 30 51  1  0
 31 52  1  0
M  CHG  2   8  -1  29  -1
M  END
>  <UniqueID>  (41) 
37

>  <SMILES>  (41) 
COc1ccc(C[N-]C(=O)CSc2nc(-c3ccccc3)c(-c3ccccc3)[n-]2)cc1

>  <Energy>  (41) 
83.07226081367304

>  <Genealogy>  (41) 
COc1ccc(C[N-]C(=O)CSc2nc(-c3ccccc3)c(-c3ccccc3)[n-]2)cc1 (protonated)
COc1ccc(C[N-]C(=O)CSc2nc(-c3ccccc3)c(-c3ccccc3)[n-]2)cc1 (3D coordinates assigned)
COc1ccc(C[N-]C(=O)CSc2nc(-c3ccccc3)c(-c3ccccc3)[n-]2)cc1 (optimized conformer: 83.07226081367304 kcal/mol)

>  <smiles>  (41) 
COc1ccc(CNC(=O)CSc2nc(-c3ccccc3)c(-c3ccccc3)[nH]2)cc1

>  <score_type>  (41) 
oracle

>  <origin>  (41) 
adgpu

>  <m_score__min__energy>  (41) 
-11.109999999999999

>  <m_primary>  (41) 
energy

$$$$
41:0
     RDKit          3D

 48 51  0  0  0  0  0  0  0  0999 V2000
   -2.3990   23.3080  -29.4110 O   0  0  0  0  0  0  0  0  0  0  0  0
   -2.5670   24.5570  -29.4320 C   0  0  0  0  0  0  0  0  0  0  0  0
   -1.4880   25.3930  -28.9960 N   0  0  0  0  0  0  0  0  0  0  0  0
   -1.3320   25.9290  -27.6460 C   0  0  0  0  0  0  0  0  0  0  0  0
   -0.8460   24.8760  -26.6810 C   0  0  0  0  0  0  0  0  0  0  0  0
   -0.4790   23.5990  -27.1410 C   0  0  0  0  0  0  0  0  0  0  0  0
   -0.1360   22.6030  -26.2240 C   0  0  0  0  0  0  0  0  0  0  0  0
   -0.1660   22.8720  -24.8910 N   0  0  0  0  0  0  0  0  0  0  0  0
   -0.5170   24.1000  -24.4140 C   0  0  0  0  0  0  0  0  0  0  0  0
   -0.8690   25.1230  -25.2990 C   0  0  0  0  0  0  0  0  0  0  0  0
   -3.8260   25.1240  -29.8470 N   0  0  0  0  0  0  0  0  0  0  0  0
   -5.0030   24.3750  -30.2220 C   0  0  0  0  0  0  0  0  0  0  0  0
   -5.5160   23.4270  -29.3170 C   0  0  0  0  0  0  0  0  0  0  0  0
   -6.6590   22.6860  -29.6320 C   0  0  0  0  0  0  0  0  0  0  0  0
   -7.3090   22.8790  -30.8610 C   0  0  0  0  0  0  0  0  0  0  0  0
   -8.7430   21.9400  -31.2710 S   0  0  0  0  0  0  0  0  0  0  0  0
   -9.5020   22.6400  -32.3640 O   0  0  0  0  0  0  0  0  0  0  0  0
   -9.6230   21.8290  -30.0580 O   0  0  0  0  0  0  0  0  0  0  0  0
   -8.2870   20.3540  -31.8070 N   0  0  0  0  0  0  0  0  0  0  0  0
   -9.0910   19.1470  -31.6280 C   0  0  0  0  0  0  0  0  0  0  0  0
   -8.3210   18.0160  -32.3510 C   0  0  0  0  0  0  0  0  0  0  0  0
   -7.0620   18.6850  -32.7920 C   0  0  0  0  0  0  0  0  0  0  0  0
   -5.9690   18.1170  -33.4500 C   0  0  0  0  0  0  0  0  0  0  0  0
   -4.8760   18.9440  -33.7720 C   0  0  0  0  0  0  0  0  0  0  0  0
   -4.8980   20.3110  -33.4350 C   0  0  0  0  0  0  0  0  0  0  0  0
   -6.0140   20.8600  -32.7820 C   0  0  0  0  0  0  0  0  0  0  0  0
   -7.0880   20.0150  -32.4740 C   0  0  0  0  0  0  0  0  0  0  0  0
   -6.8250   23.8440  -31.7570 C   0  0  0  0  0  0  0  0  0  0  0  0
   -5.6950   24.6000  -31.4360 C   0  0  0  0  0  0  0  0  0  0  0  0
   -0.6036   26.7529  -27.6714 H   0  0  0  0  0  0  0  0  0  0  0  0
   -2.3149   26.2828  -27.3015 H   0  0  0  0  0  0  0  0  0  0  0  0
   -0.4621   23.3851  -28.2199 H   0  0  0  0  0  0  0  0  0  0  0  0
    0.1575   21.6040  -26.5787 H   0  0  0  0  0  0  0  0  0  0  0  0
   -0.5232   24.2862  -23.3299 H   0  0  0  0  0  0  0  0  0  0  0  0
   -1.1612   26.1121  -24.9165 H   0  0  0  0  0  0  0  0  0  0  0  0
   -3.9270   26.1690  -29.8120 H   0  0  0  0  0  0  0  0  0  0  0  0
   -5.0126   23.2675  -28.3521 H   0  0  0  0  0  0  0  0  0  0  0  0
   -7.0501   21.9496  -28.9145 H   0  0  0  0  0  0  0  0  0  0  0  0
   -9.1989   18.9138  -30.5584 H   0  0  0  0  0  0  0  0  0  0  0  0
  -10.1047   19.2717  -32.0364 H   0  0  0  0  0  0  0  0  0  0  0  0
   -8.1055   17.1844  -31.6640 H   0  0  0  0  0  0  0  0  0  0  0  0
   -8.8877   17.5736  -33.1836 H   0  0  0  0  0  0  0  0  0  0  0  0
   -5.9622   17.0483  -33.7107 H   0  0  0  0  0  0  0  0  0  0  0  0
   -4.0019   18.5208  -34.2886 H   0  0  0  0  0  0  0  0  0  0  0  0
   -4.0386   20.9510  -33.6839 H   0  0  0  0  0  0  0  0  0  0  0  0
   -6.0438   21.9276  -32.5189 H   0  0  0  0  0  0  0  0  0  0  0  0
   -7.3376   24.0061  -32.7167 H   0  0  0  0  0  0  0  0  0  0  0  0
   -5.3407   25.3753  -32.1313 H   0  0  0  0  0  0  0  0  0  0  0  0
  1  2  2  0
  2  3  1  0
  3  4  1  0
  4  5  1  0
  5  6  2  0
  6  7  1  0
  7  8  2  0
  8  9  1  0
  9 10  2  0
  2 11  1  0
 11 12  1  0
 12 13  2  0
 13 14  1  0
 14 15  2  0
 15 16  1  0
 16 17  2  0
 16 18  2  0
 16 19  1  0
 19 20  1  0
 20 21  1  0
 21 22  1  0
 22 23  2  0
 23 24  1  0
 24 25  2  0
 25 26  1  0
 26 27  2  0
 15 28  1  0
 28 29  2  0
 10  5  1  0
 29 12  1  0
 27 19  1  0
 27 22  1  0
  4 30  1  0
  4 31  1  0
  6 32  1  0
  7 33  1  0
  9 34  1  0
 10 35  1  0
 11 36  1  0
 13 37  1  0
 14 38  1  0
 20 39  1  0
 20 40  1  0
 21 41  1  0
 21 42  1  0
 23 43  1  0
 24 44  1  0
 25 45  1  0
 26 46  1  0
 28 47  1  0
 29 48  1  0
M  CHG  1   3  -1
M  END
>  <UniqueID>  (42) 
38

>  <SMILES>  (42) 
O=C([N-]Cc1ccncc1)Nc1ccc(S(=O)(=O)N2CCc3ccccc32)cc1

>  <Energy>  (42) 
73.74557353455256

>  <Genealogy>  (42) 
O=C([N-]Cc1ccncc1)Nc1ccc(S(=O)(=O)N2CCc3ccccc32)cc1 (protonated)
O=C([N-]Cc1ccncc1)Nc1ccc(S(=O)(=O)N2CCc3ccccc32)cc1 (3D coordinates assigned)
O=C([N-]Cc1ccncc1)Nc1ccc(S(=O)(=O)N2CCc3ccccc32)cc1 (nonaromatic ring conformer: 73.74557353455256 kcal/mol)

>  <smiles>  (42) 
O=C(NCc1ccncc1)Nc1ccc(S(=O)(=O)N2CCc3ccccc32)cc1

>  <score_type>  (42) 
oracle

>  <origin>  (42) 
adgpu

>  <m_score__min__energy>  (42) 
-11.85

>  <m_primary>  (42) 
energy

$$$$
42:0
     RDKit          3D

 58 61  0  0  0  0  0  0  0  0999 V2000
    1.2140   27.6520  -23.2930 C   0  0  0  0  0  0  0  0  0  0  0  0
    0.8330   26.5870  -24.2360 N   0  0  0  0  0  0  0  0  0  0  0  0
    1.7900   25.4560  -24.1620 C   0  0  0  0  0  0  0  0  0  0  0  0
    1.1710   24.0850  -24.5240 C   0  0  0  0  0  0  0  0  0  0  0  0
    0.0120   24.1660  -25.4350 N   0  0  0  0  0  0  0  0  0  0  0  0
    0.4660   24.1880  -27.1260 S   0  0  0  0  0  0  0  0  0  0  0  0
    1.0790   25.5210  -27.4570 O   0  0  0  0  0  0  0  0  0  0  0  0
    1.5070   23.1320  -27.3720 O   0  0  0  0  0  0  0  0  0  0  0  0
   -0.9040   23.9000  -28.1970 C   0  0  0  0  0  0  0  0  0  0  0  0
   -0.8960   22.8090  -29.0760 C   0  0  0  0  0  0  0  0  0  0  0  0
   -1.9910   22.5670  -29.9100 C   0  0  0  0  0  0  0  0  0  0  0  0
   -3.1130   23.4180  -29.8820 C   0  0  0  0  0  0  0  0  0  0  0  0
   -4.2880   23.1730  -30.7560 C   0  0  0  0  0  0  0  0  0  0  0  0
   -4.6710   21.8750  -31.1310 C   0  0  0  0  0  0  0  0  0  0  0  0
   -5.7970   21.7060  -31.9530 C   0  0  0  0  0  0  0  0  0  0  0  0
   -6.2350   20.3930  -32.3650 N   0  0  0  0  0  0  0  0  0  0  0  0
   -7.6740   20.1270  -32.5210 C   0  0  0  0  0  0  0  0  0  0  0  0
   -7.9810   18.6540  -32.2340 C   0  0  0  0  0  0  0  0  0  0  0  0
   -7.1480   17.6880  -33.1010 C   0  0  0  0  0  0  0  0  0  0  0  0
   -5.8490   18.3080  -33.6690 C   0  0  1  0  0  0  0  0  0  0  0  0
   -6.1120   18.9370  -34.9680 N   0  0  0  0  0  0  0  0  0  0  0  0
   -5.2570   19.3410  -32.6930 C   0  0  0  0  0  0  0  0  0  0  0  0
   -6.4950   22.8060  -32.3490 N   0  0  0  0  0  0  0  0  0  0  0  0
   -6.1230   24.0540  -31.9720 C   0  0  0  0  0  0  0  0  0  0  0  0
   -5.0320   24.2300  -31.1830 N   0  0  0  0  0  0  0  0  0  0  0  0
   -3.0980   24.5300  -29.0220 C   0  0  0  0  0  0  0  0  0  0  0  0
   -2.0020   24.7680  -28.1890 C   0  0  0  0  0  0  0  0  0  0  0  0
   -1.0040   25.1830  -25.0860 C   0  0  0  0  0  0  0  0  0  0  0  0
   -0.5470   26.1450  -23.9790 C   0  0  0  0  0  0  0  0  0  0  0  0
    1.0852   27.2919  -22.2616 H   0  0  0  0  0  0  0  0  0  0  0  0
    2.2664   27.9273  -23.4565 H   0  0  0  0  0  0  0  0  0  0  0  0
    0.5751   28.5324  -23.4565 H   0  0  0  0  0  0  0  0  0  0  0  0
    0.8740   27.0030  -25.1950 H   0  0  0  0  0  0  0  0  0  0  0  0
    2.6177   25.6568  -24.8582 H   0  0  0  0  0  0  0  0  0  0  0  0
    2.1240   25.3889  -23.1161 H   0  0  0  0  0  0  0  0  0  0  0  0
    1.9470   23.4727  -25.0066 H   0  0  0  0  0  0  0  0  0  0  0  0
    0.8046   23.6456  -23.5845 H   0  0  0  0  0  0  0  0  0  0  0  0
   -0.0237   22.1397  -29.1098 H   0  0  0  0  0  0  0  0  0  0  0  0
   -1.9765   21.7053  -30.5936 H   0  0  0  0  0  0  0  0  0  0  0  0
   -4.0969   21.0026  -30.7856 H   0  0  0  0  0  0  0  0  0  0  0  0
   -8.2372   20.7579  -31.8176 H   0  0  0  0  0  0  0  0  0  0  0  0
   -7.9684   20.3569  -33.5556 H   0  0  0  0  0  0  0  0  0  0  0  0
   -7.7650   18.4502  -31.1748 H   0  0  0  0  0  0  0  0  0  0  0  0
   -9.0407   18.4843  -32.4753 H   0  0  0  0  0  0  0  0  0  0  0  0
   -6.8749   16.8189  -32.4845 H   0  0  0  0  0  0  0  0  0  0  0  0
   -7.7737   17.4173  -33.9643 H   0  0  0  0  0  0  0  0  0  0  0  0
   -5.1154   17.4994  -33.8027 H   0  0  0  0  0  0  0  0  0  0  0  0
   -6.8750   19.6420  -34.8460 H   0  0  0  0  0  0  0  0  0  0  0  0
   -6.4980   18.2130  -35.6160 H   0  0  0  0  0  0  0  0  0  0  0  0
   -4.9588   18.8282  -31.7667 H   0  0  0  0  0  0  0  0  0  0  0  0
   -4.3884   19.8139  -33.1745 H   0  0  0  0  0  0  0  0  0  0  0  0
   -6.7058   24.9252  -32.3057 H   0  0  0  0  0  0  0  0  0  0  0  0
   -3.9560   25.2181  -29.0048 H   0  0  0  0  0  0  0  0  0  0  0  0
   -2.0020   25.6431  -27.5226 H   0  0  0  0  0  0  0  0  0  0  0  0
   -1.2328   25.7712  -25.9869 H   0  0  0  0  0  0  0  0  0  0  0  0
   -1.8854   24.6454  -24.7064 H   0  0  0  0  0  0  0  0  0  0  0  0
   -1.2125   27.0206  -23.9594 H   0  0  0  0  0  0  0  0  0  0  0  0
   -0.5859   25.6258  -23.0100 H   0  0  0  0  0  0  0  0  0  0  0  0
  1  2  1  0
  2  3  1  0
  3  4  1  0
  4  5  1  0
  5  6  1  0
  6  7  2  0
  6  8  2  0
  6  9  1  0
  9 10  2  0
 10 11  1  0
 11 12  2  0
 12 13  1  0
 13 14  2  0
 14 15  1  0
 15 16  1  0
 16 17  1  0
 17 18  1  0
 18 19  1  0
 19 20  1  0
 20 21  1  0
 20 22  1  0
 15 23  2  0
 23 24  1  0
 24 25  2  0
 12 26  1  0
 26 27  2  0
  5 28  1  0
 28 29  1  0
 29  2  1  0
 27  9  1  0
 25 13  1  0
 22 16  1  0
  1 30  1  0
  1 31  1  0
  1 32  1  0
  2 33  1  0
  3 34  1  0
  3 35  1  0
  4 36  1  0
  4 37  1  0
 10 38  1  0
 11 39  1  0
 14 40  1  0
 17 41  1  0
 17 42  1  0
 18 43  1  0
 18 44  1  0
 19 45  1  0
 19 46  1  0
 20 47  1  6
 21 48  1  0
 21 49  1  0
 22 50  1  0
 22 51  1  0
 24 52  1  0
 26 53  1  0
 27 54  1  0
 28 55  1  0
 28 56  1  0
 29 57  1  0
 29 58  1  0
M  CHG  1   2   1
M  END
>  <UniqueID>  (43) 
39

>  <SMILES>  (43) 
C[NH+]1CCN(S(=O)(=O)c2ccc(-c3cc(N4CCC[C@@H](N)C4)ncn3)cc2)CC1

>  <Energy>  (43) 
79.5028415701478

>  <Genealogy>  (43) 
C[NH+]1CCN(S(=O)(=O)c2ccc(-c3cc(N4CCCC(N)C4)ncn3)cc2)CC1 (protonated)
C[NH+]1CCN(S(=O)(=O)c2ccc(-c3cc(N4CCC[C@@H](N)C4)ncn3)cc2)CC1 (chirality)
C[NH+]1CCN(S(=O)(=O)c2ccc(-c3cc(N4CCC[C@@H](N)C4)ncn3)cc2)CC1 (3D coordinates assigned)
C[NH+]1CCN(S(=O)(=O)c2ccc(-c3cc(N4CCC[C@@H](N)C4)ncn3)cc2)CC1 (nonaromatic ring conformer: 79.5028415701478 kcal/mol)

>  <smiles>  (43) 
CN1CCN(S(=O)(=O)c2ccc(-c3cc(N4CCCC(N)C4)ncn3)cc2)CC1

>  <score_type>  (43) 
oracle

>  <origin>  (43) 
adgpu

>  <m_score__min__energy>  (43) 
-9.5600000000000005

>  <m_primary>  (43) 
energy

$$$$
43:0
     RDKit          3D

 46 48  0  0  0  0  0  0  0  0999 V2000
   -9.7260   21.7410  -31.8860 C   0  0  0  0  0  0  0  0  0  0  0  0
   -8.2680   22.0960  -31.7380 C   0  0  0  0  0  0  0  0  0  0  0  0
   -7.9440   23.4460  -31.5320 C   0  0  0  0  0  0  0  0  0  0  0  0
   -6.6210   23.8500  -31.3960 C   0  0  0  0  0  0  0  0  0  0  0  0
   -5.5870   22.9210  -31.4690 C   0  0  0  0  0  0  0  0  0  0  0  0
   -4.2460   23.3800  -31.2590 N   0  0  0  0  0  0  0  0  0  0  0  0
   -3.9090   24.5210  -30.4630 C   0  0  0  0  0  0  0  0  0  0  0  0
   -3.9470   25.6790  -30.9620 O   0  0  0  0  0  0  0  0  0  0  0  0
   -3.5570   24.3330  -29.0890 N   0  0  0  0  0  0  0  0  0  0  0  0
   -2.2620   23.9450  -28.6090 C   0  0  0  0  0  0  0  0  0  0  0  0
   -2.1020   22.6580  -28.0770 C   0  0  0  0  0  0  0  0  0  0  0  0
   -0.8560   22.2370  -27.6040 C   0  0  0  0  0  0  0  0  0  0  0  0
    0.2460   23.0930  -27.6750 C   0  0  0  0  0  0  0  0  0  0  0  0
    0.1060   24.3670  -28.2340 C   0  0  0  0  0  0  0  0  0  0  0  0
   -1.1380   24.7920  -28.7150 C   0  0  0  0  0  0  0  0  0  0  0  0
   -1.2360   26.0380  -29.3260 O   0  0  0  0  0  0  0  0  0  0  0  0
   -5.8790   21.5700  -31.7560 C   0  0  0  0  0  0  0  0  0  0  0  0
   -4.8460   20.6540  -31.9730 O   0  0  0  0  0  0  0  0  0  0  0  0
   -7.2230   21.1370  -31.8570 C   0  0  0  0  0  0  0  0  0  0  0  0
   -7.5430   19.3980  -32.1350 S   0  0  0  0  0  0  0  0  0  0  0  0
   -7.9060   18.7020  -30.8540 O   0  0  0  0  0  0  0  0  0  0  0  0
   -8.7250   19.2560  -33.0540 O   0  0  0  0  0  0  0  0  0  0  0  0
   -6.1700   18.5840  -32.8490 N   0  0  0  0  0  0  0  0  0  0  0  0
   -6.0960   18.8500  -34.2940 C   0  0  0  0  0  0  0  0  0  0  0  0
   -5.0060   17.9780  -34.9520 C   0  0  0  0  0  0  0  0  0  0  0  0
   -4.1990   17.3470  -33.9770 O   0  0  0  0  0  0  0  0  0  0  0  0
   -4.9830   16.4520  -33.2080 C   0  0  0  0  0  0  0  0  0  0  0  0
   -6.2290   17.1360  -32.6070 C   0  0  0  0  0  0  0  0  0  0  0  0
  -10.1794   21.6306  -30.8899 H   0  0  0  0  0  0  0  0  0  0  0  0
  -10.2436   22.5394  -32.4380 H   0  0  0  0  0  0  0  0  0  0  0  0
   -9.8186   20.7941  -32.4380 H   0  0  0  0  0  0  0  0  0  0  0  0
   -8.7481   24.1946  -31.4774 H   0  0  0  0  0  0  0  0  0  0  0  0
   -6.3893   24.9123  -31.2294 H   0  0  0  0  0  0  0  0  0  0  0  0
   -2.9629   21.9748  -28.0315 H   0  0  0  0  0  0  0  0  0  0  0  0
   -0.7428   21.2303  -27.1752 H   0  0  0  0  0  0  0  0  0  0  0  0
    1.2233   22.7648  -27.2913 H   0  0  0  0  0  0  0  0  0  0  0  0
    0.9760   25.0373  -28.2960 H   0  0  0  0  0  0  0  0  0  0  0  0
   -4.9990   19.6580  -32.0660 H   0  0  0  0  0  0  0  0  0  0  0  0
   -7.0686   18.6210  -34.7540 H   0  0  0  0  0  0  0  0  0  0  0  0
   -5.8426   19.9094  -34.4469 H   0  0  0  0  0  0  0  0  0  0  0  0
   -5.4882   17.2078  -35.5719 H   0  0  0  0  0  0  0  0  0  0  0  0
   -4.3656   18.6264  -35.5680 H   0  0  0  0  0  0  0  0  0  0  0  0
   -5.3105   15.6237  -33.8535 H   0  0  0  0  0  0  0  0  0  0  0  0
   -4.3623   16.0898  -32.3752 H   0  0  0  0  0  0  0  0  0  0  0  0
   -7.1339   16.7241  -33.0776 H   0  0  0  0  0  0  0  0  0  0  0  0
   -6.2565   16.9507  -31.5231 H   0  0  0  0  0  0  0  0  0  0  0  0
  1  2  1  0
  2  3  2  0
  3  4  1  0
  4  5  2  0
  5  6  1  0
  6  7  1  0
  7  8  2  0
  7  9  1  0
  9 10  1  0
 10 11  2  0
 11 12  1  0
 12 13  2  0
 13 14  1  0
 14 15  2  0
 15 16  1  0
  5 17  1  0
 17 18  1  0
 17 19  2  0
 19 20  1  0
 20 21  2  0
 20 22  2  0
 20 23  1  0
 23 24  1  0
 24 25  1  0
 25 26  1  0
 26 27  1  0
 27 28  1  0
 19  2  1  0
 28 23  1  0
 15 10  1  0
  1 29  1  0
  1 30  1  0
  1 31  1  0
  3 32  1  0
  4 33  1  0
 11 34  1  0
 12 35  1  0
 13 36  1  0
 14 37  1  0
 18 38  1  0
 24 39  1  0
 24 40  1  0
 25 41  1  0
 25 42  1  0
 27 43  1  0
 27 44  1  0
 28 45  1  0
 28 46  1  0
M  CHG  3   6  -1   9  -1  16  -1
M  END
>  <UniqueID>  (44) 
40

>  <SMILES>  (44) 
Cc1ccc([N-]C(=O)[N-]c2ccccc2[O-])c(O)c1S(=O)(=O)N1CCOCC1

>  <Energy>  (44) 
71.76416098262786

>  <Genealogy>  (44) 
Cc1ccc([N-]C(=O)[N-]c2ccccc2[O-])c(O)c1S(=O)(=O)N1CCOCC1 (protonated)
Cc1ccc([N-]C(=O)[N-]c2ccccc2[O-])c(O)c1S(=O)(=O)N1CCOCC1 (3D coordinates assigned)
Cc1ccc([N-]C(=O)[N-]c2ccccc2[O-])c(O)c1S(=O)(=O)N1CCOCC1 (nonaromatic ring conformer: 71.76416098262786 kcal/mol)

>  <smiles>  (44) 
Cc1ccc(NC(=O)Nc2ccccc2O)c(O)c1S(=O)(=O)N1CCOCC1

>  <score_type>  (44) 
oracle

>  <origin>  (44) 
adgpu

>  <m_score__min__energy>  (44) 
-14.43

>  <m_primary>  (44) 
energy

$$$$
44:0
     RDKit          3D

 57 60  0  0  0  0  0  0  0  0999 V2000
   -2.2190   22.6090  -29.5790 O   0  0  0  0  0  0  0  0  0  0  0  0
   -2.9910   22.4300  -30.5600 C   0  0  0  0  0  0  0  0  0  0  0  0
   -2.5880   21.5690  -31.6380 N   0  0  0  0  0  0  0  0  0  0  0  0
   -1.5880   20.5440  -31.5110 C   0  0  0  0  0  0  0  0  0  0  0  0
   -1.2460   19.7720  -32.6320 C   0  0  0  0  0  0  0  0  0  0  0  0
   -0.2800   18.7670  -32.5310 C   0  0  0  0  0  0  0  0  0  0  0  0
    0.3420   18.5130  -31.3070 C   0  0  0  0  0  0  0  0  0  0  0  0
   -0.0110   19.2530  -30.1710 C   0  0  0  0  0  0  0  0  0  0  0  0
    0.7820   18.9420  -28.6300 S   0  0  0  0  0  0  0  0  0  0  0  0
    1.0780   17.4720  -28.5020 O   0  0  0  0  0  0  0  0  0  0  0  0
    2.0820   19.6970  -28.5790 O   0  0  0  0  0  0  0  0  0  0  0  0
   -0.2530   19.4780  -27.3320 N   0  0  0  0  0  0  0  0  0  0  0  0
   -0.4670   20.9240  -27.3840 C   0  0  0  0  0  0  0  0  0  0  0  0
   -1.8100   21.1860  -26.7210 C   0  0  0  0  0  0  0  0  0  0  0  0
   -2.5470   19.8560  -26.7660 C   0  0  0  0  0  0  0  0  0  0  0  0
   -1.5860   18.8850  -27.4350 C   0  0  0  0  0  0  0  0  0  0  0  0
   -0.9770   20.2640  -30.2750 C   0  0  0  0  0  0  0  0  0  0  0  0
   -4.2750   23.1700  -30.6190 C   0  0  0  0  0  0  0  0  0  0  0  0
   -5.4560   22.4800  -30.9480 C   0  0  0  0  0  0  0  0  0  0  0  0
   -6.6850   23.1490  -31.0020 C   0  0  0  0  0  0  0  0  0  0  0  0
   -8.1430   22.2540  -31.4200 S   0  0  0  0  0  0  0  0  0  0  0  0
   -9.0750   23.1220  -32.2190 O   0  0  0  0  0  0  0  0  0  0  0  0
   -8.8350   21.8400  -30.1510 O   0  0  0  0  0  0  0  0  0  0  0  0
   -7.7070   20.8400  -32.3510 N   0  0  0  0  0  0  0  0  0  0  0  0
   -8.9120   20.0990  -32.7930 C   0  0  0  0  0  0  0  0  0  0  0  0
   -9.1210   18.8000  -31.9950 C   0  0  0  0  0  0  0  0  0  0  0  0
   -8.0170   17.9110  -32.0810 O   0  0  0  0  0  0  0  0  0  0  0  0
   -6.7530   18.5660  -32.1230 C   0  0  0  0  0  0  0  0  0  0  0  0
   -6.7670   20.0050  -31.5810 C   0  0  0  0  0  0  0  0  0  0  0  0
   -6.7380   24.5230  -30.7390 C   0  0  0  0  0  0  0  0  0  0  0  0
   -5.5700   25.2220  -30.4280 C   0  0  0  0  0  0  0  0  0  0  0  0
   -4.3400   24.5590  -30.3750 C   0  0  0  0  0  0  0  0  0  0  0  0
   -3.1920   25.2970  -30.1080 O   0  0  0  0  0  0  0  0  0  0  0  0
   -2.9620   21.7760  -32.5920 H   0  0  0  0  0  0  0  0  0  0  0  0
   -1.7413   19.9591  -33.5962 H   0  0  0  0  0  0  0  0  0  0  0  0
   -0.0092   18.1749  -33.4176 H   0  0  0  0  0  0  0  0  0  0  0  0
    1.1111   17.7299  -31.2345 H   0  0  0  0  0  0  0  0  0  0  0  0
    0.3337   21.4464  -26.8400 H   0  0  0  0  0  0  0  0  0  0  0  0
   -0.4573   21.2904  -28.4211 H   0  0  0  0  0  0  0  0  0  0  0  0
   -1.6685   21.5129  -25.6803 H   0  0  0  0  0  0  0  0  0  0  0  0
   -2.3707   21.9827  -27.2318 H   0  0  0  0  0  0  0  0  0  0  0  0
   -2.7911   19.5165  -25.7486 H   0  0  0  0  0  0  0  0  0  0  0  0
   -3.4980   19.9333  -27.3134 H   0  0  0  0  0  0  0  0  0  0  0  0
   -1.6096   17.9129  -26.9208 H   0  0  0  0  0  0  0  0  0  0  0  0
   -1.8634   18.7131  -28.4855 H   0  0  0  0  0  0  0  0  0  0  0  0
   -1.2593   20.8428  -29.3832 H   0  0  0  0  0  0  0  0  0  0  0  0
   -5.4135   21.4025  -31.1653 H   0  0  0  0  0  0  0  0  0  0  0  0
   -9.7933   20.7433  -32.6581 H   0  0  0  0  0  0  0  0  0  0  0  0
   -8.7726   19.8273  -33.8498 H   0  0  0  0  0  0  0  0  0  0  0  0
   -9.2800   19.0599  -30.9380 H   0  0  0  0  0  0  0  0  0  0  0  0
   -9.9917   18.2853  -32.4274 H   0  0  0  0  0  0  0  0  0  0  0  0
   -6.0410   17.9793  -31.5240 H   0  0  0  0  0  0  0  0  0  0  0  0
   -6.4677   18.6318  -33.1833 H   0  0  0  0  0  0  0  0  0  0  0  0
   -7.0769   19.9909  -30.5257 H   0  0  0  0  0  0  0  0  0  0  0  0
   -5.7565   20.4294  -31.6750 H   0  0  0  0  0  0  0  0  0  0  0  0
   -7.7013   25.0527  -30.7774 H   0  0  0  0  0  0  0  0  0  0  0  0
   -5.6178   26.3017  -30.2233 H   0  0  0  0  0  0  0  0  0  0  0  0
  1  2  2  0
  2  3  1  0
  3  4  1  0
  4  5  2  0
  5  6  1  0
  6  7  2  0
  7  8  1  0
  8  9  1  0
  9 10  2  0
  9 11  2  0
  9 12  1  0
 12 13  1  0
 13 14  1  0
 14 15  1  0
 15 16  1  0
  8 17  2  0
  2 18  1  0
 18 19  2  0
 19 20  1  0
 20 21  1  0
 21 22  2  0
 21 23  2  0
 21 24  1  0
 24 25  1  0
 25 26  1  0
 26 27  1  0
 27 28  1  0
 28 29  1  0
 20 30  2  0
 30 31  1  0
 31 32  2  0
 32 33  1  0
 17  4  1  0
 32 18  1  0
 16 12  1  0
 29 24  1  0
  3 34  1  0
  5 35  1  0
  6 36  1  0
  7 37  1  0
 13 38  1  0
 13 39  1  0
 14 40  1  0
 14 41  1  0
 15 42  1  0
 15 43  1  0
 16 44  1  0
 16 45  1  0
 17 46  1  0
 19 47  1  0
 25 48  1  0
 25 49  1  0
 26 50  1  0
 26 51  1  0
 28 52  1  0
 28 53  1  0
 29 54  1  0
 29 55  1  0
 30 56  1  0
 31 57  1  0
M  CHG  1  33  -1
M  END
>  <UniqueID>  (45) 
41

>  <SMILES>  (45) 
O=C(Nc1cccc(S(=O)(=O)N2CCCC2)c1)c1cc(S(=O)(=O)N2CCOCC2)ccc1[O-]

>  <Energy>  (45) 
78.98595958270602

>  <Genealogy>  (45) 
O=C(Nc1cccc(S(=O)(=O)N2CCCC2)c1)c1cc(S(=O)(=O)N2CCOCC2)ccc1[O-] (protonated)
O=C(Nc1cccc(S(=O)(=O)N2CCCC2)c1)c1cc(S(=O)(=O)N2CCOCC2)ccc1[O-] (3D coordinates assigned)
O=C(Nc1cccc(S(=O)(=O)N2CCCC2)c1)c1cc(S(=O)(=O)N2CCOCC2)ccc1[O-] (nonaromatic ring conformer: 78.98595958270602 kcal/mol)

>  <smiles>  (45) 
O=C(Nc1cccc(S(=O)(=O)N2CCCC2)c1)c1cc(S(=O)(=O)N2CCOCC2)ccc1O

>  <score_type>  (45) 
oracle

>  <origin>  (45) 
adgpu

>  <m_score__min__energy>  (45) 
-13.52

>  <m_primary>  (45) 
energy

$$$$
45:0
     RDKit          3D

 61 63  0  0  0  0  0  0  0  0999 V2000
   -2.8980   19.8730  -34.1920 C   0  0  0  0  0  0  0  0  0  0  0  0
   -2.1130   20.5440  -33.0870 C   0  0  0  0  0  0  0  0  0  0  0  0
   -0.6910   20.5920  -33.1500 C   0  0  0  0  0  0  0  0  0  0  0  0
    0.0130   20.1280  -34.3230 N   0  0  0  0  0  0  0  0  0  0  0  0
    0.7470   21.1740  -35.4990 S   0  0  0  0  0  0  0  0  0  0  0  0
    2.4570   20.7330  -35.7250 C   0  0  0  0  0  0  0  0  0  0  0  0
    0.0270   21.0120  -36.8060 O   0  0  0  0  0  0  0  0  0  0  0  0
    0.6290   22.6070  -35.0620 O   0  0  0  0  0  0  0  0  0  0  0  0
    0.0230   21.0960  -32.0450 C   0  0  0  0  0  0  0  0  0  0  0  0
   -0.6470   21.5860  -30.9260 C   0  0  0  0  0  0  0  0  0  0  0  0
   -2.0380   21.6090  -30.8960 C   0  0  0  0  0  0  0  0  0  0  0  0
   -2.7830   21.1230  -31.9760 C   0  0  0  0  0  0  0  0  0  0  0  0
   -4.2190   21.2260  -31.9270 N   0  0  0  0  0  0  0  0  0  0  0  0
   -4.8820   22.3910  -32.5280 C   0  0  0  0  0  0  0  0  0  0  0  0
   -5.2270   23.3930  -31.4620 C   0  0  0  0  0  0  0  0  0  0  0  0
   -4.3240   23.6550  -30.4190 C   0  0  0  0  0  0  0  0  0  0  0  0
   -4.6650   24.5540  -29.4020 C   0  0  0  0  0  0  0  0  0  0  0  0
   -5.9100   25.1870  -29.4160 C   0  0  0  0  0  0  0  0  0  0  0  0
   -6.8210   24.9190  -30.4430 C   0  0  0  0  0  0  0  0  0  0  0  0
   -6.4840   24.0210  -31.4610 C   0  0  0  0  0  0  0  0  0  0  0  0
   -5.0090   20.2070  -31.2210 C   0  0  0  0  0  0  0  0  0  0  0  0
   -6.4570   20.2380  -31.6490 C   0  0  0  0  0  0  0  0  0  0  0  0
   -7.3540   21.0680  -30.9560 C   0  0  0  0  0  0  0  0  0  0  0  0
   -8.6840   21.1590  -31.3560 C   0  0  0  0  0  0  0  0  0  0  0  0
   -9.1180   20.4220  -32.4550 C   0  0  0  0  0  0  0  0  0  0  0  0
   -8.2490   19.6190  -33.1200 N   0  0  0  0  0  0  0  0  0  0  0  0
   -6.9430   19.4970  -32.7520 C   0  0  0  0  0  0  0  0  0  0  0  0
   -6.0930   18.6240  -33.5110 N   0  0  0  0  0  0  0  0  0  0  0  0
   -6.0930   18.7440  -34.9660 C   0  0  0  0  0  0  0  0  0  0  0  0
   -5.5960   17.1060  -32.8220 S   0  0  0  0  0  0  0  0  0  0  0  0
   -6.1990   15.7560  -33.8130 C   0  0  0  0  0  0  0  0  0  0  0  0
   -4.0970   17.0530  -32.7540 O   0  0  0  0  0  0  0  0  0  0  0  0
   -6.1600   16.9620  -31.4340 O   0  0  0  0  0  0  0  0  0  0  0  0
   -3.6643   19.2180  -33.7518 H   0  0  0  0  0  0  0  0  0  0  0  0
   -3.3839   20.6392  -34.8140 H   0  0  0  0  0  0  0  0  0  0  0  0
   -2.2168   19.2738  -34.8140 H   0  0  0  0  0  0  0  0  0  0  0  0
    0.0060   19.1190  -34.5840 H   0  0  0  0  0  0  0  0  0  0  0  0
    2.9367   20.6093  -34.7428 H   0  0  0  0  0  0  0  0  0  0  0  0
    2.5212   19.7889  -36.2859 H   0  0  0  0  0  0  0  0  0  0  0  0
    2.9697   21.5283  -36.2859 H   0  0  0  0  0  0  0  0  0  0  0  0
    1.1228   21.1027  -32.0660 H   0  0  0  0  0  0  0  0  0  0  0  0
   -0.0742   21.9561  -30.0629 H   0  0  0  0  0  0  0  0  0  0  0  0
   -2.5570   22.0133  -30.0144 H   0  0  0  0  0  0  0  0  0  0  0  0
   -4.2066   22.8567  -33.2607 H   0  0  0  0  0  0  0  0  0  0  0  0
   -5.8055   22.0630  -33.0276 H   0  0  0  0  0  0  0  0  0  0  0  0
   -3.3458   23.1522  -30.4012 H   0  0  0  0  0  0  0  0  0  0  0  0
   -3.9518   24.7623  -28.5908 H   0  0  0  0  0  0  0  0  0  0  0  0
   -6.1743   25.8970  -28.6185 H   0  0  0  0  0  0  0  0  0  0  0  0
   -7.8029   25.4147  -30.4500 H   0  0  0  0  0  0  0  0  0  0  0  0
   -7.2052   23.8057  -32.2632 H   0  0  0  0  0  0  0  0  0  0  0  0
   -4.5916   19.2137  -31.4424 H   0  0  0  0  0  0  0  0  0  0  0  0
   -4.9622   20.4186  -30.1426 H   0  0  0  0  0  0  0  0  0  0  0  0
   -7.0027   21.6500  -30.0912 H   0  0  0  0  0  0  0  0  0  0  0  0
   -9.3853   21.8066  -30.8095 H   0  0  0  0  0  0  0  0  0  0  0  0
  -10.1653   20.4907  -32.7842 H   0  0  0  0  0  0  0  0  0  0  0  0
   -5.0559   18.7741  -35.3314 H   0  0  0  0  0  0  0  0  0  0  0  0
   -6.6115   17.8790  -35.4053 H   0  0  0  0  0  0  0  0  0  0  0  0
   -6.6115   19.6692  -35.2576 H   0  0  0  0  0  0  0  0  0  0  0  0
   -6.5587   14.9507  -33.1557 H   0  0  0  0  0  0  0  0  0  0  0  0
   -7.0255   16.1078  -34.4479 H   0  0  0  0  0  0  0  0  0  0  0  0
   -5.3854   15.3752  -34.4479 H   0  0  0  0  0  0  0  0  0  0  0  0
  1  2  1  0
  2  3  2  0
  3  4  1  0
  4  5  1  0
  5  6  1  0
  5  7  2  0
  5  8  2  0
  3  9  1  0
  9 10  2  0
 10 11  1  0
 11 12  2  0
 12 13  1  0
 13 14  1  0
 14 15  1  0
 15 16  2  0
 16 17  1  0
 17 18  2  0
 18 19  1  0
 19 20  2  0
 13 21  1  0
 21 22  1  0
 22 23  2  0
 23 24  1  0
 24 25  2  0
 25 26  1  0
 26 27  2  0
 27 28  1  0
 28 29  1  0
 28 30  1  0
 30 31  1  0
 30 32  2  0
 30 33  2  0
 12  2  1  0
 20 15  1  0
 27 22  1  0
  1 34  1  0
  1 35  1  0
  1 36  1  0
  4 37  1  0
  6 38  1  0
  6 39  1  0
  6 40  1  0
  9 41  1  0
 10 42  1  0
 11 43  1  0
 14 44  1  0
 14 45  1  0
 16 46  1  0
 17 47  1  0
 18 48  1  0
 19 49  1  0
 20 50  1  0
 21 51  1  0
 21 52  1  0
 23 53  1  0
 24 54  1  0
 25 55  1  0
 29 56  1  0
 29 57  1  0
 29 58  1  0
 31 59  1  0
 31 60  1  0
 31 61  1  0
M  END
>  <UniqueID>  (46) 
42

>  <SMILES>  (46) 
Cc1c(NS(C)(=O)=O)cccc1N(Cc1ccccc1)Cc1cccnc1N(C)S(C)(=O)=O

>  <Energy>  (46) 
66.92427707920531

>  <Genealogy>  (46) 
Cc1c(NS(C)(=O)=O)cccc1N(Cc1ccccc1)Cc1cccnc1N(C)S(C)(=O)=O (3D coordinates assigned)
Cc1c(NS(C)(=O)=O)cccc1N(Cc1ccccc1)Cc1cccnc1N(C)S(C)(=O)=O (optimized conformer: 66.92427707920531 kcal/mol)

>  <smiles>  (46) 
Cc1c(NS(C)(=O)=O)cccc1N(Cc1ccccc1)Cc1cccnc1N(C)S(C)(=O)=O

>  <score_type>  (46) 
oracle

>  <origin>  (46) 
adgpu

>  <m_score__min__energy>  (46) 
-9.9199999999999999

>  <m_primary>  (46) 
energy

$$$$
46:0
     RDKit          3D

 31 31  0  0  0  0  0  0  0  0999 V2000
   -7.9220   18.1820  -32.3400 C   0  0  0  0  0  0  0  0  0  0  0  0
   -6.9530   19.2590  -32.8090 C   0  0  0  0  0  0  0  0  0  0  0  0
   -7.6950   20.4230  -33.2970 N   0  0  0  0  0  0  0  0  0  0  0  0
   -8.1370   21.4420  -31.9610 S   0  0  0  0  0  0  0  0  0  0  0  0
   -8.5640   20.5870  -30.7990 O   0  0  0  0  0  0  0  0  0  0  0  0
   -9.2830   22.3240  -32.3660 O   0  0  0  0  0  0  0  0  0  0  0  0
   -6.7730   22.4570  -31.4970 C   0  0  0  0  0  0  0  0  0  0  0  0
   -5.5000   22.2260  -32.0300 C   0  0  0  0  0  0  0  0  0  0  0  0
   -4.4270   23.0410  -31.6630 C   0  0  0  0  0  0  0  0  0  0  0  0
   -4.6150   24.1010  -30.7690 C   0  0  0  0  0  0  0  0  0  0  0  0
   -3.4950   24.9340  -30.4450 N   0  0  0  0  0  0  0  0  0  0  0  0
   -2.6860   24.7770  -29.2730 C   0  0  0  0  0  0  0  0  0  0  0  0
   -2.8180   23.5800  -28.3810 C   0  0  0  0  0  0  0  0  0  0  0  0
   -1.8380   25.6640  -28.9920 O   0  0  0  0  0  0  0  0  0  0  0  0
   -5.8880   24.3150  -30.1950 C   0  0  0  0  0  0  0  0  0  0  0  0
   -6.0950   25.3220  -29.1970 N   0  0  0  0  0  0  0  0  0  0  0  0
   -6.9610   23.4950  -30.5750 C   0  0  0  0  0  0  0  0  0  0  0  0
   -7.9417   18.1601  -31.2404 H   0  0  0  0  0  0  0  0  0  0  0  0
   -8.9298   18.4047  -32.7204 H   0  0  0  0  0  0  0  0  0  0  0  0
   -7.5945   17.2032  -32.7204 H   0  0  0  0  0  0  0  0  0  0  0  0
   -6.3112   19.5624  -31.9687 H   0  0  0  0  0  0  0  0  0  0  0  0
   -6.3345   18.8573  -33.6251 H   0  0  0  0  0  0  0  0  0  0  0  0
   -8.5870   20.0840  -33.7260 H   0  0  0  0  0  0  0  0  0  0  0  0
   -5.3440   21.4003  -32.7399 H   0  0  0  0  0  0  0  0  0  0  0  0
   -3.4273   22.8484  -32.0795 H   0  0  0  0  0  0  0  0  0  0  0  0
   -2.7826   23.9007  -27.3294 H   0  0  0  0  0  0  0  0  0  0  0  0
   -3.7769   23.0788  -28.5794 H   0  0  0  0  0  0  0  0  0  0  0  0
   -1.9914   22.8819  -28.5794 H   0  0  0  0  0  0  0  0  0  0  0  0
   -6.9430   25.3000  -28.5880 H   0  0  0  0  0  0  0  0  0  0  0  0
   -5.3880   26.0680  -29.0150 H   0  0  0  0  0  0  0  0  0  0  0  0
   -7.9586   23.6685  -30.1453 H   0  0  0  0  0  0  0  0  0  0  0  0
  1  2  1  0
  2  3  1  0
  3  4  1  0
  4  5  2  0
  4  6  2  0
  4  7  1  0
  7  8  2  0
  8  9  1  0
  9 10  2  0
 10 11  1  0
 11 12  1  0
 12 13  1  0
 12 14  2  0
 10 15  1  0
 15 16  1  0
 15 17  2  0
 17  7  1  0
  1 18  1  0
  1 19  1  0
  1 20  1  0
  2 21  1  0
  2 22  1  0
  3 23  1  0
  8 24  1  0
  9 25  1  0
 13 26  1  0
 13 27  1  0
 13 28  1  0
 16 29  1  0
 16 30  1  0
 17 31  1  0
M  CHG  1  11  -1
M  END
>  <UniqueID>  (47) 
43

>  <SMILES>  (47) 
CCNS(=O)(=O)c1ccc([N-]C(C)=O)c(N)c1

>  <Energy>  (47) 
28.893885708636606

>  <Genealogy>  (47) 
CCNS(=O)(=O)c1ccc([N-]C(C)=O)c(N)c1 (protonated)
CCNS(=O)(=O)c1ccc([N-]C(C)=O)c(N)c1 (3D coordinates assigned)
CCNS(=O)(=O)c1ccc([N-]C(C)=O)c(N)c1 (optimized conformer: 28.893885708636606 kcal/mol)

>  <smiles>  (47) 
CCNS(=O)(=O)c1ccc(NC(C)=O)c(N)c1

>  <score_type>  (47) 
oracle

>  <origin>  (47) 
adgpu

>  <m_score__min__energy>  (47) 
-9.2400000000000002

>  <m_primary>  (47) 
energy

$$$$
