0:0
     RDKit          3D

 48 50  0  0  0  0  0  0  0  0999 V2000
   -9.1300   19.9880  -32.7290 C   0  0  0  0  0  0  0  0  0  0  0  0
   -8.0560   20.8700  -32.1440 C   0  0  0  0  0  0  0  0  0  0  0  0
   -8.4440   21.9370  -31.3180 C   0  0  0  0  0  0  0  0  0  0  0  0
   -7.4940   22.7790  -30.7460 C   0  0  0  0  0  0  0  0  0  0  0  0
   -6.1280   22.5830  -30.9900 C   0  0  0  0  0  0  0  0  0  0  0  0
   -5.1370   23.4990  -30.3780 C   0  0  0  0  0  0  0  0  0  0  0  0
   -4.7060   24.4710  -31.0580 O   0  0  0  0  0  0  0  0  0  0  0  0
   -4.6710   23.3030  -29.0300 N   0  0  0  0  0  0  0  0  0  0  0  0
   -3.6530   24.1050  -28.4080 C   0  0  0  0  0  0  0  0  0  0  0  0
   -2.4480   24.4050  -29.0690 C   0  0  0  0  0  0  0  0  0  0  0  0
   -1.4630   25.1650  -28.4300 C   0  0  0  0  0  0  0  0  0  0  0  0
   -1.6600   25.6200  -27.1200 C   0  0  0  0  0  0  0  0  0  0  0  0
   -0.4100   26.5720  -26.3140 S   0  0  0  0  0  0  0  0  0  0  0  0
    0.8820   26.4320  -27.0700 O   0  0  0  0  0  0  0  0  0  0  0  0
   -0.1990   26.0320  -24.9280 O   0  0  0  0  0  0  0  0  0  0  0  0
   -0.8410   28.2620  -26.2130 N   0  0  0  0  0  0  0  0  0  0  0  0
   -0.5330   28.7940  -24.8750 C   0  0  0  0  0  0  0  0  0  0  0  0
   -0.6910   30.3280  -24.8510 C   0  0  0  0  0  0  0  0  0  0  0  0
   -1.3440   30.7930  -26.0150 O   0  0  0  0  0  0  0  0  0  0  0  0
   -0.5460   30.5220  -27.1550 C   0  0  0  0  0  0  0  0  0  0  0  0
   -0.1350   29.0370  -27.2430 C   0  0  0  0  0  0  0  0  0  0  0  0
   -2.8500   25.3030  -26.4520 C   0  0  0  0  0  0  0  0  0  0  0  0
   -3.8340   24.5440  -27.0880 C   0  0  0  0  0  0  0  0  0  0  0  0
   -5.7270   21.4980  -31.7880 C   0  0  0  0  0  0  0  0  0  0  0  0
   -6.6740   20.6230  -32.3600 C   0  0  0  0  0  0  0  0  0  0  0  0
   -6.2020   19.4680  -33.2250 C   0  0  0  0  0  0  0  0  0  0  0  0
   -4.8350   19.3010  -33.0980 F   0  0  0  0  0  0  0  0  0  0  0  0
   -6.4750   19.6830  -34.5660 F   0  0  0  0  0  0  0  0  0  0  0  0
   -6.8420   18.3060  -32.8330 F   0  0  0  0  0  0  0  0  0  0  0  0
   -9.7021   19.5182  -31.9154 H   0  0  0  0  0  0  0  0  0  0  0  0
   -9.8057   20.5953  -33.3492 H   0  0  0  0  0  0  0  0  0  0  0  0
   -8.6657   19.2071  -33.3492 H   0  0  0  0  0  0  0  0  0  0  0  0
   -9.5122   22.1100  -31.1202 H   0  0  0  0  0  0  0  0  0  0  0  0
   -7.8186   23.6055  -30.0967 H   0  0  0  0  0  0  0  0  0  0  0  0
   -5.1200   22.5690  -28.4380 H   0  0  0  0  0  0  0  0  0  0  0  0
   -2.2797   24.0402  -30.0930 H   0  0  0  0  0  0  0  0  0  0  0  0
   -0.5291   25.4066  -28.9587 H   0  0  0  0  0  0  0  0  0  0  0  0
   -1.2210   28.3482  -24.1416 H   0  0  0  0  0  0  0  0  0  0  0  0
    0.5075   28.5408  -24.6236 H   0  0  0  0  0  0  0  0  0  0  0  0
   -1.2830   30.6139  -23.9691 H   0  0  0  0  0  0  0  0  0  0  0  0
    0.3107   30.7806  -24.8093 H   0  0  0  0  0  0  0  0  0  0  0  0
   -1.1175   30.7849  -28.0574 H   0  0  0  0  0  0  0  0  0  0  0  0
    0.3729   31.1210  -27.0725 H   0  0  0  0  0  0  0  0  0  0  0  0
   -0.3950   28.6446  -28.2372 H   0  0  0  0  0  0  0  0  0  0  0  0
    0.9497   28.9507  -27.0819 H   0  0  0  0  0  0  0  0  0  0  0  0
   -3.0097   25.6538  -25.4217 H   0  0  0  0  0  0  0  0  0  0  0  0
   -4.7586   24.2881  -26.5498 H   0  0  0  0  0  0  0  0  0  0  0  0
   -4.6555   21.3280  -31.9698 H   0  0  0  0  0  0  0  0  0  0  0  0
  1  2  1  0
  2  3  2  0
  3  4  1  0
  4  5  2  0
  5  6  1  0
  6  7  2  0
  6  8  1  0
  8  9  1  0
  9 10  2  0
 10 11  1  0
 11 12  2  0
 12 13  1  0
 13 14  2  0
 13 15  2  0
 13 16  1  0
 16 17  1  0
 17 18  1  0
 18 19  1  0
 19 20  1  0
 20 21  1  0
 12 22  1  0
 22 23  2  0
  5 24  1  0
 24 25  2  0
 25 26  1  0
 26 27  1  0
 26 28  1  0
 26 29  1  0
 25  2  1  0
 23  9  1  0
 21 16  1  0
  1 30  1  0
  1 31  1  0
  1 32  1  0
  3 33  1  0
  4 34  1  0
  8 35  1  0
 10 36  1  0
 11 37  1  0
 17 38  1  0
 17 39  1  0
 18 40  1  0
 18 41  1  0
 20 42  1  0
 20 43  1  0
 21 44  1  0
 21 45  1  0
 22 46  1  0
 23 47  1  0
 24 48  1  0
M  END
>  <UniqueID>  (1) 
1

>  <SMILES>  (1) 
Cc1ccc(C(=O)Nc2ccc(S(=O)(=O)N3CCOCC3)cc2)cc1C(F)(F)F

>  <Energy>  (1) 
66.22517456939501

>  <Genealogy>  (1) 
Cc1ccc(C(=O)Nc2ccc(S(=O)(=O)N3CCOCC3)cc2)cc1C(F)(F)F (3D coordinates assigned)
Cc1ccc(C(=O)Nc2ccc(S(=O)(=O)N3CCOCC3)cc2)cc1C(F)(F)F (nonaromatic ring conformer: 66.22517456939501 kcal/mol)

>  <smiles>  (1) 
Cc1ccc(C(=O)Nc2ccc(S(=O)(=O)N3CCOCC3)cc2)cc1C(F)(F)F

>  <score_type>  (1) 
oracle

>  <origin>  (1) 
adgpu

>  <m_score__min__energy>  (1) 
-8.5800000000000001

>  <m_primary>  (1) 
energy

$$$$
1:0
     RDKit          3D

 49 51  0  0  1  0  0  0  0  0999 V2000
   -6.4970   26.0250  -29.3150 C   0  0  0  0  0  0  0  0  0  0  0  0
   -6.7860   24.6300  -29.4710 O   0  0  0  0  0  0  0  0  0  0  0  0
   -6.0200   23.9250  -30.3980 C   0  0  0  0  0  0  0  0  0  0  0  0
   -6.5770   23.2390  -31.4380 C   0  0  0  0  0  0  0  0  0  0  0  0
   -5.8040   22.5490  -32.3440 C   0  0  0  0  0  0  0  0  0  0  0  0
   -4.4050   22.5150  -32.2460 C   0  0  0  0  0  0  0  0  0  0  0  0
   -3.6990   21.8080  -33.2400 N   0  0  0  0  0  0  0  0  0  0  0  0
   -2.4260   21.2460  -33.1740 C   0  0  0  0  0  0  0  0  0  0  0  0
   -1.8300   21.1110  -31.9150 C   0  0  0  0  0  0  0  0  0  0  0  0
   -0.5720   20.5840  -31.7390 C   0  0  0  0  0  0  0  0  0  0  0  0
    0.0010   20.4610  -30.6130 N   0  0  0  0  0  0  0  0  0  0  0  0
   -0.6870   20.8950  -29.4470 C   0  0  0  0  0  0  0  0  0  0  0  0
   -1.6930   20.2320  -28.8340 C   0  0  0  0  0  0  0  0  0  0  0  0
   -2.2720   20.7800  -27.6960 C   0  0  0  0  0  0  0  0  0  0  0  0
   -1.8500   21.9830  -27.1700 C   0  0  0  0  0  0  0  0  0  0  0  0
   -0.8160   22.6740  -27.7920 C   0  0  0  0  0  0  0  0  0  0  0  0
   -0.3060   23.9580  -27.3000 C   0  0  0  0  0  0  0  0  0  0  0  0
   -1.4130   25.3050  -27.5240 S   0  0  0  0  0  0  0  0  0  0  0  0
   -0.9360   26.7450  -26.6260 C   0  0  0  0  0  0  0  0  0  0  0  0
   -2.7800   24.8550  -27.0520 O   0  0  0  0  0  0  0  0  0  0  0  0
   -1.5570   25.6730  -28.9670 O   0  0  0  0  0  0  0  0  0  0  0  0
   -0.2480   22.1210  -28.9220 C   0  0  0  0  0  0  0  0  0  0  0  0
    0.0880   20.1910  -32.8360 N   0  0  0  0  0  0  0  0  0  0  0  0
   -0.4370   20.2990  -34.0700 C   0  0  0  0  0  0  0  0  0  0  0  0
   -1.6890   20.8270  -34.2100 N   0  0  0  0  0  0  0  0  0  0  0  0
   -3.8580   23.2030  -31.2060 C   0  0  0  0  0  0  0  0  0  0  0  0
   -4.6260   23.9120  -30.2730 C   0  0  0  0  0  0  0  0  0  0  0  0
   -4.0030   24.6070  -29.1950 N   0  0  0  0  0  0  0  0  0  0  0  0
   -6.4460   26.2714  -28.2442 H   0  0  0  0  0  0  0  0  0  0  0  0
   -5.5321   26.2550  -29.7906 H   0  0  0  0  0  0  0  0  0  0  0  0
   -7.2911   26.6194  -29.7906 H   0  0  0  0  0  0  0  0  0  0  0  0
   -7.6707   23.2375  -31.5551 H   0  0  0  0  0  0  0  0  0  0  0  0
   -6.2963   22.0099  -33.1668 H   0  0  0  0  0  0  0  0  0  0  0  0
   -4.2250   21.6940  -34.1660 H   0  0  0  0  0  0  0  0  0  0  0  0
   -2.3917   21.4404  -31.0284 H   0  0  0  0  0  0  0  0  0  0  0  0
   -2.0490   19.2701  -29.2314 H   0  0  0  0  0  0  0  0  0  0  0  0
   -3.0910   20.2384  -27.2001 H   0  0  0  0  0  0  0  0  0  0  0  0
   -2.3268   22.3920  -26.2670 H   0  0  0  0  0  0  0  0  0  0  0  0
   -0.0978   23.8575  -26.2246 H   0  0  0  0  0  0  0  0  0  0  0  0
    0.5948   24.1873  -27.8883 H   0  0  0  0  0  0  0  0  0  0  0  0
   -1.0029   26.5430  -25.5468 H   0  0  0  0  0  0  0  0  0  0  0  0
    0.0989   27.0129  -26.8854 H   0  0  0  0  0  0  0  0  0  0  0  0
   -1.6063   27.5777  -26.8854 H   0  0  0  0  0  0  0  0  0  0  0  0
    0.5712   22.6556  -29.4251 H   0  0  0  0  0  0  0  0  0  0  0  0
    0.1322   19.9678  -34.9511 H   0  0  0  0  0  0  0  0  0  0  0  0
   -2.0350   20.9040  -35.1700 H   0  0  0  0  0  0  0  0  0  0  0  0
   -2.7638   23.2021  -31.0933 H   0  0  0  0  0  0  0  0  0  0  0  0
   -4.5360   25.0440  -28.4160 H   0  0  0  0  0  0  0  0  0  0  0  0
   -2.9650   24.7040  -29.1490 H   0  0  0  0  0  0  0  0  0  0  0  0
  1  2  1  0
  2  3  1  0
  3  4  2  0
  4  5  1  0
  5  6  2  0
  6  7  1  0
  7  8  1  0
  8  9  2  0
  9 10  1  0
 10 11  2  0
 11 12  1  0
 12 13  2  0
 13 14  1  0
 14 15  2  0
 15 16  1  0
 16 17  1  0
 17 18  1  0
 18 19  1  0
 18 20  2  0
 18 21  2  0
 16 22  2  0
 10 23  1  0
 23 24  2  0
 24 25  1  0
  6 26  1  0
 26 27  2  0
 27 28  1  0
 27  3  1  0
 25  8  1  0
 22 12  1  0
  1 29  1  0
  1 30  1  0
  1 31  1  0
  4 32  1  0
  5 33  1  0
  7 34  1  0
  9 35  1  0
 13 36  1  0
 14 37  1  0
 15 38  1  0
 17 39  1  0
 17 40  1  0
 19 41  1  0
 19 42  1  0
 19 43  1  0
 22 44  1  0
 24 45  1  0
 25 46  1  0
 26 47  1  0
 28 48  1  0
 28 49  1  0
M  END
>  <smiles>  (2) 
COc1ccc(Nc2cc(=Nc3cccc(CS(C)(=O)=O)c3)nc[nH]2)cc1N

>  <score_type>  (2) 
oracle

>  <origin>  (2) 
adgpu

>  <m_score__min__energy>  (2) 
-9.2100000000000009

>  <m_primary>  (2) 
energy

$$$$
2:0
     RDKit          3D

 51 54  0  0  0  0  0  0  0  0999 V2000
   -0.9190   26.0610  -24.3910 C   0  0  0  0  0  0  0  0  0  0  0  0
   -0.8450   24.7920  -25.2530 C   0  0  0  0  0  0  0  0  0  0  0  0
   -0.4390   23.5790  -24.4040 C   0  0  0  0  0  0  0  0  0  0  0  0
    0.0670   24.9770  -26.4870 C   0  0  0  0  0  0  0  0  0  0  0  0
   -0.1970   23.9770  -27.5870 C   0  0  0  0  0  0  0  0  0  0  0  0
    0.6320   23.0440  -27.7620 O   0  0  0  0  0  0  0  0  0  0  0  0
   -1.4380   23.9830  -28.3920 C   0  0  0  0  0  0  0  0  0  0  0  0
   -1.9720   25.1000  -29.0080 C   0  0  0  0  0  0  0  0  0  0  0  0
   -1.4810   26.3980  -28.9390 O   0  0  0  0  0  0  0  0  0  0  0  0
   -3.0660   24.6900  -29.7260 C   0  0  0  0  0  0  0  0  0  0  0  0
   -3.8880   25.5210  -30.4800 O   0  0  0  0  0  0  0  0  0  0  0  0
   -3.2510   23.3620  -29.5840 N   0  0  0  0  0  0  0  0  0  0  0  0
   -4.3260   22.5970  -30.1570 C   0  0  0  0  0  0  0  0  0  0  0  0
   -5.6600   22.9830  -29.9600 C   0  0  0  0  0  0  0  0  0  0  0  0
   -6.7020   22.2310  -30.5090 C   0  0  0  0  0  0  0  0  0  0  0  0
   -6.4310   21.0800  -31.2730 C   0  0  0  0  0  0  0  0  0  0  0  0
   -7.5390   20.2780  -31.8540 C   0  0  0  0  0  0  0  0  0  0  0  0
   -8.8120   20.7200  -32.1730 C   0  0  0  0  0  0  0  0  0  0  0  0
   -9.4760   19.6250  -32.6820 C   0  0  0  0  0  0  0  0  0  0  0  0
   -8.6800   18.5810  -32.6800 O   0  0  0  0  0  0  0  0  0  0  0  0
   -7.5140   18.9340  -32.1910 C   0  0  0  0  0  0  0  0  0  0  0  0
   -5.0900   20.7050  -31.4740 C   0  0  0  0  0  0  0  0  0  0  0  0
   -4.0490   21.4580  -30.9240 C   0  0  0  0  0  0  0  0  0  0  0  0
   -2.2640   22.9180  -28.7630 C   0  0  0  0  0  0  0  0  0  0  0  0
   -2.1280   21.5120  -28.3260 C   0  0  0  0  0  0  0  0  0  0  0  0
   -3.0450   20.9790  -27.4070 C   0  0  0  0  0  0  0  0  0  0  0  0
   -2.9250   19.6540  -26.9790 C   0  0  0  0  0  0  0  0  0  0  0  0
   -1.8850   18.8540  -27.4610 C   0  0  0  0  0  0  0  0  0  0  0  0
   -0.9620   19.3790  -28.3690 C   0  0  0  0  0  0  0  0  0  0  0  0
   -1.0750   20.7060  -28.8000 C   0  0  0  0  0  0  0  0  0  0  0  0
   -0.1340   21.2170  -29.6890 O   0  0  0  0  0  0  0  0  0  0  0  0
   -0.9028   25.7829  -23.3269 H   0  0  0  0  0  0  0  0  0  0  0  0
   -0.0570   26.7068  -24.6144 H   0  0  0  0  0  0  0  0  0  0  0  0
   -1.8502   26.6022  -24.6144 H   0  0  0  0  0  0  0  0  0  0  0  0
   -1.8530   24.5972  -25.6478 H   0  0  0  0  0  0  0  0  0  0  0  0
   -0.5241   23.8332  -23.3372 H   0  0  0  0  0  0  0  0  0  0  0  0
   -1.1027   22.7323  -24.6333 H   0  0  0  0  0  0  0  0  0  0  0  0
    0.6007   23.3024  -24.6333 H   0  0  0  0  0  0  0  0  0  0  0  0
   -0.0933   25.9880  -26.8898 H   0  0  0  0  0  0  0  0  0  0  0  0
    1.1025   24.8212  -26.1500 H   0  0  0  0  0  0  0  0  0  0  0  0
   -5.8873   23.8830  -29.3698 H   0  0  0  0  0  0  0  0  0  0  0  0
   -7.7441   22.5414  -30.3426 H   0  0  0  0  0  0  0  0  0  0  0  0
   -9.2114   21.7370  -32.0461 H   0  0  0  0  0  0  0  0  0  0  0  0
  -10.5172   19.6256  -33.0369 H   0  0  0  0  0  0  0  0  0  0  0  0
   -6.6494   18.2653  -32.0676 H   0  0  0  0  0  0  0  0  0  0  0  0
   -4.8585   19.8100  -32.0701 H   0  0  0  0  0  0  0  0  0  0  0  0
   -3.0056   21.1544  -31.0945 H   0  0  0  0  0  0  0  0  0  0  0  0
   -3.8619   21.6069  -27.0218 H   0  0  0  0  0  0  0  0  0  0  0  0
   -3.6496   19.2403  -26.2622 H   0  0  0  0  0  0  0  0  0  0  0  0
   -1.7932   17.8105  -27.1252 H   0  0  0  0  0  0  0  0  0  0  0  0
   -0.1441   18.7477  -28.7463 H   0  0  0  0  0  0  0  0  0  0  0  0
  1  2  1  0
  2  3  1  0
  2  4  1  0
  4  5  1  0
  5  6  2  0
  5  7  1  0
  7  8  1  0
  8  9  1  0
  8 10  2  0
 10 11  1  0
 10 12  1  0
 12 13  1  0
 13 14  2  0
 14 15  1  0
 15 16  2  0
 16 17  1  0
 17 18  1  0
 18 19  2  0
 19 20  1  0
 20 21  1  0
 16 22  1  0
 22 23  2  0
 12 24  1  0
 24 25  1  0
 25 26  2  0
 26 27  1  0
 27 28  2  0
 28 29  1  0
 29 30  2  0
 30 31  1  0
 24  7  2  0
 30 25  1  0
 23 13  1  0
 21 17  2  0
  1 32  1  0
  1 33  1  0
  1 34  1  0
  2 35  1  0
  3 36  1  0
  3 37  1  0
  3 38  1  0
  4 39  1  0
  4 40  1  0
 14 41  1  0
 15 42  1  0
 18 43  1  0
 19 44  1  0
 21 45  1  0
 22 46  1  0
 23 47  1  0
 26 48  1  0
 27 49  1  0
 28 50  1  0
 29 51  1  0
M  CHG  3   9  -1  11  -1  31  -1
M  END
>  <UniqueID>  (3) 
2

>  <SMILES>  (3) 
CC(C)CC(=O)c1c([O-])c([O-])n(-c2ccc(-c3ccoc3)cc2)c1-c1ccccc1[O-]

>  <Energy>  (3) 
121.88256528205642

>  <Genealogy>  (3) 
CC(C)CC(=O)c1c([O-])c([O-])n(-c2ccc(-c3ccoc3)cc2)c1-c1ccccc1[O-] (protonated)
CC(C)CC(=O)c1c([O-])c([O-])n(-c2ccc(-c3ccoc3)cc2)c1-c1ccccc1[O-] (3D coordinates assigned)
CC(C)CC(=O)c1c([O-])c([O-])n(-c2ccc(-c3ccoc3)cc2)c1-c1ccccc1[O-] (optimized conformer: 121.88256528205642 kcal/mol)

>  <smiles>  (3) 
CC(C)CC(=O)c1c(O)c(O)n(-c2ccc(-c3ccoc3)cc2)c1-c1ccccc1O

>  <score_type>  (3) 
oracle

>  <origin>  (3) 
adgpu

>  <m_score__min__energy>  (3) 
-15.44

>  <m_primary>  (3) 
energy

$$$$
3:0
     RDKit          3D

 39 41  0  0  0  0  0  0  0  0999 V2000
   -0.5187   20.7387  -28.1745 H   0  0  0  0  0  0  0  0  0  0  0  0
   -1.2720   21.5390  -28.2190 C   0  0  0  0  0  0  0  0  0  0  0  0
   -1.1480   22.6580  -28.8950 O   0  0  0  0  0  0  0  0  0  0  0  0
   -2.2320   23.3810  -28.7180 C   0  0  0  0  0  0  0  0  0  0  0  0
   -2.4580   24.7020  -29.3300 C   0  0  0  0  0  0  0  0  0  0  0  0
   -1.7430   25.6780  -28.9800 O   0  0  0  0  0  0  0  0  0  0  0  0
   -3.5180   24.9220  -30.2690 N   0  0  0  0  0  0  0  0  0  0  0  0
   -4.4710   23.9370  -30.6890 C   0  0  0  0  0  0  0  0  0  0  0  0
   -5.8150   24.0020  -30.2830 C   0  0  0  0  0  0  0  0  0  0  0  0
   -6.1482   24.8120  -29.6176 H   0  0  0  0  0  0  0  0  0  0  0  0
   -6.7290   23.0410  -30.7220 C   0  0  0  0  0  0  0  0  0  0  0  0
   -7.7799   23.0964  -30.4019 H   0  0  0  0  0  0  0  0  0  0  0  0
   -6.3100   22.0070  -31.5690 C   0  0  0  0  0  0  0  0  0  0  0  0
   -7.4690   20.8390  -32.1910 S   0  0  0  0  0  0  0  0  0  0  0  0
   -8.8470   21.3880  -31.9510 O   0  0  0  0  0  0  0  0  0  0  0  0
   -7.2980   20.6220  -33.6680 O   0  0  0  0  0  0  0  0  0  0  0  0
   -7.3330   19.3210  -31.3610 N   0  0  0  0  0  0  0  0  0  0  0  0
   -6.5760   18.2900  -31.6120 C   0  0  0  0  0  0  0  0  0  0  0  0
   -6.6200   17.2150  -30.8580 O   0  0  0  0  0  0  0  0  0  0  0  0
   -5.7760   16.3230  -31.2770 N   0  0  0  0  0  0  0  0  0  0  0  0
   -5.6270   15.3900  -30.8320 H   0  0  0  0  0  0  0  0  0  0  0  0
   -5.1370   16.8190  -32.3510 C   0  0  0  0  0  0  0  0  0  0  0  0
   -4.0640   16.0890  -33.0960 C   0  0  0  0  0  0  0  0  0  0  0  0
   -3.3742   15.6197  -32.3791 H   0  0  0  0  0  0  0  0  0  0  0  0
   -4.5197   15.3128  -33.7283 H   0  0  0  0  0  0  0  0  0  0  0  0
   -3.5093   16.7979  -33.7283 H   0  0  0  0  0  0  0  0  0  0  0  0
   -5.6280   18.0880  -32.6270 C   0  0  0  0  0  0  0  0  0  0  0  0
   -5.1080   18.9990  -33.6990 C   0  0  0  0  0  0  0  0  0  0  0  0
   -4.6134   19.8655  -33.2357 H   0  0  0  0  0  0  0  0  0  0  0  0
   -4.3846   18.4546  -34.3237 H   0  0  0  0  0  0  0  0  0  0  0  0
   -5.9446   19.3451  -34.3237 H   0  0  0  0  0  0  0  0  0  0  0  0
   -4.9610   21.9120  -31.9320 C   0  0  0  0  0  0  0  0  0  0  0  0
   -4.6216   21.0828  -32.5702 H   0  0  0  0  0  0  0  0  0  0  0  0
   -4.0440   22.8690  -31.4850 C   0  0  0  0  0  0  0  0  0  0  0  0
   -2.9827   22.7814  -31.7606 H   0  0  0  0  0  0  0  0  0  0  0  0
   -3.1140   22.7070  -27.8970 C   0  0  0  0  0  0  0  0  0  0  0  0
   -4.1077   23.0464  -27.5692 H   0  0  0  0  0  0  0  0  0  0  0  0
   -2.4910   21.5200  -27.5730 C   0  0  0  0  0  0  0  0  0  0  0  0
   -2.8861   20.7200  -26.9297 H   0  0  0  0  0  0  0  0  0  0  0  0
  1  2  1  0
  2  3  1  0
  3  4  1  0
  4  5  1  0
  5  6  2  0
  5  7  1  0
  7  8  1  0
  8  9  2  0
  9 10  1  0
  9 11  1  0
 11 12  1  0
 11 13  2  0
 13 14  1  0
 14 15  2  0
 14 16  2  0
 14 17  1  0
 17 18  2  0
 18 19  1  0
 19 20  1  0
 20 21  1  0
 20 22  1  0
 22 23  1  0
 23 24  1  0
 23 25  1  0
 23 26  1  0
 22 27  2  0
 27 28  1  0
 28 29  1  0
 28 30  1  0
 28 31  1  0
 13 32  1  0
 32 33  1  0
 32 34  2  0
 34 35  1  0
  4 36  2  0
 36 37  1  0
 36 38  1  0
 38 39  1  0
 38  2  2  0
 34  8  1  0
 27 18  1  0
M  CHG  1   7  -1
M  END
>  <UniqueID>  (4) 
3

>  <SMILES>  (4) 
Cc1[nH]o/c(=N/S(=O)(=O)c2ccc([N-]C(=O)c3ccco3)cc2)c1C

>  <Energy>  (4) 
110.72729805117807

>  <Genealogy>  (4) 
Cc1[nH]oc(=NS(=O)(=O)c2ccc([N-]C(=O)c3ccco3)cc2)c1C (protonated)
Cc1[nH]o/c(=N/S(=O)(=O)c2ccc([N-]C(=O)c3ccco3)cc2)c1C (cis-trans isomerization)
Cc1[nH]o/c(=N/S(=O)(=O)c2ccc([N-]C(=O)c3ccco3)cc2)c1C (3D coordinates assigned)
Cc1[nH]o/c(=N/S(=O)(=O)c2ccc([N-]C(=O)c3ccco3)cc2)c1C (optimized conformer: 110.72729805117807 kcal/mol)

>  <smiles>  (4) 
Cc1[nH]oc(=NS(=O)(=O)c2ccc(NC(=O)c3ccco3)cc2)c1C

>  <score_type>  (4) 
oracle

>  <origin>  (4) 
adgpu

>  <m_score__min__energy>  (4) 
-9.9399999999999995

>  <m_primary>  (4) 
energy

$$$$
4:0
     RDKit          3D

 53 56  0  0  0  0  0  0  0  0999 V2000
   -1.5790   21.5400  -32.8010 O   0  0  0  0  0  0  0  0  0  0  0  0
   -2.4510   20.8580  -32.1990 C   0  0  0  0  0  0  0  0  0  0  0  0
   -2.8560   21.2030  -30.8630 N   0  0  0  0  0  0  0  0  0  0  0  0
   -2.2840   22.2780  -30.1010 C   0  0  0  0  0  0  0  0  0  0  0  0
   -0.9180   22.2970  -29.7680 C   0  0  0  0  0  0  0  0  0  0  0  0
   -0.3830   23.3650  -29.0440 C   0  0  0  0  0  0  0  0  0  0  0  0
   -1.2010   24.4330  -28.6490 C   0  0  0  0  0  0  0  0  0  0  0  0
   -0.5280   25.7700  -27.7110 S   0  0  0  0  0  0  0  0  0  0  0  0
   -0.8360   27.0670  -28.4060 O   0  0  0  0  0  0  0  0  0  0  0  0
    0.9660   25.6230  -27.6390 O   0  0  0  0  0  0  0  0  0  0  0  0
   -1.1820   25.8110  -26.0890 N   0  0  0  0  0  0  0  0  0  0  0  0
   -0.2800   25.1170  -25.1510 C   0  0  0  0  0  0  0  0  0  0  0  0
   -0.5490   25.5670  -23.7070 C   0  0  0  0  0  0  0  0  0  0  0  0
   -0.3590   26.9600  -23.4870 O   0  0  0  0  0  0  0  0  0  0  0  0
   -0.4780   27.7480  -24.6640 C   0  0  0  0  0  0  0  0  0  0  0  0
   -1.5080   27.1910  -25.6660 C   0  0  0  0  0  0  0  0  0  0  0  0
   -2.5540   24.4330  -29.0080 C   0  0  0  0  0  0  0  0  0  0  0  0
   -3.0910   23.3650  -29.7350 C   0  0  0  0  0  0  0  0  0  0  0  0
   -3.0660   19.7190  -32.9010 C   0  0  0  0  0  0  0  0  0  0  0  0
   -4.3300   19.3540  -32.5570 N   0  0  0  0  0  0  0  0  0  0  0  0
   -4.9580   18.3130  -33.1600 C   0  0  0  0  0  0  0  0  0  0  0  0
   -6.5890   17.8860  -32.6880 S   0  0  0  0  0  0  0  0  0  0  0  0
   -6.5500   17.0410  -31.4460 O   0  0  0  0  0  0  0  0  0  0  0  0
   -7.2410   17.0890  -33.7830 O   0  0  0  0  0  0  0  0  0  0  0  0
   -7.5090   19.3570  -32.3910 C   0  0  0  0  0  0  0  0  0  0  0  0
   -8.9030   19.3620  -32.5420 C   0  0  0  0  0  0  0  0  0  0  0  0
   -9.6290   20.5380  -32.3230 C   0  0  0  0  0  0  0  0  0  0  0  0
   -8.9650   21.7120  -31.9570 C   0  0  0  0  0  0  0  0  0  0  0  0
   -7.5730   21.7140  -31.8130 C   0  0  0  0  0  0  0  0  0  0  0  0
   -6.8460   20.5390  -32.0320 C   0  0  0  0  0  0  0  0  0  0  0  0
   -4.3290   17.6170  -34.1410 N   0  0  0  0  0  0  0  0  0  0  0  0
   -3.0730   17.9500  -34.5350 C   0  0  0  0  0  0  0  0  0  0  0  0
   -2.4070   19.0190  -33.9300 C   0  0  0  0  0  0  0  0  0  0  0  0
   -0.8310   19.4970  -34.5530 Cl  0  0  0  0  0  0  0  0  0  0  0  0
   -3.5600   20.5980  -30.3850 H   0  0  0  0  0  0  0  0  0  0  0  0
   -0.2673   21.4665  -30.0793 H   0  0  0  0  0  0  0  0  0  0  0  0
    0.6854   23.3682  -28.7824 H   0  0  0  0  0  0  0  0  0  0  0  0
   -0.4442   24.0320  -25.2278 H   0  0  0  0  0  0  0  0  0  0  0  0
    0.7598   25.3645  -25.4111 H   0  0  0  0  0  0  0  0  0  0  0  0
   -1.5902   25.3165  -23.4555 H   0  0  0  0  0  0  0  0  0  0  0  0
    0.1798   25.0434  -23.0709 H   0  0  0  0  0  0  0  0  0  0  0  0
   -0.7854   28.7639  -24.3750 H   0  0  0  0  0  0  0  0  0  0  0  0
    0.5019   27.7392  -25.1637 H   0  0  0  0  0  0  0  0  0  0  0  0
   -2.5006   27.1917  -25.1918 H   0  0  0  0  0  0  0  0  0  0  0  0
   -1.4926   27.8321  -26.5597 H   0  0  0  0  0  0  0  0  0  0  0  0
   -3.1977   25.2763  -28.7173 H   0  0  0  0  0  0  0  0  0  0  0  0
   -4.1530   23.3780  -30.0213 H   0  0  0  0  0  0  0  0  0  0  0  0
   -9.4269   18.4396  -32.8332 H   0  0  0  0  0  0  0  0  0  0  0  0
  -10.7229   20.5384  -32.4390 H   0  0  0  0  0  0  0  0  0  0  0  0
   -9.5370   22.6352  -31.7820 H   0  0  0  0  0  0  0  0  0  0  0  0
   -7.0507   22.6391  -31.5277 H   0  0  0  0  0  0  0  0  0  0  0  0
   -5.7515   20.5425  -31.9223 H   0  0  0  0  0  0  0  0  0  0  0  0
   -2.5784   17.3765  -35.3328 H   0  0  0  0  0  0  0  0  0  0  0  0
  1  2  2  0
  2  3  1  0
  3  4  1  0
  4  5  2  0
  5  6  1  0
  6  7  2  0
  7  8  1  0
  8  9  2  0
  8 10  2  0
  8 11  1  0
 11 12  1  0
 12 13  1  0
 13 14  1  0
 14 15  1  0
 15 16  1  0
  7 17  1  0
 17 18  2  0
  2 19  1  0
 19 20  2  0
 20 21  1  0
 21 22  1  0
 22 23  2  0
 22 24  2  0
 22 25  1  0
 25 26  2  0
 26 27  1  0
 27 28  2  0
 28 29  1  0
 29 30  2  0
 21 31  2  0
 31 32  1  0
 32 33  2  0
 33 34  1  0
 18  4  1  0
 33 19  1  0
 16 11  1  0
 30 25  1  0
  3 35  1  0
  5 36  1  0
  6 37  1  0
 12 38  1  0
 12 39  1  0
 13 40  1  0
 13 41  1  0
 15 42  1  0
 15 43  1  0
 16 44  1  0
 16 45  1  0
 17 46  1  0
 18 47  1  0
 26 48  1  0
 27 49  1  0
 28 50  1  0
 29 51  1  0
 30 52  1  0
 32 53  1  0
M  END
>  <UniqueID>  (5) 
4

>  <SMILES>  (5) 
O=C(Nc1ccc(S(=O)(=O)N2CCOCC2)cc1)c1nc(S(=O)(=O)c2ccccc2)ncc1Cl

>  <Energy>  (5) 
80.68480340936118

>  <Genealogy>  (5) 
O=C(Nc1ccc(S(=O)(=O)N2CCOCC2)cc1)c1nc(S(=O)(=O)c2ccccc2)ncc1Cl (3D coordinates assigned)
O=C(Nc1ccc(S(=O)(=O)N2CCOCC2)cc1)c1nc(S(=O)(=O)c2ccccc2)ncc1Cl (nonaromatic ring conformer: 80.68480340936118 kcal/mol)

>  <smiles>  (5) 
O=C(Nc1ccc(S(=O)(=O)N2CCOCC2)cc1)c1nc(S(=O)(=O)c2ccccc2)ncc1Cl

>  <score_type>  (5) 
oracle

>  <origin>  (5) 
adgpu

>  <m_score__min__energy>  (5) 
-10.16

>  <m_primary>  (5) 
energy

$$$$
5:0
     RDKit          3D

 43 45  0  0  0  0  0  0  0  0999 V2000
    3.6600   19.9910  -27.8580 N   0  0  0  0  0  0  0  0  0  0  0  0
    2.3410   19.0750  -28.4940 S   0  0  0  0  0  0  0  0  0  0  0  0
    2.7920   18.3250  -29.7160 O   0  0  0  0  0  0  0  0  0  0  0  0
    1.8780   18.0840  -27.4630 O   0  0  0  0  0  0  0  0  0  0  0  0
    1.0200   20.1600  -28.9150 C   0  0  0  0  0  0  0  0  0  0  0  0
    0.4390   20.9740  -27.9350 C   0  0  0  0  0  0  0  0  0  0  0  0
   -0.6190   21.8260  -28.2640 C   0  0  0  0  0  0  0  0  0  0  0  0
   -1.1040   21.8830  -29.5790 C   0  0  0  0  0  0  0  0  0  0  0  0
   -2.2080   22.7520  -29.8880 N   0  0  0  0  0  0  0  0  0  0  0  0
   -3.2080   22.4550  -30.8770 C   0  0  0  0  0  0  0  0  0  0  0  0
   -2.9540   21.6320  -31.7990 O   0  0  0  0  0  0  0  0  0  0  0  0
   -4.5120   23.1590  -30.8720 C   0  0  0  0  0  0  0  0  0  0  0  0
   -5.6920   22.4310  -31.1010 C   0  0  0  0  0  0  0  0  0  0  0  0
   -6.9390   23.0710  -31.1100 C   0  0  0  0  0  0  0  0  0  0  0  0
   -8.4050   22.1380  -31.3840 S   0  0  0  0  0  0  0  0  0  0  0  0
   -9.3070   22.8730  -32.3370 O   0  0  0  0  0  0  0  0  0  0  0  0
   -9.1470   21.9500  -30.0900 O   0  0  0  0  0  0  0  0  0  0  0  0
   -7.9690   20.5720  -32.0570 C   0  0  0  0  0  0  0  0  0  0  0  0
   -8.5860   19.4050  -31.5840 C   0  0  0  0  0  0  0  0  0  0  0  0
   -8.2230   18.1580  -32.1060 C   0  0  0  0  0  0  0  0  0  0  0  0
   -7.2400   18.0730  -33.0960 C   0  0  0  0  0  0  0  0  0  0  0  0
   -6.6160   19.2330  -33.5640 C   0  0  0  0  0  0  0  0  0  0  0  0
   -6.9770   20.4810  -33.0450 C   0  0  0  0  0  0  0  0  0  0  0  0
   -7.0130   24.4470  -30.8670 C   0  0  0  0  0  0  0  0  0  0  0  0
   -5.8500   25.1790  -30.6240 C   0  0  0  0  0  0  0  0  0  0  0  0
   -4.6030   24.5450  -30.6170 C   0  0  0  0  0  0  0  0  0  0  0  0
   -3.4700   25.2980  -30.3260 O   0  0  0  0  0  0  0  0  0  0  0  0
   -0.5360   21.0430  -30.5540 C   0  0  0  0  0  0  0  0  0  0  0  0
    0.5220   20.1910  -30.2240 C   0  0  0  0  0  0  0  0  0  0  0  0
    3.8260   19.6510  -26.8840 H   0  0  0  0  0  0  0  0  0  0  0  0
    0.8166   20.9428  -26.9023 H   0  0  0  0  0  0  0  0  0  0  0  0
   -1.0746   22.4564  -27.4862 H   0  0  0  0  0  0  0  0  0  0  0  0
   -2.2260   23.6990  -29.4480 H   0  0  0  0  0  0  0  0  0  0  0  0
   -5.6364   21.3463  -31.2752 H   0  0  0  0  0  0  0  0  0  0  0  0
   -9.3564   19.4696  -30.8015 H   0  0  0  0  0  0  0  0  0  0  0  0
   -8.7117   17.2443  -31.7368 H   0  0  0  0  0  0  0  0  0  0  0  0
   -6.9572   17.0927  -33.5071 H   0  0  0  0  0  0  0  0  0  0  0  0
   -5.8404   19.1645  -34.3410 H   0  0  0  0  0  0  0  0  0  0  0  0
   -6.4823   21.3923  -33.4121 H   0  0  0  0  0  0  0  0  0  0  0  0
   -7.9898   24.9527  -30.8675 H   0  0  0  0  0  0  0  0  0  0  0  0
   -5.9142   26.2611  -30.4368 H   0  0  0  0  0  0  0  0  0  0  0  0
   -0.9267   21.0567  -31.5822 H   0  0  0  0  0  0  0  0  0  0  0  0
    0.9649   19.5429  -30.9946 H   0  0  0  0  0  0  0  0  0  0  0  0
  1  2  1  0
  2  3  2  0
  2  4  2  0
  2  5  1  0
  5  6  2  0
  6  7  1  0
  7  8  2  0
  8  9  1  0
  9 10  1  0
 10 11  2  0
 10 12  1  0
 12 13  2  0
 13 14  1  0
 14 15  1  0
 15 16  2  0
 15 17  2  0
 15 18  1  0
 18 19  2  0
 19 20  1  0
 20 21  2  0
 21 22  1  0
 22 23  2  0
 14 24  2  0
 24 25  1  0
 25 26  2  0
 26 27  1  0
  8 28  1  0
 28 29  2  0
 29  5  1  0
 26 12  1  0
 23 18  1  0
  1 30  1  0
  6 31  1  0
  7 32  1  0
  9 33  1  0
 13 34  1  0
 19 35  1  0
 20 36  1  0
 21 37  1  0
 22 38  1  0
 23 39  1  0
 24 40  1  0
 25 41  1  0
 28 42  1  0
 29 43  1  0
M  CHG  2   1  -1  27  -1
M  END
>  <UniqueID>  (6) 
5

>  <SMILES>  (6) 
[NH-]S(=O)(=O)c1ccc(NC(=O)c2cc(S(=O)(=O)c3ccccc3)ccc2[O-])cc1

>  <Energy>  (6) 
54.983980132233356

>  <Genealogy>  (6) 
[NH-]S(=O)(=O)c1ccc(NC(=O)c2cc(S(=O)(=O)c3ccccc3)ccc2[O-])cc1 (protonated)
[NH-]S(=O)(=O)c1ccc(NC(=O)c2cc(S(=O)(=O)c3ccccc3)ccc2[O-])cc1 (3D coordinates assigned)
[NH-]S(=O)(=O)c1ccc(NC(=O)c2cc(S(=O)(=O)c3ccccc3)ccc2[O-])cc1 (optimized conformer: 54.983980132233356 kcal/mol)

>  <smiles>  (6) 
NS(=O)(=O)c1ccc(NC(=O)c2cc(S(=O)(=O)c3ccccc3)ccc2O)cc1

>  <score_type>  (6) 
oracle

>  <origin>  (6) 
adgpu

>  <m_score__min__energy>  (6) 
-12.82

>  <m_primary>  (6) 
energy

$$$$
6:0
     RDKit          3D

 55 57  0  0  0  0  0  0  0  0999 V2000
   -4.5600   17.8470  -35.3350 O   0  0  0  0  0  0  0  0  0  0  0  0
   -5.0240   18.0890  -34.2280 C   0  0  0  0  0  0  0  0  0  0  0  0
   -4.0990   18.0880  -33.0320 C   0  0  0  0  0  0  0  0  0  0  0  0
   -2.6140   18.1400  -33.4310 C   0  0  0  0  0  0  0  0  0  0  0  0
   -2.1270   19.5370  -33.8470 C   0  0  0  0  0  0  0  0  0  0  0  0
   -2.6150   20.6180  -32.9160 C   0  0  0  0  0  0  0  0  0  0  0  0
   -1.9580   20.8590  -31.7020 C   0  0  0  0  0  0  0  0  0  0  0  0
   -2.4140   21.8570  -30.8380 C   0  0  0  0  0  0  0  0  0  0  0  0
   -3.5460   22.6140  -31.1700 C   0  0  0  0  0  0  0  0  0  0  0  0
   -4.1290   23.8600  -30.0640 S   0  0  0  0  0  0  0  0  0  0  0  0
   -3.6070   23.5600  -28.6860 O   0  0  0  0  0  0  0  0  0  0  0  0
   -3.5640   25.1890  -30.4840 O   0  0  0  0  0  0  0  0  0  0  0  0
   -5.8770   23.9590  -29.9950 N   0  0  0  0  0  0  0  0  0  0  0  0
   -6.4780   24.6760  -31.1370 C   0  0  0  0  0  0  0  0  0  0  0  0
   -6.8310   23.7390  -32.2980 C   0  0  0  0  0  0  0  0  0  0  0  0
   -7.6380   22.6720  -31.8520 O   0  0  0  0  0  0  0  0  0  0  0  0
   -6.8960   21.8760  -30.9560 C   0  0  0  0  0  0  0  0  0  0  0  0
   -6.5270   22.6700  -29.6910 C   0  0  0  0  0  0  0  0  0  0  0  0
   -4.1940   22.3890  -32.3910 C   0  0  0  0  0  0  0  0  0  0  0  0
   -3.7320   21.3960  -33.2580 C   0  0  0  0  0  0  0  0  0  0  0  0
   -6.4510   18.3210  -34.0740 N   0  0  0  0  0  0  0  0  0  0  0  0
   -6.6780   19.7200  -33.6290 C   0  0  0  0  0  0  0  0  0  0  0  0
   -8.0920   19.9020  -33.0640 C   0  0  0  0  0  0  0  0  0  0  0  0
   -8.3170   19.0140  -31.8240 C   0  0  0  0  0  0  0  0  0  0  0  0
   -7.3660   17.8060  -31.7790 C   0  0  0  0  0  0  0  0  0  0  0  0
   -7.0750   17.2890  -33.1950 C   0  0  0  0  0  0  0  0  0  0  0  0
   -4.3273   18.9658  -32.4096 H   0  0  0  0  0  0  0  0  0  0  0  0
   -4.2637   17.1480  -32.4849 H   0  0  0  0  0  0  0  0  0  0  0  0
   -2.0132   17.8058  -32.5723 H   0  0  0  0  0  0  0  0  0  0  0  0
   -2.4974   17.4878  -34.3091 H   0  0  0  0  0  0  0  0  0  0  0  0
   -1.0270   19.5417  -33.8476 H   0  0  0  0  0  0  0  0  0  0  0  0
   -2.5322   19.7487  -34.8475 H   0  0  0  0  0  0  0  0  0  0  0  0
   -1.0780   20.2586  -31.4279 H   0  0  0  0  0  0  0  0  0  0  0  0
   -1.8832   22.0496  -29.8940 H   0  0  0  0  0  0  0  0  0  0  0  0
   -7.3962   25.1764  -30.7957 H   0  0  0  0  0  0  0  0  0  0  0  0
   -5.7361   25.3999  -31.5052 H   0  0  0  0  0  0  0  0  0  0  0  0
   -7.3759   24.3066  -33.0668 H   0  0  0  0  0  0  0  0  0  0  0  0
   -5.9000   23.3271  -32.7146 H   0  0  0  0  0  0  0  0  0  0  0  0
   -7.4975   21.0009  -30.6690 H   0  0  0  0  0  0  0  0  0  0  0  0
   -5.9682   21.5584  -31.4542 H   0  0  0  0  0  0  0  0  0  0  0  0
   -7.4456   22.8659  -29.1185 H   0  0  0  0  0  0  0  0  0  0  0  0
   -5.8101   22.0645  -29.1171 H   0  0  0  0  0  0  0  0  0  0  0  0
   -5.0688   22.9957  -32.6679 H   0  0  0  0  0  0  0  0  0  0  0  0
   -4.2467   21.2227  -34.2146 H   0  0  0  0  0  0  0  0  0  0  0  0
   -6.9030   18.2320  -35.0140 H   0  0  0  0  0  0  0  0  0  0  0  0
   -5.9450   19.9712  -32.8482 H   0  0  0  0  0  0  0  0  0  0  0  0
   -6.5632   20.3841  -34.4984 H   0  0  0  0  0  0  0  0  0  0  0  0
   -8.2320   20.9556  -32.7807 H   0  0  0  0  0  0  0  0  0  0  0  0
   -8.8162   19.6083  -33.8381 H   0  0  0  0  0  0  0  0  0  0  0  0
   -8.1563   19.6222  -30.9217 H   0  0  0  0  0  0  0  0  0  0  0  0
   -9.3450   18.6260  -31.8751 H   0  0  0  0  0  0  0  0  0  0  0  0
   -6.4210   18.1083  -31.3040 H   0  0  0  0  0  0  0  0  0  0  0  0
   -7.8445   17.0016  -31.2011 H   0  0  0  0  0  0  0  0  0  0  0  0
   -6.3910   16.4307  -33.1214 H   0  0  0  0  0  0  0  0  0  0  0  0
   -8.0374   17.0083  -33.6478 H   0  0  0  0  0  0  0  0  0  0  0  0
  1  2  2  0
  2  3  1  0
  3  4  1  0
  4  5  1  0
  5  6  1  0
  6  7  2  0
  7  8  1  0
  8  9  2  0
  9 10  1  0
 10 11  2  0
 10 12  2  0
 10 13  1  0
 13 14  1  0
 14 15  1  0
 15 16  1  0
 16 17  1  0
 17 18  1  0
  9 19  1  0
 19 20  2  0
  2 21  1  0
 21 22  1  0
 22 23  1  0
 23 24  1  0
 24 25  1  0
 25 26  1  0
 20  6  1  0
 26 21  1  0
 18 13  1  0
  3 27  1  0
  3 28  1  0
  4 29  1  0
  4 30  1  0
  5 31  1  0
  5 32  1  0
  7 33  1  0
  8 34  1  0
 14 35  1  0
 14 36  1  0
 15 37  1  0
 15 38  1  0
 17 39  1  0
 17 40  1  0
 18 41  1  0
 18 42  1  0
 19 43  1  0
 20 44  1  0
 21 45  1  0
 22 46  1  0
 22 47  1  0
 23 48  1  0
 23 49  1  0
 24 50  1  0
 24 51  1  0
 25 52  1  0
 25 53  1  0
 26 54  1  0
 26 55  1  0
M  CHG  1  21   1
M  END
>  <UniqueID>  (7) 
6

>  <SMILES>  (7) 
O=C(CCCc1ccc(S(=O)(=O)N2CCOCC2)cc1)[NH+]1CCCCC1

>  <Energy>  (7) 
61.411961033759304

>  <Genealogy>  (7) 
O=C(CCCc1ccc(S(=O)(=O)N2CCOCC2)cc1)[NH+]1CCCCC1 (protonated)
O=C(CCCc1ccc(S(=O)(=O)N2CCOCC2)cc1)[NH+]1CCCCC1 (3D coordinates assigned)
O=C(CCCc1ccc(S(=O)(=O)N2CCOCC2)cc1)[NH+]1CCCCC1 (nonaromatic ring conformer: 61.411961033759304 kcal/mol)

>  <smiles>  (7) 
O=C(CCCc1ccc(S(=O)(=O)N2CCOCC2)cc1)N1CCCCC1

>  <score_type>  (7) 
oracle

>  <origin>  (7) 
adgpu

>  <m_score__min__energy>  (7) 
-9.4100000000000001

>  <m_primary>  (7) 
energy

$$$$
7:0
     RDKit          3D

 53 55  0  0  0  0  0  0  0  0999 V2000
    0.0220   14.9740  -38.0030 C   0  0  0  0  0  0  0  0  0  0  0  0
   -0.4710   14.6950  -36.6960 O   0  0  0  0  0  0  0  0  0  0  0  0
   -1.4050   15.4910  -36.0160 C   0  0  0  0  0  0  0  0  0  0  0  0
   -2.7330   15.0620  -35.9690 C   0  0  0  0  0  0  0  0  0  0  0  0
   -3.6980   15.8120  -35.2950 C   0  0  0  0  0  0  0  0  0  0  0  0
   -3.3490   17.0100  -34.6460 C   0  0  0  0  0  0  0  0  0  0  0  0
   -4.3230   17.7690  -33.9120 N   0  0  0  0  0  0  0  0  0  0  0  0
   -5.7650   17.1300  -33.1910 S   0  0  0  0  0  0  0  0  0  0  0  0
   -5.4160   16.3150  -31.9780 O   0  0  0  0  0  0  0  0  0  0  0  0
   -6.4810   16.2720  -34.1980 O   0  0  0  0  0  0  0  0  0  0  0  0
   -6.7990   18.4660  -32.7020 C   0  0  0  0  0  0  0  0  0  0  0  0
   -7.9240   18.2370  -31.8970 C   0  0  0  0  0  0  0  0  0  0  0  0
   -8.7370   19.3050  -31.5050 C   0  0  0  0  0  0  0  0  0  0  0  0
   -8.4260   20.6150  -31.9010 C   0  0  0  0  0  0  0  0  0  0  0  0
   -9.3150   21.7590  -31.5140 C   0  0  0  0  0  0  0  0  0  0  0  0
   -7.3040   20.8400  -32.7150 C   0  0  0  0  0  0  0  0  0  0  0  0
   -6.4920   19.7720  -33.1070 C   0  0  0  0  0  0  0  0  0  0  0  0
   -2.0100   17.4560  -34.6920 C   0  0  0  0  0  0  0  0  0  0  0  0
   -1.5930   18.7130  -34.0200 C   0  0  0  0  0  0  0  0  0  0  0  0
   -0.8360   19.5210  -34.6210 O   0  0  0  0  0  0  0  0  0  0  0  0
   -1.9730   19.0060  -32.6680 N   0  0  0  0  0  0  0  0  0  0  0  0
   -2.6050   20.2160  -32.2160 C   0  0  0  0  0  0  0  0  0  0  0  0
   -3.5390   20.8840  -33.0260 C   0  0  0  0  0  0  0  0  0  0  0  0
   -4.1620   22.0480  -32.5730 C   0  0  0  0  0  0  0  0  0  0  0  0
   -3.8550   22.5680  -31.3130 C   0  0  0  0  0  0  0  0  0  0  0  0
   -4.6650   24.0290  -30.7550 S   0  0  0  0  0  0  0  0  0  0  0  0
   -3.4920   25.2650  -30.4610 N   0  0  0  0  0  0  0  0  0  0  0  0
   -5.4160   23.7300  -29.4860 O   0  0  0  0  0  0  0  0  0  0  0  0
   -5.6400   24.5140  -31.7920 O   0  0  0  0  0  0  0  0  0  0  0  0
   -2.9070   21.9210  -30.5090 C   0  0  0  0  0  0  0  0  0  0  0  0
   -2.2630   20.7560  -30.9610 C   0  0  0  0  0  0  0  0  0  0  0  0
   -1.2690   20.0580  -30.0730 C   0  0  0  0  0  0  0  0  0  0  0  0
   -1.0500   16.6960  -35.3850 C   0  0  0  0  0  0  0  0  0  0  0  0
    0.9770   15.5145  -37.9270 H   0  0  0  0  0  0  0  0  0  0  0  0
    0.1772   14.0298  -38.5456 H   0  0  0  0  0  0  0  0  0  0  0  0
   -0.7075   15.5931  -38.5456 H   0  0  0  0  0  0  0  0  0  0  0  0
   -3.0211   14.1247  -36.4675 H   0  0  0  0  0  0  0  0  0  0  0  0
   -4.7409   15.4630  -35.2712 H   0  0  0  0  0  0  0  0  0  0  0  0
   -8.1677   17.2144  -31.5730 H   0  0  0  0  0  0  0  0  0  0  0  0
   -9.6248   19.1175  -30.8831 H   0  0  0  0  0  0  0  0  0  0  0  0
   -9.3681   21.8274  -30.4174 H   0  0  0  0  0  0  0  0  0  0  0  0
   -8.9053   22.6955  -31.9204 H   0  0  0  0  0  0  0  0  0  0  0  0
  -10.3237   21.5933  -31.9204 H   0  0  0  0  0  0  0  0  0  0  0  0
   -7.0631   21.8611  -33.0455 H   0  0  0  0  0  0  0  0  0  0  0  0
   -5.6087   19.9573  -33.7358 H   0  0  0  0  0  0  0  0  0  0  0  0
   -3.7806   20.4872  -34.0231 H   0  0  0  0  0  0  0  0  0  0  0  0
   -4.8983   22.5585  -33.2111 H   0  0  0  0  0  0  0  0  0  0  0  0
   -3.9900   26.0540  -29.9890 H   0  0  0  0  0  0  0  0  0  0  0  0
   -2.6648   22.3280  -29.5162 H   0  0  0  0  0  0  0  0  0  0  0  0
   -1.5277   20.2397  -29.0194 H   0  0  0  0  0  0  0  0  0  0  0  0
   -1.2924   18.9770  -30.2752 H   0  0  0  0  0  0  0  0  0  0  0  0
   -0.2602   20.4470  -30.2752 H   0  0  0  0  0  0  0  0  0  0  0  0
   -0.0093   17.0489  -35.4336 H   0  0  0  0  0  0  0  0  0  0  0  0
  1  2  1  0
  2  3  1  0
  3  4  2  0
  4  5  1  0
  5  6  2  0
  6  7  1  0
  7  8  1  0
  8  9  2  0
  8 10  2  0
  8 11  1  0
 11 12  2  0
 12 13  1  0
 13 14  2  0
 14 15  1  0
 14 16  1  0
 16 17  2  0
  6 18  1  0
 18 19  1  0
 19 20  2  0
 19 21  1  0
 21 22  1  0
 22 23  2  0
 23 24  1  0
 24 25  2  0
 25 26  1  0
 26 27  1  0
 26 28  2  0
 26 29  2  0
 25 30  1  0
 30 31  2  0
 31 32  1  0
 18 33  2  0
 33  3  1  0
 17 11  1  0
 31 22  1  0
  1 34  1  0
  1 35  1  0
  1 36  1  0
  4 37  1  0
  5 38  1  0
 12 39  1  0
 13 40  1  0
 15 41  1  0
 15 42  1  0
 15 43  1  0
 16 44  1  0
 17 45  1  0
 23 46  1  0
 24 47  1  0
 27 48  1  0
 30 49  1  0
 32 50  1  0
 32 51  1  0
 32 52  1  0
 33 53  1  0
M  CHG  3   7  -1  21  -1  27  -1
M  END
>  <UniqueID>  (8) 
7

>  <SMILES>  (8) 
COc1ccc([N-]S(=O)(=O)c2ccc(C)cc2)c(C(=O)[N-]c2ccc(S([NH-])(=O)=O)cc2C)c1

>  <Energy>  (8) 
65.20992780557116

>  <Genealogy>  (8) 
COc1ccc([N-]S(=O)(=O)c2ccc(C)cc2)c(C(=O)[N-]c2ccc(S([NH-])(=O)=O)cc2C)c1 (protonated)
COc1ccc([N-]S(=O)(=O)c2ccc(C)cc2)c(C(=O)[N-]c2ccc(S([NH-])(=O)=O)cc2C)c1 (3D coordinates assigned)
COc1ccc([N-]S(=O)(=O)c2ccc(C)cc2)c(C(=O)[N-]c2ccc(S([NH-])(=O)=O)cc2C)c1 (optimized conformer: 65.20992780557116 kcal/mol)

>  <smiles>  (8) 
COc1ccc(NS(=O)(=O)c2ccc(C)cc2)c(C(=O)Nc2ccc(S(N)(=O)=O)cc2C)c1

>  <score_type>  (8) 
oracle

>  <origin>  (8) 
adgpu

>  <m_score__min__energy>  (8) 
-11.82

>  <m_primary>  (8) 
energy

$$$$
8:0
     RDKit          3D

 55 58  0  0  0  0  0  0  0  0999 V2000
   -0.2850   21.1660  -31.1660 C   0  0  0  0  0  0  0  0  0  0  0  0
   -0.0890   21.1330  -29.7560 O   0  0  0  0  0  0  0  0  0  0  0  0
   -1.0350   20.6600  -28.8320 C   0  0  0  0  0  0  0  0  0  0  0  0
   -0.9880   19.3470  -28.3200 C   0  0  0  0  0  0  0  0  0  0  0  0
   -1.9430   18.9160  -27.3970 C   0  0  0  0  0  0  0  0  0  0  0  0
   -2.9530   19.7820  -26.9740 C   0  0  0  0  0  0  0  0  0  0  0  0
   -3.0090   21.0840  -27.4740 C   0  0  0  0  0  0  0  0  0  0  0  0
   -2.0590   21.5250  -28.4060 C   0  0  0  0  0  0  0  0  0  0  0  0
   -2.1250   22.9050  -28.9220 C   0  0  0  0  0  0  0  0  0  0  0  0
   -1.3190   23.9710  -28.5090 C   0  0  0  0  0  0  0  0  0  0  0  0
   -0.1640   23.9600  -27.5820 C   0  0  0  0  0  0  0  0  0  0  0  0
    0.9260   24.4640  -27.9650 O   0  0  0  0  0  0  0  0  0  0  0  0
   -0.2800   23.4150  -26.1800 C   0  0  0  0  0  0  0  0  0  0  0  0
   -0.6840   24.4770  -25.1320 C   0  0  0  0  0  0  0  0  0  0  0  0
   -1.8670   25.3270  -25.6220 C   0  0  0  0  0  0  0  0  0  0  0  0
    0.5130   25.3820  -24.8130 C   0  0  0  0  0  0  0  0  0  0  0  0
   -1.8890   25.1030  -29.0660 C   0  0  0  0  0  0  0  0  0  0  0  0
   -1.4400   26.4110  -28.9250 O   0  0  0  0  0  0  0  0  0  0  0  0
   -2.9950   24.7030  -29.7700 C   0  0  0  0  0  0  0  0  0  0  0  0
   -3.8520   25.5490  -30.4660 O   0  0  0  0  0  0  0  0  0  0  0  0
   -3.1470   23.3670  -29.6850 N   0  0  0  0  0  0  0  0  0  0  0  0
   -4.2590   22.6110  -30.1940 C   0  0  0  0  0  0  0  0  0  0  0  0
   -4.0380   21.4630  -30.9660 C   0  0  0  0  0  0  0  0  0  0  0  0
   -5.1150   20.7380  -31.4820 C   0  0  0  0  0  0  0  0  0  0  0  0
   -6.4390   21.1450  -31.2280 C   0  0  0  0  0  0  0  0  0  0  0  0
   -7.5870   20.3770  -31.7770 C   0  0  0  0  0  0  0  0  0  0  0  0
   -7.7240   19.0010  -31.8290 C   0  0  0  0  0  0  0  0  0  0  0  0
   -8.9460   18.7630  -32.4200 C   0  0  0  0  0  0  0  0  0  0  0  0
   -9.5280   19.9030  -32.7120 O   0  0  0  0  0  0  0  0  0  0  0  0
   -8.7440   20.8900  -32.3420 C   0  0  0  0  0  0  0  0  0  0  0  0
   -6.6540   22.2930  -30.4430 C   0  0  0  0  0  0  0  0  0  0  0  0
   -5.5740   23.0160  -29.9300 C   0  0  0  0  0  0  0  0  0  0  0  0
   -1.3482   21.3450  -31.3843 H   0  0  0  0  0  0  0  0  0  0  0  0
    0.3200   21.9749  -31.6015 H   0  0  0  0  0  0  0  0  0  0  0  0
    0.0217   20.2036  -31.6015 H   0  0  0  0  0  0  0  0  0  0  0  0
   -0.1953   18.6591  -28.6492 H   0  0  0  0  0  0  0  0  0  0  0  0
   -1.8994   17.8904  -27.0017 H   0  0  0  0  0  0  0  0  0  0  0  0
   -3.7040   19.4386  -26.2473 H   0  0  0  0  0  0  0  0  0  0  0  0
   -3.8019   21.7670  -27.1353 H   0  0  0  0  0  0  0  0  0  0  0  0
   -1.0394   22.6192  -26.1785 H   0  0  0  0  0  0  0  0  0  0  0  0
    0.7161   23.0452  -25.8954 H   0  0  0  0  0  0  0  0  0  0  0  0
   -0.9985   23.9496  -24.2194 H   0  0  0  0  0  0  0  0  0  0  0  0
   -2.4178   25.7227  -24.7559 H   0  0  0  0  0  0  0  0  0  0  0  0
   -1.4909   26.1627  -26.2304 H   0  0  0  0  0  0  0  0  0  0  0  0
   -2.5390   24.7039  -26.2304 H   0  0  0  0  0  0  0  0  0  0  0  0
    0.6271   25.4682  -23.7223 H   0  0  0  0  0  0  0  0  0  0  0  0
    1.4268   24.9469  -25.2440 H   0  0  0  0  0  0  0  0  0  0  0  0
    0.3434   26.3798  -25.2440 H   0  0  0  0  0  0  0  0  0  0  0  0
   -3.0091   21.1301  -31.1673 H   0  0  0  0  0  0  0  0  0  0  0  0
   -4.9272   19.8419  -32.0917 H   0  0  0  0  0  0  0  0  0  0  0  0
   -7.0041   18.2501  -31.4714 H   0  0  0  0  0  0  0  0  0  0  0  0
   -9.3701   17.7674  -32.6174 H   0  0  0  0  0  0  0  0  0  0  0  0
   -8.9710   21.9596  -32.4622 H   0  0  0  0  0  0  0  0  0  0  0  0
   -7.6814   22.6241  -30.2314 H   0  0  0  0  0  0  0  0  0  0  0  0
   -5.7574   23.9092  -29.3147 H   0  0  0  0  0  0  0  0  0  0  0  0
  1  2  1  0
  2  3  1  0
  3  4  2  0
  4  5  1  0
  5  6  2  0
  6  7  1  0
  7  8  2  0
  8  9  1  0
  9 10  2  0
 10 11  1  0
 11 12  2  0
 11 13  1  0
 13 14  1  0
 14 15  1  0
 14 16  1  0
 10 17  1  0
 17 18  1  0
 17 19  2  0
 19 20  1  0
 19 21  1  0
 21 22  1  0
 22 23  2  0
 23 24  1  0
 24 25  2  0
 25 26  1  0
 26 27  1  0
 27 28  2  0
 28 29  1  0
 29 30  1  0
 25 31  1  0
 31 32  2  0
  8  3  1  0
 21  9  1  0
 32 22  1  0
 30 26  2  0
  1 33  1  0
  1 34  1  0
  1 35  1  0
  4 36  1  0
  5 37  1  0
  6 38  1  0
  7 39  1  0
 13 40  1  0
 13 41  1  0
 14 42  1  0
 15 43  1  0
 15 44  1  0
 15 45  1  0
 16 46  1  0
 16 47  1  0
 16 48  1  0
 23 49  1  0
 24 50  1  0
 27 51  1  0
 28 52  1  0
 30 53  1  0
 31 54  1  0
 32 55  1  0
M  CHG  2  18  -1  20  -1
M  END
>  <UniqueID>  (9) 
8

>  <SMILES>  (9) 
COc1ccccc1-c1c(C(=O)CC(C)C)c([O-])c([O-])n1-c1ccc(-c2ccoc2)cc1

>  <Energy>  (9) 
125.55305887313013

>  <Genealogy>  (9) 
COc1ccccc1-c1c(C(=O)CC(C)C)c([O-])c([O-])n1-c1ccc(-c2ccoc2)cc1 (protonated)
COc1ccccc1-c1c(C(=O)CC(C)C)c([O-])c([O-])n1-c1ccc(-c2ccoc2)cc1 (3D coordinates assigned)
COc1ccccc1-c1c(C(=O)CC(C)C)c([O-])c([O-])n1-c1ccc(-c2ccoc2)cc1 (optimized conformer: 125.55305887313013 kcal/mol)

>  <smiles>  (9) 
COc1ccccc1-c1c(C(=O)CC(C)C)c(O)c(O)n1-c1ccc(-c2ccoc2)cc1

>  <score_type>  (9) 
oracle

>  <origin>  (9) 
adgpu

>  <m_score__min__energy>  (9) 
-14.93

>  <m_primary>  (9) 
energy

$$$$
9:0
     RDKit          3D

 24 25  0  0  0  0  0  0  0  0999 V2000
   -4.2500   25.6700  -30.7960 O   0  0  0  0  0  0  0  0  0  0  0  0
   -4.9020   24.5960  -30.7380 C   0  0  0  0  0  0  0  0  0  0  0  0
   -6.1770   24.5710  -30.1760 C   0  0  0  0  0  0  0  0  0  0  0  0
   -6.8490   23.3930  -30.1340 N   0  0  0  0  0  0  0  0  0  0  0  0
   -6.3070   22.2720  -30.6150 N   0  0  0  0  0  0  0  0  0  0  0  0
   -5.0610   22.2840  -31.1600 C   0  0  0  0  0  0  0  0  0  0  0  0
   -4.3270   20.7730  -31.7900 S   0  0  0  0  0  0  0  0  0  0  0  0
   -5.4900   20.6100  -33.1890 C   0  0  0  0  0  0  0  0  0  0  0  0
   -6.7450   19.8960  -32.7650 C   0  0  0  0  0  0  0  0  0  0  0  0
   -7.9650   20.5890  -32.6790 C   0  0  0  0  0  0  0  0  0  0  0  0
   -9.1210   19.9280  -32.2530 C   0  0  0  0  0  0  0  0  0  0  0  0
   -9.0680   18.5740  -31.9110 C   0  0  0  0  0  0  0  0  0  0  0  0
   -7.8590   17.8790  -31.9930 C   0  0  0  0  0  0  0  0  0  0  0  0
   -6.6990   18.5370  -32.4150 C   0  0  0  0  0  0  0  0  0  0  0  0
   -4.3670   23.4480  -31.2230 N   0  0  0  0  0  0  0  0  0  0  0  0
   -6.6302   25.4892  -29.7739 H   0  0  0  0  0  0  0  0  0  0  0  0
   -6.8490   21.3810  -30.5640 H   0  0  0  0  0  0  0  0  0  0  0  0
   -5.7532   21.6127  -33.5570 H   0  0  0  0  0  0  0  0  0  0  0  0
   -5.0040   20.0240  -33.9830 H   0  0  0  0  0  0  0  0  0  0  0  0
   -8.0103   21.6547  -32.9477 H   0  0  0  0  0  0  0  0  0  0  0  0
  -10.0734   20.4744  -32.1869 H   0  0  0  0  0  0  0  0  0  0  0  0
   -9.9787   18.0553  -31.5771 H   0  0  0  0  0  0  0  0  0  0  0  0
   -7.8191   16.8128  -31.7253 H   0  0  0  0  0  0  0  0  0  0  0  0
   -5.7476   17.9879  -32.4729 H   0  0  0  0  0  0  0  0  0  0  0  0
  1  2  2  0
  2  3  1  0
  3  4  2  0
  4  5  1  0
  5  6  1  0
  6  7  1  0
  7  8  1  0
  8  9  1  0
  9 10  2  0
 10 11  1  0
 11 12  2  0
 12 13  1  0
 13 14  2  0
  6 15  2  0
 15  2  1  0
 14  9  1  0
  3 16  1  0
  5 17  1  0
  8 18  1  0
  8 19  1  0
 10 20  1  0
 11 21  1  0
 12 22  1  0
 13 23  1  0
 14 24  1  0
M  END
>  <UniqueID>  (10) 
9

>  <SMILES>  (10) 
O=c1cn[nH]c(SCc2ccccc2)n1

>  <Energy>  (10) 
21.143320043525623

>  <Genealogy>  (10) 
O=c1cn[nH]c(SCc2ccccc2)n1 (3D coordinates assigned)
O=c1cn[nH]c(SCc2ccccc2)n1 (optimized conformer: 21.143320043525623 kcal/mol)

>  <smiles>  (10) 
O=c1cn[nH]c(SCc2ccccc2)n1

>  <score_type>  (10) 
oracle

>  <origin>  (10) 
adgpu

>  <m_score__min__energy>  (10) 
-6.8600000000000003

>  <m_primary>  (10) 
energy

$$$$
10:0
     RDKit          3D

 61 65  0  0  0  0  0  0  0  0999 V2000
   -6.0050   25.2310  -31.2220 O   0  0  0  0  0  0  0  0  0  0  0  0
   -5.7090   24.0090  -31.2610 C   0  0  0  0  0  0  0  0  0  0  0  0
   -4.3290   23.6280  -31.1250 N   0  0  0  0  0  0  0  0  0  0  0  0
   -3.6190   23.4270  -29.8960 C   0  0  0  0  0  0  0  0  0  0  0  0
   -3.8990   22.3360  -29.0510 C   0  0  0  0  0  0  0  0  0  0  0  0
   -3.2290   22.2020  -27.8320 C   0  0  0  0  0  0  0  0  0  0  0  0
   -2.2910   23.1580  -27.4370 C   0  0  0  0  0  0  0  0  0  0  0  0
   -2.0150   24.2570  -28.2650 C   0  0  0  0  0  0  0  0  0  0  0  0
   -0.8480   25.4820  -27.7610 S   0  0  0  0  0  0  0  0  0  0  0  0
   -0.9670   26.6750  -28.6740 O   0  0  0  0  0  0  0  0  0  0  0  0
    0.5460   24.9280  -27.9010 O   0  0  0  0  0  0  0  0  0  0  0  0
   -1.1010   25.9840  -26.1040 N   0  0  0  0  0  0  0  0  0  0  0  0
   -0.8550   27.4320  -25.9490 C   0  0  0  0  0  0  0  0  0  0  0  0
   -0.7590   27.8270  -24.4600 C   0  0  0  0  0  0  0  0  0  0  0  0
   -1.2980   26.8150  -23.6300 O   0  0  0  0  0  0  0  0  0  0  0  0
   -0.5060   25.6420  -23.7210 C   0  0  0  0  0  0  0  0  0  0  0  0
   -0.2440   25.2160  -25.1860 C   0  0  0  0  0  0  0  0  0  0  0  0
   -2.6760   24.3790  -29.4940 C   0  0  0  0  0  0  0  0  0  0  0  0
   -6.7740   23.0110  -31.5220 C   0  0  0  0  0  0  0  0  0  0  0  0
   -8.1100   23.4310  -31.6660 C   0  0  0  0  0  0  0  0  0  0  0  0
   -9.1120   22.4990  -31.9380 C   0  0  0  0  0  0  0  0  0  0  0  0
   -8.8010   21.1470  -32.0730 C   0  0  0  0  0  0  0  0  0  0  0  0
   -7.4760   20.7140  -31.9290 C   0  0  0  0  0  0  0  0  0  0  0  0
   -7.0760   19.0120  -32.1540 S   0  0  0  0  0  0  0  0  0  0  0  0
   -8.3050   18.2400  -32.5380 O   0  0  0  0  0  0  0  0  0  0  0  0
   -6.5500   18.4380  -30.8680 O   0  0  0  0  0  0  0  0  0  0  0  0
   -5.8590   18.8660  -33.3820 N   0  0  0  0  0  0  0  0  0  0  0  0
   -5.9570   17.8980  -34.4790 C   0  0  0  0  0  0  0  0  0  0  0  0
   -4.5240   17.7270  -35.0350 C   0  0  0  0  0  0  0  0  0  0  0  0
   -3.7140   18.6350  -34.1780 C   0  0  0  0  0  0  0  0  0  0  0  0
   -2.3390   18.8620  -34.2350 C   0  0  0  0  0  0  0  0  0  0  0  0
   -1.7710   19.7590  -33.3190 C   0  0  0  0  0  0  0  0  0  0  0  0
   -2.5830   20.4110  -32.3740 C   0  0  0  0  0  0  0  0  0  0  0  0
   -3.9650   20.1620  -32.3330 C   0  0  0  0  0  0  0  0  0  0  0  0
   -4.5040   19.2570  -33.2490 C   0  0  0  0  0  0  0  0  0  0  0  0
   -6.4650   21.6480  -31.6680 C   0  0  0  0  0  0  0  0  0  0  0  0
   -4.6470   21.5874  -29.3512 H   0  0  0  0  0  0  0  0  0  0  0  0
   -3.4412   21.3407  -27.1816 H   0  0  0  0  0  0  0  0  0  0  0  0
   -1.7677   23.0496  -26.4755 H   0  0  0  0  0  0  0  0  0  0  0  0
   -2.1030   25.7840  -25.8760 H   0  0  0  0  0  0  0  0  0  0  0  0
    0.0893   27.6909  -26.4502 H   0  0  0  0  0  0  0  0  0  0  0  0
   -1.6967   27.9780  -26.4000 H   0  0  0  0  0  0  0  0  0  0  0  0
    0.2976   27.9830  -24.1968 H   0  0  0  0  0  0  0  0  0  0  0  0
   -1.3357   28.7508  -24.3051 H   0  0  0  0  0  0  0  0  0  0  0  0
    0.4603   25.8298  -23.2300 H   0  0  0  0  0  0  0  0  0  0  0  0
   -1.0577   24.8271  -23.2295 H   0  0  0  0  0  0  0  0  0  0  0  0
    0.8114   25.4017  -25.4344 H   0  0  0  0  0  0  0  0  0  0  0  0
   -0.4745   24.1458  -25.2934 H   0  0  0  0  0  0  0  0  0  0  0  0
   -2.4511   25.2327  -30.1502 H   0  0  0  0  0  0  0  0  0  0  0  0
   -8.3644   24.4963  -31.5638 H   0  0  0  0  0  0  0  0  0  0  0  0
  -10.1543   22.8334  -32.0466 H   0  0  0  0  0  0  0  0  0  0  0  0
   -9.5962   20.4194  -32.2927 H   0  0  0  0  0  0  0  0  0  0  0  0
   -6.3381   16.9361  -34.1055 H   0  0  0  0  0  0  0  0  0  0  0  0
   -6.6501   18.2460  -35.2591 H   0  0  0  0  0  0  0  0  0  0  0  0
   -4.1847   16.6853  -34.9364 H   0  0  0  0  0  0  0  0  0  0  0  0
   -4.4468   17.9636  -36.1065 H   0  0  0  0  0  0  0  0  0  0  0  0
   -1.7145   18.3492  -34.9813 H   0  0  0  0  0  0  0  0  0  0  0  0
   -0.6884   19.9530  -33.3397 H   0  0  0  0  0  0  0  0  0  0  0  0
   -2.1336   21.1199  -31.6630 H   0  0  0  0  0  0  0  0  0  0  0  0
   -4.6069   20.6680  -31.5968 H   0  0  0  0  0  0  0  0  0  0  0  0
   -5.4216   21.3119  -31.5767 H   0  0  0  0  0  0  0  0  0  0  0  0
  1  2  2  0
  2  3  1  0
  3  4  1  0
  4  5  2  0
  5  6  1  0
  6  7  2  0
  7  8  1  0
  8  9  1  0
  9 10  2  0
  9 11  2  0
  9 12  1  0
 12 13  1  0
 13 14  1  0
 14 15  1  0
 15 16  1  0
 16 17  1  0
  8 18  2  0
  2 19  1  0
 19 20  2  0
 20 21  1  0
 21 22  2  0
 22 23  1  0
 23 24  1  0
 24 25  2  0
 24 26  2  0
 24 27  1  0
 27 28  1  0
 28 29  1  0
 29 30  1  0
 30 31  2  0
 31 32  1  0
 32 33  2  0
 33 34  1  0
 34 35  2  0
 23 36  2  0
 18  4  1  0
 36 19  1  0
 17 12  1  0
 35 27  1  0
 35 30  1  0
  5 37  1  0
  6 38  1  0
  7 39  1  0
 12 40  1  0
 13 41  1  0
 13 42  1  0
 14 43  1  0
 14 44  1  0
 16 45  1  0
 16 46  1  0
 17 47  1  0
 17 48  1  0
 18 49  1  0
 20 50  1  0
 21 51  1  0
 22 52  1  0
 28 53  1  0
 28 54  1  0
 29 55  1  0
 29 56  1  0
 31 57  1  0
 32 58  1  0
 33 59  1  0
 34 60  1  0
 36 61  1  0
M  CHG  2   3  -1  12   1
M  END
>  <UniqueID>  (11) 
10

>  <SMILES>  (11) 
O=C([N-]c1cccc(S(=O)(=O)[NH+]2CCOCC2)c1)c1cccc(S(=O)(=O)N2CCc3ccccc32)c1

>  <Energy>  (11) 
96.3472791073899

>  <Genealogy>  (11) 
O=C([N-]c1cccc(S(=O)(=O)[NH+]2CCOCC2)c1)c1cccc(S(=O)(=O)N2CCc3ccccc32)c1 (protonated)
O=C([N-]c1cccc(S(=O)(=O)[NH+]2CCOCC2)c1)c1cccc(S(=O)(=O)N2CCc3ccccc32)c1 (3D coordinates assigned)
O=C([N-]c1cccc(S(=O)(=O)[NH+]2CCOCC2)c1)c1cccc(S(=O)(=O)N2CCc3ccccc32)c1 (nonaromatic ring conformer: 96.3472791073899 kcal/mol)

>  <smiles>  (11) 
O=C(Nc1cccc(S(=O)(=O)N2CCOCC2)c1)c1cccc(S(=O)(=O)N2CCc3ccccc32)c1

>  <score_type>  (11) 
oracle

>  <origin>  (11) 
adgpu

>  <m_score__min__energy>  (11) 
-12.07

>  <m_primary>  (11) 
energy

$$$$
11:0
     RDKit          3D

 43 45  0  0  0  0  0  0  0  0999 V2000
    1.3440   24.8770  -27.8100 O   0  0  0  0  0  0  0  0  0  0  0  0
    0.3110   24.9470  -27.0890 C   0  0  0  0  0  0  0  0  0  0  0  0
   -0.9750   24.4230  -27.6080 C   0  0  0  0  0  0  0  0  0  0  0  0
   -1.5130   23.2420  -27.0690 C   0  0  0  0  0  0  0  0  0  0  0  0
   -2.7320   22.7400  -27.5280 C   0  0  0  0  0  0  0  0  0  0  0  0
   -3.4450   23.4170  -28.5300 C   0  0  0  0  0  0  0  0  0  0  0  0
   -4.7050   22.9440  -29.0230 N   0  0  0  0  0  0  0  0  0  0  0  0
   -5.5210   23.5470  -30.4290 S   0  0  0  0  0  0  0  0  0  0  0  0
   -4.6000   24.4750  -31.1700 O   0  0  0  0  0  0  0  0  0  0  0  0
   -6.7370   24.3190  -30.0010 O   0  0  0  0  0  0  0  0  0  0  0  0
   -6.0310   22.2040  -31.4580 C   0  0  0  0  0  0  0  0  0  0  0  0
   -7.3840   21.8290  -31.4850 C   0  0  0  0  0  0  0  0  0  0  0  0
   -7.8140   20.7810  -32.3060 C   0  0  0  0  0  0  0  0  0  0  0  0
   -9.5090   20.3290  -32.3360 Cl  0  0  0  0  0  0  0  0  0  0  0  0
   -6.8940   20.0970  -33.1020 C   0  0  0  0  0  0  0  0  0  0  0  0
   -5.5450   20.4560  -33.0800 C   0  0  0  0  0  0  0  0  0  0  0  0
   -5.1050   21.5050  -32.2620 C   0  0  0  0  0  0  0  0  0  0  0  0
   -3.3920   21.9070  -32.2720 Cl  0  0  0  0  0  0  0  0  0  0  0  0
   -2.9160   24.5940  -29.0680 C   0  0  0  0  0  0  0  0  0  0  0  0
   -1.6900   25.1040  -28.6150 C   0  0  0  0  0  0  0  0  0  0  0  0
   -1.1770   26.2750  -29.1750 O   0  0  0  0  0  0  0  0  0  0  0  0
    0.3950   25.5760  -25.7980 N   0  0  0  0  0  0  0  0  0  0  0  0
   -0.2400   24.9660  -24.6220 C   0  0  0  0  0  0  0  0  0  0  0  0
   -0.8650   26.0420  -23.7070 C   0  0  0  0  0  0  0  0  0  0  0  0
   -0.2900   27.3860  -23.9070 N   0  0  0  0  0  0  0  0  0  0  0  0
    1.1400   27.3250  -24.2220 C   0  0  0  0  0  0  0  0  0  0  0  0
    1.3220   26.6980  -25.6080 C   0  0  0  0  0  0  0  0  0  0  0  0
   -0.9678   22.7075  -26.2771 H   0  0  0  0  0  0  0  0  0  0  0  0
   -3.1358   21.8095  -27.1025 H   0  0  0  0  0  0  0  0  0  0  0  0
   -8.1112   22.3633  -30.8559 H   0  0  0  0  0  0  0  0  0  0  0  0
   -7.2324   19.2735  -33.7480 H   0  0  0  0  0  0  0  0  0  0  0  0
   -4.8238   19.9125  -33.7081 H   0  0  0  0  0  0  0  0  0  0  0  0
   -3.4679   25.1269  -29.8563 H   0  0  0  0  0  0  0  0  0  0  0  0
   -1.2370   26.4580  -30.1700 H   0  0  0  0  0  0  0  0  0  0  0  0
   -1.0291   24.2766  -24.9568 H   0  0  0  0  0  0  0  0  0  0  0  0
    0.5289   24.4252  -24.0508 H   0  0  0  0  0  0  0  0  0  0  0  0
   -1.9446   26.0903  -23.9124 H   0  0  0  0  0  0  0  0  0  0  0  0
   -0.6526   25.7488  -22.6683 H   0  0  0  0  0  0  0  0  0  0  0  0
   -0.4060   27.9270  -23.0180 H   0  0  0  0  0  0  0  0  0  0  0  0
    1.5614   28.3411  -24.2192 H   0  0  0  0  0  0  0  0  0  0  0  0
    1.6597   26.7151  -23.4683 H   0  0  0  0  0  0  0  0  0  0  0  0
    1.1281   27.4603  -26.3770 H   0  0  0  0  0  0  0  0  0  0  0  0
    2.3524   26.3224  -25.6926 H   0  0  0  0  0  0  0  0  0  0  0  0
  1  2  2  0
  2  3  1  0
  3  4  2  0
  4  5  1  0
  5  6  2  0
  6  7  1  0
  7  8  1  0
  8  9  2  0
  8 10  2  0
  8 11  1  0
 11 12  2  0
 12 13  1  0
 13 14  1  0
 13 15  2  0
 15 16  1  0
 16 17  2  0
 17 18  1  0
  6 19  1  0
 19 20  2  0
 20 21  1  0
  2 22  1  0
 22 23  1  0
 23 24  1  0
 24 25  1  0
 25 26  1  0
 26 27  1  0
 20  3  1  0
 27 22  1  0
 17 11  1  0
  4 28  1  0
  5 29  1  0
 12 30  1  0
 15 31  1  0
 16 32  1  0
 19 33  1  0
 21 34  1  0
 23 35  1  0
 23 36  1  0
 24 37  1  0
 24 38  1  0
 25 39  1  0
 26 40  1  0
 26 41  1  0
 27 42  1  0
 27 43  1  0
M  CHG  1   7  -1
M  END
>  <UniqueID>  (12) 
11

>  <SMILES>  (12) 
O=C(c1ccc([N-]S(=O)(=O)c2cc(Cl)ccc2Cl)cc1O)N1CCNCC1

>  <Energy>  (12) 
57.580636853914235

>  <Genealogy>  (12) 
O=C(c1ccc([N-]S(=O)(=O)c2cc(Cl)ccc2Cl)cc1O)N1CCNCC1 (protonated)
O=C(c1ccc([N-]S(=O)(=O)c2cc(Cl)ccc2Cl)cc1O)N1CCNCC1 (3D coordinates assigned)
O=C(c1ccc([N-]S(=O)(=O)c2cc(Cl)ccc2Cl)cc1O)N1CCNCC1 (nonaromatic ring conformer: 57.580636853914235 kcal/mol)

>  <smiles>  (12) 
O=C(c1ccc(NS(=O)(=O)c2cc(Cl)ccc2Cl)cc1O)N1CCNCC1

>  <score_type>  (12) 
oracle

>  <origin>  (12) 
adgpu

>  <m_score__min__energy>  (12) 
-11.23

>  <m_primary>  (12) 
energy

$$$$
12:0
     RDKit          3D

 36 37  0  0  0  0  0  0  0  0999 V2000
   -3.8366   17.3861  -33.6968 H   0  0  0  0  0  0  0  0  0  0  0  0
   -4.5850   18.1120  -33.3460 C   0  0  0  0  0  0  0  0  0  0  0  0
   -5.5990   17.8000  -32.5200 N   0  0  0  0  0  0  0  0  0  0  0  0
   -6.2770   18.9160  -32.3110 N   0  0  0  0  0  0  0  0  0  0  0  0
   -7.5550   18.9020  -31.5890 C   0  0  0  0  0  0  0  0  0  0  0  0
   -7.5351   18.1003  -30.8361 H   0  0  0  0  0  0  0  0  0  0  0  0
   -7.6968   19.8791  -31.1042 H   0  0  0  0  0  0  0  0  0  0  0  0
   -8.7150   18.6590  -32.5470 C   0  0  0  0  0  0  0  0  0  0  0  0
   -9.6322   18.4669  -31.9709 H   0  0  0  0  0  0  0  0  0  0  0  0
   -8.8592   19.5464  -33.1808 H   0  0  0  0  0  0  0  0  0  0  0  0
   -8.4909   17.7883  -33.1808 H   0  0  0  0  0  0  0  0  0  0  0  0
   -5.6510   19.8930  -33.0230 C   0  0  0  0  0  0  0  0  0  0  0  0
   -5.9750   21.1540  -33.0880 N   0  0  0  0  0  0  0  0  0  0  0  0
   -6.9500   21.8590  -32.3160 C   0  0  0  0  0  0  0  0  0  0  0  0
   -8.1580   21.5100  -32.3920 O   0  0  0  0  0  0  0  0  0  0  0  0
   -6.5630   23.0310  -31.4960 C   0  0  0  0  0  0  0  0  0  0  0  0
   -7.5420   23.7920  -30.8360 C   0  0  0  0  0  0  0  0  0  0  0  0
   -8.6030   23.5165  -30.9270 H   0  0  0  0  0  0  0  0  0  0  0  0
   -7.1740   24.8980  -30.0640 C   0  0  0  0  0  0  0  0  0  0  0  0
   -7.9463   25.4931  -29.5547 H   0  0  0  0  0  0  0  0  0  0  0  0
   -5.8280   25.2490  -29.9380 C   0  0  0  0  0  0  0  0  0  0  0  0
   -5.5452   26.1269  -29.3386 H   0  0  0  0  0  0  0  0  0  0  0  0
   -4.8380   24.4900  -30.5700 C   0  0  0  0  0  0  0  0  0  0  0  0
   -3.4670   24.8950  -30.4480 N   0  0  0  0  0  0  0  0  0  0  0  0
   -2.6030   24.6760  -29.3250 C   0  0  0  0  0  0  0  0  0  0  0  0
   -1.6240   25.4510  -29.1560 O   0  0  0  0  0  0  0  0  0  0  0  0
   -2.9040   23.6440  -28.2700 C   0  0  0  0  0  0  0  0  0  0  0  0
   -1.9626   23.3390  -27.7896 H   0  0  0  0  0  0  0  0  0  0  0  0
   -3.3919   22.7862  -28.7560 H   0  0  0  0  0  0  0  0  0  0  0  0
   -3.8500   24.1920  -27.2040 C   0  0  0  0  0  0  0  0  0  0  0  0
   -3.4507   23.9607  -26.2055 H   0  0  0  0  0  0  0  0  0  0  0  0
   -3.9402   25.2822  -27.3193 H   0  0  0  0  0  0  0  0  0  0  0  0
   -4.8406   23.7279  -27.3193 H   0  0  0  0  0  0  0  0  0  0  0  0
   -5.2110   23.4010  -31.3750 C   0  0  0  0  0  0  0  0  0  0  0  0
   -4.4396   22.8327  -31.9153 H   0  0  0  0  0  0  0  0  0  0  0  0
   -4.5880   19.4130  -33.6960 N   0  0  0  0  0  0  0  0  0  0  0  0
  1  2  1  0
  2  3  2  0
  3  4  1  0
  4  5  1  0
  5  6  1  0
  5  7  1  0
  5  8  1  0
  8  9  1  0
  8 10  1  0
  8 11  1  0
  4 12  1  0
 12 13  2  0
 13 14  1  0
 14 15  2  0
 14 16  1  0
 16 17  2  0
 17 18  1  0
 17 19  1  0
 19 20  1  0
 19 21  2  0
 21 22  1  0
 21 23  1  0
 23 24  1  0
 24 25  1  0
 25 26  2  0
 25 27  1  0
 27 28  1  0
 27 29  1  0
 27 30  1  0
 30 31  1  0
 30 32  1  0
 30 33  1  0
 23 34  2  0
 34 35  1  0
 12 36  1  0
 36  2  1  0
 34 16  1  0
M  CHG  2  24  -1  36  -1
M  END
>  <UniqueID>  (13) 
12

>  <SMILES>  (13) 
CCC(=O)[N-]c1cccc(C(=O)/N=c2/[n-]cnn2CC)c1

>  <Energy>  (13) 
81.43413829934697

>  <Genealogy>  (13) 
CCC(=O)[N-]c1cccc(C(=O)N=c2[n-]cnn2CC)c1 (protonated)
CCC(=O)[N-]c1cccc(C(=O)/N=c2/[n-]cnn2CC)c1 (cis-trans isomerization)
CCC(=O)[N-]c1cccc(C(=O)/N=c2/[n-]cnn2CC)c1 (3D coordinates assigned)
CCC(=O)[N-]c1cccc(C(=O)/N=c2/[n-]cnn2CC)c1 (optimized conformer: 81.43413829934697 kcal/mol)

>  <smiles>  (13) 
CCC(=O)Nc1cccc(C(=O)N=c2[nH]cnn2CC)c1

>  <score_type>  (13) 
oracle

>  <origin>  (13) 
adgpu

>  <m_score__min__energy>  (13) 
-9.0500000000000007

>  <m_primary>  (13) 
energy

$$$$
13:0
     RDKit          3D

 45 47  0  0  0  0  0  0  0  0999 V2000
   -2.7540   22.1140  -30.2090 C   0  0  0  0  0  0  0  0  0  0  0  0
   -2.8700   23.0890  -29.3100 C   0  0  0  0  0  0  0  0  0  0  0  0
   -2.9070   24.5130  -29.6840 C   0  0  0  0  0  0  0  0  0  0  0  0
   -2.0090   25.3030  -29.2840 O   0  0  0  0  0  0  0  0  0  0  0  0
   -4.0100   24.9930  -30.4610 N   0  0  0  0  0  0  0  0  0  0  0  0
   -5.2470   24.3090  -30.7060 C   0  0  0  0  0  0  0  0  0  0  0  0
   -5.6920   24.1760  -32.0270 C   0  0  0  0  0  0  0  0  0  0  0  0
   -6.9030   23.5350  -32.3080 C   0  0  0  0  0  0  0  0  0  0  0  0
   -7.6900   23.0370  -31.2650 C   0  0  0  0  0  0  0  0  0  0  0  0
   -9.2480   22.2250  -31.6230 S   0  0  0  0  0  0  0  0  0  0  0  0
   -8.4440   20.6980  -32.0960 C   0  0  0  0  0  0  0  0  0  0  0  0
   -9.0200   19.4680  -31.7760 C   0  0  0  0  0  0  0  0  0  0  0  0
   -8.3800   18.2890  -32.1620 C   0  0  0  0  0  0  0  0  0  0  0  0
   -7.1670   18.3420  -32.8710 C   0  0  0  0  0  0  0  0  0  0  0  0
   -6.4550   17.1140  -33.2950 C   0  0  0  0  0  0  0  0  0  0  0  0
   -7.1270   16.1460  -33.7470 O   0  0  0  0  0  0  0  0  0  0  0  0
   -5.0200   17.0120  -33.2070 N   0  0  0  0  0  0  0  0  0  0  0  0
   -4.2850   15.8100  -33.4960 C   0  0  0  0  0  0  0  0  0  0  0  0
   -3.4910   15.7550  -34.6500 C   0  0  0  0  0  0  0  0  0  0  0  0
   -2.7510   14.6070  -34.9420 C   0  0  0  0  0  0  0  0  0  0  0  0
   -2.7810   13.5110  -34.0780 C   0  0  0  0  0  0  0  0  0  0  0  0
   -3.5500   13.5550  -32.9020 C   0  0  0  0  0  0  0  0  0  0  0  0
   -3.5650   12.3990  -31.9780 C   0  0  0  0  0  0  0  0  0  0  0  0
   -4.6560   11.9170  -31.5730 O   0  0  0  0  0  0  0  0  0  0  0  0
   -2.3740   11.8260  -31.5460 O   0  0  0  0  0  0  0  0  0  0  0  0
   -4.2950   14.7140  -32.6140 C   0  0  0  0  0  0  0  0  0  0  0  0
   -6.6190   19.6060  -33.1530 C   0  0  0  0  0  0  0  0  0  0  0  0
   -7.2630   20.7390  -32.7680 N   0  0  0  0  0  0  0  0  0  0  0  0
   -7.2640   23.1840  -29.9390 C   0  0  0  0  0  0  0  0  0  0  0  0
   -6.0530   23.8240  -29.6580 C   0  0  0  0  0  0  0  0  0  0  0  0
   -2.7308   21.0641  -29.8818 H   0  0  0  0  0  0  0  0  0  0  0  0
   -2.6814   22.3583  -31.2791 H   0  0  0  0  0  0  0  0  0  0  0  0
   -2.9410   22.8204  -28.2457 H   0  0  0  0  0  0  0  0  0  0  0  0
   -5.0842   24.5790  -32.8505 H   0  0  0  0  0  0  0  0  0  0  0  0
   -7.2365   23.4226  -33.3502 H   0  0  0  0  0  0  0  0  0  0  0  0
   -9.9707   19.4278  -31.2241 H   0  0  0  0  0  0  0  0  0  0  0  0
   -8.8261   17.3154  -31.9107 H   0  0  0  0  0  0  0  0  0  0  0  0
   -4.4610   17.8610  -32.9720 H   0  0  0  0  0  0  0  0  0  0  0  0
   -3.4506   16.6198  -35.3286 H   0  0  0  0  0  0  0  0  0  0  0  0
   -2.1418   14.5663  -35.8570 H   0  0  0  0  0  0  0  0  0  0  0  0
   -2.2000   12.6084  -34.3185 H   0  0  0  0  0  0  0  0  0  0  0  0
   -4.8907   14.7633  -31.6906 H   0  0  0  0  0  0  0  0  0  0  0  0
   -5.6614   19.6782  -33.6895 H   0  0  0  0  0  0  0  0  0  0  0  0
   -7.8832   22.7953  -29.1171 H   0  0  0  0  0  0  0  0  0  0  0  0
   -5.7287   23.9491  -28.6144 H   0  0  0  0  0  0  0  0  0  0  0  0
  1  2  2  0
  2  3  1  0
  3  4  2  0
  3  5  1  0
  5  6  1  0
  6  7  2  0
  7  8  1  0
  8  9  2  0
  9 10  1  0
 10 11  1  0
 11 12  2  0
 12 13  1  0
 13 14  2  0
 14 15  1  0
 15 16  2  0
 15 17  1  0
 17 18  1  0
 18 19  2  0
 19 20  1  0
 20 21  2  0
 21 22  1  0
 22 23  1  0
 23 24  2  0
 23 25  1  0
 22 26  2  0
 14 27  1  0
 27 28  2  0
  9 29  1  0
 29 30  2  0
 30  6  1  0
 28 11  1  0
 26 18  1  0
  1 31  1  0
  1 32  1  0
  2 33  1  0
  7 34  1  0
  8 35  1  0
 12 36  1  0
 13 37  1  0
 17 38  1  0
 19 39  1  0
 20 40  1  0
 21 41  1  0
 26 42  1  0
 27 43  1  0
 29 44  1  0
 30 45  1  0
M  CHG  2   5  -1  25  -1
M  END
>  <UniqueID>  (14) 
13

>  <SMILES>  (14) 
C=CC(=O)[N-]c1ccc(Sc2ccc(C(=O)Nc3cccc(C(=O)[O-])c3)cn2)cc1

>  <Energy>  (14) 
53.0798311705524

>  <Genealogy>  (14) 
C=CC(=O)[N-]c1ccc(Sc2ccc(C(=O)Nc3cccc(C(=O)[O-])c3)cn2)cc1 (protonated)
C=CC(=O)[N-]c1ccc(Sc2ccc(C(=O)Nc3cccc(C(=O)[O-])c3)cn2)cc1 (3D coordinates assigned)
C=CC(=O)[N-]c1ccc(Sc2ccc(C(=O)Nc3cccc(C(=O)[O-])c3)cn2)cc1 (optimized conformer: 53.0798311705524 kcal/mol)

>  <smiles>  (14) 
C=CC(=O)Nc1ccc(Sc2ccc(C(=O)Nc3cccc(C(=O)O)c3)cn2)cc1

>  <score_type>  (14) 
oracle

>  <origin>  (14) 
adgpu

>  <m_score__min__energy>  (14) 
-10.74

>  <m_primary>  (14) 
energy

$$$$
14:0
     RDKit          3D

 44 47  0  0  0  0  0  0  0  0999 V2000
   -6.5490   24.8050  -30.5580 C   0  0  0  0  0  0  0  0  0  0  0  0
   -6.6380   23.4090  -30.8240 O   0  0  0  0  0  0  0  0  0  0  0  0
   -5.7040   22.6760  -31.5740 C   0  0  0  0  0  0  0  0  0  0  0  0
   -6.0860   21.5560  -32.3370 C   0  0  0  0  0  0  0  0  0  0  0  0
   -5.1280   20.8160  -33.0520 C   0  0  0  0  0  0  0  0  0  0  0  0
   -5.4830   19.7040  -33.8290 O   0  0  0  0  0  0  0  0  0  0  0  0
   -5.4840   18.3740  -33.3820 C   0  0  0  0  0  0  0  0  0  0  0  0
   -6.1150   18.0420  -32.1690 C   0  0  0  0  0  0  0  0  0  0  0  0
   -6.1080   16.7050  -31.7120 C   0  0  0  0  0  0  0  0  0  0  0  0
   -5.4760   15.7280  -32.4300 N   0  0  0  0  0  0  0  0  0  0  0  0
   -4.8580   16.0640  -33.5890 C   0  0  0  0  0  0  0  0  0  0  0  0
   -4.1660   15.2390  -34.3870 N   0  0  0  0  0  0  0  0  0  0  0  0
   -3.7400   16.0930  -35.3530 C   0  0  0  0  0  0  0  0  0  0  0  0
   -3.0360   15.7110  -36.3250 O   0  0  0  0  0  0  0  0  0  0  0  0
   -4.1200   17.3880  -35.1970 N   0  0  0  0  0  0  0  0  0  0  0  0
   -4.8420   17.3340  -34.0670 C   0  0  0  0  0  0  0  0  0  0  0  0
   -3.7790   21.1640  -32.9530 C   0  0  0  0  0  0  0  0  0  0  0  0
   -3.3900   22.2720  -32.2000 C   0  0  0  0  0  0  0  0  0  0  0  0
   -4.3450   23.0540  -31.5400 C   0  0  0  0  0  0  0  0  0  0  0  0
   -3.8980   24.2020  -30.8030 N   0  0  0  0  0  0  0  0  0  0  0  0
   -3.1870   24.1530  -29.5610 C   0  0  0  0  0  0  0  0  0  0  0  0
   -3.4180   23.2080  -28.7620 O   0  0  0  0  0  0  0  0  0  0  0  0
   -2.1640   25.1180  -29.2670 N   0  0  0  0  0  0  0  0  0  0  0  0
   -1.7380   25.4580  -27.9370 C   0  0  0  0  0  0  0  0  0  0  0  0
   -2.4800   25.0700  -26.8050 C   0  0  0  0  0  0  0  0  0  0  0  0
   -2.0630   25.4450  -25.5240 C   0  0  0  0  0  0  0  0  0  0  0  0
   -0.9100   26.2220  -25.3610 C   0  0  0  0  0  0  0  0  0  0  0  0
   -0.4830   26.6100  -24.0410 C   0  0  0  0  0  0  0  0  0  0  0  0
   -0.1400   26.9220  -22.9810 N   0  0  0  0  0  0  0  0  0  0  0  0
   -0.1790   26.6280  -26.4820 C   0  0  0  0  0  0  0  0  0  0  0  0
   -0.5950   26.2540  -27.7630 C   0  0  0  0  0  0  0  0  0  0  0  0
   -6.5384   24.9711  -29.4707 H   0  0  0  0  0  0  0  0  0  0  0  0
   -5.6236   25.2040  -30.9989 H   0  0  0  0  0  0  0  0  0  0  0  0
   -7.4162   25.3183  -30.9989 H   0  0  0  0  0  0  0  0  0  0  0  0
   -7.1440   21.2572  -32.3740 H   0  0  0  0  0  0  0  0  0  0  0  0
   -6.6137   18.8232  -31.5765 H   0  0  0  0  0  0  0  0  0  0  0  0
   -6.6154   16.4479  -30.7705 H   0  0  0  0  0  0  0  0  0  0  0  0
   -3.0191   20.5611  -33.4717 H   0  0  0  0  0  0  0  0  0  0  0  0
   -2.3242   22.5332  -32.1243 H   0  0  0  0  0  0  0  0  0  0  0  0
   -1.6850   25.5790  -30.0720 H   0  0  0  0  0  0  0  0  0  0  0  0
   -3.3927   24.4686  -26.9290 H   0  0  0  0  0  0  0  0  0  0  0  0
   -2.6416   25.1291  -24.6434 H   0  0  0  0  0  0  0  0  0  0  0  0
    0.7246   27.2425  -26.3555 H   0  0  0  0  0  0  0  0  0  0  0  0
   -0.0222   26.5860  -28.6415 H   0  0  0  0  0  0  0  0  0  0  0  0
  1  2  1  0
  2  3  1  0
  3  4  2  0
  4  5  1  0
  5  6  1  0
  6  7  1  0
  7  8  2  0
  8  9  1  0
  9 10  2  0
 10 11  1  0
 11 12  1  0
 12 13  1  0
 13 14  2  0
 13 15  1  0
 15 16  1  0
  5 17  2  0
 17 18  1  0
 18 19  2  0
 19 20  1  0
 20 21  1  0
 21 22  2  0
 21 23  1  0
 23 24  1  0
 24 25  2  0
 25 26  1  0
 26 27  2  0
 27 28  1  0
 28 29  3  0
 27 30  1  0
 30 31  2  0
 19  3  1  0
 31 24  1  0
 16  7  1  0
 16 11  2  0
  1 32  1  0
  1 33  1  0
  1 34  1  0
  4 35  1  0
  8 36  1  0
  9 37  1  0
 17 38  1  0
 18 39  1  0
 23 40  1  0
 25 41  1  0
 26 42  1  0
 30 43  1  0
 31 44  1  0
M  CHG  3  12  -1  15  -1  20  -1
M  END
>  <UniqueID>  (15) 
14

>  <SMILES>  (15) 
COc1cc(Oc2ccnc3[n-]c(=O)[n-]c23)ccc1[N-]C(=O)Nc1ccc(C#N)cc1

>  <Energy>  (15) 
98.9040951973939

>  <Genealogy>  (15) 
COc1cc(Oc2ccnc3[n-]c(=O)[n-]c23)ccc1[N-]C(=O)Nc1ccc(C#N)cc1 (protonated)
COc1cc(Oc2ccnc3[n-]c(=O)[n-]c23)ccc1[N-]C(=O)Nc1ccc(C#N)cc1 (3D coordinates assigned)
COc1cc(Oc2ccnc3[n-]c(=O)[n-]c23)ccc1[N-]C(=O)Nc1ccc(C#N)cc1 (optimized conformer: 98.9040951973939 kcal/mol)

>  <smiles>  (15) 
COc1cc(Oc2ccnc3[nH]c(=O)[nH]c23)ccc1NC(=O)Nc1ccc(C#N)cc1

>  <score_type>  (15) 
oracle

>  <origin>  (15) 
adgpu

>  <m_score__min__energy>  (15) 
-10.539999999999999

>  <m_primary>  (15) 
energy

$$$$
15:0
     RDKit          3D

 74 78  0  0  0  0  0  0  0  0999 V2000
   -8.7760   20.5080  -31.1690 C   0  0  0  0  0  0  0  0  0  0  0  0
   -8.4480   21.7510  -31.9940 C   0  0  0  0  0  0  0  0  0  0  0  0
   -7.0080   22.0730  -31.9010 N   0  0  0  0  0  0  0  0  0  0  0  0
   -6.6730   23.2500  -31.2880 C   0  0  0  0  0  0  0  0  0  0  0  0
   -5.3390   23.6430  -31.1270 C   0  0  0  0  0  0  0  0  0  0  0  0
   -5.0330   24.8730  -30.3520 C   0  0  0  0  0  0  0  0  0  0  0  0
   -5.9800   25.6140  -29.9770 O   0  0  0  0  0  0  0  0  0  0  0  0
   -3.6890   25.2590  -30.0190 N   0  0  0  0  0  0  0  0  0  0  0  0
   -2.8160   24.6150  -29.0750 C   0  0  0  0  0  0  0  0  0  0  0  0
   -3.1400   23.3300  -28.6260 C   0  0  0  0  0  0  0  0  0  0  0  0
   -2.3440   22.6970  -27.6670 C   0  0  0  0  0  0  0  0  0  0  0  0
   -1.2230   23.3460  -27.1470 C   0  0  0  0  0  0  0  0  0  0  0  0
   -0.8750   24.6320  -27.5910 C   0  0  0  0  0  0  0  0  0  0  0  0
    0.3630   25.3110  -27.0620 C   0  0  0  0  0  0  0  0  0  0  0  0
    0.1980   26.6830  -27.1380 F   0  0  0  0  0  0  0  0  0  0  0  0
    0.5960   24.9560  -25.7430 F   0  0  0  0  0  0  0  0  0  0  0  0
    1.4710   24.9460  -27.8080 F   0  0  0  0  0  0  0  0  0  0  0  0
   -1.6520   25.2420  -28.5930 C   0  0  0  0  0  0  0  0  0  0  0  0
   -4.3300   22.8430  -31.6740 C   0  0  0  0  0  0  0  0  0  0  0  0
   -3.1280   23.2300  -31.6360 O   0  0  0  0  0  0  0  0  0  0  0  0
   -4.6580   21.6150  -32.2720 C   0  0  0  0  0  0  0  0  0  0  0  0
   -3.6480   20.7450  -32.7150 C   0  0  0  0  0  0  0  0  0  0  0  0
   -3.9650   19.5160  -33.2840 C   0  0  0  0  0  0  0  0  0  0  0  0
   -2.9520   18.6750  -33.5990 F   0  0  0  0  0  0  0  0  0  0  0  0
   -5.3060   19.1460  -33.4770 C   0  0  0  0  0  0  0  0  0  0  0  0
   -5.6530   17.8720  -34.0670 N   0  0  0  0  0  0  0  0  0  0  0  0
   -6.4070   16.8770  -33.2900 C   0  0  0  0  0  0  0  0  0  0  0  0
   -6.0270   15.4480  -33.7320 C   0  0  0  0  0  0  0  0  0  0  0  0
   -4.5920   15.3510  -34.0890 N   0  0  0  0  0  0  0  0  0  0  0  0
   -3.7350   15.5780  -32.9010 C   0  0  0  0  0  0  0  0  0  0  0  0
   -2.2800   15.6930  -33.2530 C   0  0  0  0  0  0  0  0  0  0  0  0
   -1.7790   14.9880  -34.1710 O   0  0  0  0  0  0  0  0  0  0  0  0
   -1.4570   16.6050  -32.5170 N   0  0  0  0  0  0  0  0  0  0  0  0
   -0.4130   17.3920  -33.1650 C   0  0  0  0  0  0  0  0  0  0  0  0
   -0.4760   18.8090  -32.6660 C   0  0  0  0  0  0  0  0  0  0  0  0
   -0.2830   19.8770  -33.5590 C   0  0  0  0  0  0  0  0  0  0  0  0
   -0.2620   21.1940  -33.0890 C   0  0  0  0  0  0  0  0  0  0  0  0
   -0.4310   21.4520  -31.7260 C   0  0  0  0  0  0  0  0  0  0  0  0
   -0.6200   20.3940  -30.8320 C   0  0  0  0  0  0  0  0  0  0  0  0
   -0.6330   19.0760  -31.2970 C   0  0  0  0  0  0  0  0  0  0  0  0
   -4.2380   16.2380  -35.2360 C   0  0  0  0  0  0  0  0  0  0  0  0
   -5.1620   17.4630  -35.3850 C   0  0  0  0  0  0  0  0  0  0  0  0
   -6.3210   20.0130  -33.0390 C   0  0  0  0  0  0  0  0  0  0  0  0
   -6.0220   21.2420  -32.4010 C   0  0  0  0  0  0  0  0  0  0  0  0
   -8.7118   20.7512  -30.0981 H   0  0  0  0  0  0  0  0  0  0  0  0
   -9.7946   20.1680  -31.4074 H   0  0  0  0  0  0  0  0  0  0  0  0
   -8.0578   19.7097  -31.4074 H   0  0  0  0  0  0  0  0  0  0  0  0
   -8.7097   21.5658  -33.0462 H   0  0  0  0  0  0  0  0  0  0  0  0
   -9.0270   22.5999  -31.6013 H   0  0  0  0  0  0  0  0  0  0  0  0
   -7.4731   23.9045  -30.9119 H   0  0  0  0  0  0  0  0  0  0  0  0
   -4.0248   22.8158  -29.0294 H   0  0  0  0  0  0  0  0  0  0  0  0
   -2.6017   21.6850  -27.3213 H   0  0  0  0  0  0  0  0  0  0  0  0
   -0.6078   22.8466  -26.3840 H   0  0  0  0  0  0  0  0  0  0  0  0
   -1.3473   26.2163  -29.0027 H   0  0  0  0  0  0  0  0  0  0  0  0
   -2.5933   21.0393  -32.6106 H   0  0  0  0  0  0  0  0  0  0  0  0
   -6.1748   16.9997  -32.2218 H   0  0  0  0  0  0  0  0  0  0  0  0
   -7.4825   17.0297  -33.4633 H   0  0  0  0  0  0  0  0  0  0  0  0
   -6.2376   14.7513  -32.9072 H   0  0  0  0  0  0  0  0  0  0  0  0
   -6.6210   15.1938  -34.6222 H   0  0  0  0  0  0  0  0  0  0  0  0
   -4.0534   16.5092  -32.4095 H   0  0  0  0  0  0  0  0  0  0  0  0
   -3.8496   14.7091  -32.2362 H   0  0  0  0  0  0  0  0  0  0  0  0
   -1.8080   16.9460  -31.5930 H   0  0  0  0  0  0  0  0  0  0  0  0
    0.5715   16.9624  -32.9278 H   0  0  0  0  0  0  0  0  0  0  0  0
   -0.5642   17.3782  -34.2545 H   0  0  0  0  0  0  0  0  0  0  0  0
   -0.1479   19.6762  -34.6320 H   0  0  0  0  0  0  0  0  0  0  0  0
   -0.1125   22.0267  -33.7921 H   0  0  0  0  0  0  0  0  0  0  0  0
   -0.4153   22.4879  -31.3564 H   0  0  0  0  0  0  0  0  0  0  0  0
   -0.7588   20.5992  -29.7603 H   0  0  0  0  0  0  0  0  0  0  0  0
   -0.7667   18.2456  -30.5881 H   0  0  0  0  0  0  0  0  0  0  0  0
   -3.2080   16.5963  -35.0921 H   0  0  0  0  0  0  0  0  0  0  0  0
   -4.3518   15.6383  -36.1511 H   0  0  0  0  0  0  0  0  0  0  0  0
   -4.6001   18.2921  -35.8397 H   0  0  0  0  0  0  0  0  0  0  0  0
   -6.0156   17.2005  -36.0272 H   0  0  0  0  0  0  0  0  0  0  0  0
   -7.3727   19.7309  -33.1951 H   0  0  0  0  0  0  0  0  0  0  0  0
  1  2  1  0
  2  3  1  0
  3  4  1  0
  4  5  2  0
  5  6  1  0
  6  7  2  0
  6  8  1  0
  8  9  1  0
  9 10  2  0
 10 11  1  0
 11 12  2  0
 12 13  1  0
 13 14  1  0
 14 15  1  0
 14 16  1  0
 14 17  1  0
 13 18  2  0
  5 19  1  0
 19 20  2  0
 19 21  1  0
 21 22  2  0
 22 23  1  0
 23 24  1  0
 23 25  2  0
 25 26  1  0
 26 27  1  0
 27 28  1  0
 28 29  1  0
 29 30  1  0
 30 31  1  0
 31 32  2  0
 31 33  1  0
 33 34  1  0
 34 35  1  0
 35 36  2  0
 36 37  1  0
 37 38  2  0
 38 39  1  0
 39 40  2  0
 29 41  1  0
 41 42  1  0
 25 43  1  0
 43 44  2  0
 44  3  1  0
 18  9  1  0
 44 21  1  0
 42 26  1  0
 40 35  1  0
  1 45  1  0
  1 46  1  0
  1 47  1  0
  2 48  1  0
  2 49  1  0
  4 50  1  0
 10 51  1  0
 11 52  1  0
 12 53  1  0
 18 54  1  0
 22 55  1  0
 27 56  1  0
 27 57  1  0
 28 58  1  0
 28 59  1  0
 30 60  1  0
 30 61  1  0
 33 62  1  0
 34 63  1  0
 34 64  1  0
 36 65  1  0
 37 66  1  0
 38 67  1  0
 39 68  1  0
 40 69  1  0
 41 70  1  0
 41 71  1  0
 42 72  1  0
 42 73  1  0
 43 74  1  0
M  CHG  1   8  -1
M  END
>  <UniqueID>  (16) 
15

>  <SMILES>  (16) 
CCn1cc(C(=O)[N-]c2cccc(C(F)(F)F)c2)c(=O)c2cc(F)c(N3CCN(CC(=O)NCc4ccccc4)CC3)cc21

>  <Energy>  (16) 
104.27291288034617

>  <Genealogy>  (16) 
CCn1cc(C(=O)[N-]c2cccc(C(F)(F)F)c2)c(=O)c2cc(F)c(N3CCN(CC(=O)NCc4ccccc4)CC3)cc21 (protonated)
CCn1cc(C(=O)[N-]c2cccc(C(F)(F)F)c2)c(=O)c2cc(F)c(N3CCN(CC(=O)NCc4ccccc4)CC3)cc21 (3D coordinates assigned)
CCn1cc(C(=O)[N-]c2cccc(C(F)(F)F)c2)c(=O)c2cc(F)c(N3CCN(CC(=O)NCc4ccccc4)CC3)cc21 (nonaromatic ring conformer: 104.27291288034617 kcal/mol)

>  <smiles>  (16) 
CCn1cc(C(=O)Nc2cccc(C(F)(F)F)c2)c(=O)c2cc(F)c(N3CCN(CC(=O)NCc4ccccc4)CC3)cc21

>  <score_type>  (16) 
oracle

>  <origin>  (16) 
adgpu

>  <m_score__min__energy>  (16) 
-11.6

>  <m_primary>  (16) 
energy

$$$$
16:0
     RDKit          3D

 52 53  0  0  0  0  0  0  0  0999 V2000
   -3.5040   24.1930  -31.1020 O   0  0  0  0  0  0  0  0  0  0  0  0
   -4.6240   24.7110  -30.8490 C   0  0  0  0  0  0  0  0  0  0  0  0
   -4.6770   26.0450  -30.4610 O   0  0  0  0  0  0  0  0  0  0  0  0
   -5.8650   23.9130  -30.9590 C   0  0  0  0  0  0  0  0  0  0  0  0
   -6.5400   23.8030  -32.1880 C   0  0  0  0  0  0  0  0  0  0  0  0
   -7.7110   23.0460  -32.2880 C   0  0  0  0  0  0  0  0  0  0  0  0
   -8.2290   22.3910  -31.1620 C   0  0  0  0  0  0  0  0  0  0  0  0
   -9.4750   21.5580  -31.2720 C   0  0  0  0  0  0  0  0  0  0  0  0
   -9.1150   20.1410  -31.3980 N   0  0  0  0  0  0  0  0  0  0  0  0
   -8.3330   19.8960  -32.6200 C   0  0  0  0  0  0  0  0  0  0  0  0
   -7.1500   18.9600  -32.3290 C   0  0  0  0  0  0  0  0  0  0  0  0
   -6.0500   19.0210  -33.4030 C   0  0  0  0  0  0  0  0  0  0  0  0
   -4.6580   19.2730  -32.7970 C   0  0  0  0  0  0  0  0  0  0  0  0
   -4.4130   20.7530  -32.4570 C   0  0  0  0  0  0  0  0  0  0  0  0
   -3.3150   20.9750  -31.4060 C   0  0  0  0  0  0  0  0  0  0  0  0
   -3.7290   20.4500  -30.0970 N   0  0  0  0  0  0  0  0  0  0  0  0
   -2.7270   20.7400  -29.0630 C   0  0  0  0  0  0  0  0  0  0  0  0
   -2.3820   22.2070  -29.0400 C   0  0  0  0  0  0  0  0  0  0  0  0
   -3.2170   23.1230  -28.3790 C   0  0  0  0  0  0  0  0  0  0  0  0
   -2.8860   24.4800  -28.3450 C   0  0  0  0  0  0  0  0  0  0  0  0
   -1.7210   24.9330  -28.9700 C   0  0  0  0  0  0  0  0  0  0  0  0
   -1.3860   26.2800  -28.9160 O   0  0  0  0  0  0  0  0  0  0  0  0
   -0.8920   24.0300  -29.6430 C   0  0  0  0  0  0  0  0  0  0  0  0
   -1.2210   22.6710  -29.6800 C   0  0  0  0  0  0  0  0  0  0  0  0
   -7.5470   22.4800  -29.9400 C   0  0  0  0  0  0  0  0  0  0  0  0
   -6.3800   23.2430  -29.8360 C   0  0  0  0  0  0  0  0  0  0  0  0
   -6.1438   24.3162  -33.0766 H   0  0  0  0  0  0  0  0  0  0  0  0
   -8.2286   22.9639  -33.2551 H   0  0  0  0  0  0  0  0  0  0  0  0
  -10.0901   21.7000  -30.3712 H   0  0  0  0  0  0  0  0  0  0  0  0
  -10.0431   21.8692  -32.1610 H   0  0  0  0  0  0  0  0  0  0  0  0
   -8.5170   19.8920  -30.5750 H   0  0  0  0  0  0  0  0  0  0  0  0
   -8.9823   19.4326  -33.3774 H   0  0  0  0  0  0  0  0  0  0  0  0
   -7.9422   20.8560  -32.9882 H   0  0  0  0  0  0  0  0  0  0  0  0
   -6.7099   19.2433  -31.3615 H   0  0  0  0  0  0  0  0  0  0  0  0
   -7.5413   17.9320  -32.3201 H   0  0  0  0  0  0  0  0  0  0  0  0
   -6.0319   18.0646  -33.9460 H   0  0  0  0  0  0  0  0  0  0  0  0
   -6.2818   19.8597  -34.0760 H   0  0  0  0  0  0  0  0  0  0  0  0
   -4.5640   18.6807  -31.8749 H   0  0  0  0  0  0  0  0  0  0  0  0
   -3.9118   18.9790  -33.5498 H   0  0  0  0  0  0  0  0  0  0  0  0
   -4.1211   21.2768  -33.3792 H   0  0  0  0  0  0  0  0  0  0  0  0
   -5.3487   21.1422  -32.0293 H   0  0  0  0  0  0  0  0  0  0  0  0
   -2.3986   20.4587  -31.7278 H   0  0  0  0  0  0  0  0  0  0  0  0
   -3.1332   22.0556  -31.3101 H   0  0  0  0  0  0  0  0  0  0  0  0
   -4.6110   20.9410  -29.8200 H   0  0  0  0  0  0  0  0  0  0  0  0
   -3.1292   20.4498  -28.0812 H   0  0  0  0  0  0  0  0  0  0  0  0
   -1.8144   20.1694  -29.2901 H   0  0  0  0  0  0  0  0  0  0  0  0
   -4.1351   22.7706  -27.8862 H   0  0  0  0  0  0  0  0  0  0  0  0
   -3.5433   25.1928  -27.8255 H   0  0  0  0  0  0  0  0  0  0  0  0
    0.0194   24.3887  -30.1436 H   0  0  0  0  0  0  0  0  0  0  0  0
   -0.5683   21.9633  -30.2121 H   0  0  0  0  0  0  0  0  0  0  0  0
   -7.9322   21.9466  -29.0585 H   0  0  0  0  0  0  0  0  0  0  0  0
   -5.8615   23.3194  -28.8689 H   0  0  0  0  0  0  0  0  0  0  0  0
  1  2  2  0
  2  3  1  0
  2  4  1  0
  4  5  2  0
  5  6  1  0
  6  7  2  0
  7  8  1  0
  8  9  1  0
  9 10  1  0
 10 11  1  0
 11 12  1  0
 12 13  1  0
 13 14  1  0
 14 15  1  0
 15 16  1  0
 16 17  1  0
 17 18  1  0
 18 19  2  0
 19 20  1  0
 20 21  2  0
 21 22  1  0
 21 23  1  0
 23 24  2  0
  7 25  1  0
 25 26  2  0
 26  4  1  0
 24 18  1  0
  5 27  1  0
  6 28  1  0
  8 29  1  0
  8 30  1  0
  9 31  1  0
 10 32  1  0
 10 33  1  0
 11 34  1  0
 11 35  1  0
 12 36  1  0
 12 37  1  0
 13 38  1  0
 13 39  1  0
 14 40  1  0
 14 41  1  0
 15 42  1  0
 15 43  1  0
 16 44  1  0
 17 45  1  0
 17 46  1  0
 19 47  1  0
 20 48  1  0
 23 49  1  0
 24 50  1  0
 25 51  1  0
 26 52  1  0
M  CHG  2   3  -1  22  -1
M  END
>  <UniqueID>  (17) 
16

>  <SMILES>  (17) 
O=C([O-])c1ccc(CNCCCCCCNCc2ccc([O-])cc2)cc1

>  <Energy>  (17) 
38.03493859854435

>  <Genealogy>  (17) 
O=C([O-])c1ccc(CNCCCCCCNCc2ccc([O-])cc2)cc1 (protonated)
O=C([O-])c1ccc(CNCCCCCCNCc2ccc([O-])cc2)cc1 (3D coordinates assigned)
O=C([O-])c1ccc(CNCCCCCCNCc2ccc([O-])cc2)cc1 (optimized conformer: 38.03493859854435 kcal/mol)

>  <smiles>  (17) 
O=C(O)c1ccc(CNCCCCCCNCc2ccc(O)cc2)cc1

>  <score_type>  (17) 
oracle

>  <origin>  (17) 
adgpu

>  <m_score__min__energy>  (17) 
-11.98

>  <m_primary>  (17) 
energy

$$$$
17:0
     RDKit          3D

 54 56  0  0  0  0  0  0  0  0999 V2000
   -9.4590   21.8520  -31.9560 C   0  0  0  0  0  0  0  0  0  0  0  0
   -8.1440   22.3890  -31.4740 C   0  0  0  0  0  0  0  0  0  0  0  0
   -7.3340   23.1500  -32.3300 C   0  0  0  0  0  0  0  0  0  0  0  0
   -6.1260   23.6840  -31.8710 C   0  0  0  0  0  0  0  0  0  0  0  0
   -5.7220   23.4740  -30.5450 C   0  0  0  0  0  0  0  0  0  0  0  0
   -4.2120   24.1490  -29.9440 S   0  0  0  0  0  0  0  0  0  0  0  0
   -3.8890   25.3710  -30.7600 O   0  0  0  0  0  0  0  0  0  0  0  0
   -4.3400   24.5420  -28.4990 O   0  0  0  0  0  0  0  0  0  0  0  0
   -2.9490   22.9620  -30.1020 N   0  0  0  0  0  0  0  0  0  0  0  0
   -1.7730   23.0580  -29.2400 C   0  0  0  0  0  0  0  0  0  0  0  0
   -3.0720   21.8880  -31.0510 C   0  0  0  0  0  0  0  0  0  0  0  0
   -4.1770   21.0220  -31.0040 C   0  0  0  0  0  0  0  0  0  0  0  0
   -4.2660   19.9400  -31.8840 C   0  0  0  0  0  0  0  0  0  0  0  0
   -3.2600   19.7180  -32.8310 C   0  0  0  0  0  0  0  0  0  0  0  0
   -3.2770   18.2510  -33.8040 S   0  0  0  0  0  0  0  0  0  0  0  0
   -3.1360   17.0370  -32.9320 O   0  0  0  0  0  0  0  0  0  0  0  0
   -2.1310   18.2840  -34.7750 O   0  0  0  0  0  0  0  0  0  0  0  0
   -4.7720   18.1900  -34.6750 N   0  0  0  0  0  0  0  0  0  0  0  0
   -5.9750   17.8590  -33.9740 C   0  0  0  0  0  0  0  0  0  0  0  0
   -6.3330   16.6210  -33.4750 C   0  0  0  0  0  0  0  0  0  0  0  0
   -5.6190   15.3270  -33.6920 C   0  0  0  0  0  0  0  0  0  0  0  0
   -7.3880   16.7650  -32.6460 N   0  0  0  0  0  0  0  0  0  0  0  0
   -7.7120   18.0510  -32.6250 N   0  0  0  0  0  0  0  0  0  0  0  0
   -8.7360   18.6060  -31.7480 C   0  0  0  0  0  0  0  0  0  0  0  0
   -6.8690   18.7510  -33.4170 C   0  0  0  0  0  0  0  0  0  0  0  0
   -6.8100   20.2460  -33.4930 C   0  0  0  0  0  0  0  0  0  0  0  0
   -2.1730   20.5980  -32.9050 C   0  0  0  0  0  0  0  0  0  0  0  0
   -2.0800   21.6770  -32.0240 C   0  0  0  0  0  0  0  0  0  0  0  0
   -6.5360   22.7280  -29.6830 C   0  0  0  0  0  0  0  0  0  0  0  0
   -7.7440   22.1930  -30.1420 C   0  0  0  0  0  0  0  0  0  0  0  0
  -10.0890   21.5947  -31.0917 H   0  0  0  0  0  0  0  0  0  0  0  0
   -9.9657   22.6152  -32.5649 H   0  0  0  0  0  0  0  0  0  0  0  0
   -9.2866   20.9522  -32.5649 H   0  0  0  0  0  0  0  0  0  0  0  0
   -7.6510   23.3276  -33.3682 H   0  0  0  0  0  0  0  0  0  0  0  0
   -5.4912   24.2702  -32.5518 H   0  0  0  0  0  0  0  0  0  0  0  0
   -2.0877   23.0323  -28.1863 H   0  0  0  0  0  0  0  0  0  0  0  0
   -1.1000   22.2118  -29.4424 H   0  0  0  0  0  0  0  0  0  0  0  0
   -1.2461   24.0021  -29.4424 H   0  0  0  0  0  0  0  0  0  0  0  0
   -4.9773   21.1966  -30.2699 H   0  0  0  0  0  0  0  0  0  0  0  0
   -5.1296   19.2607  -31.8321 H   0  0  0  0  0  0  0  0  0  0  0  0
   -4.8470   18.7760  -35.5350 H   0  0  0  0  0  0  0  0  0  0  0  0
   -5.3710   14.8775  -32.7192 H   0  0  0  0  0  0  0  0  0  0  0  0
   -6.2665   14.6414  -34.2583 H   0  0  0  0  0  0  0  0  0  0  0  0
   -4.6938   15.5092  -34.2583 H   0  0  0  0  0  0  0  0  0  0  0  0
   -8.4451   18.4483  -30.6990 H   0  0  0  0  0  0  0  0  0  0  0  0
   -8.8398   19.6838  -31.9417 H   0  0  0  0  0  0  0  0  0  0  0  0
   -9.6957   18.1046  -31.9417 H   0  0  0  0  0  0  0  0  0  0  0  0
   -6.7935   20.6645  -32.4758 H   0  0  0  0  0  0  0  0  0  0  0  0
   -5.8992   20.5502  -34.0295 H   0  0  0  0  0  0  0  0  0  0  0  0
   -7.6940   20.6210  -34.0295 H   0  0  0  0  0  0  0  0  0  0  0  0
   -1.3894   20.4384  -33.6603 H   0  0  0  0  0  0  0  0  0  0  0  0
   -1.2253   22.3661  -32.0918 H   0  0  0  0  0  0  0  0  0  0  0  0
   -6.2240   22.5623  -28.6413 H   0  0  0  0  0  0  0  0  0  0  0  0
   -8.3833   21.6165  -29.4572 H   0  0  0  0  0  0  0  0  0  0  0  0
  1  2  1  0
  2  3  2  0
  3  4  1  0
  4  5  2  0
  5  6  1  0
  6  7  2  0
  6  8  2  0
  6  9  1  0
  9 10  1  0
  9 11  1  0
 11 12  2  0
 12 13  1  0
 13 14  2  0
 14 15  1  0
 15 16  2  0
 15 17  2  0
 15 18  1  0
 18 19  1  0
 19 20  1  0
 20 21  1  0
 20 22  2  0
 22 23  1  0
 23 24  1  0
 23 25  1  0
 25 26  1  0
 14 27  1  0
 27 28  2  0
  5 29  1  0
 29 30  2  0
 30  2  1  0
 28 11  1  0
 25 19  2  0
  1 31  1  0
  1 32  1  0
  1 33  1  0
  3 34  1  0
  4 35  1  0
 10 36  1  0
 10 37  1  0
 10 38  1  0
 12 39  1  0
 13 40  1  0
 18 41  1  0
 21 42  1  0
 21 43  1  0
 21 44  1  0
 24 45  1  0
 24 46  1  0
 24 47  1  0
 26 48  1  0
 26 49  1  0
 26 50  1  0
 27 51  1  0
 28 52  1  0
 29 53  1  0
 30 54  1  0
M  END
>  <UniqueID>  (18) 
17

>  <SMILES>  (18) 
Cc1ccc(S(=O)(=O)N(C)c2ccc(S(=O)(=O)Nc3c(C)nn(C)c3C)cc2)cc1

>  <Energy>  (18) 
92.5973900713565

>  <Genealogy>  (18) 
Cc1ccc(S(=O)(=O)N(C)c2ccc(S(=O)(=O)Nc3c(C)nn(C)c3C)cc2)cc1 (3D coordinates assigned)
Cc1ccc(S(=O)(=O)N(C)c2ccc(S(=O)(=O)Nc3c(C)nn(C)c3C)cc2)cc1 (optimized conformer: 92.5973900713565 kcal/mol)

>  <smiles>  (18) 
Cc1ccc(S(=O)(=O)N(C)c2ccc(S(=O)(=O)Nc3c(C)nn(C)c3C)cc2)cc1

>  <score_type>  (18) 
oracle

>  <origin>  (18) 
adgpu

>  <m_score__min__energy>  (18) 
-10.5

>  <m_primary>  (18) 
energy

$$$$
18:0
     RDKit          3D

 72 76  0  0  1  0  0  0  0  0999 V2000
   -3.6970   21.5870  -32.4220 C   0  0  0  0  0  0  0  0  0  0  0  0
   -5.0450   21.7900  -32.8160 O   0  0  0  0  0  0  0  0  0  0  0  0
   -5.9700   20.7810  -32.5500 C   0  0  0  0  0  0  0  0  0  0  0  0
   -5.6550   19.4390  -32.7920 C   0  0  0  0  0  0  0  0  0  0  0  0
   -6.5760   18.4490  -32.5260 C   0  0  0  0  0  0  0  0  0  0  0  0
   -6.2070   17.1110  -32.7870 N   0  0  0  0  0  0  0  0  0  0  0  0
   -6.6640   16.5200  -34.0320 C   0  0  0  0  0  0  0  0  0  0  0  0
   -6.0030   15.1620  -34.1540 C   0  0  0  0  0  0  0  0  0  0  0  0
   -4.6400   15.2340  -33.9620 O   0  0  0  0  0  0  0  0  0  0  0  0
   -4.2580   15.7350  -32.7420 C   0  0  0  0  0  0  0  0  0  0  0  0
   -5.4120   16.2830  -31.9140 C   0  0  0  0  0  0  0  0  0  0  0  0
   -7.7930   18.8440  -32.0220 C   0  0  0  0  0  0  0  0  0  0  0  0
   -8.1200   20.1680  -31.7780 C   0  0  0  0  0  0  0  0  0  0  0  0
   -7.1820   21.1580  -32.0500 C   0  0  0  0  0  0  0  0  0  0  0  0
   -7.5630   22.5020  -31.7830 N   0  0  0  0  0  0  0  0  0  0  0  0
   -6.8160   23.1960  -30.9910 C   0  0  0  0  0  0  0  0  0  0  0  0
   -7.2430   24.5090  -30.7670 C   0  0  0  0  0  0  0  0  0  0  0  0
   -6.4790   25.3050  -29.9230 C   0  0  0  0  0  0  0  0  0  0  0  0
   -5.3670   24.7940  -29.3550 N   0  0  0  0  0  0  0  0  0  0  0  0
   -4.9960   23.5140  -29.6030 C   0  0  0  0  0  0  0  0  0  0  0  0
   -3.9270   23.0460  -29.0470 N   0  0  0  0  0  0  0  0  0  0  0  0
   -3.1220   23.8380  -28.1750 C   0  0  0  0  0  0  0  0  0  0  0  0
   -3.5740   24.3220  -26.9660 C   0  0  0  0  0  0  0  0  0  0  0  0
   -2.7240   25.0800  -26.1890 C   0  0  0  0  0  0  0  0  0  0  0  0
   -1.4240   25.3810  -26.5680 C   0  0  0  0  0  0  0  0  0  0  0  0
   -0.5830   26.1570  -25.7540 N   0  0  0  0  0  0  0  0  0  0  0  0
   -0.4800   26.0560  -24.3210 C   0  0  0  0  0  0  0  0  0  0  0  0
   -0.4100   27.5020  -23.8250 C   0  0  0  0  0  0  0  0  0  0  0  0
    0.9080   27.9960  -24.1500 N   0  0  0  0  0  0  0  0  0  0  0  0
    1.0600   29.3960  -23.8800 C   0  0  0  0  0  0  0  0  0  0  0  0
    1.3860   27.5680  -25.4230 C   0  0  0  0  0  0  0  0  0  0  0  0
    0.2740   27.1670  -26.3950 C   0  0  0  0  0  0  0  0  0  0  0  0
   -1.0090   24.8820  -27.7800 C   0  0  0  0  0  0  0  0  0  0  0  0
   -1.8350   24.1110  -28.5980 C   0  0  0  0  0  0  0  0  0  0  0  0
   -1.3710   23.6260  -29.8160 O   0  0  0  0  0  0  0  0  0  0  0  0
   -0.9820   22.3010  -30.0540 C   0  0  0  0  0  0  0  0  0  0  0  0
   -5.7040   22.7100  -30.4110 N   0  0  0  0  0  0  0  0  0  0  0  0
   -3.6334   21.5774  -31.3239 H   0  0  0  0  0  0  0  0  0  0  0  0
   -3.3400   20.6250  -32.8183 H   0  0  0  0  0  0  0  0  0  0  0  0
   -3.0726   22.4012  -32.8183 H   0  0  0  0  0  0  0  0  0  0  0  0
   -4.6673   19.1731  -33.1966 H   0  0  0  0  0  0  0  0  0  0  0  0
   -7.7580   16.4063  -34.0157 H   0  0  0  0  0  0  0  0  0  0  0  0
   -6.4010   17.1600  -34.8871 H   0  0  0  0  0  0  0  0  0  0  0  0
   -6.4333   14.4880  -33.3986 H   0  0  0  0  0  0  0  0  0  0  0  0
   -6.1842   14.7852  -35.1714 H   0  0  0  0  0  0  0  0  0  0  0  0
   -3.7745   14.9281  -32.1717 H   0  0  0  0  0  0  0  0  0  0  0  0
   -3.5779   16.5766  -32.9401 H   0  0  0  0  0  0  0  0  0  0  0  0
   -6.0210   15.4552  -31.5218 H   0  0  0  0  0  0  0  0  0  0  0  0
   -5.0376   16.8641  -31.0584 H   0  0  0  0  0  0  0  0  0  0  0  0
   -8.5437   18.0708  -31.8018 H   0  0  0  0  0  0  0  0  0  0  0  0
   -9.1085   20.4326  -31.3745 H   0  0  0  0  0  0  0  0  0  0  0  0
   -8.1545   24.8987  -31.2438 H   0  0  0  0  0  0  0  0  0  0  0  0
   -6.7783   26.3437  -29.7194 H   0  0  0  0  0  0  0  0  0  0  0  0
   -4.7860   25.3900  -28.7170 H   0  0  0  0  0  0  0  0  0  0  0  0
   -4.5978   24.1066  -26.6262 H   0  0  0  0  0  0  0  0  0  0  0  0
   -3.0930   25.4630  -25.2261 H   0  0  0  0  0  0  0  0  0  0  0  0
   -1.3620   25.5471  -23.9051 H   0  0  0  0  0  0  0  0  0  0  0  0
    0.3977   25.4702  -24.0105 H   0  0  0  0  0  0  0  0  0  0  0  0
   -1.1762   28.1111  -24.3268 H   0  0  0  0  0  0  0  0  0  0  0  0
   -0.5933   27.5550  -22.7417 H   0  0  0  0  0  0  0  0  0  0  0  0
    1.0778   29.5599  -22.7924 H   0  0  0  0  0  0  0  0  0  0  0  0
    2.0023   29.7541  -24.3202 H   0  0  0  0  0  0  0  0  0  0  0  0
    0.2165   29.9480  -24.3202 H   0  0  0  0  0  0  0  0  0  0  0  0
    1.9603   28.3912  -25.8730 H   0  0  0  0  0  0  0  0  0  0  0  0
    2.0008   26.6722  -25.2508 H   0  0  0  0  0  0  0  0  0  0  0  0
   -0.3276   28.0514  -26.6520 H   0  0  0  0  0  0  0  0  0  0  0  0
    0.7154   26.7509  -27.3126 H   0  0  0  0  0  0  0  0  0  0  0  0
    0.0150   25.0993  -28.1181 H   0  0  0  0  0  0  0  0  0  0  0  0
   -0.8306   21.7853  -29.0943 H   0  0  0  0  0  0  0  0  0  0  0  0
   -1.7668   21.7858  -30.6273 H   0  0  0  0  0  0  0  0  0  0  0  0
   -0.0432   22.2918  -30.6273 H   0  0  0  0  0  0  0  0  0  0  0  0
   -5.4180   21.7350  -30.5990 H   0  0  0  0  0  0  0  0  0  0  0  0
  1  2  1  0
  2  3  1  0
  3  4  2  0
  4  5  1  0
  5  6  1  0
  6  7  1  0
  7  8  1  0
  8  9  1  0
  9 10  1  0
 10 11  1  0
  5 12  2  0
 12 13  1  0
 13 14  2  0
 14 15  1  0
 15 16  2  0
 16 17  1  0
 17 18  2  0
 18 19  1  0
 19 20  1  0
 20 21  2  0
 21 22  1  0
 22 23  2  0
 23 24  1  0
 24 25  2  0
 25 26  1  0
 26 27  1  0
 27 28  1  0
 28 29  1  0
 29 30  1  0
 29 31  1  0
 31 32  1  0
 25 33  1  0
 33 34  2  0
 34 35  1  0
 35 36  1  0
 20 37  1  0
 14  3  1  0
 37 16  1  0
 11  6  1  0
 34 22  1  0
 32 26  1  0
  1 38  1  0
  1 39  1  0
  1 40  1  0
  4 41  1  0
  7 42  1  0
  7 43  1  0
  8 44  1  0
  8 45  1  0
 10 46  1  0
 10 47  1  0
 11 48  1  0
 11 49  1  0
 12 50  1  0
 13 51  1  0
 17 52  1  0
 18 53  1  0
 19 54  1  0
 23 55  1  0
 24 56  1  0
 27 57  1  0
 27 58  1  0
 28 59  1  0
 28 60  1  0
 30 61  1  0
 30 62  1  0
 30 63  1  0
 31 64  1  0
 31 65  1  0
 32 66  1  0
 32 67  1  0
 33 68  1  0
 36 69  1  0
 36 70  1  0
 36 71  1  0
 37 72  1  0
M  END
>  <smiles>  (19) 
COc1cc(N2CCOCC2)ccc1N=c1cc[nH]c(=Nc2ccc(N3CCN(C)CC3)cc2OC)[nH]1

>  <score_type>  (19) 
oracle

>  <origin>  (19) 
adgpu

>  <m_score__min__energy>  (19) 
-9.5299999999999994

>  <m_primary>  (19) 
energy

$$$$
19:0
     RDKit          3D

 46 48  0  0  0  0  0  0  0  0999 V2000
   -0.6040   15.7830  -32.5230 H   0  0  0  0  0  0  0  0  0  0  0  0
   -1.2910   15.0700  -32.3140 O   0  0  0  0  0  0  0  0  0  0  0  0
   -2.6210   15.1460  -32.7290 C   0  0  0  0  0  0  0  0  0  0  0  0
   -3.4800   14.0970  -32.3850 C   0  0  0  0  0  0  0  0  0  0  0  0
   -3.1067   13.2690  -31.7645 H   0  0  0  0  0  0  0  0  0  0  0  0
   -4.8060   14.0900  -32.8210 C   0  0  0  0  0  0  0  0  0  0  0  0
   -5.4656   13.2531  -32.5481 H   0  0  0  0  0  0  0  0  0  0  0  0
   -5.3020   15.1370  -33.6010 C   0  0  0  0  0  0  0  0  0  0  0  0
   -6.6390   15.0810  -34.0200 O   0  0  0  0  0  0  0  0  0  0  0  0
   -7.2700   13.9180  -34.5470 C   0  0  0  0  0  0  0  0  0  0  0  0
   -7.6155   13.2813  -33.7192 H   0  0  0  0  0  0  0  0  0  0  0  0
   -8.1304   14.2156  -35.1644 H   0  0  0  0  0  0  0  0  0  0  0  0
   -6.5515   13.3589  -35.1644 H   0  0  0  0  0  0  0  0  0  0  0  0
   -4.4500   16.2060  -33.9350 C   0  0  0  0  0  0  0  0  0  0  0  0
   -4.8363   17.0393  -34.5403 H   0  0  0  0  0  0  0  0  0  0  0  0
   -3.1110   16.2230  -33.5050 C   0  0  0  0  0  0  0  0  0  0  0  0
   -2.2600   17.3770  -33.8720 C   0  0  0  0  0  0  0  0  0  0  0  0
   -1.0360   17.3680  -33.5740 O   0  0  0  0  0  0  0  0  0  0  0  0
   -2.8170   18.5570  -34.4700 N   0  0  0  0  0  0  0  0  0  0  0  0
   -3.5830   19.5550  -33.7800 C   0  0  0  0  0  0  0  0  0  0  0  0
   -3.0010   20.7610  -33.3520 C   0  0  0  0  0  0  0  0  0  0  0  0
   -1.9324   20.9486  -33.5335 H   0  0  0  0  0  0  0  0  0  0  0  0
   -3.7750   21.7220  -32.6970 C   0  0  0  0  0  0  0  0  0  0  0  0
   -3.3147   22.6645  -32.3656 H   0  0  0  0  0  0  0  0  0  0  0  0
   -5.1370   21.4880  -32.4610 C   0  0  0  0  0  0  0  0  0  0  0  0
   -6.1220   22.7130  -31.6690 S   0  0  0  0  0  0  0  0  0  0  0  0
   -7.1660   23.1690  -32.6470 O   0  0  0  0  0  0  0  0  0  0  0  0
   -6.8170   22.1600  -30.4580 O   0  0  0  0  0  0  0  0  0  0  0  0
   -5.1560   24.0860  -31.2240 N   0  0  0  0  0  0  0  0  0  0  0  0
   -4.1430   24.1670  -30.4090 C   0  0  0  0  0  0  0  0  0  0  0  0
   -3.5110   25.3000  -30.2170 O   0  0  0  0  0  0  0  0  0  0  0  0
   -2.5360   25.1660  -29.3670 N   0  0  0  0  0  0  0  0  0  0  0  0
   -2.5270   23.8770  -28.9780 C   0  0  0  0  0  0  0  0  0  0  0  0
   -1.5540   23.3270  -27.9850 C   0  0  0  0  0  0  0  0  0  0  0  0
   -1.9150   23.5311  -26.9662 H   0  0  0  0  0  0  0  0  0  0  0  0
   -1.4575   22.2408  -28.1291 H   0  0  0  0  0  0  0  0  0  0  0  0
   -0.5736   23.8045  -28.1291 H   0  0  0  0  0  0  0  0  0  0  0  0
   -3.5380   23.1810  -29.6250 C   0  0  0  0  0  0  0  0  0  0  0  0
   -3.8940   21.7420  -29.3940 C   0  0  0  0  0  0  0  0  0  0  0  0
   -3.9427   21.5453  -28.3128 H   0  0  0  0  0  0  0  0  0  0  0  0
   -4.8720   21.5285  -29.8499 H   0  0  0  0  0  0  0  0  0  0  0  0
   -3.1283   21.0971  -29.8499 H   0  0  0  0  0  0  0  0  0  0  0  0
   -5.7080   20.2720  -32.8530 C   0  0  0  0  0  0  0  0  0  0  0  0
   -6.7709   20.0748  -32.6498 H   0  0  0  0  0  0  0  0  0  0  0  0
   -4.9320   19.3070  -33.5020 C   0  0  0  0  0  0  0  0  0  0  0  0
   -5.3840   18.3481  -33.7956 H   0  0  0  0  0  0  0  0  0  0  0  0
  1  2  1  0
  2  3  1  0
  3  4  2  0
  4  5  1  0
  4  6  1  0
  6  7  1  0
  6  8  2  0
  8  9  1  0
  9 10  1  0
 10 11  1  0
 10 12  1  0
 10 13  1  0
  8 14  1  0
 14 15  1  0
 14 16  2  0
 16 17  1  0
 17 18  2  0
 17 19  1  0
 19 20  1  0
 20 21  2  0
 21 22  1  0
 21 23  1  0
 23 24  1  0
 23 25  2  0
 25 26  1  0
 26 27  2  0
 26 28  2  0
 26 29  1  0
 29 30  2  0
 30 31  1  0
 31 32  1  0
 32 33  1  0
 33 34  1  0
 34 35  1  0
 34 36  1  0
 34 37  1  0
 33 38  2  0
 38 39  1  0
 39 40  1  0
 39 41  1  0
 39 42  1  0
 25 43  1  0
 43 44  1  0
 43 45  2  0
 45 46  1  0
 16  3  1  0
 45 20  1  0
 38 30  1  0
M  CHG  2  19  -1  32  -1
M  END
>  <UniqueID>  (20) 
18

>  <SMILES>  (20) 
COc1ccc(O)c(C(=O)[N-]c2ccc(S(=O)(=O)/N=c3/o[n-]c(C)c3C)cc2)c1

>  <Energy>  (20) 
94.25792441145518

>  <Genealogy>  (20) 
COc1ccc(O)c(C(=O)[N-]c2ccc(S(=O)(=O)N=c3o[n-]c(C)c3C)cc2)c1 (protonated)
COc1ccc(O)c(C(=O)[N-]c2ccc(S(=O)(=O)/N=c3/o[n-]c(C)c3C)cc2)c1 (cis-trans isomerization)
COc1ccc(O)c(C(=O)[N-]c2ccc(S(=O)(=O)/N=c3/o[n-]c(C)c3C)cc2)c1 (3D coordinates assigned)
COc1ccc(O)c(C(=O)[N-]c2ccc(S(=O)(=O)/N=c3/o[n-]c(C)c3C)cc2)c1 (optimized conformer: 94.25792441145518 kcal/mol)

>  <smiles>  (20) 
COc1ccc(O)c(C(=O)Nc2ccc(S(=O)(=O)N=c3o[nH]c(C)c3C)cc2)c1

>  <score_type>  (20) 
oracle

>  <origin>  (20) 
adgpu

>  <m_score__min__energy>  (20) 
-10.16

>  <m_primary>  (20) 
energy

$$$$
20:0
     RDKit          3D

 41 43  0  0  0  0  0  0  0  0999 V2000
   -2.6760   25.6850  -25.5920 C   0  0  0  0  0  0  0  0  0  0  0  0
   -2.2460   25.1230  -26.9220 C   0  0  0  0  0  0  0  0  0  0  0  0
   -3.1960   24.7870  -27.8420 N   0  0  0  0  0  0  0  0  0  0  0  0
   -2.8570   24.2770  -29.0600 C   0  0  0  0  0  0  0  0  0  0  0  0
   -3.8680   23.9260  -30.0210 N   0  0  0  0  0  0  0  0  0  0  0  0
   -5.1580   24.6240  -30.0560 C   0  0  0  0  0  0  0  0  0  0  0  0
   -6.2860   23.5970  -30.1650 C   0  0  0  0  0  0  0  0  0  0  0  0
   -6.0270   22.6280  -31.2450 N   0  0  0  0  0  0  0  0  0  0  0  0
   -7.0990   21.7700  -31.6950 C   0  0  0  0  0  0  0  0  0  0  0  0
   -8.4440   22.1540  -31.5280 C   0  0  0  0  0  0  0  0  0  0  0  0
   -9.4780   21.3190  -31.9600 C   0  0  0  0  0  0  0  0  0  0  0  0
   -9.1850   20.0930  -32.5590 C   0  0  0  0  0  0  0  0  0  0  0  0
   -7.8560   19.6980  -32.7270 C   0  0  0  0  0  0  0  0  0  0  0  0
   -6.8180   20.5300  -32.2970 C   0  0  0  0  0  0  0  0  0  0  0  0
   -4.7520   22.6650  -31.9800 C   0  0  0  0  0  0  0  0  0  0  0  0
   -3.5740   22.8910  -31.0220 C   0  0  0  0  0  0  0  0  0  0  0  0
   -1.5480   24.0660  -29.3560 N   0  0  0  0  0  0  0  0  0  0  0  0
   -0.5610   24.3670  -28.4770 C   0  0  0  0  0  0  0  0  0  0  0  0
    0.6360   24.1620  -28.8080 O   0  0  0  0  0  0  0  0  0  0  0  0
   -0.8820   24.9000  -27.2160 C   0  0  0  0  0  0  0  0  0  0  0  0
    0.2010   25.2570  -26.2250 C   0  0  0  0  0  0  0  0  0  0  0  0
   -2.2243   25.0946  -24.7812 H   0  0  0  0  0  0  0  0  0  0  0  0
   -2.3455   26.7311  -25.5119 H   0  0  0  0  0  0  0  0  0  0  0  0
   -3.7721   25.6396  -25.5119 H   0  0  0  0  0  0  0  0  0  0  0  0
   -4.2060   24.8960  -27.5960 H   0  0  0  0  0  0  0  0  0  0  0  0
   -5.2833   25.2109  -29.1341 H   0  0  0  0  0  0  0  0  0  0  0  0
   -5.1885   25.2982  -30.9246 H   0  0  0  0  0  0  0  0  0  0  0  0
   -6.3710   23.0558  -29.2111 H   0  0  0  0  0  0  0  0  0  0  0  0
   -7.2199   24.1309  -30.3948 H   0  0  0  0  0  0  0  0  0  0  0  0
   -8.6820   23.1178  -31.0543 H   0  0  0  0  0  0  0  0  0  0  0  0
  -10.5251   21.6288  -31.8276 H   0  0  0  0  0  0  0  0  0  0  0  0
  -10.0007   19.4379  -32.8988 H   0  0  0  0  0  0  0  0  0  0  0  0
   -7.6257   18.7311  -33.1982 H   0  0  0  0  0  0  0  0  0  0  0  0
   -5.7733   20.2125  -32.4305 H   0  0  0  0  0  0  0  0  0  0  0  0
   -4.6110   21.7087  -32.5049 H   0  0  0  0  0  0  0  0  0  0  0  0
   -4.7848   23.4967  -32.6991 H   0  0  0  0  0  0  0  0  0  0  0  0
   -3.3531   21.9471  -30.5022 H   0  0  0  0  0  0  0  0  0  0  0  0
   -2.7128   23.2292  -31.6170 H   0  0  0  0  0  0  0  0  0  0  0  0
   -0.1822   25.1307  -25.2017 H   0  0  0  0  0  0  0  0  0  0  0  0
    1.0681   24.5971  -26.3759 H   0  0  0  0  0  0  0  0  0  0  0  0
    0.5057   26.3031  -26.3759 H   0  0  0  0  0  0  0  0  0  0  0  0
  1  2  1  0
  2  3  1  0
  3  4  1  0
  4  5  1  0
  5  6  1  0
  6  7  1  0
  7  8  1  0
  8  9  1  0
  9 10  2  0
 10 11  1  0
 11 12  2  0
 12 13  1  0
 13 14  2  0
  8 15  1  0
 15 16  1  0
  4 17  2  0
 17 18  1  0
 18 19  2  0
 18 20  1  0
 20 21  1  0
 20  2  2  0
 16  5  1  0
 14  9  1  0
  1 22  1  0
  1 23  1  0
  1 24  1  0
  3 25  1  0
  6 26  1  0
  6 27  1  0
  7 28  1  0
  7 29  1  0
 10 30  1  0
 11 31  1  0
 12 32  1  0
 13 33  1  0
 14 34  1  0
 15 35  1  0
 15 36  1  0
 16 37  1  0
 16 38  1  0
 21 39  1  0
 21 40  1  0
 21 41  1  0
M  END
>  <UniqueID>  (21) 
19

>  <SMILES>  (21) 
Cc1[nH]c(N2CCN(c3ccccc3)CC2)nc(=O)c1C

>  <Energy>  (21) 
50.93003554221836

>  <Genealogy>  (21) 
Cc1[nH]c(N2CCN(c3ccccc3)CC2)nc(=O)c1C (3D coordinates assigned)
Cc1[nH]c(N2CCN(c3ccccc3)CC2)nc(=O)c1C (nonaromatic ring conformer: 50.93003554221836 kcal/mol)

>  <smiles>  (21) 
Cc1[nH]c(N2CCN(c3ccccc3)CC2)nc(=O)c1C

>  <score_type>  (21) 
oracle

>  <origin>  (21) 
adgpu

>  <m_score__min__energy>  (21) 
-7.8200000000000003

>  <m_primary>  (21) 
energy

$$$$
21:0
     RDKit          3D

 43 45  0  0  0  0  0  0  0  0999 V2000
   -9.8180   20.9360  -32.1390 C   0  0  0  0  0  0  0  0  0  0  0  0
   -8.5050   20.8920  -31.5880 O   0  0  0  0  0  0  0  0  0  0  0  0
   -7.7110   22.0210  -31.3440 C   0  0  0  0  0  0  0  0  0  0  0  0
   -7.1170   22.7660  -32.3800 C   0  0  0  0  0  0  0  0  0  0  0  0
   -6.3220   23.8780  -32.0850 C   0  0  0  0  0  0  0  0  0  0  0  0
   -6.1120   24.2720  -30.7510 C   0  0  0  0  0  0  0  0  0  0  0  0
   -5.2320   25.4180  -30.4330 C   0  0  0  0  0  0  0  0  0  0  0  0
   -5.7340   26.5270  -30.1020 O   0  0  0  0  0  0  0  0  0  0  0  0
   -3.8050   25.2790  -30.4860 N   0  0  0  0  0  0  0  0  0  0  0  0
   -3.0540   24.3390  -29.7020 C   0  0  0  0  0  0  0  0  0  0  0  0
   -2.4170   24.7900  -28.5390 C   0  0  0  0  0  0  0  0  0  0  0  0
   -1.6700   23.9100  -27.7560 C   0  0  0  0  0  0  0  0  0  0  0  0
   -1.5280   22.5760  -28.1430 C   0  0  0  0  0  0  0  0  0  0  0  0
   -2.1300   22.1200  -29.3200 C   0  0  0  0  0  0  0  0  0  0  0  0
   -2.9040   22.9930  -30.1070 C   0  0  0  0  0  0  0  0  0  0  0  0
   -3.4500   22.5840  -31.3690 N   0  0  0  0  0  0  0  0  0  0  0  0
   -2.8760   21.7220  -32.3560 C   0  0  0  0  0  0  0  0  0  0  0  0
   -1.6910   21.8830  -32.7510 O   0  0  0  0  0  0  0  0  0  0  0  0
   -3.6680   20.5900  -32.8520 C   0  0  0  0  0  0  0  0  0  0  0  0
   -3.2530   19.6330  -33.7730 C   0  0  0  0  0  0  0  0  0  0  0  0
   -4.2120   18.6380  -34.0040 C   0  0  0  0  0  0  0  0  0  0  0  0
   -5.3720   18.8200  -33.2650 C   0  0  0  0  0  0  0  0  0  0  0  0
   -6.8050   17.7490  -33.2830 S   0  0  0  0  0  0  0  0  0  0  0  0
   -7.2890   18.1770  -31.5820 C   0  0  0  0  0  0  0  0  0  0  0  0
   -5.2220   20.2040  -32.3260 S   0  0  0  0  0  0  0  0  0  0  0  0
   -6.7160   23.5280  -29.7210 C   0  0  0  0  0  0  0  0  0  0  0  0
   -7.5070   22.4160  -30.0180 C   0  0  0  0  0  0  0  0  0  0  0  0
  -10.5568   20.9608  -31.3244 H   0  0  0  0  0  0  0  0  0  0  0  0
   -9.9254   21.8382  -32.7590 H   0  0  0  0  0  0  0  0  0  0  0  0
   -9.9856   20.0430  -32.7590 H   0  0  0  0  0  0  0  0  0  0  0  0
   -7.2790   22.4719  -33.4275 H   0  0  0  0  0  0  0  0  0  0  0  0
   -5.8573   24.4490  -32.9023 H   0  0  0  0  0  0  0  0  0  0  0  0
   -2.5064   25.8451  -28.2412 H   0  0  0  0  0  0  0  0  0  0  0  0
   -1.1920   24.2676  -26.8321 H   0  0  0  0  0  0  0  0  0  0  0  0
   -0.9420   21.8830  -27.5214 H   0  0  0  0  0  0  0  0  0  0  0  0
   -1.9979   21.0736  -29.6323 H   0  0  0  0  0  0  0  0  0  0  0  0
   -2.2716   19.6554  -34.2693 H   0  0  0  0  0  0  0  0  0  0  0  0
   -4.0608   17.7992  -34.6994 H   0  0  0  0  0  0  0  0  0  0  0  0
   -6.6603   17.6210  -30.8710 H   0  0  0  0  0  0  0  0  0  0  0  0
   -7.1547   19.2572  -31.4234 H   0  0  0  0  0  0  0  0  0  0  0  0
   -8.3446   17.9116  -31.4234 H   0  0  0  0  0  0  0  0  0  0  0  0
   -6.5639   23.8247  -28.6727 H   0  0  0  0  0  0  0  0  0  0  0  0
   -7.9739   21.8456  -29.2015 H   0  0  0  0  0  0  0  0  0  0  0  0
  1  2  1  0
  2  3  1  0
  3  4  2  0
  4  5  1  0
  5  6  2  0
  6  7  1  0
  7  8  2  0
  7  9  1  0
  9 10  1  0
 10 11  2  0
 11 12  1  0
 12 13  2  0
 13 14  1  0
 14 15  2  0
 15 16  1  0
 16 17  1  0
 17 18  2  0
 17 19  1  0
 19 20  2  0
 20 21  1  0
 21 22  2  0
 22 23  1  0
 23 24  1  0
 22 25  1  0
  6 26  1  0
 26 27  2  0
 27  3  1  0
 15 10  1  0
 25 19  1  0
  1 28  1  0
  1 29  1  0
  1 30  1  0
  4 31  1  0
  5 32  1  0
 11 33  1  0
 12 34  1  0
 13 35  1  0
 14 36  1  0
 20 37  1  0
 21 38  1  0
 24 39  1  0
 24 40  1  0
 24 41  1  0
 26 42  1  0
 27 43  1  0
M  CHG  2   9  -1  16  -1
M  END
>  <UniqueID>  (22) 
20

>  <SMILES>  (22) 
COc1ccc(C(=O)[N-]c2ccccc2[N-]C(=O)c2ccc(SC)s2)cc1

>  <Energy>  (22) 
75.02743213963565

>  <Genealogy>  (22) 
COc1ccc(C(=O)[N-]c2ccccc2[N-]C(=O)c2ccc(SC)s2)cc1 (protonated)
COc1ccc(C(=O)[N-]c2ccccc2[N-]C(=O)c2ccc(SC)s2)cc1 (3D coordinates assigned)
COc1ccc(C(=O)[N-]c2ccccc2[N-]C(=O)c2ccc(SC)s2)cc1 (optimized conformer: 75.02743213963565 kcal/mol)

>  <smiles>  (22) 
COc1ccc(C(=O)Nc2ccccc2NC(=O)c2ccc(SC)s2)cc1

>  <score_type>  (22) 
oracle

>  <origin>  (22) 
adgpu

>  <m_score__min__energy>  (22) 
-10.57

>  <m_primary>  (22) 
energy

$$$$
22:0
     RDKit          3D

 70 74  0  0  0  0  0  0  0  0999 V2000
    2.4771   13.9330  -31.6658 H   0  0  0  0  0  0  0  0  0  0  0  0
    2.4340   14.8260  -31.0250 C   0  0  0  0  0  0  0  0  0  0  0  0
    3.1350   14.8530  -29.8210 C   0  0  0  0  0  0  0  0  0  0  0  0
    3.7387   13.9851  -29.5172 H   0  0  0  0  0  0  0  0  0  0  0  0
    3.0720   15.9800  -29.0000 C   0  0  0  0  0  0  0  0  0  0  0  0
    3.6299   15.9949  -28.0521 H   0  0  0  0  0  0  0  0  0  0  0  0
    2.3030   17.0960  -29.3720 C   0  0  0  0  0  0  0  0  0  0  0  0
    2.2040   18.4670  -28.2530 S   0  0  0  0  0  0  0  0  0  0  0  0
    3.0420   18.1780  -27.0390 O   0  0  0  0  0  0  0  0  0  0  0  0
    2.6960   19.7290  -28.9050 O   0  0  0  0  0  0  0  0  0  0  0  0
    0.5640   18.7150  -27.7520 N   0  0  0  0  0  0  0  0  0  0  0  0
   -0.0770   19.8150  -27.9980 C   0  0  0  0  0  0  0  0  0  0  0  0
    0.4210   20.8470  -28.6380 O   0  0  0  0  0  0  0  0  0  0  0  0
   -0.4640   21.7970  -28.7340 N   0  0  0  0  0  0  0  0  0  0  0  0
   -1.5840   21.3550  -28.1230 C   0  0  0  0  0  0  0  0  0  0  0  0
   -2.8520   22.1380  -28.0280 C   0  0  0  0  0  0  0  0  0  0  0  0
   -3.1072   22.2956  -26.9697 H   0  0  0  0  0  0  0  0  0  0  0  0
   -2.7195   23.1118  -28.5222 H   0  0  0  0  0  0  0  0  0  0  0  0
   -3.6633   21.5834  -28.5222 H   0  0  0  0  0  0  0  0  0  0  0  0
   -1.3760   20.0780  -27.6380 C   0  0  0  0  0  0  0  0  0  0  0  0
   -2.6000   18.9440  -26.7060 Br  0  0  0  0  0  0  0  0  0  0  0  0
    1.6140   17.0790  -30.6110 C   0  0  0  0  0  0  0  0  0  0  0  0
    0.8370   18.2360  -31.0960 C   0  0  0  0  0  0  0  0  0  0  0  0
    1.4140   19.1520  -31.9890 C   0  0  0  0  0  0  0  0  0  0  0  0
    2.4547   19.0151  -32.3178 H   0  0  0  0  0  0  0  0  0  0  0  0
    0.6720   20.2370  -32.4620 C   0  0  0  0  0  0  0  0  0  0  0  0
    1.1365   20.9586  -33.1501 H   0  0  0  0  0  0  0  0  0  0  0  0
   -0.6640   20.4120  -32.0640 C   0  0  0  0  0  0  0  0  0  0  0  0
   -1.4670   21.5790  -32.5810 C   0  0  0  0  0  0  0  0  0  0  0  0
   -1.0549   21.8985  -33.5496 H   0  0  0  0  0  0  0  0  0  0  0  0
   -1.4077   22.3976  -31.8486 H   0  0  0  0  0  0  0  0  0  0  0  0
   -2.8750   21.2100  -32.7570 N   0  0  0  0  0  0  0  0  0  0  0  0
   -3.4140   20.1780  -33.4540 C   0  0  0  0  0  0  0  0  0  0  0  0
   -2.6410   19.1300  -34.1980 C   0  0  0  0  0  0  0  0  0  0  0  0
   -1.5961   19.1409  -33.8544 H   0  0  0  0  0  0  0  0  0  0  0  0
   -2.6930   19.3516  -35.2742 H   0  0  0  0  0  0  0  0  0  0  0  0
   -3.2360   17.7370  -33.9540 C   0  0  0  0  0  0  0  0  0  0  0  0
   -3.4877   17.6431  -32.8873 H   0  0  0  0  0  0  0  0  0  0  0  0
   -2.4839   16.9948  -34.2597 H   0  0  0  0  0  0  0  0  0  0  0  0
   -4.5040   17.4840  -34.7830 C   0  0  0  0  0  0  0  0  0  0  0  0
   -4.2067   17.1573  -35.7904 H   0  0  0  0  0  0  0  0  0  0  0  0
   -5.0751   18.4237  -34.8126 H   0  0  0  0  0  0  0  0  0  0  0  0
   -5.4060   16.4140  -34.1680 C   0  0  0  0  0  0  0  0  0  0  0  0
   -5.3534   16.4764  -33.0710 H   0  0  0  0  0  0  0  0  0  0  0  0
   -6.4435   16.5767  -34.4952 H   0  0  0  0  0  0  0  0  0  0  0  0
   -5.0701   15.4190  -34.4952 H   0  0  0  0  0  0  0  0  0  0  0  0
   -4.7640   20.1790  -33.3810 N   0  0  0  0  0  0  0  0  0  0  0  0
   -5.0960   21.2290  -32.6470 N   0  0  0  0  0  0  0  0  0  0  0  0
   -6.4450   21.6190  -32.3420 C   0  0  0  0  0  0  0  0  0  0  0  0
   -6.7630   22.9870  -32.2900 C   0  0  0  0  0  0  0  0  0  0  0  0
   -5.9730   23.7364  -32.4456 H   0  0  0  0  0  0  0  0  0  0  0  0
   -8.0710   23.4030  -32.0430 C   0  0  0  0  0  0  0  0  0  0  0  0
   -8.3063   24.4766  -31.9981 H   0  0  0  0  0  0  0  0  0  0  0  0
   -9.0800   22.4620  -31.8530 C   0  0  0  0  0  0  0  0  0  0  0  0
  -10.1130   22.7939  -31.6718 H   0  0  0  0  0  0  0  0  0  0  0  0
   -8.7830   21.0970  -31.8920 C   0  0  0  0  0  0  0  0  0  0  0  0
   -9.5879   20.3605  -31.7512 H   0  0  0  0  0  0  0  0  0  0  0  0
   -7.4620   20.6540  -32.1100 C   0  0  0  0  0  0  0  0  0  0  0  0
   -7.1630   19.1670  -32.1110 C   0  0  0  0  0  0  0  0  0  0  0  0
   -6.9850   18.7120  -33.4050 F   0  0  0  0  0  0  0  0  0  0  0  0
   -8.2120   18.4840  -31.5230 F   0  0  0  0  0  0  0  0  0  0  0  0
   -6.0050   18.8860  -31.4040 F   0  0  0  0  0  0  0  0  0  0  0  0
   -3.9610   21.8560  -32.2900 C   0  0  0  0  0  0  0  0  0  0  0  0
   -3.9170   22.9050  -31.5910 O   0  0  0  0  0  0  0  0  0  0  0  0
   -1.2400   19.4910  -31.1740 C   0  0  0  0  0  0  0  0  0  0  0  0
   -2.2826   19.6230  -30.8491 H   0  0  0  0  0  0  0  0  0  0  0  0
   -0.4960   18.4080  -30.6990 C   0  0  0  0  0  0  0  0  0  0  0  0
   -0.9590   17.6865  -30.0097 H   0  0  0  0  0  0  0  0  0  0  0  0
    1.6770   15.9310  -31.4190 C   0  0  0  0  0  0  0  0  0  0  0  0
    1.1251   15.9027  -32.3701 H   0  0  0  0  0  0  0  0  0  0  0  0
  1  2  1  0
  2  3  2  0
  3  4  1  0
  3  5  1  0
  5  6  1  0
  5  7  2  0
  7  8  1  0
  8  9  2  0
  8 10  2  0
  8 11  1  0
 11 12  2  0
 12 13  1  0
 13 14  1  0
 14 15  1  0
 15 16  1  0
 16 17  1  0
 16 18  1  0
 16 19  1  0
 15 20  2  0
 20 21  1  0
  7 22  1  0
 22 23  1  0
 23 24  2  0
 24 25  1  0
 24 26  1  0
 26 27  1  0
 26 28  2  0
 28 29  1  0
 29 30  1  0
 29 31  1  0
 29 32  1  0
 32 33  1  0
 33 34  1  0
 34 35  1  0
 34 36  1  0
 34 37  1  0
 37 38  1  0
 37 39  1  0
 37 40  1  0
 40 41  1  0
 40 42  1  0
 40 43  1  0
 43 44  1  0
 43 45  1  0
 43 46  1  0
 33 47  2  0
 47 48  1  0
 48 49  1  0
 49 50  2  0
 50 51  1  0
 50 52  1  0
 52 53  1  0
 52 54  2  0
 54 55  1  0
 54 56  1  0
 56 57  1  0
 56 58  2  0
 58 59  1  0
 59 60  1  0
 59 61  1  0
 59 62  1  0
 48 63  1  0
 63 64  2  0
 28 65  1  0
 65 66  1  0
 65 67  2  0
 67 68  1  0
 22 69  2  0
 69 70  1  0
 69  2  1  0
 20 12  1  0
 67 23  1  0
 63 32  1  0
 58 49  1  0
M  CHG  1  14  -1
M  END
>  <UniqueID>  (23) 
21

>  <SMILES>  (23) 
CCCCc1nn(-c2ccccc2C(F)(F)F)c(=O)n1Cc1ccc(-c2ccccc2S(=O)(=O)/N=c2\o[n-]c(C)c2Br)cc1

>  <Energy>  (23) 
155.26826358183712

>  <Genealogy>  (23) 
CCCCc1nn(-c2ccccc2C(F)(F)F)c(=O)n1Cc1ccc(-c2ccccc2S(=O)(=O)N=c2o[n-]c(C)c2Br)cc1 (protonated)
CCCCc1nn(-c2ccccc2C(F)(F)F)c(=O)n1Cc1ccc(-c2ccccc2S(=O)(=O)/N=c2\o[n-]c(C)c2Br)cc1 (cis-trans isomerization)
CCCCc1nn(-c2ccccc2C(F)(F)F)c(=O)n1Cc1ccc(-c2ccccc2S(=O)(=O)/N=c2\o[n-]c(C)c2Br)cc1 (3D coordinates assigned)
CCCCc1nn(-c2ccccc2C(F)(F)F)c(=O)n1Cc1ccc(-c2ccccc2S(=O)(=O)/N=c2\o[n-]c(C)c2Br)cc1 (optimized conformer: 155.26826358183712 kcal/mol)

>  <smiles>  (23) 
CCCCc1nn(-c2ccccc2C(F)(F)F)c(=O)n1Cc1ccc(-c2ccccc2S(=O)(=O)N=c2o[nH]c(C)c2Br)cc1

>  <score_type>  (23) 
oracle

>  <origin>  (23) 
adgpu

>  <m_score__min__energy>  (23) 
-12.970000000000001

>  <m_primary>  (23) 
energy

$$$$
23:0
     RDKit          3D

 45 48  0  0  0  0  0  0  0  0999 V2000
   -2.5654   23.6134  -29.4437 H   0  0  0  0  0  0  0  0  0  0  0  0
   -3.4570   24.0450  -29.9220 C   0  0  0  0  0  0  0  0  0  0  0  0
   -3.5770   25.2880  -30.3390 O   0  0  0  0  0  0  0  0  0  0  0  0
   -4.7510   25.4880  -30.8610 N   0  0  0  0  0  0  0  0  0  0  0  0
   -5.0850   26.3930  -31.2620 H   0  0  0  0  0  0  0  0  0  0  0  0
   -5.4290   24.3320  -30.7830 C   0  0  0  0  0  0  0  0  0  0  0  0
   -6.6440   24.1890  -31.2180 N   0  0  0  0  0  0  0  0  0  0  0  0
   -7.5430   22.7080  -31.1300 S   0  0  0  0  0  0  0  0  0  0  0  0
   -8.9190   22.9090  -31.7030 O   0  0  0  0  0  0  0  0  0  0  0  0
   -7.6640   22.2680  -29.6970 O   0  0  0  0  0  0  0  0  0  0  0  0
   -6.6980   21.4740  -32.0550 C   0  0  0  0  0  0  0  0  0  0  0  0
   -5.5070   21.7850  -32.7230 C   0  0  0  0  0  0  0  0  0  0  0  0
   -5.0927   22.8020  -32.6592 H   0  0  0  0  0  0  0  0  0  0  0  0
   -4.8430   20.8090  -33.4700 C   0  0  0  0  0  0  0  0  0  0  0  0
   -3.9109   21.0633  -33.9958 H   0  0  0  0  0  0  0  0  0  0  0  0
   -5.3590   19.5030  -33.5540 C   0  0  0  0  0  0  0  0  0  0  0  0
   -4.7190   18.5090  -34.3120 O   0  0  0  0  0  0  0  0  0  0  0  0
   -4.0130   17.4130  -33.7900 C   0  0  0  0  0  0  0  0  0  0  0  0
   -4.5470   16.1140  -33.8500 C   0  0  0  0  0  0  0  0  0  0  0  0
   -5.5493   15.9545  -34.2741 H   0  0  0  0  0  0  0  0  0  0  0  0
   -3.8140   15.0250  -33.3750 C   0  0  0  0  0  0  0  0  0  0  0  0
   -4.2442   14.0135  -33.4157 H   0  0  0  0  0  0  0  0  0  0  0  0
   -2.5370   15.2180  -32.8490 C   0  0  0  0  0  0  0  0  0  0  0  0
   -1.9606   14.3582  -32.4769 H   0  0  0  0  0  0  0  0  0  0  0  0
   -1.9890   16.5010  -32.7940 C   0  0  0  0  0  0  0  0  0  0  0  0
   -0.9794   16.6461  -32.3822 H   0  0  0  0  0  0  0  0  0  0  0  0
   -2.7180   17.6090  -33.2610 C   0  0  0  0  0  0  0  0  0  0  0  0
   -2.1210   18.9640  -33.1820 C   0  0  0  0  0  0  0  0  0  0  0  0
   -1.4770   19.5230  -34.3000 C   0  0  0  0  0  0  0  0  0  0  0  0
   -1.4189   18.9536  -35.2393 H   0  0  0  0  0  0  0  0  0  0  0  0
   -0.9100   20.7990  -34.2240 C   0  0  0  0  0  0  0  0  0  0  0  0
   -0.4110   21.2312  -35.1039 H   0  0  0  0  0  0  0  0  0  0  0  0
   -0.9760   21.5260  -33.0330 C   0  0  0  0  0  0  0  0  0  0  0  0
   -0.5320   22.5308  -32.9768 H   0  0  0  0  0  0  0  0  0  0  0  0
   -1.6060   20.9770  -31.9130 C   0  0  0  0  0  0  0  0  0  0  0  0
   -1.6546   21.5492  -30.9748 H   0  0  0  0  0  0  0  0  0  0  0  0
   -2.1750   19.7010  -31.9830 C   0  0  0  0  0  0  0  0  0  0  0  0
   -2.6667   19.2714  -31.0978 H   0  0  0  0  0  0  0  0  0  0  0  0
   -6.5690   19.2010  -32.9070 C   0  0  0  0  0  0  0  0  0  0  0  0
   -7.1370   17.8800  -33.0030 C   0  0  0  0  0  0  0  0  0  0  0  0
   -7.5920   16.8180  -33.0800 N   0  0  0  0  0  0  0  0  0  0  0  0
   -7.2320   20.1830  -32.1590 C   0  0  0  0  0  0  0  0  0  0  0  0
   -8.1766   19.9390  -31.6509 H   0  0  0  0  0  0  0  0  0  0  0  0
   -4.6360   23.3710  -30.1840 C   0  0  0  0  0  0  0  0  0  0  0  0
   -4.8835   22.3213  -29.9675 H   0  0  0  0  0  0  0  0  0  0  0  0
  1  2  1  0
  2  3  1  0
  3  4  1  0
  4  5  1  0
  4  6  1  0
  6  7  2  0
  7  8  1  0
  8  9  2  0
  8 10  2  0
  8 11  1  0
 11 12  2  0
 12 13  1  0
 12 14  1  0
 14 15  1  0
 14 16  2  0
 16 17  1  0
 17 18  1  0
 18 19  2  0
 19 20  1  0
 19 21  1  0
 21 22  1  0
 21 23  2  0
 23 24  1  0
 23 25  1  0
 25 26  1  0
 25 27  2  0
 27 28  1  0
 28 29  2  0
 29 30  1  0
 29 31  1  0
 31 32  1  0
 31 33  2  0
 33 34  1  0
 33 35  1  0
 35 36  1  0
 35 37  2  0
 37 38  1  0
 16 39  1  0
 39 40  1  0
 40 41  3  0
 39 42  2  0
 42 43  1  0
  6 44  1  0
 44 45  1  0
 44  2  2  0
 42 11  1  0
 27 18  1  0
 37 28  1  0
M  END
>  <UniqueID>  (24) 
22

>  <SMILES>  (24) 
N#Cc1cc(S(=O)(=O)/N=c2\cco[nH]2)ccc1Oc1ccccc1-c1ccccc1

>  <Energy>  (24) 
97.78309918767954

>  <Genealogy>  (24) 
N#Cc1cc(S(=O)(=O)/N=c2\cco[nH]2)ccc1Oc1ccccc1-c1ccccc1 (cis-trans isomerization)
N#Cc1cc(S(=O)(=O)/N=c2\cco[nH]2)ccc1Oc1ccccc1-c1ccccc1 (3D coordinates assigned)
N#Cc1cc(S(=O)(=O)/N=c2\cco[nH]2)ccc1Oc1ccccc1-c1ccccc1 (optimized conformer: 97.78309918767954 kcal/mol)

>  <smiles>  (24) 
N#Cc1cc(S(=O)(=O)N=c2cco[nH]2)ccc1Oc1ccccc1-c1ccccc1

>  <score_type>  (24) 
oracle

>  <origin>  (24) 
adgpu

>  <m_score__min__energy>  (24) 
-10.06

>  <m_primary>  (24) 
energy

$$$$
24:0
     RDKit          3D

 53 56  0  0  0  0  0  0  0  0999 V2000
   -9.0990   18.7470  -31.9590 C   0  0  0  0  0  0  0  0  0  0  0  0
   -8.2720   20.0050  -32.0190 C   0  0  0  0  0  0  0  0  0  0  0  0
   -8.9290   21.2340  -31.8590 C   0  0  0  0  0  0  0  0  0  0  0  0
   -8.2270   22.4340  -31.9140 C   0  0  0  0  0  0  0  0  0  0  0  0
   -6.8410   22.4400  -32.1280 C   0  0  0  0  0  0  0  0  0  0  0  0
   -6.1050   23.6770  -32.1880 N   0  0  0  0  0  0  0  0  0  0  0  0
   -5.4620   24.4740  -30.7870 S   0  0  0  0  0  0  0  0  0  0  0  0
   -4.6650   25.6730  -31.2190 O   0  0  0  0  0  0  0  0  0  0  0  0
   -6.5990   24.9280  -29.9140 O   0  0  0  0  0  0  0  0  0  0  0  0
   -4.4000   23.3790  -29.9080 C   0  0  0  0  0  0  0  0  0  0  0  0
   -4.6180   23.1170  -28.5370 C   0  0  0  0  0  0  0  0  0  0  0  0
   -3.7870   22.2240  -27.8390 C   0  0  0  0  0  0  0  0  0  0  0  0
   -2.7420   21.6030  -28.5250 C   0  0  0  0  0  0  0  0  0  0  0  0
   -1.8760   20.7190  -27.9680 N   0  0  0  0  0  0  0  0  0  0  0  0
   -0.9710   20.2790  -28.8760 C   0  0  0  0  0  0  0  0  0  0  0  0
   -1.2190   20.9750  -30.4010 S   0  0  0  0  0  0  0  0  0  0  0  0
   -2.5320   21.8690  -29.8670 C   0  0  0  0  0  0  0  0  0  0  0  0
   -3.3360   22.7510  -30.5830 C   0  0  0  0  0  0  0  0  0  0  0  0
   -6.1680   21.2170  -32.2880 C   0  0  0  0  0  0  0  0  0  0  0  0
   -4.7960   21.2230  -32.5200 O   0  0  0  0  0  0  0  0  0  0  0  0
   -6.8640   19.9900  -32.2140 C   0  0  0  0  0  0  0  0  0  0  0  0
   -5.9320   18.4830  -32.4100 S   0  0  0  0  0  0  0  0  0  0  0  0
   -4.4720   18.8030  -32.2520 O   0  0  0  0  0  0  0  0  0  0  0  0
   -6.2830   17.4730  -31.3540 O   0  0  0  0  0  0  0  0  0  0  0  0
   -6.1950   17.8040  -34.0610 C   0  0  0  0  0  0  0  0  0  0  0  0
   -6.8320   16.3930  -34.0380 C   0  0  0  0  0  0  0  0  0  0  0  0
   -5.8000   15.2560  -34.1360 C   0  0  0  0  0  0  0  0  0  0  0  0
   -4.5030   15.6890  -33.5930 N   0  0  0  0  0  0  0  0  0  0  0  0
   -3.5940   14.5420  -33.4510 C   0  0  0  0  0  0  0  0  0  0  0  0
   -3.8890   16.7250  -34.4530 C   0  0  0  0  0  0  0  0  0  0  0  0
   -4.8980   17.8140  -34.8880 C   0  0  0  0  0  0  0  0  0  0  0  0
   -9.2776   18.4754  -30.9081 H   0  0  0  0  0  0  0  0  0  0  0  0
  -10.0621   18.9170  -32.4625 H   0  0  0  0  0  0  0  0  0  0  0  0
   -8.5611   17.9302  -32.4625 H   0  0  0  0  0  0  0  0  0  0  0  0
  -10.0154   21.2493  -31.6875 H   0  0  0  0  0  0  0  0  0  0  0  0
   -8.7636   23.3860  -31.7886 H   0  0  0  0  0  0  0  0  0  0  0  0
   -5.8280   24.0690  -33.1160 H   0  0  0  0  0  0  0  0  0  0  0  0
   -5.4453   23.6162  -28.0113 H   0  0  0  0  0  0  0  0  0  0  0  0
   -3.9570   22.0183  -26.7719 H   0  0  0  0  0  0  0  0  0  0  0  0
   -0.1721   19.5573  -28.6503 H   0  0  0  0  0  0  0  0  0  0  0  0
   -3.1453   22.9520  -31.6475 H   0  0  0  0  0  0  0  0  0  0  0  0
   -6.9205   18.4680  -34.5537 H   0  0  0  0  0  0  0  0  0  0  0  0
   -7.3900   16.2775  -33.0971 H   0  0  0  0  0  0  0  0  0  0  0  0
   -7.4848   16.3165  -34.9201 H   0  0  0  0  0  0  0  0  0  0  0  0
   -6.1610   14.3891  -33.5632 H   0  0  0  0  0  0  0  0  0  0  0  0
   -5.6698   14.9840  -35.1939 H   0  0  0  0  0  0  0  0  0  0  0  0
   -3.4295   14.3345  -32.3833 H   0  0  0  0  0  0  0  0  0  0  0  0
   -4.0401   13.6589  -33.9317 H   0  0  0  0  0  0  0  0  0  0  0  0
   -2.6323   14.7746  -33.9317 H   0  0  0  0  0  0  0  0  0  0  0  0
   -3.0710   17.2053  -33.8961 H   0  0  0  0  0  0  0  0  0  0  0  0
   -3.5237   16.2275  -35.3635 H   0  0  0  0  0  0  0  0  0  0  0  0
   -4.4198   18.7983  -34.7762 H   0  0  0  0  0  0  0  0  0  0  0  0
   -5.1745   17.6049  -35.9319 H   0  0  0  0  0  0  0  0  0  0  0  0
  1  2  1  0
  2  3  2  0
  3  4  1  0
  4  5  2  0
  5  6  1  0
  6  7  1  0
  7  8  2  0
  7  9  2  0
  7 10  1  0
 10 11  2  0
 11 12  1  0
 12 13  2  0
 13 14  1  0
 14 15  2  0
 15 16  1  0
 16 17  1  0
 17 18  2  0
  5 19  1  0
 19 20  1  0
 19 21  2  0
 21 22  1  0
 22 23  2  0
 22 24  2  0
 22 25  1  0
 25 26  1  0
 26 27  1  0
 27 28  1  0
 28 29  1  0
 28 30  1  0
 30 31  1  0
 21  2  1  0
 31 25  1  0
 18 10  1  0
 17 13  1  0
  1 32  1  0
  1 33  1  0
  1 34  1  0
  3 35  1  0
  4 36  1  0
  6 37  1  0
 11 38  1  0
 12 39  1  0
 15 40  1  0
 18 41  1  0
 25 42  1  0
 26 43  1  0
 26 44  1  0
 27 45  1  0
 27 46  1  0
 29 47  1  0
 29 48  1  0
 29 49  1  0
 30 50  1  0
 30 51  1  0
 31 52  1  0
 31 53  1  0
M  CHG  1  20  -1
M  END
>  <UniqueID>  (25) 
23

>  <SMILES>  (25) 
Cc1ccc(NS(=O)(=O)c2ccc3ncsc3c2)c([O-])c1S(=O)(=O)C1CCN(C)CC1

>  <Energy>  (25) 
101.37581557237858

>  <Genealogy>  (25) 
Cc1ccc(NS(=O)(=O)c2ccc3ncsc3c2)c([O-])c1S(=O)(=O)C1CCN(C)CC1 (protonated)
Cc1ccc(NS(=O)(=O)c2ccc3ncsc3c2)c([O-])c1S(=O)(=O)C1CCN(C)CC1 (3D coordinates assigned)
Cc1ccc(NS(=O)(=O)c2ccc3ncsc3c2)c([O-])c1S(=O)(=O)C1CCN(C)CC1 (nonaromatic ring conformer: 101.37581557237858 kcal/mol)

>  <smiles>  (25) 
Cc1ccc(NS(=O)(=O)c2ccc3ncsc3c2)c(O)c1S(=O)(=O)C1CCN(C)CC1

>  <score_type>  (25) 
oracle

>  <origin>  (25) 
adgpu

>  <m_score__min__energy>  (25) 
-14.359999999999999

>  <m_primary>  (25) 
energy

$$$$
25:0
     RDKit          3D

 32 34  0  0  0  0  0  0  0  0999 V2000
  -10.2830   18.8920  -33.0370 H   0  0  0  0  0  0  0  0  0  0  0  0
   -9.7520   19.7440  -32.7510 N   0  0  0  0  0  0  0  0  0  0  0  0
   -8.4650   19.7280  -32.6300 C   0  0  0  0  0  0  0  0  0  0  0  0
   -7.8090   20.8550  -32.2570 N   0  0  0  0  0  0  0  0  0  0  0  0
   -6.4540   20.8790  -32.1190 C   0  0  0  0  0  0  0  0  0  0  0  0
   -5.7890   22.1370  -31.6950 C   0  0  0  0  0  0  0  0  0  0  0  0
   -4.4320   22.1230  -31.3230 C   0  0  0  0  0  0  0  0  0  0  0  0
   -3.8683   21.1789  -31.3528 H   0  0  0  0  0  0  0  0  0  0  0  0
   -3.7940   23.2980  -30.9160 C   0  0  0  0  0  0  0  0  0  0  0  0
   -2.7307   23.2759  -30.6351 H   0  0  0  0  0  0  0  0  0  0  0  0
   -4.5030   24.5000  -30.8650 C   0  0  0  0  0  0  0  0  0  0  0  0
   -3.8660   25.6670  -30.4610 O   0  0  0  0  0  0  0  0  0  0  0  0
   -5.8540   24.5270  -31.2190 C   0  0  0  0  0  0  0  0  0  0  0  0
   -6.4136   25.4730  -31.1751 H   0  0  0  0  0  0  0  0  0  0  0  0
   -6.4970   23.3550  -31.6290 C   0  0  0  0  0  0  0  0  0  0  0  0
   -7.5622   23.3832  -31.9019 H   0  0  0  0  0  0  0  0  0  0  0  0
   -5.7260   19.7030  -32.3600 C   0  0  0  0  0  0  0  0  0  0  0  0
   -4.6329   19.6891  -32.2382 H   0  0  0  0  0  0  0  0  0  0  0  0
   -6.4130   18.5440  -32.7590 C   0  0  0  0  0  0  0  0  0  0  0  0
   -5.7010   17.2680  -33.0290 C   0  0  0  0  0  0  0  0  0  0  0  0
   -5.1800   17.0160  -34.3120 C   0  0  0  0  0  0  0  0  0  0  0  0
   -5.3059   17.7638  -35.1089 H   0  0  0  0  0  0  0  0  0  0  0  0
   -4.5040   15.8230  -34.5810 C   0  0  0  0  0  0  0  0  0  0  0  0
   -4.1069   15.6331  -35.5891 H   0  0  0  0  0  0  0  0  0  0  0  0
   -4.3310   14.8710  -33.5740 C   0  0  0  0  0  0  0  0  0  0  0  0
   -3.8018   13.9315  -33.7915 H   0  0  0  0  0  0  0  0  0  0  0  0
   -4.8290   15.1100  -32.2910 C   0  0  0  0  0  0  0  0  0  0  0  0
   -4.6390   14.1570  -31.2930 O   0  0  0  0  0  0  0  0  0  0  0  0
   -5.2220   14.1330  -30.4650 H   0  0  0  0  0  0  0  0  0  0  0  0
   -5.5100   16.3050  -32.0170 C   0  0  0  0  0  0  0  0  0  0  0  0
   -5.8981   16.4924  -31.0049 H   0  0  0  0  0  0  0  0  0  0  0  0
   -7.7670   18.5880  -32.8780 N   0  0  0  0  0  0  0  0  0  0  0  0
  1  2  1  0
  2  3  2  0
  3  4  1  0
  4  5  2  0
  5  6  1  0
  6  7  2  0
  7  8  1  0
  7  9  1  0
  9 10  1  0
  9 11  2  0
 11 12  1  0
 11 13  1  0
 13 14  1  0
 13 15  2  0
 15 16  1  0
  5 17  1  0
 17 18  1  0
 17 19  2  0
 19 20  1  0
 20 21  2  0
 21 22  1  0
 21 23  1  0
 23 24  1  0
 23 25  2  0
 25 26  1  0
 25 27  1  0
 27 28  1  0
 28 29  1  0
 27 30  2  0
 30 31  1  0
 19 32  1  0
 32  3  1  0
 15  6  1  0
 30 20  1  0
M  CHG  2  12  -1  32  -1
M  END
>  <UniqueID>  (26) 
24

>  <SMILES>  (26) 
[H]/N=c1/nc(-c2ccc([O-])cc2)cc(-c2cccc(O)c2)[n-]1

>  <Energy>  (26) 
43.08368850657323

>  <Genealogy>  (26) 
N=c1nc(-c2ccc([O-])cc2)cc(-c2cccc(O)c2)[n-]1 (protonated)
[H]/N=c1/nc(-c2ccc([O-])cc2)cc(-c2cccc(O)c2)[n-]1 (cis-trans isomerization)
[H]/N=c1/nc(-c2ccc([O-])cc2)cc(-c2cccc(O)c2)[n-]1 (3D coordinates assigned)
[H]/N=c1/nc(-c2ccc([O-])cc2)cc(-c2cccc(O)c2)[n-]1 (optimized conformer: 43.08368850657323 kcal/mol)

>  <smiles>  (26) 
N=c1nc(-c2ccc(O)cc2)cc(-c2cccc(O)c2)[nH]1

>  <score_type>  (26) 
oracle

>  <origin>  (26) 
adgpu

>  <m_score__min__energy>  (26) 
-10.34

>  <m_primary>  (26) 
energy

$$$$
26:0
     RDKit          3D

 50 52  0  0  0  0  0  0  0  0999 V2000
   -3.0300   23.3040  -28.6510 C   0  0  0  0  0  0  0  0  0  0  0  0
   -2.7710   24.5520  -29.4290 C   0  0  0  0  0  0  0  0  0  0  0  0
   -1.8180   25.3080  -29.0940 O   0  0  0  0  0  0  0  0  0  0  0  0
   -3.6710   24.9260  -30.4780 N   0  0  0  0  0  0  0  0  0  0  0  0
   -4.9100   24.2810  -30.8070 C   0  0  0  0  0  0  0  0  0  0  0  0
   -6.0110   24.4690  -29.9630 C   0  0  0  0  0  0  0  0  0  0  0  0
   -7.2280   23.8400  -30.2360 C   0  0  0  0  0  0  0  0  0  0  0  0
   -7.3540   23.0030  -31.3510 C   0  0  0  0  0  0  0  0  0  0  0  0
   -8.9030   22.2400  -31.6960 S   0  0  0  0  0  0  0  0  0  0  0  0
   -9.5790   21.7890  -30.4310 O   0  0  0  0  0  0  0  0  0  0  0  0
   -9.7860   23.2350  -32.3970 O   0  0  0  0  0  0  0  0  0  0  0  0
   -8.6500   20.8730  -32.7310 N   0  0  0  0  0  0  0  0  0  0  0  0
   -7.7370   19.8040  -32.4600 C   0  0  0  0  0  0  0  0  0  0  0  0
   -8.0610   18.7470  -31.5940 C   0  0  0  0  0  0  0  0  0  0  0  0
   -7.1190   17.7530  -31.3150 C   0  0  0  0  0  0  0  0  0  0  0  0
   -5.8470   17.8090  -31.8910 C   0  0  0  0  0  0  0  0  0  0  0  0
   -5.5190   18.8510  -32.7660 C   0  0  0  0  0  0  0  0  0  0  0  0
   -3.8940   18.9610  -33.4410 S   0  0  0  0  0  0  0  0  0  0  0  0
   -3.0110   17.9770  -32.7230 O   0  0  0  0  0  0  0  0  0  0  0  0
   -3.9390   18.5800  -34.8950 O   0  0  0  0  0  0  0  0  0  0  0  0
   -3.2560   20.5780  -33.2200 N   0  0  0  0  0  0  0  0  0  0  0  0
   -1.9690   20.8020  -33.9140 C   0  0  0  0  0  0  0  0  0  0  0  0
   -0.7810   20.1660  -33.1820 C   0  0  0  0  0  0  0  0  0  0  0  0
   -0.7190   20.6610  -31.7370 C   0  0  0  0  0  0  0  0  0  0  0  0
   -2.0450   20.4030  -31.0190 C   0  0  0  0  0  0  0  0  0  0  0  0
   -3.2280   20.9950  -31.8040 C   0  0  0  0  0  0  0  0  0  0  0  0
   -6.4700   19.8390  -33.0560 C   0  0  0  0  0  0  0  0  0  0  0  0
   -6.2480   22.7880  -32.1830 C   0  0  0  0  0  0  0  0  0  0  0  0
   -5.0310   23.4190  -31.9130 C   0  0  0  0  0  0  0  0  0  0  0  0
   -2.9838   23.5266  -27.5748 H   0  0  0  0  0  0  0  0  0  0  0  0
   -4.0279   22.9155  -28.9026 H   0  0  0  0  0  0  0  0  0  0  0  0
   -2.2691   22.5505  -28.9026 H   0  0  0  0  0  0  0  0  0  0  0  0
   -5.9171   25.1165  -29.0787 H   0  0  0  0  0  0  0  0  0  0  0  0
   -8.0902   24.0029  -29.5726 H   0  0  0  0  0  0  0  0  0  0  0  0
   -9.0591   18.7013  -31.1339 H   0  0  0  0  0  0  0  0  0  0  0  0
   -7.3795   16.9243  -30.6402 H   0  0  0  0  0  0  0  0  0  0  0  0
   -5.1029   17.0335  -31.6565 H   0  0  0  0  0  0  0  0  0  0  0  0
   -2.0334   20.3682  -34.9228 H   0  0  0  0  0  0  0  0  0  0  0  0
   -1.7950   21.8876  -33.9472 H   0  0  0  0  0  0  0  0  0  0  0  0
   -0.8963   19.0721  -33.1858 H   0  0  0  0  0  0  0  0  0  0  0  0
    0.1488   20.4497  -33.6967 H   0  0  0  0  0  0  0  0  0  0  0  0
    0.0869   20.1311  -31.2082 H   0  0  0  0  0  0  0  0  0  0  0  0
   -0.5249   21.7437  -31.7424 H   0  0  0  0  0  0  0  0  0  0  0  0
   -2.1911   19.3178  -30.9145 H   0  0  0  0  0  0  0  0  0  0  0  0
   -2.0059   20.8863  -30.0317 H   0  0  0  0  0  0  0  0  0  0  0  0
   -4.1630   20.6686  -31.3253 H   0  0  0  0  0  0  0  0  0  0  0  0
   -3.1146   22.0890  -31.7886 H   0  0  0  0  0  0  0  0  0  0  0  0
   -6.2192   20.6484  -33.7574 H   0  0  0  0  0  0  0  0  0  0  0  0
   -6.3378   22.1199  -33.0522 H   0  0  0  0  0  0  0  0  0  0  0  0
   -4.1645   23.2415  -32.5670 H   0  0  0  0  0  0  0  0  0  0  0  0
  1  2  1  0
  2  3  2  0
  2  4  1  0
  4  5  1  0
  5  6  2  0
  6  7  1  0
  7  8  2  0
  8  9  1  0
  9 10  2  0
  9 11  2  0
  9 12  1  0
 12 13  1  0
 13 14  2  0
 14 15  1  0
 15 16  2  0
 16 17  1  0
 17 18  1  0
 18 19  2  0
 18 20  2  0
 18 21  1  0
 21 22  1  0
 22 23  1  0
 23 24  1  0
 24 25  1  0
 25 26  1  0
 17 27  2  0
  8 28  1  0
 28 29  2  0
 29  5  1  0
 27 13  1  0
 26 21  1  0
  1 30  1  0
  1 31  1  0
  1 32  1  0
  6 33  1  0
  7 34  1  0
 14 35  1  0
 15 36  1  0
 16 37  1  0
 22 38  1  0
 22 39  1  0
 23 40  1  0
 23 41  1  0
 24 42  1  0
 24 43  1  0
 25 44  1  0
 25 45  1  0
 26 46  1  0
 26 47  1  0
 27 48  1  0
 28 49  1  0
 29 50  1  0
M  CHG  2   4  -1  12  -1
M  END
>  <UniqueID>  (27) 
25

>  <SMILES>  (27) 
CC(=O)[N-]c1ccc(S(=O)(=O)[N-]c2cccc(S(=O)(=O)N3CCCCC3)c2)cc1

>  <Energy>  (27) 
55.26671841744981

>  <Genealogy>  (27) 
CC(=O)[N-]c1ccc(S(=O)(=O)[N-]c2cccc(S(=O)(=O)N3CCCCC3)c2)cc1 (protonated)
CC(=O)[N-]c1ccc(S(=O)(=O)[N-]c2cccc(S(=O)(=O)N3CCCCC3)c2)cc1 (3D coordinates assigned)
CC(=O)[N-]c1ccc(S(=O)(=O)[N-]c2cccc(S(=O)(=O)N3CCCCC3)c2)cc1 (nonaromatic ring conformer: 55.26671841744981 kcal/mol)

>  <smiles>  (27) 
CC(=O)Nc1ccc(S(=O)(=O)Nc2cccc(S(=O)(=O)N3CCCCC3)c2)cc1

>  <score_type>  (27) 
oracle

>  <origin>  (27) 
adgpu

>  <m_score__min__energy>  (27) 
-11.550000000000001

>  <m_primary>  (27) 
energy

$$$$
27:0
     RDKit          3D

 29 30  0  0  0  0  0  0  0  0999 V2000
   -2.8160   21.7440  -32.7650 N   0  0  0  0  0  0  0  0  0  0  0  0
   -3.6870   22.4940  -32.1710 C   0  0  0  0  0  0  0  0  0  0  0  0
   -4.9470   22.5100  -32.6450 N   0  0  0  0  0  0  0  0  0  0  0  0
   -5.8480   23.2890  -32.0270 C   0  0  0  0  0  0  0  0  0  0  0  0
   -7.1600   23.3410  -32.4760 O   0  0  0  0  0  0  0  0  0  0  0  0
   -8.1980   22.5750  -31.9150 C   0  0  0  0  0  0  0  0  0  0  0  0
   -8.0270   21.1130  -32.0950 C   0  0  0  0  0  0  0  0  0  0  0  0
   -8.8780   20.2870  -31.3530 C   0  0  0  0  0  0  0  0  0  0  0  0
   -8.7210   18.9180  -31.5190 C   0  0  0  0  0  0  0  0  0  0  0  0
   -7.7770   18.3820  -32.3700 C   0  0  0  0  0  0  0  0  0  0  0  0
   -6.9470   19.2170  -33.0910 C   0  0  0  0  0  0  0  0  0  0  0  0
   -5.7410   18.5150  -34.1790 Cl  0  0  0  0  0  0  0  0  0  0  0  0
   -7.0900   20.5590  -32.9400 C   0  0  0  0  0  0  0  0  0  0  0  0
   -5.4550   24.0470  -30.9310 C   0  0  0  0  0  0  0  0  0  0  0  0
   -6.3870   24.8660  -30.2780 N   0  0  0  0  0  0  0  0  0  0  0  0
   -6.0980   26.0000  -29.8780 O   0  0  0  0  0  0  0  0  0  0  0  0
   -4.1580   24.0040  -30.4770 C   0  0  0  0  0  0  0  0  0  0  0  0
   -3.7200   24.6750  -29.4720 N   0  0  0  0  0  0  0  0  0  0  0  0
   -3.2800   23.2130  -31.1180 N   0  0  0  0  0  0  0  0  0  0  0  0
   -3.0380   21.1580  -33.5800 H   0  0  0  0  0  0  0  0  0  0  0  0
   -5.1740   21.9180  -33.4690 H   0  0  0  0  0  0  0  0  0  0  0  0
   -8.2432   22.7888  -30.8369 H   0  0  0  0  0  0  0  0  0  0  0  0
   -9.1233   22.8564  -32.4390 H   0  0  0  0  0  0  0  0  0  0  0  0
   -9.6347   20.7023  -30.6712 H   0  0  0  0  0  0  0  0  0  0  0  0
   -9.3722   18.2365  -30.9520 H   0  0  0  0  0  0  0  0  0  0  0  0
   -7.6856   17.2907  -32.4740 H   0  0  0  0  0  0  0  0  0  0  0  0
   -6.4330   21.2291  -33.5139 H   0  0  0  0  0  0  0  0  0  0  0  0
   -4.3080   25.3210  -28.8980 H   0  0  0  0  0  0  0  0  0  0  0  0
   -2.2960   23.1650  -30.7940 H   0  0  0  0  0  0  0  0  0  0  0  0
  1  2  2  3
  2  3  1  0
  3  4  1  0
  4  5  1  0
  5  6  1  0
  6  7  1  0
  7  8  2  0
  8  9  1  0
  9 10  2  0
 10 11  1  0
 11 12  1  0
 11 13  2  0
  4 14  2  0
 14 15  1  0
 15 16  2  0
 14 17  1  0
 17 18  2  3
 17 19  1  0
 19  2  1  0
 13  7  1  0
  1 20  1  0
  3 21  1  0
  6 22  1  0
  6 23  1  0
  8 24  1  0
  9 25  1  0
 10 26  1  0
 13 27  1  0
 18 28  1  0
 19 29  1  0
M  END
>  <smiles>  (28) 
N=c1[nH]c(OCc2cccc(Cl)c2)c(N=O)c(=N)[nH]1

>  <score_type>  (28) 
oracle

>  <origin>  (28) 
adgpu

>  <m_score__min__energy>  (28) 
-7.4299999999999997

>  <m_primary>  (28) 
energy

$$$$
28:0
     RDKit          3D

 42 44  0  0  0  0  0  0  0  0999 V2000
   -9.4990   19.7440  -32.7170 C   0  0  0  0  0  0  0  0  0  0  0  0
   -8.2650   20.5260  -32.5590 N   0  0  0  0  0  0  0  0  0  0  0  0
   -7.2240   19.7060  -31.9130 C   0  0  0  0  0  0  0  0  0  0  0  0
   -6.6630   18.7170  -32.8860 C   0  0  0  0  0  0  0  0  0  0  0  0
   -6.6700   17.3440  -32.7400 C   0  0  0  0  0  0  0  0  0  0  0  0
   -6.0620   16.8490  -33.8720 C   0  0  0  0  0  0  0  0  0  0  0  0
   -5.7270   17.9470  -34.6390 C   0  0  0  0  0  0  0  0  0  0  0  0
   -6.1000   19.0460  -34.0250 O   0  0  0  0  0  0  0  0  0  0  0  0
   -8.6100   21.9460  -31.5960 S   0  0  0  0  0  0  0  0  0  0  0  0
   -9.5640   22.8480  -32.3300 O   0  0  0  0  0  0  0  0  0  0  0  0
   -9.2370   21.5490  -30.2880 O   0  0  0  0  0  0  0  0  0  0  0  0
   -7.1110   22.8060  -31.2510 C   0  0  0  0  0  0  0  0  0  0  0  0
   -5.9380   22.4440  -31.9240 C   0  0  0  0  0  0  0  0  0  0  0  0
   -4.7430   23.1260  -31.6720 C   0  0  0  0  0  0  0  0  0  0  0  0
   -4.7100   24.1700  -30.7310 C   0  0  0  0  0  0  0  0  0  0  0  0
   -3.5040   24.8990  -30.4570 N   0  0  0  0  0  0  0  0  0  0  0  0
   -2.5190   24.5660  -29.4680 C   0  0  0  0  0  0  0  0  0  0  0  0
   -1.8310   25.4950  -28.9690 O   0  0  0  0  0  0  0  0  0  0  0  0
   -2.3280   23.1790  -28.9840 C   0  0  0  0  0  0  0  0  0  0  0  0
   -1.2080   22.4250  -29.3740 C   0  0  0  0  0  0  0  0  0  0  0  0
   -1.0580   21.1190  -28.9040 C   0  0  0  0  0  0  0  0  0  0  0  0
   -1.9950   20.5760  -28.0850 N   0  0  0  0  0  0  0  0  0  0  0  0
   -3.0960   21.2750  -27.7010 C   0  0  0  0  0  0  0  0  0  0  0  0
   -3.2850   22.5840  -28.1470 C   0  0  0  0  0  0  0  0  0  0  0  0
   -5.8920   24.5470  -30.0820 C   0  0  0  0  0  0  0  0  0  0  0  0
   -7.0860   23.8660  -30.3350 C   0  0  0  0  0  0  0  0  0  0  0  0
   -9.9011   19.4892  -31.7253 H   0  0  0  0  0  0  0  0  0  0  0  0
  -10.2406   20.3374  -33.2720 H   0  0  0  0  0  0  0  0  0  0  0  0
   -9.2791   18.8201  -33.2720 H   0  0  0  0  0  0  0  0  0  0  0  0
   -6.4161   20.3612  -31.5552 H   0  0  0  0  0  0  0  0  0  0  0  0
   -7.6706   19.1621  -31.0676 H   0  0  0  0  0  0  0  0  0  0  0  0
   -7.0761   16.7667  -31.8963 H   0  0  0  0  0  0  0  0  0  0  0  0
   -5.8799   15.7920  -34.1160 H   0  0  0  0  0  0  0  0  0  0  0  0
   -5.2239   17.9071  -35.6164 H   0  0  0  0  0  0  0  0  0  0  0  0
   -5.9561   21.6207  -32.6532 H   0  0  0  0  0  0  0  0  0  0  0  0
   -3.8266   22.8447  -32.2116 H   0  0  0  0  0  0  0  0  0  0  0  0
   -0.4540   22.8613  -30.0456 H   0  0  0  0  0  0  0  0  0  0  0  0
   -0.1780   20.5281  -29.1981 H   0  0  0  0  0  0  0  0  0  0  0  0
   -3.8391   20.8082  -27.0377 H   0  0  0  0  0  0  0  0  0  0  0  0
   -4.1801   23.1470  -27.8439 H   0  0  0  0  0  0  0  0  0  0  0  0
   -5.8808   25.3843  -29.3687 H   0  0  0  0  0  0  0  0  0  0  0  0
   -8.0081   24.1628  -29.8139 H   0  0  0  0  0  0  0  0  0  0  0  0
  1  2  1  0
  2  3  1  0
  3  4  1  0
  4  5  2  0
  5  6  1  0
  6  7  2  0
  7  8  1  0
  2  9  1  0
  9 10  2  0
  9 11  2  0
  9 12  1  0
 12 13  2  0
 13 14  1  0
 14 15  2  0
 15 16  1  0
 16 17  1  0
 17 18  2  0
 17 19  1  0
 19 20  2  0
 20 21  1  0
 21 22  2  0
 22 23  1  0
 23 24  2  0
 15 25  1  0
 25 26  2  0
  8  4  1  0
 26 12  1  0
 24 19  1  0
  1 27  1  0
  1 28  1  0
  1 29  1  0
  3 30  1  0
  3 31  1  0
  5 32  1  0
  6 33  1  0
  7 34  1  0
 13 35  1  0
 14 36  1  0
 20 37  1  0
 21 38  1  0
 23 39  1  0
 24 40  1  0
 25 41  1  0
 26 42  1  0
M  CHG  1  16  -1
M  END
>  <UniqueID>  (29) 
26

>  <SMILES>  (29) 
CN(Cc1ccco1)S(=O)(=O)c1ccc([N-]C(=O)c2ccncc2)cc1

>  <Energy>  (29) 
76.19690440290489

>  <Genealogy>  (29) 
CN(Cc1ccco1)S(=O)(=O)c1ccc([N-]C(=O)c2ccncc2)cc1 (protonated)
CN(Cc1ccco1)S(=O)(=O)c1ccc([N-]C(=O)c2ccncc2)cc1 (3D coordinates assigned)
CN(Cc1ccco1)S(=O)(=O)c1ccc([N-]C(=O)c2ccncc2)cc1 (optimized conformer: 76.19690440290489 kcal/mol)

>  <smiles>  (29) 
CN(Cc1ccco1)S(=O)(=O)c1ccc(NC(=O)c2ccncc2)cc1

>  <score_type>  (29) 
oracle

>  <origin>  (29) 
adgpu

>  <m_score__min__energy>  (29) 
-10.6

>  <m_primary>  (29) 
energy

$$$$
29:0
     RDKit          3D

 43 45  0  0  0  0  0  0  0  0999 V2000
   -7.0090   18.2820  -33.0570 C   0  0  0  0  0  0  0  0  0  0  0  0
   -5.5590   17.8330  -32.9120 C   0  0  0  0  0  0  0  0  0  0  0  0
   -4.7110   18.1350  -34.1530 C   0  0  0  0  0  0  0  0  0  0  0  0
   -4.2490   19.4870  -34.1470 O   0  0  0  0  0  0  0  0  0  0  0  0
   -2.9780   19.9430  -33.7510 C   0  0  0  0  0  0  0  0  0  0  0  0
   -1.7910   19.3270  -34.1970 C   0  0  0  0  0  0  0  0  0  0  0  0
   -0.5500   19.8230  -33.8040 C   0  0  0  0  0  0  0  0  0  0  0  0
   -0.4930   20.9350  -32.9690 C   0  0  0  0  0  0  0  0  0  0  0  0
   -1.6390   21.5230  -32.5430 N   0  0  0  0  0  0  0  0  0  0  0  0
   -2.8750   21.0700  -32.8990 C   0  0  0  0  0  0  0  0  0  0  0  0
   -4.0740   21.7700  -32.3590 C   0  0  0  0  0  0  0  0  0  0  0  0
   -5.3680   21.2810  -32.6120 C   0  0  0  0  0  0  0  0  0  0  0  0
   -6.4790   21.9590  -32.1060 C   0  0  0  0  0  0  0  0  0  0  0  0
   -6.3030   23.1240  -31.3520 C   0  0  0  0  0  0  0  0  0  0  0  0
   -7.3990   23.8240  -30.8300 C   0  0  0  0  0  0  0  0  0  0  0  0
   -7.1920   24.9830  -30.0780 C   0  0  0  0  0  0  0  0  0  0  0  0
   -5.8950   25.4500  -29.8430 C   0  0  0  0  0  0  0  0  0  0  0  0
   -4.7820   24.7600  -30.3630 C   0  0  0  0  0  0  0  0  0  0  0  0
   -3.4640   25.1950  -30.1480 O   0  0  0  0  0  0  0  0  0  0  0  0
   -2.5290   24.5430  -29.2930 C   0  0  0  0  0  0  0  0  0  0  0  0
   -3.2420   24.0360  -28.0500 C   0  0  0  0  0  0  0  0  0  0  0  0
   -4.9930   23.5940  -31.1180 C   0  0  0  0  0  0  0  0  0  0  0  0
   -3.9330   22.9110  -31.6260 N   0  0  0  0  0  0  0  0  0  0  0  0
   -7.4519   18.4191  -32.0595 H   0  0  0  0  0  0  0  0  0  0  0  0
   -7.0449   19.2333  -33.6081 H   0  0  0  0  0  0  0  0  0  0  0  0
   -7.5762   17.5174  -33.6081 H   0  0  0  0  0  0  0  0  0  0  0  0
   -5.1158   18.3527  -32.0497 H   0  0  0  0  0  0  0  0  0  0  0  0
   -5.5648   16.7415  -32.7753 H   0  0  0  0  0  0  0  0  0  0  0  0
   -3.8431   17.4594  -34.1675 H   0  0  0  0  0  0  0  0  0  0  0  0
   -5.3351   17.9843  -35.0462 H   0  0  0  0  0  0  0  0  0  0  0  0
   -1.8450   18.4500  -34.8588 H   0  0  0  0  0  0  0  0  0  0  0  0
    0.3759   19.3405  -34.1503 H   0  0  0  0  0  0  0  0  0  0  0  0
    0.4813   21.3372  -32.6544 H   0  0  0  0  0  0  0  0  0  0  0  0
   -5.5048   20.3662  -33.2073 H   0  0  0  0  0  0  0  0  0  0  0  0
   -7.4921   21.5771  -32.3003 H   0  0  0  0  0  0  0  0  0  0  0  0
   -8.4214   23.4612  -31.0122 H   0  0  0  0  0  0  0  0  0  0  0  0
   -8.0535   25.5310  -29.6687 H   0  0  0  0  0  0  0  0  0  0  0  0
   -5.7426   26.3625  -29.2480 H   0  0  0  0  0  0  0  0  0  0  0  0
   -2.0750   23.6947  -29.8262 H   0  0  0  0  0  0  0  0  0  0  0  0
   -1.7443   25.2556  -28.9989 H   0  0  0  0  0  0  0  0  0  0  0  0
   -2.7228   24.4052  -27.1532 H   0  0  0  0  0  0  0  0  0  0  0  0
   -4.2801   24.3999  -28.0486 H   0  0  0  0  0  0  0  0  0  0  0  0
   -3.2391   22.9360  -28.0486 H   0  0  0  0  0  0  0  0  0  0  0  0
  1  2  1  0
  2  3  1  0
  3  4  1  0
  4  5  1  0
  5  6  2  0
  6  7  1  0
  7  8  2  0
  8  9  1  0
  9 10  2  0
 10 11  1  0
 11 12  2  0
 12 13  1  0
 13 14  2  0
 14 15  1  0
 15 16  2  0
 16 17  1  0
 17 18  2  0
 18 19  1  0
 19 20  1  0
 20 21  1  0
 18 22  1  0
 22 23  2  0
 10  5  1  0
 23 11  1  0
 22 14  1  0
  1 24  1  0
  1 25  1  0
  1 26  1  0
  2 27  1  0
  2 28  1  0
  3 29  1  0
  3 30  1  0
  6 31  1  0
  7 32  1  0
  8 33  1  0
 12 34  1  0
 13 35  1  0
 15 36  1  0
 16 37  1  0
 17 38  1  0
 20 39  1  0
 20 40  1  0
 21 41  1  0
 21 42  1  0
 21 43  1  0
M  END
>  <UniqueID>  (30) 
27

>  <SMILES>  (30) 
CCCOc1cccnc1-c1ccc2cccc(OCC)c2n1

>  <Energy>  (30) 
44.95551790819784

>  <Genealogy>  (30) 
CCCOc1cccnc1-c1ccc2cccc(OCC)c2n1 (3D coordinates assigned)
CCCOc1cccnc1-c1ccc2cccc(OCC)c2n1 (optimized conformer: 44.95551790819784 kcal/mol)

>  <smiles>  (30) 
CCCOc1cccnc1-c1ccc2cccc(OCC)c2n1

>  <score_type>  (30) 
oracle

>  <origin>  (30) 
adgpu

>  <m_score__min__energy>  (30) 
-7.7599999999999998

>  <m_primary>  (30) 
energy

$$$$
30:0
     RDKit          3D

 65 69  0  0  0  0  0  0  0  0999 V2000
   -5.4100   26.0480  -30.4390 C   0  0  0  0  0  0  0  0  0  0  0  0
   -4.4680   25.0920  -31.0060 N   0  0  0  0  0  0  0  0  0  0  0  0
   -4.6790   23.6840  -31.1900 C   0  0  0  0  0  0  0  0  0  0  0  0
   -3.6730   22.9270  -31.1330 O   0  0  0  0  0  0  0  0  0  0  0  0
   -6.0170   23.0870  -31.4480 C   0  0  0  0  0  0  0  0  0  0  0  0
   -6.1410   21.7170  -31.7410 C   0  0  0  0  0  0  0  0  0  0  0  0
   -7.4060   21.1750  -32.0250 C   0  0  0  0  0  0  0  0  0  0  0  0
   -7.5840   19.8160  -32.3230 O   0  0  0  0  0  0  0  0  0  0  0  0
   -6.6180   18.9750  -32.8950 C   0  0  0  0  0  0  0  0  0  0  0  0
   -6.1280   19.2900  -34.1670 C   0  0  0  0  0  0  0  0  0  0  0  0
   -5.1560   18.4880  -34.7720 C   0  0  0  0  0  0  0  0  0  0  0  0
   -4.6680   17.3510  -34.1130 C   0  0  0  0  0  0  0  0  0  0  0  0
   -3.6520   16.5510  -34.7390 N   0  0  0  0  0  0  0  0  0  0  0  0
   -2.2650   16.6150  -34.3650 C   0  0  0  0  0  0  0  0  0  0  0  0
   -1.9520   17.0960  -33.2440 O   0  0  0  0  0  0  0  0  0  0  0  0
   -1.2110   16.0700  -35.2550 C   0  0  0  0  0  0  0  0  0  0  0  0
   -1.2120   14.7860  -35.7000 N   0  0  0  0  0  0  0  0  0  0  0  0
   -0.0910   14.6350  -36.4230 C   0  0  0  0  0  0  0  0  0  0  0  0
    0.3510   13.4790  -37.0610 C   0  0  0  0  0  0  0  0  0  0  0  0
    1.5760   13.5520  -37.7470 C   0  0  0  0  0  0  0  0  0  0  0  0
    2.2910   14.7200  -37.7650 N   0  0  0  0  0  0  0  0  0  0  0  0
    1.8490   15.8500  -37.1350 C   0  0  0  0  0  0  0  0  0  0  0  0
    0.6310   15.7930  -36.4580 C   0  0  0  0  0  0  0  0  0  0  0  0
   -0.0650   16.7380  -35.7280 C   0  0  0  0  0  0  0  0  0  0  0  0
    0.4360   18.4210  -35.5130 S   0  0  0  0  0  0  0  0  0  0  0  0
    0.4040   19.1690  -36.8170 O   0  0  0  0  0  0  0  0  0  0  0  0
    1.8530   18.4330  -35.0140 O   0  0  0  0  0  0  0  0  0  0  0  0
   -0.5930   19.1980  -34.3360 N   0  0  0  0  0  0  0  0  0  0  0  0
   -0.8440   20.5930  -34.7140 C   0  0  0  0  0  0  0  0  0  0  0  0
   -1.9090   21.2060  -33.7850 C   0  0  0  0  0  0  0  0  0  0  0  0
   -1.9330   20.5980  -32.4330 N   0  0  0  0  0  0  0  0  0  0  0  0
   -2.9580   19.5450  -32.3090 C   0  0  0  0  0  0  0  0  0  0  0  0
   -0.6000   20.1270  -32.0050 C   0  0  0  0  0  0  0  0  0  0  0  0
    0.0220   19.1180  -32.9970 C   0  0  0  0  0  0  0  0  0  0  0  0
   -5.1310   17.0520  -32.8210 C   0  0  0  0  0  0  0  0  0  0  0  0
   -6.0930   17.8620  -32.2090 C   0  0  0  0  0  0  0  0  0  0  0  0
   -6.4650   17.5930  -30.9340 F   0  0  0  0  0  0  0  0  0  0  0  0
   -8.5310   22.0010  -31.9710 C   0  0  0  0  0  0  0  0  0  0  0  0
   -8.3750   23.3560  -31.6760 C   0  0  0  0  0  0  0  0  0  0  0  0
   -7.1370   23.8610  -31.4310 N   0  0  0  0  0  0  0  0  0  0  0  0
   -5.3638   26.0011  -29.3410 H   0  0  0  0  0  0  0  0  0  0  0  0
   -5.1490   27.0627  -30.7740 H   0  0  0  0  0  0  0  0  0  0  0  0
   -6.4285   25.8020  -30.7740 H   0  0  0  0  0  0  0  0  0  0  0  0
   -5.2503   21.0716  -31.7478 H   0  0  0  0  0  0  0  0  0  0  0  0
   -6.5106   20.1758  -34.6952 H   0  0  0  0  0  0  0  0  0  0  0  0
   -4.7725   18.7501  -35.7691 H   0  0  0  0  0  0  0  0  0  0  0  0
   -3.9660   15.8340  -35.4290 H   0  0  0  0  0  0  0  0  0  0  0  0
   -1.9110   14.0370  -35.5040 H   0  0  0  0  0  0  0  0  0  0  0  0
   -0.2337   12.5478  -37.0296 H   0  0  0  0  0  0  0  0  0  0  0  0
    1.9624   12.6661  -38.2722 H   0  0  0  0  0  0  0  0  0  0  0  0
    2.4379   16.7787  -37.1614 H   0  0  0  0  0  0  0  0  0  0  0  0
    0.0898   21.1678  -34.6271 H   0  0  0  0  0  0  0  0  0  0  0  0
   -1.2070   20.6266  -35.7518 H   0  0  0  0  0  0  0  0  0  0  0  0
   -1.7024   22.2813  -33.6799 H   0  0  0  0  0  0  0  0  0  0  0  0
   -2.8897   21.0134  -34.2445 H   0  0  0  0  0  0  0  0  0  0  0  0
   -3.1520   19.3457  -31.2447 H   0  0  0  0  0  0  0  0  0  0  0  0
   -3.8868   19.8784  -32.7949 H   0  0  0  0  0  0  0  0  0  0  0  0
   -2.5997   18.6255  -32.7949 H   0  0  0  0  0  0  0  0  0  0  0  0
    0.0697   20.9955  -31.9199 H   0  0  0  0  0  0  0  0  0  0  0  0
   -0.7229   19.6126  -31.0405 H   0  0  0  0  0  0  0  0  0  0  0  0
    1.0977   19.3291  -33.0885 H   0  0  0  0  0  0  0  0  0  0  0  0
   -0.1566   18.1061  -32.6044 H   0  0  0  0  0  0  0  0  0  0  0  0
   -4.7346   16.1756  -32.2874 H   0  0  0  0  0  0  0  0  0  0  0  0
   -9.5324   21.5866  -32.1596 H   0  0  0  0  0  0  0  0  0  0  0  0
   -9.2544   24.0159  -31.6417 H   0  0  0  0  0  0  0  0  0  0  0  0
  1  2  1  0
  2  3  1  0
  3  4  2  0
  3  5  1  0
  5  6  2  0
  6  7  1  0
  7  8  1  0
  8  9  1  0
  9 10  2  0
 10 11  1  0
 11 12  2  0
 12 13  1  0
 13 14  1  0
 14 15  2  0
 14 16  1  0
 16 17  1  0
 17 18  1  0
 18 19  2  0
 19 20  1  0
 20 21  2  0
 21 22  1  0
 22 23  2  0
 23 24  1  0
 24 25  1  0
 25 26  2  0
 25 27  2  0
 25 28  1  0
 28 29  1  0
 29 30  1  0
 30 31  1  0
 31 32  1  0
 31 33  1  0
 33 34  1  0
 12 35  1  0
 35 36  2  0
 36 37  1  0
  7 38  2  0
 38 39  1  0
 39 40  2  0
 40  5  1  0
 36  9  1  0
 24 16  2  0
 34 28  1  0
 23 18  1  0
  1 41  1  0
  1 42  1  0
  1 43  1  0
  6 44  1  0
 10 45  1  0
 11 46  1  0
 13 47  1  0
 17 48  1  0
 19 49  1  0
 20 50  1  0
 22 51  1  0
 29 52  1  0
 29 53  1  0
 30 54  1  0
 30 55  1  0
 32 56  1  0
 32 57  1  0
 32 58  1  0
 33 59  1  0
 33 60  1  0
 34 61  1  0
 34 62  1  0
 35 63  1  0
 38 64  1  0
 39 65  1  0
M  CHG  1   2  -1
M  END
>  <UniqueID>  (31) 
28

>  <SMILES>  (31) 
C[N-]C(=O)c1cc(Oc2ccc(NC(=O)c3[nH]c4ccncc4c3S(=O)(=O)N3CCN(C)CC3)cc2F)ccn1

>  <Energy>  (31) 
130.1978136341104

>  <Genealogy>  (31) 
C[N-]C(=O)c1cc(Oc2ccc(NC(=O)c3[nH]c4ccncc4c3S(=O)(=O)N3CCN(C)CC3)cc2F)ccn1 (protonated)
C[N-]C(=O)c1cc(Oc2ccc(NC(=O)c3[nH]c4ccncc4c3S(=O)(=O)N3CCN(C)CC3)cc2F)ccn1 (3D coordinates assigned)
C[N-]C(=O)c1cc(Oc2ccc(NC(=O)c3[nH]c4ccncc4c3S(=O)(=O)N3CCN(C)CC3)cc2F)ccn1 (nonaromatic ring conformer: 130.1978136341104 kcal/mol)

>  <smiles>  (31) 
CNC(=O)c1cc(Oc2ccc(NC(=O)c3[nH]c4ccncc4c3S(=O)(=O)N3CCN(C)CC3)cc2F)ccn1

>  <score_type>  (31) 
oracle

>  <origin>  (31) 
adgpu

>  <m_score__min__energy>  (31) 
-10.390000000000001

>  <m_primary>  (31) 
energy

$$$$
31:0
     RDKit          3D

 53 57  0  0  0  0  0  0  0  0999 V2000
   -4.2030   25.1360  -30.4360 O   0  0  0  0  0  0  0  0  0  0  0  0
   -3.1940   24.5290  -29.9870 C   0  0  0  0  0  0  0  0  0  0  0  0
   -2.3080   25.2120  -29.2150 N   0  0  0  0  0  0  0  0  0  0  0  0
   -1.2070   24.6280  -28.6690 C   0  0  0  0  0  0  0  0  0  0  0  0
   -0.3290   25.4120  -27.8340 N   0  0  0  0  0  0  0  0  0  0  0  0
   -0.7950   26.6840  -27.2510 C   0  0  0  0  0  0  0  0  0  0  0  0
    0.3670   27.5700  -26.7430 C   0  0  0  0  0  0  0  0  0  0  0  0
    1.6320   27.0920  -27.1530 O   0  0  0  0  0  0  0  0  0  0  0  0
    1.8170   25.7930  -26.6420 C   0  0  0  0  0  0  0  0  0  0  0  0
    0.9460   24.8070  -27.4170 C   0  0  0  0  0  0  0  0  0  0  0  0
   -0.9760   23.2630  -28.9000 C   0  0  0  0  0  0  0  0  0  0  0  0
   -1.8430   22.5330  -29.7180 C   0  0  0  0  0  0  0  0  0  0  0  0
   -1.5170   21.1690  -30.0100 N   0  0  0  0  0  0  0  0  0  0  0  0
   -1.6490   20.1240  -28.9870 C   0  0  2  0  0  0  0  0  0  0  0  0
   -2.6270   20.5650  -27.8670 C   0  0  0  0  0  0  0  0  0  0  0  0
   -2.3190   19.8830  -26.5190 C   0  0  0  0  0  0  0  0  0  0  0  0
   -1.6300   18.5260  -26.7240 C   0  0  0  0  0  0  0  0  0  0  0  0
   -0.3430   18.6480  -27.4440 N   0  0  0  0  0  0  0  0  0  0  0  0
   -0.2700   19.7770  -28.3940 C   0  0  0  0  0  0  0  0  0  0  0  0
   -2.9950   23.1570  -30.2550 C   0  0  0  0  0  0  0  0  0  0  0  0
   -4.0130   22.3910  -31.0160 C   0  0  0  0  0  0  0  0  0  0  0  0
   -3.7020   21.3610  -31.8480 N   0  0  0  0  0  0  0  0  0  0  0  0
   -4.8120   20.8650  -32.4540 C   0  0  0  0  0  0  0  0  0  0  0  0
   -4.8070   19.8000  -33.3600 C   0  0  0  0  0  0  0  0  0  0  0  0
   -6.0300   19.3860  -33.9180 C   0  0  0  0  0  0  0  0  0  0  0  0
   -7.2360   20.0360  -33.5690 C   0  0  0  0  0  0  0  0  0  0  0  0
   -7.2290   21.1060  -32.6590 C   0  0  0  0  0  0  0  0  0  0  0  0
   -6.0020   21.4960  -32.1200 C   0  0  0  0  0  0  0  0  0  0  0  0
   -5.6810   22.7310  -31.0330 S   0  0  0  0  0  0  0  0  0  0  0  0
   -1.3514   27.2403  -28.0197 H   0  0  0  0  0  0  0  0  0  0  0  0
   -1.4291   26.4400  -26.3859 H   0  0  0  0  0  0  0  0  0  0  0  0
    0.2310   28.5888  -27.1349 H   0  0  0  0  0  0  0  0  0  0  0  0
    0.3439   27.5529  -25.6434 H   0  0  0  0  0  0  0  0  0  0  0  0
    2.8741   25.5066  -26.7449 H   0  0  0  0  0  0  0  0  0  0  0  0
    1.5315   25.7750  -25.5799 H   0  0  0  0  0  0  0  0  0  0  0  0
    1.4929   24.4770  -28.3126 H   0  0  0  0  0  0  0  0  0  0  0  0
    0.7203   23.9579  -26.7551 H   0  0  0  0  0  0  0  0  0  0  0  0
   -0.1108   22.7666  -28.4363 H   0  0  0  0  0  0  0  0  0  0  0  0
   -1.5040   20.8840  -31.0120 H   0  0  0  0  0  0  0  0  0  0  0  0
   -2.0626   19.2243  -29.4660 H   0  0  0  0  0  0  0  0  0  0  0  0
   -2.5490   21.6546  -27.7381 H   0  0  0  0  0  0  0  0  0  0  0  0
   -3.6418   20.2679  -28.1703 H   0  0  0  0  0  0  0  0  0  0  0  0
   -1.6572   20.5354  -25.9304 H   0  0  0  0  0  0  0  0  0  0  0  0
   -3.2690   19.7135  -25.9910 H   0  0  0  0  0  0  0  0  0  0  0  0
   -1.4420   18.0733  -25.7393 H   0  0  0  0  0  0  0  0  0  0  0  0
   -2.2974   17.9008  -27.3352 H   0  0  0  0  0  0  0  0  0  0  0  0
    0.4360   18.7470  -26.7430 H   0  0  0  0  0  0  0  0  0  0  0  0
    0.1220   20.6594  -27.8671 H   0  0  0  0  0  0  0  0  0  0  0  0
    0.3908   19.4813  -29.2222 H   0  0  0  0  0  0  0  0  0  0  0  0
   -3.8670   19.2968  -33.6305 H   0  0  0  0  0  0  0  0  0  0  0  0
   -6.0482   18.5494  -34.6320 H   0  0  0  0  0  0  0  0  0  0  0  0
   -8.1854   19.7018  -34.0127 H   0  0  0  0  0  0  0  0  0  0  0  0
   -8.1606   21.6201  -32.3801 H   0  0  0  0  0  0  0  0  0  0  0  0
  1  2  2  0
  2  3  1  0
  3  4  1  0
  4  5  1  0
  5  6  1  0
  6  7  1  0
  7  8  1  0
  8  9  1  0
  9 10  1  0
  4 11  2  0
 11 12  1  0
 12 13  1  0
 13 14  1  0
 14 15  1  0
 15 16  1  0
 16 17  1  0
 17 18  1  0
 18 19  1  0
 12 20  2  0
 20 21  1  0
 21 22  2  0
 22 23  1  0
 23 24  2  0
 24 25  1  0
 25 26  2  0
 26 27  1  0
 27 28  2  0
 28 29  1  0
 20  2  1  0
 29 21  1  0
 10  5  1  0
 19 14  1  0
 28 23  1  0
  6 30  1  0
  6 31  1  0
  7 32  1  0
  7 33  1  0
  9 34  1  0
  9 35  1  0
 10 36  1  0
 10 37  1  0
 11 38  1  0
 13 39  1  0
 14 40  1  6
 15 41  1  0
 15 42  1  0
 16 43  1  0
 16 44  1  0
 17 45  1  0
 17 46  1  0
 18 47  1  0
 19 48  1  0
 19 49  1  0
 24 50  1  0
 25 51  1  0
 26 52  1  0
 27 53  1  0
M  CHG  1   3  -1
M  END
>  <UniqueID>  (32) 
29

>  <SMILES>  (32) 
O=c1[n-]c(N2CCOCC2)cc(N[C@@H]2CCCNC2)c1-c1nc2ccccc2s1

>  <Energy>  (32) 
116.70626662081962

>  <Genealogy>  (32) 
O=c1[n-]c(N2CCOCC2)cc(NC2CCCNC2)c1-c1nc2ccccc2s1 (protonated)
O=c1[n-]c(N2CCOCC2)cc(N[C@@H]2CCCNC2)c1-c1nc2ccccc2s1 (chirality)
O=c1[n-]c(N2CCOCC2)cc(N[C@@H]2CCCNC2)c1-c1nc2ccccc2s1 (3D coordinates assigned)
O=c1[n-]c(N2CCOCC2)cc(N[C@@H]2CCCNC2)c1-c1nc2ccccc2s1 (nonaromatic ring conformer: 116.70626662081962 kcal/mol)

>  <smiles>  (32) 
O=c1[nH]c(N2CCOCC2)cc(NC2CCCNC2)c1-c1nc2ccccc2s1

>  <score_type>  (32) 
oracle

>  <origin>  (32) 
adgpu

>  <m_score__min__energy>  (32) 
-10.23

>  <m_primary>  (32) 
energy

$$$$
32:0
     RDKit          3D

 41 43  0  0  0  0  0  0  0  0999 V2000
   -3.9960   17.5760  -34.6140 C   0  0  0  0  0  0  0  0  0  0  0  0
   -5.2710   17.4560  -35.2060 O   0  0  0  0  0  0  0  0  0  0  0  0
   -6.1880   16.8970  -34.2850 C   0  0  0  0  0  0  0  0  0  0  0  0
   -6.7070   17.9530  -33.3620 C   0  0  0  0  0  0  0  0  0  0  0  0
   -7.5990   17.7160  -32.3840 N   0  0  0  0  0  0  0  0  0  0  0  0
   -7.7740   18.8630  -31.7520 N   0  0  0  0  0  0  0  0  0  0  0  0
   -6.9740   19.7680  -32.3510 C   0  0  0  0  0  0  0  0  0  0  0  0
   -6.8950   21.1930  -31.9330 C   0  0  0  0  0  0  0  0  0  0  0  0
   -5.6190   21.7610  -31.7560 C   0  0  0  0  0  0  0  0  0  0  0  0
   -5.4690   23.1060  -31.3880 C   0  0  0  0  0  0  0  0  0  0  0  0
   -4.1750   23.7090  -31.2450 N   0  0  0  0  0  0  0  0  0  0  0  0
   -3.8620   24.8620  -30.4510 C   0  0  0  0  0  0  0  0  0  0  0  0
   -4.6290   25.8570  -30.4920 O   0  0  0  0  0  0  0  0  0  0  0  0
   -2.7000   24.9160  -29.6100 N   0  0  0  0  0  0  0  0  0  0  0  0
   -2.2760   23.8970  -28.6920 C   0  0  0  0  0  0  0  0  0  0  0  0
   -2.7430   22.5750  -28.8050 C   0  0  0  0  0  0  0  0  0  0  0  0
   -2.3340   21.6030  -27.8890 C   0  0  0  0  0  0  0  0  0  0  0  0
   -1.4450   21.9350  -26.8640 C   0  0  0  0  0  0  0  0  0  0  0  0
   -0.9550   23.2400  -26.7600 C   0  0  0  0  0  0  0  0  0  0  0  0
   -1.3600   24.2190  -27.6750 C   0  0  0  0  0  0  0  0  0  0  0  0
   -0.7370   25.8550  -27.5110 Cl  0  0  0  0  0  0  0  0  0  0  0  0
   -6.6030   23.8760  -31.1270 C   0  0  0  0  0  0  0  0  0  0  0  0
   -7.8760   23.3330  -31.2920 C   0  0  0  0  0  0  0  0  0  0  0  0
   -8.0440   22.0040  -31.7170 C   0  0  0  0  0  0  0  0  0  0  0  0
   -9.4440   21.4930  -31.9310 C   0  0  0  0  0  0  0  0  0  0  0  0
   -6.2830   19.2310  -33.3770 N   0  0  0  0  0  0  0  0  0  0  0  0
   -4.0979   17.5664  -33.5188 H   0  0  0  0  0  0  0  0  0  0  0  0
   -3.3638   16.7334  -34.9308 H   0  0  0  0  0  0  0  0  0  0  0  0
   -3.5322   18.5218  -34.9308 H   0  0  0  0  0  0  0  0  0  0  0  0
   -7.0294   16.4515  -34.8360 H   0  0  0  0  0  0  0  0  0  0  0  0
   -5.6742   16.1256  -33.6926 H   0  0  0  0  0  0  0  0  0  0  0  0
   -4.7245   21.1393  -31.9089 H   0  0  0  0  0  0  0  0  0  0  0  0
   -3.4331   22.3055  -29.6181 H   0  0  0  0  0  0  0  0  0  0  0  0
   -2.7128   20.5739  -27.9750 H   0  0  0  0  0  0  0  0  0  0  0  0
   -1.1306   21.1698  -26.1390 H   0  0  0  0  0  0  0  0  0  0  0  0
   -0.2491   23.4984  -25.9569 H   0  0  0  0  0  0  0  0  0  0  0  0
   -6.4917   24.9169  -30.7893 H   0  0  0  0  0  0  0  0  0  0  0  0
   -8.7611   23.9530  -31.0868 H   0  0  0  0  0  0  0  0  0  0  0  0
   -9.9234   21.3180  -30.9566 H   0  0  0  0  0  0  0  0  0  0  0  0
  -10.0237   22.2375  -32.4964 H   0  0  0  0  0  0  0  0  0  0  0  0
   -9.4078   20.5501  -32.4964 H   0  0  0  0  0  0  0  0  0  0  0  0
  1  2  1  0
  2  3  1  0
  3  4  1  0
  4  5  2  0
  5  6  1  0
  6  7  1  0
  7  8  1  0
  8  9  2  0
  9 10  1  0
 10 11  1  0
 11 12  1  0
 12 13  2  0
 12 14  1  0
 14 15  1  0
 15 16  2  0
 16 17  1  0
 17 18  2  0
 18 19  1  0
 19 20  2  0
 20 21  1  0
 10 22  2  0
 22 23  1  0
 23 24  2  0
 24 25  1  0
  7 26  2  0
 26  4  1  0
 24  8  1  0
 20 15  1  0
  1 27  1  0
  1 28  1  0
  1 29  1  0
  3 30  1  0
  3 31  1  0
  9 32  1  0
 16 33  1  0
 17 34  1  0
 18 35  1  0
 19 36  1  0
 22 37  1  0
 23 38  1  0
 25 39  1  0
 25 40  1  0
 25 41  1  0
M  CHG  3   6  -1  11  -1  14  -1
M  END
>  <UniqueID>  (33) 
30

>  <SMILES>  (33) 
COCc1n[n-]c(-c2cc([N-]C(=O)[N-]c3ccccc3Cl)ccc2C)n1

>  <Energy>  (33) 
86.04535539852843

>  <Genealogy>  (33) 
COCc1n[n-]c(-c2cc([N-]C(=O)[N-]c3ccccc3Cl)ccc2C)n1 (protonated)
COCc1n[n-]c(-c2cc([N-]C(=O)[N-]c3ccccc3Cl)ccc2C)n1 (3D coordinates assigned)
COCc1n[n-]c(-c2cc([N-]C(=O)[N-]c3ccccc3Cl)ccc2C)n1 (optimized conformer: 86.04535539852843 kcal/mol)

>  <smiles>  (33) 
COCc1n[nH]c(-c2cc(NC(=O)Nc3ccccc3Cl)ccc2C)n1

>  <score_type>  (33) 
oracle

>  <origin>  (33) 
adgpu

>  <m_score__min__energy>  (33) 
-11.31

>  <m_primary>  (33) 
energy

$$$$
33:0
     RDKit          3D

 31 32  0  0  0  0  0  0  0  0999 V2000
   -3.0540   18.3500  -25.8670 N   0  0  0  0  0  0  0  0  0  0  0  0
   -2.7180   19.1480  -26.6330 C   0  0  0  0  0  0  0  0  0  0  0  0
   -2.2980   20.1420  -27.5860 C   0  0  0  0  0  0  0  0  0  0  0  0
   -1.3750   19.8100  -28.5850 C   0  0  0  0  0  0  0  0  0  0  0  0
   -0.9560   20.7800  -29.5000 C   0  0  0  0  0  0  0  0  0  0  0  0
   -1.4630   22.0860  -29.4310 C   0  0  0  0  0  0  0  0  0  0  0  0
   -0.9890   23.0590  -30.3100 O   0  0  0  0  0  0  0  0  0  0  0  0
   -2.4260   22.4120  -28.4530 C   0  0  0  0  0  0  0  0  0  0  0  0
   -2.9760   23.7310  -28.3390 N   0  0  0  0  0  0  0  0  0  0  0  0
   -2.7230   24.8160  -29.2370 C   0  0  0  0  0  0  0  0  0  0  0  0
   -1.8270   25.6640  -28.9750 O   0  0  0  0  0  0  0  0  0  0  0  0
   -3.5030   24.9230  -30.4320 N   0  0  0  0  0  0  0  0  0  0  0  0
   -4.7040   24.1990  -30.7380 C   0  0  0  0  0  0  0  0  0  0  0  0
   -5.9280   24.7250  -30.3160 C   0  0  0  0  0  0  0  0  0  0  0  0
   -7.1170   24.0440  -30.5770 C   0  0  0  0  0  0  0  0  0  0  0  0
   -7.1000   22.8190  -31.2490 C   0  0  0  0  0  0  0  0  0  0  0  0
   -8.6400   22.0150  -31.5400 Cl  0  0  0  0  0  0  0  0  0  0  0  0
   -5.8720   22.2550  -31.6620 C   0  0  0  0  0  0  0  0  0  0  0  0
   -5.8370   20.9170  -32.3710 C   0  0  0  0  0  0  0  0  0  0  0  0
   -6.7720   20.8480  -33.3890 F   0  0  0  0  0  0  0  0  0  0  0  0
   -6.1050   19.9050  -31.4670 F   0  0  0  0  0  0  0  0  0  0  0  0
   -4.5830   20.7160  -32.9200 F   0  0  0  0  0  0  0  0  0  0  0  0
   -4.6770   22.9530  -31.3910 C   0  0  0  0  0  0  0  0  0  0  0  0
   -2.8130   21.4420  -27.5180 C   0  0  0  0  0  0  0  0  0  0  0  0
   -0.9795   18.7856  -28.6498 H   0  0  0  0  0  0  0  0  0  0  0  0
   -0.2245   20.5177  -30.2786 H   0  0  0  0  0  0  0  0  0  0  0  0
   -1.4290   23.9690  -30.3830 H   0  0  0  0  0  0  0  0  0  0  0  0
   -5.9540   25.6822  -29.7746 H   0  0  0  0  0  0  0  0  0  0  0  0
   -8.0754   24.4746  -30.2513 H   0  0  0  0  0  0  0  0  0  0  0  0
   -3.7128   22.5184  -31.6936 H   0  0  0  0  0  0  0  0  0  0  0  0
   -3.5275   21.7045  -26.7240 H   0  0  0  0  0  0  0  0  0  0  0  0
  1  2  3  0
  2  3  1  0
  3  4  2  0
  4  5  1  0
  5  6  2  0
  6  7  1  0
  6  8  1  0
  8  9  1  0
  9 10  1  0
 10 11  2  0
 10 12  1  0
 12 13  1  0
 13 14  2  0
 14 15  1  0
 15 16  2  0
 16 17  1  0
 16 18  1  0
 18 19  1  0
 19 20  1  0
 19 21  1  0
 19 22  1  0
 18 23  2  0
  8 24  2  0
 24  3  1  0
 23 13  1  0
  4 25  1  0
  5 26  1  0
  7 27  1  0
 14 28  1  0
 15 29  1  0
 23 30  1  0
 24 31  1  0
M  CHG  2   9  -1  12  -1
M  END
>  <UniqueID>  (34) 
31

>  <SMILES>  (34) 
N#Cc1ccc(O)c([N-]C(=O)[N-]c2ccc(Cl)c(C(F)(F)F)c2)c1

>  <Energy>  (34) 
42.16356303216621

>  <Genealogy>  (34) 
N#Cc1ccc(O)c([N-]C(=O)[N-]c2ccc(Cl)c(C(F)(F)F)c2)c1 (protonated)
N#Cc1ccc(O)c([N-]C(=O)[N-]c2ccc(Cl)c(C(F)(F)F)c2)c1 (3D coordinates assigned)
N#Cc1ccc(O)c([N-]C(=O)[N-]c2ccc(Cl)c(C(F)(F)F)c2)c1 (optimized conformer: 42.16356303216621 kcal/mol)

>  <smiles>  (34) 
N#Cc1ccc(O)c(NC(=O)Nc2ccc(Cl)c(C(F)(F)F)c2)c1

>  <score_type>  (34) 
oracle

>  <origin>  (34) 
adgpu

>  <m_score__min__energy>  (34) 
-10.41

>  <m_primary>  (34) 
energy

$$$$
34:0
     RDKit          3D

 49 51  0  0  1  0  0  0  0  0999 V2000
   -3.5050   21.4660  -27.5030 C   0  0  0  0  0  0  0  0  0  0  0  0
   -3.3680   22.6760  -28.3540 C   0  0  0  0  0  0  0  0  0  0  0  0
   -4.1600   22.7610  -29.4790 C   0  0  0  0  0  0  0  0  0  0  0  0
   -4.0450   23.8920  -30.2920 C   0  0  0  0  0  0  0  0  0  0  0  0
   -4.7760   24.0100  -31.3660 N   0  0  0  0  0  0  0  0  0  0  0  0
   -5.7070   22.9810  -31.7250 C   0  0  0  0  0  0  0  0  0  0  0  0
   -7.0200   23.2010  -31.3320 C   0  0  0  0  0  0  0  0  0  0  0  0
   -7.9810   22.2840  -31.6260 C   0  0  0  0  0  0  0  0  0  0  0  0
   -7.6110   21.1500  -32.3160 C   0  0  0  0  0  0  0  0  0  0  0  0
   -6.2940   20.9310  -32.7100 C   0  0  0  0  0  0  0  0  0  0  0  0
   -5.9600   19.6890  -33.4510 C   0  0  0  0  0  0  0  0  0  0  0  0
   -5.3150   21.8610  -32.4120 C   0  0  0  0  0  0  0  0  0  0  0  0
   -3.9030   21.6680  -32.8130 C   0  0  0  0  0  0  0  0  0  0  0  0
   -3.1770   24.8320  -29.9430 N   0  0  0  0  0  0  0  0  0  0  0  0
   -2.4240   24.7070  -28.8320 C   0  0  0  0  0  0  0  0  0  0  0  0
   -1.6100   25.6760  -28.5770 N   0  0  0  0  0  0  0  0  0  0  0  0
   -0.7570   25.6740  -27.4410 C   0  0  0  0  0  0  0  0  0  0  0  0
    0.4490   25.0130  -27.5090 C   0  0  0  0  0  0  0  0  0  0  0  0
    1.3270   24.9760  -26.4280 C   0  0  0  0  0  0  0  0  0  0  0  0
    0.9650   25.6300  -25.2450 C   0  0  0  0  0  0  0  0  0  0  0  0
    1.9220   25.5740  -24.1060 C   0  0  0  0  0  0  0  0  0  0  0  0
   -0.2420   26.2900  -25.1780 C   0  0  0  0  0  0  0  0  0  0  0  0
   -0.5790   26.9740  -23.8870 C   0  0  0  0  0  0  0  0  0  0  0  0
   -1.0980   26.3150  -26.2620 C   0  0  0  0  0  0  0  0  0  0  0  0
   -2.4930   23.6400  -28.0130 N   0  0  0  0  0  0  0  0  0  0  0  0
   -3.4720   21.7577  -26.4429 H   0  0  0  0  0  0  0  0  0  0  0  0
   -4.4647   20.9733  -27.7180 H   0  0  0  0  0  0  0  0  0  0  0  0
   -2.6798   20.7712  -27.7180 H   0  0  0  0  0  0  0  0  0  0  0  0
   -4.8667   21.9567  -29.7312 H   0  0  0  0  0  0  0  0  0  0  0  0
   -7.2835   24.1169  -30.7828 H   0  0  0  0  0  0  0  0  0  0  0  0
   -9.0258   22.4435  -31.3210 H   0  0  0  0  0  0  0  0  0  0  0  0
   -8.3759   20.3987  -32.5617 H   0  0  0  0  0  0  0  0  0  0  0  0
   -5.7430   18.8822  -32.7354 H   0  0  0  0  0  0  0  0  0  0  0  0
   -6.8120   19.3989  -34.0834 H   0  0  0  0  0  0  0  0  0  0  0  0
   -5.0774   19.8654  -34.0834 H   0  0  0  0  0  0  0  0  0  0  0  0
   -3.2750   21.5822  -31.9140 H   0  0  0  0  0  0  0  0  0  0  0  0
   -3.8141   20.7493  -33.4115 H   0  0  0  0  0  0  0  0  0  0  0  0
   -3.5708   22.5291  -33.4115 H   0  0  0  0  0  0  0  0  0  0  0  0
   -3.0970   25.6720  -30.5530 H   0  0  0  0  0  0  0  0  0  0  0  0
    0.7266   24.5004  -28.4419 H   0  0  0  0  0  0  0  0  0  0  0  0
    2.2863   24.4430  -26.5029 H   0  0  0  0  0  0  0  0  0  0  0  0
    1.3656   25.6066  -23.1577 H   0  0  0  0  0  0  0  0  0  0  0  0
    2.5013   24.6404  -24.1594 H   0  0  0  0  0  0  0  0  0  0  0  0
    2.6062   26.4336  -24.1594 H   0  0  0  0  0  0  0  0  0  0  0  0
   -0.2668   26.3402  -23.0439 H   0  0  0  0  0  0  0  0  0  0  0  0
   -0.0531   27.9387  -23.8350 H   0  0  0  0  0  0  0  0  0  0  0  0
   -1.6644   27.1448  -23.8350 H   0  0  0  0  0  0  0  0  0  0  0  0
   -2.0574   26.8480  -26.1880 H   0  0  0  0  0  0  0  0  0  0  0  0
   -1.8880   23.5940  -27.1690 H   0  0  0  0  0  0  0  0  0  0  0  0
  1  2  1  0
  2  3  2  0
  3  4  1  0
  4  5  2  0
  5  6  1  0
  6  7  2  0
  7  8  1  0
  8  9  2  0
  9 10  1  0
 10 11  1  0
 10 12  2  0
 12 13  1  0
  4 14  1  0
 14 15  1  0
 15 16  2  0
 16 17  1  0
 17 18  2  0
 18 19  1  0
 19 20  2  0
 20 21  1  0
 20 22  1  0
 22 23  1  0
 22 24  2  0
 15 25  1  0
 25  2  1  0
 12  6  1  0
 24 17  1  0
  1 26  1  0
  1 27  1  0
  1 28  1  0
  3 29  1  0
  7 30  1  0
  8 31  1  0
  9 32  1  0
 11 33  1  0
 11 34  1  0
 11 35  1  0
 13 36  1  0
 13 37  1  0
 13 38  1  0
 14 39  1  0
 18 40  1  0
 19 41  1  0
 21 42  1  0
 21 43  1  0
 21 44  1  0
 23 45  1  0
 23 46  1  0
 23 47  1  0
 24 48  1  0
 25 49  1  0
M  END
>  <smiles>  (35) 
Cc1cc(=Nc2cccc(C)c2C)[nH]c(=Nc2ccc(C)c(C)c2)[nH]1

>  <score_type>  (35) 
oracle

>  <origin>  (35) 
adgpu

>  <m_score__min__energy>  (35) 
-9.3599999999999994

>  <m_primary>  (35) 
energy

$$$$
35:0
     RDKit          3D

 40 43  0  0  0  0  0  0  0  0999 V2000
  -10.6639   20.3262  -32.1554 H   0  0  0  0  0  0  0  0  0  0  0  0
   -9.5850   20.5340  -32.1020 C   0  0  0  0  0  0  0  0  0  0  0  0
   -8.7020   19.6760  -32.6720 N   0  0  0  0  0  0  0  0  0  0  0  0
   -7.3560   19.8820  -32.6430 C   0  0  0  0  0  0  0  0  0  0  0  0
   -6.4890   18.8560  -33.2600 C   0  0  0  0  0  0  0  0  0  0  0  0
   -6.1080   18.9820  -34.6040 C   0  0  0  0  0  0  0  0  0  0  0  0
   -6.4244   19.8623  -35.1828 H   0  0  0  0  0  0  0  0  0  0  0  0
   -5.3290   17.9950  -35.2100 C   0  0  0  0  0  0  0  0  0  0  0  0
   -5.0292   18.1028  -36.2628 H   0  0  0  0  0  0  0  0  0  0  0  0
   -4.9290   16.8710  -34.4840 C   0  0  0  0  0  0  0  0  0  0  0  0
   -4.3226   16.0930  -34.9708 H   0  0  0  0  0  0  0  0  0  0  0  0
   -5.2970   16.7280  -33.1340 C   0  0  0  0  0  0  0  0  0  0  0  0
   -4.9170   15.4880  -32.3640 C   0  0  0  0  0  0  0  0  0  0  0  0
   -5.4660   14.3630  -32.9540 F   0  0  0  0  0  0  0  0  0  0  0  0
   -5.3770   15.5610  -31.0610 F   0  0  0  0  0  0  0  0  0  0  0  0
   -3.5400   15.3650  -32.3510 F   0  0  0  0  0  0  0  0  0  0  0  0
   -6.1060   17.7130  -32.5390 C   0  0  0  0  0  0  0  0  0  0  0  0
   -6.4419   17.5869  -31.4992 H   0  0  0  0  0  0  0  0  0  0  0  0
   -6.8450   21.0490  -32.0190 C   0  0  0  0  0  0  0  0  0  0  0  0
   -5.4720   21.3690  -32.0150 C   0  0  0  0  0  0  0  0  0  0  0  0
   -4.7543   20.6998  -32.5120 H   0  0  0  0  0  0  0  0  0  0  0  0
   -5.0160   22.5290  -31.3850 C   0  0  0  0  0  0  0  0  0  0  0  0
   -3.9406   22.7603  -31.3782 H   0  0  0  0  0  0  0  0  0  0  0  0
   -5.9170   23.3980  -30.7630 C   0  0  0  0  0  0  0  0  0  0  0  0
   -5.3230   24.8650  -29.9870 S   0  0  0  0  0  0  0  0  0  0  0  0
   -4.2890   25.5390  -30.8450 O   0  0  0  0  0  0  0  0  0  0  0  0
   -6.4750   25.8050  -29.7790 O   0  0  0  0  0  0  0  0  0  0  0  0
   -4.6180   24.4780  -28.4500 N   0  0  0  0  0  0  0  0  0  0  0  0
   -3.4040   24.0440  -28.2970 C   0  0  0  0  0  0  0  0  0  0  0  0
   -2.2690   23.7630  -29.4840 S   0  0  0  0  0  0  0  0  0  0  0  0
   -1.0500   23.2410  -28.4800 N   0  0  0  0  0  0  0  0  0  0  0  0
   -1.5720   23.3010  -27.2220 C   0  0  0  0  0  0  0  0  0  0  0  0
   -0.9812   23.0098  -26.3410 H   0  0  0  0  0  0  0  0  0  0  0  0
   -2.8620   23.7390  -27.1030 N   0  0  0  0  0  0  0  0  0  0  0  0
   -3.3650   23.8250  -26.1900 H   0  0  0  0  0  0  0  0  0  0  0  0
   -7.2860   23.1070  -30.7750 C   0  0  0  0  0  0  0  0  0  0  0  0
   -7.9958   23.7910  -30.2868 H   0  0  0  0  0  0  0  0  0  0  0  0
   -7.7570   21.9450  -31.4080 C   0  0  0  0  0  0  0  0  0  0  0  0
   -9.1300   21.6760  -31.4500 C   0  0  0  0  0  0  0  0  0  0  0  0
   -9.8440   22.3622  -30.9712 H   0  0  0  0  0  0  0  0  0  0  0  0
  1  2  1  0
  2  3  2  0
  3  4  1  0
  4  5  1  0
  5  6  2  0
  6  7  1  0
  6  8  1  0
  8  9  1  0
  8 10  2  0
 10 11  1  0
 10 12  1  0
 12 13  1  0
 13 14  1  0
 13 15  1  0
 13 16  1  0
 12 17  2  0
 17 18  1  0
  4 19  2  0
 19 20  1  0
 20 21  1  0
 20 22  2  0
 22 23  1  0
 22 24  1  0
 24 25  1  0
 25 26  2  0
 25 27  2  0
 25 28  1  0
 28 29  2  0
 29 30  1  0
 30 31  1  0
 31 32  2  0
 32 33  1  0
 32 34  1  0
 34 35  1  0
 24 36  2  0
 36 37  1  0
 36 38  1  0
 38 39  2  0
 39 40  1  0
 39  2  1  0
 17  5  1  0
 38 19  1  0
 34 29  1  0
M  END
>  <UniqueID>  (36) 
32

>  <SMILES>  (36) 
O=S(=O)(/N=c1/[nH]cns1)c1ccc2c(-c3cccc(C(F)(F)F)c3)nccc2c1

>  <Energy>  (36) 
98.02307181625696

>  <Genealogy>  (36) 
O=S(=O)(/N=c1/[nH]cns1)c1ccc2c(-c3cccc(C(F)(F)F)c3)nccc2c1 (cis-trans isomerization)
O=S(=O)(/N=c1/[nH]cns1)c1ccc2c(-c3cccc(C(F)(F)F)c3)nccc2c1 (3D coordinates assigned)
O=S(=O)(/N=c1/[nH]cns1)c1ccc2c(-c3cccc(C(F)(F)F)c3)nccc2c1 (optimized conformer: 98.02307181625696 kcal/mol)

>  <smiles>  (36) 
O=S(=O)(N=c1[nH]cns1)c1ccc2c(-c3cccc(C(F)(F)F)c3)nccc2c1

>  <score_type>  (36) 
oracle

>  <origin>  (36) 
adgpu

>  <m_score__min__energy>  (36) 
-10.16

>  <m_primary>  (36) 
energy

$$$$
36:0
     RDKit          3D

 52 55  0  0  0  0  0  0  0  0999 V2000
   -2.1230   20.6990  -27.9960 C   0  0  0  0  0  0  0  0  0  0  0  0
   -2.1760   21.9650  -28.7820 C   0  0  0  0  0  0  0  0  0  0  0  0
   -3.3170   22.6270  -29.1830 C   0  0  0  0  0  0  0  0  0  0  0  0
   -2.8120   23.7380  -29.8340 C   0  0  0  0  0  0  0  0  0  0  0  0
   -3.4950   24.6820  -30.4060 N   0  0  0  0  0  0  0  0  0  0  0  0
   -5.2300   24.7410  -30.4620 S   0  0  0  0  0  0  0  0  0  0  0  0
   -5.7690   24.7690  -29.0600 O   0  0  0  0  0  0  0  0  0  0  0  0
   -5.6610   25.9950  -31.1690 O   0  0  0  0  0  0  0  0  0  0  0  0
   -5.8450   23.3100  -31.2830 C   0  0  0  0  0  0  0  0  0  0  0  0
   -7.1970   22.9530  -31.1890 C   0  0  0  0  0  0  0  0  0  0  0  0
   -7.6750   21.8200  -31.8530 C   0  0  0  0  0  0  0  0  0  0  0  0
   -6.7990   21.0280  -32.6190 C   0  0  0  0  0  0  0  0  0  0  0  0
   -7.2440   19.8560  -33.3160 N   0  0  0  0  0  0  0  0  0  0  0  0
   -6.8210   18.2260  -32.9090 S   0  0  0  0  0  0  0  0  0  0  0  0
   -7.1220   17.9810  -31.4560 O   0  0  0  0  0  0  0  0  0  0  0  0
   -7.6000   17.2620  -33.7600 O   0  0  0  0  0  0  0  0  0  0  0  0
   -5.1030   17.9990  -33.2170 C   0  0  0  0  0  0  0  0  0  0  0  0
   -4.4240   16.8760  -32.7220 C   0  0  0  0  0  0  0  0  0  0  0  0
   -3.0600   16.7120  -32.9770 C   0  0  0  0  0  0  0  0  0  0  0  0
   -2.3640   17.6580  -33.7500 C   0  0  0  0  0  0  0  0  0  0  0  0
   -0.9530   17.5390  -33.9920 N   0  0  0  0  0  0  0  0  0  0  0  0
   -0.0450   18.4650  -33.8570 C   0  0  0  0  0  0  0  0  0  0  0  0
   -0.2880   19.7880  -33.2440 C   0  0  0  0  0  0  0  0  0  0  0  0
   -0.4830   20.0610  -31.9020 C   0  0  0  0  0  0  0  0  0  0  0  0
   -0.4000   19.0860  -30.7710 C   0  0  0  0  0  0  0  0  0  0  0  0
   -0.7410   21.3770  -31.7570 N   0  0  0  0  0  0  0  0  0  0  0  0
   -0.7470   21.9220  -32.9380 O   0  0  0  0  0  0  0  0  0  0  0  0
   -0.4930   21.0150  -33.8510 C   0  0  0  0  0  0  0  0  0  0  0  0
   -0.4840   21.2470  -35.0890 O   0  0  0  0  0  0  0  0  0  0  0  0
   -3.0380   18.7930  -34.2150 C   0  0  0  0  0  0  0  0  0  0  0  0
   -4.4030   18.9570  -33.9610 C   0  0  0  0  0  0  0  0  0  0  0  0
   -5.4500   21.3880  -32.7080 C   0  0  0  0  0  0  0  0  0  0  0  0
   -4.9750   22.5230  -32.0460 C   0  0  0  0  0  0  0  0  0  0  0  0
   -1.4660   23.7230  -29.8100 N   0  0  0  0  0  0  0  0  0  0  0  0
   -1.1210   22.6450  -29.1670 O   0  0  0  0  0  0  0  0  0  0  0  0
   -2.1328   20.9339  -26.9214 H   0  0  0  0  0  0  0  0  0  0  0  0
   -2.9959   20.0770  -28.2434 H   0  0  0  0  0  0  0  0  0  0  0  0
   -1.2012   20.1521  -28.2434 H   0  0  0  0  0  0  0  0  0  0  0  0
   -4.3677   22.3424  -29.0246 H   0  0  0  0  0  0  0  0  0  0  0  0
   -7.8851   23.5674  -30.5898 H   0  0  0  0  0  0  0  0  0  0  0  0
   -8.7378   21.5466  -31.7769 H   0  0  0  0  0  0  0  0  0  0  0  0
   -4.9664   16.1227  -32.1318 H   0  0  0  0  0  0  0  0  0  0  0  0
   -2.5283   15.8388  -32.5711 H   0  0  0  0  0  0  0  0  0  0  0  0
    0.9690   18.2473  -34.2235 H   0  0  0  0  0  0  0  0  0  0  0  0
   -0.4462   19.6284  -29.8152 H   0  0  0  0  0  0  0  0  0  0  0  0
   -1.2413   18.3800  -30.8330 H   0  0  0  0  0  0  0  0  0  0  0  0
    0.5485   18.5324  -30.8330 H   0  0  0  0  0  0  0  0  0  0  0  0
   -0.9210   21.8860  -30.8640 H   0  0  0  0  0  0  0  0  0  0  0  0
   -2.4911   19.5599  -34.7831 H   0  0  0  0  0  0  0  0  0  0  0  0
   -4.9294   19.8423  -34.3472 H   0  0  0  0  0  0  0  0  0  0  0  0
   -4.7587   20.7733  -33.3032 H   0  0  0  0  0  0  0  0  0  0  0  0
   -3.9131   22.7990  -32.1248 H   0  0  0  0  0  0  0  0  0  0  0  0
  1  2  1  0
  2  3  2  0
  3  4  1  0
  4  5  2  3
  5  6  1  0
  6  7  2  0
  6  8  2  0
  6  9  1  0
  9 10  2  0
 10 11  1  0
 11 12  2  0
 12 13  1  0
 13 14  1  0
 14 15  2  0
 14 16  2  0
 14 17  1  0
 17 18  2  0
 18 19  1  0
 19 20  2  0
 20 21  1  0
 21 22  2  3
 22 23  1  0
 23 24  2  0
 24 25  1  0
 24 26  1  0
 26 27  1  0
 27 28  1  0
 28 29  2  0
 20 30  1  0
 30 31  2  0
 12 32  1  0
 32 33  2  0
  4 34  1  0
 34 35  1  0
 35  2  1  0
 33  9  1  0
 31 17  1  0
 28 23  1  0
  1 36  1  0
  1 37  1  0
  1 38  1  0
  3 39  1  0
 10 40  1  0
 11 41  1  0
 18 42  1  0
 19 43  1  0
 22 44  1  0
 25 45  1  0
 25 46  1  0
 25 47  1  0
 26 48  1  0
 30 49  1  0
 31 50  1  0
 32 51  1  0
 33 52  1  0
M  CHG  2  13  -1  34  -1
M  END
>  <UniqueID>  (37) 
33

>  <SMILES>  (37) 
Cc1cc(=NS(=O)(=O)c2ccc([N-]S(=O)(=O)c3ccc(N=Cc4c(C)[nH]oc4=O)cc3)cc2)[n-]o1

>  <Energy>  (37) 
136.60150314417857

>  <Genealogy>  (37) 
Cc1cc(=NS(=O)(=O)c2ccc([N-]S(=O)(=O)c3ccc(N=Cc4c(C)[nH]oc4=O)cc3)cc2)[n-]o1 (protonated)
Cc1cc(=NS(=O)(=O)c2ccc([N-]S(=O)(=O)c3ccc(N=Cc4c(C)[nH]oc4=O)cc3)cc2)[n-]o1 (3D coordinates assigned)
Cc1cc(=NS(=O)(=O)c2ccc([N-]S(=O)(=O)c3ccc(N=Cc4c(C)[nH]oc4=O)cc3)cc2)[n-]o1 (optimized conformer: 136.60150314417857 kcal/mol)

>  <smiles>  (37) 
Cc1cc(=NS(=O)(=O)c2ccc(NS(=O)(=O)c3ccc(N=Cc4c(C)[nH]oc4=O)cc3)cc2)[nH]o1

>  <score_type>  (37) 
oracle

>  <origin>  (37) 
adgpu

>  <m_score__min__energy>  (37) 
-11.91

>  <m_primary>  (37) 
energy

$$$$
37:0
     RDKit          3D

 49 51  0  0  0  0  0  0  0  0999 V2000
    2.4460   11.6960  -30.4890 C   0  0  0  0  0  0  0  0  0  0  0  0
    1.3280   12.2560  -29.8060 O   0  0  0  0  0  0  0  0  0  0  0  0
    1.2240   13.6020  -29.4210 C   0  0  0  0  0  0  0  0  0  0  0  0
    1.4120   14.0150  -28.0900 C   0  0  0  0  0  0  0  0  0  0  0  0
    1.2980   15.3650  -27.7300 C   0  0  0  0  0  0  0  0  0  0  0  0
    1.4360   15.7270  -26.3480 N   0  0  0  0  0  0  0  0  0  0  0  0
    1.0040   16.3270  -28.7230 C   0  0  0  0  0  0  0  0  0  0  0  0
    0.9360   17.7720  -28.4120 C   0  0  0  0  0  0  0  0  0  0  0  0
    1.6860   18.2460  -27.5160 O   0  0  0  0  0  0  0  0  0  0  0  0
    0.0690   18.6380  -29.1660 N   0  0  0  0  0  0  0  0  0  0  0  0
   -0.1660   20.0180  -28.8430 C   0  0  0  0  0  0  0  0  0  0  0  0
   -0.2220   20.9660  -29.8750 C   0  0  0  0  0  0  0  0  0  0  0  0
   -0.4710   22.3120  -29.5910 C   0  0  0  0  0  0  0  0  0  0  0  0
   -0.6810   22.7250  -28.2690 C   0  0  0  0  0  0  0  0  0  0  0  0
   -1.0150   24.4160  -27.9130 S   0  0  0  0  0  0  0  0  0  0  0  0
   -1.7170   24.5170  -26.5860 O   0  0  0  0  0  0  0  0  0  0  0  0
    0.2800   25.1780  -27.8490 O   0  0  0  0  0  0  0  0  0  0  0  0
   -2.0230   25.0610  -29.1710 N   0  0  0  0  0  0  0  0  0  0  0  0
   -3.2290   24.6720  -29.4740 C   0  0  0  0  0  0  0  0  0  0  0  0
   -3.8880   23.6320  -28.7840 C   0  0  0  0  0  0  0  0  0  0  0  0
   -5.1810   23.2680  -29.1660 C   0  0  0  0  0  0  0  0  0  0  0  0
   -5.8100   23.9300  -30.2200 C   0  0  0  0  0  0  0  0  0  0  0  0
   -5.1310   24.9540  -30.8820 C   0  0  0  0  0  0  0  0  0  0  0  0
   -3.8730   25.2960  -30.4990 N   0  0  0  0  0  0  0  0  0  0  0  0
   -0.6600   21.7780  -27.2370 C   0  0  0  0  0  0  0  0  0  0  0  0
   -0.4080   20.4320  -27.5210 C   0  0  0  0  0  0  0  0  0  0  0  0
    0.8120   15.9100  -30.0500 C   0  0  0  0  0  0  0  0  0  0  0  0
    0.9190   14.5530  -30.4040 C   0  0  0  0  0  0  0  0  0  0  0  0
    0.7350   14.1090  -31.7240 O   0  0  0  0  0  0  0  0  0  0  0  0
   -0.4130   13.4040  -32.1860 C   0  0  0  0  0  0  0  0  0  0  0  0
    3.1782   11.3292  -29.7546 H   0  0  0  0  0  0  0  0  0  0  0  0
    2.1092   10.8602  -31.1199 H   0  0  0  0  0  0  0  0  0  0  0  0
    2.9137   12.4662  -31.1199 H   0  0  0  0  0  0  0  0  0  0  0  0
    1.6522   13.2674  -27.3197 H   0  0  0  0  0  0  0  0  0  0  0  0
    1.0520   15.1100  -25.5980 H   0  0  0  0  0  0  0  0  0  0  0  0
    1.8430   16.6400  -26.0520 H   0  0  0  0  0  0  0  0  0  0  0  0
   -0.3760   18.2620  -30.0340 H   0  0  0  0  0  0  0  0  0  0  0  0
   -0.0687   20.6478  -30.9167 H   0  0  0  0  0  0  0  0  0  0  0  0
   -0.5021   23.0485  -30.4075 H   0  0  0  0  0  0  0  0  0  0  0  0
   -3.3878   23.1130  -27.9531 H   0  0  0  0  0  0  0  0  0  0  0  0
   -5.7036   22.4586  -28.6352 H   0  0  0  0  0  0  0  0  0  0  0  0
   -6.8285   23.6486  -30.5258 H   0  0  0  0  0  0  0  0  0  0  0  0
   -5.6150   25.4850  -31.7150 H   0  0  0  0  0  0  0  0  0  0  0  0
   -0.8424   22.0942  -26.1993 H   0  0  0  0  0  0  0  0  0  0  0  0
   -0.3990   19.6933  -26.7060 H   0  0  0  0  0  0  0  0  0  0  0  0
    0.5746   16.6551  -30.8236 H   0  0  0  0  0  0  0  0  0  0  0  0
   -0.9952   13.0464  -31.3239 H   0  0  0  0  0  0  0  0  0  0  0  0
   -1.0352   14.0759  -32.7954 H   0  0  0  0  0  0  0  0  0  0  0  0
   -0.0952   12.5452  -32.7954 H   0  0  0  0  0  0  0  0  0  0  0  0
  1  2  1  0
  2  3  1  0
  3  4  2  0
  4  5  1  0
  5  6  1  0
  5  7  2  0
  7  8  1  0
  8  9  2  0
  8 10  1  0
 10 11  1  0
 11 12  2  0
 12 13  1  0
 13 14  2  0
 14 15  1  0
 15 16  2  0
 15 17  2  0
 15 18  1  0
 18 19  2  3
 19 20  1  0
 20 21  2  0
 21 22  1  0
 22 23  2  0
 23 24  1  0
 14 25  1  0
 25 26  2  0
  7 27  1  0
 27 28  2  0
 28 29  1  0
 29 30  1  0
 28  3  1  0
 26 11  1  0
 24 19  1  0
  1 31  1  0
  1 32  1  0
  1 33  1  0
  4 34  1  0
  6 35  1  0
  6 36  1  0
 10 37  1  0
 12 38  1  0
 13 39  1  0
 20 40  1  0
 21 41  1  0
 22 42  1  0
 23 43  1  0
 25 44  1  0
 26 45  1  0
 27 46  1  0
 30 47  1  0
 30 48  1  0
 30 49  1  0
M  CHG  1  24  -1
M  END
>  <UniqueID>  (38) 
34

>  <SMILES>  (38) 
COc1cc(N)c(C(=O)Nc2ccc(S(=O)(=O)N=c3cccc[n-]3)cc2)cc1OC

>  <Energy>  (38) 
66.93241861843505

>  <Genealogy>  (38) 
COc1cc(N)c(C(=O)Nc2ccc(S(=O)(=O)N=c3cccc[n-]3)cc2)cc1OC (protonated)
COc1cc(N)c(C(=O)Nc2ccc(S(=O)(=O)N=c3cccc[n-]3)cc2)cc1OC (3D coordinates assigned)
COc1cc(N)c(C(=O)Nc2ccc(S(=O)(=O)N=c3cccc[n-]3)cc2)cc1OC (optimized conformer: 66.93241861843505 kcal/mol)

>  <smiles>  (38) 
COc1cc(N)c(C(=O)Nc2ccc(S(=O)(=O)N=c3cccc[nH]3)cc2)cc1OC

>  <score_type>  (38) 
oracle

>  <origin>  (38) 
adgpu

>  <m_score__min__energy>  (38) 
-8.5

>  <m_primary>  (38) 
energy

$$$$
38:0
     RDKit          3D

 41 43  0  0  0  0  0  0  0  0999 V2000
   -3.5580   22.0560  -28.5370 O   0  0  0  0  0  0  0  0  0  0  0  0
   -3.8290   23.2610  -28.7920 C   0  0  0  0  0  0  0  0  0  0  0  0
   -3.1050   24.3220  -28.1430 N   0  0  0  0  0  0  0  0  0  0  0  0
   -2.0660   24.1070  -27.1740 C   0  0  0  0  0  0  0  0  0  0  0  0
   -1.1900   23.0100  -27.2740 C   0  0  0  0  0  0  0  0  0  0  0  0
   -0.2030   22.8040  -26.3050 C   0  0  0  0  0  0  0  0  0  0  0  0
   -0.0890   23.6810  -25.2230 C   0  0  0  0  0  0  0  0  0  0  0  0
   -0.9680   24.7600  -25.1040 C   0  0  0  0  0  0  0  0  0  0  0  0
   -1.9580   24.9700  -26.0690 C   0  0  0  0  0  0  0  0  0  0  0  0
   -2.8030   26.0240  -25.9390 F   0  0  0  0  0  0  0  0  0  0  0  0
   -4.9040   23.5610  -29.7620 C   0  0  0  0  0  0  0  0  0  0  0  0
   -5.9360   22.6260  -29.9520 C   0  0  0  0  0  0  0  0  0  0  0  0
   -6.9750   22.8840  -30.8540 C   0  0  0  0  0  0  0  0  0  0  0  0
   -8.2530   21.6940  -31.0860 S   0  0  0  0  0  0  0  0  0  0  0  0
   -9.0850   22.0670  -32.2840 O   0  0  0  0  0  0  0  0  0  0  0  0
   -9.1410   21.6830  -29.8740 O   0  0  0  0  0  0  0  0  0  0  0  0
   -7.5400   20.1170  -31.3020 N   0  0  0  0  0  0  0  0  0  0  0  0
   -6.6700   20.0820  -32.4770 C   0  0  0  0  0  0  0  0  0  0  0  0
   -6.6580   18.6420  -32.9650 C   0  0  0  0  0  0  0  0  0  0  0  0
   -7.8960   17.9990  -32.3560 C   0  0  0  0  0  0  0  0  0  0  0  0
   -8.5620   19.0990  -31.5420 C   0  0  0  0  0  0  0  0  0  0  0  0
   -6.9730   24.0740  -31.5920 C   0  0  0  0  0  0  0  0  0  0  0  0
   -5.9420   24.9990  -31.4260 C   0  0  0  0  0  0  0  0  0  0  0  0
   -4.9030   24.7470  -30.5240 C   0  0  0  0  0  0  0  0  0  0  0  0
   -3.8630   25.6640  -30.4210 O   0  0  0  0  0  0  0  0  0  0  0  0
   -3.3120   25.3080  -28.4150 H   0  0  0  0  0  0  0  0  0  0  0  0
   -1.2822   22.3112  -28.1185 H   0  0  0  0  0  0  0  0  0  0  0  0
    0.4848   21.9502  -26.3946 H   0  0  0  0  0  0  0  0  0  0  0  0
    0.6925   23.5217  -24.4655 H   0  0  0  0  0  0  0  0  0  0  0  0
   -0.8812   25.4464  -24.2488 H   0  0  0  0  0  0  0  0  0  0  0  0
   -5.9272   21.6825  -29.3866 H   0  0  0  0  0  0  0  0  0  0  0  0
   -7.0640   20.7453  -33.2611 H   0  0  0  0  0  0  0  0  0  0  0  0
   -5.6548   20.4258  -32.2297 H   0  0  0  0  0  0  0  0  0  0  0  0
   -6.7070   18.6074  -34.0634 H   0  0  0  0  0  0  0  0  0  0  0  0
   -5.7372   18.1175  -32.6699 H   0  0  0  0  0  0  0  0  0  0  0  0
   -8.5725   17.6414  -33.1462 H   0  0  0  0  0  0  0  0  0  0  0  0
   -7.6416   17.1271  -31.7355 H   0  0  0  0  0  0  0  0  0  0  0  0
   -9.4034   19.5307  -32.1039 H   0  0  0  0  0  0  0  0  0  0  0  0
   -8.9611   18.7061  -30.5952 H   0  0  0  0  0  0  0  0  0  0  0  0
   -7.7859   24.2798  -32.3039 H   0  0  0  0  0  0  0  0  0  0  0  0
   -5.9461   25.9324  -32.0081 H   0  0  0  0  0  0  0  0  0  0  0  0
  1  2  2  0
  2  3  1  0
  3  4  1  0
  4  5  2  0
  5  6  1  0
  6  7  2  0
  7  8  1  0
  8  9  2  0
  9 10  1  0
  2 11  1  0
 11 12  2  0
 12 13  1  0
 13 14  1  0
 14 15  2  0
 14 16  2  0
 14 17  1  0
 17 18  1  0
 18 19  1  0
 19 20  1  0
 20 21  1  0
 13 22  2  0
 22 23  1  0
 23 24  2  0
 24 25  1  0
  9  4  1  0
 24 11  1  0
 21 17  1  0
  3 26  1  0
  5 27  1  0
  6 28  1  0
  7 29  1  0
  8 30  1  0
 12 31  1  0
 18 32  1  0
 18 33  1  0
 19 34  1  0
 19 35  1  0
 20 36  1  0
 20 37  1  0
 21 38  1  0
 21 39  1  0
 22 40  1  0
 23 41  1  0
M  CHG  1  25  -1
M  END
>  <UniqueID>  (39) 
35

>  <SMILES>  (39) 
O=C(Nc1ccccc1F)c1cc(S(=O)(=O)N2CCCC2)ccc1[O-]

>  <Energy>  (39) 
52.21537224053737

>  <Genealogy>  (39) 
O=C(Nc1ccccc1F)c1cc(S(=O)(=O)N2CCCC2)ccc1[O-] (protonated)
O=C(Nc1ccccc1F)c1cc(S(=O)(=O)N2CCCC2)ccc1[O-] (3D coordinates assigned)
O=C(Nc1ccccc1F)c1cc(S(=O)(=O)N2CCCC2)ccc1[O-] (nonaromatic ring conformer: 52.21537224053737 kcal/mol)

>  <smiles>  (39) 
O=C(Nc1ccccc1F)c1cc(S(=O)(=O)N2CCCC2)ccc1O

>  <score_type>  (39) 
oracle

>  <origin>  (39) 
adgpu

>  <m_score__min__energy>  (39) 
-11.640000000000001

>  <m_primary>  (39) 
energy

$$$$
39:0
     RDKit          3D

 48 50  0  0  0  0  0  0  0  0999 V2000
   -2.0598   17.6021  -26.5679 H   0  0  0  0  0  0  0  0  0  0  0  0
   -1.9490   18.6410  -26.9120 C   0  0  0  0  0  0  0  0  0  0  0  0
   -2.9650   19.5250  -26.7290 N   0  0  0  0  0  0  0  0  0  0  0  0
   -2.8670   20.8210  -27.1210 C   0  0  0  0  0  0  0  0  0  0  0  0
   -3.7159   21.5042  -26.9706 H   0  0  0  0  0  0  0  0  0  0  0  0
   -1.6900   21.2920  -27.7160 C   0  0  0  0  0  0  0  0  0  0  0  0
   -1.5980   22.7000  -28.1550 C   0  0  0  0  0  0  0  0  0  0  0  0
   -2.6190   23.2060  -28.8960 N   0  0  0  0  0  0  0  0  0  0  0  0
   -2.6140   24.4880  -29.3470 C   0  0  0  0  0  0  0  0  0  0  0  0
   -3.5890   24.9510  -30.0760 N   0  0  0  0  0  0  0  0  0  0  0  0
   -4.8030   24.2610  -30.4200 C   0  0  0  0  0  0  0  0  0  0  0  0
   -6.0520   24.6800  -29.9250 C   0  0  0  0  0  0  0  0  0  0  0  0
   -6.1079   25.5412  -29.2430 H   0  0  0  0  0  0  0  0  0  0  0  0
   -7.2200   24.0110  -30.2930 C   0  0  0  0  0  0  0  0  0  0  0  0
   -8.1892   24.3360  -29.8869 H   0  0  0  0  0  0  0  0  0  0  0  0
   -7.1620   22.9280  -31.1770 C   0  0  0  0  0  0  0  0  0  0  0  0
   -8.6290   22.0620  -31.6280 S   0  0  0  0  0  0  0  0  0  0  0  0
   -9.5550   23.0050  -32.3450 O   0  0  0  0  0  0  0  0  0  0  0  0
   -9.3310   21.5520  -30.3990 O   0  0  0  0  0  0  0  0  0  0  0  0
   -8.2440   20.7330  -32.6770 N   0  0  0  0  0  0  0  0  0  0  0  0
   -8.7350   19.4870  -32.0970 C   0  0  0  0  0  0  0  0  0  0  0  0
   -8.7073   19.5574  -30.9996 H   0  0  0  0  0  0  0  0  0  0  0  0
   -9.7695   19.3115  -32.4271 H   0  0  0  0  0  0  0  0  0  0  0  0
   -8.0983   18.6530  -32.4271 H   0  0  0  0  0  0  0  0  0  0  0  0
   -5.9270   22.5220  -31.6950 C   0  0  0  0  0  0  0  0  0  0  0  0
   -5.8807   21.6729  -32.3928 H   0  0  0  0  0  0  0  0  0  0  0  0
   -4.7420   23.1920  -31.3300 C   0  0  0  0  0  0  0  0  0  0  0  0
   -3.4880   22.8170  -31.8390 O   0  0  0  0  0  0  0  0  0  0  0  0
   -2.8860   21.5410  -31.6450 C   0  0  0  0  0  0  0  0  0  0  0  0
   -2.7913   21.3402  -30.5676 H   0  0  0  0  0  0  0  0  0  0  0  0
   -3.5131   20.7654  -32.1088 H   0  0  0  0  0  0  0  0  0  0  0  0
   -1.8886   21.5318  -32.1088 H   0  0  0  0  0  0  0  0  0  0  0  0
   -1.5530   25.2880  -29.0750 N   0  0  0  0  0  0  0  0  0  0  0  0
   -0.5100   24.8430  -28.3290 C   0  0  0  0  0  0  0  0  0  0  0  0
    0.3396   25.5106  -28.1231 H   0  0  0  0  0  0  0  0  0  0  0  0
   -0.5100   23.5380  -27.8200 C   0  0  0  0  0  0  0  0  0  0  0  0
    0.6360   23.0850  -26.9540 C   0  0  0  0  0  0  0  0  0  0  0  0
    0.3604   23.1939  -25.8947 H   0  0  0  0  0  0  0  0  0  0  0  0
    0.8621   22.0299  -27.1674 H   0  0  0  0  0  0  0  0  0  0  0  0
    1.5224   23.7004  -27.1674 H   0  0  0  0  0  0  0  0  0  0  0  0
   -0.6400   20.3880  -27.9400 C   0  0  0  0  0  0  0  0  0  0  0  0
    0.2812   20.7317  -28.4333 H   0  0  0  0  0  0  0  0  0  0  0  0
   -0.7580   19.0460  -27.5380 C   0  0  0  0  0  0  0  0  0  0  0  0
    0.3420   18.0730  -27.7470 C   0  0  0  0  0  0  0  0  0  0  0  0
    1.3250   18.3900  -28.4690 O   0  0  0  0  0  0  0  0  0  0  0  0
    0.3250   16.7810  -27.1330 N   0  0  0  0  0  0  0  0  0  0  0  0
   -0.3730   16.5280  -26.4000 H   0  0  0  0  0  0  0  0  0  0  0  0
    1.0820   16.0940  -27.3480 H   0  0  0  0  0  0  0  0  0  0  0  0
  1  2  1  0
  2  3  2  0
  3  4  1  0
  4  5  1  0
  4  6  2  0
  6  7  1  0
  7  8  2  0
  8  9  1  0
  9 10  2  0
 10 11  1  0
 11 12  2  0
 12 13  1  0
 12 14  1  0
 14 15  1  0
 14 16  2  0
 16 17  1  0
 17 18  2  0
 17 19  2  0
 17 20  1  0
 20 21  1  0
 21 22  1  0
 21 23  1  0
 21 24  1  0
 16 25  1  0
 25 26  1  0
 25 27  2  0
 27 28  1  0
 28 29  1  0
 29 30  1  0
 29 31  1  0
 29 32  1  0
  9 33  1  0
 33 34  1  0
 34 35  1  0
 34 36  2  0
 36 37  1  0
 37 38  1  0
 37 39  1  0
 37 40  1  0
  6 41  1  0
 41 42  1  0
 41 43  2  0
 43 44  1  0
 44 45  2  0
 44 46  1  0
 46 47  1  0
 46 48  1  0
 43  2  1  0
 36  7  1  0
 27 11  1  0
M  CHG  2  20  -1  33  -1
M  END
>  <UniqueID>  (40) 
36

>  <SMILES>  (40) 
C[N-]S(=O)(=O)c1ccc(/N=c2\nc(-c3cncc(C(N)=O)c3)c(C)c[n-]2)c(OC)c1

>  <Energy>  (40) 
63.14808085860601

>  <Genealogy>  (40) 
C[N-]S(=O)(=O)c1ccc(N=c2nc(-c3cncc(C(N)=O)c3)c(C)c[n-]2)c(OC)c1 (protonated)
C[N-]S(=O)(=O)c1ccc(/N=c2\nc(-c3cncc(C(N)=O)c3)c(C)c[n-]2)c(OC)c1 (cis-trans isomerization)
C[N-]S(=O)(=O)c1ccc(/N=c2\nc(-c3cncc(C(N)=O)c3)c(C)c[n-]2)c(OC)c1 (3D coordinates assigned)
C[N-]S(=O)(=O)c1ccc(/N=c2\nc(-c3cncc(C(N)=O)c3)c(C)c[n-]2)c(OC)c1 (optimized conformer: 63.14808085860601 kcal/mol)

>  <smiles>  (40) 
CNS(=O)(=O)c1ccc(N=c2nc(-c3cncc(C(N)=O)c3)c(C)c[nH]2)c(OC)c1

>  <score_type>  (40) 
oracle

>  <origin>  (40) 
adgpu

>  <m_score__min__energy>  (40) 
-10.59

>  <m_primary>  (40) 
energy

$$$$
40:0
     RDKit          3D

 46 49  0  0  0  0  0  0  0  0999 V2000
    1.1763   18.6774  -36.3944 H   0  0  0  0  0  0  0  0  0  0  0  0
    0.3520   18.6880  -35.6660 C   0  0  0  0  0  0  0  0  0  0  0  0
    0.1010   19.8100  -34.9410 N   0  0  0  0  0  0  0  0  0  0  0  0
   -0.9220   19.8510  -34.0490 C   0  0  0  0  0  0  0  0  0  0  0  0
   -1.1220   20.9310  -33.3520 N   0  0  0  0  0  0  0  0  0  0  0  0
   -2.1880   21.1330  -32.4080 C   0  0  0  0  0  0  0  0  0  0  0  0
   -3.2680   20.2350  -32.3140 C   0  0  0  0  0  0  0  0  0  0  0  0
   -3.2989   19.3449  -32.9596 H   0  0  0  0  0  0  0  0  0  0  0  0
   -4.3010   20.4710  -31.4030 C   0  0  0  0  0  0  0  0  0  0  0  0
   -5.1395   19.7629  -31.3284 H   0  0  0  0  0  0  0  0  0  0  0  0
   -4.2710   21.6040  -30.5870 C   0  0  0  0  0  0  0  0  0  0  0  0
   -5.0839   21.7844  -29.8682 H   0  0  0  0  0  0  0  0  0  0  0  0
   -3.2080   22.5110  -30.6820 C   0  0  0  0  0  0  0  0  0  0  0  0
   -3.1610   23.9490  -29.6640 S   0  0  0  0  0  0  0  0  0  0  0  0
   -1.7310   24.2630  -29.3290 O   0  0  0  0  0  0  0  0  0  0  0  0
   -3.9070   23.7020  -28.3810 O   0  0  0  0  0  0  0  0  0  0  0  0
   -3.8640   25.3000  -30.4980 N   0  0  0  0  0  0  0  0  0  0  0  0
   -5.3180   25.2060  -30.4480 C   0  0  0  0  0  0  0  0  0  0  0  0
   -5.6482   25.1847  -29.3989 H   0  0  0  0  0  0  0  0  0  0  0  0
   -5.7594   26.0775  -30.9537 H   0  0  0  0  0  0  0  0  0  0  0  0
   -5.6435   24.2849  -30.9537 H   0  0  0  0  0  0  0  0  0  0  0  0
   -2.1800   22.2820  -31.6080 C   0  0  0  0  0  0  0  0  0  0  0  0
   -1.3615   23.0103  -31.7065 H   0  0  0  0  0  0  0  0  0  0  0  0
   -1.6940   18.7460  -33.8630 N   0  0  0  0  0  0  0  0  0  0  0  0
   -1.4640   17.5890  -34.5390 C   0  0  0  0  0  0  0  0  0  0  0  0
   -2.3190   16.4510  -34.3510 N   0  0  0  0  0  0  0  0  0  0  0  0
   -3.5780   16.4630  -34.0170 C   0  0  0  0  0  0  0  0  0  0  0  0
   -4.5240   15.0800  -33.9580 S   0  0  0  0  0  0  0  0  0  0  0  0
   -5.9030   15.9120  -33.4670 C   0  0  0  0  0  0  0  0  0  0  0  0
   -6.8895   15.4652  -33.2741 H   0  0  0  0  0  0  0  0  0  0  0  0
   -5.5810   17.2680  -33.3460 C   0  0  0  0  0  0  0  0  0  0  0  0
   -6.5560   18.3100  -32.9320 C   0  0  0  0  0  0  0  0  0  0  0  0
   -7.5730   18.0070  -32.0070 C   0  0  0  0  0  0  0  0  0  0  0  0
   -7.6477   16.9904  -31.5935 H   0  0  0  0  0  0  0  0  0  0  0  0
   -8.4880   18.9840  -31.6090 C   0  0  0  0  0  0  0  0  0  0  0  0
   -9.2776   18.7346  -30.8849 H   0  0  0  0  0  0  0  0  0  0  0  0
   -8.4020   20.2770  -32.1290 C   0  0  0  0  0  0  0  0  0  0  0  0
   -9.5540   21.5030  -31.6290 Cl  0  0  0  0  0  0  0  0  0  0  0  0
   -7.3990   20.5930  -33.0490 C   0  0  0  0  0  0  0  0  0  0  0  0
   -7.3317   21.6115  -33.4590 H   0  0  0  0  0  0  0  0  0  0  0  0
   -6.4800   19.6170  -33.4500 C   0  0  0  0  0  0  0  0  0  0  0  0
   -5.6930   19.8726  -34.1747 H   0  0  0  0  0  0  0  0  0  0  0  0
   -4.2810   17.5600  -33.6440 N   0  0  0  0  0  0  0  0  0  0  0  0
   -3.8750   18.5090  -33.5140 H   0  0  0  0  0  0  0  0  0  0  0  0
   -0.4360   17.5480  -35.4870 C   0  0  0  0  0  0  0  0  0  0  0  0
   -0.1130   16.0990  -36.4280 Cl  0  0  0  0  0  0  0  0  0  0  0  0
  1  2  1  0
  2  3  1  0
  3  4  1  0
  4  5  2  0
  5  6  1  0
  6  7  2  0
  7  8  1  0
  7  9  1  0
  9 10  1  0
  9 11  2  0
 11 12  1  0
 11 13  1  0
 13 14  1  0
 14 15  2  0
 14 16  2  0
 14 17  1  0
 17 18  1  0
 18 19  1  0
 18 20  1  0
 18 21  1  0
 13 22  2  0
 22 23  1  0
  4 24  1  0
 24 25  2  0
 25 26  1  0
 26 27  2  3
 27 28  1  0
 28 29  1  0
 29 30  1  0
 29 31  2  0
 31 32  1  0
 32 33  2  0
 33 34  1  0
 33 35  1  0
 35 36  1  0
 35 37  2  0
 37 38  1  0
 37 39  1  0
 39 40  1  0
 39 41  2  0
 41 42  1  0
 31 43  1  0
 43 44  1  0
 25 45  1  0
 45 46  1  0
 45  2  2  0
 22  6  1  0
 43 27  1  0
 41 32  1  0
M  CHG  2   3  -1  17  -1
M  END
>  <UniqueID>  (41) 
37

>  <SMILES>  (41) 
C[N-]S(=O)(=O)c1cccc(/N=c2\nc(N=c3[nH]c(-c4ccc(Cl)cc4)cs3)c(Cl)c[n-]2)c1

>  <Energy>  (41) 
90.76369501945433

>  <Genealogy>  (41) 
C[N-]S(=O)(=O)c1cccc(N=c2nc(N=c3[nH]c(-c4ccc(Cl)cc4)cs3)c(Cl)c[n-]2)c1 (protonated)
C[N-]S(=O)(=O)c1cccc(/N=c2\nc(N=c3[nH]c(-c4ccc(Cl)cc4)cs3)c(Cl)c[n-]2)c1 (cis-trans isomerization)
C[N-]S(=O)(=O)c1cccc(/N=c2\nc(N=c3[nH]c(-c4ccc(Cl)cc4)cs3)c(Cl)c[n-]2)c1 (3D coordinates assigned)
C[N-]S(=O)(=O)c1cccc(/N=c2\nc(N=c3[nH]c(-c4ccc(Cl)cc4)cs3)c(Cl)c[n-]2)c1 (optimized conformer: 90.76369501945433 kcal/mol)

>  <smiles>  (41) 
CNS(=O)(=O)c1cccc(N=c2nc(N=c3[nH]c(-c4ccc(Cl)cc4)cs3)c(Cl)c[nH]2)c1

>  <score_type>  (41) 
oracle

>  <origin>  (41) 
adgpu

>  <m_score__min__energy>  (41) 
-11.31

>  <m_primary>  (41) 
energy

$$$$
41:0
     RDKit          3D

 53 56  0  0  0  0  0  0  0  0999 V2000
   -4.8350   26.0560  -26.2440 H   0  0  0  0  0  0  0  0  0  0  0  0
   -4.5130   25.0950  -26.2700 O   0  0  0  0  0  0  0  0  0  0  0  0
   -3.9190   24.5570  -27.4090 C   0  0  0  0  0  0  0  0  0  0  0  0
   -4.6280   24.5360  -28.6140 C   0  0  0  0  0  0  0  0  0  0  0  0
   -5.6492   24.9427  -28.6559 H   0  0  0  0  0  0  0  0  0  0  0  0
   -4.0440   24.0000  -29.7660 C   0  0  0  0  0  0  0  0  0  0  0  0
   -4.6139   23.9697  -30.7064 H   0  0  0  0  0  0  0  0  0  0  0  0
   -2.7290   23.4990  -29.7260 C   0  0  0  0  0  0  0  0  0  0  0  0
   -2.1010   22.9120  -30.8800 N   0  0  0  0  0  0  0  0  0  0  0  0
   -2.6180   22.0340  -31.6890 C   0  0  0  0  0  0  0  0  0  0  0  0
   -3.9090   21.6310  -31.5640 N   0  0  0  0  0  0  0  0  0  0  0  0
   -4.4430   20.7310  -32.4320 C   0  0  0  0  0  0  0  0  0  0  0  0
   -5.8130   20.3030  -32.2940 N   0  0  0  0  0  0  0  0  0  0  0  0
   -6.8820   21.3120  -32.2880 C   0  0  0  0  0  0  0  0  0  0  0  0
   -6.7224   22.0001  -31.4447 H   0  0  0  0  0  0  0  0  0  0  0  0
   -6.8533   21.8585  -33.2422 H   0  0  0  0  0  0  0  0  0  0  0  0
   -8.2570   20.6540  -32.1440 C   0  0  0  0  0  0  0  0  0  0  0  0
   -8.3912   20.3160  -31.1059 H   0  0  0  0  0  0  0  0  0  0  0  0
   -9.0349   21.3872  -32.4036 H   0  0  0  0  0  0  0  0  0  0  0  0
   -8.3640   19.5040  -33.0450 N   0  0  0  0  0  0  0  0  0  0  0  0
   -8.1850   19.8300  -34.0240 H   0  0  0  0  0  0  0  0  0  0  0  0
   -7.4060   18.4300  -32.7150 C   0  0  0  0  0  0  0  0  0  0  0  0
   -7.9213   17.6926  -32.0819 H   0  0  0  0  0  0  0  0  0  0  0  0
   -7.0642   18.0107  -33.6728 H   0  0  0  0  0  0  0  0  0  0  0  0
   -6.1410   18.9070  -31.9680 C   0  0  0  0  0  0  0  0  0  0  0  0
   -6.3139   18.8247  -30.8848 H   0  0  0  0  0  0  0  0  0  0  0  0
   -5.2978   18.2737  -32.2809 H   0  0  0  0  0  0  0  0  0  0  0  0
   -3.6690   20.2410  -33.4380 N   0  0  0  0  0  0  0  0  0  0  0  0
   -2.3790   20.6370  -33.5740 C   0  0  0  0  0  0  0  0  0  0  0  0
   -1.6700   20.1700  -34.5610 N   0  0  0  0  0  0  0  0  0  0  0  0
   -0.2840   20.4480  -34.8210 C   0  0  0  0  0  0  0  0  0  0  0  0
    0.6650   19.4490  -34.5720 C   0  0  0  0  0  0  0  0  0  0  0  0
    0.3426   18.4741  -34.1775 H   0  0  0  0  0  0  0  0  0  0  0  0
    2.0190   19.6840  -34.8220 C   0  0  0  0  0  0  0  0  0  0  0  0
    2.7566   18.8895  -34.6357 H   0  0  0  0  0  0  0  0  0  0  0  0
    2.4400   20.9250  -35.3080 C   0  0  0  0  0  0  0  0  0  0  0  0
    3.5045   21.0987  -35.5241 H   0  0  0  0  0  0  0  0  0  0  0  0
    1.5060   21.9480  -35.5200 C   0  0  0  0  0  0  0  0  0  0  0  0
    2.0280   23.5150  -36.1370 S   0  0  0  0  0  0  0  0  0  0  0  0
    2.1700   24.4770  -34.9910 O   0  0  0  0  0  0  0  0  0  0  0  0
    0.9970   24.0580  -37.0870 O   0  0  0  0  0  0  0  0  0  0  0  0
    3.5590   23.3700  -36.9470 N   0  0  0  0  0  0  0  0  0  0  0  0
    3.9630   24.6650  -37.4850 C   0  0  0  0  0  0  0  0  0  0  0  0
    4.1784   25.3554  -36.6561 H   0  0  0  0  0  0  0  0  0  0  0  0
    4.8650   24.5404  -38.1022 H   0  0  0  0  0  0  0  0  0  0  0  0
    3.1502   25.0754  -38.1022 H   0  0  0  0  0  0  0  0  0  0  0  0
    0.1490   21.7130  -35.2630 C   0  0  0  0  0  0  0  0  0  0  0  0
   -0.5827   22.5216  -35.4074 H   0  0  0  0  0  0  0  0  0  0  0  0
   -1.8640   21.5460  -32.7030 N   0  0  0  0  0  0  0  0  0  0  0  0
   -2.0360   23.4950  -28.5090 C   0  0  0  0  0  0  0  0  0  0  0  0
   -1.0236   23.0679  -28.4584 H   0  0  0  0  0  0  0  0  0  0  0  0
   -2.6220   24.0300  -27.3580 C   0  0  0  0  0  0  0  0  0  0  0  0
   -2.0635   24.0372  -26.4103 H   0  0  0  0  0  0  0  0  0  0  0  0
  1  2  1  0
  2  3  1  0
  3  4  2  0
  4  5  1  0
  4  6  1  0
  6  7  1  0
  6  8  2  0
  8  9  1  0
  9 10  2  3
 10 11  1  0
 11 12  1  0
 12 13  1  0
 13 14  1  0
 14 15  1  0
 14 16  1  0
 14 17  1  0
 17 18  1  0
 17 19  1  0
 17 20  1  0
 20 21  1  0
 20 22  1  0
 22 23  1  0
 22 24  1  0
 22 25  1  0
 25 26  1  0
 25 27  1  0
 12 28  2  0
 28 29  1  0
 29 30  2  0
 30 31  1  0
 31 32  2  0
 32 33  1  0
 32 34  1  0
 34 35  1  0
 34 36  2  0
 36 37  1  0
 36 38  1  0
 38 39  1  0
 39 40  2  0
 39 41  2  0
 39 42  1  0
 42 43  1  0
 43 44  1  0
 43 45  1  0
 43 46  1  0
 38 47  2  0
 47 48  1  0
 29 49  1  0
  8 50  1  0
 50 51  1  0
 50 52  2  0
 52 53  1  0
 52  3  1  0
 49 10  1  0
 25 13  1  0
 47 31  1  0
M  CHG  3  11  -1  42  -1  49  -1
M  END
>  <UniqueID>  (42) 
38

>  <SMILES>  (42) 
C[N-]S(=O)(=O)c1cccc(/N=c2/nc(N3CCNCC3)[n-]c(=Nc3ccc(O)cc3)[n-]2)c1

>  <Energy>  (42) 
70.14931779680114

>  <Genealogy>  (42) 
C[N-]S(=O)(=O)c1cccc(N=c2nc(N3CCNCC3)[n-]c(=Nc3ccc(O)cc3)[n-]2)c1 (protonated)
C[N-]S(=O)(=O)c1cccc(/N=c2/nc(N3CCNCC3)[n-]c(=Nc3ccc(O)cc3)[n-]2)c1 (cis-trans isomerization)
C[N-]S(=O)(=O)c1cccc(/N=c2/nc(N3CCNCC3)[n-]c(=Nc3ccc(O)cc3)[n-]2)c1 (3D coordinates assigned)
C[N-]S(=O)(=O)c1cccc(/N=c2/nc(N3CCNCC3)[n-]c(=Nc3ccc(O)cc3)[n-]2)c1 (nonaromatic ring conformer: 70.14931779680114 kcal/mol)

>  <smiles>  (42) 
CNS(=O)(=O)c1cccc(N=c2nc(N3CCNCC3)[nH]c(=Nc3ccc(O)cc3)[nH]2)c1

>  <score_type>  (42) 
oracle

>  <origin>  (42) 
adgpu

>  <m_score__min__energy>  (42) 
-9.5899999999999999

>  <m_primary>  (42) 
energy

$$$$
42:0
     RDKit          3D

 35 37  0  0  0  0  0  0  0  0999 V2000
   -2.0460   25.1610  -29.3330 O   0  0  0  0  0  0  0  0  0  0  0  0
   -3.1840   24.7550  -29.6830 C   0  0  0  0  0  0  0  0  0  0  0  0
   -3.8640   25.3070  -30.7240 N   0  0  0  0  0  0  0  0  0  0  0  0
   -4.9900   24.5810  -30.7340 C   0  0  0  0  0  0  0  0  0  0  0  0
   -6.0710   24.6740  -31.6020 C   0  0  0  0  0  0  0  0  0  0  0  0
   -7.1280   23.7650  -31.4120 C   0  0  0  0  0  0  0  0  0  0  0  0
   -7.0570   22.8060  -30.3740 C   0  0  0  0  0  0  0  0  0  0  0  0
   -8.1130   21.9020  -30.2110 O   0  0  0  0  0  0  0  0  0  0  0  0
   -8.5750   21.0180  -31.2330 C   0  0  0  0  0  0  0  0  0  0  0  0
   -7.5700   20.9490  -32.3850 C   0  0  0  0  0  0  0  0  0  0  0  0
   -7.7920   19.7320  -33.1740 N   0  0  0  0  0  0  0  0  0  0  0  0
   -6.3000   18.8840  -33.4570 S   0  0  0  0  0  0  0  0  0  0  0  0
   -6.3740   17.5250  -32.8180 O   0  0  0  0  0  0  0  0  0  0  0  0
   -6.0580   18.7050  -34.9310 O   0  0  0  0  0  0  0  0  0  0  0  0
   -4.9820   19.8000  -32.7320 C   0  0  0  0  0  0  0  0  0  0  0  0
   -4.8040   19.8040  -31.3410 C   0  0  0  0  0  0  0  0  0  0  0  0
   -3.7240   20.4860  -30.7730 C   0  0  0  0  0  0  0  0  0  0  0  0
   -2.8180   21.1710  -31.5900 C   0  0  0  0  0  0  0  0  0  0  0  0
   -1.4510   22.0070  -30.8770 Cl  0  0  0  0  0  0  0  0  0  0  0  0
   -2.9960   21.1740  -32.9770 C   0  0  0  0  0  0  0  0  0  0  0  0
   -4.0710   20.4860  -33.5470 C   0  0  0  0  0  0  0  0  0  0  0  0
   -5.9650   22.7680  -29.5450 N   0  0  0  0  0  0  0  0  0  0  0  0
   -4.9590   23.6540  -29.7440 C   0  0  0  0  0  0  0  0  0  0  0  0
   -3.8180   23.7330  -29.0490 N   0  0  0  0  0  0  0  0  0  0  0  0
   -6.0992   25.4265  -32.4038 H   0  0  0  0  0  0  0  0  0  0  0  0
   -8.0089   23.7998  -32.0699 H   0  0  0  0  0  0  0  0  0  0  0  0
   -8.7062   20.0120  -30.8078 H   0  0  0  0  0  0  0  0  0  0  0  0
   -9.5320   21.3966  -31.6214 H   0  0  0  0  0  0  0  0  0  0  0  0
   -7.6962   21.8300  -33.0314 H   0  0  0  0  0  0  0  0  0  0  0  0
   -6.5502   20.9307  -31.9732 H   0  0  0  0  0  0  0  0  0  0  0  0
   -8.1840   20.0050  -34.1040 H   0  0  0  0  0  0  0  0  0  0  0  0
   -5.5160   19.2691  -30.6952 H   0  0  0  0  0  0  0  0  0  0  0  0
   -3.5862   20.4841  -29.6817 H   0  0  0  0  0  0  0  0  0  0  0  0
   -2.2891   21.7185  -33.6203 H   0  0  0  0  0  0  0  0  0  0  0  0
   -4.2025   20.4829  -34.6391 H   0  0  0  0  0  0  0  0  0  0  0  0
  1  2  2  0
  2  3  1  0
  3  4  1  0
  4  5  2  0
  5  6  1  0
  6  7  2  0
  7  8  1  0
  8  9  1  0
  9 10  1  0
 10 11  1  0
 11 12  1  0
 12 13  2  0
 12 14  2  0
 12 15  1  0
 15 16  2  0
 16 17  1  0
 17 18  2  0
 18 19  1  0
 18 20  1  0
 20 21  2  0
  7 22  1  0
 22 23  2  0
 23 24  1  0
 24  2  1  0
 23  4  1  0
 21 15  1  0
  5 25  1  0
  6 26  1  0
  9 27  1  0
  9 28  1  0
 10 29  1  0
 10 30  1  0
 11 31  1  0
 16 32  1  0
 17 33  1  0
 20 34  1  0
 21 35  1  0
M  CHG  2   3  -1  24  -1
M  END
>  <UniqueID>  (43) 
39

>  <SMILES>  (43) 
O=c1[n-]c2ccc(OCCNS(=O)(=O)c3ccc(Cl)cc3)nc2[n-]1

>  <Energy>  (43) 
66.58212110918947

>  <Genealogy>  (43) 
O=c1[n-]c2ccc(OCCNS(=O)(=O)c3ccc(Cl)cc3)nc2[n-]1 (protonated)
O=c1[n-]c2ccc(OCCNS(=O)(=O)c3ccc(Cl)cc3)nc2[n-]1 (3D coordinates assigned)
O=c1[n-]c2ccc(OCCNS(=O)(=O)c3ccc(Cl)cc3)nc2[n-]1 (optimized conformer: 66.58212110918947 kcal/mol)

>  <smiles>  (43) 
O=c1[nH]c2ccc(OCCNS(=O)(=O)c3ccc(Cl)cc3)nc2[nH]1

>  <score_type>  (43) 
oracle

>  <origin>  (43) 
adgpu

>  <m_score__min__energy>  (43) 
-11.09

>  <m_primary>  (43) 
energy

$$$$
43:0
     RDKit          3D

 58 61  0  0  0  0  0  0  0  0999 V2000
    5.0170   18.5900  -32.5560 C   0  0  0  0  0  0  0  0  0  0  0  0
    4.1000   17.6870  -31.7950 C   0  0  0  0  0  0  0  0  0  0  0  0
    3.7970   16.4360  -32.1890 N   0  0  0  0  0  0  0  0  0  0  0  0
    2.9720   15.9480  -31.3120 O   0  0  0  0  0  0  0  0  0  0  0  0
    2.7150   16.8130  -30.3600 C   0  0  0  0  0  0  0  0  0  0  0  0
    1.9030   16.5270  -29.3830 N   0  0  0  0  0  0  0  0  0  0  0  0
    1.4270   17.4980  -28.0250 S   0  0  0  0  0  0  0  0  0  0  0  0
    0.6790   16.6640  -27.0230 O   0  0  0  0  0  0  0  0  0  0  0  0
    2.6250   18.1310  -27.3730 O   0  0  0  0  0  0  0  0  0  0  0  0
    0.3750   18.7800  -28.6140 C   0  0  0  0  0  0  0  0  0  0  0  0
   -0.0500   18.7980  -29.9490 C   0  0  0  0  0  0  0  0  0  0  0  0
   -0.8820   19.8240  -30.4090 C   0  0  0  0  0  0  0  0  0  0  0  0
   -1.2810   20.8570  -29.5460 C   0  0  0  0  0  0  0  0  0  0  0  0
   -2.1540   21.8880  -30.0370 N   0  0  0  0  0  0  0  0  0  0  0  0
   -3.2480   22.4360  -29.2850 C   0  0  0  0  0  0  0  0  0  0  0  0
   -3.2520   22.3450  -28.0260 O   0  0  0  0  0  0  0  0  0  0  0  0
   -4.3400   23.1750  -29.9620 C   0  0  0  0  0  0  0  0  0  0  0  0
   -5.4810   22.4770  -30.3970 C   0  0  0  0  0  0  0  0  0  0  0  0
   -6.5310   23.1500  -31.0340 C   0  0  0  0  0  0  0  0  0  0  0  0
   -7.9680   22.2590  -31.5330 S   0  0  0  0  0  0  0  0  0  0  0  0
   -8.5260   21.4970  -30.3630 O   0  0  0  0  0  0  0  0  0  0  0  0
   -9.0040   23.2500  -31.9870 O   0  0  0  0  0  0  0  0  0  0  0  0
   -7.5930   21.1720  -32.8550 N   0  0  0  0  0  0  0  0  0  0  0  0
   -6.2210   20.6420  -32.7620 C   0  0  0  0  0  0  0  0  0  0  0  0
   -6.0760   19.5830  -31.6440 C   0  0  0  0  0  0  0  0  0  0  0  0
   -7.3110   19.0300  -31.2220 O   0  0  0  0  0  0  0  0  0  0  0  0
   -8.1370   18.7730  -32.3350 C   0  0  0  0  0  0  0  0  0  0  0  0
   -8.5980   20.0930  -32.9780 C   0  0  0  0  0  0  0  0  0  0  0  0
   -6.4460   24.5320  -31.2390 C   0  0  0  0  0  0  0  0  0  0  0  0
   -5.3120   25.2330  -30.8260 C   0  0  0  0  0  0  0  0  0  0  0  0
   -4.2550   24.5630  -30.2000 C   0  0  0  0  0  0  0  0  0  0  0  0
   -3.1220   25.2860  -29.8410 O   0  0  0  0  0  0  0  0  0  0  0  0
   -0.8600   20.8280  -28.2050 C   0  0  0  0  0  0  0  0  0  0  0  0
   -0.0320   19.8010  -27.7450 C   0  0  0  0  0  0  0  0  0  0  0  0
    3.4350   17.9830  -30.6140 C   0  0  0  0  0  0  0  0  0  0  0  0
    3.4720   19.2970  -29.8900 C   0  0  0  0  0  0  0  0  0  0  0  0
    5.6180   19.1818  -31.8499 H   0  0  0  0  0  0  0  0  0  0  0  0
    5.6840   17.9863  -33.1890 H   0  0  0  0  0  0  0  0  0  0  0  0
    4.4236   19.2662  -33.1890 H   0  0  0  0  0  0  0  0  0  0  0  0
    0.2717   18.0027  -30.6375 H   0  0  0  0  0  0  0  0  0  0  0  0
   -1.2260   19.8215  -31.4538 H   0  0  0  0  0  0  0  0  0  0  0  0
   -1.9170   22.3400  -30.9490 H   0  0  0  0  0  0  0  0  0  0  0  0
   -5.5493   21.3911  -30.2352 H   0  0  0  0  0  0  0  0  0  0  0  0
   -5.9542   20.1799  -33.7239 H   0  0  0  0  0  0  0  0  0  0  0  0
   -5.5516   21.4807  -32.5203 H   0  0  0  0  0  0  0  0  0  0  0  0
   -5.4396   18.7675  -32.0180 H   0  0  0  0  0  0  0  0  0  0  0  0
   -5.6362   20.0915  -30.7734 H   0  0  0  0  0  0  0  0  0  0  0  0
   -7.5743   18.1861  -33.0760 H   0  0  0  0  0  0  0  0  0  0  0  0
   -9.0217   18.2114  -32.0003 H   0  0  0  0  0  0  0  0  0  0  0  0
   -8.7932   19.9145  -34.0457 H   0  0  0  0  0  0  0  0  0  0  0  0
   -9.5036   20.4216  -32.4471 H   0  0  0  0  0  0  0  0  0  0  0  0
   -7.2745   25.0666  -31.7265 H   0  0  0  0  0  0  0  0  0  0  0  0
   -5.2488   26.3183  -30.9935 H   0  0  0  0  0  0  0  0  0  0  0  0
   -1.1847   21.6192  -27.5132 H   0  0  0  0  0  0  0  0  0  0  0  0
    0.3016   19.7939  -26.6968 H   0  0  0  0  0  0  0  0  0  0  0  0
    3.4670   19.1179  -28.8047 H   0  0  0  0  0  0  0  0  0  0  0  0
    4.3859   19.8428  -30.1673 H   0  0  0  0  0  0  0  0  0  0  0  0
    2.5903   19.8934  -30.1673 H   0  0  0  0  0  0  0  0  0  0  0  0
  1  2  1  0
  2  3  1  0
  3  4  1  0
  4  5  1  0
  5  6  2  3
  6  7  1  0
  7  8  2  0
  7  9  2  0
  7 10  1  0
 10 11  2  0
 11 12  1  0
 12 13  2  0
 13 14  1  0
 14 15  1  0
 15 16  2  0
 15 17  1  0
 17 18  2  0
 18 19  1  0
 19 20  1  0
 20 21  2  0
 20 22  2  0
 20 23  1  0
 23 24  1  0
 24 25  1  0
 25 26  1  0
 26 27  1  0
 27 28  1  0
 19 29  2  0
 29 30  1  0
 30 31  2  0
 31 32  1  0
 13 33  1  0
 33 34  2  0
  5 35  1  0
 35 36  1  0
 35  2  2  0
 34 10  1  0
 31 17  1  0
 28 23  1  0
  1 37  1  0
  1 38  1  0
  1 39  1  0
 11 40  1  0
 12 41  1  0
 14 42  1  0
 18 43  1  0
 24 44  1  0
 24 45  1  0
 25 46  1  0
 25 47  1  0
 27 48  1  0
 27 49  1  0
 28 50  1  0
 28 51  1  0
 29 52  1  0
 30 53  1  0
 33 54  1  0
 34 55  1  0
 36 56  1  0
 36 57  1  0
 36 58  1  0
M  CHG  2   3  -1  32  -1
M  END
>  <UniqueID>  (44) 
40

>  <SMILES>  (44) 
Cc1[n-]oc(=NS(=O)(=O)c2ccc(NC(=O)c3cc(S(=O)(=O)N4CCOCC4)ccc3[O-])cc2)c1C

>  <Energy>  (44) 
119.653083971547

>  <Genealogy>  (44) 
Cc1[n-]oc(=NS(=O)(=O)c2ccc(NC(=O)c3cc(S(=O)(=O)N4CCOCC4)ccc3[O-])cc2)c1C (protonated)
Cc1[n-]oc(=NS(=O)(=O)c2ccc(NC(=O)c3cc(S(=O)(=O)N4CCOCC4)ccc3[O-])cc2)c1C (3D coordinates assigned)
Cc1[n-]oc(=NS(=O)(=O)c2ccc(NC(=O)c3cc(S(=O)(=O)N4CCOCC4)ccc3[O-])cc2)c1C (nonaromatic ring conformer: 119.653083971547 kcal/mol)

>  <smiles>  (44) 
Cc1[nH]oc(=NS(=O)(=O)c2ccc(NC(=O)c3cc(S(=O)(=O)N4CCOCC4)ccc3O)cc2)c1C

>  <score_type>  (44) 
oracle

>  <origin>  (44) 
adgpu

>  <m_score__min__energy>  (44) 
-13.06

>  <m_primary>  (44) 
energy

$$$$
44:0
     RDKit          3D

 56 59  0  0  0  0  0  0  0  0999 V2000
   -5.3830   23.7030  -32.0600 O   0  0  0  0  0  0  0  0  0  0  0  0
   -5.6980   22.5110  -32.3260 C   0  0  0  0  0  0  0  0  0  0  0  0
   -4.6830   21.5580  -32.6720 N   0  0  0  0  0  0  0  0  0  0  0  0
   -3.3170   21.5680  -32.2340 C   0  0  0  0  0  0  0  0  0  0  0  0
   -2.3140   20.8360  -32.8960 C   0  0  0  0  0  0  0  0  0  0  0  0
   -1.0010   20.8580  -32.4220 C   0  0  0  0  0  0  0  0  0  0  0  0
   -0.6780   21.5920  -31.2800 C   0  0  0  0  0  0  0  0  0  0  0  0
   -1.6720   22.3030  -30.5970 C   0  0  0  0  0  0  0  0  0  0  0  0
   -1.2460   23.2190  -29.1520 S   0  0  0  0  0  0  0  0  0  0  0  0
    0.1410   23.7860  -29.2880 O   0  0  0  0  0  0  0  0  0  0  0  0
   -2.2210   24.3540  -29.0030 O   0  0  0  0  0  0  0  0  0  0  0  0
   -1.3230   22.1840  -27.7460 N   0  0  0  0  0  0  0  0  0  0  0  0
   -2.5050   21.2970  -27.8390 C   0  0  0  0  0  0  0  0  0  0  0  0
   -2.3800   20.0950  -26.8970 C   0  0  0  0  0  0  0  0  0  0  0  0
   -1.1690   19.2220  -27.2680 C   0  0  0  0  0  0  0  0  0  0  0  0
   -0.0700   20.0120  -28.0000 C   0  0  0  0  0  0  0  0  0  0  0  0
   -0.0350   21.4760  -27.5350 C   0  0  0  0  0  0  0  0  0  0  0  0
   -2.9900   22.2840  -31.0730 C   0  0  0  0  0  0  0  0  0  0  0  0
   -7.1170   22.0820  -32.2670 C   0  0  0  0  0  0  0  0  0  0  0  0
   -8.0960   23.0460  -31.9660 C   0  0  0  0  0  0  0  0  0  0  0  0
   -9.4350   22.6840  -31.8180 C   0  0  0  0  0  0  0  0  0  0  0  0
   -9.8210   21.3530  -31.9690 C   0  0  0  0  0  0  0  0  0  0  0  0
   -8.8700   20.3820  -32.2850 C   0  0  0  0  0  0  0  0  0  0  0  0
   -7.5170   20.7290  -32.4510 C   0  0  0  0  0  0  0  0  0  0  0  0
   -6.5720   19.6700  -32.8760 C   0  0  0  0  0  0  0  0  0  0  0  0
   -6.1960   19.5560  -34.2220 C   0  0  0  0  0  0  0  0  0  0  0  0
   -5.2930   18.5690  -34.6240 C   0  0  0  0  0  0  0  0  0  0  0  0
   -4.7300   17.6920  -33.6800 C   0  0  0  0  0  0  0  0  0  0  0  0
   -3.7970   16.5940  -34.1250 C   0  0  0  0  0  0  0  0  0  0  0  0
   -2.7850   17.1400  -34.8920 F   0  0  0  0  0  0  0  0  0  0  0  0
   -3.2380   15.9600  -33.0290 F   0  0  0  0  0  0  0  0  0  0  0  0
   -4.4720   15.6480  -34.8760 F   0  0  0  0  0  0  0  0  0  0  0  0
   -5.1190   17.7980  -32.3330 C   0  0  0  0  0  0  0  0  0  0  0  0
   -6.0200   18.7890  -31.9320 C   0  0  0  0  0  0  0  0  0  0  0  0
   -2.5651   20.2450  -33.7891 H   0  0  0  0  0  0  0  0  0  0  0  0
   -0.2181   20.2946  -32.9508 H   0  0  0  0  0  0  0  0  0  0  0  0
    0.3597   21.6120  -30.9157 H   0  0  0  0  0  0  0  0  0  0  0  0
   -3.4043   21.8703  -27.5696 H   0  0  0  0  0  0  0  0  0  0  0  0
   -2.5747   20.9215  -28.8706 H   0  0  0  0  0  0  0  0  0  0  0  0
   -2.2582   20.4582  -25.8659 H   0  0  0  0  0  0  0  0  0  0  0  0
   -3.2906   19.4847  -26.9878 H   0  0  0  0  0  0  0  0  0  0  0  0
   -0.7438   18.7996  -26.3456 H   0  0  0  0  0  0  0  0  0  0  0  0
   -1.5230   18.4350  -27.9501 H   0  0  0  0  0  0  0  0  0  0  0  0
    0.9049   19.5464  -27.7932 H   0  0  0  0  0  0  0  0  0  0  0  0
   -0.2874   19.9940  -29.0782 H   0  0  0  0  0  0  0  0  0  0  0  0
    0.2045   21.4970  -26.4616 H   0  0  0  0  0  0  0  0  0  0  0  0
    0.7267   21.9936  -28.1366 H   0  0  0  0  0  0  0  0  0  0  0  0
   -3.7738   22.8346  -30.5322 H   0  0  0  0  0  0  0  0  0  0  0  0
   -7.8019   24.0991  -31.8457 H   0  0  0  0  0  0  0  0  0  0  0  0
  -10.1879   23.4504  -31.5817 H   0  0  0  0  0  0  0  0  0  0  0  0
  -10.8755   21.0681  -31.8390 H   0  0  0  0  0  0  0  0  0  0  0  0
   -9.1817   19.3340  -32.4056 H   0  0  0  0  0  0  0  0  0  0  0  0
   -6.6151   20.2487  -34.9666 H   0  0  0  0  0  0  0  0  0  0  0  0
   -5.0206   18.4772  -35.6858 H   0  0  0  0  0  0  0  0  0  0  0  0
   -4.7118   17.0967  -31.5898 H   0  0  0  0  0  0  0  0  0  0  0  0
   -6.2979   18.8791  -30.8715 H   0  0  0  0  0  0  0  0  0  0  0  0
  1  2  2  0
  2  3  1  0
  3  4  1  0
  4  5  2  0
  5  6  1  0
  6  7  2  0
  7  8  1  0
  8  9  1  0
  9 10  2  0
  9 11  2  0
  9 12  1  0
 12 13  1  0
 13 14  1  0
 14 15  1  0
 15 16  1  0
 16 17  1  0
  8 18  2  0
  2 19  1  0
 19 20  2  0
 20 21  1  0
 21 22  2  0
 22 23  1  0
 23 24  2  0
 24 25  1  0
 25 26  2  0
 26 27  1  0
 27 28  2  0
 28 29  1  0
 29 30  1  0
 29 31  1  0
 29 32  1  0
 28 33  1  0
 33 34  2  0
 18  4  1  0
 24 19  1  0
 34 25  1  0
 17 12  1  0
  5 35  1  0
  6 36  1  0
  7 37  1  0
 13 38  1  0
 13 39  1  0
 14 40  1  0
 14 41  1  0
 15 42  1  0
 15 43  1  0
 16 44  1  0
 16 45  1  0
 17 46  1  0
 17 47  1  0
 18 48  1  0
 20 49  1  0
 21 50  1  0
 22 51  1  0
 23 52  1  0
 26 53  1  0
 27 54  1  0
 33 55  1  0
 34 56  1  0
M  CHG  1   3  -1
M  END
>  <UniqueID>  (45) 
41

>  <SMILES>  (45) 
O=C([N-]c1cccc(S(=O)(=O)N2CCCCC2)c1)c1ccccc1-c1ccc(C(F)(F)F)cc1

>  <Energy>  (45) 
79.54840433457156

>  <Genealogy>  (45) 
O=C([N-]c1cccc(S(=O)(=O)N2CCCCC2)c1)c1ccccc1-c1ccc(C(F)(F)F)cc1 (protonated)
O=C([N-]c1cccc(S(=O)(=O)N2CCCCC2)c1)c1ccccc1-c1ccc(C(F)(F)F)cc1 (3D coordinates assigned)
O=C([N-]c1cccc(S(=O)(=O)N2CCCCC2)c1)c1ccccc1-c1ccc(C(F)(F)F)cc1 (nonaromatic ring conformer: 79.54840433457156 kcal/mol)

>  <smiles>  (45) 
O=C(Nc1cccc(S(=O)(=O)N2CCCCC2)c1)c1ccccc1-c1ccc(C(F)(F)F)cc1

>  <score_type>  (45) 
oracle

>  <origin>  (45) 
adgpu

>  <m_score__min__energy>  (45) 
-11.449999999999999

>  <m_primary>  (45) 
energy

$$$$
45:0
     RDKit          3D

 18 18  0  0  0  0  0  0  0  0999 V2000
   -5.4360   21.5390  -32.8700 N   0  0  0  0  0  0  0  0  0  0  0  0
   -5.6820   22.6160  -31.9610 C   0  0  0  0  0  0  0  0  0  0  0  0
   -6.9910   22.9280  -31.5790 C   0  0  0  0  0  0  0  0  0  0  0  0
   -7.2310   23.9750  -30.6880 C   0  0  0  0  0  0  0  0  0  0  0  0
   -6.1690   24.7280  -30.1610 C   0  0  0  0  0  0  0  0  0  0  0  0
   -6.4640   25.7620  -29.2120 N   0  0  0  0  0  0  0  0  0  0  0  0
   -4.8430   24.4290  -30.5620 C   0  0  0  0  0  0  0  0  0  0  0  0
   -3.7200   25.1980  -30.1060 N   0  0  0  0  0  0  0  0  0  0  0  0
   -4.6150   23.3660  -31.4510 C   0  0  0  0  0  0  0  0  0  0  0  0
   -5.6550   20.5530  -32.6030 H   0  0  0  0  0  0  0  0  0  0  0  0
   -5.0330   21.7200  -33.8160 H   0  0  0  0  0  0  0  0  0  0  0  0
   -7.8334   22.3466  -31.9819 H   0  0  0  0  0  0  0  0  0  0  0  0
   -8.2641   24.2133  -30.3950 H   0  0  0  0  0  0  0  0  0  0  0  0
   -6.6980   25.5630  -28.2170 H   0  0  0  0  0  0  0  0  0  0  0  0
   -6.5480   26.7550  -29.5260 H   0  0  0  0  0  0  0  0  0  0  0  0
   -3.5410   25.3910  -29.0990 H   0  0  0  0  0  0  0  0  0  0  0  0
   -3.0960   25.6750  -30.7950 H   0  0  0  0  0  0  0  0  0  0  0  0
   -3.5856   23.1195  -31.7504 H   0  0  0  0  0  0  0  0  0  0  0  0
  1  2  1  0
  2  3  2  0
  3  4  1  0
  4  5  2  0
  5  6  1  0
  5  7  1  0
  7  8  1  0
  7  9  2  0
  9  2  1  0
  1 10  1  0
  1 11  1  0
  3 12  1  0
  4 13  1  0
  6 14  1  0
  6 15  1  0
  8 16  1  0
  8 17  1  0
  9 18  1  0
M  END
>  <UniqueID>  (46) 
42

>  <SMILES>  (46) 
Nc1ccc(N)c(N)c1

>  <Energy>  (46) 
16.789552338842814

>  <Genealogy>  (46) 
Nc1ccc(N)c(N)c1 (3D coordinates assigned)
Nc1ccc(N)c(N)c1 (optimized conformer: 16.789552338842814 kcal/mol)

>  <smiles>  (46) 
Nc1ccc(N)c(N)c1

>  <score_type>  (46) 
oracle

>  <origin>  (46) 
adgpu

>  <m_score__min__energy>  (46) 
-4.6900000000000004

>  <m_primary>  (46) 
energy

$$$$
46:0
     RDKit          3D

 48 50  0  0  0  0  0  0  0  0999 V2000
   -3.7340   15.8260  -34.9280 C   0  0  0  0  0  0  0  0  0  0  0  0
   -4.6360   16.7800  -34.2710 N   0  0  0  0  0  0  0  0  0  0  0  0
   -6.0320   16.3900  -34.0390 C   0  0  0  0  0  0  0  0  0  0  0  0
   -4.1540   18.0830  -33.8510 C   0  0  0  0  0  0  0  0  0  0  0  0
   -2.8310   18.2550  -33.3950 C   0  0  0  0  0  0  0  0  0  0  0  0
   -2.3680   19.5110  -32.9930 C   0  0  0  0  0  0  0  0  0  0  0  0
   -3.2140   20.6300  -33.0480 C   0  0  0  0  0  0  0  0  0  0  0  0
   -2.7860   21.9300  -32.6180 N   0  0  0  0  0  0  0  0  0  0  0  0
   -3.1020   22.5610  -31.3690 C   0  0  0  0  0  0  0  0  0  0  0  0
   -2.2260   22.6290  -30.4640 O   0  0  0  0  0  0  0  0  0  0  0  0
   -4.4420   23.1760  -31.1670 C   0  0  0  0  0  0  0  0  0  0  0  0
   -5.6010   22.4220  -31.4390 C   0  0  0  0  0  0  0  0  0  0  0  0
   -6.8770   22.9610  -31.2310 C   0  0  0  0  0  0  0  0  0  0  0  0
   -8.3140   21.9850  -31.5400 S   0  0  0  0  0  0  0  0  0  0  0  0
   -9.3440   22.8300  -32.2370 O   0  0  0  0  0  0  0  0  0  0  0  0
   -8.8980   21.5350  -30.2290 O   0  0  0  0  0  0  0  0  0  0  0  0
   -7.9550   20.5780  -32.5210 N   0  0  0  0  0  0  0  0  0  0  0  0
   -9.1850   19.8870  -32.9210 C   0  0  0  0  0  0  0  0  0  0  0  0
   -9.4140   18.7280  -31.9620 C   0  0  0  0  0  0  0  0  0  0  0  0
   -8.0910   18.5120  -31.2550 C   0  0  0  0  0  0  0  0  0  0  0  0
   -7.1590   19.5980  -31.7750 C   0  0  0  0  0  0  0  0  0  0  0  0
   -7.0040   24.2740  -30.7650 C   0  0  0  0  0  0  0  0  0  0  0  0
   -5.8670   25.0370  -30.4980 C   0  0  0  0  0  0  0  0  0  0  0  0
   -4.5910   24.4990  -30.6910 C   0  0  0  0  0  0  0  0  0  0  0  0
   -3.4860   25.2940  -30.4070 O   0  0  0  0  0  0  0  0  0  0  0  0
   -4.5350   20.4650  -33.4730 C   0  0  0  0  0  0  0  0  0  0  0  0
   -5.0010   19.2110  -33.8780 C   0  0  0  0  0  0  0  0  0  0  0  0
   -3.1899   15.2505  -34.1646 H   0  0  0  0  0  0  0  0  0  0  0  0
   -4.3208   15.1393  -35.5558 H   0  0  0  0  0  0  0  0  0  0  0  0
   -3.0155   16.3734  -35.5558 H   0  0  0  0  0  0  0  0  0  0  0  0
   -6.2228   16.3367  -32.9570 H   0  0  0  0  0  0  0  0  0  0  0  0
   -6.7013   17.1356  -34.4931 H   0  0  0  0  0  0  0  0  0  0  0  0
   -6.2180   15.4055  -34.4931 H   0  0  0  0  0  0  0  0  0  0  0  0
   -2.1540   17.3889  -33.3551 H   0  0  0  0  0  0  0  0  0  0  0  0
   -1.3352   19.6233  -32.6316 H   0  0  0  0  0  0  0  0  0  0  0  0
   -5.5022   21.3949  -31.8203 H   0  0  0  0  0  0  0  0  0  0  0  0
  -10.0353   20.5832  -32.8732 H   0  0  0  0  0  0  0  0  0  0  0  0
   -9.0927   19.5141  -33.9517 H   0  0  0  0  0  0  0  0  0  0  0  0
  -10.2001   18.9812  -31.2354 H   0  0  0  0  0  0  0  0  0  0  0  0
   -9.7434   17.8221  -32.4919 H   0  0  0  0  0  0  0  0  0  0  0  0
   -8.2188   18.6061  -30.1665 H   0  0  0  0  0  0  0  0  0  0  0  0
   -7.6884   17.5068  -31.4488 H   0  0  0  0  0  0  0  0  0  0  0  0
   -6.6584   20.0931  -30.9298 H   0  0  0  0  0  0  0  0  0  0  0  0
   -6.3950   19.1558  -32.4313 H   0  0  0  0  0  0  0  0  0  0  0  0
   -8.0034   24.7061  -30.6086 H   0  0  0  0  0  0  0  0  0  0  0  0
   -5.9751   26.0691  -30.1331 H   0  0  0  0  0  0  0  0  0  0  0  0
   -5.2144   21.3300  -33.4890 H   0  0  0  0  0  0  0  0  0  0  0  0
   -6.0402   19.1023  -34.2218 H   0  0  0  0  0  0  0  0  0  0  0  0
  1  2  1  0
  2  3  1  0
  2  4  1  0
  4  5  2  0
  5  6  1  0
  6  7  2  0
  7  8  1  0
  8  9  1  0
  9 10  2  0
  9 11  1  0
 11 12  2  0
 12 13  1  0
 13 14  1  0
 14 15  2  0
 14 16  2  0
 14 17  1  0
 17 18  1  0
 18 19  1  0
 19 20  1  0
 20 21  1  0
 13 22  2  0
 22 23  1  0
 23 24  2  0
 24 25  1  0
  7 26  1  0
 26 27  2  0
 27  4  1  0
 24 11  1  0
 21 17  1  0
  1 28  1  0
  1 29  1  0
  1 30  1  0
  3 31  1  0
  3 32  1  0
  3 33  1  0
  5 34  1  0
  6 35  1  0
 12 36  1  0
 18 37  1  0
 18 38  1  0
 19 39  1  0
 19 40  1  0
 20 41  1  0
 20 42  1  0
 21 43  1  0
 21 44  1  0
 22 45  1  0
 23 46  1  0
 26 47  1  0
 27 48  1  0
M  CHG  2   8  -1  25  -1
M  END
>  <UniqueID>  (47) 
43

>  <SMILES>  (47) 
CN(C)c1ccc([N-]C(=O)c2cc(S(=O)(=O)N3CCCC3)ccc2[O-])cc1

>  <Energy>  (47) 
56.36134322449899

>  <Genealogy>  (47) 
CN(C)c1ccc([N-]C(=O)c2cc(S(=O)(=O)N3CCCC3)ccc2[O-])cc1 (protonated)
CN(C)c1ccc([N-]C(=O)c2cc(S(=O)(=O)N3CCCC3)ccc2[O-])cc1 (3D coordinates assigned)
CN(C)c1ccc([N-]C(=O)c2cc(S(=O)(=O)N3CCCC3)ccc2[O-])cc1 (nonaromatic ring conformer: 56.36134322449899 kcal/mol)

>  <smiles>  (47) 
CN(C)c1ccc(NC(=O)c2cc(S(=O)(=O)N3CCCC3)ccc2O)cc1

>  <score_type>  (47) 
oracle

>  <origin>  (47) 
adgpu

>  <m_score__min__energy>  (47) 
-12.56

>  <m_primary>  (47) 
energy

$$$$
47:0
     RDKit          3D

 57 60  0  0  0  0  0  0  0  0999 V2000
   -1.1300   21.5670  -26.9330 C   0  0  0  0  0  0  0  0  0  0  0  0
   -1.8050   22.5810  -27.8190 C   0  0  0  0  0  0  0  0  0  0  0  0
   -2.9340   22.1710  -28.5490 C   0  0  0  0  0  0  0  0  0  0  0  0
   -3.5950   23.0530  -29.3990 C   0  0  0  0  0  0  0  0  0  0  0  0
   -3.1300   24.3630  -29.5600 C   0  0  0  0  0  0  0  0  0  0  0  0
   -3.8030   25.2990  -30.4180 N   0  0  0  0  0  0  0  0  0  0  0  0
   -5.1340   25.1730  -30.9280 C   0  0  0  0  0  0  0  0  0  0  0  0
   -6.0160   25.9800  -30.5330 O   0  0  0  0  0  0  0  0  0  0  0  0
   -5.4550   24.1530  -31.8830 N   0  0  0  0  0  0  0  0  0  0  0  0
   -6.3600   23.0550  -31.7010 C   0  0  0  0  0  0  0  0  0  0  0  0
   -7.3940   23.1880  -30.7650 C   0  0  0  0  0  0  0  0  0  0  0  0
   -8.2850   22.1360  -30.5400 C   0  0  0  0  0  0  0  0  0  0  0  0
   -8.1370   20.9320  -31.2340 C   0  0  0  0  0  0  0  0  0  0  0  0
   -7.0900   20.7740  -32.1510 C   0  0  0  0  0  0  0  0  0  0  0  0
   -6.8800   19.2570  -33.0240 S   0  0  0  0  0  0  0  0  0  0  0  0
   -6.5140   19.5310  -34.4570 O   0  0  0  0  0  0  0  0  0  0  0  0
   -8.1850   18.5100  -32.9970 O   0  0  0  0  0  0  0  0  0  0  0  0
   -5.6350   18.3000  -32.2500 N   0  0  0  0  0  0  0  0  0  0  0  0
   -4.4030   18.3190  -33.0470 C   0  0  0  0  0  0  0  0  0  0  0  0
   -4.4030   17.0950  -33.9540 C   0  0  0  0  0  0  0  0  0  0  0  0
   -5.4920   16.1870  -33.4170 C   0  0  0  0  0  0  0  0  0  0  0  0
   -6.0360   16.8920  -32.1840 C   0  0  0  0  0  0  0  0  0  0  0  0
   -6.2020   21.8340  -32.3820 C   0  0  0  0  0  0  0  0  0  0  0  0
   -2.0230   24.7970  -28.8200 C   0  0  0  0  0  0  0  0  0  0  0  0
   -1.5970   26.1170  -28.9590 O   0  0  0  0  0  0  0  0  0  0  0  0
   -1.3400   23.9190  -27.9510 C   0  0  0  0  0  0  0  0  0  0  0  0
    0.0540   24.5650  -27.0480 S   0  0  0  0  0  0  0  0  0  0  0  0
    1.1960   24.7710  -28.0030 O   0  0  0  0  0  0  0  0  0  0  0  0
    0.5210   23.6390  -25.9610 O   0  0  0  0  0  0  0  0  0  0  0  0
   -0.4000   26.1500  -26.3340 C   0  0  0  0  0  0  0  0  0  0  0  0
   -1.7880   26.1580  -25.7040 C   0  0  0  0  0  0  0  0  0  0  0  0
   -1.1630   26.4050  -24.3370 C   0  0  0  0  0  0  0  0  0  0  0  0
    0.2240   26.3990  -24.9640 C   0  0  0  0  0  0  0  0  0  0  0  0
   -1.3037   21.8280  -25.8786 H   0  0  0  0  0  0  0  0  0  0  0  0
   -1.5443   20.5686  -27.1367 H   0  0  0  0  0  0  0  0  0  0  0  0
   -0.0490   21.5639  -27.1367 H   0  0  0  0  0  0  0  0  0  0  0  0
   -3.3002   21.1388  -28.4471 H   0  0  0  0  0  0  0  0  0  0  0  0
   -4.4880   22.7184  -29.9473 H   0  0  0  0  0  0  0  0  0  0  0  0
   -7.5049   24.1273  -30.2034 H   0  0  0  0  0  0  0  0  0  0  0  0
   -9.1042   22.2554  -29.8157 H   0  0  0  0  0  0  0  0  0  0  0  0
   -8.8437   20.1072  -31.0599 H   0  0  0  0  0  0  0  0  0  0  0  0
   -4.3681   19.2340  -33.6566 H   0  0  0  0  0  0  0  0  0  0  0  0
   -3.5234   18.3022  -32.3867 H   0  0  0  0  0  0  0  0  0  0  0  0
   -4.6235   17.3864  -34.9915 H   0  0  0  0  0  0  0  0  0  0  0  0
   -3.4235   16.5945  -33.9608 H   0  0  0  0  0  0  0  0  0  0  0  0
   -6.2865   16.0545  -34.1662 H   0  0  0  0  0  0  0  0  0  0  0  0
   -5.1072   15.1846  -33.1780 H   0  0  0  0  0  0  0  0  0  0  0  0
   -7.1333   16.8174  -32.1657 H   0  0  0  0  0  0  0  0  0  0  0  0
   -5.6376   16.4249  -31.2713 H   0  0  0  0  0  0  0  0  0  0  0  0
   -5.3774   21.7104  -33.0995 H   0  0  0  0  0  0  0  0  0  0  0  0
   -0.1691   26.8120  -27.1816 H   0  0  0  0  0  0  0  0  0  0  0  0
   -2.4366   26.9739  -26.0557 H   0  0  0  0  0  0  0  0  0  0  0  0
   -2.4754   25.3133  -25.8585 H   0  0  0  0  0  0  0  0  0  0  0  0
   -1.4452   27.3660  -23.8821 H   0  0  0  0  0  0  0  0  0  0  0  0
   -1.3933   25.7383  -23.4929 H   0  0  0  0  0  0  0  0  0  0  0  0
    0.7590   27.3565  -24.8810 H   0  0  0  0  0  0  0  0  0  0  0  0
    1.0077   25.7305  -24.5782 H   0  0  0  0  0  0  0  0  0  0  0  0
  1  2  1  0
  2  3  2  0
  3  4  1  0
  4  5  2  0
  5  6  1  0
  6  7  1  0
  7  8  2  0
  7  9  1  0
  9 10  1  0
 10 11  2  0
 11 12  1  0
 12 13  2  0
 13 14  1  0
 14 15  1  0
 15 16  2  0
 15 17  2  0
 15 18  1  0
 18 19  1  0
 19 20  1  0
 20 21  1  0
 21 22  1  0
 14 23  2  0
  5 24  1  0
 24 25  1  0
 24 26  2  0
 26 27  1  0
 27 28  2  0
 27 29  2  0
 27 30  1  0
 30 31  1  0
 31 32  1  0
 32 33  1  0
 26  2  1  0
 33 30  1  0
 23 10  1  0
 22 18  1  0
  1 34  1  0
  1 35  1  0
  1 36  1  0
  3 37  1  0
  4 38  1  0
 11 39  1  0
 12 40  1  0
 13 41  1  0
 19 42  1  0
 19 43  1  0
 20 44  1  0
 20 45  1  0
 21 46  1  0
 21 47  1  0
 22 48  1  0
 22 49  1  0
 23 50  1  0
 30 51  1  0
 31 52  1  0
 31 53  1  0
 32 54  1  0
 32 55  1  0
 33 56  1  0
 33 57  1  0
M  CHG  3   6  -1   9  -1  25  -1
M  END
>  <UniqueID>  (48) 
44

>  <SMILES>  (48) 
Cc1ccc([N-]C(=O)[N-]c2cccc(S(=O)(=O)N3CCCC3)c2)c([O-])c1S(=O)(=O)C1CCC1

>  <Energy>  (48) 
128.8087028617931

>  <Genealogy>  (48) 
Cc1ccc([N-]C(=O)[N-]c2cccc(S(=O)(=O)N3CCCC3)c2)c([O-])c1S(=O)(=O)C1CCC1 (protonated)
Cc1ccc([N-]C(=O)[N-]c2cccc(S(=O)(=O)N3CCCC3)c2)c([O-])c1S(=O)(=O)C1CCC1 (3D coordinates assigned)
Cc1ccc([N-]C(=O)[N-]c2cccc(S(=O)(=O)N3CCCC3)c2)c([O-])c1S(=O)(=O)C1CCC1 (nonaromatic ring conformer: 128.8087028617931 kcal/mol)

>  <smiles>  (48) 
Cc1ccc(NC(=O)Nc2cccc(S(=O)(=O)N3CCCC3)c2)c(O)c1S(=O)(=O)C1CCC1

>  <score_type>  (48) 
oracle

>  <origin>  (48) 
adgpu

>  <m_score__min__energy>  (48) 
-16.920000000000002

>  <m_primary>  (48) 
energy

$$$$
48:0
     RDKit          3D

 41 43  0  0  0  0  0  0  0  0999 V2000
   -2.3290   23.7290  -28.9670 O   0  0  0  0  0  0  0  0  0  0  0  0
   -2.4440   24.9240  -29.3430 C   0  0  0  0  0  0  0  0  0  0  0  0
   -1.4520   25.8780  -28.9430 N   0  0  0  0  0  0  0  0  0  0  0  0
   -1.2100   26.3230  -27.6000 C   0  0  0  0  0  0  0  0  0  0  0  0
   -1.7300   25.6340  -26.4880 C   0  0  0  0  0  0  0  0  0  0  0  0
   -1.4850   26.1010  -25.1940 C   0  0  0  0  0  0  0  0  0  0  0  0
   -0.7360   27.2650  -25.0000 C   0  0  0  0  0  0  0  0  0  0  0  0
   -0.2340   27.9640  -26.0990 C   0  0  0  0  0  0  0  0  0  0  0  0
    0.4880   29.0970  -25.9100 F   0  0  0  0  0  0  0  0  0  0  0  0
   -0.4770   27.4990  -27.3960 C   0  0  0  0  0  0  0  0  0  0  0  0
   -3.5630   25.2940  -30.1580 N   0  0  0  0  0  0  0  0  0  0  0  0
   -4.5060   24.3800  -30.7350 C   0  0  0  0  0  0  0  0  0  0  0  0
   -5.8910   24.6090  -30.6630 C   0  0  0  0  0  0  0  0  0  0  0  0
   -6.7840   23.7020  -31.2390 C   0  0  0  0  0  0  0  0  0  0  0  0
   -6.3040   22.5570  -31.8810 C   0  0  0  0  0  0  0  0  0  0  0  0
   -4.9250   22.3130  -31.9460 C   0  0  0  0  0  0  0  0  0  0  0  0
   -4.2970   20.9000  -32.7840 S   0  0  0  0  0  0  0  0  0  0  0  0
   -3.2760   21.3470  -33.7930 O   0  0  0  0  0  0  0  0  0  0  0  0
   -3.6400   19.9470  -31.8250 O   0  0  0  0  0  0  0  0  0  0  0  0
   -5.5930   20.0930  -33.6050 N   0  0  0  0  0  0  0  0  0  0  0  0
   -6.7730   19.5630  -32.9810 C   0  0  0  0  0  0  0  0  0  0  0  0
   -8.0190   20.2100  -33.0890 C   0  0  0  0  0  0  0  0  0  0  0  0
   -9.1480   19.6780  -32.4610 C   0  0  0  0  0  0  0  0  0  0  0  0
   -9.0480   18.4980  -31.7220 C   0  0  0  0  0  0  0  0  0  0  0  0
   -7.8190   17.8470  -31.6110 C   0  0  0  0  0  0  0  0  0  0  0  0
   -6.6800   18.3720  -32.2330 C   0  0  0  0  0  0  0  0  0  0  0  0
   -5.4690   17.6910  -32.0970 O   0  0  0  0  0  0  0  0  0  0  0  0
   -4.0320   23.2220  -31.3610 C   0  0  0  0  0  0  0  0  0  0  0  0
   -2.3311   24.7251  -26.6382 H   0  0  0  0  0  0  0  0  0  0  0  0
   -1.8819   25.5521  -24.3273 H   0  0  0  0  0  0  0  0  0  0  0  0
   -0.5420   27.6304  -23.9808 H   0  0  0  0  0  0  0  0  0  0  0  0
   -0.0905   28.0597  -28.2598 H   0  0  0  0  0  0  0  0  0  0  0  0
   -6.2729   25.5049  -30.1517 H   0  0  0  0  0  0  0  0  0  0  0  0
   -7.8667   23.8893  -31.1872 H   0  0  0  0  0  0  0  0  0  0  0  0
   -7.0094   21.8461  -32.3360 H   0  0  0  0  0  0  0  0  0  0  0  0
   -8.1040   21.1395  -33.6711 H   0  0  0  0  0  0  0  0  0  0  0  0
  -10.1176   20.1900  -32.5491 H   0  0  0  0  0  0  0  0  0  0  0  0
   -9.9379   18.0815  -31.2273 H   0  0  0  0  0  0  0  0  0  0  0  0
   -7.7445   16.9153  -31.0310 H   0  0  0  0  0  0  0  0  0  0  0  0
   -4.5840   18.1000  -32.3700 H   0  0  0  0  0  0  0  0  0  0  0  0
   -2.9506   23.0232  -31.3945 H   0  0  0  0  0  0  0  0  0  0  0  0
  1  2  2  0
  2  3  1  0
  3  4  1  0
  4  5  2  0
  5  6  1  0
  6  7  2  0
  7  8  1  0
  8  9  1  0
  8 10  2  0
  2 11  1  0
 11 12  1  0
 12 13  2  0
 13 14  1  0
 14 15  2  0
 15 16  1  0
 16 17  1  0
 17 18  2  0
 17 19  2  0
 17 20  1  0
 20 21  1  0
 21 22  2  0
 22 23  1  0
 23 24  2  0
 24 25  1  0
 25 26  2  0
 26 27  1  0
 16 28  2  0
 10  4  1  0
 28 12  1  0
 26 21  1  0
  5 29  1  0
  6 30  1  0
  7 31  1  0
 10 32  1  0
 13 33  1  0
 14 34  1  0
 15 35  1  0
 22 36  1  0
 23 37  1  0
 24 38  1  0
 25 39  1  0
 27 40  1  0
 28 41  1  0
M  CHG  3   3  -1  11  -1  20  -1
M  END
>  <UniqueID>  (49) 
45

>  <SMILES>  (49) 
O=C([N-]c1cccc(F)c1)[N-]c1cccc(S(=O)(=O)[N-]c2ccccc2O)c1

>  <Energy>  (49) 
51.58204727278099

>  <Genealogy>  (49) 
O=C([N-]c1cccc(F)c1)[N-]c1cccc(S(=O)(=O)[N-]c2ccccc2O)c1 (protonated)
O=C([N-]c1cccc(F)c1)[N-]c1cccc(S(=O)(=O)[N-]c2ccccc2O)c1 (3D coordinates assigned)
O=C([N-]c1cccc(F)c1)[N-]c1cccc(S(=O)(=O)[N-]c2ccccc2O)c1 (optimized conformer: 51.58204727278099 kcal/mol)

>  <smiles>  (49) 
O=C(Nc1cccc(F)c1)Nc1cccc(S(=O)(=O)Nc2ccccc2O)c1

>  <score_type>  (49) 
oracle

>  <origin>  (49) 
adgpu

>  <m_score__min__energy>  (49) 
-11.35

>  <m_primary>  (49) 
energy

$$$$
