0:0
     RDKit          3D

 52 55  0  0  0  0  0  0  0  0999 V2000
   -7.5330   21.2030  -32.4510 C   0  0  0  0  0  0  0  0  0  0  0  0
   -7.5560   19.7090  -32.4650 C   0  0  0  0  0  0  0  0  0  0  0  0
   -8.3940   18.9680  -31.7140 N   0  0  0  0  0  0  0  0  0  0  0  0
   -8.1760   17.7210  -32.0150 O   0  0  0  0  0  0  0  0  0  0  0  0
   -7.2440   17.6080  -32.9320 C   0  0  0  0  0  0  0  0  0  0  0  0
   -6.7860   16.3090  -33.5070 C   0  0  0  0  0  0  0  0  0  0  0  0
   -6.7970   18.8730  -33.2650 C   0  0  0  0  0  0  0  0  0  0  0  0
   -5.7890   19.2530  -34.3120 C   0  0  0  0  0  0  0  0  0  0  0  0
   -4.4320   18.9750  -33.8380 N   0  0  0  0  0  0  0  0  0  0  0  0
   -3.9430   17.7450  -33.7420 N   0  0  0  0  0  0  0  0  0  0  0  0
   -2.6820   17.8330  -33.2740 C   0  0  0  0  0  0  0  0  0  0  0  0
   -1.8360   16.6540  -32.9270 C   0  0  0  0  0  0  0  0  0  0  0  0
   -2.3800   19.1560  -33.0360 C   0  0  0  0  0  0  0  0  0  0  0  0
   -1.1730   19.6540  -32.4480 N   0  0  0  0  0  0  0  0  0  0  0  0
   -1.0210   19.9660  -31.0580 C   0  0  0  0  0  0  0  0  0  0  0  0
   -0.2500   19.2600  -30.3560 O   0  0  0  0  0  0  0  0  0  0  0  0
   -1.7950   21.0590  -30.4310 C   0  0  0  0  0  0  0  0  0  0  0  0
   -3.0250   21.4240  -30.8360 N   0  0  0  0  0  0  0  0  0  0  0  0
   -3.3520   22.4380  -30.0060 C   0  0  0  0  0  0  0  0  0  0  0  0
   -4.6280   23.1880  -30.0760 C   0  0  0  0  0  0  0  0  0  0  0  0
   -5.8400   22.4980  -29.8980 C   0  0  0  0  0  0  0  0  0  0  0  0
   -7.0580   23.1820  -29.9370 C   0  0  0  0  0  0  0  0  0  0  0  0
   -7.0820   24.5590  -30.1580 C   0  0  0  0  0  0  0  0  0  0  0  0
   -5.8880   25.2570  -30.3410 C   0  0  0  0  0  0  0  0  0  0  0  0
   -4.6610   24.5830  -30.2980 C   0  0  0  0  0  0  0  0  0  0  0  0
   -3.4910   25.3160  -30.4730 O   0  0  0  0  0  0  0  0  0  0  0  0
   -2.4020   22.6950  -29.1310 O   0  0  0  0  0  0  0  0  0  0  0  0
   -1.4230   21.8570  -29.3670 C   0  0  0  0  0  0  0  0  0  0  0  0
   -0.1450   21.8170  -28.5940 C   0  0  0  0  0  0  0  0  0  0  0  0
   -3.4990   19.8690  -33.4310 C   0  0  0  0  0  0  0  0  0  0  0  0
   -3.6500   21.3630  -33.4580 C   0  0  0  0  0  0  0  0  0  0  0  0
   -7.5275   21.5599  -31.4105 H   0  0  0  0  0  0  0  0  0  0  0  0
   -6.6292   21.5606  -32.9661 H   0  0  0  0  0  0  0  0  0  0  0  0
   -8.4253   21.5883  -32.9661 H   0  0  0  0  0  0  0  0  0  0  0  0
   -6.5406   15.6131  -32.6912 H   0  0  0  0  0  0  0  0  0  0  0  0
   -7.5870   15.8796  -34.1268 H   0  0  0  0  0  0  0  0  0  0  0  0
   -5.8929   16.4769  -34.1268 H   0  0  0  0  0  0  0  0  0  0  0  0
   -5.9797   18.6722  -35.2265 H   0  0  0  0  0  0  0  0  0  0  0  0
   -5.8805   20.3289  -34.5218 H   0  0  0  0  0  0  0  0  0  0  0  0
   -1.7687   16.5602  -31.8331 H   0  0  0  0  0  0  0  0  0  0  0  0
   -2.2875   15.7427  -33.3460 H   0  0  0  0  0  0  0  0  0  0  0  0
   -0.8281   16.7899  -33.3460 H   0  0  0  0  0  0  0  0  0  0  0  0
   -5.8294   21.4115  -29.7267 H   0  0  0  0  0  0  0  0  0  0  0  0
   -8.0003   22.6330  -29.7930 H   0  0  0  0  0  0  0  0  0  0  0  0
   -8.0423   25.0946  -30.1880 H   0  0  0  0  0  0  0  0  0  0  0  0
   -5.9103   26.3421  -30.5200 H   0  0  0  0  0  0  0  0  0  0  0  0
   -0.3677   21.8240  -27.5168 H   0  0  0  0  0  0  0  0  0  0  0  0
    0.4087   20.9011  -28.8481 H   0  0  0  0  0  0  0  0  0  0  0  0
    0.4649   22.6965  -28.8481 H   0  0  0  0  0  0  0  0  0  0  0  0
   -3.6887   21.7463  -32.4277 H   0  0  0  0  0  0  0  0  0  0  0  0
   -2.7923   21.8088  -33.9831 H   0  0  0  0  0  0  0  0  0  0  0  0
   -4.5795   21.6282  -33.9831 H   0  0  0  0  0  0  0  0  0  0  0  0
  1  2  1  0
  2  3  2  0
  3  4  1  0
  4  5  1  0
  5  6  1  0
  5  7  2  0
  7  8  1  0
  8  9  1  0
  9 10  1  0
 10 11  2  0
 11 12  1  0
 11 13  1  0
 13 14  1  0
 14 15  1  0
 15 16  2  0
 15 17  1  0
 17 18  1  0
 18 19  2  0
 19 20  1  0
 20 21  2  0
 21 22  1  0
 22 23  2  0
 23 24  1  0
 24 25  2  0
 25 26  1  0
 19 27  1  0
 27 28  1  0
 28 29  1  0
 13 30  2  0
 30 31  1  0
  7  2  1  0
 30  9  1  0
 28 17  2  0
 25 20  1  0
  1 32  1  0
  1 33  1  0
  1 34  1  0
  6 35  1  0
  6 36  1  0
  6 37  1  0
  8 38  1  0
  8 39  1  0
 12 40  1  0
 12 41  1  0
 12 42  1  0
 21 43  1  0
 22 44  1  0
 23 45  1  0
 24 46  1  0
 29 47  1  0
 29 48  1  0
 29 49  1  0
 31 50  1  0
 31 51  1  0
 31 52  1  0
M  CHG  2  14  -1  26  -1
M  END
>  <UniqueID>  (1) 
1

>  <SMILES>  (1) 
Cc1noc(C)c1Cn1nc(C)c([N-]C(=O)c2nc(-c3ccccc3[O-])oc2C)c1C

>  <Energy>  (1) 
143.5180040384247

>  <Genealogy>  (1) 
Cc1noc(C)c1Cn1nc(C)c([N-]C(=O)c2nc(-c3ccccc3[O-])oc2C)c1C (protonated)
Cc1noc(C)c1Cn1nc(C)c([N-]C(=O)c2nc(-c3ccccc3[O-])oc2C)c1C (3D coordinates assigned)
Cc1noc(C)c1Cn1nc(C)c([N-]C(=O)c2nc(-c3ccccc3[O-])oc2C)c1C (optimized conformer: 143.5180040384247 kcal/mol)

>  <smiles>  (1) 
Cc1noc(C)c1Cn1nc(C)c(NC(=O)c2nc(-c3ccccc3O)oc2C)c1C

>  <score_type>  (1) 
oracle

>  <origin>  (1) 
adgpu

>  <m_score__min__energy>  (1) 
-11.92

>  <m_primary>  (1) 
energy

$$$$
1:0
     RDKit          3D

 38 39  0  0  0  0  0  0  0  0999 V2000
   -1.8380   22.2930  -30.4980 C   0  0  0  0  0  0  0  0  0  0  0  0
   -3.0450   22.6360  -29.8260 O   0  0  0  0  0  0  0  0  0  0  0  0
   -4.2360   23.0040  -30.4710 C   0  0  0  0  0  0  0  0  0  0  0  0
   -5.2180   22.0590  -30.8310 C   0  0  0  0  0  0  0  0  0  0  0  0
   -6.3830   22.4670  -31.4980 C   0  0  0  0  0  0  0  0  0  0  0  0
   -7.5810   21.2880  -32.0290 S   0  0  0  0  0  0  0  0  0  0  0  0
   -8.8600   22.0120  -32.3430 O   0  0  0  0  0  0  0  0  0  0  0  0
   -7.8520   20.2850  -30.9410 O   0  0  0  0  0  0  0  0  0  0  0  0
   -7.0100   20.4810  -33.4640 N   0  0  0  0  0  0  0  0  0  0  0  0
   -6.1830   19.3130  -33.1340 C   0  0  0  0  0  0  0  0  0  0  0  0
   -4.7150   19.6330  -33.2400 C   0  0  0  0  0  0  0  0  0  0  0  0
   -4.2840   20.9630  -33.3740 C   0  0  0  0  0  0  0  0  0  0  0  0
   -2.9240   21.2520  -33.5180 C   0  0  0  0  0  0  0  0  0  0  0  0
   -1.9790   20.2180  -33.5280 C   0  0  0  0  0  0  0  0  0  0  0  0
   -0.2720   20.5990  -33.7320 S   0  0  0  0  0  0  0  0  0  0  0  0
   -0.1020   21.9970  -34.7330 N   0  0  0  0  0  0  0  0  0  0  0  0
    0.4430   19.4480  -34.3830 O   0  0  0  0  0  0  0  0  0  0  0  0
    0.3450   20.8610  -32.3870 O   0  0  0  0  0  0  0  0  0  0  0  0
   -2.4040   18.8910  -33.3710 C   0  0  0  0  0  0  0  0  0  0  0  0
   -3.7630   18.6010  -33.2200 C   0  0  0  0  0  0  0  0  0  0  0  0
   -6.5770   23.8220  -31.7880 C   0  0  0  0  0  0  0  0  0  0  0  0
   -5.6110   24.7640  -31.4250 C   0  0  0  0  0  0  0  0  0  0  0  0
   -4.4450   24.3560  -30.7710 C   0  0  0  0  0  0  0  0  0  0  0  0
   -3.4880   25.3030  -30.4230 O   0  0  0  0  0  0  0  0  0  0  0  0
   -1.0561   22.0708  -29.7569 H   0  0  0  0  0  0  0  0  0  0  0  0
   -2.0081   21.4076  -31.1282 H   0  0  0  0  0  0  0  0  0  0  0  0
   -1.5171   23.1355  -31.1282 H   0  0  0  0  0  0  0  0  0  0  0  0
   -5.0702   20.9964  -30.5878 H   0  0  0  0  0  0  0  0  0  0  0  0
   -7.8570   20.1320  -33.9710 H   0  0  0  0  0  0  0  0  0  0  0  0
   -6.4068   18.9949  -32.1051 H   0  0  0  0  0  0  0  0  0  0  0  0
   -6.4154   18.5103  -33.8493 H   0  0  0  0  0  0  0  0  0  0  0  0
   -5.0198   21.7807  -33.3656 H   0  0  0  0  0  0  0  0  0  0  0  0
   -2.5943   22.2961  -33.6239 H   0  0  0  0  0  0  0  0  0  0  0  0
   -1.0640   22.3470  -34.9420 H   0  0  0  0  0  0  0  0  0  0  0  0
   -1.6656   18.0757  -33.3667 H   0  0  0  0  0  0  0  0  0  0  0  0
   -4.0884   17.5590  -33.0848 H   0  0  0  0  0  0  0  0  0  0  0  0
   -7.4929   24.1467  -32.3034 H   0  0  0  0  0  0  0  0  0  0  0  0
   -5.7683   25.8283  -31.6542 H   0  0  0  0  0  0  0  0  0  0  0  0
  1  2  1  0
  2  3  1  0
  3  4  2  0
  4  5  1  0
  5  6  1  0
  6  7  2  0
  6  8  2  0
  6  9  1  0
  9 10  1  0
 10 11  1  0
 11 12  2  0
 12 13  1  0
 13 14  2  0
 14 15  1  0
 15 16  1  0
 15 17  2  0
 15 18  2  0
 14 19  1  0
 19 20  2  0
  5 21  2  0
 21 22  1  0
 22 23  2  0
 23 24  1  0
 23  3  1  0
 20 11  1  0
  1 25  1  0
  1 26  1  0
  1 27  1  0
  4 28  1  0
  9 29  1  0
 10 30  1  0
 10 31  1  0
 12 32  1  0
 13 33  1  0
 16 34  1  0
 19 35  1  0
 20 36  1  0
 21 37  1  0
 22 38  1  0
M  CHG  2  16  -1  24  -1
M  END
>  <UniqueID>  (2) 
2

>  <SMILES>  (2) 
COc1cc(S(=O)(=O)NCc2ccc(S([NH-])(=O)=O)cc2)ccc1[O-]

>  <Energy>  (2) 
30.73027587864525

>  <Genealogy>  (2) 
COc1cc(S(=O)(=O)NCc2ccc(S([NH-])(=O)=O)cc2)ccc1[O-] (protonated)
COc1cc(S(=O)(=O)NCc2ccc(S([NH-])(=O)=O)cc2)ccc1[O-] (3D coordinates assigned)
COc1cc(S(=O)(=O)NCc2ccc(S([NH-])(=O)=O)cc2)ccc1[O-] (optimized conformer: 30.73027587864525 kcal/mol)

>  <smiles>  (2) 
COc1cc(S(=O)(=O)NCc2ccc(S(N)(=O)=O)cc2)ccc1O

>  <score_type>  (2) 
oracle

>  <origin>  (2) 
adgpu

>  <m_score__min__energy>  (2) 
-11.01

>  <m_primary>  (2) 
energy

$$$$
2:0
     RDKit          3D

 43 45  0  0  0  0  0  0  0  0999 V2000
   -3.2850   21.7010  -33.2740 H   0  0  0  0  0  0  0  0  0  0  0  0
   -3.6740   20.7520  -33.4500 N   0  0  0  0  0  0  0  0  0  0  0  0
   -4.8820   20.3550  -33.1790 C   0  0  0  0  0  0  0  0  0  0  0  0
   -5.2150   19.0310  -33.4900 C   0  0  0  0  0  0  0  0  0  0  0  0
   -4.4638   18.3711  -33.9485 H   0  0  0  0  0  0  0  0  0  0  0  0
   -6.4960   18.5440  -33.2210 C   0  0  0  0  0  0  0  0  0  0  0  0
   -6.8420   17.1210  -33.5220 C   0  0  0  0  0  0  0  0  0  0  0  0
   -6.9762   16.5691  -32.5800 H   0  0  0  0  0  0  0  0  0  0  0  0
   -7.7749   17.0856  -34.1037 H   0  0  0  0  0  0  0  0  0  0  0  0
   -6.0295   16.6612  -34.1037 H   0  0  0  0  0  0  0  0  0  0  0  0
   -7.4170   19.3540  -32.6410 N   0  0  0  0  0  0  0  0  0  0  0  0
   -7.1440   20.6440  -32.3160 C   0  0  0  0  0  0  0  0  0  0  0  0
   -8.1330   21.4130  -31.6950 C   0  0  0  0  0  0  0  0  0  0  0  0
   -9.1302   20.9835  -31.5183 H   0  0  0  0  0  0  0  0  0  0  0  0
   -7.8610   22.7210  -31.2990 C   0  0  0  0  0  0  0  0  0  0  0  0
   -8.6410   23.3125  -30.7973 H   0  0  0  0  0  0  0  0  0  0  0  0
   -6.6060   23.2870  -31.5340 C   0  0  0  0  0  0  0  0  0  0  0  0
   -6.3270   24.5860  -30.9910 N   0  0  0  0  0  0  0  0  0  0  0  0
   -5.0600   25.0000  -30.4740 C   0  0  0  0  0  0  0  0  0  0  0  0
   -4.2700   25.6710  -31.1930 O   0  0  0  0  0  0  0  0  0  0  0  0
   -4.6350   24.5470  -29.1100 C   0  0  0  0  0  0  0  0  0  0  0  0
   -4.6614   25.4027  -28.4193 H   0  0  0  0  0  0  0  0  0  0  0  0
   -5.3229   23.7612  -28.7646 H   0  0  0  0  0  0  0  0  0  0  0  0
   -3.2150   23.9790  -29.1550 C   0  0  0  0  0  0  0  0  0  0  0  0
   -3.0036   23.4518  -28.2130 H   0  0  0  0  0  0  0  0  0  0  0  0
   -3.1324   23.2802  -30.0005 H   0  0  0  0  0  0  0  0  0  0  0  0
   -2.2500   25.0600  -29.3310 N   0  0  0  0  0  0  0  0  0  0  0  0
   -1.0410   25.1700  -28.5760 C   0  0  0  0  0  0  0  0  0  0  0  0
   -0.0070   24.5510  -28.9510 O   0  0  0  0  0  0  0  0  0  0  0  0
   -1.0210   25.9640  -27.3250 C   0  0  0  0  0  0  0  0  0  0  0  0
   -0.4690   27.2590  -27.3100 C   0  0  0  0  0  0  0  0  0  0  0  0
    0.0009   27.6641  -28.2183 H   0  0  0  0  0  0  0  0  0  0  0  0
   -0.5150   28.0330  -26.1460 C   0  0  0  0  0  0  0  0  0  0  0  0
   -0.0830   29.0446  -26.1425 H   0  0  0  0  0  0  0  0  0  0  0  0
   -1.1080   27.5250  -24.9880 C   0  0  0  0  0  0  0  0  0  0  0  0
   -1.1503   28.1389  -24.0762 H   0  0  0  0  0  0  0  0  0  0  0  0
   -1.6470   26.2370  -24.9890 C   0  0  0  0  0  0  0  0  0  0  0  0
   -2.1084   25.8349  -24.0750 H   0  0  0  0  0  0  0  0  0  0  0  0
   -1.6020   25.4570  -26.1480 C   0  0  0  0  0  0  0  0  0  0  0  0
   -2.0232   24.4409  -26.1399 H   0  0  0  0  0  0  0  0  0  0  0  0
   -5.6150   22.5310  -32.1860 C   0  0  0  0  0  0  0  0  0  0  0  0
   -4.6355   22.9855  -32.3959 H   0  0  0  0  0  0  0  0  0  0  0  0
   -5.8620   21.1940  -32.5750 C   0  0  0  0  0  0  0  0  0  0  0  0
  1  2  1  0
  2  3  2  0
  3  4  1  0
  4  5  1  0
  4  6  2  0
  6  7  1  0
  7  8  1  0
  7  9  1  0
  7 10  1  0
  6 11  1  0
 11 12  1  0
 12 13  2  0
 13 14  1  0
 13 15  1  0
 15 16  1  0
 15 17  2  0
 17 18  1  0
 18 19  1  0
 19 20  2  0
 19 21  1  0
 21 22  1  0
 21 23  1  0
 21 24  1  0
 24 25  1  0
 24 26  1  0
 24 27  1  0
 27 28  1  0
 28 29  2  0
 28 30  1  0
 30 31  2  0
 31 32  1  0
 31 33  1  0
 33 34  1  0
 33 35  2  0
 35 36  1  0
 35 37  1  0
 37 38  1  0
 37 39  2  0
 39 40  1  0
 17 41  1  0
 41 42  1  0
 41 43  2  0
 43  3  1  0
 43 12  1  0
 39 30  1  0
M  CHG  3  11  -1  18  -1  27  -1
M  END
>  <UniqueID>  (3) 
3

>  <SMILES>  (3) 
[H]/N=c1/cc(C)[n-]c2ccc([N-]C(=O)CC[N-]C(=O)c3ccccc3)cc12

>  <Energy>  (3) 
47.75346061938996

>  <Genealogy>  (3) 
Cc1cc(=N)c2cc([N-]C(=O)CC[N-]C(=O)c3ccccc3)ccc2[n-]1 (protonated)
[H]/N=c1/cc(C)[n-]c2ccc([N-]C(=O)CC[N-]C(=O)c3ccccc3)cc12 (cis-trans isomerization)
[H]/N=c1/cc(C)[n-]c2ccc([N-]C(=O)CC[N-]C(=O)c3ccccc3)cc12 (3D coordinates assigned)
[H]/N=c1/cc(C)[n-]c2ccc([N-]C(=O)CC[N-]C(=O)c3ccccc3)cc12 (optimized conformer: 47.75346061938996 kcal/mol)

>  <smiles>  (3) 
Cc1cc(=N)c2cc(NC(=O)CCNC(=O)c3ccccc3)ccc2[nH]1

>  <score_type>  (3) 
oracle

>  <origin>  (3) 
adgpu

>  <m_score__min__energy>  (3) 
-11.390000000000001

>  <m_primary>  (3) 
energy

$$$$
3:0
     RDKit          3D

 49 51  0  0  0  0  0  0  0  0999 V2000
   -5.5442   19.0902  -35.4052 H   0  0  0  0  0  0  0  0  0  0  0  0
   -5.6490   18.4770  -34.4980 C   0  0  0  0  0  0  0  0  0  0  0  0
   -5.1070   17.1900  -34.4630 C   0  0  0  0  0  0  0  0  0  0  0  0
   -4.5666   16.7983  -35.3374 H   0  0  0  0  0  0  0  0  0  0  0  0
   -5.2500   16.3970  -33.3170 C   0  0  0  0  0  0  0  0  0  0  0  0
   -4.5580   14.7790  -33.2750 S   0  0  0  0  0  0  0  0  0  0  0  0
   -3.1400   14.8150  -33.7720 O   0  0  0  0  0  0  0  0  0  0  0  0
   -5.3570   13.8650  -34.1620 O   0  0  0  0  0  0  0  0  0  0  0  0
   -4.5860   14.1670  -31.6060 C   0  0  0  0  0  0  0  0  0  0  0  0
   -4.5473   15.0133  -30.9044 H   0  0  0  0  0  0  0  0  0  0  0  0
   -5.5112   13.5956  -31.4405 H   0  0  0  0  0  0  0  0  0  0  0  0
   -3.7168   13.5135  -31.4405 H   0  0  0  0  0  0  0  0  0  0  0  0
   -5.9650   16.8910  -32.2170 C   0  0  0  0  0  0  0  0  0  0  0  0
   -6.1021   16.2628  -31.3245 H   0  0  0  0  0  0  0  0  0  0  0  0
   -6.5040   18.1800  -32.2520 C   0  0  0  0  0  0  0  0  0  0  0  0
   -7.0705   18.5614  -31.3897 H   0  0  0  0  0  0  0  0  0  0  0  0
   -6.3240   18.9900  -33.3860 C   0  0  0  0  0  0  0  0  0  0  0  0
   -6.8110   20.3030  -33.4380 O   0  0  0  0  0  0  0  0  0  0  0  0
   -6.4010   21.3550  -32.6030 C   0  0  0  0  0  0  0  0  0  0  0  0
   -7.3550   21.9320  -31.7570 C   0  0  0  0  0  0  0  0  0  0  0  0
   -8.3900   21.5597  -31.7688 H   0  0  0  0  0  0  0  0  0  0  0  0
   -7.0050   22.9760  -30.8980 C   0  0  0  0  0  0  0  0  0  0  0  0
   -7.7645   23.4224  -30.2393 H   0  0  0  0  0  0  0  0  0  0  0  0
   -5.6900   23.4560  -30.8730 C   0  0  0  0  0  0  0  0  0  0  0  0
   -5.2480   24.7770  -29.7970 S   0  0  0  0  0  0  0  0  0  0  0  0
   -4.2660   25.6840  -30.4840 O   0  0  0  0  0  0  0  0  0  0  0  0
   -4.6110   24.2310  -28.5500 O   0  0  0  0  0  0  0  0  0  0  0  0
   -6.7080   25.6960  -29.3640 C   0  0  0  0  0  0  0  0  0  0  0  0
   -6.7953   25.7510  -28.2688 H   0  0  0  0  0  0  0  0  0  0  0  0
   -6.6374   26.7128  -29.7777 H   0  0  0  0  0  0  0  0  0  0  0  0
   -7.5943   25.1926  -29.7777 H   0  0  0  0  0  0  0  0  0  0  0  0
   -4.7350   22.9050  -31.7350 C   0  0  0  0  0  0  0  0  0  0  0  0
   -3.6998   23.2763  -31.7109 H   0  0  0  0  0  0  0  0  0  0  0  0
   -5.0860   21.8850  -32.6280 C   0  0  0  0  0  0  0  0  0  0  0  0
   -4.0720   21.3460  -33.4860 N   0  0  0  0  0  0  0  0  0  0  0  0
   -2.8970   20.8500  -33.1940 C   0  0  0  0  0  0  0  0  0  0  0  0
   -2.4580   20.5390  -31.8690 C   0  0  0  0  0  0  0  0  0  0  0  0
   -3.3560   20.5100  -30.6580 C   0  0  0  0  0  0  0  0  0  0  0  0
   -2.7419   20.5298  -29.7456 H   0  0  0  0  0  0  0  0  0  0  0  0
   -4.0196   21.3872  -30.6725 H   0  0  0  0  0  0  0  0  0  0  0  0
   -3.9616   19.5918  -30.6725 H   0  0  0  0  0  0  0  0  0  0  0  0
   -1.1170   20.1600  -31.6850 C   0  0  0  0  0  0  0  0  0  0  0  0
   -0.7413   19.9656  -30.6696 H   0  0  0  0  0  0  0  0  0  0  0  0
   -0.2600   20.0280  -32.7720 C   0  0  0  0  0  0  0  0  0  0  0  0
    0.7918   19.7444  -32.6192 H   0  0  0  0  0  0  0  0  0  0  0  0
   -0.7460   20.2580  -34.0530 C   0  0  0  0  0  0  0  0  0  0  0  0
   -0.0851   20.1255  -34.9223 H   0  0  0  0  0  0  0  0  0  0  0  0
   -2.0350   20.6460  -34.2350 N   0  0  0  0  0  0  0  0  0  0  0  0
   -2.3530   20.8420  -35.2120 H   0  0  0  0  0  0  0  0  0  0  0  0
  1  2  1  0
  2  3  2  0
  3  4  1  0
  3  5  1  0
  5  6  1  0
  6  7  2  0
  6  8  2  0
  6  9  1  0
  9 10  1  0
  9 11  1  0
  9 12  1  0
  5 13  2  0
 13 14  1  0
 13 15  1  0
 15 16  1  0
 15 17  2  0
 17 18  1  0
 18 19  1  0
 19 20  2  0
 20 21  1  0
 20 22  1  0
 22 23  1  0
 22 24  2  0
 24 25  1  0
 25 26  2  0
 25 27  2  0
 25 28  1  0
 28 29  1  0
 28 30  1  0
 28 31  1  0
 24 32  1  0
 32 33  1  0
 32 34  2  0
 34 35  1  0
 35 36  2  0
 36 37  1  0
 37 38  1  0
 38 39  1  0
 38 40  1  0
 38 41  1  0
 37 42  2  0
 42 43  1  0
 42 44  1  0
 44 45  1  0
 44 46  2  0
 46 47  1  0
 46 48  1  0
 48 49  1  0
 17  2  1  0
 34 19  1  0
 48 36  1  0
M  END
>  <UniqueID>  (4) 
4

>  <SMILES>  (4) 
Cc1ccc[nH]/c1=N/c1cc(S(C)(=O)=O)ccc1Oc1ccc(S(C)(=O)=O)cc1

>  <Energy>  (4) 
68.50341268652221

>  <Genealogy>  (4) 
Cc1ccc[nH]/c1=N/c1cc(S(C)(=O)=O)ccc1Oc1ccc(S(C)(=O)=O)cc1 (cis-trans isomerization)
Cc1ccc[nH]/c1=N/c1cc(S(C)(=O)=O)ccc1Oc1ccc(S(C)(=O)=O)cc1 (3D coordinates assigned)
Cc1ccc[nH]/c1=N/c1cc(S(C)(=O)=O)ccc1Oc1ccc(S(C)(=O)=O)cc1 (optimized conformer: 68.50341268652221 kcal/mol)

>  <smiles>  (4) 
Cc1ccc[nH]c1=Nc1cc(S(C)(=O)=O)ccc1Oc1ccc(S(C)(=O)=O)cc1

>  <score_type>  (4) 
oracle

>  <origin>  (4) 
adgpu

>  <m_score__min__energy>  (4) 
-9.7400000000000002

>  <m_primary>  (4) 
energy

$$$$
4:0
     RDKit          3D

 45 47  0  0  0  0  0  0  0  0999 V2000
   -9.8840   20.7240  -32.2430 N   0  0  0  0  0  0  0  0  0  0  0  0
   -8.7560   21.9190  -31.7050 S   0  0  0  0  0  0  0  0  0  0  0  0
   -9.2140   23.2730  -32.1700 O   0  0  0  0  0  0  0  0  0  0  0  0
   -8.7100   21.8920  -30.2020 O   0  0  0  0  0  0  0  0  0  0  0  0
   -7.1430   21.5920  -32.3500 C   0  0  0  0  0  0  0  0  0  0  0  0
   -6.9000   20.3980  -33.0470 C   0  0  0  0  0  0  0  0  0  0  0  0
   -5.6280   20.1240  -33.5590 C   0  0  0  0  0  0  0  0  0  0  0  0
   -4.5930   21.0440  -33.3880 C   0  0  0  0  0  0  0  0  0  0  0  0
   -4.8240   22.2400  -32.7040 C   0  0  0  0  0  0  0  0  0  0  0  0
   -6.0950   22.5210  -32.1690 C   0  0  0  0  0  0  0  0  0  0  0  0
   -6.3660   23.7770  -31.5270 N   0  0  0  0  0  0  0  0  0  0  0  0
   -5.4460   24.5390  -30.7370 C   0  0  0  0  0  0  0  0  0  0  0  0
   -5.0880   25.6940  -31.0960 O   0  0  0  0  0  0  0  0  0  0  0  0
   -4.9220   23.9640  -29.4610 C   0  0  0  0  0  0  0  0  0  0  0  0
   -3.6240   23.2490  -29.7290 C   0  0  0  0  0  0  0  0  0  0  0  0
   -3.6380   21.8860  -30.0770 C   0  0  0  0  0  0  0  0  0  0  0  0
   -2.4490   21.2270  -30.4000 C   0  0  0  0  0  0  0  0  0  0  0  0
   -1.2330   21.9270  -30.4060 C   0  0  0  0  0  0  0  0  0  0  0  0
   -0.0060   21.2820  -30.7620 N   0  0  0  0  0  0  0  0  0  0  0  0
    0.3080   20.7330  -32.0500 C   0  0  0  0  0  0  0  0  0  0  0  0
    1.3160   19.9860  -32.1600 O   0  0  0  0  0  0  0  0  0  0  0  0
   -0.5050   21.0470  -33.2810 C   0  0  0  0  0  0  0  0  0  0  0  0
    0.3700   21.4930  -34.4170 C   0  0  0  0  0  0  0  0  0  0  0  0
    0.2600   22.6830  -35.0360 N   0  0  0  0  0  0  0  0  0  0  0  0
    1.2280   22.6330  -35.9780 C   0  0  0  0  0  0  0  0  0  0  0  0
    1.4410   23.5800  -36.7800 O   0  0  0  0  0  0  0  0  0  0  0  0
    1.9470   21.4910  -35.9940 N   0  0  0  0  0  0  0  0  0  0  0  0
    1.3940   20.7810  -34.9970 C   0  0  0  0  0  0  0  0  0  0  0  0
    1.8110   19.5080  -34.6270 O   0  0  0  0  0  0  0  0  0  0  0  0
   -1.2110   23.2750  -30.0320 C   0  0  0  0  0  0  0  0  0  0  0  0
   -2.3970   23.9430  -29.7110 C   0  0  0  0  0  0  0  0  0  0  0  0
   -2.3510   25.2950  -29.3850 O   0  0  0  0  0  0  0  0  0  0  0  0
   -9.5400   20.3730  -33.1650 H   0  0  0  0  0  0  0  0  0  0  0  0
   -7.7151   19.6736  -33.1913 H   0  0  0  0  0  0  0  0  0  0  0  0
   -5.4432   19.1825  -34.0970 H   0  0  0  0  0  0  0  0  0  0  0  0
   -3.5933   20.8272  -33.7925 H   0  0  0  0  0  0  0  0  0  0  0  0
   -4.0072   22.9668  -32.5828 H   0  0  0  0  0  0  0  0  0  0  0  0
   -4.7518   24.7739  -28.7364 H   0  0  0  0  0  0  0  0  0  0  0  0
   -5.6545   23.2533  -29.0507 H   0  0  0  0  0  0  0  0  0  0  0  0
   -4.5904   21.3359  -30.0949 H   0  0  0  0  0  0  0  0  0  0  0  0
   -2.4663   20.1560  -30.6504 H   0  0  0  0  0  0  0  0  0  0  0  0
   -1.0553   20.1447  -33.5861 H   0  0  0  0  0  0  0  0  0  0  0  0
   -1.1996   21.8645  -33.0377 H   0  0  0  0  0  0  0  0  0  0  0  0
    1.7630   19.2070  -33.6620 H   0  0  0  0  0  0  0  0  0  0  0  0
   -0.2529   23.8139  -29.9901 H   0  0  0  0  0  0  0  0  0  0  0  0
  1  2  1  0
  2  3  2  0
  2  4  2  0
  2  5  1  0
  5  6  2  0
  6  7  1  0
  7  8  2  0
  8  9  1  0
  9 10  2  0
 10 11  1  0
 11 12  1  0
 12 13  2  0
 12 14  1  0
 14 15  1  0
 15 16  2  0
 16 17  1  0
 17 18  2  0
 18 19  1  0
 19 20  1  0
 20 21  2  0
 20 22  1  0
 22 23  1  0
 23 24  1  0
 24 25  1  0
 25 26  2  0
 25 27  1  0
 27 28  1  0
 28 29  1  0
 18 30  1  0
 30 31  2  0
 31 32  1  0
 10  5  1  0
 31 15  1  0
 28 23  2  0
  1 33  1  0
  6 34  1  0
  7 35  1  0
  8 36  1  0
  9 37  1  0
 14 38  1  0
 14 39  1  0
 16 40  1  0
 17 41  1  0
 22 42  1  0
 22 43  1  0
 29 44  1  0
 30 45  1  0
M  CHG  6   1  -1  11  -1  19  -1  24  -1  27  -1  32  -1
M  END
>  <UniqueID>  (5) 
5

>  <SMILES>  (5) 
[NH-]S(=O)(=O)c1ccccc1[N-]C(=O)Cc1ccc([N-]C(=O)Cc2[n-]c(=O)[n-]c2O)cc1[O-]

>  <Energy>  (5) 
79.78677822298124

>  <Genealogy>  (5) 
[NH-]S(=O)(=O)c1ccccc1[N-]C(=O)Cc1ccc([N-]C(=O)Cc2[n-]c(=O)[n-]c2O)cc1[O-] (protonated)
[NH-]S(=O)(=O)c1ccccc1[N-]C(=O)Cc1ccc([N-]C(=O)Cc2[n-]c(=O)[n-]c2O)cc1[O-] (3D coordinates assigned)
[NH-]S(=O)(=O)c1ccccc1[N-]C(=O)Cc1ccc([N-]C(=O)Cc2[n-]c(=O)[n-]c2O)cc1[O-] (optimized conformer: 79.78677822298124 kcal/mol)

>  <smiles>  (5) 
NS(=O)(=O)c1ccccc1NC(=O)Cc1ccc(NC(=O)Cc2[nH]c(=O)[nH]c2O)cc1O

>  <score_type>  (5) 
oracle

>  <origin>  (5) 
adgpu

>  <m_score__min__energy>  (5) 
-12.81

>  <m_primary>  (5) 
energy

$$$$
5:0
     RDKit          3D

 41 43  0  0  0  0  0  0  0  0999 V2000
   -6.5050   24.3980  -30.0620 C   0  0  0  0  0  0  0  0  0  0  0  0
   -6.9360   23.0700  -30.6270 C   0  0  0  0  0  0  0  0  0  0  0  0
   -8.2730   22.6680  -30.4660 C   0  0  0  0  0  0  0  0  0  0  0  0
   -8.7090   21.4340  -30.9500 C   0  0  0  0  0  0  0  0  0  0  0  0
   -7.8140   20.5750  -31.5910 C   0  0  0  0  0  0  0  0  0  0  0  0
   -8.3640   19.0270  -32.2230 S   0  0  0  0  0  0  0  0  0  0  0  0
   -9.5290   19.2310  -33.1520 O   0  0  0  0  0  0  0  0  0  0  0  0
   -8.8180   18.1480  -31.0910 O   0  0  0  0  0  0  0  0  0  0  0  0
   -7.0390   18.2600  -33.0880 C   0  0  0  0  0  0  0  0  0  0  0  0
   -6.5660   17.0040  -32.6830 C   0  0  0  0  0  0  0  0  0  0  0  0
   -5.5260   16.3850  -33.3830 C   0  0  0  0  0  0  0  0  0  0  0  0
   -4.9540   17.0130  -34.4970 C   0  0  0  0  0  0  0  0  0  0  0  0
   -3.8910   16.3800  -35.2140 N   0  0  0  0  0  0  0  0  0  0  0  0
   -5.4320   18.2650  -34.9070 C   0  0  0  0  0  0  0  0  0  0  0  0
   -6.4730   18.8850  -34.2070 C   0  0  0  0  0  0  0  0  0  0  0  0
   -6.4800   20.9610  -31.7570 C   0  0  0  0  0  0  0  0  0  0  0  0
   -6.0250   22.1980  -31.2750 C   0  0  0  0  0  0  0  0  0  0  0  0
   -4.3160   22.6170  -31.4820 S   0  0  0  0  0  0  0  0  0  0  0  0
   -3.4880   21.8080  -30.5240 O   0  0  0  0  0  0  0  0  0  0  0  0
   -4.0880   24.0760  -31.1980 O   0  0  0  0  0  0  0  0  0  0  0  0
   -3.8140   22.2850  -33.1070 N   0  0  0  0  0  0  0  0  0  0  0  0
   -2.8580   21.2630  -33.4020 C   0  0  0  0  0  0  0  0  0  0  0  0
   -3.1610   19.9100  -33.3090 C   0  0  0  0  0  0  0  0  0  0  0  0
   -1.7830   19.0550  -33.7490 S   0  0  0  0  0  0  0  0  0  0  0  0
   -0.8650   20.4340  -34.0360 C   0  0  0  0  0  0  0  0  0  0  0  0
   -1.5890   21.5500  -33.8040 N   0  0  0  0  0  0  0  0  0  0  0  0
   -6.5202   24.3513  -28.9631 H   0  0  0  0  0  0  0  0  0  0  0  0
   -5.4857   24.6291  -30.4051 H   0  0  0  0  0  0  0  0  0  0  0  0
   -7.1943   25.1836  -30.4051 H   0  0  0  0  0  0  0  0  0  0  0  0
   -8.9833   23.3331  -29.9530 H   0  0  0  0  0  0  0  0  0  0  0  0
   -9.7609   21.1370  -30.8262 H   0  0  0  0  0  0  0  0  0  0  0  0
   -7.0144   16.5040  -31.8119 H   0  0  0  0  0  0  0  0  0  0  0  0
   -5.1556   15.4016  -33.0579 H   0  0  0  0  0  0  0  0  0  0  0  0
   -3.4030   15.5450  -34.8190 H   0  0  0  0  0  0  0  0  0  0  0  0
   -3.5830   16.7410  -36.1440 H   0  0  0  0  0  0  0  0  0  0  0  0
   -4.9874   18.7619  -35.7819 H   0  0  0  0  0  0  0  0  0  0  0  0
   -6.8479   19.8654  -34.5360 H   0  0  0  0  0  0  0  0  0  0  0  0
   -5.7792   20.2871  -32.2714 H   0  0  0  0  0  0  0  0  0  0  0  0
   -4.2030   22.8710  -33.8800 H   0  0  0  0  0  0  0  0  0  0  0  0
   -4.1255   19.4782  -33.0035 H   0  0  0  0  0  0  0  0  0  0  0  0
    0.1837   20.4279  -34.3679 H   0  0  0  0  0  0  0  0  0  0  0  0
  1  2  1  0
  2  3  2  0
  3  4  1  0
  4  5  2  0
  5  6  1  0
  6  7  2  0
  6  8  2  0
  6  9  1  0
  9 10  2  0
 10 11  1  0
 11 12  2  0
 12 13  1  0
 12 14  1  0
 14 15  2  0
  5 16  1  0
 16 17  2  0
 17 18  1  0
 18 19  2  0
 18 20  2  0
 18 21  1  0
 21 22  1  0
 22 23  2  0
 23 24  1  0
 24 25  1  0
 25 26  2  0
 17  2  1  0
 26 22  1  0
 15  9  1  0
  1 27  1  0
  1 28  1  0
  1 29  1  0
  3 30  1  0
  4 31  1  0
 10 32  1  0
 11 33  1  0
 13 34  1  0
 13 35  1  0
 14 36  1  0
 15 37  1  0
 16 38  1  0
 21 39  1  0
 23 40  1  0
 25 41  1  0
M  END
>  <UniqueID>  (6) 
6

>  <SMILES>  (6) 
Cc1ccc(S(=O)(=O)c2ccc(N)cc2)cc1S(=O)(=O)Nc1cscn1

>  <Energy>  (6) 
75.10429442980005

>  <Genealogy>  (6) 
Cc1ccc(S(=O)(=O)c2ccc(N)cc2)cc1S(=O)(=O)Nc1cscn1 (3D coordinates assigned)
Cc1ccc(S(=O)(=O)c2ccc(N)cc2)cc1S(=O)(=O)Nc1cscn1 (optimized conformer: 75.10429442980005 kcal/mol)

>  <smiles>  (6) 
Cc1ccc(S(=O)(=O)c2ccc(N)cc2)cc1S(=O)(=O)Nc1cscn1

>  <score_type>  (6) 
oracle

>  <origin>  (6) 
adgpu

>  <m_score__min__energy>  (6) 
-9.9100000000000001

>  <m_primary>  (6) 
energy

$$$$
6:0
     RDKit          3D

 57 60  0  0  0  0  0  0  0  0999 V2000
   -9.6710   21.9280  -30.9590 C   0  0  0  0  0  0  0  0  0  0  0  0
   -8.6560   21.0870  -31.6790 C   0  0  0  0  0  0  0  0  0  0  0  0
   -8.9570   19.7610  -32.0310 C   0  0  0  0  0  0  0  0  0  0  0  0
   -8.0150   18.9750  -32.6990 C   0  0  0  0  0  0  0  0  0  0  0  0
   -6.7600   19.5010  -33.0200 C   0  0  0  0  0  0  0  0  0  0  0  0
   -5.5600   18.4930  -33.8190 S   0  0  0  0  0  0  0  0  0  0  0  0
   -5.7300   17.0610  -33.3910 O   0  0  0  0  0  0  0  0  0  0  0  0
   -5.7410   18.5600  -35.3100 O   0  0  0  0  0  0  0  0  0  0  0  0
   -3.9540   19.0650  -33.3840 C   0  0  0  0  0  0  0  0  0  0  0  0
   -3.7500   19.7300  -32.1660 C   0  0  0  0  0  0  0  0  0  0  0  0
   -2.4700   20.1650  -31.8100 C   0  0  0  0  0  0  0  0  0  0  0  0
   -1.3880   19.9320  -32.6650 C   0  0  0  0  0  0  0  0  0  0  0  0
   -1.5860   19.2620  -33.8770 C   0  0  0  0  0  0  0  0  0  0  0  0
   -2.8650   18.8260  -34.2340 C   0  0  0  0  0  0  0  0  0  0  0  0
   -6.4470   20.8190  -32.6620 C   0  0  0  0  0  0  0  0  0  0  0  0
   -7.3960   21.6250  -32.0070 C   0  0  0  0  0  0  0  0  0  0  0  0
   -7.0920   22.9430  -31.6310 O   0  0  0  0  0  0  0  0  0  0  0  0
   -5.9140   23.3520  -30.9930 C   0  0  0  0  0  0  0  0  0  0  0  0
   -5.9330   24.1400  -29.8310 C   0  0  0  0  0  0  0  0  0  0  0  0
   -4.7300   24.4990  -29.2240 C   0  0  0  0  0  0  0  0  0  0  0  0
   -3.5110   24.0540  -29.7550 C   0  0  0  0  0  0  0  0  0  0  0  0
   -2.2310   24.4390  -29.1200 C   0  0  0  0  0  0  0  0  0  0  0  0
   -1.9660   25.6620  -28.9630 O   0  0  0  0  0  0  0  0  0  0  0  0
   -1.2940   23.4450  -28.6600 N   0  0  0  0  0  0  0  0  0  0  0  0
   -1.7710   22.2740  -27.9130 C   0  0  0  0  0  0  0  0  0  0  0  0
   -0.6400   21.6710  -27.0620 C   0  0  0  0  0  0  0  0  0  0  0  0
    0.1670   22.7170  -26.3930 N   0  0  0  0  0  0  0  0  0  0  0  0
   -0.5770   23.3590  -25.2960 C   0  0  0  0  0  0  0  0  0  0  0  0
    0.7560   23.7170  -27.3240 C   0  0  0  0  0  0  0  0  0  0  0  0
    0.1470   23.6930  -28.7370 C   0  0  0  0  0  0  0  0  0  0  0  0
   -3.5350   23.2680  -30.9170 C   0  0  0  0  0  0  0  0  0  0  0  0
   -4.7210   22.9340  -31.4940 N   0  0  0  0  0  0  0  0  0  0  0  0
   -9.5360   21.8161  -29.8731 H   0  0  0  0  0  0  0  0  0  0  0  0
   -9.5372   22.9835  -31.2383 H   0  0  0  0  0  0  0  0  0  0  0  0
  -10.6832   21.6003  -31.2383 H   0  0  0  0  0  0  0  0  0  0  0  0
   -9.9409   19.3387  -31.7790 H   0  0  0  0  0  0  0  0  0  0  0  0
   -8.2615   17.9387  -32.9734 H   0  0  0  0  0  0  0  0  0  0  0  0
   -4.5987   19.9096  -31.4897 H   0  0  0  0  0  0  0  0  0  0  0  0
   -2.3137   20.6910  -30.8566 H   0  0  0  0  0  0  0  0  0  0  0  0
   -0.3814   20.2755  -32.3845 H   0  0  0  0  0  0  0  0  0  0  0  0
   -0.7349   19.0783  -34.5492 H   0  0  0  0  0  0  0  0  0  0  0  0
   -3.0176   18.2938  -35.1845 H   0  0  0  0  0  0  0  0  0  0  0  0
   -5.4521   21.2264  -32.8948 H   0  0  0  0  0  0  0  0  0  0  0  0
   -6.8902   24.4718  -29.4025 H   0  0  0  0  0  0  0  0  0  0  0  0
   -4.7374   25.1335  -28.3255 H   0  0  0  0  0  0  0  0  0  0  0  0
   -2.5959   22.5791  -27.2524 H   0  0  0  0  0  0  0  0  0  0  0  0
   -2.1157   21.5147  -28.6303 H   0  0  0  0  0  0  0  0  0  0  0  0
   -1.0819   21.0181  -26.2949 H   0  0  0  0  0  0  0  0  0  0  0  0
    0.0244   21.1044  -27.7310 H   0  0  0  0  0  0  0  0  0  0  0  0
   -0.1774   23.0142  -24.3309 H   0  0  0  0  0  0  0  0  0  0  0  0
   -0.4679   24.4511  -25.3689 H   0  0  0  0  0  0  0  0  0  0  0  0
   -1.6414   23.0912  -25.3689 H   0  0  0  0  0  0  0  0  0  0  0  0
    0.6013   24.7192  -26.8978 H   0  0  0  0  0  0  0  0  0  0  0  0
    1.8205   23.4619  -27.4324 H   0  0  0  0  0  0  0  0  0  0  0  0
    0.3237   24.6625  -29.2258 H   0  0  0  0  0  0  0  0  0  0  0  0
    0.6201   22.8885  -29.3192 H   0  0  0  0  0  0  0  0  0  0  0  0
   -2.5915   22.9205  -31.3631 H   0  0  0  0  0  0  0  0  0  0  0  0
  1  2  1  0
  2  3  2  0
  3  4  1  0
  4  5  2  0
  5  6  1  0
  6  7  2  0
  6  8  2  0
  6  9  1  0
  9 10  2  0
 10 11  1  0
 11 12  2  0
 12 13  1  0
 13 14  2  0
  5 15  1  0
 15 16  2  0
 16 17  1  0
 17 18  1  0
 18 19  2  0
 19 20  1  0
 20 21  2  0
 21 22  1  0
 22 23  2  0
 22 24  1  0
 24 25  1  0
 25 26  1  0
 26 27  1  0
 27 28  1  0
 27 29  1  0
 29 30  1  0
 21 31  1  0
 31 32  2  0
 16  2  1  0
 32 18  1  0
 14  9  1  0
 30 24  1  0
  1 33  1  0
  1 34  1  0
  1 35  1  0
  3 36  1  0
  4 37  1  0
 10 38  1  0
 11 39  1  0
 12 40  1  0
 13 41  1  0
 14 42  1  0
 15 43  1  0
 19 44  1  0
 20 45  1  0
 25 46  1  0
 25 47  1  0
 26 48  1  0
 26 49  1  0
 28 50  1  0
 28 51  1  0
 28 52  1  0
 29 53  1  0
 29 54  1  0
 30 55  1  0
 30 56  1  0
 31 57  1  0
M  END
>  <UniqueID>  (7) 
7

>  <SMILES>  (7) 
Cc1ccc(S(=O)(=O)c2ccccc2)cc1Oc1ccc(C(=O)N2CCN(C)CC2)cn1

>  <Energy>  (7) 
82.02316774210534

>  <Genealogy>  (7) 
Cc1ccc(S(=O)(=O)c2ccccc2)cc1Oc1ccc(C(=O)N2CCN(C)CC2)cn1 (3D coordinates assigned)
Cc1ccc(S(=O)(=O)c2ccccc2)cc1Oc1ccc(C(=O)N2CCN(C)CC2)cn1 (nonaromatic ring conformer: 82.02316774210534 kcal/mol)

>  <smiles>  (7) 
Cc1ccc(S(=O)(=O)c2ccccc2)cc1Oc1ccc(C(=O)N2CCN(C)CC2)cn1

>  <score_type>  (7) 
oracle

>  <origin>  (7) 
adgpu

>  <m_score__min__energy>  (7) 
-10.800000000000001

>  <m_primary>  (7) 
energy

$$$$
7:0
     RDKit          3D

 29 30  0  0  0  0  0  0  0  0999 V2000
   -0.8220   25.9790  -23.6610 C   0  0  0  0  0  0  0  0  0  0  0  0
   -0.9670   26.0640  -25.1520 C   0  0  0  0  0  0  0  0  0  0  0  0
   -0.0860   26.8550  -25.9020 C   0  0  0  0  0  0  0  0  0  0  0  0
   -0.1920   26.8990  -27.2940 C   0  0  0  0  0  0  0  0  0  0  0  0
   -1.1700   26.1480  -27.9520 C   0  0  0  0  0  0  0  0  0  0  0  0
   -1.2150   26.1730  -29.3430 O   0  0  0  0  0  0  0  0  0  0  0  0
   -2.0690   25.3550  -27.2110 C   0  0  0  0  0  0  0  0  0  0  0  0
   -3.1210   24.5510  -27.8710 C   0  0  0  0  0  0  0  0  0  0  0  0
   -3.6080   23.5620  -27.2570 O   0  0  0  0  0  0  0  0  0  0  0  0
   -3.5890   24.8920  -29.1880 N   0  0  0  0  0  0  0  0  0  0  0  0
   -4.6290   24.1810  -29.8820 C   0  0  0  0  0  0  0  0  0  0  0  0
   -4.3800   22.9500  -30.5170 C   0  0  0  0  0  0  0  0  0  0  0  0
   -5.4160   22.2660  -31.1610 C   0  0  0  0  0  0  0  0  0  0  0  0
   -6.7100   22.7950  -31.1640 C   0  0  0  0  0  0  0  0  0  0  0  0
   -8.0090   21.9360  -31.9720 Cl  0  0  0  0  0  0  0  0  0  0  0  0
   -6.9700   24.0060  -30.5140 C   0  0  0  0  0  0  0  0  0  0  0  0
   -5.9370   24.6910  -29.8690 C   0  0  0  0  0  0  0  0  0  0  0  0
   -1.9420   25.3010  -25.8120 C   0  0  0  0  0  0  0  0  0  0  0  0
   -1.6756   26.4794  -23.1805 H   0  0  0  0  0  0  0  0  0  0  0  0
   -0.7962   24.9228  -23.3547 H   0  0  0  0  0  0  0  0  0  0  0  0
    0.1122   26.4725  -23.3547 H   0  0  0  0  0  0  0  0  0  0  0  0
    0.6916   27.4432  -25.3926 H   0  0  0  0  0  0  0  0  0  0  0  0
    0.4980   27.5281  -27.8755 H   0  0  0  0  0  0  0  0  0  0  0  0
   -3.1190   25.6700  -29.7020 H   0  0  0  0  0  0  0  0  0  0  0  0
   -3.3659   22.5239  -30.5068 H   0  0  0  0  0  0  0  0  0  0  0  0
   -5.2123   21.3102  -31.6660 H   0  0  0  0  0  0  0  0  0  0  0  0
   -7.9892   24.4197  -30.5106 H   0  0  0  0  0  0  0  0  0  0  0  0
   -6.1499   25.6359  -29.3477 H   0  0  0  0  0  0  0  0  0  0  0  0
   -2.6138   24.6540  -25.2289 H   0  0  0  0  0  0  0  0  0  0  0  0
  1  2  1  0
  2  3  2  0
  3  4  1  0
  4  5  2  0
  5  6  1  0
  5  7  1  0
  7  8  1  0
  8  9  2  0
  8 10  1  0
 10 11  1  0
 11 12  2  0
 12 13  1  0
 13 14  2  0
 14 15  1  0
 14 16  1  0
 16 17  2  0
  7 18  2  0
 18  2  1  0
 17 11  1  0
  1 19  1  0
  1 20  1  0
  1 21  1  0
  3 22  1  0
  4 23  1  0
 10 24  1  0
 12 25  1  0
 13 26  1  0
 16 27  1  0
 17 28  1  0
 18 29  1  0
M  CHG  1   6  -1
M  END
>  <UniqueID>  (8) 
8

>  <SMILES>  (8) 
Cc1ccc([O-])c(C(=O)Nc2ccc(Cl)cc2)c1

>  <Energy>  (8) 
37.82194362446354

>  <Genealogy>  (8) 
Cc1ccc([O-])c(C(=O)Nc2ccc(Cl)cc2)c1 (protonated)
Cc1ccc([O-])c(C(=O)Nc2ccc(Cl)cc2)c1 (3D coordinates assigned)
Cc1ccc([O-])c(C(=O)Nc2ccc(Cl)cc2)c1 (optimized conformer: 37.82194362446354 kcal/mol)

>  <smiles>  (8) 
Cc1ccc(O)c(C(=O)Nc2ccc(Cl)cc2)c1

>  <score_type>  (8) 
oracle

>  <origin>  (8) 
adgpu

>  <m_score__min__energy>  (8) 
-10.140000000000001

>  <m_primary>  (8) 
energy

$$$$
8:0
     RDKit          3D

 41 43  0  0  0  0  0  0  0  0999 V2000
   -4.9530   23.8890  -29.0020 O   0  0  0  0  0  0  0  0  0  0  0  0
   -4.8590   23.6140  -30.4770 S   0  0  0  0  0  0  0  0  0  0  0  0
   -4.6340   24.9220  -31.1850 O   0  0  0  0  0  0  0  0  0  0  0  0
   -3.5200   22.5190  -30.7980 C   0  0  0  0  0  0  0  0  0  0  0  0
   -3.2350   22.1150  -32.1080 C   0  0  0  0  0  0  0  0  0  0  0  0
   -2.1520   21.2700  -32.3560 C   0  0  0  0  0  0  0  0  0  0  0  0
   -1.3610   20.8400  -31.2880 C   0  0  0  0  0  0  0  0  0  0  0  0
   -1.6460   21.2480  -30.0220 N   0  0  0  0  0  0  0  0  0  0  0  0
   -2.6950   22.0730  -29.7560 C   0  0  0  0  0  0  0  0  0  0  0  0
   -6.3470   22.8650  -31.0400 C   0  0  0  0  0  0  0  0  0  0  0  0
   -7.5060   23.6310  -31.2240 C   0  0  0  0  0  0  0  0  0  0  0  0
   -8.6690   23.0340  -31.7180 C   0  0  0  0  0  0  0  0  0  0  0  0
   -8.6780   21.6740  -32.0390 C   0  0  0  0  0  0  0  0  0  0  0  0
   -7.5230   20.9010  -31.8590 C   0  0  0  0  0  0  0  0  0  0  0  0
   -7.5270   19.1980  -32.3130 S   0  0  0  0  0  0  0  0  0  0  0  0
   -8.9520   18.7480  -32.4840 O   0  0  0  0  0  0  0  0  0  0  0  0
   -6.8940   18.3770  -31.2240 O   0  0  0  0  0  0  0  0  0  0  0  0
   -6.6520   18.9840  -33.8100 N   0  0  0  0  0  0  0  0  0  0  0  0
   -5.4240   19.8180  -33.8380 C   0  0  0  0  0  0  0  0  0  0  0  0
   -4.1560   18.9850  -33.5770 C   0  0  0  0  0  0  0  0  0  0  0  0
   -3.9690   17.9390  -34.5200 O   0  0  0  0  0  0  0  0  0  0  0  0
   -5.1850   17.3610  -34.9840 C   0  0  0  0  0  0  0  0  0  0  0  0
   -6.3740   17.5480  -34.0260 C   0  0  0  0  0  0  0  0  0  0  0  0
   -6.3600   21.5000  -31.3580 C   0  0  0  0  0  0  0  0  0  0  0  0
   -3.8638   22.4631  -32.9407 H   0  0  0  0  0  0  0  0  0  0  0  0
   -1.9237   20.9460  -33.3821 H   0  0  0  0  0  0  0  0  0  0  0  0
   -0.5071   20.1711  -31.4708 H   0  0  0  0  0  0  0  0  0  0  0  0
   -2.8959   22.3903  -28.7221 H   0  0  0  0  0  0  0  0  0  0  0  0
   -7.5003   24.7034  -30.9793 H   0  0  0  0  0  0  0  0  0  0  0  0
   -9.5794   23.6360  -31.8545 H   0  0  0  0  0  0  0  0  0  0  0  0
   -9.5935   21.2092  -32.4338 H   0  0  0  0  0  0  0  0  0  0  0  0
   -7.2850   19.3120  -34.5780 H   0  0  0  0  0  0  0  0  0  0  0  0
   -5.3397   20.2932  -34.8265 H   0  0  0  0  0  0  0  0  0  0  0  0
   -5.5062   20.5712  -33.0406 H   0  0  0  0  0  0  0  0  0  0  0  0
   -3.2837   19.6538  -33.6193 H   0  0  0  0  0  0  0  0  0  0  0  0
   -4.2705   18.5168  -32.5882 H   0  0  0  0  0  0  0  0  0  0  0  0
   -5.4419   17.8240  -35.9482 H   0  0  0  0  0  0  0  0  0  0  0  0
   -5.0107   16.2780  -35.0663 H   0  0  0  0  0  0  0  0  0  0  0  0
   -7.2648   17.0691  -34.4587 H   0  0  0  0  0  0  0  0  0  0  0  0
   -6.1240   17.0874  -33.0589 H   0  0  0  0  0  0  0  0  0  0  0  0
   -5.4522   20.8959  -31.2134 H   0  0  0  0  0  0  0  0  0  0  0  0
  1  2  2  0
  2  3  2  0
  2  4  1  0
  4  5  2  0
  5  6  1  0
  6  7  2  0
  7  8  1  0
  8  9  2  0
  2 10  1  0
 10 11  2  0
 11 12  1  0
 12 13  2  0
 13 14  1  0
 14 15  1  0
 15 16  2  0
 15 17  2  0
 15 18  1  0
 18 19  1  0
 19 20  1  0
 20 21  1  0
 21 22  1  0
 22 23  1  0
 14 24  2  0
  9  4  1  0
 24 10  1  0
 23 18  1  0
  5 25  1  0
  6 26  1  0
  7 27  1  0
  9 28  1  0
 11 29  1  0
 12 30  1  0
 13 31  1  0
 18 32  1  0
 19 33  1  0
 19 34  1  0
 20 35  1  0
 20 36  1  0
 22 37  1  0
 22 38  1  0
 23 39  1  0
 23 40  1  0
 24 41  1  0
M  CHG  1  18   1
M  END
>  <UniqueID>  (9) 
9

>  <SMILES>  (9) 
O=S(=O)(c1cccnc1)c1cccc(S(=O)(=O)[NH+]2CCOCC2)c1

>  <Energy>  (9) 
56.89123624923735

>  <Genealogy>  (9) 
O=S(=O)(c1cccnc1)c1cccc(S(=O)(=O)[NH+]2CCOCC2)c1 (protonated)
O=S(=O)(c1cccnc1)c1cccc(S(=O)(=O)[NH+]2CCOCC2)c1 (3D coordinates assigned)
O=S(=O)(c1cccnc1)c1cccc(S(=O)(=O)[NH+]2CCOCC2)c1 (nonaromatic ring conformer: 56.89123624923735 kcal/mol)

>  <smiles>  (9) 
O=S(=O)(c1cccnc1)c1cccc(S(=O)(=O)N2CCOCC2)c1

>  <score_type>  (9) 
oracle

>  <origin>  (9) 
adgpu

>  <m_score__min__energy>  (9) 
-8.5399999999999991

>  <m_primary>  (9) 
energy

$$$$
9:0
     RDKit          3D

 60 63  0  0  0  0  0  0  0  0999 V2000
   -4.1930   25.6890  -30.5120 N   0  0  0  0  0  0  0  0  0  0  0  0
   -4.2030   23.9620  -30.4530 S   0  0  0  0  0  0  0  0  0  0  0  0
   -3.2780   23.4210  -31.5070 O   0  0  0  0  0  0  0  0  0  0  0  0
   -3.7190   23.5030  -29.1050 O   0  0  0  0  0  0  0  0  0  0  0  0
   -5.8380   23.3730  -30.7330 C   0  0  0  0  0  0  0  0  0  0  0  0
   -6.5550   22.7640  -29.6950 C   0  0  0  0  0  0  0  0  0  0  0  0
   -7.8500   22.2870  -29.9200 C   0  0  0  0  0  0  0  0  0  0  0  0
   -8.4430   22.4160  -31.1860 C   0  0  0  0  0  0  0  0  0  0  0  0
   -9.8360   21.9020  -31.4370 C   0  0  0  0  0  0  0  0  0  0  0  0
   -9.8060   20.7410  -32.3290 N   0  0  0  0  0  0  0  0  0  0  0  0
   -8.6540   19.9000  -32.5360 C   0  0  0  0  0  0  0  0  0  0  0  0
   -8.5660   18.6800  -31.8480 C   0  0  0  0  0  0  0  0  0  0  0  0
   -7.4600   17.8430  -32.0220 C   0  0  0  0  0  0  0  0  0  0  0  0
   -6.4240   18.2170  -32.8860 C   0  0  0  0  0  0  0  0  0  0  0  0
   -5.0470   17.1500  -33.1330 S   0  0  0  0  0  0  0  0  0  0  0  0
   -5.1470   16.4820  -34.4760 O   0  0  0  0  0  0  0  0  0  0  0  0
   -5.0310   16.0790  -32.0780 O   0  0  0  0  0  0  0  0  0  0  0  0
   -3.5720   18.1030  -33.0430 C   0  0  0  0  0  0  0  0  0  0  0  0
   -2.3540   17.5590  -33.4710 C   0  0  0  0  0  0  0  0  0  0  0  0
   -1.1890   18.3300  -33.4380 C   0  0  0  0  0  0  0  0  0  0  0  0
   -1.2320   19.6570  -32.9880 C   0  0  0  0  0  0  0  0  0  0  0  0
    0.2310   20.6460  -32.9880 S   0  0  0  0  0  0  0  0  0  0  0  0
    0.1620   21.6320  -31.8550 O   0  0  0  0  0  0  0  0  0  0  0  0
    1.4270   19.7620  -32.7620 O   0  0  0  0  0  0  0  0  0  0  0  0
    0.4230   21.5120  -34.4950 N   0  0  0  0  0  0  0  0  0  0  0  0
    1.8040   22.0140  -34.6300 C   0  0  0  0  0  0  0  0  0  0  0  0
    2.1350   22.3020  -36.1030 C   0  0  0  0  0  0  0  0  0  0  0  0
    2.0390   21.1630  -36.9510 O   0  0  0  0  0  0  0  0  0  0  0  0
    1.1780   20.1480  -36.4540 C   0  0  0  0  0  0  0  0  0  0  0  0
   -0.0150   20.7000  -35.6510 C   0  0  0  0  0  0  0  0  0  0  0  0
   -2.4510   20.1970  -32.5530 C   0  0  0  0  0  0  0  0  0  0  0  0
   -3.6150   19.4260  -32.5860 C   0  0  0  0  0  0  0  0  0  0  0  0
   -6.5110   19.4260  -33.5880 C   0  0  0  0  0  0  0  0  0  0  0  0
   -7.6160   20.2630  -33.4150 C   0  0  0  0  0  0  0  0  0  0  0  0
   -7.7120   23.0080  -32.2300 C   0  0  0  0  0  0  0  0  0  0  0  0
   -6.4180   23.4850  -32.0030 C   0  0  0  0  0  0  0  0  0  0  0  0
   -3.4850   25.9650  -31.2300 H   0  0  0  0  0  0  0  0  0  0  0  0
   -6.0978   22.6607  -28.6998 H   0  0  0  0  0  0  0  0  0  0  0  0
   -8.4069   21.8083  -29.1010 H   0  0  0  0  0  0  0  0  0  0  0  0
  -10.2912   21.6099  -30.4792 H   0  0  0  0  0  0  0  0  0  0  0  0
  -10.4267   22.6986  -31.9129 H   0  0  0  0  0  0  0  0  0  0  0  0
  -10.7000   20.4870  -32.8090 H   0  0  0  0  0  0  0  0  0  0  0  0
   -9.3747   18.3796  -31.1656 H   0  0  0  0  0  0  0  0  0  0  0  0
   -7.4036   16.8882  -31.4787 H   0  0  0  0  0  0  0  0  0  0  0  0
   -2.3146   16.5215  -33.8343 H   0  0  0  0  0  0  0  0  0  0  0  0
   -0.2341   17.8938  -33.7665 H   0  0  0  0  0  0  0  0  0  0  0  0
    1.9097   22.9414  -34.0480 H   0  0  0  0  0  0  0  0  0  0  0  0
    2.4976   21.2472  -34.2547 H   0  0  0  0  0  0  0  0  0  0  0  0
    1.4361   23.0674  -36.4714 H   0  0  0  0  0  0  0  0  0  0  0  0
    3.1829   22.6350  -36.1346 H   0  0  0  0  0  0  0  0  0  0  0  0
    0.7885   19.5723  -37.3066 H   0  0  0  0  0  0  0  0  0  0  0  0
    1.7711   19.5244  -35.7689 H   0  0  0  0  0  0  0  0  0  0  0  0
   -0.6290   21.3277  -36.3136 H   0  0  0  0  0  0  0  0  0  0  0  0
   -0.5906   19.8449  -35.2668 H   0  0  0  0  0  0  0  0  0  0  0  0
   -2.4905   21.2326  -32.1841 H   0  0  0  0  0  0  0  0  0  0  0  0
   -4.5691   19.8596  -32.2518 H   0  0  0  0  0  0  0  0  0  0  0  0
   -5.7058   19.7176  -34.2784 H   0  0  0  0  0  0  0  0  0  0  0  0
   -7.6754   21.2115  -33.9690 H   0  0  0  0  0  0  0  0  0  0  0  0
   -8.1603   23.0964  -33.2306 H   0  0  0  0  0  0  0  0  0  0  0  0
   -5.8532   23.9499  -32.8245 H   0  0  0  0  0  0  0  0  0  0  0  0
  1  2  1  0
  2  3  2  0
  2  4  2  0
  2  5  1  0
  5  6  2  0
  6  7  1  0
  7  8  2  0
  8  9  1  0
  9 10  1  0
 10 11  1  0
 11 12  2  0
 12 13  1  0
 13 14  2  0
 14 15  1  0
 15 16  2  0
 15 17  2  0
 15 18  1  0
 18 19  2  0
 19 20  1  0
 20 21  2  0
 21 22  1  0
 22 23  2  0
 22 24  2  0
 22 25  1  0
 25 26  1  0
 26 27  1  0
 27 28  1  0
 28 29  1  0
 29 30  1  0
 21 31  1  0
 31 32  2  0
 14 33  1  0
 33 34  2  0
  8 35  1  0
 35 36  2  0
 36  5  1  0
 34 11  1  0
 32 18  1  0
 30 25  1  0
  1 37  1  0
  6 38  1  0
  7 39  1  0
  9 40  1  0
  9 41  1  0
 10 42  1  0
 12 43  1  0
 13 44  1  0
 19 45  1  0
 20 46  1  0
 26 47  1  0
 26 48  1  0
 27 49  1  0
 27 50  1  0
 29 51  1  0
 29 52  1  0
 30 53  1  0
 30 54  1  0
 31 55  1  0
 32 56  1  0
 33 57  1  0
 34 58  1  0
 35 59  1  0
 36 60  1  0
M  CHG  1   1  -1
M  END
>  <UniqueID>  (10) 
10

>  <SMILES>  (10) 
[NH-]S(=O)(=O)c1ccc(CNc2ccc(S(=O)(=O)c3ccc(S(=O)(=O)N4CCOCC4)cc3)cc2)cc1

>  <Energy>  (10) 
75.55321838403542

>  <Genealogy>  (10) 
[NH-]S(=O)(=O)c1ccc(CNc2ccc(S(=O)(=O)c3ccc(S(=O)(=O)N4CCOCC4)cc3)cc2)cc1 (protonated)
[NH-]S(=O)(=O)c1ccc(CNc2ccc(S(=O)(=O)c3ccc(S(=O)(=O)N4CCOCC4)cc3)cc2)cc1 (3D coordinates assigned)
[NH-]S(=O)(=O)c1ccc(CNc2ccc(S(=O)(=O)c3ccc(S(=O)(=O)N4CCOCC4)cc3)cc2)cc1 (nonaromatic ring conformer: 75.55321838403542 kcal/mol)

>  <smiles>  (10) 
NS(=O)(=O)c1ccc(CNc2ccc(S(=O)(=O)c3ccc(S(=O)(=O)N4CCOCC4)cc3)cc2)cc1

>  <score_type>  (10) 
oracle

>  <origin>  (10) 
adgpu

>  <m_score__min__energy>  (10) 
-13.01

>  <m_primary>  (10) 
energy

$$$$
10:0
     RDKit          3D

 45 47  0  0  1  0  0  0  0  0999 V2000
   -7.4560   22.6540  -30.5780 C   0  0  0  0  0  0  0  0  0  0  0  0
   -7.9230   22.1530  -31.9350 C   0  0  0  0  0  0  0  0  0  0  0  0
   -9.4570   22.3870  -31.9140 C   0  0  0  0  0  0  0  0  0  0  0  0
   -7.6930   20.7000  -32.1180 C   0  0  0  0  0  0  0  0  0  0  0  0
   -8.8480   19.9040  -32.1150 C   0  0  0  0  0  0  0  0  0  0  0  0
   -8.7950   18.5410  -32.3060 C   0  0  0  0  0  0  0  0  0  0  0  0
   -7.5600   17.9850  -32.5000 C   0  0  0  0  0  0  0  0  0  0  0  0
   -6.4350   18.7600  -32.5030 C   0  0  0  0  0  0  0  0  0  0  0  0
   -6.4530   20.1480  -32.3110 C   0  0  0  0  0  0  0  0  0  0  0  0
   -5.1930   20.8460  -32.2740 C   0  0  0  0  0  0  0  0  0  0  0  0
   -4.2500   21.0540  -31.3040 C   0  0  0  0  0  0  0  0  0  0  0  0
   -3.1690   21.7740  -31.8220 C   0  0  0  0  0  0  0  0  0  0  0  0
   -2.1050   22.1480  -31.1910 N   0  0  0  0  0  0  0  0  0  0  0  0
   -1.9570   21.8200  -29.8170 C   0  0  0  0  0  0  0  0  0  0  0  0
   -1.4170   20.5860  -29.5130 C   0  0  0  0  0  0  0  0  0  0  0  0
   -1.2350   20.1830  -28.1990 C   0  0  0  0  0  0  0  0  0  0  0  0
   -1.6120   21.0500  -27.1810 C   0  0  0  0  0  0  0  0  0  0  0  0
   -2.1530   22.2860  -27.4670 C   0  0  0  0  0  0  0  0  0  0  0  0
   -2.3230   22.6630  -28.7890 C   0  0  0  0  0  0  0  0  0  0  0  0
   -3.0040   24.2170  -29.2360 S   0  0  0  0  0  0  0  0  0  0  0  0
   -3.7440   24.2170  -30.7690 N   0  0  0  0  0  0  0  0  0  0  0  0
   -4.0510   24.5530  -28.2140 O   0  0  0  0  0  0  0  0  0  0  0  0
   -1.9550   25.2920  -29.2300 O   0  0  0  0  0  0  0  0  0  0  0  0
   -3.4920   21.9820  -33.1020 N   0  0  0  0  0  0  0  0  0  0  0  0
   -4.6640   21.4490  -33.3800 N   0  0  0  0  0  0  0  0  0  0  0  0
   -7.9746   22.0976  -29.7834 H   0  0  0  0  0  0  0  0  0  0  0  0
   -6.3707   22.5011  -30.4843 H   0  0  0  0  0  0  0  0  0  0  0  0
   -7.6847   23.7259  -30.4843 H   0  0  0  0  0  0  0  0  0  0  0  0
   -7.3808   22.6680  -32.7417 H   0  0  0  0  0  0  0  0  0  0  0  0
   -9.8056   22.4402  -30.8720 H   0  0  0  0  0  0  0  0  0  0  0  0
   -9.6909   23.3312  -32.4275 H   0  0  0  0  0  0  0  0  0  0  0  0
   -9.9618   21.5555  -32.4275 H   0  0  0  0  0  0  0  0  0  0  0  0
   -9.8254   20.3827  -31.9553 H   0  0  0  0  0  0  0  0  0  0  0  0
   -9.7068   17.9256  -32.3027 H   0  0  0  0  0  0  0  0  0  0  0  0
   -7.4718   16.8996  -32.6556 H   0  0  0  0  0  0  0  0  0  0  0  0
   -5.4641   18.2688  -32.6646 H   0  0  0  0  0  0  0  0  0  0  0  0
   -4.3310   20.7043  -30.2642 H   0  0  0  0  0  0  0  0  0  0  0  0
   -1.1254   19.9092  -30.3297 H   0  0  0  0  0  0  0  0  0  0  0  0
   -0.8018   19.1987  -27.9676 H   0  0  0  0  0  0  0  0  0  0  0  0
   -1.4771   20.7465  -26.1323 H   0  0  0  0  0  0  0  0  0  0  0  0
   -2.4466   22.9656  -26.6534 H   0  0  0  0  0  0  0  0  0  0  0  0
   -4.6810   23.8110  -30.8270 H   0  0  0  0  0  0  0  0  0  0  0  0
   -3.1250   24.1270  -31.5790 H   0  0  0  0  0  0  0  0  0  0  0  0
   -2.8680   22.5070  -33.7730 H   0  0  0  0  0  0  0  0  0  0  0  0
   -5.0780   21.5180  -34.3420 H   0  0  0  0  0  0  0  0  0  0  0  0
  1  2  1  0
  2  3  1  0
  2  4  1  0
  4  5  2  0
  5  6  1  0
  6  7  2  0
  7  8  1  0
  8  9  2  0
  9 10  1  0
 10 11  2  0
 11 12  1  0
 12 13  2  0
 13 14  1  0
 14 15  2  0
 15 16  1  0
 16 17  2  0
 17 18  1  0
 18 19  2  0
 19 20  1  0
 20 21  1  0
 20 22  2  0
 20 23  2  0
 12 24  1  0
 24 25  1  0
  9  4  1  0
 25 10  1  0
 19 14  1  0
  1 26  1  0
  1 27  1  0
  1 28  1  0
  2 29  1  0
  3 30  1  0
  3 31  1  0
  3 32  1  0
  5 33  1  0
  6 34  1  0
  7 35  1  0
  8 36  1  0
 11 37  1  0
 15 38  1  0
 16 39  1  0
 17 40  1  0
 18 41  1  0
 21 42  1  0
 21 43  1  0
 24 44  1  0
 25 45  1  0
M  END
>  <smiles>  (11) 
CC(C)c1ccccc1-c1cc(=Nc2ccccc2S(N)(=O)=O)[nH][nH]1

>  <score_type>  (11) 
oracle

>  <origin>  (11) 
adgpu

>  <m_score__min__energy>  (11) 
-10.56

>  <m_primary>  (11) 
energy

$$$$
11:0
     RDKit          3D

 40 41  0  0  0  0  0  0  0  0999 V2000
   -2.9300   21.5056  -31.3563 H   0  0  0  0  0  0  0  0  0  0  0  0
   -3.0040   22.4850  -30.8610 C   0  0  0  0  0  0  0  0  0  0  0  0
   -4.1180   23.2990  -31.0980 C   0  0  0  0  0  0  0  0  0  0  0  0
   -5.3710   22.6680  -32.1870 S   0  0  0  0  0  0  0  0  0  0  0  0
   -4.6840   21.9570  -33.3200 O   0  0  0  0  0  0  0  0  0  0  0  0
   -6.2250   23.7600  -32.7680 O   0  0  0  0  0  0  0  0  0  0  0  0
   -6.3760   21.5320  -31.3200 N   0  0  0  0  0  0  0  0  0  0  0  0
   -7.7840   21.9800  -31.3410 C   0  0  0  0  0  0  0  0  0  0  0  0
   -7.9261   22.7576  -30.5761 H   0  0  0  0  0  0  0  0  0  0  0  0
   -8.0115   22.3789  -32.3406 H   0  0  0  0  0  0  0  0  0  0  0  0
   -8.7320   20.8130  -31.0520 C   0  0  0  0  0  0  0  0  0  0  0  0
   -8.4596   20.3596  -30.0875 H   0  0  0  0  0  0  0  0  0  0  0  0
   -9.7614   21.1994  -31.0215 H   0  0  0  0  0  0  0  0  0  0  0  0
   -8.6490   19.7810  -32.1120 N   0  0  0  0  0  0  0  0  0  0  0  0
   -9.0850   18.4750  -31.5950 C   0  0  0  0  0  0  0  0  0  0  0  0
   -9.0783   18.4952  -30.4952 H   0  0  0  0  0  0  0  0  0  0  0  0
  -10.1033   18.2609  -31.9516 H   0  0  0  0  0  0  0  0  0  0  0  0
   -8.3995   17.6921  -31.9516 H   0  0  0  0  0  0  0  0  0  0  0  0
   -7.3150   19.6920  -32.7560 C   0  0  0  0  0  0  0  0  0  0  0  0
   -7.1326   18.6471  -33.0475 H   0  0  0  0  0  0  0  0  0  0  0  0
   -7.3197   20.3597  -33.6302 H   0  0  0  0  0  0  0  0  0  0  0  0
   -6.1800   20.1500  -31.8220 C   0  0  0  0  0  0  0  0  0  0  0  0
   -6.1342   19.4660  -30.9617 H   0  0  0  0  0  0  0  0  0  0  0  0
   -5.2455   20.1360  -32.4021 H   0  0  0  0  0  0  0  0  0  0  0  0
   -4.1900   24.5500  -30.4360 C   0  0  0  0  0  0  0  0  0  0  0  0
   -5.3330   25.5040  -30.6100 C   0  0  0  0  0  0  0  0  0  0  0  0
   -5.7050   25.8145  -29.6225 H   0  0  0  0  0  0  0  0  0  0  0  0
   -4.9909   26.3883  -31.1676 H   0  0  0  0  0  0  0  0  0  0  0  0
   -6.1419   25.0093  -31.1676 H   0  0  0  0  0  0  0  0  0  0  0  0
   -3.1750   24.9240  -29.6090 N   0  0  0  0  0  0  0  0  0  0  0  0
   -2.0860   24.1450  -29.3740 C   0  0  0  0  0  0  0  0  0  0  0  0
   -1.1290   24.5270  -28.5750 N   0  0  0  0  0  0  0  0  0  0  0  0
   -1.0090   25.7490  -27.8220 C   0  0  0  0  0  0  0  0  0  0  0  0
   -0.9780   26.8370  -28.4520 O   0  0  0  0  0  0  0  0  0  0  0  0
   -0.9190   25.7870  -26.3250 C   0  0  0  0  0  0  0  0  0  0  0  0
   -1.8504   25.3937  -25.8916 H   0  0  0  0  0  0  0  0  0  0  0  0
   -0.0710   25.1701  -25.9929 H   0  0  0  0  0  0  0  0  0  0  0  0
   -0.7697   26.8250  -25.9929 H   0  0  0  0  0  0  0  0  0  0  0  0
   -1.9880   22.9030  -30.0040 C   0  0  0  0  0  0  0  0  0  0  0  0
   -1.1146   22.2587  -29.8250 H   0  0  0  0  0  0  0  0  0  0  0  0
  1  2  1  0
  2  3  1  0
  3  4  1  0
  4  5  2  0
  4  6  2  0
  4  7  1  0
  7  8  1  0
  8  9  1  0
  8 10  1  0
  8 11  1  0
 11 12  1  0
 11 13  1  0
 11 14  1  0
 14 15  1  0
 15 16  1  0
 15 17  1  0
 15 18  1  0
 14 19  1  0
 19 20  1  0
 19 21  1  0
 19 22  1  0
 22 23  1  0
 22 24  1  0
  3 25  2  0
 25 26  1  0
 26 27  1  0
 26 28  1  0
 26 29  1  0
 25 30  1  0
 30 31  1  0
 31 32  2  0
 32 33  1  0
 33 34  2  0
 33 35  1  0
 35 36  1  0
 35 37  1  0
 35 38  1  0
 31 39  1  0
 39 40  1  0
 39  2  2  0
 22  7  1  0
M  CHG  1  30  -1
M  END
>  <UniqueID>  (12) 
11

>  <SMILES>  (12) 
CC(=O)/N=c1/ccc(S(=O)(=O)N2CCN(C)CC2)c(C)[n-]1

>  <Energy>  (12) 
54.412807134799586

>  <Genealogy>  (12) 
CC(=O)N=c1ccc(S(=O)(=O)N2CCN(C)CC2)c(C)[n-]1 (protonated)
CC(=O)/N=c1/ccc(S(=O)(=O)N2CCN(C)CC2)c(C)[n-]1 (cis-trans isomerization)
CC(=O)/N=c1/ccc(S(=O)(=O)N2CCN(C)CC2)c(C)[n-]1 (3D coordinates assigned)
CC(=O)/N=c1/ccc(S(=O)(=O)N2CCN(C)CC2)c(C)[n-]1 (nonaromatic ring conformer: 54.412807134799586 kcal/mol)

>  <smiles>  (12) 
CC(=O)N=c1ccc(S(=O)(=O)N2CCN(C)CC2)c(C)[nH]1

>  <score_type>  (12) 
oracle

>  <origin>  (12) 
adgpu

>  <m_score__min__energy>  (12) 
-9.1999999999999993

>  <m_primary>  (12) 
energy

$$$$
12:0
     RDKit          3D

 48 51  0  0  0  0  0  0  0  0999 V2000
   -4.0390   14.5770  -34.3410 C   0  0  0  0  0  0  0  0  0  0  0  0
   -4.7840   15.7680  -33.8420 C   0  0  0  0  0  0  0  0  0  0  0  0
   -5.0720   16.9070  -34.5880 C   0  0  0  0  0  0  0  0  0  0  0  0
   -5.7560   17.7190  -33.7130 C   0  0  0  0  0  0  0  0  0  0  0  0
   -6.3290   18.9760  -33.8940 C   0  0  0  0  0  0  0  0  0  0  0  0
   -7.0300   19.5430  -32.8110 C   0  0  0  0  0  0  0  0  0  0  0  0
   -7.7310   20.7750  -33.0160 N   0  0  0  0  0  0  0  0  0  0  0  0
   -8.1840   21.8550  -31.7330 S   0  0  0  0  0  0  0  0  0  0  0  0
   -9.3250   22.7160  -32.1960 O   0  0  0  0  0  0  0  0  0  0  0  0
   -8.6150   21.0470  -30.5420 O   0  0  0  0  0  0  0  0  0  0  0  0
   -6.8090   22.8570  -31.2720 C   0  0  0  0  0  0  0  0  0  0  0  0
   -6.9550   24.2440  -31.1450 C   0  0  0  0  0  0  0  0  0  0  0  0
   -5.8460   25.0430  -30.8540 C   0  0  0  0  0  0  0  0  0  0  0  0
   -4.5790   24.4650  -30.7120 C   0  0  0  0  0  0  0  0  0  0  0  0
   -3.4820   25.2810  -30.4550 O   0  0  0  0  0  0  0  0  0  0  0  0
   -4.4240   23.0740  -30.8340 C   0  0  0  0  0  0  0  0  0  0  0  0
   -2.8210   22.3400  -30.7660 S   0  0  0  0  0  0  0  0  0  0  0  0
   -1.8940   23.3000  -30.0700 O   0  0  0  0  0  0  0  0  0  0  0  0
   -2.9010   21.0660  -29.9690 O   0  0  0  0  0  0  0  0  0  0  0  0
   -2.2430   22.0170  -32.3940 N   0  0  0  0  0  0  0  0  0  0  0  0
   -3.3270   21.5400  -33.2770 C   0  0  0  0  0  0  0  0  0  0  0  0
   -3.4210   20.0010  -33.3240 C   0  0  0  0  0  0  0  0  0  0  0  0
   -2.9060   19.4320  -32.1390 O   0  0  0  0  0  0  0  0  0  0  0  0
   -1.5060   19.6460  -32.0630 C   0  0  0  0  0  0  0  0  0  0  0  0
   -1.0910   21.0970  -32.4070 C   0  0  0  0  0  0  0  0  0  0  0  0
   -5.5500   22.2750  -31.0760 C   0  0  0  0  0  0  0  0  0  0  0  0
   -7.0990   18.8490  -31.5730 C   0  0  0  0  0  0  0  0  0  0  0  0
   -6.4980   17.5880  -31.4240 C   0  0  0  0  0  0  0  0  0  0  0  0
   -5.8410   17.0460  -32.5240 C   0  0  0  0  0  0  0  0  0  0  0  0
   -5.2490   15.8810  -32.6100 O   0  0  0  0  0  0  0  0  0  0  0  0
   -3.6717   13.9898  -33.4865 H   0  0  0  0  0  0  0  0  0  0  0  0
   -4.7093   13.9549  -34.9524 H   0  0  0  0  0  0  0  0  0  0  0  0
   -3.1864   14.9075  -34.9524 H   0  0  0  0  0  0  0  0  0  0  0  0
   -4.8122   17.1113  -35.6372 H   0  0  0  0  0  0  0  0  0  0  0  0
   -6.2371   19.5089  -34.8519 H   0  0  0  0  0  0  0  0  0  0  0  0
   -7.9450   24.7056  -31.2746 H   0  0  0  0  0  0  0  0  0  0  0  0
   -5.9691   26.1297  -30.7361 H   0  0  0  0  0  0  0  0  0  0  0  0
   -4.2831   21.9401  -32.9085 H   0  0  0  0  0  0  0  0  0  0  0  0
   -3.1053   21.8912  -34.2956 H   0  0  0  0  0  0  0  0  0  0  0  0
   -4.4750   19.7071  -33.4370 H   0  0  0  0  0  0  0  0  0  0  0  0
   -2.8291   19.6370  -34.1767 H   0  0  0  0  0  0  0  0  0  0  0  0
   -1.1730   19.4206  -31.0391 H   0  0  0  0  0  0  0  0  0  0  0  0
   -1.0338   18.9863  -32.8059 H   0  0  0  0  0  0  0  0  0  0  0  0
   -0.3533   21.4407  -31.6669 H   0  0  0  0  0  0  0  0  0  0  0  0
   -0.6658   21.0981  -33.4215 H   0  0  0  0  0  0  0  0  0  0  0  0
   -5.4440   21.1807  -31.1123 H   0  0  0  0  0  0  0  0  0  0  0  0
   -7.6284   19.3037  -30.7227 H   0  0  0  0  0  0  0  0  0  0  0  0
   -6.5454   17.0463  -30.4678 H   0  0  0  0  0  0  0  0  0  0  0  0
  1  2  1  0
  2  3  2  0
  3  4  1  0
  4  5  2  0
  5  6  1  0
  6  7  1  0
  7  8  1  0
  8  9  2  0
  8 10  2  0
  8 11  1  0
 11 12  2  0
 12 13  1  0
 13 14  2  0
 14 15  1  0
 14 16  1  0
 16 17  1  0
 17 18  2  0
 17 19  2  0
 17 20  1  0
 20 21  1  0
 21 22  1  0
 22 23  1  0
 23 24  1  0
 24 25  1  0
 16 26  2  0
  6 27  2  0
 27 28  1  0
 28 29  2  0
 29 30  1  0
 30  2  1  0
 29  4  1  0
 26 11  1  0
 25 20  1  0
  1 31  1  0
  1 32  1  0
  1 33  1  0
  3 34  1  0
  5 35  1  0
 12 36  1  0
 13 37  1  0
 21 38  1  0
 21 39  1  0
 22 40  1  0
 22 41  1  0
 24 42  1  0
 24 43  1  0
 25 44  1  0
 25 45  1  0
 26 46  1  0
 27 47  1  0
 28 48  1  0
M  CHG  2   7  -1  15  -1
M  END
>  <UniqueID>  (13) 
12

>  <SMILES>  (13) 
Cc1cc2cc([N-]S(=O)(=O)c3ccc([O-])c(S(=O)(=O)N4CCOCC4)c3)ccc2o1

>  <Energy>  (13) 
97.54556204486816

>  <Genealogy>  (13) 
Cc1cc2cc([N-]S(=O)(=O)c3ccc([O-])c(S(=O)(=O)N4CCOCC4)c3)ccc2o1 (protonated)
Cc1cc2cc([N-]S(=O)(=O)c3ccc([O-])c(S(=O)(=O)N4CCOCC4)c3)ccc2o1 (3D coordinates assigned)
Cc1cc2cc([N-]S(=O)(=O)c3ccc([O-])c(S(=O)(=O)N4CCOCC4)c3)ccc2o1 (nonaromatic ring conformer: 97.54556204486816 kcal/mol)

>  <smiles>  (13) 
Cc1cc2cc(NS(=O)(=O)c3ccc(O)c(S(=O)(=O)N4CCOCC4)c3)ccc2o1

>  <score_type>  (13) 
oracle

>  <origin>  (13) 
adgpu

>  <m_score__min__energy>  (13) 
-12.5

>  <m_primary>  (13) 
energy

$$$$
13:0
     RDKit          3D

 42 45  0  0  0  0  0  0  0  0999 V2000
   -1.0620   25.4480  -28.8150 H   0  0  0  0  0  0  0  0  0  0  0  0
   -1.9740   25.2990  -29.3010 N   0  0  0  0  0  0  0  0  0  0  0  0
   -2.4050   24.1100  -29.5790 C   0  0  0  0  0  0  0  0  0  0  0  0
   -1.6710   23.0080  -29.2450 N   0  0  0  0  0  0  0  0  0  0  0  0
   -2.1020   21.7440  -29.5420 C   0  0  0  0  0  0  0  0  0  0  0  0
   -1.4904   20.8726  -29.2652 H   0  0  0  0  0  0  0  0  0  0  0  0
   -3.3270   21.5640  -30.2010 C   0  0  0  0  0  0  0  0  0  0  0  0
   -3.6881   20.5593  -30.4661 H   0  0  0  0  0  0  0  0  0  0  0  0
   -4.0530   22.6740  -30.5010 N   0  0  0  0  0  0  0  0  0  0  0  0
   -5.2280   22.8290  -31.1410 C   0  0  0  0  0  0  0  0  0  0  0  0
   -6.1120   21.7510  -31.6350 C   0  0  0  0  0  0  0  0  0  0  0  0
   -7.4660   22.0160  -31.8900 C   0  0  0  0  0  0  0  0  0  0  0  0
   -7.8624   23.0311  -31.7402 H   0  0  0  0  0  0  0  0  0  0  0  0
   -8.3130   20.9980  -32.3330 C   0  0  0  0  0  0  0  0  0  0  0  0
   -9.3726   21.2145  -32.5337 H   0  0  0  0  0  0  0  0  0  0  0  0
   -7.8180   19.7050  -32.5220 C   0  0  0  0  0  0  0  0  0  0  0  0
   -8.4902   18.9062  -32.8685 H   0  0  0  0  0  0  0  0  0  0  0  0
   -6.4640   19.4210  -32.2710 C   0  0  0  0  0  0  0  0  0  0  0  0
   -5.9390   18.0900  -32.4180 N   0  0  0  0  0  0  0  0  0  0  0  0
   -5.2670   17.7470  -31.6960 H   0  0  0  0  0  0  0  0  0  0  0  0
   -6.1620   17.2690  -33.5780 C   0  0  0  0  0  0  0  0  0  0  0  0
   -6.4740   17.8080  -34.6740 O   0  0  0  0  0  0  0  0  0  0  0  0
   -5.9780   15.7980  -33.5150 C   0  0  0  0  0  0  0  0  0  0  0  0
   -6.7910   14.9370  -34.2720 C   0  0  0  0  0  0  0  0  0  0  0  0
   -7.5862   15.3544  -34.9072 H   0  0  0  0  0  0  0  0  0  0  0  0
   -6.5960   13.5560  -34.2230 C   0  0  0  0  0  0  0  0  0  0  0  0
   -7.2349   12.8914  -34.8231 H   0  0  0  0  0  0  0  0  0  0  0  0
   -5.5940   13.0140  -33.4160 C   0  0  0  0  0  0  0  0  0  0  0  0
   -5.4406   11.9250  -33.3911 H   0  0  0  0  0  0  0  0  0  0  0  0
   -4.7810   13.8520  -32.6360 C   0  0  0  0  0  0  0  0  0  0  0  0
   -3.6620   13.2750  -31.8040 C   0  0  0  0  0  0  0  0  0  0  0  0
   -2.4990   14.0070  -31.9680 F   0  0  0  0  0  0  0  0  0  0  0  0
   -3.4050   11.9670  -32.1750 F   0  0  0  0  0  0  0  0  0  0  0  0
   -4.0260   13.3020  -30.4710 F   0  0  0  0  0  0  0  0  0  0  0  0
   -4.9620   15.2450  -32.7110 C   0  0  0  0  0  0  0  0  0  0  0  0
   -4.3023   15.9105  -32.1349 H   0  0  0  0  0  0  0  0  0  0  0  0
   -5.6240   20.4450  -31.8050 C   0  0  0  0  0  0  0  0  0  0  0  0
   -4.5726   20.2221  -31.5706 H   0  0  0  0  0  0  0  0  0  0  0  0
   -5.4660   24.1910  -31.2480 C   0  0  0  0  0  0  0  0  0  0  0  0
   -6.3448   24.6423  -31.7318 H   0  0  0  0  0  0  0  0  0  0  0  0
   -4.4570   24.8830  -30.6690 N   0  0  0  0  0  0  0  0  0  0  0  0
   -3.6220   23.9180  -30.2310 C   0  0  0  0  0  0  0  0  0  0  0  0
  1  2  1  0
  2  3  2  0
  3  4  1  0
  4  5  1  0
  5  6  1  0
  5  7  2  0
  7  8  1  0
  7  9  1  0
  9 10  1  0
 10 11  1  0
 11 12  2  0
 12 13  1  0
 12 14  1  0
 14 15  1  0
 14 16  2  0
 16 17  1  0
 16 18  1  0
 18 19  1  0
 19 20  1  0
 19 21  1  0
 21 22  2  0
 21 23  1  0
 23 24  2  0
 24 25  1  0
 24 26  1  0
 26 27  1  0
 26 28  2  0
 28 29  1  0
 28 30  1  0
 30 31  1  0
 31 32  1  0
 31 33  1  0
 31 34  1  0
 30 35  2  0
 35 36  1  0
 18 37  2  0
 37 38  1  0
 10 39  2  0
 39 40  1  0
 39 41  1  0
 41 42  2  0
 42  3  1  0
 42  9  1  0
 37 11  1  0
 35 23  1  0
M  CHG  1   4  -1
M  END
>  <UniqueID>  (14) 
13

>  <SMILES>  (14) 
[H]/N=c1\[n-]ccn2c(-c3cccc(NC(=O)c4cccc(C(F)(F)F)c4)c3)cnc12

>  <Energy>  (14) 
95.02880296930319

>  <Genealogy>  (14) 
N=c1[n-]ccn2c(-c3cccc(NC(=O)c4cccc(C(F)(F)F)c4)c3)cnc12 (protonated)
[H]/N=c1\[n-]ccn2c(-c3cccc(NC(=O)c4cccc(C(F)(F)F)c4)c3)cnc12 (cis-trans isomerization)
[H]/N=c1\[n-]ccn2c(-c3cccc(NC(=O)c4cccc(C(F)(F)F)c4)c3)cnc12 (3D coordinates assigned)
[H]/N=c1\[n-]ccn2c(-c3cccc(NC(=O)c4cccc(C(F)(F)F)c4)c3)cnc12 (optimized conformer: 95.02880296930319 kcal/mol)

>  <smiles>  (14) 
N=c1[nH]ccn2c(-c3cccc(NC(=O)c4cccc(C(F)(F)F)c4)c3)cnc12

>  <score_type>  (14) 
oracle

>  <origin>  (14) 
adgpu

>  <m_score__min__energy>  (14) 
-10.43

>  <m_primary>  (14) 
energy

$$$$
14:0
     RDKit          3D

 40 42  0  0  0  0  0  0  0  0999 V2000
   -3.7470   21.9630  -33.8130 N   0  0  0  0  0  0  0  0  0  0  0  0
   -4.4210   20.9360  -33.0860 C   0  0  0  0  0  0  0  0  0  0  0  0
   -3.8770   19.8060  -32.9610 O   0  0  0  0  0  0  0  0  0  0  0  0
   -5.7500   21.1900  -32.4820 C   0  0  0  0  0  0  0  0  0  0  0  0
   -6.0750   22.4890  -32.0230 C   0  0  0  0  0  0  0  0  0  0  0  0
   -5.1190   23.5550  -32.0230 N   0  0  0  0  0  0  0  0  0  0  0  0
   -4.5600   24.3180  -30.5690 S   0  0  0  0  0  0  0  0  0  0  0  0
   -5.6150   24.1750  -29.5090 O   0  0  0  0  0  0  0  0  0  0  0  0
   -4.3020   25.7770  -30.8280 O   0  0  0  0  0  0  0  0  0  0  0  0
   -3.0590   23.5650  -30.0290 C   0  0  0  0  0  0  0  0  0  0  0  0
   -2.7870   22.2280  -30.3560 C   0  0  0  0  0  0  0  0  0  0  0  0
   -1.5960   21.6270  -29.9380 C   0  0  0  0  0  0  0  0  0  0  0  0
   -1.2660   19.9550  -30.3500 Cl  0  0  0  0  0  0  0  0  0  0  0  0
   -0.6680   22.3600  -29.1930 C   0  0  0  0  0  0  0  0  0  0  0  0
   -0.9250   23.6960  -28.8690 C   0  0  0  0  0  0  0  0  0  0  0  0
    0.2590   24.6010  -27.9380 Cl  0  0  0  0  0  0  0  0  0  0  0  0
   -2.1180   24.3030  -29.2880 C   0  0  0  0  0  0  0  0  0  0  0  0
   -2.3640   25.6350  -28.9690 O   0  0  0  0  0  0  0  0  0  0  0  0
   -7.3540   22.7570  -31.5360 C   0  0  0  0  0  0  0  0  0  0  0  0
   -8.3020   21.7460  -31.4420 C   0  0  0  0  0  0  0  0  0  0  0  0
   -7.9960   20.4400  -31.8430 C   0  0  0  0  0  0  0  0  0  0  0  0
   -6.7230   20.1550  -32.4050 C   0  0  0  0  0  0  0  0  0  0  0  0
   -6.3830   18.7450  -32.8610 C   0  0  0  0  0  0  0  0  0  0  0  0
   -7.6140   17.8580  -33.0670 C   0  0  0  0  0  0  0  0  0  0  0  0
   -8.5560   17.9710  -31.8730 C   0  0  0  0  0  0  0  0  0  0  0  0
   -9.0890   19.3990  -31.7650 C   0  0  0  0  0  0  0  0  0  0  0  0
   -2.8010   21.7870  -34.2180 H   0  0  0  0  0  0  0  0  0  0  0  0
   -4.1980   22.8920  -33.9690 H   0  0  0  0  0  0  0  0  0  0  0  0
   -3.5146   21.6497  -30.9443 H   0  0  0  0  0  0  0  0  0  0  0  0
    0.2668   21.8849  -28.8607 H   0  0  0  0  0  0  0  0  0  0  0  0
   -7.6147   23.7789  -31.2233 H   0  0  0  0  0  0  0  0  0  0  0  0
   -9.3036   21.9739  -31.0484 H   0  0  0  0  0  0  0  0  0  0  0  0
   -5.8363   18.8091  -33.8134 H   0  0  0  0  0  0  0  0  0  0  0  0
   -5.7801   18.2833  -32.0651 H   0  0  0  0  0  0  0  0  0  0  0  0
   -8.1426   18.1772  -33.9773 H   0  0  0  0  0  0  0  0  0  0  0  0
   -7.2878   16.8122  -33.1667 H   0  0  0  0  0  0  0  0  0  0  0  0
   -9.3984   17.2762  -32.0059 H   0  0  0  0  0  0  0  0  0  0  0  0
   -8.0075   17.7184  -30.9536 H   0  0  0  0  0  0  0  0  0  0  0  0
   -9.7987   19.5723  -32.5874 H   0  0  0  0  0  0  0  0  0  0  0  0
   -9.5715   19.4987  -30.7815 H   0  0  0  0  0  0  0  0  0  0  0  0
  1  2  1  0
  2  3  2  0
  2  4  1  0
  4  5  2  0
  5  6  1  0
  6  7  1  0
  7  8  2  0
  7  9  2  0
  7 10  1  0
 10 11  2  0
 11 12  1  0
 12 13  1  0
 12 14  2  0
 14 15  1  0
 15 16  1  0
 15 17  2  0
 17 18  1  0
  5 19  1  0
 19 20  2  0
 20 21  1  0
 21 22  2  0
 22 23  1  0
 23 24  1  0
 24 25  1  0
 25 26  1  0
 22  4  1  0
 17 10  1  0
 26 21  1  0
  1 27  1  0
  1 28  1  0
 11 29  1  0
 14 30  1  0
 19 31  1  0
 20 32  1  0
 23 33  1  0
 23 34  1  0
 24 35  1  0
 24 36  1  0
 25 37  1  0
 25 38  1  0
 26 39  1  0
 26 40  1  0
M  CHG  2   6  -1  18  -1
M  END
>  <UniqueID>  (15) 
14

>  <SMILES>  (15) 
NC(=O)c1c([N-]S(=O)(=O)c2cc(Cl)cc(Cl)c2[O-])ccc2c1CCCC2

>  <Energy>  (15) 
58.09987437812719

>  <Genealogy>  (15) 
NC(=O)c1c([N-]S(=O)(=O)c2cc(Cl)cc(Cl)c2[O-])ccc2c1CCCC2 (protonated)
NC(=O)c1c([N-]S(=O)(=O)c2cc(Cl)cc(Cl)c2[O-])ccc2c1CCCC2 (3D coordinates assigned)
NC(=O)c1c([N-]S(=O)(=O)c2cc(Cl)cc(Cl)c2[O-])ccc2c1CCCC2 (nonaromatic ring conformer: 58.09987437812719 kcal/mol)

>  <smiles>  (15) 
NC(=O)c1c(NS(=O)(=O)c2cc(Cl)cc(Cl)c2O)ccc2c1CCCC2

>  <score_type>  (15) 
oracle

>  <origin>  (15) 
adgpu

>  <m_score__min__energy>  (15) 
-14.68

>  <m_primary>  (15) 
energy

$$$$
15:0
     RDKit          3D

 72 75  0  0  0  0  0  0  0  0999 V2000
   -9.0940   18.2940  -31.6300 C   0  0  0  0  0  0  0  0  0  0  0  0
   -8.4530   19.6560  -31.3890 C   0  0  0  0  0  0  0  0  0  0  0  0
   -7.2070   19.8090  -32.2090 C   0  0  0  0  0  0  0  0  0  0  0  0
   -6.6350   18.7910  -32.8800 N   0  0  0  0  0  0  0  0  0  0  0  0
   -5.5310   19.3340  -33.4420 C   0  0  0  0  0  0  0  0  0  0  0  0
   -4.5540   18.5400  -34.2710 C   0  0  0  0  0  0  0  0  0  0  0  0
   -5.0400   17.1220  -34.5630 C   0  0  0  0  0  0  0  0  0  0  0  0
   -5.3790   20.6470  -33.1380 N   0  0  0  0  0  0  0  0  0  0  0  0
   -4.2400   21.5130  -33.4760 C   0  0  0  0  0  0  0  0  0  0  0  0
   -2.9550   20.9490  -32.9280 C   0  0  0  0  0  0  0  0  0  0  0  0
   -1.7370   21.1830  -33.5850 C   0  0  0  0  0  0  0  0  0  0  0  0
   -0.5450   20.6730  -33.0650 C   0  0  0  0  0  0  0  0  0  0  0  0
   -0.5480   19.9070  -31.8880 C   0  0  0  0  0  0  0  0  0  0  0  0
    0.7030   19.4060  -31.3780 N   0  0  0  0  0  0  0  0  0  0  0  0
    0.8440   18.5840  -30.1760 C   0  0  0  0  0  0  0  0  0  0  0  0
    1.2580   19.4470  -28.9790 C   0  0  0  0  0  0  0  0  0  0  0  0
    0.0960   19.6470  -28.0450 C   0  0  0  0  0  0  0  0  0  0  0  0
   -0.7860   18.5880  -27.7760 C   0  0  0  0  0  0  0  0  0  0  0  0
   -1.8850   18.7820  -26.9320 C   0  0  0  0  0  0  0  0  0  0  0  0
   -2.1150   20.0370  -26.3600 C   0  0  0  0  0  0  0  0  0  0  0  0
   -1.2480   21.1000  -26.6330 C   0  0  0  0  0  0  0  0  0  0  0  0
   -0.1500   20.9090  -27.4780 C   0  0  0  0  0  0  0  0  0  0  0  0
   -1.7730   19.6640  -31.2380 C   0  0  0  0  0  0  0  0  0  0  0  0
   -2.9650   20.1760  -31.7580 C   0  0  0  0  0  0  0  0  0  0  0  0
   -6.4430   20.9520  -32.3620 C   0  0  0  0  0  0  0  0  0  0  0  0
   -6.7020   22.2610  -31.7290 C   0  0  0  0  0  0  0  0  0  0  0  0
   -7.8770   22.7170  -31.7420 O   0  0  0  0  0  0  0  0  0  0  0  0
   -5.6190   23.0530  -31.0970 C   0  0  0  0  0  0  0  0  0  0  0  0
   -5.7010   24.4530  -31.0610 C   0  0  0  0  0  0  0  0  0  0  0  0
   -4.6880   25.2060  -30.4640 C   0  0  0  0  0  0  0  0  0  0  0  0
   -3.5670   24.5730  -29.8980 C   0  0  0  0  0  0  0  0  0  0  0  0
   -2.5340   25.2980  -29.2850 O   0  0  0  0  0  0  0  0  0  0  0  0
   -2.0760   25.0820  -27.9530 C   0  0  0  0  0  0  0  0  0  0  0  0
   -3.4680   23.1740  -29.9400 C   0  0  0  0  0  0  0  0  0  0  0  0
   -2.3380   22.5690  -29.3670 O   0  0  0  0  0  0  0  0  0  0  0  0
   -1.0120   22.7000  -29.8680 C   0  0  0  0  0  0  0  0  0  0  0  0
   -4.4910   22.4210  -30.5470 C   0  0  0  0  0  0  0  0  0  0  0  0
   -9.3180   17.8181  -30.6639 H   0  0  0  0  0  0  0  0  0  0  0  0
  -10.0259   18.4230  -32.2000 H   0  0  0  0  0  0  0  0  0  0  0  0
   -8.4006   17.6581  -32.2000 H   0  0  0  0  0  0  0  0  0  0  0  0
   -9.1671   20.4452  -31.6669 H   0  0  0  0  0  0  0  0  0  0  0  0
   -8.1877   19.7382  -30.3246 H   0  0  0  0  0  0  0  0  0  0  0  0
   -4.3987   19.0620  -35.2267 H   0  0  0  0  0  0  0  0  0  0  0  0
   -3.6209   18.4578  -33.6942 H   0  0  0  0  0  0  0  0  0  0  0  0
   -5.2210   16.5940  -33.6152 H   0  0  0  0  0  0  0  0  0  0  0  0
   -5.9742   17.1665  -35.1421 H   0  0  0  0  0  0  0  0  0  0  0  0
   -4.2749   16.5841  -35.1421 H   0  0  0  0  0  0  0  0  0  0  0  0
   -4.1606   21.5930  -34.5702 H   0  0  0  0  0  0  0  0  0  0  0  0
   -4.4074   22.5043  -33.0296 H   0  0  0  0  0  0  0  0  0  0  0  0
   -1.7210   21.7712  -34.5144 H   0  0  0  0  0  0  0  0  0  0  0  0
    0.4049   20.8733  -33.5823 H   0  0  0  0  0  0  0  0  0  0  0  0
    1.5810   19.6450  -31.8940 H   0  0  0  0  0  0  0  0  0  0  0  0
   -0.1176   18.0974  -29.9557 H   0  0  0  0  0  0  0  0  0  0  0  0
    1.6215   17.8263  -30.3532 H   0  0  0  0  0  0  0  0  0  0  0  0
    2.0750   18.9472  -28.4381 H   0  0  0  0  0  0  0  0  0  0  0  0
    1.5908   20.4287  -29.3471 H   0  0  0  0  0  0  0  0  0  0  0  0
   -0.6122   17.6016  -28.2308 H   0  0  0  0  0  0  0  0  0  0  0  0
   -2.5683   17.9469  -26.7184 H   0  0  0  0  0  0  0  0  0  0  0  0
   -2.9781   20.1883  -25.6951 H   0  0  0  0  0  0  0  0  0  0  0  0
   -1.4298   22.0870  -26.1828 H   0  0  0  0  0  0  0  0  0  0  0  0
    0.5236   21.7499  -27.6996 H   0  0  0  0  0  0  0  0  0  0  0  0
   -1.7921   19.0669  -30.3143 H   0  0  0  0  0  0  0  0  0  0  0  0
   -3.9170   19.9713  -31.2463 H   0  0  0  0  0  0  0  0  0  0  0  0
   -6.5692   24.9610  -31.5061 H   0  0  0  0  0  0  0  0  0  0  0  0
   -4.7674   26.3028  -30.4362 H   0  0  0  0  0  0  0  0  0  0  0  0
   -2.8349   25.4399  -27.2417 H   0  0  0  0  0  0  0  0  0  0  0  0
   -1.9029   24.0073  -27.7945 H   0  0  0  0  0  0  0  0  0  0  0  0
   -1.1366   25.6320  -27.7945 H   0  0  0  0  0  0  0  0  0  0  0  0
   -0.3072   22.7696  -29.0263 H   0  0  0  0  0  0  0  0  0  0  0  0
   -0.7638   21.8220  -30.4824 H   0  0  0  0  0  0  0  0  0  0  0  0
   -0.9404   23.6096  -30.4824 H   0  0  0  0  0  0  0  0  0  0  0  0
   -4.4063   21.3252  -30.5912 H   0  0  0  0  0  0  0  0  0  0  0  0
  1  2  1  0
  2  3  1  0
  3  4  1  0
  4  5  2  0
  5  6  1  0
  6  7  1  0
  5  8  1  0
  8  9  1  0
  9 10  1  0
 10 11  2  0
 11 12  1  0
 12 13  2  0
 13 14  1  0
 14 15  1  0
 15 16  1  0
 16 17  1  0
 17 18  2  0
 18 19  1  0
 19 20  2  0
 20 21  1  0
 21 22  2  0
 13 23  1  0
 23 24  2  0
  8 25  1  0
 25 26  1  0
 26 27  2  0
 26 28  1  0
 28 29  2  0
 29 30  1  0
 30 31  2  0
 31 32  1  0
 32 33  1  0
 31 34  1  0
 34 35  1  0
 35 36  1  0
 34 37  2  0
 25  3  2  0
 37 28  1  0
 24 10  1  0
 22 17  1  0
  1 38  1  0
  1 39  1  0
  1 40  1  0
  2 41  1  0
  2 42  1  0
  6 43  1  0
  6 44  1  0
  7 45  1  0
  7 46  1  0
  7 47  1  0
  9 48  1  0
  9 49  1  0
 11 50  1  0
 12 51  1  0
 14 52  1  0
 15 53  1  0
 15 54  1  0
 16 55  1  0
 16 56  1  0
 18 57  1  0
 19 58  1  0
 20 59  1  0
 21 60  1  0
 22 61  1  0
 23 62  1  0
 24 63  1  0
 29 64  1  0
 30 65  1  0
 33 66  1  0
 33 67  1  0
 33 68  1  0
 36 69  1  0
 36 70  1  0
 36 71  1  0
 37 72  1  0
M  END
>  <UniqueID>  (16) 
15

>  <SMILES>  (16) 
CCc1nc(CC)n(Cc2ccc(NCCc3ccccc3)cc2)c1C(=O)c1ccc(OC)c(OC)c1

>  <Energy>  (16) 
99.02943370503591

>  <Genealogy>  (16) 
CCc1nc(CC)n(Cc2ccc(NCCc3ccccc3)cc2)c1C(=O)c1ccc(OC)c(OC)c1 (3D coordinates assigned)
CCc1nc(CC)n(Cc2ccc(NCCc3ccccc3)cc2)c1C(=O)c1ccc(OC)c(OC)c1 (optimized conformer: 99.02943370503591 kcal/mol)

>  <smiles>  (16) 
CCc1nc(CC)n(Cc2ccc(NCCc3ccccc3)cc2)c1C(=O)c1ccc(OC)c(OC)c1

>  <score_type>  (16) 
oracle

>  <origin>  (16) 
adgpu

>  <m_score__min__energy>  (16) 
-10.550000000000001

>  <m_primary>  (16) 
energy

$$$$
16:0
     RDKit          3D

 62 66  0  0  0  0  0  0  0  0999 V2000
   -9.5630   22.9000  -31.9120 O   0  0  0  0  0  0  0  0  0  0  0  0
   -8.3850   22.4770  -32.0690 C   0  0  0  0  0  0  0  0  0  0  0  0
   -7.3060   23.4050  -32.2400 N   0  0  0  0  0  0  0  0  0  0  0  0
   -6.2200   23.6100  -31.3260 C   0  0  0  0  0  0  0  0  0  0  0  0
   -6.4140   24.4540  -30.2260 C   0  0  0  0  0  0  0  0  0  0  0  0
   -5.3710   24.6960  -29.3280 C   0  0  0  0  0  0  0  0  0  0  0  0
   -4.1120   24.1080  -29.5310 C   0  0  0  0  0  0  0  0  0  0  0  0
   -2.7930   24.4140  -28.3960 S   0  0  0  0  0  0  0  0  0  0  0  0
   -3.3650   24.9090  -27.0960 O   0  0  0  0  0  0  0  0  0  0  0  0
   -1.9000   25.4910  -28.9520 O   0  0  0  0  0  0  0  0  0  0  0  0
   -1.8510   22.9700  -28.1000 N   0  0  0  0  0  0  0  0  0  0  0  0
   -2.7430   21.7930  -27.9760 C   0  0  0  0  0  0  0  0  0  0  0  0
   -1.9580   20.4830  -28.1120 C   0  0  0  0  0  0  0  0  0  0  0  0
   -1.3010   20.3720  -29.5000 C   0  0  0  0  0  0  0  0  0  0  0  0
   -1.0420   21.7450  -30.1490 C   0  0  0  0  0  0  0  0  0  0  0  0
   -0.7510   22.8180  -29.0870 C   0  0  0  0  0  0  0  0  0  0  0  0
   -3.9050   23.2900  -30.6490 C   0  0  0  0  0  0  0  0  0  0  0  0
   -4.9520   23.0400  -31.5420 C   0  0  0  0  0  0  0  0  0  0  0  0
   -8.1270   21.0220  -32.1440 C   0  0  0  0  0  0  0  0  0  0  0  0
   -8.9640   20.1110  -31.4720 C   0  0  0  0  0  0  0  0  0  0  0  0
   -8.7390   18.7360  -31.5730 C   0  0  0  0  0  0  0  0  0  0  0  0
   -7.6700   18.2510  -32.3260 C   0  0  0  0  0  0  0  0  0  0  0  0
   -6.8150   19.1440  -32.9860 C   0  0  0  0  0  0  0  0  0  0  0  0
   -5.4420   18.5200  -33.8930 S   0  0  0  0  0  0  0  0  0  0  0  0
   -5.1500   17.0980  -33.5040 O   0  0  0  0  0  0  0  0  0  0  0  0
   -5.7670   18.5670  -35.3590 O   0  0  0  0  0  0  0  0  0  0  0  0
   -4.0410   19.4900  -33.5750 N   0  0  0  0  0  0  0  0  0  0  0  0
   -4.0500   20.9460  -33.4690 C   0  0  0  0  0  0  0  0  0  0  0  0
   -2.5760   21.3590  -33.2280 C   0  0  0  0  0  0  0  0  0  0  0  0
   -1.8510   20.0550  -33.2010 C   0  0  0  0  0  0  0  0  0  0  0  0
   -0.4830   19.8300  -33.0230 C   0  0  0  0  0  0  0  0  0  0  0  0
   -0.0110   18.5070  -33.0530 C   0  0  0  0  0  0  0  0  0  0  0  0
   -0.9070   17.4410  -33.2700 C   0  0  0  0  0  0  0  0  0  0  0  0
   -2.2780   17.6910  -33.4510 C   0  0  0  0  0  0  0  0  0  0  0  0
   -2.7180   19.0190  -33.4100 C   0  0  0  0  0  0  0  0  0  0  0  0
   -7.0490   20.5250  -32.8980 C   0  0  0  0  0  0  0  0  0  0  0  0
   -7.3932   24.9295  -30.0676 H   0  0  0  0  0  0  0  0  0  0  0  0
   -5.5368   25.3495  -28.4589 H   0  0  0  0  0  0  0  0  0  0  0  0
   -3.2329   21.8167  -26.9914 H   0  0  0  0  0  0  0  0  0  0  0  0
   -3.4894   21.8362  -28.7829 H   0  0  0  0  0  0  0  0  0  0  0  0
   -1.1748   20.4518  -27.3403 H   0  0  0  0  0  0  0  0  0  0  0  0
   -2.6567   19.6425  -27.9880 H   0  0  0  0  0  0  0  0  0  0  0  0
   -0.3404   19.8468  -29.3932 H   0  0  0  0  0  0  0  0  0  0  0  0
   -1.9957   19.8228  -30.1525 H   0  0  0  0  0  0  0  0  0  0  0  0
   -0.1772   21.6650  -30.8241 H   0  0  0  0  0  0  0  0  0  0  0  0
   -1.9433   22.0420  -30.7053 H   0  0  0  0  0  0  0  0  0  0  0  0
    0.1669   22.5390  -28.5489 H   0  0  0  0  0  0  0  0  0  0  0  0
   -0.6433   23.7793  -29.6108 H   0  0  0  0  0  0  0  0  0  0  0  0
   -2.9156   22.8427  -30.8253 H   0  0  0  0  0  0  0  0  0  0  0  0
   -4.7833   22.3950  -32.4169 H   0  0  0  0  0  0  0  0  0  0  0  0
   -9.8007   20.4844  -30.8634 H   0  0  0  0  0  0  0  0  0  0  0  0
   -9.4082   18.0324  -31.0561 H   0  0  0  0  0  0  0  0  0  0  0  0
   -7.4979   17.1672  -32.4019 H   0  0  0  0  0  0  0  0  0  0  0  0
   -4.4269   21.3958  -34.3994 H   0  0  0  0  0  0  0  0  0  0  0  0
   -4.7057   21.2894  -32.6553 H   0  0  0  0  0  0  0  0  0  0  0  0
   -2.2076   21.9973  -34.0446 H   0  0  0  0  0  0  0  0  0  0  0  0
   -2.4395   21.9452  -32.3073 H   0  0  0  0  0  0  0  0  0  0  0  0
    0.2087   20.6702  -32.8630 H   0  0  0  0  0  0  0  0  0  0  0  0
    1.0600   18.3028  -32.9068 H   0  0  0  0  0  0  0  0  0  0  0  0
   -0.5311   16.4076  -33.2978 H   0  0  0  0  0  0  0  0  0  0  0  0
   -2.9856   16.8660  -33.6202 H   0  0  0  0  0  0  0  0  0  0  0  0
   -6.3830   21.2251  -33.4237 H   0  0  0  0  0  0  0  0  0  0  0  0
  1  2  2  0
  2  3  1  0
  3  4  1  0
  4  5  2  0
  5  6  1  0
  6  7  2  0
  7  8  1  0
  8  9  2  0
  8 10  2  0
  8 11  1  0
 11 12  1  0
 12 13  1  0
 13 14  1  0
 14 15  1  0
 15 16  1  0
  7 17  1  0
 17 18  2  0
  2 19  1  0
 19 20  2  0
 20 21  1  0
 21 22  2  0
 22 23  1  0
 23 24  1  0
 24 25  2  0
 24 26  2  0
 24 27  1  0
 27 28  1  0
 28 29  1  0
 29 30  1  0
 30 31  2  0
 31 32  1  0
 32 33  2  0
 33 34  1  0
 34 35  2  0
 23 36  2  0
 18  4  1  0
 36 19  1  0
 16 11  1  0
 35 27  1  0
 35 30  1  0
  5 37  1  0
  6 38  1  0
 12 39  1  0
 12 40  1  0
 13 41  1  0
 13 42  1  0
 14 43  1  0
 14 44  1  0
 15 45  1  0
 15 46  1  0
 16 47  1  0
 16 48  1  0
 17 49  1  0
 18 50  1  0
 20 51  1  0
 21 52  1  0
 22 53  1  0
 28 54  1  0
 28 55  1  0
 29 56  1  0
 29 57  1  0
 31 58  1  0
 32 59  1  0
 33 60  1  0
 34 61  1  0
 36 62  1  0
M  CHG  1   3  -1
M  END
>  <UniqueID>  (17) 
16

>  <SMILES>  (17) 
O=C([N-]c1ccc(S(=O)(=O)N2CCCCC2)cc1)c1cccc(S(=O)(=O)N2CCc3ccccc32)c1

>  <Energy>  (17) 
91.41894607804005

>  <Genealogy>  (17) 
O=C([N-]c1ccc(S(=O)(=O)N2CCCCC2)cc1)c1cccc(S(=O)(=O)N2CCc3ccccc32)c1 (protonated)
O=C([N-]c1ccc(S(=O)(=O)N2CCCCC2)cc1)c1cccc(S(=O)(=O)N2CCc3ccccc32)c1 (3D coordinates assigned)
O=C([N-]c1ccc(S(=O)(=O)N2CCCCC2)cc1)c1cccc(S(=O)(=O)N2CCc3ccccc32)c1 (nonaromatic ring conformer: 91.41894607804005 kcal/mol)

>  <smiles>  (17) 
O=C(Nc1ccc(S(=O)(=O)N2CCCCC2)cc1)c1cccc(S(=O)(=O)N2CCc3ccccc32)c1

>  <score_type>  (17) 
oracle

>  <origin>  (17) 
adgpu

>  <m_score__min__energy>  (17) 
-13.210000000000001

>  <m_primary>  (17) 
energy

$$$$
17:0
     RDKit          3D

 44 46  0  0  0  0  0  0  0  0999 V2000
   -5.8890   24.7000  -29.1890 O   0  0  0  0  0  0  0  0  0  0  0  0
   -5.2220   24.8060  -30.5310 S   0  0  0  0  0  0  0  0  0  0  0  0
   -5.7380   26.0260  -31.2440 O   0  0  0  0  0  0  0  0  0  0  0  0
   -3.5080   24.9530  -30.3100 N   0  0  0  0  0  0  0  0  0  0  0  0
   -2.7770   24.3890  -29.2120 C   0  0  0  0  0  0  0  0  0  0  0  0
   -3.1730   23.1880  -28.5930 C   0  0  0  0  0  0  0  0  0  0  0  0
   -2.4530   22.6830  -27.5070 C   0  0  0  0  0  0  0  0  0  0  0  0
   -1.3350   23.3680  -27.0290 C   0  0  0  0  0  0  0  0  0  0  0  0
   -0.9260   24.5520  -27.6460 C   0  0  0  0  0  0  0  0  0  0  0  0
   -1.6390   25.0600  -28.7370 C   0  0  0  0  0  0  0  0  0  0  0  0
   -1.2220   26.2420  -29.3380 O   0  0  0  0  0  0  0  0  0  0  0  0
   -5.5560   23.3450  -31.4540 C   0  0  0  0  0  0  0  0  0  0  0  0
   -4.5130   22.5310  -31.9160 C   0  0  0  0  0  0  0  0  0  0  0  0
   -4.7970   21.3140  -32.5400 C   0  0  0  0  0  0  0  0  0  0  0  0
   -6.1270   20.8980  -32.7040 C   0  0  0  0  0  0  0  0  0  0  0  0
   -6.4850   19.3080  -33.3780 S   0  0  0  0  0  0  0  0  0  0  0  0
   -7.8540   18.8760  -32.9290 O   0  0  0  0  0  0  0  0  0  0  0  0
   -6.4910   19.3930  -34.8790 O   0  0  0  0  0  0  0  0  0  0  0  0
   -5.3090   18.1220  -32.8570 N   0  0  0  0  0  0  0  0  0  0  0  0
   -4.3760   17.7590  -33.9540 C   0  0  0  0  0  0  0  0  0  0  0  0
   -4.7080   16.4060  -34.6020 C   0  0  0  0  0  0  0  0  0  0  0  0
   -4.6800   15.2730  -33.5650 C   0  0  0  0  0  0  0  0  0  0  0  0
   -5.0680   15.7450  -32.1530 C   0  0  0  0  0  0  0  0  0  0  0  0
   -5.9860   16.9720  -32.2170 C   0  0  0  0  0  0  0  0  0  0  0  0
   -7.1690   21.7350  -32.2820 C   0  0  0  0  0  0  0  0  0  0  0  0
   -6.8840   22.9510  -31.6550 C   0  0  0  0  0  0  0  0  0  0  0  0
   -4.0536   22.6445  -28.9661 H   0  0  0  0  0  0  0  0  0  0  0  0
   -2.7680   21.7441  -27.0282 H   0  0  0  0  0  0  0  0  0  0  0  0
   -0.7763   22.9754  -26.1666 H   0  0  0  0  0  0  0  0  0  0  0  0
   -0.0402   25.0870  -27.2729 H   0  0  0  0  0  0  0  0  0  0  0  0
   -3.4685   22.8511  -31.7870 H   0  0  0  0  0  0  0  0  0  0  0  0
   -3.9753   20.6797  -32.9040 H   0  0  0  0  0  0  0  0  0  0  0  0
   -4.4243   18.5394  -34.7277 H   0  0  0  0  0  0  0  0  0  0  0  0
   -3.3702   17.6760  -33.5163 H   0  0  0  0  0  0  0  0  0  0  0  0
   -5.7116   16.4587  -35.0492 H   0  0  0  0  0  0  0  0  0  0  0  0
   -3.9517   16.1930  -35.3719 H   0  0  0  0  0  0  0  0  0  0  0  0
   -5.3864   14.4909  -33.8803 H   0  0  0  0  0  0  0  0  0  0  0  0
   -3.6478   14.8960  -33.5154 H   0  0  0  0  0  0  0  0  0  0  0  0
   -5.5924   14.9300  -31.6326 H   0  0  0  0  0  0  0  0  0  0  0  0
   -4.1513   16.0208  -31.6112 H   0  0  0  0  0  0  0  0  0  0  0  0
   -6.8841   16.7168  -32.7987 H   0  0  0  0  0  0  0  0  0  0  0  0
   -6.2538   17.2571  -31.1889 H   0  0  0  0  0  0  0  0  0  0  0  0
   -8.2144   21.4338  -32.4448 H   0  0  0  0  0  0  0  0  0  0  0  0
   -7.7056   23.6004  -31.3185 H   0  0  0  0  0  0  0  0  0  0  0  0
  1  2  2  0
  2  3  2  0
  2  4  1  0
  4  5  1  0
  5  6  2  0
  6  7  1  0
  7  8  2  0
  8  9  1  0
  9 10  2  0
 10 11  1  0
  2 12  1  0
 12 13  2  0
 13 14  1  0
 14 15  2  0
 15 16  1  0
 16 17  2  0
 16 18  2  0
 16 19  1  0
 19 20  1  0
 20 21  1  0
 21 22  1  0
 22 23  1  0
 23 24  1  0
 15 25  1  0
 25 26  2  0
 10  5  1  0
 26 12  1  0
 24 19  1  0
  6 27  1  0
  7 28  1  0
  8 29  1  0
  9 30  1  0
 13 31  1  0
 14 32  1  0
 20 33  1  0
 20 34  1  0
 21 35  1  0
 21 36  1  0
 22 37  1  0
 22 38  1  0
 23 39  1  0
 23 40  1  0
 24 41  1  0
 24 42  1  0
 25 43  1  0
 26 44  1  0
M  CHG  2   4  -1  11  -1
M  END
>  <UniqueID>  (18) 
17

>  <SMILES>  (18) 
O=S(=O)([N-]c1ccccc1[O-])c1ccc(S(=O)(=O)N2CCCCC2)cc1

>  <Energy>  (18) 
51.657408218208175

>  <Genealogy>  (18) 
O=S(=O)([N-]c1ccccc1[O-])c1ccc(S(=O)(=O)N2CCCCC2)cc1 (protonated)
O=S(=O)([N-]c1ccccc1[O-])c1ccc(S(=O)(=O)N2CCCCC2)cc1 (3D coordinates assigned)
O=S(=O)([N-]c1ccccc1[O-])c1ccc(S(=O)(=O)N2CCCCC2)cc1 (nonaromatic ring conformer: 51.657408218208175 kcal/mol)

>  <smiles>  (18) 
O=S(=O)(Nc1ccccc1O)c1ccc(S(=O)(=O)N2CCCCC2)cc1

>  <score_type>  (18) 
oracle

>  <origin>  (18) 
adgpu

>  <m_score__min__energy>  (18) 
-14.75

>  <m_primary>  (18) 
energy

$$$$
18:0
     RDKit          3D

 56 59  0  0  0  0  0  0  0  0999 V2000
   -7.7380   18.5970  -32.3630 C   0  0  0  0  0  0  0  0  0  0  0  0
   -6.6430   17.8530  -33.0750 C   0  0  0  0  0  0  0  0  0  0  0  0
   -6.8660   16.5450  -33.5330 C   0  0  0  0  0  0  0  0  0  0  0  0
   -5.8530   15.8440  -34.1910 C   0  0  0  0  0  0  0  0  0  0  0  0
   -4.6080   16.4390  -34.4040 C   0  0  0  0  0  0  0  0  0  0  0  0
   -4.3660   17.7500  -33.9550 C   0  0  0  0  0  0  0  0  0  0  0  0
   -3.1300   18.3910  -34.1490 C   0  0  0  0  0  0  0  0  0  0  0  0
   -2.1940   17.7730  -34.7340 O   0  0  0  0  0  0  0  0  0  0  0  0
   -2.9370   19.6780  -33.7100 N   0  0  0  0  0  0  0  0  0  0  0  0
   -1.6510   20.3450  -33.9850 C   0  0  0  0  0  0  0  0  0  0  0  0
   -3.9400   20.3170  -33.0130 C   0  0  0  0  0  0  0  0  0  0  0  0
   -3.7570   21.6350  -32.3800 C   0  0  0  0  0  0  0  0  0  0  0  0
   -4.1930   22.6650  -32.9600 O   0  0  0  0  0  0  0  0  0  0  0  0
   -3.2190   21.7170  -31.0550 N   0  0  0  0  0  0  0  0  0  0  0  0
   -2.8790   22.9250  -30.3690 C   0  0  0  0  0  0  0  0  0  0  0  0
   -1.7350   23.1550  -29.6330 C   0  0  0  0  0  0  0  0  0  0  0  0
   -1.8550   24.3670  -29.0660 N   0  0  0  0  0  0  0  0  0  0  0  0
   -0.8580   25.0120  -28.2220 C   0  0  0  0  0  0  0  0  0  0  0  0
   -3.0090   24.9220  -29.4050 N   0  0  0  0  0  0  0  0  0  0  0  0
   -3.6710   24.0620  -30.2080 C   0  0  0  0  0  0  0  0  0  0  0  0
   -5.0170   24.3950  -30.7580 C   0  0  0  0  0  0  0  0  0  0  0  0
   -5.2630   25.6150  -30.9650 O   0  0  0  0  0  0  0  0  0  0  0  0
   -6.0370   23.4180  -31.0910 N   0  0  0  0  0  0  0  0  0  0  0  0
   -6.7800   23.8070  -32.3170 C   0  0  0  0  0  0  0  0  0  0  0  0
   -8.2090   23.2460  -32.3390 C   0  0  0  0  0  0  0  0  0  0  0  0
   -8.2170   21.9060  -31.7300 N   0  0  0  0  0  0  0  0  0  0  0  0
   -9.5160   21.2490  -31.9530 C   0  0  0  0  0  0  0  0  0  0  0  0
   -7.9100   21.9700  -30.2840 C   0  0  0  0  0  0  0  0  0  0  0  0
   -6.8970   23.0850  -29.9340 C   0  0  0  0  0  0  0  0  0  0  0  0
   -5.1410   19.7080  -32.8380 N   0  0  0  0  0  0  0  0  0  0  0  0
   -5.3870   18.4550  -33.2910 C   0  0  0  0  0  0  0  0  0  0  0  0
   -7.5988   18.5024  -31.2760 H   0  0  0  0  0  0  0  0  0  0  0  0
   -7.7035   19.6594  -32.6460 H   0  0  0  0  0  0  0  0  0  0  0  0
   -8.7130   18.1736  -32.6460 H   0  0  0  0  0  0  0  0  0  0  0  0
   -7.8447   16.0691  -33.3727 H   0  0  0  0  0  0  0  0  0  0  0  0
   -6.0369   14.8182  -34.5431 H   0  0  0  0  0  0  0  0  0  0  0  0
   -3.8149   15.8816  -34.9239 H   0  0  0  0  0  0  0  0  0  0  0  0
   -1.1595   20.5999  -33.0345 H   0  0  0  0  0  0  0  0  0  0  0  0
   -1.0035   19.6690  -34.5628 H   0  0  0  0  0  0  0  0  0  0  0  0
   -1.8306   21.2636  -34.5628 H   0  0  0  0  0  0  0  0  0  0  0  0
   -0.8801   22.4705  -29.5293 H   0  0  0  0  0  0  0  0  0  0  0  0
   -1.1115   24.8480  -27.1643 H   0  0  0  0  0  0  0  0  0  0  0  0
    0.1330   24.5834  -28.4322 H   0  0  0  0  0  0  0  0  0  0  0  0
   -0.8427   26.0916  -28.4322 H   0  0  0  0  0  0  0  0  0  0  0  0
   -5.5330   22.5270  -31.3220 H   0  0  0  0  0  0  0  0  0  0  0  0
   -6.8308   24.9047  -32.3657 H   0  0  0  0  0  0  0  0  0  0  0  0
   -6.2427   23.3892  -33.1812 H   0  0  0  0  0  0  0  0  0  0  0  0
   -8.8737   23.9121  -31.7693 H   0  0  0  0  0  0  0  0  0  0  0  0
   -8.5619   23.1794  -33.3787 H   0  0  0  0  0  0  0  0  0  0  0  0
   -9.9796   21.0145  -30.9834 H   0  0  0  0  0  0  0  0  0  0  0  0
  -10.1747   21.9223  -32.5211 H   0  0  0  0  0  0  0  0  0  0  0  0
   -9.3640   20.3194  -32.5211 H   0  0  0  0  0  0  0  0  0  0  0  0
   -8.8441   22.1590  -29.7346 H   0  0  0  0  0  0  0  0  0  0  0  0
   -7.4558   21.0094  -29.9995 H   0  0  0  0  0  0  0  0  0  0  0  0
   -7.4487   23.9860  -29.6275 H   0  0  0  0  0  0  0  0  0  0  0  0
   -6.2538   22.7236  -29.1181 H   0  0  0  0  0  0  0  0  0  0  0  0
  1  2  1  0
  2  3  2  0
  3  4  1  0
  4  5  2  0
  5  6  1  0
  6  7  1  0
  7  8  2  0
  7  9  1  0
  9 10  1  0
  9 11  1  0
 11 12  1  0
 12 13  2  0
 12 14  1  0
 14 15  1  0
 15 16  2  0
 16 17  1  0
 17 18  1  0
 17 19  1  0
 19 20  2  0
 20 21  1  0
 21 22  2  0
 21 23  1  0
 23 24  1  0
 24 25  1  0
 25 26  1  0
 26 27  1  0
 26 28  1  0
 28 29  1  0
 11 30  2  0
 30 31  1  0
 31  2  1  0
 31  6  2  0
 20 15  1  0
 29 23  1  0
  1 32  1  0
  1 33  1  0
  1 34  1  0
  3 35  1  0
  4 36  1  0
  5 37  1  0
 10 38  1  0
 10 39  1  0
 10 40  1  0
 16 41  1  0
 18 42  1  0
 18 43  1  0
 18 44  1  0
 23 45  1  0
 24 46  1  0
 24 47  1  0
 25 48  1  0
 25 49  1  0
 27 50  1  0
 27 51  1  0
 27 52  1  0
 28 53  1  0
 28 54  1  0
 29 55  1  0
 29 56  1  0
M  CHG  2  14  -1  23   1
M  END
>  <UniqueID>  (19) 
18

>  <SMILES>  (19) 
Cc1cccc2c(=O)n(C)c(C(=O)[N-]c3cn(C)nc3C(=O)[NH+]3CCN(C)CC3)nc12

>  <Energy>  (19) 
117.63056885674027

>  <Genealogy>  (19) 
Cc1cccc2c(=O)n(C)c(C(=O)[N-]c3cn(C)nc3C(=O)[NH+]3CCN(C)CC3)nc12 (protonated)
Cc1cccc2c(=O)n(C)c(C(=O)[N-]c3cn(C)nc3C(=O)[NH+]3CCN(C)CC3)nc12 (3D coordinates assigned)
Cc1cccc2c(=O)n(C)c(C(=O)[N-]c3cn(C)nc3C(=O)[NH+]3CCN(C)CC3)nc12 (nonaromatic ring conformer: 117.63056885674027 kcal/mol)

>  <smiles>  (19) 
Cc1cccc2c(=O)n(C)c(C(=O)Nc3cn(C)nc3C(=O)N3CCN(C)CC3)nc12

>  <score_type>  (19) 
oracle

>  <origin>  (19) 
adgpu

>  <m_score__min__energy>  (19) 
-9.9399999999999995

>  <m_primary>  (19) 
energy

$$$$
19:0
     RDKit          3D

 66 69  0  0  0  0  0  0  0  0999 V2000
   -0.5560   28.8030  -25.1730 C   0  0  0  0  0  0  0  0  0  0  0  0
   -0.2620   27.5200  -24.5180 N   0  0  0  0  0  0  0  0  0  0  0  0
    0.9370   26.8910  -25.1260 C   0  0  0  0  0  0  0  0  0  0  0  0
    0.9870   25.3850  -24.8420 C   0  0  0  0  0  0  0  0  0  0  0  0
   -0.2240   24.6600  -25.4710 C   0  0  0  0  0  0  0  0  0  0  0  0
    0.1720   23.9420  -27.0730 S   0  0  0  0  0  0  0  0  0  0  0  0
    1.0040   22.7020  -26.8940 O   0  0  0  0  0  0  0  0  0  0  0  0
    1.0110   24.9210  -27.8450 O   0  0  0  0  0  0  0  0  0  0  0  0
   -1.3120   23.6020  -28.0000 C   0  0  0  0  0  0  0  0  0  0  0  0
   -2.0080   22.3900  -27.7810 C   0  0  0  0  0  0  0  0  0  0  0  0
   -1.3650   21.0950  -26.7740 Cl  0  0  0  0  0  0  0  0  0  0  0  0
   -3.2410   22.1620  -28.3960 C   0  0  0  0  0  0  0  0  0  0  0  0
   -3.8120   23.1320  -29.2120 C   0  0  0  0  0  0  0  0  0  0  0  0
   -3.1440   24.3320  -29.4580 C   0  0  0  0  0  0  0  0  0  0  0  0
   -3.7730   25.2990  -30.3130 N   0  0  0  0  0  0  0  0  0  0  0  0
   -5.1260   25.2100  -30.7700 C   0  0  0  0  0  0  0  0  0  0  0  0
   -6.0180   25.8920  -30.2030 O   0  0  0  0  0  0  0  0  0  0  0  0
   -5.4470   24.3960  -31.9040 N   0  0  0  0  0  0  0  0  0  0  0  0
   -6.0850   23.1130  -31.8630 C   0  0  0  0  0  0  0  0  0  0  0  0
   -7.4810   23.0570  -31.9390 C   0  0  0  0  0  0  0  0  0  0  0  0
   -8.1350   21.8270  -32.0370 C   0  0  0  0  0  0  0  0  0  0  0  0
   -7.3980   20.6360  -32.0750 C   0  0  0  0  0  0  0  0  0  0  0  0
   -8.2150   19.0920  -32.3280 S   0  0  0  0  0  0  0  0  0  0  0  0
   -8.5190   18.4670  -30.9940 O   0  0  0  0  0  0  0  0  0  0  0  0
   -9.5170   19.3290  -33.0400 O   0  0  0  0  0  0  0  0  0  0  0  0
   -7.2220   18.0020  -33.2690 N   0  0  0  0  0  0  0  0  0  0  0  0
   -6.4160   18.7610  -34.2490 C   0  0  0  0  0  0  0  0  0  0  0  0
   -5.2810   17.9050  -34.8200 C   0  0  0  0  0  0  0  0  0  0  0  0
   -4.3090   17.4490  -33.7150 C   0  0  0  0  0  0  0  0  0  0  0  0
   -4.9520   17.4530  -32.3190 C   0  0  0  0  0  0  0  0  0  0  0  0
   -6.4410   17.0840  -32.4000 C   0  0  0  0  0  0  0  0  0  0  0  0
   -6.0010   20.6860  -31.9710 C   0  0  0  0  0  0  0  0  0  0  0  0
   -5.3460   21.9160  -31.8760 C   0  0  0  0  0  0  0  0  0  0  0  0
   -1.8530   24.5400  -28.9230 C   0  0  0  0  0  0  0  0  0  0  0  0
   -1.1280   25.6480  -29.3690 O   0  0  0  0  0  0  0  0  0  0  0  0
   -1.4550   25.5860  -25.5940 C   0  0  0  0  0  0  0  0  0  0  0  0
   -1.4630   26.6440  -24.4820 C   0  0  0  0  0  0  0  0  0  0  0  0
   -0.7325   29.5733  -24.4079 H   0  0  0  0  0  0  0  0  0  0  0  0
    0.2977   29.0984  -25.8006 H   0  0  0  0  0  0  0  0  0  0  0  0
   -1.4532   28.6972  -25.8006 H   0  0  0  0  0  0  0  0  0  0  0  0
    0.9103   27.0487  -26.2143 H   0  0  0  0  0  0  0  0  0  0  0  0
    1.8313   27.3552  -24.6847 H   0  0  0  0  0  0  0  0  0  0  0  0
    1.9137   24.9701  -25.2652 H   0  0  0  0  0  0  0  0  0  0  0  0
    0.9579   25.2336  -23.7529 H   0  0  0  0  0  0  0  0  0  0  0  0
   -0.4775   23.8406  -24.7823 H   0  0  0  0  0  0  0  0  0  0  0  0
   -3.7641   21.2081  -28.2336 H   0  0  0  0  0  0  0  0  0  0  0  0
   -4.7973   22.9522  -29.6669 H   0  0  0  0  0  0  0  0  0  0  0  0
   -8.0671   23.9877  -31.9214 H   0  0  0  0  0  0  0  0  0  0  0  0
   -9.2334   21.7931  -32.0846 H   0  0  0  0  0  0  0  0  0  0  0  0
   -7.0679   19.0871  -35.0728 H   0  0  0  0  0  0  0  0  0  0  0  0
   -5.9727   19.6274  -33.7364 H   0  0  0  0  0  0  0  0  0  0  0  0
   -5.7121   17.0173  -35.3059 H   0  0  0  0  0  0  0  0  0  0  0  0
   -4.7199   18.5134  -35.5446 H   0  0  0  0  0  0  0  0  0  0  0  0
   -3.9710   16.4275  -33.9436 H   0  0  0  0  0  0  0  0  0  0  0  0
   -3.4707   18.1609  -33.6961 H   0  0  0  0  0  0  0  0  0  0  0  0
   -4.4338   16.7213  -31.6818 H   0  0  0  0  0  0  0  0  0  0  0  0
   -4.8631   18.4637  -31.8941 H   0  0  0  0  0  0  0  0  0  0  0  0
   -6.5276   16.0635  -32.8014 H   0  0  0  0  0  0  0  0  0  0  0  0
   -6.8545   17.1629  -31.3837 H   0  0  0  0  0  0  0  0  0  0  0  0
   -5.4183   19.7530  -31.9642 H   0  0  0  0  0  0  0  0  0  0  0  0
   -4.2484   21.9488  -31.8111 H   0  0  0  0  0  0  0  0  0  0  0  0
   -0.1290   25.6630  -29.4990 H   0  0  0  0  0  0  0  0  0  0  0  0
   -1.4284   26.0913  -26.5707 H   0  0  0  0  0  0  0  0  0  0  0  0
   -2.3640   24.9736  -25.5006 H   0  0  0  0  0  0  0  0  0  0  0  0
   -2.3597   27.2705  -24.5981 H   0  0  0  0  0  0  0  0  0  0  0  0
   -1.4604   26.1143  -23.5179 H   0  0  0  0  0  0  0  0  0  0  0  0
  1  2  1  0
  2  3  1  0
  3  4  1  0
  4  5  1  0
  5  6  1  0
  6  7  2  0
  6  8  2  0
  6  9  1  0
  9 10  2  0
 10 11  1  0
 10 12  1  0
 12 13  2  0
 13 14  1  0
 14 15  1  0
 15 16  1  0
 16 17  2  0
 16 18  1  0
 18 19  1  0
 19 20  2  0
 20 21  1  0
 21 22  2  0
 22 23  1  0
 23 24  2  0
 23 25  2  0
 23 26  1  0
 26 27  1  0
 27 28  1  0
 28 29  1  0
 29 30  1  0
 30 31  1  0
 22 32  1  0
 32 33  2  0
 14 34  2  0
 34 35  1  0
  5 36  1  0
 36 37  1  0
 37  2  1  0
 34  9  1  0
 33 19  1  0
 31 26  1  0
  1 38  1  0
  1 39  1  0
  1 40  1  0
  3 41  1  0
  3 42  1  0
  4 43  1  0
  4 44  1  0
  5 45  1  0
 12 46  1  0
 13 47  1  0
 20 48  1  0
 21 49  1  0
 27 50  1  0
 27 51  1  0
 28 52  1  0
 28 53  1  0
 29 54  1  0
 29 55  1  0
 30 56  1  0
 30 57  1  0
 31 58  1  0
 31 59  1  0
 32 60  1  0
 33 61  1  0
 35 62  1  0
 36 63  1  0
 36 64  1  0
 37 65  1  0
 37 66  1  0
M  CHG  2  15  -1  18  -1
M  END
>  <UniqueID>  (20) 
19

>  <SMILES>  (20) 
CN1CCC(S(=O)(=O)c2c(Cl)ccc([N-]C(=O)[N-]c3ccc(S(=O)(=O)N4CCCCC4)cc3)c2O)CC1

>  <Energy>  (20) 
90.46814329772893

>  <Genealogy>  (20) 
CN1CCC(S(=O)(=O)c2c(Cl)ccc([N-]C(=O)[N-]c3ccc(S(=O)(=O)N4CCCCC4)cc3)c2O)CC1 (protonated)
CN1CCC(S(=O)(=O)c2c(Cl)ccc([N-]C(=O)[N-]c3ccc(S(=O)(=O)N4CCCCC4)cc3)c2O)CC1 (3D coordinates assigned)
CN1CCC(S(=O)(=O)c2c(Cl)ccc([N-]C(=O)[N-]c3ccc(S(=O)(=O)N4CCCCC4)cc3)c2O)CC1 (nonaromatic ring conformer: 90.46814329772893 kcal/mol)

>  <smiles>  (20) 
CN1CCC(S(=O)(=O)c2c(Cl)ccc(NC(=O)Nc3ccc(S(=O)(=O)N4CCCCC4)cc3)c2O)CC1

>  <score_type>  (20) 
oracle

>  <origin>  (20) 
adgpu

>  <m_score__min__energy>  (20) 
-15.58

>  <m_primary>  (20) 
energy

$$$$
20:0
     RDKit          3D

 50 52  0  0  0  0  0  0  0  0999 V2000
   -1.8060   18.3880  -34.5700 N   0  0  0  0  0  0  0  0  0  0  0  0
   -2.1320   19.4270  -33.6370 C   0  0  0  0  0  0  0  0  0  0  0  0
   -1.2860   20.5420  -33.5360 C   0  0  0  0  0  0  0  0  0  0  0  0
   -1.5290   21.5320  -32.5840 C   0  0  0  0  0  0  0  0  0  0  0  0
   -2.6350   21.4350  -31.7330 C   0  0  0  0  0  0  0  0  0  0  0  0
   -2.8890   22.6320  -30.4610 S   0  0  0  0  0  0  0  0  0  0  0  0
   -3.3890   21.9440  -29.2200 O   0  0  0  0  0  0  0  0  0  0  0  0
   -1.5790   23.2930  -30.1320 O   0  0  0  0  0  0  0  0  0  0  0  0
   -4.0450   23.8470  -30.9600 N   0  0  0  0  0  0  0  0  0  0  0  0
   -4.2920   24.8030  -29.8590 C   0  0  0  0  0  0  0  0  0  0  0  0
   -5.5700   25.6140  -30.0990 C   0  0  0  0  0  0  0  0  0  0  0  0
   -6.8070   24.6980  -30.1450 C   0  0  0  0  0  0  0  0  0  0  0  0
   -6.4660   23.2600  -30.5710 C   0  0  0  0  0  0  0  0  0  0  0  0
   -5.2700   23.2360  -31.5360 C   0  0  0  0  0  0  0  0  0  0  0  0
   -3.5120   20.3530  -31.8610 C   0  0  0  0  0  0  0  0  0  0  0  0
   -3.2560   19.3270  -32.7860 C   0  0  0  0  0  0  0  0  0  0  0  0
   -4.1330   18.1910  -32.8540 N   0  0  0  0  0  0  0  0  0  0  0  0
   -4.9240   17.9000  -34.0170 C   0  0  0  0  0  0  0  0  0  0  0  0
   -4.6510   18.4230  -35.1310 O   0  0  0  0  0  0  0  0  0  0  0  0
   -6.1470   17.0440  -33.8940 C   0  0  0  0  0  0  0  0  0  0  0  0
   -6.7620   17.0350  -32.1700 S   0  0  0  0  0  0  0  0  0  0  0  0
   -7.5130   18.6670  -32.2460 C   0  0  0  0  0  0  0  0  0  0  0  0
   -6.7360   19.7880  -32.5630 C   0  0  0  0  0  0  0  0  0  0  0  0
   -7.3220   21.0590  -32.5980 C   0  0  0  0  0  0  0  0  0  0  0  0
   -8.6840   21.2100  -32.3210 C   0  0  0  0  0  0  0  0  0  0  0  0
   -9.4650   20.0910  -32.0160 C   0  0  0  0  0  0  0  0  0  0  0  0
   -8.8830   18.8200  -31.9830 C   0  0  0  0  0  0  0  0  0  0  0  0
   -0.8360   18.0050  -34.6160 H   0  0  0  0  0  0  0  0  0  0  0  0
   -2.5280   17.9370  -35.1710 H   0  0  0  0  0  0  0  0  0  0  0  0
   -0.4242   20.6360  -34.2131 H   0  0  0  0  0  0  0  0  0  0  0  0
   -0.8484   22.3923  -32.5021 H   0  0  0  0  0  0  0  0  0  0  0  0
   -4.3939   24.2450  -28.9166 H   0  0  0  0  0  0  0  0  0  0  0  0
   -3.4432   25.5009  -29.8095 H   0  0  0  0  0  0  0  0  0  0  0  0
   -5.6921   26.3420  -29.2834 H   0  0  0  0  0  0  0  0  0  0  0  0
   -5.4804   26.1293  -31.0667 H   0  0  0  0  0  0  0  0  0  0  0  0
   -7.2614   24.6699  -29.1436 H   0  0  0  0  0  0  0  0  0  0  0  0
   -7.4983   25.1111  -30.8943 H   0  0  0  0  0  0  0  0  0  0  0  0
   -6.2174   22.6700  -29.6765 H   0  0  0  0  0  0  0  0  0  0  0  0
   -7.3387   22.8328  -31.0866 H   0  0  0  0  0  0  0  0  0  0  0  0
   -5.0506   22.1899  -31.7958 H   0  0  0  0  0  0  0  0  0  0  0  0
   -5.5488   23.8296  -32.4191 H   0  0  0  0  0  0  0  0  0  0  0  0
   -4.4121   20.3048  -31.2305 H   0  0  0  0  0  0  0  0  0  0  0  0
   -4.3480   17.6700  -31.9750 H   0  0  0  0  0  0  0  0  0  0  0  0
   -6.9322   17.4395  -34.5551 H   0  0  0  0  0  0  0  0  0  0  0  0
   -5.8876   16.0144  -34.1816 H   0  0  0  0  0  0  0  0  0  0  0  0
   -5.6650   19.6699  -32.7846 H   0  0  0  0  0  0  0  0  0  0  0  0
   -6.7103   21.9396  -32.8437 H   0  0  0  0  0  0  0  0  0  0  0  0
   -9.1416   22.2100  -32.3430 H   0  0  0  0  0  0  0  0  0  0  0  0
  -10.5373   20.2106  -31.8020 H   0  0  0  0  0  0  0  0  0  0  0  0
   -9.4996   17.9392  -31.7507 H   0  0  0  0  0  0  0  0  0  0  0  0
  1  2  1  0
  2  3  2  0
  3  4  1  0
  4  5  2  0
  5  6  1  0
  6  7  2  0
  6  8  2  0
  6  9  1  0
  9 10  1  0
 10 11  1  0
 11 12  1  0
 12 13  1  0
 13 14  1  0
  5 15  1  0
 15 16  2  0
 16 17  1  0
 17 18  1  0
 18 19  2  0
 18 20  1  0
 20 21  1  0
 21 22  1  0
 22 23  2  0
 23 24  1  0
 24 25  2  0
 25 26  1  0
 26 27  2  0
 16  2  1  0
 27 22  1  0
 14  9  1  0
  1 28  1  0
  1 29  1  0
  3 30  1  0
  4 31  1  0
 10 32  1  0
 10 33  1  0
 11 34  1  0
 11 35  1  0
 12 36  1  0
 12 37  1  0
 13 38  1  0
 13 39  1  0
 14 40  1  0
 14 41  1  0
 15 42  1  0
 17 43  1  0
 20 44  1  0
 20 45  1  0
 23 46  1  0
 24 47  1  0
 25 48  1  0
 26 49  1  0
 27 50  1  0
M  END
>  <UniqueID>  (21) 
20

>  <SMILES>  (21) 
Nc1ccc(S(=O)(=O)N2CCCCC2)cc1NC(=O)CSc1ccccc1

>  <Energy>  (21) 
52.00888688226255

>  <Genealogy>  (21) 
Nc1ccc(S(=O)(=O)N2CCCCC2)cc1NC(=O)CSc1ccccc1 (3D coordinates assigned)
Nc1ccc(S(=O)(=O)N2CCCCC2)cc1NC(=O)CSc1ccccc1 (nonaromatic ring conformer: 52.00888688226255 kcal/mol)

>  <smiles>  (21) 
Nc1ccc(S(=O)(=O)N2CCCCC2)cc1NC(=O)CSc1ccccc1

>  <score_type>  (21) 
oracle

>  <origin>  (21) 
adgpu

>  <m_score__min__energy>  (21) 
-9.6600000000000001

>  <m_primary>  (21) 
energy

$$$$
21:0
     RDKit          3D

 55 58  0  0  1  0  0  0  0  0999 V2000
   -3.9340   25.0720  -30.7050 N   0  0  0  0  0  0  0  0  0  0  0  0
   -4.4970   23.4650  -30.9900 S   0  0  0  0  0  0  0  0  0  0  0  0
   -5.2340   23.4570  -32.3020 O   0  0  0  0  0  0  0  0  0  0  0  0
   -5.4800   23.0410  -29.9170 O   0  0  0  0  0  0  0  0  0  0  0  0
   -3.1760   22.3160  -31.0870 C   0  0  0  0  0  0  0  0  0  0  0  0
   -2.6210   22.0870  -32.3450 C   0  0  0  0  0  0  0  0  0  0  0  0
   -1.5790   21.1910  -32.4660 C   0  0  0  0  0  0  0  0  0  0  0  0
   -1.0900   20.5240  -31.3370 C   0  0  0  0  0  0  0  0  0  0  0  0
   -0.0140   19.6230  -31.5790 N   0  0  0  0  0  0  0  0  0  0  0  0
   -0.2800   18.5100  -32.1650 C   0  0  0  0  0  0  0  0  0  0  0  0
   -1.5810   18.2390  -32.5310 C   0  0  0  0  0  0  0  0  0  0  0  0
   -1.8760   17.0610  -33.1540 C   0  0  0  0  0  0  0  0  0  0  0  0
   -3.1780   16.6770  -33.5750 N   0  0  0  0  0  0  0  0  0  0  0  0
   -3.9860   15.7000  -32.8650 C   0  0  0  0  0  0  0  0  0  0  0  0
   -5.1920   16.4360  -32.3120 C   0  0  0  0  0  0  0  0  0  0  0  0
   -5.6970   17.4310  -33.2520 N   0  0  0  0  0  0  0  0  0  0  0  0
   -6.5160   18.4460  -32.7400 C   0  0  0  0  0  0  0  0  0  0  0  0
   -6.7660   18.4420  -31.5080 O   0  0  0  0  0  0  0  0  0  0  0  0
   -7.0950   19.4930  -33.5070 N   0  0  0  0  0  0  0  0  0  0  0  0
   -7.9000   20.4350  -32.8120 C   0  0  0  0  0  0  0  0  0  0  0  0
   -7.2780   21.5990  -32.3450 C   0  0  0  0  0  0  0  0  0  0  0  0
   -8.0280   22.5350  -31.6670 C   0  0  0  0  0  0  0  0  0  0  0  0
   -9.3840   22.3110  -31.4560 C   0  0  0  0  0  0  0  0  0  0  0  0
   -9.9670   21.1540  -31.9300 C   0  0  0  0  0  0  0  0  0  0  0  0
   -9.2430   20.1980  -32.6120 C   0  0  0  0  0  0  0  0  0  0  0  0
   -9.7860   19.0510  -33.0890 F   0  0  0  0  0  0  0  0  0  0  0  0
   -5.3090   17.2800  -34.6300 C   0  0  0  0  0  0  0  0  0  0  0  0
   -3.7980   17.2570  -34.7750 C   0  0  0  0  0  0  0  0  0  0  0  0
   -0.8800   16.1890  -33.3970 N   0  0  0  0  0  0  0  0  0  0  0  0
    0.3960   16.4390  -33.0450 C   0  0  0  0  0  0  0  0  0  0  0  0
    0.6750   17.5980  -32.4340 N   0  0  0  0  0  0  0  0  0  0  0  0
   -1.6270   20.7400  -30.0850 C   0  0  0  0  0  0  0  0  0  0  0  0
   -2.6840   21.6520  -29.9810 C   0  0  0  0  0  0  0  0  0  0  0  0
   -4.4590   25.4550  -29.8950 H   0  0  0  0  0  0  0  0  0  0  0  0
   -4.0360   25.6690  -31.5640 H   0  0  0  0  0  0  0  0  0  0  0  0
   -3.0087   22.6137  -33.2295 H   0  0  0  0  0  0  0  0  0  0  0  0
   -1.1313   21.0003  -33.4525 H   0  0  0  0  0  0  0  0  0  0  0  0
   -2.3774   18.9684  -32.3220 H   0  0  0  0  0  0  0  0  0  0  0  0
   -4.3114   14.9069  -33.5543 H   0  0  0  0  0  0  0  0  0  0  0  0
   -3.4093   15.2292  -32.0552 H   0  0  0  0  0  0  0  0  0  0  0  0
   -5.9888   15.7071  -32.1027 H   0  0  0  0  0  0  0  0  0  0  0  0
   -4.8830   16.9581  -31.3944 H   0  0  0  0  0  0  0  0  0  0  0  0
   -6.9100   19.5300  -34.5330 H   0  0  0  0  0  0  0  0  0  0  0  0
   -6.2042   21.7642  -32.5172 H   0  0  0  0  0  0  0  0  0  0  0  0
   -7.5559   23.4559  -31.2941 H   0  0  0  0  0  0  0  0  0  0  0  0
   -9.9889   23.0527  -30.9138 H   0  0  0  0  0  0  0  0  0  0  0  0
  -11.0410   20.9888  -31.7591 H   0  0  0  0  0  0  0  0  0  0  0  0
   -5.7211   16.3367  -35.0176 H   0  0  0  0  0  0  0  0  0  0  0  0
   -5.7007   18.1366  -35.1982 H   0  0  0  0  0  0  0  0  0  0  0  0
   -3.5270   16.6510  -35.6521 H   0  0  0  0  0  0  0  0  0  0  0  0
   -3.4355   18.2878  -34.9018 H   0  0  0  0  0  0  0  0  0  0  0  0
    1.1908   15.7080  -33.2545 H   0  0  0  0  0  0  0  0  0  0  0  0
    1.6660   17.8160  -32.1490 H   0  0  0  0  0  0  0  0  0  0  0  0
   -1.2387   20.2145  -29.2001 H   0  0  0  0  0  0  0  0  0  0  0  0
   -3.1329   21.8440  -28.9953 H   0  0  0  0  0  0  0  0  0  0  0  0
  1  2  1  0
  2  3  2  0
  2  4  2  0
  2  5  1  0
  5  6  2  0
  6  7  1  0
  7  8  2  0
  8  9  1  0
  9 10  2  0
 10 11  1  0
 11 12  2  0
 12 13  1  0
 13 14  1  0
 14 15  1  0
 15 16  1  0
 16 17  1  0
 17 18  2  0
 17 19  1  0
 19 20  1  0
 20 21  2  0
 21 22  1  0
 22 23  2  0
 23 24  1  0
 24 25  2  0
 25 26  1  0
 16 27  1  0
 27 28  1  0
 12 29  1  0
 29 30  2  0
 30 31  1  0
  8 32  1  0
 32 33  2  0
 33  5  1  0
 31 10  1  0
 28 13  1  0
 25 20  1  0
  1 34  1  0
  1 35  1  0
  6 36  1  0
  7 37  1  0
 11 38  1  0
 14 39  1  0
 14 40  1  0
 15 41  1  0
 15 42  1  0
 19 43  1  0
 21 44  1  0
 22 45  1  0
 23 46  1  0
 24 47  1  0
 27 48  1  0
 27 49  1  0
 28 50  1  0
 28 51  1  0
 30 52  1  0
 31 53  1  0
 32 54  1  0
 33 55  1  0
M  END
>  <smiles>  (22) 
NS(=O)(=O)c1ccc(N=c2cc(N3CCN(C(=O)Nc4ccccc4F)CC3)nc[nH]2)cc1

>  <score_type>  (22) 
oracle

>  <origin>  (22) 
adgpu

>  <m_score__min__energy>  (22) 
-9.6799999999999997

>  <m_primary>  (22) 
energy

$$$$
22:0
     RDKit          3D

 46 48  0  0  0  0  0  0  0  0999 V2000
   -6.1740   25.4430  -29.3190 C   0  0  0  0  0  0  0  0  0  0  0  0
   -5.3360   24.6890  -30.6970 S   0  0  0  0  0  0  0  0  0  0  0  0
   -6.1100   24.9240  -31.9640 O   0  0  0  0  0  0  0  0  0  0  0  0
   -3.9820   25.3280  -30.8290 O   0  0  0  0  0  0  0  0  0  0  0  0
   -5.1510   22.9770  -30.4250 N   0  0  0  0  0  0  0  0  0  0  0  0
   -4.2040   22.4570  -29.4660 C   0  0  0  0  0  0  0  0  0  0  0  0
   -3.4860   21.2780  -29.7440 C   0  0  0  0  0  0  0  0  0  0  0  0
   -2.5780   20.7620  -28.8170 C   0  0  0  0  0  0  0  0  0  0  0  0
   -2.3790   21.4050  -27.5910 C   0  0  0  0  0  0  0  0  0  0  0  0
   -1.2520   20.7340  -26.4170 S   0  0  0  0  0  0  0  0  0  0  0  0
   -0.0270   20.1930  -27.1030 O   0  0  0  0  0  0  0  0  0  0  0  0
   -1.9310   19.6160  -25.6790 O   0  0  0  0  0  0  0  0  0  0  0  0
   -0.7730   21.9560  -25.2780 N   0  0  0  0  0  0  0  0  0  0  0  0
   -0.2350   23.1110  -25.5540 C   0  0  0  0  0  0  0  0  0  0  0  0
    0.0410   23.5180  -26.8770 C   0  0  0  0  0  0  0  0  0  0  0  0
    0.6060   24.7730  -27.1080 C   0  0  0  0  0  0  0  0  0  0  0  0
    0.8950   25.6140  -26.0350 C   0  0  0  0  0  0  0  0  0  0  0  0
    0.6140   25.1850  -24.7380 C   0  0  0  0  0  0  0  0  0  0  0  0
    0.0630   23.9580  -24.5260 N   0  0  0  0  0  0  0  0  0  0  0  0
   -3.0890   22.5770  -27.3030 C   0  0  0  0  0  0  0  0  0  0  0  0
   -3.9970   23.0970  -28.2290 C   0  0  0  0  0  0  0  0  0  0  0  0
   -6.0670   22.0850  -31.0860 C   0  0  0  0  0  0  0  0  0  0  0  0
   -7.3190   21.9700  -30.4770 C   0  0  0  0  0  0  0  0  0  0  0  0
   -8.4210   21.2180  -30.8460 C   0  0  0  0  0  0  0  0  0  0  0  0
   -8.5660   20.3840  -31.9390 C   0  0  0  0  0  0  0  0  0  0  0  0
   -7.6410   20.0910  -32.9270 C   0  0  0  0  0  0  0  0  0  0  0  0
   -6.3290   20.5370  -33.0820 C   0  0  0  0  0  0  0  0  0  0  0  0
   -5.7200   20.0790  -34.0880 O   0  0  0  0  0  0  0  0  0  0  0  0
   -5.6210   21.4280  -32.2540 C   0  0  0  0  0  0  0  0  0  0  0  0
   -3.9420   21.7480  -32.7420 Cl  0  0  0  0  0  0  0  0  0  0  0  0
   -5.7499   25.0614  -28.3785 H   0  0  0  0  0  0  0  0  0  0  0  0
   -6.0442   26.5344  -29.3635 H   0  0  0  0  0  0  0  0  0  0  0  0
   -7.2457   25.1991  -29.3635 H   0  0  0  0  0  0  0  0  0  0  0  0
   -3.6419   20.7583  -30.7009 H   0  0  0  0  0  0  0  0  0  0  0  0
   -2.0167   19.8457  -29.0521 H   0  0  0  0  0  0  0  0  0  0  0  0
   -0.1878   22.8502  -27.7206 H   0  0  0  0  0  0  0  0  0  0  0  0
    0.8231   25.0981  -28.1362 H   0  0  0  0  0  0  0  0  0  0  0  0
    1.3397   26.6049  -26.2090 H   0  0  0  0  0  0  0  0  0  0  0  0
    0.8383   25.8402  -23.8833 H   0  0  0  0  0  0  0  0  0  0  0  0
   -0.1390   23.6670  -23.5420 H   0  0  0  0  0  0  0  0  0  0  0  0
   -2.9312   23.0908  -26.3432 H   0  0  0  0  0  0  0  0  0  0  0  0
   -4.5549   24.0143  -27.9896 H   0  0  0  0  0  0  0  0  0  0  0  0
   -7.4491   22.5692  -29.5638 H   0  0  0  0  0  0  0  0  0  0  0  0
   -9.2955   21.2939  -30.1830 H   0  0  0  0  0  0  0  0  0  0  0  0
   -9.5433   19.8887  -32.0365 H   0  0  0  0  0  0  0  0  0  0  0  0
   -7.9949   19.4019  -33.7080 H   0  0  0  0  0  0  0  0  0  0  0  0
  1  2  1  0
  2  3  2  0
  2  4  2  0
  2  5  1  0
  5  6  1  0
  6  7  2  0
  7  8  1  0
  8  9  2  0
  9 10  1  0
 10 11  2  0
 10 12  2  0
 10 13  1  0
 13 14  2  3
 14 15  1  0
 15 16  2  0
 16 17  1  0
 17 18  2  0
 18 19  1  0
  9 20  1  0
 20 21  2  0
  5 22  1  0
 22 23  1  0
 23 24  2  0
 24 25  1  0
 25 26  2  0
 26 27  1  0
 27 28  2  0
 27 29  1  0
 29 30  1  0
 21  6  1  0
 29 22  2  0
 19 14  1  0
  1 31  1  0
  1 32  1  0
  1 33  1  0
  7 34  1  0
  8 35  1  0
 15 36  1  0
 16 37  1  0
 17 38  1  0
 18 39  1  0
 19 40  1  0
 20 41  1  0
 21 42  1  0
 23 43  1  0
 24 44  1  0
 25 45  1  0
 26 46  1  0
M  END
>  <UniqueID>  (23) 
21

>  <SMILES>  (23) 
CS(=O)(=O)N(c1ccc(S(=O)(=O)N=c2cccc[nH]2)cc1)c1ccccc(=O)c1Cl

>  <Energy>  (23) 
83.15974175250273

>  <Genealogy>  (23) 
CS(=O)(=O)N(c1ccc(S(=O)(=O)N=c2cccc[nH]2)cc1)c1ccccc(=O)c1Cl (3D coordinates assigned)
CS(=O)(=O)N(c1ccc(S(=O)(=O)N=c2cccc[nH]2)cc1)c1ccccc(=O)c1Cl (optimized conformer: 83.15974175250273 kcal/mol)

>  <smiles>  (23) 
CS(=O)(=O)N(c1ccc(S(=O)(=O)N=c2cccc[nH]2)cc1)c1ccccc(=O)c1Cl

>  <score_type>  (23) 
oracle

>  <origin>  (23) 
adgpu

>  <m_score__min__energy>  (23) 
-9.8900000000000006

>  <m_primary>  (23) 
energy

$$$$
23:0
     RDKit          3D

 34 35  0  0  0  0  0  0  0  0999 V2000
   -2.2290   22.2330  -31.2250 C   0  0  0  0  0  0  0  0  0  0  0  0
   -3.5350   22.9130  -30.9790 C   0  0  0  0  0  0  0  0  0  0  0  0
   -4.7040   22.5190  -31.5240 N   0  0  0  0  0  0  0  0  0  0  0  0
   -5.6250   23.4160  -31.1940 N   0  0  0  0  0  0  0  0  0  0  0  0
   -7.0140   23.3400  -31.6300 C   0  0  0  0  0  0  0  0  0  0  0  0
   -5.0680   24.3960  -30.4500 C   0  0  0  0  0  0  0  0  0  0  0  0
   -5.7770   25.6240  -29.9640 C   0  0  0  0  0  0  0  0  0  0  0  0
   -3.7290   24.1040  -30.3100 C   0  0  0  0  0  0  0  0  0  0  0  0
   -2.7180   24.9250  -29.7280 N   0  0  0  0  0  0  0  0  0  0  0  0
   -1.6060   24.2770  -28.5730 S   0  0  0  0  0  0  0  0  0  0  0  0
   -1.8600   22.8090  -28.3810 O   0  0  0  0  0  0  0  0  0  0  0  0
   -0.2040   24.4560  -29.0820 O   0  0  0  0  0  0  0  0  0  0  0  0
   -1.7830   25.1420  -27.0490 C   0  0  0  0  0  0  0  0  0  0  0  0
   -0.7980   25.7170  -26.2690 C   0  0  0  0  0  0  0  0  0  0  0  0
    0.6640   25.7780  -26.5660 C   0  0  0  0  0  0  0  0  0  0  0  0
   -1.3560   26.2170  -25.1490 N   0  0  0  0  0  0  0  0  0  0  0  0
   -2.6320   25.9610  -25.2080 O   0  0  0  0  0  0  0  0  0  0  0  0
   -2.9360   25.3160  -26.3120 C   0  0  0  0  0  0  0  0  0  0  0  0
   -4.3130   24.8630  -26.6680 C   0  0  0  0  0  0  0  0  0  0  0  0
   -1.7566   21.9871  -30.2625 H   0  0  0  0  0  0  0  0  0  0  0  0
   -2.3988   21.3088  -31.7969 H   0  0  0  0  0  0  0  0  0  0  0  0
   -1.5692   22.9021  -31.7969 H   0  0  0  0  0  0  0  0  0  0  0  0
   -7.6731   23.3039  -30.7500 H   0  0  0  0  0  0  0  0  0  0  0  0
   -7.2576   24.2262  -32.2345 H   0  0  0  0  0  0  0  0  0  0  0  0
   -7.1594   22.4326  -32.2345 H   0  0  0  0  0  0  0  0  0  0  0  0
   -5.7823   25.6332  -28.8641 H   0  0  0  0  0  0  0  0  0  0  0  0
   -5.2567   26.5191  -30.3357 H   0  0  0  0  0  0  0  0  0  0  0  0
   -6.8123   25.6209  -30.3357 H   0  0  0  0  0  0  0  0  0  0  0  0
    1.2291   25.8016  -25.6226 H   0  0  0  0  0  0  0  0  0  0  0  0
    0.9574   24.8913  -27.1471 H   0  0  0  0  0  0  0  0  0  0  0  0
    0.8825   26.6860  -27.1471 H   0  0  0  0  0  0  0  0  0  0  0  0
   -4.8862   24.6744  -25.7483 H   0  0  0  0  0  0  0  0  0  0  0  0
   -4.8144   25.6435  -27.2590 H   0  0  0  0  0  0  0  0  0  0  0  0
   -4.2531   23.9372  -27.2590 H   0  0  0  0  0  0  0  0  0  0  0  0
  1  2  1  0
  2  3  2  0
  3  4  1  0
  4  5  1  0
  4  6  1  0
  6  7  1  0
  6  8  2  0
  8  9  1  0
  9 10  1  0
 10 11  2  0
 10 12  2  0
 10 13  1  0
 13 14  1  0
 14 15  1  0
 14 16  2  0
 16 17  1  0
 17 18  1  0
 18 19  1  0
  8  2  1  0
 18 13  2  0
  1 20  1  0
  1 21  1  0
  1 22  1  0
  5 23  1  0
  5 24  1  0
  5 25  1  0
  7 26  1  0
  7 27  1  0
  7 28  1  0
 15 29  1  0
 15 30  1  0
 15 31  1  0
 19 32  1  0
 19 33  1  0
 19 34  1  0
M  CHG  1   9  -1
M  END
>  <UniqueID>  (24) 
22

>  <SMILES>  (24) 
Cc1nn(C)c(C)c1[N-]S(=O)(=O)c1c(C)noc1C

>  <Energy>  (24) 
98.45173593183084

>  <Genealogy>  (24) 
Cc1nn(C)c(C)c1[N-]S(=O)(=O)c1c(C)noc1C (protonated)
Cc1nn(C)c(C)c1[N-]S(=O)(=O)c1c(C)noc1C (3D coordinates assigned)
Cc1nn(C)c(C)c1[N-]S(=O)(=O)c1c(C)noc1C (optimized conformer: 98.45173593183084 kcal/mol)

>  <smiles>  (24) 
Cc1nn(C)c(C)c1NS(=O)(=O)c1c(C)noc1C

>  <score_type>  (24) 
oracle

>  <origin>  (24) 
adgpu

>  <m_score__min__energy>  (24) 
-7.9699999999999998

>  <m_primary>  (24) 
energy

$$$$
24:0
     RDKit          3D

 73 77  0  0  0  0  0  0  0  0999 V2000
   -9.6300   21.1750  -31.9670 C   0  0  0  0  0  0  0  0  0  0  0  0
   -8.2090   20.7060  -31.8530 C   0  0  0  0  0  0  0  0  0  0  0  0
   -7.9190   19.3430  -31.6960 C   0  0  0  0  0  0  0  0  0  0  0  0
   -6.5920   18.9140  -31.6020 C   0  0  0  0  0  0  0  0  0  0  0  0
   -5.5480   19.8380  -31.6770 C   0  0  0  0  0  0  0  0  0  0  0  0
   -5.8240   21.1990  -31.8700 C   0  0  0  0  0  0  0  0  0  0  0  0
   -4.5210   22.3800  -31.9650 S   0  0  0  0  0  0  0  0  0  0  0  0
   -4.9110   23.6680  -31.2980 O   0  0  0  0  0  0  0  0  0  0  0  0
   -4.2510   22.6800  -33.4150 O   0  0  0  0  0  0  0  0  0  0  0  0
   -3.0590   21.7260  -31.2250 C   0  0  0  0  0  0  0  0  0  0  0  0
   -2.4740   22.2790  -29.7520 S   0  0  0  0  0  0  0  0  0  0  0  0
   -1.1480   21.2620  -29.6680 C   0  0  0  0  0  0  0  0  0  0  0  0
   -1.1310   20.4650  -30.8100 C   0  0  0  0  0  0  0  0  0  0  0  0
   -0.0670   19.4700  -30.9970 C   0  0  0  0  0  0  0  0  0  0  0  0
    1.0600   19.8450  -31.4220 O   0  0  0  0  0  0  0  0  0  0  0  0
   -0.3260   18.0840  -30.7430 N   0  0  0  0  0  0  0  0  0  0  0  0
   -0.0760   16.9970  -31.6510 C   0  0  0  0  0  0  0  0  0  0  0  0
    1.2210   16.5110  -31.8900 C   0  0  0  0  0  0  0  0  0  0  0  0
    1.4340   15.5190  -32.8500 C   0  0  0  0  0  0  0  0  0  0  0  0
    0.3640   15.0050  -33.5920 C   0  0  0  0  0  0  0  0  0  0  0  0
    0.7240   13.8230  -34.8430 Cl  0  0  0  0  0  0  0  0  0  0  0  0
   -0.9460   15.4750  -33.3530 C   0  0  0  0  0  0  0  0  0  0  0  0
   -2.3210   14.9400  -34.3300 S   0  0  0  0  0  0  0  0  0  0  0  0
   -2.6550   13.5310  -33.9150 O   0  0  0  0  0  0  0  0  0  0  0  0
   -1.9410   14.9360  -35.7890 O   0  0  0  0  0  0  0  0  0  0  0  0
   -3.7230   15.9520  -34.0930 N   0  0  0  0  0  0  0  0  0  0  0  0
   -3.8710   16.9130  -35.1980 C   0  0  0  0  0  0  0  0  0  0  0  0
   -5.1620   17.7370  -35.0250 C   0  0  0  0  0  0  0  0  0  0  0  0
   -5.8690   17.3650  -33.8570 O   0  0  0  0  0  0  0  0  0  0  0  0
   -6.1970   15.9910  -33.9230 C   0  0  0  0  0  0  0  0  0  0  0  0
   -4.9310   15.1150  -33.9860 C   0  0  0  0  0  0  0  0  0  0  0  0
   -1.1490   16.4730  -32.3840 C   0  0  0  0  0  0  0  0  0  0  0  0
   -2.2010   20.7220  -31.7040 C   0  0  0  0  0  0  0  0  0  0  0  0
   -2.5510   19.7580  -33.1580 S   0  0  0  0  0  0  0  0  0  0  0  0
   -3.6860   20.3360  -33.9500 O   0  0  0  0  0  0  0  0  0  0  0  0
   -2.9310   18.3670  -32.7410 O   0  0  0  0  0  0  0  0  0  0  0  0
   -1.1170   19.7320  -34.1820 C   0  0  0  0  0  0  0  0  0  0  0  0
   -0.3800   20.9080  -34.3670 C   0  0  0  0  0  0  0  0  0  0  0  0
    0.7600   20.9120  -35.1830 C   0  0  0  0  0  0  0  0  0  0  0  0
    1.5500   22.1760  -35.3500 C   0  0  0  0  0  0  0  0  0  0  0  0
    1.1850   19.7160  -35.7840 C   0  0  0  0  0  0  0  0  0  0  0  0
    0.4610   18.5300  -35.5920 C   0  0  0  0  0  0  0  0  0  0  0  0
    0.8970   17.2680  -36.2730 C   0  0  0  0  0  0  0  0  0  0  0  0
   -0.7080   18.5460  -34.8120 C   0  0  0  0  0  0  0  0  0  0  0  0
   -7.1560   21.6280  -31.9570 C   0  0  0  0  0  0  0  0  0  0  0  0
  -10.0520   21.3143  -30.9608 H   0  0  0  0  0  0  0  0  0  0  0  0
   -9.6583   22.1301  -32.5119 H   0  0  0  0  0  0  0  0  0  0  0  0
  -10.2213   20.4244  -32.5119 H   0  0  0  0  0  0  0  0  0  0  0  0
   -8.7376   18.6099  -31.6467 H   0  0  0  0  0  0  0  0  0  0  0  0
   -6.3695   17.8450  -31.4685 H   0  0  0  0  0  0  0  0  0  0  0  0
   -4.5062   19.4973  -31.5844 H   0  0  0  0  0  0  0  0  0  0  0  0
   -0.4140   21.2286  -28.8494 H   0  0  0  0  0  0  0  0  0  0  0  0
    2.0710   16.9131  -31.3192 H   0  0  0  0  0  0  0  0  0  0  0  0
    2.4512   15.1384  -33.0245 H   0  0  0  0  0  0  0  0  0  0  0  0
   -3.0059   17.5923  -35.2057 H   0  0  0  0  0  0  0  0  0  0  0  0
   -3.9258   16.3595  -36.1470 H   0  0  0  0  0  0  0  0  0  0  0  0
   -4.8981   18.8027  -34.9575 H   0  0  0  0  0  0  0  0  0  0  0  0
   -5.8097   17.5450  -35.8931 H   0  0  0  0  0  0  0  0  0  0  0  0
   -6.7774   15.7180  -33.0294 H   0  0  0  0  0  0  0  0  0  0  0  0
   -6.7844   15.8180  -34.8368 H   0  0  0  0  0  0  0  0  0  0  0  0
   -4.8680   14.5053  -33.0726 H   0  0  0  0  0  0  0  0  0  0  0  0
   -4.9926   14.4680  -34.8735 H   0  0  0  0  0  0  0  0  0  0  0  0
   -2.1661   16.8484  -32.1983 H   0  0  0  0  0  0  0  0  0  0  0  0
   -0.6978   21.8356  -33.8684 H   0  0  0  0  0  0  0  0  0  0  0  0
    1.8043   22.5829  -34.3602 H   0  0  0  0  0  0  0  0  0  0  0  0
    2.4742   21.9600  -35.9061 H   0  0  0  0  0  0  0  0  0  0  0  0
    0.9509   22.9121  -35.9061 H   0  0  0  0  0  0  0  0  0  0  0  0
    2.0904   19.7092  -36.4086 H   0  0  0  0  0  0  0  0  0  0  0  0
    1.1575   16.5139  -35.5157 H   0  0  0  0  0  0  0  0  0  0  0  0
    0.0778   16.8887  -36.9015 H   0  0  0  0  0  0  0  0  0  0  0  0
    1.7756   17.4752  -36.9015 H   0  0  0  0  0  0  0  0  0  0  0  0
   -1.3031   17.6283  -34.6950 H   0  0  0  0  0  0  0  0  0  0  0  0
   -7.3773   22.6949  -32.1079 H   0  0  0  0  0  0  0  0  0  0  0  0
  1  2  1  0
  2  3  2  0
  3  4  1  0
  4  5  2  0
  5  6  1  0
  6  7  1  0
  7  8  2  0
  7  9  2  0
  7 10  1  0
 10 11  1  0
 11 12  1  0
 12 13  2  0
 13 14  1  0
 14 15  2  0
 14 16  1  0
 16 17  1  0
 17 18  2  0
 18 19  1  0
 19 20  2  0
 20 21  1  0
 20 22  1  0
 22 23  1  0
 23 24  2  0
 23 25  2  0
 23 26  1  0
 26 27  1  0
 27 28  1  0
 28 29  1  0
 29 30  1  0
 30 31  1  0
 22 32  2  0
 13 33  1  0
 33 34  1  0
 34 35  2  0
 34 36  2  0
 34 37  1  0
 37 38  2  0
 38 39  1  0
 39 40  1  0
 39 41  2  0
 41 42  1  0
 42 43  1  0
 42 44  2  0
  6 45  2  0
 45  2  1  0
 33 10  2  0
 44 37  1  0
 32 17  1  0
 31 26  1  0
  1 46  1  0
  1 47  1  0
  1 48  1  0
  3 49  1  0
  4 50  1  0
  5 51  1  0
 12 52  1  0
 18 53  1  0
 19 54  1  0
 27 55  1  0
 27 56  1  0
 28 57  1  0
 28 58  1  0
 30 59  1  0
 30 60  1  0
 31 61  1  0
 31 62  1  0
 32 63  1  0
 38 64  1  0
 40 65  1  0
 40 66  1  0
 40 67  1  0
 41 68  1  0
 43 69  1  0
 43 70  1  0
 43 71  1  0
 44 72  1  0
 45 73  1  0
M  CHG  1  16  -1
M  END
>  <UniqueID>  (25) 
23

>  <SMILES>  (25) 
Cc1cccc(S(=O)(=O)c2scc(C(=O)[N-]c3ccc(Cl)c(S(=O)(=O)N4CCOCC4)c3)c2S(=O)(=O)c2cc(C)cc(C)c2)c1

>  <Energy>  (25) 
126.53185465753639

>  <Genealogy>  (25) 
Cc1cccc(S(=O)(=O)c2scc(C(=O)[N-]c3ccc(Cl)c(S(=O)(=O)N4CCOCC4)c3)c2S(=O)(=O)c2cc(C)cc(C)c2)c1 (protonated)
Cc1cccc(S(=O)(=O)c2scc(C(=O)[N-]c3ccc(Cl)c(S(=O)(=O)N4CCOCC4)c3)c2S(=O)(=O)c2cc(C)cc(C)c2)c1 (3D coordinates assigned)
Cc1cccc(S(=O)(=O)c2scc(C(=O)[N-]c3ccc(Cl)c(S(=O)(=O)N4CCOCC4)c3)c2S(=O)(=O)c2cc(C)cc(C)c2)c1 (nonaromatic ring conformer: 126.53185465753639 kcal/mol)

>  <smiles>  (25) 
Cc1cccc(S(=O)(=O)c2scc(C(=O)Nc3ccc(Cl)c(S(=O)(=O)N4CCOCC4)c3)c2S(=O)(=O)c2cc(C)cc(C)c2)c1

>  <score_type>  (25) 
oracle

>  <origin>  (25) 
adgpu

>  <m_score__min__energy>  (25) 
-12.289999999999999

>  <m_primary>  (25) 
energy

$$$$
25:0
     RDKit          3D

 63 66  0  0  0  0  0  0  0  0999 V2000
   -6.5490   14.0980  -34.2370 C   0  0  0  0  0  0  0  0  0  0  0  0
   -5.4680   15.0650  -34.1030 N   0  0  0  0  0  0  0  0  0  0  0  0
   -5.7180   16.4790  -34.1180 C   0  0  0  0  0  0  0  0  0  0  0  0
   -6.8930   16.8970  -34.3170 O   0  0  0  0  0  0  0  0  0  0  0  0
   -4.6200   17.4590  -33.9300 C   0  0  0  0  0  0  0  0  0  0  0  0
   -3.4600   17.4080  -34.7200 C   0  0  0  0  0  0  0  0  0  0  0  0
   -2.4390   18.3420  -34.5400 C   0  0  0  0  0  0  0  0  0  0  0  0
   -2.5510   19.3310  -33.5600 C   0  0  0  0  0  0  0  0  0  0  0  0
   -1.5040   20.2930  -33.4020 N   0  0  0  0  0  0  0  0  0  0  0  0
   -0.1980   19.9230  -32.9210 C   0  0  0  0  0  0  0  0  0  0  0  0
    0.8290   19.6250  -33.8400 C   0  0  0  0  0  0  0  0  0  0  0  0
    2.1250   19.3490  -33.3990 C   0  0  0  0  0  0  0  0  0  0  0  0
    2.4150   19.3840  -32.0370 C   0  0  0  0  0  0  0  0  0  0  0  0
    1.4050   19.6630  -31.1110 C   0  0  0  0  0  0  0  0  0  0  0  0
    0.0930   19.9220  -31.5410 C   0  0  0  0  0  0  0  0  0  0  0  0
   -0.9360   20.1440  -30.5580 N   0  0  0  0  0  0  0  0  0  0  0  0
   -3.7080   19.4080  -32.7680 C   0  0  0  0  0  0  0  0  0  0  0  0
   -3.8130   20.4530  -31.7850 N   0  0  0  0  0  0  0  0  0  0  0  0
   -4.3460   21.7750  -31.9650 C   0  0  0  0  0  0  0  0  0  0  0  0
   -3.6040   22.6620  -32.4670 O   0  0  0  0  0  0  0  0  0  0  0  0
   -5.7660   22.0940  -31.6910 C   0  0  0  0  0  0  0  0  0  0  0  0
   -6.7510   21.2350  -32.2070 C   0  0  0  0  0  0  0  0  0  0  0  0
   -8.1040   21.4890  -31.9840 C   0  0  0  0  0  0  0  0  0  0  0  0
   -8.4930   22.6040  -31.2440 C   0  0  0  0  0  0  0  0  0  0  0  0
   -7.5300   23.4690  -30.7260 C   0  0  0  0  0  0  0  0  0  0  0  0
   -6.1610   23.2300  -30.9380 C   0  0  0  0  0  0  0  0  0  0  0  0
   -4.9820   24.3140  -30.1740 S   0  0  0  0  0  0  0  0  0  0  0  0
   -4.4310   25.2660  -31.1980 O   0  0  0  0  0  0  0  0  0  0  0  0
   -5.6380   25.1310  -29.0950 O   0  0  0  0  0  0  0  0  0  0  0  0
   -3.6890   23.3630  -29.4340 C   0  0  0  0  0  0  0  0  0  0  0  0
   -3.8940   22.0120  -29.1270 C   0  0  0  0  0  0  0  0  0  0  0  0
   -2.8960   21.2750  -28.4860 C   0  0  0  0  0  0  0  0  0  0  0  0
   -1.6750   21.8690  -28.1560 C   0  0  0  0  0  0  0  0  0  0  0  0
   -0.7110   21.0890  -27.5060 O   0  0  0  0  0  0  0  0  0  0  0  0
   -0.9080   19.7360  -27.1080 C   0  0  0  0  0  0  0  0  0  0  0  0
   -1.4570   23.2200  -28.4850 C   0  0  0  0  0  0  0  0  0  0  0  0
   -2.4580   23.9630  -29.1200 C   0  0  0  0  0  0  0  0  0  0  0  0
   -2.2250   25.3000  -29.4250 O   0  0  0  0  0  0  0  0  0  0  0  0
   -4.7240   18.4530  -32.9410 C   0  0  0  0  0  0  0  0  0  0  0  0
   -6.8922   13.7910  -33.2380 H   0  0  0  0  0  0  0  0  0  0  0  0
   -7.3844   14.5558  -34.7871 H   0  0  0  0  0  0  0  0  0  0  0  0
   -6.1868   13.2170  -34.7871 H   0  0  0  0  0  0  0  0  0  0  0  0
   -4.4910   14.7090  -34.1190 H   0  0  0  0  0  0  0  0  0  0  0  0
   -3.3555   16.6259  -35.4864 H   0  0  0  0  0  0  0  0  0  0  0  0
   -1.5408   18.2992  -35.1735 H   0  0  0  0  0  0  0  0  0  0  0  0
   -1.7280   21.2920  -33.5770 H   0  0  0  0  0  0  0  0  0  0  0  0
    0.6067   19.6097  -34.9172 H   0  0  0  0  0  0  0  0  0  0  0  0
    2.9145   19.1047  -34.1250 H   0  0  0  0  0  0  0  0  0  0  0  0
    3.4407   19.1918  -31.6891 H   0  0  0  0  0  0  0  0  0  0  0  0
    1.6399   19.6798  -30.0365 H   0  0  0  0  0  0  0  0  0  0  0  0
   -0.6870   20.2930  -29.5560 H   0  0  0  0  0  0  0  0  0  0  0  0
   -1.9480   20.0680  -30.7970 H   0  0  0  0  0  0  0  0  0  0  0  0
   -6.4519   20.3533  -32.7928 H   0  0  0  0  0  0  0  0  0  0  0  0
   -8.8653   20.8083  -32.3928 H   0  0  0  0  0  0  0  0  0  0  0  0
   -9.5607   22.8018  -31.0684 H   0  0  0  0  0  0  0  0  0  0  0  0
   -7.8450   24.3483  -30.1449 H   0  0  0  0  0  0  0  0  0  0  0  0
   -4.8460   21.5290  -29.3922 H   0  0  0  0  0  0  0  0  0  0  0  0
   -3.0726   20.2178  -28.2387 H   0  0  0  0  0  0  0  0  0  0  0  0
   -0.9170   19.6745  -26.0098 H   0  0  0  0  0  0  0  0  0  0  0  0
   -1.8684   19.3736  -27.5034 H   0  0  0  0  0  0  0  0  0  0  0  0
   -0.0908   19.1148  -27.5034 H   0  0  0  0  0  0  0  0  0  0  0  0
   -0.4947   23.6941  -28.2416 H   0  0  0  0  0  0  0  0  0  0  0  0
   -5.6130   18.4834  -32.2938 H   0  0  0  0  0  0  0  0  0  0  0  0
  1  2  1  0
  2  3  1  0
  3  4  2  0
  3  5  1  0
  5  6  2  0
  6  7  1  0
  7  8  2  0
  8  9  1  0
  9 10  1  0
 10 11  2  0
 11 12  1  0
 12 13  2  0
 13 14  1  0
 14 15  2  0
 15 16  1  0
  8 17  1  0
 17 18  1  0
 18 19  1  0
 19 20  2  0
 19 21  1  0
 21 22  2  0
 22 23  1  0
 23 24  2  0
 24 25  1  0
 25 26  2  0
 26 27  1  0
 27 28  2  0
 27 29  2  0
 27 30  1  0
 30 31  2  0
 31 32  1  0
 32 33  2  0
 33 34  1  0
 34 35  1  0
 33 36  1  0
 36 37  2  0
 37 38  1  0
 17 39  2  0
 39  5  1  0
 15 10  1  0
 26 21  1  0
 37 30  1  0
  1 40  1  0
  1 41  1  0
  1 42  1  0
  2 43  1  0
  6 44  1  0
  7 45  1  0
  9 46  1  0
 11 47  1  0
 12 48  1  0
 13 49  1  0
 14 50  1  0
 16 51  1  0
 16 52  1  0
 22 53  1  0
 23 54  1  0
 24 55  1  0
 25 56  1  0
 31 57  1  0
 32 58  1  0
 35 59  1  0
 35 60  1  0
 35 61  1  0
 36 62  1  0
 39 63  1  0
M  CHG  2  18  -1  38  -1
M  END
>  <UniqueID>  (26) 
24

>  <SMILES>  (26) 
CNC(=O)c1ccc(Nc2ccccc2N)c([N-]C(=O)c2ccccc2S(=O)(=O)c2ccc(OC)cc2[O-])c1

>  <Energy>  (26) 
86.38105169211975

>  <Genealogy>  (26) 
CNC(=O)c1ccc(Nc2ccccc2N)c([N-]C(=O)c2ccccc2S(=O)(=O)c2ccc(OC)cc2[O-])c1 (protonated)
CNC(=O)c1ccc(Nc2ccccc2N)c([N-]C(=O)c2ccccc2S(=O)(=O)c2ccc(OC)cc2[O-])c1 (3D coordinates assigned)
CNC(=O)c1ccc(Nc2ccccc2N)c([N-]C(=O)c2ccccc2S(=O)(=O)c2ccc(OC)cc2[O-])c1 (optimized conformer: 86.38105169211975 kcal/mol)

>  <smiles>  (26) 
CNC(=O)c1ccc(Nc2ccccc2N)c(NC(=O)c2ccccc2S(=O)(=O)c2ccc(OC)cc2O)c1

>  <score_type>  (26) 
oracle

>  <origin>  (26) 
adgpu

>  <m_score__min__energy>  (26) 
-12.93

>  <m_primary>  (26) 
energy

$$$$
26:0
     RDKit          3D

 51 53  0  0  1  0  0  0  0  0999 V2000
   -1.2470   26.4320  -24.6400 C   0  0  0  0  0  0  0  0  0  0  0  0
   -1.0170   25.2170  -25.3980 N   0  0  0  0  0  0  0  0  0  0  0  0
   -0.9090   25.5840  -27.0860 S   0  0  0  0  0  0  0  0  0  0  0  0
   -1.2130   27.0160  -27.3490 O   0  0  0  0  0  0  0  0  0  0  0  0
    0.5010   25.2750  -27.5270 O   0  0  0  0  0  0  0  0  0  0  0  0
   -2.0180   24.5350  -27.9410 C   0  0  0  0  0  0  0  0  0  0  0  0
   -1.8270   24.3890  -29.3150 C   0  0  0  0  0  0  0  0  0  0  0  0
   -2.6830   23.5670  -30.0230 C   0  0  0  0  0  0  0  0  0  0  0  0
   -3.7320   22.8810  -29.3930 C   0  0  0  0  0  0  0  0  0  0  0  0
   -4.5400   22.0090  -30.1470 N   0  0  0  0  0  0  0  0  0  0  0  0
   -5.6210   22.3180  -30.7210 C   0  0  0  0  0  0  0  0  0  0  0  0
   -6.2750   21.3530  -31.4070 N   0  0  0  0  0  0  0  0  0  0  0  0
   -7.4330   21.5730  -32.0550 C   0  0  0  0  0  0  0  0  0  0  0  0
   -8.0760   20.6960  -32.7090 N   0  0  0  0  0  0  0  0  0  0  0  0
   -7.5500   19.3750  -32.7740 C   0  0  0  0  0  0  0  0  0  0  0  0
   -6.3110   19.2300  -33.3770 C   0  0  0  0  0  0  0  0  0  0  0  0
   -5.6960   17.9870  -33.4990 C   0  0  0  0  0  0  0  0  0  0  0  0
   -4.1420   17.8880  -34.2700 S   0  0  0  0  0  0  0  0  0  0  0  0
   -3.2560   16.8380  -33.6190 O   0  0  0  0  0  0  0  0  0  0  0  0
   -4.3760   17.5310  -35.7160 O   0  0  0  0  0  0  0  0  0  0  0  0
   -3.2540   19.3640  -34.1910 N   0  0  0  0  0  0  0  0  0  0  0  0
   -2.9290   19.6060  -32.7770 C   0  0  0  0  0  0  0  0  0  0  0  0
   -6.3670   16.8920  -32.9950 C   0  0  0  0  0  0  0  0  0  0  0  0
   -7.6020   17.0500  -32.3960 C   0  0  0  0  0  0  0  0  0  0  0  0
   -8.2230   18.2780  -32.2680 C   0  0  0  0  0  0  0  0  0  0  0  0
   -9.4630   18.4420  -31.6660 O   0  0  0  0  0  0  0  0  0  0  0  0
   -7.9550   22.8240  -32.0090 N   0  0  0  0  0  0  0  0  0  0  0  0
   -7.3300   23.8070  -31.3350 C   0  0  0  0  0  0  0  0  0  0  0  0
   -6.1460   23.5800  -30.6720 C   0  0  0  0  0  0  0  0  0  0  0  0
   -5.3130   24.9980  -29.7420 Br  0  0  0  0  0  0  0  0  0  0  0  0
   -3.9080   23.0410  -28.0100 C   0  0  0  0  0  0  0  0  0  0  0  0
   -3.0470   23.8710  -27.2800 C   0  0  0  0  0  0  0  0  0  0  0  0
   -1.2043   26.2066  -23.5642 H   0  0  0  0  0  0  0  0  0  0  0  0
   -0.4731   27.1725  -24.8905 H   0  0  0  0  0  0  0  0  0  0  0  0
   -2.2380   26.8384  -24.8905 H   0  0  0  0  0  0  0  0  0  0  0  0
   -0.1200   24.7530  -25.1290 H   0  0  0  0  0  0  0  0  0  0  0  0
   -1.0095   24.9188  -29.8259 H   0  0  0  0  0  0  0  0  0  0  0  0
   -2.5383   23.4477  -31.1069 H   0  0  0  0  0  0  0  0  0  0  0  0
   -5.8740   20.3830  -31.4460 H   0  0  0  0  0  0  0  0  0  0  0  0
   -5.7995   20.1210  -33.7699 H   0  0  0  0  0  0  0  0  0  0  0  0
   -3.8370   20.1510  -34.5470 H   0  0  0  0  0  0  0  0  0  0  0  0
   -3.6476   19.0709  -32.1388 H   0  0  0  0  0  0  0  0  0  0  0  0
   -1.9118   19.2437  -32.5674 H   0  0  0  0  0  0  0  0  0  0  0  0
   -2.9846   20.6844  -32.5674 H   0  0  0  0  0  0  0  0  0  0  0  0
   -5.9177   15.8908  -33.0702 H   0  0  0  0  0  0  0  0  0  0  0  0
   -8.1137   16.1588  -32.0036 H   0  0  0  0  0  0  0  0  0  0  0  0
   -9.7670   17.8800  -30.8710 H   0  0  0  0  0  0  0  0  0  0  0  0
   -8.8580   23.0310  -32.5030 H   0  0  0  0  0  0  0  0  0  0  0  0
   -7.7750   24.8128  -31.3137 H   0  0  0  0  0  0  0  0  0  0  0  0
   -4.7252   22.5127  -27.4970 H   0  0  0  0  0  0  0  0  0  0  0  0
   -3.1830   23.9965  -26.1957 H   0  0  0  0  0  0  0  0  0  0  0  0
  1  2  1  0
  2  3  1  0
  3  4  2  0
  3  5  2  0
  3  6  1  0
  6  7  2  0
  7  8  1  0
  8  9  2  0
  9 10  1  0
 10 11  2  0
 11 12  1  0
 12 13  1  0
 13 14  2  0
 14 15  1  0
 15 16  2  0
 16 17  1  0
 17 18  1  0
 18 19  2  0
 18 20  2  0
 18 21  1  0
 21 22  1  0
 17 23  2  0
 23 24  1  0
 24 25  2  0
 25 26  1  0
 13 27  1  0
 27 28  1  0
 28 29  2  0
 29 30  1  0
  9 31  1  0
 31 32  2  0
 32  6  1  0
 29 11  1  0
 25 15  1  0
  1 33  1  0
  1 34  1  0
  1 35  1  0
  2 36  1  0
  7 37  1  0
  8 38  1  0
 12 39  1  0
 16 40  1  0
 21 41  1  0
 22 42  1  0
 22 43  1  0
 22 44  1  0
 23 45  1  0
 24 46  1  0
 26 47  1  0
 27 48  1  0
 28 49  1  0
 31 50  1  0
 32 51  1  0
M  END
>  <smiles>  (27) 
CNS(=O)(=O)c1ccc(N=c2[nH]c(=Nc3cc(S(=O)(=O)NC)ccc3O)[nH]cc2Br)cc1

>  <score_type>  (27) 
oracle

>  <origin>  (27) 
adgpu

>  <m_score__min__energy>  (27) 
-9.7100000000000009

>  <m_primary>  (27) 
energy

$$$$
27:0
     RDKit          3D

 38 40  0  0  0  0  0  0  0  0999 V2000
   -8.6190   23.7950  -32.1340 O   0  0  0  0  0  0  0  0  0  0  0  0
   -7.8740   22.9850  -31.5200 C   0  0  0  0  0  0  0  0  0  0  0  0
   -7.0450   23.4410  -30.4420 N   0  0  0  0  0  0  0  0  0  0  0  0
   -5.7720   24.0860  -30.5700 C   0  0  0  0  0  0  0  0  0  0  0  0
   -4.5210   23.5140  -30.6710 C   0  0  0  0  0  0  0  0  0  0  0  0
   -3.6180   24.5020  -30.8240 N   0  0  0  0  0  0  0  0  0  0  0  0
   -4.2520   25.6670  -30.8300 N   0  0  0  0  0  0  0  0  0  0  0  0
   -5.5720   25.4400  -30.6830 C   0  0  0  0  0  0  0  0  0  0  0  0
   -7.8320   21.5620  -31.9340 C   0  0  0  0  0  0  0  0  0  0  0  0
   -8.9670   20.7430  -31.8010 C   0  0  0  0  0  0  0  0  0  0  0  0
   -8.9220   19.4020  -32.1900 C   0  0  0  0  0  0  0  0  0  0  0  0
   -7.7490   18.8600  -32.7180 C   0  0  0  0  0  0  0  0  0  0  0  0
   -7.7250   17.5510  -33.0760 F   0  0  0  0  0  0  0  0  0  0  0  0
   -6.6080   19.6630  -32.8660 C   0  0  0  0  0  0  0  0  0  0  0  0
   -5.1140   18.9760  -33.5070 S   0  0  0  0  0  0  0  0  0  0  0  0
   -4.7540   17.7570  -32.7040 O   0  0  0  0  0  0  0  0  0  0  0  0
   -5.3160   18.5590  -34.9390 O   0  0  0  0  0  0  0  0  0  0  0  0
   -3.8320   20.1550  -33.4020 N   0  0  0  0  0  0  0  0  0  0  0  0
   -3.5190   20.4390  -31.9910 C   0  0  0  0  0  0  0  0  0  0  0  0
   -2.3620   21.4580  -31.8830 C   0  0  0  0  0  0  0  0  0  0  0  0
   -1.7520   21.7220  -33.1340 O   0  0  0  0  0  0  0  0  0  0  0  0
   -1.3860   20.5050  -33.7530 C   0  0  0  0  0  0  0  0  0  0  0  0
   -2.6340   19.6760  -34.1210 C   0  0  0  0  0  0  0  0  0  0  0  0
   -6.6530   21.0090  -32.4690 C   0  0  0  0  0  0  0  0  0  0  0  0
   -4.2990   22.4373  -30.6332 H   0  0  0  0  0  0  0  0  0  0  0  0
   -6.3574   26.2098  -30.6577 H   0  0  0  0  0  0  0  0  0  0  0  0
   -9.8968   21.1610  -31.3878 H   0  0  0  0  0  0  0  0  0  0  0  0
   -9.8155   18.7700  -32.0796 H   0  0  0  0  0  0  0  0  0  0  0  0
   -4.1780   21.0340  -33.8560 H   0  0  0  0  0  0  0  0  0  0  0  0
   -4.4117   20.8527  -31.4992 H   0  0  0  0  0  0  0  0  0  0  0  0
   -3.2130   19.5029  -31.5011 H   0  0  0  0  0  0  0  0  0  0  0  0
   -2.7590   22.4007  -31.4784 H   0  0  0  0  0  0  0  0  0  0  0  0
   -1.5961   21.0248  -31.2229 H   0  0  0  0  0  0  0  0  0  0  0  0
   -0.8165   20.7238  -34.6683 H   0  0  0  0  0  0  0  0  0  0  0  0
   -0.7735   19.9232  -33.0485 H   0  0  0  0  0  0  0  0  0  0  0  0
   -2.8106   19.7568  -35.2037 H   0  0  0  0  0  0  0  0  0  0  0  0
   -2.4521   18.6305  -33.8315 H   0  0  0  0  0  0  0  0  0  0  0  0
   -5.7573   21.6383  -32.5772 H   0  0  0  0  0  0  0  0  0  0  0  0
  1  2  2  0
  2  3  1  0
  3  4  1  0
  4  5  1  0
  5  6  2  0
  6  7  1  0
  7  8  1  0
  2  9  1  0
  9 10  2  0
 10 11  1  0
 11 12  2  0
 12 13  1  0
 12 14  1  0
 14 15  1  0
 15 16  2  0
 15 17  2  0
 15 18  1  0
 18 19  1  0
 19 20  1  0
 20 21  1  0
 21 22  1  0
 22 23  1  0
 14 24  2  0
  8  4  2  0
 24  9  1  0
 23 18  1  0
  5 25  1  0
  8 26  1  0
 10 27  1  0
 11 28  1  0
 18 29  1  0
 19 30  1  0
 19 31  1  0
 20 32  1  0
 20 33  1  0
 22 34  1  0
 22 35  1  0
 23 36  1  0
 23 37  1  0
 24 38  1  0
M  CHG  3   3  -1   7  -1  18   1
M  END
>  <UniqueID>  (28) 
25

>  <SMILES>  (28) 
O=C([N-]c1cn[n-]c1)c1ccc(F)c(S(=O)(=O)[NH+]2CCOCC2)c1

>  <Energy>  (28) 
80.20030754173331

>  <Genealogy>  (28) 
O=C([N-]c1cn[n-]c1)c1ccc(F)c(S(=O)(=O)[NH+]2CCOCC2)c1 (protonated)
O=C([N-]c1cn[n-]c1)c1ccc(F)c(S(=O)(=O)[NH+]2CCOCC2)c1 (3D coordinates assigned)
O=C([N-]c1cn[n-]c1)c1ccc(F)c(S(=O)(=O)[NH+]2CCOCC2)c1 (nonaromatic ring conformer: 80.20030754173331 kcal/mol)

>  <smiles>  (28) 
O=C(Nc1cn[nH]c1)c1ccc(F)c(S(=O)(=O)N2CCOCC2)c1

>  <score_type>  (28) 
oracle

>  <origin>  (28) 
adgpu

>  <m_score__min__energy>  (28) 
-9.7400000000000002

>  <m_primary>  (28) 
energy

$$$$
28:0
     RDKit          3D

 58 61  0  0  0  0  0  0  0  0999 V2000
    1.3200   15.8700  -27.0950 C   0  0  0  0  0  0  0  0  0  0  0  0
    1.5190   17.1370  -27.7370 O   0  0  0  0  0  0  0  0  0  0  0  0
    0.6770   18.2480  -27.5830 C   0  0  0  0  0  0  0  0  0  0  0  0
    1.1730   19.5140  -27.9270 C   0  0  0  0  0  0  0  0  0  0  0  0
    0.3600   20.6440  -27.8330 C   0  0  0  0  0  0  0  0  0  0  0  0
   -0.9680   20.5280  -27.3920 C   0  0  0  0  0  0  0  0  0  0  0  0
   -1.8600   21.6560  -27.4560 N   0  0  0  0  0  0  0  0  0  0  0  0
   -1.3550   22.9930  -27.7540 C   0  0  0  0  0  0  0  0  0  0  0  0
   -2.0470   23.4850  -29.0120 C   0  0  0  0  0  0  0  0  0  0  0  0
   -3.4940   23.6340  -28.7810 N   0  0  0  0  0  0  0  0  0  0  0  0
   -4.3650   23.9300  -30.2730 S   0  0  0  0  0  0  0  0  0  0  0  0
   -5.8430   24.0090  -30.0150 O   0  0  0  0  0  0  0  0  0  0  0  0
   -3.9120   25.2650  -30.7900 O   0  0  0  0  0  0  0  0  0  0  0  0
   -4.0620   22.6640  -31.4820 C   0  0  0  0  0  0  0  0  0  0  0  0
   -2.7330   22.2900  -31.7370 C   0  0  0  0  0  0  0  0  0  0  0  0
   -2.4170   21.4010  -32.7780 C   0  0  0  0  0  0  0  0  0  0  0  0
   -1.0460   21.0600  -33.0540 N   0  0  0  0  0  0  0  0  0  0  0  0
   -0.4450   21.5770  -34.0200 O   0  0  0  0  0  0  0  0  0  0  0  0
   -0.3640   20.1810  -32.2400 O   0  0  0  0  0  0  0  0  0  0  0  0
   -3.4630   20.8650  -33.5570 C   0  0  0  0  0  0  0  0  0  0  0  0
   -4.7910   21.1760  -33.2670 C   0  0  0  0  0  0  0  0  0  0  0  0
   -5.1050   22.0620  -32.2260 C   0  0  0  0  0  0  0  0  0  0  0  0
   -6.4850   22.2440  -31.8700 N   0  0  0  0  0  0  0  0  0  0  0  0
   -7.1560   21.1080  -31.2170 C   0  0  0  0  0  0  0  0  0  0  0  0
   -8.6290   21.4050  -30.8970 C   0  0  0  0  0  0  0  0  0  0  0  0
   -9.2320   22.1290  -31.9470 O   0  0  0  0  0  0  0  0  0  0  0  0
   -8.6730   23.4250  -31.9830 C   0  0  0  0  0  0  0  0  0  0  0  0
   -7.2170   23.3700  -32.4620 C   0  0  0  0  0  0  0  0  0  0  0  0
   -4.1350   22.6490  -27.8730 C   0  0  0  0  0  0  0  0  0  0  0  0
   -3.2970   21.3870  -27.5590 C   0  0  0  0  0  0  0  0  0  0  0  0
   -1.4540   19.2690  -27.0220 C   0  0  0  0  0  0  0  0  0  0  0  0
   -0.6370   18.1350  -27.1060 C   0  0  0  0  0  0  0  0  0  0  0  0
    1.3412   16.0047  -26.0035 H   0  0  0  0  0  0  0  0  0  0  0  0
    0.3458   15.4561  -27.3946 H   0  0  0  0  0  0  0  0  0  0  0  0
    2.1204   15.1774  -27.3946 H   0  0  0  0  0  0  0  0  0  0  0  0
    2.2118   19.6169  -28.2739 H   0  0  0  0  0  0  0  0  0  0  0  0
    0.7616   21.6311  -28.1058 H   0  0  0  0  0  0  0  0  0  0  0  0
   -1.5762   23.6710  -26.9165 H   0  0  0  0  0  0  0  0  0  0  0  0
   -0.2654   22.9661  -27.9024 H   0  0  0  0  0  0  0  0  0  0  0  0
   -1.6244   24.4588  -29.3002 H   0  0  0  0  0  0  0  0  0  0  0  0
   -1.8891   22.7501  -29.8151 H   0  0  0  0  0  0  0  0  0  0  0  0
   -1.9261   22.6996  -31.1116 H   0  0  0  0  0  0  0  0  0  0  0  0
   -3.2298   20.1970  -34.3992 H   0  0  0  0  0  0  0  0  0  0  0  0
   -5.5992   20.7226  -33.8597 H   0  0  0  0  0  0  0  0  0  0  0  0
   -7.1084   20.2367  -31.8868 H   0  0  0  0  0  0  0  0  0  0  0  0
   -6.6382   20.9132  -30.2662 H   0  0  0  0  0  0  0  0  0  0  0  0
   -9.1667   20.4555  -30.7579 H   0  0  0  0  0  0  0  0  0  0  0  0
   -8.6763   22.0089  -29.9788 H   0  0  0  0  0  0  0  0  0  0  0  0
   -9.2573   24.0520  -32.6725 H   0  0  0  0  0  0  0  0  0  0  0  0
   -8.6976   23.8509  -30.9691 H   0  0  0  0  0  0  0  0  0  0  0  0
   -7.2072   23.2635  -33.5568 H   0  0  0  0  0  0  0  0  0  0  0  0
   -6.7209   24.3002  -32.1479 H   0  0  0  0  0  0  0  0  0  0  0  0
   -4.3521   23.1567  -26.9216 H   0  0  0  0  0  0  0  0  0  0  0  0
   -5.0317   22.2918  -28.4005 H   0  0  0  0  0  0  0  0  0  0  0  0
   -3.6430   20.9671  -26.6030 H   0  0  0  0  0  0  0  0  0  0  0  0
   -3.4381   20.6860  -28.3949 H   0  0  0  0  0  0  0  0  0  0  0  0
   -2.4884   19.1692  -26.6615 H   0  0  0  0  0  0  0  0  0  0  0  0
   -1.0265   17.1537  -26.7973 H   0  0  0  0  0  0  0  0  0  0  0  0
  1  2  1  0
  2  3  1  0
  3  4  2  0
  4  5  1  0
  5  6  2  0
  6  7  1  0
  7  8  1  0
  8  9  1  0
  9 10  1  0
 10 11  1  0
 11 12  2  0
 11 13  2  0
 11 14  1  0
 14 15  2  0
 15 16  1  0
 16 17  1  0
 17 18  2  0
 17 19  1  0
 16 20  2  0
 20 21  1  0
 21 22  2  0
 22 23  1  0
 23 24  1  0
 24 25  1  0
 25 26  1  0
 26 27  1  0
 27 28  1  0
 10 29  1  0
 29 30  1  0
  6 31  1  0
 31 32  2  0
 32  3  1  0
 30  7  1  0
 22 14  1  0
 28 23  1  0
  1 33  1  0
  1 34  1  0
  1 35  1  0
  4 36  1  0
  5 37  1  0
  8 38  1  0
  8 39  1  0
  9 40  1  0
  9 41  1  0
 15 42  1  0
 20 43  1  0
 21 44  1  0
 24 45  1  0
 24 46  1  0
 25 47  1  0
 25 48  1  0
 27 49  1  0
 27 50  1  0
 28 51  1  0
 28 52  1  0
 29 53  1  0
 29 54  1  0
 30 55  1  0
 30 56  1  0
 31 57  1  0
 32 58  1  0
M  CHG  2  17   1  19  -1
M  END
>  <UniqueID>  (29) 
26

>  <SMILES>  (29) 
COc1ccc(N2CCN(S(=O)(=O)c3cc([N+](=O)[O-])ccc3N3CCOCC3)CC2)cc1

>  <Energy>  (29) 
86.01864712676195

>  <Genealogy>  (29) 
COc1ccc(N2CCN(S(=O)(=O)c3cc([N+](=O)[O-])ccc3N3CCOCC3)CC2)cc1 (3D coordinates assigned)
COc1ccc(N2CCN(S(=O)(=O)c3cc([N+](=O)[O-])ccc3N3CCOCC3)CC2)cc1 (nonaromatic ring conformer: 86.01864712676195 kcal/mol)

>  <smiles>  (29) 
COc1ccc(N2CCN(S(=O)(=O)c3cc([N+](=O)[O-])ccc3N3CCOCC3)CC2)cc1

>  <score_type>  (29) 
oracle

>  <origin>  (29) 
adgpu

>  <m_score__min__energy>  (29) 
-9.3499999999999996

>  <m_primary>  (29) 
energy

$$$$
29:0
     RDKit          3D

 65 69  0  0  0  0  0  0  0  0999 V2000
   -3.9450   25.3450  -30.5180 O   0  0  0  0  0  0  0  0  0  0  0  0
   -5.2070   24.9720  -29.7930 S   0  0  0  0  0  0  0  0  0  0  0  0
   -6.0750   26.1950  -29.6880 O   0  0  0  0  0  0  0  0  0  0  0  0
   -4.8430   24.3940  -28.1990 N   0  0  0  0  0  0  0  0  0  0  0  0
   -3.4950   24.3860  -27.7140 C   0  0  0  0  0  0  0  0  0  0  0  0
   -3.1270   25.2470  -26.6690 C   0  0  0  0  0  0  0  0  0  0  0  0
   -1.8190   25.2340  -26.1650 C   0  0  0  0  0  0  0  0  0  0  0  0
   -0.8690   24.3640  -26.7130 C   0  0  0  0  0  0  0  0  0  0  0  0
   -1.2280   23.5050  -27.7590 C   0  0  0  0  0  0  0  0  0  0  0  0
   -2.5380   23.5040  -28.2630 C   0  0  0  0  0  0  0  0  0  0  0  0
   -2.8650   22.6620  -29.3810 N   0  0  0  0  0  0  0  0  0  0  0  0
   -3.4730   21.3500  -29.2430 C   0  0  0  0  0  0  0  0  0  0  0  0
   -3.5270   20.7780  -30.6540 C   0  0  0  0  0  0  0  0  0  0  0  0
   -2.5110   21.5840  -31.4600 C   0  0  0  0  0  0  0  0  0  0  0  0
   -2.3640   22.9070  -30.7230 C   0  0  0  0  0  0  0  0  0  0  0  0
    0.5370   24.4090  -26.1820 C   0  0  0  0  0  0  0  0  0  0  0  0
    0.5210   24.4640  -24.6450 C   0  0  0  0  0  0  0  0  0  0  0  0
   -0.4760   25.4970  -24.0540 C   0  0  0  0  0  0  0  0  0  0  0  0
   -1.3860   26.1910  -25.0880 C   0  0  0  0  0  0  0  0  0  0  0  0
   -6.0630   23.7070  -30.6670 C   0  0  0  0  0  0  0  0  0  0  0  0
   -5.7950   23.4950  -32.0250 C   0  0  0  0  0  0  0  0  0  0  0  0
   -6.3550   22.4030  -32.6910 C   0  0  0  0  0  0  0  0  0  0  0  0
   -7.1950   21.5160  -32.0070 C   0  0  0  0  0  0  0  0  0  0  0  0
   -7.7860   20.0760  -32.8310 S   0  0  0  0  0  0  0  0  0  0  0  0
   -9.2880   20.1050  -32.9030 O   0  0  0  0  0  0  0  0  0  0  0  0
   -7.2320   20.0640  -34.2290 O   0  0  0  0  0  0  0  0  0  0  0  0
   -7.2390   18.6630  -31.9510 N   0  0  0  0  0  0  0  0  0  0  0  0
   -7.5940   17.4060  -32.6470 C   0  0  0  0  0  0  0  0  0  0  0  0
   -6.4080   16.8000  -33.4200 C   0  0  0  0  0  0  0  0  0  0  0  0
   -5.5810   17.8250  -33.9210 O   0  0  0  0  0  0  0  0  0  0  0  0
   -4.9040   18.4690  -32.8570 C   0  0  0  0  0  0  0  0  0  0  0  0
   -5.8050   18.7470  -31.6280 C   0  0  0  0  0  0  0  0  0  0  0  0
   -7.4880   21.7410  -30.6550 C   0  0  0  0  0  0  0  0  0  0  0  0
   -6.9250   22.8330  -29.9870 C   0  0  0  0  0  0  0  0  0  0  0  0
   -5.5540   23.7890  -27.7290 H   0  0  0  0  0  0  0  0  0  0  0  0
   -3.8700   25.9369  -26.2423 H   0  0  0  0  0  0  0  0  0  0  0  0
   -0.4774   22.8256  -28.1891 H   0  0  0  0  0  0  0  0  0  0  0  0
   -2.8612   20.7091  -28.5912 H   0  0  0  0  0  0  0  0  0  0  0  0
   -4.4723   21.4084  -28.7870 H   0  0  0  0  0  0  0  0  0  0  0  0
   -3.2543   19.7124  -30.6475 H   0  0  0  0  0  0  0  0  0  0  0  0
   -4.5370   20.8477  -31.0843 H   0  0  0  0  0  0  0  0  0  0  0  0
   -1.5464   21.0568  -31.4994 H   0  0  0  0  0  0  0  0  0  0  0  0
   -2.8391   21.7306  -32.4996 H   0  0  0  0  0  0  0  0  0  0  0  0
   -1.3079   23.2129  -30.6891 H   0  0  0  0  0  0  0  0  0  0  0  0
   -2.9163   23.7162  -31.2232 H   0  0  0  0  0  0  0  0  0  0  0  0
    1.0779   23.5084  -26.5080 H   0  0  0  0  0  0  0  0  0  0  0  0
    1.0389   25.3081  -26.5688 H   0  0  0  0  0  0  0  0  0  0  0  0
    0.2490   23.4673  -24.2672 H   0  0  0  0  0  0  0  0  0  0  0  0
    1.5264   24.7802  -24.3302 H   0  0  0  0  0  0  0  0  0  0  0  0
   -1.1188   24.9750  -23.3299 H   0  0  0  0  0  0  0  0  0  0  0  0
    0.1365   26.2911  -23.6020 H   0  0  0  0  0  0  0  0  0  0  0  0
   -2.2778   26.5812  -24.5757 H   0  0  0  0  0  0  0  0  0  0  0  0
   -0.8181   27.0078  -25.5573 H   0  0  0  0  0  0  0  0  0  0  0  0
   -5.1406   24.1917  -32.5694 H   0  0  0  0  0  0  0  0  0  0  0  0
   -6.1355   22.2391  -33.7564 H   0  0  0  0  0  0  0  0  0  0  0  0
   -7.9378   16.6751  -31.9002 H   0  0  0  0  0  0  0  0  0  0  0  0
   -8.3817   17.6416  -33.3778 H   0  0  0  0  0  0  0  0  0  0  0  0
   -5.8232   16.1585  -32.7443 H   0  0  0  0  0  0  0  0  0  0  0  0
   -6.7933   16.2052  -34.2613 H   0  0  0  0  0  0  0  0  0  0  0  0
   -4.0684   17.8287  -32.5381 H   0  0  0  0  0  0  0  0  0  0  0  0
   -4.5627   19.4442  -33.2345 H   0  0  0  0  0  0  0  0  0  0  0  0
   -5.5751   18.0071  -30.8472 H   0  0  0  0  0  0  0  0  0  0  0  0
   -5.5983   19.7720  -31.2864 H   0  0  0  0  0  0  0  0  0  0  0  0
   -8.1621   21.0573  -30.1183 H   0  0  0  0  0  0  0  0  0  0  0  0
   -7.1583   23.0072  -28.9262 H   0  0  0  0  0  0  0  0  0  0  0  0
  1  2  2  0
  2  3  2  0
  2  4  1  0
  4  5  1  0
  5  6  2  0
  6  7  1  0
  7  8  2  0
  8  9  1  0
  9 10  2  0
 10 11  1  0
 11 12  1  0
 12 13  1  0
 13 14  1  0
 14 15  1  0
  8 16  1  0
 16 17  1  0
 17 18  1  0
 18 19  1  0
  2 20  1  0
 20 21  2  0
 21 22  1  0
 22 23  2  0
 23 24  1  0
 24 25  2  0
 24 26  2  0
 24 27  1  0
 27 28  1  0
 28 29  1  0
 29 30  1  0
 30 31  1  0
 31 32  1  0
 23 33  1  0
 33 34  2  0
 10  5  1  0
 15 11  1  0
 34 20  1  0
 19  7  1  0
 32 27  1  0
  4 35  1  0
  6 36  1  0
  9 37  1  0
 12 38  1  0
 12 39  1  0
 13 40  1  0
 13 41  1  0
 14 42  1  0
 14 43  1  0
 15 44  1  0
 15 45  1  0
 16 46  1  0
 16 47  1  0
 17 48  1  0
 17 49  1  0
 18 50  1  0
 18 51  1  0
 19 52  1  0
 19 53  1  0
 21 54  1  0
 22 55  1  0
 28 56  1  0
 28 57  1  0
 29 58  1  0
 29 59  1  0
 31 60  1  0
 31 61  1  0
 32 62  1  0
 32 63  1  0
 33 64  1  0
 34 65  1  0
M  END
>  <UniqueID>  (30) 
27

>  <SMILES>  (30) 
O=S(=O)(Nc1cc2c(cc1N1CCCC1)CCCC2)c1ccc(S(=O)(=O)N2CCOCC2)cc1

>  <Energy>  (30) 
89.8584154363366

>  <Genealogy>  (30) 
O=S(=O)(Nc1cc2c(cc1N1CCCC1)CCCC2)c1ccc(S(=O)(=O)N2CCOCC2)cc1 (3D coordinates assigned)
O=S(=O)(Nc1cc2c(cc1N1CCCC1)CCCC2)c1ccc(S(=O)(=O)N2CCOCC2)cc1 (nonaromatic ring conformer: 89.8584154363366 kcal/mol)

>  <smiles>  (30) 
O=S(=O)(Nc1cc2c(cc1N1CCCC1)CCCC2)c1ccc(S(=O)(=O)N2CCOCC2)cc1

>  <score_type>  (30) 
oracle

>  <origin>  (30) 
adgpu

>  <m_score__min__energy>  (30) 
-11.33

>  <m_primary>  (30) 
energy

$$$$
30:0
     RDKit          3D

 54 57  0  0  0  0  0  0  0  0999 V2000
   -5.8210   24.7620  -29.0600 O   0  0  0  0  0  0  0  0  0  0  0  0
   -5.2010   24.6760  -30.4270 S   0  0  0  0  0  0  0  0  0  0  0  0
   -5.8200   25.7310  -31.3000 O   0  0  0  0  0  0  0  0  0  0  0  0
   -3.4910   24.9390  -30.3290 N   0  0  0  0  0  0  0  0  0  0  0  0
   -2.7150   24.4670  -29.2230 C   0  0  0  0  0  0  0  0  0  0  0  0
   -3.0550   23.2450  -28.6250 C   0  0  0  0  0  0  0  0  0  0  0  0
   -2.3650   22.7980  -27.4940 C   0  0  0  0  0  0  0  0  0  0  0  0
   -1.3200   23.5610  -26.9650 C   0  0  0  0  0  0  0  0  0  0  0  0
   -0.9540   24.7650  -27.5730 C   0  0  0  0  0  0  0  0  0  0  0  0
   -1.6390   25.2160  -28.7070 C   0  0  0  0  0  0  0  0  0  0  0  0
   -1.2300   26.3910  -29.3250 O   0  0  0  0  0  0  0  0  0  0  0  0
   -5.4810   23.0860  -31.1370 C   0  0  0  0  0  0  0  0  0  0  0  0
   -4.4500   22.1350  -31.1440 C   0  0  0  0  0  0  0  0  0  0  0  0
   -4.5980   20.9320  -31.8470 C   0  0  0  0  0  0  0  0  0  0  0  0
   -3.5100   19.9980  -31.8980 N   0  0  0  0  0  0  0  0  0  0  0  0
   -2.2770   20.2630  -32.5870 C   0  0  0  0  0  0  0  0  0  0  0  0
   -2.2220   21.2850  -33.5460 C   0  0  0  0  0  0  0  0  0  0  0  0
   -1.0270   21.5590  -34.2170 C   0  0  0  0  0  0  0  0  0  0  0  0
    0.1210   20.7990  -33.9560 C   0  0  0  0  0  0  0  0  0  0  0  0
    1.6370   21.1830  -34.7670 S   0  0  0  0  0  0  0  0  0  0  0  0
    1.7390   22.6690  -34.9680 O   0  0  0  0  0  0  0  0  0  0  0  0
    2.7730   20.7500  -33.8830 O   0  0  0  0  0  0  0  0  0  0  0  0
    1.7530   20.3430  -36.3020 N   0  0  0  0  0  0  0  0  0  0  0  0
    2.9380   19.4690  -36.3680 C   0  0  0  0  0  0  0  0  0  0  0  0
    2.7750   18.1930  -35.5070 C   0  0  0  0  0  0  0  0  0  0  0  0
    1.4280   17.9040  -35.1730 O   0  0  0  0  0  0  0  0  0  0  0  0
    0.5920   18.1130  -36.2890 C   0  0  0  0  0  0  0  0  0  0  0  0
    0.5060   19.6150  -36.6220 C   0  0  0  0  0  0  0  0  0  0  0  0
    0.0630   19.7560  -33.0210 C   0  0  0  0  0  0  0  0  0  0  0  0
   -1.1290   19.4860  -32.3450 C   0  0  0  0  0  0  0  0  0  0  0  0
   -5.8150   20.6550  -32.4920 C   0  0  0  0  0  0  0  0  0  0  0  0
   -6.8530   21.5900  -32.4680 C   0  0  0  0  0  0  0  0  0  0  0  0
   -6.6850   22.8090  -31.8080 C   0  0  0  0  0  0  0  0  0  0  0  0
   -7.6850   23.7250  -31.8490 F   0  0  0  0  0  0  0  0  0  0  0  0
   -3.8677   22.6357  -29.0473 H   0  0  0  0  0  0  0  0  0  0  0  0
   -2.6446   21.8454  -27.0203 H   0  0  0  0  0  0  0  0  0  0  0  0
   -0.7850   23.2133  -26.0690 H   0  0  0  0  0  0  0  0  0  0  0  0
   -0.1259   25.3593  -27.1594 H   0  0  0  0  0  0  0  0  0  0  0  0
   -3.5188   22.3350  -30.5937 H   0  0  0  0  0  0  0  0  0  0  0  0
   -3.6080   19.0950  -31.3820 H   0  0  0  0  0  0  0  0  0  0  0  0
   -3.1236   21.8736  -33.7711 H   0  0  0  0  0  0  0  0  0  0  0  0
   -0.9875   22.3751  -34.9535 H   0  0  0  0  0  0  0  0  0  0  0  0
    3.1003   19.1714  -37.4145 H   0  0  0  0  0  0  0  0  0  0  0  0
    3.7955   20.0340  -35.9737 H   0  0  0  0  0  0  0  0  0  0  0  0
    3.1853   17.3401  -36.0675 H   0  0  0  0  0  0  0  0  0  0  0  0
    3.3116   18.3691  -34.5630 H   0  0  0  0  0  0  0  0  0  0  0  0
    1.0018   17.5726  -37.1551 H   0  0  0  0  0  0  0  0  0  0  0  0
   -0.4163   17.7413  -36.0541 H   0  0  0  0  0  0  0  0  0  0  0  0
    0.2997   19.7259  -37.6968 H   0  0  0  0  0  0  0  0  0  0  0  0
   -0.2976   20.0462  -36.0069 H   0  0  0  0  0  0  0  0  0  0  0  0
    0.9580   19.1491  -32.8194 H   0  0  0  0  0  0  0  0  0  0  0  0
   -1.1707   18.6608  -31.6189 H   0  0  0  0  0  0  0  0  0  0  0  0
   -5.9512   19.6985  -33.0179 H   0  0  0  0  0  0  0  0  0  0  0  0
   -7.8053   21.3651  -32.9705 H   0  0  0  0  0  0  0  0  0  0  0  0
  1  2  2  0
  2  3  2  0
  2  4  1  0
  4  5  1  0
  5  6  2  0
  6  7  1  0
  7  8  2  0
  8  9  1  0
  9 10  2  0
 10 11  1  0
  2 12  1  0
 12 13  2  0
 13 14  1  0
 14 15  1  0
 15 16  1  0
 16 17  2  0
 17 18  1  0
 18 19  2  0
 19 20  1  0
 20 21  2  0
 20 22  2  0
 20 23  1  0
 23 24  1  0
 24 25  1  0
 25 26  1  0
 26 27  1  0
 27 28  1  0
 19 29  1  0
 29 30  2  0
 14 31  2  0
 31 32  1  0
 32 33  2  0
 33 34  1  0
 10  5  1  0
 33 12  1  0
 30 16  1  0
 28 23  1  0
  6 35  1  0
  7 36  1  0
  8 37  1  0
  9 38  1  0
 13 39  1  0
 15 40  1  0
 17 41  1  0
 18 42  1  0
 24 43  1  0
 24 44  1  0
 25 45  1  0
 25 46  1  0
 27 47  1  0
 27 48  1  0
 28 49  1  0
 28 50  1  0
 29 51  1  0
 30 52  1  0
 31 53  1  0
 32 54  1  0
M  CHG  2   4  -1  11  -1
M  END
>  <UniqueID>  (31) 
28

>  <SMILES>  (31) 
O=S(=O)([N-]c1ccccc1[O-])c1cc(Nc2ccc(S(=O)(=O)N3CCOCC3)cc2)ccc1F

>  <Energy>  (31) 
82.5323227446016

>  <Genealogy>  (31) 
O=S(=O)([N-]c1ccccc1[O-])c1cc(Nc2ccc(S(=O)(=O)N3CCOCC3)cc2)ccc1F (protonated)
O=S(=O)([N-]c1ccccc1[O-])c1cc(Nc2ccc(S(=O)(=O)N3CCOCC3)cc2)ccc1F (3D coordinates assigned)
O=S(=O)([N-]c1ccccc1[O-])c1cc(Nc2ccc(S(=O)(=O)N3CCOCC3)cc2)ccc1F (nonaromatic ring conformer: 82.5323227446016 kcal/mol)

>  <smiles>  (31) 
O=S(=O)(Nc1ccccc1O)c1cc(Nc2ccc(S(=O)(=O)N3CCOCC3)cc2)ccc1F

>  <score_type>  (31) 
oracle

>  <origin>  (31) 
adgpu

>  <m_score__min__energy>  (31) 
-13.960000000000001

>  <m_primary>  (31) 
energy

$$$$
31:0
     RDKit          3D

 58 62  0  0  0  0  0  0  0  0999 V2000
   -5.3650   26.2050  -30.5430 O   0  0  0  0  0  0  0  0  0  0  0  0
   -4.9050   25.0300  -30.5740 C   0  0  0  0  0  0  0  0  0  0  0  0
   -3.4940   24.8100  -30.4580 N   0  0  0  0  0  0  0  0  0  0  0  0
   -2.8710   24.1500  -29.3470 C   0  0  0  0  0  0  0  0  0  0  0  0
   -2.5080   24.9220  -28.2370 C   0  0  0  0  0  0  0  0  0  0  0  0
   -1.9570   24.3220  -27.1000 C   0  0  0  0  0  0  0  0  0  0  0  0
   -1.5610   25.3070  -25.6940 S   0  0  0  0  0  0  0  0  0  0  0  0
   -2.7990   26.0460  -25.2670 O   0  0  0  0  0  0  0  0  0  0  0  0
   -1.1290   24.4120  -24.5640 O   0  0  0  0  0  0  0  0  0  0  0  0
   -0.2870   26.4420  -26.1060 N   0  0  0  0  0  0  0  0  0  0  0  0
   -0.8260   27.7900  -26.3330 C   0  0  0  0  0  0  0  0  0  0  0  0
   -0.7710   28.5360  -25.0020 C   0  0  0  0  0  0  0  0  0  0  0  0
    0.1920   27.7460  -24.1280 C   0  0  0  0  0  0  0  0  0  0  0  0
    0.6710   26.5870  -24.9980 C   0  0  0  0  0  0  0  0  0  0  0  0
   -1.7390   22.9390  -27.0850 C   0  0  0  0  0  0  0  0  0  0  0  0
   -2.0550   22.1660  -28.2040 C   0  0  0  0  0  0  0  0  0  0  0  0
   -2.6120   22.7580  -29.3480 C   0  0  0  0  0  0  0  0  0  0  0  0
   -2.8420   21.9540  -30.5180 N   0  0  0  0  0  0  0  0  0  0  0  0
   -2.3320   22.2880  -31.8380 C   0  0  0  0  0  0  0  0  0  0  0  0
   -3.0270   21.3290  -32.7990 C   0  0  0  0  0  0  0  0  0  0  0  0
   -3.5950   20.2140  -31.9260 C   0  0  0  0  0  0  0  0  0  0  0  0
   -3.7620   20.8300  -30.5450 C   0  0  0  0  0  0  0  0  0  0  0  0
   -5.8140   23.8760  -30.7310 C   0  0  0  0  0  0  0  0  0  0  0  0
   -5.7070   23.0110  -31.8340 C   0  0  0  0  0  0  0  0  0  0  0  0
   -6.6270   21.9660  -31.9850 C   0  0  0  0  0  0  0  0  0  0  0  0
   -6.5630   21.1000  -33.0890 C   0  0  0  0  0  0  0  0  0  0  0  0
   -7.4980   20.0680  -33.2290 C   0  0  0  0  0  0  0  0  0  0  0  0
   -8.5030   19.8970  -32.2760 C   0  0  0  0  0  0  0  0  0  0  0  0
   -8.5840   20.7540  -31.1740 C   0  0  0  0  0  0  0  0  0  0  0  0
   -7.6510   21.7930  -31.0230 C   0  0  0  0  0  0  0  0  0  0  0  0
   -7.7180   22.6730  -29.9360 C   0  0  0  0  0  0  0  0  0  0  0  0
   -6.8100   23.6830  -29.8210 N   0  0  0  0  0  0  0  0  0  0  0  0
   -2.6576   26.0115  -28.2592 H   0  0  0  0  0  0  0  0  0  0  0  0
    0.2060   26.0980  -26.9680 H   0  0  0  0  0  0  0  0  0  0  0  0
   -0.2182   28.3161  -27.0839 H   0  0  0  0  0  0  0  0  0  0  0  0
   -1.8599   27.7365  -26.7049 H   0  0  0  0  0  0  0  0  0  0  0  0
   -0.4007   29.5610  -25.1516 H   0  0  0  0  0  0  0  0  0  0  0  0
   -1.7660   28.6170  -24.5401 H   0  0  0  0  0  0  0  0  0  0  0  0
    1.0412   28.3758  -23.8243 H   0  0  0  0  0  0  0  0  0  0  0  0
   -0.2897   27.3925  -23.2045 H   0  0  0  0  0  0  0  0  0  0  0  0
    1.6739   26.8040  -25.3943 H   0  0  0  0  0  0  0  0  0  0  0  0
    0.7283   25.6587  -24.4106 H   0  0  0  0  0  0  0  0  0  0  0  0
   -1.3175   22.4600  -26.1889 H   0  0  0  0  0  0  0  0  0  0  0  0
   -1.8655   21.0825  -28.1887 H   0  0  0  0  0  0  0  0  0  0  0  0
   -2.5758   23.3302  -32.0918 H   0  0  0  0  0  0  0  0  0  0  0  0
   -1.2372   22.1933  -31.8881 H   0  0  0  0  0  0  0  0  0  0  0  0
   -3.8356   21.8444  -33.3381 H   0  0  0  0  0  0  0  0  0  0  0  0
   -2.3328   20.9386  -33.5577 H   0  0  0  0  0  0  0  0  0  0  0  0
   -4.5660   19.8756  -32.3168 H   0  0  0  0  0  0  0  0  0  0  0  0
   -2.9357   19.3337  -31.9051 H   0  0  0  0  0  0  0  0  0  0  0  0
   -4.7964   21.1741  -30.3982 H   0  0  0  0  0  0  0  0  0  0  0  0
   -3.5526   20.1067  -29.7431 H   0  0  0  0  0  0  0  0  0  0  0  0
   -4.9056   23.1541  -32.5738 H   0  0  0  0  0  0  0  0  0  0  0  0
   -5.7758   21.2333  -33.8457 H   0  0  0  0  0  0  0  0  0  0  0  0
   -7.4405   19.3896  -34.0929 H   0  0  0  0  0  0  0  0  0  0  0  0
   -9.2350   19.0842  -32.3922 H   0  0  0  0  0  0  0  0  0  0  0  0
   -9.3781   20.6145  -30.4257 H   0  0  0  0  0  0  0  0  0  0  0  0
   -8.5029   22.5493  -29.1753 H   0  0  0  0  0  0  0  0  0  0  0  0
  1  2  2  0
  2  3  1  0
  3  4  1  0
  4  5  2  0
  5  6  1  0
  6  7  1  0
  7  8  2  0
  7  9  2  0
  7 10  1  0
 10 11  1  0
 11 12  1  0
 12 13  1  0
 13 14  1  0
  6 15  2  0
 15 16  1  0
 16 17  2  0
 17 18  1  0
 18 19  1  0
 19 20  1  0
 20 21  1  0
 21 22  1  0
  2 23  1  0
 23 24  2  0
 24 25  1  0
 25 26  2  0
 26 27  1  0
 27 28  2  0
 28 29  1  0
 29 30  2  0
 30 31  1  0
 31 32  2  0
 17  4  1  0
 22 18  1  0
 32 23  1  0
 14 10  1  0
 30 25  1  0
  5 33  1  0
 10 34  1  0
 11 35  1  0
 11 36  1  0
 12 37  1  0
 12 38  1  0
 13 39  1  0
 13 40  1  0
 14 41  1  0
 14 42  1  0
 15 43  1  0
 16 44  1  0
 19 45  1  0
 19 46  1  0
 20 47  1  0
 20 48  1  0
 21 49  1  0
 21 50  1  0
 22 51  1  0
 22 52  1  0
 24 53  1  0
 26 54  1  0
 27 55  1  0
 28 56  1  0
 29 57  1  0
 31 58  1  0
M  CHG  2   3  -1  10   1
M  END
>  <UniqueID>  (32) 
29

>  <SMILES>  (32) 
O=C([N-]c1cc(S(=O)(=O)[NH+]2CCCC2)ccc1N1CCCC1)c1cc2ccccc2cn1

>  <Energy>  (32) 
77.7800725836876

>  <Genealogy>  (32) 
O=C([N-]c1cc(S(=O)(=O)[NH+]2CCCC2)ccc1N1CCCC1)c1cc2ccccc2cn1 (protonated)
O=C([N-]c1cc(S(=O)(=O)[NH+]2CCCC2)ccc1N1CCCC1)c1cc2ccccc2cn1 (3D coordinates assigned)
O=C([N-]c1cc(S(=O)(=O)[NH+]2CCCC2)ccc1N1CCCC1)c1cc2ccccc2cn1 (nonaromatic ring conformer: 77.7800725836876 kcal/mol)

>  <smiles>  (32) 
O=C(Nc1cc(S(=O)(=O)N2CCCC2)ccc1N1CCCC1)c1cc2ccccc2cn1

>  <score_type>  (32) 
oracle

>  <origin>  (32) 
adgpu

>  <m_score__min__energy>  (32) 
-11.109999999999999

>  <m_primary>  (32) 
energy

$$$$
32:0
     RDKit          3D

 46 48  0  0  0  0  0  0  0  0999 V2000
   -2.7630   21.7160  -29.1100 O   0  0  0  0  0  0  0  0  0  0  0  0
   -2.9350   22.3940  -30.1590 C   0  0  0  0  0  0  0  0  0  0  0  0
   -1.9040   22.4260  -31.1550 N   0  0  0  0  0  0  0  0  0  0  0  0
   -1.2010   21.2410  -31.6320 C   0  0  0  0  0  0  0  0  0  0  0  0
   -2.1290   20.3750  -32.4390 C   0  0  0  0  0  0  0  0  0  0  0  0
   -1.8130   19.0310  -32.6920 C   0  0  0  0  0  0  0  0  0  0  0  0
   -2.6920   18.2260  -33.4250 C   0  0  0  0  0  0  0  0  0  0  0  0
   -3.8930   18.7580  -33.9050 C   0  0  0  0  0  0  0  0  0  0  0  0
   -4.9960   17.7460  -34.8210 Cl  0  0  0  0  0  0  0  0  0  0  0  0
   -4.2160   20.0940  -33.6510 C   0  0  0  0  0  0  0  0  0  0  0  0
   -3.3390   20.9010  -32.9190 C   0  0  0  0  0  0  0  0  0  0  0  0
   -4.1950   23.1570  -30.3670 C   0  0  0  0  0  0  0  0  0  0  0  0
   -5.3760   22.4690  -30.7090 C   0  0  0  0  0  0  0  0  0  0  0  0
   -6.5760   23.1620  -30.9210 C   0  0  0  0  0  0  0  0  0  0  0  0
   -8.0390   22.2840  -31.3770 S   0  0  0  0  0  0  0  0  0  0  0  0
   -8.8000   21.9100  -30.1360 O   0  0  0  0  0  0  0  0  0  0  0  0
   -8.9160   23.1800  -32.2070 O   0  0  0  0  0  0  0  0  0  0  0  0
   -7.6610   20.8370  -32.2840 N   0  0  0  0  0  0  0  0  0  0  0  0
   -8.8910   20.1220  -32.7120 C   0  0  0  0  0  0  0  0  0  0  0  0
   -9.1860   18.8770  -31.8620 C   0  0  0  0  0  0  0  0  0  0  0  0
   -8.0140   17.8810  -31.9090 C   0  0  0  0  0  0  0  0  0  0  0  0
   -6.6500   18.5740  -32.0830 C   0  0  0  0  0  0  0  0  0  0  0  0
   -6.6870   20.0060  -31.5440 C   0  0  0  0  0  0  0  0  0  0  0  0
   -6.6060   24.5520  -30.7780 C   0  0  0  0  0  0  0  0  0  0  0  0
   -5.4460   25.2470  -30.4360 C   0  0  0  0  0  0  0  0  0  0  0  0
   -4.2440   24.5630  -30.2330 C   0  0  0  0  0  0  0  0  0  0  0  0
   -3.1090   25.2970  -29.9020 O   0  0  0  0  0  0  0  0  0  0  0  0
   -0.3536   21.5503  -32.2615 H   0  0  0  0  0  0  0  0  0  0  0  0
   -0.8371   20.6675  -30.7668 H   0  0  0  0  0  0  0  0  0  0  0  0
   -0.8707   18.6089  -32.3126 H   0  0  0  0  0  0  0  0  0  0  0  0
   -2.4382   17.1743  -33.6238 H   0  0  0  0  0  0  0  0  0  0  0  0
   -5.1615   20.5114  -34.0275 H   0  0  0  0  0  0  0  0  0  0  0  0
   -3.5981   21.9511  -32.7187 H   0  0  0  0  0  0  0  0  0  0  0  0
   -5.3562   21.3739  -30.8110 H   0  0  0  0  0  0  0  0  0  0  0  0
   -9.7439   20.8120  -32.6314 H   0  0  0  0  0  0  0  0  0  0  0  0
   -8.7331   19.7848  -33.7471 H   0  0  0  0  0  0  0  0  0  0  0  0
   -9.3531   19.1856  -30.8195 H   0  0  0  0  0  0  0  0  0  0  0  0
  -10.0805   18.3819  -32.2679 H   0  0  0  0  0  0  0  0  0  0  0  0
   -8.0006   17.3092  -30.9694 H   0  0  0  0  0  0  0  0  0  0  0  0
   -8.1681   17.2285  -32.7810 H   0  0  0  0  0  0  0  0  0  0  0  0
   -5.8849   18.0038  -31.5358 H   0  0  0  0  0  0  0  0  0  0  0  0
   -6.4110   18.6106  -33.1561 H   0  0  0  0  0  0  0  0  0  0  0  0
   -6.9720   19.9812  -30.4819 H   0  0  0  0  0  0  0  0  0  0  0  0
   -5.6881   20.4490  -31.6703 H   0  0  0  0  0  0  0  0  0  0  0  0
   -7.5470   25.0994  -30.9356 H   0  0  0  0  0  0  0  0  0  0  0  0
   -5.4773   26.3410  -30.3253 H   0  0  0  0  0  0  0  0  0  0  0  0
  1  2  2  0
  2  3  1  0
  3  4  1  0
  4  5  1  0
  5  6  2  0
  6  7  1  0
  7  8  2  0
  8  9  1  0
  8 10  1  0
 10 11  2  0
  2 12  1  0
 12 13  2  0
 13 14  1  0
 14 15  1  0
 15 16  2  0
 15 17  2  0
 15 18  1  0
 18 19  1  0
 19 20  1  0
 20 21  1  0
 21 22  1  0
 22 23  1  0
 14 24  2  0
 24 25  1  0
 25 26  2  0
 26 27  1  0
 11  5  1  0
 26 12  1  0
 23 18  1  0
  4 28  1  0
  4 29  1  0
  6 30  1  0
  7 31  1  0
 10 32  1  0
 11 33  1  0
 13 34  1  0
 19 35  1  0
 19 36  1  0
 20 37  1  0
 20 38  1  0
 21 39  1  0
 21 40  1  0
 22 41  1  0
 22 42  1  0
 23 43  1  0
 23 44  1  0
 24 45  1  0
 25 46  1  0
M  CHG  2   3  -1  27  -1
M  END
>  <UniqueID>  (33) 
30

>  <SMILES>  (33) 
O=C([N-]Cc1ccc(Cl)cc1)c1cc(S(=O)(=O)N2CCCCC2)ccc1[O-]

>  <Energy>  (33) 
51.63786427650934

>  <Genealogy>  (33) 
O=C([N-]Cc1ccc(Cl)cc1)c1cc(S(=O)(=O)N2CCCCC2)ccc1[O-] (protonated)
O=C([N-]Cc1ccc(Cl)cc1)c1cc(S(=O)(=O)N2CCCCC2)ccc1[O-] (3D coordinates assigned)
O=C([N-]Cc1ccc(Cl)cc1)c1cc(S(=O)(=O)N2CCCCC2)ccc1[O-] (nonaromatic ring conformer: 51.63786427650934 kcal/mol)

>  <smiles>  (33) 
O=C(NCc1ccc(Cl)cc1)c1cc(S(=O)(=O)N2CCCCC2)ccc1O

>  <score_type>  (33) 
oracle

>  <origin>  (33) 
adgpu

>  <m_score__min__energy>  (33) 
-13.109999999999999

>  <m_primary>  (33) 
energy

$$$$
33:0
     RDKit          3D

 34 36  0  0  0  0  0  0  0  0999 V2000
   -9.5190   21.0770  -31.1600 O   0  0  0  0  0  0  0  0  0  0  0  0
   -8.3440   21.0810  -31.6110 C   0  0  0  0  0  0  0  0  0  0  0  0
   -7.3840   21.9340  -31.0600 C   0  0  0  0  0  0  0  0  0  0  0  0
   -6.0720   21.9240  -31.5630 C   0  0  0  0  0  0  0  0  0  0  0  0
   -5.0320   22.8120  -30.9830 C   0  0  0  0  0  0  0  0  0  0  0  0
   -3.8650   22.2700  -30.4150 C   0  0  0  0  0  0  0  0  0  0  0  0
   -2.8880   23.1070  -29.8690 C   0  0  0  0  0  0  0  0  0  0  0  0
   -3.0610   24.4940  -29.8850 C   0  0  0  0  0  0  0  0  0  0  0  0
   -2.0850   25.3190  -29.3410 O   0  0  0  0  0  0  0  0  0  0  0  0
   -4.2160   25.0460  -30.4480 C   0  0  0  0  0  0  0  0  0  0  0  0
   -4.3940   26.4240  -30.4690 O   0  0  0  0  0  0  0  0  0  0  0  0
   -5.1980   24.2100  -30.9940 C   0  0  0  0  0  0  0  0  0  0  0  0
   -5.7600   21.0530  -32.6200 C   0  0  0  0  0  0  0  0  0  0  0  0
   -6.7540   20.2190  -33.1530 C   0  0  0  0  0  0  0  0  0  0  0  0
   -6.4320   19.2520  -34.2530 C   0  0  0  0  0  0  0  0  0  0  0  0
   -5.8560   17.9870  -33.6760 C   0  0  0  0  0  0  0  0  0  0  0  0
   -4.9190   17.2360  -34.4060 C   0  0  0  0  0  0  0  0  0  0  0  0
   -4.3570   16.0820  -33.8520 C   0  0  0  0  0  0  0  0  0  0  0  0
   -4.7200   15.6750  -32.5650 C   0  0  0  0  0  0  0  0  0  0  0  0
   -4.1590   14.5270  -32.0160 O   0  0  0  0  0  0  0  0  0  0  0  0
   -5.6420   16.4230  -31.8280 C   0  0  0  0  0  0  0  0  0  0  0  0
   -6.2060   17.5780  -32.3790 C   0  0  0  0  0  0  0  0  0  0  0  0
   -8.0100   20.2480  -32.6310 N   0  0  0  0  0  0  0  0  0  0  0  0
   -7.6543   22.6105  -30.2358 H   0  0  0  0  0  0  0  0  0  0  0  0
   -3.7203   21.1797  -30.4004 H   0  0  0  0  0  0  0  0  0  0  0  0
   -1.9799   22.6729  -29.4252 H   0  0  0  0  0  0  0  0  0  0  0  0
   -6.1054   24.6488  -31.4346 H   0  0  0  0  0  0  0  0  0  0  0  0
   -4.7391   21.0250  -33.0286 H   0  0  0  0  0  0  0  0  0  0  0  0
   -7.3510   19.0133  -34.8084 H   0  0  0  0  0  0  0  0  0  0  0  0
   -5.6943   19.7082  -34.9295 H   0  0  0  0  0  0  0  0  0  0  0  0
   -4.6268   17.5572  -35.4167 H   0  0  0  0  0  0  0  0  0  0  0  0
   -3.6285   15.4938  -34.4294 H   0  0  0  0  0  0  0  0  0  0  0  0
   -5.9243   16.1032  -30.8141 H   0  0  0  0  0  0  0  0  0  0  0  0
   -6.9266   18.1684  -31.7941 H   0  0  0  0  0  0  0  0  0  0  0  0
  1  2  2  0
  2  3  1  0
  3  4  2  0
  4  5  1  0
  5  6  2  0
  6  7  1  0
  7  8  2  0
  8  9  1  0
  8 10  1  0
 10 11  1  0
 10 12  2  0
  4 13  1  0
 13 14  2  0
 14 15  1  0
 15 16  1  0
 16 17  2  0
 17 18  1  0
 18 19  2  0
 19 20  1  0
 19 21  1  0
 21 22  2  0
 14 23  1  0
 23  2  1  0
 12  5  1  0
 22 16  1  0
  3 24  1  0
  6 25  1  0
  7 26  1  0
 12 27  1  0
 13 28  1  0
 15 29  1  0
 15 30  1  0
 17 31  1  0
 18 32  1  0
 21 33  1  0
 22 34  1  0
M  CHG  4   9  -1  11  -1  20  -1  23  -1
M  END
>  <UniqueID>  (34) 
31

>  <SMILES>  (34) 
O=c1cc(-c2ccc([O-])c([O-])c2)cc(Cc2ccc([O-])cc2)[n-]1

>  <Energy>  (34) 
41.613629862089184

>  <Genealogy>  (34) 
O=c1cc(-c2ccc([O-])c([O-])c2)cc(Cc2ccc([O-])cc2)[n-]1 (protonated)
O=c1cc(-c2ccc([O-])c([O-])c2)cc(Cc2ccc([O-])cc2)[n-]1 (3D coordinates assigned)
O=c1cc(-c2ccc([O-])c([O-])c2)cc(Cc2ccc([O-])cc2)[n-]1 (optimized conformer: 41.613629862089184 kcal/mol)

>  <smiles>  (34) 
O=c1cc(-c2ccc(O)c(O)c2)cc(Cc2ccc(O)cc2)[nH]1

>  <score_type>  (34) 
oracle

>  <origin>  (34) 
adgpu

>  <m_score__min__energy>  (34) 
-13.09

>  <m_primary>  (34) 
energy

$$$$
34:0
     RDKit          3D

 53 56  0  0  0  0  0  0  0  0999 V2000
   -6.7450   20.4550  -33.4380 N   0  0  0  0  0  0  0  0  0  0  0  0
   -5.6490   20.5150  -33.0710 C   0  0  0  0  0  0  0  0  0  0  0  0
   -4.2800   20.5890  -32.6140 C   0  0  0  0  0  0  0  0  0  0  0  0
   -3.5280   19.4070  -32.4260 C   0  0  0  0  0  0  0  0  0  0  0  0
   -4.0670   18.1380  -32.6750 O   0  0  0  0  0  0  0  0  0  0  0  0
   -3.6060   17.2550  -33.6630 C   0  0  0  0  0  0  0  0  0  0  0  0
   -4.3650   16.1150  -33.9540 C   0  0  0  0  0  0  0  0  0  0  0  0
   -3.9380   15.2100  -34.9300 C   0  0  0  0  0  0  0  0  0  0  0  0
   -2.7510   15.4410  -35.6340 C   0  0  0  0  0  0  0  0  0  0  0  0
   -2.3350   14.5280  -36.6010 O   0  0  0  0  0  0  0  0  0  0  0  0
   -1.9940   16.5890  -35.3610 C   0  0  0  0  0  0  0  0  0  0  0  0
   -2.4200   17.4950  -34.3850 C   0  0  0  0  0  0  0  0  0  0  0  0
   -2.1960   19.4940  -32.0070 C   0  0  0  0  0  0  0  0  0  0  0  0
   -1.6230   20.7340  -31.7230 C   0  0  0  0  0  0  0  0  0  0  0  0
   -2.3690   21.9020  -31.8830 C   0  0  0  0  0  0  0  0  0  0  0  0
   -3.6860   21.8450  -32.3510 C   0  0  0  0  0  0  0  0  0  0  0  0
   -4.3880   23.0480  -32.5150 O   0  0  0  0  0  0  0  0  0  0  0  0
   -5.3220   23.5620  -31.6020 C   0  0  0  0  0  0  0  0  0  0  0  0
   -6.6850   23.2130  -31.6660 C   0  0  0  0  0  0  0  0  0  0  0  0
   -7.5900   23.7380  -30.7420 C   0  0  0  0  0  0  0  0  0  0  0  0
   -7.1470   24.6140  -29.7490 C   0  0  0  0  0  0  0  0  0  0  0  0
   -5.8000   24.9770  -29.6860 C   0  0  0  0  0  0  0  0  0  0  0  0
   -4.8830   24.4730  -30.6260 C   0  0  0  0  0  0  0  0  0  0  0  0
   -3.4880   24.8070  -30.5680 N   0  0  0  0  0  0  0  0  0  0  0  0
   -2.6080   24.5740  -29.4630 C   0  0  0  0  0  0  0  0  0  0  0  0
   -2.5830   23.4300  -28.9370 O   0  0  0  0  0  0  0  0  0  0  0  0
   -1.7640   25.6240  -28.9700 N   0  0  0  0  0  0  0  0  0  0  0  0
   -1.4900   25.9390  -27.5970 C   0  0  0  0  0  0  0  0  0  0  0  0
   -2.1360   25.2830  -26.5370 C   0  0  0  0  0  0  0  0  0  0  0  0
   -1.8140   25.5970  -25.2170 C   0  0  0  0  0  0  0  0  0  0  0  0
   -0.8410   26.5610  -24.9320 C   0  0  0  0  0  0  0  0  0  0  0  0
   -0.4790   26.8970  -23.2400 Cl  0  0  0  0  0  0  0  0  0  0  0  0
   -0.1730   27.2240  -25.9870 C   0  0  0  0  0  0  0  0  0  0  0  0
    0.8910   28.2610  -25.6960 C   0  0  0  0  0  0  0  0  0  0  0  0
    0.3280   29.3220  -25.0080 F   0  0  0  0  0  0  0  0  0  0  0  0
    1.4280   28.7230  -26.8850 F   0  0  0  0  0  0  0  0  0  0  0  0
    1.9210   27.7430  -24.9300 F   0  0  0  0  0  0  0  0  0  0  0  0
   -0.5000   26.8890  -27.3150 C   0  0  0  0  0  0  0  0  0  0  0  0
   -5.3036   15.9303  -33.4109 H   0  0  0  0  0  0  0  0  0  0  0  0
   -4.5372   14.3130  -35.1454 H   0  0  0  0  0  0  0  0  0  0  0  0
   -2.1910   13.5500  -36.3780 H   0  0  0  0  0  0  0  0  0  0  0  0
   -1.0630   16.7773  -35.9158 H   0  0  0  0  0  0  0  0  0  0  0  0
   -1.8271   18.3985  -34.1800 H   0  0  0  0  0  0  0  0  0  0  0  0
   -1.5961   18.5781  -31.9007 H   0  0  0  0  0  0  0  0  0  0  0  0
   -0.5819   20.7908  -31.3725 H   0  0  0  0  0  0  0  0  0  0  0  0
   -1.9181   22.8753  -31.6393 H   0  0  0  0  0  0  0  0  0  0  0  0
   -7.0378   22.5238  -32.4474 H   0  0  0  0  0  0  0  0  0  0  0  0
   -8.6533   23.4613  -30.7962 H   0  0  0  0  0  0  0  0  0  0  0  0
   -7.8599   25.0187  -29.0155 H   0  0  0  0  0  0  0  0  0  0  0  0
   -5.4542   25.6609  -28.8969 H   0  0  0  0  0  0  0  0  0  0  0  0
   -2.8986   24.5189  -26.7484 H   0  0  0  0  0  0  0  0  0  0  0  0
   -2.3295   25.0823  -24.3928 H   0  0  0  0  0  0  0  0  0  0  0  0
    0.0302   27.3809  -28.1438 H   0  0  0  0  0  0  0  0  0  0  0  0
  1  2  3  0
  2  3  1  0
  3  4  2  0
  4  5  1  0
  5  6  1  0
  6  7  2  0
  7  8  1  0
  8  9  2  0
  9 10  1  0
  9 11  1  0
 11 12  2  0
  4 13  1  0
 13 14  2  0
 14 15  1  0
 15 16  2  0
 16 17  1  0
 17 18  1  0
 18 19  2  0
 19 20  1  0
 20 21  2  0
 21 22  1  0
 22 23  2  0
 23 24  1  0
 24 25  1  0
 25 26  2  0
 25 27  1  0
 27 28  1  0
 28 29  2  0
 29 30  1  0
 30 31  2  0
 31 32  1  0
 31 33  1  0
 33 34  1  0
 34 35  1  0
 34 36  1  0
 34 37  1  0
 33 38  2  0
 16  3  1  0
 23 18  1  0
 38 28  1  0
 12  6  1  0
  7 39  1  0
  8 40  1  0
 10 41  1  0
 11 42  1  0
 12 43  1  0
 13 44  1  0
 14 45  1  0
 15 46  1  0
 19 47  1  0
 20 48  1  0
 21 49  1  0
 22 50  1  0
 29 51  1  0
 30 52  1  0
 38 53  1  0
M  CHG  2  24  -1  27  -1
M  END
>  <UniqueID>  (35) 
32

>  <SMILES>  (35) 
N#Cc1c(Oc2ccc(O)cc2)cccc1Oc1ccccc1[N-]C(=O)[N-]c1ccc(Cl)c(C(F)(F)F)c1

>  <Energy>  (35) 
83.65781879546186

>  <Genealogy>  (35) 
N#Cc1c(Oc2ccc(O)cc2)cccc1Oc1ccccc1[N-]C(=O)[N-]c1ccc(Cl)c(C(F)(F)F)c1 (protonated)
N#Cc1c(Oc2ccc(O)cc2)cccc1Oc1ccccc1[N-]C(=O)[N-]c1ccc(Cl)c(C(F)(F)F)c1 (3D coordinates assigned)
N#Cc1c(Oc2ccc(O)cc2)cccc1Oc1ccccc1[N-]C(=O)[N-]c1ccc(Cl)c(C(F)(F)F)c1 (optimized conformer: 83.65781879546186 kcal/mol)

>  <smiles>  (35) 
N#Cc1c(Oc2ccc(O)cc2)cccc1Oc1ccccc1NC(=O)Nc1ccc(Cl)c(C(F)(F)F)c1

>  <score_type>  (35) 
oracle

>  <origin>  (35) 
adgpu

>  <m_score__min__energy>  (35) 
-11.220000000000001

>  <m_primary>  (35) 
energy

$$$$
35:0
     RDKit          3D

 68 72  0  0  0  0  0  0  0  0999 V2000
   -8.2000   21.0310  -32.3230 C   0  0  0  0  0  0  0  0  0  0  0  0
   -8.3980   22.2860  -31.5780 N   0  0  0  0  0  0  0  0  0  0  0  0
   -7.9980   22.1090  -30.1690 C   0  0  0  0  0  0  0  0  0  0  0  0
   -7.6750   23.4080  -32.2140 C   0  0  0  0  0  0  0  0  0  0  0  0
   -6.7920   24.1320  -31.1840 C   0  0  0  0  0  0  0  0  0  0  0  0
   -5.3920   24.1740  -31.6160 N   0  0  0  0  0  0  0  0  0  0  0  0
   -4.5390   23.0130  -31.6110 C   0  0  0  0  0  0  0  0  0  0  0  0
   -4.9670   21.8940  -32.3300 C   0  0  0  0  0  0  0  0  0  0  0  0
   -4.2440   20.7140  -32.3140 C   0  0  0  0  0  0  0  0  0  0  0  0
   -3.0810   20.5940  -31.5450 C   0  0  0  0  0  0  0  0  0  0  0  0
   -2.3070   19.3780  -31.6500 N   0  0  0  0  0  0  0  0  0  0  0  0
   -2.0100   18.7000  -32.9160 C   0  0  0  0  0  0  0  0  0  0  0  0
   -0.6010   18.0660  -32.8880 C   0  0  0  0  0  0  0  0  0  0  0  0
    0.1960   18.4130  -31.6890 N   0  0  0  0  0  0  0  0  0  0  0  0
    0.0110   17.4520  -30.5770 C   0  0  0  0  0  0  0  0  0  0  0  0
    1.1350   17.5640  -29.5230 C   0  0  0  0  0  0  0  0  0  0  0  0
    1.6780   18.9250  -29.4730 N   0  0  0  0  0  0  0  0  0  0  0  0
    2.3020   19.3130  -30.7520 C   0  0  0  0  0  0  0  0  0  0  0  0
    1.6170   18.6780  -31.9810 C   0  0  0  0  0  0  0  0  0  0  0  0
   -2.6490   21.7010  -30.7470 C   0  0  0  0  0  0  0  0  0  0  0  0
   -1.5900   21.5660  -29.8150 C   0  0  0  0  0  0  0  0  0  0  0  0
   -1.1190   20.2960  -29.4980 O   0  0  0  0  0  0  0  0  0  0  0  0
   -1.0510   22.6930  -29.1470 C   0  0  0  0  0  0  0  0  0  0  0  0
    0.0500   22.5710  -28.2660 C   0  0  0  0  0  0  0  0  0  0  0  0
    0.6400   21.3290  -28.0320 O   0  0  0  0  0  0  0  0  0  0  0  0
    0.5840   23.6970  -27.6180 C   0  0  0  0  0  0  0  0  0  0  0  0
    1.6840   23.5570  -26.7480 C   0  0  0  0  0  0  0  0  0  0  0  0
    2.2410   24.6650  -26.1180 C   0  0  0  0  0  0  0  0  0  0  0  0
    1.7260   25.9340  -26.3540 C   0  0  0  0  0  0  0  0  0  0  0  0
    0.6360   26.1050  -27.2130 C   0  0  0  0  0  0  0  0  0  0  0  0
    0.1700   27.4020  -27.4160 O   0  0  0  0  0  0  0  0  0  0  0  0
    0.0410   24.9830  -27.8520 C   0  0  0  0  0  0  0  0  0  0  0  0
   -1.0750   25.1100  -28.7100 C   0  0  0  0  0  0  0  0  0  0  0  0
   -1.6190   26.3750  -28.9330 O   0  0  0  0  0  0  0  0  0  0  0  0
   -1.6420   23.9670  -29.3460 C   0  0  0  0  0  0  0  0  0  0  0  0
   -2.8110   24.0700  -30.1480 C   0  0  0  0  0  0  0  0  0  0  0  0
   -3.4550   25.2980  -30.2500 O   0  0  0  0  0  0  0  0  0  0  0  0
   -3.3320   22.9500  -30.8440 C   0  0  0  0  0  0  0  0  0  0  0  0
   -8.0690   20.2004  -31.6138 H   0  0  0  0  0  0  0  0  0  0  0  0
   -9.0788   20.8377  -32.9558 H   0  0  0  0  0  0  0  0  0  0  0  0
   -7.3044   21.1176  -32.9558 H   0  0  0  0  0  0  0  0  0  0  0  0
   -8.8043   22.4658  -29.5113 H   0  0  0  0  0  0  0  0  0  0  0  0
   -7.8092   21.0433  -29.9726 H   0  0  0  0  0  0  0  0  0  0  0  0
   -7.0823   22.6859  -29.9726 H   0  0  0  0  0  0  0  0  0  0  0  0
   -7.0410   23.0176  -33.0237 H   0  0  0  0  0  0  0  0  0  0  0  0
   -8.4088   24.1212  -32.6176 H   0  0  0  0  0  0  0  0  0  0  0  0
   -7.1590   25.1614  -31.0585 H   0  0  0  0  0  0  0  0  0  0  0  0
   -6.8449   23.5804  -30.2338 H   0  0  0  0  0  0  0  0  0  0  0  0
   -5.0610   25.0490  -32.0890 H   0  0  0  0  0  0  0  0  0  0  0  0
   -5.8944   21.9519  -32.9188 H   0  0  0  0  0  0  0  0  0  0  0  0
   -4.5882   19.8587  -32.9140 H   0  0  0  0  0  0  0  0  0  0  0  0
   -1.8480   18.9990  -30.7950 H   0  0  0  0  0  0  0  0  0  0  0  0
   -2.7566   17.9099  -33.0846 H   0  0  0  0  0  0  0  0  0  0  0  0
   -2.0440   19.4422  -33.7272 H   0  0  0  0  0  0  0  0  0  0  0  0
   -0.7138   16.9724  -32.9228 H   0  0  0  0  0  0  0  0  0  0  0  0
   -0.0568   18.4656  -33.7564 H   0  0  0  0  0  0  0  0  0  0  0  0
   -0.9543   17.6540  -30.0898 H   0  0  0  0  0  0  0  0  0  0  0  0
    0.0392   16.4359  -30.9975 H   0  0  0  0  0  0  0  0  0  0  0  0
    0.7282   17.3030  -28.5349 H   0  0  0  0  0  0  0  0  0  0  0  0
    1.9455   16.8745  -29.8019 H   0  0  0  0  0  0  0  0  0  0  0  0
    0.8900   19.5890  -29.2720 H   0  0  0  0  0  0  0  0  0  0  0  0
    2.2489   20.4074  -30.8489 H   0  0  0  0  0  0  0  0  0  0  0  0
    3.3400   18.9494  -30.7325 H   0  0  0  0  0  0  0  0  0  0  0  0
    1.6904   19.3674  -32.8350 H   0  0  0  0  0  0  0  0  0  0  0  0
    2.1180   17.7288  -32.2218 H   0  0  0  0  0  0  0  0  0  0  0  0
    2.1076   22.5585  -26.5648 H   0  0  0  0  0  0  0  0  0  0  0  0
    3.0909   24.5365  -25.4316 H   0  0  0  0  0  0  0  0  0  0  0  0
    2.1780   26.8082  -25.8627 H   0  0  0  0  0  0  0  0  0  0  0  0
  1  2  1  0
  2  3  1  0
  2  4  1  0
  4  5  1  0
  5  6  1  0
  6  7  1  0
  7  8  2  0
  8  9  1  0
  9 10  2  0
 10 11  1  0
 11 12  1  0
 12 13  1  0
 13 14  1  0
 14 15  1  0
 15 16  1  0
 16 17  1  0
 17 18  1  0
 18 19  1  0
 10 20  1  0
 20 21  2  0
 21 22  1  0
 21 23  1  0
 23 24  2  0
 24 25  1  0
 24 26  1  0
 26 27  2  0
 27 28  1  0
 28 29  2  0
 29 30  1  0
 30 31  1  0
 30 32  2  0
 32 33  1  0
 33 34  1  0
 33 35  2  0
 35 36  1  0
 36 37  1  0
 36 38  2  0
 38  7  1  0
 19 14  1  0
 38 20  1  0
 35 23  1  0
 32 26  1  0
  1 39  1  0
  1 40  1  0
  1 41  1  0
  3 42  1  0
  3 43  1  0
  3 44  1  0
  4 45  1  0
  4 46  1  0
  5 47  1  0
  5 48  1  0
  6 49  1  0
  8 50  1  0
  9 51  1  0
 11 52  1  0
 12 53  1  0
 12 54  1  0
 13 55  1  0
 13 56  1  0
 15 57  1  0
 15 58  1  0
 16 59  1  0
 16 60  1  0
 17 61  1  0
 18 62  1  0
 18 63  1  0
 19 64  1  0
 19 65  1  0
 27 66  1  0
 28 67  1  0
 29 68  1  0
M  CHG  5  22  -1  25  -1  31  -1  34  -1  37  -1
M  END
>  <UniqueID>  (36) 
33

>  <SMILES>  (36) 
CN(C)CCNc1ccc(NCCN2CCNCC2)c2c([O-])c3c([O-])c4cccc([O-])c4c([O-])c3c([O-])c12

>  <Energy>  (36) 
119.80374906866511

>  <Genealogy>  (36) 
CN(C)CCNc1ccc(NCCN2CCNCC2)c2c([O-])c3c([O-])c4cccc([O-])c4c([O-])c3c([O-])c12 (protonated)
CN(C)CCNc1ccc(NCCN2CCNCC2)c2c([O-])c3c([O-])c4cccc([O-])c4c([O-])c3c([O-])c12 (3D coordinates assigned)
CN(C)CCNc1ccc(NCCN2CCNCC2)c2c([O-])c3c([O-])c4cccc([O-])c4c([O-])c3c([O-])c12 (nonaromatic ring conformer: 119.80374906866511 kcal/mol)

>  <smiles>  (36) 
CN(C)CCNc1ccc(NCCN2CCNCC2)c2c(O)c3c(O)c4cccc(O)c4c(O)c3c(O)c12

>  <score_type>  (36) 
oracle

>  <origin>  (36) 
adgpu

>  <m_score__min__energy>  (36) 
-14.51

>  <m_primary>  (36) 
energy

$$$$
36:0
     RDKit          3D

 46 47  0  0  0  0  0  0  0  0999 V2000
   -4.6020   19.5260  -33.4710 C   0  0  0  0  0  0  0  0  0  0  0  0
   -3.6170   20.9880  -33.0150 S   0  0  0  0  0  0  0  0  0  0  0  0
   -4.9910   21.8270  -32.2120 C   0  0  0  0  0  0  0  0  0  0  0  0
   -6.2840   21.3150  -32.3660 C   0  0  0  0  0  0  0  0  0  0  0  0
   -7.3660   21.9400  -31.7450 C   0  0  0  0  0  0  0  0  0  0  0  0
   -7.1630   23.0690  -30.9510 C   0  0  0  0  0  0  0  0  0  0  0  0
   -5.8710   23.5870  -30.7690 C   0  0  0  0  0  0  0  0  0  0  0  0
   -5.6430   24.9850  -29.7100 S   0  0  0  0  0  0  0  0  0  0  0  0
   -4.6190   26.1460  -30.4810 N   0  0  0  0  0  0  0  0  0  0  0  0
   -4.9900   24.5570  -28.4250 O   0  0  0  0  0  0  0  0  0  0  0  0
   -6.9730   25.6100  -29.4000 O   0  0  0  0  0  0  0  0  0  0  0  0
   -4.7790   22.9730  -31.4220 C   0  0  0  0  0  0  0  0  0  0  0  0
   -3.4520   23.4860  -31.2650 N   0  0  0  0  0  0  0  0  0  0  0  0
   -2.7760   23.5690  -30.0050 C   0  0  0  0  0  0  0  0  0  0  0  0
   -2.4240   22.5020  -29.4360 O   0  0  0  0  0  0  0  0  0  0  0  0
   -2.5200   24.8420  -29.3860 N   0  0  0  0  0  0  0  0  0  0  0  0
   -1.6220   25.0270  -28.2790 C   0  0  0  0  0  0  0  0  0  0  0  0
   -0.8510   26.1950  -28.1470 C   0  0  0  0  0  0  0  0  0  0  0  0
   -0.0090   26.3640  -27.0440 C   0  0  0  0  0  0  0  0  0  0  0  0
    0.0640   25.3770  -26.0530 C   0  0  0  0  0  0  0  0  0  0  0  0
    1.1170   25.5970  -24.6540 S   0  0  0  0  0  0  0  0  0  0  0  0
    2.3380   26.3680  -25.0730 O   0  0  0  0  0  0  0  0  0  0  0  0
    1.5660   24.2510  -24.1570 O   0  0  0  0  0  0  0  0  0  0  0  0
    0.3050   26.4500  -23.3640 N   0  0  0  0  0  0  0  0  0  0  0  0
    1.0440   27.6760  -23.0340 C   0  0  0  0  0  0  0  0  0  0  0  0
   -1.0670   26.7810  -23.7720 C   0  0  0  0  0  0  0  0  0  0  0  0
   -0.7210   24.2220  -26.1700 C   0  0  0  0  0  0  0  0  0  0  0  0
   -1.5640   24.0530  -27.2720 C   0  0  0  0  0  0  0  0  0  0  0  0
   -4.9455   19.0162  -32.5588 H   0  0  0  0  0  0  0  0  0  0  0  0
   -5.4727   19.8411  -34.0648 H   0  0  0  0  0  0  0  0  0  0  0  0
   -3.9829   18.8375  -34.0648 H   0  0  0  0  0  0  0  0  0  0  0  0
   -6.4482   20.4164  -32.9789 H   0  0  0  0  0  0  0  0  0  0  0  0
   -8.3820   21.5413  -31.8819 H   0  0  0  0  0  0  0  0  0  0  0  0
   -8.0208   23.5564  -30.4645 H   0  0  0  0  0  0  0  0  0  0  0  0
   -3.9070   25.6100  -31.0260 H   0  0  0  0  0  0  0  0  0  0  0  0
   -3.0570   25.6740  -29.7150 H   0  0  0  0  0  0  0  0  0  0  0  0
   -0.9105   26.9798  -28.9154 H   0  0  0  0  0  0  0  0  0  0  0  0
    0.5990   27.2763  -26.9540 H   0  0  0  0  0  0  0  0  0  0  0  0
    1.1082   27.7825  -21.9410 H   0  0  0  0  0  0  0  0  0  0  0  0
    2.0578   27.6181  -23.4569 H   0  0  0  0  0  0  0  0  0  0  0  0
    0.5194   28.5454  -23.4569 H   0  0  0  0  0  0  0  0  0  0  0  0
   -1.6894   26.9312  -22.8775 H   0  0  0  0  0  0  0  0  0  0  0  0
   -1.0588   27.7029  -24.3720 H   0  0  0  0  0  0  0  0  0  0  0  0
   -1.4801   25.9567  -24.3720 H   0  0  0  0  0  0  0  0  0  0  0  0
   -0.6736   23.4458  -25.3920 H   0  0  0  0  0  0  0  0  0  0  0  0
   -2.1864   23.1494  -27.3498 H   0  0  0  0  0  0  0  0  0  0  0  0
  1  2  1  0
  2  3  1  0
  3  4  2  0
  4  5  1  0
  5  6  2  0
  6  7  1  0
  7  8  1  0
  8  9  1  0
  8 10  2  0
  8 11  2  0
  7 12  2  0
 12 13  1  0
 13 14  1  0
 14 15  2  0
 14 16  1  0
 16 17  1  0
 17 18  2  0
 18 19  1  0
 19 20  2  0
 20 21  1  0
 21 22  2  0
 21 23  2  0
 21 24  1  0
 24 25  1  0
 24 26  1  0
 20 27  1  0
 27 28  2  0
 12  3  1  0
 28 17  1  0
  1 29  1  0
  1 30  1  0
  1 31  1  0
  4 32  1  0
  5 33  1  0
  6 34  1  0
  9 35  1  0
 16 36  1  0
 18 37  1  0
 19 38  1  0
 25 39  1  0
 25 40  1  0
 25 41  1  0
 26 42  1  0
 26 43  1  0
 26 44  1  0
 27 45  1  0
 28 46  1  0
M  CHG  2   9  -1  13  -1
M  END
>  <UniqueID>  (37) 
34

>  <SMILES>  (37) 
CSc1cccc(S([NH-])(=O)=O)c1[N-]C(=O)Nc1ccc(S(=O)(=O)N(C)C)cc1

>  <Energy>  (37) 
50.126431142434306

>  <Genealogy>  (37) 
CSc1cccc(S([NH-])(=O)=O)c1[N-]C(=O)Nc1ccc(S(=O)(=O)N(C)C)cc1 (protonated)
CSc1cccc(S([NH-])(=O)=O)c1[N-]C(=O)Nc1ccc(S(=O)(=O)N(C)C)cc1 (3D coordinates assigned)
CSc1cccc(S([NH-])(=O)=O)c1[N-]C(=O)Nc1ccc(S(=O)(=O)N(C)C)cc1 (optimized conformer: 50.126431142434306 kcal/mol)

>  <smiles>  (37) 
CSc1cccc(S(N)(=O)=O)c1NC(=O)Nc1ccc(S(=O)(=O)N(C)C)cc1

>  <score_type>  (37) 
oracle

>  <origin>  (37) 
adgpu

>  <m_score__min__energy>  (37) 
-10.57

>  <m_primary>  (37) 
energy

$$$$
37:0
     RDKit          3D

 59 62  0  0  0  0  0  0  0  0999 V2000
   -3.1130   16.9430  -33.3160 O   0  0  0  0  0  0  0  0  0  0  0  0
   -2.3580   17.9540  -33.3040 C   0  0  0  0  0  0  0  0  0  0  0  0
   -0.8800   17.7720  -33.5010 C   0  0  0  0  0  0  0  0  0  0  0  0
   -0.2470   19.0350  -34.0370 C   0  0  0  0  0  0  0  0  0  0  0  0
    0.0520   19.1230  -35.4110 C   0  0  0  0  0  0  0  0  0  0  0  0
    0.6270   20.2810  -35.9410 C   0  0  0  0  0  0  0  0  0  0  0  0
    0.9050   21.3680  -35.1090 C   0  0  0  0  0  0  0  0  0  0  0  0
    0.6180   21.2970  -33.7410 C   0  0  0  0  0  0  0  0  0  0  0  0
    0.0510   20.1320  -33.1920 C   0  0  0  0  0  0  0  0  0  0  0  0
   -0.2700   20.0750  -31.7950 N   0  0  0  0  0  0  0  0  0  0  0  0
   -1.4900   21.0700  -31.0620 S   0  0  0  0  0  0  0  0  0  0  0  0
   -2.6610   20.2040  -30.6730 O   0  0  0  0  0  0  0  0  0  0  0  0
   -1.9660   22.0810  -32.0720 O   0  0  0  0  0  0  0  0  0  0  0  0
   -0.8640   21.9280  -29.6550 C   0  0  0  0  0  0  0  0  0  0  0  0
   -0.1500   21.2270  -28.6710 C   0  0  0  0  0  0  0  0  0  0  0  0
    0.3370   21.8990  -27.5410 C   0  0  0  0  0  0  0  0  0  0  0  0
    0.1080   23.2710  -27.3880 C   0  0  0  0  0  0  0  0  0  0  0  0
   -0.6080   23.9750  -28.3660 C   0  0  0  0  0  0  0  0  0  0  0  0
   -0.9020   25.6940  -28.1700 Cl  0  0  0  0  0  0  0  0  0  0  0  0
   -1.0940   23.3050  -29.4980 C   0  0  0  0  0  0  0  0  0  0  0  0
   -2.9020   19.2740  -33.1140 N   0  0  0  0  0  0  0  0  0  0  0  0
   -4.2990   19.6070  -33.2090 C   0  0  0  0  0  0  0  0  0  0  0  0
   -5.1320   18.8390  -34.0400 C   0  0  0  0  0  0  0  0  0  0  0  0
   -6.4990   19.1120  -34.1210 C   0  0  0  0  0  0  0  0  0  0  0  0
   -7.0530   20.1490  -33.3680 C   0  0  0  0  0  0  0  0  0  0  0  0
   -6.2410   20.9190  -32.5240 C   0  0  0  0  0  0  0  0  0  0  0  0
   -6.9480   22.2290  -31.5720 S   0  0  0  0  0  0  0  0  0  0  0  0
   -8.1150   22.8080  -32.3210 O   0  0  0  0  0  0  0  0  0  0  0  0
   -7.4590   21.6760  -30.2700 O   0  0  0  0  0  0  0  0  0  0  0  0
   -5.7880   23.4920  -31.2400 N   0  0  0  0  0  0  0  0  0  0  0  0
   -6.4830   24.7380  -30.8570 C   0  0  0  0  0  0  0  0  0  0  0  0
   -5.4570   25.8230  -30.4660 C   0  0  0  0  0  0  0  0  0  0  0  0
   -4.1260   25.3710  -30.6420 O   0  0  0  0  0  0  0  0  0  0  0  0
   -3.8950   24.2360  -29.8240 C   0  0  0  0  0  0  0  0  0  0  0  0
   -4.8610   23.0790  -30.1690 C   0  0  0  0  0  0  0  0  0  0  0  0
   -4.8670   20.6390  -32.4370 C   0  0  0  0  0  0  0  0  0  0  0  0
   -0.4167   17.5187  -32.5360 H   0  0  0  0  0  0  0  0  0  0  0  0
   -0.7198   16.9629  -34.2288 H   0  0  0  0  0  0  0  0  0  0  0  0
   -0.1692   18.2724  -36.0725 H   0  0  0  0  0  0  0  0  0  0  0  0
    0.8609   20.3366  -37.0144 H   0  0  0  0  0  0  0  0  0  0  0  0
    1.3503   22.2816  -35.5298 H   0  0  0  0  0  0  0  0  0  0  0  0
    0.8370   22.1570  -33.0911 H   0  0  0  0  0  0  0  0  0  0  0  0
    0.0280   20.1477  -28.7866 H   0  0  0  0  0  0  0  0  0  0  0  0
    0.8998   21.3471  -26.7738 H   0  0  0  0  0  0  0  0  0  0  0  0
    0.4898   23.7969  -26.5005 H   0  0  0  0  0  0  0  0  0  0  0  0
   -1.6563   23.8586  -30.2644 H   0  0  0  0  0  0  0  0  0  0  0  0
   -2.2400   20.0390  -32.8450 H   0  0  0  0  0  0  0  0  0  0  0  0
   -4.7039   18.0162  -34.6314 H   0  0  0  0  0  0  0  0  0  0  0  0
   -7.1409   18.5086  -34.7796 H   0  0  0  0  0  0  0  0  0  0  0  0
   -8.1299   20.3624  -33.4373 H   0  0  0  0  0  0  0  0  0  0  0  0
   -7.0832   25.0951  -31.7069 H   0  0  0  0  0  0  0  0  0  0  0  0
   -7.1355   24.5343  -29.9952 H   0  0  0  0  0  0  0  0  0  0  0  0
   -5.6187   26.7104  -31.0956 H   0  0  0  0  0  0  0  0  0  0  0  0
   -5.6002   26.0640  -29.4023 H   0  0  0  0  0  0  0  0  0  0  0  0
   -2.8603   23.8935  -29.9728 H   0  0  0  0  0  0  0  0  0  0  0  0
   -4.0662   24.5262  -28.7769 H   0  0  0  0  0  0  0  0  0  0  0  0
   -4.2795   22.2087  -30.5072 H   0  0  0  0  0  0  0  0  0  0  0  0
   -5.4420   22.8168  -29.2725 H   0  0  0  0  0  0  0  0  0  0  0  0
   -4.2307   21.2296  -31.7615 H   0  0  0  0  0  0  0  0  0  0  0  0
  1  2  2  0
  2  3  1  0
  3  4  1  0
  4  5  2  0
  5  6  1  0
  6  7  2  0
  7  8  1  0
  8  9  2  0
  9 10  1  0
 10 11  1  0
 11 12  2  0
 11 13  2  0
 11 14  1  0
 14 15  2  0
 15 16  1  0
 16 17  2  0
 17 18  1  0
 18 19  1  0
 18 20  2  0
  2 21  1  0
 21 22  1  0
 22 23  2  0
 23 24  1  0
 24 25  2  0
 25 26  1  0
 26 27  1  0
 27 28  2  0
 27 29  2  0
 27 30  1  0
 30 31  1  0
 31 32  1  0
 32 33  1  0
 33 34  1  0
 34 35  1  0
 26 36  2  0
  9  4  1  0
 20 14  1  0
 36 22  1  0
 35 30  1  0
  3 37  1  0
  3 38  1  0
  5 39  1  0
  6 40  1  0
  7 41  1  0
  8 42  1  0
 15 43  1  0
 16 44  1  0
 17 45  1  0
 20 46  1  0
 21 47  1  0
 23 48  1  0
 24 49  1  0
 25 50  1  0
 31 51  1  0
 31 52  1  0
 32 53  1  0
 32 54  1  0
 34 55  1  0
 34 56  1  0
 35 57  1  0
 35 58  1  0
 36 59  1  0
M  CHG  1  10  -1
M  END
>  <UniqueID>  (38) 
35

>  <SMILES>  (38) 
O=C(Cc1ccccc1[N-]S(=O)(=O)c1cccc(Cl)c1)Nc1cccc(S(=O)(=O)N2CCOCC2)c1

>  <Energy>  (38) 
80.40195647704465

>  <Genealogy>  (38) 
O=C(Cc1ccccc1[N-]S(=O)(=O)c1cccc(Cl)c1)Nc1cccc(S(=O)(=O)N2CCOCC2)c1 (protonated)
O=C(Cc1ccccc1[N-]S(=O)(=O)c1cccc(Cl)c1)Nc1cccc(S(=O)(=O)N2CCOCC2)c1 (3D coordinates assigned)
O=C(Cc1ccccc1[N-]S(=O)(=O)c1cccc(Cl)c1)Nc1cccc(S(=O)(=O)N2CCOCC2)c1 (nonaromatic ring conformer: 80.40195647704465 kcal/mol)

>  <smiles>  (38) 
O=C(Cc1ccccc1NS(=O)(=O)c1cccc(Cl)c1)Nc1cccc(S(=O)(=O)N2CCOCC2)c1

>  <score_type>  (38) 
oracle

>  <origin>  (38) 
adgpu

>  <m_score__min__energy>  (38) 
-11.9

>  <m_primary>  (38) 
energy

$$$$
38:0
     RDKit          3D

 53 52  0  0  0  0  0  0  0  0999 V2000
   -6.3179   22.5167  -32.3182 H   0  0  0  0  0  0  0  0  0  0  0  0
   -5.3750   22.6740  -31.7740 C   0  0  0  0  0  0  0  0  0  0  0  0
   -5.4380   23.1790  -30.5350 C   0  0  0  0  0  0  0  0  0  0  0  0
   -6.4348   23.3809  -30.1159 H   0  0  0  0  0  0  0  0  0  0  0  0
   -4.2420   23.4900  -29.6750 C   0  0  0  0  0  0  0  0  0  0  0  0
   -4.5504   23.4866  -28.6191 H   0  0  0  0  0  0  0  0  0  0  0  0
   -3.4745   22.7243  -29.8612 H   0  0  0  0  0  0  0  0  0  0  0  0
   -3.6600   24.8300  -30.0080 C   0  0  0  0  0  0  0  0  0  0  0  0
   -4.2250   25.5720  -30.8570 O   0  0  0  0  0  0  0  0  0  0  0  0
   -2.4840   25.2770  -29.3290 N   0  0  0  0  0  0  0  0  0  0  0  0
   -1.4140   24.3760  -28.9180 C   0  0  0  0  0  0  0  0  0  0  0  0
   -1.4723   23.4497  -29.5083 H   0  0  0  0  0  0  0  0  0  0  0  0
   -0.4452   24.8689  -29.0869 H   0  0  0  0  0  0  0  0  0  0  0  0
   -1.5500   24.0360  -27.4250 C   0  0  0  0  0  0  0  0  0  0  0  0
   -0.5779   24.2226  -26.9452 H   0  0  0  0  0  0  0  0  0  0  0  0
   -1.9070   22.5560  -27.2250 C   0  0  0  0  0  0  0  0  0  0  0  0
   -1.9606   22.3339  -26.1490 H   0  0  0  0  0  0  0  0  0  0  0  0
   -2.8812   22.3475  -27.6914 H   0  0  0  0  0  0  0  0  0  0  0  0
   -1.1350   21.9263  -27.6914 H   0  0  0  0  0  0  0  0  0  0  0  0
   -2.6080   24.9290  -26.7670 C   0  0  0  0  0  0  0  0  0  0  0  0
   -2.5209   24.8555  -25.6729 H   0  0  0  0  0  0  0  0  0  0  0  0
   -2.4519   25.9725  -27.0779 H   0  0  0  0  0  0  0  0  0  0  0  0
   -3.6105   24.5998  -27.0779 H   0  0  0  0  0  0  0  0  0  0  0  0
   -4.1080   22.3150  -32.4540 C   0  0  0  0  0  0  0  0  0  0  0  0
   -3.4295   23.1282  -32.7511 H   0  0  0  0  0  0  0  0  0  0  0  0
   -3.7430   21.0550  -32.7270 C   0  0  0  0  0  0  0  0  0  0  0  0
   -2.7699   20.8967  -33.2148 H   0  0  0  0  0  0  0  0  0  0  0  0
   -4.5750   19.8430  -32.4110 C   0  0  0  0  0  0  0  0  0  0  0  0
   -5.1609   20.0382  -31.5007 H   0  0  0  0  0  0  0  0  0  0  0  0
   -3.8995   18.9874  -32.2635 H   0  0  0  0  0  0  0  0  0  0  0  0
   -5.5180   19.5150  -33.5410 C   0  0  0  0  0  0  0  0  0  0  0  0
   -5.2923   19.9070  -34.5437 H   0  0  0  0  0  0  0  0  0  0  0  0
   -6.6210   18.7660  -33.3790 C   0  0  0  0  0  0  0  0  0  0  0  0
   -7.2636   18.5820  -34.2526 H   0  0  0  0  0  0  0  0  0  0  0  0
   -7.0190   18.1650  -32.0520 C   0  0  0  0  0  0  0  0  0  0  0  0
   -6.2843   18.4702  -31.2923 H   0  0  0  0  0  0  0  0  0  0  0  0
   -7.0446   17.0722  -32.1749 H   0  0  0  0  0  0  0  0  0  0  0  0
   -8.4140   18.6150  -31.5960 C   0  0  0  0  0  0  0  0  0  0  0  0
   -8.2979   19.2300  -30.6914 H   0  0  0  0  0  0  0  0  0  0  0  0
   -8.9967   17.6985  -31.4214 H   0  0  0  0  0  0  0  0  0  0  0  0
   -9.1940   19.4380  -32.6410 C   0  0  0  0  0  0  0  0  0  0  0  0
  -10.0663   18.8510  -32.9642 H   0  0  0  0  0  0  0  0  0  0  0  0
   -8.4991   19.6484  -33.4674 H   0  0  0  0  0  0  0  0  0  0  0  0
   -9.6920   20.8000  -32.1140 C   0  0  0  0  0  0  0  0  0  0  0  0
  -10.4772   20.6239  -31.3641 H   0  0  0  0  0  0  0  0  0  0  0  0
  -10.0772   21.3728  -32.9705 H   0  0  0  0  0  0  0  0  0  0  0  0
   -8.5650   21.6200  -31.4670 C   0  0  0  0  0  0  0  0  0  0  0  0
   -7.5969   21.1691  -31.7304 H   0  0  0  0  0  0  0  0  0  0  0  0
   -8.7126   21.6144  -30.3770 H   0  0  0  0  0  0  0  0  0  0  0  0
   -8.5870   23.0670  -31.9490 C   0  0  0  0  0  0  0  0  0  0  0  0
   -8.5973   23.7425  -31.0809 H   0  0  0  0  0  0  0  0  0  0  0  0
   -7.6918   23.2647  -32.5568 H   0  0  0  0  0  0  0  0  0  0  0  0
   -9.4878   23.2373  -32.5568 H   0  0  0  0  0  0  0  0  0  0  0  0
  1  2  1  0
  2  3  2  0
  3  4  1  0
  3  5  1  0
  5  6  1  0
  5  7  1  0
  5  8  1  0
  8  9  2  0
  8 10  1  0
 10 11  1  0
 11 12  1  0
 11 13  1  0
 11 14  1  0
 14 15  1  0
 14 16  1  0
 16 17  1  0
 16 18  1  0
 16 19  1  0
 14 20  1  0
 20 21  1  0
 20 22  1  0
 20 23  1  0
  2 24  1  0
 24 25  1  0
 24 26  2  0
 26 27  1  0
 26 28  1  0
 28 29  1  0
 28 30  1  0
 28 31  1  0
 31 32  1  0
 31 33  2  3
 33 34  1  0
 33 35  1  0
 35 36  1  0
 35 37  1  0
 35 38  1  0
 38 39  1  0
 38 40  1  0
 38 41  1  0
 41 42  1  0
 41 43  1  0
 41 44  1  0
 44 45  1  0
 44 46  1  0
 44 47  1  0
 47 48  1  0
 47 49  1  0
 47 50  1  0
 50 51  1  0
 50 52  1  0
 50 53  1  0
M  CHG  1  10  -1
M  END
>  <UniqueID>  (39) 
36

>  <SMILES>  (39) 
CCCCCCC=CC/C=C\C=CCC(=O)[N-]CC(C)C

>  <Energy>  (39) 
25.799881343535983

>  <Genealogy>  (39) 
CCCCCCC=CCC=CC=CCC(=O)[N-]CC(C)C (protonated)
CCCCCCC=CC/C=C\C=CCC(=O)[N-]CC(C)C (cis-trans isomerization)
CCCCCCC=CC/C=C\C=CCC(=O)[N-]CC(C)C (3D coordinates assigned)
CCCCCCC=CC/C=C\C=CCC(=O)[N-]CC(C)C (optimized conformer: 25.799881343535983 kcal/mol)

>  <smiles>  (39) 
CCCCCCC=CCC=CC=CCC(=O)NCC(C)C

>  <score_type>  (39) 
oracle

>  <origin>  (39) 
adgpu

>  <m_score__min__energy>  (39) 
-9.7400000000000002

>  <m_primary>  (39) 
energy

$$$$
39:0
     RDKit          3D

 23 23  0  0  0  0  0  0  0  0999 V2000
   -8.7340   20.0870  -31.6020 C   0  0  0  0  0  0  0  0  0  0  0  0
   -8.7400   21.5670  -31.9620 C   0  0  0  0  0  0  0  0  0  0  0  0
   -7.4540   22.1710  -31.6260 N   0  0  0  0  0  0  0  0  0  0  0  0
   -7.2740   23.3060  -30.9240 C   0  0  0  0  0  0  0  0  0  0  0  0
   -5.9230   23.5700  -30.8850 C   0  0  0  0  0  0  0  0  0  0  0  0
   -5.1330   24.9200  -30.0790 S   0  0  0  0  0  0  0  0  0  0  0  0
   -6.0470   26.1140  -30.0700 O   0  0  0  0  0  0  0  0  0  0  0  0
   -3.8790   25.2680  -30.8310 O   0  0  0  0  0  0  0  0  0  0  0  0
   -4.7170   24.5070  -28.4420 N   0  0  0  0  0  0  0  0  0  0  0  0
   -3.3740   23.9330  -28.4010 C   0  0  0  0  0  0  0  0  0  0  0  0
   -5.3340   22.5380  -31.5920 C   0  0  0  0  0  0  0  0  0  0  0  0
   -3.6200   22.3020  -31.8800 Cl  0  0  0  0  0  0  0  0  0  0  0  0
   -6.2870   21.7010  -32.0430 N   0  0  0  0  0  0  0  0  0  0  0  0
   -8.7335   19.9758  -30.5076 H   0  0  0  0  0  0  0  0  0  0  0  0
   -9.6302   19.6045  -32.0192 H   0  0  0  0  0  0  0  0  0  0  0  0
   -7.8339   19.6118  -32.0192 H   0  0  0  0  0  0  0  0  0  0  0  0
   -8.9232   21.6781  -33.0409 H   0  0  0  0  0  0  0  0  0  0  0  0
   -9.5344   22.0724  -31.3931 H   0  0  0  0  0  0  0  0  0  0  0  0
   -8.0660   23.9146  -30.4632 H   0  0  0  0  0  0  0  0  0  0  0  0
   -4.7090   25.3930  -27.8870 H   0  0  0  0  0  0  0  0  0  0  0  0
   -3.0637   23.8004  -27.3540 H   0  0  0  0  0  0  0  0  0  0  0  0
   -3.3766   22.9574  -28.9091 H   0  0  0  0  0  0  0  0  0  0  0  0
   -2.6706   24.6091  -28.9091 H   0  0  0  0  0  0  0  0  0  0  0  0
  1  2  1  0
  2  3  1  0
  3  4  1  0
  4  5  2  0
  5  6  1  0
  6  7  2  0
  6  8  2  0
  6  9  1  0
  9 10  1  0
  5 11  1  0
 11 12  1  0
 11 13  2  0
 13  3  1  0
  1 14  1  0
  1 15  1  0
  1 16  1  0
  2 17  1  0
  2 18  1  0
  4 19  1  0
  9 20  1  0
 10 21  1  0
 10 22  1  0
 10 23  1  0
M  END
>  <UniqueID>  (40) 
37

>  <SMILES>  (40) 
CCn1cc(S(=O)(=O)NC)c(Cl)n1

>  <Energy>  (40) 
45.06370666215785

>  <Genealogy>  (40) 
CCn1cc(S(=O)(=O)NC)c(Cl)n1 (3D coordinates assigned)
CCn1cc(S(=O)(=O)NC)c(Cl)n1 (optimized conformer: 45.06370666215785 kcal/mol)

>  <smiles>  (40) 
CCn1cc(S(=O)(=O)NC)c(Cl)n1

>  <score_type>  (40) 
oracle

>  <origin>  (40) 
adgpu

>  <m_score__min__energy>  (40) 
-6.2400000000000002

>  <m_primary>  (40) 
energy

$$$$
40:0
     RDKit          3D

 73 77  0  0  0  0  0  0  0  0999 V2000
   -7.9160   18.0180  -31.8340 C   0  0  0  0  0  0  0  0  0  0  0  0
   -7.7330   19.5060  -31.7900 C   0  0  0  0  0  0  0  0  0  0  0  0
   -8.8250   20.3670  -31.9790 C   0  0  0  0  0  0  0  0  0  0  0  0
   -8.6400   21.7530  -31.9770 C   0  0  0  0  0  0  0  0  0  0  0  0
   -7.3570   22.3000  -31.8170 C   0  0  0  0  0  0  0  0  0  0  0  0
   -7.1760   23.7940  -31.8090 C   0  0  0  0  0  0  0  0  0  0  0  0
   -6.2570   21.4340  -31.6320 C   0  0  0  0  0  0  0  0  0  0  0  0
   -4.9300   21.9530  -31.4660 N   0  0  0  0  0  0  0  0  0  0  0  0
   -3.8560   21.6680  -32.2360 C   0  0  0  0  0  0  0  0  0  0  0  0
   -3.8600   20.7340  -33.4070 C   0  0  0  0  0  0  0  0  0  0  0  0
   -2.7290   22.2810  -31.7260 C   0  0  0  0  0  0  0  0  0  0  0  0
   -3.1420   22.9980  -30.6180 C   0  0  0  0  0  0  0  0  0  0  0  0
   -2.2480   23.7480  -29.7150 C   0  0  0  0  0  0  0  0  0  0  0  0
   -2.5650   24.9150  -29.3640 O   0  0  0  0  0  0  0  0  0  0  0  0
   -1.0090   23.2000  -29.2560 N   0  0  0  0  0  0  0  0  0  0  0  0
   -0.4090   23.4390  -27.9730 C   0  0  0  0  0  0  0  0  0  0  0  0
    0.1940   24.6710  -27.6700 C   0  0  0  0  0  0  0  0  0  0  0  0
    0.8240   24.8710  -26.4330 C   0  0  0  0  0  0  0  0  0  0  0  0
    1.5660   26.4270  -26.0510 S   0  0  0  0  0  0  0  0  0  0  0  0
    2.7350   26.2020  -25.1310 O   0  0  0  0  0  0  0  0  0  0  0  0
    2.0890   27.0510  -27.3170 O   0  0  0  0  0  0  0  0  0  0  0  0
    0.4260   27.5390  -25.3160 N   0  0  0  0  0  0  0  0  0  0  0  0
   -0.9410   27.2640  -25.7690 C   0  0  0  0  0  0  0  0  0  0  0  0
   -1.6300   26.4350  -24.6990 C   0  0  0  0  0  0  0  0  0  0  0  0
   -0.8610   26.7090  -23.4250 C   0  0  0  0  0  0  0  0  0  0  0  0
    0.4150   27.4210  -23.8500 C   0  0  0  0  0  0  0  0  0  0  0  0
    0.8590   23.8300  -25.4980 C   0  0  0  0  0  0  0  0  0  0  0  0
    0.2490   22.6080  -25.7860 C   0  0  0  0  0  0  0  0  0  0  0  0
   -0.3830   22.4030  -27.0220 C   0  0  0  0  0  0  0  0  0  0  0  0
   -1.0300   21.1520  -27.2920 N   0  0  0  0  0  0  0  0  0  0  0  0
   -2.4890   21.1100  -27.4650 C   0  0  0  0  0  0  0  0  0  0  0  0
   -3.0790   19.7350  -27.0660 C   0  0  0  0  0  0  0  0  0  0  0  0
   -2.1040   18.7710  -26.7080 O   0  0  0  0  0  0  0  0  0  0  0  0
   -1.0880   18.7270  -27.6870 C   0  0  0  0  0  0  0  0  0  0  0  0
   -0.2080   19.9650  -27.5440 C   0  0  0  0  0  0  0  0  0  0  0  0
   -4.5060   22.7670  -30.4740 C   0  0  0  0  0  0  0  0  0  0  0  0
   -5.3840   23.2860  -29.3720 C   0  0  0  0  0  0  0  0  0  0  0  0
   -6.4520   20.0480  -31.6220 C   0  0  0  0  0  0  0  0  0  0  0  0
   -7.9645   17.6240  -30.8081 H   0  0  0  0  0  0  0  0  0  0  0  0
   -8.8503   17.7790  -32.3631 H   0  0  0  0  0  0  0  0  0  0  0  0
   -7.0675   17.5597  -32.3631 H   0  0  0  0  0  0  0  0  0  0  0  0
   -9.8315   19.9495  -32.1295 H   0  0  0  0  0  0  0  0  0  0  0  0
   -9.5061   22.4196  -32.1017 H   0  0  0  0  0  0  0  0  0  0  0  0
   -7.1326   24.1525  -30.7700 H   0  0  0  0  0  0  0  0  0  0  0  0
   -6.2399   24.0527  -32.3256 H   0  0  0  0  0  0  0  0  0  0  0  0
   -8.0232   24.2688  -32.3256 H   0  0  0  0  0  0  0  0  0  0  0  0
   -3.8645   19.6946  -33.0470 H   0  0  0  0  0  0  0  0  0  0  0  0
   -4.7574   20.9146  -34.0170 H   0  0  0  0  0  0  0  0  0  0  0  0
   -2.9611   20.9069  -34.0170 H   0  0  0  0  0  0  0  0  0  0  0  0
   -1.7052   22.2126  -32.1225 H   0  0  0  0  0  0  0  0  0  0  0  0
    0.1719   25.4855  -28.4089 H   0  0  0  0  0  0  0  0  0  0  0  0
   -1.4833   28.2097  -25.9159 H   0  0  0  0  0  0  0  0  0  0  0  0
   -0.9255   26.7194  -26.7246 H   0  0  0  0  0  0  0  0  0  0  0  0
   -2.6801   26.7436  -24.5892 H   0  0  0  0  0  0  0  0  0  0  0  0
   -1.6377   25.3643  -24.9512 H   0  0  0  0  0  0  0  0  0  0  0  0
   -1.4506   27.3499  -22.7530 H   0  0  0  0  0  0  0  0  0  0  0  0
   -0.6411   25.7795  -22.8794 H   0  0  0  0  0  0  0  0  0  0  0  0
    0.4471   28.4234  -23.3981 H   0  0  0  0  0  0  0  0  0  0  0  0
    1.2921   26.8482  -23.5145 H   0  0  0  0  0  0  0  0  0  0  0  0
    1.3684   23.9752  -24.5340 H   0  0  0  0  0  0  0  0  0  0  0  0
    0.2638   21.8005  -25.0392 H   0  0  0  0  0  0  0  0  0  0  0  0
   -2.9443   21.8885  -26.8352 H   0  0  0  0  0  0  0  0  0  0  0  0
   -2.7109   21.2802  -28.5289 H   0  0  0  0  0  0  0  0  0  0  0  0
   -3.7506   19.8829  -26.2075 H   0  0  0  0  0  0  0  0  0  0  0  0
   -3.6024   19.3445  -27.9512 H   0  0  0  0  0  0  0  0  0  0  0  0
   -0.4782   17.8225  -27.5455 H   0  0  0  0  0  0  0  0  0  0  0  0
   -1.5387   18.7047  -28.6902 H   0  0  0  0  0  0  0  0  0  0  0  0
    0.4866   19.8204  -26.7034 H   0  0  0  0  0  0  0  0  0  0  0  0
    0.3535   20.1126  -28.4783 H   0  0  0  0  0  0  0  0  0  0  0  0
   -4.9432   23.0254  -28.3985 H   0  0  0  0  0  0  0  0  0  0  0  0
   -5.4690   24.3796  -29.4551 H   0  0  0  0  0  0  0  0  0  0  0  0
   -6.3830   22.8332  -29.4551 H   0  0  0  0  0  0  0  0  0  0  0  0
   -5.5912   19.3778  -31.4809 H   0  0  0  0  0  0  0  0  0  0  0  0
  1  2  1  0
  2  3  2  0
  3  4  1  0
  4  5  2  0
  5  6  1  0
  5  7  1  0
  7  8  1  0
  8  9  1  0
  9 10  1  0
  9 11  2  0
 11 12  1  0
 12 13  1  0
 13 14  2  0
 13 15  1  0
 15 16  1  0
 16 17  2  0
 17 18  1  0
 18 19  1  0
 19 20  2  0
 19 21  2  0
 19 22  1  0
 22 23  1  0
 23 24  1  0
 24 25  1  0
 25 26  1  0
 18 27  2  0
 27 28  1  0
 28 29  2  0
 29 30  1  0
 30 31  1  0
 31 32  1  0
 32 33  1  0
 33 34  1  0
 34 35  1  0
 12 36  2  0
 36 37  1  0
  7 38  2  0
 38  2  1  0
 36  8  1  0
 29 16  1  0
 35 30  1  0
 26 22  1  0
  1 39  1  0
  1 40  1  0
  1 41  1  0
  3 42  1  0
  4 43  1  0
  6 44  1  0
  6 45  1  0
  6 46  1  0
 10 47  1  0
 10 48  1  0
 10 49  1  0
 11 50  1  0
 17 51  1  0
 23 52  1  0
 23 53  1  0
 24 54  1  0
 24 55  1  0
 25 56  1  0
 25 57  1  0
 26 58  1  0
 26 59  1  0
 27 60  1  0
 28 61  1  0
 31 62  1  0
 31 63  1  0
 32 64  1  0
 32 65  1  0
 34 66  1  0
 34 67  1  0
 35 68  1  0
 35 69  1  0
 37 70  1  0
 37 71  1  0
 37 72  1  0
 38 73  1  0
M  CHG  1  15  -1
M  END
>  <UniqueID>  (41) 
38

>  <SMILES>  (41) 
Cc1ccc(C)c(-n2c(C)cc(C(=O)[N-]c3cc(S(=O)(=O)N4CCCC4)ccc3N3CCOCC3)c2C)c1

>  <Energy>  (41) 
120.90349996776428

>  <Genealogy>  (41) 
Cc1ccc(C)c(-n2c(C)cc(C(=O)[N-]c3cc(S(=O)(=O)N4CCCC4)ccc3N3CCOCC3)c2C)c1 (protonated)
Cc1ccc(C)c(-n2c(C)cc(C(=O)[N-]c3cc(S(=O)(=O)N4CCCC4)ccc3N3CCOCC3)c2C)c1 (3D coordinates assigned)
Cc1ccc(C)c(-n2c(C)cc(C(=O)[N-]c3cc(S(=O)(=O)N4CCCC4)ccc3N3CCOCC3)c2C)c1 (nonaromatic ring conformer: 120.90349996776428 kcal/mol)

>  <smiles>  (41) 
Cc1ccc(C)c(-n2c(C)cc(C(=O)Nc3cc(S(=O)(=O)N4CCCC4)ccc3N3CCOCC3)c2C)c1

>  <score_type>  (41) 
oracle

>  <origin>  (41) 
adgpu

>  <m_score__min__energy>  (41) 
-12.5

>  <m_primary>  (41) 
energy

$$$$
41:0
     RDKit          3D

 45 49  0  0  0  0  0  0  0  0999 V2000
   -0.7160   25.8370  -24.6170 C   0  0  0  0  0  0  0  0  0  0  0  0
   -0.4030   24.9610  -25.6920 O   0  0  0  0  0  0  0  0  0  0  0  0
   -0.9200   25.1440  -26.9760 C   0  0  0  0  0  0  0  0  0  0  0  0
   -1.9380   24.4030  -27.5270 C   0  0  0  0  0  0  0  0  0  0  0  0
   -2.0870   24.9500  -28.7860 C   0  0  0  0  0  0  0  0  0  0  0  0
   -3.0630   24.5130  -29.7980 C   0  0  0  0  0  0  0  0  0  0  0  0
   -3.9920   25.3300  -30.3470 N   0  0  0  0  0  0  0  0  0  0  0  0
   -4.7110   24.6420  -31.2290 N   0  0  0  0  0  0  0  0  0  0  0  0
   -4.2360   23.3850  -31.2370 C   0  0  0  0  0  0  0  0  0  0  0  0
   -4.6730   22.3200  -32.0200 C   0  0  0  0  0  0  0  0  0  0  0  0
   -4.0050   21.0820  -31.8880 C   0  0  0  0  0  0  0  0  0  0  0  0
   -4.3770   19.9390  -32.7530 C   0  0  0  0  0  0  0  0  0  0  0  0
   -5.7370   19.6840  -33.0170 C   0  0  0  0  0  0  0  0  0  0  0  0
   -6.7070   20.4570  -32.4650 F   0  0  0  0  0  0  0  0  0  0  0  0
   -6.1050   18.6540  -33.8870 C   0  0  0  0  0  0  0  0  0  0  0  0
   -5.1270   17.8770  -34.5080 C   0  0  0  0  0  0  0  0  0  0  0  0
   -3.7770   18.1130  -34.2490 C   0  0  0  0  0  0  0  0  0  0  0  0
   -3.3890   19.1210  -33.3580 C   0  0  0  0  0  0  0  0  0  0  0  0
   -2.0180   19.2930  -33.1120 O   0  0  0  0  0  0  0  0  0  0  0  0
   -1.1180   19.9100  -33.9930 C   0  0  0  0  0  0  0  0  0  0  0  0
   -0.8950   21.3010  -33.9740 C   0  0  0  0  0  0  0  0  0  0  0  0
   -0.0170   21.8830  -34.8920 C   0  0  0  0  0  0  0  0  0  0  0  0
    0.6560   21.0870  -35.8220 C   0  0  0  0  0  0  0  0  0  0  0  0
    1.5230   21.6680  -36.7380 O   0  0  0  0  0  0  0  0  0  0  0  0
    0.4580   19.7020  -35.8270 C   0  0  0  0  0  0  0  0  0  0  0  0
   -0.4200   19.1160  -34.9100 C   0  0  0  0  0  0  0  0  0  0  0  0
   -2.9420   20.9520  -30.9550 C   0  0  0  0  0  0  0  0  0  0  0  0
   -2.5280   22.0500  -30.1800 C   0  0  0  0  0  0  0  0  0  0  0  0
   -3.2020   23.2580  -30.3550 C   0  0  0  0  0  0  0  0  0  0  0  0
   -1.2030   25.9530  -28.9570 N   0  0  0  0  0  0  0  0  0  0  0  0
   -0.4880   26.0740  -27.8490 N   0  0  0  0  0  0  0  0  0  0  0  0
   -0.5329   25.3244  -23.6611 H   0  0  0  0  0  0  0  0  0  0  0  0
   -0.0829   26.7344  -24.6790 H   0  0  0  0  0  0  0  0  0  0  0  0
   -1.7744   26.1300  -24.6790 H   0  0  0  0  0  0  0  0  0  0  0  0
   -2.4996   23.5729  -27.0736 H   0  0  0  0  0  0  0  0  0  0  0  0
   -5.5130   22.4388  -32.7203 H   0  0  0  0  0  0  0  0  0  0  0  0
   -7.1691   18.4554  -34.0827 H   0  0  0  0  0  0  0  0  0  0  0  0
   -5.4210   17.0768  -35.2031 H   0  0  0  0  0  0  0  0  0  0  0  0
   -3.0108   17.5022  -34.7488 H   0  0  0  0  0  0  0  0  0  0  0  0
   -1.4131   21.9300  -33.2351 H   0  0  0  0  0  0  0  0  0  0  0  0
    0.1447   22.9710  -34.8824 H   0  0  0  0  0  0  0  0  0  0  0  0
    0.9938   19.0732  -36.5533 H   0  0  0  0  0  0  0  0  0  0  0  0
   -0.5628   18.0253  -34.9094 H   0  0  0  0  0  0  0  0  0  0  0  0
   -2.4371   19.9818  -30.8373 H   0  0  0  0  0  0  0  0  0  0  0  0
   -1.7009   21.9590  -29.4605 H   0  0  0  0  0  0  0  0  0  0  0  0
  1  2  1  0
  2  3  1  0
  3  4  1  0
  4  5  2  0
  5  6  1  0
  6  7  1  0
  7  8  1  0
  8  9  2  0
  9 10  1  0
 10 11  2  0
 11 12  1  0
 12 13  2  0
 13 14  1  0
 13 15  1  0
 15 16  2  0
 16 17  1  0
 17 18  2  0
 18 19  1  0
 19 20  1  0
 20 21  2  0
 21 22  1  0
 22 23  2  0
 23 24  1  0
 23 25  1  0
 25 26  2  0
 11 27  1  0
 27 28  2  0
 28 29  1  0
  5 30  1  0
 30 31  1  0
 31  3  2  0
 29  6  2  0
 29  9  1  0
 18 12  1  0
 26 20  1  0
  1 32  1  0
  1 33  1  0
  1 34  1  0
  4 35  1  0
 10 36  1  0
 15 37  1  0
 16 38  1  0
 17 39  1  0
 21 40  1  0
 22 41  1  0
 25 42  1  0
 26 43  1  0
 27 44  1  0
 28 45  1  0
M  CHG  3   7  -1  24  -1  30  -1
M  END
>  <UniqueID>  (42) 
39

>  <SMILES>  (42) 
COc1cc(-c2[n-]nc3cc(-c4c(F)cccc4Oc4ccc([O-])cc4)ccc23)[n-]n1

>  <Energy>  (42) 
130.4159174390379

>  <Genealogy>  (42) 
COc1cc(-c2[n-]nc3cc(-c4c(F)cccc4Oc4ccc([O-])cc4)ccc23)[n-]n1 (protonated)
COc1cc(-c2[n-]nc3cc(-c4c(F)cccc4Oc4ccc([O-])cc4)ccc23)[n-]n1 (3D coordinates assigned)
COc1cc(-c2[n-]nc3cc(-c4c(F)cccc4Oc4ccc([O-])cc4)ccc23)[n-]n1 (optimized conformer: 130.4159174390379 kcal/mol)

>  <smiles>  (42) 
COc1cc(-c2[nH]nc3cc(-c4c(F)cccc4Oc4ccc(O)cc4)ccc23)[nH]n1

>  <score_type>  (42) 
oracle

>  <origin>  (42) 
adgpu

>  <m_score__min__energy>  (42) 
-13.050000000000001

>  <m_primary>  (42) 
energy

$$$$
42:0
     RDKit          3D

 43 45  0  0  0  0  0  0  0  0999 V2000
   -3.9790   25.6530  -30.8420 O   0  0  0  0  0  0  0  0  0  0  0  0
   -4.2820   24.5740  -30.2660 C   0  0  0  0  0  0  0  0  0  0  0  0
   -5.6530   24.1540  -30.2210 N   0  0  0  0  0  0  0  0  0  0  0  0
   -6.2470   23.0950  -30.9850 C   0  0  0  0  0  0  0  0  0  0  0  0
   -5.5190   22.3740  -31.9510 C   0  0  0  0  0  0  0  0  0  0  0  0
   -6.1250   21.3250  -32.6520 C   0  0  0  0  0  0  0  0  0  0  0  0
   -7.4540   20.9760  -32.3870 C   0  0  0  0  0  0  0  0  0  0  0  0
   -8.0440   19.9280  -33.0900 O   0  0  0  0  0  0  0  0  0  0  0  0
   -8.1760   21.6800  -31.4130 C   0  0  0  0  0  0  0  0  0  0  0  0
   -7.5710   22.7280  -30.7110 C   0  0  0  0  0  0  0  0  0  0  0  0
   -3.2330   23.7570  -29.5990 C   0  0  0  0  0  0  0  0  0  0  0  0
   -3.4490   22.3830  -29.3900 C   0  0  0  0  0  0  0  0  0  0  0  0
   -2.4770   21.5920  -28.7750 C   0  0  0  0  0  0  0  0  0  0  0  0
   -1.2640   22.1490  -28.3630 C   0  0  0  0  0  0  0  0  0  0  0  0
   -0.3000   21.2970  -27.7280 N   0  0  0  0  0  0  0  0  0  0  0  0
    0.1940   19.7400  -28.3070 S   0  0  0  0  0  0  0  0  0  0  0  0
   -0.8330   18.7190  -27.9050 O   0  0  0  0  0  0  0  0  0  0  0  0
    1.5130   19.3800  -27.6840 O   0  0  0  0  0  0  0  0  0  0  0  0
    0.3830   19.7770  -30.0570 C   0  0  0  0  0  0  0  0  0  0  0  0
    1.4880   19.1660  -30.6640 C   0  0  0  0  0  0  0  0  0  0  0  0
    1.6190   19.1730  -32.0530 C   0  0  0  0  0  0  0  0  0  0  0  0
    0.6500   19.7930  -32.8470 C   0  0  0  0  0  0  0  0  0  0  0  0
   -0.4560   20.4270  -32.2510 C   0  0  0  0  0  0  0  0  0  0  0  0
   -1.5230   21.0970  -33.0800 C   0  0  0  0  0  0  0  0  0  0  0  0
   -0.9270   21.8180  -34.0980 F   0  0  0  0  0  0  0  0  0  0  0  0
   -2.2960   21.9590  -32.3190 F   0  0  0  0  0  0  0  0  0  0  0  0
   -2.3520   20.1380  -33.6330 F   0  0  0  0  0  0  0  0  0  0  0  0
   -0.5820   20.4080  -30.8510 C   0  0  0  0  0  0  0  0  0  0  0  0
   -1.0330   23.5180  -28.5700 C   0  0  0  0  0  0  0  0  0  0  0  0
   -2.0070   24.3210  -29.1750 C   0  0  0  0  0  0  0  0  0  0  0  0
   -1.7400   25.6740  -29.3420 O   0  0  0  0  0  0  0  0  0  0  0  0
   -4.4704   22.6361  -32.1554 H   0  0  0  0  0  0  0  0  0  0  0  0
   -5.5547   20.7731  -33.4137 H   0  0  0  0  0  0  0  0  0  0  0  0
   -8.3840   20.0500  -34.0380 H   0  0  0  0  0  0  0  0  0  0  0  0
   -9.2203   21.4078  -31.2003 H   0  0  0  0  0  0  0  0  0  0  0  0
   -8.1387   23.2676  -29.9386 H   0  0  0  0  0  0  0  0  0  0  0  0
   -4.3954   21.9262  -29.7151 H   0  0  0  0  0  0  0  0  0  0  0  0
   -2.6679   20.5208  -28.6134 H   0  0  0  0  0  0  0  0  0  0  0  0
    2.2548   18.6792  -30.0435 H   0  0  0  0  0  0  0  0  0  0  0  0
    2.4872   18.6893  -32.5245 H   0  0  0  0  0  0  0  0  0  0  0  0
    0.7524   19.7853  -33.9422 H   0  0  0  0  0  0  0  0  0  0  0  0
   -1.4468   20.8934  -30.3750 H   0  0  0  0  0  0  0  0  0  0  0  0
   -0.0783   23.9637  -28.2540 H   0  0  0  0  0  0  0  0  0  0  0  0
  1  2  2  0
  2  3  1  0
  3  4  1  0
  4  5  2  0
  5  6  1  0
  6  7  2  0
  7  8  1  0
  7  9  1  0
  9 10  2  0
  2 11  1  0
 11 12  2  0
 12 13  1  0
 13 14  2  0
 14 15  1  0
 15 16  1  0
 16 17  2  0
 16 18  2  0
 16 19  1  0
 19 20  2  0
 20 21  1  0
 21 22  2  0
 22 23  1  0
 23 24  1  0
 24 25  1  0
 24 26  1  0
 24 27  1  0
 23 28  2  0
 14 29  1  0
 29 30  2  0
 30 31  1  0
 10  4  1  0
 30 11  1  0
 28 19  1  0
  5 32  1  0
  6 33  1  0
  8 34  1  0
  9 35  1  0
 10 36  1  0
 12 37  1  0
 13 38  1  0
 20 39  1  0
 21 40  1  0
 22 41  1  0
 28 42  1  0
 29 43  1  0
M  CHG  3   3  -1  15  -1  31  -1
M  END
>  <UniqueID>  (43) 
40

>  <SMILES>  (43) 
O=C([N-]c1ccc(O)cc1)c1ccc([N-]S(=O)(=O)c2cccc(C(F)(F)F)c2)cc1[O-]

>  <Energy>  (43) 
55.23924674143769

>  <Genealogy>  (43) 
O=C([N-]c1ccc(O)cc1)c1ccc([N-]S(=O)(=O)c2cccc(C(F)(F)F)c2)cc1[O-] (protonated)
O=C([N-]c1ccc(O)cc1)c1ccc([N-]S(=O)(=O)c2cccc(C(F)(F)F)c2)cc1[O-] (3D coordinates assigned)
O=C([N-]c1ccc(O)cc1)c1ccc([N-]S(=O)(=O)c2cccc(C(F)(F)F)c2)cc1[O-] (optimized conformer: 55.23924674143769 kcal/mol)

>  <smiles>  (43) 
O=C(Nc1ccc(O)cc1)c1ccc(NS(=O)(=O)c2cccc(C(F)(F)F)c2)cc1O

>  <score_type>  (43) 
oracle

>  <origin>  (43) 
adgpu

>  <m_score__min__energy>  (43) 
-13.09

>  <m_primary>  (43) 
energy

$$$$
43:0
     RDKit          3D

 71 75  0  0  0  0  0  0  0  0999 V2000
   -0.5580   18.8090  -36.0330 H   0  0  0  0  0  0  0  0  0  0  0  0
   -0.0510   19.6930  -35.8080 N   0  0  0  0  0  0  0  0  0  0  0  0
   -0.0360   20.1940  -34.6140 C   0  0  0  0  0  0  0  0  0  0  0  0
    0.5890   21.3440  -34.3100 N   0  0  0  0  0  0  0  0  0  0  0  0
    0.3440   21.5760  -33.0280 N   0  0  0  0  0  0  0  0  0  0  0  0
   -0.4210   20.5610  -32.5720 C   0  0  0  0  0  0  0  0  0  0  0  0
   -0.9130   20.4840  -31.1770 C   0  0  0  0  0  0  0  0  0  0  0  0
   -0.0210   20.2010  -30.1330 C   0  0  0  0  0  0  0  0  0  0  0  0
    1.0488   20.0640  -30.3495 H   0  0  0  0  0  0  0  0  0  0  0  0
   -0.4710   20.0950  -28.8550 N   0  0  0  0  0  0  0  0  0  0  0  0
   -1.7880   20.2440  -28.5410 C   0  0  0  0  0  0  0  0  0  0  0  0
   -2.2290   20.1300  -27.2200 O   0  0  0  0  0  0  0  0  0  0  0  0
   -2.8570   18.9570  -26.7160 C   0  0  0  0  0  0  0  0  0  0  0  0
   -2.8454   18.9786  -25.6163 H   0  0  0  0  0  0  0  0  0  0  0  0
   -3.8973   18.9167  -27.0710 H   0  0  0  0  0  0  0  0  0  0  0  0
   -2.3137   18.0688  -27.0710 H   0  0  0  0  0  0  0  0  0  0  0  0
   -2.7130   20.5130  -29.5520 C   0  0  0  0  0  0  0  0  0  0  0  0
   -3.7797   20.6301  -29.3104 H   0  0  0  0  0  0  0  0  0  0  0  0
   -2.2740   20.6320  -30.8700 C   0  0  0  0  0  0  0  0  0  0  0  0
   -2.9971   20.8426  -31.6718 H   0  0  0  0  0  0  0  0  0  0  0  0
   -0.6700   19.6610  -33.5500 N   0  0  0  0  0  0  0  0  0  0  0  0
   -1.5940   18.5640  -33.5390 C   0  0  0  0  0  0  0  0  0  0  0  0
   -2.8680   18.7370  -34.1000 C   0  0  0  0  0  0  0  0  0  0  0  0
   -3.1367   19.7012  -34.5563 H   0  0  0  0  0  0  0  0  0  0  0  0
   -3.8020   17.6910  -34.0840 C   0  0  0  0  0  0  0  0  0  0  0  0
   -5.1210   17.8560  -34.7280 C   0  0  0  0  0  0  0  0  0  0  0  0
   -5.2220   17.7760  -35.9810 O   0  0  0  0  0  0  0  0  0  0  0  0
   -6.3020   18.0550  -33.9460 N   0  0  0  0  0  0  0  0  0  0  0  0
   -6.5090   19.1730  -33.0730 C   0  0  0  0  0  0  0  0  0  0  0  0
   -5.5000   19.5360  -32.1870 C   0  0  0  0  0  0  0  0  0  0  0  0
   -4.5433   18.9933  -32.1965 H   0  0  0  0  0  0  0  0  0  0  0  0
   -5.6930   20.5820  -31.2880 C   0  0  0  0  0  0  0  0  0  0  0  0
   -4.8828   20.8543  -30.5956 H   0  0  0  0  0  0  0  0  0  0  0  0
   -6.9070   21.2990  -31.2480 C   0  0  0  0  0  0  0  0  0  0  0  0
   -7.0190   22.4680  -30.2710 C   0  0  0  0  0  0  0  0  0  0  0  0
   -8.0857   22.6336  -30.0593 H   0  0  0  0  0  0  0  0  0  0  0  0
   -6.4344   22.1819  -29.3842 H   0  0  0  0  0  0  0  0  0  0  0  0
   -6.4410   23.7500  -30.7500 N   0  0  0  0  0  0  0  0  0  0  0  0
   -6.1650   24.7860  -29.7330 C   0  0  0  0  0  0  0  0  0  0  0  0
   -6.5285   25.7536  -30.1093 H   0  0  0  0  0  0  0  0  0  0  0  0
   -6.6808   24.4881  -28.8082 H   0  0  0  0  0  0  0  0  0  0  0  0
   -4.6640   24.9170  -29.4060 C   0  0  0  0  0  0  0  0  0  0  0  0
   -4.2371   25.7440  -29.9923 H   0  0  0  0  0  0  0  0  0  0  0  0
   -4.5514   25.1158  -28.3300 H   0  0  0  0  0  0  0  0  0  0  0  0
   -3.9510   23.6710  -29.7360 N   0  0  0  0  0  0  0  0  0  0  0  0
   -2.5600   23.7300  -29.2680 C   0  0  0  0  0  0  0  0  0  0  0  0
   -2.5429   23.7307  -28.1681 H   0  0  0  0  0  0  0  0  0  0  0  0
   -2.0096   22.8544  -29.6427 H   0  0  0  0  0  0  0  0  0  0  0  0
   -2.0857   24.6491  -29.6427 H   0  0  0  0  0  0  0  0  0  0  0  0
   -3.9970   23.3940  -31.1850 C   0  0  0  0  0  0  0  0  0  0  0  0
   -3.2676   24.0419  -31.6931 H   0  0  0  0  0  0  0  0  0  0  0  0
   -3.7588   22.3305  -31.3337 H   0  0  0  0  0  0  0  0  0  0  0  0
   -5.3950   23.6550  -31.7830 C   0  0  0  0  0  0  0  0  0  0  0  0
   -5.3675   24.6000  -32.3453 H   0  0  0  0  0  0  0  0  0  0  0  0
   -5.6444   22.8044  -32.4343 H   0  0  0  0  0  0  0  0  0  0  0  0
   -7.9890   20.8490  -32.0650 C   0  0  0  0  0  0  0  0  0  0  0  0
   -9.4140   21.3410  -31.8710 C   0  0  0  0  0  0  0  0  0  0  0  0
   -9.5530   22.6230  -32.3520 F   0  0  0  0  0  0  0  0  0  0  0  0
  -10.3310   20.5390  -32.5300 F   0  0  0  0  0  0  0  0  0  0  0  0
   -9.7370   21.3160  -30.5260 F   0  0  0  0  0  0  0  0  0  0  0  0
   -7.7490   19.8250  -33.0070 C   0  0  0  0  0  0  0  0  0  0  0  0
   -8.5498   19.5330  -33.7023 H   0  0  0  0  0  0  0  0  0  0  0  0
   -3.4510   16.4670  -33.4960 C   0  0  0  0  0  0  0  0  0  0  0  0
   -4.1843   15.6479  -33.4604 H   0  0  0  0  0  0  0  0  0  0  0  0
   -2.1760   16.2810  -32.9550 C   0  0  0  0  0  0  0  0  0  0  0  0
   -1.9063   15.3100  -32.5141 H   0  0  0  0  0  0  0  0  0  0  0  0
   -1.2370   17.3240  -32.9700 C   0  0  0  0  0  0  0  0  0  0  0  0
    0.1310   17.1090  -32.3850 C   0  0  0  0  0  0  0  0  0  0  0  0
    0.0660   17.1192  -31.2870 H   0  0  0  0  0  0  0  0  0  0  0  0
    0.5246   16.1380  -32.7200 H   0  0  0  0  0  0  0  0  0  0  0  0
    0.8035   17.9125  -32.7200 H   0  0  0  0  0  0  0  0  0  0  0  0
  1  2  1  0
  2  3  2  0
  3  4  1  0
  4  5  1  0
  5  6  2  0
  6  7  1  0
  7  8  2  0
  8  9  1  0
  8 10  1  0
 10 11  2  0
 11 12  1  0
 12 13  1  0
 13 14  1  0
 13 15  1  0
 13 16  1  0
 11 17  1  0
 17 18  1  0
 17 19  2  0
 19 20  1  0
  6 21  1  0
 21 22  1  0
 22 23  2  0
 23 24  1  0
 23 25  1  0
 25 26  1  0
 26 27  2  0
 26 28  1  0
 28 29  1  0
 29 30  2  0
 30 31  1  0
 30 32  1  0
 32 33  1  0
 32 34  2  0
 34 35  1  0
 35 36  1  0
 35 37  1  0
 35 38  1  0
 38 39  1  0
 39 40  1  0
 39 41  1  0
 39 42  1  0
 42 43  1  0
 42 44  1  0
 42 45  1  0
 45 46  1  0
 46 47  1  0
 46 48  1  0
 46 49  1  0
 45 50  1  0
 50 51  1  0
 50 52  1  0
 50 53  1  0
 53 54  1  0
 53 55  1  0
 34 56  1  0
 56 57  1  0
 57 58  1  0
 57 59  1  0
 57 60  1  0
 56 61  2  0
 61 62  1  0
 25 63  2  0
 63 64  1  0
 63 65  1  0
 65 66  1  0
 65 67  2  0
 67 68  1  0
 68 69  1  0
 68 70  1  0
 68 71  1  0
 21  3  1  0
 67 22  1  0
 19  7  1  0
 61 29  1  0
 53 38  1  0
M  CHG  2   4  -1  28  -1
M  END
>  <UniqueID>  (44) 
41

>  <SMILES>  (44) 
[H]/N=c1/[n-]nc(-c2ccc(OC)nc2)n1-c1cc(C(=O)[N-]c2ccc(CN3CCN(C)CC3)c(C(F)(F)F)c2)ccc1C

>  <Energy>  (44) 
145.87952139834113

>  <Genealogy>  (44) 
COc1ccc(-c2n[n-]c(=N)n2-c2cc(C(=O)[N-]c3ccc(CN4CCN(C)CC4)c(C(F)(F)F)c3)ccc2C)cn1 (protonated)
[H]/N=c1/[n-]nc(-c2ccc(OC)nc2)n1-c1cc(C(=O)[N-]c2ccc(CN3CCN(C)CC3)c(C(F)(F)F)c2)ccc1C (cis-trans isomerization)
[H]/N=c1/[n-]nc(-c2ccc(OC)nc2)n1-c1cc(C(=O)[N-]c2ccc(CN3CCN(C)CC3)c(C(F)(F)F)c2)ccc1C (3D coordinates assigned)
[H]/N=c1/[n-]nc(-c2ccc(OC)nc2)n1-c1cc(C(=O)[N-]c2ccc(CN3CCN(C)CC3)c(C(F)(F)F)c2)ccc1C (nonaromatic ring conformer: 145.87952139834113 kcal/mol)

>  <smiles>  (44) 
COc1ccc(-c2n[nH]c(=N)n2-c2cc(C(=O)Nc3ccc(CN4CCN(C)CC4)c(C(F)(F)F)c3)ccc2C)cn1

>  <score_type>  (44) 
oracle

>  <origin>  (44) 
adgpu

>  <m_score__min__energy>  (44) 
-10.83

>  <m_primary>  (44) 
energy

$$$$
44:0
     RDKit          3D

 60 62  0  0  0  0  0  0  0  0999 V2000
   -2.3660   19.3390  -26.5020 C   0  0  0  0  0  0  0  0  0  0  0  0
   -0.9460   19.5810  -26.7820 N   0  0  0  0  0  0  0  0  0  0  0  0
   -0.5860   19.0190  -28.0900 C   0  0  0  0  0  0  0  0  0  0  0  0
   -0.6230   21.2990  -26.7710 S   0  0  0  0  0  0  0  0  0  0  0  0
    0.8260   21.5340  -27.0950 O   0  0  0  0  0  0  0  0  0  0  0  0
   -0.8860   21.8520  -25.3980 O   0  0  0  0  0  0  0  0  0  0  0  0
   -1.6270   22.1550  -27.9440 C   0  0  0  0  0  0  0  0  0  0  0  0
   -1.1080   22.4940  -29.2010 C   0  0  0  0  0  0  0  0  0  0  0  0
   -1.9050   23.1560  -30.1390 C   0  0  0  0  0  0  0  0  0  0  0  0
   -3.2410   23.4710  -29.8370 C   0  0  0  0  0  0  0  0  0  0  0  0
   -4.0980   24.1510  -30.7660 N   0  0  0  0  0  0  0  0  0  0  0  0
   -5.3610   23.6960  -31.2650 C   0  0  0  0  0  0  0  0  0  0  0  0
   -5.8540   24.1840  -32.3170 O   0  0  0  0  0  0  0  0  0  0  0  0
   -6.0540   22.6590  -30.5660 N   0  0  0  0  0  0  0  0  0  0  0  0
   -7.1650   21.9600  -31.1430 C   0  0  0  0  0  0  0  0  0  0  0  0
   -8.4230   22.0550  -30.5370 C   0  0  0  0  0  0  0  0  0  0  0  0
   -9.5300   21.4390  -31.1210 C   0  0  0  0  0  0  0  0  0  0  0  0
   -9.3660   20.7280  -32.3100 C   0  0  0  0  0  0  0  0  0  0  0  0
   -8.1340   20.6120  -32.8690 N   0  0  0  0  0  0  0  0  0  0  0  0
   -7.0280   21.1790  -32.3150 C   0  0  0  0  0  0  0  0  0  0  0  0
   -5.7870   20.9680  -32.9370 O   0  0  0  0  0  0  0  0  0  0  0  0
   -5.3110   19.7360  -33.4230 C   0  0  0  0  0  0  0  0  0  0  0  0
   -6.1190   18.9480  -34.2680 C   0  0  0  0  0  0  0  0  0  0  0  0
   -5.6790   17.7130  -34.7330 C   0  0  0  0  0  0  0  0  0  0  0  0
   -4.4140   17.2560  -34.3870 C   0  0  0  0  0  0  0  0  0  0  0  0
   -3.5780   18.0330  -33.5890 C   0  0  0  0  0  0  0  0  0  0  0  0
   -3.9910   19.2990  -33.0950 C   0  0  0  0  0  0  0  0  0  0  0  0
   -3.0290   20.1810  -32.2510 C   0  0  0  0  0  0  0  0  0  0  0  0
   -2.8560   21.5670  -32.9100 C   0  0  0  0  0  0  0  0  0  0  0  0
   -1.6540   19.4880  -32.1210 C   0  0  0  0  0  0  0  0  0  0  0  0
   -3.5450   20.4310  -30.8090 C   0  0  0  0  0  0  0  0  0  0  0  0
   -3.7470   23.1510  -28.5700 C   0  0  0  0  0  0  0  0  0  0  0  0
   -2.9490   22.4930  -27.6300 C   0  0  0  0  0  0  0  0  0  0  0  0
   -2.5257   19.3118  -25.4140 H   0  0  0  0  0  0  0  0  0  0  0  0
   -2.9692   20.1473  -26.9411 H   0  0  0  0  0  0  0  0  0  0  0  0
   -2.6675   18.3765  -26.9411 H   0  0  0  0  0  0  0  0  0  0  0  0
    0.0022   18.1008  -27.9452 H   0  0  0  0  0  0  0  0  0  0  0  0
   -1.5015   18.7832  -28.6523 H   0  0  0  0  0  0  0  0  0  0  0  0
    0.0110   19.7521  -28.6523 H   0  0  0  0  0  0  0  0  0  0  0  0
   -0.0678   22.2377  -29.4506 H   0  0  0  0  0  0  0  0  0  0  0  0
   -1.4850   23.4316  -31.1176 H   0  0  0  0  0  0  0  0  0  0  0  0
   -5.8320   22.5060  -29.5570 H   0  0  0  0  0  0  0  0  0  0  0  0
   -8.5390   22.6166  -29.5983 H   0  0  0  0  0  0  0  0  0  0  0  0
  -10.5210   21.5130  -30.6493 H   0  0  0  0  0  0  0  0  0  0  0  0
  -10.2357   20.2608  -32.7952 H   0  0  0  0  0  0  0  0  0  0  0  0
   -7.1126   19.3155  -34.5641 H   0  0  0  0  0  0  0  0  0  0  0  0
   -6.3310   17.1002  -35.3728 H   0  0  0  0  0  0  0  0  0  0  0  0
   -4.0703   16.2744  -34.7454 H   0  0  0  0  0  0  0  0  0  0  0  0
   -2.5755   17.6579  -33.3356 H   0  0  0  0  0  0  0  0  0  0  0  0
   -2.7601   22.3352  -32.1285 H   0  0  0  0  0  0  0  0  0  0  0  0
   -1.9511   21.5653  -33.5354 H   0  0  0  0  0  0  0  0  0  0  0  0
   -3.7336   21.7877  -33.5354 H   0  0  0  0  0  0  0  0  0  0  0  0
   -1.4056   19.3628  -31.0567 H   0  0  0  0  0  0  0  0  0  0  0  0
   -1.6930   18.5019  -32.6069 H   0  0  0  0  0  0  0  0  0  0  0  0
   -0.8845   20.1060  -32.6069 H   0  0  0  0  0  0  0  0  0  0  0  0
   -2.7996   20.0699  -30.0851 H   0  0  0  0  0  0  0  0  0  0  0  0
   -3.7090   21.5084  -30.6599 H   0  0  0  0  0  0  0  0  0  0  0  0
   -4.4922   19.8919  -30.6599 H   0  0  0  0  0  0  0  0  0  0  0  0
   -4.7821   23.4202  -28.3128 H   0  0  0  0  0  0  0  0  0  0  0  0
   -3.3603   22.2402  -26.6416 H   0  0  0  0  0  0  0  0  0  0  0  0
  1  2  1  0
  2  3  1  0
  2  4  1  0
  4  5  2  0
  4  6  2  0
  4  7  1  0
  7  8  2  0
  8  9  1  0
  9 10  2  0
 10 11  1  0
 11 12  1  0
 12 13  2  0
 12 14  1  0
 14 15  1  0
 15 16  2  0
 16 17  1  0
 17 18  2  0
 18 19  1  0
 19 20  2  0
 20 21  1  0
 21 22  1  0
 22 23  2  0
 23 24  1  0
 24 25  2  0
 25 26  1  0
 26 27  2  0
 27 28  1  0
 28 29  1  0
 28 30  1  0
 28 31  1  0
 10 32  1  0
 32 33  2  0
 33  7  1  0
 20 15  1  0
 27 22  1  0
  1 34  1  0
  1 35  1  0
  1 36  1  0
  3 37  1  0
  3 38  1  0
  3 39  1  0
  8 40  1  0
  9 41  1  0
 14 42  1  0
 16 43  1  0
 17 44  1  0
 18 45  1  0
 23 46  1  0
 24 47  1  0
 25 48  1  0
 26 49  1  0
 29 50  1  0
 29 51  1  0
 29 52  1  0
 30 53  1  0
 30 54  1  0
 30 55  1  0
 31 56  1  0
 31 57  1  0
 31 58  1  0
 32 59  1  0
 33 60  1  0
M  CHG  1  11  -1
M  END
>  <UniqueID>  (45) 
42

>  <SMILES>  (45) 
CN(C)S(=O)(=O)c1ccc([N-]C(=O)Nc2cccnc2Oc2ccccc2C(C)(C)C)cc1

>  <Energy>  (45) 
78.50869893194051

>  <Genealogy>  (45) 
CN(C)S(=O)(=O)c1ccc([N-]C(=O)Nc2cccnc2Oc2ccccc2C(C)(C)C)cc1 (protonated)
CN(C)S(=O)(=O)c1ccc([N-]C(=O)Nc2cccnc2Oc2ccccc2C(C)(C)C)cc1 (3D coordinates assigned)
CN(C)S(=O)(=O)c1ccc([N-]C(=O)Nc2cccnc2Oc2ccccc2C(C)(C)C)cc1 (optimized conformer: 78.50869893194051 kcal/mol)

>  <smiles>  (45) 
CN(C)S(=O)(=O)c1ccc(NC(=O)Nc2cccnc2Oc2ccccc2C(C)(C)C)cc1

>  <score_type>  (45) 
oracle

>  <origin>  (45) 
adgpu

>  <m_score__min__energy>  (45) 
-11.27

>  <m_primary>  (45) 
energy

$$$$
45:0
     RDKit          3D

 42 44  0  0  0  0  0  0  0  0999 V2000
   -0.5350   20.2000  -34.8980 C   0  0  0  0  0  0  0  0  0  0  0  0
   -0.4830   20.0340  -33.4070 C   0  0  0  0  0  0  0  0  0  0  0  0
   -0.2700   21.1490  -32.5860 C   0  0  0  0  0  0  0  0  0  0  0  0
   -0.1930   21.0000  -31.1970 C   0  0  0  0  0  0  0  0  0  0  0  0
   -0.3290   19.7310  -30.6170 C   0  0  0  0  0  0  0  0  0  0  0  0
   -0.2320   19.5190  -28.8710 S   0  0  0  0  0  0  0  0  0  0  0  0
    1.1430   19.8450  -28.3610 O   0  0  0  0  0  0  0  0  0  0  0  0
   -0.5450   18.0870  -28.5390 O   0  0  0  0  0  0  0  0  0  0  0  0
   -1.3940   20.5490  -28.0990 N   0  0  0  0  0  0  0  0  0  0  0  0
   -1.9540   21.7360  -28.6760 C   0  0  0  0  0  0  0  0  0  0  0  0
   -1.3310   22.9620  -28.4270 C   0  0  0  0  0  0  0  0  0  0  0  0
   -1.8610   24.1470  -28.9450 C   0  0  0  0  0  0  0  0  0  0  0  0
   -1.0810   25.6770  -28.5670 Cl  0  0  0  0  0  0  0  0  0  0  0  0
   -3.0150   24.1120  -29.7380 C   0  0  0  0  0  0  0  0  0  0  0  0
   -3.5450   25.3020  -30.2300 O   0  0  0  0  0  0  0  0  0  0  0  0
   -3.6340   22.8820  -30.0210 C   0  0  0  0  0  0  0  0  0  0  0  0
   -5.0960   22.7860  -31.0060 S   0  0  0  0  0  0  0  0  0  0  0  0
   -6.3280   22.8080  -30.1450 O   0  0  0  0  0  0  0  0  0  0  0  0
   -5.1570   23.9700  -31.9310 O   0  0  0  0  0  0  0  0  0  0  0  0
   -5.0470   21.2970  -31.9430 C   0  0  0  0  0  0  0  0  0  0  0  0
   -6.1850   20.4840  -32.0340 C   0  0  0  0  0  0  0  0  0  0  0  0
   -6.1570   19.3200  -32.8050 C   0  0  0  0  0  0  0  0  0  0  0  0
   -4.9950   18.9670  -33.5000 C   0  0  0  0  0  0  0  0  0  0  0  0
   -4.9630   17.3830  -34.5650 Br  0  0  0  0  0  0  0  0  0  0  0  0
   -3.8570   19.7790  -33.4180 C   0  0  0  0  0  0  0  0  0  0  0  0
   -3.8840   20.9430  -32.6430 C   0  0  0  0  0  0  0  0  0  0  0  0
   -3.1080   21.7030  -29.4770 C   0  0  0  0  0  0  0  0  0  0  0  0
   -0.5500   18.6170  -31.4350 C   0  0  0  0  0  0  0  0  0  0  0  0
   -0.6230   18.7650  -32.8230 C   0  0  0  0  0  0  0  0  0  0  0  0
   -0.8556   21.2236  -35.1420 H   0  0  0  0  0  0  0  0  0  0  0  0
    0.4633   20.0175  -35.3223 H   0  0  0  0  0  0  0  0  0  0  0  0
   -1.2508   19.4806  -35.3223 H   0  0  0  0  0  0  0  0  0  0  0  0
   -0.1627   22.1471  -33.0359 H   0  0  0  0  0  0  0  0  0  0  0  0
   -0.0254   21.8802  -30.5589 H   0  0  0  0  0  0  0  0  0  0  0  0
   -0.4155   22.9946  -27.8180 H   0  0  0  0  0  0  0  0  0  0  0  0
   -7.1031   20.7637  -31.4964 H   0  0  0  0  0  0  0  0  0  0  0  0
   -7.0495   18.6799  -32.8660 H   0  0  0  0  0  0  0  0  0  0  0  0
   -2.9425   19.5016  -33.9627 H   0  0  0  0  0  0  0  0  0  0  0  0
   -2.9910   21.5825  -32.5822 H   0  0  0  0  0  0  0  0  0  0  0  0
   -3.6033   20.7418  -29.6789 H   0  0  0  0  0  0  0  0  0  0  0  0
   -0.6667   17.6207  -30.9836 H   0  0  0  0  0  0  0  0  0  0  0  0
   -0.7907   17.8840  -33.4600 H   0  0  0  0  0  0  0  0  0  0  0  0
  1  2  1  0
  2  3  2  0
  3  4  1  0
  4  5  2  0
  5  6  1  0
  6  7  2  0
  6  8  2  0
  6  9  1  0
  9 10  1  0
 10 11  2  0
 11 12  1  0
 12 13  1  0
 12 14  2  0
 14 15  1  0
 14 16  1  0
 16 17  1  0
 17 18  2  0
 17 19  2  0
 17 20  1  0
 20 21  2  0
 21 22  1  0
 22 23  2  0
 23 24  1  0
 23 25  1  0
 25 26  2  0
 16 27  2  0
  5 28  1  0
 28 29  2  0
 29  2  1  0
 27 10  1  0
 26 20  1  0
  1 30  1  0
  1 31  1  0
  1 32  1  0
  3 33  1  0
  4 34  1  0
 11 35  1  0
 21 36  1  0
 22 37  1  0
 25 38  1  0
 26 39  1  0
 27 40  1  0
 28 41  1  0
 29 42  1  0
M  CHG  2   9  -1  15  -1
M  END
>  <UniqueID>  (46) 
43

>  <SMILES>  (46) 
Cc1ccc(S(=O)(=O)[N-]c2cc(Cl)c([O-])c(S(=O)(=O)c3ccc(Br)cc3)c2)cc1

>  <Energy>  (46) 
46.9756892593801

>  <Genealogy>  (46) 
Cc1ccc(S(=O)(=O)[N-]c2cc(Cl)c([O-])c(S(=O)(=O)c3ccc(Br)cc3)c2)cc1 (protonated)
Cc1ccc(S(=O)(=O)[N-]c2cc(Cl)c([O-])c(S(=O)(=O)c3ccc(Br)cc3)c2)cc1 (3D coordinates assigned)
Cc1ccc(S(=O)(=O)[N-]c2cc(Cl)c([O-])c(S(=O)(=O)c3ccc(Br)cc3)c2)cc1 (optimized conformer: 46.9756892593801 kcal/mol)

>  <smiles>  (46) 
Cc1ccc(S(=O)(=O)Nc2cc(Cl)c(O)c(S(=O)(=O)c3ccc(Br)cc3)c2)cc1

>  <score_type>  (46) 
oracle

>  <origin>  (46) 
adgpu

>  <m_score__min__energy>  (46) 
-12.5

>  <m_primary>  (46) 
energy

$$$$
46:0
     RDKit          3D

 44 45  0  0  0  0  0  0  0  0999 V2000
   -0.8650   25.7160  -27.7190 C   0  0  0  0  0  0  0  0  0  0  0  0
   -1.6140   25.6590  -28.9680 N   0  0  0  0  0  0  0  0  0  0  0  0
   -2.8240   24.8970  -29.0870 C   0  0  0  0  0  0  0  0  0  0  0  0
   -3.1710   24.1170  -28.1600 O   0  0  0  0  0  0  0  0  0  0  0  0
   -3.6200   24.9570  -30.2770 N   0  0  0  0  0  0  0  0  0  0  0  0
   -4.4890   23.9230  -30.7600 C   0  0  0  0  0  0  0  0  0  0  0  0
   -5.8160   24.2400  -31.0580 C   0  0  0  0  0  0  0  0  0  0  0  0
   -6.6800   23.2660  -31.5610 C   0  0  0  0  0  0  0  0  0  0  0  0
   -6.2230   21.9600  -31.7920 C   0  0  0  0  0  0  0  0  0  0  0  0
   -7.1300   20.9910  -32.3360 N   0  0  0  0  0  0  0  0  0  0  0  0
   -8.2490   20.4850  -31.5420 C   0  0  0  0  0  0  0  0  0  0  0  0
   -8.1790   18.9560  -31.5010 C   0  0  0  0  0  0  0  0  0  0  0  0
   -8.0950   18.4200  -32.8090 O   0  0  0  0  0  0  0  0  0  0  0  0
   -6.8830   18.8230  -33.4230 C   0  0  0  0  0  0  0  0  0  0  0  0
   -6.8500   20.3420  -33.6160 C   0  0  0  0  0  0  0  0  0  0  0  0
   -4.8800   21.6320  -31.5060 C   0  0  0  0  0  0  0  0  0  0  0  0
   -4.2550   19.9960  -31.7600 S   0  0  0  0  0  0  0  0  0  0  0  0
   -2.9860   19.8100  -30.9730 O   0  0  0  0  0  0  0  0  0  0  0  0
   -5.2660   19.0010  -31.2620 O   0  0  0  0  0  0  0  0  0  0  0  0
   -3.9460   19.7280  -33.4580 N   0  0  0  0  0  0  0  0  0  0  0  0
   -2.7280   20.4460  -33.8550 C   0  0  0  0  0  0  0  0  0  0  0  0
   -3.7880   18.2900  -33.7040 C   0  0  0  0  0  0  0  0  0  0  0  0
   -4.0180   22.6220  -31.0100 C   0  0  0  0  0  0  0  0  0  0  0  0
   -1.5628   25.6629  -26.8703 H   0  0  0  0  0  0  0  0  0  0  0  0
   -0.1653   24.8685  -27.6720 H   0  0  0  0  0  0  0  0  0  0  0  0
   -0.3016   26.6596  -27.6720 H   0  0  0  0  0  0  0  0  0  0  0  0
   -1.2340   26.1630  -29.8000 H   0  0  0  0  0  0  0  0  0  0  0  0
   -6.1828   25.2642  -30.8952 H   0  0  0  0  0  0  0  0  0  0  0  0
   -7.7270   23.5244  -31.7779 H   0  0  0  0  0  0  0  0  0  0  0  0
   -8.1861   20.8848  -30.5191 H   0  0  0  0  0  0  0  0  0  0  0  0
   -9.1999   20.8018  -31.9952 H   0  0  0  0  0  0  0  0  0  0  0  0
   -7.2904   18.6511  -30.9288 H   0  0  0  0  0  0  0  0  0  0  0  0
   -9.0929   18.5745  -31.0222 H   0  0  0  0  0  0  0  0  0  0  0  0
   -6.0384   18.5220  -32.7858 H   0  0  0  0  0  0  0  0  0  0  0  0
   -6.8098   18.3406  -34.4089 H   0  0  0  0  0  0  0  0  0  0  0  0
   -5.8556   20.6467  -33.9742 H   0  0  0  0  0  0  0  0  0  0  0  0
   -7.6072   20.6389  -34.3566 H   0  0  0  0  0  0  0  0  0  0  0  0
   -2.1824   20.7676  -32.9556 H   0  0  0  0  0  0  0  0  0  0  0  0
   -2.0886   19.7804  -34.4534 H   0  0  0  0  0  0  0  0  0  0  0  0
   -3.0007   21.3278  -34.4534 H   0  0  0  0  0  0  0  0  0  0  0  0
   -3.7295   17.7579  -32.7431 H   0  0  0  0  0  0  0  0  0  0  0  0
   -4.6508   17.9190  -34.2767 H   0  0  0  0  0  0  0  0  0  0  0  0
   -2.8652   18.1152  -34.2767 H   0  0  0  0  0  0  0  0  0  0  0  0
   -2.9634   22.3778  -30.8148 H   0  0  0  0  0  0  0  0  0  0  0  0
  1  2  1  0
  2  3  1  0
  3  4  2  0
  3  5  1  0
  5  6  1  0
  6  7  2  0
  7  8  1  0
  8  9  2  0
  9 10  1  0
 10 11  1  0
 11 12  1  0
 12 13  1  0
 13 14  1  0
 14 15  1  0
  9 16  1  0
 16 17  1  0
 17 18  2  0
 17 19  2  0
 17 20  1  0
 20 21  1  0
 20 22  1  0
 16 23  2  0
 23  6  1  0
 15 10  1  0
  1 24  1  0
  1 25  1  0
  1 26  1  0
  2 27  1  0
  7 28  1  0
  8 29  1  0
 11 30  1  0
 11 31  1  0
 12 32  1  0
 12 33  1  0
 14 34  1  0
 14 35  1  0
 15 36  1  0
 15 37  1  0
 21 38  1  0
 21 39  1  0
 21 40  1  0
 22 41  1  0
 22 42  1  0
 22 43  1  0
 23 44  1  0
M  CHG  1   5  -1
M  END
>  <UniqueID>  (47) 
44

>  <SMILES>  (47) 
CNC(=O)[N-]c1ccc(N2CCOCC2)c(S(=O)(=O)N(C)C)c1

>  <Energy>  (47) 
48.162829288496084

>  <Genealogy>  (47) 
CNC(=O)[N-]c1ccc(N2CCOCC2)c(S(=O)(=O)N(C)C)c1 (protonated)
CNC(=O)[N-]c1ccc(N2CCOCC2)c(S(=O)(=O)N(C)C)c1 (3D coordinates assigned)
CNC(=O)[N-]c1ccc(N2CCOCC2)c(S(=O)(=O)N(C)C)c1 (nonaromatic ring conformer: 48.162829288496084 kcal/mol)

>  <smiles>  (47) 
CNC(=O)Nc1ccc(N2CCOCC2)c(S(=O)(=O)N(C)C)c1

>  <score_type>  (47) 
oracle

>  <origin>  (47) 
adgpu

>  <m_score__min__energy>  (47) 
-8.9900000000000002

>  <m_primary>  (47) 
energy

$$$$
47:0
     RDKit          3D

 50 52  0  0  0  0  0  0  0  0999 V2000
   -0.7860   26.7510  -23.2980 C   0  0  0  0  0  0  0  0  0  0  0  0
   -0.6580   27.2220  -24.7160 C   0  0  0  0  0  0  0  0  0  0  0  0
   -0.2490   28.5340  -24.9930 C   0  0  0  0  0  0  0  0  0  0  0  0
   -0.1630   28.9870  -26.3170 C   0  0  0  0  0  0  0  0  0  0  0  0
    0.3380   30.3700  -26.6110 C   0  0  0  0  0  0  0  0  0  0  0  0
   -0.4790   28.1130  -27.3700 C   0  0  0  0  0  0  0  0  0  0  0  0
   -0.9300   26.8080  -27.1030 C   0  0  0  0  0  0  0  0  0  0  0  0
   -1.2590   25.8980  -28.1660 N   0  0  0  0  0  0  0  0  0  0  0  0
   -0.4540   24.7680  -28.5320 C   0  0  0  0  0  0  0  0  0  0  0  0
    0.7640   24.7260  -28.2120 O   0  0  0  0  0  0  0  0  0  0  0  0
   -0.9870   23.7220  -29.3520 N   0  0  0  0  0  0  0  0  0  0  0  0
   -1.5840   22.5030  -28.8880 C   0  0  0  0  0  0  0  0  0  0  0  0
   -1.4620   22.0960  -27.5460 C   0  0  0  0  0  0  0  0  0  0  0  0
   -2.0410   20.8990  -27.1150 C   0  0  0  0  0  0  0  0  0  0  0  0
   -2.7350   20.0930  -28.0180 C   0  0  0  0  0  0  0  0  0  0  0  0
   -2.8390   20.4730  -29.3580 C   0  0  0  0  0  0  0  0  0  0  0  0
   -2.2510   21.6650  -29.8020 C   0  0  0  0  0  0  0  0  0  0  0  0
   -2.3910   22.1130  -31.5390 S   0  0  0  0  0  0  0  0  0  0  0  0
   -4.1010   22.6500  -31.3750 C   0  0  0  0  0  0  0  0  0  0  0  0
   -5.1310   21.8060  -31.7760 C   0  0  0  0  0  0  0  0  0  0  0  0
   -6.4300   22.2060  -31.6830 N   0  0  0  0  0  0  0  0  0  0  0  0
   -7.5000   21.3140  -32.1480 C   0  0  0  0  0  0  0  0  0  0  0  0
   -6.7350   23.4450  -31.1800 C   0  0  0  0  0  0  0  0  0  0  0  0
   -7.9410   23.8180  -31.1330 O   0  0  0  0  0  0  0  0  0  0  0  0
   -5.7400   24.2800  -30.7330 N   0  0  0  0  0  0  0  0  0  0  0  0
   -6.0790   25.6160  -30.2140 C   0  0  0  0  0  0  0  0  0  0  0  0
   -4.4270   23.8990  -30.8430 C   0  0  0  0  0  0  0  0  0  0  0  0
   -3.5040   24.6700  -30.4630 O   0  0  0  0  0  0  0  0  0  0  0  0
   -1.0060   26.3690  -25.7740 C   0  0  0  0  0  0  0  0  0  0  0  0
   -0.5601   27.5821  -22.6138 H   0  0  0  0  0  0  0  0  0  0  0  0
   -1.8126   26.3982  -23.1201 H   0  0  0  0  0  0  0  0  0  0  0  0
   -0.0792   25.9271  -23.1201 H   0  0  0  0  0  0  0  0  0  0  0  0
    0.0062   29.2127  -24.1658 H   0  0  0  0  0  0  0  0  0  0  0  0
    0.5297   30.8992  -25.6659 H   0  0  0  0  0  0  0  0  0  0  0  0
    1.2703   30.3066  -27.1914 H   0  0  0  0  0  0  0  0  0  0  0  0
   -0.4186   30.9184  -27.1914 H   0  0  0  0  0  0  0  0  0  0  0  0
   -0.3730   28.4517  -28.4112 H   0  0  0  0  0  0  0  0  0  0  0  0
   -2.0830   26.1230  -28.7690 H   0  0  0  0  0  0  0  0  0  0  0  0
   -0.9079   22.7235  -26.8324 H   0  0  0  0  0  0  0  0  0  0  0  0
   -1.9494   20.5921  -26.0627 H   0  0  0  0  0  0  0  0  0  0  0  0
   -3.2006   19.1575  -27.6743 H   0  0  0  0  0  0  0  0  0  0  0  0
   -3.3847   19.8339  -30.0678 H   0  0  0  0  0  0  0  0  0  0  0  0
   -4.8949   20.8071  -32.1716 H   0  0  0  0  0  0  0  0  0  0  0  0
   -8.0194   20.8810  -31.2804 H   0  0  0  0  0  0  0  0  0  0  0  0
   -8.2161   21.8863  -32.7560 H   0  0  0  0  0  0  0  0  0  0  0  0
   -7.0659   20.5066  -32.7560 H   0  0  0  0  0  0  0  0  0  0  0  0
   -6.0735   25.5944  -29.1142 H   0  0  0  0  0  0  0  0  0  0  0  0
   -5.3378   26.3466  -30.5701 H   0  0  0  0  0  0  0  0  0  0  0  0
   -7.0789   25.9048  -30.5701 H   0  0  0  0  0  0  0  0  0  0  0  0
   -1.3423   25.3441  -25.5582 H   0  0  0  0  0  0  0  0  0  0  0  0
  1  2  1  0
  2  3  2  0
  3  4  1  0
  4  5  1  0
  4  6  2  0
  6  7  1  0
  7  8  1  0
  8  9  1  0
  9 10  2  0
  9 11  1  0
 11 12  1  0
 12 13  2  0
 13 14  1  0
 14 15  2  0
 15 16  1  0
 16 17  2  0
 17 18  1  0
 18 19  1  0
 19 20  2  0
 20 21  1  0
 21 22  1  0
 21 23  1  0
 23 24  2  0
 23 25  1  0
 25 26  1  0
 25 27  1  0
 27 28  2  0
  7 29  2  0
 29  2  1  0
 17 12  1  0
 27 19  1  0
  1 30  1  0
  1 31  1  0
  1 32  1  0
  3 33  1  0
  5 34  1  0
  5 35  1  0
  5 36  1  0
  6 37  1  0
  8 38  1  0
 13 39  1  0
 14 40  1  0
 15 41  1  0
 16 42  1  0
 20 43  1  0
 22 44  1  0
 22 45  1  0
 22 46  1  0
 26 47  1  0
 26 48  1  0
 26 49  1  0
 29 50  1  0
M  CHG  1  11  -1
M  END
>  <UniqueID>  (48) 
45

>  <SMILES>  (48) 
Cc1cc(C)cc(NC(=O)[N-]c2ccccc2Sc2cn(C)c(=O)n(C)c2=O)c1

>  <Energy>  (48) 
59.28112887573964

>  <Genealogy>  (48) 
Cc1cc(C)cc(NC(=O)[N-]c2ccccc2Sc2cn(C)c(=O)n(C)c2=O)c1 (protonated)
Cc1cc(C)cc(NC(=O)[N-]c2ccccc2Sc2cn(C)c(=O)n(C)c2=O)c1 (3D coordinates assigned)
Cc1cc(C)cc(NC(=O)[N-]c2ccccc2Sc2cn(C)c(=O)n(C)c2=O)c1 (optimized conformer: 59.28112887573964 kcal/mol)

>  <smiles>  (48) 
Cc1cc(C)cc(NC(=O)Nc2ccccc2Sc2cn(C)c(=O)n(C)c2=O)c1

>  <score_type>  (48) 
oracle

>  <origin>  (48) 
adgpu

>  <m_score__min__energy>  (48) 
-9.8200000000000003

>  <m_primary>  (48) 
energy

$$$$
48:0
     RDKit          3D

 60 63  0  0  0  0  0  0  0  0999 V2000
   -9.0800   23.2260  -32.3050 O   0  0  0  0  0  0  0  0  0  0  0  0
   -8.9760   22.0710  -31.3520 S   0  0  0  0  0  0  0  0  0  0  0  0
  -10.3660   21.6710  -30.9400 O   0  0  0  0  0  0  0  0  0  0  0  0
   -8.0470   22.5580  -29.9740 N   0  0  0  0  0  0  0  0  0  0  0  0
   -6.8060   23.2670  -30.0660 C   0  0  0  0  0  0  0  0  0  0  0  0
   -6.7630   24.6620  -30.2110 C   0  0  0  0  0  0  0  0  0  0  0  0
   -5.5350   25.3220  -30.2830 C   0  0  0  0  0  0  0  0  0  0  0  0
   -4.3400   24.6030  -30.2020 C   0  0  0  0  0  0  0  0  0  0  0  0
   -3.1330   25.2960  -30.2490 O   0  0  0  0  0  0  0  0  0  0  0  0
   -4.3730   23.2030  -30.0610 C   0  0  0  0  0  0  0  0  0  0  0  0
   -2.9070   22.2470  -29.8120 S   0  0  0  0  0  0  0  0  0  0  0  0
   -2.9150   21.5790  -28.4640 O   0  0  0  0  0  0  0  0  0  0  0  0
   -1.7160   23.1630  -29.8880 O   0  0  0  0  0  0  0  0  0  0  0  0
   -2.8110   21.0400  -31.0710 N   0  0  0  0  0  0  0  0  0  0  0  0
   -1.4090   20.5950  -31.2780 C   0  0  0  0  0  0  0  0  0  0  0  0
   -0.7710   21.1930  -32.5390 C   0  0  0  0  0  0  0  0  0  0  0  0
   -1.5750   20.8110  -33.7930 C   0  0  0  0  0  0  0  0  0  0  0  0
   -3.0870   20.7030  -33.5190 C   0  0  0  0  0  0  0  0  0  0  0  0
   -3.4900   21.5260  -32.2910 C   0  0  0  0  0  0  0  0  0  0  0  0
   -5.6100   22.5460  -30.0120 C   0  0  0  0  0  0  0  0  0  0  0  0
   -8.1500   20.7330  -32.1460 C   0  0  0  0  0  0  0  0  0  0  0  0
   -8.6090   19.4190  -31.9770 C   0  0  0  0  0  0  0  0  0  0  0  0
   -7.9030   18.3520  -32.5390 C   0  0  0  0  0  0  0  0  0  0  0  0
   -6.7360   18.5880  -33.2810 C   0  0  0  0  0  0  0  0  0  0  0  0
   -5.8230   17.2520  -33.9780 S   0  0  0  0  0  0  0  0  0  0  0  0
   -5.2630   17.7060  -35.2970 O   0  0  0  0  0  0  0  0  0  0  0  0
   -6.7330   16.0810  -34.2230 O   0  0  0  0  0  0  0  0  0  0  0  0
   -4.5040   16.7870  -32.9190 N   0  0  0  0  0  0  0  0  0  0  0  0
   -4.4910   15.3370  -32.6580 C   0  0  0  0  0  0  0  0  0  0  0  0
   -3.9810   14.5240  -33.8710 C   0  0  0  0  0  0  0  0  0  0  0  0
   -3.2840   15.3060  -34.8230 O   0  0  0  0  0  0  0  0  0  0  0  0
   -2.4060   16.1940  -34.1720 C   0  0  0  0  0  0  0  0  0  0  0  0
   -3.2010   17.2780  -33.4210 C   0  0  0  0  0  0  0  0  0  0  0  0
   -6.2850   19.9020  -33.4580 C   0  0  0  0  0  0  0  0  0  0  0  0
   -6.9820   20.9690  -32.8870 C   0  0  0  0  0  0  0  0  0  0  0  0
   -7.6991   25.2369  -30.2681 H   0  0  0  0  0  0  0  0  0  0  0  0
   -5.5082   26.4150  -30.4043 H   0  0  0  0  0  0  0  0  0  0  0  0
   -0.8122   20.8987  -30.4053 H   0  0  0  0  0  0  0  0  0  0  0  0
   -1.4254   19.5023  -31.4036 H   0  0  0  0  0  0  0  0  0  0  0  0
   -0.7474   22.2888  -32.4460 H   0  0  0  0  0  0  0  0  0  0  0  0
    0.2493   20.7946  -32.6401 H   0  0  0  0  0  0  0  0  0  0  0  0
   -1.4109   21.5785  -34.5637 H   0  0  0  0  0  0  0  0  0  0  0  0
   -1.2255   19.8218  -34.1235 H   0  0  0  0  0  0  0  0  0  0  0  0
   -3.6376   21.0745  -34.3958 H   0  0  0  0  0  0  0  0  0  0  0  0
   -3.3304   19.6479  -33.3252 H   0  0  0  0  0  0  0  0  0  0  0  0
   -3.2153   22.5778  -32.4589 H   0  0  0  0  0  0  0  0  0  0  0  0
   -4.5759   21.4251  -32.1471 H   0  0  0  0  0  0  0  0  0  0  0  0
   -5.6399   21.4495  -29.9300 H   0  0  0  0  0  0  0  0  0  0  0  0
   -9.5264   19.2277  -31.4010 H   0  0  0  0  0  0  0  0  0  0  0  0
   -8.2639   17.3224  -32.3990 H   0  0  0  0  0  0  0  0  0  0  0  0
   -3.8339   15.1387  -31.7984 H   0  0  0  0  0  0  0  0  0  0  0  0
   -5.5257   15.0235  -32.4553 H   0  0  0  0  0  0  0  0  0  0  0  0
   -3.3045   13.7382  -33.5037 H   0  0  0  0  0  0  0  0  0  0  0  0
   -4.8654   14.1104  -34.3777 H   0  0  0  0  0  0  0  0  0  0  0  0
   -1.7895   15.6333  -33.4539 H   0  0  0  0  0  0  0  0  0  0  0  0
   -1.7642   16.6773  -34.9234 H   0  0  0  0  0  0  0  0  0  0  0  0
   -2.6023   17.6242  -32.5656 H   0  0  0  0  0  0  0  0  0  0  0  0
   -3.4047   18.0925  -34.1317 H   0  0  0  0  0  0  0  0  0  0  0  0
   -5.3777   20.0945  -34.0494 H   0  0  0  0  0  0  0  0  0  0  0  0
   -6.6143   21.9974  -33.0185 H   0  0  0  0  0  0  0  0  0  0  0  0
  1  2  2  0
  2  3  2  0
  2  4  1  0
  4  5  1  0
  5  6  2  0
  6  7  1  0
  7  8  2  0
  8  9  1  0
  8 10  1  0
 10 11  1  0
 11 12  2  0
 11 13  2  0
 11 14  1  0
 14 15  1  0
 15 16  1  0
 16 17  1  0
 17 18  1  0
 18 19  1  0
 10 20  2  0
  2 21  1  0
 21 22  2  0
 22 23  1  0
 23 24  2  0
 24 25  1  0
 25 26  2  0
 25 27  2  0
 25 28  1  0
 28 29  1  0
 29 30  1  0
 30 31  1  0
 31 32  1  0
 32 33  1  0
 24 34  1  0
 34 35  2  0
 20  5  1  0
 35 21  1  0
 19 14  1  0
 33 28  1  0
  6 36  1  0
  7 37  1  0
 15 38  1  0
 15 39  1  0
 16 40  1  0
 16 41  1  0
 17 42  1  0
 17 43  1  0
 18 44  1  0
 18 45  1  0
 19 46  1  0
 19 47  1  0
 20 48  1  0
 22 49  1  0
 23 50  1  0
 29 51  1  0
 29 52  1  0
 30 53  1  0
 30 54  1  0
 32 55  1  0
 32 56  1  0
 33 57  1  0
 33 58  1  0
 34 59  1  0
 35 60  1  0
M  CHG  2   4  -1   9  -1
M  END
>  <UniqueID>  (49) 
46

>  <SMILES>  (49) 
O=S(=O)([N-]c1ccc([O-])c(S(=O)(=O)N2CCCCC2)c1)c1ccc(S(=O)(=O)N2CCOCC2)cc1

>  <Energy>  (49) 
82.68876184846201

>  <Genealogy>  (49) 
O=S(=O)([N-]c1ccc([O-])c(S(=O)(=O)N2CCCCC2)c1)c1ccc(S(=O)(=O)N2CCOCC2)cc1 (protonated)
O=S(=O)([N-]c1ccc([O-])c(S(=O)(=O)N2CCCCC2)c1)c1ccc(S(=O)(=O)N2CCOCC2)cc1 (3D coordinates assigned)
O=S(=O)([N-]c1ccc([O-])c(S(=O)(=O)N2CCCCC2)c1)c1ccc(S(=O)(=O)N2CCOCC2)cc1 (nonaromatic ring conformer: 82.68876184846201 kcal/mol)

>  <smiles>  (49) 
O=S(=O)(Nc1ccc(O)c(S(=O)(=O)N2CCCCC2)c1)c1ccc(S(=O)(=O)N2CCOCC2)cc1

>  <score_type>  (49) 
oracle

>  <origin>  (49) 
adgpu

>  <m_score__min__energy>  (49) 
-13.949999999999999

>  <m_primary>  (49) 
energy

$$$$
