0:0
     RDKit          3D

 53 56  0  0  0  0  0  0  0  0999 V2000
   -6.1000   14.3360  -34.1640 C   0  0  0  0  0  0  0  0  0  0  0  0
   -6.7250   15.5520  -34.5710 O   0  0  0  0  0  0  0  0  0  0  0  0
   -6.5190   16.7930  -33.9460 C   0  0  0  0  0  0  0  0  0  0  0  0
   -5.8880   17.8080  -34.6740 C   0  0  0  0  0  0  0  0  0  0  0  0
   -5.6610   19.0610  -34.0980 C   0  0  0  0  0  0  0  0  0  0  0  0
   -6.0670   19.3260  -32.7750 C   0  0  0  0  0  0  0  0  0  0  0  0
   -5.8440   20.6640  -32.1600 C   0  0  0  0  0  0  0  0  0  0  0  0
   -4.5380   21.1700  -32.0040 C   0  0  0  0  0  0  0  0  0  0  0  0
   -4.3220   22.3980  -31.3720 C   0  0  0  0  0  0  0  0  0  0  0  0
   -5.4040   23.1520  -30.9050 C   0  0  0  0  0  0  0  0  0  0  0  0
   -5.1060   24.6580  -30.0380 S   0  0  0  0  0  0  0  0  0  0  0  0
   -6.3930   25.3820  -29.7510 O   0  0  0  0  0  0  0  0  0  0  0  0
   -4.2440   25.5480  -30.8910 O   0  0  0  0  0  0  0  0  0  0  0  0
   -4.2660   24.3080  -28.5600 N   0  0  0  0  0  0  0  0  0  0  0  0
   -3.1440   23.4200  -28.4440 C   0  0  0  0  0  0  0  0  0  0  0  0
   -3.2820   22.1210  -27.9200 C   0  0  0  0  0  0  0  0  0  0  0  0
   -2.1790   21.2600  -27.8340 C   0  0  0  0  0  0  0  0  0  0  0  0
   -0.9240   21.6930  -28.3070 C   0  0  0  0  0  0  0  0  0  0  0  0
   -0.7740   23.0080  -28.7740 C   0  0  0  0  0  0  0  0  0  0  0  0
   -1.8770   23.8710  -28.8410 C   0  0  0  0  0  0  0  0  0  0  0  0
   -1.7210   25.1760  -29.3060 O   0  0  0  0  0  0  0  0  0  0  0  0
    0.2860   20.7920  -28.2230 C   0  0  0  0  0  0  0  0  0  0  0  0
   -0.0700   19.3600  -28.1460 N   0  0  0  0  0  0  0  0  0  0  0  0
   -0.4950   18.8230  -29.4510 C   0  0  0  0  0  0  0  0  0  0  0  0
   -1.0630   19.1130  -27.0790 C   0  0  0  0  0  0  0  0  0  0  0  0
   -2.3860   19.8580  -27.3150 C   0  0  0  0  0  0  0  0  0  0  0  0
   -6.7090   22.6710  -31.0810 C   0  0  0  0  0  0  0  0  0  0  0  0
   -6.9270   21.4350  -31.6970 C   0  0  0  0  0  0  0  0  0  0  0  0
   -6.7020   18.3030  -32.0460 C   0  0  0  0  0  0  0  0  0  0  0  0
   -6.9230   17.0490  -32.6220 C   0  0  0  0  0  0  0  0  0  0  0  0
   -6.0746   14.2866  -33.0654 H   0  0  0  0  0  0  0  0  0  0  0  0
   -6.6705   13.4813  -34.5564 H   0  0  0  0  0  0  0  0  0  0  0  0
   -5.0729   14.3024  -34.5564 H   0  0  0  0  0  0  0  0  0  0  0  0
   -5.5677   17.6179  -35.7090 H   0  0  0  0  0  0  0  0  0  0  0  0
   -5.1610   19.8472  -34.6826 H   0  0  0  0  0  0  0  0  0  0  0  0
   -3.6811   20.5936  -32.3829 H   0  0  0  0  0  0  0  0  0  0  0  0
   -3.2963   22.7733  -31.2412 H   0  0  0  0  0  0  0  0  0  0  0  0
   -4.2677   21.7770  -27.5736 H   0  0  0  0  0  0  0  0  0  0  0  0
    0.2174   23.3646  -29.0902 H   0  0  0  0  0  0  0  0  0  0  0  0
   -2.4870   25.6820  -29.7370 H   0  0  0  0  0  0  0  0  0  0  0  0
    0.9062   20.9523  -29.1173 H   0  0  0  0  0  0  0  0  0  0  0  0
    0.8264   21.0488  -27.2999 H   0  0  0  0  0  0  0  0  0  0  0  0
   -1.1706   17.9693  -29.2938 H   0  0  0  0  0  0  0  0  0  0  0  0
   -1.0201   19.6068  -30.0166 H   0  0  0  0  0  0  0  0  0  0  0  0
    0.3885   18.4921  -30.0166 H   0  0  0  0  0  0  0  0  0  0  0  0
   -1.2702   18.0336  -27.0344 H   0  0  0  0  0  0  0  0  0  0  0  0
   -0.6363   19.4851  -26.1359 H   0  0  0  0  0  0  0  0  0  0  0  0
   -2.9811   19.2950  -28.0491 H   0  0  0  0  0  0  0  0  0  0  0  0
   -2.9022   19.9344  -26.3467 H   0  0  0  0  0  0  0  0  0  0  0  0
   -7.5647   23.2683  -30.7331 H   0  0  0  0  0  0  0  0  0  0  0  0
   -7.9542   21.0616  -31.8210 H   0  0  0  0  0  0  0  0  0  0  0  0
   -7.0276   18.4924  -31.0125 H   0  0  0  0  0  0  0  0  0  0  0  0
   -7.4153   16.2577  -32.0376 H   0  0  0  0  0  0  0  0  0  0  0  0
  1  2  1  0
  2  3  1  0
  3  4  2  0
  4  5  1  0
  5  6  2  0
  6  7  1  0
  7  8  2  0
  8  9  1  0
  9 10  2  0
 10 11  1  0
 11 12  2  0
 11 13  2  0
 11 14  1  0
 14 15  1  0
 15 16  2  0
 16 17  1  0
 17 18  2  0
 18 19  1  0
 19 20  2  0
 20 21  1  0
 18 22  1  0
 22 23  1  0
 23 24  1  0
 23 25  1  0
 25 26  1  0
 10 27  1  0
 27 28  2  0
  6 29  1  0
 29 30  2  0
 30  3  1  0
 28  7  1  0
 20 15  1  0
 26 17  1  0
  1 31  1  0
  1 32  1  0
  1 33  1  0
  4 34  1  0
  5 35  1  0
  8 36  1  0
  9 37  1  0
 16 38  1  0
 19 39  1  0
 21 40  1  0
 22 41  1  0
 22 42  1  0
 24 43  1  0
 24 44  1  0
 24 45  1  0
 25 46  1  0
 25 47  1  0
 26 48  1  0
 26 49  1  0
 27 50  1  0
 28 51  1  0
 29 52  1  0
 30 53  1  0
M  CHG  1  14  -1
M  END
>  <UniqueID>  (1) 
1

>  <SMILES>  (1) 
COc1ccc(-c2ccc(S(=O)(=O)[N-]c3cc4c(cc3O)CN(C)CC4)cc2)cc1

>  <Energy>  (1) 
70.4258263197713

>  <Genealogy>  (1) 
COc1ccc(-c2ccc(S(=O)(=O)[N-]c3cc4c(cc3O)CN(C)CC4)cc2)cc1 (protonated)
COc1ccc(-c2ccc(S(=O)(=O)[N-]c3cc4c(cc3O)CN(C)CC4)cc2)cc1 (3D coordinates assigned)
COc1ccc(-c2ccc(S(=O)(=O)[N-]c3cc4c(cc3O)CN(C)CC4)cc2)cc1 (nonaromatic ring conformer: 70.4258263197713 kcal/mol)

>  <smiles>  (1) 
COc1ccc(-c2ccc(S(=O)(=O)Nc3cc4c(cc3O)CN(C)CC4)cc2)cc1

>  <score_type>  (1) 
oracle

>  <origin>  (1) 
adgpu

>  <m_score__min__energy>  (1) 
-12.949999999999999

>  <m_primary>  (1) 
energy

$$$$
1:0
     RDKit          3D

 62 65  0  0  0  0  0  0  0  0999 V2000
   -4.8040   18.4028  -30.8273 H   0  0  0  0  0  0  0  0  0  0  0  0
   -5.3580   18.9880  -31.5760 C   0  0  0  0  0  0  0  0  0  0  0  0
   -5.3250   20.3490  -31.5360 N   0  0  0  0  0  0  0  0  0  0  0  0
   -6.0060   21.1150  -32.4330 C   0  0  0  0  0  0  0  0  0  0  0  0
   -5.9910   22.4140  -32.3430 N   0  0  0  0  0  0  0  0  0  0  0  0
   -5.1810   23.1320  -31.4060 C   0  0  0  0  0  0  0  0  0  0  0  0
   -5.7160   23.6470  -30.3900 O   0  0  0  0  0  0  0  0  0  0  0  0
   -3.7690   23.2620  -31.5960 N   0  0  0  0  0  0  0  0  0  0  0  0
   -2.7820   23.0390  -30.5780 C   0  0  0  0  0  0  0  0  0  0  0  0
   -2.4280   24.0540  -29.6660 C   0  0  0  0  0  0  0  0  0  0  0  0
   -3.0570   25.2930  -29.7140 O   0  0  0  0  0  0  0  0  0  0  0  0
   -1.4490   23.8150  -28.6880 C   0  0  0  0  0  0  0  0  0  0  0  0
   -0.8840   25.1380  -27.6630 S   0  0  0  0  0  0  0  0  0  0  0  0
   -1.3360   24.9270  -26.2430 O   0  0  0  0  0  0  0  0  0  0  0  0
   -1.4620   26.4310  -28.1680 O   0  0  0  0  0  0  0  0  0  0  0  0
    0.8630   25.2100  -27.7200 N   0  0  0  0  0  0  0  0  0  0  0  0
    1.4450   23.9590  -27.1850 C   0  0  0  0  0  0  0  0  0  0  0  0
    0.8399   23.6173  -26.3323 H   0  0  0  0  0  0  0  0  0  0  0  0
    1.4466   23.2045  -27.9854 H   0  0  0  0  0  0  0  0  0  0  0  0
    2.8910   24.1770  -26.7180 C   0  0  0  0  0  0  0  0  0  0  0  0
    3.3126   23.2146  -26.3922 H   0  0  0  0  0  0  0  0  0  0  0  0
    3.4715   24.5884  -27.5569 H   0  0  0  0  0  0  0  0  0  0  0  0
    2.9470   25.1380  -25.5890 N   0  0  0  0  0  0  0  0  0  0  0  0
    4.2830   25.7520  -25.5010 C   0  0  0  0  0  0  0  0  0  0  0  0
    4.5593   25.8790  -24.4439 H   0  0  0  0  0  0  0  0  0  0  0  0
    5.0188   25.1017  -25.9967 H   0  0  0  0  0  0  0  0  0  0  0  0
    4.2687   26.7339  -25.9967 H   0  0  0  0  0  0  0  0  0  0  0  0
    1.8770   26.1700  -25.6280 C   0  0  0  0  0  0  0  0  0  0  0  0
    1.0329   25.8269  -25.0117 H   0  0  0  0  0  0  0  0  0  0  0  0
    2.3025   27.1085  -25.2430 H   0  0  0  0  0  0  0  0  0  0  0  0
    1.3690   26.4370  -27.0580 C   0  0  0  0  0  0  0  0  0  0  0  0
    0.5538   27.1740  -27.0108 H   0  0  0  0  0  0  0  0  0  0  0  0
    2.2179   26.8099  -27.6498 H   0  0  0  0  0  0  0  0  0  0  0  0
   -0.8830   22.5400  -28.5740 C   0  0  0  0  0  0  0  0  0  0  0  0
   -0.1323   22.3421  -27.7948 H   0  0  0  0  0  0  0  0  0  0  0  0
   -1.2660   21.5200  -29.4430 C   0  0  0  0  0  0  0  0  0  0  0  0
   -0.8452   20.5111  -29.3201 H   0  0  0  0  0  0  0  0  0  0  0  0
   -2.1850   21.7710  -30.4740 C   0  0  0  0  0  0  0  0  0  0  0  0
   -2.5200   20.7840  -31.4160 O   0  0  0  0  0  0  0  0  0  0  0  0
   -1.8330   20.5230  -32.6140 C   0  0  0  0  0  0  0  0  0  0  0  0
   -1.0330   21.5490  -33.1400 C   0  0  0  0  0  0  0  0  0  0  0  0
   -0.9824   22.5181  -32.6220 H   0  0  0  0  0  0  0  0  0  0  0  0
   -0.3010   21.3550  -34.3120 C   0  0  0  0  0  0  0  0  0  0  0  0
    0.3093   22.1745  -34.7193 H   0  0  0  0  0  0  0  0  0  0  0  0
   -0.3410   20.1190  -34.9720 C   0  0  0  0  0  0  0  0  0  0  0  0
    0.4330   19.9170  -36.2410 C   0  0  0  0  0  0  0  0  0  0  0  0
    1.4711   19.6461  -35.9981 H   0  0  0  0  0  0  0  0  0  0  0  0
   -0.0291   19.1094  -36.8277 H   0  0  0  0  0  0  0  0  0  0  0  0
    0.4245   20.8474  -36.8277 H   0  0  0  0  0  0  0  0  0  0  0  0
   -1.1440   19.0870  -34.4600 C   0  0  0  0  0  0  0  0  0  0  0  0
   -1.2048   18.1289  -34.9970 H   0  0  0  0  0  0  0  0  0  0  0  0
   -1.8710   19.2630  -33.2700 C   0  0  0  0  0  0  0  0  0  0  0  0
   -2.6590   18.0880  -32.7450 C   0  0  0  0  0  0  0  0  0  0  0  0
   -2.6495   18.1022  -31.6451 H   0  0  0  0  0  0  0  0  0  0  0  0
   -3.6969   18.1529  -33.1036 H   0  0  0  0  0  0  0  0  0  0  0  0
   -2.2050   17.1524  -33.1036 H   0  0  0  0  0  0  0  0  0  0  0  0
   -6.7670   20.4930  -33.4320 C   0  0  0  0  0  0  0  0  0  0  0  0
   -7.3325   21.0978  -34.1562 H   0  0  0  0  0  0  0  0  0  0  0  0
   -6.8010   19.0960  -33.5000 C   0  0  0  0  0  0  0  0  0  0  0  0
   -7.3840   18.5973  -34.2883 H   0  0  0  0  0  0  0  0  0  0  0  0
   -6.0940   18.3350  -32.5660 C   0  0  0  0  0  0  0  0  0  0  0  0
   -6.1240   16.5790  -32.6380 Cl  0  0  0  0  0  0  0  0  0  0  0  0
  1  2  1  0
  2  3  1  0
  3  4  1  0
  4  5  2  0
  5  6  1  0
  6  7  2  0
  6  8  1  0
  8  9  1  0
  9 10  2  0
 10 11  1  0
 10 12  1  0
 12 13  1  0
 13 14  2  0
 13 15  2  0
 13 16  1  0
 16 17  1  0
 17 18  1  0
 17 19  1  0
 17 20  1  0
 20 21  1  0
 20 22  1  0
 20 23  1  0
 23 24  1  0
 24 25  1  0
 24 26  1  0
 24 27  1  0
 23 28  1  0
 28 29  1  0
 28 30  1  0
 28 31  1  0
 31 32  1  0
 31 33  1  0
 12 34  2  0
 34 35  1  0
 34 36  1  0
 36 37  1  0
 36 38  2  0
 38 39  1  0
 39 40  1  0
 40 41  2  0
 41 42  1  0
 41 43  1  0
 43 44  1  0
 43 45  2  0
 45 46  1  0
 46 47  1  0
 46 48  1  0
 46 49  1  0
 45 50  1  0
 50 51  1  0
 50 52  2  0
 52 53  1  0
 53 54  1  0
 53 55  1  0
 53 56  1  0
  4 57  1  0
 57 58  1  0
 57 59  2  0
 59 60  1  0
 59 61  1  0
 61 62  1  0
 61  2  2  0
 38  9  1  0
 52 40  1  0
 31 16  1  0
M  CHG  3   3  -1   8  -1  11  -1
M  END
>  <UniqueID>  (2) 
2

>  <SMILES>  (2) 
Cc1ccc(Oc2ccc(S(=O)(=O)N3CCN(C)CC3)c([O-])c2[N-]C(=O)/N=c2/ccc(Cl)c[n-]2)c(C)c1

>  <Energy>  (2) 
94.08129069853176

>  <Genealogy>  (2) 
Cc1ccc(Oc2ccc(S(=O)(=O)N3CCN(C)CC3)c([O-])c2[N-]C(=O)N=c2ccc(Cl)c[n-]2)c(C)c1 (protonated)
Cc1ccc(Oc2ccc(S(=O)(=O)N3CCN(C)CC3)c([O-])c2[N-]C(=O)/N=c2/ccc(Cl)c[n-]2)c(C)c1 (cis-trans isomerization)
Cc1ccc(Oc2ccc(S(=O)(=O)N3CCN(C)CC3)c([O-])c2[N-]C(=O)/N=c2/ccc(Cl)c[n-]2)c(C)c1 (3D coordinates assigned)
Cc1ccc(Oc2ccc(S(=O)(=O)N3CCN(C)CC3)c([O-])c2[N-]C(=O)/N=c2/ccc(Cl)c[n-]2)c(C)c1 (nonaromatic ring conformer: 94.08129069853176 kcal/mol)

>  <smiles>  (2) 
Cc1ccc(Oc2ccc(S(=O)(=O)N3CCN(C)CC3)c(O)c2NC(=O)N=c2ccc(Cl)c[nH]2)c(C)c1

>  <score_type>  (2) 
oracle

>  <origin>  (2) 
adgpu

>  <m_score__min__energy>  (2) 
-14.859999999999999

>  <m_primary>  (2) 
energy

$$$$
2:0
     RDKit          3D

 46 48  0  0  0  0  0  0  0  0999 V2000
   -3.6911   19.8466  -30.5999 H   0  0  0  0  0  0  0  0  0  0  0  0
   -4.0830   20.8070  -30.9660 C   0  0  0  0  0  0  0  0  0  0  0  0
   -5.0600   20.7840  -31.8870 C   0  0  0  0  0  0  0  0  0  0  0  0
   -5.4523   21.7447  -32.2519 H   0  0  0  0  0  0  0  0  0  0  0  0
   -5.6400   19.5350  -32.4400 C   0  0  0  0  0  0  0  0  0  0  0  0
   -6.8700   19.0090  -31.9970 C   0  0  0  0  0  0  0  0  0  0  0  0
   -7.4384   19.5316  -31.2136 H   0  0  0  0  0  0  0  0  0  0  0  0
   -7.3710   17.8270  -32.5480 C   0  0  0  0  0  0  0  0  0  0  0  0
   -8.3386   17.4312  -32.2059 H   0  0  0  0  0  0  0  0  0  0  0  0
   -6.6500   17.1450  -33.5310 C   0  0  0  0  0  0  0  0  0  0  0  0
   -7.1840   15.9880  -34.0780 O   0  0  0  0  0  0  0  0  0  0  0  0
   -5.4040   17.6310  -33.9530 C   0  0  0  0  0  0  0  0  0  0  0  0
   -4.4260   16.7870  -35.2140 S   0  0  0  0  0  0  0  0  0  0  0  0
   -3.1980   16.1030  -34.0760 C   0  0  0  0  0  0  0  0  0  0  0  0
   -3.4650   14.8450  -33.5080 C   0  0  0  0  0  0  0  0  0  0  0  0
   -4.4203   14.3443  -33.7238 H   0  0  0  0  0  0  0  0  0  0  0  0
   -2.5370   14.2240  -32.6760 C   0  0  0  0  0  0  0  0  0  0  0  0
   -2.7512   13.2289  -32.2591 H   0  0  0  0  0  0  0  0  0  0  0  0
   -1.3380   14.8630  -32.3720 C   0  0  0  0  0  0  0  0  0  0  0  0
   -0.5916   14.3596  -31.7400 H   0  0  0  0  0  0  0  0  0  0  0  0
   -1.0830   16.1400  -32.8680 C   0  0  0  0  0  0  0  0  0  0  0  0
   -0.1410   16.6431  -32.6043 H   0  0  0  0  0  0  0  0  0  0  0  0
   -2.0100   16.8000  -33.7020 C   0  0  0  0  0  0  0  0  0  0  0  0
   -1.7350   18.2700  -34.0270 C   0  0  0  0  0  0  0  0  0  0  0  0
   -2.6322   18.6261  -34.5545 H   0  0  0  0  0  0  0  0  0  0  0  0
   -0.5430   18.4360  -34.9790 C   0  0  0  0  0  0  0  0  0  0  0  0
    0.3791   18.5644  -34.3931 H   0  0  0  0  0  0  0  0  0  0  0  0
   -0.4529   17.5417  -35.6132 H   0  0  0  0  0  0  0  0  0  0  0  0
   -0.7007   19.3209  -35.6132 H   0  0  0  0  0  0  0  0  0  0  0  0
   -1.6050   19.1600  -32.7890 C   0  0  0  0  0  0  0  0  0  0  0  0
   -1.6951   18.5430  -31.8828 H   0  0  0  0  0  0  0  0  0  0  0  0
   -0.6245   19.6586  -32.7971 H   0  0  0  0  0  0  0  0  0  0  0  0
   -2.4019   19.9182  -32.7971 H   0  0  0  0  0  0  0  0  0  0  0  0
   -4.9150   18.8310  -33.4160 C   0  0  0  0  0  0  0  0  0  0  0  0
   -3.9495   19.2267  -33.7642 H   0  0  0  0  0  0  0  0  0  0  0  0
   -3.5030   22.0570  -30.4150 C   0  0  0  0  0  0  0  0  0  0  0  0
   -2.4470   22.0560  -29.4800 C   0  0  0  0  0  0  0  0  0  0  0  0
   -2.0305   21.1015  -29.1259 H   0  0  0  0  0  0  0  0  0  0  0  0
   -1.9270   23.2620  -29.0010 C   0  0  0  0  0  0  0  0  0  0  0  0
   -1.1081   23.2520  -28.2667 H   0  0  0  0  0  0  0  0  0  0  0  0
   -2.4430   24.4800  -29.4510 C   0  0  0  0  0  0  0  0  0  0  0  0
   -1.9200   25.6750  -28.9680 O   0  0  0  0  0  0  0  0  0  0  0  0
   -3.4790   24.4940  -30.3900 C   0  0  0  0  0  0  0  0  0  0  0  0
   -3.9930   25.7020  -30.8470 O   0  0  0  0  0  0  0  0  0  0  0  0
   -4.0020   23.2890  -30.8730 C   0  0  0  0  0  0  0  0  0  0  0  0
   -4.8111   23.3060  -31.6180 H   0  0  0  0  0  0  0  0  0  0  0  0
  1  2  1  0
  2  3  2  0
  3  4  1  0
  3  5  1  0
  5  6  2  0
  6  7  1  0
  6  8  1  0
  8  9  1  0
  8 10  2  0
 10 11  1  0
 10 12  1  0
 12 13  1  0
 13 14  1  0
 14 15  2  0
 15 16  1  0
 15 17  1  0
 17 18  1  0
 17 19  2  0
 19 20  1  0
 19 21  1  0
 21 22  1  0
 21 23  2  0
 23 24  1  0
 24 25  1  0
 24 26  1  0
 26 27  1  0
 26 28  1  0
 26 29  1  0
 24 30  1  0
 30 31  1  0
 30 32  1  0
 30 33  1  0
 12 34  2  0
 34 35  1  0
  2 36  1  0
 36 37  2  0
 37 38  1  0
 37 39  1  0
 39 40  1  0
 39 41  2  0
 41 42  1  0
 41 43  1  0
 43 44  1  0
 43 45  2  0
 45 46  1  0
 34  5  1  0
 45 36  1  0
 23 14  1  0
M  CHG  3  11  -1  42  -1  44  -1
M  END
>  <UniqueID>  (3) 
3

>  <SMILES>  (3) 
CC(C)c1ccccc1Sc1cc(/C=C/c2ccc([O-])c([O-])c2)ccc1[O-]

>  <Energy>  (3) 
56.42419145524834

>  <Genealogy>  (3) 
CC(C)c1ccccc1Sc1cc(C=Cc2ccc([O-])c([O-])c2)ccc1[O-] (protonated)
CC(C)c1ccccc1Sc1cc(/C=C/c2ccc([O-])c([O-])c2)ccc1[O-] (cis-trans isomerization)
CC(C)c1ccccc1Sc1cc(/C=C/c2ccc([O-])c([O-])c2)ccc1[O-] (3D coordinates assigned)
CC(C)c1ccccc1Sc1cc(/C=C/c2ccc([O-])c([O-])c2)ccc1[O-] (optimized conformer: 56.42419145524834 kcal/mol)

>  <smiles>  (3) 
CC(C)c1ccccc1Sc1cc(C=Cc2ccc(O)c(O)c2)ccc1O

>  <score_type>  (3) 
oracle

>  <origin>  (3) 
adgpu

>  <m_score__min__energy>  (3) 
-13.279999999999999

>  <m_primary>  (3) 
energy

$$$$
3:0
     RDKit          3D

 46 49  0  0  0  0  0  0  0  0999 V2000
    1.3520   19.3130  -35.6270 C   0  0  0  0  0  0  0  0  0  0  0  0
    1.0230   20.2780  -34.1700 S   0  0  0  0  0  0  0  0  0  0  0  0
    1.9020   19.8050  -33.0460 O   0  0  0  0  0  0  0  0  0  0  0  0
    1.3300   21.7240  -34.4440 O   0  0  0  0  0  0  0  0  0  0  0  0
   -0.6680   20.1010  -33.7210 C   0  0  0  0  0  0  0  0  0  0  0  0
   -1.1310   18.8970  -33.1780 C   0  0  0  0  0  0  0  0  0  0  0  0
   -2.4770   18.7510  -32.8340 C   0  0  0  0  0  0  0  0  0  0  0  0
   -3.3820   19.8070  -33.0290 C   0  0  0  0  0  0  0  0  0  0  0  0
   -4.8050   19.6370  -32.6570 C   0  0  0  0  0  0  0  0  0  0  0  0
   -5.6280   18.5880  -33.0080 C   0  0  0  0  0  0  0  0  0  0  0  0
   -6.8680   18.8200  -32.5400 N   0  0  0  0  0  0  0  0  0  0  0  0
   -6.8720   19.9810  -31.9000 N   0  0  0  0  0  0  0  0  0  0  0  0
   -8.1260   20.5220  -31.3440 C   0  0  0  0  0  0  0  0  0  0  0  0
   -7.9620   21.7840  -30.5070 C   0  0  0  0  0  0  0  0  0  0  0  0
   -8.8020   22.5550  -31.5220 C   0  0  0  0  0  0  0  0  0  0  0  0
   -8.9890   21.2830  -32.3450 C   0  0  0  0  0  0  0  0  0  0  0  0
   -5.6150   20.5060  -31.9410 C   0  0  0  0  0  0  0  0  0  0  0  0
   -5.1960   21.8420  -31.4740 C   0  0  0  0  0  0  0  0  0  0  0  0
   -5.7860   22.9900  -32.0220 C   0  0  0  0  0  0  0  0  0  0  0  0
   -5.3540   24.2600  -31.6300 C   0  0  0  0  0  0  0  0  0  0  0  0
   -4.3080   24.3920  -30.7120 C   0  0  0  0  0  0  0  0  0  0  0  0
   -3.8800   25.6550  -30.3220 O   0  0  0  0  0  0  0  0  0  0  0  0
   -3.6870   23.2520  -30.1930 C   0  0  0  0  0  0  0  0  0  0  0  0
   -4.1190   21.9810  -30.5830 C   0  0  0  0  0  0  0  0  0  0  0  0
   -2.9190   21.0160  -33.5860 C   0  0  0  0  0  0  0  0  0  0  0  0
   -3.7960   22.0840  -33.7790 O   0  0  0  0  0  0  0  0  0  0  0  0
   -1.5670   21.1550  -33.9320 C   0  0  0  0  0  0  0  0  0  0  0  0
    1.6940   18.3098  -35.3328 H   0  0  0  0  0  0  0  0  0  0  0  0
    0.4326   19.2263  -36.2247 H   0  0  0  0  0  0  0  0  0  0  0  0
    2.1328   19.8060  -36.2247 H   0  0  0  0  0  0  0  0  0  0  0  0
   -0.4320   18.0622  -33.0215 H   0  0  0  0  0  0  0  0  0  0  0  0
   -2.8309   17.8011  -32.4069 H   0  0  0  0  0  0  0  0  0  0  0  0
   -5.3194   17.7009  -33.5806 H   0  0  0  0  0  0  0  0  0  0  0  0
   -8.5028   19.5991  -30.8791 H   0  0  0  0  0  0  0  0  0  0  0  0
   -8.4115   21.7215  -29.5050 H   0  0  0  0  0  0  0  0  0  0  0  0
   -6.9612   22.1408  -30.2222 H   0  0  0  0  0  0  0  0  0  0  0  0
   -9.7368   22.9642  -31.1112 H   0  0  0  0  0  0  0  0  0  0  0  0
   -8.4041   23.4661  -31.9927 H   0  0  0  0  0  0  0  0  0  0  0  0
  -10.0298   20.9316  -32.4015 H   0  0  0  0  0  0  0  0  0  0  0  0
   -8.7472   21.2691  -33.4180 H   0  0  0  0  0  0  0  0  0  0  0  0
   -6.5923   22.8905  -32.7636 H   0  0  0  0  0  0  0  0  0  0  0  0
   -5.8377   25.1569  -32.0443 H   0  0  0  0  0  0  0  0  0  0  0  0
   -2.8580   23.3552  -29.4774 H   0  0  0  0  0  0  0  0  0  0  0  0
   -3.6136   21.0862  -30.1906 H   0  0  0  0  0  0  0  0  0  0  0  0
   -4.7010   21.9570  -34.2160 H   0  0  0  0  0  0  0  0  0  0  0  0
   -1.2099   22.0978  -34.3720 H   0  0  0  0  0  0  0  0  0  0  0  0
  1  2  1  0
  2  3  2  0
  2  4  2  0
  2  5  1  0
  5  6  2  0
  6  7  1  0
  7  8  2  0
  8  9  1  0
  9 10  1  0
 10 11  2  0
 11 12  1  0
 12 13  1  0
 13 14  1  0
 14 15  1  0
 15 16  1  0
 12 17  1  0
 17 18  1  0
 18 19  2  0
 19 20  1  0
 20 21  2  0
 21 22  1  0
 21 23  1  0
 23 24  2  0
  8 25  1  0
 25 26  1  0
 25 27  2  0
 27  5  1  0
 17  9  2  0
 24 18  1  0
 16 13  1  0
  1 28  1  0
  1 29  1  0
  1 30  1  0
  6 31  1  0
  7 32  1  0
 10 33  1  0
 13 34  1  0
 14 35  1  0
 14 36  1  0
 15 37  1  0
 15 38  1  0
 16 39  1  0
 16 40  1  0
 19 41  1  0
 20 42  1  0
 23 43  1  0
 24 44  1  0
 26 45  1  0
 27 46  1  0
M  CHG  1  22  -1
M  END
>  <UniqueID>  (4) 
4

>  <SMILES>  (4) 
CS(=O)(=O)c1ccc(-c2cnn(C3CCC3)c2-c2ccc([O-])cc2)c(O)c1

>  <Energy>  (4) 
152.2477761380195

>  <Genealogy>  (4) 
CS(=O)(=O)c1ccc(-c2cnn(C3CCC3)c2-c2ccc([O-])cc2)c(O)c1 (protonated)
CS(=O)(=O)c1ccc(-c2cnn(C3CCC3)c2-c2ccc([O-])cc2)c(O)c1 (3D coordinates assigned)
CS(=O)(=O)c1ccc(-c2cnn(C3CCC3)c2-c2ccc([O-])cc2)c(O)c1 (nonaromatic ring conformer: 152.2477761380195 kcal/mol)

>  <smiles>  (4) 
CS(=O)(=O)c1ccc(-c2cnn(C3CCC3)c2-c2ccc(O)cc2)c(O)c1

>  <score_type>  (4) 
oracle

>  <origin>  (4) 
adgpu

>  <m_score__min__energy>  (4) 
-11.65

>  <m_primary>  (4) 
energy

$$$$
4:0
     RDKit          3D

 73 78  0  0  0  0  0  0  0  0999 V2000
   -6.2680   23.7270  -29.7950 C   0  0  0  0  0  0  0  0  0  0  0  0
   -7.1030   23.3800  -30.8990 O   0  0  0  0  0  0  0  0  0  0  0  0
   -6.8970   22.2670  -31.7320 C   0  0  0  0  0  0  0  0  0  0  0  0
   -7.9250   21.3390  -31.9870 C   0  0  0  0  0  0  0  0  0  0  0  0
   -7.6660   20.1840  -32.7210 C   0  0  0  0  0  0  0  0  0  0  0  0
   -6.3750   19.9110  -33.1980 C   0  0  0  0  0  0  0  0  0  0  0  0
   -6.0450   18.3430  -33.9600 S   0  0  0  0  0  0  0  0  0  0  0  0
   -7.1400   17.3760  -33.5910 O   0  0  0  0  0  0  0  0  0  0  0  0
   -6.0730   18.5120  -35.4530 O   0  0  0  0  0  0  0  0  0  0  0  0
   -4.4900   17.6790  -33.5120 N   0  0  0  0  0  0  0  0  0  0  0  0
   -3.7570   17.1900  -34.6990 C   0  0  0  0  0  0  0  0  0  0  0  0
   -2.5770   16.2970  -34.3130 C   0  0  0  0  0  0  0  0  0  0  0  0
   -3.1250   15.1200  -33.5670 C   0  0  0  0  0  0  0  0  0  0  0  0
   -2.6540   13.8170  -33.8010 C   0  0  0  0  0  0  0  0  0  0  0  0
   -3.2080   12.7400  -33.1040 C   0  0  0  0  0  0  0  0  0  0  0  0
   -4.2240   12.9630  -32.1680 C   0  0  0  0  0  0  0  0  0  0  0  0
   -4.6860   14.2610  -31.9220 C   0  0  0  0  0  0  0  0  0  0  0  0
   -4.1570   15.3420  -32.6410 C   0  0  0  0  0  0  0  0  0  0  0  0
   -4.5900   16.7620  -32.3470 C   0  0  0  0  0  0  0  0  0  0  0  0
   -5.3490   20.8460  -32.9660 C   0  0  0  0  0  0  0  0  0  0  0  0
   -4.0490   20.5870  -33.3870 O   0  0  0  0  0  0  0  0  0  0  0  0
   -5.6160   22.0450  -32.2850 C   0  0  0  0  0  0  0  0  0  0  0  0
   -4.5260   22.9590  -32.0870 N   0  0  0  0  0  0  0  0  0  0  0  0
   -3.2060   22.6890  -31.5910 C   0  0  0  0  0  0  0  0  0  0  0  0
   -2.3450   22.2470  -32.3950 O   0  0  0  0  0  0  0  0  0  0  0  0
   -2.7930   22.9890  -30.2020 C   0  0  0  0  0  0  0  0  0  0  0  0
   -2.2330   21.9850  -29.3960 C   0  0  0  0  0  0  0  0  0  0  0  0
   -1.8530   22.2580  -28.0720 C   0  0  0  0  0  0  0  0  0  0  0  0
   -1.2890   21.1670  -27.1960 C   0  0  0  0  0  0  0  0  0  0  0  0
    0.1180   20.9100  -27.5060 N   0  0  0  0  0  0  0  0  0  0  0  0
    0.3950   19.2520  -27.9690 S   0  0  0  0  0  0  0  0  0  0  0  0
    1.8050   18.8900  -27.6140 O   0  0  0  0  0  0  0  0  0  0  0  0
   -0.5490   18.3290  -27.2530 O   0  0  0  0  0  0  0  0  0  0  0  0
    0.1690   19.0500  -29.7060 C   0  0  0  0  0  0  0  0  0  0  0  0
   -0.1330   20.1600  -30.5070 C   0  0  0  0  0  0  0  0  0  0  0  0
   -0.3850   20.0040  -31.8730 C   0  0  0  0  0  0  0  0  0  0  0  0
   -0.3280   18.7360  -32.4590 C   0  0  0  0  0  0  0  0  0  0  0  0
   -0.0100   17.6170  -31.6770 C   0  0  0  0  0  0  0  0  0  0  0  0
    0.0590   16.3350  -32.2400 C   0  0  0  0  0  0  0  0  0  0  0  0
    0.3840   15.2380  -31.4370 C   0  0  0  0  0  0  0  0  0  0  0  0
    0.6430   15.4340  -30.0780 C   0  0  0  0  0  0  0  0  0  0  0  0
    0.5680   16.6800  -29.5420 N   0  0  0  0  0  0  0  0  0  0  0  0
    0.2460   17.7720  -30.2940 C   0  0  0  0  0  0  0  0  0  0  0  0
   -2.0610   23.5400  -27.5490 C   0  0  0  0  0  0  0  0  0  0  0  0
   -2.6140   24.5460  -28.3450 C   0  0  0  0  0  0  0  0  0  0  0  0
   -2.9780   24.2770  -29.6670 C   0  0  0  0  0  0  0  0  0  0  0  0
   -3.5110   25.2990  -30.4510 O   0  0  0  0  0  0  0  0  0  0  0  0
   -6.7944   23.5083  -28.8542 H   0  0  0  0  0  0  0  0  0  0  0  0
   -5.3383   23.1407  -29.8399 H   0  0  0  0  0  0  0  0  0  0  0  0
   -6.0277   24.7995  -29.8399 H   0  0  0  0  0  0  0  0  0  0  0  0
   -8.9388   21.5275  -31.6041 H   0  0  0  0  0  0  0  0  0  0  0  0
   -8.4831   19.4776  -32.9292 H   0  0  0  0  0  0  0  0  0  0  0  0
   -4.4481   16.6127  -35.3308 H   0  0  0  0  0  0  0  0  0  0  0  0
   -3.3614   18.0630  -35.2388 H   0  0  0  0  0  0  0  0  0  0  0  0
   -2.0526   15.9564  -35.2180 H   0  0  0  0  0  0  0  0  0  0  0  0
   -1.8613   16.8513  -33.6881 H   0  0  0  0  0  0  0  0  0  0  0  0
   -1.8502   13.6450  -34.5319 H   0  0  0  0  0  0  0  0  0  0  0  0
   -2.8459   11.7183  -33.2909 H   0  0  0  0  0  0  0  0  0  0  0  0
   -4.6618   12.1138  -31.6228 H   0  0  0  0  0  0  0  0  0  0  0  0
   -5.4645   14.4331  -31.1642 H   0  0  0  0  0  0  0  0  0  0  0  0
   -5.6376   16.7416  -32.0120 H   0  0  0  0  0  0  0  0  0  0  0  0
   -3.9061   17.1499  -31.5777 H   0  0  0  0  0  0  0  0  0  0  0  0
   -2.0905   20.9742  -29.8059 H   0  0  0  0  0  0  0  0  0  0  0  0
   -1.3737   21.4733  -26.1429 H   0  0  0  0  0  0  0  0  0  0  0  0
   -1.8591   20.2445  -27.3801 H   0  0  0  0  0  0  0  0  0  0  0  0
   -0.1720   21.1628  -30.0566 H   0  0  0  0  0  0  0  0  0  0  0  0
   -0.6290   20.8820  -32.4891 H   0  0  0  0  0  0  0  0  0  0  0  0
   -0.5326   18.6165  -33.5332 H   0  0  0  0  0  0  0  0  0  0  0  0
   -0.1423   16.1926  -33.3120 H   0  0  0  0  0  0  0  0  0  0  0  0
    0.4354   14.2287  -31.8714 H   0  0  0  0  0  0  0  0  0  0  0  0
    0.9082   14.5775  -29.4408 H   0  0  0  0  0  0  0  0  0  0  0  0
   -1.7875   23.7562  -26.5057 H   0  0  0  0  0  0  0  0  0  0  0  0
   -2.7634   25.5535  -27.9296 H   0  0  0  0  0  0  0  0  0  0  0  0
  1  2  1  0
  2  3  1  0
  3  4  2  0
  4  5  1  0
  5  6  2  0
  6  7  1  0
  7  8  2  0
  7  9  2  0
  7 10  1  0
 10 11  1  0
 11 12  1  0
 12 13  1  0
 13 14  2  0
 14 15  1  0
 15 16  2  0
 16 17  1  0
 17 18  2  0
 18 19  1  0
  6 20  1  0
 20 21  1  0
 20 22  2  0
 22 23  1  0
 23 24  1  0
 24 25  2  0
 24 26  1  0
 26 27  2  0
 27 28  1  0
 28 29  1  0
 29 30  1  0
 30 31  1  0
 31 32  2  0
 31 33  2  0
 31 34  1  0
 34 35  2  0
 35 36  1  0
 36 37  2  0
 37 38  1  0
 38 39  2  0
 39 40  1  0
 40 41  2  0
 41 42  1  0
 42 43  2  0
 28 44  2  0
 44 45  1  0
 45 46  2  0
 46 47  1  0
 22  3  1  0
 46 26  1  0
 19 10  1  0
 43 34  1  0
 18 13  1  0
 43 38  1  0
  1 48  1  0
  1 49  1  0
  1 50  1  0
  4 51  1  0
  5 52  1  0
 11 53  1  0
 11 54  1  0
 12 55  1  0
 12 56  1  0
 14 57  1  0
 15 58  1  0
 16 59  1  0
 17 60  1  0
 19 61  1  0
 19 62  1  0
 27 63  1  0
 29 64  1  0
 29 65  1  0
 35 66  1  0
 36 67  1  0
 37 68  1  0
 39 69  1  0
 40 70  1  0
 41 71  1  0
 44 72  1  0
 45 73  1  0
M  CHG  4  21  -1  23  -1  30  -1  47  -1
M  END
>  <UniqueID>  (5) 
5

>  <SMILES>  (5) 
COc1ccc(S(=O)(=O)N2CCc3ccccc3C2)c([O-])c1[N-]C(=O)c1cc(C[N-]S(=O)(=O)c2cccc3cccnc23)ccc1[O-]

>  <Energy>  (5) 
97.34992919647564

>  <Genealogy>  (5) 
COc1ccc(S(=O)(=O)N2CCc3ccccc3C2)c([O-])c1[N-]C(=O)c1cc(C[N-]S(=O)(=O)c2cccc3cccnc23)ccc1[O-] (protonated)
COc1ccc(S(=O)(=O)N2CCc3ccccc3C2)c([O-])c1[N-]C(=O)c1cc(C[N-]S(=O)(=O)c2cccc3cccnc23)ccc1[O-] (3D coordinates assigned)
COc1ccc(S(=O)(=O)N2CCc3ccccc3C2)c([O-])c1[N-]C(=O)c1cc(C[N-]S(=O)(=O)c2cccc3cccnc23)ccc1[O-] (nonaromatic ring conformer: 97.34992919647564 kcal/mol)

>  <smiles>  (5) 
COc1ccc(S(=O)(=O)N2CCc3ccccc3C2)c(O)c1NC(=O)c1cc(CNS(=O)(=O)c2cccc3cccnc23)ccc1O

>  <score_type>  (5) 
oracle

>  <origin>  (5) 
adgpu

>  <m_score__min__energy>  (5) 
-15.539999999999999

>  <m_primary>  (5) 
energy

$$$$
5:0
     RDKit          3D

 50 53  0  0  0  0  0  0  0  0999 V2000
   -5.7410   26.4900  -30.2170 O   0  0  0  0  0  0  0  0  0  0  0  0
   -5.2680   25.3510  -30.4790 C   0  0  0  0  0  0  0  0  0  0  0  0
   -3.8610   25.1720  -30.6820 N   0  0  0  0  0  0  0  0  0  0  0  0
   -3.0310   24.1650  -30.0860 C   0  0  0  0  0  0  0  0  0  0  0  0
   -3.1230   22.8090  -30.4500 C   0  0  0  0  0  0  0  0  0  0  0  0
   -2.3120   21.8580  -29.8260 C   0  0  0  0  0  0  0  0  0  0  0  0
   -1.4120   22.2460  -28.8310 C   0  0  0  0  0  0  0  0  0  0  0  0
   -1.3210   23.5910  -28.4490 C   0  0  0  0  0  0  0  0  0  0  0  0
   -0.1980   24.0800  -27.1750 S   0  0  0  0  0  0  0  0  0  0  0  0
    0.8670   24.9580  -27.7700 O   0  0  0  0  0  0  0  0  0  0  0  0
    0.4700   22.8540  -26.6150 O   0  0  0  0  0  0  0  0  0  0  0  0
   -0.9830   24.9430  -25.8730 N   0  0  0  0  0  0  0  0  0  0  0  0
   -1.1150   26.3700  -26.1590 C   0  0  0  0  0  0  0  0  0  0  0  0
   -1.1980   27.0710  -24.8130 C   0  0  0  0  0  0  0  0  0  0  0  0
   -0.6110   26.0880  -23.8100 C   0  0  0  0  0  0  0  0  0  0  0  0
   -0.2260   24.8630  -24.6260 C   0  0  0  0  0  0  0  0  0  0  0  0
   -2.1450   24.5420  -29.0690 C   0  0  0  0  0  0  0  0  0  0  0  0
   -6.1610   24.1870  -30.5220 C   0  0  0  0  0  0  0  0  0  0  0  0
   -6.2870   23.1890  -29.5710 C   0  0  0  0  0  0  0  0  0  0  0  0
   -7.1990   22.2920  -29.9920 N   0  0  0  0  0  0  0  0  0  0  0  0
   -7.6550   22.7030  -31.1650 N   0  0  0  0  0  0  0  0  0  0  0  0
   -8.6130   21.9560  -31.9720 C   0  0  0  0  0  0  0  0  0  0  0  0
   -8.0970   20.5670  -32.2230 C   0  0  0  0  0  0  0  0  0  0  0  0
   -8.7840   19.4530  -31.7130 C   0  0  0  0  0  0  0  0  0  0  0  0
   -8.3260   18.1590  -31.9820 C   0  0  0  0  0  0  0  0  0  0  0  0
   -7.1860   17.9700  -32.7700 C   0  0  0  0  0  0  0  0  0  0  0  0
   -6.5060   19.0720  -33.2930 C   0  0  0  0  0  0  0  0  0  0  0  0
   -6.9610   20.3680  -33.0270 C   0  0  0  0  0  0  0  0  0  0  0  0
   -7.0410   23.8450  -31.5270 C   0  0  0  0  0  0  0  0  0  0  0  0
   -3.8354   22.4969  -31.2279 H   0  0  0  0  0  0  0  0  0  0  0  0
   -2.3825   20.8002  -30.1193 H   0  0  0  0  0  0  0  0  0  0  0  0
   -0.7728   21.4936  -28.3459 H   0  0  0  0  0  0  0  0  0  0  0  0
   -0.2399   26.7280  -26.7211 H   0  0  0  0  0  0  0  0  0  0  0  0
   -2.0064   26.5736  -26.7705 H   0  0  0  0  0  0  0  0  0  0  0  0
   -0.6128   28.0023  -24.8271 H   0  0  0  0  0  0  0  0  0  0  0  0
   -2.2317   27.3478  -24.5584 H   0  0  0  0  0  0  0  0  0  0  0  0
    0.2750   26.5193  -23.3212 H   0  0  0  0  0  0  0  0  0  0  0  0
   -1.3263   25.8406  -23.0118 H   0  0  0  0  0  0  0  0  0  0  0  0
    0.8539   24.8695  -24.8355 H   0  0  0  0  0  0  0  0  0  0  0  0
   -0.4518   23.9343  -24.0815 H   0  0  0  0  0  0  0  0  0  0  0  0
   -2.0947   25.5945  -28.7532 H   0  0  0  0  0  0  0  0  0  0  0  0
   -5.7312   23.1370  -28.6232 H   0  0  0  0  0  0  0  0  0  0  0  0
   -9.5728   21.8976  -31.4377 H   0  0  0  0  0  0  0  0  0  0  0  0
   -8.7540   22.4695  -32.9345 H   0  0  0  0  0  0  0  0  0  0  0  0
   -9.6855   19.5988  -31.0998 H   0  0  0  0  0  0  0  0  0  0  0  0
   -8.8625   17.2898  -31.5737 H   0  0  0  0  0  0  0  0  0  0  0  0
   -6.8246   16.9521  -32.9780 H   0  0  0  0  0  0  0  0  0  0  0  0
   -5.6114   18.9208  -33.9150 H   0  0  0  0  0  0  0  0  0  0  0  0
   -6.4285   21.2335  -33.4480 H   0  0  0  0  0  0  0  0  0  0  0  0
   -7.2109   24.4053  -32.4582 H   0  0  0  0  0  0  0  0  0  0  0  0
  1  2  2  0
  2  3  1  0
  3  4  1  0
  4  5  2  0
  5  6  1  0
  6  7  2  0
  7  8  1  0
  8  9  1  0
  9 10  2  0
  9 11  2  0
  9 12  1  0
 12 13  1  0
 13 14  1  0
 14 15  1  0
 15 16  1  0
  8 17  2  0
  2 18  1  0
 18 19  1  0
 19 20  2  0
 20 21  1  0
 21 22  1  0
 22 23  1  0
 23 24  2  0
 24 25  1  0
 25 26  2  0
 26 27  1  0
 27 28  2  0
 21 29  1  0
 17  4  1  0
 29 18  2  0
 16 12  1  0
 28 23  1  0
  5 30  1  0
  6 31  1  0
  7 32  1  0
 13 33  1  0
 13 34  1  0
 14 35  1  0
 14 36  1  0
 15 37  1  0
 15 38  1  0
 16 39  1  0
 16 40  1  0
 17 41  1  0
 19 42  1  0
 22 43  1  0
 22 44  1  0
 24 45  1  0
 25 46  1  0
 26 47  1  0
 27 48  1  0
 28 49  1  0
 29 50  1  0
M  CHG  1   3  -1
M  END
>  <UniqueID>  (6) 
6

>  <SMILES>  (6) 
O=C([N-]c1cccc(S(=O)(=O)N2CCCC2)c1)c1cnn(Cc2ccccc2)c1

>  <Energy>  (6) 
85.07073200852419

>  <Genealogy>  (6) 
O=C([N-]c1cccc(S(=O)(=O)N2CCCC2)c1)c1cnn(Cc2ccccc2)c1 (protonated)
O=C([N-]c1cccc(S(=O)(=O)N2CCCC2)c1)c1cnn(Cc2ccccc2)c1 (3D coordinates assigned)
O=C([N-]c1cccc(S(=O)(=O)N2CCCC2)c1)c1cnn(Cc2ccccc2)c1 (nonaromatic ring conformer: 85.07073200852419 kcal/mol)

>  <smiles>  (6) 
O=C(Nc1cccc(S(=O)(=O)N2CCCC2)c1)c1cnn(Cc2ccccc2)c1

>  <score_type>  (6) 
oracle

>  <origin>  (6) 
adgpu

>  <m_score__min__energy>  (6) 
-11.890000000000001

>  <m_primary>  (6) 
energy

$$$$
6:0
     RDKit          3D

 56 59  0  0  0  0  0  0  0  0999 V2000
   -3.8790   24.9390  -30.6630 O   0  0  0  0  0  0  0  0  0  0  0  0
   -4.0020   23.7980  -30.1410 C   0  0  0  0  0  0  0  0  0  0  0  0
   -3.5040   23.5590  -28.8100 N   0  0  0  0  0  0  0  0  0  0  0  0
   -2.7540   24.5240  -28.0520 C   0  0  0  0  0  0  0  0  0  0  0  0
   -3.1440   24.8150  -26.7360 C   0  0  0  0  0  0  0  0  0  0  0  0
   -2.4180   25.7310  -25.9680 C   0  0  0  0  0  0  0  0  0  0  0  0
   -1.2820   26.3530  -26.5020 C   0  0  0  0  0  0  0  0  0  0  0  0
   -0.3410   27.4910  -25.5410 S   0  0  0  0  0  0  0  0  0  0  0  0
   -1.2450   28.5310  -24.9370 O   0  0  0  0  0  0  0  0  0  0  0  0
    0.6450   28.1760  -26.4450 O   0  0  0  0  0  0  0  0  0  0  0  0
    0.5130   26.6280  -24.2790 N   0  0  0  0  0  0  0  0  0  0  0  0
    0.2460   27.2310  -22.9700 C   0  0  0  0  0  0  0  0  0  0  0  0
    1.3460   28.2430  -22.6800 C   0  0  0  0  0  0  0  0  0  0  0  0
    2.4600   27.9220  -23.6580 C   0  0  0  0  0  0  0  0  0  0  0  0
    1.9620   26.7380  -24.4730 C   0  0  0  0  0  0  0  0  0  0  0  0
   -0.8710   26.0430  -27.8030 C   0  0  0  0  0  0  0  0  0  0  0  0
   -1.5980   25.1300  -28.5730 C   0  0  0  0  0  0  0  0  0  0  0  0
   -4.6710   22.7240  -30.9150 C   0  0  0  0  0  0  0  0  0  0  0  0
   -3.9000   21.7000  -31.4940 C   0  0  0  0  0  0  0  0  0  0  0  0
   -4.5110   20.6800  -32.2290 C   0  0  0  0  0  0  0  0  0  0  0  0
   -5.9010   20.6660  -32.4010 C   0  0  0  0  0  0  0  0  0  0  0  0
   -6.6710   19.3800  -33.3370 S   0  0  0  0  0  0  0  0  0  0  0  0
   -6.5050   19.6750  -34.8020 O   0  0  0  0  0  0  0  0  0  0  0  0
   -8.1440   19.3680  -33.0310 O   0  0  0  0  0  0  0  0  0  0  0  0
   -6.0070   17.8000  -32.9960 N   0  0  0  0  0  0  0  0  0  0  0  0
   -6.8510   16.7260  -33.5160 C   0  0  0  0  0  0  0  0  0  0  0  0
   -5.9360   15.5300  -33.7330 C   0  0  0  0  0  0  0  0  0  0  0  0
   -4.5300   16.1080  -33.8070 C   0  0  0  0  0  0  0  0  0  0  0  0
   -4.7000   17.6080  -33.6210 C   0  0  0  0  0  0  0  0  0  0  0  0
   -6.6720   21.6970  -31.8480 C   0  0  0  0  0  0  0  0  0  0  0  0
   -6.0640   22.7170  -31.1110 C   0  0  0  0  0  0  0  0  0  0  0  0
   -3.7300   22.6590  -28.3340 H   0  0  0  0  0  0  0  0  0  0  0  0
   -4.0266   24.3194  -26.3055 H   0  0  0  0  0  0  0  0  0  0  0  0
   -2.7398   25.9636  -24.9422 H   0  0  0  0  0  0  0  0  0  0  0  0
   -0.7308   27.7366  -22.9850 H   0  0  0  0  0  0  0  0  0  0  0  0
    0.2279   26.4551  -22.1905 H   0  0  0  0  0  0  0  0  0  0  0  0
    0.9778   29.2672  -22.8393 H   0  0  0  0  0  0  0  0  0  0  0  0
    1.6895   28.1846  -21.6366 H   0  0  0  0  0  0  0  0  0  0  0  0
    2.6557   28.7837  -24.3131 H   0  0  0  0  0  0  0  0  0  0  0  0
    3.4022   27.6910  -23.1394 H   0  0  0  0  0  0  0  0  0  0  0  0
    2.1843   26.8988  -25.5382 H   0  0  0  0  0  0  0  0  0  0  0  0
    2.4612   25.8138  -24.1463 H   0  0  0  0  0  0  0  0  0  0  0  0
    0.0277   26.5195  -28.2217 H   0  0  0  0  0  0  0  0  0  0  0  0
   -1.2634   24.8848  -29.5918 H   0  0  0  0  0  0  0  0  0  0  0  0
   -2.8073   21.7018  -31.3674 H   0  0  0  0  0  0  0  0  0  0  0  0
   -3.8967   19.8838  -32.6748 H   0  0  0  0  0  0  0  0  0  0  0  0
   -7.6390   16.4758  -32.7905 H   0  0  0  0  0  0  0  0  0  0  0  0
   -7.3467   17.0247  -34.4514 H   0  0  0  0  0  0  0  0  0  0  0  0
   -6.0187   14.8243  -32.8933 H   0  0  0  0  0  0  0  0  0  0  0  0
   -6.1987   14.9727  -34.6443 H   0  0  0  0  0  0  0  0  0  0  0  0
   -3.8995   15.6901  -33.0083 H   0  0  0  0  0  0  0  0  0  0  0  0
   -4.0382   15.8671  -34.7610 H   0  0  0  0  0  0  0  0  0  0  0  0
   -3.9055   18.0033  -32.9710 H   0  0  0  0  0  0  0  0  0  0  0  0
   -4.6353   18.1392  -34.5821 H   0  0  0  0  0  0  0  0  0  0  0  0
   -7.7621   21.7036  -31.9948 H   0  0  0  0  0  0  0  0  0  0  0  0
   -6.6796   23.5207  -30.6808 H   0  0  0  0  0  0  0  0  0  0  0  0
  1  2  2  0
  2  3  1  0
  3  4  1  0
  4  5  2  0
  5  6  1  0
  6  7  2  0
  7  8  1  0
  8  9  2  0
  8 10  2  0
  8 11  1  0
 11 12  1  0
 12 13  1  0
 13 14  1  0
 14 15  1  0
  7 16  1  0
 16 17  2  0
  2 18  1  0
 18 19  2  0
 19 20  1  0
 20 21  2  0
 21 22  1  0
 22 23  2  0
 22 24  2  0
 22 25  1  0
 25 26  1  0
 26 27  1  0
 27 28  1  0
 28 29  1  0
 21 30  1  0
 30 31  2  0
 17  4  1  0
 31 18  1  0
 15 11  1  0
 29 25  1  0
  3 32  1  0
  5 33  1  0
  6 34  1  0
 12 35  1  0
 12 36  1  0
 13 37  1  0
 13 38  1  0
 14 39  1  0
 14 40  1  0
 15 41  1  0
 15 42  1  0
 16 43  1  0
 17 44  1  0
 19 45  1  0
 20 46  1  0
 26 47  1  0
 26 48  1  0
 27 49  1  0
 27 50  1  0
 28 51  1  0
 28 52  1  0
 29 53  1  0
 29 54  1  0
 30 55  1  0
 31 56  1  0
M  END
>  <UniqueID>  (7) 
7

>  <SMILES>  (7) 
O=C(Nc1ccc(S(=O)(=O)N2CCCC2)cc1)c1ccc(S(=O)(=O)N2CCCC2)cc1

>  <Energy>  (7) 
66.99792583019287

>  <Genealogy>  (7) 
O=C(Nc1ccc(S(=O)(=O)N2CCCC2)cc1)c1ccc(S(=O)(=O)N2CCCC2)cc1 (3D coordinates assigned)
O=C(Nc1ccc(S(=O)(=O)N2CCCC2)cc1)c1ccc(S(=O)(=O)N2CCCC2)cc1 (nonaromatic ring conformer: 66.99792583019287 kcal/mol)

>  <smiles>  (7) 
O=C(Nc1ccc(S(=O)(=O)N2CCCC2)cc1)c1ccc(S(=O)(=O)N2CCCC2)cc1

>  <score_type>  (7) 
oracle

>  <origin>  (7) 
adgpu

>  <m_score__min__energy>  (7) 
-10.109999999999999

>  <m_primary>  (7) 
energy

$$$$
7:0
     RDKit          3D

 33 35  0  0  0  0  0  0  0  0999 V2000
   -4.4390   21.2170  -33.1040 O   0  0  0  0  0  0  0  0  0  0  0  0
   -3.3710   21.6690  -32.6080 C   0  0  0  0  0  0  0  0  0  0  0  0
   -3.4160   22.6170  -31.5310 N   0  0  0  0  0  0  0  0  0  0  0  0
   -4.6300   23.2380  -31.0800 C   0  0  0  0  0  0  0  0  0  0  0  0
   -5.8180   22.4900  -31.0730 C   0  0  0  0  0  0  0  0  0  0  0  0
   -7.0180   23.0590  -30.6120 C   0  0  0  0  0  0  0  0  0  0  0  0
   -8.2510   22.3250  -30.6260 N   0  0  0  0  0  0  0  0  0  0  0  0
   -8.7600   21.5590  -31.7260 C   0  0  0  0  0  0  0  0  0  0  0  0
   -9.7790   21.9780  -32.3350 O   0  0  0  0  0  0  0  0  0  0  0  0
   -8.1650   20.2670  -32.1190 C   0  0  0  0  0  0  0  0  0  0  0  0
   -7.1500   20.0950  -33.0520 C   0  0  0  0  0  0  0  0  0  0  0  0
   -6.8130   18.7540  -33.2660 C   0  0  0  0  0  0  0  0  0  0  0  0
   -7.5680   17.8610  -32.5160 C   0  0  0  0  0  0  0  0  0  0  0  0
   -8.6550   18.7450  -31.5880 S   0  0  0  0  0  0  0  0  0  0  0  0
   -7.0280   24.3910  -30.1860 C   0  0  0  0  0  0  0  0  0  0  0  0
   -5.8450   25.1340  -30.1660 C   0  0  0  0  0  0  0  0  0  0  0  0
   -4.6440   24.5590  -30.5940 C   0  0  0  0  0  0  0  0  0  0  0  0
   -3.4700   25.2990  -30.5090 O   0  0  0  0  0  0  0  0  0  0  0  0
   -2.0760   21.1930  -33.1160 C   0  0  0  0  0  0  0  0  0  0  0  0
   -1.8890   20.3390  -34.1870 C   0  0  0  0  0  0  0  0  0  0  0  0
   -0.5250   20.1760  -34.2970 C   0  0  0  0  0  0  0  0  0  0  0  0
    0.0340   20.9370  -33.2910 C   0  0  0  0  0  0  0  0  0  0  0  0
   -0.9150   21.5310  -32.6050 O   0  0  0  0  0  0  0  0  0  0  0  0
   -2.5560   22.7480  -30.9520 H   0  0  0  0  0  0  0  0  0  0  0  0
   -5.8098   21.4500  -31.4312 H   0  0  0  0  0  0  0  0  0  0  0  0
   -6.6594   20.9312  -33.5716 H   0  0  0  0  0  0  0  0  0  0  0  0
   -6.0237   18.4364  -33.9632 H   0  0  0  0  0  0  0  0  0  0  0  0
   -7.4711   16.7653  -32.5276 H   0  0  0  0  0  0  0  0  0  0  0  0
   -7.9719   24.8560  -29.8651 H   0  0  0  0  0  0  0  0  0  0  0  0
   -5.8582   26.1755  -29.8122 H   0  0  0  0  0  0  0  0  0  0  0  0
   -2.6663   19.8847  -34.8190 H   0  0  0  0  0  0  0  0  0  0  0  0
    0.0100   19.5630  -35.0373 H   0  0  0  0  0  0  0  0  0  0  0  0
    1.1120   21.0318  -33.0935 H   0  0  0  0  0  0  0  0  0  0  0  0
  1  2  2  0
  2  3  1  0
  3  4  1  0
  4  5  2  0
  5  6  1  0
  6  7  1  0
  7  8  1  0
  8  9  2  0
  8 10  1  0
 10 11  2  0
 11 12  1  0
 12 13  2  0
 13 14  1  0
  6 15  2  0
 15 16  1  0
 16 17  2  0
 17 18  1  0
  2 19  1  0
 19 20  2  0
 20 21  1  0
 21 22  2  0
 22 23  1  0
 17  4  1  0
 23 19  1  0
 14 10  1  0
  3 24  1  0
  5 25  1  0
 11 26  1  0
 12 27  1  0
 13 28  1  0
 15 29  1  0
 16 30  1  0
 20 31  1  0
 21 32  1  0
 22 33  1  0
M  CHG  2   7  -1  18  -1
M  END
>  <UniqueID>  (8) 
8

>  <SMILES>  (8) 
O=C(Nc1cc([N-]C(=O)c2cccs2)ccc1[O-])c1ccco1

>  <Energy>  (8) 
96.89731132623305

>  <Genealogy>  (8) 
O=C(Nc1cc([N-]C(=O)c2cccs2)ccc1[O-])c1ccco1 (protonated)
O=C(Nc1cc([N-]C(=O)c2cccs2)ccc1[O-])c1ccco1 (3D coordinates assigned)
O=C(Nc1cc([N-]C(=O)c2cccs2)ccc1[O-])c1ccco1 (optimized conformer: 96.89731132623305 kcal/mol)

>  <smiles>  (8) 
O=C(Nc1cc(NC(=O)c2cccs2)ccc1O)c1ccco1

>  <score_type>  (8) 
oracle

>  <origin>  (8) 
adgpu

>  <m_score__min__energy>  (8) 
-10.81

>  <m_primary>  (8) 
energy

$$$$
8:0
     RDKit          3D

 58 61  0  0  0  0  0  0  0  0999 V2000
   -3.6890   22.9960  -27.6430 C   0  0  0  0  0  0  0  0  0  0  0  0
   -2.4570   22.1340  -27.7460 C   0  0  0  0  0  0  0  0  0  0  0  0
   -2.6220   20.7420  -27.8180 C   0  0  0  0  0  0  0  0  0  0  0  0
   -1.5200   19.8980  -27.9140 C   0  0  0  0  0  0  0  0  0  0  0  0
   -0.2280   20.4210  -27.9550 C   0  0  0  0  0  0  0  0  0  0  0  0
    0.8760   19.5080  -28.0290 N   0  0  0  0  0  0  0  0  0  0  0  0
    1.1190   18.5810  -29.0930 C   0  0  0  0  0  0  0  0  0  0  0  0
    1.5260   17.4160  -28.8380 O   0  0  0  0  0  0  0  0  0  0  0  0
    1.0020   18.9930  -30.4580 N   0  0  0  0  0  0  0  0  0  0  0  0
   -0.0650   19.7800  -31.0100 C   0  0  0  0  0  0  0  0  0  0  0  0
   -0.0380   21.1840  -30.9430 C   0  0  0  0  0  0  0  0  0  0  0  0
   -1.0930   21.9350  -31.4600 C   0  0  0  0  0  0  0  0  0  0  0  0
   -2.1910   21.2990  -32.0370 C   0  0  0  0  0  0  0  0  0  0  0  0
   -2.2460   19.9000  -32.0980 C   0  0  0  0  0  0  0  0  0  0  0  0
   -3.6570   19.1100  -32.8080 S   0  0  0  0  0  0  0  0  0  0  0  0
   -3.9080   19.6720  -34.1790 O   0  0  0  0  0  0  0  0  0  0  0  0
   -3.3940   17.6320  -32.8950 O   0  0  0  0  0  0  0  0  0  0  0  0
   -5.0500   19.3980  -31.8160 N   0  0  0  0  0  0  0  0  0  0  0  0
   -5.7720   20.6340  -31.7410 C   0  0  0  0  0  0  0  0  0  0  0  0
   -7.0880   20.6710  -32.2220 C   0  0  0  0  0  0  0  0  0  0  0  0
   -7.8230   21.8570  -32.1770 C   0  0  0  0  0  0  0  0  0  0  0  0
   -7.2510   23.0170  -31.6490 C   0  0  0  0  0  0  0  0  0  0  0  0
   -5.9400   22.9940  -31.1530 C   0  0  0  0  0  0  0  0  0  0  0  0
   -5.2060   24.4570  -30.5010 S   0  0  0  0  0  0  0  0  0  0  0  0
   -3.4870   24.3640  -30.6720 N   0  0  0  0  0  0  0  0  0  0  0  0
   -5.5600   24.5950  -29.0470 O   0  0  0  0  0  0  0  0  0  0  0  0
   -5.7160   25.6640  -31.2390 O   0  0  0  0  0  0  0  0  0  0  0  0
   -5.1990   21.8030  -31.2050 C   0  0  0  0  0  0  0  0  0  0  0  0
   -1.1900   19.1350  -31.5660 C   0  0  0  0  0  0  0  0  0  0  0  0
   -1.2670   17.7410  -31.5970 O   0  0  0  0  0  0  0  0  0  0  0  0
   -0.0370   21.8120  -27.8500 C   0  0  0  0  0  0  0  0  0  0  0  0
    1.2570   22.3200  -27.7660 O   0  0  0  0  0  0  0  0  0  0  0  0
   -1.1470   22.6850  -27.7870 C   0  0  0  0  0  0  0  0  0  0  0  0
   -0.8850   24.4490  -27.7140 S   0  0  0  0  0  0  0  0  0  0  0  0
   -1.8050   25.1300  -28.6870 O   0  0  0  0  0  0  0  0  0  0  0  0
    0.5230   24.7800  -28.1270 O   0  0  0  0  0  0  0  0  0  0  0  0
   -1.1700   25.1390  -26.0810 C   0  0  0  0  0  0  0  0  0  0  0  0
   -1.4180   26.6390  -25.9930 C   0  0  0  0  0  0  0  0  0  0  0  0
   -2.5810   25.6680  -25.8770 C   0  0  0  0  0  0  0  0  0  0  0  0
   -3.9307   23.1651  -26.5833 H   0  0  0  0  0  0  0  0  0  0  0  0
   -3.5029   23.9619  -28.1353 H   0  0  0  0  0  0  0  0  0  0  0  0
   -4.5327   22.4901  -28.1353 H   0  0  0  0  0  0  0  0  0  0  0  0
   -3.6348   20.3132  -27.7983 H   0  0  0  0  0  0  0  0  0  0  0  0
   -1.6692   18.8091  -27.9579 H   0  0  0  0  0  0  0  0  0  0  0  0
    0.8203   21.6930  -30.4801 H   0  0  0  0  0  0  0  0  0  0  0  0
   -1.0587   23.0334  -31.4123 H   0  0  0  0  0  0  0  0  0  0  0  0
   -3.0180   21.8979  -32.4463 H   0  0  0  0  0  0  0  0  0  0  0  0
   -7.5442   19.7603  -32.6373 H   0  0  0  0  0  0  0  0  0  0  0  0
   -8.8547   21.8782  -32.5581 H   0  0  0  0  0  0  0  0  0  0  0  0
   -7.8310   23.9513  -31.6224 H   0  0  0  0  0  0  0  0  0  0  0  0
   -3.1030   25.2950  -30.3910 H   0  0  0  0  0  0  0  0  0  0  0  0
   -4.1667   21.7829  -30.8255 H   0  0  0  0  0  0  0  0  0  0  0  0
   -2.0050   17.2460  -32.0820 H   0  0  0  0  0  0  0  0  0  0  0  0
   -0.4915   24.4485  -25.5587 H   0  0  0  0  0  0  0  0  0  0  0  0
   -1.0808   27.2014  -25.1098 H   0  0  0  0  0  0  0  0  0  0  0  0
   -1.1878   27.5044  -26.6319 H   0  0  0  0  0  0  0  0  0  0  0  0
   -3.0860   25.5282  -24.9098 H   0  0  0  0  0  0  0  0  0  0  0  0
   -3.5416   25.5403  -26.3975 H   0  0  0  0  0  0  0  0  0  0  0  0
  1  2  1  0
  2  3  2  0
  3  4  1  0
  4  5  2  0
  5  6  1  0
  6  7  1  0
  7  8  2  0
  7  9  1  0
  9 10  1  0
 10 11  2  0
 11 12  1  0
 12 13  2  0
 13 14  1  0
 14 15  1  0
 15 16  2  0
 15 17  2  0
 15 18  1  0
 18 19  1  0
 19 20  2  0
 20 21  1  0
 21 22  2  0
 22 23  1  0
 23 24  1  0
 24 25  1  0
 24 26  2  0
 24 27  2  0
 23 28  2  0
 14 29  2  0
 29 30  1  0
  5 31  1  0
 31 32  1  0
 31 33  2  0
 33 34  1  0
 34 35  2  0
 34 36  2  0
 34 37  1  0
 37 38  1  0
 38 39  1  0
 33  2  1  0
 39 37  1  0
 29 10  1  0
 28 19  1  0
  1 40  1  0
  1 41  1  0
  1 42  1  0
  3 43  1  0
  4 44  1  0
 11 45  1  0
 12 46  1  0
 13 47  1  0
 20 48  1  0
 21 49  1  0
 22 50  1  0
 25 51  1  0
 28 52  1  0
 30 53  1  0
 37 54  1  0
 38 55  1  0
 38 56  1  0
 39 57  1  0
 39 58  1  0
M  CHG  5   6  -1   9  -1  18  -1  25  -1  32  -1
M  END
>  <UniqueID>  (9) 
9

>  <SMILES>  (9) 
Cc1ccc([N-]C(=O)[N-]c2cccc(S(=O)(=O)[N-]c3cccc(S([NH-])(=O)=O)c3)c2O)c([O-])c1S(=O)(=O)C1CC1

>  <Energy>  (9) 
341.9089915788124

>  <Genealogy>  (9) 
Cc1ccc([N-]C(=O)[N-]c2cccc(S(=O)(=O)[N-]c3cccc(S([NH-])(=O)=O)c3)c2O)c([O-])c1S(=O)(=O)C1CC1 (protonated)
Cc1ccc([N-]C(=O)[N-]c2cccc(S(=O)(=O)[N-]c3cccc(S([NH-])(=O)=O)c3)c2O)c([O-])c1S(=O)(=O)C1CC1 (3D coordinates assigned)
Cc1ccc([N-]C(=O)[N-]c2cccc(S(=O)(=O)[N-]c3cccc(S([NH-])(=O)=O)c3)c2O)c([O-])c1S(=O)(=O)C1CC1 (nonaromatic ring conformer: 341.9089915788124 kcal/mol)

>  <smiles>  (9) 
Cc1ccc(NC(=O)Nc2cccc(S(=O)(=O)Nc3cccc(S(N)(=O)=O)c3)c2O)c(O)c1S(=O)(=O)C1CC1

>  <score_type>  (9) 
oracle

>  <origin>  (9) 
adgpu

>  <m_score__min__energy>  (9) 
-17.609999999999999

>  <m_primary>  (9) 
energy

$$$$
9:0
     RDKit          3D

 43 45  0  0  0  0  0  0  0  0999 V2000
   -3.4770   17.5180  -34.5890 C   0  0  0  0  0  0  0  0  0  0  0  0
   -4.6860   17.3930  -33.7240 C   0  0  0  0  0  0  0  0  0  0  0  0
   -4.8690   16.4600  -32.7210 C   0  0  0  0  0  0  0  0  0  0  0  0
   -6.1310   16.6950  -32.2170 C   0  0  0  0  0  0  0  0  0  0  0  0
   -6.6370   17.7530  -32.9500 C   0  0  0  0  0  0  0  0  0  0  0  0
   -8.0050   18.3580  -32.7900 C   0  0  1  0  0  0  0  0  0  0  0  0
   -8.3530   18.4570  -31.2950 C   0  0  0  0  0  0  0  0  0  0  0  0
   -8.0460   19.6780  -33.4490 N   0  0  0  0  0  0  0  0  0  0  0  0
   -7.6130   20.7140  -32.5580 C   0  0  0  0  0  0  0  0  0  0  0  0
   -6.4080   21.0600  -31.9740 C   0  0  0  0  0  0  0  0  0  0  0  0
   -5.0840   20.5180  -32.0340 N   0  0  0  0  0  0  0  0  0  0  0  0
   -3.9410   21.1550  -31.4470 C   0  0  0  0  0  0  0  0  0  0  0  0
   -2.6670   20.5660  -31.5120 C   0  0  0  0  0  0  0  0  0  0  0  0
   -1.5620   21.2160  -30.9540 C   0  0  0  0  0  0  0  0  0  0  0  0
   -1.7170   22.4620  -30.3410 C   0  0  0  0  0  0  0  0  0  0  0  0
   -2.9770   23.0720  -30.2970 C   0  0  0  0  0  0  0  0  0  0  0  0
   -3.1740   24.6400  -29.5220 S   0  0  0  0  0  0  0  0  0  0  0  0
   -1.6250   25.3370  -29.2010 N   0  0  0  0  0  0  0  0  0  0  0  0
   -3.9070   24.4750  -28.2190 O   0  0  0  0  0  0  0  0  0  0  0  0
   -3.9570   25.5500  -30.4260 O   0  0  0  0  0  0  0  0  0  0  0  0
   -4.0850   22.4160  -30.8510 C   0  0  0  0  0  0  0  0  0  0  0  0
   -7.0160   22.1520  -31.3770 C   0  0  0  0  0  0  0  0  0  0  0  0
   -6.6350   23.0920  -30.6310 O   0  0  0  0  0  0  0  0  0  0  0  0
   -8.2190   21.7970  -31.9500 C   0  0  0  0  0  0  0  0  0  0  0  0
   -9.3850   22.2710  -31.9370 O   0  0  0  0  0  0  0  0  0  0  0  0
   -5.7570   18.1420  -33.8450 O   0  0  0  0  0  0  0  0  0  0  0  0
   -2.5817   17.6106  -33.9566 H   0  0  0  0  0  0  0  0  0  0  0  0
   -3.3866   16.6244  -35.2241 H   0  0  0  0  0  0  0  0  0  0  0  0
   -3.5713   18.4112  -35.2241 H   0  0  0  0  0  0  0  0  0  0  0  0
   -4.1558   15.6896  -32.3927 H   0  0  0  0  0  0  0  0  0  0  0  0
   -6.6315   16.1531  -31.4010 H   0  0  0  0  0  0  0  0  0  0  0  0
   -8.7587   17.7179  -33.2720 H   0  0  0  0  0  0  0  0  0  0  0  0
   -7.4664   18.2048  -30.6947 H   0  0  0  0  0  0  0  0  0  0  0  0
   -8.6750   19.4824  -31.0606 H   0  0  0  0  0  0  0  0  0  0  0  0
   -9.1665   17.7546  -31.0606 H   0  0  0  0  0  0  0  0  0  0  0  0
   -7.4420   19.6840  -34.3040 H   0  0  0  0  0  0  0  0  0  0  0  0
   -9.0290   19.9010  -33.7340 H   0  0  0  0  0  0  0  0  0  0  0  0
   -4.9370   19.6660  -32.6200 H   0  0  0  0  0  0  0  0  0  0  0  0
   -2.5385   19.5903  -32.0035 H   0  0  0  0  0  0  0  0  0  0  0  0
   -0.5687   20.7455  -30.9977 H   0  0  0  0  0  0  0  0  0  0  0  0
   -0.8477   22.9648  -29.8921 H   0  0  0  0  0  0  0  0  0  0  0  0
   -1.2930   25.7670  -30.0930 H   0  0  0  0  0  0  0  0  0  0  0  0
   -5.0751   22.8942  -30.8179 H   0  0  0  0  0  0  0  0  0  0  0  0
  1  2  1  0
  2  3  2  0
  3  4  1  0
  4  5  2  0
  5  6  1  0
  6  7  1  0
  6  8  1  0
  8  9  1  0
  9 10  2  0
 10 11  1  0
 11 12  1  0
 12 13  2  0
 13 14  1  0
 14 15  2  0
 15 16  1  0
 16 17  1  0
 17 18  1  0
 17 19  2  0
 17 20  2  0
 16 21  2  0
 10 22  1  0
 22 23  2  0
 22 24  1  0
 24 25  2  0
  5 26  1  0
 26  2  1  0
 24  9  1  0
 21 12  1  0
  1 27  1  0
  1 28  1  0
  1 29  1  0
  3 30  1  0
  4 31  1  0
  6 32  1  6
  7 33  1  0
  7 34  1  0
  7 35  1  0
  8 36  1  0
  8 37  1  0
 11 38  1  0
 13 39  1  0
 14 40  1  0
 15 41  1  0
 18 42  1  0
 21 43  1  0
M  CHG  2   8   1  18  -1
M  END
>  <UniqueID>  (10) 
10

>  <SMILES>  (10) 
Cc1ccc([C@@H](C)[NH2+]c2c(Nc3cccc(S([NH-])(=O)=O)c3)c(=O)c2=O)o1

>  <Energy>  (10) 
60.885677119483724

>  <Genealogy>  (10) 
Cc1ccc(C(C)[NH2+]c2c(Nc3cccc(S([NH-])(=O)=O)c3)c(=O)c2=O)o1 (protonated)
Cc1ccc([C@@H](C)[NH2+]c2c(Nc3cccc(S([NH-])(=O)=O)c3)c(=O)c2=O)o1 (chirality)
Cc1ccc([C@@H](C)[NH2+]c2c(Nc3cccc(S([NH-])(=O)=O)c3)c(=O)c2=O)o1 (3D coordinates assigned)
Cc1ccc([C@@H](C)[NH2+]c2c(Nc3cccc(S([NH-])(=O)=O)c3)c(=O)c2=O)o1 (optimized conformer: 60.885677119483724 kcal/mol)

>  <smiles>  (10) 
Cc1ccc(C(C)Nc2c(Nc3cccc(S(N)(=O)=O)c3)c(=O)c2=O)o1

>  <score_type>  (10) 
oracle

>  <origin>  (10) 
adgpu

>  <m_score__min__energy>  (10) 
-10.85

>  <m_primary>  (10) 
energy

$$$$
10:0
     RDKit          3D

 49 52  0  0  0  0  0  0  0  0999 V2000
   -1.6090   20.6320  -25.9720 C   0  0  0  0  0  0  0  0  0  0  0  0
   -0.5070   20.6070  -26.9490 N   0  0  0  0  0  0  0  0  0  0  0  0
   -0.8710   19.9080  -28.1970 C   0  0  0  0  0  0  0  0  0  0  0  0
   -1.9850   20.6290  -28.9710 C   0  0  0  0  0  0  0  0  0  0  0  0
   -1.7930   22.1230  -29.0010 C   0  0  0  0  0  0  0  0  0  0  0  0
   -2.6240   22.8950  -29.8230 C   0  0  0  0  0  0  0  0  0  0  0  0
   -2.5740   24.2980  -29.7780 C   0  0  0  0  0  0  0  0  0  0  0  0
   -3.5370   25.0960  -30.4810 N   0  0  0  0  0  0  0  0  0  0  0  0
   -5.2490   24.9280  -30.2490 S   0  0  0  0  0  0  0  0  0  0  0  0
   -5.9600   26.0470  -30.9570 O   0  0  0  0  0  0  0  0  0  0  0  0
   -5.5670   24.9860  -28.7820 O   0  0  0  0  0  0  0  0  0  0  0  0
   -5.7510   23.3610  -30.8830 C   0  0  0  0  0  0  0  0  0  0  0  0
   -5.3090   22.1940  -30.2500 C   0  0  0  0  0  0  0  0  0  0  0  0
   -5.5190   20.9470  -30.8450 C   0  0  0  0  0  0  0  0  0  0  0  0
   -6.1700   20.8520  -32.0880 C   0  0  0  0  0  0  0  0  0  0  0  0
   -6.3080   19.5390  -32.7630 C   0  0  0  0  0  0  0  0  0  0  0  0
   -5.6290   19.2840  -33.9680 C   0  0  0  0  0  0  0  0  0  0  0  0
   -5.7400   18.0390  -34.5920 C   0  0  0  0  0  0  0  0  0  0  0  0
   -6.5310   17.0340  -34.0230 C   0  0  0  0  0  0  0  0  0  0  0  0
   -6.6500   15.7890  -34.6370 O   0  0  0  0  0  0  0  0  0  0  0  0
   -7.2100   17.2800  -32.8250 C   0  0  0  0  0  0  0  0  0  0  0  0
   -7.0980   18.5230  -32.1960 C   0  0  0  0  0  0  0  0  0  0  0  0
   -6.6470   22.0240  -32.6990 C   0  0  0  0  0  0  0  0  0  0  0  0
   -6.4440   23.2700  -32.0990 C   0  0  0  0  0  0  0  0  0  0  0  0
   -1.6170   24.9260  -28.9720 C   0  0  0  0  0  0  0  0  0  0  0  0
   -1.5230   26.3120  -28.9480 O   0  0  0  0  0  0  0  0  0  0  0  0
   -0.7720   24.1610  -28.1620 C   0  0  0  0  0  0  0  0  0  0  0  0
   -0.8860   22.7630  -28.1330 C   0  0  0  0  0  0  0  0  0  0  0  0
    0.0190   21.9590  -27.2290 C   0  0  0  0  0  0  0  0  0  0  0  0
   -1.1956   20.6226  -24.9527 H   0  0  0  0  0  0  0  0  0  0  0  0
   -2.2068   21.5439  -26.1168 H   0  0  0  0  0  0  0  0  0  0  0  0
   -2.2476   19.7481  -26.1168 H   0  0  0  0  0  0  0  0  0  0  0  0
    0.0202   19.8444  -28.8386 H   0  0  0  0  0  0  0  0  0  0  0  0
   -1.2449   18.9100  -27.9246 H   0  0  0  0  0  0  0  0  0  0  0  0
   -1.9958   20.2539  -30.0050 H   0  0  0  0  0  0  0  0  0  0  0  0
   -2.9356   20.4245  -28.4566 H   0  0  0  0  0  0  0  0  0  0  0  0
   -3.3231   22.3972  -30.5110 H   0  0  0  0  0  0  0  0  0  0  0  0
   -4.7941   22.2584  -29.2801 H   0  0  0  0  0  0  0  0  0  0  0  0
   -5.1730   20.0342  -30.3380 H   0  0  0  0  0  0  0  0  0  0  0  0
   -5.0069   20.0695  -34.4218 H   0  0  0  0  0  0  0  0  0  0  0  0
   -5.2041   17.8479  -35.5334 H   0  0  0  0  0  0  0  0  0  0  0  0
   -6.1610   14.9760  -34.2830 H   0  0  0  0  0  0  0  0  0  0  0  0
   -7.8339   16.4928  -32.3767 H   0  0  0  0  0  0  0  0  0  0  0  0
   -7.6310   18.7078  -31.2517 H   0  0  0  0  0  0  0  0  0  0  0  0
   -7.1842   21.9604  -33.6568 H   0  0  0  0  0  0  0  0  0  0  0  0
   -6.8284   24.1808  -32.5813 H   0  0  0  0  0  0  0  0  0  0  0  0
   -0.0118   24.6594  -27.5426 H   0  0  0  0  0  0  0  0  0  0  0  0
    1.0019   21.8606  -27.7130 H   0  0  0  0  0  0  0  0  0  0  0  0
    0.0885   22.4929  -26.2698 H   0  0  0  0  0  0  0  0  0  0  0  0
  1  2  1  0
  2  3  1  0
  3  4  1  0
  4  5  1  0
  5  6  2  0
  6  7  1  0
  7  8  1  0
  8  9  1  0
  9 10  2  0
  9 11  2  0
  9 12  1  0
 12 13  2  0
 13 14  1  0
 14 15  2  0
 15 16  1  0
 16 17  2  0
 17 18  1  0
 18 19  2  0
 19 20  1  0
 19 21  1  0
 21 22  2  0
 15 23  1  0
 23 24  2  0
  7 25  2  0
 25 26  1  0
 25 27  1  0
 27 28  2  0
 28 29  1  0
 29  2  1  0
 28  5  1  0
 24 12  1  0
 22 16  1  0
  1 30  1  0
  1 31  1  0
  1 32  1  0
  3 33  1  0
  3 34  1  0
  4 35  1  0
  4 36  1  0
  6 37  1  0
 13 38  1  0
 14 39  1  0
 17 40  1  0
 18 41  1  0
 20 42  1  0
 21 43  1  0
 22 44  1  0
 23 45  1  0
 24 46  1  0
 27 47  1  0
 29 48  1  0
 29 49  1  0
M  CHG  2   8  -1  26  -1
M  END
>  <UniqueID>  (11) 
11

>  <SMILES>  (11) 
CN1CCc2cc([N-]S(=O)(=O)c3ccc(-c4ccc(O)cc4)cc3)c([O-])cc2C1

>  <Energy>  (11) 
66.38076141698663

>  <Genealogy>  (11) 
CN1CCc2cc([N-]S(=O)(=O)c3ccc(-c4ccc(O)cc4)cc3)c([O-])cc2C1 (protonated)
CN1CCc2cc([N-]S(=O)(=O)c3ccc(-c4ccc(O)cc4)cc3)c([O-])cc2C1 (3D coordinates assigned)
CN1CCc2cc([N-]S(=O)(=O)c3ccc(-c4ccc(O)cc4)cc3)c([O-])cc2C1 (nonaromatic ring conformer: 66.38076141698663 kcal/mol)

>  <smiles>  (11) 
CN1CCc2cc(NS(=O)(=O)c3ccc(-c4ccc(O)cc4)cc3)c(O)cc2C1

>  <score_type>  (11) 
oracle

>  <origin>  (11) 
adgpu

>  <m_score__min__energy>  (11) 
-14.31

>  <m_primary>  (11) 
energy

$$$$
11:0
     RDKit          3D

 61 64  0  0  0  0  0  0  0  0999 V2000
   -5.2890   18.0920  -32.8500 C   0  0  0  0  0  0  0  0  0  0  0  0
   -6.0480   19.3250  -32.4690 C   0  0  0  0  0  0  0  0  0  0  0  0
   -7.3730   19.3290  -32.2280 N   0  0  0  0  0  0  0  0  0  0  0  0
   -7.7420   20.6140  -32.0460 C   0  0  0  0  0  0  0  0  0  0  0  0
   -9.1430   21.0300  -31.7320 C   0  0  0  0  0  0  0  0  0  0  0  0
   -6.6390   21.4460  -32.1810 C   0  0  0  0  0  0  0  0  0  0  0  0
   -6.5740   23.1980  -31.9890 S   0  0  0  0  0  0  0  0  0  0  0  0
   -5.3670   23.7540  -32.6900 O   0  0  0  0  0  0  0  0  0  0  0  0
   -7.8060   23.7850  -32.6230 O   0  0  0  0  0  0  0  0  0  0  0  0
   -6.5320   23.5900  -30.2830 N   0  0  0  0  0  0  0  0  0  0  0  0
   -5.3180   23.0630  -29.6230 C   0  0  0  0  0  0  0  0  0  0  0  0
   -4.2200   24.1300  -29.4580 C   0  0  0  0  0  0  0  0  0  0  0  0
   -4.2760   25.0620  -30.5150 O   0  0  0  0  0  0  0  0  0  0  0  0
   -5.4490   25.8490  -30.4120 C   0  0  0  0  0  0  0  0  0  0  0  0
   -6.7140   25.0330  -30.0500 C   0  0  0  0  0  0  0  0  0  0  0  0
   -5.5620   20.6240  -32.4600 C   0  0  0  0  0  0  0  0  0  0  0  0
   -4.1760   21.0570  -32.7050 C   0  0  0  0  0  0  0  0  0  0  0  0
   -3.9150   21.6720  -33.7740 O   0  0  0  0  0  0  0  0  0  0  0  0
   -3.1310   20.8070  -31.7460 N   0  0  0  0  0  0  0  0  0  0  0  0
   -3.4330   20.5790  -30.3270 C   0  0  0  0  0  0  0  0  0  0  0  0
   -2.4730   21.4110  -29.4740 C   0  0  0  0  0  0  0  0  0  0  0  0
   -1.0510   21.1020  -29.7610 N   0  0  0  0  0  0  0  0  0  0  0  0
   -0.1150   22.1910  -29.4020 C   0  0  0  0  0  0  0  0  0  0  0  0
   -0.7220   23.2510  -28.5030 C   0  0  0  0  0  0  0  0  0  0  0  0
   -1.0680   22.9480  -27.1740 C   0  0  0  0  0  0  0  0  0  0  0  0
   -1.6130   23.9290  -26.3420 C   0  0  0  0  0  0  0  0  0  0  0  0
   -1.8350   25.2180  -26.8320 C   0  0  0  0  0  0  0  0  0  0  0  0
   -1.5260   25.5230  -28.1610 C   0  0  0  0  0  0  0  0  0  0  0  0
   -0.9810   24.5430  -28.9960 C   0  0  0  0  0  0  0  0  0  0  0  0
   -0.7750   20.4420  -31.0590 C   0  0  0  0  0  0  0  0  0  0  0  0
   -1.7290   20.9010  -32.1740 C   0  0  0  0  0  0  0  0  0  0  0  0
   -4.9648   17.5653  -31.9404 H   0  0  0  0  0  0  0  0  0  0  0  0
   -5.9371   17.4316  -33.4448 H   0  0  0  0  0  0  0  0  0  0  0  0
   -4.4074   18.3732  -33.4448 H   0  0  0  0  0  0  0  0  0  0  0  0
   -8.0000   18.4940  -32.2040 H   0  0  0  0  0  0  0  0  0  0  0  0
   -9.2778   21.0700  -30.6410 H   0  0  0  0  0  0  0  0  0  0  0  0
   -9.3354   22.0240  -32.1620 H   0  0  0  0  0  0  0  0  0  0  0  0
   -9.8467   20.3021  -32.1620 H   0  0  0  0  0  0  0  0  0  0  0  0
   -5.5944   22.6858  -28.6274 H   0  0  0  0  0  0  0  0  0  0  0  0
   -4.9123   22.2651  -30.2624 H   0  0  0  0  0  0  0  0  0  0  0  0
   -4.3666   24.6560  -28.5031 H   0  0  0  0  0  0  0  0  0  0  0  0
   -3.2376   23.6353  -29.4707 H   0  0  0  0  0  0  0  0  0  0  0  0
   -5.2905   26.6087  -29.6324 H   0  0  0  0  0  0  0  0  0  0  0  0
   -5.6257   26.2952  -31.4018 H   0  0  0  0  0  0  0  0  0  0  0  0
   -6.9466   25.1934  -28.9869 H   0  0  0  0  0  0  0  0  0  0  0  0
   -7.5344   25.3782  -30.6964 H   0  0  0  0  0  0  0  0  0  0  0  0
   -4.4696   20.8815  -30.1172 H   0  0  0  0  0  0  0  0  0  0  0  0
   -3.3132   19.5120  -30.0881 H   0  0  0  0  0  0  0  0  0  0  0  0
   -2.6514   22.4769  -29.6788 H   0  0  0  0  0  0  0  0  0  0  0  0
   -2.6635   21.1666  -28.4185 H   0  0  0  0  0  0  0  0  0  0  0  0
    0.7480   21.7489  -28.8825 H   0  0  0  0  0  0  0  0  0  0  0  0
    0.1679   22.6913  -30.3399 H   0  0  0  0  0  0  0  0  0  0  0  0
   -0.9083   21.9309  -26.7867 H   0  0  0  0  0  0  0  0  0  0  0  0
   -1.8676   23.6860  -25.2998 H   0  0  0  0  0  0  0  0  0  0  0  0
   -2.2528   25.9929  -26.1725 H   0  0  0  0  0  0  0  0  0  0  0  0
   -1.7119   26.5350  -28.5500 H   0  0  0  0  0  0  0  0  0  0  0  0
   -0.7533   24.7836  -30.0449 H   0  0  0  0  0  0  0  0  0  0  0  0
    0.2567   20.6762  -31.3603 H   0  0  0  0  0  0  0  0  0  0  0  0
   -0.9232   19.3610  -30.9197 H   0  0  0  0  0  0  0  0  0  0  0  0
   -1.5022   21.9458  -32.4327 H   0  0  0  0  0  0  0  0  0  0  0  0
   -1.5864   20.2457  -33.0459 H   0  0  0  0  0  0  0  0  0  0  0  0
  1  2  1  0
  2  3  1  0
  3  4  1  0
  4  5  1  0
  4  6  2  0
  6  7  1  0
  7  8  2  0
  7  9  2  0
  7 10  1  0
 10 11  1  0
 11 12  1  0
 12 13  1  0
 13 14  1  0
 14 15  1  0
  6 16  1  0
 16 17  1  0
 17 18  2  0
 17 19  1  0
 19 20  1  0
 20 21  1  0
 21 22  1  0
 22 23  1  0
 23 24  1  0
 24 25  2  0
 25 26  1  0
 26 27  2  0
 27 28  1  0
 28 29  2  0
 22 30  1  0
 30 31  1  0
 16  2  2  0
 31 19  1  0
 15 10  1  0
 29 24  1  0
  1 32  1  0
  1 33  1  0
  1 34  1  0
  3 35  1  0
  5 36  1  0
  5 37  1  0
  5 38  1  0
 11 39  1  0
 11 40  1  0
 12 41  1  0
 12 42  1  0
 14 43  1  0
 14 44  1  0
 15 45  1  0
 15 46  1  0
 20 47  1  0
 20 48  1  0
 21 49  1  0
 21 50  1  0
 23 51  1  0
 23 52  1  0
 25 53  1  0
 26 54  1  0
 27 55  1  0
 28 56  1  0
 29 57  1  0
 30 58  1  0
 30 59  1  0
 31 60  1  0
 31 61  1  0
M  END
>  <UniqueID>  (12) 
12

>  <SMILES>  (12) 
Cc1[nH]c(C)c(S(=O)(=O)N2CCOCC2)c1C(=O)N1CCN(Cc2ccccc2)CC1

>  <Energy>  (12) 
112.27802769133957

>  <Genealogy>  (12) 
Cc1[nH]c(C)c(S(=O)(=O)N2CCOCC2)c1C(=O)N1CCN(Cc2ccccc2)CC1 (3D coordinates assigned)
Cc1[nH]c(C)c(S(=O)(=O)N2CCOCC2)c1C(=O)N1CCN(Cc2ccccc2)CC1 (nonaromatic ring conformer: 112.27802769133957 kcal/mol)

>  <smiles>  (12) 
Cc1[nH]c(C)c(S(=O)(=O)N2CCOCC2)c1C(=O)N1CCN(Cc2ccccc2)CC1

>  <score_type>  (12) 
oracle

>  <origin>  (12) 
adgpu

>  <m_score__min__energy>  (12) 
-9.75

>  <m_primary>  (12) 
energy

$$$$
12:0
     RDKit          3D

 54 57  0  0  0  0  0  0  0  0999 V2000
    2.3500   28.4690  -26.4167 H   0  0  0  0  0  0  0  0  0  0  0  0
    1.5500   27.7700  -26.7020 C   0  0  0  0  0  0  0  0  0  0  0  0
    1.8480   26.4750  -26.9820 N   0  0  0  0  0  0  0  0  0  0  0  0
    0.8880   25.5780  -27.3340 C   0  0  0  0  0  0  0  0  0  0  0  0
    1.1664   24.5370  -27.5549 H   0  0  0  0  0  0  0  0  0  0  0  0
   -0.4600   25.9750  -27.4170 C   0  0  0  0  0  0  0  0  0  0  0  0
   -1.5300   25.0270  -27.8230 C   0  0  0  0  0  0  0  0  0  0  0  0
   -2.2570   25.2840  -28.9470 N   0  0  0  0  0  0  0  0  0  0  0  0
   -3.2490   24.4540  -29.3640 C   0  0  0  0  0  0  0  0  0  0  0  0
   -3.8920   24.7360  -30.4600 N   0  0  0  0  0  0  0  0  0  0  0  0
   -4.9960   24.0090  -31.0280 C   0  0  0  0  0  0  0  0  0  0  0  0
   -6.2900   24.5170  -30.8670 C   0  0  0  0  0  0  0  0  0  0  0  0
   -6.4425   25.4642  -30.3289 H   0  0  0  0  0  0  0  0  0  0  0  0
   -7.3880   23.8290  -31.3850 C   0  0  0  0  0  0  0  0  0  0  0  0
   -8.4004   24.2417  -31.2637 H   0  0  0  0  0  0  0  0  0  0  0  0
   -7.2060   22.6180  -32.0570 C   0  0  0  0  0  0  0  0  0  0  0  0
   -8.0759   22.0896  -32.4741 H   0  0  0  0  0  0  0  0  0  0  0  0
   -5.9180   22.0680  -32.2050 C   0  0  0  0  0  0  0  0  0  0  0  0
   -5.7050   20.7790  -32.9150 C   0  0  0  0  0  0  0  0  0  0  0  0
   -4.3280   19.8170  -32.7840 S   0  0  0  0  0  0  0  0  0  0  0  0
   -4.7980   18.6330  -33.8770 C   0  0  0  0  0  0  0  0  0  0  0  0
   -4.0340   17.4180  -34.2110 C   0  0  0  0  0  0  0  0  0  0  0  0
   -3.7430   17.1790  -35.4110 O   0  0  0  0  0  0  0  0  0  0  0  0
   -3.6630   16.4700  -33.2040 N   0  0  0  0  0  0  0  0  0  0  0  0
   -4.6210   15.6970  -32.4190 C   0  0  0  0  0  0  0  0  0  0  0  0
   -5.5346   16.2917  -32.2717 H   0  0  0  0  0  0  0  0  0  0  0  0
   -4.1731   15.4513  -31.4448 H   0  0  0  0  0  0  0  0  0  0  0  0
   -4.9740   14.4000  -33.1490 C   0  0  0  0  0  0  0  0  0  0  0  0
   -5.4728   13.7144  -32.4482 H   0  0  0  0  0  0  0  0  0  0  0  0
   -4.0490   13.9441  -33.5318 H   0  0  0  0  0  0  0  0  0  0  0  0
   -5.8790   14.6760  -34.2880 N   0  0  0  0  0  0  0  0  0  0  0  0
   -6.8100   15.7730  -33.9700 C   0  0  0  0  0  0  0  0  0  0  0  0
   -6.8968   15.8753  -32.8782 H   0  0  0  0  0  0  0  0  0  0  0  0
   -6.4293   16.7125  -34.3972 H   0  0  0  0  0  0  0  0  0  0  0  0
   -7.7989   15.5501  -34.3972 H   0  0  0  0  0  0  0  0  0  0  0  0
   -6.6460   13.4710  -34.6430 C   0  0  0  0  0  0  0  0  0  0  0  0
   -6.9714   12.9598  -33.7250 H   0  0  0  0  0  0  0  0  0  0  0  0
   -7.5276   13.7586  -35.2347 H   0  0  0  0  0  0  0  0  0  0  0  0
   -6.0122   12.7940  -35.2347 H   0  0  0  0  0  0  0  0  0  0  0  0
   -6.0660   18.9570  -34.3460 C   0  0  0  0  0  0  0  0  0  0  0  0
   -6.6221   18.3324  -35.0606 H   0  0  0  0  0  0  0  0  0  0  0  0
   -6.5680   20.1560  -33.8210 C   0  0  0  0  0  0  0  0  0  0  0  0
   -7.5499   20.5683  -34.0965 H   0  0  0  0  0  0  0  0  0  0  0  0
   -4.8210   22.7670  -31.6660 C   0  0  0  0  0  0  0  0  0  0  0  0
   -3.8121   22.3358  -31.7448 H   0  0  0  0  0  0  0  0  0  0  0  0
   -3.5210   23.3250  -28.6530 N   0  0  0  0  0  0  0  0  0  0  0  0
   -2.8320   23.0270  -27.5210 C   0  0  0  0  0  0  0  0  0  0  0  0
   -3.0715   22.1137  -26.9566 H   0  0  0  0  0  0  0  0  0  0  0  0
   -1.8230   23.8760  -27.0740 C   0  0  0  0  0  0  0  0  0  0  0  0
   -1.2665   23.6496  -26.1525 H   0  0  0  0  0  0  0  0  0  0  0  0
   -0.7750   27.3160  -27.1380 C   0  0  0  0  0  0  0  0  0  0  0  0
   -1.8180   27.6591  -27.2053 H   0  0  0  0  0  0  0  0  0  0  0  0
    0.2300   28.2140  -26.7760 C   0  0  0  0  0  0  0  0  0  0  0  0
   -0.0166   29.2621  -26.5511 H   0  0  0  0  0  0  0  0  0  0  0  0
  1  2  1  0
  2  3  2  0
  3  4  1  0
  4  5  1  0
  4  6  2  0
  6  7  1  0
  7  8  2  0
  8  9  1  0
  9 10  2  0
 10 11  1  0
 11 12  2  0
 12 13  1  0
 12 14  1  0
 14 15  1  0
 14 16  2  0
 16 17  1  0
 16 18  1  0
 18 19  1  0
 19 20  1  0
 20 21  1  0
 21 22  1  0
 22 23  2  0
 22 24  1  0
 24 25  1  0
 25 26  1  0
 25 27  1  0
 25 28  1  0
 28 29  1  0
 28 30  1  0
 28 31  1  0
 31 32  1  0
 32 33  1  0
 32 34  1  0
 32 35  1  0
 31 36  1  0
 36 37  1  0
 36 38  1  0
 36 39  1  0
 21 40  2  0
 40 41  1  0
 40 42  1  0
 42 43  1  0
 18 44  2  0
 44 45  1  0
  9 46  1  0
 46 47  1  0
 47 48  1  0
 47 49  2  0
 49 50  1  0
  6 51  1  0
 51 52  1  0
 51 53  2  0
 53 54  1  0
 53  2  1  0
 49  7  1  0
 44 11  1  0
 42 19  2  0
M  CHG  2  24  -1  46  -1
M  END
>  <UniqueID>  (13) 
13

>  <SMILES>  (13) 
CN(C)CC[N-]C(=O)c1ccc(-c2cccc(/N=c3/nc(-c4cccnc4)cc[n-]3)c2)s1

>  <Energy>  (13) 
99.86179789397293

>  <Genealogy>  (13) 
CN(C)CC[N-]C(=O)c1ccc(-c2cccc(N=c3nc(-c4cccnc4)cc[n-]3)c2)s1 (protonated)
CN(C)CC[N-]C(=O)c1ccc(-c2cccc(/N=c3/nc(-c4cccnc4)cc[n-]3)c2)s1 (cis-trans isomerization)
CN(C)CC[N-]C(=O)c1ccc(-c2cccc(/N=c3/nc(-c4cccnc4)cc[n-]3)c2)s1 (3D coordinates assigned)
CN(C)CC[N-]C(=O)c1ccc(-c2cccc(/N=c3/nc(-c4cccnc4)cc[n-]3)c2)s1 (optimized conformer: 99.86179789397293 kcal/mol)

>  <smiles>  (13) 
CN(C)CCNC(=O)c1ccc(-c2cccc(N=c3nc(-c4cccnc4)cc[nH]3)c2)s1

>  <score_type>  (13) 
oracle

>  <origin>  (13) 
adgpu

>  <m_score__min__energy>  (13) 
-10.98

>  <m_primary>  (13) 
energy

$$$$
13:0
     RDKit          3D

 49 52  0  0  0  0  0  0  0  0999 V2000
   -5.9400   25.3900  -31.2090 O   0  0  0  0  0  0  0  0  0  0  0  0
   -5.1110   24.3360  -30.5290 S   0  0  0  0  0  0  0  0  0  0  0  0
   -5.7070   24.0500  -29.1790 O   0  0  0  0  0  0  0  0  0  0  0  0
   -3.4700   24.8950  -30.3960 N   0  0  0  0  0  0  0  0  0  0  0  0
   -2.4930   24.3800  -29.4850 C   0  0  0  0  0  0  0  0  0  0  0  0
   -2.0380   25.2040  -28.4490 C   0  0  0  0  0  0  0  0  0  0  0  0
   -1.0350   24.7610  -27.5850 C   0  0  0  0  0  0  0  0  0  0  0  0
   -0.4720   23.4940  -27.7550 C   0  0  0  0  0  0  0  0  0  0  0  0
   -0.9400   22.6480  -28.7710 C   0  0  0  0  0  0  0  0  0  0  0  0
   -0.1690   21.0830  -29.0550 S   0  0  0  0  0  0  0  0  0  0  0  0
    1.0940   21.0020  -28.2440 O   0  0  0  0  0  0  0  0  0  0  0  0
    0.2010   20.9650  -30.5080 O   0  0  0  0  0  0  0  0  0  0  0  0
   -1.2340   19.7580  -28.6340 N   0  0  0  0  0  0  0  0  0  0  0  0
   -2.6510   20.1920  -28.5450 C   0  0  0  0  0  0  0  0  0  0  0  0
   -3.1130   20.4830  -27.1020 C   0  0  0  0  0  0  0  0  0  0  0  0
   -2.8510   19.3000  -26.1420 C   0  0  0  0  0  0  0  0  0  0  0  0
   -1.8420   18.2880  -26.7060 C   0  0  0  0  0  0  0  0  0  0  0  0
   -0.7250   19.0240  -27.4540 C   0  0  0  0  0  0  0  0  0  0  0  0
   -1.9790   23.0800  -29.6080 C   0  0  0  0  0  0  0  0  0  0  0  0
   -5.1190   22.8280  -31.4510 C   0  0  0  0  0  0  0  0  0  0  0  0
   -3.9280   22.3360  -32.0060 C   0  0  0  0  0  0  0  0  0  0  0  0
   -3.9320   21.1610  -32.7610 C   0  0  0  0  0  0  0  0  0  0  0  0
   -5.1210   20.4590  -32.9710 C   0  0  0  0  0  0  0  0  0  0  0  0
   -6.3190   20.9320  -32.4160 C   0  0  0  0  0  0  0  0  0  0  0  0
   -7.5280   20.2490  -32.6140 C   0  0  0  0  0  0  0  0  0  0  0  0
   -8.7070   20.7470  -32.0560 C   0  0  0  0  0  0  0  0  0  0  0  0
   -8.6690   21.9240  -31.3060 C   0  0  0  0  0  0  0  0  0  0  0  0
   -7.4920   22.5790  -31.1230 N   0  0  0  0  0  0  0  0  0  0  0  0
   -6.3210   22.1220  -31.6500 C   0  0  0  0  0  0  0  0  0  0  0  0
   -2.4729   26.2055  -28.3150 H   0  0  0  0  0  0  0  0  0  0  0  0
   -0.6873   25.4111  -26.7686 H   0  0  0  0  0  0  0  0  0  0  0  0
    0.3391   23.1595  -27.0915 H   0  0  0  0  0  0  0  0  0  0  0  0
   -2.7733   21.1080  -29.1417 H   0  0  0  0  0  0  0  0  0  0  0  0
   -3.2687   19.3640  -28.9231 H   0  0  0  0  0  0  0  0  0  0  0  0
   -2.5709   21.3649  -26.7300 H   0  0  0  0  0  0  0  0  0  0  0  0
   -4.1992   20.6548  -27.1290 H   0  0  0  0  0  0  0  0  0  0  0  0
   -2.4584   19.6968  -25.1942 H   0  0  0  0  0  0  0  0  0  0  0  0
   -3.8052   18.7718  -25.9991 H   0  0  0  0  0  0  0  0  0  0  0  0
   -1.4062   17.7083  -25.8789 H   0  0  0  0  0  0  0  0  0  0  0  0
   -2.3592   17.6121  -27.4029 H   0  0  0  0  0  0  0  0  0  0  0  0
   -0.2514   19.7412  -26.7675 H   0  0  0  0  0  0  0  0  0  0  0  0
   -0.0031   18.2733  -27.8079 H   0  0  0  0  0  0  0  0  0  0  0  0
   -2.3929   22.3968  -30.3643 H   0  0  0  0  0  0  0  0  0  0  0  0
   -2.9850   22.8792  -31.8455 H   0  0  0  0  0  0  0  0  0  0  0  0
   -2.9925   20.7860  -33.1931 H   0  0  0  0  0  0  0  0  0  0  0  0
   -5.1178   19.5368  -33.5706 H   0  0  0  0  0  0  0  0  0  0  0  0
   -7.5472   19.3231  -33.2076 H   0  0  0  0  0  0  0  0  0  0  0  0
   -9.6586   20.2160  -32.2061 H   0  0  0  0  0  0  0  0  0  0  0  0
   -9.5934   22.3221  -30.8623 H   0  0  0  0  0  0  0  0  0  0  0  0
  1  2  2  0
  2  3  2  0
  2  4  1  0
  4  5  1  0
  5  6  2  0
  6  7  1  0
  7  8  2  0
  8  9  1  0
  9 10  1  0
 10 11  2  0
 10 12  2  0
 10 13  1  0
 13 14  1  0
 14 15  1  0
 15 16  1  0
 16 17  1  0
 17 18  1  0
  9 19  2  0
  2 20  1  0
 20 21  2  0
 21 22  1  0
 22 23  2  0
 23 24  1  0
 24 25  2  0
 25 26  1  0
 26 27  2  0
 27 28  1  0
 28 29  2  0
 19  5  1  0
 29 20  1  0
 18 13  1  0
 29 24  1  0
  6 30  1  0
  7 31  1  0
  8 32  1  0
 14 33  1  0
 14 34  1  0
 15 35  1  0
 15 36  1  0
 16 37  1  0
 16 38  1  0
 17 39  1  0
 17 40  1  0
 18 41  1  0
 18 42  1  0
 19 43  1  0
 21 44  1  0
 22 45  1  0
 23 46  1  0
 25 47  1  0
 26 48  1  0
 27 49  1  0
M  CHG  1   4  -1
M  END
>  <UniqueID>  (14) 
14

>  <SMILES>  (14) 
O=S(=O)([N-]c1cccc(S(=O)(=O)N2CCCCC2)c1)c1cccc2cccnc12

>  <Energy>  (14) 
66.40614482915794

>  <Genealogy>  (14) 
O=S(=O)([N-]c1cccc(S(=O)(=O)N2CCCCC2)c1)c1cccc2cccnc12 (protonated)
O=S(=O)([N-]c1cccc(S(=O)(=O)N2CCCCC2)c1)c1cccc2cccnc12 (3D coordinates assigned)
O=S(=O)([N-]c1cccc(S(=O)(=O)N2CCCCC2)c1)c1cccc2cccnc12 (nonaromatic ring conformer: 66.40614482915794 kcal/mol)

>  <smiles>  (14) 
O=S(=O)(Nc1cccc(S(=O)(=O)N2CCCCC2)c1)c1cccc2cccnc12

>  <score_type>  (14) 
oracle

>  <origin>  (14) 
adgpu

>  <m_score__min__energy>  (14) 
-11.52

>  <m_primary>  (14) 
energy

$$$$
14:0
     RDKit          3D

 40 42  0  0  0  0  0  0  0  0999 V2000
   -3.3970   19.6530  -33.6630 C   0  0  0  0  0  0  0  0  0  0  0  0
   -4.0430   18.3750  -33.1430 C   0  0  0  0  0  0  0  0  0  0  0  0
   -5.6510   18.1220  -33.8770 S   0  0  0  0  0  0  0  0  0  0  0  0
   -5.5730   18.3580  -35.3600 O   0  0  0  0  0  0  0  0  0  0  0  0
   -6.0930   16.7050  -33.6410 O   0  0  0  0  0  0  0  0  0  0  0  0
   -6.8170   19.2250  -33.1510 C   0  0  0  0  0  0  0  0  0  0  0  0
   -8.0420   18.7340  -32.6850 C   0  0  0  0  0  0  0  0  0  0  0  0
   -8.9500   19.5920  -32.0610 C   0  0  0  0  0  0  0  0  0  0  0  0
   -8.6330   20.9420  -31.8790 C   0  0  0  0  0  0  0  0  0  0  0  0
   -9.5600   21.7840  -31.2760 O   0  0  0  0  0  0  0  0  0  0  0  0
   -7.3890   21.4370  -32.3190 C   0  0  0  0  0  0  0  0  0  0  0  0
   -7.0050   22.8010  -32.1030 N   0  0  0  0  0  0  0  0  0  0  0  0
   -6.7050   23.3810  -30.8270 C   0  0  0  0  0  0  0  0  0  0  0  0
   -7.6290   23.5000  -29.9810 O   0  0  0  0  0  0  0  0  0  0  0  0
   -5.3580   23.8820  -30.4940 C   0  0  0  0  0  0  0  0  0  0  0  0
   -4.4490   23.2960  -29.6350 C   0  0  0  0  0  0  0  0  0  0  0  0
   -3.3480   24.1300  -29.6880 C   0  0  0  0  0  0  0  0  0  0  0  0
   -2.0640   23.9580  -28.9680 C   0  0  0  0  0  0  0  0  0  0  0  0
   -1.6290   22.6590  -28.6480 C   0  0  0  0  0  0  0  0  0  0  0  0
   -0.4300   22.4610  -27.9580 C   0  0  0  0  0  0  0  0  0  0  0  0
    0.3520   23.5540  -27.5840 C   0  0  0  0  0  0  0  0  0  0  0  0
   -0.0570   24.8490  -27.9100 C   0  0  0  0  0  0  0  0  0  0  0  0
   -1.2530   25.0580  -28.6060 C   0  0  0  0  0  0  0  0  0  0  0  0
   -1.6040   26.3590  -28.9530 O   0  0  0  0  0  0  0  0  0  0  0  0
   -3.5920   25.1340  -30.5560 N   0  0  0  0  0  0  0  0  0  0  0  0
   -4.8130   24.9820  -31.0460 N   0  0  0  0  0  0  0  0  0  0  0  0
   -6.4990   20.5790  -32.9770 C   0  0  0  0  0  0  0  0  0  0  0  0
   -3.0818   20.2765  -32.8133 H   0  0  0  0  0  0  0  0  0  0  0  0
   -2.5198   19.3975  -34.2756 H   0  0  0  0  0  0  0  0  0  0  0  0
   -4.1229   20.2078  -34.2756 H   0  0  0  0  0  0  0  0  0  0  0  0
   -3.3969   17.5197  -33.3900 H   0  0  0  0  0  0  0  0  0  0  0  0
   -4.1667   18.4646  -32.0537 H   0  0  0  0  0  0  0  0  0  0  0  0
   -8.2901   17.6697  -32.8106 H   0  0  0  0  0  0  0  0  0  0  0  0
   -9.9183   19.2046  -31.7113 H   0  0  0  0  0  0  0  0  0  0  0  0
   -4.5728   22.3764  -29.0442 H   0  0  0  0  0  0  0  0  0  0  0  0
   -2.2378   21.7918  -28.9434 H   0  0  0  0  0  0  0  0  0  0  0  0
   -0.1021   21.4409  -27.7092 H   0  0  0  0  0  0  0  0  0  0  0  0
    1.2905   23.3959  -27.0325 H   0  0  0  0  0  0  0  0  0  0  0  0
    0.5639   25.7088  -27.6183 H   0  0  0  0  0  0  0  0  0  0  0  0
   -5.5447   20.9700  -33.3596 H   0  0  0  0  0  0  0  0  0  0  0  0
  1  2  1  0
  2  3  1  0
  3  4  2  0
  3  5  2  0
  3  6  1  0
  6  7  2  0
  7  8  1  0
  8  9  2  0
  9 10  1  0
  9 11  1  0
 11 12  1  0
 12 13  1  0
 13 14  2  0
 13 15  1  0
 15 16  1  0
 16 17  2  0
 17 18  1  0
 18 19  2  0
 19 20  1  0
 20 21  2  0
 21 22  1  0
 22 23  2  0
 23 24  1  0
 17 25  1  0
 25 26  1  0
 11 27  2  0
 27  6  1  0
 26 15  2  0
 23 18  1  0
  1 28  1  0
  1 29  1  0
  1 30  1  0
  2 31  1  0
  2 32  1  0
  7 33  1  0
  8 34  1  0
 16 35  1  0
 19 36  1  0
 20 37  1  0
 21 38  1  0
 22 39  1  0
 27 40  1  0
M  CHG  4  10  -1  12  -1  24  -1  25  -1
M  END
>  <UniqueID>  (15) 
15

>  <SMILES>  (15) 
CCS(=O)(=O)c1ccc([O-])c([N-]C(=O)c2cc(-c3ccccc3[O-])[n-]n2)c1

>  <Energy>  (15) 
75.75959367411645

>  <Genealogy>  (15) 
CCS(=O)(=O)c1ccc([O-])c([N-]C(=O)c2cc(-c3ccccc3[O-])[n-]n2)c1 (protonated)
CCS(=O)(=O)c1ccc([O-])c([N-]C(=O)c2cc(-c3ccccc3[O-])[n-]n2)c1 (3D coordinates assigned)
CCS(=O)(=O)c1ccc([O-])c([N-]C(=O)c2cc(-c3ccccc3[O-])[n-]n2)c1 (optimized conformer: 75.75959367411645 kcal/mol)

>  <smiles>  (15) 
CCS(=O)(=O)c1ccc(O)c(NC(=O)c2cc(-c3ccccc3O)[nH]n2)c1

>  <score_type>  (15) 
oracle

>  <origin>  (15) 
adgpu

>  <m_score__min__energy>  (15) 
-14.31

>  <m_primary>  (15) 
energy

$$$$
15:0
     RDKit          3D

 43 45  0  0  0  0  0  0  0  0999 V2000
   -6.9870   24.6050  -29.8910 C   0  0  0  0  0  0  0  0  0  0  0  0
   -6.6430   23.6310  -30.9300 N   0  0  0  0  0  0  0  0  0  0  0  0
   -5.2760   23.2670  -31.2630 C   0  0  0  0  0  0  0  0  0  0  0  0
   -4.1350   23.9120  -30.5580 C   0  0  0  0  0  0  0  0  0  0  0  0
   -3.8550   25.1170  -30.8270 O   0  0  0  0  0  0  0  0  0  0  0  0
   -3.2850   23.1650  -29.6430 N   0  0  0  0  0  0  0  0  0  0  0  0
   -3.5050   21.7050  -29.4890 C   0  0  0  0  0  0  0  0  0  0  0  0
   -2.7520   21.0790  -28.3100 C   0  0  0  0  0  0  0  0  0  0  0  0
   -1.3180   21.6040  -28.2530 C   0  0  0  0  0  0  0  0  0  0  0  0
   -1.3830   23.1210  -28.0800 C   0  0  0  0  0  0  0  0  0  0  0  0
   -1.9550   23.7260  -29.3490 C   0  0  0  0  0  0  0  0  0  0  0  0
   -4.9840   22.2990  -32.1810 C   0  0  0  0  0  0  0  0  0  0  0  0
   -5.9600   21.3020  -32.7010 C   0  0  0  0  0  0  0  0  0  0  0  0
   -5.4790   20.0630  -33.2240 C   0  0  0  0  0  0  0  0  0  0  0  0
   -4.7370   19.1370  -34.0460 C   0  0  0  0  0  0  0  0  0  0  0  0
   -5.1080   17.8400  -34.3990 C   0  0  0  0  0  0  0  0  0  0  0  0
   -6.2620   17.2860  -33.8860 C   0  0  0  0  0  0  0  0  0  0  0  0
   -6.8830   17.9430  -32.8570 C   0  0  0  0  0  0  0  0  0  0  0  0
   -6.4370   19.2240  -32.4470 C   0  0  0  0  0  0  0  0  0  0  0  0
   -7.0290   19.6470  -31.2290 O   0  0  0  0  0  0  0  0  0  0  0  0
   -7.2500   21.4900  -32.6380 N   0  0  0  0  0  0  0  0  0  0  0  0
   -7.9310   22.8270  -31.7760 S   0  0  0  0  0  0  0  0  0  0  0  0
   -8.5980   23.7760  -32.7180 O   0  0  0  0  0  0  0  0  0  0  0  0
   -8.9360   22.2930  -30.7830 O   0  0  0  0  0  0  0  0  0  0  0  0
   -6.8282   24.1553  -28.8998 H   0  0  0  0  0  0  0  0  0  0  0  0
   -6.3487   25.4946  -29.9966 H   0  0  0  0  0  0  0  0  0  0  0  0
   -8.0424   24.8964  -29.9966 H   0  0  0  0  0  0  0  0  0  0  0  0
   -4.5813   21.5315  -29.3426 H   0  0  0  0  0  0  0  0  0  0  0  0
   -3.1177   21.2282  -30.4015 H   0  0  0  0  0  0  0  0  0  0  0  0
   -3.2689   21.3347  -27.3733 H   0  0  0  0  0  0  0  0  0  0  0  0
   -2.7267   19.9873  -28.4426 H   0  0  0  0  0  0  0  0  0  0  0  0
   -0.7877   21.1526  -27.4015 H   0  0  0  0  0  0  0  0  0  0  0  0
   -0.7769   21.3451  -29.1750 H   0  0  0  0  0  0  0  0  0  0  0  0
   -2.0300   23.3697  -27.2259 H   0  0  0  0  0  0  0  0  0  0  0  0
   -0.3764   23.5224  -27.8914 H   0  0  0  0  0  0  0  0  0  0  0  0
   -2.0432   24.8150  -29.2213 H   0  0  0  0  0  0  0  0  0  0  0  0
   -1.2808   23.4918  -30.1861 H   0  0  0  0  0  0  0  0  0  0  0  0
   -3.9538   22.2525  -32.5637 H   0  0  0  0  0  0  0  0  0  0  0  0
   -3.7727   19.4938  -34.4370 H   0  0  0  0  0  0  0  0  0  0  0  0
   -4.4788   17.2575  -35.0881 H   0  0  0  0  0  0  0  0  0  0  0  0
   -6.6702   16.3477  -34.2897 H   0  0  0  0  0  0  0  0  0  0  0  0
   -7.7350   17.4723  -32.3446 H   0  0  0  0  0  0  0  0  0  0  0  0
   -7.6690   20.4550  -31.1950 H   0  0  0  0  0  0  0  0  0  0  0  0
  1  2  1  0
  2  3  1  0
  3  4  1  0
  4  5  2  0
  4  6  1  0
  6  7  1  0
  7  8  1  0
  8  9  1  0
  9 10  1  0
 10 11  1  0
  3 12  2  0
 12 13  1  0
 13 14  1  0
 14 15  2  0
 15 16  1  0
 16 17  2  0
 17 18  1  0
 18 19  2  0
 19 20  1  0
 13 21  2  0
 21 22  1  0
 22 23  2  0
 22 24  2  0
 22  2  1  0
 11  6  1  0
 19 14  1  0
  1 25  1  0
  1 26  1  0
  1 27  1  0
  7 28  1  0
  7 29  1  0
  8 30  1  0
  8 31  1  0
  9 32  1  0
  9 33  1  0
 10 34  1  0
 10 35  1  0
 11 36  1  0
 11 37  1  0
 12 38  1  0
 15 39  1  0
 16 40  1  0
 17 41  1  0
 18 42  1  0
 20 43  1  0
M  END
>  <UniqueID>  (16) 
16

>  <SMILES>  (16) 
CN1C(C(=O)N2CCCCC2)=CC(c2ccccc2O)=NS1(=O)=O

>  <Energy>  (16) 
163.6620479941692

>  <Genealogy>  (16) 
CN1C(C(=O)N2CCCCC2)=CC(c2ccccc2O)=NS1(=O)=O (3D coordinates assigned)
CN1C(C(=O)N2CCCCC2)=CC(c2ccccc2O)=NS1(=O)=O (nonaromatic ring conformer: 163.6620479941692 kcal/mol)

>  <smiles>  (16) 
CN1C(C(=O)N2CCCCC2)=CC(c2ccccc2O)=NS1(=O)=O

>  <score_type>  (16) 
oracle

>  <origin>  (16) 
adgpu

>  <m_score__min__energy>  (16) 
-9.6500000000000004

>  <m_primary>  (16) 
energy

$$$$
16:0
     RDKit          3D

 57 60  0  0  0  0  0  0  0  0999 V2000
   -6.4560   25.6100  -29.3580 C   0  0  0  0  0  0  0  0  0  0  0  0
   -6.2280   24.9210  -30.7020 C   0  0  0  0  0  0  0  0  0  0  0  0
   -4.8280   24.3820  -30.8090 C   0  0  0  0  0  0  0  0  0  0  0  0
   -3.8590   25.1440  -30.5370 O   0  0  0  0  0  0  0  0  0  0  0  0
   -4.5740   22.9940  -31.0890 N   0  0  0  0  0  0  0  0  0  0  0  0
   -5.6400   22.0140  -31.2950 C   0  0  0  0  0  0  0  0  0  0  0  0
   -4.9390   20.6500  -31.4870 C   0  0  0  0  0  0  0  0  0  0  0  0
   -3.5060   20.9670  -31.2520 C   0  0  0  0  0  0  0  0  0  0  0  0
   -2.4470   20.0640  -31.1400 C   0  0  0  0  0  0  0  0  0  0  0  0
   -1.1860   20.5420  -30.7410 C   0  0  0  0  0  0  0  0  0  0  0  0
    0.1450   19.4100  -30.4650 S   0  0  0  0  0  0  0  0  0  0  0  0
   -0.1340   18.1710  -31.2690 O   0  0  0  0  0  0  0  0  0  0  0  0
    1.4180   20.0170  -30.9870 O   0  0  0  0  0  0  0  0  0  0  0  0
    0.3790   18.9490  -28.7830 N   0  0  0  0  0  0  0  0  0  0  0  0
    1.1040   19.9430  -27.9820 C   0  0  0  0  0  0  0  0  0  0  0  0
    0.3270   21.2480  -27.8330 C   0  0  0  0  0  0  0  0  0  0  0  0
   -1.1260   21.0500  -27.6700 N   0  0  0  0  0  0  0  0  0  0  0  0
   -1.9990   22.2170  -27.5620 C   0  0  0  0  0  0  0  0  0  0  0  0
   -3.3920   22.1150  -27.7870 C   0  0  0  0  0  0  0  0  0  0  0  0
   -4.2310   23.2190  -27.6150 C   0  0  0  0  0  0  0  0  0  0  0  0
   -3.7060   24.4490  -27.2220 C   0  0  0  0  0  0  0  0  0  0  0  0
   -2.3310   24.5870  -27.0030 C   0  0  0  0  0  0  0  0  0  0  0  0
   -1.7600   25.9200  -26.6190 C   0  0  0  0  0  0  0  0  0  0  0  0
   -1.4830   23.4880  -27.2070 C   0  0  0  0  0  0  0  0  0  0  0  0
   -1.7000   19.6950  -27.5100 C   0  0  0  0  0  0  0  0  0  0  0  0
   -0.8680   18.5380  -28.1160 C   0  0  0  0  0  0  0  0  0  0  0  0
   -0.9990   21.9290  -30.5530 C   0  0  0  0  0  0  0  0  0  0  0  0
   -2.0770   22.8190  -30.6830 C   0  0  0  0  0  0  0  0  0  0  0  0
   -3.3320   22.3060  -31.0350 C   0  0  0  0  0  0  0  0  0  0  0  0
   -6.2240   24.9091  -28.5426 H   0  0  0  0  0  0  0  0  0  0  0  0
   -5.8014   26.4907  -29.2817 H   0  0  0  0  0  0  0  0  0  0  0  0
   -7.5067   25.9264  -29.2817 H   0  0  0  0  0  0  0  0  0  0  0  0
   -6.9409   24.0895  -30.8039 H   0  0  0  0  0  0  0  0  0  0  0  0
   -6.3771   25.6615  -31.5016 H   0  0  0  0  0  0  0  0  0  0  0  0
   -6.3034   21.9819  -30.4182 H   0  0  0  0  0  0  0  0  0  0  0  0
   -6.2601   22.2726  -32.1660 H   0  0  0  0  0  0  0  0  0  0  0  0
   -5.3045   19.9127  -30.7570 H   0  0  0  0  0  0  0  0  0  0  0  0
   -5.1253   20.2052  -32.4757 H   0  0  0  0  0  0  0  0  0  0  0  0
   -2.5965   18.9967  -31.3601 H   0  0  0  0  0  0  0  0  0  0  0  0
    0.9910   18.1010  -28.8210 H   0  0  0  0  0  0  0  0  0  0  0  0
    1.2874   19.5247  -26.9813 H   0  0  0  0  0  0  0  0  0  0  0  0
    2.0461   20.1708  -28.5022 H   0  0  0  0  0  0  0  0  0  0  0  0
    0.7074   21.7813  -26.9493 H   0  0  0  0  0  0  0  0  0  0  0  0
    0.4744   21.8212  -28.7602 H   0  0  0  0  0  0  0  0  0  0  0  0
   -3.8209   21.1523  -28.1020 H   0  0  0  0  0  0  0  0  0  0  0  0
   -5.3121   23.1169  -27.7907 H   0  0  0  0  0  0  0  0  0  0  0  0
   -4.3736   25.3123  -27.0839 H   0  0  0  0  0  0  0  0  0  0  0  0
   -1.7250   26.0018  -25.5226 H   0  0  0  0  0  0  0  0  0  0  0  0
   -0.7426   26.0142  -27.0264 H   0  0  0  0  0  0  0  0  0  0  0  0
   -2.3938   26.7215  -27.0264 H   0  0  0  0  0  0  0  0  0  0  0  0
   -0.3968   23.6155  -27.0891 H   0  0  0  0  0  0  0  0  0  0  0  0
   -1.8144   19.5013  -26.4332 H   0  0  0  0  0  0  0  0  0  0  0  0
   -2.6499   19.7041  -28.0647 H   0  0  0  0  0  0  0  0  0  0  0  0
   -0.6073   17.8437  -27.3036 H   0  0  0  0  0  0  0  0  0  0  0  0
   -1.4972   18.0832  -28.8953 H   0  0  0  0  0  0  0  0  0  0  0  0
   -0.0000   22.3155  -30.3025 H   0  0  0  0  0  0  0  0  0  0  0  0
   -1.9389   23.8968  -30.5120 H   0  0  0  0  0  0  0  0  0  0  0  0
  1  2  1  0
  2  3  1  0
  3  4  2  0
  3  5  1  0
  5  6  1  0
  6  7  1  0
  7  8  1  0
  8  9  2  0
  9 10  1  0
 10 11  1  0
 11 12  2  0
 11 13  2  0
 11 14  1  0
 14 15  1  0
 15 16  1  0
 16 17  1  0
 17 18  1  0
 18 19  2  0
 19 20  1  0
 20 21  2  0
 21 22  1  0
 22 23  1  0
 22 24  2  0
 17 25  1  0
 25 26  1  0
 10 27  2  0
 27 28  1  0
 28 29  2  0
 29  5  1  0
 29  8  1  0
 26 14  1  0
 24 18  1  0
  1 30  1  0
  1 31  1  0
  1 32  1  0
  2 33  1  0
  2 34  1  0
  6 35  1  0
  6 36  1  0
  7 37  1  0
  7 38  1  0
  9 39  1  0
 14 40  1  0
 15 41  1  0
 15 42  1  0
 16 43  1  0
 16 44  1  0
 19 45  1  0
 20 46  1  0
 21 47  1  0
 23 48  1  0
 23 49  1  0
 23 50  1  0
 24 51  1  0
 25 52  1  0
 25 53  1  0
 26 54  1  0
 26 55  1  0
 27 56  1  0
 28 57  1  0
M  CHG  1  14   1
M  END
>  <UniqueID>  (17) 
17

>  <SMILES>  (17) 
CCC(=O)N1CCc2cc(S(=O)(=O)[NH+]3CCN(c4cccc(C)c4)CC3)ccc21

>  <Energy>  (17) 
80.72150505969881

>  <Genealogy>  (17) 
CCC(=O)N1CCc2cc(S(=O)(=O)[NH+]3CCN(c4cccc(C)c4)CC3)ccc21 (protonated)
CCC(=O)N1CCc2cc(S(=O)(=O)[NH+]3CCN(c4cccc(C)c4)CC3)ccc21 (3D coordinates assigned)
CCC(=O)N1CCc2cc(S(=O)(=O)[NH+]3CCN(c4cccc(C)c4)CC3)ccc21 (nonaromatic ring conformer: 80.72150505969881 kcal/mol)

>  <smiles>  (17) 
CCC(=O)N1CCc2cc(S(=O)(=O)N3CCN(c4cccc(C)c4)CC3)ccc21

>  <score_type>  (17) 
oracle

>  <origin>  (17) 
adgpu

>  <m_score__min__energy>  (17) 
-9.4100000000000001

>  <m_primary>  (17) 
energy

$$$$
17:0
     RDKit          3D

 43 45  0  0  0  0  0  0  0  0999 V2000
   -3.1480   20.2410  -28.2560 O   0  0  0  0  0  0  0  0  0  0  0  0
   -2.3490   20.9770  -27.6150 C   0  0  0  0  0  0  0  0  0  0  0  0
   -1.7470   20.4760  -26.4660 O   0  0  0  0  0  0  0  0  0  0  0  0
   -2.0570   22.3510  -28.0780 C   0  0  0  0  0  0  0  0  0  0  0  0
   -0.9290   23.0420  -27.6050 C   0  0  0  0  0  0  0  0  0  0  0  0
   -0.6630   24.3410  -28.0400 C   0  0  0  0  0  0  0  0  0  0  0  0
   -1.5070   24.9640  -28.9640 C   0  0  0  0  0  0  0  0  0  0  0  0
   -1.2370   26.2730  -29.3420 O   0  0  0  0  0  0  0  0  0  0  0  0
   -2.6250   24.2730  -29.4720 C   0  0  0  0  0  0  0  0  0  0  0  0
   -3.4980   24.8480  -30.4530 N   0  0  0  0  0  0  0  0  0  0  0  0
   -5.1480   24.3660  -30.6880 S   0  0  0  0  0  0  0  0  0  0  0  0
   -5.8190   24.2250  -29.3510 O   0  0  0  0  0  0  0  0  0  0  0  0
   -5.8700   25.4110  -31.4910 O   0  0  0  0  0  0  0  0  0  0  0  0
   -5.1810   22.8050  -31.5000 C   0  0  0  0  0  0  0  0  0  0  0  0
   -6.3900   22.1270  -31.7100 C   0  0  0  0  0  0  0  0  0  0  0  0
   -6.4100   20.9440  -32.4530 C   0  0  0  0  0  0  0  0  0  0  0  0
   -5.2240   20.4300  -32.9960 C   0  0  0  0  0  0  0  0  0  0  0  0
   -5.2630   19.0010  -34.0300 S   0  0  0  0  0  0  0  0  0  0  0  0
   -6.1800   19.2590  -35.1940 O   0  0  0  0  0  0  0  0  0  0  0  0
   -3.8850   18.7440  -34.5730 O   0  0  0  0  0  0  0  0  0  0  0  0
   -5.8140   17.5850  -33.1570 N   0  0  0  0  0  0  0  0  0  0  0  0
   -7.2130   17.2740  -33.4770 C   0  0  0  0  0  0  0  0  0  0  0  0
   -8.0970   17.8280  -32.3680 C   0  0  0  0  0  0  0  0  0  0  0  0
   -7.1590   18.1950  -31.2350 C   0  0  0  0  0  0  0  0  0  0  0  0
   -5.7670   17.8040  -31.7090 C   0  0  0  0  0  0  0  0  0  0  0  0
   -4.0110   21.0870  -32.7500 C   0  0  0  0  0  0  0  0  0  0  0  0
   -3.9910   22.2720  -32.0110 C   0  0  0  0  0  0  0  0  0  0  0  0
   -2.9050   22.9830  -29.0040 C   0  0  0  0  0  0  0  0  0  0  0  0
   -0.2514   22.5562  -26.8875 H   0  0  0  0  0  0  0  0  0  0  0  0
    0.2159   24.8778  -27.6536 H   0  0  0  0  0  0  0  0  0  0  0  0
   -7.3243   22.5270  -31.2891 H   0  0  0  0  0  0  0  0  0  0  0  0
   -7.3604   20.4136  -32.6126 H   0  0  0  0  0  0  0  0  0  0  0  0
   -7.4863   17.7382  -34.4361 H   0  0  0  0  0  0  0  0  0  0  0  0
   -7.3480   16.1853  -33.5582 H   0  0  0  0  0  0  0  0  0  0  0  0
   -8.6395   18.7180  -32.7194 H   0  0  0  0  0  0  0  0  0  0  0  0
   -8.8510   17.0941  -32.0472 H   0  0  0  0  0  0  0  0  0  0  0  0
   -7.2059   19.2753  -31.0331 H   0  0  0  0  0  0  0  0  0  0  0  0
   -7.4293   17.6798  -30.3014 H   0  0  0  0  0  0  0  0  0  0  0  0
   -5.0561   18.6112  -31.4786 H   0  0  0  0  0  0  0  0  0  0  0  0
   -5.4390   16.8861  -31.1992 H   0  0  0  0  0  0  0  0  0  0  0  0
   -3.0716   20.6682  -33.1401 H   0  0  0  0  0  0  0  0  0  0  0  0
   -3.0369   22.7886  -31.8297 H   0  0  0  0  0  0  0  0  0  0  0  0
   -3.8008   22.4572  -29.3660 H   0  0  0  0  0  0  0  0  0  0  0  0
  1  2  2  0
  2  3  1  0
  2  4  1  0
  4  5  2  0
  5  6  1  0
  6  7  2  0
  7  8  1  0
  7  9  1  0
  9 10  1  0
 10 11  1  0
 11 12  2  0
 11 13  2  0
 11 14  1  0
 14 15  2  0
 15 16  1  0
 16 17  2  0
 17 18  1  0
 18 19  2  0
 18 20  2  0
 18 21  1  0
 21 22  1  0
 22 23  1  0
 23 24  1  0
 24 25  1  0
 17 26  1  0
 26 27  2  0
  9 28  2  0
 28  4  1  0
 27 14  1  0
 25 21  1  0
  5 29  1  0
  6 30  1  0
 15 31  1  0
 16 32  1  0
 22 33  1  0
 22 34  1  0
 23 35  1  0
 23 36  1  0
 24 37  1  0
 24 38  1  0
 25 39  1  0
 25 40  1  0
 26 41  1  0
 27 42  1  0
 28 43  1  0
M  CHG  3   3  -1   8  -1  10  -1
M  END
>  <UniqueID>  (18) 
18

>  <SMILES>  (18) 
O=C([O-])c1ccc([O-])c([N-]S(=O)(=O)c2ccc(S(=O)(=O)N3CCCC3)cc2)c1

>  <Energy>  (18) 
49.430238026032654

>  <Genealogy>  (18) 
O=C([O-])c1ccc([O-])c([N-]S(=O)(=O)c2ccc(S(=O)(=O)N3CCCC3)cc2)c1 (protonated)
O=C([O-])c1ccc([O-])c([N-]S(=O)(=O)c2ccc(S(=O)(=O)N3CCCC3)cc2)c1 (3D coordinates assigned)
O=C([O-])c1ccc([O-])c([N-]S(=O)(=O)c2ccc(S(=O)(=O)N3CCCC3)cc2)c1 (nonaromatic ring conformer: 49.430238026032654 kcal/mol)

>  <smiles>  (18) 
O=C(O)c1ccc(O)c(NS(=O)(=O)c2ccc(S(=O)(=O)N3CCCC3)cc2)c1

>  <score_type>  (18) 
oracle

>  <origin>  (18) 
adgpu

>  <m_score__min__energy>  (18) 
-14.33

>  <m_primary>  (18) 
energy

$$$$
18:0
     RDKit          3D

 49 52  0  0  0  0  0  0  0  0999 V2000
   -8.8590   20.0660  -33.9320 H   0  0  0  0  0  0  0  0  0  0  0  0
   -8.1710   19.9610  -33.1520 N   0  0  0  0  0  0  0  0  0  0  0  0
   -8.6400   21.0690  -31.9140 S   0  0  0  0  0  0  0  0  0  0  0  0
   -9.0910   20.3020  -30.7020 O   0  0  0  0  0  0  0  0  0  0  0  0
   -9.7830   21.9140  -32.4010 O   0  0  0  0  0  0  0  0  0  0  0  0
   -7.2740   22.0980  -31.4960 C   0  0  0  0  0  0  0  0  0  0  0  0
   -7.4640   23.4710  -31.2910 C   0  0  0  0  0  0  0  0  0  0  0  0
   -8.4709   23.9044  -31.3822 H   0  0  0  0  0  0  0  0  0  0  0  0
   -6.3790   24.2920  -30.9710 C   0  0  0  0  0  0  0  0  0  0  0  0
   -6.5385   25.3655  -30.7919 H   0  0  0  0  0  0  0  0  0  0  0  0
   -5.0840   23.7510  -30.8770 C   0  0  0  0  0  0  0  0  0  0  0  0
   -3.9550   24.5570  -30.5080 N   0  0  0  0  0  0  0  0  0  0  0  0
   -3.3220   24.5270  -29.3720 C   0  0  0  0  0  0  0  0  0  0  0  0
   -2.2410   25.2980  -29.1340 N   0  0  0  0  0  0  0  0  0  0  0  0
   -1.7660   25.1470  -27.8660 C   0  0  0  0  0  0  0  0  0  0  0  0
   -0.5700   25.8950  -27.3950 C   0  0  0  0  0  0  0  0  0  0  0  0
    0.6490   25.2180  -27.2070 C   0  0  0  0  0  0  0  0  0  0  0  0
    0.7086   24.1381  -27.4075 H   0  0  0  0  0  0  0  0  0  0  0  0
    1.7850   25.9040  -26.7680 C   0  0  0  0  0  0  0  0  0  0  0  0
    2.7313   25.3615  -26.6256 H   0  0  0  0  0  0  0  0  0  0  0  0
    1.7240   27.2770  -26.5090 C   0  0  0  0  0  0  0  0  0  0  0  0
    3.1720   28.1340  -25.9820 S   0  0  0  0  0  0  0  0  0  0  0  0
    4.3910   27.4810  -26.5720 O   0  0  0  0  0  0  0  0  0  0  0  0
    3.0980   29.5460  -26.4960 O   0  0  0  0  0  0  0  0  0  0  0  0
    3.2700   28.1610  -24.2330 N   0  0  0  0  0  0  0  0  0  0  0  0
    3.0040   29.5030  -23.6850 C   0  0  0  0  0  0  0  0  0  0  0  0
    3.3234   29.5250  -22.6326 H   0  0  0  0  0  0  0  0  0  0  0  0
    3.5644   30.2306  -24.2904 H   0  0  0  0  0  0  0  0  0  0  0  0
    1.5060   29.8810  -23.7580 C   0  0  0  0  0  0  0  0  0  0  0  0
    1.2299   30.3902  -22.8228 H   0  0  0  0  0  0  0  0  0  0  0  0
    1.3791   30.5267  -24.6394 H   0  0  0  0  0  0  0  0  0  0  0  0
    0.6470   28.7670  -23.9320 O   0  0  0  0  0  0  0  0  0  0  0  0
    1.0640   27.6960  -23.1160 C   0  0  0  0  0  0  0  0  0  0  0  0
    1.1876   28.0537  -22.0832 H   0  0  0  0  0  0  0  0  0  0  0  0
    0.3034   26.9021  -23.1519 H   0  0  0  0  0  0  0  0  0  0  0  0
    2.4050   27.1280  -23.6210 C   0  0  0  0  0  0  0  0  0  0  0  0
    2.9399   26.6803  -22.7704 H   0  0  0  0  0  0  0  0  0  0  0  0
    2.1781   26.3828  -24.3976 H   0  0  0  0  0  0  0  0  0  0  0  0
    0.5200   27.9630  -26.7040 C   0  0  0  0  0  0  0  0  0  0  0  0
    0.4693   29.0448  -26.5114 H   0  0  0  0  0  0  0  0  0  0  0  0
   -0.6180   27.2810  -27.1420 C   0  0  0  0  0  0  0  0  0  0  0  0
   -1.5594   27.8302  -27.2907 H   0  0  0  0  0  0  0  0  0  0  0  0
   -2.4900   24.2410  -27.0820 C   0  0  0  0  0  0  0  0  0  0  0  0
   -2.2706   23.9734  -26.0379 H   0  0  0  0  0  0  0  0  0  0  0  0
   -3.7530   23.6320  -28.0110 S   0  0  0  0  0  0  0  0  0  0  0  0
   -4.9040   22.3740  -31.0550 C   0  0  0  0  0  0  0  0  0  0  0  0
   -3.9018   21.9351  -30.9415 H   0  0  0  0  0  0  0  0  0  0  0  0
   -5.9890   21.5530  -31.3760 C   0  0  0  0  0  0  0  0  0  0  0  0
   -5.8333   20.4757  -31.5348 H   0  0  0  0  0  0  0  0  0  0  0  0
  1  2  1  0
  2  3  1  0
  3  4  2  0
  3  5  2  0
  3  6  1  0
  6  7  2  0
  7  8  1  0
  7  9  1  0
  9 10  1  0
  9 11  2  0
 11 12  1  0
 12 13  2  0
 13 14  1  0
 14 15  1  0
 15 16  1  0
 16 17  2  0
 17 18  1  0
 17 19  1  0
 19 20  1  0
 19 21  2  0
 21 22  1  0
 22 23  2  0
 22 24  2  0
 22 25  1  0
 25 26  1  0
 26 27  1  0
 26 28  1  0
 26 29  1  0
 29 30  1  0
 29 31  1  0
 29 32  1  0
 32 33  1  0
 33 34  1  0
 33 35  1  0
 33 36  1  0
 36 37  1  0
 36 38  1  0
 21 39  1  0
 39 40  1  0
 39 41  2  0
 41 42  1  0
 15 43  2  0
 43 44  1  0
 43 45  1  0
 11 46  1  0
 46 47  1  0
 46 48  2  0
 48 49  1  0
 48  6  1  0
 45 13  1  0
 41 16  1  0
 36 25  1  0
M  CHG  2   2  -1  14  -1
M  END
>  <UniqueID>  (19) 
19

>  <SMILES>  (19) 
[NH-]S(=O)(=O)c1ccc(/N=c2/[n-]c(-c3ccc(S(=O)(=O)N4CCOCC4)cc3)cs2)cc1

>  <Energy>  (19) 
102.76074945861949

>  <Genealogy>  (19) 
[NH-]S(=O)(=O)c1ccc(N=c2[n-]c(-c3ccc(S(=O)(=O)N4CCOCC4)cc3)cs2)cc1 (protonated)
[NH-]S(=O)(=O)c1ccc(/N=c2/[n-]c(-c3ccc(S(=O)(=O)N4CCOCC4)cc3)cs2)cc1 (cis-trans isomerization)
[NH-]S(=O)(=O)c1ccc(/N=c2/[n-]c(-c3ccc(S(=O)(=O)N4CCOCC4)cc3)cs2)cc1 (3D coordinates assigned)
[NH-]S(=O)(=O)c1ccc(/N=c2/[n-]c(-c3ccc(S(=O)(=O)N4CCOCC4)cc3)cs2)cc1 (nonaromatic ring conformer: 102.76074945861949 kcal/mol)

>  <smiles>  (19) 
NS(=O)(=O)c1ccc(N=c2[nH]c(-c3ccc(S(=O)(=O)N4CCOCC4)cc3)cs2)cc1

>  <score_type>  (19) 
oracle

>  <origin>  (19) 
adgpu

>  <m_score__min__energy>  (19) 
-9.4100000000000001

>  <m_primary>  (19) 
energy

$$$$
19:0
     RDKit          3D

 48 51  0  0  0  0  0  0  0  0999 V2000
   -8.1437   20.8316  -32.6878 H   0  0  0  0  0  0  0  0  0  0  0  0
   -7.7870   21.6840  -32.0910 C   0  0  0  0  0  0  0  0  0  0  0  0
   -7.1520   22.7220  -32.7000 N   0  0  0  0  0  0  0  0  0  0  0  0
   -6.6940   23.7910  -31.9970 C   0  0  0  0  0  0  0  0  0  0  0  0
   -6.1885   24.6158  -32.5206 H   0  0  0  0  0  0  0  0  0  0  0  0
   -6.8640   23.8460  -30.6050 C   0  0  0  0  0  0  0  0  0  0  0  0
   -6.3900   25.0410  -29.8200 C   0  0  0  0  0  0  0  0  0  0  0  0
   -6.1092   24.7148  -28.8077 H   0  0  0  0  0  0  0  0  0  0  0  0
   -7.2082   25.7753  -29.7828 H   0  0  0  0  0  0  0  0  0  0  0  0
   -5.1760   25.7070  -30.4840 C   0  0  0  0  0  0  0  0  0  0  0  0
   -5.2422   26.7954  -30.3393 H   0  0  0  0  0  0  0  0  0  0  0  0
   -5.1857   25.4520  -31.5540 H   0  0  0  0  0  0  0  0  0  0  0  0
   -3.9180   25.2270  -29.9100 N   0  0  0  0  0  0  0  0  0  0  0  0
   -3.2640   24.1780  -30.3130 C   0  0  0  0  0  0  0  0  0  0  0  0
   -3.7160   23.4290  -31.3580 N   0  0  0  0  0  0  0  0  0  0  0  0
   -3.0630   22.3160  -31.7830 C   0  0  0  0  0  0  0  0  0  0  0  0
   -3.4591   21.7386  -32.6314 H   0  0  0  0  0  0  0  0  0  0  0  0
   -1.8840   21.9000  -31.1430 C   0  0  0  0  0  0  0  0  0  0  0  0
   -1.1870   20.7130  -31.5660 N   0  0  0  0  0  0  0  0  0  0  0  0
   -1.6630   19.7120  -32.3390 C   0  0  0  0  0  0  0  0  0  0  0  0
   -2.8850   19.6800  -32.7900 N   0  0  0  0  0  0  0  0  0  0  0  0
   -3.5220   18.6810  -33.6040 C   0  0  0  0  0  0  0  0  0  0  0  0
   -2.9150   18.1560  -34.5750 O   0  0  0  0  0  0  0  0  0  0  0  0
   -4.9180   18.2790  -33.3050 C   0  0  0  0  0  0  0  0  0  0  0  0
   -5.5440   17.2580  -34.0480 C   0  0  0  0  0  0  0  0  0  0  0  0
   -4.9933   16.7538  -34.8558 H   0  0  0  0  0  0  0  0  0  0  0  0
   -6.8600   16.8820  -33.7650 C   0  0  0  0  0  0  0  0  0  0  0  0
   -7.3399   16.0825  -34.3486 H   0  0  0  0  0  0  0  0  0  0  0  0
   -7.5670   17.5190  -32.7430 C   0  0  0  0  0  0  0  0  0  0  0  0
   -8.6035   17.2229  -32.5240 H   0  0  0  0  0  0  0  0  0  0  0  0
   -6.9580   18.5320  -31.9990 C   0  0  0  0  0  0  0  0  0  0  0  0
   -7.5155   19.0319  -31.1932 H   0  0  0  0  0  0  0  0  0  0  0  0
   -5.6420   18.9120  -32.2760 C   0  0  0  0  0  0  0  0  0  0  0  0
   -5.1684   19.7108  -31.6864 H   0  0  0  0  0  0  0  0  0  0  0  0
   -0.6750   18.7460  -32.4950 C   0  0  0  0  0  0  0  0  0  0  0  0
   -0.7316   17.8071  -33.0653 H   0  0  0  0  0  0  0  0  0  0  0  0
    0.3950   19.2360  -31.7690 C   0  0  0  0  0  0  0  0  0  0  0  0
    1.3698   18.7385  -31.6583 H   0  0  0  0  0  0  0  0  0  0  0  0
    0.0570   20.4170  -31.2190 N   0  0  0  0  0  0  0  0  0  0  0  0
    0.6740   21.0140  -30.6260 H   0  0  0  0  0  0  0  0  0  0  0  0
   -1.3910   22.6720  -30.0810 C   0  0  0  0  0  0  0  0  0  0  0  0
   -0.4580   22.3797  -29.5769 H   0  0  0  0  0  0  0  0  0  0  0  0
   -2.0820   23.8110  -29.6620 C   0  0  0  0  0  0  0  0  0  0  0  0
   -1.6993   24.4150  -28.8261 H   0  0  0  0  0  0  0  0  0  0  0  0
   -7.5260   22.7870  -29.9640 C   0  0  0  0  0  0  0  0  0  0  0  0
   -7.6822   22.8135  -28.8755 H   0  0  0  0  0  0  0  0  0  0  0  0
   -7.9860   21.7000  -30.7100 C   0  0  0  0  0  0  0  0  0  0  0  0
   -8.5005   20.8640  -30.2136 H   0  0  0  0  0  0  0  0  0  0  0  0
  1  2  1  0
  2  3  2  0
  3  4  1  0
  4  5  1  0
  4  6  2  0
  6  7  1  0
  7  8  1  0
  7  9  1  0
  7 10  1  0
 10 11  1  0
 10 12  1  0
 10 13  1  0
 13 14  2  0
 14 15  1  0
 15 16  1  0
 16 17  1  0
 16 18  2  0
 18 19  1  0
 19 20  1  0
 20 21  2  0
 21 22  1  0
 22 23  2  0
 22 24  1  0
 24 25  2  0
 25 26  1  0
 25 27  1  0
 27 28  1  0
 27 29  2  0
 29 30  1  0
 29 31  1  0
 31 32  1  0
 31 33  2  0
 33 34  1  0
 20 35  1  0
 35 36  1  0
 35 37  2  0
 37 38  1  0
 37 39  1  0
 39 40  1  0
 18 41  1  0
 41 42  1  0
 41 43  2  0
 43 44  1  0
  6 45  1  0
 45 46  1  0
 45 47  2  0
 47 48  1  0
 47  2  1  0
 43 14  1  0
 39 19  1  0
 33 24  1  0
M  CHG  1  15  -1
M  END
>  <UniqueID>  (20) 
20

>  <SMILES>  (20) 
O=C(/N=c1\cc[nH]n1-c1cc/c(=N/CCc2cccnc2)[n-]c1)c1ccccc1

>  <Energy>  (20) 
92.02331237685067

>  <Genealogy>  (20) 
O=C(N=c1cc[nH]n1-c1ccc(=NCCc2cccnc2)[n-]c1)c1ccccc1 (protonated)
O=C(/N=c1\cc[nH]n1-c1cc/c(=N/CCc2cccnc2)[n-]c1)c1ccccc1 (cis-trans isomerization)
O=C(/N=c1\cc[nH]n1-c1cc/c(=N/CCc2cccnc2)[n-]c1)c1ccccc1 (3D coordinates assigned)
O=C(/N=c1\cc[nH]n1-c1cc/c(=N/CCc2cccnc2)[n-]c1)c1ccccc1 (optimized conformer: 92.02331237685067 kcal/mol)

>  <smiles>  (20) 
O=C(N=c1cc[nH]n1-c1ccc(=NCCc2cccnc2)[nH]c1)c1ccccc1

>  <score_type>  (20) 
oracle

>  <origin>  (20) 
adgpu

>  <m_score__min__energy>  (20) 
-9.9600000000000009

>  <m_primary>  (20) 
energy

$$$$
20:0
     RDKit          3D

 47 49  0  0  0  0  0  0  0  0999 V2000
   -5.1400   19.4120  -33.8380 C   0  0  0  0  0  0  0  0  0  0  0  0
   -6.5060   18.8730  -33.9060 N   0  0  0  0  0  0  0  0  0  0  0  0
   -6.4800   17.4080  -33.9970 C   0  0  0  0  0  0  0  0  0  0  0  0
   -7.4150   19.3650  -32.5010 S   0  0  0  0  0  0  0  0  0  0  0  0
   -7.3070   18.3210  -31.4240 O   0  0  0  0  0  0  0  0  0  0  0  0
   -8.8650   19.5250  -32.8660 O   0  0  0  0  0  0  0  0  0  0  0  0
   -6.8120   20.9070  -31.8950 C   0  0  0  0  0  0  0  0  0  0  0  0
   -7.6020   22.0610  -31.9810 C   0  0  0  0  0  0  0  0  0  0  0  0
   -7.1180   23.2830  -31.5070 C   0  0  0  0  0  0  0  0  0  0  0  0
   -5.8370   23.3640  -30.9430 C   0  0  0  0  0  0  0  0  0  0  0  0
   -5.2170   24.9040  -30.3460 S   0  0  0  0  0  0  0  0  0  0  0  0
   -5.8100   26.0330  -31.1430 O   0  0  0  0  0  0  0  0  0  0  0  0
   -5.6070   25.0840  -28.9060 O   0  0  0  0  0  0  0  0  0  0  0  0
   -3.4820   24.8970  -30.4490 N   0  0  0  0  0  0  0  0  0  0  0  0
   -2.8670   24.6450  -29.1440 C   0  0  0  0  0  0  0  0  0  0  0  0
   -1.5510   23.8940  -29.3310 C   0  0  0  0  0  0  0  0  0  0  0  0
   -1.6050   22.5600  -28.6500 C   0  0  0  0  0  0  0  0  0  0  0  0
   -2.7250   22.0080  -28.0450 C   0  0  0  0  0  0  0  0  0  0  0  0
   -2.3770   20.7770  -27.6450 N   0  0  0  0  0  0  0  0  0  0  0  0
   -3.1060   19.8330  -27.0000 C   0  0  0  0  0  0  0  0  0  0  0  0
   -2.4820   18.6150  -26.6920 C   0  0  0  0  0  0  0  0  0  0  0  0
   -1.1430   18.4060  -27.0740 C   0  0  0  0  0  0  0  0  0  0  0  0
   -0.4320   19.4110  -27.7500 C   0  0  0  0  0  0  0  0  0  0  0  0
   -1.0970   20.6060  -28.0140 C   0  0  0  0  0  0  0  0  0  0  0  0
   -0.5760   21.6770  -28.6470 N   0  0  0  0  0  0  0  0  0  0  0  0
   -5.0540   22.2060  -30.8430 C   0  0  0  0  0  0  0  0  0  0  0  0
   -5.5410   20.9810  -31.3100 C   0  0  0  0  0  0  0  0  0  0  0  0
   -4.8439   19.5288  -32.7851 H   0  0  0  0  0  0  0  0  0  0  0  0
   -4.4473   18.7198  -34.3390 H   0  0  0  0  0  0  0  0  0  0  0  0
   -5.1066   20.3907  -34.3390 H   0  0  0  0  0  0  0  0  0  0  0  0
   -6.9830   19.2550  -34.7540 H   0  0  0  0  0  0  0  0  0  0  0  0
   -6.4724   16.9778  -32.9846 H   0  0  0  0  0  0  0  0  0  0  0  0
   -7.3721   17.0583  -34.5373 H   0  0  0  0  0  0  0  0  0  0  0  0
   -5.5761   17.0902  -34.5373 H   0  0  0  0  0  0  0  0  0  0  0  0
   -8.6075   22.0047  -32.4235 H   0  0  0  0  0  0  0  0  0  0  0  0
   -7.7442   24.1847  -31.5766 H   0  0  0  0  0  0  0  0  0  0  0  0
   -2.6726   25.6034  -28.6404 H   0  0  0  0  0  0  0  0  0  0  0  0
   -3.5491   24.0372  -28.5314 H   0  0  0  0  0  0  0  0  0  0  0  0
   -1.3693   23.7445  -30.4055 H   0  0  0  0  0  0  0  0  0  0  0  0
   -0.7376   24.4867  -28.8871 H   0  0  0  0  0  0  0  0  0  0  0  0
   -3.7070   22.4872  -27.9183 H   0  0  0  0  0  0  0  0  0  0  0  0
   -4.1555   20.0168  -26.7264 H   0  0  0  0  0  0  0  0  0  0  0  0
   -3.0345   17.8292  -26.1561 H   0  0  0  0  0  0  0  0  0  0  0  0
   -0.6509   17.4500  -26.8416 H   0  0  0  0  0  0  0  0  0  0  0  0
    0.6126   19.2598  -28.0598 H   0  0  0  0  0  0  0  0  0  0  0  0
   -4.0510   22.2609  -30.3948 H   0  0  0  0  0  0  0  0  0  0  0  0
   -4.9252   20.0742  -31.2179 H   0  0  0  0  0  0  0  0  0  0  0  0
  1  2  1  0
  2  3  1  0
  2  4  1  0
  4  5  2  0
  4  6  2  0
  4  7  1  0
  7  8  2  0
  8  9  1  0
  9 10  2  0
 10 11  1  0
 11 12  2  0
 11 13  2  0
 11 14  1  0
 14 15  1  0
 15 16  1  0
 16 17  1  0
 17 18  2  0
 18 19  1  0
 19 20  1  0
 20 21  2  0
 21 22  1  0
 22 23  2  0
 23 24  1  0
 24 25  2  0
 10 26  1  0
 26 27  2  0
 27  7  1  0
 25 17  1  0
 24 19  1  0
  1 28  1  0
  1 29  1  0
  1 30  1  0
  2 31  1  0
  3 32  1  0
  3 33  1  0
  3 34  1  0
  8 35  1  0
  9 36  1  0
 15 37  1  0
 15 38  1  0
 16 39  1  0
 16 40  1  0
 18 41  1  0
 20 42  1  0
 21 43  1  0
 22 44  1  0
 23 45  1  0
 26 46  1  0
 27 47  1  0
M  CHG  2   2   1  14  -1
M  END
>  <UniqueID>  (21) 
21

>  <SMILES>  (21) 
C[NH+](C)S(=O)(=O)c1ccc(S(=O)(=O)[N-]CCc2cn3ccccc3n2)cc1

>  <Energy>  (21) 
72.272882943232

>  <Genealogy>  (21) 
C[NH+](C)S(=O)(=O)c1ccc(S(=O)(=O)[N-]CCc2cn3ccccc3n2)cc1 (protonated)
C[NH+](C)S(=O)(=O)c1ccc(S(=O)(=O)[N-]CCc2cn3ccccc3n2)cc1 (3D coordinates assigned)
C[NH+](C)S(=O)(=O)c1ccc(S(=O)(=O)[N-]CCc2cn3ccccc3n2)cc1 (optimized conformer: 72.272882943232 kcal/mol)

>  <smiles>  (21) 
CN(C)S(=O)(=O)c1ccc(S(=O)(=O)NCCc2cn3ccccc3n2)cc1

>  <score_type>  (21) 
oracle

>  <origin>  (21) 
adgpu

>  <m_score__min__energy>  (21) 
-10.800000000000001

>  <m_primary>  (21) 
energy

$$$$
21:0
     RDKit          3D

 57 60  0  0  0  0  0  0  0  0999 V2000
   -5.7020   26.1390  -30.7070 O   0  0  0  0  0  0  0  0  0  0  0  0
   -5.0980   25.0430  -30.8530 C   0  0  0  0  0  0  0  0  0  0  0  0
   -3.7220   24.9210  -30.4640 N   0  0  0  0  0  0  0  0  0  0  0  0
   -3.1530   23.9050  -29.6260 C   0  0  0  0  0  0  0  0  0  0  0  0
   -1.7720   23.6430  -29.6000 C   0  0  0  0  0  0  0  0  0  0  0  0
   -1.2630   22.6270  -28.7850 C   0  0  0  0  0  0  0  0  0  0  0  0
   -2.1250   21.8590  -27.9890 C   0  0  0  0  0  0  0  0  0  0  0  0
   -1.4800   20.5720  -26.9640 S   0  0  0  0  0  0  0  0  0  0  0  0
   -2.6050   19.6630  -26.5540 O   0  0  0  0  0  0  0  0  0  0  0  0
   -0.9000   21.1830  -25.7180 O   0  0  0  0  0  0  0  0  0  0  0  0
   -0.2450   19.6250  -27.7590 N   0  0  0  0  0  0  0  0  0  0  0  0
   -0.3440   18.2050  -27.4290 C   0  0  0  0  0  0  0  0  0  0  0  0
    0.2930   17.4510  -28.5860 C   0  0  0  0  0  0  0  0  0  0  0  0
    0.2920   18.4290  -29.7530 C   0  0  0  0  0  0  0  0  0  0  0  0
   -0.3490   19.6970  -29.2150 C   0  0  0  0  0  0  0  0  0  0  0  0
   -3.5050   22.0980  -28.0410 C   0  0  0  0  0  0  0  0  0  0  0  0
   -4.0140   23.1120  -28.8580 C   0  0  0  0  0  0  0  0  0  0  0  0
   -5.8270   23.8590  -31.3690 C   0  0  0  0  0  0  0  0  0  0  0  0
   -7.2310   23.8350  -31.3780 C   0  0  0  0  0  0  0  0  0  0  0  0
   -7.9150   22.7240  -31.8710 C   0  0  0  0  0  0  0  0  0  0  0  0
   -7.2190   21.6140  -32.3580 C   0  0  0  0  0  0  0  0  0  0  0  0
   -7.9610   20.5480  -32.8710 O   0  0  0  0  0  0  0  0  0  0  0  0
   -5.8050   21.6090  -32.3300 C   0  0  0  0  0  0  0  0  0  0  0  0
   -4.8690   20.2150  -32.8950 S   0  0  0  0  0  0  0  0  0  0  0  0
   -4.8630   19.1460  -31.8370 O   0  0  0  0  0  0  0  0  0  0  0  0
   -5.5190   19.6820  -34.1410 O   0  0  0  0  0  0  0  0  0  0  0  0
   -3.2230   20.6870  -33.2500 N   0  0  0  0  0  0  0  0  0  0  0  0
   -2.4950   20.9850  -32.0060 C   0  0  0  0  0  0  0  0  0  0  0  0
   -1.0650   21.4580  -32.3440 C   0  0  0  0  0  0  0  0  0  0  0  0
   -0.7130   21.2050  -33.6950 O   0  0  0  0  0  0  0  0  0  0  0  0
   -1.0120   19.8630  -34.0290 C   0  0  0  0  0  0  0  0  0  0  0  0
   -2.5340   19.6140  -33.9900 C   0  0  0  0  0  0  0  0  0  0  0  0
   -5.1250   22.7440  -31.8580 C   0  0  0  0  0  0  0  0  0  0  0  0
   -1.0893   24.2394  -30.2231 H   0  0  0  0  0  0  0  0  0  0  0  0
   -0.1810   22.4293  -28.7682 H   0  0  0  0  0  0  0  0  0  0  0  0
    0.1950   17.9931  -26.4938 H   0  0  0  0  0  0  0  0  0  0  0  0
   -1.3910   17.9012  -27.2827 H   0  0  0  0  0  0  0  0  0  0  0  0
    1.3216   17.1545  -28.3328 H   0  0  0  0  0  0  0  0  0  0  0  0
   -0.2551   16.5276  -28.8247 H   0  0  0  0  0  0  0  0  0  0  0  0
    1.3203   18.6297  -30.0880 H   0  0  0  0  0  0  0  0  0  0  0  0
   -0.2541   18.0305  -30.6207 H   0  0  0  0  0  0  0  0  0  0  0  0
    0.1844   20.5824  -29.5914 H   0  0  0  0  0  0  0  0  0  0  0  0
   -1.3975   19.7817  -29.5366 H   0  0  0  0  0  0  0  0  0  0  0  0
   -4.1903   21.4855  -27.4367 H   0  0  0  0  0  0  0  0  0  0  0  0
   -5.0991   23.2880  -28.8977 H   0  0  0  0  0  0  0  0  0  0  0  0
   -7.7949   24.6978  -30.9938 H   0  0  0  0  0  0  0  0  0  0  0  0
   -9.0150   22.7213  -31.8766 H   0  0  0  0  0  0  0  0  0  0  0  0
   -7.6400   19.9540  -33.6220 H   0  0  0  0  0  0  0  0  0  0  0  0
   -3.0219   21.7774  -31.4542 H   0  0  0  0  0  0  0  0  0  0  0  0
   -2.4429   20.0774  -31.3866 H   0  0  0  0  0  0  0  0  0  0  0  0
   -0.9987   22.5403  -32.1592 H   0  0  0  0  0  0  0  0  0  0  0  0
   -0.3677   20.8948  -31.7064 H   0  0  0  0  0  0  0  0  0  0  0  0
   -0.6380   19.6516  -35.0416 H   0  0  0  0  0  0  0  0  0  0  0  0
   -0.5279   19.2012  -33.2957 H   0  0  0  0  0  0  0  0  0  0  0  0
   -2.9202   19.5809  -35.0195 H   0  0  0  0  0  0  0  0  0  0  0  0
   -2.7211   18.6580  -33.4790 H   0  0  0  0  0  0  0  0  0  0  0  0
   -4.0252   22.7603  -31.8714 H   0  0  0  0  0  0  0  0  0  0  0  0
  1  2  2  0
  2  3  1  0
  3  4  1  0
  4  5  2  0
  5  6  1  0
  6  7  2  0
  7  8  1  0
  8  9  2  0
  8 10  2  0
  8 11  1  0
 11 12  1  0
 12 13  1  0
 13 14  1  0
 14 15  1  0
  7 16  1  0
 16 17  2  0
  2 18  1  0
 18 19  2  0
 19 20  1  0
 20 21  2  0
 21 22  1  0
 21 23  1  0
 23 24  1  0
 24 25  2  0
 24 26  2  0
 24 27  1  0
 27 28  1  0
 28 29  1  0
 29 30  1  0
 30 31  1  0
 31 32  1  0
 23 33  2  0
 17  4  1  0
 33 18  1  0
 15 11  1  0
 32 27  1  0
  5 34  1  0
  6 35  1  0
 12 36  1  0
 12 37  1  0
 13 38  1  0
 13 39  1  0
 14 40  1  0
 14 41  1  0
 15 42  1  0
 15 43  1  0
 16 44  1  0
 17 45  1  0
 19 46  1  0
 20 47  1  0
 22 48  1  0
 28 49  1  0
 28 50  1  0
 29 51  1  0
 29 52  1  0
 31 53  1  0
 31 54  1  0
 32 55  1  0
 32 56  1  0
 33 57  1  0
M  CHG  1   3  -1
M  END
>  <UniqueID>  (22) 
22

>  <SMILES>  (22) 
O=C([N-]c1ccc(S(=O)(=O)N2CCCC2)cc1)c1ccc(O)c(S(=O)(=O)N2CCOCC2)c1

>  <Energy>  (22) 
74.16121071196827

>  <Genealogy>  (22) 
O=C([N-]c1ccc(S(=O)(=O)N2CCCC2)cc1)c1ccc(O)c(S(=O)(=O)N2CCOCC2)c1 (protonated)
O=C([N-]c1ccc(S(=O)(=O)N2CCCC2)cc1)c1ccc(O)c(S(=O)(=O)N2CCOCC2)c1 (3D coordinates assigned)
O=C([N-]c1ccc(S(=O)(=O)N2CCCC2)cc1)c1ccc(O)c(S(=O)(=O)N2CCOCC2)c1 (nonaromatic ring conformer: 74.16121071196827 kcal/mol)

>  <smiles>  (22) 
O=C(Nc1ccc(S(=O)(=O)N2CCCC2)cc1)c1ccc(O)c(S(=O)(=O)N2CCOCC2)c1

>  <score_type>  (22) 
oracle

>  <origin>  (22) 
adgpu

>  <m_score__min__energy>  (22) 
-11.81

>  <m_primary>  (22) 
energy

$$$$
22:0
     RDKit          3D

 62 65  0  0  0  0  0  0  0  0999 V2000
    1.8820   19.2500  -34.7710 C   0  0  0  0  0  0  0  0  0  0  0  0
    0.5640   19.3510  -35.3020 O   0  0  0  0  0  0  0  0  0  0  0  0
   -0.5600   19.7650  -34.5690 C   0  0  0  0  0  0  0  0  0  0  0  0
   -1.6070   18.8810  -34.2370 C   0  0  0  0  0  0  0  0  0  0  0  0
   -2.7090   19.3340  -33.5050 C   0  0  0  0  0  0  0  0  0  0  0  0
   -2.7820   20.6700  -33.0960 C   0  0  0  0  0  0  0  0  0  0  0  0
   -4.1690   21.2660  -32.1870 S   0  0  0  0  0  0  0  0  0  0  0  0
   -5.3700   21.2350  -33.0910 O   0  0  0  0  0  0  0  0  0  0  0  0
   -4.4250   20.4010  -30.9840 O   0  0  0  0  0  0  0  0  0  0  0  0
   -3.8450   22.8920  -31.6690 N   0  0  0  0  0  0  0  0  0  0  0  0
   -3.2370   23.2140  -30.4070 C   0  0  0  0  0  0  0  0  0  0  0  0
   -2.5990   22.2280  -29.6320 C   0  0  0  0  0  0  0  0  0  0  0  0
   -2.0330   22.5440  -28.3860 C   0  0  0  0  0  0  0  0  0  0  0  0
   -2.0570   23.8790  -27.9270 C   0  0  0  0  0  0  0  0  0  0  0  0
   -2.6720   24.8660  -28.7110 C   0  0  0  0  0  0  0  0  0  0  0  0
   -3.2560   24.5410  -29.9400 C   0  0  0  0  0  0  0  0  0  0  0  0
   -3.8640   25.5470  -30.6910 O   0  0  0  0  0  0  0  0  0  0  0  0
   -1.4900   24.2670  -26.5780 C   0  0  0  0  0  0  0  0  0  0  0  0
   -0.7920   23.1560  -25.9200 N   0  0  0  0  0  0  0  0  0  0  0  0
    0.0310   23.4370  -24.7750 C   0  0  0  0  0  0  0  0  0  0  0  0
    0.4150   22.4860  -24.0420 O   0  0  0  0  0  0  0  0  0  0  0  0
    0.4430   24.8230  -24.4520 C   0  0  0  0  0  0  0  0  0  0  0  0
    1.7720   25.2390  -24.6410 C   0  0  0  0  0  0  0  0  0  0  0  0
    2.1590   26.5430  -24.3200 C   0  0  0  0  0  0  0  0  0  0  0  0
    1.2280   27.4470  -23.7990 C   0  0  0  0  0  0  0  0  0  0  0  0
    1.7250   29.0880  -23.3960 S   0  0  0  0  0  0  0  0  0  0  0  0
    0.6950   30.2550  -24.2580 C   0  0  0  0  0  0  0  0  0  0  0  0
    1.5990   29.3140  -21.9140 O   0  0  0  0  0  0  0  0  0  0  0  0
    3.1590   29.2910  -23.7940 O   0  0  0  0  0  0  0  0  0  0  0  0
   -0.0980   27.0390  -23.6060 C   0  0  0  0  0  0  0  0  0  0  0  0
   -0.4880   25.7350  -23.9240 C   0  0  0  0  0  0  0  0  0  0  0  0
   -1.2990   21.7960  -26.1130 C   0  0  0  0  0  0  0  0  0  0  0  0
   -1.3250   21.4690  -27.6030 C   0  0  0  0  0  0  0  0  0  0  0  0
   -1.7430   21.5490  -33.4210 C   0  0  0  0  0  0  0  0  0  0  0  0
   -0.6310   21.1070  -34.1600 C   0  0  0  0  0  0  0  0  0  0  0  0
    0.4240   21.9680  -34.5090 O   0  0  0  0  0  0  0  0  0  0  0  0
    0.6160   22.5300  -35.8030 C   0  0  0  0  0  0  0  0  0  0  0  0
    1.8358   19.2535  -33.6720 H   0  0  0  0  0  0  0  0  0  0  0  0
    2.3453   18.3137  -35.1155 H   0  0  0  0  0  0  0  0  0  0  0  0
    2.4826   20.1048  -35.1155 H   0  0  0  0  0  0  0  0  0  0  0  0
   -1.5567   17.8293  -34.5555 H   0  0  0  0  0  0  0  0  0  0  0  0
   -3.5213   18.6375  -33.2499 H   0  0  0  0  0  0  0  0  0  0  0  0
   -4.2300   23.6570  -32.2640 H   0  0  0  0  0  0  0  0  0  0  0  0
   -2.5427   21.1955  -30.0071 H   0  0  0  0  0  0  0  0  0  0  0  0
   -2.6954   25.9068  -28.3557 H   0  0  0  0  0  0  0  0  0  0  0  0
   -0.7801   25.0953  -26.7190 H   0  0  0  0  0  0  0  0  0  0  0  0
   -2.3320   24.5605  -25.9339 H   0  0  0  0  0  0  0  0  0  0  0  0
    2.5130   24.5332  -25.0445 H   0  0  0  0  0  0  0  0  0  0  0  0
    3.2005   26.8596  -24.4779 H   0  0  0  0  0  0  0  0  0  0  0  0
    0.1503   30.8722  -23.5284 H   0  0  0  0  0  0  0  0  0  0  0  0
    1.3224   30.9015  -24.8893 H   0  0  0  0  0  0  0  0  0  0  0  0
   -0.0244   29.7128  -24.8893 H   0  0  0  0  0  0  0  0  0  0  0  0
   -0.8358   27.7481  -23.2023 H   0  0  0  0  0  0  0  0  0  0  0  0
   -1.5293   25.4204  -23.7603 H   0  0  0  0  0  0  0  0  0  0  0  0
   -0.6428   21.0829  -25.5926 H   0  0  0  0  0  0  0  0  0  0  0  0
   -2.3176   21.7232  -25.7040 H   0  0  0  0  0  0  0  0  0  0  0  0
   -0.2914   21.3808  -27.9688 H   0  0  0  0  0  0  0  0  0  0  0  0
   -1.8684   20.5227  -27.7418 H   0  0  0  0  0  0  0  0  0  0  0  0
   -1.7965   22.5981  -33.0947 H   0  0  0  0  0  0  0  0  0  0  0  0
    0.9702   23.5667  -35.7036 H   0  0  0  0  0  0  0  0  0  0  0  0
    1.3630   21.9384  -36.3525 H   0  0  0  0  0  0  0  0  0  0  0  0
   -0.3368   22.5191  -36.3525 H   0  0  0  0  0  0  0  0  0  0  0  0
  1  2  1  0
  2  3  1  0
  3  4  2  0
  4  5  1  0
  5  6  2  0
  6  7  1  0
  7  8  2  0
  7  9  2  0
  7 10  1  0
 10 11  1  0
 11 12  2  0
 12 13  1  0
 13 14  2  0
 14 15  1  0
 15 16  2  0
 16 17  1  0
 14 18  1  0
 18 19  1  0
 19 20  1  0
 20 21  2  0
 20 22  1  0
 22 23  2  0
 23 24  1  0
 24 25  2  0
 25 26  1  0
 26 27  1  0
 26 28  2  0
 26 29  2  0
 25 30  1  0
 30 31  2  0
 19 32  1  0
 32 33  1  0
  6 34  1  0
 34 35  2  0
 35 36  1  0
 36 37  1  0
 35  3  1  0
 16 11  1  0
 31 22  1  0
 33 13  1  0
  1 38  1  0
  1 39  1  0
  1 40  1  0
  4 41  1  0
  5 42  1  0
 10 43  1  0
 12 44  1  0
 15 45  1  0
 18 46  1  0
 18 47  1  0
 23 48  1  0
 24 49  1  0
 27 50  1  0
 27 51  1  0
 27 52  1  0
 30 53  1  0
 31 54  1  0
 32 55  1  0
 32 56  1  0
 33 57  1  0
 33 58  1  0
 34 59  1  0
 37 60  1  0
 37 61  1  0
 37 62  1  0
M  CHG  1  17  -1
M  END
>  <UniqueID>  (23) 
23

>  <SMILES>  (23) 
COc1ccc(S(=O)(=O)Nc2cc3c(cc2[O-])CN(C(=O)c2ccc(S(C)(=O)=O)cc2)CC3)cc1OC

>  <Energy>  (23) 
73.31023577381092

>  <Genealogy>  (23) 
COc1ccc(S(=O)(=O)Nc2cc3c(cc2[O-])CN(C(=O)c2ccc(S(C)(=O)=O)cc2)CC3)cc1OC (protonated)
COc1ccc(S(=O)(=O)Nc2cc3c(cc2[O-])CN(C(=O)c2ccc(S(C)(=O)=O)cc2)CC3)cc1OC (3D coordinates assigned)
COc1ccc(S(=O)(=O)Nc2cc3c(cc2[O-])CN(C(=O)c2ccc(S(C)(=O)=O)cc2)CC3)cc1OC (nonaromatic ring conformer: 73.31023577381092 kcal/mol)

>  <smiles>  (23) 
COc1ccc(S(=O)(=O)Nc2cc3c(cc2O)CN(C(=O)c2ccc(S(C)(=O)=O)cc2)CC3)cc1OC

>  <score_type>  (23) 
oracle

>  <origin>  (23) 
adgpu

>  <m_score__min__energy>  (23) 
-12.82

>  <m_primary>  (23) 
energy

$$$$
23:0
     RDKit          3D

 42 45  0  0  0  0  0  0  0  0999 V2000
   -3.8650   21.7180  -33.2940 O   0  0  0  0  0  0  0  0  0  0  0  0
   -2.9900   21.9190  -32.4110 C   0  0  0  0  0  0  0  0  0  0  0  0
   -3.2220   22.9110  -31.3860 N   0  0  0  0  0  0  0  0  0  0  0  0
   -4.5370   23.2900  -30.9300 C   0  0  0  0  0  0  0  0  0  0  0  0
   -5.5320   22.3170  -30.6960 C   0  0  0  0  0  0  0  0  0  0  0  0
   -6.7880   22.6950  -30.2080 C   0  0  0  0  0  0  0  0  0  0  0  0
   -7.0590   24.0410  -29.9380 C   0  0  0  0  0  0  0  0  0  0  0  0
   -6.0760   25.0110  -30.1480 C   0  0  0  0  0  0  0  0  0  0  0  0
   -4.8170   24.6430  -30.6360 C   0  0  0  0  0  0  0  0  0  0  0  0
   -3.8520   25.6290  -30.8370 O   0  0  0  0  0  0  0  0  0  0  0  0
   -1.7510   21.1100  -32.4400 C   0  0  0  0  0  0  0  0  0  0  0  0
   -1.1420   20.8140  -33.6770 C   0  0  0  0  0  0  0  0  0  0  0  0
    0.0100   20.0260  -33.7350 C   0  0  0  0  0  0  0  0  0  0  0  0
    0.5690   19.5030  -32.5660 C   0  0  0  0  0  0  0  0  0  0  0  0
   -0.0240   19.7800  -31.3210 C   0  0  0  0  0  0  0  0  0  0  0  0
    0.5130   19.2650  -30.0950 N   0  0  0  0  0  0  0  0  0  0  0  0
   -0.1660   19.5280  -28.5210 S   0  0  0  0  0  0  0  0  0  0  0  0
    0.9120   19.3670  -27.4900 O   0  0  0  0  0  0  0  0  0  0  0  0
   -1.2260   18.5000  -28.2670 O   0  0  0  0  0  0  0  0  0  0  0  0
   -0.8980   21.1270  -28.4260 C   0  0  0  0  0  0  0  0  0  0  0  0
   -2.2230   21.2600  -27.9470 C   0  0  0  0  0  0  0  0  0  0  0  0
   -2.8250   22.5280  -27.8360 C   0  0  0  0  0  0  0  0  0  0  0  0
   -2.0710   23.6340  -28.2070 C   0  0  0  0  0  0  0  0  0  0  0  0
   -2.4310   24.9240  -28.1630 N   0  0  0  0  0  0  0  0  0  0  0  0
   -1.3100   25.5470  -28.6130 C   0  0  0  0  0  0  0  0  0  0  0  0
   -1.2320   26.7990  -28.7190 O   0  0  0  0  0  0  0  0  0  0  0  0
   -0.2780   24.7240  -28.9350 N   0  0  0  0  0  0  0  0  0  0  0  0
   -0.7920   23.5150  -28.6680 C   0  0  0  0  0  0  0  0  0  0  0  0
   -0.1640   22.2750  -28.7940 C   0  0  0  0  0  0  0  0  0  0  0  0
   -1.1720   20.5990  -31.2620 C   0  0  0  0  0  0  0  0  0  0  0  0
   -2.4080   23.4030  -30.9580 H   0  0  0  0  0  0  0  0  0  0  0  0
   -5.3194   21.2568  -30.8981 H   0  0  0  0  0  0  0  0  0  0  0  0
   -7.5629   21.9333  -30.0365 H   0  0  0  0  0  0  0  0  0  0  0  0
   -8.0487   24.3360  -29.5594 H   0  0  0  0  0  0  0  0  0  0  0  0
   -6.2921   26.0671  -29.9292 H   0  0  0  0  0  0  0  0  0  0  0  0
   -1.5789   21.2080  -34.6065 H   0  0  0  0  0  0  0  0  0  0  0  0
    0.4801   19.8159  -34.7071 H   0  0  0  0  0  0  0  0  0  0  0  0
    1.4711   18.8758  -32.6193 H   0  0  0  0  0  0  0  0  0  0  0  0
   -2.7892   20.3623  -27.6580 H   0  0  0  0  0  0  0  0  0  0  0  0
   -3.8559   22.6388  -27.4685 H   0  0  0  0  0  0  0  0  0  0  0  0
    0.8676   22.1951  -29.1673 H   0  0  0  0  0  0  0  0  0  0  0  0
   -1.6190   20.8406  -30.2864 H   0  0  0  0  0  0  0  0  0  0  0  0
  1  2  2  0
  2  3  1  0
  3  4  1  0
  4  5  2  0
  5  6  1  0
  6  7  2  0
  7  8  1  0
  8  9  2  0
  9 10  1  0
  2 11  1  0
 11 12  2  0
 12 13  1  0
 13 14  2  0
 14 15  1  0
 15 16  1  0
 16 17  1  0
 17 18  2  0
 17 19  2  0
 17 20  1  0
 20 21  2  0
 21 22  1  0
 22 23  2  0
 23 24  1  0
 24 25  1  0
 25 26  2  0
 25 27  1  0
 27 28  1  0
 28 29  2  0
 15 30  2  0
  9  4  1  0
 30 11  1  0
 29 20  1  0
 28 23  1  0
  3 31  1  0
  5 32  1  0
  6 33  1  0
  7 34  1  0
  8 35  1  0
 12 36  1  0
 13 37  1  0
 14 38  1  0
 21 39  1  0
 22 40  1  0
 29 41  1  0
 30 42  1  0
M  CHG  4  10  -1  16  -1  24  -1  27  -1
M  END
>  <UniqueID>  (24) 
24

>  <SMILES>  (24) 
O=C(Nc1ccccc1[O-])c1cccc([N-]S(=O)(=O)c2ccc3[n-]c(=O)[n-]c3c2)c1

>  <Energy>  (24) 
94.37898242956862

>  <Genealogy>  (24) 
O=C(Nc1ccccc1[O-])c1cccc([N-]S(=O)(=O)c2ccc3[n-]c(=O)[n-]c3c2)c1 (protonated)
O=C(Nc1ccccc1[O-])c1cccc([N-]S(=O)(=O)c2ccc3[n-]c(=O)[n-]c3c2)c1 (3D coordinates assigned)
O=C(Nc1ccccc1[O-])c1cccc([N-]S(=O)(=O)c2ccc3[n-]c(=O)[n-]c3c2)c1 (optimized conformer: 94.37898242956862 kcal/mol)

>  <smiles>  (24) 
O=C(Nc1ccccc1O)c1cccc(NS(=O)(=O)c2ccc3[nH]c(=O)[nH]c3c2)c1

>  <score_type>  (24) 
oracle

>  <origin>  (24) 
adgpu

>  <m_score__min__energy>  (24) 
-13.84

>  <m_primary>  (24) 
energy

$$$$
24:0
     RDKit          3D

 64 67  0  0  0  0  0  0  0  0999 V2000
   -3.6300   18.4830  -34.3540 C   0  0  0  0  0  0  0  0  0  0  0  0
   -3.4730   19.6490  -33.4120 C   0  0  0  0  0  0  0  0  0  0  0  0
   -2.1870   20.1580  -33.1830 C   0  0  0  0  0  0  0  0  0  0  0  0
   -1.9910   21.2510  -32.3420 C   0  0  0  0  0  0  0  0  0  0  0  0
   -3.0780   21.8690  -31.7070 C   0  0  0  0  0  0  0  0  0  0  0  0
   -2.8340   23.0060  -30.7870 C   0  0  0  0  0  0  0  0  0  0  0  0
   -3.6340   23.9820  -30.7970 O   0  0  0  0  0  0  0  0  0  0  0  0
   -1.6770   23.0220  -29.9340 N   0  0  0  0  0  0  0  0  0  0  0  0
   -1.4320   23.9040  -28.8190 C   0  0  0  0  0  0  0  0  0  0  0  0
   -1.5080   25.3080  -28.9480 C   0  0  0  0  0  0  0  0  0  0  0  0
   -1.2270   26.1380  -27.8600 C   0  0  0  0  0  0  0  0  0  0  0  0
   -0.8890   25.5860  -26.6260 C   0  0  0  0  0  0  0  0  0  0  0  0
   -0.8480   24.2010  -26.4700 C   0  0  0  0  0  0  0  0  0  0  0  0
   -1.1050   23.3520  -27.5590 C   0  0  0  0  0  0  0  0  0  0  0  0
   -1.1230   21.8930  -27.3250 C   0  0  0  0  0  0  0  0  0  0  0  0
   -0.4600   21.4590  -26.3480 O   0  0  0  0  0  0  0  0  0  0  0  0
   -1.7780   20.9460  -28.2200 N   0  0  0  0  0  0  0  0  0  0  0  0
   -0.9140   19.8010  -28.5770 C   0  0  0  0  0  0  0  0  0  0  0  0
   -0.9250   18.6720  -27.5200 C   0  0  0  0  0  0  0  0  0  0  0  0
   -1.8050   18.9340  -26.4450 O   0  0  0  0  0  0  0  0  0  0  0  0
   -3.0930   19.2040  -26.9530 C   0  0  0  0  0  0  0  0  0  0  0  0
   -3.1160   20.5290  -27.7360 C   0  0  0  0  0  0  0  0  0  0  0  0
   -4.3740   21.3780  -31.9430 C   0  0  0  0  0  0  0  0  0  0  0  0
   -4.5860   20.2700  -32.7880 C   0  0  0  0  0  0  0  0  0  0  0  0
   -6.2390   19.7050  -33.0950 S   0  0  0  0  0  0  0  0  0  0  0  0
   -6.4260   19.5760  -34.5820 O   0  0  0  0  0  0  0  0  0  0  0  0
   -6.4440   18.3580  -32.4500 O   0  0  0  0  0  0  0  0  0  0  0  0
   -7.4140   20.8350  -32.4590 N   0  0  0  0  0  0  0  0  0  0  0  0
   -7.2480   20.9780  -31.0070 C   0  0  0  0  0  0  0  0  0  0  0  0
   -8.1420   22.1200  -30.4890 C   0  0  0  0  0  0  0  0  0  0  0  0
   -9.3310   22.3690  -31.3380 N   0  0  0  0  0  0  0  0  0  0  0  0
   -9.0940   23.4250  -32.3390 C   0  0  0  0  0  0  0  0  0  0  0  0
   -9.8500   21.1290  -31.9500 C   0  0  0  0  0  0  0  0  0  0  0  0
   -8.7790   20.3750  -32.7720 C   0  0  0  0  0  0  0  0  0  0  0  0
   -3.7547   17.5569  -33.7736 H   0  0  0  0  0  0  0  0  0  0  0  0
   -4.5151   18.6404  -34.9880 H   0  0  0  0  0  0  0  0  0  0  0  0
   -2.7348   18.4007  -34.9880 H   0  0  0  0  0  0  0  0  0  0  0  0
   -1.3218   19.6883  -33.6737 H   0  0  0  0  0  0  0  0  0  0  0  0
   -0.9733   21.6333  -32.1742 H   0  0  0  0  0  0  0  0  0  0  0  0
   -1.7910   25.7522  -29.9137 H   0  0  0  0  0  0  0  0  0  0  0  0
   -1.2727   27.2307  -27.9778 H   0  0  0  0  0  0  0  0  0  0  0  0
   -0.6546   26.2427  -25.7752 H   0  0  0  0  0  0  0  0  0  0  0  0
   -0.6124   23.7697  -25.4859 H   0  0  0  0  0  0  0  0  0  0  0  0
   -1.9490   21.4630  -29.1140 H   0  0  0  0  0  0  0  0  0  0  0  0
   -1.2624   19.3861  -29.5343 H   0  0  0  0  0  0  0  0  0  0  0  0
    0.1173   20.1786  -28.6390 H   0  0  0  0  0  0  0  0  0  0  0  0
   -1.2361   17.7368  -28.0085 H   0  0  0  0  0  0  0  0  0  0  0  0
    0.0910   18.5983  -27.1048 H   0  0  0  0  0  0  0  0  0  0  0  0
   -3.3929   18.3855  -27.6239 H   0  0  0  0  0  0  0  0  0  0  0  0
   -3.7908   19.2873  -26.1068 H   0  0  0  0  0  0  0  0  0  0  0  0
   -3.7803   20.4100  -28.6046 H   0  0  0  0  0  0  0  0  0  0  0  0
   -3.4716   21.3092  -27.0469 H   0  0  0  0  0  0  0  0  0  0  0  0
   -5.2346   21.8653  -31.4615 H   0  0  0  0  0  0  0  0  0  0  0  0
   -7.5336   20.0378  -30.5126 H   0  0  0  0  0  0  0  0  0  0  0  0
   -6.1964   21.2103  -30.7831 H   0  0  0  0  0  0  0  0  0  0  0  0
   -8.4848   21.8622  -29.4761 H   0  0  0  0  0  0  0  0  0  0  0  0
   -7.5360   23.0379  -30.5022 H   0  0  0  0  0  0  0  0  0  0  0  0
   -8.8808   24.3747  -31.8266 H   0  0  0  0  0  0  0  0  0  0  0  0
   -8.2358   23.1474  -32.9687 H   0  0  0  0  0  0  0  0  0  0  0  0
   -9.9885   23.5408  -32.9687 H   0  0  0  0  0  0  0  0  0  0  0  0
  -10.2106   20.4659  -31.1498 H   0  0  0  0  0  0  0  0  0  0  0  0
  -10.6590   21.4124  -32.6394 H   0  0  0  0  0  0  0  0  0  0  0  0
   -8.8513   19.3005  -32.5478 H   0  0  0  0  0  0  0  0  0  0  0  0
   -8.9675   20.5741  -33.8373 H   0  0  0  0  0  0  0  0  0  0  0  0
  1  2  1  0
  2  3  2  0
  3  4  1  0
  4  5  2  0
  5  6  1  0
  6  7  2  0
  6  8  1  0
  8  9  1  0
  9 10  2  0
 10 11  1  0
 11 12  2  0
 12 13  1  0
 13 14  2  0
 14 15  1  0
 15 16  2  0
 15 17  1  0
 17 18  1  0
 18 19  1  0
 19 20  1  0
 20 21  1  0
 21 22  1  0
  5 23  1  0
 23 24  2  0
 24 25  1  0
 25 26  2  0
 25 27  2  0
 25 28  1  0
 28 29  1  0
 29 30  1  0
 30 31  1  0
 31 32  1  0
 31 33  1  0
 33 34  1  0
 24  2  1  0
 34 28  1  0
 14  9  1  0
 22 17  1  0
  1 35  1  0
  1 36  1  0
  1 37  1  0
  3 38  1  0
  4 39  1  0
 10 40  1  0
 11 41  1  0
 12 42  1  0
 13 43  1  0
 17 44  1  0
 18 45  1  0
 18 46  1  0
 19 47  1  0
 19 48  1  0
 21 49  1  0
 21 50  1  0
 22 51  1  0
 22 52  1  0
 23 53  1  0
 29 54  1  0
 29 55  1  0
 30 56  1  0
 30 57  1  0
 32 58  1  0
 32 59  1  0
 32 60  1  0
 33 61  1  0
 33 62  1  0
 34 63  1  0
 34 64  1  0
M  CHG  2   8  -1  17   1
M  END
>  <UniqueID>  (25) 
25

>  <SMILES>  (25) 
Cc1ccc(C(=O)[N-]c2ccccc2C(=O)[NH+]2CCOCC2)cc1S(=O)(=O)N1CCN(C)CC1

>  <Energy>  (25) 
103.56298256928127

>  <Genealogy>  (25) 
Cc1ccc(C(=O)[N-]c2ccccc2C(=O)[NH+]2CCOCC2)cc1S(=O)(=O)N1CCN(C)CC1 (protonated)
Cc1ccc(C(=O)[N-]c2ccccc2C(=O)[NH+]2CCOCC2)cc1S(=O)(=O)N1CCN(C)CC1 (3D coordinates assigned)
Cc1ccc(C(=O)[N-]c2ccccc2C(=O)[NH+]2CCOCC2)cc1S(=O)(=O)N1CCN(C)CC1 (nonaromatic ring conformer: 103.56298256928127 kcal/mol)

>  <smiles>  (25) 
Cc1ccc(C(=O)Nc2ccccc2C(=O)N2CCOCC2)cc1S(=O)(=O)N1CCN(C)CC1

>  <score_type>  (25) 
oracle

>  <origin>  (25) 
adgpu

>  <m_score__min__energy>  (25) 
-10.26

>  <m_primary>  (25) 
energy

$$$$
25:0
     RDKit          3D

 49 51  0  0  0  0  0  0  0  0999 V2000
   -4.6290   16.7100  -32.4220 C   0  0  0  0  0  0  0  0  0  0  0  0
   -5.7410   17.9170  -31.7290 S   0  0  0  0  0  0  0  0  0  0  0  0
   -4.9410   19.1370  -31.3690 O   0  0  0  0  0  0  0  0  0  0  0  0
   -6.3560   17.3530  -30.4810 O   0  0  0  0  0  0  0  0  0  0  0  0
   -6.9890   18.3690  -32.8740 N   0  0  0  0  0  0  0  0  0  0  0  0
   -8.3420   18.2820  -32.2900 C   0  0  0  0  0  0  0  0  0  0  0  0
   -8.5850   19.3640  -31.2250 C   0  0  0  0  0  0  0  0  0  0  0  0
   -7.9670   20.6360  -31.6150 N   0  0  0  0  0  0  0  0  0  0  0  0
   -8.0000   21.7430  -30.6930 C   0  0  0  0  0  0  0  0  0  0  0  0
   -8.9700   21.8480  -29.8930 O   0  0  0  0  0  0  0  0  0  0  0  0
   -6.9140   22.7530  -30.6400 C   0  0  0  0  0  0  0  0  0  0  0  0
   -7.2220   24.1100  -30.4520 C   0  0  0  0  0  0  0  0  0  0  0  0
   -6.2050   25.0660  -30.3880 C   0  0  0  0  0  0  0  0  0  0  0  0
   -4.8650   24.6830  -30.5000 C   0  0  0  0  0  0  0  0  0  0  0  0
   -3.8750   25.6640  -30.4500 O   0  0  0  0  0  0  0  0  0  0  0  0
   -4.5440   23.3230  -30.6600 C   0  0  0  0  0  0  0  0  0  0  0  0
   -3.1850   22.8990  -30.7560 N   0  0  0  0  0  0  0  0  0  0  0  0
   -2.0670   23.2150  -29.4750 S   0  0  0  0  0  0  0  0  0  0  0  0
   -0.6880   23.3670  -30.0550 O   0  0  0  0  0  0  0  0  0  0  0  0
   -2.4340   24.4970  -28.7830 O   0  0  0  0  0  0  0  0  0  0  0  0
   -2.0800   21.8850  -28.3200 C   0  0  0  0  0  0  0  0  0  0  0  0
   -1.2320   21.9040  -27.2020 C   0  0  0  0  0  0  0  0  0  0  0  0
   -1.2660   20.8540  -26.2790 C   0  0  0  0  0  0  0  0  0  0  0  0
   -2.1390   19.7800  -26.4690 C   0  0  0  0  0  0  0  0  0  0  0  0
   -2.9740   19.7490  -27.5900 C   0  0  0  0  0  0  0  0  0  0  0  0
   -2.9450   20.7980  -28.5150 C   0  0  0  0  0  0  0  0  0  0  0  0
   -5.5650   22.3690  -30.7310 C   0  0  0  0  0  0  0  0  0  0  0  0
   -7.6000   20.8300  -33.0210 C   0  0  0  0  0  0  0  0  0  0  0  0
   -6.6990   19.6790  -33.5090 C   0  0  0  0  0  0  0  0  0  0  0  0
   -4.1268   16.1649  -31.6092 H   0  0  0  0  0  0  0  0  0  0  0  0
   -5.1973   16.0014  -33.0423 H   0  0  0  0  0  0  0  0  0  0  0  0
   -3.8763   17.2185  -33.0423 H   0  0  0  0  0  0  0  0  0  0  0  0
   -9.0833   18.4030  -33.0937 H   0  0  0  0  0  0  0  0  0  0  0  0
   -8.4371   17.3006  -31.8024 H   0  0  0  0  0  0  0  0  0  0  0  0
   -9.6682   19.5128  -31.1044 H   0  0  0  0  0  0  0  0  0  0  0  0
   -8.1332   19.0312  -30.2789 H   0  0  0  0  0  0  0  0  0  0  0  0
   -8.2720   24.4229  -30.3544 H   0  0  0  0  0  0  0  0  0  0  0  0
   -6.4603   26.1269  -30.2486 H   0  0  0  0  0  0  0  0  0  0  0  0
   -3.1370   25.6550  -29.7570 H   0  0  0  0  0  0  0  0  0  0  0  0
   -0.5399   22.7456  -27.0516 H   0  0  0  0  0  0  0  0  0  0  0  0
   -0.6036   20.8738  -25.4010 H   0  0  0  0  0  0  0  0  0  0  0  0
   -2.1694   18.9593  -25.7372 H   0  0  0  0  0  0  0  0  0  0  0  0
   -3.6545   18.8988  -27.7448 H   0  0  0  0  0  0  0  0  0  0  0  0
   -3.6018   20.7704  -29.3970 H   0  0  0  0  0  0  0  0  0  0  0  0
   -5.3092   21.3069  -30.8594 H   0  0  0  0  0  0  0  0  0  0  0  0
   -8.5138   20.8584  -33.6327 H   0  0  0  0  0  0  0  0  0  0  0  0
   -7.0491   21.7773  -33.1167 H   0  0  0  0  0  0  0  0  0  0  0  0
   -6.8328   19.5729  -34.5957 H   0  0  0  0  0  0  0  0  0  0  0  0
   -5.6683   19.9442  -33.2308 H   0  0  0  0  0  0  0  0  0  0  0  0
  1  2  1  0
  2  3  2  0
  2  4  2  0
  2  5  1  0
  5  6  1  0
  6  7  1  0
  7  8  1  0
  8  9  1  0
  9 10  2  0
  9 11  1  0
 11 12  2  0
 12 13  1  0
 13 14  2  0
 14 15  1  0
 14 16  1  0
 16 17  1  0
 17 18  1  0
 18 19  2  0
 18 20  2  0
 18 21  1  0
 21 22  2  0
 22 23  1  0
 23 24  2  0
 24 25  1  0
 25 26  2  0
 16 27  2  0
  8 28  1  0
 28 29  1  0
 29  5  1  0
 27 11  1  0
 26 21  1  0
  1 30  1  0
  1 31  1  0
  1 32  1  0
  6 33  1  0
  6 34  1  0
  7 35  1  0
  7 36  1  0
 12 37  1  0
 13 38  1  0
 15 39  1  0
 22 40  1  0
 23 41  1  0
 24 42  1  0
 25 43  1  0
 26 44  1  0
 27 45  1  0
 28 46  1  0
 28 47  1  0
 29 48  1  0
 29 49  1  0
M  CHG  1  17  -1
M  END
>  <UniqueID>  (26) 
26

>  <SMILES>  (26) 
CS(=O)(=O)N1CCN(C(=O)c2ccc(O)c([N-]S(=O)(=O)c3ccccc3)c2)CC1

>  <Energy>  (26) 
63.94405591014098

>  <Genealogy>  (26) 
CS(=O)(=O)N1CCN(C(=O)c2ccc(O)c([N-]S(=O)(=O)c3ccccc3)c2)CC1 (protonated)
CS(=O)(=O)N1CCN(C(=O)c2ccc(O)c([N-]S(=O)(=O)c3ccccc3)c2)CC1 (3D coordinates assigned)
CS(=O)(=O)N1CCN(C(=O)c2ccc(O)c([N-]S(=O)(=O)c3ccccc3)c2)CC1 (nonaromatic ring conformer: 63.94405591014098 kcal/mol)

>  <smiles>  (26) 
CS(=O)(=O)N1CCN(C(=O)c2ccc(O)c(NS(=O)(=O)c3ccccc3)c2)CC1

>  <score_type>  (26) 
oracle

>  <origin>  (26) 
adgpu

>  <m_score__min__energy>  (26) 
-10.970000000000001

>  <m_primary>  (26) 
energy

$$$$
26:0
     RDKit          3D

 42 44  0  0  0  0  0  0  0  0999 V2000
   -8.2540   20.5730  -32.1170 S   0  0  0  0  0  0  0  0  0  0  0  0
   -6.8170   20.3120  -32.8720 C   0  0  0  0  0  0  0  0  0  0  0  0
   -5.8590   21.3780  -33.0260 N   0  0  0  0  0  0  0  0  0  0  0  0
   -5.7760   22.5300  -32.1720 C   0  0  0  0  0  0  0  0  0  0  0  0
   -6.9280   23.2030  -31.7340 C   0  0  0  0  0  0  0  0  0  0  0  0
   -6.8110   24.2950  -30.8710 C   0  0  0  0  0  0  0  0  0  0  0  0
   -5.5460   24.6940  -30.4390 C   0  0  0  0  0  0  0  0  0  0  0  0
   -4.4410   24.0150  -30.8500 N   0  0  0  0  0  0  0  0  0  0  0  0
   -4.5290   22.9500  -31.6900 C   0  0  0  0  0  0  0  0  0  0  0  0
   -6.5690   19.0330  -33.4750 N   0  0  0  0  0  0  0  0  0  0  0  0
   -6.6970   17.8120  -32.6740 C   0  0  0  0  0  0  0  0  0  0  0  0
   -5.8300   16.6880  -33.2670 C   0  0  0  0  0  0  0  0  0  0  0  0
   -4.5550   17.2120  -33.8050 N   0  0  0  0  0  0  0  0  0  0  0  0
   -3.6890   17.7550  -32.7340 C   0  0  0  0  0  0  0  0  0  0  0  0
   -2.7790   18.8210  -33.2880 C   0  0  0  0  0  0  0  0  0  0  0  0
   -3.0220   20.1730  -32.9950 C   0  0  0  0  0  0  0  0  0  0  0  0
   -2.1750   21.1650  -33.4980 C   0  0  0  0  0  0  0  0  0  0  0  0
   -1.0810   20.8160  -34.2940 C   0  0  0  0  0  0  0  0  0  0  0  0
   -0.8320   19.4720  -34.5900 C   0  0  0  0  0  0  0  0  0  0  0  0
   -1.6770   18.4770  -34.0890 C   0  0  0  0  0  0  0  0  0  0  0  0
   -4.7590   18.1810  -34.9160 C   0  0  0  0  0  0  0  0  0  0  0  0
   -6.1110   18.9190  -34.8610 C   0  0  0  0  0  0  0  0  0  0  0  0
   -5.1510   21.3040  -33.7900 H   0  0  0  0  0  0  0  0  0  0  0  0
   -7.9213   22.8706  -32.0701 H   0  0  0  0  0  0  0  0  0  0  0  0
   -7.7082   24.8355  -30.5350 H   0  0  0  0  0  0  0  0  0  0  0  0
   -5.4419   25.5578  -29.7659 H   0  0  0  0  0  0  0  0  0  0  0  0
   -3.6168   22.4151  -31.9930 H   0  0  0  0  0  0  0  0  0  0  0  0
   -6.3689   18.0179  -31.6445 H   0  0  0  0  0  0  0  0  0  0  0  0
   -7.7491   17.4911  -32.6785 H   0  0  0  0  0  0  0  0  0  0  0  0
   -5.6100   15.9529  -32.4788 H   0  0  0  0  0  0  0  0  0  0  0  0
   -6.3872   16.2221  -34.0931 H   0  0  0  0  0  0  0  0  0  0  0  0
   -4.3185   18.1899  -31.9437 H   0  0  0  0  0  0  0  0  0  0  0  0
   -3.0761   16.9400  -32.3214 H   0  0  0  0  0  0  0  0  0  0  0  0
   -3.8815   20.4522  -32.3678 H   0  0  0  0  0  0  0  0  0  0  0  0
   -2.3702   22.2225  -33.2666 H   0  0  0  0  0  0  0  0  0  0  0  0
   -0.4156   21.5983  -34.6879 H   0  0  0  0  0  0  0  0  0  0  0  0
    0.0290   19.1976  -35.2172 H   0  0  0  0  0  0  0  0  0  0  0  0
   -1.4783   17.4207  -34.3229 H   0  0  0  0  0  0  0  0  0  0  0  0
   -3.9540   18.9295  -34.8749 H   0  0  0  0  0  0  0  0  0  0  0  0
   -4.7496   17.6014  -35.8508 H   0  0  0  0  0  0  0  0  0  0  0  0
   -5.9931   19.9256  -35.2887 H   0  0  0  0  0  0  0  0  0  0  0  0
   -6.8542   18.3500  -35.4389 H   0  0  0  0  0  0  0  0  0  0  0  0
  1  2  2  0
  2  3  1  0
  3  4  1  0
  4  5  2  0
  5  6  1  0
  6  7  2  0
  7  8  1  0
  8  9  2  0
  2 10  1  0
 10 11  1  0
 11 12  1  0
 12 13  1  0
 13 14  1  0
 14 15  1  0
 15 16  2  0
 16 17  1  0
 17 18  2  0
 18 19  1  0
 19 20  2  0
 13 21  1  0
 21 22  1  0
  9  4  1  0
 22 10  1  0
 20 15  1  0
  3 23  1  0
  5 24  1  0
  6 25  1  0
  7 26  1  0
  9 27  1  0
 11 28  1  0
 11 29  1  0
 12 30  1  0
 12 31  1  0
 14 32  1  0
 14 33  1  0
 16 34  1  0
 17 35  1  0
 18 36  1  0
 19 37  1  0
 20 38  1  0
 21 39  1  0
 21 40  1  0
 22 41  1  0
 22 42  1  0
M  END
>  <UniqueID>  (27) 
27

>  <SMILES>  (27) 
S=C(Nc1cccnc1)N1CCN(Cc2ccccc2)CC1

>  <Energy>  (27) 
60.85267775416885

>  <Genealogy>  (27) 
S=C(Nc1cccnc1)N1CCN(Cc2ccccc2)CC1 (3D coordinates assigned)
S=C(Nc1cccnc1)N1CCN(Cc2ccccc2)CC1 (nonaromatic ring conformer: 60.85267775416885 kcal/mol)

>  <smiles>  (27) 
S=C(Nc1cccnc1)N1CCN(Cc2ccccc2)CC1

>  <score_type>  (27) 
oracle

>  <origin>  (27) 
adgpu

>  <m_score__min__energy>  (27) 
-7.4699999999999998

>  <m_primary>  (27) 
energy

$$$$
27:0
     RDKit          3D

 64 67  0  0  0  0  0  0  0  0999 V2000
  -10.1290   20.8700  -32.3390 C   0  0  0  0  0  0  0  0  0  0  0  0
   -8.8530   20.5790  -31.5340 C   0  0  0  0  0  0  0  0  0  0  0  0
   -8.7010   19.0870  -31.2000 C   0  0  0  0  0  0  0  0  0  0  0  0
   -8.2850   18.2590  -32.4270 C   0  0  0  0  0  0  0  0  0  0  0  0
   -7.0810   18.7910  -33.0920 N   0  0  0  0  0  0  0  0  0  0  0  0
   -5.5860   18.3780  -32.2680 S   0  0  0  0  0  0  0  0  0  0  0  0
   -5.8450   18.0730  -30.8170 O   0  0  0  0  0  0  0  0  0  0  0  0
   -4.9180   17.1910  -32.9040 O   0  0  0  0  0  0  0  0  0  0  0  0
   -4.4910   19.7520  -32.3720 C   0  0  0  0  0  0  0  0  0  0  0  0
   -3.3260   19.6650  -33.1420 C   0  0  0  0  0  0  0  0  0  0  0  0
   -2.4540   20.7520  -33.2220 C   0  0  0  0  0  0  0  0  0  0  0  0
   -2.7370   21.9320  -32.5290 C   0  0  0  0  0  0  0  0  0  0  0  0
   -3.8990   22.0350  -31.7420 C   0  0  0  0  0  0  0  0  0  0  0  0
   -4.1960   23.2840  -31.0020 C   0  0  0  0  0  0  0  0  0  0  0  0
   -4.8450   24.2100  -31.5620 O   0  0  0  0  0  0  0  0  0  0  0  0
   -3.7930   23.4220  -29.6330 N   0  0  0  0  0  0  0  0  0  0  0  0
   -2.4550   23.2740  -29.1390 C   0  0  0  0  0  0  0  0  0  0  0  0
   -1.9820   21.9850  -28.8650 C   0  0  0  0  0  0  0  0  0  0  0  0
   -0.6800   21.7880  -28.3840 C   0  0  0  0  0  0  0  0  0  0  0  0
   -0.1050   20.1620  -28.0060 S   0  0  0  0  0  0  0  0  0  0  0  0
   -0.9330   19.5940  -26.8880 O   0  0  0  0  0  0  0  0  0  0  0  0
    1.3220   20.2360  -27.5370 O   0  0  0  0  0  0  0  0  0  0  0  0
   -0.2060   19.1050  -29.3930 N   0  0  0  0  0  0  0  0  0  0  0  0
    0.5410   17.8560  -29.1400 C   0  0  0  0  0  0  0  0  0  0  0  0
    0.7300   17.0110  -30.4200 C   0  0  0  0  0  0  0  0  0  0  0  0
   -0.2070   17.4660  -31.5430 C   0  0  0  0  0  0  0  0  0  0  0  0
   -0.0120   18.9600  -31.8540 C   0  0  0  0  0  0  0  0  0  0  0  0
    0.3030   19.7870  -30.5940 C   0  0  0  0  0  0  0  0  0  0  0  0
    0.1620   22.8910  -28.1990 C   0  0  0  0  0  0  0  0  0  0  0  0
   -0.2890   24.1780  -28.5030 C   0  0  0  0  0  0  0  0  0  0  0  0
   -1.5870   24.3750  -28.9860 C   0  0  0  0  0  0  0  0  0  0  0  0
   -1.9880   25.6580  -29.3410 O   0  0  0  0  0  0  0  0  0  0  0  0
   -4.7710   20.9320  -31.6690 C   0  0  0  0  0  0  0  0  0  0  0  0
   -7.1900   20.2200  -33.4400 C   0  0  0  0  0  0  0  0  0  0  0  0
   -7.5910   21.0990  -32.2410 C   0  0  0  0  0  0  0  0  0  0  0  0
  -10.9632   21.0603  -31.6477 H   0  0  0  0  0  0  0  0  0  0  0  0
   -9.9689   21.7547  -32.9728 H   0  0  0  0  0  0  0  0  0  0  0  0
  -10.3683   20.0034  -32.9728 H   0  0  0  0  0  0  0  0  0  0  0  0
   -8.9636   21.1270  -30.5867 H   0  0  0  0  0  0  0  0  0  0  0  0
   -7.9339   18.9746  -30.4196 H   0  0  0  0  0  0  0  0  0  0  0  0
   -9.6777   18.7157  -30.8561 H   0  0  0  0  0  0  0  0  0  0  0  0
   -8.0812   17.2278  -32.1028 H   0  0  0  0  0  0  0  0  0  0  0  0
   -9.1111   18.3022  -33.1521 H   0  0  0  0  0  0  0  0  0  0  0  0
   -3.0965   18.7369  -33.6861 H   0  0  0  0  0  0  0  0  0  0  0  0
   -1.5416   20.6796  -33.8322 H   0  0  0  0  0  0  0  0  0  0  0  0
   -2.0470   22.7858  -32.5991 H   0  0  0  0  0  0  0  0  0  0  0  0
   -2.6388   21.1179  -29.0288 H   0  0  0  0  0  0  0  0  0  0  0  0
    1.5318   18.1128  -28.7371 H   0  0  0  0  0  0  0  0  0  0  0  0
   -0.0423   17.2560  -28.4260 H   0  0  0  0  0  0  0  0  0  0  0  0
    1.7708   17.1101  -30.7621 H   0  0  0  0  0  0  0  0  0  0  0  0
    0.4923   15.9646  -30.1781 H   0  0  0  0  0  0  0  0  0  0  0  0
    0.0061   16.8794  -32.4488 H   0  0  0  0  0  0  0  0  0  0  0  0
   -1.2458   17.3091  -31.2171 H   0  0  0  0  0  0  0  0  0  0  0  0
    0.8214   19.0669  -32.5639 H   0  0  0  0  0  0  0  0  0  0  0  0
   -0.9538   19.3397  -32.2769 H   0  0  0  0  0  0  0  0  0  0  0  0
    1.3922   19.9124  -30.5055 H   0  0  0  0  0  0  0  0  0  0  0  0
   -0.1844   20.7693  -30.6805 H   0  0  0  0  0  0  0  0  0  0  0  0
    1.1816   22.7440  -27.8132 H   0  0  0  0  0  0  0  0  0  0  0  0
    0.3795   25.0401  -28.3619 H   0  0  0  0  0  0  0  0  0  0  0  0
   -5.6809   20.9968  -31.0543 H   0  0  0  0  0  0  0  0  0  0  0  0
   -6.2161   20.5646  -33.8179 H   0  0  0  0  0  0  0  0  0  0  0  0
   -7.9804   20.3159  -34.1990 H   0  0  0  0  0  0  0  0  0  0  0  0
   -6.7612   21.1129  -31.5191 H   0  0  0  0  0  0  0  0  0  0  0  0
   -7.8091   22.1080  -32.6209 H   0  0  0  0  0  0  0  0  0  0  0  0
  1  2  1  0
  2  3  1  0
  3  4  1  0
  4  5  1  0
  5  6  1  0
  6  7  2  0
  6  8  2  0
  6  9  1  0
  9 10  2  0
 10 11  1  0
 11 12  2  0
 12 13  1  0
 13 14  1  0
 14 15  2  0
 14 16  1  0
 16 17  1  0
 17 18  2  0
 18 19  1  0
 19 20  1  0
 20 21  2  0
 20 22  2  0
 20 23  1  0
 23 24  1  0
 24 25  1  0
 25 26  1  0
 26 27  1  0
 27 28  1  0
 19 29  2  0
 29 30  1  0
 30 31  2  0
 31 32  1  0
 13 33  2  0
  5 34  1  0
 34 35  1  0
 35  2  1  0
 33  9  1  0
 31 17  1  0
 28 23  1  0
  1 36  1  0
  1 37  1  0
  1 38  1  0
  2 39  1  0
  3 40  1  0
  3 41  1  0
  4 42  1  0
  4 43  1  0
 10 44  1  0
 11 45  1  0
 12 46  1  0
 18 47  1  0
 24 48  1  0
 24 49  1  0
 25 50  1  0
 25 51  1  0
 26 52  1  0
 26 53  1  0
 27 54  1  0
 27 55  1  0
 28 56  1  0
 28 57  1  0
 29 58  1  0
 30 59  1  0
 33 60  1  0
 34 61  1  0
 34 62  1  0
 35 63  1  0
 35 64  1  0
M  CHG  2  16  -1  32  -1
M  END
>  <UniqueID>  (28) 
28

>  <SMILES>  (28) 
CC1CCN(S(=O)(=O)c2cccc(C(=O)[N-]c3cc(S(=O)(=O)N4CCCCC4)ccc3[O-])c2)CC1

>  <Energy>  (28) 
76.3428346073992

>  <Genealogy>  (28) 
CC1CCN(S(=O)(=O)c2cccc(C(=O)[N-]c3cc(S(=O)(=O)N4CCCCC4)ccc3[O-])c2)CC1 (protonated)
CC1CCN(S(=O)(=O)c2cccc(C(=O)[N-]c3cc(S(=O)(=O)N4CCCCC4)ccc3[O-])c2)CC1 (3D coordinates assigned)
CC1CCN(S(=O)(=O)c2cccc(C(=O)[N-]c3cc(S(=O)(=O)N4CCCCC4)ccc3[O-])c2)CC1 (nonaromatic ring conformer: 76.3428346073992 kcal/mol)

>  <smiles>  (28) 
CC1CCN(S(=O)(=O)c2cccc(C(=O)Nc3cc(S(=O)(=O)N4CCCCC4)ccc3O)c2)CC1

>  <score_type>  (28) 
oracle

>  <origin>  (28) 
adgpu

>  <m_score__min__energy>  (28) 
-16.129999999999999

>  <m_primary>  (28) 
energy

$$$$
28:0
     RDKit          3D

 55 58  0  0  0  0  0  0  0  0999 V2000
   -3.9430   25.1690  -30.4530 N   0  0  0  0  0  0  0  0  0  0  0  0
   -4.2810   23.5530  -29.9370 S   0  0  0  0  0  0  0  0  0  0  0  0
   -4.0210   23.4320  -28.4610 O   0  0  0  0  0  0  0  0  0  0  0  0
   -5.7270   23.2330  -30.2010 O   0  0  0  0  0  0  0  0  0  0  0  0
   -3.2510   22.4330  -30.8210 C   0  0  0  0  0  0  0  0  0  0  0  0
   -1.8640   22.6000  -30.8140 C   0  0  0  0  0  0  0  0  0  0  0  0
   -1.0510   21.7270  -31.5350 C   0  0  0  0  0  0  0  0  0  0  0  0
   -1.6040   20.6670  -32.2740 C   0  0  0  0  0  0  0  0  0  0  0  0
   -0.4860   19.6210  -33.1740 S   0  0  0  0  0  0  0  0  0  0  0  0
   -1.2620   18.6010  -33.9590 O   0  0  0  0  0  0  0  0  0  0  0  0
    0.4030   18.8950  -32.2060 O   0  0  0  0  0  0  0  0  0  0  0  0
    0.4830   20.5660  -34.3020 C   0  0  0  0  0  0  0  0  0  0  0  0
    1.8820   20.4850  -34.2600 C   0  0  0  0  0  0  0  0  0  0  0  0
    2.6590   21.2710  -35.1140 C   0  0  0  0  0  0  0  0  0  0  0  0
    2.0480   22.1620  -36.0040 C   0  0  0  0  0  0  0  0  0  0  0  0
    2.8690   22.9880  -36.8400 N   0  0  0  0  0  0  0  0  0  0  0  0
    2.9260   24.4210  -36.7860 C   0  0  0  0  0  0  0  0  0  0  0  0
    4.0440   24.9740  -36.6140 O   0  0  0  0  0  0  0  0  0  0  0  0
    1.7070   25.2590  -36.8850 C   0  0  0  0  0  0  0  0  0  0  0  0
    1.2070   25.6630  -38.1390 C   0  0  0  0  0  0  0  0  0  0  0  0
    0.0570   26.4530  -38.2210 C   0  0  0  0  0  0  0  0  0  0  0  0
   -0.6100   26.8430  -37.0580 C   0  0  0  0  0  0  0  0  0  0  0  0
   -0.1290   26.4400  -35.8090 C   0  0  0  0  0  0  0  0  0  0  0  0
    1.0210   25.6490  -35.7210 C   0  0  0  0  0  0  0  0  0  0  0  0
    0.6460   22.2120  -36.0760 C   0  0  0  0  0  0  0  0  0  0  0  0
   -0.1310   21.4190  -35.2300 C   0  0  0  0  0  0  0  0  0  0  0  0
   -3.0120   20.4720  -32.2570 C   0  0  0  0  0  0  0  0  0  0  0  0
   -3.8290   19.1430  -33.1110 S   0  0  0  0  0  0  0  0  0  0  0  0
   -3.3130   17.8020  -32.6760 O   0  0  0  0  0  0  0  0  0  0  0  0
   -3.6030   19.3000  -34.5900 O   0  0  0  0  0  0  0  0  0  0  0  0
   -5.5570   19.1600  -32.7610 C   0  0  0  0  0  0  0  0  0  0  0  0
   -6.1320   18.0810  -32.0720 C   0  0  0  0  0  0  0  0  0  0  0  0
   -7.4950   18.0930  -31.7630 C   0  0  0  0  0  0  0  0  0  0  0  0
   -8.2890   19.1800  -32.1390 C   0  0  0  0  0  0  0  0  0  0  0  0
   -7.7200   20.2590  -32.8220 C   0  0  0  0  0  0  0  0  0  0  0  0
   -6.3570   20.2510  -33.1310 C   0  0  0  0  0  0  0  0  0  0  0  0
   -3.8170   21.3830  -31.5500 C   0  0  0  0  0  0  0  0  0  0  0  0
   -3.5160   25.6660  -29.6400 H   0  0  0  0  0  0  0  0  0  0  0  0
   -1.4128   23.4218  -30.2386 H   0  0  0  0  0  0  0  0  0  0  0  0
    0.0397   21.8698  -31.5255 H   0  0  0  0  0  0  0  0  0  0  0  0
    2.3698   19.7995  -33.5514 H   0  0  0  0  0  0  0  0  0  0  0  0
    3.7556   21.1895  -35.0870 H   0  0  0  0  0  0  0  0  0  0  0  0
    1.7250   25.3547  -39.0591 H   0  0  0  0  0  0  0  0  0  0  0  0
   -0.3234   26.7682  -39.2038 H   0  0  0  0  0  0  0  0  0  0  0  0
   -1.5134   27.4670  -37.1246 H   0  0  0  0  0  0  0  0  0  0  0  0
   -0.6562   26.7457  -34.8932 H   0  0  0  0  0  0  0  0  0  0  0  0
    1.3911   25.3300  -34.7355 H   0  0  0  0  0  0  0  0  0  0  0  0
    0.1584   22.8790  -36.8022 H   0  0  0  0  0  0  0  0  0  0  0  0
   -1.2284   21.4634  -35.2915 H   0  0  0  0  0  0  0  0  0  0  0  0
   -5.5090   17.2246  -31.7747 H   0  0  0  0  0  0  0  0  0  0  0  0
   -7.9434   17.2459  -31.2232 H   0  0  0  0  0  0  0  0  0  0  0  0
   -9.3621   19.1865  -31.8974 H   0  0  0  0  0  0  0  0  0  0  0  0
   -8.3454   21.1147  -33.1163 H   0  0  0  0  0  0  0  0  0  0  0  0
   -5.9106   21.1024  -33.6657 H   0  0  0  0  0  0  0  0  0  0  0  0
   -4.9107   21.2674  -31.5710 H   0  0  0  0  0  0  0  0  0  0  0  0
  1  2  1  0
  2  3  2  0
  2  4  2  0
  2  5  1  0
  5  6  2  0
  6  7  1  0
  7  8  2  0
  8  9  1  0
  9 10  2  0
  9 11  2  0
  9 12  1  0
 12 13  2  0
 13 14  1  0
 14 15  2  0
 15 16  1  0
 16 17  1  0
 17 18  2  0
 17 19  1  0
 19 20  2  0
 20 21  1  0
 21 22  2  0
 22 23  1  0
 23 24  2  0
 15 25  1  0
 25 26  2  0
  8 27  1  0
 27 28  1  0
 28 29  2  0
 28 30  2  0
 28 31  1  0
 31 32  2  0
 32 33  1  0
 33 34  2  0
 34 35  1  0
 35 36  2  0
 27 37  2  0
 37  5  1  0
 26 12  1  0
 36 31  1  0
 24 19  1  0
  1 38  1  0
  6 39  1  0
  7 40  1  0
 13 41  1  0
 14 42  1  0
 20 43  1  0
 21 44  1  0
 22 45  1  0
 23 46  1  0
 24 47  1  0
 25 48  1  0
 26 49  1  0
 32 50  1  0
 33 51  1  0
 34 52  1  0
 35 53  1  0
 36 54  1  0
 37 55  1  0
M  CHG  2   1  -1  16  -1
M  END
>  <UniqueID>  (29) 
29

>  <SMILES>  (29) 
[NH-]S(=O)(=O)c1ccc(S(=O)(=O)c2ccc([N-]C(=O)c3ccccc3)cc2)c(S(=O)(=O)c2ccccc2)c1

>  <Energy>  (29) 
72.17067822488472

>  <Genealogy>  (29) 
[NH-]S(=O)(=O)c1ccc(S(=O)(=O)c2ccc([N-]C(=O)c3ccccc3)cc2)c(S(=O)(=O)c2ccccc2)c1 (protonated)
[NH-]S(=O)(=O)c1ccc(S(=O)(=O)c2ccc([N-]C(=O)c3ccccc3)cc2)c(S(=O)(=O)c2ccccc2)c1 (3D coordinates assigned)
[NH-]S(=O)(=O)c1ccc(S(=O)(=O)c2ccc([N-]C(=O)c3ccccc3)cc2)c(S(=O)(=O)c2ccccc2)c1 (optimized conformer: 72.17067822488472 kcal/mol)

>  <smiles>  (29) 
NS(=O)(=O)c1ccc(S(=O)(=O)c2ccc(NC(=O)c3ccccc3)cc2)c(S(=O)(=O)c2ccccc2)c1

>  <score_type>  (29) 
oracle

>  <origin>  (29) 
adgpu

>  <m_score__min__energy>  (29) 
-12.779999999999999

>  <m_primary>  (29) 
energy

$$$$
29:0
     RDKit          3D

 40 43  0  0  0  0  0  0  0  0999 V2000
   -9.5090   18.9630  -32.7260 C   0  0  0  0  0  0  0  0  0  0  0  0
   -8.6030   20.0860  -32.3480 C   0  0  0  0  0  0  0  0  0  0  0  0
   -7.2730   20.0850  -32.6090 N   0  0  0  0  0  0  0  0  0  0  0  0
   -6.6800   21.1980  -32.1060 C   0  0  0  0  0  0  0  0  0  0  0  0
   -5.3210   21.4870  -32.2220 C   0  0  0  0  0  0  0  0  0  0  0  0
   -4.8320   22.6750  -31.6480 C   0  0  0  0  0  0  0  0  0  0  0  0
   -5.7010   23.5560  -30.9620 C   0  0  0  0  0  0  0  0  0  0  0  0
   -5.0530   25.0370  -30.2590 S   0  0  0  0  0  0  0  0  0  0  0  0
   -6.1860   25.9980  -30.0370 O   0  0  0  0  0  0  0  0  0  0  0  0
   -4.0410   25.6800  -31.1670 O   0  0  0  0  0  0  0  0  0  0  0  0
   -4.3140   24.6710  -28.7340 N   0  0  0  0  0  0  0  0  0  0  0  0
   -3.1590   23.8360  -28.5570 C   0  0  0  0  0  0  0  0  0  0  0  0
   -3.2630   22.5130  -28.0860 C   0  0  0  0  0  0  0  0  0  0  0  0
   -2.1140   21.7260  -27.9130 C   0  0  0  0  0  0  0  0  0  0  0  0
   -0.8470   22.2530  -28.2400 C   0  0  0  0  0  0  0  0  0  0  0  0
   -0.7470   23.5700  -28.7100 C   0  0  0  0  0  0  0  0  0  0  0  0
   -1.8950   24.3540  -28.8730 C   0  0  0  0  0  0  0  0  0  0  0  0
   -1.7730   25.6580  -29.3430 O   0  0  0  0  0  0  0  0  0  0  0  0
    0.4010   21.4300  -28.0250 C   0  0  0  0  0  0  0  0  0  0  0  0
    0.1020   19.9260  -28.0740 C   0  0  0  0  0  0  0  0  0  0  0  0
   -1.0440   19.5830  -27.1170 C   0  0  0  0  0  0  0  0  0  0  0  0
   -2.2300   20.3720  -27.4470 N   0  0  0  0  0  0  0  0  0  0  0  0
   -7.0710   23.2490  -30.8550 C   0  0  0  0  0  0  0  0  0  0  0  0
   -7.5280   22.0690  -31.4380 C   0  0  0  0  0  0  0  0  0  0  0  0
   -9.0870   21.4500  -31.4650 S   0  0  0  0  0  0  0  0  0  0  0  0
   -9.8967   18.4824  -31.8157 H   0  0  0  0  0  0  0  0  0  0  0  0
  -10.3482   19.3532  -33.3205 H   0  0  0  0  0  0  0  0  0  0  0  0
   -8.9502   18.2253  -33.3205 H   0  0  0  0  0  0  0  0  0  0  0  0
   -4.6446   20.8000  -32.7517 H   0  0  0  0  0  0  0  0  0  0  0  0
   -3.7633   22.9213  -31.7335 H   0  0  0  0  0  0  0  0  0  0  0  0
   -4.2524   22.0932  -27.8519 H   0  0  0  0  0  0  0  0  0  0  0  0
    0.2403   23.9901  -28.9523 H   0  0  0  0  0  0  0  0  0  0  0  0
    1.1298   21.6748  -28.8117 H   0  0  0  0  0  0  0  0  0  0  0  0
    0.8026   21.6684  -27.0291 H   0  0  0  0  0  0  0  0  0  0  0  0
   -0.1839   19.6456  -29.0985 H   0  0  0  0  0  0  0  0  0  0  0  0
    1.0018   19.3711  -27.7700 H   0  0  0  0  0  0  0  0  0  0  0  0
   -1.2832   18.5130  -27.2052 H   0  0  0  0  0  0  0  0  0  0  0  0
   -0.7336   19.8145  -26.0874 H   0  0  0  0  0  0  0  0  0  0  0  0
   -3.1760   19.9470  -27.2980 H   0  0  0  0  0  0  0  0  0  0  0  0
   -7.7614   23.9222  -30.3257 H   0  0  0  0  0  0  0  0  0  0  0  0
  1  2  1  0
  2  3  2  0
  3  4  1  0
  4  5  2  0
  5  6  1  0
  6  7  2  0
  7  8  1  0
  8  9  2  0
  8 10  2  0
  8 11  1  0
 11 12  1  0
 12 13  2  0
 13 14  1  0
 14 15  2  0
 15 16  1  0
 16 17  2  0
 17 18  1  0
 15 19  1  0
 19 20  1  0
 20 21  1  0
 21 22  1  0
  7 23  1  0
 23 24  2  0
 24 25  1  0
 25  2  1  0
 24  4  1  0
 17 12  1  0
 22 14  1  0
  1 26  1  0
  1 27  1  0
  1 28  1  0
  5 29  1  0
  6 30  1  0
 13 31  1  0
 16 32  1  0
 19 33  1  0
 19 34  1  0
 20 35  1  0
 20 36  1  0
 21 37  1  0
 21 38  1  0
 22 39  1  0
 23 40  1  0
M  CHG  2  11  -1  18  -1
M  END
>  <UniqueID>  (30) 
30

>  <SMILES>  (30) 
Cc1nc2ccc(S(=O)(=O)[N-]c3cc4c(cc3[O-])CCCN4)cc2s1

>  <Energy>  (30) 
78.0923091061241

>  <Genealogy>  (30) 
Cc1nc2ccc(S(=O)(=O)[N-]c3cc4c(cc3[O-])CCCN4)cc2s1 (protonated)
Cc1nc2ccc(S(=O)(=O)[N-]c3cc4c(cc3[O-])CCCN4)cc2s1 (3D coordinates assigned)
Cc1nc2ccc(S(=O)(=O)[N-]c3cc4c(cc3[O-])CCCN4)cc2s1 (nonaromatic ring conformer: 78.0923091061241 kcal/mol)

>  <smiles>  (30) 
Cc1nc2ccc(S(=O)(=O)Nc3cc4c(cc3O)CCCN4)cc2s1

>  <score_type>  (30) 
oracle

>  <origin>  (30) 
adgpu

>  <m_score__min__energy>  (30) 
-13.970000000000001

>  <m_primary>  (30) 
energy

$$$$
30:0
     RDKit          3D

 42 44  0  0  0  0  0  0  0  0999 V2000
   -1.3940   22.3010  -30.8030 C   0  0  0  0  0  0  0  0  0  0  0  0
   -2.0090   22.3530  -29.4790 N   0  0  0  0  0  0  0  0  0  0  0  0
   -2.1450   21.2930  -28.6580 C   0  0  0  0  0  0  0  0  0  0  0  0
   -2.7090   21.6890  -27.4630 C   0  0  0  0  0  0  0  0  0  0  0  0
   -2.9310   23.0470  -27.5600 C   0  0  0  0  0  0  0  0  0  0  0  0
   -2.5110   23.4260  -28.8220 C   0  0  0  0  0  0  0  0  0  0  0  0
   -2.5920   24.8110  -29.3380 C   0  0  0  0  0  0  0  0  0  0  0  0
   -1.7540   25.6600  -28.9330 O   0  0  0  0  0  0  0  0  0  0  0  0
   -3.5880   25.2230  -30.2830 N   0  0  0  0  0  0  0  0  0  0  0  0
   -4.7900   24.5100  -30.6050 C   0  0  0  0  0  0  0  0  0  0  0  0
   -4.7020   23.4070  -31.4630 C   0  0  0  0  0  0  0  0  0  0  0  0
   -5.8330   22.6400  -31.7470 C   0  0  0  0  0  0  0  0  0  0  0  0
   -7.0730   22.9760  -31.1880 C   0  0  0  0  0  0  0  0  0  0  0  0
   -8.4910   21.9670  -31.4940 S   0  0  0  0  0  0  0  0  0  0  0  0
   -9.4720   22.7410  -32.3310 O   0  0  0  0  0  0  0  0  0  0  0  0
   -9.1520   21.6400  -30.1850 O   0  0  0  0  0  0  0  0  0  0  0  0
   -8.0890   20.4790  -32.3170 N   0  0  0  0  0  0  0  0  0  0  0  0
   -9.1150   19.4540  -32.1320 C   0  0  0  0  0  0  0  0  0  0  0  0
   -8.4190   18.1130  -32.3020 C   0  0  0  0  0  0  0  0  0  0  0  0
   -6.9390   18.3970  -32.0940 C   0  0  0  0  0  0  0  0  0  0  0  0
   -6.8510   19.8890  -31.8120 C   0  0  0  0  0  0  0  0  0  0  0  0
   -7.1800   24.1210  -30.3890 C   0  0  0  0  0  0  0  0  0  0  0  0
   -6.0490   24.8990  -30.1040 C   0  0  0  0  0  0  0  0  0  0  0  0
   -6.1810   26.0600  -29.3440 O   0  0  0  0  0  0  0  0  0  0  0  0
   -0.3030   22.2088  -30.6971 H   0  0  0  0  0  0  0  0  0  0  0  0
   -1.7836   21.4326  -31.3544 H   0  0  0  0  0  0  0  0  0  0  0  0
   -1.6323   23.2225  -31.3544 H   0  0  0  0  0  0  0  0  0  0  0  0
   -1.8495   20.2626  -28.9047 H   0  0  0  0  0  0  0  0  0  0  0  0
   -2.9374   21.0464  -26.6000 H   0  0  0  0  0  0  0  0  0  0  0  0
   -3.3584   23.7005  -26.7853 H   0  0  0  0  0  0  0  0  0  0  0  0
   -3.7351   23.1432  -31.9163 H   0  0  0  0  0  0  0  0  0  0  0  0
   -5.7505   21.7681  -32.4125 H   0  0  0  0  0  0  0  0  0  0  0  0
   -9.5520   19.5307  -31.1255 H   0  0  0  0  0  0  0  0  0  0  0  0
   -9.9328   19.5733  -32.8580 H   0  0  0  0  0  0  0  0  0  0  0  0
   -8.7818   17.3934  -31.5533 H   0  0  0  0  0  0  0  0  0  0  0  0
   -8.6161   17.6721  -33.2903 H   0  0  0  0  0  0  0  0  0  0  0  0
   -6.5525   17.8204  -31.2407 H   0  0  0  0  0  0  0  0  0  0  0  0
   -6.3397   18.1098  -32.9706 H   0  0  0  0  0  0  0  0  0  0  0  0
   -6.7586   20.0668  -30.7304 H   0  0  0  0  0  0  0  0  0  0  0  0
   -5.9703   20.3349  -32.2972 H   0  0  0  0  0  0  0  0  0  0  0  0
   -8.1594   24.4124  -29.9817 H   0  0  0  0  0  0  0  0  0  0  0  0
   -5.4110   26.4280  -28.7970 H   0  0  0  0  0  0  0  0  0  0  0  0
  1  2  1  0
  2  3  1  0
  3  4  2  0
  4  5  1  0
  5  6  2  0
  6  7  1  0
  7  8  2  0
  7  9  1  0
  9 10  1  0
 10 11  2  0
 11 12  1  0
 12 13  2  0
 13 14  1  0
 14 15  2  0
 14 16  2  0
 14 17  1  0
 17 18  1  0
 18 19  1  0
 19 20  1  0
 20 21  1  0
 13 22  1  0
 22 23  2  0
 23 24  1  0
  6  2  1  0
 23 10  1  0
 21 17  1  0
  1 25  1  0
  1 26  1  0
  1 27  1  0
  3 28  1  0
  4 29  1  0
  5 30  1  0
 11 31  1  0
 12 32  1  0
 18 33  1  0
 18 34  1  0
 19 35  1  0
 19 36  1  0
 20 37  1  0
 20 38  1  0
 21 39  1  0
 21 40  1  0
 22 41  1  0
 24 42  1  0
M  CHG  1   9  -1
M  END
>  <UniqueID>  (31) 
31

>  <SMILES>  (31) 
Cn1cccc1C(=O)[N-]c1ccc(S(=O)(=O)N2CCCC2)cc1O

>  <Energy>  (31) 
77.10214345745129

>  <Genealogy>  (31) 
Cn1cccc1C(=O)[N-]c1ccc(S(=O)(=O)N2CCCC2)cc1O (protonated)
Cn1cccc1C(=O)[N-]c1ccc(S(=O)(=O)N2CCCC2)cc1O (3D coordinates assigned)
Cn1cccc1C(=O)[N-]c1ccc(S(=O)(=O)N2CCCC2)cc1O (nonaromatic ring conformer: 77.10214345745129 kcal/mol)

>  <smiles>  (31) 
Cn1cccc1C(=O)Nc1ccc(S(=O)(=O)N2CCCC2)cc1O

>  <score_type>  (31) 
oracle

>  <origin>  (31) 
adgpu

>  <m_score__min__energy>  (31) 
-10.539999999999999

>  <m_primary>  (31) 
energy

$$$$
31:0
     RDKit          3D

 40 43  0  0  0  0  0  0  0  0999 V2000
   -7.6220   19.1420  -33.1680 O   0  0  0  0  0  0  0  0  0  0  0  0
   -6.5440   19.7270  -32.8820 C   0  0  0  0  0  0  0  0  0  0  0  0
   -6.4360   21.0360  -32.2460 C   0  0  0  0  0  0  0  0  0  0  0  0
   -7.4200   21.9320  -31.8400 C   0  0  0  0  0  0  0  0  0  0  0  0
   -7.0110   23.1290  -31.2260 C   0  0  0  0  0  0  0  0  0  0  0  0
   -5.6370   23.4070  -31.0310 C   0  0  0  0  0  0  0  0  0  0  0  0
   -5.1610   24.9060  -30.2410 S   0  0  0  0  0  0  0  0  0  0  0  0
   -6.3880   25.7430  -30.0120 O   0  0  0  0  0  0  0  0  0  0  0  0
   -4.2000   25.6840  -31.0970 O   0  0  0  0  0  0  0  0  0  0  0  0
   -4.4160   24.5540  -28.7150 N   0  0  0  0  0  0  0  0  0  0  0  0
   -3.2210   23.7790  -28.5360 C   0  0  0  0  0  0  0  0  0  0  0  0
   -3.2550   22.4550  -28.0580 C   0  0  0  0  0  0  0  0  0  0  0  0
   -2.0680   21.7340  -27.8920 C   0  0  0  0  0  0  0  0  0  0  0  0
   -0.8400   22.3240  -28.2030 C   0  0  0  0  0  0  0  0  0  0  0  0
   -0.7960   23.6360  -28.6790 C   0  0  0  0  0  0  0  0  0  0  0  0
   -1.9810   24.3620  -28.8490 C   0  0  0  0  0  0  0  0  0  0  0  0
   -1.9240   25.6660  -29.3310 O   0  0  0  0  0  0  0  0  0  0  0  0
   -4.6640   22.4780  -31.4510 C   0  0  0  0  0  0  0  0  0  0  0  0
   -5.0970   21.2980  -32.0520 C   0  0  0  0  0  0  0  0  0  0  0  0
   -4.3420   20.1600  -32.5650 C   0  0  0  0  0  0  0  0  0  0  0  0
   -3.0860   20.0700  -32.5950 O   0  0  0  0  0  0  0  0  0  0  0  0
   -5.2400   19.1710  -33.0850 N   0  0  0  0  0  0  0  0  0  0  0  0
   -4.9020   17.9190  -33.7060 C   0  0  0  0  0  0  0  0  0  0  0  0
   -3.6660   17.7560  -34.3570 C   0  0  0  0  0  0  0  0  0  0  0  0
   -3.3420   16.5400  -34.9630 C   0  0  0  0  0  0  0  0  0  0  0  0
   -4.2460   15.4740  -34.9290 C   0  0  0  0  0  0  0  0  0  0  0  0
   -3.9120   14.2700  -35.5390 O   0  0  0  0  0  0  0  0  0  0  0  0
   -5.4810   15.6250  -34.2830 C   0  0  0  0  0  0  0  0  0  0  0  0
   -6.6310   14.2990  -34.2340 Cl  0  0  0  0  0  0  0  0  0  0  0  0
   -5.8050   16.8430  -33.6730 C   0  0  0  0  0  0  0  0  0  0  0  0
   -8.4863   21.7105  -31.9948 H   0  0  0  0  0  0  0  0  0  0  0  0
   -7.7663   23.8565  -30.8940 H   0  0  0  0  0  0  0  0  0  0  0  0
   -4.2194   21.9856  -27.8140 H   0  0  0  0  0  0  0  0  0  0  0  0
   -2.1012   20.7008  -27.5160 H   0  0  0  0  0  0  0  0  0  0  0  0
    0.0922   21.7547  -28.0728 H   0  0  0  0  0  0  0  0  0  0  0  0
    0.1716   24.1000  -28.9209 H   0  0  0  0  0  0  0  0  0  0  0  0
   -3.5920   22.6790  -31.3082 H   0  0  0  0  0  0  0  0  0  0  0  0
   -2.9505   18.5909  -34.3891 H   0  0  0  0  0  0  0  0  0  0  0  0
   -2.3724   16.4207  -35.4687 H   0  0  0  0  0  0  0  0  0  0  0  0
   -6.7735   16.9583  -33.1643 H   0  0  0  0  0  0  0  0  0  0  0  0
  1  2  2  0
  2  3  1  0
  3  4  2  0
  4  5  1  0
  5  6  2  0
  6  7  1  0
  7  8  2  0
  7  9  2  0
  7 10  1  0
 10 11  1  0
 11 12  2  0
 12 13  1  0
 13 14  2  0
 14 15  1  0
 15 16  2  0
 16 17  1  0
  6 18  1  0
 18 19  2  0
 19 20  1  0
 20 21  2  0
 20 22  1  0
 22 23  1  0
 23 24  2  0
 24 25  1  0
 25 26  2  0
 26 27  1  0
 26 28  1  0
 28 29  1  0
 28 30  2  0
 22  2  1  0
 30 23  1  0
 19  3  1  0
 16 11  1  0
  4 31  1  0
  5 32  1  0
 12 33  1  0
 13 34  1  0
 14 35  1  0
 15 36  1  0
 18 37  1  0
 24 38  1  0
 25 39  1  0
 30 40  1  0
M  CHG  3  10  -1  17  -1  27  -1
M  END
>  <UniqueID>  (32) 
32

>  <SMILES>  (32) 
O=C1c2ccc(S(=O)(=O)[N-]c3ccccc3[O-])cc2C(=O)N1c1ccc([O-])c(Cl)c1

>  <Energy>  (32) 
85.83012094312883

>  <Genealogy>  (32) 
O=C1c2ccc(S(=O)(=O)[N-]c3ccccc3[O-])cc2C(=O)N1c1ccc([O-])c(Cl)c1 (protonated)
O=C1c2ccc(S(=O)(=O)[N-]c3ccccc3[O-])cc2C(=O)N1c1ccc([O-])c(Cl)c1 (3D coordinates assigned)
O=C1c2ccc(S(=O)(=O)[N-]c3ccccc3[O-])cc2C(=O)N1c1ccc([O-])c(Cl)c1 (nonaromatic ring conformer: 85.83012094312883 kcal/mol)

>  <smiles>  (32) 
O=C1c2ccc(S(=O)(=O)Nc3ccccc3O)cc2C(=O)N1c1ccc(O)c(Cl)c1

>  <score_type>  (32) 
oracle

>  <origin>  (32) 
adgpu

>  <m_score__min__energy>  (32) 
-14.69

>  <m_primary>  (32) 
energy

$$$$
32:0
     RDKit          3D

 39 41  0  0  0  0  0  0  0  0999 V2000
   -3.1600   21.4850  -33.4670 C   0  0  0  0  0  0  0  0  0  0  0  0
   -3.3000   20.3720  -32.5190 N   0  0  0  0  0  0  0  0  0  0  0  0
   -2.0520   19.6010  -32.4370 C   0  0  0  0  0  0  0  0  0  0  0  0
   -4.6220   19.3340  -32.9950 S   0  0  0  0  0  0  0  0  0  0  0  0
   -4.4630   17.9880  -32.3420 O   0  0  0  0  0  0  0  0  0  0  0  0
   -4.5920   19.1340  -34.4850 O   0  0  0  0  0  0  0  0  0  0  0  0
   -6.1790   20.0230  -32.5320 C   0  0  0  0  0  0  0  0  0  0  0  0
   -7.3590   19.2930  -32.7260 C   0  0  0  0  0  0  0  0  0  0  0  0
   -8.5930   19.8440  -32.3710 C   0  0  0  0  0  0  0  0  0  0  0  0
   -8.6560   21.1250  -31.8140 C   0  0  0  0  0  0  0  0  0  0  0  0
   -9.8910   21.6650  -31.4720 O   0  0  0  0  0  0  0  0  0  0  0  0
   -7.4770   21.8570  -31.6060 C   0  0  0  0  0  0  0  0  0  0  0  0
   -7.5340   23.5020  -30.8810 S   0  0  0  0  0  0  0  0  0  0  0  0
   -6.1530   24.1680  -31.8740 C   0  0  0  0  0  0  0  0  0  0  0  0
   -4.8630   24.0630  -31.1260 C   0  0  0  0  0  0  0  0  0  0  0  0
   -4.1390   22.9110  -31.0700 N   0  0  0  0  0  0  0  0  0  0  0  0
   -3.0650   23.2910  -30.3650 C   0  0  0  0  0  0  0  0  0  0  0  0
   -1.9540   22.5520  -29.9850 C   0  0  0  0  0  0  0  0  0  0  0  0
   -1.8420   21.3340  -30.2830 O   0  0  0  0  0  0  0  0  0  0  0  0
   -0.9780   23.1900  -29.2740 N   0  0  0  0  0  0  0  0  0  0  0  0
   -1.0880   24.5180  -28.9470 C   0  0  0  0  0  0  0  0  0  0  0  0
   -0.1440   25.0900  -28.2730 N   0  0  0  0  0  0  0  0  0  0  0  0
   -2.1890   25.2350  -29.3320 N   0  0  0  0  0  0  0  0  0  0  0  0
   -3.1560   24.5960  -30.0340 C   0  0  0  0  0  0  0  0  0  0  0  0
   -4.2890   25.1310  -30.5040 N   0  0  0  0  0  0  0  0  0  0  0  0
   -6.2430   21.3080  -31.9740 C   0  0  0  0  0  0  0  0  0  0  0  0
   -3.0415   22.4270  -32.9116 H   0  0  0  0  0  0  0  0  0  0  0  0
   -2.2757   21.3187  -34.0997 H   0  0  0  0  0  0  0  0  0  0  0  0
   -4.0579   21.5429  -34.0997 H   0  0  0  0  0  0  0  0  0  0  0  0
   -3.5170   20.7610  -31.5720 H   0  0  0  0  0  0  0  0  0  0  0  0
   -1.7898   19.4390  -31.3811 H   0  0  0  0  0  0  0  0  0  0  0  0
   -2.1880   18.6293  -32.9343 H   0  0  0  0  0  0  0  0  0  0  0  0
   -1.2439   20.1575  -32.9343 H   0  0  0  0  0  0  0  0  0  0  0  0
   -7.3138   18.2829  -33.1592 H   0  0  0  0  0  0  0  0  0  0  0  0
   -9.5170   19.2687  -32.5301 H   0  0  0  0  0  0  0  0  0  0  0  0
   -6.0742   23.5971  -32.8109 H   0  0  0  0  0  0  0  0  0  0  0  0
   -6.3515   25.2286  -32.0878 H   0  0  0  0  0  0  0  0  0  0  0  0
   -0.1970   26.0990  -28.0100 H   0  0  0  0  0  0  0  0  0  0  0  0
   -5.3197   21.8870  -31.8249 H   0  0  0  0  0  0  0  0  0  0  0  0
  1  2  1  0
  2  3  1  0
  2  4  1  0
  4  5  2  0
  4  6  2  0
  4  7  1  0
  7  8  2  0
  8  9  1  0
  9 10  2  0
 10 11  1  0
 10 12  1  0
 12 13  1  0
 13 14  1  0
 14 15  1  0
 15 16  2  0
 16 17  1  0
 17 18  1  0
 18 19  2  0
 18 20  1  0
 20 21  1  0
 21 22  2  3
 21 23  1  0
 23 24  1  0
 24 25  1  0
 12 26  2  0
 26  7  1  0
 25 15  1  0
 24 17  2  0
  1 27  1  0
  1 28  1  0
  1 29  1  0
  2 30  1  0
  3 31  1  0
  3 32  1  0
  3 33  1  0
  8 34  1  0
  9 35  1  0
 14 36  1  0
 14 37  1  0
 22 38  1  0
 26 39  1  0
M  CHG  5   2   1  11  -1  20  -1  23  -1  25  -1
M  END
>  <UniqueID>  (33) 
33

>  <SMILES>  (33) 
C[NH+](C)S(=O)(=O)c1ccc([O-])c(SCc2nc3c(=O)[n-]c(=N)[n-]c3[n-]2)c1

>  <Energy>  (33) 
70.99025250281034

>  <Genealogy>  (33) 
C[NH+](C)S(=O)(=O)c1ccc([O-])c(SCc2nc3c(=O)[n-]c(=N)[n-]c3[n-]2)c1 (protonated)
C[NH+](C)S(=O)(=O)c1ccc([O-])c(SCc2nc3c(=O)[n-]c(=N)[n-]c3[n-]2)c1 (3D coordinates assigned)
C[NH+](C)S(=O)(=O)c1ccc([O-])c(SCc2nc3c(=O)[n-]c(=N)[n-]c3[n-]2)c1 (optimized conformer: 70.99025250281034 kcal/mol)

>  <smiles>  (33) 
CN(C)S(=O)(=O)c1ccc(O)c(SCc2nc3c(=O)[nH]c(=N)[nH]c3[nH]2)c1

>  <score_type>  (33) 
oracle

>  <origin>  (33) 
adgpu

>  <m_score__min__energy>  (33) 
-10.91

>  <m_primary>  (33) 
energy

$$$$
33:0
     RDKit          3D

 37 39  0  0  0  0  0  0  0  0999 V2000
   -9.1270   21.8790  -29.9880 O   0  0  0  0  0  0  0  0  0  0  0  0
   -8.3780   22.0560  -31.2800 S   0  0  0  0  0  0  0  0  0  0  0  0
   -9.2810   22.7670  -32.2490 O   0  0  0  0  0  0  0  0  0  0  0  0
   -6.9250   23.0100  -31.0070 C   0  0  0  0  0  0  0  0  0  0  0  0
   -7.0220   24.3860  -30.7530 C   0  0  0  0  0  0  0  0  0  0  0  0
   -5.8660   25.1470  -30.5570 C   0  0  0  0  0  0  0  0  0  0  0  0
   -4.6080   24.5410  -30.6210 C   0  0  0  0  0  0  0  0  0  0  0  0
   -3.4600   25.2970  -30.4260 O   0  0  0  0  0  0  0  0  0  0  0  0
   -4.5060   23.1700  -30.8830 C   0  0  0  0  0  0  0  0  0  0  0  0
   -5.6620   22.4070  -31.0790 C   0  0  0  0  0  0  0  0  0  0  0  0
   -7.9180   20.4860  -31.9250 C   0  0  0  0  0  0  0  0  0  0  0  0
   -8.6460   19.3410  -31.5800 C   0  0  0  0  0  0  0  0  0  0  0  0
   -8.2910   18.0960  -32.1020 C   0  0  0  0  0  0  0  0  0  0  0  0
   -7.2030   17.9770  -32.9820 C   0  0  0  0  0  0  0  0  0  0  0  0
   -6.4810   19.1360  -33.3520 C   0  0  0  0  0  0  0  0  0  0  0  0
   -6.8400   20.3810  -32.8120 C   0  0  0  0  0  0  0  0  0  0  0  0
   -5.2890   19.0250  -34.2690 C   0  0  0  0  0  0  0  0  0  0  0  0
   -4.1830   18.1500  -33.6560 C   0  0  0  0  0  0  0  0  0  0  0  0
   -4.3520   16.7160  -33.9510 N   0  0  0  0  0  0  0  0  0  0  0  0
   -5.4330   16.1030  -33.1620 C   0  0  0  0  0  0  0  0  0  0  0  0
   -6.8410   16.6190  -33.5560 C   0  0  0  0  0  0  0  0  0  0  0  0
   -8.0101   24.8674  -30.7079 H   0  0  0  0  0  0  0  0  0  0  0  0
   -5.9464   26.2247  -30.3520 H   0  0  0  0  0  0  0  0  0  0  0  0
   -3.5165   22.6922  -30.9348 H   0  0  0  0  0  0  0  0  0  0  0  0
   -5.5794   21.3306  -31.2902 H   0  0  0  0  0  0  0  0  0  0  0  0
   -9.5021   19.4229  -30.8941 H   0  0  0  0  0  0  0  0  0  0  0  0
   -8.8674   17.2019  -31.8221 H   0  0  0  0  0  0  0  0  0  0  0  0
   -6.2702   21.2806  -33.0878 H   0  0  0  0  0  0  0  0  0  0  0  0
   -5.6113   18.5780  -35.2210 H   0  0  0  0  0  0  0  0  0  0  0  0
   -4.8813   20.0343  -34.4271 H   0  0  0  0  0  0  0  0  0  0  0  0
   -3.2132   18.4785  -34.0580 H   0  0  0  0  0  0  0  0  0  0  0  0
   -4.2370   18.2694  -32.5638 H   0  0  0  0  0  0  0  0  0  0  0  0
   -4.6090   16.6370  -34.9630 H   0  0  0  0  0  0  0  0  0  0  0  0
   -5.4038   15.0140  -33.3147 H   0  0  0  0  0  0  0  0  0  0  0  0
   -5.2663   16.3757  -32.1095 H   0  0  0  0  0  0  0  0  0  0  0  0
   -6.8861   16.6877  -34.6529 H   0  0  0  0  0  0  0  0  0  0  0  0
   -7.5628   15.9024  -33.1370 H   0  0  0  0  0  0  0  0  0  0  0  0
  1  2  2  0
  2  3  2  0
  2  4  1  0
  4  5  2  0
  5  6  1  0
  6  7  2  0
  7  8  1  0
  7  9  1  0
  9 10  2  0
  2 11  1  0
 11 12  2  0
 12 13  1  0
 13 14  2  0
 14 15  1  0
 15 16  2  0
 15 17  1  0
 17 18  1  0
 18 19  1  0
 19 20  1  0
 20 21  1  0
 10  4  1  0
 16 11  1  0
 21 14  1  0
  5 22  1  0
  6 23  1  0
  9 24  1  0
 10 25  1  0
 12 26  1  0
 13 27  1  0
 16 28  1  0
 17 29  1  0
 17 30  1  0
 18 31  1  0
 18 32  1  0
 19 33  1  0
 20 34  1  0
 20 35  1  0
 21 36  1  0
 21 37  1  0
M  CHG  1   8  -1
M  END
>  <UniqueID>  (34) 
34

>  <SMILES>  (34) 
O=S(=O)(c1ccc([O-])cc1)c1ccc2c(c1)CCNCC2

>  <Energy>  (34) 
49.36027116548999

>  <Genealogy>  (34) 
O=S(=O)(c1ccc([O-])cc1)c1ccc2c(c1)CCNCC2 (protonated)
O=S(=O)(c1ccc([O-])cc1)c1ccc2c(c1)CCNCC2 (3D coordinates assigned)
O=S(=O)(c1ccc([O-])cc1)c1ccc2c(c1)CCNCC2 (nonaromatic ring conformer: 49.36027116548999 kcal/mol)

>  <smiles>  (34) 
O=S(=O)(c1ccc(O)cc1)c1ccc2c(c1)CCNCC2

>  <score_type>  (34) 
oracle

>  <origin>  (34) 
adgpu

>  <m_score__min__energy>  (34) 
-10.49

>  <m_primary>  (34) 
energy

$$$$
34:0
     RDKit          3D

 46 48  0  0  0  0  0  0  0  0999 V2000
   -5.7170   25.8070  -29.8470 O   0  0  0  0  0  0  0  0  0  0  0  0
   -4.9250   25.2080  -30.6210 C   0  0  0  0  0  0  0  0  0  0  0  0
   -3.5090   25.2760  -30.4050 N   0  0  0  0  0  0  0  0  0  0  0  0
   -2.7330   24.4470  -29.5260 C   0  0  0  0  0  0  0  0  0  0  0  0
   -1.8700   25.0630  -28.6100 C   0  0  0  0  0  0  0  0  0  0  0  0
   -1.0760   24.2940  -27.7560 C   0  0  0  0  0  0  0  0  0  0  0  0
   -1.1250   22.8890  -27.8110 C   0  0  0  0  0  0  0  0  0  0  0  0
   -0.2730   22.0690  -26.9210 C   0  0  0  0  0  0  0  0  0  0  0  0
   -0.5480   21.9580  -25.6960 O   0  0  0  0  0  0  0  0  0  0  0  0
    0.8540   21.4230  -27.4190 O   0  0  0  0  0  0  0  0  0  0  0  0
   -1.9780   22.2720  -28.7430 C   0  0  0  0  0  0  0  0  0  0  0  0
   -2.7670   23.0430  -29.6030 C   0  0  0  0  0  0  0  0  0  0  0  0
   -5.4490   24.5570  -31.7820 N   0  0  0  0  0  0  0  0  0  0  0  0
   -5.8540   23.1830  -31.8630 C   0  0  0  0  0  0  0  0  0  0  0  0
   -4.9210   22.1330  -31.8210 C   0  0  0  0  0  0  0  0  0  0  0  0
   -5.3530   20.8040  -31.8660 C   0  0  0  0  0  0  0  0  0  0  0  0
   -6.7220   20.5090  -31.9390 C   0  0  0  0  0  0  0  0  0  0  0  0
   -7.2690   18.8310  -31.9460 S   0  0  0  0  0  0  0  0  0  0  0  0
   -8.7490   18.7910  -31.6840 O   0  0  0  0  0  0  0  0  0  0  0  0
   -6.5820   18.0840  -30.8350 O   0  0  0  0  0  0  0  0  0  0  0  0
   -6.9390   18.0450  -33.4760 N   0  0  0  0  0  0  0  0  0  0  0  0
   -6.5330   16.6320  -33.2970 C   0  0  0  0  0  0  0  0  0  0  0  0
   -5.4680   16.1840  -34.3010 C   0  0  0  0  0  0  0  0  0  0  0  0
   -4.2320   17.0720  -34.1550 C   0  0  0  0  0  0  0  0  0  0  0  0
   -4.5740   18.5740  -34.2210 C   0  0  0  0  0  0  0  0  0  0  0  0
   -6.0820   18.8670  -34.3620 C   0  0  0  0  0  0  0  0  0  0  0  0
   -7.6520   21.5560  -31.9670 C   0  0  0  0  0  0  0  0  0  0  0  0
   -7.2200   22.8830  -31.9150 C   0  0  0  0  0  0  0  0  0  0  0  0
   -1.8174   26.1607  -28.5630 H   0  0  0  0  0  0  0  0  0  0  0  0
   -0.4083   24.7899  -27.0361 H   0  0  0  0  0  0  0  0  0  0  0  0
   -2.0252   21.1743  -28.7963 H   0  0  0  0  0  0  0  0  0  0  0  0
   -3.4160   22.5498  -30.3417 H   0  0  0  0  0  0  0  0  0  0  0  0
   -3.8464   22.3576  -31.7524 H   0  0  0  0  0  0  0  0  0  0  0  0
   -4.6166   19.9872  -31.8441 H   0  0  0  0  0  0  0  0  0  0  0  0
   -6.1305   16.5090  -32.2807 H   0  0  0  0  0  0  0  0  0  0  0  0
   -7.4247   16.0098  -33.4636 H   0  0  0  0  0  0  0  0  0  0  0  0
   -5.1939   15.1371  -34.1036 H   0  0  0  0  0  0  0  0  0  0  0  0
   -5.8653   16.2699  -35.3231 H   0  0  0  0  0  0  0  0  0  0  0  0
   -3.7579   16.8603  -33.1853 H   0  0  0  0  0  0  0  0  0  0  0  0
   -3.5564   16.8455  -34.9930 H   0  0  0  0  0  0  0  0  0  0  0  0
   -4.2133   19.0520  -33.2983 H   0  0  0  0  0  0  0  0  0  0  0  0
   -4.0860   18.9729  -35.1225 H   0  0  0  0  0  0  0  0  0  0  0  0
   -6.2527   19.9270  -34.1227 H   0  0  0  0  0  0  0  0  0  0  0  0
   -6.3603   18.6173  -35.3965 H   0  0  0  0  0  0  0  0  0  0  0  0
   -8.7271   21.3321  -32.0302 H   0  0  0  0  0  0  0  0  0  0  0  0
   -7.9586   23.6982  -31.9149 H   0  0  0  0  0  0  0  0  0  0  0  0
  1  2  2  0
  2  3  1  0
  3  4  1  0
  4  5  2  0
  5  6  1  0
  6  7  2  0
  7  8  1  0
  8  9  2  0
  8 10  1  0
  7 11  1  0
 11 12  2  0
  2 13  1  0
 13 14  1  0
 14 15  2  0
 15 16  1  0
 16 17  2  0
 17 18  1  0
 18 19  2  0
 18 20  2  0
 18 21  1  0
 21 22  1  0
 22 23  1  0
 23 24  1  0
 24 25  1  0
 25 26  1  0
 17 27  1  0
 27 28  2  0
 12  4  1  0
 28 14  1  0
 26 21  1  0
  5 29  1  0
  6 30  1  0
 11 31  1  0
 12 32  1  0
 15 33  1  0
 16 34  1  0
 22 35  1  0
 22 36  1  0
 23 37  1  0
 23 38  1  0
 24 39  1  0
 24 40  1  0
 25 41  1  0
 25 42  1  0
 26 43  1  0
 26 44  1  0
 27 45  1  0
 28 46  1  0
M  CHG  3   3  -1  10  -1  13  -1
M  END
>  <UniqueID>  (35) 
35

>  <SMILES>  (35) 
O=C([N-]c1ccc(C(=O)[O-])cc1)[N-]c1ccc(S(=O)(=O)N2CCCCC2)cc1

>  <Energy>  (35) 
61.7765456446651

>  <Genealogy>  (35) 
O=C([N-]c1ccc(C(=O)[O-])cc1)[N-]c1ccc(S(=O)(=O)N2CCCCC2)cc1 (protonated)
O=C([N-]c1ccc(C(=O)[O-])cc1)[N-]c1ccc(S(=O)(=O)N2CCCCC2)cc1 (3D coordinates assigned)
O=C([N-]c1ccc(C(=O)[O-])cc1)[N-]c1ccc(S(=O)(=O)N2CCCCC2)cc1 (nonaromatic ring conformer: 61.7765456446651 kcal/mol)

>  <smiles>  (35) 
O=C(Nc1ccc(C(=O)O)cc1)Nc1ccc(S(=O)(=O)N2CCCCC2)cc1

>  <score_type>  (35) 
oracle

>  <origin>  (35) 
adgpu

>  <m_score__min__energy>  (35) 
-11.91

>  <m_primary>  (35) 
energy

$$$$
35:0
     RDKit          3D

 65 69  0  0  0  0  0  0  0  0999 V2000
   -5.5842   20.2420  -30.6175 H   0  0  0  0  0  0  0  0  0  0  0  0
   -5.6640   21.2650  -31.0140 C   0  0  0  0  0  0  0  0  0  0  0  0
   -4.8750   22.2500  -30.5080 N   0  0  0  0  0  0  0  0  0  0  0  0
   -4.9330   23.5330  -30.9640 C   0  0  0  0  0  0  0  0  0  0  0  0
   -4.1600   24.4640  -30.4800 N   0  0  0  0  0  0  0  0  0  0  0  0
   -3.1950   24.3360  -29.4240 C   0  0  0  0  0  0  0  0  0  0  0  0
   -3.2100   23.2780  -28.5690 N   0  0  0  0  0  0  0  0  0  0  0  0
   -2.3040   23.1620  -27.5650 C   0  0  0  0  0  0  0  0  0  0  0  0
   -2.3390   22.1420  -26.8250 O   0  0  0  0  0  0  0  0  0  0  0  0
   -1.3260   24.1630  -27.3830 C   0  0  0  0  0  0  0  0  0  0  0  0
   -0.3440   24.1100  -26.3300 N   0  0  0  0  0  0  0  0  0  0  0  0
    0.0280   22.9940  -25.7210 N   0  0  0  0  0  0  0  0  0  0  0  0
    0.9910   23.2390  -24.8450 N   0  0  0  0  0  0  0  0  0  0  0  0
    1.2400   24.5640  -24.8950 C   0  0  0  0  0  0  0  0  0  0  0  0
    2.2990   25.2460  -24.1150 C   0  0  0  0  0  0  0  0  0  0  0  0
    3.4530   24.5240  -23.7610 C   0  0  0  0  0  0  0  0  0  0  0  0
    3.5403   23.4638  -24.0409 H   0  0  0  0  0  0  0  0  0  0  0  0
    4.4890   25.1420  -23.0570 C   0  0  0  0  0  0  0  0  0  0  0  0
    5.3906   24.5701  -22.7922 H   0  0  0  0  0  0  0  0  0  0  0  0
    4.3820   26.4840  -22.6890 C   0  0  0  0  0  0  0  0  0  0  0  0
    5.2041   26.9716  -22.1446 H   0  0  0  0  0  0  0  0  0  0  0  0
    3.2330   27.2080  -23.0110 C   0  0  0  0  0  0  0  0  0  0  0  0
    3.1527   28.2638  -22.7130 H   0  0  0  0  0  0  0  0  0  0  0  0
    2.1740   26.5980  -23.7150 C   0  0  0  0  0  0  0  0  0  0  0  0
    0.9870   27.2920  -24.0000 O   0  0  0  0  0  0  0  0  0  0  0  0
   -0.2270   27.1600  -23.2670 C   0  0  0  0  0  0  0  0  0  0  0  0
   -0.0089   27.1837  -22.1891 H   0  0  0  0  0  0  0  0  0  0  0  0
   -0.9019   27.9901  -23.5229 H   0  0  0  0  0  0  0  0  0  0  0  0
   -0.7078   26.2043  -23.5229 H   0  0  0  0  0  0  0  0  0  0  0  0
    0.4060   25.1190  -25.8450 C   0  0  0  0  0  0  0  0  0  0  0  0
    0.3624   26.1760  -26.1464 H   0  0  0  0  0  0  0  0  0  0  0  0
   -1.3180   25.2300  -28.2930 C   0  0  0  0  0  0  0  0  0  0  0  0
   -0.5548   26.0172  -28.2050 H   0  0  0  0  0  0  0  0  0  0  0  0
   -2.2460   25.2980  -29.2820 N   0  0  0  0  0  0  0  0  0  0  0  0
   -5.8300   23.8570  -31.9850 C   0  0  0  0  0  0  0  0  0  0  0  0
   -5.8869   24.8879  -32.3646 H   0  0  0  0  0  0  0  0  0  0  0  0
   -6.6540   22.8650  -32.5210 C   0  0  0  0  0  0  0  0  0  0  0  0
   -7.3637   23.1165  -33.3229 H   0  0  0  0  0  0  0  0  0  0  0  0
   -6.5800   21.5470  -32.0400 C   0  0  0  0  0  0  0  0  0  0  0  0
   -7.4430   20.4860  -32.6100 C   0  0  0  0  0  0  0  0  0  0  0  0
   -8.6090   20.7590  -33.0050 O   0  0  0  0  0  0  0  0  0  0  0  0
   -6.9710   19.1400  -32.7300 N   0  0  0  0  0  0  0  0  0  0  0  0
   -6.4580   18.6750  -34.0260 C   0  0  0  0  0  0  0  0  0  0  0  0
   -7.0818   19.0957  -34.8284 H   0  0  0  0  0  0  0  0  0  0  0  0
   -5.4146   19.0095  -34.1226 H   0  0  0  0  0  0  0  0  0  0  0  0
   -6.4820   17.1410  -34.1280 C   0  0  0  0  0  0  0  0  0  0  0  0
   -7.5286   16.8164  -34.2242 H   0  0  0  0  0  0  0  0  0  0  0  0
   -5.8739   16.8692  -35.0034 H   0  0  0  0  0  0  0  0  0  0  0  0
   -5.8560   16.4190  -32.9010 C   0  0  0  0  0  0  0  0  0  0  0  0
   -6.4833   15.5355  -32.7114 H   0  0  0  0  0  0  0  0  0  0  0  0
   -4.4920   15.8960  -33.1940 N   0  0  0  0  0  0  0  0  0  0  0  0
   -3.4180   16.9090  -33.1790 C   0  0  0  0  0  0  0  0  0  0  0  0
   -3.1589   17.1533  -32.1382 H   0  0  0  0  0  0  0  0  0  0  0  0
   -2.5312   16.5108  -33.6938 H   0  0  0  0  0  0  0  0  0  0  0  0
   -3.7637   17.8176  -33.6938 H   0  0  0  0  0  0  0  0  0  0  0  0
   -4.1370   14.7530  -32.3350 C   0  0  0  0  0  0  0  0  0  0  0  0
   -4.2280   15.0460  -31.2787 H   0  0  0  0  0  0  0  0  0  0  0  0
   -4.8167   13.9134  -32.5425 H   0  0  0  0  0  0  0  0  0  0  0  0
   -3.1012   14.4462  -32.5425 H   0  0  0  0  0  0  0  0  0  0  0  0
   -5.9480   17.2380  -31.5800 C   0  0  0  0  0  0  0  0  0  0  0  0
   -6.0805   16.5426  -30.7381 H   0  0  0  0  0  0  0  0  0  0  0  0
   -5.0194   17.8175  -31.4708 H   0  0  0  0  0  0  0  0  0  0  0  0
   -7.1220   18.2190  -31.6020 C   0  0  0  0  0  0  0  0  0  0  0  0
   -8.0637   17.6607  -31.7087 H   0  0  0  0  0  0  0  0  0  0  0  0
   -7.1377   18.7912  -30.6627 H   0  0  0  0  0  0  0  0  0  0  0  0
  1  2  1  0
  2  3  1  0
  3  4  1  0
  4  5  2  0
  5  6  1  0
  6  7  2  0
  7  8  1  0
  8  9  2  0
  8 10  1  0
 10 11  1  0
 11 12  1  0
 12 13  2  0
 13 14  1  0
 14 15  1  0
 15 16  2  0
 16 17  1  0
 16 18  1  0
 18 19  1  0
 18 20  2  0
 20 21  1  0
 20 22  1  0
 22 23  1  0
 22 24  2  0
 24 25  1  0
 25 26  1  0
 26 27  1  0
 26 28  1  0
 26 29  1  0
 14 30  2  0
 30 31  1  0
 10 32  2  0
 32 33  1  0
 32 34  1  0
  4 35  1  0
 35 36  1  0
 35 37  2  0
 37 38  1  0
 37 39  1  0
 39 40  1  0
 40 41  2  0
 40 42  1  0
 42 43  1  0
 43 44  1  0
 43 45  1  0
 43 46  1  0
 46 47  1  0
 46 48  1  0
 46 49  1  0
 49 50  1  0
 49 51  1  0
 51 52  1  0
 52 53  1  0
 52 54  1  0
 52 55  1  0
 51 56  1  0
 56 57  1  0
 56 58  1  0
 56 59  1  0
 49 60  1  0
 60 61  1  0
 60 62  1  0
 60 63  1  0
 63 64  1  0
 63 65  1  0
 39  2  2  0
 63 42  1  0
 34  6  1  0
 30 11  1  0
 24 15  1  0
M  CHG  2   3  -1  34  -1
M  END
>  <UniqueID>  (36) 
36

>  <SMILES>  (36) 
COc1ccccc1-c1cn(-c2c[n-]c(/N=c3/ccc(C(=O)N4CCC(N(C)C)CC4)c[n-]3)nc2=O)nn1

>  <Energy>  (36) 
132.83033865334588

>  <Genealogy>  (36) 
COc1ccccc1-c1cn(-c2c[n-]c(N=c3ccc(C(=O)N4CCC(N(C)C)CC4)c[n-]3)nc2=O)nn1 (protonated)
COc1ccccc1-c1cn(-c2c[n-]c(/N=c3/ccc(C(=O)N4CCC(N(C)C)CC4)c[n-]3)nc2=O)nn1 (cis-trans isomerization)
COc1ccccc1-c1cn(-c2c[n-]c(/N=c3/ccc(C(=O)N4CCC(N(C)C)CC4)c[n-]3)nc2=O)nn1 (3D coordinates assigned)
COc1ccccc1-c1cn(-c2c[n-]c(/N=c3/ccc(C(=O)N4CCC(N(C)C)CC4)c[n-]3)nc2=O)nn1 (nonaromatic ring conformer: 132.83033865334588 kcal/mol)

>  <smiles>  (36) 
COc1ccccc1-c1cn(-c2c[nH]c(N=c3ccc(C(=O)N4CCC(N(C)C)CC4)c[nH]3)nc2=O)nn1

>  <score_type>  (36) 
oracle

>  <origin>  (36) 
adgpu

>  <m_score__min__energy>  (36) 
-10.48

>  <m_primary>  (36) 
energy

$$$$
36:0
     RDKit          3D

 50 53  0  0  0  0  0  0  0  0999 V2000
   -8.9790   18.4040  -31.6600 C   0  0  0  0  0  0  0  0  0  0  0  0
   -7.5740   18.5620  -32.0560 N   0  0  0  0  0  0  0  0  0  0  0  0
   -7.2270   17.5810  -33.0920 C   0  0  0  0  0  0  0  0  0  0  0  0
   -7.3060   20.1790  -32.6570 S   0  0  0  0  0  0  0  0  0  0  0  0
   -8.6170   20.9120  -32.7200 O   0  0  0  0  0  0  0  0  0  0  0  0
   -6.7490   20.1070  -34.0530 O   0  0  0  0  0  0  0  0  0  0  0  0
   -6.1860   21.0780  -31.6320 C   0  0  0  0  0  0  0  0  0  0  0  0
   -4.8060   20.8590  -31.7320 C   0  0  0  0  0  0  0  0  0  0  0  0
   -3.9200   21.5630  -30.9130 C   0  0  0  0  0  0  0  0  0  0  0  0
   -4.4030   22.4910  -29.9770 C   0  0  0  0  0  0  0  0  0  0  0  0
   -3.4950   23.2270  -29.1430 N   0  0  0  0  0  0  0  0  0  0  0  0
   -3.0780   24.4980  -29.3420 C   0  0  0  0  0  0  0  0  0  0  0  0
   -3.4800   25.2990  -30.4060 O   0  0  0  0  0  0  0  0  0  0  0  0
   -2.1750   24.8660  -28.3670 C   0  0  0  0  0  0  0  0  0  0  0  0
   -2.0180   23.7810  -27.5490 C   0  0  0  0  0  0  0  0  0  0  0  0
   -2.8400   22.7870  -28.0410 C   0  0  0  0  0  0  0  0  0  0  0  0
   -2.9890   21.5260  -27.4670 O   0  0  0  0  0  0  0  0  0  0  0  0
   -1.0560   23.7450  -26.4080 C   0  0  0  0  0  0  0  0  0  0  0  0
   -0.5700   25.1360  -26.0570 C   0  0  0  0  0  0  0  0  0  0  0  0
   -0.7200   26.2200  -26.8590 C   0  0  0  0  0  0  0  0  0  0  0  0
   -0.2000   27.5450  -26.4160 C   0  0  0  0  0  0  0  0  0  0  0  0
    0.1740   27.7610  -25.0760 C   0  0  0  0  0  0  0  0  0  0  0  0
    0.6490   29.0110  -24.6650 C   0  0  0  0  0  0  0  0  0  0  0  0
    0.7510   30.0580  -25.5830 C   0  0  0  0  0  0  0  0  0  0  0  0
    0.3760   29.8600  -26.9130 C   0  0  0  0  0  0  0  0  0  0  0  0
   -0.1010   28.6120  -27.3300 C   0  0  0  0  0  0  0  0  0  0  0  0
   -1.3710   26.1180  -28.2340 C   0  0  0  0  0  0  0  0  0  0  0  0
   -5.7860   22.7180  -29.8870 C   0  0  0  0  0  0  0  0  0  0  0  0
   -6.6720   22.0130  -30.7060 C   0  0  0  0  0  0  0  0  0  0  0  0
   -9.0519   18.3958  -30.5624 H   0  0  0  0  0  0  0  0  0  0  0  0
   -9.5692   19.2414  -32.0604 H   0  0  0  0  0  0  0  0  0  0  0  0
   -9.3685   17.4564  -32.0604 H   0  0  0  0  0  0  0  0  0  0  0  0
   -6.8963   16.6462  -32.6158 H   0  0  0  0  0  0  0  0  0  0  0  0
   -8.1091   17.3814  -33.7182 H   0  0  0  0  0  0  0  0  0  0  0  0
   -6.4156   17.9805  -33.7182 H   0  0  0  0  0  0  0  0  0  0  0  0
   -4.4184   20.1296  -32.4585 H   0  0  0  0  0  0  0  0  0  0  0  0
   -2.8375   21.3892  -31.0021 H   0  0  0  0  0  0  0  0  0  0  0  0
   -3.8980   21.1000  -27.3420 H   0  0  0  0  0  0  0  0  0  0  0  0
   -1.5557   23.3076  -25.5311 H   0  0  0  0  0  0  0  0  0  0  0  0
   -0.1881   23.1371  -26.7033 H   0  0  0  0  0  0  0  0  0  0  0  0
   -0.0634   25.2762  -25.0907 H   0  0  0  0  0  0  0  0  0  0  0  0
    0.0921   26.9412  -24.3472 H   0  0  0  0  0  0  0  0  0  0  0  0
    0.9426   29.1693  -23.6168 H   0  0  0  0  0  0  0  0  0  0  0  0
    1.1270   31.0393  -25.2581 H   0  0  0  0  0  0  0  0  0  0  0  0
    0.4555   30.6864  -27.6346 H   0  0  0  0  0  0  0  0  0  0  0  0
   -0.4004   28.4636  -28.3780 H   0  0  0  0  0  0  0  0  0  0  0  0
   -2.0320   26.9848  -28.3818 H   0  0  0  0  0  0  0  0  0  0  0  0
   -0.5747   26.0993  -28.9926 H   0  0  0  0  0  0  0  0  0  0  0  0
   -6.1739   23.4546  -29.1680 H   0  0  0  0  0  0  0  0  0  0  0  0
   -7.7543   22.1918  -30.6243 H   0  0  0  0  0  0  0  0  0  0  0  0
  1  2  1  0
  2  3  1  0
  2  4  1  0
  4  5  2  0
  4  6  2  0
  4  7  1  0
  7  8  2  0
  8  9  1  0
  9 10  2  0
 10 11  1  0
 11 12  1  0
 12 13  1  0
 12 14  2  0
 14 15  1  0
 15 16  2  0
 16 17  1  0
 15 18  1  0
 18 19  1  0
 19 20  2  0
 20 21  1  0
 21 22  2  0
 22 23  1  0
 23 24  2  0
 24 25  1  0
 25 26  2  0
 20 27  1  0
 10 28  1  0
 28 29  2  0
 29  7  1  0
 16 11  1  0
 26 21  1  0
 27 14  1  0
  1 30  1  0
  1 31  1  0
  1 32  1  0
  3 33  1  0
  3 34  1  0
  3 35  1  0
  8 36  1  0
  9 37  1  0
 17 38  1  0
 18 39  1  0
 18 40  1  0
 19 41  1  0
 22 42  1  0
 23 43  1  0
 24 44  1  0
 25 45  1  0
 26 46  1  0
 27 47  1  0
 27 48  1  0
 28 49  1  0
 29 50  1  0
M  CHG  1  13  -1
M  END
>  <UniqueID>  (37) 
37

>  <SMILES>  (37) 
CN(C)S(=O)(=O)c1ccc(-n2c([O-])c3c(c2O)CC=C(c2ccccc2)C3)cc1

>  <Energy>  (37) 
95.314237950255

>  <Genealogy>  (37) 
CN(C)S(=O)(=O)c1ccc(-n2c([O-])c3c(c2O)CC=C(c2ccccc2)C3)cc1 (protonated)
CN(C)S(=O)(=O)c1ccc(-n2c([O-])c3c(c2O)CC=C(c2ccccc2)C3)cc1 (3D coordinates assigned)
CN(C)S(=O)(=O)c1ccc(-n2c([O-])c3c(c2O)CC=C(c2ccccc2)C3)cc1 (nonaromatic ring conformer: 95.314237950255 kcal/mol)

>  <smiles>  (37) 
CN(C)S(=O)(=O)c1ccc(-n2c(O)c3c(c2O)CC(c2ccccc2)=CC3)cc1

>  <score_type>  (37) 
oracle

>  <origin>  (37) 
adgpu

>  <m_score__min__energy>  (37) 
-11.08

>  <m_primary>  (37) 
energy

$$$$
37:0
     RDKit          3D

 58 61  0  0  0  0  0  0  0  0999 V2000
    1.2830   15.2230  -28.6750 C   0  0  0  0  0  0  0  0  0  0  0  0
    1.0160   16.4380  -29.5190 C   0  0  0  0  0  0  0  0  0  0  0  0
    1.1570   16.3410  -30.7710 O   0  0  0  0  0  0  0  0  0  0  0  0
    0.5910   17.6960  -28.9420 N   0  0  0  0  0  0  0  0  0  0  0  0
    0.3070   17.8390  -27.5050 C   0  0  0  0  0  0  0  0  0  0  0  0
   -0.9490   18.6930  -27.2970 C   0  0  0  0  0  0  0  0  0  0  0  0
   -0.9200   19.9180  -28.1100 N   0  0  0  0  0  0  0  0  0  0  0  0
   -2.0340   20.8300  -28.0310 C   0  0  0  0  0  0  0  0  0  0  0  0
   -3.1800   20.3820  -27.7510 O   0  0  0  0  0  0  0  0  0  0  0  0
   -1.8770   22.2840  -28.2690 C   0  0  0  0  0  0  0  0  0  0  0  0
   -0.9030   23.0250  -27.5830 C   0  0  0  0  0  0  0  0  0  0  0  0
   -0.7640   24.3950  -27.8150 C   0  0  0  0  0  0  0  0  0  0  0  0
   -1.5930   25.0440  -28.7370 C   0  0  0  0  0  0  0  0  0  0  0  0
   -1.4720   26.4190  -28.9400 O   0  0  0  0  0  0  0  0  0  0  0  0
   -2.5590   24.3070  -29.4430 C   0  0  0  0  0  0  0  0  0  0  0  0
   -3.3960   24.9250  -30.4240 N   0  0  0  0  0  0  0  0  0  0  0  0
   -5.1270   24.8310  -30.3710 S   0  0  0  0  0  0  0  0  0  0  0  0
   -5.6140   24.7810  -28.9510 O   0  0  0  0  0  0  0  0  0  0  0  0
   -5.7080   26.0530  -31.0290 O   0  0  0  0  0  0  0  0  0  0  0  0
   -5.6650   23.3840  -31.2220 C   0  0  0  0  0  0  0  0  0  0  0  0
   -4.7430   22.6180  -31.9500 C   0  0  0  0  0  0  0  0  0  0  0  0
   -5.1680   21.4890  -32.6560 C   0  0  0  0  0  0  0  0  0  0  0  0
   -6.5160   21.1080  -32.6260 C   0  0  0  0  0  0  0  0  0  0  0  0
   -7.4400   21.8590  -31.8810 C   0  0  0  0  0  0  0  0  0  0  0  0
   -7.0130   23.0020  -31.1860 C   0  0  0  0  0  0  0  0  0  0  0  0
   -8.8960   21.4760  -31.9330 C   0  0  0  0  0  0  0  0  0  0  0  0
   -9.1080   19.9470  -31.8900 C   0  0  0  0  0  0  0  0  0  0  0  0
   -7.9720   19.1030  -32.5240 C   0  0  0  0  0  0  0  0  0  0  0  0
   -7.0120   19.9180  -33.3970 C   0  0  0  0  0  0  0  0  0  0  0  0
   -2.7180   22.9400  -29.1810 C   0  0  0  0  0  0  0  0  0  0  0  0
    0.1960   20.1540  -29.0350 C   0  0  0  0  0  0  0  0  0  0  0  0
    0.5100   18.8750  -29.8190 C   0  0  0  0  0  0  0  0  0  0  0  0
    1.2232   15.4953  -27.6109 H   0  0  0  0  0  0  0  0  0  0  0  0
    0.5334   14.4495  -28.8982 H   0  0  0  0  0  0  0  0  0  0  0  0
    2.2878   14.8351  -28.8982 H   0  0  0  0  0  0  0  0  0  0  0  0
    0.1467   16.8435  -27.0653 H   0  0  0  0  0  0  0  0  0  0  0  0
    1.1612   18.3314  -27.0172 H   0  0  0  0  0  0  0  0  0  0  0  0
   -1.8323   18.1006  -27.5778 H   0  0  0  0  0  0  0  0  0  0  0  0
   -0.9894   18.9876  -26.2380 H   0  0  0  0  0  0  0  0  0  0  0  0
   -0.2449   22.5238  -26.8580 H   0  0  0  0  0  0  0  0  0  0  0  0
    0.0013   24.9672  -27.2701 H   0  0  0  0  0  0  0  0  0  0  0  0
   -1.2510   27.0520  -28.1800 H   0  0  0  0  0  0  0  0  0  0  0  0
   -3.6817   22.9067  -31.9655 H   0  0  0  0  0  0  0  0  0  0  0  0
   -4.4432   20.8988  -33.2359 H   0  0  0  0  0  0  0  0  0  0  0  0
   -7.7377   23.5985  -30.6124 H   0  0  0  0  0  0  0  0  0  0  0  0
   -9.4104   21.9277  -31.0719 H   0  0  0  0  0  0  0  0  0  0  0  0
   -9.3039   21.8430  -32.8864 H   0  0  0  0  0  0  0  0  0  0  0  0
   -9.2069   19.6470  -30.8363 H   0  0  0  0  0  0  0  0  0  0  0  0
  -10.0074   19.7473  -32.4910 H   0  0  0  0  0  0  0  0  0  0  0  0
   -7.3928   18.6360  -31.7137 H   0  0  0  0  0  0  0  0  0  0  0  0
   -8.4509   18.3609  -33.1797 H   0  0  0  0  0  0  0  0  0  0  0  0
   -6.1581   19.2886  -33.6880 H   0  0  0  0  0  0  0  0  0  0  0  0
   -7.5406   20.2615  -34.2984 H   0  0  0  0  0  0  0  0  0  0  0  0
   -3.5097   22.3754  -29.6951 H   0  0  0  0  0  0  0  0  0  0  0  0
   -0.0776   20.9540  -29.7386 H   0  0  0  0  0  0  0  0  0  0  0  0
    1.0848   20.4502  -28.4586 H   0  0  0  0  0  0  0  0  0  0  0  0
   -0.2837   18.7105  -30.5626 H   0  0  0  0  0  0  0  0  0  0  0  0
    1.4888   19.0055  -30.3036 H   0  0  0  0  0  0  0  0  0  0  0  0
  1  2  1  0
  2  3  2  0
  2  4  1  0
  4  5  1  0
  5  6  1  0
  6  7  1  0
  7  8  1  0
  8  9  2  0
  8 10  1  0
 10 11  2  0
 11 12  1  0
 12 13  2  0
 13 14  1  0
 13 15  1  0
 15 16  1  0
 16 17  1  0
 17 18  2  0
 17 19  2  0
 17 20  1  0
 20 21  2  0
 21 22  1  0
 22 23  2  0
 23 24  1  0
 24 25  2  0
 24 26  1  0
 26 27  1  0
 27 28  1  0
 28 29  1  0
 15 30  2  0
  7 31  1  0
 31 32  1  0
 32  4  1  0
 30 10  1  0
 25 20  1  0
 29 23  1  0
  1 33  1  0
  1 34  1  0
  1 35  1  0
  5 36  1  0
  5 37  1  0
  6 38  1  0
  6 39  1  0
 11 40  1  0
 12 41  1  0
 14 42  1  0
 21 43  1  0
 22 44  1  0
 25 45  1  0
 26 46  1  0
 26 47  1  0
 27 48  1  0
 27 49  1  0
 28 50  1  0
 28 51  1  0
 29 52  1  0
 29 53  1  0
 30 54  1  0
 31 55  1  0
 31 56  1  0
 32 57  1  0
 32 58  1  0
M  CHG  1  16  -1
M  END
>  <UniqueID>  (38) 
38

>  <SMILES>  (38) 
CC(=O)N1CCN(C(=O)c2ccc(O)c([N-]S(=O)(=O)c3ccc4c(c3)CCCC4)c2)CC1

>  <Energy>  (38) 
78.42522868484565

>  <Genealogy>  (38) 
CC(=O)N1CCN(C(=O)c2ccc(O)c([N-]S(=O)(=O)c3ccc4c(c3)CCCC4)c2)CC1 (protonated)
CC(=O)N1CCN(C(=O)c2ccc(O)c([N-]S(=O)(=O)c3ccc4c(c3)CCCC4)c2)CC1 (3D coordinates assigned)
CC(=O)N1CCN(C(=O)c2ccc(O)c([N-]S(=O)(=O)c3ccc4c(c3)CCCC4)c2)CC1 (nonaromatic ring conformer: 78.42522868484565 kcal/mol)

>  <smiles>  (38) 
CC(=O)N1CCN(C(=O)c2ccc(O)c(NS(=O)(=O)c3ccc4c(c3)CCCC4)c2)CC1

>  <score_type>  (38) 
oracle

>  <origin>  (38) 
adgpu

>  <m_score__min__energy>  (38) 
-13.35

>  <m_primary>  (38) 
energy

$$$$
38:0
     RDKit          3D

 56 59  0  0  0  0  0  0  0  0999 V2000
   -1.6397   20.6895  -29.7313 H   0  0  0  0  0  0  0  0  0  0  0  0
   -1.1570   20.7480  -30.7180 C   0  0  0  0  0  0  0  0  0  0  0  0
    0.0210   20.0390  -30.9570 C   0  0  0  0  0  0  0  0  0  0  0  0
    0.4712   19.4402  -30.1516 H   0  0  0  0  0  0  0  0  0  0  0  0
    0.6370   20.0850  -32.2220 C   0  0  0  0  0  0  0  0  0  0  0  0
    1.8330   19.3970  -32.4880 O   0  0  0  0  0  0  0  0  0  0  0  0
    2.4560   18.4840  -31.5920 C   0  0  0  0  0  0  0  0  0  0  0  0
    2.2484   18.7882  -30.5555 H   0  0  0  0  0  0  0  0  0  0  0  0
    2.0587   17.4728  -31.7639 H   0  0  0  0  0  0  0  0  0  0  0  0
    3.5425   18.4852  -31.7639 H   0  0  0  0  0  0  0  0  0  0  0  0
    0.0390   20.8360  -33.2510 C   0  0  0  0  0  0  0  0  0  0  0  0
    0.7830   20.9130  -34.8520 S   0  0  0  0  0  0  0  0  0  0  0  0
    0.7880   22.3340  -35.3470 O   0  0  0  0  0  0  0  0  0  0  0  0
   -0.0260   20.0800  -35.8080 O   0  0  0  0  0  0  0  0  0  0  0  0
    2.4180   20.3040  -34.7720 N   0  0  0  0  0  0  0  0  0  0  0  0
    2.6000   20.0180  -33.7810 H   0  0  0  0  0  0  0  0  0  0  0  0
    3.3740   21.3590  -35.1550 C   0  0  0  0  0  0  0  0  0  0  0  0
    3.0825   21.7701  -36.1328 H   0  0  0  0  0  0  0  0  0  0  0  0
    3.3554   22.1436  -34.3843 H   0  0  0  0  0  0  0  0  0  0  0  0
    4.8110   20.8000  -35.2510 C   0  0  0  0  0  0  0  0  0  0  0  0
    5.1658   20.9064  -36.2867 H   0  0  0  0  0  0  0  0  0  0  0  0
    5.4457   21.3680  -34.5549 H   0  0  0  0  0  0  0  0  0  0  0  0
    4.8700   19.4350  -34.8850 O   0  0  0  0  0  0  0  0  0  0  0  0
    4.0370   18.6760  -35.7390 C   0  0  0  0  0  0  0  0  0  0  0  0
    4.3835   18.7985  -36.7758 H   0  0  0  0  0  0  0  0  0  0  0  0
    4.0938   17.6231  -35.4256 H   0  0  0  0  0  0  0  0  0  0  0  0
    2.5620   19.1260  -35.6480 C   0  0  0  0  0  0  0  0  0  0  0  0
    2.2018   19.3816  -36.6554 H   0  0  0  0  0  0  0  0  0  0  0  0
    1.9712   18.3011  -35.2232 H   0  0  0  0  0  0  0  0  0  0  0  0
   -1.1410   21.5530  -32.9980 C   0  0  0  0  0  0  0  0  0  0  0  0
   -1.6076   22.1349  -33.8065 H   0  0  0  0  0  0  0  0  0  0  0  0
   -1.7300   21.5360  -31.7300 C   0  0  0  0  0  0  0  0  0  0  0  0
   -2.9550   22.2620  -31.5310 N   0  0  0  0  0  0  0  0  0  0  0  0
   -4.1690   21.8220  -31.7190 C   0  0  0  0  0  0  0  0  0  0  0  0
   -4.3940   20.5230  -32.0580 N   0  0  0  0  0  0  0  0  0  0  0  0
   -5.6430   20.0200  -32.2430 C   0  0  0  0  0  0  0  0  0  0  0  0
   -5.7980   18.6790  -32.6000 C   0  0  0  0  0  0  0  0  0  0  0  0
   -4.9112   18.0389  -32.7177 H   0  0  0  0  0  0  0  0  0  0  0  0
   -7.0740   18.1440  -32.8090 C   0  0  0  0  0  0  0  0  0  0  0  0
   -7.2350   16.6930  -33.1560 C   0  0  0  0  0  0  0  0  0  0  0  0
   -7.3008   16.1001  -32.2318 H   0  0  0  0  0  0  0  0  0  0  0  0
   -8.1538   16.5567  -33.7453 H   0  0  0  0  0  0  0  0  0  0  0  0
   -6.3685   16.3586  -33.7453 H   0  0  0  0  0  0  0  0  0  0  0  0
   -8.2030   18.9540  -32.6250 C   0  0  0  0  0  0  0  0  0  0  0  0
   -9.2064   18.5255  -32.7649 H   0  0  0  0  0  0  0  0  0  0  0  0
   -8.0710   20.3070  -32.2640 C   0  0  0  0  0  0  0  0  0  0  0  0
   -9.3160   21.1400  -32.0880 C   0  0  0  0  0  0  0  0  0  0  0  0
   -9.5181   21.2752  -31.0152 H   0  0  0  0  0  0  0  0  0  0  0  0
   -9.1695   22.1226  -32.5602 H   0  0  0  0  0  0  0  0  0  0  0  0
  -10.1684   20.6297  -32.5602 H   0  0  0  0  0  0  0  0  0  0  0  0
   -6.7760   20.8500  -32.0730 C   0  0  0  0  0  0  0  0  0  0  0  0
   -6.5630   22.1930  -31.7090 C   0  0  0  0  0  0  0  0  0  0  0  0
   -7.4237   22.8629  -31.5658 H   0  0  0  0  0  0  0  0  0  0  0  0
   -5.2650   22.6820  -31.5280 C   0  0  0  0  0  0  0  0  0  0  0  0
   -5.0750   24.0630  -31.1500 C   0  0  0  0  0  0  0  0  0  0  0  0
   -4.9240   25.1700  -30.8480 N   0  0  0  0  0  0  0  0  0  0  0  0
  1  2  1  0
  2  3  2  0
  3  4  1  0
  3  5  1  0
  5  6  1  0
  6  7  1  0
  7  8  1  0
  7  9  1  0
  7 10  1  0
  5 11  2  0
 11 12  1  0
 12 13  2  0
 12 14  2  0
 12 15  1  0
 15 16  1  0
 15 17  1  0
 17 18  1  0
 17 19  1  0
 17 20  1  0
 20 21  1  0
 20 22  1  0
 20 23  1  0
 23 24  1  0
 24 25  1  0
 24 26  1  0
 24 27  1  0
 27 28  1  0
 27 29  1  0
 11 30  1  0
 30 31  1  0
 30 32  2  0
 32 33  1  0
 33 34  2  0
 34 35  1  0
 35 36  1  0
 36 37  2  0
 37 38  1  0
 37 39  1  0
 39 40  1  0
 40 41  1  0
 40 42  1  0
 40 43  1  0
 39 44  2  0
 44 45  1  0
 44 46  1  0
 46 47  1  0
 47 48  1  0
 47 49  1  0
 47 50  1  0
 46 51  2  0
 51 52  1  0
 52 53  1  0
 52 54  2  0
 54 55  1  0
 55 56  3  0
 32  2  1  0
 54 34  1  0
 27 15  1  0
 51 36  1  0
M  CHG  2  15   1  35  -1
M  END
>  <UniqueID>  (39) 
39

>  <SMILES>  (39) 
COc1ccc(/N=c2\[n-]c3cc(C)cc(C)c3cc2C#N)cc1S(=O)(=O)[NH+]1CCOCC1

>  <Energy>  (39) 
76.34124312005886

>  <Genealogy>  (39) 
COc1ccc(N=c2[n-]c3cc(C)cc(C)c3cc2C#N)cc1S(=O)(=O)[NH+]1CCOCC1 (protonated)
COc1ccc(/N=c2\[n-]c3cc(C)cc(C)c3cc2C#N)cc1S(=O)(=O)[NH+]1CCOCC1 (cis-trans isomerization)
COc1ccc(/N=c2\[n-]c3cc(C)cc(C)c3cc2C#N)cc1S(=O)(=O)[NH+]1CCOCC1 (3D coordinates assigned)
COc1ccc(/N=c2\[n-]c3cc(C)cc(C)c3cc2C#N)cc1S(=O)(=O)[NH+]1CCOCC1 (nonaromatic ring conformer: 76.34124312005886 kcal/mol)

>  <smiles>  (39) 
COc1ccc(N=c2[nH]c3cc(C)cc(C)c3cc2C#N)cc1S(=O)(=O)N1CCOCC1

>  <score_type>  (39) 
oracle

>  <origin>  (39) 
adgpu

>  <m_score__min__energy>  (39) 
-9.3499999999999996

>  <m_primary>  (39) 
energy

$$$$
39:0
     RDKit          3D

 48 51  0  0  0  0  0  0  0  0999 V2000
   -5.8970   25.6450  -31.1720 O   0  0  0  0  0  0  0  0  0  0  0  0
   -5.1270   24.5780  -30.4470 S   0  0  0  0  0  0  0  0  0  0  0  0
   -5.6190   24.5380  -29.0280 O   0  0  0  0  0  0  0  0  0  0  0  0
   -3.4310   24.9320  -30.4340 N   0  0  0  0  0  0  0  0  0  0  0  0
   -2.4180   24.2480  -29.6820 C   0  0  0  0  0  0  0  0  0  0  0  0
   -2.2970   22.8460  -29.6810 C   0  0  0  0  0  0  0  0  0  0  0  0
   -1.2570   22.2230  -28.9730 C   0  0  0  0  0  0  0  0  0  0  0  0
   -1.0330   20.4780  -29.0770 S   0  0  0  0  0  0  0  0  0  0  0  0
   -0.1000   20.0590  -27.9760 O   0  0  0  0  0  0  0  0  0  0  0  0
   -2.3550   19.7850  -28.8890 O   0  0  0  0  0  0  0  0  0  0  0  0
   -0.3520   20.0340  -30.6220 N   0  0  0  0  0  0  0  0  0  0  0  0
   -1.0310   20.7660  -31.7040 C   0  0  0  0  0  0  0  0  0  0  0  0
   -0.4650   20.3360  -33.0750 C   0  0  0  0  0  0  0  0  0  0  0  0
    0.4580   19.2670  -32.9630 O   0  0  0  0  0  0  0  0  0  0  0  0
   -0.1440   18.1890  -32.2750 C   0  0  0  0  0  0  0  0  0  0  0  0
   -0.4960   18.5820  -30.8260 C   0  0  0  0  0  0  0  0  0  0  0  0
   -0.3460   23.0040  -28.2510 C   0  0  0  0  0  0  0  0  0  0  0  0
   -0.4650   24.3930  -28.2430 C   0  0  0  0  0  0  0  0  0  0  0  0
   -1.4890   25.0160  -28.9610 C   0  0  0  0  0  0  0  0  0  0  0  0
   -1.5840   26.4030  -28.9540 O   0  0  0  0  0  0  0  0  0  0  0  0
   -5.3840   23.0000  -31.1860 C   0  0  0  0  0  0  0  0  0  0  0  0
   -6.5890   22.3110  -30.9860 C   0  0  0  0  0  0  0  0  0  0  0  0
   -6.8060   21.0780  -31.6080 C   0  0  0  0  0  0  0  0  0  0  0  0
   -5.8190   20.5270  -32.4280 C   0  0  0  0  0  0  0  0  0  0  0  0
   -4.6020   21.1970  -32.6060 C   0  0  0  0  0  0  0  0  0  0  0  0
   -4.3910   22.4400  -32.0050 C   0  0  0  0  0  0  0  0  0  0  0  0
   -3.6090   20.6040  -33.3940 O   0  0  0  0  0  0  0  0  0  0  0  0
   -3.6990   19.2310  -33.7820 C   0  0  0  0  0  0  0  0  0  0  0  0
   -5.1500   18.8710  -34.1230 C   0  0  0  0  0  0  0  0  0  0  0  0
   -6.0260   19.3070  -33.0810 O   0  0  0  0  0  0  0  0  0  0  0  0
   -3.0218   22.2344  -30.2384 H   0  0  0  0  0  0  0  0  0  0  0  0
   -2.1084   20.5469  -31.6707 H   0  0  0  0  0  0  0  0  0  0  0  0
   -0.8631   21.8446  -31.5684 H   0  0  0  0  0  0  0  0  0  0  0  0
   -1.2988   20.0179  -33.7181 H   0  0  0  0  0  0  0  0  0  0  0  0
    0.0673   21.1972  -33.5051 H   0  0  0  0  0  0  0  0  0  0  0  0
   -1.0644   17.8961  -32.8014 H   0  0  0  0  0  0  0  0  0  0  0  0
    0.5685   17.3514  -32.2464 H   0  0  0  0  0  0  0  0  0  0  0  0
   -1.5360   18.2910  -30.6171 H   0  0  0  0  0  0  0  0  0  0  0  0
    0.1942   18.0627  -30.1449 H   0  0  0  0  0  0  0  0  0  0  0  0
    0.4660   22.5200  -27.6885 H   0  0  0  0  0  0  0  0  0  0  0  0
    0.2500   25.0008  -27.6692 H   0  0  0  0  0  0  0  0  0  0  0  0
   -7.3659   22.7422  -30.3376 H   0  0  0  0  0  0  0  0  0  0  0  0
   -7.7538   20.5420  -31.4516 H   0  0  0  0  0  0  0  0  0  0  0  0
   -3.4474   22.9797  -32.1733 H   0  0  0  0  0  0  0  0  0  0  0  0
   -3.0653   19.0606  -34.6648 H   0  0  0  0  0  0  0  0  0  0  0  0
   -3.3590   18.5994  -32.9481 H   0  0  0  0  0  0  0  0  0  0  0  0
   -5.4341   19.3621  -35.0654 H   0  0  0  0  0  0  0  0  0  0  0  0
   -5.2332   17.7792  -34.2277 H   0  0  0  0  0  0  0  0  0  0  0  0
  1  2  2  0
  2  3  2  0
  2  4  1  0
  4  5  1  0
  5  6  2  0
  6  7  1  0
  7  8  1  0
  8  9  2  0
  8 10  2  0
  8 11  1  0
 11 12  1  0
 12 13  1  0
 13 14  1  0
 14 15  1  0
 15 16  1  0
  7 17  2  0
 17 18  1  0
 18 19  2  0
 19 20  1  0
  2 21  1  0
 21 22  2  0
 22 23  1  0
 23 24  2  0
 24 25  1  0
 25 26  2  0
 25 27  1  0
 27 28  1  0
 28 29  1  0
 29 30  1  0
 19  5  1  0
 26 21  1  0
 16 11  1  0
 30 24  1  0
  6 31  1  0
 12 32  1  0
 12 33  1  0
 13 34  1  0
 13 35  1  0
 15 36  1  0
 15 37  1  0
 16 38  1  0
 16 39  1  0
 17 40  1  0
 18 41  1  0
 22 42  1  0
 23 43  1  0
 26 44  1  0
 28 45  1  0
 28 46  1  0
 29 47  1  0
 29 48  1  0
M  CHG  2   4  -1  20  -1
M  END
>  <UniqueID>  (40) 
40

>  <SMILES>  (40) 
O=S(=O)([N-]c1cc(S(=O)(=O)N2CCOCC2)ccc1[O-])c1ccc2c(c1)OCCO2

>  <Energy>  (40) 
63.031751813390706

>  <Genealogy>  (40) 
O=S(=O)([N-]c1cc(S(=O)(=O)N2CCOCC2)ccc1[O-])c1ccc2c(c1)OCCO2 (protonated)
O=S(=O)([N-]c1cc(S(=O)(=O)N2CCOCC2)ccc1[O-])c1ccc2c(c1)OCCO2 (3D coordinates assigned)
O=S(=O)([N-]c1cc(S(=O)(=O)N2CCOCC2)ccc1[O-])c1ccc2c(c1)OCCO2 (nonaromatic ring conformer: 63.031751813390706 kcal/mol)

>  <smiles>  (40) 
O=S(=O)(Nc1cc(S(=O)(=O)N2CCOCC2)ccc1O)c1ccc2c(c1)OCCO2

>  <score_type>  (40) 
oracle

>  <origin>  (40) 
adgpu

>  <m_score__min__energy>  (40) 
-13.779999999999999

>  <m_primary>  (40) 
energy

$$$$
40:0
     RDKit          3D

 38 40  0  0  0  0  0  0  0  0999 V2000
   -9.8850   21.6190  -31.6080 C   0  0  0  0  0  0  0  0  0  0  0  0
   -8.4120   21.8030  -31.8730 C   0  0  0  0  0  0  0  0  0  0  0  0
   -7.8500   23.0800  -31.7230 C   0  0  0  0  0  0  0  0  0  0  0  0
   -6.4910   23.2730  -31.9610 C   0  0  0  0  0  0  0  0  0  0  0  0
   -5.7090   22.2320  -32.3400 N   0  0  0  0  0  0  0  0  0  0  0  0
   -6.2040   20.9750  -32.5040 C   0  0  0  0  0  0  0  0  0  0  0  0
   -5.3530   19.9280  -32.9080 C   0  0  0  0  0  0  0  0  0  0  0  0
   -3.6400   20.2220  -33.2390 S   0  0  0  0  0  0  0  0  0  0  0  0
   -3.1690   19.2530  -34.2850 O   0  0  0  0  0  0  0  0  0  0  0  0
   -3.4350   21.6240  -33.7410 O   0  0  0  0  0  0  0  0  0  0  0  0
   -2.7170   20.0050  -31.8140 O   0  0  0  0  0  0  0  0  0  0  0  0
   -2.2610   21.0440  -30.9890 C   0  0  0  0  0  0  0  0  0  0  0  0
   -0.9060   21.1980  -30.6380 C   0  0  0  0  0  0  0  0  0  0  0  0
   -0.5050   22.2630  -29.8260 C   0  0  0  0  0  0  0  0  0  0  0  0
   -1.4490   23.1850  -29.3540 C   0  0  0  0  0  0  0  0  0  0  0  0
   -0.9440   24.5190  -28.3220 S   0  0  0  0  0  0  0  0  0  0  0  0
   -1.5490   26.0030  -28.9670 N   0  0  0  0  0  0  0  0  0  0  0  0
   -1.4790   24.3180  -26.9330 O   0  0  0  0  0  0  0  0  0  0  0  0
    0.5570   24.5730  -28.2580 O   0  0  0  0  0  0  0  0  0  0  0  0
   -2.7980   23.0250  -29.6900 C   0  0  0  0  0  0  0  0  0  0  0  0
   -3.1990   21.9610  -30.5030 C   0  0  0  0  0  0  0  0  0  0  0  0
   -5.8700   18.6350  -33.0580 C   0  0  0  0  0  0  0  0  0  0  0  0
   -7.2210   18.3830  -32.8240 C   0  0  0  0  0  0  0  0  0  0  0  0
   -8.0740   19.4160  -32.4350 C   0  0  0  0  0  0  0  0  0  0  0  0
   -7.5810   20.7260  -32.2690 C   0  0  0  0  0  0  0  0  0  0  0  0
  -10.0623   21.5968  -30.5226 H   0  0  0  0  0  0  0  0  0  0  0  0
  -10.4449   22.4542  -32.0540 H   0  0  0  0  0  0  0  0  0  0  0  0
  -10.2223   20.6717  -32.0540 H   0  0  0  0  0  0  0  0  0  0  0  0
   -8.4816   23.9274  -31.4179 H   0  0  0  0  0  0  0  0  0  0  0  0
   -6.0505   24.2738  -31.8410 H   0  0  0  0  0  0  0  0  0  0  0  0
   -0.1600   20.4773  -31.0042 H   0  0  0  0  0  0  0  0  0  0  0  0
    0.5553   22.3777  -29.5566 H   0  0  0  0  0  0  0  0  0  0  0  0
   -1.2290   26.0570  -29.9610 H   0  0  0  0  0  0  0  0  0  0  0  0
   -3.5452   23.7389  -29.3131 H   0  0  0  0  0  0  0  0  0  0  0  0
   -4.2614   21.8437  -30.7629 H   0  0  0  0  0  0  0  0  0  0  0  0
   -5.2056   17.8129  -33.3625 H   0  0  0  0  0  0  0  0  0  0  0  0
   -7.6166   17.3640  -32.9468 H   0  0  0  0  0  0  0  0  0  0  0  0
   -9.1391   19.2067  -32.2565 H   0  0  0  0  0  0  0  0  0  0  0  0
  1  2  1  0
  2  3  2  0
  3  4  1  0
  4  5  2  0
  5  6  1  0
  6  7  2  0
  7  8  1  0
  8  9  2  0
  8 10  2  0
  8 11  1  0
 11 12  1  0
 12 13  2  0
 13 14  1  0
 14 15  2  0
 15 16  1  0
 16 17  1  0
 16 18  2  0
 16 19  2  0
 15 20  1  0
 20 21  2  0
  7 22  1  0
 22 23  2  0
 23 24  1  0
 24 25  2  0
 25  2  1  0
 25  6  1  0
 21 12  1  0
  1 26  1  0
  1 27  1  0
  1 28  1  0
  3 29  1  0
  4 30  1  0
 13 31  1  0
 14 32  1  0
 17 33  1  0
 20 34  1  0
 21 35  1  0
 22 36  1  0
 23 37  1  0
 24 38  1  0
M  CHG  1  17  -1
M  END
>  <UniqueID>  (41) 
41

>  <SMILES>  (41) 
Cc1ccnc2c(S(=O)(=O)Oc3ccc(S([NH-])(=O)=O)cc3)cccc12

>  <Energy>  (41) 
45.468978881214525

>  <Genealogy>  (41) 
Cc1ccnc2c(S(=O)(=O)Oc3ccc(S([NH-])(=O)=O)cc3)cccc12 (protonated)
Cc1ccnc2c(S(=O)(=O)Oc3ccc(S([NH-])(=O)=O)cc3)cccc12 (3D coordinates assigned)
Cc1ccnc2c(S(=O)(=O)Oc3ccc(S([NH-])(=O)=O)cc3)cccc12 (optimized conformer: 45.468978881214525 kcal/mol)

>  <smiles>  (41) 
Cc1ccnc2c(S(=O)(=O)Oc3ccc(S(N)(=O)=O)cc3)cccc12

>  <score_type>  (41) 
oracle

>  <origin>  (41) 
adgpu

>  <m_score__min__energy>  (41) 
-11.44

>  <m_primary>  (41) 
energy

$$$$
41:0
     RDKit          3D

 63 66  0  0  0  0  0  0  0  0999 V2000
   -6.4370   25.5850  -29.6050 C   0  0  0  0  0  0  0  0  0  0  0  0
   -6.3940   24.9960  -30.9000 O   0  0  0  0  0  0  0  0  0  0  0  0
   -6.8180   23.6910  -31.1970 C   0  0  0  0  0  0  0  0  0  0  0  0
   -8.1410   23.4110  -31.5870 C   0  0  0  0  0  0  0  0  0  0  0  0
   -8.5340   22.1000  -31.8670 C   0  0  0  0  0  0  0  0  0  0  0  0
   -7.6150   21.0500  -31.7630 C   0  0  0  0  0  0  0  0  0  0  0  0
   -8.1160   19.3970  -32.1280 S   0  0  0  0  0  0  0  0  0  0  0  0
   -8.5930   18.7310  -30.8680 O   0  0  0  0  0  0  0  0  0  0  0  0
   -9.2630   19.4330  -33.0990 O   0  0  0  0  0  0  0  0  0  0  0  0
   -6.8080   18.4670  -32.8170 N   0  0  0  0  0  0  0  0  0  0  0  0
   -7.2500   17.1010  -33.1190 C   0  0  0  0  0  0  0  0  0  0  0  0
   -6.0390   16.2310  -33.5100 C   0  0  0  0  0  0  0  0  0  0  0  0
   -4.9330   17.0050  -34.1340 N   0  0  0  0  0  0  0  0  0  0  0  0
   -3.9050   17.3940  -33.1470 C   0  0  0  0  0  0  0  0  0  0  0  0
   -5.4310   18.1740  -34.8930 C   0  0  0  0  0  0  0  0  0  0  0  0
   -6.2830   19.1300  -34.0260 C   0  0  0  0  0  0  0  0  0  0  0  0
   -6.2980   21.3210  -31.3740 C   0  0  0  0  0  0  0  0  0  0  0  0
   -5.8920   22.6350  -31.0960 C   0  0  0  0  0  0  0  0  0  0  0  0
   -4.2270   22.9590  -30.6010 S   0  0  0  0  0  0  0  0  0  0  0  0
   -3.9110   24.4170  -30.7960 O   0  0  0  0  0  0  0  0  0  0  0  0
   -4.1270   22.6270  -29.1380 O   0  0  0  0  0  0  0  0  0  0  0  0
   -3.0830   21.9900  -31.5530 C   0  0  0  0  0  0  0  0  0  0  0  0
   -3.4360   21.6650  -32.8750 C   0  0  0  0  0  0  0  0  0  0  0  0
   -2.6010   20.8770  -33.6670 C   0  0  0  0  0  0  0  0  0  0  0  0
   -1.3950   20.4070  -33.1550 C   0  0  0  0  0  0  0  0  0  0  0  0
   -1.0130   20.7370  -31.8550 C   0  0  0  0  0  0  0  0  0  0  0  0
   -1.8310   21.5440  -31.0440 C   0  0  0  0  0  0  0  0  0  0  0  0
   -1.2490   21.9570  -29.4170 S   0  0  0  0  0  0  0  0  0  0  0  0
   -1.8770   23.2500  -28.9770 O   0  0  0  0  0  0  0  0  0  0  0  0
    0.2450   22.1120  -29.4140 O   0  0  0  0  0  0  0  0  0  0  0  0
   -1.6490   20.6900  -28.2580 C   0  0  0  0  0  0  0  0  0  0  0  0
   -2.9000   20.6720  -27.6220 C   0  0  0  0  0  0  0  0  0  0  0  0
   -3.2150   19.6520  -26.7190 C   0  0  0  0  0  0  0  0  0  0  0  0
   -2.2840   18.6440  -26.4500 C   0  0  0  0  0  0  0  0  0  0  0  0
   -1.0390   18.6530  -27.0860 C   0  0  0  0  0  0  0  0  0  0  0  0
   -0.7230   19.6720  -27.9890 C   0  0  0  0  0  0  0  0  0  0  0  0
   -6.3794   24.7956  -28.8411 H   0  0  0  0  0  0  0  0  0  0  0  0
   -5.5867   26.2727  -29.4865 H   0  0  0  0  0  0  0  0  0  0  0  0
   -7.3782   26.1419  -29.4865 H   0  0  0  0  0  0  0  0  0  0  0  0
   -8.8705   24.2299  -31.6719 H   0  0  0  0  0  0  0  0  0  0  0  0
   -9.5706   21.8922  -32.1706 H   0  0  0  0  0  0  0  0  0  0  0  0
   -7.7366   16.6707  -32.2313 H   0  0  0  0  0  0  0  0  0  0  0  0
   -7.9617   17.1281  -33.9573 H   0  0  0  0  0  0  0  0  0  0  0  0
   -5.6539   15.7416  -32.6032 H   0  0  0  0  0  0  0  0  0  0  0  0
   -6.3891   15.5042  -34.2578 H   0  0  0  0  0  0  0  0  0  0  0  0
   -4.4560   16.3740  -34.8220 H   0  0  0  0  0  0  0  0  0  0  0  0
   -4.2979   17.2453  -32.1304 H   0  0  0  0  0  0  0  0  0  0  0  0
   -3.0079   16.7732  -33.2878 H   0  0  0  0  0  0  0  0  0  0  0  0
   -3.6437   18.4532  -33.2878 H   0  0  0  0  0  0  0  0  0  0  0  0
   -4.5683   18.7311  -35.2871 H   0  0  0  0  0  0  0  0  0  0  0  0
   -6.0747   17.7958  -35.7009 H   0  0  0  0  0  0  0  0  0  0  0  0
   -5.6584   19.9821  -33.7198 H   0  0  0  0  0  0  0  0  0  0  0  0
   -7.1412   19.4595  -34.6302 H   0  0  0  0  0  0  0  0  0  0  0  0
   -5.5750   20.4967  -31.2855 H   0  0  0  0  0  0  0  0  0  0  0  0
   -4.3840   22.0375  -33.2903 H   0  0  0  0  0  0  0  0  0  0  0  0
   -2.8957   20.6268  -34.6968 H   0  0  0  0  0  0  0  0  0  0  0  0
   -0.7430   19.7751  -33.7760 H   0  0  0  0  0  0  0  0  0  0  0  0
   -0.0585   20.3608  -31.4583 H   0  0  0  0  0  0  0  0  0  0  0  0
   -3.6347   21.4626  -27.8345 H   0  0  0  0  0  0  0  0  0  0  0  0
   -4.1953   19.6425  -26.2202 H   0  0  0  0  0  0  0  0  0  0  0  0
   -2.5314   17.8433  -25.7374 H   0  0  0  0  0  0  0  0  0  0  0  0
   -0.3082   17.8582  -26.8758 H   0  0  0  0  0  0  0  0  0  0  0  0
    0.2560   19.6754  -28.4906 H   0  0  0  0  0  0  0  0  0  0  0  0
  1  2  1  0
  2  3  1  0
  3  4  2  0
  4  5  1  0
  5  6  2  0
  6  7  1  0
  7  8  2  0
  7  9  2  0
  7 10  1  0
 10 11  1  0
 11 12  1  0
 12 13  1  0
 13 14  1  0
 13 15  1  0
 15 16  1  0
  6 17  1  0
 17 18  2  0
 18 19  1  0
 19 20  2  0
 19 21  2  0
 19 22  1  0
 22 23  2  0
 23 24  1  0
 24 25  2  0
 25 26  1  0
 26 27  2  0
 27 28  1  0
 28 29  2  0
 28 30  2  0
 28 31  1  0
 31 32  2  0
 32 33  1  0
 33 34  2  0
 34 35  1  0
 35 36  2  0
 18  3  1  0
 27 22  1  0
 36 31  1  0
 16 10  1  0
  1 37  1  0
  1 38  1  0
  1 39  1  0
  4 40  1  0
  5 41  1  0
 11 42  1  0
 11 43  1  0
 12 44  1  0
 12 45  1  0
 13 46  1  0
 14 47  1  0
 14 48  1  0
 14 49  1  0
 15 50  1  0
 15 51  1  0
 16 52  1  0
 16 53  1  0
 17 54  1  0
 23 55  1  0
 24 56  1  0
 25 57  1  0
 26 58  1  0
 32 59  1  0
 33 60  1  0
 34 61  1  0
 35 62  1  0
 36 63  1  0
M  CHG  1  13   1
M  END
>  <UniqueID>  (42) 
42

>  <SMILES>  (42) 
COc1ccc(S(=O)(=O)N2CC[NH+](C)CC2)cc1S(=O)(=O)c1ccccc1S(=O)(=O)c1ccccc1

>  <Energy>  (42) 
82.98257599672

>  <Genealogy>  (42) 
COc1ccc(S(=O)(=O)N2CC[NH+](C)CC2)cc1S(=O)(=O)c1ccccc1S(=O)(=O)c1ccccc1 (protonated)
COc1ccc(S(=O)(=O)N2CC[NH+](C)CC2)cc1S(=O)(=O)c1ccccc1S(=O)(=O)c1ccccc1 (3D coordinates assigned)
COc1ccc(S(=O)(=O)N2CC[NH+](C)CC2)cc1S(=O)(=O)c1ccccc1S(=O)(=O)c1ccccc1 (nonaromatic ring conformer: 82.98257599672 kcal/mol)

>  <smiles>  (42) 
COc1ccc(S(=O)(=O)N2CCN(C)CC2)cc1S(=O)(=O)c1ccccc1S(=O)(=O)c1ccccc1

>  <score_type>  (42) 
oracle

>  <origin>  (42) 
adgpu

>  <m_score__min__energy>  (42) 
-11.369999999999999

>  <m_primary>  (42) 
energy

$$$$
42:0
     RDKit          3D

 53 56  0  0  0  0  0  0  0  0999 V2000
    0.3280   18.6590  -31.7920 C   0  0  0  0  0  0  0  0  0  0  0  0
   -0.9510   19.3460  -32.1710 C   0  0  0  0  0  0  0  0  0  0  0  0
   -1.4510   19.2170  -33.4710 C   0  0  0  0  0  0  0  0  0  0  0  0
   -2.6360   19.8560  -33.8360 C   0  0  0  0  0  0  0  0  0  0  0  0
   -3.3540   20.6250  -32.9040 C   0  0  0  0  0  0  0  0  0  0  0  0
   -4.5760   21.3870  -33.3680 C   0  0  0  0  0  0  0  0  0  0  0  0
   -5.7830   20.5650  -33.2590 N   0  0  0  0  0  0  0  0  0  0  0  0
   -5.8020   19.1300  -33.3740 C   0  0  0  0  0  0  0  0  0  0  0  0
   -5.7040   18.5450  -34.6460 C   0  0  0  0  0  0  0  0  0  0  0  0
   -5.7100   17.1540  -34.7910 C   0  0  0  0  0  0  0  0  0  0  0  0
   -5.8150   16.3270  -33.6640 C   0  0  0  0  0  0  0  0  0  0  0  0
   -5.8170   14.5780  -33.8510 S   0  0  0  0  0  0  0  0  0  0  0  0
   -7.1910   14.1090  -34.2350 O   0  0  0  0  0  0  0  0  0  0  0  0
   -4.8510   14.1790  -34.9320 O   0  0  0  0  0  0  0  0  0  0  0  0
   -5.3640   13.8640  -32.4070 F   0  0  0  0  0  0  0  0  0  0  0  0
   -5.9320   16.9040  -32.3940 C   0  0  0  0  0  0  0  0  0  0  0  0
   -5.9240   18.2940  -32.2470 C   0  0  0  0  0  0  0  0  0  0  0  0
   -2.8870   20.6950  -31.5670 C   0  0  0  0  0  0  0  0  0  0  0  0
   -3.5630   21.4130  -30.5750 O   0  0  0  0  0  0  0  0  0  0  0  0
   -3.3650   22.7690  -30.2850 C   0  0  0  0  0  0  0  0  0  0  0  0
   -4.1000   23.7480  -30.8510 N   0  0  0  0  0  0  0  0  0  0  0  0
   -3.6250   24.8670  -30.3770 O   0  0  0  0  0  0  0  0  0  0  0  0
   -2.6370   24.6780  -29.5550 N   0  0  0  0  0  0  0  0  0  0  0  0
   -1.9190   25.6840  -28.9550 O   0  0  0  0  0  0  0  0  0  0  0  0
   -2.4170   23.3580  -29.4580 C   0  0  0  0  0  0  0  0  0  0  0  0
   -1.0500   22.6230  -28.6140 S   0  0  0  0  0  0  0  0  0  0  0  0
    0.0640   22.3700  -29.5900 O   0  0  0  0  0  0  0  0  0  0  0  0
   -0.5600   23.5700  -27.5570 O   0  0  0  0  0  0  0  0  0  0  0  0
   -1.4980   21.0790  -27.8950 C   0  0  0  0  0  0  0  0  0  0  0  0
   -2.8110   20.8530  -27.4550 C   0  0  0  0  0  0  0  0  0  0  0  0
   -3.1580   19.6260  -26.8800 C   0  0  0  0  0  0  0  0  0  0  0  0
   -2.2010   18.6150  -26.7560 C   0  0  0  0  0  0  0  0  0  0  0  0
   -0.8970   18.8290  -27.2120 C   0  0  0  0  0  0  0  0  0  0  0  0
   -0.5450   20.0570  -27.7800 C   0  0  0  0  0  0  0  0  0  0  0  0
   -1.6750   20.0840  -31.2250 C   0  0  0  0  0  0  0  0  0  0  0  0
    0.4098   18.6151  -30.6959 H   0  0  0  0  0  0  0  0  0  0  0  0
    0.3309   17.6379  -32.2011 H   0  0  0  0  0  0  0  0  0  0  0  0
    1.1809   19.2204  -32.2011 H   0  0  0  0  0  0  0  0  0  0  0  0
   -0.9072   18.6088  -34.2089 H   0  0  0  0  0  0  0  0  0  0  0  0
   -3.0127   19.7570  -34.8647 H   0  0  0  0  0  0  0  0  0  0  0  0
   -4.6963   22.2861  -32.7458 H   0  0  0  0  0  0  0  0  0  0  0  0
   -4.4355   21.6630  -34.4235 H   0  0  0  0  0  0  0  0  0  0  0  0
   -6.6940   21.0640  -33.1390 H   0  0  0  0  0  0  0  0  0  0  0  0
   -5.6218   19.1859  -35.5362 H   0  0  0  0  0  0  0  0  0  0  0  0
   -5.6320   16.7072  -35.7931 H   0  0  0  0  0  0  0  0  0  0  0  0
   -6.0307   16.2604  -31.5074 H   0  0  0  0  0  0  0  0  0  0  0  0
   -6.0136   18.7379  -31.2446 H   0  0  0  0  0  0  0  0  0  0  0  0
   -3.5693   21.6426  -27.5625 H   0  0  0  0  0  0  0  0  0  0  0  0
   -4.1853   19.4566  -26.5250 H   0  0  0  0  0  0  0  0  0  0  0  0
   -2.4736   17.6518  -26.3000 H   0  0  0  0  0  0  0  0  0  0  0  0
   -0.1465   18.0297  -27.1237 H   0  0  0  0  0  0  0  0  0  0  0  0
    0.4821   20.2218  -28.1376 H   0  0  0  0  0  0  0  0  0  0  0  0
   -1.2860   20.1844  -30.2010 H   0  0  0  0  0  0  0  0  0  0  0  0
  1  2  1  0
  2  3  2  0
  3  4  1  0
  4  5  2  0
  5  6  1  0
  6  7  1  0
  7  8  1  0
  8  9  2  0
  9 10  1  0
 10 11  2  0
 11 12  1  0
 12 13  2  0
 12 14  2  0
 12 15  1  0
 11 16  1  0
 16 17  2  0
  5 18  1  0
 18 19  1  0
 19 20  1  0
 20 21  2  0
 21 22  1  0
 22 23  1  0
 23 24  1  0
 23 25  2  0
 25 26  1  0
 26 27  2  0
 26 28  2  0
 26 29  1  0
 29 30  2  0
 30 31  1  0
 31 32  2  0
 32 33  1  0
 33 34  2  0
 18 35  2  0
 35  2  1  0
 17  8  1  0
 25 20  1  0
 34 29  1  0
  1 36  1  0
  1 37  1  0
  1 38  1  0
  3 39  1  0
  4 40  1  0
  6 41  1  0
  6 42  1  0
  7 43  1  0
  9 44  1  0
 10 45  1  0
 16 46  1  0
 17 47  1  0
 30 48  1  0
 31 49  1  0
 32 50  1  0
 33 51  1  0
 34 52  1  0
 35 53  1  0
M  CHG  2  23   1  24  -1
M  END
>  <UniqueID>  (43) 
43

>  <SMILES>  (43) 
Cc1ccc(CNc2ccc(S(=O)(=O)F)cc2)c(Oc2no[n+]([O-])c2S(=O)(=O)c2ccccc2)c1

>  <Energy>  (43) 
103.93295130092916

>  <Genealogy>  (43) 
Cc1ccc(CNc2ccc(S(=O)(=O)F)cc2)c(Oc2no[n+]([O-])c2S(=O)(=O)c2ccccc2)c1 (3D coordinates assigned)
Cc1ccc(CNc2ccc(S(=O)(=O)F)cc2)c(Oc2no[n+]([O-])c2S(=O)(=O)c2ccccc2)c1 (optimized conformer: 103.93295130092916 kcal/mol)

>  <smiles>  (43) 
Cc1ccc(CNc2ccc(S(=O)(=O)F)cc2)c(Oc2no[n+]([O-])c2S(=O)(=O)c2ccccc2)c1

>  <score_type>  (43) 
oracle

>  <origin>  (43) 
adgpu

>  <m_score__min__energy>  (43) 
-11.23

>  <m_primary>  (43) 
energy

$$$$
43:0
     RDKit          3D

 59 62  0  0  0  0  0  0  0  0999 V2000
   -2.9820   20.2780  -33.0120 C   0  0  0  0  0  0  0  0  0  0  0  0
   -4.0700   19.8710  -33.8350 O   0  0  0  0  0  0  0  0  0  0  0  0
   -4.7580   18.6530  -33.7010 C   0  0  0  0  0  0  0  0  0  0  0  0
   -4.0830   17.4160  -33.6860 C   0  0  0  0  0  0  0  0  0  0  0  0
   -4.7950   16.2230  -33.5340 C   0  0  0  0  0  0  0  0  0  0  0  0
   -6.1820   16.2490  -33.3930 C   0  0  0  0  0  0  0  0  0  0  0  0
   -6.8640   17.4670  -33.4070 C   0  0  0  0  0  0  0  0  0  0  0  0
   -6.1630   18.6730  -33.5750 C   0  0  0  0  0  0  0  0  0  0  0  0
   -6.9130   19.9820  -33.5570 C   0  0  0  0  0  0  0  0  0  0  0  0
   -6.0910   21.0420  -32.9740 N   0  0  0  0  0  0  0  0  0  0  0  0
   -6.2070   21.3960  -31.5880 C   0  0  0  0  0  0  0  0  0  0  0  0
   -7.0160   20.7710  -30.8490 O   0  0  0  0  0  0  0  0  0  0  0  0
   -5.3920   22.4790  -31.0050 C   0  0  0  0  0  0  0  0  0  0  0  0
   -5.1750   23.7440  -31.5290 C   0  0  0  0  0  0  0  0  0  0  0  0
   -4.3530   24.3840  -30.6250 C   0  0  0  0  0  0  0  0  0  0  0  0
   -3.8590   25.6730  -30.7880 O   0  0  0  0  0  0  0  0  0  0  0  0
   -4.0640   23.5820  -29.5780 N   0  0  0  0  0  0  0  0  0  0  0  0
   -3.2360   23.8900  -28.4410 C   0  0  0  0  0  0  0  0  0  0  0  0
   -1.8820   23.5130  -28.4270 C   0  0  0  0  0  0  0  0  0  0  0  0
   -1.0760   23.8030  -27.3240 C   0  0  0  0  0  0  0  0  0  0  0  0
   -1.6120   24.4720  -26.2150 C   0  0  0  0  0  0  0  0  0  0  0  0
   -0.6120   24.8170  -24.8060 S   0  0  0  0  0  0  0  0  0  0  0  0
    0.8280   24.8290  -25.2410 O   0  0  0  0  0  0  0  0  0  0  0  0
   -0.7850   23.7330  -23.7790 O   0  0  0  0  0  0  0  0  0  0  0  0
   -1.0200   26.3770  -24.1240 N   0  0  0  0  0  0  0  0  0  0  0  0
   -0.1050   26.7650  -23.0310 C   0  0  0  0  0  0  0  0  0  0  0  0
    1.2850   27.1930  -23.5360 C   0  0  0  0  0  0  0  0  0  0  0  0
    1.2280   28.0240  -24.8310 C   0  0  0  0  0  0  0  0  0  0  0  0
   -0.1740   28.5630  -25.1010 C   0  0  0  0  0  0  0  0  0  0  0  0
   -1.1960   27.4130  -25.1740 C   0  0  0  0  0  0  0  0  0  0  0  0
   -2.9640   24.8360  -26.2160 C   0  0  0  0  0  0  0  0  0  0  0  0
   -3.7710   24.5480  -27.3200 C   0  0  0  0  0  0  0  0  0  0  0  0
   -4.6940   22.4110  -29.8100 C   0  0  0  0  0  0  0  0  0  0  0  0
   -3.2633   20.1728  -31.9538 H   0  0  0  0  0  0  0  0  0  0  0  0
   -2.1063   19.6466  -33.2231 H   0  0  0  0  0  0  0  0  0  0  0  0
   -2.7357   21.3291  -33.2231 H   0  0  0  0  0  0  0  0  0  0  0  0
   -2.9887   17.3893  -33.7946 H   0  0  0  0  0  0  0  0  0  0  0  0
   -4.2602   15.2618  -33.5256 H   0  0  0  0  0  0  0  0  0  0  0  0
   -6.7395   15.3086  -33.2706 H   0  0  0  0  0  0  0  0  0  0  0  0
   -7.9572   17.4826  -33.2857 H   0  0  0  0  0  0  0  0  0  0  0  0
   -7.1810   20.2586  -34.5874 H   0  0  0  0  0  0  0  0  0  0  0  0
   -7.8194   19.8613  -32.9456 H   0  0  0  0  0  0  0  0  0  0  0  0
   -5.4040   21.5460  -33.5790 H   0  0  0  0  0  0  0  0  0  0  0  0
   -5.5747   24.1520  -32.4691 H   0  0  0  0  0  0  0  0  0  0  0  0
   -1.4537   22.9852  -29.2919 H   0  0  0  0  0  0  0  0  0  0  0  0
   -0.0170   23.5054  -27.3255 H   0  0  0  0  0  0  0  0  0  0  0  0
   -0.5525   27.6057  -22.4806 H   0  0  0  0  0  0  0  0  0  0  0  0
    0.0346   25.8828  -22.3889 H   0  0  0  0  0  0  0  0  0  0  0  0
    1.7711   27.7956  -22.7546 H   0  0  0  0  0  0  0  0  0  0  0  0
    1.8493   26.2757  -23.7597 H   0  0  0  0  0  0  0  0  0  0  0  0
    1.9233   28.8715  -24.7404 H   0  0  0  0  0  0  0  0  0  0  0  0
    1.5081   27.3686  -25.6688 H   0  0  0  0  0  0  0  0  0  0  0  0
   -0.4595   29.2486  -24.2895 H   0  0  0  0  0  0  0  0  0  0  0  0
   -0.1691   29.0928  -26.0650 H   0  0  0  0  0  0  0  0  0  0  0  0
   -2.2045   27.8402  -25.0720 H   0  0  0  0  0  0  0  0  0  0  0  0
   -1.0420   26.9130  -26.1416 H   0  0  0  0  0  0  0  0  0  0  0  0
   -3.3929   25.3510  -25.3438 H   0  0  0  0  0  0  0  0  0  0  0  0
   -4.8320   24.8382  -27.3117 H   0  0  0  0  0  0  0  0  0  0  0  0
   -4.6585   21.5329  -29.1484 H   0  0  0  0  0  0  0  0  0  0  0  0
  1  2  1  0
  2  3  1  0
  3  4  2  0
  4  5  1  0
  5  6  2  0
  6  7  1  0
  7  8  2  0
  8  9  1  0
  9 10  1  0
 10 11  1  0
 11 12  2  0
 11 13  1  0
 13 14  1  0
 14 15  2  0
 15 16  1  0
 15 17  1  0
 17 18  1  0
 18 19  2  0
 19 20  1  0
 20 21  2  0
 21 22  1  0
 22 23  2  0
 22 24  2  0
 22 25  1  0
 25 26  1  0
 26 27  1  0
 27 28  1  0
 28 29  1  0
 29 30  1  0
 21 31  1  0
 31 32  2  0
 17 33  1  0
  8  3  1  0
 33 13  2  0
 32 18  1  0
 30 25  1  0
  1 34  1  0
  1 35  1  0
  1 36  1  0
  4 37  1  0
  5 38  1  0
  6 39  1  0
  7 40  1  0
  9 41  1  0
  9 42  1  0
 10 43  1  0
 14 44  1  0
 19 45  1  0
 20 46  1  0
 26 47  1  0
 26 48  1  0
 27 49  1  0
 27 50  1  0
 28 51  1  0
 28 52  1  0
 29 53  1  0
 29 54  1  0
 30 55  1  0
 30 56  1  0
 31 57  1  0
 32 58  1  0
 33 59  1  0
M  CHG  1  16  -1
M  END
>  <UniqueID>  (44) 
44

>  <SMILES>  (44) 
COc1ccccc1CNC(=O)c1cc([O-])n(-c2ccc(S(=O)(=O)N3CCCCC3)cc2)c1

>  <Energy>  (44) 
98.45671564923187

>  <Genealogy>  (44) 
COc1ccccc1CNC(=O)c1cc([O-])n(-c2ccc(S(=O)(=O)N3CCCCC3)cc2)c1 (protonated)
COc1ccccc1CNC(=O)c1cc([O-])n(-c2ccc(S(=O)(=O)N3CCCCC3)cc2)c1 (3D coordinates assigned)
COc1ccccc1CNC(=O)c1cc([O-])n(-c2ccc(S(=O)(=O)N3CCCCC3)cc2)c1 (nonaromatic ring conformer: 98.45671564923187 kcal/mol)

>  <smiles>  (44) 
COc1ccccc1CNC(=O)c1cc(O)n(-c2ccc(S(=O)(=O)N3CCCCC3)cc2)c1

>  <score_type>  (44) 
oracle

>  <origin>  (44) 
adgpu

>  <m_score__min__energy>  (44) 
-12.27

>  <m_primary>  (44) 
energy

$$$$
44:0
     RDKit          3D

 60 63  0  0  0  0  0  0  0  0999 V2000
   -4.6980   18.5620  -34.5570 C   0  0  0  0  0  0  0  0  0  0  0  0
   -3.9010   19.4270  -33.6160 C   0  0  0  0  0  0  0  0  0  0  0  0
   -2.5290   19.5770  -33.8620 C   0  0  0  0  0  0  0  0  0  0  0  0
   -1.7260   20.3150  -32.9930 C   0  0  0  0  0  0  0  0  0  0  0  0
   -2.2660   20.8790  -31.8350 C   0  0  0  0  0  0  0  0  0  0  0  0
   -1.4060   21.6430  -30.9790 N   0  0  0  0  0  0  0  0  0  0  0  0
   -1.1970   21.4410  -29.5760 C   0  0  0  0  0  0  0  0  0  0  0  0
   -1.3500   22.3980  -28.7700 O   0  0  0  0  0  0  0  0  0  0  0  0
   -0.8560   20.0960  -29.0650 C   0  0  0  0  0  0  0  0  0  0  0  0
   -1.3260   19.4620  -27.9230 C   0  0  0  0  0  0  0  0  0  0  0  0
   -2.2870   20.0040  -26.9140 C   0  0  0  0  0  0  0  0  0  0  0  0
   -0.7770   18.2340  -27.8350 N   0  0  0  0  0  0  0  0  0  0  0  0
    0.0050   18.0890  -28.8640 O   0  0  0  0  0  0  0  0  0  0  0  0
   -0.0000   19.1610  -29.6240 C   0  0  0  0  0  0  0  0  0  0  0  0
    0.7990   19.2910  -30.8800 C   0  0  0  0  0  0  0  0  0  0  0  0
   -3.6400   20.7410  -31.5800 C   0  0  0  0  0  0  0  0  0  0  0  0
   -4.4730   20.0500  -32.4760 C   0  0  0  0  0  0  0  0  0  0  0  0
   -5.9060   19.9020  -32.1320 C   0  0  0  0  0  0  0  0  0  0  0  0
   -6.4200   18.5950  -32.0700 C   0  0  0  0  0  0  0  0  0  0  0  0
   -7.7350   18.3640  -31.6680 C   0  0  0  0  0  0  0  0  0  0  0  0
   -8.5490   19.4320  -31.3010 C   0  0  0  0  0  0  0  0  0  0  0  0
   -8.0570   20.7370  -31.3550 C   0  0  0  0  0  0  0  0  0  0  0  0
   -6.7490   21.0010  -31.7930 C   0  0  0  0  0  0  0  0  0  0  0  0
   -6.2550   22.7100  -31.8800 S   0  0  0  0  0  0  0  0  0  0  0  0
   -7.3310   23.5580  -32.4940 O   0  0  0  0  0  0  0  0  0  0  0  0
   -5.0520   22.8070  -32.7770 O   0  0  0  0  0  0  0  0  0  0  0  0
   -5.8550   23.3880  -30.3140 N   0  0  0  0  0  0  0  0  0  0  0  0
   -6.4990   24.6850  -30.0340 C   0  0  0  0  0  0  0  0  0  0  0  0
   -5.6790   25.9130  -30.4950 C   0  0  0  0  0  0  0  0  0  0  0  0
   -4.2350   25.6650  -30.6100 N   0  0  0  0  0  0  0  0  0  0  0  0
   -3.7870   24.6560  -29.6510 C   0  0  0  0  0  0  0  0  0  0  0  0
   -4.4160   23.2890  -29.9800 C   0  0  1  0  0  0  0  0  0  0  0  0
   -4.2400   22.3210  -28.8100 C   0  0  0  0  0  0  0  0  0  0  0  0
   -5.3310   17.8750  -33.9762 H   0  0  0  0  0  0  0  0  0  0  0  0
   -5.3330   19.1983  -35.1910 H   0  0  0  0  0  0  0  0  0  0  0  0
   -4.0120   17.9811  -35.1910 H   0  0  0  0  0  0  0  0  0  0  0  0
   -2.0810   19.1074  -34.7502 H   0  0  0  0  0  0  0  0  0  0  0  0
   -0.6590   20.4540  -33.2213 H   0  0  0  0  0  0  0  0  0  0  0  0
   -1.9131   19.7931  -25.9012 H   0  0  0  0  0  0  0  0  0  0  0  0
   -2.3863   21.0911  -27.0492 H   0  0  0  0  0  0  0  0  0  0  0  0
   -3.2687   19.5265  -27.0492 H   0  0  0  0  0  0  0  0  0  0  0  0
    1.8555   19.4629  -30.6264 H   0  0  0  0  0  0  0  0  0  0  0  0
    0.7091   18.3664  -31.4691 H   0  0  0  0  0  0  0  0  0  0  0  0
    0.4206   20.1394  -31.4691 H   0  0  0  0  0  0  0  0  0  0  0  0
   -4.0696   21.1794  -30.6672 H   0  0  0  0  0  0  0  0  0  0  0  0
   -5.7773   17.7447  -32.3418 H   0  0  0  0  0  0  0  0  0  0  0  0
   -8.1293   17.3375  -31.6408 H   0  0  0  0  0  0  0  0  0  0  0  0
   -9.5810   19.2472  -30.9681 H   0  0  0  0  0  0  0  0  0  0  0  0
   -8.7042   21.5723  -31.0495 H   0  0  0  0  0  0  0  0  0  0  0  0
   -7.4707   24.7060  -30.5491 H   0  0  0  0  0  0  0  0  0  0  0  0
   -6.5943   24.7610  -28.9408 H   0  0  0  0  0  0  0  0  0  0  0  0
   -6.0543   26.2284  -31.4797 H   0  0  0  0  0  0  0  0  0  0  0  0
   -5.8063   26.6859  -29.7227 H   0  0  0  0  0  0  0  0  0  0  0  0
   -4.0220   25.3330  -31.5790 H   0  0  0  0  0  0  0  0  0  0  0  0
   -2.6912   24.5720  -29.6980 H   0  0  0  0  0  0  0  0  0  0  0  0
   -4.0987   24.9594  -28.6407 H   0  0  0  0  0  0  0  0  0  0  0  0
   -3.8877   22.9107  -30.8676 H   0  0  0  0  0  0  0  0  0  0  0  0
   -4.3398   22.8698  -27.8619 H   0  0  0  0  0  0  0  0  0  0  0  0
   -5.0104   21.5377  -28.8631 H   0  0  0  0  0  0  0  0  0  0  0  0
   -3.2431   21.8590  -28.8631 H   0  0  0  0  0  0  0  0  0  0  0  0
  1  2  1  0
  2  3  2  0
  3  4  1  0
  4  5  2  0
  5  6  1  0
  6  7  1  0
  7  8  2  0
  7  9  1  0
  9 10  1  0
 10 11  1  0
 10 12  2  0
 12 13  1  0
 13 14  1  0
 14 15  1  0
  5 16  1  0
 16 17  2  0
 17 18  1  0
 18 19  2  0
 19 20  1  0
 20 21  2  0
 21 22  1  0
 22 23  2  0
 23 24  1  0
 24 25  2  0
 24 26  2  0
 24 27  1  0
 27 28  1  0
 28 29  1  0
 29 30  1  0
 30 31  1  0
 31 32  1  0
 32 33  1  0
 17  2  1  0
 23 18  1  0
 32 27  1  0
 14  9  2  0
  1 34  1  0
  1 35  1  0
  1 36  1  0
  3 37  1  0
  4 38  1  0
 11 39  1  0
 11 40  1  0
 11 41  1  0
 15 42  1  0
 15 43  1  0
 15 44  1  0
 16 45  1  0
 19 46  1  0
 20 47  1  0
 21 48  1  0
 22 49  1  0
 28 50  1  0
 28 51  1  0
 29 52  1  0
 29 53  1  0
 30 54  1  0
 31 55  1  0
 31 56  1  0
 32 57  1  6
 33 58  1  0
 33 59  1  0
 33 60  1  0
M  CHG  1   6  -1
M  END
>  <UniqueID>  (45) 
45

>  <SMILES>  (45) 
Cc1ccc([N-]C(=O)c2c(C)noc2C)cc1-c1ccccc1S(=O)(=O)N1CCNC[C@H]1C

>  <Energy>  (45) 
114.261544164605

>  <Genealogy>  (45) 
Cc1ccc([N-]C(=O)c2c(C)noc2C)cc1-c1ccccc1S(=O)(=O)N1CCNCC1C (protonated)
Cc1ccc([N-]C(=O)c2c(C)noc2C)cc1-c1ccccc1S(=O)(=O)N1CCNC[C@H]1C (chirality)
Cc1ccc([N-]C(=O)c2c(C)noc2C)cc1-c1ccccc1S(=O)(=O)N1CCNC[C@H]1C (3D coordinates assigned)
Cc1ccc([N-]C(=O)c2c(C)noc2C)cc1-c1ccccc1S(=O)(=O)N1CCNC[C@H]1C (nonaromatic ring conformer: 114.261544164605 kcal/mol)

>  <smiles>  (45) 
Cc1ccc(NC(=O)c2c(C)noc2C)cc1-c1ccccc1S(=O)(=O)N1CCNCC1C

>  <score_type>  (45) 
oracle

>  <origin>  (45) 
adgpu

>  <m_score__min__energy>  (45) 
-11.18

>  <m_primary>  (45) 
energy

$$$$
45:0
     RDKit          3D

 47 50  0  0  0  0  0  0  0  0999 V2000
   -5.5980   25.1230  -30.4440 C   0  0  0  0  0  0  0  0  0  0  0  0
   -4.2410   24.6980  -30.4780 O   0  0  0  0  0  0  0  0  0  0  0  0
   -3.8700   23.4030  -30.1000 C   0  0  0  0  0  0  0  0  0  0  0  0
   -3.6020   23.1060  -28.7490 C   0  0  0  0  0  0  0  0  0  0  0  0
   -3.7430   24.1130  -27.7290 C   0  0  0  0  0  0  0  0  0  0  0  0
   -3.8590   24.9220  -26.9090 N   0  0  0  0  0  0  0  0  0  0  0  0
   -3.2280   21.8080  -28.3790 C   0  0  0  0  0  0  0  0  0  0  0  0
   -3.1310   20.8040  -29.3420 C   0  0  0  0  0  0  0  0  0  0  0  0
   -3.4100   21.0870  -30.6800 C   0  0  0  0  0  0  0  0  0  0  0  0
   -3.7820   22.3830  -31.0710 C   0  0  0  0  0  0  0  0  0  0  0  0
   -4.1000   22.6430  -32.5230 C   0  0  0  0  0  0  0  0  0  0  0  0
   -5.5050   22.8190  -32.6980 O   0  0  0  0  0  0  0  0  0  0  0  0
   -6.4590   21.8610  -32.3270 C   0  0  0  0  0  0  0  0  0  0  0  0
   -7.5500   22.2250  -31.5970 N   0  0  0  0  0  0  0  0  0  0  0  0
   -8.4970   21.3310  -31.2130 C   0  0  0  0  0  0  0  0  0  0  0  0
   -8.3760   19.9870  -31.5620 C   0  0  0  0  0  0  0  0  0  0  0  0
   -7.2700   19.5680  -32.3130 C   0  0  0  0  0  0  0  0  0  0  0  0
   -7.1230   18.2220  -32.6780 C   0  0  0  0  0  0  0  0  0  0  0  0
   -6.0120   17.8090  -33.4250 C   0  0  0  0  0  0  0  0  0  0  0  0
   -5.8460   16.1190  -33.8860 S   0  0  0  0  0  0  0  0  0  0  0  0
   -7.1610   15.6000  -34.3970 O   0  0  0  0  0  0  0  0  0  0  0  0
   -4.8110   16.0000  -34.9700 O   0  0  0  0  0  0  0  0  0  0  0  0
   -5.3550   15.2070  -32.4950 N   0  0  0  0  0  0  0  0  0  0  0  0
   -4.5720   14.1720  -32.5400 C   0  0  0  0  0  0  0  0  0  0  0  0
   -4.1750   13.4400  -31.4450 C   0  0  0  0  0  0  0  0  0  0  0  0
   -3.3660   12.4600  -31.9900 C   0  0  0  0  0  0  0  0  0  0  0  0
   -3.3130   12.6300  -33.2950 O   0  0  0  0  0  0  0  0  0  0  0  0
   -4.0290   13.6520  -33.6560 N   0  0  0  0  0  0  0  0  0  0  0  0
   -5.0510   18.7490  -33.8190 C   0  0  0  0  0  0  0  0  0  0  0  0
   -5.1870   20.0930  -33.4610 C   0  0  0  0  0  0  0  0  0  0  0  0
   -6.2950   20.5160  -32.7060 C   0  0  0  0  0  0  0  0  0  0  0  0
   -5.9241   25.2251  -29.3984 H   0  0  0  0  0  0  0  0  0  0  0  0
   -5.6912   26.0934  -30.9536 H   0  0  0  0  0  0  0  0  0  0  0  0
   -6.2281   24.3792  -30.9536 H   0  0  0  0  0  0  0  0  0  0  0  0
   -3.0100   21.5797  -27.3253 H   0  0  0  0  0  0  0  0  0  0  0  0
   -2.8340   19.7869  -29.0465 H   0  0  0  0  0  0  0  0  0  0  0  0
   -3.3379   20.2889  -31.4335 H   0  0  0  0  0  0  0  0  0  0  0  0
   -3.5765   23.5528  -32.8519 H   0  0  0  0  0  0  0  0  0  0  0  0
   -3.7699   21.7812  -33.1216 H   0  0  0  0  0  0  0  0  0  0  0  0
   -9.3628   21.6686  -30.6244 H   0  0  0  0  0  0  0  0  0  0  0  0
   -9.1421   19.2617  -31.2505 H   0  0  0  0  0  0  0  0  0  0  0  0
   -7.8837   17.4869  -32.3764 H   0  0  0  0  0  0  0  0  0  0  0  0
   -4.4382   13.5968  -30.3885 H   0  0  0  0  0  0  0  0  0  0  0  0
   -2.8511   11.6682  -31.4261 H   0  0  0  0  0  0  0  0  0  0  0  0
   -4.1390   13.9790  -34.6410 H   0  0  0  0  0  0  0  0  0  0  0  0
   -4.1837   18.4271  -34.4141 H   0  0  0  0  0  0  0  0  0  0  0  0
   -4.4244   20.8226  -33.7710 H   0  0  0  0  0  0  0  0  0  0  0  0
  1  2  1  0
  2  3  1  0
  3  4  2  0
  4  5  1  0
  5  6  3  0
  4  7  1  0
  7  8  2  0
  8  9  1  0
  9 10  2  0
 10 11  1  0
 11 12  1  0
 12 13  1  0
 13 14  2  0
 14 15  1  0
 15 16  2  0
 16 17  1  0
 17 18  2  0
 18 19  1  0
 19 20  1  0
 20 21  2  0
 20 22  2  0
 20 23  1  0
 23 24  2  3
 24 25  1  0
 25 26  2  0
 26 27  1  0
 27 28  1  0
 19 29  2  0
 29 30  1  0
 30 31  2  0
 10  3  1  0
 31 13  1  0
 31 17  1  0
 28 24  1  0
  1 32  1  0
  1 33  1  0
  1 34  1  0
  7 35  1  0
  8 36  1  0
  9 37  1  0
 11 38  1  0
 11 39  1  0
 15 40  1  0
 16 41  1  0
 18 42  1  0
 25 43  1  0
 26 44  1  0
 28 45  1  0
 29 46  1  0
 30 47  1  0
M  END
>  <UniqueID>  (46) 
46

>  <SMILES>  (46) 
COc1c(C#N)cccc1COc1nccc2cc(S(=O)(=O)N=c3cco[nH]3)ccc12

>  <Energy>  (46) 
95.90754414323587

>  <Genealogy>  (46) 
COc1c(C#N)cccc1COc1nccc2cc(S(=O)(=O)N=c3cco[nH]3)ccc12 (3D coordinates assigned)
COc1c(C#N)cccc1COc1nccc2cc(S(=O)(=O)N=c3cco[nH]3)ccc12 (optimized conformer: 95.90754414323587 kcal/mol)

>  <smiles>  (46) 
COc1c(C#N)cccc1COc1nccc2cc(S(=O)(=O)N=c3cco[nH]3)ccc12

>  <score_type>  (46) 
oracle

>  <origin>  (46) 
adgpu

>  <m_score__min__energy>  (46) 
-10.5

>  <m_primary>  (46) 
energy

$$$$
46:0
     RDKit          3D

 53 56  0  0  0  0  0  0  0  0999 V2000
   -3.9800   25.3080  -30.8260 O   0  0  0  0  0  0  0  0  0  0  0  0
   -3.8050   24.1800  -30.2940 C   0  0  0  0  0  0  0  0  0  0  0  0
   -3.3980   24.1250  -28.9190 N   0  0  0  0  0  0  0  0  0  0  0  0
   -2.7340   23.0250  -28.2770 C   0  0  0  0  0  0  0  0  0  0  0  0
   -3.3770   21.7810  -28.1340 C   0  0  0  0  0  0  0  0  0  0  0  0
   -2.7330   20.7230  -27.4890 C   0  0  0  0  0  0  0  0  0  0  0  0
   -1.4520   20.8990  -26.9660 C   0  0  0  0  0  0  0  0  0  0  0  0
   -0.8110   22.1350  -27.0820 C   0  0  0  0  0  0  0  0  0  0  0  0
   -1.4450   23.2060  -27.7350 C   0  0  0  0  0  0  0  0  0  0  0  0
   -0.6240   24.7650  -27.8870 S   0  0  0  0  0  0  0  0  0  0  0  0
   -1.2540   25.5490  -29.0030 O   0  0  0  0  0  0  0  0  0  0  0  0
    0.8250   24.5350  -28.2160 O   0  0  0  0  0  0  0  0  0  0  0  0
   -0.7190   25.7000  -26.3950 C   0  0  0  0  0  0  0  0  0  0  0  0
   -0.8440   27.0960  -26.4390 C   0  0  0  0  0  0  0  0  0  0  0  0
   -0.9410   27.8300  -25.2530 C   0  0  0  0  0  0  0  0  0  0  0  0
   -0.9180   27.1750  -24.0190 C   0  0  0  0  0  0  0  0  0  0  0  0
   -0.8010   25.7820  -23.9690 C   0  0  0  0  0  0  0  0  0  0  0  0
   -0.7040   25.0450  -25.1550 C   0  0  0  0  0  0  0  0  0  0  0  0
   -3.9710   22.9560  -31.1120 C   0  0  0  0  0  0  0  0  0  0  0  0
   -2.8590   22.3190  -31.6880 C   0  0  0  0  0  0  0  0  0  0  0  0
   -3.0270   21.1680  -32.4620 C   0  0  0  0  0  0  0  0  0  0  0  0
   -4.3050   20.6500  -32.6800 C   0  0  0  0  0  0  0  0  0  0  0  0
   -5.4260   21.2860  -32.1310 C   0  0  0  0  0  0  0  0  0  0  0  0
   -7.0440   20.6490  -32.4310 S   0  0  0  0  0  0  0  0  0  0  0  0
   -7.2080   20.3900  -33.9030 O   0  0  0  0  0  0  0  0  0  0  0  0
   -8.0630   21.6770  -32.0270 O   0  0  0  0  0  0  0  0  0  0  0  0
   -7.3410   19.1660  -31.5460 N   0  0  0  0  0  0  0  0  0  0  0  0
   -6.0870   18.4610  -31.2590 C   0  0  0  0  0  0  0  0  0  0  0  0
   -5.8970   17.3750  -32.3060 C   0  0  0  0  0  0  0  0  0  0  0  0
   -7.2440   17.2160  -32.9840 C   0  0  0  0  0  0  0  0  0  0  0  0
   -8.1630   18.2360  -32.3280 C   0  0  0  0  0  0  0  0  0  0  0  0
   -5.2550   22.4360  -31.3470 C   0  0  0  0  0  0  0  0  0  0  0  0
   -4.3927   21.6414  -28.5326 H   0  0  0  0  0  0  0  0  0  0  0  0
   -3.2365   19.7497  -27.3933 H   0  0  0  0  0  0  0  0  0  0  0  0
   -0.9455   20.0631  -26.4613 H   0  0  0  0  0  0  0  0  0  0  0  0
    0.1957   22.2707  -26.6598 H   0  0  0  0  0  0  0  0  0  0  0  0
   -0.8658   27.6147  -27.4088 H   0  0  0  0  0  0  0  0  0  0  0  0
   -1.0356   28.9252  -25.2914 H   0  0  0  0  0  0  0  0  0  0  0  0
   -0.9919   27.7547  -23.0870 H   0  0  0  0  0  0  0  0  0  0  0  0
   -0.7852   25.2658  -22.9978 H   0  0  0  0  0  0  0  0  0  0  0  0
   -0.6158   23.9493  -25.1144 H   0  0  0  0  0  0  0  0  0  0  0  0
   -1.8507   22.7287  -31.5287 H   0  0  0  0  0  0  0  0  0  0  0  0
   -2.1504   20.6688  -32.9006 H   0  0  0  0  0  0  0  0  0  0  0  0
   -4.4321   19.7399  -33.2846 H   0  0  0  0  0  0  0  0  0  0  0  0
   -5.2454   19.1681  -31.3001 H   0  0  0  0  0  0  0  0  0  0  0  0
   -6.1254   18.0150  -30.2542 H   0  0  0  0  0  0  0  0  0  0  0  0
   -5.1331   17.6773  -33.0375 H   0  0  0  0  0  0  0  0  0  0  0  0
   -5.5568   16.4315  -31.8542 H   0  0  0  0  0  0  0  0  0  0  0  0
   -7.1562   17.4173  -34.0618 H   0  0  0  0  0  0  0  0  0  0  0  0
   -7.6329   16.1928  -32.8755 H   0  0  0  0  0  0  0  0  0  0  0  0
   -8.7158   18.7893  -33.1015 H   0  0  0  0  0  0  0  0  0  0  0  0
   -8.8848   17.7271  -31.6722 H   0  0  0  0  0  0  0  0  0  0  0  0
   -6.1335   22.9352  -30.9123 H   0  0  0  0  0  0  0  0  0  0  0  0
  1  2  2  0
  2  3  1  0
  3  4  1  0
  4  5  2  0
  5  6  1  0
  6  7  2  0
  7  8  1  0
  8  9  2  0
  9 10  1  0
 10 11  2  0
 10 12  2  0
 10 13  1  0
 13 14  2  0
 14 15  1  0
 15 16  2  0
 16 17  1  0
 17 18  2  0
  2 19  1  0
 19 20  2  0
 20 21  1  0
 21 22  2  0
 22 23  1  0
 23 24  1  0
 24 25  2  0
 24 26  2  0
 24 27  1  0
 27 28  1  0
 28 29  1  0
 29 30  1  0
 30 31  1  0
 23 32  2  0
  9  4  1  0
 18 13  1  0
 32 19  1  0
 31 27  1  0
  5 33  1  0
  6 34  1  0
  7 35  1  0
  8 36  1  0
 14 37  1  0
 15 38  1  0
 16 39  1  0
 17 40  1  0
 18 41  1  0
 20 42  1  0
 21 43  1  0
 22 44  1  0
 28 45  1  0
 28 46  1  0
 29 47  1  0
 29 48  1  0
 30 49  1  0
 30 50  1  0
 31 51  1  0
 31 52  1  0
 32 53  1  0
M  CHG  1   3  -1
M  END
>  <UniqueID>  (47) 
47

>  <SMILES>  (47) 
O=C([N-]c1ccccc1S(=O)(=O)c1ccccc1)c1cccc(S(=O)(=O)N2CCCC2)c1

>  <Energy>  (47) 
66.3371984413946

>  <Genealogy>  (47) 
O=C([N-]c1ccccc1S(=O)(=O)c1ccccc1)c1cccc(S(=O)(=O)N2CCCC2)c1 (protonated)
O=C([N-]c1ccccc1S(=O)(=O)c1ccccc1)c1cccc(S(=O)(=O)N2CCCC2)c1 (3D coordinates assigned)
O=C([N-]c1ccccc1S(=O)(=O)c1ccccc1)c1cccc(S(=O)(=O)N2CCCC2)c1 (nonaromatic ring conformer: 66.3371984413946 kcal/mol)

>  <smiles>  (47) 
O=C(Nc1ccccc1S(=O)(=O)c1ccccc1)c1cccc(S(=O)(=O)N2CCCC2)c1

>  <score_type>  (47) 
oracle

>  <origin>  (47) 
adgpu

>  <m_score__min__energy>  (47) 
-13.06

>  <m_primary>  (47) 
energy

$$$$
47:0
     RDKit          3D

 56 59  0  0  0  0  0  0  0  0999 V2000
   -5.4950   26.4710  -30.4650 O   0  0  0  0  0  0  0  0  0  0  0  0
   -4.9270   25.3450  -30.5220 C   0  0  0  0  0  0  0  0  0  0  0  0
   -3.5110   25.2450  -30.3190 N   0  0  0  0  0  0  0  0  0  0  0  0
   -2.8400   24.3950  -29.3760 C   0  0  0  0  0  0  0  0  0  0  0  0
   -3.4130   23.1840  -28.9450 C   0  0  0  0  0  0  0  0  0  0  0  0
   -2.7350   22.3620  -28.0430 C   0  0  0  0  0  0  0  0  0  0  0  0
   -1.4750   22.7310  -27.5620 C   0  0  0  0  0  0  0  0  0  0  0  0
   -0.6150   21.6760  -26.4450 S   0  0  0  0  0  0  0  0  0  0  0  0
   -1.6010   20.8380  -25.6770 O   0  0  0  0  0  0  0  0  0  0  0  0
    0.2840   20.7590  -27.2280 O   0  0  0  0  0  0  0  0  0  0  0  0
    0.3480   22.6460  -25.3580 N   0  0  0  0  0  0  0  0  0  0  0  0
    1.3880   23.3770  -26.0800 C   0  0  0  0  0  0  0  0  0  0  0  0
    1.7070   24.6050  -25.2430 C   0  0  0  0  0  0  0  0  0  0  0  0
    0.4780   24.8200  -24.3690 C   0  0  0  0  0  0  0  0  0  0  0  0
   -0.4610   23.6710  -24.7010 C   0  0  0  0  0  0  0  0  0  0  0  0
   -0.8830   23.9180  -28.0140 C   0  0  0  0  0  0  0  0  0  0  0  0
   -1.5550   24.7470  -28.9190 C   0  0  0  0  0  0  0  0  0  0  0  0
   -0.9280   25.9170  -29.3490 O   0  0  0  0  0  0  0  0  0  0  0  0
   -5.7170   24.1360  -30.8530 C   0  0  0  0  0  0  0  0  0  0  0  0
   -6.7660   23.7130  -30.0150 C   0  0  0  0  0  0  0  0  0  0  0  0
   -7.5130   22.5750  -30.3330 C   0  0  0  0  0  0  0  0  0  0  0  0
   -7.2260   21.8430  -31.4920 C   0  0  0  0  0  0  0  0  0  0  0  0
   -8.1570   20.4010  -31.8830 S   0  0  0  0  0  0  0  0  0  0  0  0
   -8.6910   19.7850  -30.6190 O   0  0  0  0  0  0  0  0  0  0  0  0
   -9.3220   20.7840  -32.7540 O   0  0  0  0  0  0  0  0  0  0  0  0
   -7.1400   19.2690  -32.7390 N   0  0  0  0  0  0  0  0  0  0  0  0
   -5.8270   19.1490  -32.1050 C   0  0  0  0  0  0  0  0  0  0  0  0
   -5.3130   17.7550  -32.4310 C   0  0  0  0  0  0  0  0  0  0  0  0
   -6.5440   16.9530  -32.8220 C   0  0  0  0  0  0  0  0  0  0  0  0
   -7.7110   17.9220  -32.7160 C   0  0  0  0  0  0  0  0  0  0  0  0
   -6.1780   22.2520  -32.3250 C   0  0  0  0  0  0  0  0  0  0  0  0
   -5.4320   23.3920  -32.0120 C   0  0  0  0  0  0  0  0  0  0  0  0
   -4.4018   22.8831  -29.3214 H   0  0  0  0  0  0  0  0  0  0  0  0
   -3.1941   21.4198  -27.7092 H   0  0  0  0  0  0  0  0  0  0  0  0
    2.2848   22.7503  -26.1936 H   0  0  0  0  0  0  0  0  0  0  0  0
    1.0516   23.6577  -27.0890 H   0  0  0  0  0  0  0  0  0  0  0  0
    2.5969   24.4279  -24.6211 H   0  0  0  0  0  0  0  0  0  0  0  0
    1.9274   25.4834  -25.8674 H   0  0  0  0  0  0  0  0  0  0  0  0
    0.7540   24.7959  -23.3045 H   0  0  0  0  0  0  0  0  0  0  0  0
    0.0096   25.7976  -24.5559 H   0  0  0  0  0  0  0  0  0  0  0  0
   -0.9086   23.2686  -23.7803 H   0  0  0  0  0  0  0  0  0  0  0  0
   -1.2821   24.0056  -25.3521 H   0  0  0  0  0  0  0  0  0  0  0  0
    0.1176   24.2002  -27.6546 H   0  0  0  0  0  0  0  0  0  0  0  0
   -1.2400   26.4330  -30.1630 H   0  0  0  0  0  0  0  0  0  0  0  0
   -6.9996   24.2822  -29.1032 H   0  0  0  0  0  0  0  0  0  0  0  0
   -8.3297   22.2531  -29.6701 H   0  0  0  0  0  0  0  0  0  0  0  0
   -5.1410   19.9098  -32.5057 H   0  0  0  0  0  0  0  0  0  0  0  0
   -5.8958   19.3024  -31.0179 H   0  0  0  0  0  0  0  0  0  0  0  0
   -4.5977   17.7939  -33.2657 H   0  0  0  0  0  0  0  0  0  0  0  0
   -4.7842   17.3038  -31.5785 H   0  0  0  0  0  0  0  0  0  0  0  0
   -6.4477   16.5785  -33.8518 H   0  0  0  0  0  0  0  0  0  0  0  0
   -6.6822   16.0754  -32.1733 H   0  0  0  0  0  0  0  0  0  0  0  0
   -8.3958   17.7856  -33.5659 H   0  0  0  0  0  0  0  0  0  0  0  0
   -8.2860   17.7508  -31.7940 H   0  0  0  0  0  0  0  0  0  0  0  0
   -5.9404   21.6737  -33.2300 H   0  0  0  0  0  0  0  0  0  0  0  0
   -4.6157   23.7097  -32.6774 H   0  0  0  0  0  0  0  0  0  0  0  0
  1  2  2  0
  2  3  1  0
  3  4  1  0
  4  5  2  0
  5  6  1  0
  6  7  2  0
  7  8  1  0
  8  9  2  0
  8 10  2  0
  8 11  1  0
 11 12  1  0
 12 13  1  0
 13 14  1  0
 14 15  1  0
  7 16  1  0
 16 17  2  0
 17 18  1  0
  2 19  1  0
 19 20  2  0
 20 21  1  0
 21 22  2  0
 22 23  1  0
 23 24  2  0
 23 25  2  0
 23 26  1  0
 26 27  1  0
 27 28  1  0
 28 29  1  0
 29 30  1  0
 22 31  1  0
 31 32  2  0
 17  4  1  0
 32 19  1  0
 15 11  1  0
 30 26  1  0
  5 33  1  0
  6 34  1  0
 12 35  1  0
 12 36  1  0
 13 37  1  0
 13 38  1  0
 14 39  1  0
 14 40  1  0
 15 41  1  0
 15 42  1  0
 16 43  1  0
 18 44  1  0
 20 45  1  0
 21 46  1  0
 27 47  1  0
 27 48  1  0
 28 49  1  0
 28 50  1  0
 29 51  1  0
 29 52  1  0
 30 53  1  0
 30 54  1  0
 31 55  1  0
 32 56  1  0
M  CHG  1   3  -1
M  END
>  <UniqueID>  (48) 
48

>  <SMILES>  (48) 
O=C([N-]c1ccc(S(=O)(=O)N2CCCC2)cc1O)c1ccc(S(=O)(=O)N2CCCC2)cc1

>  <Energy>  (48) 
63.74372664422885

>  <Genealogy>  (48) 
O=C([N-]c1ccc(S(=O)(=O)N2CCCC2)cc1O)c1ccc(S(=O)(=O)N2CCCC2)cc1 (protonated)
O=C([N-]c1ccc(S(=O)(=O)N2CCCC2)cc1O)c1ccc(S(=O)(=O)N2CCCC2)cc1 (3D coordinates assigned)
O=C([N-]c1ccc(S(=O)(=O)N2CCCC2)cc1O)c1ccc(S(=O)(=O)N2CCCC2)cc1 (nonaromatic ring conformer: 63.74372664422885 kcal/mol)

>  <smiles>  (48) 
O=C(Nc1ccc(S(=O)(=O)N2CCCC2)cc1O)c1ccc(S(=O)(=O)N2CCCC2)cc1

>  <score_type>  (48) 
oracle

>  <origin>  (48) 
adgpu

>  <m_score__min__energy>  (48) 
-13.99

>  <m_primary>  (48) 
energy

$$$$
48:0
     RDKit          3D

 63 66  0  0  0  0  0  0  0  0999 V2000
    0.7150   19.2730  -31.5880 C   0  0  0  0  0  0  0  0  0  0  0  0
    1.9720   18.3050  -30.7780 S   0  0  0  0  0  0  0  0  0  0  0  0
    3.3030   18.9830  -30.9490 O   0  0  0  0  0  0  0  0  0  0  0  0
    2.0210   16.9510  -31.4300 O   0  0  0  0  0  0  0  0  0  0  0  0
    1.5960   18.1320  -29.0780 N   0  0  0  0  0  0  0  0  0  0  0  0
    0.1710   17.7600  -28.8940 C   0  0  0  0  0  0  0  0  0  0  0  0
   -0.4360   18.3490  -27.6170 C   0  0  0  0  0  0  0  0  0  0  0  0
   -0.2900   19.8030  -27.6520 N   0  0  0  0  0  0  0  0  0  0  0  0
   -1.2920   20.6400  -27.0560 C   0  0  0  0  0  0  0  0  0  0  0  0
   -1.7770   20.3230  -25.9360 O   0  0  0  0  0  0  0  0  0  0  0  0
   -1.7940   21.8440  -27.7540 C   0  0  0  0  0  0  0  0  0  0  0  0
   -1.9930   23.0430  -27.0500 C   0  0  0  0  0  0  0  0  0  0  0  0
   -2.4450   24.1850  -27.7140 C   0  0  0  0  0  0  0  0  0  0  0  0
   -2.6690   24.1530  -29.0930 C   0  0  0  0  0  0  0  0  0  0  0  0
   -3.1140   25.2990  -29.7420 O   0  0  0  0  0  0  0  0  0  0  0  0
   -2.4290   22.9780  -29.8190 C   0  0  0  0  0  0  0  0  0  0  0  0
   -2.6490   22.9700  -31.2330 N   0  0  0  0  0  0  0  0  0  0  0  0
   -3.0250   21.5510  -32.1580 S   0  0  0  0  0  0  0  0  0  0  0  0
   -2.3060   20.3720  -31.5660 O   0  0  0  0  0  0  0  0  0  0  0  0
   -2.5350   21.7470  -33.5680 O   0  0  0  0  0  0  0  0  0  0  0  0
   -4.7530   21.2080  -32.1860 C   0  0  0  0  0  0  0  0  0  0  0  0
   -5.6750   22.2630  -32.2100 C   0  0  0  0  0  0  0  0  0  0  0  0
   -7.0450   21.9970  -32.2790 C   0  0  0  0  0  0  0  0  0  0  0  0
   -7.5030   20.6780  -32.3130 C   0  0  0  0  0  0  0  0  0  0  0  0
   -6.5910   19.6150  -32.2670 C   0  0  0  0  0  0  0  0  0  0  0  0
   -7.1680   17.9470  -32.2510 S   0  0  0  0  0  0  0  0  0  0  0  0
   -8.6450   17.9390  -31.9700 O   0  0  0  0  0  0  0  0  0  0  0  0
   -6.4840   17.1990  -31.1410 O   0  0  0  0  0  0  0  0  0  0  0  0
   -6.8720   17.1350  -33.7740 N   0  0  0  0  0  0  0  0  0  0  0  0
   -6.0950   17.9830  -34.6840 C   0  0  0  0  0  0  0  0  0  0  0  0
   -4.6300   17.5820  -34.5760 C   0  0  0  0  0  0  0  0  0  0  0  0
   -4.6250   16.2300  -33.8940 C   0  0  0  0  0  0  0  0  0  0  0  0
   -6.0820   15.9150  -33.5820 C   0  0  0  0  0  0  0  0  0  0  0  0
   -5.2150   19.8840  -32.2170 C   0  0  0  0  0  0  0  0  0  0  0  0
   -2.0250   21.8170  -29.1400 C   0  0  0  0  0  0  0  0  0  0  0  0
    0.9560   20.3900  -28.1600 C   0  0  0  0  0  0  0  0  0  0  0  0
    2.0450   19.3160  -28.3070 C   0  0  0  0  0  0  0  0  0  0  0  0
    0.0826   19.7600  -30.8311 H   0  0  0  0  0  0  0  0  0  0  0  0
    1.1911   20.0400  -32.2166 H   0  0  0  0  0  0  0  0  0  0  0  0
    0.0951   18.6168  -32.2166 H   0  0  0  0  0  0  0  0  0  0  0  0
   -0.4025   18.1275  -29.7577 H   0  0  0  0  0  0  0  0  0  0  0  0
    0.1230   16.6644  -28.8087 H   0  0  0  0  0  0  0  0  0  0  0  0
   -1.5025   18.0860  -27.5595 H   0  0  0  0  0  0  0  0  0  0  0  0
    0.0821   17.9429  -26.7357 H   0  0  0  0  0  0  0  0  0  0  0  0
   -1.7916   23.0825  -25.9693 H   0  0  0  0  0  0  0  0  0  0  0  0
   -2.6252   25.1122  -27.1503 H   0  0  0  0  0  0  0  0  0  0  0  0
   -5.3193   23.3033  -32.1744 H   0  0  0  0  0  0  0  0  0  0  0  0
   -7.7646   22.8285  -32.3066 H   0  0  0  0  0  0  0  0  0  0  0  0
   -8.5819   20.4731  -32.3760 H   0  0  0  0  0  0  0  0  0  0  0  0
   -6.4451   17.8390  -35.7168 H   0  0  0  0  0  0  0  0  0  0  0  0
   -6.2192   19.0422  -34.4144 H   0  0  0  0  0  0  0  0  0  0  0  0
   -4.1775   17.5089  -35.5760 H   0  0  0  0  0  0  0  0  0  0  0  0
   -4.0463   18.3240  -34.0114 H   0  0  0  0  0  0  0  0  0  0  0  0
   -4.2029   15.4655  -34.5629 H   0  0  0  0  0  0  0  0  0  0  0  0
   -4.0095   16.2396  -32.9824 H   0  0  0  0  0  0  0  0  0  0  0  0
   -6.4447   15.1275  -34.2589 H   0  0  0  0  0  0  0  0  0  0  0  0
   -6.1781   15.5626  -32.5444 H   0  0  0  0  0  0  0  0  0  0  0  0
   -4.4950   19.0526  -32.2020 H   0  0  0  0  0  0  0  0  0  0  0  0
   -1.8882   20.8787  -29.6976 H   0  0  0  0  0  0  0  0  0  0  0  0
    0.7652   20.8469  -29.1423 H   0  0  0  0  0  0  0  0  0  0  0  0
    1.3046   21.1501  -27.4454 H   0  0  0  0  0  0  0  0  0  0  0  0
    2.9087   19.7618  -28.8220 H   0  0  0  0  0  0  0  0  0  0  0  0
    2.3017   18.9695  -27.2950 H   0  0  0  0  0  0  0  0  0  0  0  0
  1  2  1  0
  2  3  2  0
  2  4  2  0
  2  5  1  0
  5  6  1  0
  6  7  1  0
  7  8  1  0
  8  9  1  0
  9 10  2  0
  9 11  1  0
 11 12  2  0
 12 13  1  0
 13 14  2  0
 14 15  1  0
 14 16  1  0
 16 17  1  0
 17 18  1  0
 18 19  2  0
 18 20  2  0
 18 21  1  0
 21 22  2  0
 22 23  1  0
 23 24  2  0
 24 25  1  0
 25 26  1  0
 26 27  2  0
 26 28  2  0
 26 29  1  0
 29 30  1  0
 30 31  1  0
 31 32  1  0
 32 33  1  0
 25 34  2  0
 16 35  2  0
  8 36  1  0
 36 37  1  0
 37  5  1  0
 35 11  1  0
 34 21  1  0
 33 29  1  0
  1 38  1  0
  1 39  1  0
  1 40  1  0
  6 41  1  0
  6 42  1  0
  7 43  1  0
  7 44  1  0
 12 45  1  0
 13 46  1  0
 22 47  1  0
 23 48  1  0
 24 49  1  0
 30 50  1  0
 30 51  1  0
 31 52  1  0
 31 53  1  0
 32 54  1  0
 32 55  1  0
 33 56  1  0
 33 57  1  0
 34 58  1  0
 35 59  1  0
 36 60  1  0
 36 61  1  0
 37 62  1  0
 37 63  1  0
M  CHG  2  15  -1  17  -1
M  END
>  <UniqueID>  (49) 
49

>  <SMILES>  (49) 
CS(=O)(=O)N1CCN(C(=O)c2ccc([O-])c([N-]S(=O)(=O)c3cccc(S(=O)(=O)N4CCCC4)c3)c2)CC1

>  <Energy>  (49) 
78.94134190174819

>  <Genealogy>  (49) 
CS(=O)(=O)N1CCN(C(=O)c2ccc([O-])c([N-]S(=O)(=O)c3cccc(S(=O)(=O)N4CCCC4)c3)c2)CC1 (protonated)
CS(=O)(=O)N1CCN(C(=O)c2ccc([O-])c([N-]S(=O)(=O)c3cccc(S(=O)(=O)N4CCCC4)c3)c2)CC1 (3D coordinates assigned)
CS(=O)(=O)N1CCN(C(=O)c2ccc([O-])c([N-]S(=O)(=O)c3cccc(S(=O)(=O)N4CCCC4)c3)c2)CC1 (nonaromatic ring conformer: 78.94134190174819 kcal/mol)

>  <smiles>  (49) 
CS(=O)(=O)N1CCN(C(=O)c2ccc(O)c(NS(=O)(=O)c3cccc(S(=O)(=O)N4CCCC4)c3)c2)CC1

>  <score_type>  (49) 
oracle

>  <origin>  (49) 
adgpu

>  <m_score__min__energy>  (49) 
-15.1

>  <m_primary>  (49) 
energy

$$$$
