0:0
     RDKit          3D

 43 45  0  0  0  0  0  0  0  0999 V2000
   -0.7710   29.2950  -25.0460 C   0  0  0  0  0  0  0  0  0  0  0  0
   -0.6730   27.8860  -24.6910 N   0  0  0  0  0  0  0  0  0  0  0  0
   -0.5350   26.8640  -25.5570 C   0  0  0  0  0  0  0  0  0  0  0  0
   -0.4100   25.7100  -24.8180 C   0  0  0  0  0  0  0  0  0  0  0  0
   -0.2320   24.0780  -25.4270 S   0  0  0  0  0  0  0  0  0  0  0  0
    1.1810   23.8610  -25.8910 O   0  0  0  0  0  0  0  0  0  0  0  0
   -0.5240   23.0960  -24.3280 O   0  0  0  0  0  0  0  0  0  0  0  0
   -1.3440   23.8360  -26.7700 C   0  0  0  0  0  0  0  0  0  0  0  0
   -2.6220   24.4070  -26.7380 C   0  0  0  0  0  0  0  0  0  0  0  0
   -3.4970   24.2310  -27.8150 C   0  0  0  0  0  0  0  0  0  0  0  0
   -3.1080   23.4760  -28.9310 C   0  0  0  0  0  0  0  0  0  0  0  0
   -4.0190   23.3300  -30.0350 N   0  0  0  0  0  0  0  0  0  0  0  0
   -4.5240   24.4290  -30.8100 C   0  0  0  0  0  0  0  0  0  0  0  0
   -3.9030   25.5240  -30.8380 O   0  0  0  0  0  0  0  0  0  0  0  0
   -5.6790   24.2690  -31.6420 N   0  0  0  0  0  0  0  0  0  0  0  0
   -6.4570   23.0720  -31.7820 C   0  0  0  0  0  0  0  0  0  0  0  0
   -7.8160   23.0320  -31.4340 C   0  0  0  0  0  0  0  0  0  0  0  0
   -8.5510   21.8600  -31.6070 C   0  0  0  0  0  0  0  0  0  0  0  0
   -7.9490   20.7170  -32.1440 C   0  0  0  0  0  0  0  0  0  0  0  0
   -8.9390   19.2720  -32.3350 Cl  0  0  0  0  0  0  0  0  0  0  0  0
   -6.5870   20.7460  -32.5240 C   0  0  0  0  0  0  0  0  0  0  0  0
   -5.9240   19.5210  -33.1170 C   0  0  0  0  0  0  0  0  0  0  0  0
   -4.5680   19.7510  -33.2610 F   0  0  0  0  0  0  0  0  0  0  0  0
   -6.0920   18.4040  -32.3160 F   0  0  0  0  0  0  0  0  0  0  0  0
   -6.4740   19.2500  -34.3570 F   0  0  0  0  0  0  0  0  0  0  0  0
   -5.8580   21.9380  -32.3430 C   0  0  0  0  0  0  0  0  0  0  0  0
   -1.8130   22.9300  -28.9710 C   0  0  0  0  0  0  0  0  0  0  0  0
   -0.9390   23.1070  -27.8940 C   0  0  0  0  0  0  0  0  0  0  0  0
   -0.4750   26.1010  -23.4970 C   0  0  0  0  0  0  0  0  0  0  0  0
   -0.6270   27.4390  -23.4440 N   0  0  0  0  0  0  0  0  0  0  0  0
   -0.8132   29.9019  -24.1296 H   0  0  0  0  0  0  0  0  0  0  0  0
    0.1091   29.5860  -25.6383 H   0  0  0  0  0  0  0  0  0  0  0  0
   -1.6829   29.4613  -25.6383 H   0  0  0  0  0  0  0  0  0  0  0  0
   -0.5242   26.9381  -26.6544 H   0  0  0  0  0  0  0  0  0  0  0  0
   -2.9386   24.9952  -25.8641 H   0  0  0  0  0  0  0  0  0  0  0  0
   -4.4972   24.6880  -27.7864 H   0  0  0  0  0  0  0  0  0  0  0  0
   -4.2630   22.3630  -30.3480 H   0  0  0  0  0  0  0  0  0  0  0  0
   -8.3031   23.9287  -31.0232 H   0  0  0  0  0  0  0  0  0  0  0  0
   -9.6123   21.8338  -31.3191 H   0  0  0  0  0  0  0  0  0  0  0  0
   -4.8017   21.9781  -32.6473 H   0  0  0  0  0  0  0  0  0  0  0  0
   -1.4859   22.3609  -29.8537 H   0  0  0  0  0  0  0  0  0  0  0  0
    0.0706   22.6717  -27.9303 H   0  0  0  0  0  0  0  0  0  0  0  0
   -0.4129   25.4297  -22.6278 H   0  0  0  0  0  0  0  0  0  0  0  0
  1  2  1  0
  2  3  1  0
  3  4  2  0
  4  5  1  0
  5  6  2  0
  5  7  2  0
  5  8  1  0
  8  9  2  0
  9 10  1  0
 10 11  2  0
 11 12  1  0
 12 13  1  0
 13 14  2  0
 13 15  1  0
 15 16  1  0
 16 17  2  0
 17 18  1  0
 18 19  2  0
 19 20  1  0
 19 21  1  0
 21 22  1  0
 22 23  1  0
 22 24  1  0
 22 25  1  0
 21 26  2  0
 11 27  1  0
 27 28  2  0
  4 29  1  0
 29 30  2  0
 30  2  1  0
 28  8  1  0
 26 16  1  0
  1 31  1  0
  1 32  1  0
  1 33  1  0
  3 34  1  0
  9 35  1  0
 10 36  1  0
 12 37  1  0
 17 38  1  0
 18 39  1  0
 26 40  1  0
 27 41  1  0
 28 42  1  0
 29 43  1  0
M  CHG  1  15  -1
M  END
>  <UniqueID>  (1) 
1

>  <SMILES>  (1) 
Cn1cc(S(=O)(=O)c2ccc(NC(=O)[N-]c3ccc(Cl)c(C(F)(F)F)c3)cc2)cn1

>  <Energy>  (1) 
85.62442037064666

>  <Genealogy>  (1) 
Cn1cc(S(=O)(=O)c2ccc(NC(=O)[N-]c3ccc(Cl)c(C(F)(F)F)c3)cc2)cn1 (protonated)
Cn1cc(S(=O)(=O)c2ccc(NC(=O)[N-]c3ccc(Cl)c(C(F)(F)F)c3)cc2)cn1 (3D coordinates assigned)
Cn1cc(S(=O)(=O)c2ccc(NC(=O)[N-]c3ccc(Cl)c(C(F)(F)F)c3)cc2)cn1 (optimized conformer: 85.62442037064666 kcal/mol)

>  <smiles>  (1) 
Cn1cc(S(=O)(=O)c2ccc(NC(=O)Nc3ccc(Cl)c(C(F)(F)F)c3)cc2)cn1

>  <score_type>  (1) 
oracle

>  <origin>  (1) 
adgpu

>  <m_score__min__energy>  (1) 
-11.199999999999999

>  <m_primary>  (1) 
energy

$$$$
1:0
     RDKit          3D

 60 63  0  0  0  0  0  0  0  0999 V2000
   -3.3630   20.2800  -33.8660 C   0  0  0  0  0  0  0  0  0  0  0  0
   -2.2850   20.1820  -32.8310 C   0  0  0  0  0  0  0  0  0  0  0  0
   -1.9550   18.9420  -32.2630 C   0  0  0  0  0  0  0  0  0  0  0  0
   -0.9380   18.8540  -31.3110 C   0  0  0  0  0  0  0  0  0  0  0  0
   -0.2570   20.0070  -30.8940 C   0  0  0  0  0  0  0  0  0  0  0  0
    0.8090   19.9090  -29.9390 N   0  0  0  0  0  0  0  0  0  0  0  0
    2.0960   19.3320  -30.3290 C   0  0  0  0  0  0  0  0  0  0  0  0
    0.5190   20.3980  -28.2920 S   0  0  0  0  0  0  0  0  0  0  0  0
    1.6570   21.2640  -27.8260 O   0  0  0  0  0  0  0  0  0  0  0  0
    0.4130   19.1950  -27.3970 O   0  0  0  0  0  0  0  0  0  0  0  0
   -1.0030   21.2830  -28.2160 C   0  0  0  0  0  0  0  0  0  0  0  0
   -2.1090   20.7020  -27.5760 C   0  0  0  0  0  0  0  0  0  0  0  0
   -3.3190   21.3950  -27.4960 C   0  0  0  0  0  0  0  0  0  0  0  0
   -3.4320   22.6710  -28.0510 C   0  0  0  0  0  0  0  0  0  0  0  0
   -2.3380   23.2660  -28.7070 C   0  0  0  0  0  0  0  0  0  0  0  0
   -2.4470   24.6260  -29.2870 C   0  0  0  0  0  0  0  0  0  0  0  0
   -1.6580   25.5260  -28.9030 O   0  0  0  0  0  0  0  0  0  0  0  0
   -3.4760   24.9720  -30.2260 N   0  0  0  0  0  0  0  0  0  0  0  0
   -4.5790   24.1360  -30.6140 C   0  0  0  0  0  0  0  0  0  0  0  0
   -5.8870   24.3790  -30.1570 C   0  0  0  0  0  0  0  0  0  0  0  0
   -6.9340   23.5260  -30.5330 C   0  0  0  0  0  0  0  0  0  0  0  0
   -6.6860   22.4300  -31.3720 C   0  0  0  0  0  0  0  0  0  0  0  0
   -7.9970   21.3600  -31.8650 S   0  0  0  0  0  0  0  0  0  0  0  0
   -9.1640   22.1660  -32.3610 O   0  0  0  0  0  0  0  0  0  0  0  0
   -8.4600   20.5620  -30.6770 O   0  0  0  0  0  0  0  0  0  0  0  0
   -7.4650   20.2290  -33.0700 N   0  0  0  0  0  0  0  0  0  0  0  0
   -7.0050   19.0310  -32.8590 C   0  0  0  0  0  0  0  0  0  0  0  0
   -6.4970   18.2140  -33.8430 C   0  0  0  0  0  0  0  0  0  0  0  0
   -6.0540   17.1090  -33.1370 C   0  0  0  0  0  0  0  0  0  0  0  0
   -5.3890   15.9100  -33.7180 C   0  0  0  0  0  0  0  0  0  0  0  0
   -6.3200   17.2720  -31.8600 O   0  0  0  0  0  0  0  0  0  0  0  0
   -6.8940   18.4230  -31.6610 N   0  0  0  0  0  0  0  0  0  0  0  0
   -5.3780   22.1760  -31.8000 C   0  0  0  0  0  0  0  0  0  0  0  0
   -4.3320   23.0170  -31.4120 C   0  0  0  0  0  0  0  0  0  0  0  0
   -1.1160   22.5660  -28.7730 C   0  0  0  0  0  0  0  0  0  0  0  0
   -0.6220   21.2540  -31.4270 C   0  0  0  0  0  0  0  0  0  0  0  0
   -1.6250   21.3400  -32.3950 C   0  0  0  0  0  0  0  0  0  0  0  0
   -4.3407   20.3689  -33.3698 H   0  0  0  0  0  0  0  0  0  0  0  0
   -3.1887   21.1660  -34.4942 H   0  0  0  0  0  0  0  0  0  0  0  0
   -3.3514   19.3771  -34.4942 H   0  0  0  0  0  0  0  0  0  0  0  0
   -2.4995   18.0365  -32.5689 H   0  0  0  0  0  0  0  0  0  0  0  0
   -0.6694   17.8757  -30.8858 H   0  0  0  0  0  0  0  0  0  0  0  0
    2.6707   19.0744  -29.4271 H   0  0  0  0  0  0  0  0  0  0  0  0
    1.9249   18.4244  -30.9265 H   0  0  0  0  0  0  0  0  0  0  0  0
    2.6598   20.0635  -30.9265 H   0  0  0  0  0  0  0  0  0  0  0  0
   -2.0224   19.6976  -27.1360 H   0  0  0  0  0  0  0  0  0  0  0  0
   -4.1837   20.9350  -26.9953 H   0  0  0  0  0  0  0  0  0  0  0  0
   -4.3844   23.2162  -27.9750 H   0  0  0  0  0  0  0  0  0  0  0  0
   -6.0887   25.2403  -29.5031 H   0  0  0  0  0  0  0  0  0  0  0  0
   -7.9541   23.7171  -30.1685 H   0  0  0  0  0  0  0  0  0  0  0  0
   -6.4536   18.3951  -34.9271 H   0  0  0  0  0  0  0  0  0  0  0  0
   -5.0290   15.2609  -32.9062 H   0  0  0  0  0  0  0  0  0  0  0  0
   -6.1088   15.3561  -34.3385 H   0  0  0  0  0  0  0  0  0  0  0  0
   -4.5380   16.2273  -34.3385 H   0  0  0  0  0  0  0  0  0  0  0  0
   -7.2050   18.7630  -30.7260 H   0  0  0  0  0  0  0  0  0  0  0  0
   -5.1723   21.3094  -32.4455 H   0  0  0  0  0  0  0  0  0  0  0  0
   -3.3050   22.7958  -31.7380 H   0  0  0  0  0  0  0  0  0  0  0  0
   -0.2466   23.0280  -29.2637 H   0  0  0  0  0  0  0  0  0  0  0  0
   -0.1157   22.1670  -31.0805 H   0  0  0  0  0  0  0  0  0  0  0  0
   -1.8980   22.3186  -32.8166 H   0  0  0  0  0  0  0  0  0  0  0  0
  1  2  1  0
  2  3  2  0
  3  4  1  0
  4  5  2  0
  5  6  1  0
  6  7  1  0
  6  8  1  0
  8  9  2  0
  8 10  2  0
  8 11  1  0
 11 12  2  0
 12 13  1  0
 13 14  2  0
 14 15  1  0
 15 16  1  0
 16 17  2  0
 16 18  1  0
 18 19  1  0
 19 20  2  0
 20 21  1  0
 21 22  2  0
 22 23  1  0
 23 24  2  0
 23 25  2  0
 23 26  1  0
 26 27  2  3
 27 28  1  0
 28 29  2  0
 29 30  1  0
 29 31  1  0
 31 32  1  0
 22 33  1  0
 33 34  2  0
 15 35  2  0
  5 36  1  0
 36 37  2  0
 37  2  1  0
 35 11  1  0
 34 19  1  0
 32 27  1  0
  1 38  1  0
  1 39  1  0
  1 40  1  0
  3 41  1  0
  4 42  1  0
  7 43  1  0
  7 44  1  0
  7 45  1  0
 12 46  1  0
 13 47  1  0
 14 48  1  0
 20 49  1  0
 21 50  1  0
 28 51  1  0
 30 52  1  0
 30 53  1  0
 30 54  1  0
 32 55  1  0
 33 56  1  0
 34 57  1  0
 35 58  1  0
 36 59  1  0
 37 60  1  0
M  CHG  1  18  -1
M  END
>  <UniqueID>  (2) 
2

>  <SMILES>  (2) 
Cc1ccc(N(C)S(=O)(=O)c2cccc(C(=O)[N-]c3ccc(S(=O)(=O)N=c4cc(C)o[nH]4)cc3)c2)cc1

>  <Energy>  (2) 
109.2731236936192

>  <Genealogy>  (2) 
Cc1ccc(N(C)S(=O)(=O)c2cccc(C(=O)[N-]c3ccc(S(=O)(=O)N=c4cc(C)o[nH]4)cc3)c2)cc1 (protonated)
Cc1ccc(N(C)S(=O)(=O)c2cccc(C(=O)[N-]c3ccc(S(=O)(=O)N=c4cc(C)o[nH]4)cc3)c2)cc1 (3D coordinates assigned)
Cc1ccc(N(C)S(=O)(=O)c2cccc(C(=O)[N-]c3ccc(S(=O)(=O)N=c4cc(C)o[nH]4)cc3)c2)cc1 (optimized conformer: 109.2731236936192 kcal/mol)

>  <smiles>  (2) 
Cc1ccc(N(C)S(=O)(=O)c2cccc(C(=O)Nc3ccc(S(=O)(=O)N=c4cc(C)o[nH]4)cc3)c2)cc1

>  <score_type>  (2) 
oracle

>  <origin>  (2) 
adgpu

>  <m_score__min__energy>  (2) 
-11.789999999999999

>  <m_primary>  (2) 
energy

$$$$
2:0
     RDKit          3D

 54 57  0  0  0  0  0  0  0  0999 V2000
   -3.9450   25.2900  -30.8110 O   0  0  0  0  0  0  0  0  0  0  0  0
   -3.6050   24.4260  -29.9610 C   0  0  0  0  0  0  0  0  0  0  0  0
   -4.0570   23.0730  -30.0850 N   0  0  0  0  0  0  0  0  0  0  0  0
   -3.8490   22.2640  -31.2480 C   0  0  0  0  0  0  0  0  0  0  0  0
   -2.5360   22.0150  -31.6630 C   0  0  0  0  0  0  0  0  0  0  0  0
   -2.2820   21.2830  -32.8300 C   0  0  0  0  0  0  0  0  0  0  0  0
   -0.6250   21.0360  -33.3780 S   0  0  0  0  0  0  0  0  0  0  0  0
    0.3200   21.4440  -32.2820 O   0  0  0  0  0  0  0  0  0  0  0  0
   -0.3720   21.9370  -34.5560 O   0  0  0  0  0  0  0  0  0  0  0  0
   -0.2910   19.3770  -33.8420 N   0  0  0  0  0  0  0  0  0  0  0  0
   -1.1700   18.4080  -33.1430 C   0  0  0  0  0  0  0  0  0  0  0  0
   -0.4870   17.7330  -31.9410 C   0  0  0  0  0  0  0  0  0  0  0  0
    0.4910   18.5820  -31.3840 O   0  0  0  0  0  0  0  0  0  0  0  0
    1.5770   18.7100  -32.2790 C   0  0  0  0  0  0  0  0  0  0  0  0
    1.1430   19.0420  -33.7270 C   0  0  0  0  0  0  0  0  0  0  0  0
   -3.3540   20.7580  -33.5620 C   0  0  0  0  0  0  0  0  0  0  0  0
   -4.6660   20.9670  -33.1350 C   0  0  0  0  0  0  0  0  0  0  0  0
   -4.9290   21.7110  -31.9760 C   0  0  0  0  0  0  0  0  0  0  0  0
   -6.2830   21.8300  -31.5080 N   0  0  0  0  0  0  0  0  0  0  0  0
   -6.8300   23.1500  -31.1650 C   0  0  0  0  0  0  0  0  0  0  0  0
   -8.0960   23.4210  -31.9860 C   0  0  0  0  0  0  0  0  0  0  0  0
   -9.0980   22.2410  -31.9730 C   0  0  0  0  0  0  0  0  0  0  0  0
   -8.6060   21.0220  -31.1780 C   0  0  0  0  0  0  0  0  0  0  0  0
   -7.1680   20.6570  -31.5610 C   0  0  0  0  0  0  0  0  0  0  0  0
   -2.7210   24.8070  -28.8550 C   0  0  0  0  0  0  0  0  0  0  0  0
   -2.7980   24.3450  -27.5560 C   0  0  0  0  0  0  0  0  0  0  0  0
   -1.7830   24.9850  -26.8760 C   0  0  0  0  0  0  0  0  0  0  0  0
   -1.1520   25.7930  -27.8000 C   0  0  0  0  0  0  0  0  0  0  0  0
   -1.7330   25.6650  -28.9700 O   0  0  0  0  0  0  0  0  0  0  0  0
   -1.6947   22.3980  -31.0667 H   0  0  0  0  0  0  0  0  0  0  0  0
   -0.5300   19.3300  -34.8620 H   0  0  0  0  0  0  0  0  0  0  0  0
   -2.0632   18.9406  -32.7846 H   0  0  0  0  0  0  0  0  0  0  0  0
   -1.4243   17.6165  -33.8633 H   0  0  0  0  0  0  0  0  0  0  0  0
   -1.2443   17.5039  -31.1768 H   0  0  0  0  0  0  0  0  0  0  0  0
    0.0002   16.8082  -32.2837 H   0  0  0  0  0  0  0  0  0  0  0  0
    2.2334   19.5156  -31.9181 H   0  0  0  0  0  0  0  0  0  0  0  0
    2.0905   17.7377  -32.3083 H   0  0  0  0  0  0  0  0  0  0  0  0
    1.7322   19.9011  -34.0804 H   0  0  0  0  0  0  0  0  0  0  0  0
    1.3185   18.1425  -34.3354 H   0  0  0  0  0  0  0  0  0  0  0  0
   -3.1612   20.1787  -34.4770 H   0  0  0  0  0  0  0  0  0  0  0  0
   -5.5012   20.5443  -33.7127 H   0  0  0  0  0  0  0  0  0  0  0  0
   -7.0781   23.1745  -30.0936 H   0  0  0  0  0  0  0  0  0  0  0  0
   -6.0800   23.9222  -31.3914 H   0  0  0  0  0  0  0  0  0  0  0  0
   -8.5968   24.3090  -31.5728 H   0  0  0  0  0  0  0  0  0  0  0  0
   -7.7820   23.5705  -33.0296 H   0  0  0  0  0  0  0  0  0  0  0  0
  -10.0402   22.5903  -31.5254 H   0  0  0  0  0  0  0  0  0  0  0  0
   -9.2244   21.9150  -33.0160 H   0  0  0  0  0  0  0  0  0  0  0  0
   -8.6435   21.2549  -30.1036 H   0  0  0  0  0  0  0  0  0  0  0  0
   -9.2573   20.1668  -31.4113 H   0  0  0  0  0  0  0  0  0  0  0  0
   -6.7940   19.8950  -30.8614 H   0  0  0  0  0  0  0  0  0  0  0  0
   -7.1718   20.2733  -32.5919 H   0  0  0  0  0  0  0  0  0  0  0  0
   -3.5175   23.6192  -27.1491 H   0  0  0  0  0  0  0  0  0  0  0  0
   -1.5278   24.8739  -25.8118 H   0  0  0  0  0  0  0  0  0  0  0  0
   -0.2922   26.4456  -27.5880 H   0  0  0  0  0  0  0  0  0  0  0  0
  1  2  2  0
  2  3  1  0
  3  4  1  0
  4  5  2  0
  5  6  1  0
  6  7  1  0
  7  8  2  0
  7  9  2  0
  7 10  1  0
 10 11  1  0
 11 12  1  0
 12 13  1  0
 13 14  1  0
 14 15  1  0
  6 16  2  0
 16 17  1  0
 17 18  2  0
 18 19  1  0
 19 20  1  0
 20 21  1  0
 21 22  1  0
 22 23  1  0
 23 24  1  0
  2 25  1  0
 25 26  2  0
 26 27  1  0
 27 28  2  0
 28 29  1  0
 18  4  1  0
 24 19  1  0
 29 25  1  0
 15 10  1  0
  5 30  1  0
 10 31  1  0
 11 32  1  0
 11 33  1  0
 12 34  1  0
 12 35  1  0
 14 36  1  0
 14 37  1  0
 15 38  1  0
 15 39  1  0
 16 40  1  0
 17 41  1  0
 20 42  1  0
 20 43  1  0
 21 44  1  0
 21 45  1  0
 22 46  1  0
 22 47  1  0
 23 48  1  0
 23 49  1  0
 24 50  1  0
 24 51  1  0
 26 52  1  0
 27 53  1  0
 28 54  1  0
M  CHG  2   3  -1  10   1
M  END
>  <UniqueID>  (3) 
3

>  <SMILES>  (3) 
O=C([N-]c1cc(S(=O)(=O)[NH+]2CCOCC2)ccc1N1CCCCC1)c1ccco1

>  <Energy>  (3) 
101.79514560956574

>  <Genealogy>  (3) 
O=C([N-]c1cc(S(=O)(=O)[NH+]2CCOCC2)ccc1N1CCCCC1)c1ccco1 (protonated)
O=C([N-]c1cc(S(=O)(=O)[NH+]2CCOCC2)ccc1N1CCCCC1)c1ccco1 (3D coordinates assigned)
O=C([N-]c1cc(S(=O)(=O)[NH+]2CCOCC2)ccc1N1CCCCC1)c1ccco1 (nonaromatic ring conformer: 101.79514560956574 kcal/mol)

>  <smiles>  (3) 
O=C(Nc1cc(S(=O)(=O)N2CCOCC2)ccc1N1CCCCC1)c1ccco1

>  <score_type>  (3) 
oracle

>  <origin>  (3) 
adgpu

>  <m_score__min__energy>  (3) 
-9.9600000000000009

>  <m_primary>  (3) 
energy

$$$$
3:0
     RDKit          3D

 63 67  0  0  0  0  0  0  0  0999 V2000
   -3.5770   17.1370  -34.3660 O   0  0  0  0  0  0  0  0  0  0  0  0
   -3.9790   18.3270  -34.2730 C   0  0  0  0  0  0  0  0  0  0  0  0
   -5.3600   18.6110  -34.5400 N   0  0  0  0  0  0  0  0  0  0  0  0
   -6.3790   18.8430  -33.5560 C   0  0  0  0  0  0  0  0  0  0  0  0
   -7.1830   17.7950  -33.0670 C   0  0  0  0  0  0  0  0  0  0  0  0
   -8.1460   18.0460  -32.0860 C   0  0  0  0  0  0  0  0  0  0  0  0
   -8.3080   19.3380  -31.5770 C   0  0  0  0  0  0  0  0  0  0  0  0
   -7.5000   20.3850  -32.0430 C   0  0  0  0  0  0  0  0  0  0  0  0
   -7.6510   22.0070  -31.3690 S   0  0  0  0  0  0  0  0  0  0  0  0
   -8.4030   22.8640  -32.3460 O   0  0  0  0  0  0  0  0  0  0  0  0
   -8.4270   21.9590  -30.0800 O   0  0  0  0  0  0  0  0  0  0  0  0
   -6.0630   22.6840  -31.0850 N   0  0  0  0  0  0  0  0  0  0  0  0
   -5.8090   23.8250  -31.9780 C   0  0  0  0  0  0  0  0  0  0  0  0
   -6.1030   25.1060  -31.2040 C   0  0  0  0  0  0  0  0  0  0  0  0
   -6.2870   24.6870  -29.7570 C   0  0  0  0  0  0  0  0  0  0  0  0
   -5.9410   23.2060  -29.7180 C   0  0  0  0  0  0  0  0  0  0  0  0
   -6.5310   20.1300  -33.0230 C   0  0  0  0  0  0  0  0  0  0  0  0
   -3.0340   19.3760  -33.8280 C   0  0  0  0  0  0  0  0  0  0  0  0
   -1.8890   19.6740  -34.5860 C   0  0  0  0  0  0  0  0  0  0  0  0
   -1.0130   20.6810  -34.1770 C   0  0  0  0  0  0  0  0  0  0  0  0
   -1.2730   21.4060  -33.0120 C   0  0  0  0  0  0  0  0  0  0  0  0
   -2.4130   21.1270  -32.2500 C   0  0  0  0  0  0  0  0  0  0  0  0
   -2.7250   22.0800  -30.8020 S   0  0  0  0  0  0  0  0  0  0  0  0
   -3.3170   23.3960  -31.2310 O   0  0  0  0  0  0  0  0  0  0  0  0
   -3.7120   21.3770  -29.9100 O   0  0  0  0  0  0  0  0  0  0  0  0
   -1.2090   22.3490  -29.9680 N   0  0  0  0  0  0  0  0  0  0  0  0
   -0.1340   21.4400  -30.4100 C   0  0  0  0  0  0  0  0  0  0  0  0
   -0.3020   19.9880  -29.9100 C   0  0  0  0  0  0  0  0  0  0  0  0
   -0.9620   19.8700  -28.5590 C   0  0  0  0  0  0  0  0  0  0  0  0
   -1.0740   18.6030  -27.9590 C   0  0  0  0  0  0  0  0  0  0  0  0
   -1.7670   18.4490  -26.7540 C   0  0  0  0  0  0  0  0  0  0  0  0
   -2.3580   19.5580  -26.1380 C   0  0  0  0  0  0  0  0  0  0  0  0
   -2.2410   20.8240  -26.7200 C   0  0  0  0  0  0  0  0  0  0  0  0
   -1.5540   20.9850  -27.9350 C   0  0  0  0  0  0  0  0  0  0  0  0
   -1.3630   22.3640  -28.5050 C   0  0  0  0  0  0  0  0  0  0  0  0
   -3.2940   20.1140  -32.6590 C   0  0  0  0  0  0  0  0  0  0  0  0
   -7.0524   16.7754  -33.4587 H   0  0  0  0  0  0  0  0  0  0  0  0
   -8.7775   17.2259  -31.7137 H   0  0  0  0  0  0  0  0  0  0  0  0
   -9.0710   19.5337  -30.8092 H   0  0  0  0  0  0  0  0  0  0  0  0
   -5.3530   21.9310  -31.2500 H   0  0  0  0  0  0  0  0  0  0  0  0
   -4.7579   23.8181  -32.3023 H   0  0  0  0  0  0  0  0  0  0  0  0
   -6.4506   23.7621  -32.8693 H   0  0  0  0  0  0  0  0  0  0  0  0
   -5.2617   25.8089  -31.2944 H   0  0  0  0  0  0  0  0  0  0  0  0
   -6.9969   25.6157  -31.5928 H   0  0  0  0  0  0  0  0  0  0  0  0
   -5.6116   25.2574  -29.1023 H   0  0  0  0  0  0  0  0  0  0  0  0
   -7.3110   24.8773  -29.4031 H   0  0  0  0  0  0  0  0  0  0  0  0
   -4.9112   23.0711  -29.3558 H   0  0  0  0  0  0  0  0  0  0  0  0
   -6.6191   22.6692  -29.0382 H   0  0  0  0  0  0  0  0  0  0  0  0
   -5.8846   20.9468  -33.3766 H   0  0  0  0  0  0  0  0  0  0  0  0
   -1.6816   19.1102  -35.5075 H   0  0  0  0  0  0  0  0  0  0  0  0
   -0.1161   20.9039  -34.7735 H   0  0  0  0  0  0  0  0  0  0  0  0
   -0.5800   22.1983  -32.6926 H   0  0  0  0  0  0  0  0  0  0  0  0
   -0.1194   21.4288  -31.5098 H   0  0  0  0  0  0  0  0  0  0  0  0
    0.8047   21.8206  -29.9809 H   0  0  0  0  0  0  0  0  0  0  0  0
   -0.9141   19.4402  -30.6416 H   0  0  0  0  0  0  0  0  0  0  0  0
    0.7107   19.5720  -29.8036 H   0  0  0  0  0  0  0  0  0  0  0  0
   -0.6137   17.7276  -28.4405 H   0  0  0  0  0  0  0  0  0  0  0  0
   -1.8476   17.4550  -26.2898 H   0  0  0  0  0  0  0  0  0  0  0  0
   -2.9140   19.4339  -25.1970 H   0  0  0  0  0  0  0  0  0  0  0  0
   -2.6889   21.6979  -26.2243 H   0  0  0  0  0  0  0  0  0  0  0  0
   -2.2395   22.9771  -28.2482 H   0  0  0  0  0  0  0  0  0  0  0  0
   -0.4403   22.7803  -28.0746 H   0  0  0  0  0  0  0  0  0  0  0  0
   -4.1922   19.8961  -32.0626 H   0  0  0  0  0  0  0  0  0  0  0  0
  1  2  2  0
  2  3  1  0
  3  4  1  0
  4  5  2  0
  5  6  1  0
  6  7  2  0
  7  8  1  0
  8  9  1  0
  9 10  2  0
  9 11  2  0
  9 12  1  0
 12 13  1  0
 13 14  1  0
 14 15  1  0
 15 16  1  0
  8 17  2  0
  2 18  1  0
 18 19  2  0
 19 20  1  0
 20 21  2  0
 21 22  1  0
 22 23  1  0
 23 24  2  0
 23 25  2  0
 23 26  1  0
 26 27  1  0
 27 28  1  0
 28 29  1  0
 29 30  2  0
 30 31  1  0
 31 32  2  0
 32 33  1  0
 33 34  2  0
 34 35  1  0
 22 36  2  0
 17  4  1  0
 36 18  1  0
 16 12  1  0
 35 26  1  0
 34 29  1  0
  5 37  1  0
  6 38  1  0
  7 39  1  0
 12 40  1  0
 13 41  1  0
 13 42  1  0
 14 43  1  0
 14 44  1  0
 15 45  1  0
 15 46  1  0
 16 47  1  0
 16 48  1  0
 17 49  1  0
 19 50  1  0
 20 51  1  0
 21 52  1  0
 27 53  1  0
 27 54  1  0
 28 55  1  0
 28 56  1  0
 30 57  1  0
 31 58  1  0
 32 59  1  0
 33 60  1  0
 35 61  1  0
 35 62  1  0
 36 63  1  0
M  CHG  2   3  -1  12   1
M  END
>  <UniqueID>  (4) 
4

>  <SMILES>  (4) 
O=C([N-]c1cccc(S(=O)(=O)[NH+]2CCCC2)c1)c1cccc(S(=O)(=O)N2CCc3ccccc3C2)c1

>  <Energy>  (4) 
82.07691332877043

>  <Genealogy>  (4) 
O=C([N-]c1cccc(S(=O)(=O)[NH+]2CCCC2)c1)c1cccc(S(=O)(=O)N2CCc3ccccc3C2)c1 (protonated)
O=C([N-]c1cccc(S(=O)(=O)[NH+]2CCCC2)c1)c1cccc(S(=O)(=O)N2CCc3ccccc3C2)c1 (3D coordinates assigned)
O=C([N-]c1cccc(S(=O)(=O)[NH+]2CCCC2)c1)c1cccc(S(=O)(=O)N2CCc3ccccc3C2)c1 (nonaromatic ring conformer: 82.07691332877043 kcal/mol)

>  <smiles>  (4) 
O=C(Nc1cccc(S(=O)(=O)N2CCCC2)c1)c1cccc(S(=O)(=O)N2CCc3ccccc3C2)c1

>  <score_type>  (4) 
oracle

>  <origin>  (4) 
adgpu

>  <m_score__min__energy>  (4) 
-13.380000000000001

>  <m_primary>  (4) 
energy

$$$$
4:0
     RDKit          3D

 64 68  0  0  0  0  0  0  0  0999 V2000
   -0.4210   21.9220  -34.2150 O   0  0  0  0  0  0  0  0  0  0  0  0
   -1.1800   21.0400  -33.7370 C   0  0  0  0  0  0  0  0  0  0  0  0
   -1.4710   19.8830  -34.5360 N   0  0  0  0  0  0  0  0  0  0  0  0
   -1.7980   18.5710  -34.0530 C   0  0  0  0  0  0  0  0  0  0  0  0
   -0.7620   17.6660  -33.7940 C   0  0  0  0  0  0  0  0  0  0  0  0
   -1.0490   16.3820  -33.3200 C   0  0  0  0  0  0  0  0  0  0  0  0
   -2.3730   15.9950  -33.0980 C   0  0  0  0  0  0  0  0  0  0  0  0
   -3.4170   16.8970  -33.3400 C   0  0  0  0  0  0  0  0  0  0  0  0
   -5.0920   16.4380  -33.0470 S   0  0  0  0  0  0  0  0  0  0  0  0
   -5.5000   16.9410  -31.6900 O   0  0  0  0  0  0  0  0  0  0  0  0
   -5.9850   17.0700  -34.0790 O   0  0  0  0  0  0  0  0  0  0  0  0
   -5.2370   14.6990  -33.1050 N   0  0  0  0  0  0  0  0  0  0  0  0
   -4.6260   14.1770  -34.3390 C   0  0  0  0  0  0  0  0  0  0  0  0
   -4.6510   12.6320  -34.3560 C   0  0  0  0  0  0  0  0  0  0  0  0
   -5.2320   12.0950  -33.1810 O   0  0  0  0  0  0  0  0  0  0  0  0
   -4.5260   12.5580  -32.0470 C   0  0  0  0  0  0  0  0  0  0  0  0
   -4.6150   14.0940  -31.9120 C   0  0  0  0  0  0  0  0  0  0  0  0
   -3.1250   18.1880  -33.7950 C   0  0  0  0  0  0  0  0  0  0  0  0
   -1.7660   21.2380  -32.3870 C   0  0  0  0  0  0  0  0  0  0  0  0
   -1.3110   20.4940  -31.2840 C   0  0  0  0  0  0  0  0  0  0  0  0
   -1.8400   20.7220  -30.0130 C   0  0  0  0  0  0  0  0  0  0  0  0
   -2.8370   21.6820  -29.8290 C   0  0  0  0  0  0  0  0  0  0  0  0
   -3.3240   22.4150  -30.9200 C   0  0  0  0  0  0  0  0  0  0  0  0
   -4.6150   23.6010  -30.6710 S   0  0  0  0  0  0  0  0  0  0  0  0
   -4.0430   24.9830  -30.8200 O   0  0  0  0  0  0  0  0  0  0  0  0
   -5.1420   23.4550  -29.2710 O   0  0  0  0  0  0  0  0  0  0  0  0
   -5.9230   23.4450  -31.8260 N   0  0  0  0  0  0  0  0  0  0  0  0
   -7.2380   23.7600  -31.2110 C   0  0  0  0  0  0  0  0  0  0  0  0
   -8.4120   23.0740  -31.9130 C   0  0  0  0  0  0  0  0  0  0  0  0
   -8.1510   21.6010  -31.9540 C   0  0  0  0  0  0  0  0  0  0  0  0
   -9.1560   20.6630  -31.6730 C   0  0  0  0  0  0  0  0  0  0  0  0
   -8.8660   19.2960  -31.7220 C   0  0  0  0  0  0  0  0  0  0  0  0
   -7.5800   18.8640  -32.0660 C   0  0  0  0  0  0  0  0  0  0  0  0
   -6.5830   19.7980  -32.3630 C   0  0  0  0  0  0  0  0  0  0  0  0
   -6.8620   21.1710  -32.2860 C   0  0  0  0  0  0  0  0  0  0  0  0
   -5.8160   22.2010  -32.6320 C   0  0  0  0  0  0  0  0  0  0  0  0
   -2.7990   22.1740  -32.1990 C   0  0  0  0  0  0  0  0  0  0  0  0
    0.2825   17.9661  -33.9641 H   0  0  0  0  0  0  0  0  0  0  0  0
   -0.2302   15.6748  -33.1214 H   0  0  0  0  0  0  0  0  0  0  0  0
   -2.5957   14.9815  -32.7330 H   0  0  0  0  0  0  0  0  0  0  0  0
   -6.2590   14.4700  -33.1070 H   0  0  0  0  0  0  0  0  0  0  0  0
   -5.1864   14.5558  -35.2065 H   0  0  0  0  0  0  0  0  0  0  0  0
   -3.5791   14.5120  -34.3817 H   0  0  0  0  0  0  0  0  0  0  0  0
   -5.2350   12.2964  -35.2256 H   0  0  0  0  0  0  0  0  0  0  0  0
   -3.6113   12.2772  -34.4121 H   0  0  0  0  0  0  0  0  0  0  0  0
   -4.9542   12.0947  -31.1459 H   0  0  0  0  0  0  0  0  0  0  0  0
   -3.4674   12.2829  -32.1639 H   0  0  0  0  0  0  0  0  0  0  0  0
   -5.2197   14.3420  -31.0272 H   0  0  0  0  0  0  0  0  0  0  0  0
   -3.5956   14.4944  -31.8096 H   0  0  0  0  0  0  0  0  0  0  0  0
   -3.9411   18.9087  -33.9519 H   0  0  0  0  0  0  0  0  0  0  0  0
   -0.5339   19.7281  -31.4238 H   0  0  0  0  0  0  0  0  0  0  0  0
   -1.4704   20.1436  -29.1534 H   0  0  0  0  0  0  0  0  0  0  0  0
   -3.2424   21.8640  -28.8227 H   0  0  0  0  0  0  0  0  0  0  0  0
   -7.2198   23.4337  -30.1607 H   0  0  0  0  0  0  0  0  0  0  0  0
   -7.3906   24.8454  -31.3041 H   0  0  0  0  0  0  0  0  0  0  0  0
   -9.3412   23.2701  -31.3579 H   0  0  0  0  0  0  0  0  0  0  0  0
   -8.5179   23.4649  -32.9358 H   0  0  0  0  0  0  0  0  0  0  0  0
  -10.1700   21.0024  -31.4147 H   0  0  0  0  0  0  0  0  0  0  0  0
   -9.6494   18.5594  -31.4900 H   0  0  0  0  0  0  0  0  0  0  0  0
   -7.3534   17.7882  -32.1027 H   0  0  0  0  0  0  0  0  0  0  0  0
   -5.5796   19.4564  -32.6571 H   0  0  0  0  0  0  0  0  0  0  0  0
   -4.8227   21.7599  -32.4621 H   0  0  0  0  0  0  0  0  0  0  0  0
   -5.9721   22.4814  -33.6841 H   0  0  0  0  0  0  0  0  0  0  0  0
   -3.1997   22.7230  -33.0639 H   0  0  0  0  0  0  0  0  0  0  0  0
  1  2  2  0
  2  3  1  0
  3  4  1  0
  4  5  2  0
  5  6  1  0
  6  7  2  0
  7  8  1  0
  8  9  1  0
  9 10  2  0
  9 11  2  0
  9 12  1  0
 12 13  1  0
 13 14  1  0
 14 15  1  0
 15 16  1  0
 16 17  1  0
  8 18  2  0
  2 19  1  0
 19 20  2  0
 20 21  1  0
 21 22  2  0
 22 23  1  0
 23 24  1  0
 24 25  2  0
 24 26  2  0
 24 27  1  0
 27 28  1  0
 28 29  1  0
 29 30  1  0
 30 31  2  0
 31 32  1  0
 32 33  2  0
 33 34  1  0
 34 35  2  0
 35 36  1  0
 23 37  2  0
 18  4  1  0
 37 19  1  0
 17 12  1  0
 36 27  1  0
 35 30  1  0
  5 38  1  0
  6 39  1  0
  7 40  1  0
 12 41  1  0
 13 42  1  0
 13 43  1  0
 14 44  1  0
 14 45  1  0
 16 46  1  0
 16 47  1  0
 17 48  1  0
 17 49  1  0
 18 50  1  0
 20 51  1  0
 21 52  1  0
 22 53  1  0
 28 54  1  0
 28 55  1  0
 29 56  1  0
 29 57  1  0
 31 58  1  0
 32 59  1  0
 33 60  1  0
 34 61  1  0
 36 62  1  0
 36 63  1  0
 37 64  1  0
M  CHG  2   3  -1  12   1
M  END
>  <UniqueID>  (5) 
5

>  <SMILES>  (5) 
O=C([N-]c1cccc(S(=O)(=O)[NH+]2CCOCC2)c1)c1cccc(S(=O)(=O)N2CCc3ccccc3C2)c1

>  <Energy>  (5) 
87.53152041217719

>  <Genealogy>  (5) 
O=C([N-]c1cccc(S(=O)(=O)[NH+]2CCOCC2)c1)c1cccc(S(=O)(=O)N2CCc3ccccc3C2)c1 (protonated)
O=C([N-]c1cccc(S(=O)(=O)[NH+]2CCOCC2)c1)c1cccc(S(=O)(=O)N2CCc3ccccc3C2)c1 (3D coordinates assigned)
O=C([N-]c1cccc(S(=O)(=O)[NH+]2CCOCC2)c1)c1cccc(S(=O)(=O)N2CCc3ccccc3C2)c1 (nonaromatic ring conformer: 87.53152041217719 kcal/mol)

>  <smiles>  (5) 
O=C(Nc1cccc(S(=O)(=O)N2CCOCC2)c1)c1cccc(S(=O)(=O)N2CCc3ccccc3C2)c1

>  <score_type>  (5) 
oracle

>  <origin>  (5) 
adgpu

>  <m_score__min__energy>  (5) 
-13.41

>  <m_primary>  (5) 
energy

$$$$
5:0
     RDKit          3D

 50 52  0  0  0  0  0  0  0  0999 V2000
    0.1640   18.4890  -32.6060 C   0  0  0  0  0  0  0  0  0  0  0  0
    0.3100   18.7940  -33.9890 O   0  0  0  0  0  0  0  0  0  0  0  0
    0.7490   20.0290  -34.4920 C   0  0  0  0  0  0  0  0  0  0  0  0
    2.1110   20.2870  -34.7420 C   0  0  0  0  0  0  0  0  0  0  0  0
    2.5110   21.5070  -35.2930 C   0  0  0  0  0  0  0  0  0  0  0  0
    1.5600   22.4830  -35.6130 C   0  0  0  0  0  0  0  0  0  0  0  0
    2.0630   24.0200  -36.3080 S   0  0  0  0  0  0  0  0  0  0  0  0
    3.5140   23.7940  -37.2190 N   0  0  0  0  0  0  0  0  0  0  0  0
    2.3090   25.0170  -35.2100 O   0  0  0  0  0  0  0  0  0  0  0  0
    0.9850   24.5510  -37.2100 O   0  0  0  0  0  0  0  0  0  0  0  0
    0.2060   22.2390  -35.3540 C   0  0  0  0  0  0  0  0  0  0  0  0
   -0.2030   21.0300  -34.7750 C   0  0  0  0  0  0  0  0  0  0  0  0
   -1.6000   20.8160  -34.5290 N   0  0  0  0  0  0  0  0  0  0  0  0
   -2.1970   20.9610  -33.2300 C   0  0  0  0  0  0  0  0  0  0  0  0
   -1.4870   21.2630  -32.2330 O   0  0  0  0  0  0  0  0  0  0  0  0
   -3.6430   20.7390  -33.0400 C   0  0  0  0  0  0  0  0  0  0  0  0
   -4.4310   21.7970  -32.5640 C   0  0  0  0  0  0  0  0  0  0  0  0
   -5.8100   21.6320  -32.3730 C   0  0  0  0  0  0  0  0  0  0  0  0
   -6.7910   22.9780  -31.7910 S   0  0  0  0  0  0  0  0  0  0  0  0
   -8.2380   22.5690  -31.8170 O   0  0  0  0  0  0  0  0  0  0  0  0
   -6.6290   24.1470  -32.7240 O   0  0  0  0  0  0  0  0  0  0  0  0
   -6.3610   23.4720  -30.1660 N   0  0  0  0  0  0  0  0  0  0  0  0
   -5.0070   23.0270  -29.7700 C   0  0  0  0  0  0  0  0  0  0  0  0
   -3.9620   24.1520  -29.8430 C   0  0  0  0  0  0  0  0  0  0  0  0
   -4.3070   25.0810  -30.8430 O   0  0  0  0  0  0  0  0  0  0  0  0
   -5.4530   25.8070  -30.4450 C   0  0  0  0  0  0  0  0  0  0  0  0
   -6.6010   24.9070  -29.9280 C   0  0  0  0  0  0  0  0  0  0  0  0
   -6.4030   20.3950  -32.6520 C   0  0  0  0  0  0  0  0  0  0  0  0
   -5.6290   19.3410  -33.1420 C   0  0  0  0  0  0  0  0  0  0  0  0
   -4.2550   19.5040  -33.3460 C   0  0  0  0  0  0  0  0  0  0  0  0
   -3.3580   18.1700  -34.0660 Cl  0  0  0  0  0  0  0  0  0  0  0  0
    0.5614   19.3191  -32.0035 H   0  0  0  0  0  0  0  0  0  0  0  0
   -0.9012   18.3439  -32.3730 H   0  0  0  0  0  0  0  0  0  0  0  0
    0.7190   17.5683  -32.3730 H   0  0  0  0  0  0  0  0  0  0  0  0
    2.8648   19.5228  -34.5018 H   0  0  0  0  0  0  0  0  0  0  0  0
    3.5781   21.7014  -35.4762 H   0  0  0  0  0  0  0  0  0  0  0  0
    3.5280   22.7960  -37.5270 H   0  0  0  0  0  0  0  0  0  0  0  0
   -0.5437   23.0031  -35.6072 H   0  0  0  0  0  0  0  0  0  0  0  0
   -2.2190   20.6520  -35.3550 H   0  0  0  0  0  0  0  0  0  0  0  0
   -3.9623   22.7662  -32.3382 H   0  0  0  0  0  0  0  0  0  0  0  0
   -5.0488   22.6534  -28.7362 H   0  0  0  0  0  0  0  0  0  0  0  0
   -4.6976   22.2429  -30.4767 H   0  0  0  0  0  0  0  0  0  0  0  0
   -3.9152   24.6662  -28.8717 H   0  0  0  0  0  0  0  0  0  0  0  0
   -2.9833   23.7133  -30.0872 H   0  0  0  0  0  0  0  0  0  0  0  0
   -5.1648   26.5007  -29.6415 H   0  0  0  0  0  0  0  0  0  0  0  0
   -5.8287   26.3344  -31.3342 H   0  0  0  0  0  0  0  0  0  0  0  0
   -6.7127   25.0687  -28.8457 H   0  0  0  0  0  0  0  0  0  0  0  0
   -7.5105   25.1842  -30.4812 H   0  0  0  0  0  0  0  0  0  0  0  0
   -7.4809   20.2529  -32.4849 H   0  0  0  0  0  0  0  0  0  0  0  0
   -6.1037   18.3751  -33.3693 H   0  0  0  0  0  0  0  0  0  0  0  0
  1  2  1  0
  2  3  1  0
  3  4  2  0
  4  5  1  0
  5  6  2  0
  6  7  1  0
  7  8  1  0
  7  9  2  0
  7 10  2  0
  6 11  1  0
 11 12  2  0
 12 13  1  0
 13 14  1  0
 14 15  2  0
 14 16  1  0
 16 17  2  0
 17 18  1  0
 18 19  1  0
 19 20  2  0
 19 21  2  0
 19 22  1  0
 22 23  1  0
 23 24  1  0
 24 25  1  0
 25 26  1  0
 26 27  1  0
 18 28  2  0
 28 29  1  0
 29 30  2  0
 30 31  1  0
 12  3  1  0
 30 16  1  0
 27 22  1  0
  1 32  1  0
  1 33  1  0
  1 34  1  0
  4 35  1  0
  5 36  1  0
  8 37  1  0
 11 38  1  0
 13 39  1  0
 17 40  1  0
 23 41  1  0
 23 42  1  0
 24 43  1  0
 24 44  1  0
 26 45  1  0
 26 46  1  0
 27 47  1  0
 27 48  1  0
 28 49  1  0
 29 50  1  0
M  CHG  1   8  -1
M  END
>  <UniqueID>  (6) 
6

>  <SMILES>  (6) 
COc1ccc(S([NH-])(=O)=O)cc1NC(=O)c1cc(S(=O)(=O)N2CCOCC2)ccc1Cl

>  <Energy>  (6) 
71.93167943620105

>  <Genealogy>  (6) 
COc1ccc(S([NH-])(=O)=O)cc1NC(=O)c1cc(S(=O)(=O)N2CCOCC2)ccc1Cl (protonated)
COc1ccc(S([NH-])(=O)=O)cc1NC(=O)c1cc(S(=O)(=O)N2CCOCC2)ccc1Cl (3D coordinates assigned)
COc1ccc(S([NH-])(=O)=O)cc1NC(=O)c1cc(S(=O)(=O)N2CCOCC2)ccc1Cl (nonaromatic ring conformer: 71.93167943620105 kcal/mol)

>  <smiles>  (6) 
COc1ccc(S(N)(=O)=O)cc1NC(=O)c1cc(S(=O)(=O)N2CCOCC2)ccc1Cl

>  <score_type>  (6) 
oracle

>  <origin>  (6) 
adgpu

>  <m_score__min__energy>  (6) 
-11.74

>  <m_primary>  (6) 
energy

$$$$
6:0
     RDKit          3D

 44 46  0  0  0  0  0  0  0  0999 V2000
   -9.8070   21.1290  -32.3280 C   0  0  0  0  0  0  0  0  0  0  0  0
   -8.4870   20.8510  -31.7510 N   0  0  0  0  0  0  0  0  0  0  0  0
   -8.1400   19.4620  -31.4130 C   0  0  0  0  0  0  0  0  0  0  0  0
   -7.3390   18.8060  -32.5120 C   0  0  0  0  0  0  0  0  0  0  0  0
   -6.8300   19.5520  -33.5870 C   0  0  0  0  0  0  0  0  0  0  0  0
   -6.0700   18.9260  -34.5760 C   0  0  0  0  0  0  0  0  0  0  0  0
   -5.8180   17.5560  -34.4810 C   0  0  0  0  0  0  0  0  0  0  0  0
   -6.3070   16.8460  -33.4300 N   0  0  0  0  0  0  0  0  0  0  0  0
   -7.0500   17.4330  -32.4540 C   0  0  0  0  0  0  0  0  0  0  0  0
   -7.5860   21.9430  -31.4440 C   0  0  0  0  0  0  0  0  0  0  0  0
   -6.5790   22.3240  -32.3500 C   0  0  0  0  0  0  0  0  0  0  0  0
   -5.7270   23.3930  -32.0620 C   0  0  0  0  0  0  0  0  0  0  0  0
   -5.8670   24.1130  -30.8670 C   0  0  0  0  0  0  0  0  0  0  0  0
   -4.9680   25.2550  -30.5810 C   0  0  0  0  0  0  0  0  0  0  0  0
   -5.4580   26.4100  -30.4640 O   0  0  0  0  0  0  0  0  0  0  0  0
   -3.5480   25.0950  -30.4420 N   0  0  0  0  0  0  0  0  0  0  0  0
   -2.8820   24.3450  -29.4150 C   0  0  0  0  0  0  0  0  0  0  0  0
   -3.4100   23.0970  -29.0600 C   0  0  0  0  0  0  0  0  0  0  0  0
   -2.8450   22.3580  -28.0190 C   0  0  0  0  0  0  0  0  0  0  0  0
   -1.7380   22.8550  -27.3300 C   0  0  0  0  0  0  0  0  0  0  0  0
   -1.1780   24.0800  -27.6980 C   0  0  0  0  0  0  0  0  0  0  0  0
   -1.7250   24.8260  -28.7540 C   0  0  0  0  0  0  0  0  0  0  0  0
   -1.0630   26.0260  -29.1730 N   0  0  0  0  0  0  0  0  0  0  0  0
   -6.8530   23.7210  -29.9470 C   0  0  0  0  0  0  0  0  0  0  0  0
   -7.7080   22.6550  -30.2370 C   0  0  0  0  0  0  0  0  0  0  0  0
  -10.5360   21.2825  -31.5187 H   0  0  0  0  0  0  0  0  0  0  0  0
   -9.7522   22.0353  -32.9490 H   0  0  0  0  0  0  0  0  0  0  0  0
  -10.1224   20.2776  -32.9490 H   0  0  0  0  0  0  0  0  0  0  0  0
   -7.5461   19.4576  -30.4871 H   0  0  0  0  0  0  0  0  0  0  0  0
   -9.0741   18.8958  -31.2832 H   0  0  0  0  0  0  0  0  0  0  0  0
   -7.0306   20.6317  -33.6498 H   0  0  0  0  0  0  0  0  0  0  0  0
   -5.6734   19.5063  -35.4221 H   0  0  0  0  0  0  0  0  0  0  0  0
   -5.2237   17.0511  -35.2568 H   0  0  0  0  0  0  0  0  0  0  0  0
   -7.4265   16.8294  -31.6150 H   0  0  0  0  0  0  0  0  0  0  0  0
   -6.4614   21.7741  -33.2954 H   0  0  0  0  0  0  0  0  0  0  0  0
   -4.9402   23.6721  -32.7783 H   0  0  0  0  0  0  0  0  0  0  0  0
   -4.2768   22.6961  -29.6059 H   0  0  0  0  0  0  0  0  0  0  0  0
   -3.2728   21.3833  -27.7417 H   0  0  0  0  0  0  0  0  0  0  0  0
   -1.3063   22.2814  -26.4965 H   0  0  0  0  0  0  0  0  0  0  0  0
   -0.3010   24.4637  -27.1560 H   0  0  0  0  0  0  0  0  0  0  0  0
   -1.2350   26.4480  -30.1110 H   0  0  0  0  0  0  0  0  0  0  0  0
   -0.3060   26.4440  -28.5880 H   0  0  0  0  0  0  0  0  0  0  0  0
   -6.9527   24.2570  -28.9916 H   0  0  0  0  0  0  0  0  0  0  0  0
   -8.4855   22.3691  -29.5133 H   0  0  0  0  0  0  0  0  0  0  0  0
  1  2  1  0
  2  3  1  0
  3  4  1  0
  4  5  2  0
  5  6  1  0
  6  7  2  0
  7  8  1  0
  8  9  2  0
  2 10  1  0
 10 11  2  0
 11 12  1  0
 12 13  2  0
 13 14  1  0
 14 15  2  0
 14 16  1  0
 16 17  1  0
 17 18  2  0
 18 19  1  0
 19 20  2  0
 20 21  1  0
 21 22  2  0
 22 23  1  0
 13 24  1  0
 24 25  2  0
  9  4  1  0
 25 10  1  0
 22 17  1  0
  1 26  1  0
  1 27  1  0
  1 28  1  0
  3 29  1  0
  3 30  1  0
  5 31  1  0
  6 32  1  0
  7 33  1  0
  9 34  1  0
 11 35  1  0
 12 36  1  0
 18 37  1  0
 19 38  1  0
 20 39  1  0
 21 40  1  0
 23 41  1  0
 23 42  1  0
 24 43  1  0
 25 44  1  0
M  CHG  1  16  -1
M  END
>  <UniqueID>  (7) 
7

>  <SMILES>  (7) 
CN(Cc1cccnc1)c1ccc(C(=O)[N-]c2ccccc2N)cc1

>  <Energy>  (7) 
60.08401762789811

>  <Genealogy>  (7) 
CN(Cc1cccnc1)c1ccc(C(=O)[N-]c2ccccc2N)cc1 (protonated)
CN(Cc1cccnc1)c1ccc(C(=O)[N-]c2ccccc2N)cc1 (3D coordinates assigned)
CN(Cc1cccnc1)c1ccc(C(=O)[N-]c2ccccc2N)cc1 (optimized conformer: 60.08401762789811 kcal/mol)

>  <smiles>  (7) 
CN(Cc1cccnc1)c1ccc(C(=O)Nc2ccccc2N)cc1

>  <score_type>  (7) 
oracle

>  <origin>  (7) 
adgpu

>  <m_score__min__energy>  (7) 
-11.51

>  <m_primary>  (7) 
energy

$$$$
7:0
     RDKit          3D

 47 49  0  0  0  0  0  0  0  0999 V2000
   -1.8400   25.6740  -28.9560 O   0  0  0  0  0  0  0  0  0  0  0  0
   -2.7080   24.8820  -29.4110 C   0  0  0  0  0  0  0  0  0  0  0  0
   -3.5150   25.2800  -30.4710 O   0  0  0  0  0  0  0  0  0  0  0  0
   -2.8500   23.5080  -28.8360 C   0  0  0  0  0  0  0  0  0  0  0  0
   -2.0440   22.5480  -29.6000 N   0  0  0  0  0  0  0  0  0  0  0  0
   -0.6420   22.3130  -29.2290 C   0  0  0  0  0  0  0  0  0  0  0  0
   -0.4840   20.9400  -28.6370 C   0  0  0  0  0  0  0  0  0  0  0  0
    0.6190   20.1410  -28.9770 C   0  0  0  0  0  0  0  0  0  0  0  0
    0.7430   18.8490  -28.4550 C   0  0  0  0  0  0  0  0  0  0  0  0
    1.8430   18.0700  -28.7980 O   0  0  0  0  0  0  0  0  0  0  0  0
   -0.2370   18.3400  -27.5930 C   0  0  0  0  0  0  0  0  0  0  0  0
   -0.0930   17.0510  -27.0790 O   0  0  0  0  0  0  0  0  0  0  0  0
   -1.3510   19.1320  -27.2620 C   0  0  0  0  0  0  0  0  0  0  0  0
   -2.3380   18.6410  -26.4150 O   0  0  0  0  0  0  0  0  0  0  0  0
   -1.4740   20.4220  -27.7860 C   0  0  0  0  0  0  0  0  0  0  0  0
   -2.6210   21.8580  -30.7250 C   0  0  0  0  0  0  0  0  0  0  0  0
   -1.9120   20.8380  -31.3770 C   0  0  0  0  0  0  0  0  0  0  0  0
   -2.4780   20.1690  -32.4660 C   0  0  0  0  0  0  0  0  0  0  0  0
   -3.7560   20.5100  -32.9240 C   0  0  0  0  0  0  0  0  0  0  0  0
   -4.2660   19.8190  -34.0330 O   0  0  0  0  0  0  0  0  0  0  0  0
   -5.4020   18.5410  -33.9490 S   0  0  0  0  0  0  0  0  0  0  0  0
   -5.8110   18.1530  -35.3410 O   0  0  0  0  0  0  0  0  0  0  0  0
   -4.7640   17.3600  -33.2710 O   0  0  0  0  0  0  0  0  0  0  0  0
   -6.8280   19.0600  -33.0550 C   0  0  0  0  0  0  0  0  0  0  0  0
   -7.5750   18.1330  -32.3130 C   0  0  0  0  0  0  0  0  0  0  0  0
   -8.7050   18.5510  -31.6030 C   0  0  0  0  0  0  0  0  0  0  0  0
   -9.0930   19.8940  -31.6320 C   0  0  0  0  0  0  0  0  0  0  0  0
   -8.3540   20.8190  -32.3740 C   0  0  0  0  0  0  0  0  0  0  0  0
   -7.2260   20.4040  -33.0880 C   0  0  0  0  0  0  0  0  0  0  0  0
   -4.4720   21.5260  -32.2650 C   0  0  0  0  0  0  0  0  0  0  0  0
   -3.9070   22.1940  -31.1750 C   0  0  0  0  0  0  0  0  0  0  0  0
   -2.5095   23.5158  -27.7901 H   0  0  0  0  0  0  0  0  0  0  0  0
   -3.9068   23.2072  -28.8871 H   0  0  0  0  0  0  0  0  0  0  0  0
   -0.0101   22.3969  -30.1255 H   0  0  0  0  0  0  0  0  0  0  0  0
   -0.3379   23.0623  -28.4833 H   0  0  0  0  0  0  0  0  0  0  0  0
    1.3896   20.5327  -29.6572 H   0  0  0  0  0  0  0  0  0  0  0  0
   -0.7610   16.6530  -26.4310 H   0  0  0  0  0  0  0  0  0  0  0  0
   -2.3510   21.0349  -27.5305 H   0  0  0  0  0  0  0  0  0  0  0  0
   -0.9052   20.5632  -31.0293 H   0  0  0  0  0  0  0  0  0  0  0  0
   -1.9146   19.3681  -32.9671 H   0  0  0  0  0  0  0  0  0  0  0  0
   -7.2715   17.0759  -32.2896 H   0  0  0  0  0  0  0  0  0  0  0  0
   -9.2890   17.8227  -31.0213 H   0  0  0  0  0  0  0  0  0  0  0  0
   -9.9801   20.2224  -31.0706 H   0  0  0  0  0  0  0  0  0  0  0  0
   -8.6602   21.8753  -32.3964 H   0  0  0  0  0  0  0  0  0  0  0  0
   -6.6498   21.1330  -33.6766 H   0  0  0  0  0  0  0  0  0  0  0  0
   -5.4813   21.7960  -32.6092 H   0  0  0  0  0  0  0  0  0  0  0  0
   -4.4739   22.9880  -30.6668 H   0  0  0  0  0  0  0  0  0  0  0  0
  1  2  2  0
  2  3  1  0
  2  4  1  0
  4  5  1  0
  5  6  1  0
  6  7  1  0
  7  8  2  0
  8  9  1  0
  9 10  1  0
  9 11  2  0
 11 12  1  0
 11 13  1  0
 13 14  1  0
 13 15  2  0
  5 16  1  0
 16 17  2  0
 17 18  1  0
 18 19  2  0
 19 20  1  0
 20 21  1  0
 21 22  2  0
 21 23  2  0
 21 24  1  0
 24 25  2  0
 25 26  1  0
 26 27  2  0
 27 28  1  0
 28 29  2  0
 19 30  1  0
 30 31  2  0
 15  7  1  0
 31 16  1  0
 29 24  1  0
  4 32  1  0
  4 33  1  0
  6 34  1  0
  6 35  1  0
  8 36  1  0
 12 37  1  0
 15 38  1  0
 17 39  1  0
 18 40  1  0
 25 41  1  0
 26 42  1  0
 27 43  1  0
 28 44  1  0
 29 45  1  0
 30 46  1  0
 31 47  1  0
M  CHG  3   3  -1  10  -1  14  -1
M  END
>  <UniqueID>  (8) 
8

>  <SMILES>  (8) 
O=C([O-])CN(Cc1cc([O-])c(O)c([O-])c1)c1ccc(OS(=O)(=O)c2ccccc2)cc1

>  <Energy>  (8) 
51.023932821208476

>  <Genealogy>  (8) 
O=C([O-])CN(Cc1cc([O-])c(O)c([O-])c1)c1ccc(OS(=O)(=O)c2ccccc2)cc1 (protonated)
O=C([O-])CN(Cc1cc([O-])c(O)c([O-])c1)c1ccc(OS(=O)(=O)c2ccccc2)cc1 (3D coordinates assigned)
O=C([O-])CN(Cc1cc([O-])c(O)c([O-])c1)c1ccc(OS(=O)(=O)c2ccccc2)cc1 (optimized conformer: 51.023932821208476 kcal/mol)

>  <smiles>  (8) 
O=C(O)CN(Cc1cc(O)c(O)c(O)c1)c1ccc(OS(=O)(=O)c2ccccc2)cc1

>  <score_type>  (8) 
oracle

>  <origin>  (8) 
adgpu

>  <m_score__min__energy>  (8) 
-13.01

>  <m_primary>  (8) 
energy

$$$$
8:0
     RDKit          3D

 42 44  0  0  0  0  0  0  0  0999 V2000
   -2.4550   14.5530  -35.3340 N   0  0  0  0  0  0  0  0  0  0  0  0
   -3.3940   15.1420  -35.0010 C   0  0  0  0  0  0  0  0  0  0  0  0
   -4.5620   15.8740  -34.5880 C   0  0  0  0  0  0  0  0  0  0  0  0
   -5.7150   15.1850  -34.1910 C   0  0  0  0  0  0  0  0  0  0  0  0
   -6.8500   15.8970  -33.7960 C   0  0  0  0  0  0  0  0  0  0  0  0
   -6.8390   17.2950  -33.7950 C   0  0  0  0  0  0  0  0  0  0  0  0
   -5.6900   17.9980  -34.2020 C   0  0  0  0  0  0  0  0  0  0  0  0
   -5.6540   19.4350  -34.2160 N   0  0  0  0  0  0  0  0  0  0  0  0
   -4.7090   20.3670  -33.0990 S   0  0  0  0  0  0  0  0  0  0  0  0
   -3.6130   21.0760  -33.8450 O   0  0  0  0  0  0  0  0  0  0  0  0
   -4.0790   19.4600  -32.0780 O   0  0  0  0  0  0  0  0  0  0  0  0
   -5.7380   21.5680  -32.3240 C   0  0  0  0  0  0  0  0  0  0  0  0
   -7.1060   21.3090  -32.1670 C   0  0  0  0  0  0  0  0  0  0  0  0
   -7.9230   22.2280  -31.5030 C   0  0  0  0  0  0  0  0  0  0  0  0
   -7.3750   23.4020  -30.9800 C   0  0  0  0  0  0  0  0  0  0  0  0
   -6.0060   23.6640  -31.1230 C   0  0  0  0  0  0  0  0  0  0  0  0
   -5.3050   25.1060  -30.3930 S   0  0  0  0  0  0  0  0  0  0  0  0
   -5.7690   25.2050  -28.9690 O   0  0  0  0  0  0  0  0  0  0  0  0
   -5.7340   26.3400  -31.1380 O   0  0  0  0  0  0  0  0  0  0  0  0
   -3.5750   25.0030  -30.4260 N   0  0  0  0  0  0  0  0  0  0  0  0
   -2.7740   24.2250  -29.5230 C   0  0  0  0  0  0  0  0  0  0  0  0
   -3.1230   22.9090  -29.1600 C   0  0  0  0  0  0  0  0  0  0  0  0
   -2.3320   22.1950  -28.2550 C   0  0  0  0  0  0  0  0  0  0  0  0
   -1.1850   22.7790  -27.7130 C   0  0  0  0  0  0  0  0  0  0  0  0
   -0.8210   24.0770  -28.0820 C   0  0  0  0  0  0  0  0  0  0  0  0
   -1.6120   24.7990  -28.9840 C   0  0  0  0  0  0  0  0  0  0  0  0
   -1.2400   26.0910  -29.3380 O   0  0  0  0  0  0  0  0  0  0  0  0
   -5.1920   22.7530  -31.8090 C   0  0  0  0  0  0  0  0  0  0  0  0
   -4.5490   17.2760  -34.5870 C   0  0  0  0  0  0  0  0  0  0  0  0
   -5.7267   14.0851  -34.1903 H   0  0  0  0  0  0  0  0  0  0  0  0
   -7.7556   15.3558  -33.4846 H   0  0  0  0  0  0  0  0  0  0  0  0
   -7.7337   17.8486  -33.4742 H   0  0  0  0  0  0  0  0  0  0  0  0
   -6.3650   19.9530  -34.7800 H   0  0  0  0  0  0  0  0  0  0  0  0
   -7.5380   20.3800  -32.5674 H   0  0  0  0  0  0  0  0  0  0  0  0
   -8.9987   22.0269  -31.3920 H   0  0  0  0  0  0  0  0  0  0  0  0
   -8.0197   24.1221  -30.4549 H   0  0  0  0  0  0  0  0  0  0  0  0
   -4.0211   22.4417  -29.5902 H   0  0  0  0  0  0  0  0  0  0  0  0
   -2.6137   21.1708  -27.9692 H   0  0  0  0  0  0  0  0  0  0  0  0
   -0.5682   22.2175  -26.9958 H   0  0  0  0  0  0  0  0  0  0  0  0
    0.0885   24.5322  -27.6630 H   0  0  0  0  0  0  0  0  0  0  0  0
   -4.1216   22.9677  -31.9441 H   0  0  0  0  0  0  0  0  0  0  0  0
   -3.6386   17.8140  -34.8899 H   0  0  0  0  0  0  0  0  0  0  0  0
  1  2  3  0
  2  3  1  0
  3  4  2  0
  4  5  1  0
  5  6  2  0
  6  7  1  0
  7  8  1  0
  8  9  1  0
  9 10  2  0
  9 11  2  0
  9 12  1  0
 12 13  2  0
 13 14  1  0
 14 15  2  0
 15 16  1  0
 16 17  1  0
 17 18  2  0
 17 19  2  0
 17 20  1  0
 20 21  1  0
 21 22  2  0
 22 23  1  0
 23 24  2  0
 24 25  1  0
 25 26  2  0
 26 27  1  0
 16 28  2  0
  7 29  2  0
 29  3  1  0
 28 12  1  0
 26 21  1  0
  4 30  1  0
  5 31  1  0
  6 32  1  0
  8 33  1  0
 13 34  1  0
 14 35  1  0
 15 36  1  0
 22 37  1  0
 23 38  1  0
 24 39  1  0
 25 40  1  0
 28 41  1  0
 29 42  1  0
M  CHG  2  20  -1  27  -1
M  END
>  <UniqueID>  (9) 
9

>  <SMILES>  (9) 
N#Cc1cccc(NS(=O)(=O)c2cccc(S(=O)(=O)[N-]c3ccccc3[O-])c2)c1

>  <Energy>  (9) 
48.51879834243842

>  <Genealogy>  (9) 
N#Cc1cccc(NS(=O)(=O)c2cccc(S(=O)(=O)[N-]c3ccccc3[O-])c2)c1 (protonated)
N#Cc1cccc(NS(=O)(=O)c2cccc(S(=O)(=O)[N-]c3ccccc3[O-])c2)c1 (3D coordinates assigned)
N#Cc1cccc(NS(=O)(=O)c2cccc(S(=O)(=O)[N-]c3ccccc3[O-])c2)c1 (optimized conformer: 48.51879834243842 kcal/mol)

>  <smiles>  (9) 
N#Cc1cccc(NS(=O)(=O)c2cccc(S(=O)(=O)Nc3ccccc3O)c2)c1

>  <score_type>  (9) 
oracle

>  <origin>  (9) 
adgpu

>  <m_score__min__energy>  (9) 
-14.18

>  <m_primary>  (9) 
energy

$$$$
9:0
     RDKit          3D

 60 64  0  0  0  0  0  0  0  0999 V2000
    0.2700   21.9030  -33.8630 O   0  0  0  0  0  0  0  0  0  0  0  0
   -0.1970   20.9600  -33.1680 C   0  0  0  0  0  0  0  0  0  0  0  0
    0.6860   20.1370  -32.3940 N   0  0  0  0  0  0  0  0  0  0  0  0
    0.6420   19.9720  -30.9700 C   0  0  0  0  0  0  0  0  0  0  0  0
    1.6810   19.2830  -30.3360 C   0  0  0  0  0  0  0  0  0  0  0  0
    1.6720   19.1160  -28.9490 C   0  0  0  0  0  0  0  0  0  0  0  0
    0.6370   19.6550  -28.1830 C   0  0  0  0  0  0  0  0  0  0  0  0
   -0.3900   20.3820  -28.7990 C   0  0  0  0  0  0  0  0  0  0  0  0
   -1.6740   21.1100  -27.8300 S   0  0  0  0  0  0  0  0  0  0  0  0
   -1.6860   20.4750  -26.4670 O   0  0  0  0  0  0  0  0  0  0  0  0
   -3.0010   20.8340  -28.4820 O   0  0  0  0  0  0  0  0  0  0  0  0
   -1.4690   22.8410  -27.6760 N   0  0  0  0  0  0  0  0  0  0  0  0
   -0.6430   23.3650  -28.7800 C   0  0  0  0  0  0  0  0  0  0  0  0
   -0.8690   24.8770  -28.9510 C   0  0  0  0  0  0  0  0  0  0  0  0
   -2.2120   25.2290  -29.2590 O   0  0  0  0  0  0  0  0  0  0  0  0
   -3.1690   24.2660  -28.8350 C   0  0  0  0  0  0  0  0  0  0  0  0
   -2.7660   23.5360  -27.5400 C   0  0  0  0  0  0  0  0  0  0  0  0
   -0.3860   20.5360  -30.1930 C   0  0  0  0  0  0  0  0  0  0  0  0
   -1.6600   20.7330  -33.1200 C   0  0  0  0  0  0  0  0  0  0  0  0
   -2.2530   19.7110  -33.8840 C   0  0  0  0  0  0  0  0  0  0  0  0
   -3.6370   19.5160  -33.8510 C   0  0  0  0  0  0  0  0  0  0  0  0
   -4.4440   20.3320  -33.0550 C   0  0  0  0  0  0  0  0  0  0  0  0
   -3.8690   21.3470  -32.2780 C   0  0  0  0  0  0  0  0  0  0  0  0
   -4.8620   22.3820  -31.2570 S   0  0  0  0  0  0  0  0  0  0  0  0
   -4.4220   23.8080  -31.4380 O   0  0  0  0  0  0  0  0  0  0  0  0
   -4.6850   21.9950  -29.8160 O   0  0  0  0  0  0  0  0  0  0  0  0
   -6.5400   22.2500  -31.6760 N   0  0  0  0  0  0  0  0  0  0  0  0
   -7.4250   23.3870  -31.9110 C   0  0  0  0  0  0  0  0  0  0  0  0
   -8.8260   22.7820  -32.1820 C   0  0  0  0  0  0  0  0  0  0  0  0
   -8.6010   21.3150  -32.0430 C   0  0  0  0  0  0  0  0  0  0  0  0
   -9.5330   20.2840  -32.1760 C   0  0  0  0  0  0  0  0  0  0  0  0
   -9.0960   18.9600  -32.0050 C   0  0  0  0  0  0  0  0  0  0  0  0
   -7.7440   18.6930  -31.7110 C   0  0  0  0  0  0  0  0  0  0  0  0
   -6.8260   19.7480  -31.5840 C   0  0  0  0  0  0  0  0  0  0  0  0
   -7.2910   21.0540  -31.7540 C   0  0  0  0  0  0  0  0  0  0  0  0
   -2.4840   21.5480  -32.3180 C   0  0  0  0  0  0  0  0  0  0  0  0
    2.5087   18.8709  -30.9319 H   0  0  0  0  0  0  0  0  0  0  0  0
    2.4833   18.5578  -28.4589 H   0  0  0  0  0  0  0  0  0  0  0  0
    0.6277   19.5085  -27.0928 H   0  0  0  0  0  0  0  0  0  0  0  0
    0.4183   23.1805  -28.5572 H   0  0  0  0  0  0  0  0  0  0  0  0
   -0.9291   22.8548  -29.7116 H   0  0  0  0  0  0  0  0  0  0  0  0
   -0.5865   25.3774  -28.0130 H   0  0  0  0  0  0  0  0  0  0  0  0
   -0.2521   25.1970  -29.8037 H   0  0  0  0  0  0  0  0  0  0  0  0
   -4.1272   24.7782  -28.6634 H   0  0  0  0  0  0  0  0  0  0  0  0
   -3.2409   23.5071  -29.6280 H   0  0  0  0  0  0  0  0  0  0  0  0
   -2.6906   24.2723  -26.7262 H   0  0  0  0  0  0  0  0  0  0  0  0
   -3.5351   22.7800  -27.3232 H   0  0  0  0  0  0  0  0  0  0  0  0
   -1.1925   21.1019  -30.6822 H   0  0  0  0  0  0  0  0  0  0  0  0
   -1.6241   19.0617  -34.5108 H   0  0  0  0  0  0  0  0  0  0  0  0
   -4.0922   18.7167  -34.4543 H   0  0  0  0  0  0  0  0  0  0  0  0
   -5.5330   20.1778  -33.0378 H   0  0  0  0  0  0  0  0  0  0  0  0
   -7.4541   24.0393  -31.0257 H   0  0  0  0  0  0  0  0  0  0  0  0
   -7.0791   24.0019  -32.7550 H   0  0  0  0  0  0  0  0  0  0  0  0
   -9.5588   23.1396  -31.4437 H   0  0  0  0  0  0  0  0  0  0  0  0
   -9.2326   23.0631  -33.1647 H   0  0  0  0  0  0  0  0  0  0  0  0
  -10.5853   20.5035  -32.4093 H   0  0  0  0  0  0  0  0  0  0  0  0
   -9.8110   18.1296  -32.1008 H   0  0  0  0  0  0  0  0  0  0  0  0
   -7.4064   17.6542  -31.5805 H   0  0  0  0  0  0  0  0  0  0  0  0
   -5.7680   19.5509  -31.3565 H   0  0  0  0  0  0  0  0  0  0  0  0
   -2.0337   22.3514  -31.7165 H   0  0  0  0  0  0  0  0  0  0  0  0
  1  2  2  0
  2  3  1  0
  3  4  1  0
  4  5  2  0
  5  6  1  0
  6  7  2  0
  7  8  1  0
  8  9  1  0
  9 10  2  0
  9 11  2  0
  9 12  1  0
 12 13  1  0
 13 14  1  0
 14 15  1  0
 15 16  1  0
 16 17  1  0
  8 18  2  0
  2 19  1  0
 19 20  2  0
 20 21  1  0
 21 22  2  0
 22 23  1  0
 23 24  1  0
 24 25  2  0
 24 26  2  0
 24 27  1  0
 27 28  1  0
 28 29  1  0
 29 30  1  0
 30 31  2  0
 31 32  1  0
 32 33  2  0
 33 34  1  0
 34 35  2  0
 23 36  2  0
 18  4  1  0
 36 19  1  0
 17 12  1  0
 35 27  1  0
 35 30  1  0
  5 37  1  0
  6 38  1  0
  7 39  1  0
 13 40  1  0
 13 41  1  0
 14 42  1  0
 14 43  1  0
 16 44  1  0
 16 45  1  0
 17 46  1  0
 17 47  1  0
 18 48  1  0
 20 49  1  0
 21 50  1  0
 22 51  1  0
 28 52  1  0
 28 53  1  0
 29 54  1  0
 29 55  1  0
 31 56  1  0
 32 57  1  0
 33 58  1  0
 34 59  1  0
 36 60  1  0
M  CHG  1   3  -1
M  END
>  <UniqueID>  (10) 
10

>  <SMILES>  (10) 
O=C([N-]c1cccc(S(=O)(=O)N2CCOCC2)c1)c1cccc(S(=O)(=O)N2CCc3ccccc32)c1

>  <Energy>  (10) 
97.01913777665914

>  <Genealogy>  (10) 
O=C([N-]c1cccc(S(=O)(=O)N2CCOCC2)c1)c1cccc(S(=O)(=O)N2CCc3ccccc32)c1 (protonated)
O=C([N-]c1cccc(S(=O)(=O)N2CCOCC2)c1)c1cccc(S(=O)(=O)N2CCc3ccccc32)c1 (3D coordinates assigned)
O=C([N-]c1cccc(S(=O)(=O)N2CCOCC2)c1)c1cccc(S(=O)(=O)N2CCc3ccccc32)c1 (nonaromatic ring conformer: 97.01913777665914 kcal/mol)

>  <smiles>  (10) 
O=C(Nc1cccc(S(=O)(=O)N2CCOCC2)c1)c1cccc(S(=O)(=O)N2CCc3ccccc32)c1

>  <score_type>  (10) 
oracle

>  <origin>  (10) 
adgpu

>  <m_score__min__energy>  (10) 
-12.789999999999999

>  <m_primary>  (10) 
energy

$$$$
10:0
     RDKit          3D

 33 34  0  0  0  0  0  0  0  0999 V2000
   -4.2680   22.0060  -32.6230 C   0  0  0  0  0  0  0  0  0  0  0  0
   -5.5330   22.5520  -32.0110 C   0  0  0  0  0  0  0  0  0  0  0  0
   -6.7520   21.9320  -32.3070 C   0  0  0  0  0  0  0  0  0  0  0  0
   -7.9220   22.4100  -31.7200 C   0  0  0  0  0  0  0  0  0  0  0  0
   -9.0230   21.8530  -31.9680 O   0  0  0  0  0  0  0  0  0  0  0  0
   -7.8840   23.4510  -30.8990 O   0  0  0  0  0  0  0  0  0  0  0  0
   -6.7600   24.0950  -30.5930 C   0  0  0  0  0  0  0  0  0  0  0  0
   -6.8570   25.2710  -29.6650 C   0  0  0  0  0  0  0  0  0  0  0  0
   -5.5250   23.6710  -31.1440 C   0  0  0  0  0  0  0  0  0  0  0  0
   -4.2650   24.3780  -30.8230 C   0  0  0  0  0  0  0  0  0  0  0  0
   -4.2240   25.6380  -30.8470 O   0  0  0  0  0  0  0  0  0  0  0  0
   -3.0920   23.6290  -30.4900 N   0  0  0  0  0  0  0  0  0  0  0  0
   -2.8780   22.9980  -29.1920 C   0  0  0  0  0  0  0  0  0  0  0  0
   -2.5330   24.0400  -28.1640 C   0  0  0  0  0  0  0  0  0  0  0  0
   -3.4200   24.3030  -27.1070 C   0  0  0  0  0  0  0  0  0  0  0  0
   -3.1220   25.2940  -26.1670 C   0  0  0  0  0  0  0  0  0  0  0  0
   -1.9400   26.0320  -26.2780 C   0  0  0  0  0  0  0  0  0  0  0  0
   -1.0560   25.7800  -27.3310 C   0  0  0  0  0  0  0  0  0  0  0  0
   -1.3510   24.7910  -28.2740 C   0  0  0  0  0  0  0  0  0  0  0  0
   -3.5738   21.7064  -31.8240 H   0  0  0  0  0  0  0  0  0  0  0  0
   -4.5095   21.1320  -33.2457 H   0  0  0  0  0  0  0  0  0  0  0  0
   -3.7977   22.7812  -33.2457 H   0  0  0  0  0  0  0  0  0  0  0  0
   -6.7864   21.0755  -32.9964 H   0  0  0  0  0  0  0  0  0  0  0  0
   -6.8280   24.9193  -28.6231 H   0  0  0  0  0  0  0  0  0  0  0  0
   -6.0119   25.9515  -29.8459 H   0  0  0  0  0  0  0  0  0  0  0  0
   -7.8021   25.8039  -29.8459 H   0  0  0  0  0  0  0  0  0  0  0  0
   -3.7956   22.4742  -28.8859 H   0  0  0  0  0  0  0  0  0  0  0  0
   -2.0478   22.2808  -29.2717 H   0  0  0  0  0  0  0  0  0  0  0  0
   -4.3529   23.7269  -27.0185 H   0  0  0  0  0  0  0  0  0  0  0  0
   -3.8184   25.4932  -25.3391 H   0  0  0  0  0  0  0  0  0  0  0  0
   -1.7057   26.8106  -25.5371 H   0  0  0  0  0  0  0  0  0  0  0  0
   -0.1261   26.3612  -27.4179 H   0  0  0  0  0  0  0  0  0  0  0  0
   -0.6555   24.6003  -29.1046 H   0  0  0  0  0  0  0  0  0  0  0  0
  1  2  1  0
  2  3  2  0
  3  4  1  0
  4  5  2  0
  4  6  1  0
  6  7  1  0
  7  8  1  0
  7  9  2  0
  9 10  1  0
 10 11  2  0
 10 12  1  0
 12 13  1  0
 13 14  1  0
 14 15  2  0
 15 16  1  0
 16 17  2  0
 17 18  1  0
 18 19  2  0
  9  2  1  0
 19 14  1  0
  1 20  1  0
  1 21  1  0
  1 22  1  0
  3 23  1  0
  8 24  1  0
  8 25  1  0
  8 26  1  0
 13 27  1  0
 13 28  1  0
 15 29  1  0
 16 30  1  0
 17 31  1  0
 18 32  1  0
 19 33  1  0
M  CHG  1  12  -1
M  END
>  <UniqueID>  (11) 
11

>  <SMILES>  (11) 
Cc1cc(=O)oc(C)c1C(=O)[N-]Cc1ccccc1

>  <Energy>  (11) 
37.7577631226761

>  <Genealogy>  (11) 
Cc1cc(=O)oc(C)c1C(=O)[N-]Cc1ccccc1 (protonated)
Cc1cc(=O)oc(C)c1C(=O)[N-]Cc1ccccc1 (3D coordinates assigned)
Cc1cc(=O)oc(C)c1C(=O)[N-]Cc1ccccc1 (optimized conformer: 37.7577631226761 kcal/mol)

>  <smiles>  (11) 
Cc1cc(=O)oc(C)c1C(=O)NCc1ccccc1

>  <score_type>  (11) 
oracle

>  <origin>  (11) 
adgpu

>  <m_score__min__energy>  (11) 
-8.1500000000000004

>  <m_primary>  (11) 
energy

$$$$
11:0
     RDKit          3D

 35 36  0  0  0  0  0  0  0  0999 V2000
   -1.5260   24.8790  -28.1890 C   0  0  0  0  0  0  0  0  0  0  0  0
   -2.8780   24.3190  -28.1690 N   0  0  0  0  0  0  0  0  0  0  0  0
   -3.7500   24.5520  -27.0180 C   0  0  0  0  0  0  0  0  0  0  0  0
   -3.2910   23.4330  -29.2190 C   0  0  0  0  0  0  0  0  0  0  0  0
   -3.2100   22.0450  -29.0230 C   0  0  0  0  0  0  0  0  0  0  0  0
   -3.6310   21.1640  -30.0200 C   0  0  0  0  0  0  0  0  0  0  0  0
   -4.1340   21.6570  -31.2300 C   0  0  0  0  0  0  0  0  0  0  0  0
   -4.6910   20.5460  -32.4740 S   0  0  0  0  0  0  0  0  0  0  0  0
   -4.3380   21.0830  -33.8340 O   0  0  0  0  0  0  0  0  0  0  0  0
   -4.0180   19.2110  -32.3110 O   0  0  0  0  0  0  0  0  0  0  0  0
   -6.4340   20.3600  -32.3370 C   0  0  0  0  0  0  0  0  0  0  0  0
   -7.2410   21.4690  -32.0400 C   0  0  0  0  0  0  0  0  0  0  0  0
   -8.6240   21.3160  -31.9110 C   0  0  0  0  0  0  0  0  0  0  0  0
   -9.2080   20.0550  -32.0690 C   0  0  0  0  0  0  0  0  0  0  0  0
   -8.4070   18.9450  -32.3550 C   0  0  0  0  0  0  0  0  0  0  0  0
   -7.0230   19.0960  -32.4850 C   0  0  0  0  0  0  0  0  0  0  0  0
   -4.2210   23.0400  -31.4310 C   0  0  0  0  0  0  0  0  0  0  0  0
   -3.7970   23.9350  -30.4380 C   0  0  0  0  0  0  0  0  0  0  0  0
   -3.8650   25.3440  -30.6850 N   0  0  0  0  0  0  0  0  0  0  0  0
   -1.1742   25.0247  -27.1570 H   0  0  0  0  0  0  0  0  0  0  0  0
   -0.8501   24.1868  -28.7125 H   0  0  0  0  0  0  0  0  0  0  0  0
   -1.5375   25.8464  -28.7125 H   0  0  0  0  0  0  0  0  0  0  0  0
   -3.1802   24.3997  -26.0895 H   0  0  0  0  0  0  0  0  0  0  0  0
   -4.1310   25.5834  -27.0494 H   0  0  0  0  0  0  0  0  0  0  0  0
   -4.5947   23.8480  -27.0494 H   0  0  0  0  0  0  0  0  0  0  0  0
   -2.8119   21.6493  -28.0770 H   0  0  0  0  0  0  0  0  0  0  0  0
   -3.5674   20.0784  -29.8546 H   0  0  0  0  0  0  0  0  0  0  0  0
   -6.7839   22.4609  -31.9085 H   0  0  0  0  0  0  0  0  0  0  0  0
   -9.2543   22.1887  -31.6848 H   0  0  0  0  0  0  0  0  0  0  0  0
  -10.2969   19.9364  -31.9683 H   0  0  0  0  0  0  0  0  0  0  0  0
   -8.8658   17.9528  -32.4777 H   0  0  0  0  0  0  0  0  0  0  0  0
   -6.3942   18.2204  -32.7041 H   0  0  0  0  0  0  0  0  0  0  0  0
   -4.6259   23.4283  -32.3772 H   0  0  0  0  0  0  0  0  0  0  0  0
   -3.5270   26.0420  -29.9850 H   0  0  0  0  0  0  0  0  0  0  0  0
   -4.2260   25.7070  -31.5960 H   0  0  0  0  0  0  0  0  0  0  0  0
  1  2  1  0
  2  3  1  0
  2  4  1  0
  4  5  2  0
  5  6  1  0
  6  7  2  0
  7  8  1  0
  8  9  2  0
  8 10  2  0
  8 11  1  0
 11 12  2  0
 12 13  1  0
 13 14  2  0
 14 15  1  0
 15 16  2  0
  7 17  1  0
 17 18  2  0
 18 19  1  0
 18  4  1  0
 16 11  1  0
  1 20  1  0
  1 21  1  0
  1 22  1  0
  3 23  1  0
  3 24  1  0
  3 25  1  0
  5 26  1  0
  6 27  1  0
 12 28  1  0
 13 29  1  0
 14 30  1  0
 15 31  1  0
 16 32  1  0
 17 33  1  0
 19 34  1  0
 19 35  1  0
M  END
>  <UniqueID>  (12) 
12

>  <SMILES>  (12) 
CN(C)c1ccc(S(=O)(=O)c2ccccc2)cc1N

>  <Energy>  (12) 
40.59699342758207

>  <Genealogy>  (12) 
CN(C)c1ccc(S(=O)(=O)c2ccccc2)cc1N (3D coordinates assigned)
CN(C)c1ccc(S(=O)(=O)c2ccccc2)cc1N (optimized conformer: 40.59699342758207 kcal/mol)

>  <smiles>  (12) 
CN(C)c1ccc(S(=O)(=O)c2ccccc2)cc1N

>  <score_type>  (12) 
oracle

>  <origin>  (12) 
adgpu

>  <m_score__min__energy>  (12) 
-7.4100000000000001

>  <m_primary>  (12) 
energy

$$$$
12:0
     RDKit          3D

 28 30  0  0  0  0  0  0  0  0999 V2000
   -9.1550   22.4960  -31.3380 O   0  0  0  0  0  0  0  0  0  0  0  0
   -7.9760   22.1080  -31.5550 C   0  0  0  0  0  0  0  0  0  0  0  0
   -7.7560   20.8360  -32.0870 C   0  0  0  0  0  0  0  0  0  0  0  0
   -6.4410   20.4110  -32.3250 C   0  0  0  0  0  0  0  0  0  0  0  0
   -6.1700   19.0710  -32.8880 C   0  0  0  0  0  0  0  0  0  0  0  0
   -7.1020   18.0260  -32.7040 C   0  0  0  0  0  0  0  0  0  0  0  0
   -8.2750   18.2380  -31.9860 O   0  0  0  0  0  0  0  0  0  0  0  0
   -6.8680   16.7670  -33.2640 C   0  0  0  0  0  0  0  0  0  0  0  0
   -5.7180   16.5350  -34.0190 C   0  0  0  0  0  0  0  0  0  0  0  0
   -5.4960   15.2830  -34.5790 O   0  0  0  0  0  0  0  0  0  0  0  0
   -4.7920   17.5610  -34.2130 C   0  0  0  0  0  0  0  0  0  0  0  0
   -5.0010   18.8240  -33.6470 C   0  0  0  0  0  0  0  0  0  0  0  0
   -4.0210   19.8010  -33.8400 O   0  0  0  0  0  0  0  0  0  0  0  0
   -5.4190   21.2160  -32.0430 O   0  0  0  0  0  0  0  0  0  0  0  0
   -5.5800   22.4350  -31.5370 C   0  0  0  0  0  0  0  0  0  0  0  0
   -4.4580   23.2250  -31.2650 C   0  0  0  0  0  0  0  0  0  0  0  0
   -4.6160   24.5100  -30.7320 C   0  0  0  0  0  0  0  0  0  0  0  0
   -3.4990   25.2910  -30.4640 O   0  0  0  0  0  0  0  0  0  0  0  0
   -5.8960   25.0070  -30.4680 C   0  0  0  0  0  0  0  0  0  0  0  0
   -7.0250   24.2260  -30.7350 C   0  0  0  0  0  0  0  0  0  0  0  0
   -6.8760   22.9330  -31.2710 C   0  0  0  0  0  0  0  0  0  0  0  0
   -8.6045   20.1748  -32.3168 H   0  0  0  0  0  0  0  0  0  0  0  0
   -7.5939   15.9553  -33.1087 H   0  0  0  0  0  0  0  0  0  0  0  0
   -3.8906   17.3756  -34.8156 H   0  0  0  0  0  0  0  0  0  0  0  0
   -4.0140   20.6830  -33.3450 H   0  0  0  0  0  0  0  0  0  0  0  0
   -3.4498   22.8359  -31.4702 H   0  0  0  0  0  0  0  0  0  0  0  0
   -6.0155   26.0168  -30.0484 H   0  0  0  0  0  0  0  0  0  0  0  0
   -8.0297   24.6222  -30.5261 H   0  0  0  0  0  0  0  0  0  0  0  0
  1  2  2  0
  2  3  1  0
  3  4  2  0
  4  5  1  0
  5  6  2  0
  6  7  1  0
  6  8  1  0
  8  9  2  0
  9 10  1  0
  9 11  1  0
 11 12  2  0
 12 13  1  0
  4 14  1  0
 14 15  1  0
 15 16  2  0
 16 17  1  0
 17 18  1  0
 17 19  2  0
 19 20  1  0
 20 21  2  0
 21  2  1  0
 12  5  1  0
 21 15  1  0
  3 22  1  0
  8 23  1  0
 11 24  1  0
 13 25  1  0
 16 26  1  0
 19 27  1  0
 20 28  1  0
M  CHG  3   7  -1  10  -1  18  -1
M  END
>  <UniqueID>  (13) 
13

>  <SMILES>  (13) 
O=c1cc(-c2c([O-])cc([O-])cc2O)oc2cc([O-])ccc12

>  <Energy>  (13) 
44.13427558847182

>  <Genealogy>  (13) 
O=c1cc(-c2c([O-])cc([O-])cc2O)oc2cc([O-])ccc12 (protonated)
O=c1cc(-c2c([O-])cc([O-])cc2O)oc2cc([O-])ccc12 (3D coordinates assigned)
O=c1cc(-c2c([O-])cc([O-])cc2O)oc2cc([O-])ccc12 (optimized conformer: 44.13427558847182 kcal/mol)

>  <smiles>  (13) 
O=c1cc(-c2c(O)cc(O)cc2O)oc2cc(O)ccc12

>  <score_type>  (13) 
oracle

>  <origin>  (13) 
adgpu

>  <m_score__min__energy>  (13) 
-9.8100000000000005

>  <m_primary>  (13) 
energy

$$$$
13:0
     RDKit          3D

 47 48  0  0  0  0  0  0  0  0999 V2000
   -7.2030   23.7340  -31.2120 C   0  0  0  0  0  0  0  0  0  0  0  0
   -6.4310   23.6100  -30.0380 O   0  0  0  0  0  0  0  0  0  0  0  0
   -5.9980   24.8890  -29.6260 C   0  0  0  0  0  0  0  0  0  0  0  0
   -5.2890   25.5940  -30.7820 C   0  0  0  0  0  0  0  0  0  0  0  0
   -3.8590   25.2990  -30.7680 N   0  0  0  0  0  0  0  0  0  0  0  0
   -3.2850   24.1410  -30.1480 C   0  0  0  0  0  0  0  0  0  0  0  0
   -2.8400   24.2160  -28.9700 O   0  0  0  0  0  0  0  0  0  0  0  0
   -3.2230   22.8570  -30.8840 C   0  0  0  0  0  0  0  0  0  0  0  0
   -4.1570   22.5680  -31.8960 C   0  0  0  0  0  0  0  0  0  0  0  0
   -4.1020   21.3550  -32.5880 C   0  0  0  0  0  0  0  0  0  0  0  0
   -3.1180   20.4070  -32.2770 C   0  0  0  0  0  0  0  0  0  0  0  0
   -3.0610   18.8720  -33.1480 S   0  0  0  0  0  0  0  0  0  0  0  0
   -2.7510   19.1520  -34.5930 O   0  0  0  0  0  0  0  0  0  0  0  0
   -1.9480   18.0250  -32.5970 O   0  0  0  0  0  0  0  0  0  0  0  0
   -4.5770   18.0000  -33.0370 N   0  0  2  0  0  0  0  0  0  0  0  0
   -4.3740   16.5980  -33.4290 C   0  0  0  0  0  0  0  0  0  0  0  0
   -5.6280   18.6160  -33.8810 C   0  0  0  0  0  0  0  0  0  0  0  0
   -6.8270   19.0650  -33.0750 C   0  0  0  0  0  0  0  0  0  0  0  0
   -7.1990   20.4210  -33.0460 C   0  0  0  0  0  0  0  0  0  0  0  0
   -8.3090   20.8330  -32.3030 C   0  0  0  0  0  0  0  0  0  0  0  0
   -9.0660   19.8950  -31.5950 C   0  0  0  0  0  0  0  0  0  0  0  0
   -8.7180   18.5430  -31.6360 C   0  0  0  0  0  0  0  0  0  0  0  0
   -7.6070   18.1270  -32.3770 C   0  0  0  0  0  0  0  0  0  0  0  0
   -2.1760   20.6940  -31.2810 C   0  0  0  0  0  0  0  0  0  0  0  0
   -2.2300   21.9060  -30.5860 C   0  0  0  0  0  0  0  0  0  0  0  0
   -8.2559   23.9031  -30.9423 H   0  0  0  0  0  0  0  0  0  0  0  0
   -6.8351   24.5846  -31.8046 H   0  0  0  0  0  0  0  0  0  0  0  0
   -7.1200   22.8110  -31.8046 H   0  0  0  0  0  0  0  0  0  0  0  0
   -6.8676   25.4855  -29.3130 H   0  0  0  0  0  0  0  0  0  0  0  0
   -5.2991   24.7814  -28.7834 H   0  0  0  0  0  0  0  0  0  0  0  0
   -5.7195   25.2490  -31.7337 H   0  0  0  0  0  0  0  0  0  0  0  0
   -5.4270   26.6797  -30.6717 H   0  0  0  0  0  0  0  0  0  0  0  0
   -4.9369   23.3029  -32.1445 H   0  0  0  0  0  0  0  0  0  0  0  0
   -4.8347   21.1434  -33.3807 H   0  0  0  0  0  0  0  0  0  0  0  0
   -4.8750   18.0030  -32.0340 H   0  0  0  0  0  0  0  0  0  0  0  0
   -4.2837   15.9745  -32.5273 H   0  0  0  0  0  0  0  0  0  0  0  0
   -5.2321   16.2564  -34.0266 H   0  0  0  0  0  0  0  0  0  0  0  0
   -3.4543   16.5138  -34.0266 H   0  0  0  0  0  0  0  0  0  0  0  0
   -5.2009   19.4897  -34.3951 H   0  0  0  0  0  0  0  0  0  0  0  0
   -5.9717   17.8547  -34.5967 H   0  0  0  0  0  0  0  0  0  0  0  0
   -6.6134   21.1612  -33.6110 H   0  0  0  0  0  0  0  0  0  0  0  0
   -8.5872   21.8969  -32.2754 H   0  0  0  0  0  0  0  0  0  0  0  0
   -9.9355   20.2216  -31.0057 H   0  0  0  0  0  0  0  0  0  0  0  0
   -9.3185   17.8043  -31.0848 H   0  0  0  0  0  0  0  0  0  0  0  0
   -7.3423   17.0600  -32.4137 H   0  0  0  0  0  0  0  0  0  0  0  0
   -1.3897   19.9621  -31.0443 H   0  0  0  0  0  0  0  0  0  0  0  0
   -1.4902   22.1176  -29.8000 H   0  0  0  0  0  0  0  0  0  0  0  0
  1  2  1  0
  2  3  1  0
  3  4  1  0
  4  5  1  0
  5  6  1  0
  6  7  2  0
  6  8  1  0
  8  9  2  0
  9 10  1  0
 10 11  2  0
 11 12  1  0
 12 13  2  0
 12 14  2  0
 12 15  1  0
 15 16  1  0
 15 17  1  0
 17 18  1  0
 18 19  2  0
 19 20  1  0
 20 21  2  0
 21 22  1  0
 22 23  2  0
 11 24  1  0
 24 25  2  0
 25  8  1  0
 23 18  1  0
  1 26  1  0
  1 27  1  0
  1 28  1  0
  3 29  1  0
  3 30  1  0
  4 31  1  0
  4 32  1  0
  9 33  1  0
 10 34  1  0
 15 35  1  1
 16 36  1  0
 16 37  1  0
 16 38  1  0
 17 39  1  0
 17 40  1  0
 19 41  1  0
 20 42  1  0
 21 43  1  0
 22 44  1  0
 23 45  1  0
 24 46  1  0
 25 47  1  0
M  CHG  2   5  -1  15   1
M  END
>  <UniqueID>  (14) 
14

>  <SMILES>  (14) 
COCC[N-]C(=O)c1ccc(S(=O)(=O)[N@H+](C)Cc2ccccc2)cc1

>  <Energy>  (14) 
43.8621347095293

>  <Genealogy>  (14) 
COCC[N-]C(=O)c1ccc(S(=O)(=O)[NH+](C)Cc2ccccc2)cc1 (protonated)
COCC[N-]C(=O)c1ccc(S(=O)(=O)[N@H+](C)Cc2ccccc2)cc1 (chirality)
COCC[N-]C(=O)c1ccc(S(=O)(=O)[N@H+](C)Cc2ccccc2)cc1 (3D coordinates assigned)
COCC[N-]C(=O)c1ccc(S(=O)(=O)[N@H+](C)Cc2ccccc2)cc1 (optimized conformer: 43.8621347095293 kcal/mol)

>  <smiles>  (14) 
COCCNC(=O)c1ccc(S(=O)(=O)N(C)Cc2ccccc2)cc1

>  <score_type>  (14) 
oracle

>  <origin>  (14) 
adgpu

>  <m_score__min__energy>  (14) 
-10.640000000000001

>  <m_primary>  (14) 
energy

$$$$
14:0
     RDKit          3D

 45 48  0  0  0  0  0  0  0  0999 V2000
   -7.8823   22.1106  -29.1375 H   0  0  0  0  0  0  0  0  0  0  0  0
   -7.4940   22.6930  -29.9860 C   0  0  0  0  0  0  0  0  0  0  0  0
   -6.6680   23.7500  -29.7630 N   0  0  0  0  0  0  0  0  0  0  0  0
   -6.1660   24.4990  -30.7840 C   0  0  0  0  0  0  0  0  0  0  0  0
   -5.2670   25.6640  -30.4780 C   0  0  0  0  0  0  0  0  0  0  0  0
   -5.4394   25.9894  -29.4415 H   0  0  0  0  0  0  0  0  0  0  0  0
   -5.4969   26.4792  -31.1799 H   0  0  0  0  0  0  0  0  0  0  0  0
   -3.8620   25.2940  -30.6360 N   0  0  0  0  0  0  0  0  0  0  0  0
   -3.2380   24.0880  -30.1690 C   0  0  0  0  0  0  0  0  0  0  0  0
   -2.6410   24.1080  -29.0610 O   0  0  0  0  0  0  0  0  0  0  0  0
   -3.2240   22.8420  -30.9570 C   0  0  0  0  0  0  0  0  0  0  0  0
   -4.3070   22.0260  -31.2240 C   0  0  0  0  0  0  0  0  0  0  0  0
   -5.3448   22.1770  -30.8920 H   0  0  0  0  0  0  0  0  0  0  0  0
   -3.8240   20.9790  -31.9940 C   0  0  0  0  0  0  0  0  0  0  0  0
   -4.6110   19.8480  -32.5540 C   0  0  0  0  0  0  0  0  0  0  0  0
   -3.9840   18.6470  -32.9300 C   0  0  0  0  0  0  0  0  0  0  0  0
   -2.8958   18.5378  -32.8121 H   0  0  0  0  0  0  0  0  0  0  0  0
   -4.7160   17.6190  -33.4390 N   0  0  0  0  0  0  0  0  0  0  0  0
   -6.0590   17.7080  -33.6210 C   0  0  0  0  0  0  0  0  0  0  0  0
   -6.7750   16.5630  -34.1030 N   0  0  0  0  0  0  0  0  0  0  0  0
   -6.4300   15.3090  -33.9910 C   0  0  0  0  0  0  0  0  0  0  0  0
   -7.2150   14.3400  -34.6290 C   0  0  0  0  0  0  0  0  0  0  0  0
   -8.0987   14.6410  -35.2107 H   0  0  0  0  0  0  0  0  0  0  0  0
   -6.8720   12.9920  -34.5240 C   0  0  0  0  0  0  0  0  0  0  0  0
   -7.4783   12.2270  -35.0311 H   0  0  0  0  0  0  0  0  0  0  0  0
   -5.7580   12.6180  -33.7740 C   0  0  0  0  0  0  0  0  0  0  0  0
   -5.4740   11.5585  -33.6916 H   0  0  0  0  0  0  0  0  0  0  0  0
   -5.0070   13.6010  -33.1290 C   0  0  0  0  0  0  0  0  0  0  0  0
   -4.1313   13.3141  -32.5283 H   0  0  0  0  0  0  0  0  0  0  0  0
   -5.3520   14.9140  -33.2390 N   0  0  0  0  0  0  0  0  0  0  0  0
   -4.7850   15.6010  -32.6980 H   0  0  0  0  0  0  0  0  0  0  0  0
   -6.7320   18.8720  -33.2260 C   0  0  0  0  0  0  0  0  0  0  0  0
   -7.8253   18.9409  -33.3259 H   0  0  0  0  0  0  0  0  0  0  0  0
   -6.0050   19.9430  -32.7050 C   0  0  0  0  0  0  0  0  0  0  0  0
   -6.5256   20.8663  -32.4110 H   0  0  0  0  0  0  0  0  0  0  0  0
   -2.4620   21.1960  -32.1390 C   0  0  0  0  0  0  0  0  0  0  0  0
   -1.7746   20.5432  -32.6969 H   0  0  0  0  0  0  0  0  0  0  0  0
   -2.1060   22.3220  -31.4970 N   0  0  0  0  0  0  0  0  0  0  0  0
   -1.1430   22.7220  -31.4440 H   0  0  0  0  0  0  0  0  0  0  0  0
   -6.4920   24.1690  -32.1090 C   0  0  0  0  0  0  0  0  0  0  0  0
   -6.0800   24.7544  -32.9442 H   0  0  0  0  0  0  0  0  0  0  0  0
   -7.3440   23.0910  -32.3570 C   0  0  0  0  0  0  0  0  0  0  0  0
   -7.6157   22.8298  -33.3904 H   0  0  0  0  0  0  0  0  0  0  0  0
   -7.8500   22.3460  -31.2920 C   0  0  0  0  0  0  0  0  0  0  0  0
   -8.5217   21.4950  -31.4780 H   0  0  0  0  0  0  0  0  0  0  0  0
  1  2  1  0
  2  3  2  0
  3  4  1  0
  4  5  1  0
  5  6  1  0
  5  7  1  0
  5  8  1  0
  8  9  1  0
  9 10  2  0
  9 11  1  0
 11 12  2  0
 12 13  1  0
 12 14  1  0
 14 15  1  0
 15 16  2  0
 16 17  1  0
 16 18  1  0
 18 19  2  0
 19 20  1  0
 20 21  2  0
 21 22  1  0
 22 23  1  0
 22 24  2  0
 24 25  1  0
 24 26  1  0
 26 27  1  0
 26 28  2  0
 28 29  1  0
 28 30  1  0
 30 31  1  0
 19 32  1  0
 32 33  1  0
 32 34  2  0
 34 35  1  0
 14 36  2  0
 36 37  1  0
 36 38  1  0
 38 39  1  0
  4 40  2  0
 40 41  1  0
 40 42  1  0
 42 43  1  0
 42 44  2  0
 44 45  1  0
 44  2  1  0
 38 11  1  0
 34 15  1  0
 30 21  1  0
M  CHG  1   8  -1
M  END
>  <UniqueID>  (15) 
15

>  <SMILES>  (15) 
O=C([N-]Cc1ccccn1)c1cc(-c2ccc(/N=c3/cccc[nH]3)nc2)c[nH]1

>  <Energy>  (15) 
89.14672401861758

>  <Genealogy>  (15) 
O=C([N-]Cc1ccccn1)c1cc(-c2ccc(N=c3cccc[nH]3)nc2)c[nH]1 (protonated)
O=C([N-]Cc1ccccn1)c1cc(-c2ccc(/N=c3/cccc[nH]3)nc2)c[nH]1 (cis-trans isomerization)
O=C([N-]Cc1ccccn1)c1cc(-c2ccc(/N=c3/cccc[nH]3)nc2)c[nH]1 (3D coordinates assigned)
O=C([N-]Cc1ccccn1)c1cc(-c2ccc(/N=c3/cccc[nH]3)nc2)c[nH]1 (optimized conformer: 89.14672401861758 kcal/mol)

>  <smiles>  (15) 
O=C(NCc1ccccn1)c1cc(-c2ccc(N=c3cccc[nH]3)nc2)c[nH]1

>  <score_type>  (15) 
oracle

>  <origin>  (15) 
adgpu

>  <m_score__min__energy>  (15) 
-10.94

>  <m_primary>  (15) 
energy

$$$$
15:0
     RDKit          3D

 26 26  0  0  0  0  0  0  0  0999 V2000
   -9.4520   19.3290  -33.9700 H   0  0  0  0  0  0  0  0  0  0  0  0
   -9.6540   19.1540  -33.0150 O   0  0  0  0  0  0  0  0  0  0  0  0
   -8.4460   19.3210  -32.3260 C   0  0  0  0  0  0  0  0  0  0  0  0
   -7.6962   18.6249  -32.7301 H   0  0  0  0  0  0  0  0  0  0  0  0
   -8.6065   19.1147  -31.2575 H   0  0  0  0  0  0  0  0  0  0  0  0
   -7.9550   20.7340  -32.4900 C   0  0  0  0  0  0  0  0  0  0  0  0
   -7.1320   20.9172  -33.1964 H   0  0  0  0  0  0  0  0  0  0  0  0
   -8.4660   21.7920  -31.8200 C   0  0  0  0  0  0  0  0  0  0  0  0
   -9.5880   21.6300  -30.8220 C   0  0  0  0  0  0  0  0  0  0  0  0
   -9.1821   21.6886  -29.8013 H   0  0  0  0  0  0  0  0  0  0  0  0
  -10.3279   22.4306  -30.9689 H   0  0  0  0  0  0  0  0  0  0  0  0
  -10.0712   20.6528  -30.9689 H   0  0  0  0  0  0  0  0  0  0  0  0
   -7.8770   23.1640  -32.0510 C   0  0  0  0  0  0  0  0  0  0  0  0
   -7.5551   23.2482  -33.0995 H   0  0  0  0  0  0  0  0  0  0  0  0
   -8.6418   23.9225  -31.8279 H   0  0  0  0  0  0  0  0  0  0  0  0
   -6.6920   23.3860  -31.1490 C   0  0  0  0  0  0  0  0  0  0  0  0
   -6.5130   22.5950  -30.0020 C   0  0  0  0  0  0  0  0  0  0  0  0
   -7.2284   21.7914  -29.7731 H   0  0  0  0  0  0  0  0  0  0  0  0
   -5.4280   22.8260  -29.1500 C   0  0  0  0  0  0  0  0  0  0  0  0
   -5.2881   22.1995  -28.2567 H   0  0  0  0  0  0  0  0  0  0  0  0
   -4.5210   23.8520  -29.4320 C   0  0  0  0  0  0  0  0  0  0  0  0
   -3.6670   24.0305  -28.7620 H   0  0  0  0  0  0  0  0  0  0  0  0
   -4.6990   24.6510  -30.5650 C   0  0  0  0  0  0  0  0  0  0  0  0
   -3.8010   25.6740  -30.8410 O   0  0  0  0  0  0  0  0  0  0  0  0
   -5.7830   24.4220  -31.4200 C   0  0  0  0  0  0  0  0  0  0  0  0
   -5.9238   25.0559  -32.3079 H   0  0  0  0  0  0  0  0  0  0  0  0
  1  2  1  0
  2  3  1  0
  3  4  1  0
  3  5  1  0
  3  6  1  0
  6  7  1  0
  6  8  2  0
  8  9  1  0
  9 10  1  0
  9 11  1  0
  9 12  1  0
  8 13  1  0
 13 14  1  0
 13 15  1  0
 13 16  1  0
 16 17  2  0
 17 18  1  0
 17 19  1  0
 19 20  1  0
 19 21  2  0
 21 22  1  0
 21 23  1  0
 23 24  1  0
 23 25  2  0
 25 26  1  0
 25 16  1  0
M  CHG  1  24  -1
M  END
>  <UniqueID>  (16) 
16

>  <SMILES>  (16) 
C/C(=C\CO)Cc1cccc([O-])c1

>  <Energy>  (16) 
18.414666463065497

>  <Genealogy>  (16) 
CC(=CCO)Cc1cccc([O-])c1 (protonated)
C/C(=C\CO)Cc1cccc([O-])c1 (cis-trans isomerization)
C/C(=C\CO)Cc1cccc([O-])c1 (3D coordinates assigned)
C/C(=C\CO)Cc1cccc([O-])c1 (optimized conformer: 18.414666463065497 kcal/mol)

>  <smiles>  (16) 
CC(=CCO)Cc1cccc(O)c1

>  <score_type>  (16) 
oracle

>  <origin>  (16) 
adgpu

>  <m_score__min__energy>  (16) 
-8.9199999999999999

>  <m_primary>  (16) 
energy

$$$$
16:0
     RDKit          3D

 44 46  0  0  0  0  0  0  0  0999 V2000
   -3.4320   16.1297  -34.1287 H   0  0  0  0  0  0  0  0  0  0  0  0
   -4.4980   15.8610  -34.1680 C   0  0  0  0  0  0  0  0  0  0  0  0
   -4.8730   14.5610  -34.5220 C   0  0  0  0  0  0  0  0  0  0  0  0
   -4.0995   13.8176  -34.7650 H   0  0  0  0  0  0  0  0  0  0  0  0
   -6.2300   14.1960  -34.5700 C   0  0  0  0  0  0  0  0  0  0  0  0
   -6.6210   12.8590  -34.9330 N   0  0  0  0  0  0  0  0  0  0  0  0
   -7.5530   12.6650  -35.7410 O   0  0  0  0  0  0  0  0  0  0  0  0
   -5.9730   11.7720  -34.3940 O   0  0  0  0  0  0  0  0  0  0  0  0
   -7.2020   15.1600  -34.2540 C   0  0  0  0  0  0  0  0  0  0  0  0
   -8.2677   14.8889  -34.2837 H   0  0  0  0  0  0  0  0  0  0  0  0
   -6.8280   16.4610  -33.9020 C   0  0  0  0  0  0  0  0  0  0  0  0
   -7.6013   17.2032  -33.6546 H   0  0  0  0  0  0  0  0  0  0  0  0
   -5.4720   16.8270  -33.8620 C   0  0  0  0  0  0  0  0  0  0  0  0
   -5.0650   18.2020  -33.4820 C   0  0  0  0  0  0  0  0  0  0  0  0
   -3.8540   18.5410  -33.5850 O   0  0  0  0  0  0  0  0  0  0  0  0
   -6.0400   19.1640  -33.0450 N   0  0  0  0  0  0  0  0  0  0  0  0
   -7.0220   19.0570  -33.3880 H   0  0  0  0  0  0  0  0  0  0  0  0
   -5.7120   20.3500  -32.3020 C   0  0  0  0  0  0  0  0  0  0  0  0
   -6.5900   21.4450  -32.3300 C   0  0  0  0  0  0  0  0  0  0  0  0
   -7.5109   21.3921  -32.9292 H   0  0  0  0  0  0  0  0  0  0  0  0
   -6.3010   22.6020  -31.6010 C   0  0  0  0  0  0  0  0  0  0  0  0
   -6.9891   23.4594  -31.6386 H   0  0  0  0  0  0  0  0  0  0  0  0
   -5.1390   22.6740  -30.8230 C   0  0  0  0  0  0  0  0  0  0  0  0
   -4.7870   24.1440  -29.9180 S   0  0  0  0  0  0  0  0  0  0  0  0
   -6.0420   24.7140  -29.3180 O   0  0  0  0  0  0  0  0  0  0  0  0
   -4.1840   25.1580  -30.8480 O   0  0  0  0  0  0  0  0  0  0  0  0
   -3.6620   23.7900  -28.6490 N   0  0  0  0  0  0  0  0  0  0  0  0
   -2.5320   24.4140  -28.5300 C   0  0  0  0  0  0  0  0  0  0  0  0
   -2.1110   25.3610  -29.3350 O   0  0  0  0  0  0  0  0  0  0  0  0
   -0.9510   25.8110  -28.9490 N   0  0  0  0  0  0  0  0  0  0  0  0
   -0.6100   25.1220  -27.8380 C   0  0  0  0  0  0  0  0  0  0  0  0
    0.6590   25.3370  -27.0800 C   0  0  0  0  0  0  0  0  0  0  0  0
    0.4516   25.3019  -26.0003 H   0  0  0  0  0  0  0  0  0  0  0  0
    1.3800   24.5482  -27.3407 H   0  0  0  0  0  0  0  0  0  0  0  0
    1.0799   26.3193  -27.3407 H   0  0  0  0  0  0  0  0  0  0  0  0
   -1.5940   24.1960  -27.5470 C   0  0  0  0  0  0  0  0  0  0  0  0
   -1.6790   23.2710  -26.3740 C   0  0  0  0  0  0  0  0  0  0  0  0
   -1.6254   23.8540  -25.4427 H   0  0  0  0  0  0  0  0  0  0  0  0
   -2.6314   22.7217  -26.4085 H   0  0  0  0  0  0  0  0  0  0  0  0
   -0.8427   22.5573  -26.4085 H   0  0  0  0  0  0  0  0  0  0  0  0
   -4.2710   21.5760  -30.7720 C   0  0  0  0  0  0  0  0  0  0  0  0
   -3.3619   21.6242  -30.1546 H   0  0  0  0  0  0  0  0  0  0  0  0
   -4.5560   20.4190  -31.5030 C   0  0  0  0  0  0  0  0  0  0  0  0
   -3.8730   19.5582  -31.4533 H   0  0  0  0  0  0  0  0  0  0  0  0
  1  2  1  0
  2  3  2  0
  3  4  1  0
  3  5  1  0
  5  6  1  0
  6  7  2  0
  6  8  1  0
  5  9  2  0
  9 10  1  0
  9 11  1  0
 11 12  1  0
 11 13  2  0
 13 14  1  0
 14 15  2  0
 14 16  1  0
 16 17  1  0
 16 18  1  0
 18 19  2  0
 19 20  1  0
 19 21  1  0
 21 22  1  0
 21 23  2  0
 23 24  1  0
 24 25  2  0
 24 26  2  0
 24 27  1  0
 27 28  2  0
 28 29  1  0
 29 30  1  0
 30 31  1  0
 31 32  1  0
 32 33  1  0
 32 34  1  0
 32 35  1  0
 31 36  2  0
 36 37  1  0
 37 38  1  0
 37 39  1  0
 37 40  1  0
 23 41  1  0
 41 42  1  0
 41 43  2  0
 43 44  1  0
 13  2  1  0
 43 18  1  0
 36 28  1  0
M  CHG  3   6   1   8  -1  30  -1
M  END
>  <UniqueID>  (17) 
17

>  <SMILES>  (17) 
Cc1[n-]o/c(=N\S(=O)(=O)c2ccc(NC(=O)c3ccc([N+](=O)[O-])cc3)cc2)c1C

>  <Energy>  (17) 
85.46611110012238

>  <Genealogy>  (17) 
Cc1[n-]oc(=NS(=O)(=O)c2ccc(NC(=O)c3ccc([N+](=O)[O-])cc3)cc2)c1C (protonated)
Cc1[n-]o/c(=N\S(=O)(=O)c2ccc(NC(=O)c3ccc([N+](=O)[O-])cc3)cc2)c1C (cis-trans isomerization)
Cc1[n-]o/c(=N\S(=O)(=O)c2ccc(NC(=O)c3ccc([N+](=O)[O-])cc3)cc2)c1C (3D coordinates assigned)
Cc1[n-]o/c(=N\S(=O)(=O)c2ccc(NC(=O)c3ccc([N+](=O)[O-])cc3)cc2)c1C (optimized conformer: 85.46611110012238 kcal/mol)

>  <smiles>  (17) 
Cc1[nH]oc(=NS(=O)(=O)c2ccc(NC(=O)c3ccc([N+](=O)[O-])cc3)cc2)c1C

>  <score_type>  (17) 
oracle

>  <origin>  (17) 
adgpu

>  <m_score__min__energy>  (17) 
-10.550000000000001

>  <m_primary>  (17) 
energy

$$$$
17:0
     RDKit          3D

 31 32  0  0  0  0  0  0  0  0999 V2000
   -0.5420   25.4490  -28.0380 H   0  0  0  0  0  0  0  0  0  0  0  0
   -0.5090   24.5740  -28.6090 N   0  0  0  0  0  0  0  0  0  0  0  0
   -1.5120   24.1810  -29.3270 C   0  0  0  0  0  0  0  0  0  0  0  0
   -1.4090   23.0380  -30.0450 N   0  0  0  0  0  0  0  0  0  0  0  0
   -2.4310   22.5890  -30.8140 C   0  0  0  0  0  0  0  0  0  0  0  0
   -2.2820   21.5190  -31.4600 O   0  0  0  0  0  0  0  0  0  0  0  0
   -3.6360   23.3160  -30.8820 C   0  0  0  0  0  0  0  0  0  0  0  0
   -4.9690   22.7810  -31.9290 S   0  0  0  0  0  0  0  0  0  0  0  0
   -5.7540   23.9390  -32.4770 O   0  0  0  0  0  0  0  0  0  0  0  0
   -4.3960   22.0060  -33.0810 O   0  0  0  0  0  0  0  0  0  0  0  0
   -6.0470   21.7570  -31.0330 N   0  0  0  0  0  0  0  0  0  0  0  0
   -6.7510   20.6260  -31.5650 C   0  0  0  0  0  0  0  0  0  0  0  0
   -6.1100   19.3940  -31.7900 C   0  0  0  0  0  0  0  0  0  0  0  0
   -5.0416   19.2839  -31.5525 H   0  0  0  0  0  0  0  0  0  0  0  0
   -6.8220   18.3040  -32.3150 C   0  0  0  0  0  0  0  0  0  0  0  0
   -6.1190   17.0090  -32.5940 C   0  0  0  0  0  0  0  0  0  0  0  0
   -5.8551   16.5228  -31.6432 H   0  0  0  0  0  0  0  0  0  0  0  0
   -6.7825   16.3487  -33.1717 H   0  0  0  0  0  0  0  0  0  0  0  0
   -5.2038   17.2057  -33.1717 H   0  0  0  0  0  0  0  0  0  0  0  0
   -8.1780   18.4570  -32.6390 C   0  0  0  0  0  0  0  0  0  0  0  0
   -8.7361   17.6153  -33.0748 H   0  0  0  0  0  0  0  0  0  0  0  0
   -8.8210   19.6740  -32.4100 C   0  0  0  0  0  0  0  0  0  0  0  0
   -9.8882   19.7830  -32.6532 H   0  0  0  0  0  0  0  0  0  0  0  0
   -8.1160   20.7560  -31.8730 C   0  0  0  0  0  0  0  0  0  0  0  0
   -8.9580   22.2770  -31.6080 Cl  0  0  0  0  0  0  0  0  0  0  0  0
   -3.7320   24.4980  -30.1110 C   0  0  0  0  0  0  0  0  0  0  0  0
   -4.9310   25.2860  -30.0880 N   0  0  0  0  0  0  0  0  0  0  0  0
   -5.0810   26.0660  -29.4130 H   0  0  0  0  0  0  0  0  0  0  0  0
   -5.6750   25.1290  -30.8040 H   0  0  0  0  0  0  0  0  0  0  0  0
   -2.6670   24.9030  -29.3630 N   0  0  0  0  0  0  0  0  0  0  0  0
   -2.7440   25.7800  -28.8000 H   0  0  0  0  0  0  0  0  0  0  0  0
  1  2  1  0
  2  3  2  0
  3  4  1  0
  4  5  1  0
  5  6  2  0
  5  7  1  0
  7  8  1  0
  8  9  2  0
  8 10  2  0
  8 11  1  0
 11 12  1  0
 12 13  2  0
 13 14  1  0
 13 15  1  0
 15 16  1  0
 16 17  1  0
 16 18  1  0
 16 19  1  0
 15 20  2  0
 20 21  1  0
 20 22  1  0
 22 23  1  0
 22 24  2  0
 24 25  1  0
  7 26  2  0
 26 27  1  0
 27 28  1  0
 27 29  1  0
 26 30  1  0
 30 31  1  0
 30  3  1  0
 24 12  1  0
M  CHG  2   4  -1  11  -1
M  END
>  <UniqueID>  (18) 
18

>  <SMILES>  (18) 
[H]/N=c1/[n-]c(=O)c(S(=O)(=O)[N-]c2cc(C)ccc2Cl)c(N)[nH]1

>  <Energy>  (18) 
37.84204301297704

>  <Genealogy>  (18) 
Cc1ccc(Cl)c([N-]S(=O)(=O)c2c(N)[nH]c(=N)[n-]c2=O)c1 (protonated)
[H]/N=c1/[n-]c(=O)c(S(=O)(=O)[N-]c2cc(C)ccc2Cl)c(N)[nH]1 (cis-trans isomerization)
[H]/N=c1/[n-]c(=O)c(S(=O)(=O)[N-]c2cc(C)ccc2Cl)c(N)[nH]1 (3D coordinates assigned)
[H]/N=c1/[n-]c(=O)c(S(=O)(=O)[N-]c2cc(C)ccc2Cl)c(N)[nH]1 (optimized conformer: 37.84204301297704 kcal/mol)

>  <smiles>  (18) 
Cc1ccc(Cl)c(NS(=O)(=O)c2c(N)[nH]c(=N)[nH]c2=O)c1

>  <score_type>  (18) 
oracle

>  <origin>  (18) 
adgpu

>  <m_score__min__energy>  (18) 
-8.9199999999999999

>  <m_primary>  (18) 
energy

$$$$
18:0
     RDKit          3D

 46 49  0  0  0  0  0  0  0  0999 V2000
   -5.1800   23.2230  -29.2970 C   0  0  0  0  0  0  0  0  0  0  0  0
   -5.7900   24.6100  -30.2350 S   0  0  0  0  0  0  0  0  0  0  0  0
   -6.1140   25.7250  -29.2810 O   0  0  0  0  0  0  0  0  0  0  0  0
   -4.7450   25.0920  -31.2020 O   0  0  0  0  0  0  0  0  0  0  0  0
   -7.2340   24.1670  -31.0930 N   0  0  0  0  0  0  0  0  0  0  0  0
   -7.5330   22.8390  -31.5620 C   0  0  0  0  0  0  0  0  0  0  0  0
   -8.8690   22.4130  -31.5900 C   0  0  0  0  0  0  0  0  0  0  0  0
   -9.1990   21.1360  -32.0440 C   0  0  0  0  0  0  0  0  0  0  0  0
   -8.1990   20.2660  -32.4810 C   0  0  0  0  0  0  0  0  0  0  0  0
   -6.8510   20.6670  -32.4690 C   0  0  0  0  0  0  0  0  0  0  0  0
   -5.7870   19.7430  -32.9360 C   0  0  0  0  0  0  0  0  0  0  0  0
   -4.4860   20.1430  -32.9440 N   0  0  0  0  0  0  0  0  0  0  0  0
   -3.4790   19.3300  -33.3630 C   0  0  0  0  0  0  0  0  0  0  0  0
   -2.1250   19.8240  -33.3440 N   0  0  0  0  0  0  0  0  0  0  0  0
   -1.3690   20.0520  -34.5800 C   0  0  0  0  0  0  0  0  0  0  0  0
   -0.4780   21.2880  -34.4190 C   0  0  0  0  0  0  0  0  0  0  0  0
    0.3100   21.1920  -33.2480 O   0  0  0  0  0  0  0  0  0  0  0  0
   -0.5270   21.2100  -32.1060 C   0  0  0  0  0  0  0  0  0  0  0  0
   -1.4190   19.9660  -32.0660 C   0  0  0  0  0  0  0  0  0  0  0  0
   -3.7920   18.0270  -33.7890 C   0  0  0  0  0  0  0  0  0  0  0  0
   -2.8310   17.1430  -34.1780 N   0  0  0  0  0  0  0  0  0  0  0  0
   -3.1400   15.8820  -34.5810 C   0  0  0  0  0  0  0  0  0  0  0  0
   -4.4710   15.4570  -34.6000 C   0  0  0  0  0  0  0  0  0  0  0  0
   -5.4780   16.3360  -34.1950 C   0  0  0  0  0  0  0  0  0  0  0  0
   -5.1420   17.6280  -33.7800 C   0  0  0  0  0  0  0  0  0  0  0  0
   -6.1020   18.4870  -33.3580 N   0  0  0  0  0  0  0  0  0  0  0  0
   -6.5280   21.9590  -32.0090 C   0  0  0  0  0  0  0  0  0  0  0  0
   -5.2743   23.4373  -28.2222 H   0  0  0  0  0  0  0  0  0  0  0  0
   -5.7668   22.3262  -29.5449 H   0  0  0  0  0  0  0  0  0  0  0  0
   -4.1225   23.0493  -29.5449 H   0  0  0  0  0  0  0  0  0  0  0  0
   -7.9500   24.9170  -31.2180 H   0  0  0  0  0  0  0  0  0  0  0  0
   -9.6645   23.0927  -31.2506 H   0  0  0  0  0  0  0  0  0  0  0  0
  -10.2506   20.8137  -32.0576 H   0  0  0  0  0  0  0  0  0  0  0  0
   -8.4668   19.2603  -32.8371 H   0  0  0  0  0  0  0  0  0  0  0  0
   -0.7414   19.1738  -34.7922 H   0  0  0  0  0  0  0  0  0  0  0  0
   -2.0704   20.2140  -35.4117 H   0  0  0  0  0  0  0  0  0  0  0  0
    0.1844   21.3711  -35.2933 H   0  0  0  0  0  0  0  0  0  0  0  0
   -1.1207   22.1771  -34.3387 H   0  0  0  0  0  0  0  0  0  0  0  0
    0.0980   21.2349  -31.2011 H   0  0  0  0  0  0  0  0  0  0  0  0
   -1.1684   22.1024  -32.1529 H   0  0  0  0  0  0  0  0  0  0  0  0
   -0.7974   19.0756  -31.8905 H   0  0  0  0  0  0  0  0  0  0  0  0
   -2.1530   20.0694  -31.2533 H   0  0  0  0  0  0  0  0  0  0  0  0
   -2.3401   15.1944  -34.8930 H   0  0  0  0  0  0  0  0  0  0  0  0
   -4.7235   14.4389  -34.9311 H   0  0  0  0  0  0  0  0  0  0  0  0
   -6.5296   16.0135  -34.2025 H   0  0  0  0  0  0  0  0  0  0  0  0
   -5.4774   22.2847  -31.9988 H   0  0  0  0  0  0  0  0  0  0  0  0
  1  2  1  0
  2  3  2  0
  2  4  2  0
  2  5  1  0
  5  6  1  0
  6  7  2  0
  7  8  1  0
  8  9  2  0
  9 10  1  0
 10 11  1  0
 11 12  2  0
 12 13  1  0
 13 14  1  0
 14 15  1  0
 15 16  1  0
 16 17  1  0
 17 18  1  0
 18 19  1  0
 13 20  2  0
 20 21  1  0
 21 22  2  0
 22 23  1  0
 23 24  2  0
 24 25  1  0
 25 26  2  0
 10 27  2  0
 27  6  1  0
 26 11  1  0
 19 14  1  0
 25 20  1  0
  1 28  1  0
  1 29  1  0
  1 30  1  0
  5 31  1  0
  7 32  1  0
  8 33  1  0
  9 34  1  0
 15 35  1  0
 15 36  1  0
 16 37  1  0
 16 38  1  0
 18 39  1  0
 18 40  1  0
 19 41  1  0
 19 42  1  0
 22 43  1  0
 23 44  1  0
 24 45  1  0
 27 46  1  0
M  END
>  <UniqueID>  (19) 
19

>  <SMILES>  (19) 
CS(=O)(=O)Nc1cccc(-c2nc(N3CCOCC3)c3ncccc3n2)c1

>  <Energy>  (19) 
59.14509801218314

>  <Genealogy>  (19) 
CS(=O)(=O)Nc1cccc(-c2nc(N3CCOCC3)c3ncccc3n2)c1 (3D coordinates assigned)
CS(=O)(=O)Nc1cccc(-c2nc(N3CCOCC3)c3ncccc3n2)c1 (nonaromatic ring conformer: 59.14509801218314 kcal/mol)

>  <smiles>  (19) 
CS(=O)(=O)Nc1cccc(-c2nc(N3CCOCC3)c3ncccc3n2)c1

>  <score_type>  (19) 
oracle

>  <origin>  (19) 
adgpu

>  <m_score__min__energy>  (19) 
-8.9800000000000004

>  <m_primary>  (19) 
energy

$$$$
19:0
     RDKit          3D

 48 50  0  0  0  0  0  0  0  0999 V2000
   -0.0950   21.5240  -34.6630 C   0  0  0  0  0  0  0  0  0  0  0  0
   -0.8230   20.5570  -33.9150 O   0  0  0  0  0  0  0  0  0  0  0  0
   -0.9240   20.5490  -32.5150 C   0  0  0  0  0  0  0  0  0  0  0  0
   -2.1520   20.7190  -31.8470 C   0  0  0  0  0  0  0  0  0  0  0  0
   -2.2000   20.7070  -30.4500 C   0  0  0  0  0  0  0  0  0  0  0  0
   -1.0300   20.5190  -29.7050 C   0  0  0  0  0  0  0  0  0  0  0  0
   -1.0890   20.5530  -27.9480 S   0  0  0  0  0  0  0  0  0  0  0  0
    0.2130   20.0510  -27.3850 O   0  0  0  0  0  0  0  0  0  0  0  0
   -2.1880   19.6550  -27.4530 O   0  0  0  0  0  0  0  0  0  0  0  0
   -1.3680   22.1800  -27.4110 N   0  0  0  0  0  0  0  0  0  0  0  0
   -0.8150   22.6550  -26.1460 C   0  0  0  0  0  0  0  0  0  0  0  0
   -2.1400   23.0690  -28.2280 C   0  0  0  0  0  0  0  0  0  0  0  0
   -3.5330   22.9090  -28.3720 C   0  0  0  0  0  0  0  0  0  0  0  0
   -4.1930   21.8540  -27.6470 N   0  0  0  0  0  0  0  0  0  0  0  0
   -4.2380   23.7680  -29.1940 N   0  0  0  0  0  0  0  0  0  0  0  0
   -5.7040   23.6380  -29.3540 C   0  0  0  0  0  0  0  0  0  0  0  0
   -6.0490   22.7380  -30.5160 C   0  0  0  0  0  0  0  0  0  0  0  0
   -7.3730   22.3100  -30.7180 C   0  0  0  0  0  0  0  0  0  0  0  0
   -7.6940   21.4960  -31.8080 C   0  0  0  0  0  0  0  0  0  0  0  0
   -6.7010   21.1140  -32.7130 C   0  0  0  0  0  0  0  0  0  0  0  0
   -5.3860   21.5520  -32.5330 C   0  0  0  0  0  0  0  0  0  0  0  0
   -5.0610   22.3650  -31.4440 C   0  0  0  0  0  0  0  0  0  0  0  0
   -3.5700   24.7770  -29.8500 C   0  0  0  0  0  0  0  0  0  0  0  0
   -4.1880   25.5880  -30.5930 O   0  0  0  0  0  0  0  0  0  0  0  0
   -2.2310   24.9250  -29.7060 N   0  0  0  0  0  0  0  0  0  0  0  0
   -1.5060   24.1000  -28.9200 C   0  0  0  0  0  0  0  0  0  0  0  0
   -0.2620   24.2700  -28.8190 O   0  0  0  0  0  0  0  0  0  0  0  0
    0.1930   20.3550  -30.3680 C   0  0  0  0  0  0  0  0  0  0  0  0
    0.2430   20.3690  -31.7640 C   0  0  0  0  0  0  0  0  0  0  0  0
    0.4205   22.2087  -33.9735 H   0  0  0  0  0  0  0  0  0  0  0  0
    0.6462   21.0152  -35.2969 H   0  0  0  0  0  0  0  0  0  0  0  0
   -0.7889   22.0956  -35.2969 H   0  0  0  0  0  0  0  0  0  0  0  0
   -3.0762   20.8617  -32.4262 H   0  0  0  0  0  0  0  0  0  0  0  0
   -3.1614   20.8459  -29.9339 H   0  0  0  0  0  0  0  0  0  0  0  0
   -1.3578   22.1888  -25.3105 H   0  0  0  0  0  0  0  0  0  0  0  0
    0.2499   22.3857  -26.0872 H   0  0  0  0  0  0  0  0  0  0  0  0
   -0.9205   23.7483  -26.0872 H   0  0  0  0  0  0  0  0  0  0  0  0
   -3.9140   20.8540  -27.7140 H   0  0  0  0  0  0  0  0  0  0  0  0
   -4.9920   22.0530  -27.0080 H   0  0  0  0  0  0  0  0  0  0  0  0
   -6.1292   23.2132  -28.4327 H   0  0  0  0  0  0  0  0  0  0  0  0
   -6.1227   24.6361  -29.5503 H   0  0  0  0  0  0  0  0  0  0  0  0
   -8.1606   22.6175  -30.0143 H   0  0  0  0  0  0  0  0  0  0  0  0
   -8.7299   21.1558  -31.9533 H   0  0  0  0  0  0  0  0  0  0  0  0
   -6.9539   20.4686  -33.5671 H   0  0  0  0  0  0  0  0  0  0  0  0
   -4.6057   21.2563  -33.2497 H   0  0  0  0  0  0  0  0  0  0  0  0
   -4.0266   22.7150  -31.3121 H   0  0  0  0  0  0  0  0  0  0  0  0
    1.1168   20.2148  -29.7876 H   0  0  0  0  0  0  0  0  0  0  0  0
    1.2072   20.2375  -32.2769 H   0  0  0  0  0  0  0  0  0  0  0  0
  1  2  1  0
  2  3  1  0
  3  4  2  0
  4  5  1  0
  5  6  2  0
  6  7  1  0
  7  8  2  0
  7  9  2  0
  7 10  1  0
 10 11  1  0
 10 12  1  0
 12 13  2  0
 13 14  1  0
 13 15  1  0
 15 16  1  0
 16 17  1  0
 17 18  2  0
 18 19  1  0
 19 20  2  0
 20 21  1  0
 21 22  2  0
 15 23  1  0
 23 24  2  0
 23 25  1  0
 25 26  1  0
 26 27  2  0
  6 28  1  0
 28 29  2  0
 29  3  1  0
 26 12  1  0
 22 17  1  0
  1 30  1  0
  1 31  1  0
  1 32  1  0
  4 33  1  0
  5 34  1  0
 11 35  1  0
 11 36  1  0
 11 37  1  0
 14 38  1  0
 14 39  1  0
 16 40  1  0
 16 41  1  0
 18 42  1  0
 19 43  1  0
 20 44  1  0
 21 45  1  0
 22 46  1  0
 28 47  1  0
 29 48  1  0
M  CHG  1  25  -1
M  END
>  <UniqueID>  (20) 
20

>  <SMILES>  (20) 
COc1ccc(S(=O)(=O)N(C)c2c(N)n(Cc3ccccc3)c(=O)[n-]c2=O)cc1

>  <Energy>  (20) 
61.77812671903932

>  <Genealogy>  (20) 
COc1ccc(S(=O)(=O)N(C)c2c(N)n(Cc3ccccc3)c(=O)[n-]c2=O)cc1 (protonated)
COc1ccc(S(=O)(=O)N(C)c2c(N)n(Cc3ccccc3)c(=O)[n-]c2=O)cc1 (3D coordinates assigned)
COc1ccc(S(=O)(=O)N(C)c2c(N)n(Cc3ccccc3)c(=O)[n-]c2=O)cc1 (optimized conformer: 61.77812671903932 kcal/mol)

>  <smiles>  (20) 
COc1ccc(S(=O)(=O)N(C)c2c(N)n(Cc3ccccc3)c(=O)[nH]c2=O)cc1

>  <score_type>  (20) 
oracle

>  <origin>  (20) 
adgpu

>  <m_score__min__energy>  (20) 
-9.0800000000000001

>  <m_primary>  (20) 
energy

$$$$
20:0
     RDKit          3D

 46 47  0  0  0  0  0  0  0  0999 V2000
   -9.0620   19.0350  -31.9330 C   0  0  0  0  0  0  0  0  0  0  0  0
   -7.6520   18.4620  -32.0610 C   0  0  0  0  0  0  0  0  0  0  0  0
   -6.8300   19.1510  -33.1590 C   0  0  0  0  0  0  0  0  0  0  0  0
   -5.9020   18.1810  -33.9060 C   0  0  0  0  0  0  0  0  0  0  0  0
   -4.5190   18.7830  -34.1950 C   0  0  0  0  0  0  0  0  0  0  0  0
   -3.7060   18.8710  -32.9790 N   0  0  0  0  0  0  0  0  0  0  0  0
   -3.5120   20.0680  -32.1990 C   0  0  0  0  0  0  0  0  0  0  0  0
   -2.4360   20.9450  -32.4330 C   0  0  0  0  0  0  0  0  0  0  0  0
   -2.3210   22.1310  -31.7020 C   0  0  0  0  0  0  0  0  0  0  0  0
   -3.2690   22.4550  -30.7240 C   0  0  0  0  0  0  0  0  0  0  0  0
   -3.1790   23.9900  -29.8600 S   0  0  0  0  0  0  0  0  0  0  0  0
   -1.7460   24.3190  -29.5480 O   0  0  0  0  0  0  0  0  0  0  0  0
   -3.9270   23.8540  -28.5640 O   0  0  0  0  0  0  0  0  0  0  0  0
   -3.8690   25.3030  -30.7760 N   0  0  0  0  0  0  0  0  0  0  0  0
   -5.2850   25.5190  -30.4620 C   0  0  0  0  0  0  0  0  0  0  0  0
   -6.1250   24.3050  -30.7650 C   0  0  0  0  0  0  0  0  0  0  0  0
   -6.8290   23.6530  -29.7380 C   0  0  0  0  0  0  0  0  0  0  0  0
   -7.6020   22.5230  -30.0220 C   0  0  0  0  0  0  0  0  0  0  0  0
   -7.6700   22.0300  -31.3290 C   0  0  0  0  0  0  0  0  0  0  0  0
   -6.9600   22.6630  -32.3530 C   0  0  0  0  0  0  0  0  0  0  0  0
   -6.1850   23.7920  -32.0720 C   0  0  0  0  0  0  0  0  0  0  0  0
   -4.3120   21.5630  -30.4530 C   0  0  0  0  0  0  0  0  0  0  0  0
   -4.4320   20.3770  -31.1850 C   0  0  0  0  0  0  0  0  0  0  0  0
   -9.3200   19.1398  -30.8688 H   0  0  0  0  0  0  0  0  0  0  0  0
   -9.1026   20.0210  -32.4190 H   0  0  0  0  0  0  0  0  0  0  0  0
   -9.7789   18.3569  -32.4190 H   0  0  0  0  0  0  0  0  0  0  0  0
   -7.1320   18.5890  -31.1000 H   0  0  0  0  0  0  0  0  0  0  0  0
   -7.7482   17.4009  -32.3344 H   0  0  0  0  0  0  0  0  0  0  0  0
   -7.5222   19.6037  -33.8842 H   0  0  0  0  0  0  0  0  0  0  0  0
   -6.1961   19.9070  -32.6726 H   0  0  0  0  0  0  0  0  0  0  0  0
   -5.7707   17.2776  -33.2923 H   0  0  0  0  0  0  0  0  0  0  0  0
   -6.3722   17.9525  -34.8738 H   0  0  0  0  0  0  0  0  0  0  0  0
   -3.9989   18.1481  -34.9274 H   0  0  0  0  0  0  0  0  0  0  0  0
   -4.6612   19.8001  -34.5890 H   0  0  0  0  0  0  0  0  0  0  0  0
   -3.3660   17.9660  -32.5800 H   0  0  0  0  0  0  0  0  0  0  0  0
   -1.6823   20.6959  -33.1945 H   0  0  0  0  0  0  0  0  0  0  0  0
   -1.4807   22.8137  -31.8963 H   0  0  0  0  0  0  0  0  0  0  0  0
   -5.3787   25.7570  -29.3921 H   0  0  0  0  0  0  0  0  0  0  0  0
   -5.6482   26.3469  -31.0886 H   0  0  0  0  0  0  0  0  0  0  0  0
   -6.7717   24.0330  -28.7073 H   0  0  0  0  0  0  0  0  0  0  0  0
   -8.1575   22.0210  -29.2161 H   0  0  0  0  0  0  0  0  0  0  0  0
   -8.2825   21.1437  -31.5511 H   0  0  0  0  0  0  0  0  0  0  0  0
   -7.0110   22.2728  -33.3802 H   0  0  0  0  0  0  0  0  0  0  0  0
   -5.6191   24.2815  -32.8783 H   0  0  0  0  0  0  0  0  0  0  0  0
   -5.0401   21.7950  -29.6618 H   0  0  0  0  0  0  0  0  0  0  0  0
   -5.2544   19.6806  -30.9641 H   0  0  0  0  0  0  0  0  0  0  0  0
  1  2  1  0
  2  3  1  0
  3  4  1  0
  4  5  1  0
  5  6  1  0
  6  7  1  0
  7  8  2  0
  8  9  1  0
  9 10  2  0
 10 11  1  0
 11 12  2  0
 11 13  2  0
 11 14  1  0
 14 15  1  0
 15 16  1  0
 16 17  2  0
 17 18  1  0
 18 19  2  0
 19 20  1  0
 20 21  2  0
 10 22  1  0
 22 23  2  0
 23  7  1  0
 21 16  1  0
  1 24  1  0
  1 25  1  0
  1 26  1  0
  2 27  1  0
  2 28  1  0
  3 29  1  0
  3 30  1  0
  4 31  1  0
  4 32  1  0
  5 33  1  0
  5 34  1  0
  6 35  1  0
  8 36  1  0
  9 37  1  0
 15 38  1  0
 15 39  1  0
 17 40  1  0
 18 41  1  0
 19 42  1  0
 20 43  1  0
 21 44  1  0
 22 45  1  0
 23 46  1  0
M  CHG  1  14  -1
M  END
>  <UniqueID>  (21) 
21

>  <SMILES>  (21) 
CCCCCNc1ccc(S(=O)(=O)[N-]Cc2ccccc2)cc1

>  <Energy>  (21) 
36.65031833356346

>  <Genealogy>  (21) 
CCCCCNc1ccc(S(=O)(=O)[N-]Cc2ccccc2)cc1 (protonated)
CCCCCNc1ccc(S(=O)(=O)[N-]Cc2ccccc2)cc1 (3D coordinates assigned)
CCCCCNc1ccc(S(=O)(=O)[N-]Cc2ccccc2)cc1 (optimized conformer: 36.65031833356346 kcal/mol)

>  <smiles>  (21) 
CCCCCNc1ccc(S(=O)(=O)NCc2ccccc2)cc1

>  <score_type>  (21) 
oracle

>  <origin>  (21) 
adgpu

>  <m_score__min__energy>  (21) 
-10.06

>  <m_primary>  (21) 
energy

$$$$
21:0
     RDKit          3D

 34 36  0  0  0  0  0  0  0  0999 V2000
   -2.4080   21.4830  -31.6080 C   0  0  0  0  0  0  0  0  0  0  0  0
   -3.5080   22.2630  -32.3350 C   0  0  1  0  0  0  0  0  0  0  0  0
   -4.5400   21.3040  -32.9980 C   0  0  0  0  0  0  0  0  0  0  0  0
   -5.8160   21.6400  -32.3090 C   0  0  0  0  0  0  0  0  0  0  0  0
   -7.0750   21.0750  -32.5190 C   0  0  0  0  0  0  0  0  0  0  0  0
   -8.1630   21.5700  -31.7820 C   0  0  0  0  0  0  0  0  0  0  0  0
   -7.9770   22.6200  -30.8620 C   0  0  0  0  0  0  0  0  0  0  0  0
   -6.7010   23.1750  -30.6720 C   0  0  0  0  0  0  0  0  0  0  0  0
   -5.6300   22.6500  -31.4050 C   0  0  0  0  0  0  0  0  0  0  0  0
   -4.2780   23.0850  -31.3870 N   0  0  0  0  0  0  0  0  0  0  0  0
   -3.7160   24.0620  -30.4940 C   0  0  0  0  0  0  0  0  0  0  0  0
   -3.9030   25.2890  -30.7140 O   0  0  0  0  0  0  0  0  0  0  0  0
   -2.9690   23.6480  -29.2880 C   0  0  0  0  0  0  0  0  0  0  0  0
   -3.3100   22.4510  -28.6380 C   0  0  0  0  0  0  0  0  0  0  0  0
   -2.6080   22.0370  -27.5020 C   0  0  0  0  0  0  0  0  0  0  0  0
   -1.5640   22.8220  -26.9970 C   0  0  0  0  0  0  0  0  0  0  0  0
   -0.8550   22.4180  -25.8670 O   0  0  0  0  0  0  0  0  0  0  0  0
   -1.2320   24.0250  -27.6270 C   0  0  0  0  0  0  0  0  0  0  0  0
   -1.9350   24.4470  -28.7610 C   0  0  0  0  0  0  0  0  0  0  0  0
   -1.6130   25.6700  -29.3400 O   0  0  0  0  0  0  0  0  0  0  0  0
   -2.5462   21.5810  -30.5211 H   0  0  0  0  0  0  0  0  0  0  0  0
   -2.4635   20.4213  -31.8904 H   0  0  0  0  0  0  0  0  0  0  0  0
   -1.4245   21.8866  -31.8904 H   0  0  0  0  0  0  0  0  0  0  0  0
   -2.9984   22.8803  -33.0895 H   0  0  0  0  0  0  0  0  0  0  0  0
   -4.6149   21.4930  -34.0791 H   0  0  0  0  0  0  0  0  0  0  0  0
   -4.2653   20.2434  -32.8995 H   0  0  0  0  0  0  0  0  0  0  0  0
   -7.2118   20.2604  -33.2454 H   0  0  0  0  0  0  0  0  0  0  0  0
   -9.1639   21.1362  -31.9237 H   0  0  0  0  0  0  0  0  0  0  0  0
   -8.8337   23.0066  -30.2905 H   0  0  0  0  0  0  0  0  0  0  0  0
   -6.5467   24.0026  -29.9640 H   0  0  0  0  0  0  0  0  0  0  0  0
   -4.1349   21.8349  -29.0251 H   0  0  0  0  0  0  0  0  0  0  0  0
   -2.8761   21.0934  -27.0042 H   0  0  0  0  0  0  0  0  0  0  0  0
   -0.7870   23.0080  -25.0470 H   0  0  0  0  0  0  0  0  0  0  0  0
   -0.4137   24.6432  -27.2292 H   0  0  0  0  0  0  0  0  0  0  0  0
  1  2  1  0
  2  3  1  0
  3  4  1  0
  4  5  2  0
  5  6  1  0
  6  7  2  0
  7  8  1  0
  8  9  2  0
  9 10  1  0
 10 11  1  0
 11 12  2  0
 11 13  1  0
 13 14  2  0
 14 15  1  0
 15 16  2  0
 16 17  1  0
 16 18  1  0
 18 19  2  0
 19 20  1  0
 10  2  1  0
 19 13  1  0
  9  4  1  0
  1 21  1  0
  1 22  1  0
  1 23  1  0
  2 24  1  6
  3 25  1  0
  3 26  1  0
  5 27  1  0
  6 28  1  0
  7 29  1  0
  8 30  1  0
 14 31  1  0
 15 32  1  0
 17 33  1  0
 18 34  1  0
M  CHG  1  20  -1
M  END
>  <UniqueID>  (22) 
22

>  <SMILES>  (22) 
C[C@H]1Cc2ccccc2N1C(=O)c1ccc(O)cc1[O-]

>  <Energy>  (22) 
56.11034515020068

>  <Genealogy>  (22) 
CC1Cc2ccccc2N1C(=O)c1ccc(O)cc1[O-] (protonated)
C[C@H]1Cc2ccccc2N1C(=O)c1ccc(O)cc1[O-] (chirality)
C[C@H]1Cc2ccccc2N1C(=O)c1ccc(O)cc1[O-] (3D coordinates assigned)
C[C@H]1Cc2ccccc2N1C(=O)c1ccc(O)cc1[O-] (nonaromatic ring conformer: 56.11034515020068 kcal/mol)

>  <smiles>  (22) 
CC1Cc2ccccc2N1C(=O)c1ccc(O)cc1O

>  <score_type>  (22) 
oracle

>  <origin>  (22) 
adgpu

>  <m_score__min__energy>  (22) 
-10.710000000000001

>  <m_primary>  (22) 
energy

$$$$
22:0
     RDKit          3D

 50 53  0  0  0  0  0  0  0  0999 V2000
    3.2270   22.0260  -37.5610 H   0  0  0  0  0  0  0  0  0  0  0  0
    3.6680   21.1130  -37.8160 N   0  0  0  0  0  0  0  0  0  0  0  0
    3.7350   20.1620  -36.3720 S   0  0  0  0  0  0  0  0  0  0  0  0
    4.3470   20.9710  -35.2630 O   0  0  0  0  0  0  0  0  0  0  0  0
    4.5920   18.9510  -36.6210 O   0  0  0  0  0  0  0  0  0  0  0  0
    2.1070   19.6750  -35.9110 C   0  0  0  0  0  0  0  0  0  0  0  0
    1.8130   18.3160  -35.7310 C   0  0  0  0  0  0  0  0  0  0  0  0
    2.5991   17.5610  -35.8792 H   0  0  0  0  0  0  0  0  0  0  0  0
    0.5250   17.9170  -35.3640 C   0  0  0  0  0  0  0  0  0  0  0  0
    0.2989   16.8483  -35.2345 H   0  0  0  0  0  0  0  0  0  0  0  0
   -0.4860   18.8780  -35.1590 C   0  0  0  0  0  0  0  0  0  0  0  0
   -1.8370   18.4980  -34.8490 N   0  0  0  0  0  0  0  0  0  0  0  0
   -2.6400   19.0980  -34.0130 C   0  0  0  0  0  0  0  0  0  0  0  0
   -2.2700   20.2580  -33.4090 N   0  0  0  0  0  0  0  0  0  0  0  0
   -3.0760   20.9080  -32.5730 N   0  0  0  0  0  0  0  0  0  0  0  0
   -4.3250   20.4630  -32.2710 C   0  0  0  0  0  0  0  0  0  0  0  0
   -5.1880   21.2680  -31.3190 C   0  0  0  0  0  0  0  0  0  0  0  0
   -5.5394   20.6032  -30.5162 H   0  0  0  0  0  0  0  0  0  0  0  0
   -6.0237   21.6832  -31.9015 H   0  0  0  0  0  0  0  0  0  0  0  0
   -4.4430   22.4380  -30.6900 C   0  0  0  0  0  0  0  0  0  0  0  0
   -3.3280   22.2070  -29.8370 C   0  0  0  0  0  0  0  0  0  0  0  0
   -2.8360   20.8150  -29.5290 C   0  0  0  0  0  0  0  0  0  0  0  0
   -2.7870   20.6763  -28.4389 H   0  0  0  0  0  0  0  0  0  0  0  0
   -3.5279   20.0774  -29.9617 H   0  0  0  0  0  0  0  0  0  0  0  0
   -1.8343   20.6760  -29.9617 H   0  0  0  0  0  0  0  0  0  0  0  0
   -2.6410   23.2980  -29.2790 C   0  0  0  0  0  0  0  0  0  0  0  0
   -1.7622   23.1195  -28.6419 H   0  0  0  0  0  0  0  0  0  0  0  0
   -3.0610   24.6040  -29.5240 C   0  0  0  0  0  0  0  0  0  0  0  0
   -2.3680   25.6720  -28.9640 O   0  0  0  0  0  0  0  0  0  0  0  0
   -4.1770   24.8410  -30.3230 C   0  0  0  0  0  0  0  0  0  0  0  0
   -4.5040   25.8749  -30.5078 H   0  0  0  0  0  0  0  0  0  0  0  0
   -4.8890   23.7750  -30.8950 C   0  0  0  0  0  0  0  0  0  0  0  0
   -6.1080   24.0900  -31.7300 C   0  0  0  0  0  0  0  0  0  0  0  0
   -6.9588   24.3099  -31.0684 H   0  0  0  0  0  0  0  0  0  0  0  0
   -5.9017   24.9643  -32.3648 H   0  0  0  0  0  0  0  0  0  0  0  0
   -6.3511   23.2252  -32.3648 H   0  0  0  0  0  0  0  0  0  0  0  0
   -4.7800   19.2620  -32.8610 C   0  0  0  0  0  0  0  0  0  0  0  0
   -6.0570   18.7280  -32.5870 C   0  0  0  0  0  0  0  0  0  0  0  0
   -6.7326   19.2568  -31.8986 H   0  0  0  0  0  0  0  0  0  0  0  0
   -6.4710   17.5340  -33.1820 C   0  0  0  0  0  0  0  0  0  0  0  0
   -7.4689   17.1277  -32.9602 H   0  0  0  0  0  0  0  0  0  0  0  0
   -5.6230   16.8560  -34.0560 C   0  0  0  0  0  0  0  0  0  0  0  0
   -5.9527   15.9145  -34.5195 H   0  0  0  0  0  0  0  0  0  0  0  0
   -4.3580   17.3670  -34.3450 C   0  0  0  0  0  0  0  0  0  0  0  0
   -3.6970   16.8280  -35.0397 H   0  0  0  0  0  0  0  0  0  0  0  0
   -3.9200   18.5700  -33.7530 C   0  0  0  0  0  0  0  0  0  0  0  0
   -0.1940   20.2330  -35.3640 C   0  0  0  0  0  0  0  0  0  0  0  0
   -0.9857   20.9870  -35.2425 H   0  0  0  0  0  0  0  0  0  0  0  0
    1.0970   20.6330  -35.7220 C   0  0  0  0  0  0  0  0  0  0  0  0
    1.3226   21.7012  -35.8561 H   0  0  0  0  0  0  0  0  0  0  0  0
  1  2  1  0
  2  3  1  0
  3  4  2  0
  3  5  2  0
  3  6  1  0
  6  7  2  0
  7  8  1  0
  7  9  1  0
  9 10  1  0
  9 11  2  0
 11 12  1  0
 12 13  2  0
 13 14  1  0
 14 15  1  0
 15 16  2  0
 16 17  1  0
 17 18  1  0
 17 19  1  0
 17 20  1  0
 20 21  2  0
 21 22  1  0
 22 23  1  0
 22 24  1  0
 22 25  1  0
 21 26  1  0
 26 27  1  0
 26 28  2  0
 28 29  1  0
 28 30  1  0
 30 31  1  0
 30 32  2  0
 32 33  1  0
 33 34  1  0
 33 35  1  0
 33 36  1  0
 16 37  1  0
 37 38  2  0
 38 39  1  0
 38 40  1  0
 40 41  1  0
 40 42  2  0
 42 43  1  0
 42 44  1  0
 44 45  1  0
 44 46  2  0
 11 47  1  0
 47 48  1  0
 47 49  2  0
 49 50  1  0
 49  6  1  0
 46 13  1  0
 32 20  1  0
 46 37  1  0
M  CHG  3   2  -1  14  -1  29  -1
M  END
>  <UniqueID>  (23) 
23

>  <SMILES>  (23) 
Cc1cc([O-])cc(C)c1Cc1n[n-]/c(=N\c2ccc(S([NH-])(=O)=O)cc2)c2ccccc12

>  <Energy>  (23) 
71.62788143110062

>  <Genealogy>  (23) 
Cc1cc([O-])cc(C)c1Cc1n[n-]c(=Nc2ccc(S([NH-])(=O)=O)cc2)c2ccccc12 (protonated)
Cc1cc([O-])cc(C)c1Cc1n[n-]/c(=N\c2ccc(S([NH-])(=O)=O)cc2)c2ccccc12 (cis-trans isomerization)
Cc1cc([O-])cc(C)c1Cc1n[n-]/c(=N\c2ccc(S([NH-])(=O)=O)cc2)c2ccccc12 (3D coordinates assigned)
Cc1cc([O-])cc(C)c1Cc1n[n-]/c(=N\c2ccc(S([NH-])(=O)=O)cc2)c2ccccc12 (optimized conformer: 71.62788143110062 kcal/mol)

>  <smiles>  (23) 
Cc1cc(O)cc(C)c1Cc1n[nH]c(=Nc2ccc(S(N)(=O)=O)cc2)c2ccccc12

>  <score_type>  (23) 
oracle

>  <origin>  (23) 
adgpu

>  <m_score__min__energy>  (23) 
-11.529999999999999

>  <m_primary>  (23) 
energy

$$$$
23:0
     RDKit          3D

 40 42  0  0  0  0  0  0  0  0999 V2000
   -6.0950   17.0500  -31.0900 N   0  0  0  0  0  0  0  0  0  0  0  0
   -6.7800   18.2440  -31.4770 C   0  0  0  0  0  0  0  0  0  0  0  0
   -8.1770   18.2530  -31.5810 C   0  0  0  0  0  0  0  0  0  0  0  0
   -8.8430   19.4070  -31.9990 C   0  0  0  0  0  0  0  0  0  0  0  0
   -8.1200   20.5610  -32.3130 C   0  0  0  0  0  0  0  0  0  0  0  0
   -6.7230   20.5760  -32.1870 C   0  0  0  0  0  0  0  0  0  0  0  0
   -5.9930   21.7610  -32.5440 N   0  0  0  0  0  0  0  0  0  0  0  0
   -5.8390   22.8940  -31.6750 C   0  0  0  0  0  0  0  0  0  0  0  0
   -6.9750   23.5390  -31.1700 C   0  0  0  0  0  0  0  0  0  0  0  0
   -6.8410   24.6390  -30.3200 C   0  0  0  0  0  0  0  0  0  0  0  0
   -5.5700   25.0890  -29.9520 C   0  0  0  0  0  0  0  0  0  0  0  0
   -4.4220   24.4390  -30.4200 C   0  0  0  0  0  0  0  0  0  0  0  0
   -3.1710   24.9170  -29.9990 O   0  0  0  0  0  0  0  0  0  0  0  0
   -2.2770   24.2300  -29.1210 C   0  0  0  0  0  0  0  0  0  0  0  0
   -1.9630   25.0610  -27.9040 C   0  0  0  0  0  0  0  0  0  0  0  0
   -0.8810   25.9570  -27.9140 C   0  0  0  0  0  0  0  0  0  0  0  0
   -0.5700   26.6990  -26.7710 C   0  0  0  0  0  0  0  0  0  0  0  0
   -1.3320   26.5480  -25.6090 C   0  0  0  0  0  0  0  0  0  0  0  0
   -2.4060   25.6550  -25.5890 C   0  0  0  0  0  0  0  0  0  0  0  0
   -2.7180   24.9080  -26.7300 C   0  0  0  0  0  0  0  0  0  0  0  0
   -4.5630   23.3330  -31.2800 C   0  0  0  0  0  0  0  0  0  0  0  0
   -6.0550   19.4070  -31.7760 C   0  0  0  0  0  0  0  0  0  0  0  0
   -5.5470   16.4970  -31.7870 H   0  0  0  0  0  0  0  0  0  0  0  0
   -6.1300   16.7110  -30.1030 H   0  0  0  0  0  0  0  0  0  0  0  0
   -8.7511   17.3482  -31.3326 H   0  0  0  0  0  0  0  0  0  0  0  0
   -9.9399   19.4077  -32.0814 H   0  0  0  0  0  0  0  0  0  0  0  0
   -8.6485   21.4611  -32.6603 H   0  0  0  0  0  0  0  0  0  0  0  0
   -5.5360   21.7950  -33.4840 H   0  0  0  0  0  0  0  0  0  0  0  0
   -7.9771   23.1776  -31.4441 H   0  0  0  0  0  0  0  0  0  0  0  0
   -7.7368   25.1518  -29.9397 H   0  0  0  0  0  0  0  0  0  0  0  0
   -5.4710   25.9612  -29.2891 H   0  0  0  0  0  0  0  0  0  0  0  0
   -2.7430   23.2864  -28.8008 H   0  0  0  0  0  0  0  0  0  0  0  0
   -1.3389   24.0353  -29.6615 H   0  0  0  0  0  0  0  0  0  0  0  0
   -0.2761   26.0751  -28.8251 H   0  0  0  0  0  0  0  0  0  0  0  0
    0.2754   27.4026  -26.7860 H   0  0  0  0  0  0  0  0  0  0  0  0
   -1.0859   27.1324  -24.7102 H   0  0  0  0  0  0  0  0  0  0  0  0
   -3.0071   25.5390  -24.6751 H   0  0  0  0  0  0  0  0  0  0  0  0
   -3.5580   24.1981  -26.7074 H   0  0  0  0  0  0  0  0  0  0  0  0
   -3.6680   22.8084  -31.6456 H   0  0  0  0  0  0  0  0  0  0  0  0
   -4.9585   19.4056  -31.6888 H   0  0  0  0  0  0  0  0  0  0  0  0
  1  2  1  0
  2  3  2  0
  3  4  1  0
  4  5  2  0
  5  6  1  0
  6  7  1  0
  7  8  1  0
  8  9  2  0
  9 10  1  0
 10 11  2  0
 11 12  1  0
 12 13  1  0
 13 14  1  0
 14 15  1  0
 15 16  2  0
 16 17  1  0
 17 18  2  0
 18 19  1  0
 19 20  2  0
 12 21  2  0
  6 22  2  0
 22  2  1  0
 21  8  1  0
 20 15  1  0
  1 23  1  0
  1 24  1  0
  3 25  1  0
  4 26  1  0
  5 27  1  0
  7 28  1  0
  9 29  1  0
 10 30  1  0
 11 31  1  0
 14 32  1  0
 14 33  1  0
 16 34  1  0
 17 35  1  0
 18 36  1  0
 19 37  1  0
 20 38  1  0
 21 39  1  0
 22 40  1  0
M  END
>  <UniqueID>  (24) 
24

>  <SMILES>  (24) 
Nc1cccc(Nc2cccc(OCc3ccccc3)c2)c1

>  <Energy>  (24) 
43.9925207071062

>  <Genealogy>  (24) 
Nc1cccc(Nc2cccc(OCc3ccccc3)c2)c1 (3D coordinates assigned)
Nc1cccc(Nc2cccc(OCc3ccccc3)c2)c1 (optimized conformer: 43.9925207071062 kcal/mol)

>  <smiles>  (24) 
Nc1cccc(Nc2cccc(OCc3ccccc3)c2)c1

>  <score_type>  (24) 
oracle

>  <origin>  (24) 
adgpu

>  <m_score__min__energy>  (24) 
-8.5899999999999999

>  <m_primary>  (24) 
energy

$$$$
24:0
     RDKit          3D

 29 30  0  0  0  0  0  0  0  0999 V2000
   -9.5330   22.6250  -31.9540 O   0  0  0  0  0  0  0  0  0  0  0  0
   -8.6440   21.5580  -31.9160 C   0  0  0  0  0  0  0  0  0  0  0  0
   -9.1230   20.2540  -31.7630 C   0  0  0  0  0  0  0  0  0  0  0  0
   -8.2310   19.1760  -31.7320 C   0  0  0  0  0  0  0  0  0  0  0  0
   -8.7230   17.8810  -31.5900 O   0  0  0  0  0  0  0  0  0  0  0  0
   -6.8540   19.4080  -31.8460 C   0  0  0  0  0  0  0  0  0  0  0  0
   -6.3650   20.7180  -31.9930 C   0  0  0  0  0  0  0  0  0  0  0  0
   -4.8880   20.9630  -32.1740 C   0  0  0  0  0  0  0  0  0  0  0  0
   -4.1130   20.7620  -30.8630 C   0  0  0  0  0  0  0  0  0  0  0  0
   -3.5600   22.0620  -30.3360 C   0  0  0  0  0  0  0  0  0  0  0  0
   -2.5000   22.0570  -29.4140 C   0  0  0  0  0  0  0  0  0  0  0  0
   -1.9540   23.2610  -28.9620 C   0  0  0  0  0  0  0  0  0  0  0  0
   -2.4550   24.4790  -29.4310 C   0  0  0  0  0  0  0  0  0  0  0  0
   -1.9060   25.6730  -28.9800 O   0  0  0  0  0  0  0  0  0  0  0  0
   -3.5050   24.4930  -30.3570 C   0  0  0  0  0  0  0  0  0  0  0  0
   -4.0010   25.7010  -30.8330 O   0  0  0  0  0  0  0  0  0  0  0  0
   -4.0550   23.2890  -30.8090 C   0  0  0  0  0  0  0  0  0  0  0  0
   -7.2700   21.7900  -32.0350 C   0  0  0  0  0  0  0  0  0  0  0  0
  -10.2040   20.0745  -31.6667 H   0  0  0  0  0  0  0  0  0  0  0  0
   -9.4380   17.6580  -30.9070 H   0  0  0  0  0  0  0  0  0  0  0  0
   -6.1522   18.5613  -31.8204 H   0  0  0  0  0  0  0  0  0  0  0  0
   -4.5004   20.2623  -32.9281 H   0  0  0  0  0  0  0  0  0  0  0  0
   -4.7507   22.0056  -32.4966 H   0  0  0  0  0  0  0  0  0  0  0  0
   -4.7907   20.3321  -30.1108 H   0  0  0  0  0  0  0  0  0  0  0  0
   -3.2681   20.0871  -31.0646 H   0  0  0  0  0  0  0  0  0  0  0  0
   -2.0983   21.1012  -29.0464 H   0  0  0  0  0  0  0  0  0  0  0  0
   -1.1281   23.2506  -28.2355 H   0  0  0  0  0  0  0  0  0  0  0  0
   -4.8787   23.3028  -31.5380 H   0  0  0  0  0  0  0  0  0  0  0  0
   -6.8970   22.8170  -32.1621 H   0  0  0  0  0  0  0  0  0  0  0  0
  1  2  1  0
  2  3  2  0
  3  4  1  0
  4  5  1  0
  4  6  2  0
  6  7  1  0
  7  8  1  0
  8  9  1  0
  9 10  1  0
 10 11  2  0
 11 12  1  0
 12 13  2  0
 13 14  1  0
 13 15  1  0
 15 16  1  0
 15 17  2  0
  7 18  2  0
 18  2  1  0
 17 10  1  0
  3 19  1  0
  5 20  1  0
  6 21  1  0
  8 22  1  0
  8 23  1  0
  9 24  1  0
  9 25  1  0
 11 26  1  0
 12 27  1  0
 17 28  1  0
 18 29  1  0
M  CHG  3   1  -1  14  -1  16  -1
M  END
>  <UniqueID>  (25) 
25

>  <SMILES>  (25) 
[O-]c1cc(O)cc(CCc2ccc([O-])c([O-])c2)c1

>  <Energy>  (25) 
25.628370061244055

>  <Genealogy>  (25) 
[O-]c1cc(O)cc(CCc2ccc([O-])c([O-])c2)c1 (protonated)
[O-]c1cc(O)cc(CCc2ccc([O-])c([O-])c2)c1 (3D coordinates assigned)
[O-]c1cc(O)cc(CCc2ccc([O-])c([O-])c2)c1 (optimized conformer: 25.628370061244055 kcal/mol)

>  <smiles>  (25) 
Oc1cc(O)cc(CCc2ccc(O)c(O)c2)c1

>  <score_type>  (25) 
oracle

>  <origin>  (25) 
adgpu

>  <m_score__min__energy>  (25) 
-11.93

>  <m_primary>  (25) 
energy

$$$$
25:0
     RDKit          3D

 32 33  0  0  0  0  0  0  0  0999 V2000
   -6.7880   22.6500  -31.9770 C   0  0  0  0  0  0  0  0  0  0  0  0
   -5.6530   23.3210  -31.2610 C   0  0  0  0  0  0  0  0  0  0  0  0
   -4.4270   22.6580  -31.1030 C   0  0  0  0  0  0  0  0  0  0  0  0
   -3.3570   23.2970  -30.4700 C   0  0  0  0  0  0  0  0  0  0  0  0
   -3.5010   24.6070  -29.9820 C   0  0  0  0  0  0  0  0  0  0  0  0
   -2.4190   25.2970  -29.3400 N   0  0  0  0  0  0  0  0  0  0  0  0
   -1.3230   24.6930  -28.6420 C   0  0  0  0  0  0  0  0  0  0  0  0
   -0.4190   24.1250  -29.3100 O   0  0  0  0  0  0  0  0  0  0  0  0
   -1.1700   24.8190  -27.1740 C   0  0  0  0  0  0  0  0  0  0  0  0
   -1.6170   26.0000  -26.5610 C   0  0  0  0  0  0  0  0  0  0  0  0
   -1.4700   26.1860  -25.1900 C   0  0  0  0  0  0  0  0  0  0  0  0
   -0.8540   25.2080  -24.4140 C   0  0  0  0  0  0  0  0  0  0  0  0
   -0.3890   24.0200  -24.9950 C   0  0  0  0  0  0  0  0  0  0  0  0
    0.2820   23.0690  -24.1580 N   0  0  0  0  0  0  0  0  0  0  0  0
   -0.5770   23.7970  -26.3850 C   0  0  0  0  0  0  0  0  0  0  0  0
   -0.2560   22.5220  -26.9710 N   0  0  0  0  0  0  0  0  0  0  0  0
   -4.7110   25.2820  -30.1810 C   0  0  0  0  0  0  0  0  0  0  0  0
   -5.7820   24.6440  -30.8140 C   0  0  0  0  0  0  0  0  0  0  0  0
   -7.4914   22.2342  -31.2406 H   0  0  0  0  0  0  0  0  0  0  0  0
   -7.3094   23.3851  -32.6077 H   0  0  0  0  0  0  0  0  0  0  0  0
   -6.3953   21.8388  -32.6077 H   0  0  0  0  0  0  0  0  0  0  0  0
   -4.3071   21.6311  -31.4787 H   0  0  0  0  0  0  0  0  0  0  0  0
   -2.3975   22.7719  -30.3533 H   0  0  0  0  0  0  0  0  0  0  0  0
   -2.0878   26.7857  -27.1701 H   0  0  0  0  0  0  0  0  0  0  0  0
   -1.8413   27.1077  -24.7182 H   0  0  0  0  0  0  0  0  0  0  0  0
   -0.7308   25.3693  -23.3329 H   0  0  0  0  0  0  0  0  0  0  0  0
    0.6850   23.3230  -23.2310 H   0  0  0  0  0  0  0  0  0  0  0  0
    0.2610   22.0510  -24.3960 H   0  0  0  0  0  0  0  0  0  0  0  0
   -0.1340   22.4040  -28.0000 H   0  0  0  0  0  0  0  0  0  0  0  0
   -0.2840   21.6350  -26.4270 H   0  0  0  0  0  0  0  0  0  0  0  0
   -4.8200   26.3212  -29.8371 H   0  0  0  0  0  0  0  0  0  0  0  0
   -6.7299   25.1821  -30.9621 H   0  0  0  0  0  0  0  0  0  0  0  0
  1  2  1  0
  2  3  2  0
  3  4  1  0
  4  5  2  0
  5  6  1  0
  6  7  1  0
  7  8  2  0
  7  9  1  0
  9 10  2  0
 10 11  1  0
 11 12  2  0
 12 13  1  0
 13 14  1  0
 13 15  2  0
 15 16  1  0
  5 17  1  0
 17 18  2  0
 18  2  1  0
 15  9  1  0
  1 19  1  0
  1 20  1  0
  1 21  1  0
  3 22  1  0
  4 23  1  0
 10 24  1  0
 11 25  1  0
 12 26  1  0
 14 27  1  0
 14 28  1  0
 16 29  1  0
 16 30  1  0
 17 31  1  0
 18 32  1  0
M  CHG  1   6  -1
M  END
>  <UniqueID>  (26) 
26

>  <SMILES>  (26) 
Cc1ccc([N-]C(=O)c2cccc(N)c2N)cc1

>  <Energy>  (26) 
43.86542738016056

>  <Genealogy>  (26) 
Cc1ccc([N-]C(=O)c2cccc(N)c2N)cc1 (protonated)
Cc1ccc([N-]C(=O)c2cccc(N)c2N)cc1 (3D coordinates assigned)
Cc1ccc([N-]C(=O)c2cccc(N)c2N)cc1 (optimized conformer: 43.86542738016056 kcal/mol)

>  <smiles>  (26) 
Cc1ccc(NC(=O)c2cccc(N)c2N)cc1

>  <score_type>  (26) 
oracle

>  <origin>  (26) 
adgpu

>  <m_score__min__energy>  (26) 
-7.5800000000000001

>  <m_primary>  (26) 
energy

$$$$
26:0
     RDKit          3D

 35 37  0  0  0  0  0  0  0  0999 V2000
   -4.1340   16.5480  -34.9260 C   0  0  0  0  0  0  0  0  0  0  0  0
   -4.8790   17.7810  -34.5450 C   0  0  0  0  0  0  0  0  0  0  0  0
   -6.0860   18.1160  -35.0360 N   0  0  0  0  0  0  0  0  0  0  0  0
   -6.4070   19.2710  -34.4730 N   0  0  0  0  0  0  0  0  0  0  0  0
   -5.3810   19.5970  -33.6610 C   0  0  0  0  0  0  0  0  0  0  0  0
   -5.3240   20.8180  -32.8330 C   0  0  0  0  0  0  0  0  0  0  0  0
   -4.0900   21.3730  -32.4590 C   0  0  0  0  0  0  0  0  0  0  0  0
   -4.0440   22.5260  -31.6710 C   0  0  0  0  0  0  0  0  0  0  0  0
   -5.2300   23.1400  -31.2480 C   0  0  0  0  0  0  0  0  0  0  0  0
   -5.1620   24.5840  -30.2450 S   0  0  0  0  0  0  0  0  0  0  0  0
   -4.2180   25.5700  -30.8740 O   0  0  0  0  0  0  0  0  0  0  0  0
   -6.5210   25.2150  -30.1280 O   0  0  0  0  0  0  0  0  0  0  0  0
   -4.5870   24.1790  -28.6610 N   0  0  0  0  0  0  0  0  0  0  0  0
   -3.3230   23.5640  -28.3670 C   0  0  0  0  0  0  0  0  0  0  0  0
   -3.2350   22.2280  -27.9310 C   0  0  0  0  0  0  0  0  0  0  0  0
   -1.9910   21.6540  -27.6560 C   0  0  0  0  0  0  0  0  0  0  0  0
   -0.8240   22.4030  -27.8100 C   0  0  0  0  0  0  0  0  0  0  0  0
   -0.8980   23.7300  -28.2390 C   0  0  0  0  0  0  0  0  0  0  0  0
   -2.1390   24.3140  -28.5210 C   0  0  0  0  0  0  0  0  0  0  0  0
   -2.1710   25.6400  -28.9550 O   0  0  0  0  0  0  0  0  0  0  0  0
   -6.4630   22.5940  -31.6250 C   0  0  0  0  0  0  0  0  0  0  0  0
   -6.5110   21.4370  -32.4090 C   0  0  0  0  0  0  0  0  0  0  0  0
   -4.4370   18.6840  -33.7030 O   0  0  0  0  0  0  0  0  0  0  0  0
   -3.8136   16.0177  -34.0171 H   0  0  0  0  0  0  0  0  0  0  0  0
   -4.7880   15.8936  -35.5211 H   0  0  0  0  0  0  0  0  0  0  0  0
   -3.2505   16.8226  -35.5211 H   0  0  0  0  0  0  0  0  0  0  0  0
   -3.1542   20.8976  -32.7881 H   0  0  0  0  0  0  0  0  0  0  0  0
   -3.0726   22.9533  -31.3816 H   0  0  0  0  0  0  0  0  0  0  0  0
   -4.1513   21.6324  -27.8061 H   0  0  0  0  0  0  0  0  0  0  0  0
   -1.9317   20.6091  -27.3173 H   0  0  0  0  0  0  0  0  0  0  0  0
    0.1540   21.9485  -27.5936 H   0  0  0  0  0  0  0  0  0  0  0  0
    0.0233   24.3194  -28.3560 H   0  0  0  0  0  0  0  0  0  0  0  0
   -3.0040   26.0630  -29.3480 H   0  0  0  0  0  0  0  0  0  0  0  0
   -7.3975   23.0770  -31.3033 H   0  0  0  0  0  0  0  0  0  0  0  0
   -7.4834   21.0097  -32.6950 H   0  0  0  0  0  0  0  0  0  0  0  0
  1  2  1  0
  2  3  2  0
  3  4  1  0
  4  5  2  0
  5  6  1  0
  6  7  2  0
  7  8  1  0
  8  9  2  0
  9 10  1  0
 10 11  2  0
 10 12  2  0
 10 13  1  0
 13 14  1  0
 14 15  2  0
 15 16  1  0
 16 17  2  0
 17 18  1  0
 18 19  2  0
 19 20  1  0
  9 21  1  0
 21 22  2  0
  5 23  1  0
 23  2  1  0
 22  6  1  0
 19 14  1  0
  1 24  1  0
  1 25  1  0
  1 26  1  0
  7 27  1  0
  8 28  1  0
 15 29  1  0
 16 30  1  0
 17 31  1  0
 18 32  1  0
 20 33  1  0
 21 34  1  0
 22 35  1  0
M  CHG  1  13  -1
M  END
>  <UniqueID>  (27) 
27

>  <SMILES>  (27) 
Cc1nnc(-c2ccc(S(=O)(=O)[N-]c3ccccc3O)cc2)o1

>  <Energy>  (27) 
74.14737916105736

>  <Genealogy>  (27) 
Cc1nnc(-c2ccc(S(=O)(=O)[N-]c3ccccc3O)cc2)o1 (protonated)
Cc1nnc(-c2ccc(S(=O)(=O)[N-]c3ccccc3O)cc2)o1 (3D coordinates assigned)
Cc1nnc(-c2ccc(S(=O)(=O)[N-]c3ccccc3O)cc2)o1 (optimized conformer: 74.14737916105736 kcal/mol)

>  <smiles>  (27) 
Cc1nnc(-c2ccc(S(=O)(=O)Nc3ccccc3O)cc2)o1

>  <score_type>  (27) 
oracle

>  <origin>  (27) 
adgpu

>  <m_score__min__energy>  (27) 
-10.640000000000001

>  <m_primary>  (27) 
energy

$$$$
27:0
     RDKit          3D

 21 22  0  0  0  0  0  0  0  0999 V2000
   -7.5970   17.9250  -32.6750 Cl  0  0  0  0  0  0  0  0  0  0  0  0
   -7.4700   19.6260  -32.2680 C   0  0  0  0  0  0  0  0  0  0  0  0
   -8.3440   20.1890  -31.3320 C   0  0  0  0  0  0  0  0  0  0  0  0
   -8.2430   21.5450  -31.0040 C   0  0  0  0  0  0  0  0  0  0  0  0
   -7.2700   22.3510  -31.6190 C   0  0  0  0  0  0  0  0  0  0  0  0
   -7.1360   23.8000  -31.2390 C   0  0  0  0  0  0  0  0  0  0  0  0
   -5.7040   24.1280  -30.9620 C   0  0  0  0  0  0  0  0  0  0  0  0
   -5.1700   25.3890  -30.8420 C   0  0  0  0  0  0  0  0  0  0  0  0
   -3.8690   25.2810  -30.5250 N   0  0  0  0  0  0  0  0  0  0  0  0
   -3.6550   23.9500  -30.4560 C   0  0  0  0  0  0  0  0  0  0  0  0
   -4.7560   23.2100  -30.7080 N   0  0  0  0  0  0  0  0  0  0  0  0
   -6.3870   21.7770  -32.5470 C   0  0  0  0  0  0  0  0  0  0  0  0
   -6.4900   20.4210  -32.8730 C   0  0  0  0  0  0  0  0  0  0  0  0
   -9.1122   19.5641  -30.8530 H   0  0  0  0  0  0  0  0  0  0  0  0
   -8.9276   21.9819  -30.2621 H   0  0  0  0  0  0  0  0  0  0  0  0
   -7.4998   24.4281  -32.0655 H   0  0  0  0  0  0  0  0  0  0  0  0
   -7.7309   23.9914  -30.3337 H   0  0  0  0  0  0  0  0  0  0  0  0
   -5.7183   26.3322  -30.9825 H   0  0  0  0  0  0  0  0  0  0  0  0
   -2.6758   23.5096  -30.2170 H   0  0  0  0  0  0  0  0  0  0  0  0
   -5.6107   22.3965  -33.0198 H   0  0  0  0  0  0  0  0  0  0  0  0
   -5.7996   19.9785  -33.6062 H   0  0  0  0  0  0  0  0  0  0  0  0
  1  2  1  0
  2  3  2  0
  3  4  1  0
  4  5  2  0
  5  6  1  0
  6  7  1  0
  7  8  2  0
  8  9  1  0
  9 10  1  0
 10 11  2  0
  5 12  1  0
 12 13  2  0
 13  2  1  0
 11  7  1  0
  3 14  1  0
  4 15  1  0
  6 16  1  0
  6 17  1  0
  8 18  1  0
 10 19  1  0
 12 20  1  0
 13 21  1  0
M  CHG  1   9  -1
M  END
>  <UniqueID>  (28) 
28

>  <SMILES>  (28) 
Clc1ccc(Cc2c[n-]cn2)cc1

>  <Energy>  (28) 
46.931539594966395

>  <Genealogy>  (28) 
Clc1ccc(Cc2c[n-]cn2)cc1 (protonated)
Clc1ccc(Cc2c[n-]cn2)cc1 (3D coordinates assigned)
Clc1ccc(Cc2c[n-]cn2)cc1 (optimized conformer: 46.931539594966395 kcal/mol)

>  <smiles>  (28) 
Clc1ccc(Cc2c[nH]cn2)cc1

>  <score_type>  (28) 
oracle

>  <origin>  (28) 
adgpu

>  <m_score__min__energy>  (28) 
-7.46

>  <m_primary>  (28) 
energy

$$$$
28:0
     RDKit          3D

 59 63  0  0  0  0  0  0  0  0999 V2000
   -7.9900   23.1660  -31.2730 C   0  0  0  0  0  0  0  0  0  0  0  0
   -6.4840   23.1130  -31.2920 C   0  0  0  0  0  0  0  0  0  0  0  0
   -5.8520   22.0980  -32.0270 C   0  0  0  0  0  0  0  0  0  0  0  0
   -4.4570   21.9900  -32.0390 C   0  0  0  0  0  0  0  0  0  0  0  0
   -3.8090   20.9110  -32.7990 C   0  0  0  0  0  0  0  0  0  0  0  0
   -2.4910   21.1550  -33.2170 C   0  0  0  0  0  0  0  0  0  0  0  0
   -1.7710   20.1830  -33.9020 C   0  0  0  0  0  0  0  0  0  0  0  0
   -2.3700   18.9620  -34.1710 C   0  0  0  0  0  0  0  0  0  0  0  0
   -3.6440   18.7290  -33.7690 N   0  0  0  0  0  0  0  0  0  0  0  0
   -4.4050   19.6440  -33.0960 C   0  0  0  0  0  0  0  0  0  0  0  0
   -5.7690   19.2550  -32.7350 N   0  0  0  0  0  0  0  0  0  0  0  0
   -6.8510   19.9420  -33.4760 C   0  0  0  0  0  0  0  0  0  0  0  0
   -8.2570   19.5360  -33.0490 C   0  0  0  0  0  0  0  0  0  0  0  0
   -8.3170   19.4180  -31.5960 N   0  0  0  0  0  0  0  0  0  0  0  0
   -7.5400   18.2510  -31.2020 C   0  0  0  0  0  0  0  0  0  0  0  0
   -6.0490   18.4290  -31.5350 C   0  0  0  0  0  0  0  0  0  0  0  0
   -3.6780   22.9570  -31.3930 C   0  0  0  0  0  0  0  0  0  0  0  0
   -4.2860   23.9990  -30.6750 C   0  0  0  0  0  0  0  0  0  0  0  0
   -3.4860   24.9910  -30.0160 N   0  0  0  0  0  0  0  0  0  0  0  0
   -2.2590   24.7460  -29.3150 C   0  0  0  0  0  0  0  0  0  0  0  0
   -1.5460   25.7140  -28.9330 O   0  0  0  0  0  0  0  0  0  0  0  0
   -1.8570   23.3600  -28.9910 C   0  0  0  0  0  0  0  0  0  0  0  0
   -0.6270   22.8440  -29.4380 C   0  0  0  0  0  0  0  0  0  0  0  0
   -0.2550   21.5760  -29.1230 N   0  0  0  0  0  0  0  0  0  0  0  0
   -1.0480   20.7580  -28.3790 C   0  0  0  0  0  0  0  0  0  0  0  0
   -0.6200   19.4650  -28.0590 C   0  0  0  0  0  0  0  0  0  0  0  0
   -1.4370   18.6300  -27.2920 C   0  0  0  0  0  0  0  0  0  0  0  0
   -2.6790   19.0820  -26.8350 C   0  0  0  0  0  0  0  0  0  0  0  0
   -3.1140   20.3740  -27.1500 C   0  0  0  0  0  0  0  0  0  0  0  0
   -2.2990   21.2210  -27.9170 C   0  0  0  0  0  0  0  0  0  0  0  0
   -2.6950   22.5280  -28.2260 C   0  0  0  0  0  0  0  0  0  0  0  0
   -5.6950   24.0480  -30.5670 C   0  0  0  0  0  0  0  0  0  0  0  0
   -6.3580   25.1460  -29.7640 C   0  0  0  0  0  0  0  0  0  0  0  0
   -8.3433   23.1784  -30.2314 H   0  0  0  0  0  0  0  0  0  0  0  0
   -8.3314   24.0767  -31.7869 H   0  0  0  0  0  0  0  0  0  0  0  0
   -8.3945   22.2815  -31.7869 H   0  0  0  0  0  0  0  0  0  0  0  0
   -6.4590   21.3807  -32.5989 H   0  0  0  0  0  0  0  0  0  0  0  0
   -2.0228   22.1264  -32.9999 H   0  0  0  0  0  0  0  0  0  0  0  0
   -0.7387   20.3802  -34.2266 H   0  0  0  0  0  0  0  0  0  0  0  0
   -1.8120   18.1824  -34.7104 H   0  0  0  0  0  0  0  0  0  0  0  0
   -6.7423   21.0253  -33.3193 H   0  0  0  0  0  0  0  0  0  0  0  0
   -6.7451   19.6510  -34.5315 H   0  0  0  0  0  0  0  0  0  0  0  0
   -8.9750   20.2993  -33.3834 H   0  0  0  0  0  0  0  0  0  0  0  0
   -8.5089   18.5663  -33.5031 H   0  0  0  0  0  0  0  0  0  0  0  0
   -9.3130   19.2380  -31.3320 H   0  0  0  0  0  0  0  0  0  0  0  0
   -7.6486   18.0984  -30.1181 H   0  0  0  0  0  0  0  0  0  0  0  0
   -7.9170   17.3807  -31.7592 H   0  0  0  0  0  0  0  0  0  0  0  0
   -5.5610   18.9049  -30.6717 H   0  0  0  0  0  0  0  0  0  0  0  0
   -5.6613   17.4237  -31.7564 H   0  0  0  0  0  0  0  0  0  0  0  0
   -2.5809   22.9001  -31.4483 H   0  0  0  0  0  0  0  0  0  0  0  0
    0.0390   23.4724  -30.0476 H   0  0  0  0  0  0  0  0  0  0  0  0
    0.3585   19.1061  -28.4107 H   0  0  0  0  0  0  0  0  0  0  0  0
   -1.1013   17.6117  -27.0464 H   0  0  0  0  0  0  0  0  0  0  0  0
   -3.3146   18.4211  -26.2273 H   0  0  0  0  0  0  0  0  0  0  0  0
   -4.0945   20.7258  -26.7966 H   0  0  0  0  0  0  0  0  0  0  0  0
   -3.6647   22.9057  -27.8694 H   0  0  0  0  0  0  0  0  0  0  0  0
   -6.2342   24.9409  -28.6904 H   0  0  0  0  0  0  0  0  0  0  0  0
   -5.8920   26.1119  -30.0089 H   0  0  0  0  0  0  0  0  0  0  0  0
   -7.4297   25.1833  -30.0089 H   0  0  0  0  0  0  0  0  0  0  0  0
  1  2  1  0
  2  3  2  0
  3  4  1  0
  4  5  1  0
  5  6  2  0
  6  7  1  0
  7  8  2  0
  8  9  1  0
  9 10  2  0
 10 11  1  0
 11 12  1  0
 12 13  1  0
 13 14  1  0
 14 15  1  0
 15 16  1  0
  4 17  2  0
 17 18  1  0
 18 19  1  0
 19 20  1  0
 20 21  2  0
 20 22  1  0
 22 23  2  0
 23 24  1  0
 24 25  2  0
 25 26  1  0
 26 27  2  0
 27 28  1  0
 28 29  2  0
 29 30  1  0
 30 31  2  0
 18 32  2  0
 32 33  1  0
 32  2  1  0
 10  5  1  0
 16 11  1  0
 31 22  1  0
 30 25  1  0
  1 34  1  0
  1 35  1  0
  1 36  1  0
  3 37  1  0
  6 38  1  0
  7 39  1  0
  8 40  1  0
 12 41  1  0
 12 42  1  0
 13 43  1  0
 13 44  1  0
 14 45  1  0
 15 46  1  0
 15 47  1  0
 16 48  1  0
 16 49  1  0
 17 50  1  0
 23 51  1  0
 26 52  1  0
 27 53  1  0
 28 54  1  0
 29 55  1  0
 31 56  1  0
 33 57  1  0
 33 58  1  0
 33 59  1  0
M  CHG  1  19  -1
M  END
>  <UniqueID>  (29) 
29

>  <SMILES>  (29) 
Cc1cc(-c2cccnc2N2CCNCC2)cc([N-]C(=O)c2cnc3ccccc3c2)c1C

>  <Energy>  (29) 
92.87762623787424

>  <Genealogy>  (29) 
Cc1cc(-c2cccnc2N2CCNCC2)cc([N-]C(=O)c2cnc3ccccc3c2)c1C (protonated)
Cc1cc(-c2cccnc2N2CCNCC2)cc([N-]C(=O)c2cnc3ccccc3c2)c1C (3D coordinates assigned)
Cc1cc(-c2cccnc2N2CCNCC2)cc([N-]C(=O)c2cnc3ccccc3c2)c1C (nonaromatic ring conformer: 92.87762623787424 kcal/mol)

>  <smiles>  (29) 
Cc1cc(-c2cccnc2N2CCNCC2)cc(NC(=O)c2cnc3ccccc3c2)c1C

>  <score_type>  (29) 
oracle

>  <origin>  (29) 
adgpu

>  <m_score__min__energy>  (29) 
-12.44

>  <m_primary>  (29) 
energy

$$$$
29:0
     RDKit          3D

 74 77  0  0  0  0  0  0  0  0999 V2000
    1.9893   24.5183  -24.2340 H   0  0  0  0  0  0  0  0  0  0  0  0
    1.9820   24.5190  -25.3340 C   0  0  0  0  0  0  0  0  0  0  0  0
    1.0930   23.7900  -26.0580 N   0  0  0  0  0  0  0  0  0  0  0  0
    1.2790   23.9560  -27.3840 C   0  0  0  0  0  0  0  0  0  0  0  0
    0.5890   23.3600  -28.3120 N   0  0  0  0  0  0  0  0  0  0  0  0
   -0.5300   22.4630  -28.1810 C   0  0  0  0  0  0  0  0  0  0  0  0
   -0.5840   21.7350  -27.1520 O   0  0  0  0  0  0  0  0  0  0  0  0
   -1.6370   22.3440  -29.2030 C   0  0  1  0  0  0  0  0  0  0  0  0
   -2.5065   21.8711  -28.7230 H   0  0  0  0  0  0  0  0  0  0  0  0
   -2.0080   23.6690  -29.6900 N   0  0  0  0  0  0  0  0  0  0  0  0
   -1.9110   24.8680  -28.9160 C   0  0  0  0  0  0  0  0  0  0  0  0
   -1.2120   25.8380  -29.3230 O   0  0  0  0  0  0  0  0  0  0  0  0
   -2.6320   24.9470  -27.5930 C   0  0  1  0  0  0  0  0  0  0  0  0
   -2.8964   25.9980  -27.4048 H   0  0  0  0  0  0  0  0  0  0  0  0
   -3.9490   24.1170  -27.6380 C   0  0  0  0  0  0  0  0  0  0  0  0
   -4.6285   24.4990  -26.8619 H   0  0  0  0  0  0  0  0  0  0  0  0
   -3.6754   23.0649  -27.4703 H   0  0  0  0  0  0  0  0  0  0  0  0
   -4.6750   24.1880  -29.0040 C   0  0  0  0  0  0  0  0  0  0  0  0
   -3.9186   24.4455  -29.7600 H   0  0  0  0  0  0  0  0  0  0  0  0
   -5.3060   22.8320  -29.3390 C   0  0  0  0  0  0  0  0  0  0  0  0
   -5.5526   22.3021  -28.4071 H   0  0  0  0  0  0  0  0  0  0  0  0
   -6.2234   22.9893  -29.9252 H   0  0  0  0  0  0  0  0  0  0  0  0
   -4.5948   22.2314  -29.9252 H   0  0  0  0  0  0  0  0  0  0  0  0
   -5.7540   25.2780  -29.0310 C   0  0  0  0  0  0  0  0  0  0  0  0
   -6.0248   25.5515  -28.0005 H   0  0  0  0  0  0  0  0  0  0  0  0
   -5.3672   26.1639  -29.5559 H   0  0  0  0  0  0  0  0  0  0  0  0
   -6.6438   24.9002  -29.5559 H   0  0  0  0  0  0  0  0  0  0  0  0
   -1.7560   24.4960  -26.4880 N   0  0  0  0  0  0  0  0  0  0  0  0
   -1.0020   23.8670  -26.8560 H   0  0  0  0  0  0  0  0  0  0  0  0
   -2.3080   23.9330  -25.7990 H   0  0  0  0  0  0  0  0  0  0  0  0
   -1.1730   25.6220  -25.7930 C   0  0  0  0  0  0  0  0  0  0  0  0
   -0.9540   25.5730  -24.4040 C   0  0  0  0  0  0  0  0  0  0  0  0
   -1.2582   24.6831  -23.8334 H   0  0  0  0  0  0  0  0  0  0  0  0
   -0.3520   26.6490  -23.7450 C   0  0  0  0  0  0  0  0  0  0  0  0
   -0.1907   26.6037  -22.6578 H   0  0  0  0  0  0  0  0  0  0  0  0
    0.0470   27.7850  -24.4620 C   0  0  0  0  0  0  0  0  0  0  0  0
    0.6620   28.8840  -23.7850 N   0  0  0  0  0  0  0  0  0  0  0  0
    1.3380   29.5070  -24.2790 H   0  0  0  0  0  0  0  0  0  0  0  0
    0.4490   29.0810  -22.7840 H   0  0  0  0  0  0  0  0  0  0  0  0
   -0.1640   27.8360  -25.8470 C   0  0  0  0  0  0  0  0  0  0  0  0
    0.1472   28.7247  -26.4157 H   0  0  0  0  0  0  0  0  0  0  0  0
   -0.7680   26.7630  -26.5090 C   0  0  0  0  0  0  0  0  0  0  0  0
   -0.9275   26.8113  -27.5963 H   0  0  0  0  0  0  0  0  0  0  0  0
   -1.1810   21.4720  -30.3900 C   0  0  0  0  0  0  0  0  0  0  0  0
   -0.4258   22.0223  -30.9704 H   0  0  0  0  0  0  0  0  0  0  0  0
   -0.7591   20.5366  -29.9937 H   0  0  0  0  0  0  0  0  0  0  0  0
   -2.3420   21.1290  -31.2920 C   0  0  0  0  0  0  0  0  0  0  0  0
   -2.2530   21.3640  -32.6730 C   0  0  0  0  0  0  0  0  0  0  0  0
   -1.3000   21.6971  -33.1098 H   0  0  0  0  0  0  0  0  0  0  0  0
   -3.3660   21.1780  -33.4970 C   0  0  0  0  0  0  0  0  0  0  0  0
   -3.2825   21.3542  -34.5796 H   0  0  0  0  0  0  0  0  0  0  0  0
   -4.5930   20.7660  -32.9460 C   0  0  0  0  0  0  0  0  0  0  0  0
   -5.7500   20.6070  -33.7250 O   0  0  0  0  0  0  0  0  0  0  0  0
   -6.1580   19.3760  -34.3140 C   0  0  0  0  0  0  0  0  0  0  0  0
   -7.2331   19.4181  -34.5429 H   0  0  0  0  0  0  0  0  0  0  0  0
   -5.5908   19.2087  -35.2415 H   0  0  0  0  0  0  0  0  0  0  0  0
   -5.8930   18.2440  -33.3530 C   0  0  0  0  0  0  0  0  0  0  0  0
   -4.8490   17.3230  -33.6060 C   0  0  0  0  0  0  0  0  0  0  0  0
   -3.8040   17.4650  -35.0210 Cl  0  0  0  0  0  0  0  0  0  0  0  0
   -4.6100   16.2700  -32.7150 C   0  0  0  0  0  0  0  0  0  0  0  0
   -3.8064   15.5486  -32.9243 H   0  0  0  0  0  0  0  0  0  0  0  0
   -5.3850   16.1300  -31.5630 C   0  0  0  0  0  0  0  0  0  0  0  0
   -5.1993   15.2922  -30.8748 H   0  0  0  0  0  0  0  0  0  0  0  0
   -6.3940   17.0500  -31.2830 C   0  0  0  0  0  0  0  0  0  0  0  0
   -6.9957   16.9404  -30.3687 H   0  0  0  0  0  0  0  0  0  0  0  0
   -6.6460   18.1130  -32.1590 C   0  0  0  0  0  0  0  0  0  0  0  0
   -7.9010   19.2610  -31.7130 Cl  0  0  0  0  0  0  0  0  0  0  0  0
   -4.6750   20.5160  -31.5690 C   0  0  0  0  0  0  0  0  0  0  0  0
   -5.6252   20.1742  -31.1327 H   0  0  0  0  0  0  0  0  0  0  0  0
   -3.5610   20.6970  -30.7460 C   0  0  0  0  0  0  0  0  0  0  0  0
   -3.6392   20.5004  -29.6665 H   0  0  0  0  0  0  0  0  0  0  0  0
    2.5540   24.9950  -27.7160 S   0  0  0  0  0  0  0  0  0  0  0  0
    2.8830   25.2670  -26.0870 C   0  0  0  0  0  0  0  0  0  0  0  0
    3.6719   25.9213  -25.6877 H   0  0  0  0  0  0  0  0  0  0  0  0
  1  2  1  0
  2  3  1  0
  3  4  1  0
  4  5  2  0
  5  6  1  0
  6  7  2  0
  6  8  1  0
  8  9  1  1
  8 10  1  0
 10 11  1  0
 11 12  2  0
 11 13  1  0
 13 14  1  1
 13 15  1  0
 15 16  1  0
 15 17  1  0
 15 18  1  0
 18 19  1  0
 18 20  1  0
 20 21  1  0
 20 22  1  0
 20 23  1  0
 18 24  1  0
 24 25  1  0
 24 26  1  0
 24 27  1  0
 13 28  1  0
 28 29  1  0
 28 30  1  0
 28 31  1  0
 31 32  2  0
 32 33  1  0
 32 34  1  0
 34 35  1  0
 34 36  2  0
 36 37  1  0
 37 38  1  0
 37 39  1  0
 36 40  1  0
 40 41  1  0
 40 42  2  0
 42 43  1  0
  8 44  1  0
 44 45  1  0
 44 46  1  0
 44 47  1  0
 47 48  2  0
 48 49  1  0
 48 50  1  0
 50 51  1  0
 50 52  2  0
 52 53  1  0
 53 54  1  0
 54 55  1  0
 54 56  1  0
 54 57  1  0
 57 58  2  0
 58 59  1  0
 58 60  1  0
 60 61  1  0
 60 62  2  0
 62 63  1  0
 62 64  1  0
 64 65  1  0
 64 66  2  0
 66 67  1  0
 52 68  1  0
 68 69  1  0
 68 70  2  0
 70 71  1  0
  4 72  1  0
 72 73  1  0
 73 74  1  0
 73  2  2  0
 42 31  1  0
 70 47  1  0
 66 57  1  0
M  CHG  3   3  -1  10  -1  28   1
M  END
>  <UniqueID>  (30) 
30

>  <SMILES>  (30) 
CC(C)C[C@@H]([NH2+]c1ccc(N)cc1)C(=O)[N-][C@@H](Cc1ccc(OCc2c(Cl)cccc2Cl)cc1)C(=O)/N=c1\[n-]ccs1

>  <Energy>  (30) 
106.05618680157279

>  <Genealogy>  (30) 
CC(C)CC([NH2+]c1ccc(N)cc1)C(=O)[N-]C(Cc1ccc(OCc2c(Cl)cccc2Cl)cc1)C(=O)N=c1[n-]ccs1 (protonated)
CC(C)C[C@@H]([NH2+]c1ccc(N)cc1)C(=O)[N-][C@@H](Cc1ccc(OCc2c(Cl)cccc2Cl)cc1)C(=O)N=c1[n-]ccs1 (chirality)
CC(C)C[C@@H]([NH2+]c1ccc(N)cc1)C(=O)[N-][C@@H](Cc1ccc(OCc2c(Cl)cccc2Cl)cc1)C(=O)/N=c1\[n-]ccs1 (cis-trans isomerization)
CC(C)C[C@@H]([NH2+]c1ccc(N)cc1)C(=O)[N-][C@@H](Cc1ccc(OCc2c(Cl)cccc2Cl)cc1)C(=O)/N=c1\[n-]ccs1 (3D coordinates assigned)
CC(C)C[C@@H]([NH2+]c1ccc(N)cc1)C(=O)[N-][C@@H](Cc1ccc(OCc2c(Cl)cccc2Cl)cc1)C(=O)/N=c1\[n-]ccs1 (optimized conformer: 106.05618680157279 kcal/mol)

>  <smiles>  (30) 
CC(C)CC(Nc1ccc(N)cc1)C(=O)NC(Cc1ccc(OCc2c(Cl)cccc2Cl)cc1)C(=O)N=c1[nH]ccs1

>  <score_type>  (30) 
oracle

>  <origin>  (30) 
adgpu

>  <m_score__min__energy>  (30) 
-12.050000000000001

>  <m_primary>  (30) 
energy

$$$$
30:0
     RDKit          3D

 65 68  0  0  0  0  0  0  0  0999 V2000
    1.2030   20.0110  -32.7700 C   0  0  0  0  0  0  0  0  0  0  0  0
    0.1590   19.2460  -32.1780 O   0  0  0  0  0  0  0  0  0  0  0  0
   -1.0140   18.8580  -32.8440 C   0  0  0  0  0  0  0  0  0  0  0  0
   -1.0790   17.5660  -33.3770 C   0  0  0  0  0  0  0  0  0  0  0  0
   -2.2190   17.1400  -34.0640 C   0  0  0  0  0  0  0  0  0  0  0  0
   -3.3100   17.9990  -34.2110 C   0  0  0  0  0  0  0  0  0  0  0  0
   -3.2770   19.2800  -33.6510 C   0  0  0  0  0  0  0  0  0  0  0  0
   -4.4180   20.1300  -33.7790 N   0  0  0  0  0  0  0  0  0  0  0  0
   -5.8740   19.8660  -32.8770 S   0  0  0  0  0  0  0  0  0  0  0  0
   -5.5900   18.9150  -31.7480 O   0  0  0  0  0  0  0  0  0  0  0  0
   -6.9000   19.2380  -33.7770 O   0  0  0  0  0  0  0  0  0  0  0  0
   -6.5160   21.3800  -32.2500 C   0  0  0  0  0  0  0  0  0  0  0  0
   -7.8990   21.5750  -32.1410 C   0  0  0  0  0  0  0  0  0  0  0  0
   -8.4000   22.7640  -31.6080 C   0  0  0  0  0  0  0  0  0  0  0  0
   -7.5230   23.7600  -31.1690 C   0  0  0  0  0  0  0  0  0  0  0  0
   -6.1330   23.5720  -31.2550 C   0  0  0  0  0  0  0  0  0  0  0  0
   -5.2080   24.6250  -30.7720 C   0  0  0  0  0  0  0  0  0  0  0  0
   -5.6800   25.7000  -30.3160 O   0  0  0  0  0  0  0  0  0  0  0  0
   -3.7840   24.4790  -30.8510 N   0  0  0  0  0  0  0  0  0  0  0  0
   -3.0100   23.4200  -30.2690 C   0  0  0  0  0  0  0  0  0  0  0  0
   -2.2810   22.5180  -31.0640 C   0  0  0  0  0  0  0  0  0  0  0  0
   -1.5380   21.4950  -30.4670 C   0  0  0  0  0  0  0  0  0  0  0  0
   -1.5220   21.3560  -29.0740 C   0  0  0  0  0  0  0  0  0  0  0  0
   -0.6090   20.0470  -28.3310 S   0  0  0  0  0  0  0  0  0  0  0  0
    0.3990   20.6110  -27.3680 O   0  0  0  0  0  0  0  0  0  0  0  0
   -1.5710   19.1550  -27.5980 O   0  0  0  0  0  0  0  0  0  0  0  0
    0.2250   19.1490  -29.5620 N   0  0  0  0  0  0  0  0  0  0  0  0
    1.2350   18.3610  -29.3140 C   0  0  0  0  0  0  0  0  0  0  0  0
    1.8630   17.5690  -30.4220 C   0  0  0  0  0  0  0  0  0  0  0  0
    1.2620   16.1620  -30.5390 C   0  0  0  0  0  0  0  0  0  0  0  0
    1.0190   15.4390  -29.1990 C   0  0  0  0  0  0  0  0  0  0  0  0
    2.0830   15.7250  -28.1210 C   0  0  0  0  0  0  0  0  0  0  0  0
    1.7280   16.9470  -27.2550 C   0  0  0  0  0  0  0  0  0  0  0  0
    1.7640   18.2160  -27.9880 N   0  0  0  0  0  0  0  0  0  0  0  0
   -2.2730   22.2370  -28.2830 C   0  0  0  0  0  0  0  0  0  0  0  0
   -3.0160   23.2590  -28.8790 C   0  0  0  0  0  0  0  0  0  0  0  0
   -5.6380   22.3820  -31.8170 C   0  0  0  0  0  0  0  0  0  0  0  0
   -2.1190   19.7190  -32.9890 C   0  0  0  0  0  0  0  0  0  0  0  0
    1.8199   20.4631  -31.9794 H   0  0  0  0  0  0  0  0  0  0  0  0
    1.8288   19.3561  -33.3941 H   0  0  0  0  0  0  0  0  0  0  0  0
    0.7671   20.8051  -33.3941 H   0  0  0  0  0  0  0  0  0  0  0  0
   -0.2271   16.8810  -33.2545 H   0  0  0  0  0  0  0  0  0  0  0  0
   -2.2569   16.1264  -34.4896 H   0  0  0  0  0  0  0  0  0  0  0  0
   -4.1980   17.6671  -34.7689 H   0  0  0  0  0  0  0  0  0  0  0  0
   -8.5919   20.7892  -32.4763 H   0  0  0  0  0  0  0  0  0  0  0  0
   -9.4867   22.9173  -31.5334 H   0  0  0  0  0  0  0  0  0  0  0  0
   -7.9233   24.6966  -30.7537 H   0  0  0  0  0  0  0  0  0  0  0  0
   -2.2953   22.6175  -32.1594 H   0  0  0  0  0  0  0  0  0  0  0  0
   -0.9640   20.7969  -31.0941 H   0  0  0  0  0  0  0  0  0  0  0  0
   -0.1320   19.2380  -30.5400 H   0  0  0  0  0  0  0  0  0  0  0  0
    1.7062   18.1016  -31.3716 H   0  0  0  0  0  0  0  0  0  0  0  0
    2.9343   17.4618  -30.1964 H   0  0  0  0  0  0  0  0  0  0  0  0
    0.2970   16.2463  -31.0602 H   0  0  0  0  0  0  0  0  0  0  0  0
    2.0032   15.5574  -31.0823 H   0  0  0  0  0  0  0  0  0  0  0  0
    0.0403   15.7557  -28.8094 H   0  0  0  0  0  0  0  0  0  0  0  0
    1.0669   14.3605  -29.4101 H   0  0  0  0  0  0  0  0  0  0  0  0
    2.1708   14.8435  -27.4689 H   0  0  0  0  0  0  0  0  0  0  0  0
    3.0309   15.9425  -28.6350 H   0  0  0  0  0  0  0  0  0  0  0  0
    0.7136   16.8059  -26.8536 H   0  0  0  0  0  0  0  0  0  0  0  0
    2.4868   17.0113  -26.4612 H   0  0  0  0  0  0  0  0  0  0  0  0
    1.9100   19.0800  -27.4200 H   0  0  0  0  0  0  0  0  0  0  0  0
   -2.2772   22.1230  -27.1889 H   0  0  0  0  0  0  0  0  0  0  0  0
   -3.6091   23.9410  -28.2520 H   0  0  0  0  0  0  0  0  0  0  0  0
   -4.5523   22.2366  -31.9175 H   0  0  0  0  0  0  0  0  0  0  0  0
   -2.0748   20.7399  -32.5819 H   0  0  0  0  0  0  0  0  0  0  0  0
  1  2  1  0
  2  3  1  0
  3  4  2  0
  4  5  1  0
  5  6  2  0
  6  7  1  0
  7  8  1  0
  8  9  1  0
  9 10  2  0
  9 11  2  0
  9 12  1  0
 12 13  2  0
 13 14  1  0
 14 15  2  0
 15 16  1  0
 16 17  1  0
 17 18  2  0
 17 19  1  0
 19 20  1  0
 20 21  2  0
 21 22  1  0
 22 23  2  0
 23 24  1  0
 24 25  2  0
 24 26  2  0
 24 27  1  0
 27 28  2  3
 28 29  1  0
 29 30  1  0
 30 31  1  0
 31 32  1  0
 32 33  1  0
 33 34  1  0
 23 35  1  0
 35 36  2  0
 16 37  2  0
  7 38  2  0
 38  3  1  0
 37 12  1  0
 36 20  1  0
 34 28  1  0
  1 39  1  0
  1 40  1  0
  1 41  1  0
  4 42  1  0
  5 43  1  0
  6 44  1  0
 13 45  1  0
 14 46  1  0
 15 47  1  0
 21 48  1  0
 22 49  1  0
 27 50  1  0
 29 51  1  0
 29 52  1  0
 30 53  1  0
 30 54  1  0
 31 55  1  0
 31 56  1  0
 32 57  1  0
 32 58  1  0
 33 59  1  0
 33 60  1  0
 34 61  1  0
 35 62  1  0
 36 63  1  0
 37 64  1  0
 38 65  1  0
M  CHG  3   8  -1  19  -1  27   1
M  END
>  <UniqueID>  (31) 
31

>  <SMILES>  (31) 
COc1cccc([N-]S(=O)(=O)c2cccc(C(=O)[N-]c3ccc(S(=O)(=O)[NH+]=C4CCCCCN4)cc3)c2)c1

>  <Energy>  (31) 
83.68678333538949

>  <Genealogy>  (31) 
COc1cccc([N-]S(=O)(=O)c2cccc(C(=O)[N-]c3ccc(S(=O)(=O)[NH+]=C4CCCCCN4)cc3)c2)c1 (protonated)
COc1cccc([N-]S(=O)(=O)c2cccc(C(=O)[N-]c3ccc(S(=O)(=O)[NH+]=C4CCCCCN4)cc3)c2)c1 (3D coordinates assigned)
COc1cccc([N-]S(=O)(=O)c2cccc(C(=O)[N-]c3ccc(S(=O)(=O)[NH+]=C4CCCCCN4)cc3)c2)c1 (nonaromatic ring conformer: 83.68678333538949 kcal/mol)

>  <smiles>  (31) 
COc1cccc(NS(=O)(=O)c2cccc(C(=O)Nc3ccc(S(=O)(=O)N=C4CCCCCN4)cc3)c2)c1

>  <score_type>  (31) 
oracle

>  <origin>  (31) 
adgpu

>  <m_score__min__energy>  (31) 
-9.9800000000000004

>  <m_primary>  (31) 
energy

$$$$
31:0
     RDKit          3D

 39 41  0  0  0  0  0  0  0  0999 V2000
   -3.3010   22.8020  -27.9550 C   0  0  0  0  0  0  0  0  0  0  0  0
   -3.1090   24.3140  -27.8030 C   0  0  2  0  0  0  0  0  0  0  0  0
   -2.5790   24.9240  -29.0710 C   0  0  0  0  0  0  0  0  0  0  0  0
   -1.3370   25.0720  -29.2280 O   0  0  0  0  0  0  0  0  0  0  0  0
   -3.4950   25.2850  -30.1130 N   0  0  0  0  0  0  0  0  0  0  0  0
   -4.6000   24.5000  -30.5850 C   0  0  0  0  0  0  0  0  0  0  0  0
   -4.3350   23.2810  -31.2210 C   0  0  0  0  0  0  0  0  0  0  0  0
   -5.3840   22.4770  -31.6780 C   0  0  0  0  0  0  0  0  0  0  0  0
   -6.7180   22.8850  -31.5000 C   0  0  0  0  0  0  0  0  0  0  0  0
   -7.7970   22.1000  -31.9320 O   0  0  0  0  0  0  0  0  0  0  0  0
   -7.7800   20.7060  -32.0850 C   0  0  0  0  0  0  0  0  0  0  0  0
   -8.7410   19.9420  -31.4120 C   0  0  0  0  0  0  0  0  0  0  0  0
   -8.7650   18.5510  -31.5520 C   0  0  0  0  0  0  0  0  0  0  0  0
   -7.8350   17.9150  -32.3790 C   0  0  0  0  0  0  0  0  0  0  0  0
   -6.8840   18.6700  -33.0700 C   0  0  0  0  0  0  0  0  0  0  0  0
   -6.8570   20.0610  -32.9320 C   0  0  0  0  0  0  0  0  0  0  0  0
   -6.9840   24.0820  -30.8270 C   0  0  0  0  0  0  0  0  0  0  0  0
   -5.9350   24.8870  -30.3700 C   0  0  0  0  0  0  0  0  0  0  0  0
   -2.2150   24.6200  -26.6810 N   0  0  0  0  0  0  0  0  0  0  0  0
   -2.2500   25.6860  -25.8600 C   0  0  0  0  0  0  0  0  0  0  0  0
   -1.2530   25.5350  -24.9250 C   0  0  0  0  0  0  0  0  0  0  0  0
   -0.5950   24.3780  -25.1470 N   0  0  0  0  0  0  0  0  0  0  0  0
   -1.2100   23.8450  -26.2240 C   0  0  0  0  0  0  0  0  0  0  0  0
   -3.3599   22.3380  -26.9594 H   0  0  0  0  0  0  0  0  0  0  0  0
   -4.2315   22.6042  -28.5074 H   0  0  0  0  0  0  0  0  0  0  0  0
   -2.4495   22.3780  -28.5074 H   0  0  0  0  0  0  0  0  0  0  0  0
   -4.0954   24.7536  -27.5935 H   0  0  0  0  0  0  0  0  0  0  0  0
   -3.2944   22.9535  -31.3621 H   0  0  0  0  0  0  0  0  0  0  0  0
   -5.1649   21.5222  -32.1784 H   0  0  0  0  0  0  0  0  0  0  0  0
   -9.4820   20.4393  -30.7689 H   0  0  0  0  0  0  0  0  0  0  0  0
   -9.5162   17.9569  -31.0110 H   0  0  0  0  0  0  0  0  0  0  0  0
   -7.8518   16.8203  -32.4858 H   0  0  0  0  0  0  0  0  0  0  0  0
   -6.1550   18.1690  -33.7239 H   0  0  0  0  0  0  0  0  0  0  0  0
   -6.1136   20.6531  -33.4858 H   0  0  0  0  0  0  0  0  0  0  0  0
   -8.0253   24.3926  -30.6559 H   0  0  0  0  0  0  0  0  0  0  0  0
   -6.1551   25.8258  -29.8407 H   0  0  0  0  0  0  0  0  0  0  0  0
   -2.9527   26.5298  -25.9255 H   0  0  0  0  0  0  0  0  0  0  0  0
   -1.0264   26.2485  -24.1191 H   0  0  0  0  0  0  0  0  0  0  0  0
   -0.9234   22.8852  -26.6785 H   0  0  0  0  0  0  0  0  0  0  0  0
  1  2  1  0
  2  3  1  0
  3  4  2  0
  3  5  1  0
  5  6  1  0
  6  7  2  0
  7  8  1  0
  8  9  2  0
  9 10  1  0
 10 11  1  0
 11 12  2  0
 12 13  1  0
 13 14  2  0
 14 15  1  0
 15 16  2  0
  9 17  1  0
 17 18  2  0
  2 19  1  0
 19 20  1  0
 20 21  2  0
 21 22  1  0
 22 23  2  0
 18  6  1  0
 23 19  1  0
 16 11  1  0
  1 24  1  0
  1 25  1  0
  1 26  1  0
  2 27  1  1
  7 28  1  0
  8 29  1  0
 12 30  1  0
 13 31  1  0
 14 32  1  0
 15 33  1  0
 16 34  1  0
 17 35  1  0
 18 36  1  0
 20 37  1  0
 21 38  1  0
 23 39  1  0
M  CHG  1   5  -1
M  END
>  <UniqueID>  (32) 
32

>  <SMILES>  (32) 
C[C@H](C(=O)[N-]c1ccc(Oc2ccccc2)cc1)n1ccnc1

>  <Energy>  (32) 
77.7670855869707

>  <Genealogy>  (32) 
CC(C(=O)[N-]c1ccc(Oc2ccccc2)cc1)n1ccnc1 (protonated)
C[C@H](C(=O)[N-]c1ccc(Oc2ccccc2)cc1)n1ccnc1 (chirality)
C[C@H](C(=O)[N-]c1ccc(Oc2ccccc2)cc1)n1ccnc1 (3D coordinates assigned)
C[C@H](C(=O)[N-]c1ccc(Oc2ccccc2)cc1)n1ccnc1 (optimized conformer: 77.7670855869707 kcal/mol)

>  <smiles>  (32) 
CC(C(=O)Nc1ccc(Oc2ccccc2)cc1)n1ccnc1

>  <score_type>  (32) 
oracle

>  <origin>  (32) 
adgpu

>  <m_score__min__energy>  (32) 
-9.5899999999999999

>  <m_primary>  (32) 
energy

$$$$
32:0
     RDKit          3D

 48 51  0  0  0  0  0  0  0  0999 V2000
    2.0090   20.1450  -34.2440 C   0  0  0  0  0  0  0  0  0  0  0  0
    0.6330   20.3430  -33.6810 C   0  0  0  0  0  0  0  0  0  0  0  0
    0.2290   19.6460  -32.5330 C   0  0  0  0  0  0  0  0  0  0  0  0
   -1.0680   19.8020  -32.0340 C   0  0  0  0  0  0  0  0  0  0  0  0
   -1.9860   20.6380  -32.6890 C   0  0  0  0  0  0  0  0  0  0  0  0
   -3.3510   20.7990  -32.1410 C   0  0  0  0  0  0  0  0  0  0  0  0
   -4.4210   20.1580  -32.6530 N   0  0  0  0  0  0  0  0  0  0  0  0
   -5.4470   20.5050  -31.8450 C   0  0  0  0  0  0  0  0  0  0  0  0
   -6.8370   20.0260  -32.0560 C   0  0  0  0  0  0  0  0  0  0  0  0
   -7.9160   20.9260  -32.1600 C   0  0  0  0  0  0  0  0  0  0  0  0
   -9.2160   20.4500  -32.3590 C   0  0  0  0  0  0  0  0  0  0  0  0
   -9.4570   19.0780  -32.4530 C   0  0  0  0  0  0  0  0  0  0  0  0
   -8.3960   18.1750  -32.3460 C   0  0  0  0  0  0  0  0  0  0  0  0
   -7.0940   18.6440  -32.1480 C   0  0  0  0  0  0  0  0  0  0  0  0
   -5.0660   21.3370  -30.8510 N   0  0  0  0  0  0  0  0  0  0  0  0
   -3.7490   21.5370  -31.0360 C   0  0  0  0  0  0  0  0  0  0  0  0
   -2.9480   22.4830  -30.2290 C   0  0  0  0  0  0  0  0  0  0  0  0
   -1.5830   22.2520  -29.9930 C   0  0  0  0  0  0  0  0  0  0  0  0
   -0.8350   23.1560  -29.2340 C   0  0  0  0  0  0  0  0  0  0  0  0
   -1.4370   24.3100  -28.7170 C   0  0  0  0  0  0  0  0  0  0  0  0
   -0.5000   25.4370  -27.7400 S   0  0  0  0  0  0  0  0  0  0  0  0
   -1.0230   25.3220  -26.0450 C   0  0  0  0  0  0  0  0  0  0  0  0
   -0.7110   26.8390  -28.2390 O   0  0  0  0  0  0  0  0  0  0  0  0
    0.9630   25.1040  -27.8390 O   0  0  0  0  0  0  0  0  0  0  0  0
   -2.7940   24.5510  -28.9620 C   0  0  0  0  0  0  0  0  0  0  0  0
   -3.5440   23.6480  -29.7200 C   0  0  0  0  0  0  0  0  0  0  0  0
   -1.5760   21.3420  -33.8340 C   0  0  0  0  0  0  0  0  0  0  0  0
   -0.2800   21.1850  -34.3330 C   0  0  0  0  0  0  0  0  0  0  0  0
    2.7307   20.0411  -33.4204 H   0  0  0  0  0  0  0  0  0  0  0  0
    2.0248   19.2353  -34.8623 H   0  0  0  0  0  0  0  0  0  0  0  0
    2.2806   21.0133  -34.8623 H   0  0  0  0  0  0  0  0  0  0  0  0
    0.9351   18.9740  -32.0232 H   0  0  0  0  0  0  0  0  0  0  0  0
   -1.3709   19.2662  -31.1223 H   0  0  0  0  0  0  0  0  0  0  0  0
   -7.7351   22.0084  -32.0843 H   0  0  0  0  0  0  0  0  0  0  0  0
  -10.0523   21.1598  -32.4418 H   0  0  0  0  0  0  0  0  0  0  0  0
  -10.4809   18.7083  -32.6111 H   0  0  0  0  0  0  0  0  0  0  0  0
   -8.5855   17.0938  -32.4177 H   0  0  0  0  0  0  0  0  0  0  0  0
   -6.2633   17.9279  -32.0633 H   0  0  0  0  0  0  0  0  0  0  0  0
   -5.6620   21.7890  -30.1240 H   0  0  0  0  0  0  0  0  0  0  0  0
   -1.1002   21.3549  -30.4077 H   0  0  0  0  0  0  0  0  0  0  0  0
    0.2303   22.9605  -29.0419 H   0  0  0  0  0  0  0  0  0  0  0  0
   -0.1650   25.5107  -25.3829 H   0  0  0  0  0  0  0  0  0  0  0  0
   -1.8067   26.0693  -25.8516 H   0  0  0  0  0  0  0  0  0  0  0  0
   -1.4209   24.3149  -25.8516 H   0  0  0  0  0  0  0  0  0  0  0  0
   -3.2718   25.4549  -28.5562 H   0  0  0  0  0  0  0  0  0  0  0  0
   -4.6067   23.8508  -29.9190 H   0  0  0  0  0  0  0  0  0  0  0  0
   -2.2788   22.0202  -34.3402 H   0  0  0  0  0  0  0  0  0  0  0  0
    0.0256   21.7244  -35.2416 H   0  0  0  0  0  0  0  0  0  0  0  0
  1  2  1  0
  2  3  2  0
  3  4  1  0
  4  5  2  0
  5  6  1  0
  6  7  1  0
  7  8  2  0
  8  9  1  0
  9 10  2  0
 10 11  1  0
 11 12  2  0
 12 13  1  0
 13 14  2  0
  8 15  1  0
 15 16  1  0
 16 17  1  0
 17 18  2  0
 18 19  1  0
 19 20  2  0
 20 21  1  0
 21 22  1  0
 21 23  2  0
 21 24  2  0
 20 25  1  0
 25 26  2  0
  5 27  1  0
 27 28  2  0
 28  2  1  0
 16  6  2  0
 26 17  1  0
 14  9  1  0
  1 29  1  0
  1 30  1  0
  1 31  1  0
  3 32  1  0
  4 33  1  0
 10 34  1  0
 11 35  1  0
 12 36  1  0
 13 37  1  0
 14 38  1  0
 15 39  1  0
 18 40  1  0
 19 41  1  0
 22 42  1  0
 22 43  1  0
 22 44  1  0
 25 45  1  0
 26 46  1  0
 27 47  1  0
 28 48  1  0
M  END
>  <UniqueID>  (33) 
33

>  <SMILES>  (33) 
Cc1ccc(-c2nc(-c3ccccc3)[nH]c2-c2ccc(S(C)(=O)=O)cc2)cc1

>  <Energy>  (33) 
87.20086062001866

>  <Genealogy>  (33) 
Cc1ccc(-c2nc(-c3ccccc3)[nH]c2-c2ccc(S(C)(=O)=O)cc2)cc1 (3D coordinates assigned)
Cc1ccc(-c2nc(-c3ccccc3)[nH]c2-c2ccc(S(C)(=O)=O)cc2)cc1 (optimized conformer: 87.20086062001866 kcal/mol)

>  <smiles>  (33) 
Cc1ccc(-c2nc(-c3ccccc3)[nH]c2-c2ccc(S(C)(=O)=O)cc2)cc1

>  <score_type>  (33) 
oracle

>  <origin>  (33) 
adgpu

>  <m_score__min__energy>  (33) 
-8.75

>  <m_primary>  (33) 
energy

$$$$
33:0
     RDKit          3D

 42 44  0  0  0  0  0  0  0  0999 V2000
   -0.1170   19.0210  -29.3900 C   0  0  0  0  0  0  0  0  0  0  0  0
   -0.6510   20.4230  -29.3380 C   0  0  0  0  0  0  0  0  0  0  0  0
   -1.1300   20.9540  -28.1300 C   0  0  0  0  0  0  0  0  0  0  0  0
   -1.6550   22.2470  -28.0900 C   0  0  0  0  0  0  0  0  0  0  0  0
   -1.7220   23.0200  -29.2550 C   0  0  0  0  0  0  0  0  0  0  0  0
   -2.3690   24.6550  -29.1820 S   0  0  0  0  0  0  0  0  0  0  0  0
   -1.2380   25.6300  -29.3480 O   0  0  0  0  0  0  0  0  0  0  0  0
   -3.0400   24.9070  -27.8590 O   0  0  0  0  0  0  0  0  0  0  0  0
   -3.5170   24.8910  -30.4590 N   0  0  0  0  0  0  0  0  0  0  0  0
   -4.7360   24.1540  -30.6220 C   0  0  0  0  0  0  0  0  0  0  0  0
   -5.9830   24.7880  -30.7670 C   0  0  0  0  0  0  0  0  0  0  0  0
   -7.1460   24.0260  -30.9180 C   0  0  0  0  0  0  0  0  0  0  0  0
   -7.0790   22.6270  -30.9260 C   0  0  0  0  0  0  0  0  0  0  0  0
   -8.5420   21.6650  -31.1200 S   0  0  0  0  0  0  0  0  0  0  0  0
   -9.2550   22.0450  -32.3890 O   0  0  0  0  0  0  0  0  0  0  0  0
   -9.4530   21.9150  -29.9520 O   0  0  0  0  0  0  0  0  0  0  0  0
   -8.1390   19.9780  -31.1820 N   0  0  0  0  0  0  0  0  0  0  0  0
   -7.4350   19.4400  -32.1300 C   0  0  0  0  0  0  0  0  0  0  0  0
   -7.1470   18.0710  -32.0860 C   0  0  0  0  0  0  0  0  0  0  0  0
   -6.3820   17.4980  -33.1050 C   0  0  0  0  0  0  0  0  0  0  0  0
   -5.9120   18.2910  -34.1520 C   0  0  0  0  0  0  0  0  0  0  0  0
   -6.2140   19.6540  -34.1630 C   0  0  0  0  0  0  0  0  0  0  0  0
   -6.9610   20.1930  -33.1640 N   0  0  0  0  0  0  0  0  0  0  0  0
   -5.8390   21.9930  -30.7770 C   0  0  0  0  0  0  0  0  0  0  0  0
   -4.6750   22.7540  -30.6290 C   0  0  0  0  0  0  0  0  0  0  0  0
   -1.2660   22.4840  -30.4680 C   0  0  0  0  0  0  0  0  0  0  0  0
   -0.7370   21.1900  -30.5100 C   0  0  0  0  0  0  0  0  0  0  0  0
    0.0262   18.6450  -28.3662 H   0  0  0  0  0  0  0  0  0  0  0  0
   -0.8323   18.3757  -29.9209 H   0  0  0  0  0  0  0  0  0  0  0  0
    0.8464   19.0150  -29.9209 H   0  0  0  0  0  0  0  0  0  0  0  0
   -1.0916   20.3493  -27.2119 H   0  0  0  0  0  0  0  0  0  0  0  0
   -2.0180   22.6606  -27.1376 H   0  0  0  0  0  0  0  0  0  0  0  0
   -6.0438   25.8863  -30.7616 H   0  0  0  0  0  0  0  0  0  0  0  0
   -8.1183   24.5279  -31.0311 H   0  0  0  0  0  0  0  0  0  0  0  0
   -7.5196   17.4519  -31.2566 H   0  0  0  0  0  0  0  0  0  0  0  0
   -6.1506   16.4229  -33.0817 H   0  0  0  0  0  0  0  0  0  0  0  0
   -5.3106   17.8477  -34.9593 H   0  0  0  0  0  0  0  0  0  0  0  0
   -5.8471   20.2918  -34.9807 H   0  0  0  0  0  0  0  0  0  0  0  0
   -5.7806   20.8946  -30.7764 H   0  0  0  0  0  0  0  0  0  0  0  0
   -3.7039   22.2496  -30.5172 H   0  0  0  0  0  0  0  0  0  0  0  0
   -1.3245   23.0829  -31.3888 H   0  0  0  0  0  0  0  0  0  0  0  0
   -0.3870   20.7719  -31.4654 H   0  0  0  0  0  0  0  0  0  0  0  0
  1  2  1  0
  2  3  2  0
  3  4  1  0
  4  5  2  0
  5  6  1  0
  6  7  2  0
  6  8  2  0
  6  9  1  0
  9 10  1  0
 10 11  2  0
 11 12  1  0
 12 13  2  0
 13 14  1  0
 14 15  2  0
 14 16  2  0
 14 17  1  0
 17 18  2  3
 18 19  1  0
 19 20  2  0
 20 21  1  0
 21 22  2  0
 22 23  1  0
 13 24  1  0
 24 25  2  0
  5 26  1  0
 26 27  2  0
 27  2  1  0
 25 10  1  0
 23 18  1  0
  1 28  1  0
  1 29  1  0
  1 30  1  0
  3 31  1  0
  4 32  1  0
 11 33  1  0
 12 34  1  0
 19 35  1  0
 20 36  1  0
 21 37  1  0
 22 38  1  0
 24 39  1  0
 25 40  1  0
 26 41  1  0
 27 42  1  0
M  CHG  2   9  -1  23  -1
M  END
>  <UniqueID>  (34) 
34

>  <SMILES>  (34) 
Cc1ccc(S(=O)(=O)[N-]c2ccc(S(=O)(=O)N=c3cccc[n-]3)cc2)cc1

>  <Energy>  (34) 
50.57247323444339

>  <Genealogy>  (34) 
Cc1ccc(S(=O)(=O)[N-]c2ccc(S(=O)(=O)N=c3cccc[n-]3)cc2)cc1 (protonated)
Cc1ccc(S(=O)(=O)[N-]c2ccc(S(=O)(=O)N=c3cccc[n-]3)cc2)cc1 (3D coordinates assigned)
Cc1ccc(S(=O)(=O)[N-]c2ccc(S(=O)(=O)N=c3cccc[n-]3)cc2)cc1 (optimized conformer: 50.57247323444339 kcal/mol)

>  <smiles>  (34) 
Cc1ccc(S(=O)(=O)Nc2ccc(S(=O)(=O)N=c3cccc[nH]3)cc2)cc1

>  <score_type>  (34) 
oracle

>  <origin>  (34) 
adgpu

>  <m_score__min__energy>  (34) 
-11.07

>  <m_primary>  (34) 
energy

$$$$
34:0
     RDKit          3D

 57 61  0  0  1  0  0  0  0  0999 V2000
   -3.4220   24.7120  -26.3670 O   0  0  0  0  0  0  0  0  0  0  0  0
   -2.0110   25.1670  -26.3950 S   0  0  0  0  0  0  0  0  0  0  0  0
   -1.4600   25.3290  -27.8650 N   0  0  0  0  0  0  0  0  0  0  0  0
   -1.8990   24.3380  -28.8120 C   0  0  0  0  0  0  0  0  0  0  0  0
   -1.2330   23.1440  -28.9870 C   0  0  0  0  0  0  0  0  0  0  0  0
   -1.6790   22.1980  -29.9130 C   0  0  0  0  0  0  0  0  0  0  0  0
   -1.0090   21.0120  -30.0820 F   0  0  0  0  0  0  0  0  0  0  0  0
   -2.8070   22.4790  -30.6570 C   0  0  0  0  0  0  0  0  0  0  0  0
   -3.3040   21.5940  -31.5870 C   0  0  0  0  0  0  0  0  0  0  0  0
   -2.7060   20.4680  -31.7770 N   0  0  0  0  0  0  0  0  0  0  0  0
   -3.1560   19.4940  -32.7230 C   0  0  0  0  0  0  0  0  0  0  0  0
   -2.1860   19.0640  -33.6360 C   0  0  0  0  0  0  0  0  0  0  0  0
   -2.5070   18.1280  -34.5910 C   0  0  0  0  0  0  0  0  0  0  0  0
   -3.7850   17.6150  -34.6470 C   0  0  0  0  0  0  0  0  0  0  0  0
   -4.1810   16.6920  -35.5560 F   0  0  0  0  0  0  0  0  0  0  0  0
   -4.7270   18.0610  -33.7270 C   0  0  0  0  0  0  0  0  0  0  0  0
   -4.4240   19.0010  -32.7580 C   0  0  0  0  0  0  0  0  0  0  0  0
   -5.3450   19.4600  -31.8310 O   0  0  0  0  0  0  0  0  0  0  0  0
   -6.6860   19.0310  -31.9910 C   0  0  0  0  0  0  0  0  0  0  0  0
   -7.6450   20.1550  -32.2360 C   0  0  0  0  0  0  0  0  0  0  0  0
   -7.3800   21.1750  -31.1190 C   0  0  0  0  0  0  0  0  0  0  0  0
   -8.2660   22.3810  -31.3310 C   0  0  0  0  0  0  0  0  0  0  0  0
   -9.5890   22.0050  -31.3620 O   0  0  0  0  0  0  0  0  0  0  0  0
   -9.8950   21.0500  -32.3130 C   0  0  0  0  0  0  0  0  0  0  0  0
   -9.0940   19.7660  -32.1050 C   0  0  0  0  0  0  0  0  0  0  0  0
   -4.3990   21.8710  -32.3060 N   0  0  0  0  0  0  0  0  0  0  0  0
   -5.0720   23.0410  -32.1500 C   0  0  0  0  0  0  0  0  0  0  0  0
   -4.6130   23.9360  -31.2430 N   0  0  0  0  0  0  0  0  0  0  0  0
   -3.5060   23.6710  -30.5080 C   0  0  0  0  0  0  0  0  0  0  0  0
   -3.0240   24.5710  -29.5800 C   0  0  0  0  0  0  0  0  0  0  0  0
   -0.9080   24.2950  -25.3120 C   0  0  0  0  0  0  0  0  0  0  0  0
   -0.5170   25.6510  -24.7210 C   0  0  0  0  0  0  0  0  0  0  0  0
   -1.6190   26.5040  -25.3220 C   0  0  0  0  0  0  0  0  0  0  0  0
   -0.3353   22.9325  -28.3875 H   0  0  0  0  0  0  0  0  0  0  0  0
   -1.1667   19.4749  -33.5896 H   0  0  0  0  0  0  0  0  0  0  0  0
   -1.7453   17.7894  -35.3088 H   0  0  0  0  0  0  0  0  0  0  0  0
   -5.7475   17.6529  -33.7709 H   0  0  0  0  0  0  0  0  0  0  0  0
   -6.7316   18.3410  -32.8465 H   0  0  0  0  0  0  0  0  0  0  0  0
   -6.9865   18.5471  -31.0500 H   0  0  0  0  0  0  0  0  0  0  0  0
   -7.4883   20.5168  -33.2629 H   0  0  0  0  0  0  0  0  0  0  0  0
   -7.6048   20.7196  -30.1433 H   0  0  0  0  0  0  0  0  0  0  0  0
   -6.3240   21.4823  -31.1403 H   0  0  0  0  0  0  0  0  0  0  0  0
   -8.1110   23.0938  -30.5076 H   0  0  0  0  0  0  0  0  0  0  0  0
   -8.0060   22.8502  -32.2913 H   0  0  0  0  0  0  0  0  0  0  0  0
  -10.9677   20.8149  -32.2493 H   0  0  0  0  0  0  0  0  0  0  0  0
   -9.6378   21.4573  -33.3019 H   0  0  0  0  0  0  0  0  0  0  0  0
   -9.2895   19.3513  -31.1051 H   0  0  0  0  0  0  0  0  0  0  0  0
   -9.3720   18.9944  -32.8381 H   0  0  0  0  0  0  0  0  0  0  0  0
   -4.7850   21.2180  -33.0060 H   0  0  0  0  0  0  0  0  0  0  0  0
   -5.9701   23.2566  -32.7474 H   0  0  0  0  0  0  0  0  0  0  0  0
   -3.5618   25.5210  -29.4447 H   0  0  0  0  0  0  0  0  0  0  0  0
   -1.4037   23.6130  -24.6054 H   0  0  0  0  0  0  0  0  0  0  0  0
   -0.1531   23.5946  -25.6988 H   0  0  0  0  0  0  0  0  0  0  0  0
   -0.5530   25.6467  -23.6216 H   0  0  0  0  0  0  0  0  0  0  0  0
    0.5085   25.9827  -24.9406 H   0  0  0  0  0  0  0  0  0  0  0  0
   -2.4209   26.7721  -24.6184 H   0  0  0  0  0  0  0  0  0  0  0  0
   -1.4087   27.5084  -25.7182 H   0  0  0  0  0  0  0  0  0  0  0  0
  1  2  2  0
  2  3  2  0
  3  4  1  0
  4  5  2  0
  5  6  1  0
  6  7  1  0
  6  8  2  0
  8  9  1  0
  9 10  2  0
 10 11  1  0
 11 12  2  0
 12 13  1  0
 13 14  2  0
 14 15  1  0
 14 16  1  0
 16 17  2  0
 17 18  1  0
 18 19  1  0
 19 20  1  0
 20 21  1  0
 21 22  1  0
 22 23  1  0
 23 24  1  0
 24 25  1  0
  9 26  1  0
 26 27  1  0
 27 28  2  0
 28 29  1  0
 29 30  2  0
  2 31  1  0
 31 32  1  0
 32 33  1  0
 33  2  1  0
 30  4  1  0
 29  8  1  0
 17 11  1  0
 25 20  1  0
  5 34  1  0
 12 35  1  0
 13 36  1  0
 16 37  1  0
 19 38  1  0
 19 39  1  0
 20 40  1  0
 21 41  1  0
 21 42  1  0
 22 43  1  0
 22 44  1  0
 24 45  1  0
 24 46  1  0
 25 47  1  0
 25 48  1  0
 26 49  1  0
 27 50  1  0
 30 51  1  0
 31 52  1  0
 31 53  1  0
 32 54  1  0
 32 55  1  0
 33 56  1  0
 33 57  1  0
M  END
>  <smiles>  (35) 
O=S1(=Nc2cc(F)c3c(=Nc4ccc(F)cc4OCC4CCOCC4)[nH]cnc3c2)CCC1

>  <score_type>  (35) 
oracle

>  <origin>  (35) 
adgpu

>  <m_score__min__energy>  (35) 
-9.2899999999999991

>  <m_primary>  (35) 
energy

$$$$
35:0
     RDKit          3D

 43 46  0  0  0  0  0  0  0  0999 V2000
   -4.2580   22.6630  -33.0000 O   0  0  0  0  0  0  0  0  0  0  0  0
   -5.0190   22.9820  -31.7440 S   0  0  0  0  0  0  0  0  0  0  0  0
   -5.1030   24.4750  -31.5930 O   0  0  0  0  0  0  0  0  0  0  0  0
   -4.1710   22.3190  -30.3850 N   0  0  0  0  0  0  0  0  0  0  0  0
   -3.4900   23.0890  -29.3840 C   0  0  0  0  0  0  0  0  0  0  0  0
   -3.5700   22.7790  -28.0210 C   0  0  0  0  0  0  0  0  0  0  0  0
   -2.9050   23.5650  -27.0780 C   0  0  0  0  0  0  0  0  0  0  0  0
   -2.1410   24.6850  -27.4690 C   0  0  0  0  0  0  0  0  0  0  0  0
   -1.4750   25.4940  -26.4630 N   0  0  0  0  0  0  0  0  0  0  0  0
   -1.0770   26.8830  -26.6380 C   0  0  0  0  0  0  0  0  0  0  0  0
   -0.6810   27.3840  -25.2560 C   0  0  0  0  0  0  0  0  0  0  0  0
   -0.4090   26.1330  -24.4330 C   0  0  0  0  0  0  0  0  0  0  0  0
   -1.2010   25.0250  -25.1090 C   0  0  0  0  0  0  0  0  0  0  0  0
   -2.0500   24.9770  -28.8540 C   0  0  0  0  0  0  0  0  0  0  0  0
   -1.2910   26.0390  -29.3260 O   0  0  0  0  0  0  0  0  0  0  0  0
   -2.7220   24.1830  -29.7900 C   0  0  0  0  0  0  0  0  0  0  0  0
   -6.6570   22.3230  -31.8140 C   0  0  0  0  0  0  0  0  0  0  0  0
   -7.7580   23.1820  -31.6720 C   0  0  0  0  0  0  0  0  0  0  0  0
   -9.0610   22.6820  -31.7450 C   0  0  0  0  0  0  0  0  0  0  0  0
   -9.2830   21.3210  -31.9580 C   0  0  0  0  0  0  0  0  0  0  0  0
   -8.1970   20.4480  -32.0960 C   0  0  0  0  0  0  0  0  0  0  0  0
   -8.3950   19.0760  -32.3060 C   0  0  0  0  0  0  0  0  0  0  0  0
   -7.2950   18.2260  -32.4340 C   0  0  0  0  0  0  0  0  0  0  0  0
   -6.0050   18.7560  -32.3530 C   0  0  0  0  0  0  0  0  0  0  0  0
   -5.8260   20.0880  -32.1500 N   0  0  0  0  0  0  0  0  0  0  0  0
   -6.8750   20.9480  -32.0210 C   0  0  0  0  0  0  0  0  0  0  0  0
   -4.1601   21.9112  -27.6912 H   0  0  0  0  0  0  0  0  0  0  0  0
   -2.9780   23.3066  -26.0113 H   0  0  0  0  0  0  0  0  0  0  0  0
   -0.2234   26.9518  -27.3284 H   0  0  0  0  0  0  0  0  0  0  0  0
   -1.8924   27.4846  -27.0660 H   0  0  0  0  0  0  0  0  0  0  0  0
    0.2229   28.0078  -25.3176 H   0  0  0  0  0  0  0  0  0  0  0  0
   -1.4690   28.0056  -24.8058 H   0  0  0  0  0  0  0  0  0  0  0  0
    0.6651   25.8958  -24.4369 H   0  0  0  0  0  0  0  0  0  0  0  0
   -0.7035   26.2632  -23.3812 H   0  0  0  0  0  0  0  0  0  0  0  0
   -0.6112   24.0969  -25.1382 H   0  0  0  0  0  0  0  0  0  0  0  0
   -2.1304   24.8042  -24.5636 H   0  0  0  0  0  0  0  0  0  0  0  0
   -2.6444   24.4237  -30.8605 H   0  0  0  0  0  0  0  0  0  0  0  0
   -7.5941   24.2564  -31.5021 H   0  0  0  0  0  0  0  0  0  0  0  0
   -9.9161   23.3650  -31.6340 H   0  0  0  0  0  0  0  0  0  0  0  0
  -10.3109   20.9340  -32.0175 H   0  0  0  0  0  0  0  0  0  0  0  0
   -9.4153   18.6700  -32.3698 H   0  0  0  0  0  0  0  0  0  0  0  0
   -7.4427   17.1483  -32.5972 H   0  0  0  0  0  0  0  0  0  0  0  0
   -5.1323   18.0940  -32.4537 H   0  0  0  0  0  0  0  0  0  0  0  0
  1  2  2  0
  2  3  2  0
  2  4  1  0
  4  5  1  0
  5  6  2  0
  6  7  1  0
  7  8  2  0
  8  9  1  0
  9 10  1  0
 10 11  1  0
 11 12  1  0
 12 13  1  0
  8 14  1  0
 14 15  1  0
 14 16  2  0
  2 17  1  0
 17 18  2  0
 18 19  1  0
 19 20  2  0
 20 21  1  0
 21 22  2  0
 22 23  1  0
 23 24  2  0
 24 25  1  0
 25 26  2  0
 16  5  1  0
 26 17  1  0
 13  9  1  0
 26 21  1  0
  6 27  1  0
  7 28  1  0
 10 29  1  0
 10 30  1  0
 11 31  1  0
 11 32  1  0
 12 33  1  0
 12 34  1  0
 13 35  1  0
 13 36  1  0
 16 37  1  0
 18 38  1  0
 19 39  1  0
 20 40  1  0
 22 41  1  0
 23 42  1  0
 24 43  1  0
M  CHG  2   4  -1  15  -1
M  END
>  <UniqueID>  (36) 
35

>  <SMILES>  (36) 
O=S(=O)([N-]c1ccc(N2CCCC2)c([O-])c1)c1cccc2cccnc12

>  <Energy>  (36) 
57.61930768731308

>  <Genealogy>  (36) 
O=S(=O)([N-]c1ccc(N2CCCC2)c([O-])c1)c1cccc2cccnc12 (protonated)
O=S(=O)([N-]c1ccc(N2CCCC2)c([O-])c1)c1cccc2cccnc12 (3D coordinates assigned)
O=S(=O)([N-]c1ccc(N2CCCC2)c([O-])c1)c1cccc2cccnc12 (nonaromatic ring conformer: 57.61930768731308 kcal/mol)

>  <smiles>  (36) 
O=S(=O)(Nc1ccc(N2CCCC2)c(O)c1)c1cccc2cccnc12

>  <score_type>  (36) 
oracle

>  <origin>  (36) 
adgpu

>  <m_score__min__energy>  (36) 
-13.01

>  <m_primary>  (36) 
energy

$$$$
36:0
     RDKit          3D

 48 50  0  0  0  0  0  0  0  0999 V2000
   -8.2090   19.6370  -32.8080 C   0  0  0  0  0  0  0  0  0  0  0  0
   -7.6780   20.8420  -32.0900 C   0  0  0  0  0  0  0  0  0  0  0  0
   -8.3110   21.3100  -30.9290 C   0  0  0  0  0  0  0  0  0  0  0  0
   -7.8000   22.4140  -30.2440 C   0  0  0  0  0  0  0  0  0  0  0  0
   -6.6510   23.0720  -30.7160 C   0  0  0  0  0  0  0  0  0  0  0  0
   -6.1200   24.2270  -30.0510 N   0  0  0  0  0  0  0  0  0  0  0  0
   -5.1630   25.1440  -30.6020 C   0  0  0  0  0  0  0  0  0  0  0  0
   -5.5760   26.1570  -31.2230 O   0  0  0  0  0  0  0  0  0  0  0  0
   -3.7500   24.9380  -30.4670 N   0  0  0  0  0  0  0  0  0  0  0  0
   -3.1140   24.1550  -29.4460 C   0  0  0  0  0  0  0  0  0  0  0  0
   -3.6670   22.9450  -29.0150 C   0  0  0  0  0  0  0  0  0  0  0  0
   -3.0140   22.1780  -28.0570 C   0  0  0  0  0  0  0  0  0  0  0  0
   -1.8100   22.6140  -27.4790 C   0  0  0  0  0  0  0  0  0  0  0  0
   -1.1280   21.6900  -26.5050 C   0  0  0  0  0  0  0  0  0  0  0  0
   -1.2610   23.8690  -27.8710 C   0  0  0  0  0  0  0  0  0  0  0  0
    0.2710   24.5030  -27.1980 S   0  0  0  0  0  0  0  0  0  0  0  0
    0.8080   23.5740  -26.1460 O   0  0  0  0  0  0  0  0  0  0  0  0
    1.2940   24.5360  -28.2980 O   0  0  0  0  0  0  0  0  0  0  0  0
    0.1480   26.1170  -26.5190 N   0  0  0  0  0  0  0  0  0  0  0  0
    0.8280   26.2820  -25.2230 C   0  0  0  0  0  0  0  0  0  0  0  0
   -0.0920   25.9420  -24.0430 C   0  0  0  0  0  0  0  0  0  0  0  0
   -1.2750   26.7100  -24.1040 O   0  0  0  0  0  0  0  0  0  0  0  0
   -2.0050   26.3460  -25.2560 C   0  0  0  0  0  0  0  0  0  0  0  0
   -1.2190   26.6740  -26.5360 C   0  0  0  0  0  0  0  0  0  0  0  0
   -1.9270   24.6200  -28.8680 C   0  0  0  0  0  0  0  0  0  0  0  0
   -1.4090   25.8340  -29.3050 O   0  0  0  0  0  0  0  0  0  0  0  0
   -5.9920   22.5740  -31.8450 C   0  0  0  0  0  0  0  0  0  0  0  0
   -6.5020   21.4670  -32.5310 C   0  0  0  0  0  0  0  0  0  0  0  0
   -8.5390   18.8881  -32.0730 H   0  0  0  0  0  0  0  0  0  0  0  0
   -9.0606   19.9317  -33.4388 H   0  0  0  0  0  0  0  0  0  0  0  0
   -7.4168   19.2074  -33.4388 H   0  0  0  0  0  0  0  0  0  0  0  0
   -9.2143   20.8048  -30.5565 H   0  0  0  0  0  0  0  0  0  0  0  0
   -8.2988   22.7706  -29.3307 H   0  0  0  0  0  0  0  0  0  0  0  0
   -4.6226   22.5988  -29.4357 H   0  0  0  0  0  0  0  0  0  0  0  0
   -3.4464   21.2153  -27.7469 H   0  0  0  0  0  0  0  0  0  0  0  0
   -1.3603   22.0047  -25.4769 H   0  0  0  0  0  0  0  0  0  0  0  0
   -1.4854   20.6618  -26.6633 H   0  0  0  0  0  0  0  0  0  0  0  0
   -0.0401   21.7285  -26.6633 H   0  0  0  0  0  0  0  0  0  0  0  0
    1.7032   25.6163  -25.1940 H   0  0  0  0  0  0  0  0  0  0  0  0
    1.1263   27.3365  -25.1280 H   0  0  0  0  0  0  0  0  0  0  0  0
   -0.3511   24.8736  -24.0815 H   0  0  0  0  0  0  0  0  0  0  0  0
    0.4333   26.1700  -23.1038 H   0  0  0  0  0  0  0  0  0  0  0  0
   -2.2080   25.2653  -25.2261 H   0  0  0  0  0  0  0  0  0  0  0  0
   -2.9458   26.9160  -25.2680 H   0  0  0  0  0  0  0  0  0  0  0  0
   -1.7593   26.2564  -27.3984 H   0  0  0  0  0  0  0  0  0  0  0  0
   -1.1328   27.7685  -26.6038 H   0  0  0  0  0  0  0  0  0  0  0  0
   -5.0673   23.0559  -32.1953 H   0  0  0  0  0  0  0  0  0  0  0  0
   -5.9789   21.0848  -33.4200 H   0  0  0  0  0  0  0  0  0  0  0  0
  1  2  1  0
  2  3  2  0
  3  4  1  0
  4  5  2  0
  5  6  1  0
  6  7  1  0
  7  8  2  0
  7  9  1  0
  9 10  1  0
 10 11  2  0
 11 12  1  0
 12 13  2  0
 13 14  1  0
 13 15  1  0
 15 16  1  0
 16 17  2  0
 16 18  2  0
 16 19  1  0
 19 20  1  0
 20 21  1  0
 21 22  1  0
 22 23  1  0
 23 24  1  0
 15 25  2  0
 25 26  1  0
  5 27  1  0
 27 28  2  0
 28  2  1  0
 25 10  1  0
 24 19  1  0
  1 29  1  0
  1 30  1  0
  1 31  1  0
  3 32  1  0
  4 33  1  0
 11 34  1  0
 12 35  1  0
 14 36  1  0
 14 37  1  0
 14 38  1  0
 20 39  1  0
 20 40  1  0
 21 41  1  0
 21 42  1  0
 23 43  1  0
 23 44  1  0
 24 45  1  0
 24 46  1  0
 27 47  1  0
 28 48  1  0
M  CHG  3   6  -1   9  -1  26  -1
M  END
>  <UniqueID>  (37) 
36

>  <SMILES>  (37) 
Cc1ccc([N-]C(=O)[N-]c2ccc(C)c(S(=O)(=O)N3CCOCC3)c2[O-])cc1

>  <Energy>  (37) 
66.13243623011564

>  <Genealogy>  (37) 
Cc1ccc([N-]C(=O)[N-]c2ccc(C)c(S(=O)(=O)N3CCOCC3)c2[O-])cc1 (protonated)
Cc1ccc([N-]C(=O)[N-]c2ccc(C)c(S(=O)(=O)N3CCOCC3)c2[O-])cc1 (3D coordinates assigned)
Cc1ccc([N-]C(=O)[N-]c2ccc(C)c(S(=O)(=O)N3CCOCC3)c2[O-])cc1 (nonaromatic ring conformer: 66.13243623011564 kcal/mol)

>  <smiles>  (37) 
Cc1ccc(NC(=O)Nc2ccc(C)c(S(=O)(=O)N3CCOCC3)c2O)cc1

>  <score_type>  (37) 
oracle

>  <origin>  (37) 
adgpu

>  <m_score__min__energy>  (37) 
-15.140000000000001

>  <m_primary>  (37) 
energy

$$$$
37:0
     RDKit          3D

 56 59  0  0  0  0  0  0  0  0999 V2000
   -1.7010   25.4850  -28.9390 O   0  0  0  0  0  0  0  0  0  0  0  0
   -2.4400   24.5910  -29.4290 C   0  0  0  0  0  0  0  0  0  0  0  0
   -3.4830   24.9270  -30.3510 N   0  0  0  0  0  0  0  0  0  0  0  0
   -4.7380   24.2460  -30.5090 C   0  0  0  0  0  0  0  0  0  0  0  0
   -5.9300   24.7360  -29.9450 C   0  0  0  0  0  0  0  0  0  0  0  0
   -7.1400   24.0780  -30.1790 C   0  0  0  0  0  0  0  0  0  0  0  0
   -7.1750   22.9360  -30.9840 C   0  0  0  0  0  0  0  0  0  0  0  0
   -5.9970   22.4550  -31.5720 C   0  0  0  0  0  0  0  0  0  0  0  0
   -6.0340   21.0060  -32.5760 S   0  0  0  0  0  0  0  0  0  0  0  0
   -7.2480   21.0650  -33.4590 O   0  0  0  0  0  0  0  0  0  0  0  0
   -4.8260   21.0190  -33.4710 O   0  0  0  0  0  0  0  0  0  0  0  0
   -6.0520   19.5070  -31.6630 N   0  0  0  0  0  0  0  0  0  0  0  0
   -7.4210   19.0620  -31.3200 C   0  0  0  0  0  0  0  0  0  0  0  0
   -8.0410   18.1460  -32.3840 C   0  0  0  0  0  0  0  0  0  0  0  0
   -7.1790   17.0730  -32.6860 O   0  0  0  0  0  0  0  0  0  0  0  0
   -6.0020   17.5780  -33.2740 C   0  0  0  0  0  0  0  0  0  0  0  0
   -5.2220   18.4440  -32.2770 C   0  0  0  0  0  0  0  0  0  0  0  0
   -4.7810   23.1080  -31.3200 C   0  0  0  0  0  0  0  0  0  0  0  0
   -2.3120   23.2020  -28.9690 C   0  0  0  0  0  0  0  0  0  0  0  0
   -2.6710   22.9330  -27.6390 C   0  0  0  0  0  0  0  0  0  0  0  0
   -2.5170   21.6520  -27.1050 C   0  0  0  0  0  0  0  0  0  0  0  0
   -2.0020   20.6260  -27.8930 C   0  0  0  0  0  0  0  0  0  0  0  0
   -1.6570   20.8710  -29.2210 C   0  0  0  0  0  0  0  0  0  0  0  0
   -1.8250   22.1400  -29.7900 C   0  0  0  0  0  0  0  0  0  0  0  0
   -1.5070   22.2510  -31.1570 O   0  0  0  0  0  0  0  0  0  0  0  0
   -0.4880   21.5530  -31.8640 C   0  0  0  0  0  0  0  0  0  0  0  0
   -1.0880   20.3180  -32.4820 C   0  0  0  0  0  0  0  0  0  0  0  0
   -2.0020   20.4530  -33.5420 C   0  0  0  0  0  0  0  0  0  0  0  0
   -2.5340   19.3230  -34.1670 C   0  0  0  0  0  0  0  0  0  0  0  0
   -2.1560   18.0460  -33.7460 C   0  0  0  0  0  0  0  0  0  0  0  0
   -2.8230   16.6290  -34.5370 Cl  0  0  0  0  0  0  0  0  0  0  0  0
   -1.2360   17.8980  -32.7030 C   0  0  0  0  0  0  0  0  0  0  0  0
   -0.6930   19.0250  -32.0720 C   0  0  0  0  0  0  0  0  0  0  0  0
    0.4910   18.7780  -30.7930 Cl  0  0  0  0  0  0  0  0  0  0  0  0
   -5.9093   25.6396  -29.3181 H   0  0  0  0  0  0  0  0  0  0  0  0
   -8.0679   24.4599  -29.7283 H   0  0  0  0  0  0  0  0  0  0  0  0
   -8.1279   22.4142  -31.1563 H   0  0  0  0  0  0  0  0  0  0  0  0
   -5.5870   19.7550  -30.7560 H   0  0  0  0  0  0  0  0  0  0  0  0
   -7.3826   18.5149  -30.3665 H   0  0  0  0  0  0  0  0  0  0  0  0
   -8.0511   19.9612  -31.2540 H   0  0  0  0  0  0  0  0  0  0  0  0
   -8.9938   17.7473  -32.0055 H   0  0  0  0  0  0  0  0  0  0  0  0
   -8.2074   18.7324  -33.2997 H   0  0  0  0  0  0  0  0  0  0  0  0
   -5.3690   16.7369  -33.5931 H   0  0  0  0  0  0  0  0  0  0  0  0
   -6.2789   18.1991  -34.1386 H   0  0  0  0  0  0  0  0  0  0  0  0
   -4.8344   17.7957  -31.4774 H   0  0  0  0  0  0  0  0  0  0  0  0
   -4.4115   18.9381  -32.8329 H   0  0  0  0  0  0  0  0  0  0  0  0
   -3.8525   22.7208  -31.7648 H   0  0  0  0  0  0  0  0  0  0  0  0
   -3.0777   23.7394  -27.0111 H   0  0  0  0  0  0  0  0  0  0  0  0
   -2.8026   21.4533  -26.0615 H   0  0  0  0  0  0  0  0  0  0  0  0
   -1.8673   19.6209  -27.4669 H   0  0  0  0  0  0  0  0  0  0  0  0
   -1.2459   20.0542  -29.8325 H   0  0  0  0  0  0  0  0  0  0  0  0
   -0.0762   22.1991  -32.6533 H   0  0  0  0  0  0  0  0  0  0  0  0
    0.3211   21.2714  -31.1740 H   0  0  0  0  0  0  0  0  0  0  0  0
   -2.3002   21.4559  -33.8814 H   0  0  0  0  0  0  0  0  0  0  0  0
   -3.2520   19.4389  -34.9923 H   0  0  0  0  0  0  0  0  0  0  0  0
   -0.9370   16.8911  -32.3762 H   0  0  0  0  0  0  0  0  0  0  0  0
  1  2  2  0
  2  3  1  0
  3  4  1  0
  4  5  2  0
  5  6  1  0
  6  7  2  0
  7  8  1  0
  8  9  1  0
  9 10  2  0
  9 11  2  0
  9 12  1  0
 12 13  1  0
 13 14  1  0
 14 15  1  0
 15 16  1  0
 16 17  1  0
  8 18  2  0
  2 19  1  0
 19 20  2  0
 20 21  1  0
 21 22  2  0
 22 23  1  0
 23 24  2  0
 24 25  1  0
 25 26  1  0
 26 27  1  0
 27 28  2  0
 28 29  1  0
 29 30  2  0
 30 31  1  0
 30 32  1  0
 32 33  2  0
 33 34  1  0
 18  4  1  0
 24 19  1  0
 33 27  1  0
 17 12  1  0
  5 35  1  0
  6 36  1  0
  7 37  1  0
 12 38  1  0
 13 39  1  0
 13 40  1  0
 14 41  1  0
 14 42  1  0
 16 43  1  0
 16 44  1  0
 17 45  1  0
 17 46  1  0
 18 47  1  0
 20 48  1  0
 21 49  1  0
 22 50  1  0
 23 51  1  0
 26 52  1  0
 26 53  1  0
 28 54  1  0
 29 55  1  0
 32 56  1  0
M  CHG  2   3  -1  12   1
M  END
>  <UniqueID>  (38) 
37

>  <SMILES>  (38) 
O=C([N-]c1cccc(S(=O)(=O)[NH+]2CCOCC2)c1)c1ccccc1OCc1ccc(Cl)cc1Cl

>  <Energy>  (38) 
80.3301124393351

>  <Genealogy>  (38) 
O=C([N-]c1cccc(S(=O)(=O)[NH+]2CCOCC2)c1)c1ccccc1OCc1ccc(Cl)cc1Cl (protonated)
O=C([N-]c1cccc(S(=O)(=O)[NH+]2CCOCC2)c1)c1ccccc1OCc1ccc(Cl)cc1Cl (3D coordinates assigned)
O=C([N-]c1cccc(S(=O)(=O)[NH+]2CCOCC2)c1)c1ccccc1OCc1ccc(Cl)cc1Cl (nonaromatic ring conformer: 80.3301124393351 kcal/mol)

>  <smiles>  (38) 
O=C(Nc1cccc(S(=O)(=O)N2CCOCC2)c1)c1ccccc1OCc1ccc(Cl)cc1Cl

>  <score_type>  (38) 
oracle

>  <origin>  (38) 
adgpu

>  <m_score__min__energy>  (38) 
-12.19

>  <m_primary>  (38) 
energy

$$$$
38:0
     RDKit          3D

 34 35  0  0  0  0  0  0  0  0999 V2000
   -3.2690   18.2680  -34.1940 C   0  0  0  0  0  0  0  0  0  0  0  0
   -4.6510   18.6060  -33.7090 C   0  0  0  0  0  0  0  0  0  0  0  0
   -5.6680   17.6380  -33.7630 C   0  0  0  0  0  0  0  0  0  0  0  0
   -6.9570   17.9390  -33.3140 C   0  0  0  0  0  0  0  0  0  0  0  0
   -7.2490   19.2120  -32.8100 C   0  0  0  0  0  0  0  0  0  0  0  0
   -8.8780   19.5820  -32.2510 S   0  0  0  0  0  0  0  0  0  0  0  0
   -9.8590   18.7380  -33.0120 O   0  0  0  0  0  0  0  0  0  0  0  0
   -9.0020   19.2790  -30.7820 O   0  0  0  0  0  0  0  0  0  0  0  0
   -9.2350   21.2600  -32.5250 N   0  0  0  0  0  0  0  0  0  0  0  0
   -9.2560   21.9790  -31.2540 C   0  0  0  0  0  0  0  0  0  0  0  0
   -7.9300   22.6500  -31.0460 C   0  0  0  0  0  0  0  0  0  0  0  0
   -7.3220   22.6280  -29.7820 C   0  0  0  0  0  0  0  0  0  0  0  0
   -6.0700   23.2210  -29.5910 C   0  0  0  0  0  0  0  0  0  0  0  0
   -5.4010   23.8360  -30.6640 C   0  0  0  0  0  0  0  0  0  0  0  0
   -4.0760   24.4620  -30.4580 C   0  0  0  0  0  0  0  0  0  0  0  0
   -3.8650   25.6480  -30.8240 O   0  0  0  0  0  0  0  0  0  0  0  0
   -3.0460   23.7480  -29.8560 O   0  0  0  0  0  0  0  0  0  0  0  0
   -6.0080   23.8400  -31.9320 C   0  0  0  0  0  0  0  0  0  0  0  0
   -7.2600   23.2470  -32.1220 C   0  0  0  0  0  0  0  0  0  0  0  0
   -6.2390   20.1800  -32.7470 C   0  0  0  0  0  0  0  0  0  0  0  0
   -4.9440   19.8860  -33.1930 C   0  0  0  0  0  0  0  0  0  0  0  0
   -3.6100   21.2590  -33.0820 Br  0  0  0  0  0  0  0  0  0  0  0  0
   -2.6068   18.1061  -33.3307 H   0  0  0  0  0  0  0  0  0  0  0  0
   -3.3078   17.3529  -34.8031 H   0  0  0  0  0  0  0  0  0  0  0  0
   -2.8810   19.0977  -34.8031 H   0  0  0  0  0  0  0  0  0  0  0  0
   -5.4483   16.6365  -34.1613 H   0  0  0  0  0  0  0  0  0  0  0  0
   -7.7450   17.1727  -33.3568 H   0  0  0  0  0  0  0  0  0  0  0  0
  -10.0531   22.7368  -31.2729 H   0  0  0  0  0  0  0  0  0  0  0  0
   -9.4462   21.2727  -30.4324 H   0  0  0  0  0  0  0  0  0  0  0  0
   -7.8323   22.1421  -28.9373 H   0  0  0  0  0  0  0  0  0  0  0  0
   -5.6052   23.2062  -28.5941 H   0  0  0  0  0  0  0  0  0  0  0  0
   -5.4939   24.3134  -32.7815 H   0  0  0  0  0  0  0  0  0  0  0  0
   -7.7210   23.2492  -33.1207 H   0  0  0  0  0  0  0  0  0  0  0  0
   -6.4642   21.1786  -32.3443 H   0  0  0  0  0  0  0  0  0  0  0  0
  1  2  1  0
  2  3  2  0
  3  4  1  0
  4  5  2  0
  5  6  1  0
  6  7  2  0
  6  8  2  0
  6  9  1  0
  9 10  1  0
 10 11  1  0
 11 12  2  0
 12 13  1  0
 13 14  2  0
 14 15  1  0
 15 16  2  0
 15 17  1  0
 14 18  1  0
 18 19  2  0
  5 20  1  0
 20 21  2  0
 21 22  1  0
 21  2  1  0
 19 11  1  0
  1 23  1  0
  1 24  1  0
  1 25  1  0
  3 26  1  0
  4 27  1  0
 10 28  1  0
 10 29  1  0
 12 30  1  0
 13 31  1  0
 18 32  1  0
 19 33  1  0
 20 34  1  0
M  CHG  2   9  -1  17  -1
M  END
>  <UniqueID>  (39) 
38

>  <SMILES>  (39) 
Cc1ccc(S(=O)(=O)[N-]Cc2ccc(C(=O)[O-])cc2)cc1Br

>  <Energy>  (39) 
33.022845413186225

>  <Genealogy>  (39) 
Cc1ccc(S(=O)(=O)[N-]Cc2ccc(C(=O)[O-])cc2)cc1Br (protonated)
Cc1ccc(S(=O)(=O)[N-]Cc2ccc(C(=O)[O-])cc2)cc1Br (3D coordinates assigned)
Cc1ccc(S(=O)(=O)[N-]Cc2ccc(C(=O)[O-])cc2)cc1Br (optimized conformer: 33.022845413186225 kcal/mol)

>  <smiles>  (39) 
Cc1ccc(S(=O)(=O)NCc2ccc(C(=O)O)cc2)cc1Br

>  <score_type>  (39) 
oracle

>  <origin>  (39) 
adgpu

>  <m_score__min__energy>  (39) 
-10.76

>  <m_primary>  (39) 
energy

$$$$
39:0
     RDKit          3D

 50 52  0  0  0  0  0  0  0  0999 V2000
    0.7370   27.7890  -23.8740 C   0  0  0  0  0  0  0  0  0  0  0  0
   -0.1710   26.6040  -23.8460 C   0  0  0  0  0  0  0  0  0  0  0  0
   -1.3320   26.7200  -23.3710 O   0  0  0  0  0  0  0  0  0  0  0  0
    0.2640   25.3570  -24.4040 N   0  0  0  0  0  0  0  0  0  0  0  0
   -0.5570   24.1470  -24.3800 C   0  0  0  0  0  0  0  0  0  0  0  0
   -0.1090   23.1400  -25.4480 C   0  0  0  0  0  0  0  0  0  0  0  0
    1.1390   23.5430  -26.1050 N   0  0  0  0  0  0  0  0  0  0  0  0
    0.8610   24.6360  -27.4340 S   0  0  0  0  0  0  0  0  0  0  0  0
    1.9590   24.5280  -28.4560 O   0  0  0  0  0  0  0  0  0  0  0  0
    0.8300   26.0440  -26.9120 O   0  0  0  0  0  0  0  0  0  0  0  0
   -0.6990   24.2710  -28.1650 C   0  0  0  0  0  0  0  0  0  0  0  0
   -0.7550   23.4450  -29.2940 C   0  0  0  0  0  0  0  0  0  0  0  0
   -1.9800   23.1730  -29.9080 C   0  0  0  0  0  0  0  0  0  0  0  0
   -3.1700   23.7220  -29.4000 C   0  0  0  0  0  0  0  0  0  0  0  0
   -4.4710   23.4430  -30.0590 C   0  0  0  0  0  0  0  0  0  0  0  0
   -4.5170   23.0170  -31.4000 C   0  0  0  0  0  0  0  0  0  0  0  0
   -5.7420   22.7470  -32.0160 C   0  0  0  0  0  0  0  0  0  0  0  0
   -6.9360   22.8960  -31.3030 C   0  0  0  0  0  0  0  0  0  0  0  0
   -8.5050   22.5390  -32.0920 S   0  0  0  0  0  0  0  0  0  0  0  0
   -8.1520   20.7850  -32.2070 C   0  0  0  0  0  0  0  0  0  0  0  0
   -7.1490   20.3260  -33.0720 C   0  0  0  0  0  0  0  0  0  0  0  0
   -6.8800   18.9560  -33.1650 C   0  0  0  0  0  0  0  0  0  0  0  0
   -7.6070   18.0450  -32.3930 C   0  0  0  0  0  0  0  0  0  0  0  0
   -8.6050   18.5020  -31.5270 C   0  0  0  0  0  0  0  0  0  0  0  0
   -8.8770   19.8710  -31.4310 C   0  0  0  0  0  0  0  0  0  0  0  0
   -6.9020   23.3250  -29.9730 C   0  0  0  0  0  0  0  0  0  0  0  0
   -5.6790   23.5950  -29.3520 C   0  0  0  0  0  0  0  0  0  0  0  0
   -3.1070   24.5450  -28.2610 C   0  0  0  0  0  0  0  0  0  0  0  0
   -1.8810   24.8150  -27.6470 C   0  0  0  0  0  0  0  0  0  0  0  0
    0.9718   28.0954  -22.8440 H   0  0  0  0  0  0  0  0  0  0  0  0
    1.6670   27.5260  -24.3993 H   0  0  0  0  0  0  0  0  0  0  0  0
    0.2411   28.6186  -24.3993 H   0  0  0  0  0  0  0  0  0  0  0  0
    1.1830   25.3250  -24.9010 H   0  0  0  0  0  0  0  0  0  0  0  0
   -0.4724   23.6776  -23.3888 H   0  0  0  0  0  0  0  0  0  0  0  0
   -1.5980   24.4329  -24.5913 H   0  0  0  0  0  0  0  0  0  0  0  0
    0.0433   22.1613  -24.9695 H   0  0  0  0  0  0  0  0  0  0  0  0
   -0.8942   23.0937  -26.2170 H   0  0  0  0  0  0  0  0  0  0  0  0
    0.1696   23.0083  -29.6994 H   0  0  0  0  0  0  0  0  0  0  0  0
   -2.0135   22.5243  -30.7957 H   0  0  0  0  0  0  0  0  0  0  0  0
   -3.5822   22.8958  -31.9669 H   0  0  0  0  0  0  0  0  0  0  0  0
   -5.7673   22.4163  -33.0648 H   0  0  0  0  0  0  0  0  0  0  0  0
   -6.5739   21.0422  -33.6772 H   0  0  0  0  0  0  0  0  0  0  0  0
   -6.0955   18.5953  -33.8465 H   0  0  0  0  0  0  0  0  0  0  0  0
   -7.3938   16.9684  -32.4669 H   0  0  0  0  0  0  0  0  0  0  0  0
   -9.1770   17.7844  -30.9205 H   0  0  0  0  0  0  0  0  0  0  0  0
   -9.6598   20.2297  -30.7465 H   0  0  0  0  0  0  0  0  0  0  0  0
   -7.8406   23.4505  -29.4133 H   0  0  0  0  0  0  0  0  0  0  0  0
   -5.6603   23.9285  -28.3039 H   0  0  0  0  0  0  0  0  0  0  0  0
   -4.0303   24.9796  -27.8502 H   0  0  0  0  0  0  0  0  0  0  0  0
   -1.8443   25.4566  -26.7543 H   0  0  0  0  0  0  0  0  0  0  0  0
  1  2  1  0
  2  3  2  0
  2  4  1  0
  4  5  1  0
  5  6  1  0
  6  7  1  0
  7  8  1  0
  8  9  2  0
  8 10  2  0
  8 11  1  0
 11 12  2  0
 12 13  1  0
 13 14  2  0
 14 15  1  0
 15 16  2  0
 16 17  1  0
 17 18  2  0
 18 19  1  0
 19 20  1  0
 20 21  2  0
 21 22  1  0
 22 23  2  0
 23 24  1  0
 24 25  2  0
 18 26  1  0
 26 27  2  0
 14 28  1  0
 28 29  2  0
 29 11  1  0
 27 15  1  0
 25 20  1  0
  1 30  1  0
  1 31  1  0
  1 32  1  0
  4 33  1  0
  5 34  1  0
  5 35  1  0
  6 36  1  0
  6 37  1  0
 12 38  1  0
 13 39  1  0
 16 40  1  0
 17 41  1  0
 21 42  1  0
 22 43  1  0
 23 44  1  0
 24 45  1  0
 25 46  1  0
 26 47  1  0
 27 48  1  0
 28 49  1  0
 29 50  1  0
M  CHG  1   7  -1
M  END
>  <UniqueID>  (40) 
39

>  <SMILES>  (40) 
CC(=O)NCC[N-]S(=O)(=O)c1ccc(-c2ccc(Sc3ccccc3)cc2)cc1

>  <Energy>  (40) 
46.15563732939991

>  <Genealogy>  (40) 
CC(=O)NCC[N-]S(=O)(=O)c1ccc(-c2ccc(Sc3ccccc3)cc2)cc1 (protonated)
CC(=O)NCC[N-]S(=O)(=O)c1ccc(-c2ccc(Sc3ccccc3)cc2)cc1 (3D coordinates assigned)
CC(=O)NCC[N-]S(=O)(=O)c1ccc(-c2ccc(Sc3ccccc3)cc2)cc1 (optimized conformer: 46.15563732939991 kcal/mol)

>  <smiles>  (40) 
CC(=O)NCCNS(=O)(=O)c1ccc(-c2ccc(Sc3ccccc3)cc2)cc1

>  <score_type>  (40) 
oracle

>  <origin>  (40) 
adgpu

>  <m_score__min__energy>  (40) 
-10.6

>  <m_primary>  (40) 
energy

$$$$
40:0
     RDKit          3D

 53 56  0  0  0  0  0  0  0  0999 V2000
   -1.3820   24.1100  -26.9750 C   0  0  0  0  0  0  0  0  0  0  0  0
   -1.0620   22.8390  -27.7040 C   0  0  0  0  0  0  0  0  0  0  0  0
   -1.2080   21.6000  -27.0620 C   0  0  0  0  0  0  0  0  0  0  0  0
   -0.8700   20.4170  -27.7250 C   0  0  0  0  0  0  0  0  0  0  0  0
   -0.3580   20.4580  -29.0320 C   0  0  0  0  0  0  0  0  0  0  0  0
   -0.0200   19.2060  -29.7440 C   0  0  0  0  0  0  0  0  0  0  0  0
   -0.4990   19.0180  -31.0530 C   0  0  0  0  0  0  0  0  0  0  0  0
   -0.2540   17.8200  -31.7480 C   0  0  0  0  0  0  0  0  0  0  0  0
   -0.7750   17.6260  -33.1220 C   0  0  0  0  0  0  0  0  0  0  0  0
   -0.6680   16.5010  -33.6820 O   0  0  0  0  0  0  0  0  0  0  0  0
   -1.3600   18.7270  -33.8310 N   0  0  0  0  0  0  0  0  0  0  0  0
   -2.4290   19.5640  -33.3700 C   0  0  0  0  0  0  0  0  0  0  0  0
   -2.4610   20.9020  -33.7830 C   0  0  0  0  0  0  0  0  0  0  0  0
   -3.4820   21.7540  -33.3520 C   0  0  0  0  0  0  0  0  0  0  0  0
   -4.4840   21.2760  -32.4950 C   0  0  0  0  0  0  0  0  0  0  0  0
   -5.5610   22.1790  -32.0410 C   0  0  0  0  0  0  0  0  0  0  0  0
   -6.8620   21.9630  -32.5250 C   0  0  0  0  0  0  0  0  0  0  0  0
   -7.9100   22.8040  -32.1450 C   0  0  0  0  0  0  0  0  0  0  0  0
   -7.6720   23.8670  -31.2750 C   0  0  0  0  0  0  0  0  0  0  0  0
   -6.3880   24.0880  -30.7740 C   0  0  0  0  0  0  0  0  0  0  0  0
   -5.3230   23.2460  -31.1370 C   0  0  0  0  0  0  0  0  0  0  0  0
   -3.7280   23.5350  -30.4180 S   0  0  0  0  0  0  0  0  0  0  0  0
   -3.4790   25.2280  -30.1790 N   0  0  0  0  0  0  0  0  0  0  0  0
   -2.6530   23.0260  -31.3370 O   0  0  0  0  0  0  0  0  0  0  0  0
   -3.6280   22.8160  -29.1040 O   0  0  0  0  0  0  0  0  0  0  0  0
   -4.4270   19.9500  -32.0400 C   0  0  0  0  0  0  0  0  0  0  0  0
   -3.4060   19.0980  -32.4730 C   0  0  0  0  0  0  0  0  0  0  0  0
    0.4840   16.8060  -31.1150 C   0  0  0  0  0  0  0  0  0  0  0  0
    0.9800   16.9920  -29.8240 C   0  0  0  0  0  0  0  0  0  0  0  0
    0.7460   18.1860  -29.1350 C   0  0  0  0  0  0  0  0  0  0  0  0
    1.3080   18.3360  -27.8660 O   0  0  0  0  0  0  0  0  0  0  0  0
   -0.2110   21.6980  -29.6730 C   0  0  0  0  0  0  0  0  0  0  0  0
   -0.5510   22.8820  -29.0100 C   0  0  0  0  0  0  0  0  0  0  0  0
   -1.3372   23.9319  -25.8904 H   0  0  0  0  0  0  0  0  0  0  0  0
   -0.6508   24.8844  -27.2499 H   0  0  0  0  0  0  0  0  0  0  0  0
   -2.3927   24.4459  -27.2499 H   0  0  0  0  0  0  0  0  0  0  0  0
   -1.5905   21.5595  -26.0314 H   0  0  0  0  0  0  0  0  0  0  0  0
   -1.0057   19.4490  -27.2205 H   0  0  0  0  0  0  0  0  0  0  0  0
   -1.0736   19.8195  -31.5403 H   0  0  0  0  0  0  0  0  0  0  0  0
   -1.6764   21.2854  -34.4519 H   0  0  0  0  0  0  0  0  0  0  0  0
   -3.4996   22.8020  -33.6859 H   0  0  0  0  0  0  0  0  0  0  0  0
   -7.0569   21.1241  -33.2093 H   0  0  0  0  0  0  0  0  0  0  0  0
   -8.9243   22.6276  -32.5325 H   0  0  0  0  0  0  0  0  0  0  0  0
   -8.4975   24.5328  -30.9828 H   0  0  0  0  0  0  0  0  0  0  0  0
   -6.2081   24.9293  -30.0885 H   0  0  0  0  0  0  0  0  0  0  0  0
   -3.4870   25.6750  -31.1240 H   0  0  0  0  0  0  0  0  0  0  0  0
   -5.1892   19.5787  -31.3392 H   0  0  0  0  0  0  0  0  0  0  0  0
   -3.3673   18.0601  -32.1106 H   0  0  0  0  0  0  0  0  0  0  0  0
    0.6723   15.8584  -31.6409 H   0  0  0  0  0  0  0  0  0  0  0  0
    1.5610   16.1911  -29.3434 H   0  0  0  0  0  0  0  0  0  0  0  0
    2.2980   18.2380  -27.6840 H   0  0  0  0  0  0  0  0  0  0  0  0
    0.1738   21.7390  -30.7027 H   0  0  0  0  0  0  0  0  0  0  0  0
   -0.4172   23.8503  -29.5145 H   0  0  0  0  0  0  0  0  0  0  0  0
  1  2  1  0
  2  3  2  0
  3  4  1  0
  4  5  2  0
  5  6  1  0
  6  7  2  0
  7  8  1  0
  8  9  1  0
  9 10  2  0
  9 11  1  0
 11 12  1  0
 12 13  2  0
 13 14  1  0
 14 15  2  0
 15 16  1  0
 16 17  2  0
 17 18  1  0
 18 19  2  0
 19 20  1  0
 20 21  2  0
 21 22  1  0
 22 23  1  0
 22 24  2  0
 22 25  2  0
 15 26  1  0
 26 27  2  0
  8 28  2  0
 28 29  1  0
 29 30  2  0
 30 31  1  0
  5 32  1  0
 32 33  2  0
 33  2  1  0
 30  6  1  0
 27 12  1  0
 21 16  1  0
  1 34  1  0
  1 35  1  0
  1 36  1  0
  3 37  1  0
  4 38  1  0
  7 39  1  0
 13 40  1  0
 14 41  1  0
 17 42  1  0
 18 43  1  0
 19 44  1  0
 20 45  1  0
 23 46  1  0
 26 47  1  0
 27 48  1  0
 28 49  1  0
 29 50  1  0
 31 51  1  0
 32 52  1  0
 33 53  1  0
M  CHG  2  11  -1  23  -1
M  END
>  <UniqueID>  (41) 
40

>  <SMILES>  (41) 
Cc1ccc(-c2cc(C(=O)[N-]c3ccc(-c4ccccc4S([NH-])(=O)=O)cc3)ccc2O)cc1

>  <Energy>  (41) 
77.44807973807278

>  <Genealogy>  (41) 
Cc1ccc(-c2cc(C(=O)[N-]c3ccc(-c4ccccc4S([NH-])(=O)=O)cc3)ccc2O)cc1 (protonated)
Cc1ccc(-c2cc(C(=O)[N-]c3ccc(-c4ccccc4S([NH-])(=O)=O)cc3)ccc2O)cc1 (3D coordinates assigned)
Cc1ccc(-c2cc(C(=O)[N-]c3ccc(-c4ccccc4S([NH-])(=O)=O)cc3)ccc2O)cc1 (optimized conformer: 77.44807973807278 kcal/mol)

>  <smiles>  (41) 
Cc1ccc(-c2cc(C(=O)Nc3ccc(-c4ccccc4S(N)(=O)=O)cc3)ccc2O)cc1

>  <score_type>  (41) 
oracle

>  <origin>  (41) 
adgpu

>  <m_score__min__energy>  (41) 
-12.640000000000001

>  <m_primary>  (41) 
energy

$$$$
41:0
     RDKit          3D

 36 38  0  0  0  0  0  0  0  0999 V2000
    1.6430   18.5630  -27.8810 C   0  0  0  0  0  0  0  0  0  0  0  0
    0.5250   19.3970  -28.4320 C   0  0  0  0  0  0  0  0  0  0  0  0
    0.5710   19.8570  -29.7560 C   0  0  0  0  0  0  0  0  0  0  0  0
   -0.4520   20.6650  -30.2590 C   0  0  0  0  0  0  0  0  0  0  0  0
   -1.5280   21.0420  -29.4370 C   0  0  0  0  0  0  0  0  0  0  0  0
   -2.6230   21.8890  -29.9700 C   0  0  0  0  0  0  0  0  0  0  0  0
   -3.7690   21.2670  -30.4880 C   0  0  0  0  0  0  0  0  0  0  0  0
   -4.8170   22.0430  -31.0100 C   0  0  0  0  0  0  0  0  0  0  0  0
   -6.0440   21.4210  -31.5730 C   0  0  0  0  0  0  0  0  0  0  0  0
   -5.9810   20.2520  -32.3580 C   0  0  0  0  0  0  0  0  0  0  0  0
   -7.1480   19.6880  -32.8840 C   0  0  0  0  0  0  0  0  0  0  0  0
   -8.3890   20.2820  -32.6420 C   0  0  0  0  0  0  0  0  0  0  0  0
   -9.5410   19.7070  -33.1730 O   0  0  0  0  0  0  0  0  0  0  0  0
   -8.4620   21.4480  -31.8720 C   0  0  0  0  0  0  0  0  0  0  0  0
   -7.2980   22.0170  -31.3460 C   0  0  0  0  0  0  0  0  0  0  0  0
   -4.7140   23.3990  -30.9830 N   0  0  0  0  0  0  0  0  0  0  0  0
   -3.6270   24.0390  -30.4790 C   0  0  0  0  0  0  0  0  0  0  0  0
   -3.5990   25.2990  -30.4820 O   0  0  0  0  0  0  0  0  0  0  0  0
   -2.5510   23.2990  -29.9610 C   0  0  0  0  0  0  0  0  0  0  0  0
   -1.4190   23.9910  -29.3810 C   0  0  0  0  0  0  0  0  0  0  0  0
   -0.5150   24.5440  -28.9160 N   0  0  0  0  0  0  0  0  0  0  0  0
   -1.5680   20.5870  -28.1090 C   0  0  0  0  0  0  0  0  0  0  0  0
   -0.5440   19.7790  -27.6070 C   0  0  0  0  0  0  0  0  0  0  0  0
    1.6109   18.5869  -26.7817 H   0  0  0  0  0  0  0  0  0  0  0  0
    1.5320   17.5253  -28.2286 H   0  0  0  0  0  0  0  0  0  0  0  0
    2.6061   18.9651  -28.2286 H   0  0  0  0  0  0  0  0  0  0  0  0
    1.4171   19.5802  -30.4021 H   0  0  0  0  0  0  0  0  0  0  0  0
   -0.4151   21.0078  -31.3036 H   0  0  0  0  0  0  0  0  0  0  0  0
   -3.8469   20.1698  -30.4853 H   0  0  0  0  0  0  0  0  0  0  0  0
   -5.0077   19.7801  -32.5583 H   0  0  0  0  0  0  0  0  0  0  0  0
   -7.0882   18.7726  -33.4910 H   0  0  0  0  0  0  0  0  0  0  0  0
   -9.5630   19.3420  -34.1170 H   0  0  0  0  0  0  0  0  0  0  0  0
   -9.4377   21.9183  -31.6799 H   0  0  0  0  0  0  0  0  0  0  0  0
   -7.3634   22.9388  -30.7494 H   0  0  0  0  0  0  0  0  0  0  0  0
   -2.4104   20.8682  -27.4599 H   0  0  0  0  0  0  0  0  0  0  0  0
   -0.5762   19.4410  -26.5607 H   0  0  0  0  0  0  0  0  0  0  0  0
  1  2  1  0
  2  3  2  0
  3  4  1  0
  4  5  2  0
  5  6  1  0
  6  7  1  0
  7  8  2  0
  8  9  1  0
  9 10  2  0
 10 11  1  0
 11 12  2  0
 12 13  1  0
 12 14  1  0
 14 15  2  0
  8 16  1  0
 16 17  1  0
 17 18  2  0
 17 19  1  0
 19 20  1  0
 20 21  3  0
  5 22  1  0
 22 23  2  0
 23  2  1  0
 19  6  2  0
 15  9  1  0
  1 24  1  0
  1 25  1  0
  1 26  1  0
  3 27  1  0
  4 28  1  0
  7 29  1  0
 10 30  1  0
 11 31  1  0
 13 32  1  0
 14 33  1  0
 15 34  1  0
 22 35  1  0
 23 36  1  0
M  CHG  1  16  -1
M  END
>  <UniqueID>  (42) 
41

>  <SMILES>  (42) 
Cc1ccc(-c2cc(-c3ccc(O)cc3)[n-]c(=O)c2C#N)cc1

>  <Energy>  (42) 
50.29952286169006

>  <Genealogy>  (42) 
Cc1ccc(-c2cc(-c3ccc(O)cc3)[n-]c(=O)c2C#N)cc1 (protonated)
Cc1ccc(-c2cc(-c3ccc(O)cc3)[n-]c(=O)c2C#N)cc1 (3D coordinates assigned)
Cc1ccc(-c2cc(-c3ccc(O)cc3)[n-]c(=O)c2C#N)cc1 (optimized conformer: 50.29952286169006 kcal/mol)

>  <smiles>  (42) 
Cc1ccc(-c2cc(-c3ccc(O)cc3)[nH]c(=O)c2C#N)cc1

>  <score_type>  (42) 
oracle

>  <origin>  (42) 
adgpu

>  <m_score__min__energy>  (42) 
-8.8399999999999999

>  <m_primary>  (42) 
energy

$$$$
42:0
     RDKit          3D

 44 46  0  0  0  0  0  0  0  0999 V2000
   -4.9790   21.9980  -32.7020 C   0  0  0  0  0  0  0  0  0  0  0  0
   -5.9310   20.8470  -32.6940 C   0  0  0  0  0  0  0  0  0  0  0  0
   -5.6130   19.6160  -33.1430 N   0  0  0  0  0  0  0  0  0  0  0  0
   -6.6970   18.8600  -33.0480 N   0  0  0  0  0  0  0  0  0  0  0  0
   -6.7340   17.4630  -33.4660 C   0  0  0  0  0  0  0  0  0  0  0  0
   -7.7220   19.5880  -32.5480 C   0  0  0  0  0  0  0  0  0  0  0  0
   -9.1260   19.0970  -32.3620 C   0  0  0  0  0  0  0  0  0  0  0  0
   -7.2660   20.8770  -32.3260 C   0  0  0  0  0  0  0  0  0  0  0  0
   -8.1810   22.2680  -31.7460 S   0  0  0  0  0  0  0  0  0  0  0  0
   -9.6290   21.8810  -31.6370 O   0  0  0  0  0  0  0  0  0  0  0  0
   -8.0580   23.4290  -32.6930 O   0  0  0  0  0  0  0  0  0  0  0  0
   -7.6010   22.7570  -30.1850 N   0  0  0  0  0  0  0  0  0  0  0  0
   -6.3150   23.3610  -29.9540 C   0  0  0  0  0  0  0  0  0  0  0  0
   -6.0850   24.6700  -30.4050 C   0  0  0  0  0  0  0  0  0  0  0  0
   -4.8490   25.2880  -30.1950 C   0  0  0  0  0  0  0  0  0  0  0  0
   -3.8180   24.6080  -29.5440 C   0  0  0  0  0  0  0  0  0  0  0  0
   -2.5960   25.2670  -29.3410 O   0  0  0  0  0  0  0  0  0  0  0  0
   -1.6860   24.9920  -28.3090 C   0  0  0  0  0  0  0  0  0  0  0  0
   -1.9750   25.4520  -27.0180 C   0  0  0  0  0  0  0  0  0  0  0  0
   -1.0840   25.2140  -25.9650 C   0  0  0  0  0  0  0  0  0  0  0  0
    0.1080   24.5220  -26.2000 C   0  0  0  0  0  0  0  0  0  0  0  0
    0.4130   24.0740  -27.4880 C   0  0  0  0  0  0  0  0  0  0  0  0
   -0.4740   24.3120  -28.5420 C   0  0  0  0  0  0  0  0  0  0  0  0
   -4.0480   23.3050  -29.0680 C   0  0  0  0  0  0  0  0  0  0  0  0
   -5.2820   22.6820  -29.2790 C   0  0  0  0  0  0  0  0  0  0  0  0
   -4.7418   22.2848  -31.6669 H   0  0  0  0  0  0  0  0  0  0  0  0
   -4.0550   21.7060  -33.2225 H   0  0  0  0  0  0  0  0  0  0  0  0
   -5.4392   22.8508  -33.2225 H   0  0  0  0  0  0  0  0  0  0  0  0
   -6.7512   16.8147  -32.5775 H   0  0  0  0  0  0  0  0  0  0  0  0
   -7.6372   17.2842  -34.0679 H   0  0  0  0  0  0  0  0  0  0  0  0
   -5.8415   17.2366  -34.0679 H   0  0  0  0  0  0  0  0  0  0  0  0
   -9.3480   19.0194  -31.2874 H   0  0  0  0  0  0  0  0  0  0  0  0
   -9.8267   19.8035  -32.8310 H   0  0  0  0  0  0  0  0  0  0  0  0
   -9.2337   18.1079  -32.8310 H   0  0  0  0  0  0  0  0  0  0  0  0
   -8.2220   22.5580  -29.3680 H   0  0  0  0  0  0  0  0  0  0  0  0
   -6.8847   25.2145  -30.9285 H   0  0  0  0  0  0  0  0  0  0  0  0
   -4.6874   26.3181  -30.5454 H   0  0  0  0  0  0  0  0  0  0  0  0
   -2.9080   26.0037  -26.8304 H   0  0  0  0  0  0  0  0  0  0  0  0
   -1.3217   25.5715  -24.9522 H   0  0  0  0  0  0  0  0  0  0  0  0
    0.8055   24.3303  -25.3713 H   0  0  0  0  0  0  0  0  0  0  0  0
    1.3528   23.5331  -27.6729 H   0  0  0  0  0  0  0  0  0  0  0  0
   -0.2250   23.9673  -29.5565 H   0  0  0  0  0  0  0  0  0  0  0  0
   -3.2523   22.7725  -28.5263 H   0  0  0  0  0  0  0  0  0  0  0  0
   -5.4467   21.6567  -28.9161 H   0  0  0  0  0  0  0  0  0  0  0  0
  1  2  1  0
  2  3  2  0
  3  4  1  0
  4  5  1  0
  4  6  1  0
  6  7  1  0
  6  8  2  0
  8  9  1  0
  9 10  2  0
  9 11  2  0
  9 12  1  0
 12 13  1  0
 13 14  2  0
 14 15  1  0
 15 16  2  0
 16 17  1  0
 17 18  1  0
 18 19  2  0
 19 20  1  0
 20 21  2  0
 21 22  1  0
 22 23  2  0
 16 24  1  0
 24 25  2  0
  8  2  1  0
 25 13  1  0
 23 18  1  0
  1 26  1  0
  1 27  1  0
  1 28  1  0
  5 29  1  0
  5 30  1  0
  5 31  1  0
  7 32  1  0
  7 33  1  0
  7 34  1  0
 12 35  1  0
 14 36  1  0
 15 37  1  0
 19 38  1  0
 20 39  1  0
 21 40  1  0
 22 41  1  0
 23 42  1  0
 24 43  1  0
 25 44  1  0
M  END
>  <UniqueID>  (43) 
42

>  <SMILES>  (43) 
Cc1nn(C)c(C)c1S(=O)(=O)Nc1ccc(Oc2ccccc2)cc1

>  <Energy>  (43) 
82.87478645553045

>  <Genealogy>  (43) 
Cc1nn(C)c(C)c1S(=O)(=O)Nc1ccc(Oc2ccccc2)cc1 (3D coordinates assigned)
Cc1nn(C)c(C)c1S(=O)(=O)Nc1ccc(Oc2ccccc2)cc1 (optimized conformer: 82.87478645553045 kcal/mol)

>  <smiles>  (43) 
Cc1nn(C)c(C)c1S(=O)(=O)Nc1ccc(Oc2ccccc2)cc1

>  <score_type>  (43) 
oracle

>  <origin>  (43) 
adgpu

>  <m_score__min__energy>  (43) 
-8.9700000000000006

>  <m_primary>  (43) 
energy

$$$$
43:0
     RDKit          3D

 38 40  0  0  0  0  0  0  0  0999 V2000
   -2.8870   23.2810  -27.5820 O   0  0  0  0  0  0  0  0  0  0  0  0
   -2.7670   24.4740  -27.9730 C   0  0  0  0  0  0  0  0  0  0  0  0
   -3.4770   24.9130  -29.1440 N   0  0  0  0  0  0  0  0  0  0  0  0
   -4.6540   24.2630  -29.6550 C   0  0  0  0  0  0  0  0  0  0  0  0
   -4.6280   22.8810  -29.8960 C   0  0  0  0  0  0  0  0  0  0  0  0
   -5.7530   22.2310  -30.4110 C   0  0  0  0  0  0  0  0  0  0  0  0
   -6.9110   22.9570  -30.7120 C   0  0  0  0  0  0  0  0  0  0  0  0
   -8.3350   22.1350  -31.3390 S   0  0  0  0  0  0  0  0  0  0  0  0
   -8.9940   22.9810  -32.3930 O   0  0  0  0  0  0  0  0  0  0  0  0
   -9.3260   21.9130  -30.2310 O   0  0  0  0  0  0  0  0  0  0  0  0
   -7.8490   20.5910  -32.0270 C   0  0  0  0  0  0  0  0  0  0  0  0
   -8.4350   19.4000  -31.5730 C   0  0  0  0  0  0  0  0  0  0  0  0
   -8.0320   18.1730  -32.1060 C   0  0  0  0  0  0  0  0  0  0  0  0
   -7.0400   18.1270  -33.0890 C   0  0  0  0  0  0  0  0  0  0  0  0
   -6.4460   19.3100  -33.5390 C   0  0  0  0  0  0  0  0  0  0  0  0
   -5.4780   19.2650  -34.4870 F   0  0  0  0  0  0  0  0  0  0  0  0
   -6.8460   20.5410  -33.0070 C   0  0  0  0  0  0  0  0  0  0  0  0
   -6.9380   24.3400  -30.4870 C   0  0  0  0  0  0  0  0  0  0  0  0
   -5.8150   24.9920  -29.9710 C   0  0  0  0  0  0  0  0  0  0  0  0
   -1.8540   25.3900  -27.2490 C   0  0  0  0  0  0  0  0  0  0  0  0
   -0.7850   26.0250  -27.9040 C   0  0  0  0  0  0  0  0  0  0  0  0
    0.0560   26.8900  -27.2010 C   0  0  0  0  0  0  0  0  0  0  0  0
   -0.1790   27.1210  -25.8460 C   0  0  0  0  0  0  0  0  0  0  0  0
   -1.2200   26.5110  -25.2220 N   0  0  0  0  0  0  0  0  0  0  0  0
   -2.0550   25.6650  -25.8830 C   0  0  0  0  0  0  0  0  0  0  0  0
   -3.0520   25.6760  -29.7180 H   0  0  0  0  0  0  0  0  0  0  0  0
   -3.7163   22.3054  -29.6782 H   0  0  0  0  0  0  0  0  0  0  0  0
   -5.7282   21.1444  -30.5804 H   0  0  0  0  0  0  0  0  0  0  0  0
   -9.2131   19.4322  -30.7961 H   0  0  0  0  0  0  0  0  0  0  0  0
   -8.4966   17.2412  -31.7511 H   0  0  0  0  0  0  0  0  0  0  0  0
   -6.7263   17.1599  -33.5089 H   0  0  0  0  0  0  0  0  0  0  0  0
   -6.3736   21.4705  -33.3575 H   0  0  0  0  0  0  0  0  0  0  0  0
   -7.8471   24.9147  -30.7176 H   0  0  0  0  0  0  0  0  0  0  0  0
   -5.8388   26.0801  -29.8112 H   0  0  0  0  0  0  0  0  0  0  0  0
   -0.6102   25.8400  -28.9741 H   0  0  0  0  0  0  0  0  0  0  0  0
    0.8958   27.3845  -27.7111 H   0  0  0  0  0  0  0  0  0  0  0  0
    0.4794   27.7980  -25.2818 H   0  0  0  0  0  0  0  0  0  0  0  0
   -2.8919   25.1931  -25.3474 H   0  0  0  0  0  0  0  0  0  0  0  0
  1  2  2  0
  2  3  1  0
  3  4  1  0
  4  5  2  0
  5  6  1  0
  6  7  2  0
  7  8  1  0
  8  9  2  0
  8 10  2  0
  8 11  1  0
 11 12  2  0
 12 13  1  0
 13 14  2  0
 14 15  1  0
 15 16  1  0
 15 17  2  0
  7 18  1  0
 18 19  2  0
  2 20  1  0
 20 21  2  0
 21 22  1  0
 22 23  2  0
 23 24  1  0
 24 25  2  0
 19  4  1  0
 25 20  1  0
 17 11  1  0
  3 26  1  0
  5 27  1  0
  6 28  1  0
 12 29  1  0
 13 30  1  0
 14 31  1  0
 17 32  1  0
 18 33  1  0
 19 34  1  0
 21 35  1  0
 22 36  1  0
 23 37  1  0
 25 38  1  0
M  END
>  <UniqueID>  (44) 
43

>  <SMILES>  (44) 
O=C(Nc1ccc(S(=O)(=O)c2cccc(F)c2)cc1)c1cccnc1

>  <Energy>  (44) 
49.26292194192792

>  <Genealogy>  (44) 
O=C(Nc1ccc(S(=O)(=O)c2cccc(F)c2)cc1)c1cccnc1 (3D coordinates assigned)
O=C(Nc1ccc(S(=O)(=O)c2cccc(F)c2)cc1)c1cccnc1 (optimized conformer: 49.26292194192792 kcal/mol)

>  <smiles>  (44) 
O=C(Nc1ccc(S(=O)(=O)c2cccc(F)c2)cc1)c1cccnc1

>  <score_type>  (44) 
oracle

>  <origin>  (44) 
adgpu

>  <m_score__min__energy>  (44) 
-9.0500000000000007

>  <m_primary>  (44) 
energy

$$$$
44:0
     RDKit          3D

 46 48  0  0  0  0  0  0  0  0999 V2000
   -5.7311   26.1407  -31.7728 H   0  0  0  0  0  0  0  0  0  0  0  0
   -5.4020   25.2560  -31.2080 C   0  0  0  0  0  0  0  0  0  0  0  0
   -4.2280   25.3010  -30.6410 N   0  0  0  0  0  0  0  0  0  0  0  0
   -3.5440   24.2300  -29.9710 C   0  0  0  0  0  0  0  0  0  0  0  0
   -2.9660   24.4750  -28.7650 N   0  0  0  0  0  0  0  0  0  0  0  0
   -2.3000   23.5080  -28.0840 C   0  0  0  0  0  0  0  0  0  0  0  0
   -1.8469   23.7299  -27.1065 H   0  0  0  0  0  0  0  0  0  0  0  0
   -2.1950   22.2310  -28.6340 C   0  0  0  0  0  0  0  0  0  0  0  0
   -1.6761   21.4310  -28.0856 H   0  0  0  0  0  0  0  0  0  0  0  0
   -2.7390   21.9850  -29.8520 N   0  0  0  0  0  0  0  0  0  0  0  0
   -3.3950   22.9530  -30.5530 C   0  0  0  0  0  0  0  0  0  0  0  0
   -3.8950   22.7070  -31.7310 N   0  0  0  0  0  0  0  0  0  0  0  0
   -3.7980   21.4820  -32.4760 C   0  0  0  0  0  0  0  0  0  0  0  0
   -2.5860   21.0420  -33.0320 C   0  0  0  0  0  0  0  0  0  0  0  0
   -1.6688   21.6299  -32.8799 H   0  0  0  0  0  0  0  0  0  0  0  0
   -2.5390   19.8620  -33.7770 C   0  0  0  0  0  0  0  0  0  0  0  0
   -1.5822   19.5182  -34.1970 H   0  0  0  0  0  0  0  0  0  0  0  0
   -3.7100   19.1090  -33.9940 C   0  0  0  0  0  0  0  0  0  0  0  0
   -3.7010   17.9150  -34.7310 O   0  0  0  0  0  0  0  0  0  0  0  0
   -3.3370   16.6430  -34.2040 C   0  0  0  0  0  0  0  0  0  0  0  0
   -3.3489   16.6845  -33.1048 H   0  0  0  0  0  0  0  0  0  0  0  0
   -4.0540   15.8839  -34.5501 H   0  0  0  0  0  0  0  0  0  0  0  0
   -2.3270   16.3781  -34.5501 H   0  0  0  0  0  0  0  0  0  0  0  0
   -4.9290   19.5610  -33.4670 C   0  0  0  0  0  0  0  0  0  0  0  0
   -6.0840   18.7970  -33.7050 O   0  0  0  0  0  0  0  0  0  0  0  0
   -6.4950   17.6900  -32.9090 C   0  0  0  0  0  0  0  0  0  0  0  0
   -6.3991   17.9484  -31.8441 H   0  0  0  0  0  0  0  0  0  0  0  0
   -7.5437   17.4459  -33.1340 H   0  0  0  0  0  0  0  0  0  0  0  0
   -5.8597   16.8206  -33.1340 H   0  0  0  0  0  0  0  0  0  0  0  0
   -4.9670   20.7540  -32.7200 C   0  0  0  0  0  0  0  0  0  0  0  0
   -5.9267   21.1174  -32.3240 H   0  0  0  0  0  0  0  0  0  0  0  0
   -6.3230   24.0980  -31.1450 C   0  0  0  0  0  0  0  0  0  0  0  0
   -6.7110   23.5210  -29.9240 C   0  0  0  0  0  0  0  0  0  0  0  0
   -6.3183   23.9248  -28.9792 H   0  0  0  0  0  0  0  0  0  0  0  0
   -7.5930   22.4370  -29.9030 C   0  0  0  0  0  0  0  0  0  0  0  0
   -7.8723   21.9799  -28.9423 H   0  0  0  0  0  0  0  0  0  0  0  0
   -8.1240   21.9280  -31.0940 C   0  0  0  0  0  0  0  0  0  0  0  0
   -9.0090   20.8420  -31.0170 O   0  0  0  0  0  0  0  0  0  0  0  0
   -9.0710   19.7870  -31.9710 C   0  0  0  0  0  0  0  0  0  0  0  0
   -9.1277   18.8216  -31.4469 H   0  0  0  0  0  0  0  0  0  0  0  0
   -9.9632   19.9149  -32.6016 H   0  0  0  0  0  0  0  0  0  0  0  0
   -8.1700   19.8095  -32.6016 H   0  0  0  0  0  0  0  0  0  0  0  0
   -7.7620   22.5240  -32.3160 C   0  0  0  0  0  0  0  0  0  0  0  0
   -8.1765   22.1368  -33.2585 H   0  0  0  0  0  0  0  0  0  0  0  0
   -6.8770   23.6070  -32.3370 C   0  0  0  0  0  0  0  0  0  0  0  0
   -6.6132   24.0775  -33.2957 H   0  0  0  0  0  0  0  0  0  0  0  0
  1  2  1  0
  2  3  2  0
  3  4  1  0
  4  5  2  0
  5  6  1  0
  6  7  1  0
  6  8  2  0
  8  9  1  0
  8 10  1  0
 10 11  1  0
 11 12  2  0
 12 13  1  0
 13 14  2  0
 14 15  1  0
 14 16  1  0
 16 17  1  0
 16 18  2  0
 18 19  1  0
 19 20  1  0
 20 21  1  0
 20 22  1  0
 20 23  1  0
 18 24  1  0
 24 25  1  0
 25 26  1  0
 26 27  1  0
 26 28  1  0
 26 29  1  0
 24 30  2  0
 30 31  1  0
  2 32  1  0
 32 33  2  0
 33 34  1  0
 33 35  1  0
 35 36  1  0
 35 37  2  0
 37 38  1  0
 38 39  1  0
 39 40  1  0
 39 41  1  0
 39 42  1  0
 37 43  1  0
 43 44  1  0
 43 45  2  0
 45 46  1  0
 11  4  1  0
 30 13  1  0
 45 32  1  0
M  CHG  1  10  -1
M  END
>  <UniqueID>  (45) 
44

>  <SMILES>  (45) 
COc1ccc(/C=N\c2ncc[n-]/c2=N\c2ccc(OC)c(OC)c2)cc1

>  <Energy>  (45) 
65.24343716872522

>  <Genealogy>  (45) 
COc1ccc(C=Nc2ncc[n-]c2=Nc2ccc(OC)c(OC)c2)cc1 (protonated)
COc1ccc(/C=N\c2ncc[n-]/c2=N\c2ccc(OC)c(OC)c2)cc1 (cis-trans isomerization)
COc1ccc(/C=N\c2ncc[n-]/c2=N\c2ccc(OC)c(OC)c2)cc1 (3D coordinates assigned)
COc1ccc(/C=N\c2ncc[n-]/c2=N\c2ccc(OC)c(OC)c2)cc1 (optimized conformer: 65.24343716872522 kcal/mol)

>  <smiles>  (45) 
COc1ccc(C=Nc2ncc[nH]c2=Nc2ccc(OC)c(OC)c2)cc1

>  <score_type>  (45) 
oracle

>  <origin>  (45) 
adgpu

>  <m_score__min__energy>  (45) 
-8.0899999999999999

>  <m_primary>  (45) 
energy

$$$$
45:0
     RDKit          3D

 41 43  0  0  0  0  0  0  0  0999 V2000
   -0.8780   26.3710  -24.2960 C   0  0  0  0  0  0  0  0  0  0  0  0
   -1.6680   25.4350  -25.0250 O   0  0  0  0  0  0  0  0  0  0  0  0
   -1.3470   25.0300  -26.3250 C   0  0  0  0  0  0  0  0  0  0  0  0
   -2.2860   25.1920  -27.3460 C   0  0  0  0  0  0  0  0  0  0  0  0
   -1.9630   24.8020  -28.6580 C   0  0  0  0  0  0  0  0  0  0  0  0
   -2.8670   24.9280  -29.7230 O   0  0  0  0  0  0  0  0  0  0  0  0
   -4.1400   24.3370  -29.8040 C   0  0  0  0  0  0  0  0  0  0  0  0
   -5.3170   25.0850  -29.6410 C   0  0  0  0  0  0  0  0  0  0  0  0
   -6.5660   24.4630  -29.7190 C   0  0  0  0  0  0  0  0  0  0  0  0
   -6.6650   23.0890  -29.9790 C   0  0  0  0  0  0  0  0  0  0  0  0
   -7.9650   22.4750  -30.0270 N   0  0  0  0  0  0  0  0  0  0  0  0
   -8.7400   21.9440  -31.4840 S   0  0  0  0  0  0  0  0  0  0  0  0
  -10.1930   21.6780  -31.2020 O   0  0  0  0  0  0  0  0  0  0  0  0
   -8.6330   23.0360  -32.5120 O   0  0  0  0  0  0  0  0  0  0  0  0
   -7.9910   20.4580  -32.0780 C   0  0  0  0  0  0  0  0  0  0  0  0
   -8.6050   19.2170  -31.8340 C   0  0  0  0  0  0  0  0  0  0  0  0
   -8.0210   18.0440  -32.3220 C   0  0  0  0  0  0  0  0  0  0  0  0
   -6.8250   18.0970  -33.0440 C   0  0  0  0  0  0  0  0  0  0  0  0
   -6.1990   19.3260  -33.2740 C   0  0  0  0  0  0  0  0  0  0  0  0
   -5.0280   19.3700  -33.9620 F   0  0  0  0  0  0  0  0  0  0  0  0
   -6.7800   20.5040  -32.7930 C   0  0  0  0  0  0  0  0  0  0  0  0
   -6.1510   21.6860  -33.0130 F   0  0  0  0  0  0  0  0  0  0  0  0
   -5.4840   22.3500  -30.1890 C   0  0  0  0  0  0  0  0  0  0  0  0
   -4.2340   22.9690  -30.1040 C   0  0  0  0  0  0  0  0  0  0  0  0
   -2.7810   22.0090  -30.3550 Cl  0  0  0  0  0  0  0  0  0  0  0  0
   -0.7210   24.2080  -28.9020 C   0  0  0  0  0  0  0  0  0  0  0  0
    0.1930   24.0580  -27.8560 C   0  0  0  0  0  0  0  0  0  0  0  0
   -0.1360   24.4780  -26.6060 N   0  0  0  0  0  0  0  0  0  0  0  0
   -1.0169   26.2064  -23.2173 H   0  0  0  0  0  0  0  0  0  0  0  0
    0.1826   26.2352  -24.5541 H   0  0  0  0  0  0  0  0  0  0  0  0
   -1.1901   27.3938  -24.5541 H   0  0  0  0  0  0  0  0  0  0  0  0
   -3.2738   25.6227  -27.1250 H   0  0  0  0  0  0  0  0  0  0  0  0
   -5.2556   26.1667  -29.4508 H   0  0  0  0  0  0  0  0  0  0  0  0
   -7.4804   25.0573  -29.5750 H   0  0  0  0  0  0  0  0  0  0  0  0
   -8.4650   22.2740  -29.1330 H   0  0  0  0  0  0  0  0  0  0  0  0
   -9.5425   19.1689  -31.2606 H   0  0  0  0  0  0  0  0  0  0  0  0
   -8.5054   17.0739  -32.1368 H   0  0  0  0  0  0  0  0  0  0  0  0
   -6.3759   17.1707  -33.4316 H   0  0  0  0  0  0  0  0  0  0  0  0
   -5.5464   21.2767  -30.4218 H   0  0  0  0  0  0  0  0  0  0  0  0
   -0.4645   23.8601  -29.9135 H   0  0  0  0  0  0  0  0  0  0  0  0
    1.1760   23.6013  -28.0436 H   0  0  0  0  0  0  0  0  0  0  0  0
  1  2  1  0
  2  3  1  0
  3  4  2  0
  4  5  1  0
  5  6  1  0
  6  7  1  0
  7  8  2  0
  8  9  1  0
  9 10  2  0
 10 11  1  0
 11 12  1  0
 12 13  2  0
 12 14  2  0
 12 15  1  0
 15 16  2  0
 16 17  1  0
 17 18  2  0
 18 19  1  0
 19 20  1  0
 19 21  2  0
 21 22  1  0
 10 23  1  0
 23 24  2  0
 24 25  1  0
  5 26  2  0
 26 27  1  0
 27 28  2  0
 28  3  1  0
 24  7  1  0
 21 15  1  0
  1 29  1  0
  1 30  1  0
  1 31  1  0
  4 32  1  0
  8 33  1  0
  9 34  1  0
 11 35  1  0
 16 36  1  0
 17 37  1  0
 18 38  1  0
 23 39  1  0
 26 40  1  0
 27 41  1  0
M  END
>  <UniqueID>  (46) 
45

>  <SMILES>  (46) 
COc1cc(Oc2ccc(NS(=O)(=O)c3cccc(F)c3F)cc2Cl)ccn1

>  <Energy>  (46) 
52.636204961266394

>  <Genealogy>  (46) 
COc1cc(Oc2ccc(NS(=O)(=O)c3cccc(F)c3F)cc2Cl)ccn1 (3D coordinates assigned)
COc1cc(Oc2ccc(NS(=O)(=O)c3cccc(F)c3F)cc2Cl)ccn1 (optimized conformer: 52.636204961266394 kcal/mol)

>  <smiles>  (46) 
COc1cc(Oc2ccc(NS(=O)(=O)c3cccc(F)c3F)cc2Cl)ccn1

>  <score_type>  (46) 
oracle

>  <origin>  (46) 
adgpu

>  <m_score__min__energy>  (46) 
-8.9000000000000004

>  <m_primary>  (46) 
energy

$$$$
46:0
     RDKit          3D

 32 35  0  0  0  0  0  0  0  0999 V2000
    0.9590   23.8640  -26.7120 S   0  0  0  0  0  0  0  0  0  0  0  0
   -0.3000   24.4620  -27.5760 C   0  0  0  0  0  0  0  0  0  0  0  0
   -0.5420   25.7740  -27.7270 N   0  0  0  0  0  0  0  0  0  0  0  0
   -1.5860   25.9060  -28.5300 N   0  0  0  0  0  0  0  0  0  0  0  0
   -1.9690   24.6560  -28.8680 C   0  0  0  0  0  0  0  0  0  0  0  0
   -3.1430   24.3820  -29.7160 C   0  0  0  0  0  0  0  0  0  0  0  0
   -3.7340   23.1480  -29.8920 C   0  0  0  0  0  0  0  0  0  0  0  0
   -4.7560   23.3950  -30.7840 C   0  0  0  0  0  0  0  0  0  0  0  0
   -5.7070   22.4060  -31.3090 C   0  0  0  0  0  0  0  0  0  0  0  0
   -7.0900   22.5420  -31.3330 C   0  0  0  0  0  0  0  0  0  0  0  0
   -7.7420   21.4370  -31.8930 C   0  0  0  0  0  0  0  0  0  0  0  0
   -6.8810   20.4310  -32.3110 C   0  0  0  0  0  0  0  0  0  0  0  0
   -5.3050   20.9180  -31.9830 S   0  0  0  0  0  0  0  0  0  0  0  0
   -4.7610   24.6990  -31.1220 N   0  0  0  0  0  0  0  0  0  0  0  0
   -3.7760   25.2990  -30.4740 N   0  0  0  0  0  0  0  0  0  0  0  0
   -1.1780   23.7220  -28.2840 N   0  0  0  0  0  0  0  0  0  0  0  0
   -1.2020   22.2940  -28.4400 C   0  0  0  0  0  0  0  0  0  0  0  0
   -0.5490   21.6900  -29.5240 C   0  0  0  0  0  0  0  0  0  0  0  0
   -0.5650   20.3000  -29.6690 C   0  0  0  0  0  0  0  0  0  0  0  0
   -1.2260   19.5050  -28.7280 C   0  0  0  0  0  0  0  0  0  0  0  0
   -1.8730   20.1000  -27.6400 C   0  0  0  0  0  0  0  0  0  0  0  0
   -2.7730   19.0150  -26.3520 Br  0  0  0  0  0  0  0  0  0  0  0  0
   -1.8590   21.4920  -27.4950 C   0  0  0  0  0  0  0  0  0  0  0  0
   -0.0110   26.5680  -27.3070 H   0  0  0  0  0  0  0  0  0  0  0  0
   -3.4549   22.1902  -29.4287 H   0  0  0  0  0  0  0  0  0  0  0  0
   -7.6185   23.4278  -30.9508 H   0  0  0  0  0  0  0  0  0  0  0  0
   -8.8355   21.3717  -31.9927 H   0  0  0  0  0  0  0  0  0  0  0  0
   -7.1784   19.4797  -32.7764 H   0  0  0  0  0  0  0  0  0  0  0  0
   -0.0224   22.3122  -30.2626 H   0  0  0  0  0  0  0  0  0  0  0  0
   -0.0569   19.8310  -30.5245 H   0  0  0  0  0  0  0  0  0  0  0  0
   -1.2373   18.4111  -28.8433 H   0  0  0  0  0  0  0  0  0  0  0  0
   -2.3650   21.9588  -26.6370 H   0  0  0  0  0  0  0  0  0  0  0  0
  1  2  2  0
  2  3  1  0
  3  4  1  0
  4  5  2  0
  5  6  1  0
  6  7  2  0
  7  8  1  0
  8  9  1  0
  9 10  2  0
 10 11  1  0
 11 12  2  0
 12 13  1  0
  8 14  2  0
 14 15  1  0
  5 16  1  0
 16 17  1  0
 17 18  2  0
 18 19  1  0
 19 20  2  0
 20 21  1  0
 21 22  1  0
 21 23  2  0
 16  2  1  0
 23 17  1  0
 15  6  1  0
 13  9  1  0
  3 24  1  0
  7 25  1  0
 10 26  1  0
 11 27  1  0
 12 28  1  0
 18 29  1  0
 19 30  1  0
 20 31  1  0
 23 32  1  0
M  CHG  1  15  -1
M  END
>  <UniqueID>  (47) 
46

>  <SMILES>  (47) 
S=c1[nH]nc(-c2cc(-c3cccs3)n[n-]2)n1-c1cccc(Br)c1

>  <Energy>  (47) 
134.8363829087844

>  <Genealogy>  (47) 
S=c1[nH]nc(-c2cc(-c3cccs3)n[n-]2)n1-c1cccc(Br)c1 (protonated)
S=c1[nH]nc(-c2cc(-c3cccs3)n[n-]2)n1-c1cccc(Br)c1 (3D coordinates assigned)
S=c1[nH]nc(-c2cc(-c3cccs3)n[n-]2)n1-c1cccc(Br)c1 (optimized conformer: 134.8363829087844 kcal/mol)

>  <smiles>  (47) 
S=c1[nH]nc(-c2cc(-c3cccs3)n[nH]2)n1-c1cccc(Br)c1

>  <score_type>  (47) 
oracle

>  <origin>  (47) 
adgpu

>  <m_score__min__energy>  (47) 
-10.43

>  <m_primary>  (47) 
energy

$$$$
47:0
     RDKit          3D

 52 54  0  0  0  0  0  0  0  0999 V2000
   -9.0060   18.5480  -31.2460 C   0  0  0  0  0  0  0  0  0  0  0  0
   -7.7860   18.5910  -32.1250 C   0  0  0  0  0  0  0  0  0  0  0  0
   -6.8880   17.5100  -32.1240 C   0  0  0  0  0  0  0  0  0  0  0  0
   -5.7690   17.5200  -32.9590 C   0  0  0  0  0  0  0  0  0  0  0  0
   -5.5370   18.6080  -33.8040 C   0  0  0  0  0  0  0  0  0  0  0  0
   -6.4300   19.6810  -33.8260 C   0  0  0  0  0  0  0  0  0  0  0  0
   -7.5710   19.6770  -33.0020 C   0  0  0  0  0  0  0  0  0  0  0  0
   -8.5040   20.7660  -33.0130 N   0  0  0  0  0  0  0  0  0  0  0  0
   -8.7060   21.9450  -31.7530 S   0  0  0  0  0  0  0  0  0  0  0  0
   -9.4980   23.0910  -32.3200 O   0  0  0  0  0  0  0  0  0  0  0  0
   -9.4660   21.3800  -30.5870 O   0  0  0  0  0  0  0  0  0  0  0  0
   -7.1230   22.5270  -31.2290 C   0  0  0  0  0  0  0  0  0  0  0  0
   -5.9740   22.1870  -31.9560 C   0  0  0  0  0  0  0  0  0  0  0  0
   -4.7260   22.6920  -31.5820 C   0  0  0  0  0  0  0  0  0  0  0  0
   -4.6040   23.5310  -30.4630 C   0  0  0  0  0  0  0  0  0  0  0  0
   -3.2860   24.0980  -30.0950 C   0  0  0  0  0  0  0  0  0  0  0  0
   -3.2100   25.2950  -29.7100 O   0  0  0  0  0  0  0  0  0  0  0  0
   -2.0930   23.3030  -30.1100 N   0  0  0  0  0  0  0  0  0  0  0  0
   -1.8550   22.1400  -29.3010 C   0  0  0  0  0  0  0  0  0  0  0  0
   -2.1960   22.1330  -27.9360 C   0  0  0  0  0  0  0  0  0  0  0  0
   -1.9730   20.9950  -27.1560 C   0  0  0  0  0  0  0  0  0  0  0  0
   -1.4200   19.8500  -27.7320 C   0  0  0  0  0  0  0  0  0  0  0  0
   -1.0860   19.8410  -29.0890 C   0  0  0  0  0  0  0  0  0  0  0  0
   -1.2970   20.9820  -29.8830 C   0  0  0  0  0  0  0  0  0  0  0  0
   -0.9400   20.9460  -31.3170 C   0  0  0  0  0  0  0  0  0  0  0  0
    0.2630   21.1300  -31.6510 O   0  0  0  0  0  0  0  0  0  0  0  0
   -1.9360   20.7140  -32.3340 N   0  0  0  0  0  0  0  0  0  0  0  0
   -3.1350   19.9240  -32.0300 C   0  0  0  0  0  0  0  0  0  0  0  0
   -1.6710   21.1570  -33.7060 C   0  0  0  0  0  0  0  0  0  0  0  0
   -5.7570   23.8560  -29.7250 C   0  0  0  0  0  0  0  0  0  0  0  0
   -7.0060   23.3560  -30.1040 C   0  0  0  0  0  0  0  0  0  0  0  0
   -8.6977   18.5589  -30.1901 H   0  0  0  0  0  0  0  0  0  0  0  0
   -9.6378   19.4244  -31.4526 H   0  0  0  0  0  0  0  0  0  0  0  0
   -9.5746   17.6293  -31.4526 H   0  0  0  0  0  0  0  0  0  0  0  0
   -7.0678   16.6507  -31.4613 H   0  0  0  0  0  0  0  0  0  0  0  0
   -5.0698   16.6708  -32.9515 H   0  0  0  0  0  0  0  0  0  0  0  0
   -4.6491   18.6193  -34.4532 H   0  0  0  0  0  0  0  0  0  0  0  0
   -6.2405   20.5356  -34.4921 H   0  0  0  0  0  0  0  0  0  0  0  0
   -6.0552   21.5188  -32.8260 H   0  0  0  0  0  0  0  0  0  0  0  0
   -3.8329   22.4304  -32.1684 H   0  0  0  0  0  0  0  0  0  0  0  0
   -2.6412   23.0294  -27.4796 H   0  0  0  0  0  0  0  0  0  0  0  0
   -2.2335   21.0016  -26.0873 H   0  0  0  0  0  0  0  0  0  0  0  0
   -1.2470   18.9543  -27.1174 H   0  0  0  0  0  0  0  0  0  0  0  0
   -0.6549   18.9346  -29.5392 H   0  0  0  0  0  0  0  0  0  0  0  0
   -3.2552   19.8448  -30.9395 H   0  0  0  0  0  0  0  0  0  0  0  0
   -4.0184   20.4175  -32.4614 H   0  0  0  0  0  0  0  0  0  0  0  0
   -3.0301   18.9176  -32.4614 H   0  0  0  0  0  0  0  0  0  0  0  0
   -1.1064   22.1008  -33.6840 H   0  0  0  0  0  0  0  0  0  0  0  0
   -1.0831   20.3902  -34.2318 H   0  0  0  0  0  0  0  0  0  0  0  0
   -2.6246   21.3124  -34.2318 H   0  0  0  0  0  0  0  0  0  0  0  0
   -5.6749   24.5084  -28.8432 H   0  0  0  0  0  0  0  0  0  0  0  0
   -7.9004   23.6137  -29.5177 H   0  0  0  0  0  0  0  0  0  0  0  0
  1  2  1  0
  2  3  2  0
  3  4  1  0
  4  5  2  0
  5  6  1  0
  6  7  2  0
  7  8  1  0
  8  9  1  0
  9 10  2  0
  9 11  2  0
  9 12  1  0
 12 13  2  0
 13 14  1  0
 14 15  2  0
 15 16  1  0
 16 17  2  0
 16 18  1  0
 18 19  1  0
 19 20  2  0
 20 21  1  0
 21 22  2  0
 22 23  1  0
 23 24  2  0
 24 25  1  0
 25 26  2  0
 25 27  1  0
 27 28  1  0
 27 29  1  0
 15 30  1  0
 30 31  2  0
  7  2  1  0
 31 12  1  0
 24 19  1  0
  1 32  1  0
  1 33  1  0
  1 34  1  0
  3 35  1  0
  4 36  1  0
  5 37  1  0
  6 38  1  0
 13 39  1  0
 14 40  1  0
 20 41  1  0
 21 42  1  0
 22 43  1  0
 23 44  1  0
 28 45  1  0
 28 46  1  0
 28 47  1  0
 29 48  1  0
 29 49  1  0
 29 50  1  0
 30 51  1  0
 31 52  1  0
M  CHG  2   8  -1  18  -1
M  END
>  <UniqueID>  (48) 
47

>  <SMILES>  (48) 
Cc1ccccc1[N-]S(=O)(=O)c1ccc(C(=O)[N-]c2ccccc2C(=O)N(C)C)cc1

>  <Energy>  (48) 
72.16186821833257

>  <Genealogy>  (48) 
Cc1ccccc1[N-]S(=O)(=O)c1ccc(C(=O)[N-]c2ccccc2C(=O)N(C)C)cc1 (protonated)
Cc1ccccc1[N-]S(=O)(=O)c1ccc(C(=O)[N-]c2ccccc2C(=O)N(C)C)cc1 (3D coordinates assigned)
Cc1ccccc1[N-]S(=O)(=O)c1ccc(C(=O)[N-]c2ccccc2C(=O)N(C)C)cc1 (optimized conformer: 72.16186821833257 kcal/mol)

>  <smiles>  (48) 
Cc1ccccc1NS(=O)(=O)c1ccc(C(=O)Nc2ccccc2C(=O)N(C)C)cc1

>  <score_type>  (48) 
oracle

>  <origin>  (48) 
adgpu

>  <m_score__min__energy>  (48) 
-12.07

>  <m_primary>  (48) 
energy

$$$$
48:0
     RDKit          3D

 34 36  0  0  0  0  0  0  0  0999 V2000
   -3.1540   22.0480  -29.7720 N   0  0  0  0  0  0  0  0  0  0  0  0
   -4.3420   22.7160  -30.2170 C   0  0  0  0  0  0  0  0  0  0  0  0
   -5.3310   21.9800  -30.8880 C   0  0  0  0  0  0  0  0  0  0  0  0
   -6.4850   22.6090  -31.3580 C   0  0  0  0  0  0  0  0  0  0  0  0
   -6.6670   23.9770  -31.1560 C   0  0  0  0  0  0  0  0  0  0  0  0
   -5.6950   24.7220  -30.4850 C   0  0  0  0  0  0  0  0  0  0  0  0
   -4.5200   24.1050  -30.0180 C   0  0  0  0  0  0  0  0  0  0  0  0
   -3.5490   24.8680  -29.2830 N   0  0  0  0  0  0  0  0  0  0  0  0
   -3.1280   24.5320  -27.9500 C   0  0  0  0  0  0  0  0  0  0  0  0
   -3.6160   23.5250  -27.3670 O   0  0  0  0  0  0  0  0  0  0  0  0
   -2.1110   25.3450  -27.2480 C   0  0  0  0  0  0  0  0  0  0  0  0
   -2.0840   25.3440  -25.8440 C   0  0  0  0  0  0  0  0  0  0  0  0
   -1.1280   26.0960  -25.1470 C   0  0  0  0  0  0  0  0  0  0  0  0
   -1.0920   26.0860  -23.7430 C   0  0  0  0  0  0  0  0  0  0  0  0
   -0.1330   26.8370  -23.0590 C   0  0  0  0  0  0  0  0  0  0  0  0
    0.7970   27.6030  -23.7690 C   0  0  0  0  0  0  0  0  0  0  0  0
    0.7710   27.6220  -25.1660 C   0  0  0  0  0  0  0  0  0  0  0  0
   -0.1870   26.8710  -25.8640 C   0  0  0  0  0  0  0  0  0  0  0  0
   -0.2260   26.8870  -27.2640 C   0  0  0  0  0  0  0  0  0  0  0  0
   -1.1860   26.1400  -27.9550 C   0  0  0  0  0  0  0  0  0  0  0  0
   -1.2280   26.2220  -29.3430 O   0  0  0  0  0  0  0  0  0  0  0  0
   -2.8300   22.0990  -28.7820 H   0  0  0  0  0  0  0  0  0  0  0  0
   -2.5550   21.5260  -30.4490 H   0  0  0  0  0  0  0  0  0  0  0  0
   -5.1957   20.8996  -31.0446 H   0  0  0  0  0  0  0  0  0  0  0  0
   -7.2518   22.0252  -31.8883 H   0  0  0  0  0  0  0  0  0  0  0  0
   -7.5780   24.4700  -31.5260 H   0  0  0  0  0  0  0  0  0  0  0  0
   -5.8491   25.7987  -30.3204 H   0  0  0  0  0  0  0  0  0  0  0  0
   -3.1210   25.6950  -29.7560 H   0  0  0  0  0  0  0  0  0  0  0  0
   -2.8203   24.7473  -25.2856 H   0  0  0  0  0  0  0  0  0  0  0  0
   -1.8213   25.4849  -23.1802 H   0  0  0  0  0  0  0  0  0  0  0  0
   -0.1093   26.8258  -21.9593 H   0  0  0  0  0  0  0  0  0  0  0  0
    1.5510   28.1921  -23.2263 H   0  0  0  0  0  0  0  0  0  0  0  0
    1.5035   28.2273  -25.7200 H   0  0  0  0  0  0  0  0  0  0  0  0
    0.5031   27.4910  -27.8239 H   0  0  0  0  0  0  0  0  0  0  0  0
  1  2  1  0
  2  3  2  0
  3  4  1  0
  4  5  2  0
  5  6  1  0
  6  7  2  0
  7  8  1  0
  8  9  1  0
  9 10  2  0
  9 11  1  0
 11 12  2  0
 12 13  1  0
 13 14  2  0
 14 15  1  0
 15 16  2  0
 16 17  1  0
 17 18  2  0
 18 19  1  0
 19 20  2  0
 20 21  1  0
  7  2  1  0
 20 11  1  0
 18 13  1  0
  1 22  1  0
  1 23  1  0
  3 24  1  0
  4 25  1  0
  5 26  1  0
  6 27  1  0
  8 28  1  0
 12 29  1  0
 14 30  1  0
 15 31  1  0
 16 32  1  0
 17 33  1  0
 19 34  1  0
M  CHG  1  21  -1
M  END
>  <UniqueID>  (49) 
48

>  <SMILES>  (49) 
Nc1ccccc1NC(=O)c1cc2ccccc2cc1[O-]

>  <Energy>  (49) 
49.51355876137501

>  <Genealogy>  (49) 
Nc1ccccc1NC(=O)c1cc2ccccc2cc1[O-] (protonated)
Nc1ccccc1NC(=O)c1cc2ccccc2cc1[O-] (3D coordinates assigned)
Nc1ccccc1NC(=O)c1cc2ccccc2cc1[O-] (optimized conformer: 49.51355876137501 kcal/mol)

>  <smiles>  (49) 
Nc1ccccc1NC(=O)c1cc2ccccc2cc1O

>  <score_type>  (49) 
oracle

>  <origin>  (49) 
adgpu

>  <m_score__min__energy>  (49) 
-10.65

>  <m_primary>  (49) 
energy

$$$$
49:0
     RDKit          3D

 29 31  0  0  0  0  0  0  0  0999 V2000
   -3.8970   25.6690  -30.6900 O   0  0  0  0  0  0  0  0  0  0  0  0
   -3.3560   24.5340  -30.0980 C   0  0  0  0  0  0  0  0  0  0  0  0
   -3.9820   23.2970  -30.2670 C   0  0  0  0  0  0  0  0  0  0  0  0
   -3.4450   22.1500  -29.6740 C   0  0  0  0  0  0  0  0  0  0  0  0
   -2.2700   22.2280  -28.9000 C   0  0  0  0  0  0  0  0  0  0  0  0
   -1.7000   21.0560  -28.2820 N   0  0  0  0  0  0  0  0  0  0  0  0
   -0.5480   20.4290  -28.5950 C   0  0  0  0  0  0  0  0  0  0  0  0
   -0.4360   19.3540  -27.7300 C   0  0  0  0  0  0  0  0  0  0  0  0
    0.6590   18.3490  -27.6700 C   0  0  0  0  0  0  0  0  0  0  0  0
    0.3570   16.9750  -27.5690 C   0  0  0  0  0  0  0  0  0  0  0  0
    1.3810   16.0190  -27.5150 C   0  0  0  0  0  0  0  0  0  0  0  0
    1.0790   14.6620  -27.4160 O   0  0  0  0  0  0  0  0  0  0  0  0
    2.7150   16.4250  -27.5640 C   0  0  0  0  0  0  0  0  0  0  0  0
    3.0310   17.7790  -27.6670 C   0  0  0  0  0  0  0  0  0  0  0  0
    2.0160   18.7420  -27.7190 C   0  0  0  0  0  0  0  0  0  0  0  0
    2.3740   20.0820  -27.8130 O   0  0  0  0  0  0  0  0  0  0  0  0
   -1.5170   19.3620  -26.9240 N   0  0  0  0  0  0  0  0  0  0  0  0
   -2.2610   20.3980  -27.2790 N   0  0  0  0  0  0  0  0  0  0  0  0
   -1.6470   23.4800  -28.7410 C   0  0  0  0  0  0  0  0  0  0  0  0
   -2.1870   24.6260  -29.3350 C   0  0  0  0  0  0  0  0  0  0  0  0
   -1.5600   25.8550  -29.1640 O   0  0  0  0  0  0  0  0  0  0  0  0
   -4.9002   23.2247  -30.8684 H   0  0  0  0  0  0  0  0  0  0  0  0
   -3.9437   21.1794  -29.8128 H   0  0  0  0  0  0  0  0  0  0  0  0
    0.1635   20.7156  -29.3834 H   0  0  0  0  0  0  0  0  0  0  0  0
   -0.6933   16.6500  -27.5322 H   0  0  0  0  0  0  0  0  0  0  0  0
    1.7840   13.9500  -27.5690 H   0  0  0  0  0  0  0  0  0  0  0  0
    3.5189   15.6754  -27.5213 H   0  0  0  0  0  0  0  0  0  0  0  0
    4.0845   18.0927  -27.7077 H   0  0  0  0  0  0  0  0  0  0  0  0
   -0.7265   23.5583  -28.1439 H   0  0  0  0  0  0  0  0  0  0  0  0
  1  2  1  0
  2  3  2  0
  3  4  1  0
  4  5  2  0
  5  6  1  0
  6  7  1  0
  7  8  2  0
  8  9  1  0
  9 10  2  0
 10 11  1  0
 11 12  1  0
 11 13  2  0
 13 14  1  0
 14 15  2  0
 15 16  1  0
  8 17  1  0
 17 18  2  0
  5 19  1  0
 19 20  2  0
 20 21  1  0
 20  2  1  0
 18  6  1  0
 15  9  1  0
  3 22  1  0
  4 23  1  0
  7 24  1  0
 10 25  1  0
 12 26  1  0
 13 27  1  0
 14 28  1  0
 19 29  1  0
M  CHG  3   1  -1  16  -1  21  -1
M  END
>  <UniqueID>  (50) 
49

>  <SMILES>  (50) 
[O-]c1ccc(-n2cc(-c3cc(O)ccc3[O-])nn2)cc1[O-]

>  <Energy>  (50) 
72.49330392763561

>  <Genealogy>  (50) 
[O-]c1ccc(-n2cc(-c3cc(O)ccc3[O-])nn2)cc1[O-] (protonated)
[O-]c1ccc(-n2cc(-c3cc(O)ccc3[O-])nn2)cc1[O-] (3D coordinates assigned)
[O-]c1ccc(-n2cc(-c3cc(O)ccc3[O-])nn2)cc1[O-] (optimized conformer: 72.49330392763561 kcal/mol)

>  <smiles>  (50) 
Oc1ccc(O)c(-c2cn(-c3ccc(O)c(O)c3)nn2)c1

>  <score_type>  (50) 
oracle

>  <origin>  (50) 
adgpu

>  <m_score__min__energy>  (50) 
-12.32

>  <m_primary>  (50) 
energy

$$$$
