0:0
     RDKit          3D

 37 39  0  0  0  0  0  0  0  0999 V2000
   -0.2970   23.4860  -26.2250 C   0  0  0  0  0  0  0  0  0  0  0  0
   -1.0860   22.3130  -26.7400 C   0  0  0  0  0  0  0  0  0  0  0  0
   -1.1640   21.1500  -25.9520 C   0  0  0  0  0  0  0  0  0  0  0  0
   -1.8860   20.0400  -26.3930 C   0  0  0  0  0  0  0  0  0  0  0  0
   -2.5400   20.0750  -27.6230 C   0  0  0  0  0  0  0  0  0  0  0  0
   -2.4840   21.2240  -28.4120 C   0  0  0  0  0  0  0  0  0  0  0  0
   -1.7780   22.3580  -27.9770 C   0  0  0  0  0  0  0  0  0  0  0  0
   -1.7630   23.7990  -29.0100 S   0  0  0  0  0  0  0  0  0  0  0  0
   -2.4260   24.9670  -28.3350 O   0  0  0  0  0  0  0  0  0  0  0  0
   -0.3340   24.1570  -29.3050 O   0  0  0  0  0  0  0  0  0  0  0  0
   -2.5700   23.4940  -30.5160 N   0  0  0  0  0  0  0  0  0  0  0  0
   -3.9820   23.5150  -30.7920 C   0  0  0  0  0  0  0  0  0  0  0  0
   -4.5910   22.2840  -31.0980 C   0  0  0  0  0  0  0  0  0  0  0  0
   -5.9590   22.2390  -31.3640 C   0  0  0  0  0  0  0  0  0  0  0  0
   -6.7230   23.3720  -31.3320 C   0  0  0  0  0  0  0  0  0  0  0  0
   -6.1590   24.6120  -31.0340 C   0  0  0  0  0  0  0  0  0  0  0  0
   -4.7800   24.6930  -30.7610 C   0  0  0  0  0  0  0  0  0  0  0  0
   -4.2290   25.9370  -30.4650 O   0  0  0  0  0  0  0  0  0  0  0  0
   -8.1440   23.0970  -31.6410 C   0  0  0  0  0  0  0  0  0  0  0  0
   -8.1860   21.5770  -31.8850 C   0  0  0  0  0  0  0  0  0  0  0  0
   -6.7560   21.0360  -31.6990 C   0  0  0  0  0  0  0  0  0  0  0  0
   -0.3028   23.4773  -25.1251 H   0  0  0  0  0  0  0  0  0  0  0  0
    0.7396   23.4179  -26.5867 H   0  0  0  0  0  0  0  0  0  0  0  0
   -0.7509   24.4204  -26.5867 H   0  0  0  0  0  0  0  0  0  0  0  0
   -0.6512   21.1153  -24.9794 H   0  0  0  0  0  0  0  0  0  0  0  0
   -1.9389   19.1360  -25.7686 H   0  0  0  0  0  0  0  0  0  0  0  0
   -3.1010   19.1956  -27.9721 H   0  0  0  0  0  0  0  0  0  0  0  0
   -2.9978   21.2423  -29.3845 H   0  0  0  0  0  0  0  0  0  0  0  0
   -3.9913   21.3623  -31.1272 H   0  0  0  0  0  0  0  0  0  0  0  0
   -6.7843   25.5167  -31.0124 H   0  0  0  0  0  0  0  0  0  0  0  0
   -3.4860   26.0450  -29.7850 H   0  0  0  0  0  0  0  0  0  0  0  0
   -8.7889   23.3749  -30.7943 H   0  0  0  0  0  0  0  0  0  0  0  0
   -8.5086   23.6740  -32.5036 H   0  0  0  0  0  0  0  0  0  0  0  0
   -8.8645   21.0997  -31.1627 H   0  0  0  0  0  0  0  0  0  0  0  0
   -8.5530   21.3584  -32.8987 H   0  0  0  0  0  0  0  0  0  0  0  0
   -6.7189   20.3019  -30.8806 H   0  0  0  0  0  0  0  0  0  0  0  0
   -6.3809   20.5146  -32.5920 H   0  0  0  0  0  0  0  0  0  0  0  0
  1  2  1  0
  2  3  2  0
  3  4  1  0
  4  5  2  0
  5  6  1  0
  6  7  2  0
  7  8  1  0
  8  9  2  0
  8 10  2  0
  8 11  1  0
 11 12  1  0
 12 13  2  0
 13 14  1  0
 14 15  2  0
 15 16  1  0
 16 17  2  0
 17 18  1  0
 15 19  1  0
 19 20  1  0
 20 21  1  0
  7  2  1  0
 17 12  1  0
 21 14  1  0
  1 22  1  0
  1 23  1  0
  1 24  1  0
  3 25  1  0
  4 26  1  0
  5 27  1  0
  6 28  1  0
 13 29  1  0
 16 30  1  0
 18 31  1  0
 19 32  1  0
 19 33  1  0
 20 34  1  0
 20 35  1  0
 21 36  1  0
 21 37  1  0
M  CHG  1  11  -1
M  END
>  <UniqueID>  (1) 
1

>  <SMILES>  (1) 
Cc1ccccc1S(=O)(=O)[N-]c1cc2c(cc1O)CCC2

>  <Energy>  (1) 
53.471210990300506

>  <Genealogy>  (1) 
Cc1ccccc1S(=O)(=O)[N-]c1cc2c(cc1O)CCC2 (protonated)
Cc1ccccc1S(=O)(=O)[N-]c1cc2c(cc1O)CCC2 (3D coordinates assigned)
Cc1ccccc1S(=O)(=O)[N-]c1cc2c(cc1O)CCC2 (nonaromatic ring conformer: 53.471210990300506 kcal/mol)

>  <smiles>  (1) 
Cc1ccccc1S(=O)(=O)Nc1cc2c(cc1O)CCC2

>  <score_type>  (1) 
oracle

>  <origin>  (1) 
adgpu

>  <m_score__min__energy>  (1) 
-10.58

>  <m_primary>  (1) 
energy

$$$$
1:0
     RDKit          3D

 58 62  0  0  0  0  0  0  0  0999 V2000
   -0.1831   25.8180  -29.4521 H   0  0  0  0  0  0  0  0  0  0  0  0
   -0.9550   25.2760  -28.8860 C   0  0  0  0  0  0  0  0  0  0  0  0
   -2.2570   25.2410  -29.2760 N   0  0  0  0  0  0  0  0  0  0  0  0
   -3.0080   24.5130  -28.4210 C   0  0  0  0  0  0  0  0  0  0  0  0
   -4.2820   24.3180  -28.5600 N   0  0  0  0  0  0  0  0  0  0  0  0
   -5.2020   24.9650  -29.8790 S   0  0  0  0  0  0  0  0  0  0  0  0
   -4.2830   25.6460  -30.8550 O   0  0  0  0  0  0  0  0  0  0  0  0
   -6.1720   25.9870  -29.3510 O   0  0  0  0  0  0  0  0  0  0  0  0
   -6.0960   23.6720  -30.6730 C   0  0  0  0  0  0  0  0  0  0  0  0
   -7.3100   23.2140  -30.1390 C   0  0  0  0  0  0  0  0  0  0  0  0
   -7.7052   23.6602  -29.2145 H   0  0  0  0  0  0  0  0  0  0  0  0
   -8.0200   22.1910  -30.7790 C   0  0  0  0  0  0  0  0  0  0  0  0
   -8.9775   21.8459  -30.3618 H   0  0  0  0  0  0  0  0  0  0  0  0
   -7.5180   21.6050  -31.9470 C   0  0  0  0  0  0  0  0  0  0  0  0
   -8.2700   20.5610  -32.5830 N   0  0  0  0  0  0  0  0  0  0  0  0
   -7.8700   19.1870  -32.6800 C   0  0  0  0  0  0  0  0  0  0  0  0
   -8.7170   18.2920  -32.4240 O   0  0  0  0  0  0  0  0  0  0  0  0
   -6.4810   18.7990  -33.0260 C   0  0  0  0  0  0  0  0  0  0  0  0
   -5.4710   18.8410  -32.0500 C   0  0  0  0  0  0  0  0  0  0  0  0
   -5.7117   19.1687  -31.0279 H   0  0  0  0  0  0  0  0  0  0  0  0
   -4.1630   18.4690  -32.3700 C   0  0  0  0  0  0  0  0  0  0  0  0
   -3.3821   18.4970  -31.5958 H   0  0  0  0  0  0  0  0  0  0  0  0
   -3.8390   18.0600  -33.6720 C   0  0  0  0  0  0  0  0  0  0  0  0
   -2.1890   17.5700  -34.0740 S   0  0  0  0  0  0  0  0  0  0  0  0
   -1.5830   16.8760  -32.8860 O   0  0  0  0  0  0  0  0  0  0  0  0
   -2.2490   16.5940  -35.2160 O   0  0  0  0  0  0  0  0  0  0  0  0
   -1.2400   18.9800  -34.5320 N   0  0  1  0  0  0  0  0  0  0  0  0
   -1.1300   18.9310  -35.5720 H   0  0  0  0  0  0  0  0  0  0  0  0
   -1.9370   20.2480  -34.2290 C   0  0  0  0  0  0  0  0  0  0  0  0
   -2.9933   20.1441  -34.5180 H   0  0  0  0  0  0  0  0  0  0  0  0
   -1.4301   21.0431  -34.7953 H   0  0  0  0  0  0  0  0  0  0  0  0
   -1.8740   20.6270  -32.7690 C   0  0  0  0  0  0  0  0  0  0  0  0
   -2.7980   21.5520  -32.2580 C   0  0  0  0  0  0  0  0  0  0  0  0
   -3.5857   21.9552  -32.9115 H   0  0  0  0  0  0  0  0  0  0  0  0
   -2.7240   21.9640  -30.9250 C   0  0  0  0  0  0  0  0  0  0  0  0
   -3.4588   22.6805  -30.5292 H   0  0  0  0  0  0  0  0  0  0  0  0
   -1.7170   21.4660  -30.0950 C   0  0  0  0  0  0  0  0  0  0  0  0
   -1.6584   21.7909  -29.0457 H   0  0  0  0  0  0  0  0  0  0  0  0
   -0.7850   20.5560  -30.5970 C   0  0  0  0  0  0  0  0  0  0  0  0
    0.0019   20.1606  -29.9379 H   0  0  0  0  0  0  0  0  0  0  0  0
   -0.8450   20.1420  -31.9370 C   0  0  0  0  0  0  0  0  0  0  0  0
    0.1230   19.1010  -32.4260 C   0  0  0  0  0  0  0  0  0  0  0  0
   -0.1510   18.1307  -31.9863 H   0  0  0  0  0  0  0  0  0  0  0  0
    1.1322   19.4140  -32.1201 H   0  0  0  0  0  0  0  0  0  0  0  0
    0.1210   18.9660  -33.9580 C   0  0  0  0  0  0  0  0  0  0  0  0
    0.6065   18.0165  -34.2278 H   0  0  0  0  0  0  0  0  0  0  0  0
    0.6621   19.8317  -34.3675 H   0  0  0  0  0  0  0  0  0  0  0  0
   -4.8380   18.0500  -34.6550 C   0  0  0  0  0  0  0  0  0  0  0  0
   -4.5891   17.7530  -35.6845 H   0  0  0  0  0  0  0  0  0  0  0  0
   -6.1480   18.4150  -34.3350 C   0  0  0  0  0  0  0  0  0  0  0  0
   -6.9243   18.4015  -35.1142 H   0  0  0  0  0  0  0  0  0  0  0  0
   -6.3150   22.0860  -32.4960 C   0  0  0  0  0  0  0  0  0  0  0  0
   -5.9287   21.6533  -33.4306 H   0  0  0  0  0  0  0  0  0  0  0  0
   -5.6080   23.1110  -31.8600 C   0  0  0  0  0  0  0  0  0  0  0  0
   -4.6658   23.4779  -32.2931 H   0  0  0  0  0  0  0  0  0  0  0  0
   -2.1020   23.8860  -27.1550 S   0  0  0  0  0  0  0  0  0  0  0  0
   -0.6710   24.5750  -27.7170 C   0  0  0  0  0  0  0  0  0  0  0  0
    0.3173   24.4863  -27.2422 H   0  0  0  0  0  0  0  0  0  0  0  0
  1  2  1  0
  2  3  1  0
  3  4  1  0
  4  5  2  0
  5  6  1  0
  6  7  2  0
  6  8  2  0
  6  9  1  0
  9 10  2  0
 10 11  1  0
 10 12  1  0
 12 13  1  0
 12 14  2  0
 14 15  1  0
 15 16  1  0
 16 17  2  0
 16 18  1  0
 18 19  2  0
 19 20  1  0
 19 21  1  0
 21 22  1  0
 21 23  2  0
 23 24  1  0
 24 25  2  0
 24 26  2  0
 24 27  1  0
 27 28  1  6
 27 29  1  0
 29 30  1  0
 29 31  1  0
 29 32  1  0
 32 33  2  0
 33 34  1  0
 33 35  1  0
 35 36  1  0
 35 37  2  0
 37 38  1  0
 37 39  1  0
 39 40  1  0
 39 41  2  0
 41 42  1  0
 42 43  1  0
 42 44  1  0
 42 45  1  0
 45 46  1  0
 45 47  1  0
 23 48  1  0
 48 49  1  0
 48 50  2  0
 50 51  1  0
 14 52  1  0
 52 53  1  0
 52 54  2  0
 54 55  1  0
  4 56  1  0
 56 57  1  0
 57 58  1  0
 57  2  2  0
 54  9  1  0
 50 18  1  0
 45 27  1  0
 41 32  1  0
M  CHG  3   3  -1  15  -1  27   1
M  END
>  <UniqueID>  (2) 
2

>  <SMILES>  (2) 
O=C([N-]c1ccc(S(=O)(=O)/N=c2\[n-]ccs2)cc1)c1ccc(S(=O)(=O)[N@@H+]2CCc3ccccc3C2)cc1

>  <Energy>  (2) 
110.07350044596222

>  <Genealogy>  (2) 
O=C([N-]c1ccc(S(=O)(=O)N=c2[n-]ccs2)cc1)c1ccc(S(=O)(=O)[NH+]2CCc3ccccc3C2)cc1 (protonated)
O=C([N-]c1ccc(S(=O)(=O)N=c2[n-]ccs2)cc1)c1ccc(S(=O)(=O)[N@@H+]2CCc3ccccc3C2)cc1 (chirality)
O=C([N-]c1ccc(S(=O)(=O)/N=c2\[n-]ccs2)cc1)c1ccc(S(=O)(=O)[N@@H+]2CCc3ccccc3C2)cc1 (cis-trans isomerization)
O=C([N-]c1ccc(S(=O)(=O)/N=c2\[n-]ccs2)cc1)c1ccc(S(=O)(=O)[N@@H+]2CCc3ccccc3C2)cc1 (3D coordinates assigned)
O=C([N-]c1ccc(S(=O)(=O)/N=c2\[n-]ccs2)cc1)c1ccc(S(=O)(=O)[N@@H+]2CCc3ccccc3C2)cc1 (nonaromatic ring conformer: 110.07350044596222 kcal/mol)

>  <smiles>  (2) 
O=C(Nc1ccc(S(=O)(=O)N=c2[nH]ccs2)cc1)c1ccc(S(=O)(=O)N2CCc3ccccc3C2)cc1

>  <score_type>  (2) 
oracle

>  <origin>  (2) 
adgpu

>  <m_score__min__energy>  (2) 
-12.529999999999999

>  <m_primary>  (2) 
energy

$$$$
2:0
     RDKit          3D

 61 65  0  0  0  0  0  0  0  0999 V2000
   -1.4048   25.4969  -28.9211 H   0  0  0  0  0  0  0  0  0  0  0  0
   -2.3270   24.8980  -28.9520 C   0  0  0  0  0  0  0  0  0  0  0  0
   -3.1200   24.9270  -30.0570 N   0  0  0  0  0  0  0  0  0  0  0  0
   -4.2700   24.2060  -30.1460 C   0  0  0  0  0  0  0  0  0  0  0  0
   -4.9750   24.2980  -31.2370 N   0  0  0  0  0  0  0  0  0  0  0  0
   -6.4780   23.4910  -31.5710 S   0  0  0  0  0  0  0  0  0  0  0  0
   -7.3650   23.5900  -30.3630 O   0  0  0  0  0  0  0  0  0  0  0  0
   -7.1530   24.1660  -32.7310 O   0  0  0  0  0  0  0  0  0  0  0  0
   -6.1900   21.7890  -31.9240 C   0  0  0  0  0  0  0  0  0  0  0  0
   -7.2430   20.9630  -32.3370 C   0  0  0  0  0  0  0  0  0  0  0  0
   -8.2593   21.3742  -32.4271 H   0  0  0  0  0  0  0  0  0  0  0  0
   -7.0070   19.6180  -32.6350 C   0  0  0  0  0  0  0  0  0  0  0  0
   -7.8415   18.9741  -32.9496 H   0  0  0  0  0  0  0  0  0  0  0  0
   -5.7140   19.0830  -32.5360 C   0  0  0  0  0  0  0  0  0  0  0  0
   -5.4990   17.6930  -32.8380 N   0  0  0  0  0  0  0  0  0  0  0  0
   -5.7750   16.9870  -32.1200 H   0  0  0  0  0  0  0  0  0  0  0  0
   -5.0490   17.2190  -34.1170 C   0  0  0  0  0  0  0  0  0  0  0  0
   -5.3160   17.8860  -35.1550 O   0  0  0  0  0  0  0  0  0  0  0  0
   -4.2970   15.9440  -34.2430 C   0  0  0  0  0  0  0  0  0  0  0  0
   -4.7010   14.7880  -33.5490 C   0  0  0  0  0  0  0  0  0  0  0  0
   -5.6098   14.8118  -32.9297 H   0  0  0  0  0  0  0  0  0  0  0  0
   -3.9550   13.6110  -33.6420 C   0  0  0  0  0  0  0  0  0  0  0  0
   -4.2884   12.7081  -33.1095 H   0  0  0  0  0  0  0  0  0  0  0  0
   -2.7890   13.5750  -34.4070 C   0  0  0  0  0  0  0  0  0  0  0  0
   -2.2072   12.6441  -34.4778 H   0  0  0  0  0  0  0  0  0  0  0  0
   -2.3580   14.7220  -35.0850 C   0  0  0  0  0  0  0  0  0  0  0  0
   -0.8280   14.7110  -35.9650 S   0  0  0  0  0  0  0  0  0  0  0  0
   -0.9110   15.6710  -37.1200 O   0  0  0  0  0  0  0  0  0  0  0  0
   -0.5930   13.3360  -36.5260 O   0  0  0  0  0  0  0  0  0  0  0  0
    0.5160   15.1650  -34.9350 N   0  0  0  0  0  0  0  0  0  0  0  0
    0.8990   16.5800  -35.1260 C   0  0  0  0  0  0  0  0  0  0  0  0
    0.8481   16.8237  -36.1975 H   0  0  0  0  0  0  0  0  0  0  0  0
    1.9213   16.7181  -34.7442 H   0  0  0  0  0  0  0  0  0  0  0  0
   -0.0190   17.5000  -34.3700 C   0  0  0  0  0  0  0  0  0  0  0  0
   -0.4610   18.7150  -34.9120 C   0  0  0  0  0  0  0  0  0  0  0  0
   -0.1184   19.0307  -35.9085 H   0  0  0  0  0  0  0  0  0  0  0  0
   -1.3380   19.5250  -34.1840 C   0  0  0  0  0  0  0  0  0  0  0  0
   -1.6984   20.4709  -34.6145 H   0  0  0  0  0  0  0  0  0  0  0  0
   -1.7570   19.1330  -32.9090 C   0  0  0  0  0  0  0  0  0  0  0  0
   -2.4558   19.7659  -32.3423 H   0  0  0  0  0  0  0  0  0  0  0  0
   -1.2900   17.9390  -32.3530 C   0  0  0  0  0  0  0  0  0  0  0  0
   -1.6031   17.6431  -31.3408 H   0  0  0  0  0  0  0  0  0  0  0  0
   -0.4210   17.1180  -33.0880 C   0  0  0  0  0  0  0  0  0  0  0  0
    0.1830   15.8820  -32.4930 C   0  0  0  0  0  0  0  0  0  0  0  0
   -0.4538   15.5408  -31.6635 H   0  0  0  0  0  0  0  0  0  0  0  0
    1.1947   16.1358  -32.1437 H   0  0  0  0  0  0  0  0  0  0  0  0
    0.3110   14.7390  -33.5240 C   0  0  0  0  0  0  0  0  0  0  0  0
   -0.6110   14.1406  -33.4818 H   0  0  0  0  0  0  0  0  0  0  0  0
    1.2168   14.1814  -33.2437 H   0  0  0  0  0  0  0  0  0  0  0  0
   -3.1230   15.8930  -35.0180 C   0  0  0  0  0  0  0  0  0  0  0  0
   -2.8026   16.7840  -35.5779 H   0  0  0  0  0  0  0  0  0  0  0  0
   -4.6660   19.9090  -32.0890 C   0  0  0  0  0  0  0  0  0  0  0  0
   -3.6539   19.4940  -31.9734 H   0  0  0  0  0  0  0  0  0  0  0  0
   -4.9040   21.2540  -31.7910 C   0  0  0  0  0  0  0  0  0  0  0  0
   -4.0769   21.8943  -31.4506 H   0  0  0  0  0  0  0  0  0  0  0  0
   -4.6550   23.3940  -29.0580 C   0  0  0  0  0  0  0  0  0  0  0  0
   -5.5775   22.7971  -29.1102 H   0  0  0  0  0  0  0  0  0  0  0  0
   -3.8540   23.3550  -27.9140 C   0  0  0  0  0  0  0  0  0  0  0  0
   -4.1473   22.7296  -27.0579 H   0  0  0  0  0  0  0  0  0  0  0  0
   -2.6830   24.1090  -27.8580 C   0  0  0  0  0  0  0  0  0  0  0  0
   -2.0467   24.0822  -26.9611 H   0  0  0  0  0  0  0  0  0  0  0  0
  1  2  1  0
  2  3  1  0
  3  4  1  0
  4  5  2  0
  5  6  1  0
  6  7  2  0
  6  8  2  0
  6  9  1  0
  9 10  2  0
 10 11  1  0
 10 12  1  0
 12 13  1  0
 12 14  2  0
 14 15  1  0
 15 16  1  0
 15 17  1  0
 17 18  2  0
 17 19  1  0
 19 20  2  0
 20 21  1  0
 20 22  1  0
 22 23  1  0
 22 24  2  0
 24 25  1  0
 24 26  1  0
 26 27  1  0
 27 28  2  0
 27 29  2  0
 27 30  1  0
 30 31  1  0
 31 32  1  0
 31 33  1  0
 31 34  1  0
 34 35  2  0
 35 36  1  0
 35 37  1  0
 37 38  1  0
 37 39  2  0
 39 40  1  0
 39 41  1  0
 41 42  1  0
 41 43  2  0
 43 44  1  0
 44 45  1  0
 44 46  1  0
 44 47  1  0
 47 48  1  0
 47 49  1  0
 26 50  2  0
 50 51  1  0
 14 52  1  0
 52 53  1  0
 52 54  2  0
 54 55  1  0
  4 56  1  0
 56 57  1  0
 56 58  2  0
 58 59  1  0
 58 60  1  0
 60 61  1  0
 60  2  2  0
 54  9  1  0
 50 19  1  0
 47 30  1  0
 43 34  1  0
M  CHG  1   3  -1
M  END
>  <UniqueID>  (3) 
3

>  <SMILES>  (3) 
O=C(Nc1ccc(S(=O)(=O)/N=c2\cccc[n-]2)cc1)c1cccc(S(=O)(=O)N2CCc3ccccc3C2)c1

>  <Energy>  (3) 
84.66812598992118

>  <Genealogy>  (3) 
O=C(Nc1ccc(S(=O)(=O)N=c2cccc[n-]2)cc1)c1cccc(S(=O)(=O)N2CCc3ccccc3C2)c1 (protonated)
O=C(Nc1ccc(S(=O)(=O)/N=c2\cccc[n-]2)cc1)c1cccc(S(=O)(=O)N2CCc3ccccc3C2)c1 (cis-trans isomerization)
O=C(Nc1ccc(S(=O)(=O)/N=c2\cccc[n-]2)cc1)c1cccc(S(=O)(=O)N2CCc3ccccc3C2)c1 (3D coordinates assigned)
O=C(Nc1ccc(S(=O)(=O)/N=c2\cccc[n-]2)cc1)c1cccc(S(=O)(=O)N2CCc3ccccc3C2)c1 (nonaromatic ring conformer: 84.66812598992118 kcal/mol)

>  <smiles>  (3) 
O=C(Nc1ccc(S(=O)(=O)N=c2cccc[nH]2)cc1)c1cccc(S(=O)(=O)N2CCc3ccccc3C2)c1

>  <score_type>  (3) 
oracle

>  <origin>  (3) 
adgpu

>  <m_score__min__energy>  (3) 
-12.77

>  <m_primary>  (3) 
energy

$$$$
3:0
     RDKit          3D

 58 61  0  0  0  0  0  0  0  0999 V2000
   -0.5490   20.5490  -34.5690 C   0  0  0  0  0  0  0  0  0  0  0  0
   -1.1310   21.5580  -33.7480 O   0  0  0  0  0  0  0  0  0  0  0  0
   -1.6330   21.3380  -32.4560 C   0  0  0  0  0  0  0  0  0  0  0  0
   -0.9100   21.7010  -31.2990 C   0  0  0  0  0  0  0  0  0  0  0  0
   -1.4510   21.4730  -30.0300 C   0  0  0  0  0  0  0  0  0  0  0  0
   -2.7050   20.8760  -29.9010 C   0  0  0  0  0  0  0  0  0  0  0  0
   -3.4260   20.5060  -31.0390 C   0  0  0  0  0  0  0  0  0  0  0  0
   -2.9030   20.7500  -32.3170 C   0  0  0  0  0  0  0  0  0  0  0  0
   -3.6560   20.3900  -33.4790 N   0  0  0  0  0  0  0  0  0  0  0  0
   -4.4130   18.8350  -33.5960 S   0  0  0  0  0  0  0  0  0  0  0  0
   -4.4200   18.3860  -35.0320 O   0  0  0  0  0  0  0  0  0  0  0  0
   -3.6140   17.8440  -32.7950 O   0  0  0  0  0  0  0  0  0  0  0  0
   -6.0660   18.8890  -32.9720 C   0  0  0  0  0  0  0  0  0  0  0  0
   -6.6690   20.1320  -32.7290 C   0  0  0  0  0  0  0  0  0  0  0  0
   -7.9890   20.2140  -32.2610 C   0  0  0  0  0  0  0  0  0  0  0  0
   -8.5740   21.5100  -32.0330 N   0  0  0  0  0  0  0  0  0  0  0  0
   -8.5010   22.2100  -30.7480 C   0  0  0  0  0  0  0  0  0  0  0  0
   -7.1970   22.9550  -30.6240 C   0  0  0  0  0  0  0  0  0  0  0  0
   -6.8090   23.8660  -31.6190 C   0  0  0  0  0  0  0  0  0  0  0  0
   -5.5810   24.5270  -31.5280 C   0  0  0  0  0  0  0  0  0  0  0  0
   -4.7260   24.2760  -30.4500 C   0  0  0  0  0  0  0  0  0  0  0  0
   -3.5320   24.9110  -30.3700 N   0  0  0  0  0  0  0  0  0  0  0  0
   -2.6770   24.6900  -29.3390 C   0  0  0  0  0  0  0  0  0  0  0  0
   -1.5720   25.2970  -29.3270 O   0  0  0  0  0  0  0  0  0  0  0  0
   -3.0120   23.8180  -28.3330 N   0  0  0  0  0  0  0  0  0  0  0  0
   -2.0710   23.5600  -27.2290 C   0  0  0  0  0  0  0  0  0  0  0  0
   -4.2000   23.1310  -28.3910 C   0  0  0  0  0  0  0  0  0  0  0  0
   -4.4930   22.2920  -27.4930 O   0  0  0  0  0  0  0  0  0  0  0  0
   -5.0960   23.3560  -29.4530 C   0  0  0  0  0  0  0  0  0  0  0  0
   -6.3320   22.6900  -29.5500 C   0  0  0  0  0  0  0  0  0  0  0  0
   -8.7060   19.0260  -32.0360 C   0  0  0  0  0  0  0  0  0  0  0  0
   -8.1160   17.7840  -32.2830 C   0  0  0  0  0  0  0  0  0  0  0  0
   -6.7950   17.7020  -32.7590 C   0  0  0  0  0  0  0  0  0  0  0  0
   -6.1880   16.4690  -33.0490 O   0  0  0  0  0  0  0  0  0  0  0  0
   -6.4450   15.6950  -34.2170 C   0  0  0  0  0  0  0  0  0  0  0  0
   -0.1007   19.7718  -33.9325 H   0  0  0  0  0  0  0  0  0  0  0  0
   -1.3265   20.0994  -35.2041 H   0  0  0  0  0  0  0  0  0  0  0  0
    0.2295   20.9969  -35.2041 H   0  0  0  0  0  0  0  0  0  0  0  0
    0.0826   22.1649  -31.3962 H   0  0  0  0  0  0  0  0  0  0  0  0
   -0.8868   21.7649  -29.1320 H   0  0  0  0  0  0  0  0  0  0  0  0
   -3.1271   20.6962  -28.9012 H   0  0  0  0  0  0  0  0  0  0  0  0
   -4.4077   20.0214  -30.9321 H   0  0  0  0  0  0  0  0  0  0  0  0
   -4.0590   21.1560  -34.0640 H   0  0  0  0  0  0  0  0  0  0  0  0
   -6.0988   21.0555  -32.9079 H   0  0  0  0  0  0  0  0  0  0  0  0
   -9.0880   21.9630  -32.8240 H   0  0  0  0  0  0  0  0  0  0  0  0
   -9.3340   22.9249  -30.6778 H   0  0  0  0  0  0  0  0  0  0  0  0
   -8.5656   21.4701  -29.9366 H   0  0  0  0  0  0  0  0  0  0  0  0
   -7.4739   24.0603  -32.4735 H   0  0  0  0  0  0  0  0  0  0  0  0
   -5.2862   25.2464  -32.3061 H   0  0  0  0  0  0  0  0  0  0  0  0
   -2.5863   23.7013  -26.2675 H   0  0  0  0  0  0  0  0  0  0  0  0
   -1.6996   22.5269  -27.2977 H   0  0  0  0  0  0  0  0  0  0  0  0
   -1.2246   24.2592  -27.2977 H   0  0  0  0  0  0  0  0  0  0  0  0
   -6.6218   21.9586  -28.7811 H   0  0  0  0  0  0  0  0  0  0  0  0
   -9.7395   19.0747  -31.6626 H   0  0  0  0  0  0  0  0  0  0  0  0
   -8.6893   16.8625  -32.1037 H   0  0  0  0  0  0  0  0  0  0  0  0
   -6.7791   14.6888  -33.9239 H   0  0  0  0  0  0  0  0  0  0  0  0
   -7.2296   16.1823  -34.8145 H   0  0  0  0  0  0  0  0  0  0  0  0
   -5.5248   15.6162  -34.8145 H   0  0  0  0  0  0  0  0  0  0  0  0
  1  2  1  0
  2  3  1  0
  3  4  2  0
  4  5  1  0
  5  6  2  0
  6  7  1  0
  7  8  2  0
  8  9  1  0
  9 10  1  0
 10 11  2  0
 10 12  2  0
 10 13  1  0
 13 14  2  0
 14 15  1  0
 15 16  1  0
 16 17  1  0
 17 18  1  0
 18 19  2  0
 19 20  1  0
 20 21  2  0
 21 22  1  0
 22 23  1  0
 23 24  2  0
 23 25  1  0
 25 26  1  0
 25 27  1  0
 27 28  2  0
 27 29  1  0
 29 30  2  0
 15 31  2  0
 31 32  1  0
 32 33  2  0
 33 34  1  0
 34 35  1  0
  8  3  1  0
 33 13  1  0
 30 18  1  0
 29 21  1  0
  1 36  1  0
  1 37  1  0
  1 38  1  0
  4 39  1  0
  5 40  1  0
  6 41  1  0
  7 42  1  0
  9 43  1  0
 14 44  1  0
 16 45  1  0
 17 46  1  0
 17 47  1  0
 19 48  1  0
 20 49  1  0
 26 50  1  0
 26 51  1  0
 26 52  1  0
 30 53  1  0
 31 54  1  0
 32 55  1  0
 35 56  1  0
 35 57  1  0
 35 58  1  0
M  CHG  1  22  -1
M  END
>  <UniqueID>  (4) 
4

>  <SMILES>  (4) 
COc1ccccc1NS(=O)(=O)c1cc(NCc2ccc3[n-]c(=O)n(C)c(=O)c3c2)ccc1OC

>  <Energy>  (4) 
75.34346701535047

>  <Genealogy>  (4) 
COc1ccccc1NS(=O)(=O)c1cc(NCc2ccc3[n-]c(=O)n(C)c(=O)c3c2)ccc1OC (protonated)
COc1ccccc1NS(=O)(=O)c1cc(NCc2ccc3[n-]c(=O)n(C)c(=O)c3c2)ccc1OC (3D coordinates assigned)
COc1ccccc1NS(=O)(=O)c1cc(NCc2ccc3[n-]c(=O)n(C)c(=O)c3c2)ccc1OC (optimized conformer: 75.34346701535047 kcal/mol)

>  <smiles>  (4) 
COc1ccccc1NS(=O)(=O)c1cc(NCc2ccc3[nH]c(=O)n(C)c(=O)c3c2)ccc1OC

>  <score_type>  (4) 
oracle

>  <origin>  (4) 
adgpu

>  <m_score__min__energy>  (4) 
-10.970000000000001

>  <m_primary>  (4) 
energy

$$$$
4:0
     RDKit          3D

 53 55  0  0  0  0  0  0  0  0999 V2000
   -1.9920   20.5490  -26.7780 C   0  0  0  0  0  0  0  0  0  0  0  0
   -2.7300   21.6780  -27.2360 O   0  0  0  0  0  0  0  0  0  0  0  0
   -2.7950   22.0950  -28.5750 C   0  0  0  0  0  0  0  0  0  0  0  0
   -2.3740   21.2670  -29.6270 C   0  0  0  0  0  0  0  0  0  0  0  0
   -2.3850   21.7280  -30.9490 C   0  0  0  0  0  0  0  0  0  0  0  0
   -1.8630   20.8700  -32.0430 C   0  0  0  0  0  0  0  0  0  0  0  0
   -0.4830   20.8100  -32.2770 C   0  0  0  0  0  0  0  0  0  0  0  0
    0.0050   20.1060  -33.3280 N   0  0  0  0  0  0  0  0  0  0  0  0
   -0.8240   19.4470  -34.1760 C   0  0  0  0  0  0  0  0  0  0  0  0
   -0.2620   18.6540  -35.3070 C   0  0  0  0  0  0  0  0  0  0  0  0
   -2.1640   19.4560  -33.9530 N   0  0  0  0  0  0  0  0  0  0  0  0
   -2.7100   20.1390  -32.9110 C   0  0  0  0  0  0  0  0  0  0  0  0
   -4.1740   20.0610  -32.7160 C   0  0  0  0  0  0  0  0  0  0  0  0
   -4.7940   18.8460  -32.3870 C   0  0  0  0  0  0  0  0  0  0  0  0
   -6.1740   18.7900  -32.1800 C   0  0  0  0  0  0  0  0  0  0  0  0
   -6.9730   19.9450  -32.3090 C   0  0  0  0  0  0  0  0  0  0  0  0
   -8.4080   19.8870  -32.0890 N   0  0  0  0  0  0  0  0  0  0  0  0
   -9.0920   18.5950  -31.9540 C   0  0  0  0  0  0  0  0  0  0  0  0
   -9.2000   21.1200  -32.0000 C   0  0  0  0  0  0  0  0  0  0  0  0
   -6.3430   21.1560  -32.6650 C   0  0  0  0  0  0  0  0  0  0  0  0
   -4.9620   21.2100  -32.8720 C   0  0  0  0  0  0  0  0  0  0  0  0
   -2.8870   23.0050  -31.2260 C   0  0  0  0  0  0  0  0  0  0  0  0
   -3.3490   23.8410  -30.1890 C   0  0  0  0  0  0  0  0  0  0  0  0
   -3.8770   25.1110  -30.4690 O   0  0  0  0  0  0  0  0  0  0  0  0
   -5.2630   25.4360  -30.4740 C   0  0  0  0  0  0  0  0  0  0  0  0
   -3.2790   23.3840  -28.8470 C   0  0  0  0  0  0  0  0  0  0  0  0
   -3.6700   24.1590  -27.7400 O   0  0  0  0  0  0  0  0  0  0  0  0
   -2.8050   24.8360  -26.8330 C   0  0  0  0  0  0  0  0  0  0  0  0
   -1.9845   20.5375  -25.6781 H   0  0  0  0  0  0  0  0  0  0  0  0
   -2.4626   19.6274  -27.1511 H   0  0  0  0  0  0  0  0  0  0  0  0
   -0.9590   20.6102  -27.1511 H   0  0  0  0  0  0  0  0  0  0  0  0
   -2.0315   20.2443  -29.4105 H   0  0  0  0  0  0  0  0  0  0  0  0
    0.2089   21.3373  -31.6038 H   0  0  0  0  0  0  0  0  0  0  0  0
    0.3310   17.8173  -34.9091 H   0  0  0  0  0  0  0  0  0  0  0  0
   -1.0840   18.2606  -35.9231 H   0  0  0  0  0  0  0  0  0  0  0  0
    0.3816   19.2992  -35.9231 H   0  0  0  0  0  0  0  0  0  0  0  0
   -4.1894   17.9320  -32.2915 H   0  0  0  0  0  0  0  0  0  0  0  0
   -6.6441   17.8321  -31.9127 H   0  0  0  0  0  0  0  0  0  0  0  0
   -9.2182   18.3566  -30.8876 H   0  0  0  0  0  0  0  0  0  0  0  0
  -10.0789   18.6504  -32.4366 H   0  0  0  0  0  0  0  0  0  0  0  0
   -8.4914   17.8099  -32.4366 H   0  0  0  0  0  0  0  0  0  0  0  0
   -9.3638   21.3750  -30.9426 H   0  0  0  0  0  0  0  0  0  0  0  0
   -8.6591   21.9398  -32.4954 H   0  0  0  0  0  0  0  0  0  0  0  0
  -10.1705   20.9690  -32.4954 H   0  0  0  0  0  0  0  0  0  0  0  0
   -6.9460   22.0687  -32.7810 H   0  0  0  0  0  0  0  0  0  0  0  0
   -4.4898   22.1610  -33.1594 H   0  0  0  0  0  0  0  0  0  0  0  0
   -2.9215   23.3609  -32.2663 H   0  0  0  0  0  0  0  0  0  0  0  0
   -5.6235   25.5205  -29.4382 H   0  0  0  0  0  0  0  0  0  0  0  0
   -5.4132   26.3937  -30.9938 H   0  0  0  0  0  0  0  0  0  0  0  0
   -5.8233   24.6449  -30.9938 H   0  0  0  0  0  0  0  0  0  0  0  0
   -3.1024   24.6033  -25.7998 H   0  0  0  0  0  0  0  0  0  0  0  0
   -1.7688   24.5065  -26.9994 H   0  0  0  0  0  0  0  0  0  0  0  0
   -2.8759   25.9210  -26.9994 H   0  0  0  0  0  0  0  0  0  0  0  0
  1  2  1  0
  2  3  1  0
  3  4  2  0
  4  5  1  0
  5  6  1  0
  6  7  2  0
  7  8  1  0
  8  9  2  0
  9 10  1  0
  9 11  1  0
 11 12  2  0
 12 13  1  0
 13 14  2  0
 14 15  1  0
 15 16  2  0
 16 17  1  0
 17 18  1  0
 17 19  1  0
 16 20  1  0
 20 21  2  0
  5 22  2  0
 22 23  1  0
 23 24  1  0
 24 25  1  0
 23 26  2  0
 26 27  1  0
 27 28  1  0
 26  3  1  0
 12  6  1  0
 21 13  1  0
  1 29  1  0
  1 30  1  0
  1 31  1  0
  4 32  1  0
  7 33  1  0
 10 34  1  0
 10 35  1  0
 10 36  1  0
 14 37  1  0
 15 38  1  0
 18 39  1  0
 18 40  1  0
 18 41  1  0
 19 42  1  0
 19 43  1  0
 19 44  1  0
 20 45  1  0
 21 46  1  0
 22 47  1  0
 25 48  1  0
 25 49  1  0
 25 50  1  0
 28 51  1  0
 28 52  1  0
 28 53  1  0
M  END
>  <UniqueID>  (5) 
5

>  <SMILES>  (5) 
COc1cc(-c2cnc(C)nc2-c2ccc(N(C)C)cc2)cc(OC)c1OC

>  <Energy>  (5) 
68.27651758036008

>  <Genealogy>  (5) 
COc1cc(-c2cnc(C)nc2-c2ccc(N(C)C)cc2)cc(OC)c1OC (3D coordinates assigned)
COc1cc(-c2cnc(C)nc2-c2ccc(N(C)C)cc2)cc(OC)c1OC (optimized conformer: 68.27651758036008 kcal/mol)

>  <smiles>  (5) 
COc1cc(-c2cnc(C)nc2-c2ccc(N(C)C)cc2)cc(OC)c1OC

>  <score_type>  (5) 
oracle

>  <origin>  (5) 
adgpu

>  <m_score__min__energy>  (5) 
-7.6799999999999997

>  <m_primary>  (5) 
energy

$$$$
5:0
     RDKit          3D

 40 40  0  0  0  0  0  0  0  0999 V2000
   -9.2370   23.0310  -31.9840 C   0  0  0  0  0  0  0  0  0  0  0  0
   -7.7560   23.2090  -32.2790 C   0  0  0  0  0  0  0  0  0  0  0  0
   -6.9920   22.3700  -31.4190 O   0  0  0  0  0  0  0  0  0  0  0  0
   -5.6740   22.0160  -31.7170 C   0  0  0  0  0  0  0  0  0  0  0  0
   -4.6040   22.8960  -31.4280 C   0  0  0  0  0  0  0  0  0  0  0  0
   -4.8170   24.1710  -30.7030 C   0  0  0  0  0  0  0  0  0  0  0  0
   -3.9520   25.0850  -30.7910 O   0  0  0  0  0  0  0  0  0  0  0  0
   -5.9780   24.3650  -29.8810 N   0  0  0  0  0  0  0  0  0  0  0  0
   -6.3130   25.6700  -29.3270 C   0  0  0  0  0  0  0  0  0  0  0  0
   -3.3050   22.5540  -31.8360 C   0  0  0  0  0  0  0  0  0  0  0  0
   -3.0600   21.3410  -32.4800 C   0  0  0  0  0  0  0  0  0  0  0  0
   -1.2830   20.8840  -33.0130 Br  0  0  0  0  0  0  0  0  0  0  0  0
   -4.1090   20.4540  -32.7240 C   0  0  0  0  0  0  0  0  0  0  0  0
   -5.4180   20.7790  -32.3400 C   0  0  0  0  0  0  0  0  0  0  0  0
   -6.4960   19.8600  -32.6100 N   0  0  0  0  0  0  0  0  0  0  0  0
   -6.4680   19.0560  -33.8430 C   0  0  0  0  0  0  0  0  0  0  0  0
   -6.3880   17.5620  -33.5390 C   0  0  0  0  0  0  0  0  0  0  0  0
   -7.5240   19.6360  -31.5790 C   0  0  0  0  0  0  0  0  0  0  0  0
   -8.9170   19.5020  -32.1900 C   0  0  0  0  0  0  0  0  0  0  0  0
   -9.3944   23.0121  -30.8955 H   0  0  0  0  0  0  0  0  0  0  0  0
   -9.8012   23.8678  -32.4216 H   0  0  0  0  0  0  0  0  0  0  0  0
   -9.5868   22.0843  -32.4216 H   0  0  0  0  0  0  0  0  0  0  0  0
   -7.5565   22.9380  -33.3263 H   0  0  0  0  0  0  0  0  0  0  0  0
   -7.4740   24.2586  -32.1093 H   0  0  0  0  0  0  0  0  0  0  0  0
   -6.5940   23.5530  -29.6520 H   0  0  0  0  0  0  0  0  0  0  0  0
   -6.2993   25.6164  -28.2284 H   0  0  0  0  0  0  0  0  0  0  0  0
   -5.5764   26.4128  -29.6671 H   0  0  0  0  0  0  0  0  0  0  0  0
   -7.3163   25.9662  -29.6671 H   0  0  0  0  0  0  0  0  0  0  0  0
   -2.4733   23.2484  -31.6463 H   0  0  0  0  0  0  0  0  0  0  0  0
   -3.9079   19.4934  -33.2209 H   0  0  0  0  0  0  0  0  0  0  0  0
   -7.3838   19.2544  -34.4192 H   0  0  0  0  0  0  0  0  0  0  0  0
   -5.5732   19.3383  -34.4172 H   0  0  0  0  0  0  0  0  0  0  0  0
   -6.3798   17.4094  -32.4497 H   0  0  0  0  0  0  0  0  0  0  0  0
   -7.2601   17.0521  -33.9742 H   0  0  0  0  0  0  0  0  0  0  0  0
   -5.4664   17.1481  -33.9742 H   0  0  0  0  0  0  0  0  0  0  0  0
   -7.2845   18.7124  -31.0316 H   0  0  0  0  0  0  0  0  0  0  0  0
   -7.5277   20.5046  -30.9041 H   0  0  0  0  0  0  0  0  0  0  0  0
   -9.6646   19.4301  -31.3863 H   0  0  0  0  0  0  0  0  0  0  0  0
   -9.1310   20.3837  -32.8119 H   0  0  0  0  0  0  0  0  0  0  0  0
   -8.9590   18.5957  -32.8119 H   0  0  0  0  0  0  0  0  0  0  0  0
  1  2  1  0
  2  3  1  0
  3  4  1  0
  4  5  2  0
  5  6  1  0
  6  7  2  0
  6  8  1  0
  8  9  1  0
  5 10  1  0
 10 11  2  0
 11 12  1  0
 11 13  1  0
 13 14  2  0
 14 15  1  0
 15 16  1  0
 16 17  1  0
 15 18  1  0
 18 19  1  0
 14  4  1  0
  1 20  1  0
  1 21  1  0
  1 22  1  0
  2 23  1  0
  2 24  1  0
  8 25  1  0
  9 26  1  0
  9 27  1  0
  9 28  1  0
 10 29  1  0
 13 30  1  0
 16 31  1  0
 16 32  1  0
 17 33  1  0
 17 34  1  0
 17 35  1  0
 18 36  1  0
 18 37  1  0
 19 38  1  0
 19 39  1  0
 19 40  1  0
M  END
>  <UniqueID>  (6) 
6

>  <SMILES>  (6) 
CCOc1c(C(=O)NC)cc(Br)cc1N(CC)CC

>  <Energy>  (6) 
40.21182072799268

>  <Genealogy>  (6) 
CCOc1c(C(=O)NC)cc(Br)cc1N(CC)CC (3D coordinates assigned)
CCOc1c(C(=O)NC)cc(Br)cc1N(CC)CC (optimized conformer: 40.21182072799268 kcal/mol)

>  <smiles>  (6) 
CCOc1c(C(=O)NC)cc(Br)cc1N(CC)CC

>  <score_type>  (6) 
oracle

>  <origin>  (6) 
adgpu

>  <m_score__min__energy>  (6) 
-6.71

>  <m_primary>  (6) 
energy

$$$$
6:0
     RDKit          3D

 28 29  0  0  0  0  0  0  0  0999 V2000
   -5.1870   19.3420  -33.5690 C   0  0  0  0  0  0  0  0  0  0  0  0
   -4.5400   20.9200  -32.9370 S   0  0  0  0  0  0  0  0  0  0  0  0
   -6.1440   21.4780  -32.3440 C   0  0  0  0  0  0  0  0  0  0  0  0
   -7.2430   20.6150  -32.4390 C   0  0  0  0  0  0  0  0  0  0  0  0
   -8.4980   21.0210  -31.9790 C   0  0  0  0  0  0  0  0  0  0  0  0
   -8.6570   22.2860  -31.4120 C   0  0  0  0  0  0  0  0  0  0  0  0
   -7.5660   23.1530  -31.3120 C   0  0  0  0  0  0  0  0  0  0  0  0
   -6.3020   22.7640  -31.7940 C   0  0  0  0  0  0  0  0  0  0  0  0
   -5.1570   23.6250  -31.6830 N   0  0  0  0  0  0  0  0  0  0  0  0
   -4.9270   24.6140  -30.6720 C   0  0  0  0  0  0  0  0  0  0  0  0
   -5.5780   25.6930  -30.6650 O   0  0  0  0  0  0  0  0  0  0  0  0
   -3.8840   24.3830  -29.6690 C   0  0  0  0  0  0  0  0  0  0  0  0
   -3.9880   23.5640  -28.5570 C   0  0  0  0  0  0  0  0  0  0  0  0
   -2.7750   23.6540  -27.9060 C   0  0  0  0  0  0  0  0  0  0  0  0
   -2.0160   24.5220  -28.6660 C   0  0  0  0  0  0  0  0  0  0  0  0
   -0.6750   24.9210  -28.3770 N   0  0  0  0  0  0  0  0  0  0  0  0
    0.2730   24.1440  -28.6160 O   0  0  0  0  0  0  0  0  0  0  0  0
   -0.4160   26.1600  -27.8380 O   0  0  0  0  0  0  0  0  0  0  0  0
   -2.6950   24.9410  -29.7080 O   0  0  0  0  0  0  0  0  0  0  0  0
   -5.4541   18.6905  -32.7239 H   0  0  0  0  0  0  0  0  0  0  0  0
   -6.0801   19.5313  -34.1826 H   0  0  0  0  0  0  0  0  0  0  0  0
   -4.4181   18.8499  -34.1826 H   0  0  0  0  0  0  0  0  0  0  0  0
   -7.1175   19.6140  -32.8774 H   0  0  0  0  0  0  0  0  0  0  0  0
   -9.3606   20.3437  -32.0637 H   0  0  0  0  0  0  0  0  0  0  0  0
   -9.6440   22.6015  -31.0428 H   0  0  0  0  0  0  0  0  0  0  0  0
   -7.6955   24.1448  -30.8542 H   0  0  0  0  0  0  0  0  0  0  0  0
   -4.8594   22.9645  -28.2548 H   0  0  0  0  0  0  0  0  0  0  0  0
   -2.4760   23.1431  -26.9789 H   0  0  0  0  0  0  0  0  0  0  0  0
  1  2  1  0
  2  3  1  0
  3  4  2  0
  4  5  1  0
  5  6  2  0
  6  7  1  0
  7  8  2  0
  8  9  1  0
  9 10  1  0
 10 11  2  0
 10 12  1  0
 12 13  2  0
 13 14  1  0
 14 15  2  0
 15 16  1  0
 16 17  2  0
 16 18  1  0
 15 19  1  0
  8  3  1  0
 19 12  1  0
  1 20  1  0
  1 21  1  0
  1 22  1  0
  4 23  1  0
  5 24  1  0
  6 25  1  0
  7 26  1  0
 13 27  1  0
 14 28  1  0
M  CHG  3   9  -1  16   1  18  -1
M  END
>  <UniqueID>  (7) 
7

>  <SMILES>  (7) 
CSc1ccccc1[N-]C(=O)c1ccc([N+](=O)[O-])o1

>  <Energy>  (7) 
52.856781807725326

>  <Genealogy>  (7) 
CSc1ccccc1[N-]C(=O)c1ccc([N+](=O)[O-])o1 (protonated)
CSc1ccccc1[N-]C(=O)c1ccc([N+](=O)[O-])o1 (3D coordinates assigned)
CSc1ccccc1[N-]C(=O)c1ccc([N+](=O)[O-])o1 (optimized conformer: 52.856781807725326 kcal/mol)

>  <smiles>  (7) 
CSc1ccccc1NC(=O)c1ccc([N+](=O)[O-])o1

>  <score_type>  (7) 
oracle

>  <origin>  (7) 
adgpu

>  <m_score__min__energy>  (7) 
-8.0700000000000003

>  <m_primary>  (7) 
energy

$$$$
7:0
     RDKit          3D

 56 59  0  0  0  0  0  0  0  0999 V2000
   -3.8630   17.5070  -34.5280 C   0  0  0  0  0  0  0  0  0  0  0  0
   -3.4310   18.8640  -34.5500 O   0  0  0  0  0  0  0  0  0  0  0  0
   -3.5730   19.7580  -33.4770 C   0  0  0  0  0  0  0  0  0  0  0  0
   -2.4610   20.3180  -32.8200 C   0  0  0  0  0  0  0  0  0  0  0  0
   -2.6400   21.1850  -31.7420 C   0  0  0  0  0  0  0  0  0  0  0  0
   -3.9300   21.5090  -31.3030 C   0  0  0  0  0  0  0  0  0  0  0  0
   -4.1210   22.3520  -30.1070 C   0  0  0  0  0  0  0  0  0  0  0  0
   -5.2180   22.2990  -29.4900 O   0  0  0  0  0  0  0  0  0  0  0  0
   -3.0470   23.2400  -29.6070 C   0  0  0  0  0  0  0  0  0  0  0  0
   -2.9830   24.6120  -29.7680 C   0  0  0  0  0  0  0  0  0  0  0  0
   -3.8730   25.4050  -30.4810 O   0  0  0  0  0  0  0  0  0  0  0  0
   -1.8860   25.0570  -29.0700 C   0  0  0  0  0  0  0  0  0  0  0  0
   -1.4900   26.3840  -28.9520 O   0  0  0  0  0  0  0  0  0  0  0  0
   -1.2530   24.0220  -28.4860 N   0  0  0  0  0  0  0  0  0  0  0  0
   -0.1830   24.1270  -27.5380 C   0  0  0  0  0  0  0  0  0  0  0  0
    1.1470   24.0130  -27.9660 C   0  0  0  0  0  0  0  0  0  0  0  0
    2.1950   24.1360  -27.0500 C   0  0  0  0  0  0  0  0  0  0  0  0
    1.9220   24.3740  -25.6950 C   0  0  0  0  0  0  0  0  0  0  0  0
    3.2360   24.5310  -24.5330 S   0  0  0  0  0  0  0  0  0  0  0  0
    2.9930   23.4190  -23.2320 N   0  0  0  0  0  0  0  0  0  0  0  0
    4.5520   24.2410  -25.2010 O   0  0  0  0  0  0  0  0  0  0  0  0
    3.2670   25.9360  -23.9950 O   0  0  0  0  0  0  0  0  0  0  0  0
    0.5930   24.4670  -25.2620 C   0  0  0  0  0  0  0  0  0  0  0  0
   -0.4560   24.3430  -26.1790 C   0  0  0  0  0  0  0  0  0  0  0  0
   -1.9580   22.9050  -28.7960 C   0  0  0  0  0  0  0  0  0  0  0  0
   -1.7220   21.5850  -28.1790 C   0  0  0  0  0  0  0  0  0  0  0  0
   -2.7080   20.9920  -27.3780 C   0  0  0  0  0  0  0  0  0  0  0  0
   -2.4470   19.7890  -26.7210 C   0  0  0  0  0  0  0  0  0  0  0  0
   -1.2000   19.1700  -26.8580 C   0  0  0  0  0  0  0  0  0  0  0  0
   -0.2010   19.7500  -27.6590 C   0  0  0  0  0  0  0  0  0  0  0  0
    1.0880   19.1190  -27.7850 N   0  0  0  0  0  0  0  0  0  0  0  0
    1.1890   17.8740  -27.8040 O   0  0  0  0  0  0  0  0  0  0  0  0
    2.2320   19.8790  -27.8820 O   0  0  0  0  0  0  0  0  0  0  0  0
   -0.4760   20.9560  -28.3270 C   0  0  0  0  0  0  0  0  0  0  0  0
   -5.0410   20.9830  -31.9740 C   0  0  0  0  0  0  0  0  0  0  0  0
   -4.8690   20.0910  -33.0510 C   0  0  0  0  0  0  0  0  0  0  0  0
   -5.9570   19.5020  -33.7100 O   0  0  0  0  0  0  0  0  0  0  0  0
   -7.2120   19.2180  -33.1000 C   0  0  0  0  0  0  0  0  0  0  0  0
   -3.9694   17.1729  -33.4854 H   0  0  0  0  0  0  0  0  0  0  0  0
   -4.8325   17.4225  -35.0408 H   0  0  0  0  0  0  0  0  0  0  0  0
   -3.1208   16.8776  -35.0408 H   0  0  0  0  0  0  0  0  0  0  0  0
   -1.4443   20.0703  -33.1589 H   0  0  0  0  0  0  0  0  0  0  0  0
   -1.7644   21.6160  -31.2346 H   0  0  0  0  0  0  0  0  0  0  0  0
    1.3666   23.8259  -29.0275 H   0  0  0  0  0  0  0  0  0  0  0  0
    3.2365   24.0460  -27.3924 H   0  0  0  0  0  0  0  0  0  0  0  0
    1.9630   23.2530  -23.1600 H   0  0  0  0  0  0  0  0  0  0  0  0
    0.3737   24.6380  -24.1977 H   0  0  0  0  0  0  0  0  0  0  0  0
   -1.4979   24.4151  -25.8336 H   0  0  0  0  0  0  0  0  0  0  0  0
   -3.6895   21.4761  -27.2672 H   0  0  0  0  0  0  0  0  0  0  0  0
   -3.2234   19.3264  -26.0940 H   0  0  0  0  0  0  0  0  0  0  0  0
   -0.9998   18.2230  -26.3354 H   0  0  0  0  0  0  0  0  0  0  0  0
    0.2915   21.4104  -28.9708 H   0  0  0  0  0  0  0  0  0  0  0  0
   -6.0553   21.2683  -31.6579 H   0  0  0  0  0  0  0  0  0  0  0  0
   -7.1018   19.2429  -32.0058 H   0  0  0  0  0  0  0  0  0  0  0  0
   -7.9500   19.9718  -33.4115 H   0  0  0  0  0  0  0  0  0  0  0  0
   -7.5536   18.2199  -33.4115 H   0  0  0  0  0  0  0  0  0  0  0  0
  1  2  1  0
  2  3  1  0
  3  4  2  0
  4  5  1  0
  5  6  2  0
  6  7  1  0
  7  8  2  0
  7  9  1  0
  9 10  1  0
 10 11  1  0
 10 12  2  0
 12 13  1  0
 12 14  1  0
 14 15  1  0
 15 16  2  0
 16 17  1  0
 17 18  2  0
 18 19  1  0
 19 20  1  0
 19 21  2  0
 19 22  2  0
 18 23  1  0
 23 24  2  0
 14 25  1  0
 25 26  1  0
 26 27  2  0
 27 28  1  0
 28 29  2  0
 29 30  1  0
 30 31  1  0
 31 32  2  0
 31 33  1  0
 30 34  2  0
  6 35  1  0
 35 36  2  0
 36 37  1  0
 37 38  1  0
 36  3  1  0
 25  9  2  0
 34 26  1  0
 24 15  1  0
  1 39  1  0
  1 40  1  0
  1 41  1  0
  4 42  1  0
  5 43  1  0
 16 44  1  0
 17 45  1  0
 20 46  1  0
 23 47  1  0
 24 48  1  0
 27 49  1  0
 28 50  1  0
 29 51  1  0
 34 52  1  0
 35 53  1  0
 38 54  1  0
 38 55  1  0
 38 56  1  0
M  CHG  5  11  -1  13  -1  20  -1  31   1  33  -1
M  END
>  <UniqueID>  (8) 
8

>  <SMILES>  (8) 
COc1ccc(C(=O)c2c([O-])c([O-])n(-c3ccc(S([NH-])(=O)=O)cc3)c2-c2cccc([N+](=O)[O-])c2)cc1OC

>  <Energy>  (8) 
106.05319502782473

>  <Genealogy>  (8) 
COc1ccc(C(=O)c2c([O-])c([O-])n(-c3ccc(S([NH-])(=O)=O)cc3)c2-c2cccc([N+](=O)[O-])c2)cc1OC (protonated)
COc1ccc(C(=O)c2c([O-])c([O-])n(-c3ccc(S([NH-])(=O)=O)cc3)c2-c2cccc([N+](=O)[O-])c2)cc1OC (3D coordinates assigned)
COc1ccc(C(=O)c2c([O-])c([O-])n(-c3ccc(S([NH-])(=O)=O)cc3)c2-c2cccc([N+](=O)[O-])c2)cc1OC (optimized conformer: 106.05319502782473 kcal/mol)

>  <smiles>  (8) 
COc1ccc(C(=O)c2c(O)c(O)n(-c3ccc(S(N)(=O)=O)cc3)c2-c2cccc([N+](=O)[O-])c2)cc1OC

>  <score_type>  (8) 
oracle

>  <origin>  (8) 
adgpu

>  <m_score__min__energy>  (8) 
-14.65

>  <m_primary>  (8) 
energy

$$$$
8:0
     RDKit          3D

 62 65  0  0  0  0  0  0  0  0999 V2000
   -0.9430   26.7530  -23.8360 C   0  0  0  0  0  0  0  0  0  0  0  0
   -0.5330   25.3910  -23.9130 O   0  0  0  0  0  0  0  0  0  0  0  0
   -0.8030   24.5440  -24.9990 C   0  0  0  0  0  0  0  0  0  0  0  0
   -0.4670   23.1760  -24.9920 C   0  0  0  0  0  0  0  0  0  0  0  0
   -0.7620   22.3730  -26.0980 C   0  0  0  0  0  0  0  0  0  0  0  0
   -1.3900   22.9220  -27.2180 C   0  0  0  0  0  0  0  0  0  0  0  0
   -1.7240   24.2860  -27.2420 C   0  0  0  0  0  0  0  0  0  0  0  0
   -2.4250   24.8810  -28.4330 C   0  0  0  0  0  0  0  0  0  0  0  0
   -3.0930   23.8320  -29.1980 N   0  0  0  0  0  0  0  0  0  0  0  0
   -3.8460   24.1140  -30.3910 C   0  0  0  0  0  0  0  0  0  0  0  0
   -3.9010   25.2970  -30.8250 O   0  0  0  0  0  0  0  0  0  0  0  0
   -4.5450   23.0370  -31.1320 C   0  0  0  0  0  0  0  0  0  0  0  0
   -3.8900   22.3060  -32.1560 C   0  0  0  0  0  0  0  0  0  0  0  0
   -4.5590   21.2890  -32.8590 C   0  0  0  0  0  0  0  0  0  0  0  0
   -5.8850   21.0070  -32.5170 C   0  0  0  0  0  0  0  0  0  0  0  0
   -6.5220   21.7060  -31.5230 C   0  0  0  0  0  0  0  0  0  0  0  0
   -5.8830   22.7200  -30.8070 C   0  0  0  0  0  0  0  0  0  0  0  0
   -7.8120   21.2210  -31.4420 C   0  0  0  0  0  0  0  0  0  0  0  0
   -8.8880   21.6670  -30.4980 C   0  0  0  0  0  0  0  0  0  0  0  0
   -7.8920   20.2000  -32.3900 C   0  0  0  0  0  0  0  0  0  0  0  0
   -9.1350   19.4190  -32.7090 C   0  0  0  0  0  0  0  0  0  0  0  0
   -6.7120   20.0820  -33.0600 N   0  0  0  0  0  0  0  0  0  0  0  0
   -6.4400   19.2180  -34.2150 C   0  0  0  0  0  0  0  0  0  0  0  0
   -5.3490   18.2360  -33.8840 C   0  0  0  0  0  0  0  0  0  0  0  0
   -4.0150   18.5120  -34.2200 C   0  0  0  0  0  0  0  0  0  0  0  0
   -2.9960   17.6050  -33.8960 C   0  0  0  0  0  0  0  0  0  0  0  0
   -1.5690   17.9240  -34.2310 C   0  0  0  0  0  0  0  0  0  0  0  0
   -3.3110   16.4310  -33.1950 C   0  0  0  0  0  0  0  0  0  0  0  0
   -4.6380   16.1540  -32.8350 C   0  0  0  0  0  0  0  0  0  0  0  0
   -4.9780   14.8800  -32.1200 C   0  0  0  0  0  0  0  0  0  0  0  0
   -5.6550   17.0490  -33.2000 C   0  0  0  0  0  0  0  0  0  0  0  0
   -1.4320   25.0870  -26.1260 C   0  0  0  0  0  0  0  0  0  0  0  0
   -1.0324   27.0499  -22.7806 H   0  0  0  0  0  0  0  0  0  0  0  0
   -0.1966   27.3893  -24.3340 H   0  0  0  0  0  0  0  0  0  0  0  0
   -1.9166   26.8715  -24.3340 H   0  0  0  0  0  0  0  0  0  0  0  0
    0.0292   22.7380  -24.1134 H   0  0  0  0  0  0  0  0  0  0  0  0
   -0.4985   21.3051  -26.0858 H   0  0  0  0  0  0  0  0  0  0  0  0
   -1.6237   22.2846  -28.0835 H   0  0  0  0  0  0  0  0  0  0  0  0
   -3.1717   25.6114  -28.0882 H   0  0  0  0  0  0  0  0  0  0  0  0
   -1.6836   25.3785  -29.0756 H   0  0  0  0  0  0  0  0  0  0  0  0
   -2.9190   22.8420  -28.9110 H   0  0  0  0  0  0  0  0  0  0  0  0
   -2.8437   22.5382  -32.4035 H   0  0  0  0  0  0  0  0  0  0  0  0
   -4.0518   20.7289  -33.6584 H   0  0  0  0  0  0  0  0  0  0  0  0
   -6.4099   23.2606  -30.0069 H   0  0  0  0  0  0  0  0  0  0  0  0
   -8.5479   21.5260  -29.4614 H   0  0  0  0  0  0  0  0  0  0  0  0
   -9.1089   22.7308  -30.6700 H   0  0  0  0  0  0  0  0  0  0  0  0
   -9.7967   21.0714  -30.6700 H   0  0  0  0  0  0  0  0  0  0  0  0
   -9.6249   19.1112  -31.7734 H   0  0  0  0  0  0  0  0  0  0  0  0
   -9.8230   20.0474  -33.2936 H   0  0  0  0  0  0  0  0  0  0  0  0
   -8.8673   18.5265  -33.2936 H   0  0  0  0  0  0  0  0  0  0  0  0
   -7.3550   18.6685  -34.4811 H   0  0  0  0  0  0  0  0  0  0  0  0
   -6.1168   19.8417  -35.0615 H   0  0  0  0  0  0  0  0  0  0  0  0
   -3.7665   19.4478  -34.7420 H   0  0  0  0  0  0  0  0  0  0  0  0
   -0.9942   18.0525  -33.3020 H   0  0  0  0  0  0  0  0  0  0  0  0
   -1.1373   17.1002  -34.8183 H   0  0  0  0  0  0  0  0  0  0  0  0
   -1.5292   18.8532  -34.8183 H   0  0  0  0  0  0  0  0  0  0  0  0
   -2.5125   15.7237  -32.9262 H   0  0  0  0  0  0  0  0  0  0  0  0
   -4.9336   15.0462  -31.0335 H   0  0  0  0  0  0  0  0  0  0  0  0
   -5.9926   14.5613  -32.4011 H   0  0  0  0  0  0  0  0  0  0  0  0
   -4.2571   14.0982  -32.4011 H   0  0  0  0  0  0  0  0  0  0  0  0
   -6.7007   16.8186  -32.9481 H   0  0  0  0  0  0  0  0  0  0  0  0
   -1.7006   26.1536  -26.1374 H   0  0  0  0  0  0  0  0  0  0  0  0
  1  2  1  0
  2  3  1  0
  3  4  2  0
  4  5  1  0
  5  6  2  0
  6  7  1  0
  7  8  1  0
  8  9  1  0
  9 10  1  0
 10 11  2  0
 10 12  1  0
 12 13  2  0
 13 14  1  0
 14 15  2  0
 15 16  1  0
 16 17  2  0
 16 18  1  0
 18 19  1  0
 18 20  2  0
 20 21  1  0
 20 22  1  0
 22 23  1  0
 23 24  1  0
 24 25  2  0
 25 26  1  0
 26 27  1  0
 26 28  2  0
 28 29  1  0
 29 30  1  0
 29 31  2  0
  7 32  2  0
 32  3  1  0
 17 12  1  0
 31 24  1  0
 22 15  1  0
  1 33  1  0
  1 34  1  0
  1 35  1  0
  4 36  1  0
  5 37  1  0
  6 38  1  0
  8 39  1  0
  8 40  1  0
  9 41  1  0
 13 42  1  0
 14 43  1  0
 17 44  1  0
 19 45  1  0
 19 46  1  0
 19 47  1  0
 21 48  1  0
 21 49  1  0
 21 50  1  0
 23 51  1  0
 23 52  1  0
 25 53  1  0
 27 54  1  0
 27 55  1  0
 27 56  1  0
 28 57  1  0
 30 58  1  0
 30 59  1  0
 30 60  1  0
 31 61  1  0
 32 62  1  0
M  END
>  <UniqueID>  (9) 
9

>  <SMILES>  (9) 
COc1cccc(CNC(=O)c2ccc3c(c2)c(C)c(C)n3Cc2cc(C)cc(C)c2)c1

>  <Energy>  (9) 
94.97231093806121

>  <Genealogy>  (9) 
COc1cccc(CNC(=O)c2ccc3c(c2)c(C)c(C)n3Cc2cc(C)cc(C)c2)c1 (3D coordinates assigned)
COc1cccc(CNC(=O)c2ccc3c(c2)c(C)c(C)n3Cc2cc(C)cc(C)c2)c1 (optimized conformer: 94.97231093806121 kcal/mol)

>  <smiles>  (9) 
COc1cccc(CNC(=O)c2ccc3c(c2)c(C)c(C)n3Cc2cc(C)cc(C)c2)c1

>  <score_type>  (9) 
oracle

>  <origin>  (9) 
adgpu

>  <m_score__min__energy>  (9) 
-10.369999999999999

>  <m_primary>  (9) 
energy

$$$$
9:0
     RDKit          3D

 31 32  0  0  0  0  0  0  0  0999 V2000
   -3.5270   25.1410  -30.6700 N   0  0  0  0  0  0  0  0  0  0  0  0
   -5.0880   24.9820  -29.9460 S   0  0  0  0  0  0  0  0  0  0  0  0
   -4.9330   24.7270  -28.4740 O   0  0  0  0  0  0  0  0  0  0  0  0
   -5.8630   26.2570  -30.1350 O   0  0  0  0  0  0  0  0  0  0  0  0
   -5.9520   23.6440  -30.6980 C   0  0  0  0  0  0  0  0  0  0  0  0
   -5.2740   22.4600  -31.0230 C   0  0  0  0  0  0  0  0  0  0  0  0
   -5.9570   21.4030  -31.6320 C   0  0  0  0  0  0  0  0  0  0  0  0
   -7.3310   21.5150  -31.9110 C   0  0  0  0  0  0  0  0  0  0  0  0
   -8.0570   20.4610  -32.5600 N   0  0  0  0  0  0  0  0  0  0  0  0
   -7.7480   19.0640  -32.4930 C   0  0  0  0  0  0  0  0  0  0  0  0
   -8.6540   18.2580  -32.1530 O   0  0  0  0  0  0  0  0  0  0  0  0
   -6.4060   18.5970  -32.7050 N   0  0  0  0  0  0  0  0  0  0  0  0
   -6.0690   17.2310  -33.0010 C   0  0  0  0  0  0  0  0  0  0  0  0
   -6.8440   16.5140  -33.9270 C   0  0  0  0  0  0  0  0  0  0  0  0
   -6.5510   15.1780  -34.2140 C   0  0  0  0  0  0  0  0  0  0  0  0
   -5.4880   14.5400  -33.5690 C   0  0  0  0  0  0  0  0  0  0  0  0
   -5.0910   12.7130  -33.9600 Br  0  0  0  0  0  0  0  0  0  0  0  0
   -4.7240   15.2360  -32.6290 C   0  0  0  0  0  0  0  0  0  0  0  0
   -5.0140   16.5740  -32.3400 C   0  0  0  0  0  0  0  0  0  0  0  0
   -7.9950   22.7110  -31.6160 C   0  0  0  0  0  0  0  0  0  0  0  0
   -7.3120   23.7690  -31.0070 C   0  0  0  0  0  0  0  0  0  0  0  0
   -3.5350   26.0300  -31.2200 H   0  0  0  0  0  0  0  0  0  0  0  0
   -4.2016   22.3628  -30.7981 H   0  0  0  0  0  0  0  0  0  0  0  0
   -5.4179   20.4806  -31.8939 H   0  0  0  0  0  0  0  0  0  0  0  0
   -5.6260   19.2740  -32.5480 H   0  0  0  0  0  0  0  0  0  0  0  0
   -7.6883   17.0078  -34.4304 H   0  0  0  0  0  0  0  0  0  0  0  0
   -7.1578   14.6280  -34.9484 H   0  0  0  0  0  0  0  0  0  0  0  0
   -3.8928   14.7311  -32.1150 H   0  0  0  0  0  0  0  0  0  0  0  0
   -4.4148   17.1150  -31.5928 H   0  0  0  0  0  0  0  0  0  0  0  0
   -9.0610   22.8198  -31.8646 H   0  0  0  0  0  0  0  0  0  0  0  0
   -7.8448   24.7018  -30.7702 H   0  0  0  0  0  0  0  0  0  0  0  0
  1  2  1  0
  2  3  2  0
  2  4  2  0
  2  5  1  0
  5  6  2  0
  6  7  1  0
  7  8  2  0
  8  9  1  0
  9 10  1  0
 10 11  2  0
 10 12  1  0
 12 13  1  0
 13 14  2  0
 14 15  1  0
 15 16  2  0
 16 17  1  0
 16 18  1  0
 18 19  2  0
  8 20  1  0
 20 21  2  0
 21  5  1  0
 19 13  1  0
  1 22  1  0
  6 23  1  0
  7 24  1  0
 12 25  1  0
 14 26  1  0
 15 27  1  0
 18 28  1  0
 19 29  1  0
 20 30  1  0
 21 31  1  0
M  CHG  2   1  -1   9  -1
M  END
>  <UniqueID>  (10) 
10

>  <SMILES>  (10) 
[NH-]S(=O)(=O)c1ccc([N-]C(=O)Nc2ccc(Br)cc2)cc1

>  <Energy>  (10) 
38.08053092628626

>  <Genealogy>  (10) 
[NH-]S(=O)(=O)c1ccc([N-]C(=O)Nc2ccc(Br)cc2)cc1 (protonated)
[NH-]S(=O)(=O)c1ccc([N-]C(=O)Nc2ccc(Br)cc2)cc1 (3D coordinates assigned)
[NH-]S(=O)(=O)c1ccc([N-]C(=O)Nc2ccc(Br)cc2)cc1 (optimized conformer: 38.08053092628626 kcal/mol)

>  <smiles>  (10) 
NS(=O)(=O)c1ccc(NC(=O)Nc2ccc(Br)cc2)cc1

>  <score_type>  (10) 
oracle

>  <origin>  (10) 
adgpu

>  <m_score__min__energy>  (10) 
-9.9800000000000004

>  <m_primary>  (10) 
energy

$$$$
10:0
     RDKit          3D

 60 64  0  0  0  0  0  0  0  0999 V2000
    1.8420   28.9210  -21.9830 C   0  0  0  0  0  0  0  0  0  0  0  0
    1.1920   29.1610  -23.2280 O   0  0  0  0  0  0  0  0  0  0  0  0
    0.4970   28.1870  -23.9590 C   0  0  0  0  0  0  0  0  0  0  0  0
   -0.0990   27.0680  -23.3500 C   0  0  0  0  0  0  0  0  0  0  0  0
   -0.7830   26.1230  -24.1220 C   0  0  0  0  0  0  0  0  0  0  0  0
   -0.8850   26.2770  -25.5180 C   0  0  0  0  0  0  0  0  0  0  0  0
   -1.6050   25.2860  -26.3560 C   0  0  0  0  0  0  0  0  0  0  0  0
   -0.9800   24.2200  -26.9310 N   0  0  0  0  0  0  0  0  0  0  0  0
   -1.9760   23.6000  -27.5880 C   0  0  0  0  0  0  0  0  0  0  0  0
   -1.8950   22.4470  -28.3630 C   0  0  0  0  0  0  0  0  0  0  0  0
   -3.0830   21.9700  -28.9700 C   0  0  0  0  0  0  0  0  0  0  0  0
   -3.0740   20.7990  -29.8030 N   0  0  0  0  0  0  0  0  0  0  0  0
   -2.2680   20.6610  -30.9870 C   0  0  0  0  0  0  0  0  0  0  0  0
   -1.1460   19.8140  -30.9730 C   0  0  0  0  0  0  0  0  0  0  0  0
   -0.3910   19.6150  -32.1300 C   0  0  0  0  0  0  0  0  0  0  0  0
   -0.7510   20.2530  -33.3160 C   0  0  0  0  0  0  0  0  0  0  0  0
   -1.8700   21.0870  -33.3510 C   0  0  0  0  0  0  0  0  0  0  0  0
   -2.6490   21.2890  -32.1980 C   0  0  0  0  0  0  0  0  0  0  0  0
   -3.8190   22.1990  -32.2590 C   0  0  0  0  0  0  0  0  0  0  0  0
   -3.8050   23.2710  -31.5980 O   0  0  0  0  0  0  0  0  0  0  0  0
   -4.9570   21.9170  -33.0860 N   0  0  0  0  0  0  0  0  0  0  0  0
   -6.1140   21.1710  -32.6800 C   0  0  0  0  0  0  0  0  0  0  0  0
   -6.1210   19.7940  -32.9190 C   0  0  0  0  0  0  0  0  0  0  0  0
   -7.1870   19.0060  -32.4950 C   0  0  0  0  0  0  0  0  0  0  0  0
   -8.2610   19.5850  -31.8240 C   0  0  0  0  0  0  0  0  0  0  0  0
   -8.2960   20.9700  -31.5900 C   0  0  0  0  0  0  0  0  0  0  0  0
   -9.4880   21.5540  -30.8780 C   0  0  0  0  0  0  0  0  0  0  0  0
   -7.2380   21.7870  -32.0690 C   0  0  0  0  0  0  0  0  0  0  0  0
   -7.3200   23.2900  -31.9320 C   0  0  0  0  0  0  0  0  0  0  0  0
   -4.2940   22.6900  -28.7980 C   0  0  0  0  0  0  0  0  0  0  0  0
   -4.3340   23.8540  -28.0070 C   0  0  0  0  0  0  0  0  0  0  0  0
   -3.1450   24.2720  -27.4160 C   0  0  0  0  0  0  0  0  0  0  0  0
   -2.9340   25.3420  -26.6400 N   0  0  0  0  0  0  0  0  0  0  0  0
   -0.2820   27.3970  -26.1180 C   0  0  0  0  0  0  0  0  0  0  0  0
    0.3990   28.3400  -25.3450 C   0  0  0  0  0  0  0  0  0  0  0  0
    1.1592   29.1731  -21.1583 H   0  0  0  0  0  0  0  0  0  0  0  0
    2.1232   27.8597  -21.9148 H   0  0  0  0  0  0  0  0  0  0  0  0
    2.7454   29.5448  -21.9148 H   0  0  0  0  0  0  0  0  0  0  0  0
   -0.0268   26.9352  -22.2604 H   0  0  0  0  0  0  0  0  0  0  0  0
   -1.2452   25.2520  -23.6343 H   0  0  0  0  0  0  0  0  0  0  0  0
   -0.9381   21.9221  -28.5001 H   0  0  0  0  0  0  0  0  0  0  0  0
   -3.6680   19.9870  -29.5160 H   0  0  0  0  0  0  0  0  0  0  0  0
   -0.8604   19.3033  -30.0415 H   0  0  0  0  0  0  0  0  0  0  0  0
    0.4883   18.9545  -32.1059 H   0  0  0  0  0  0  0  0  0  0  0  0
   -0.1523   20.0990  -34.2259 H   0  0  0  0  0  0  0  0  0  0  0  0
   -2.1449   21.5908  -34.2894 H   0  0  0  0  0  0  0  0  0  0  0  0
   -5.2759   19.3285  -33.4473 H   0  0  0  0  0  0  0  0  0  0  0  0
   -7.1811   17.9235  -32.6904 H   0  0  0  0  0  0  0  0  0  0  0  0
   -9.0898   18.9522  -31.4738 H   0  0  0  0  0  0  0  0  0  0  0  0
   -9.3379   21.4805  -29.7908 H   0  0  0  0  0  0  0  0  0  0  0  0
   -9.6031   22.6106  -31.1616 H   0  0  0  0  0  0  0  0  0  0  0  0
  -10.3934   20.9975  -31.1616 H   0  0  0  0  0  0  0  0  0  0  0  0
   -7.3348   23.5607  -30.8659 H   0  0  0  0  0  0  0  0  0  0  0  0
   -6.4456   23.7505  -32.4152 H   0  0  0  0  0  0  0  0  0  0  0  0
   -8.2393   23.6526  -32.4152 H   0  0  0  0  0  0  0  0  0  0  0  0
   -5.2121   22.3344  -29.2885 H   0  0  0  0  0  0  0  0  0  0  0  0
   -5.2704   24.4126  -27.8614 H   0  0  0  0  0  0  0  0  0  0  0  0
   -3.6430   26.0500  -26.3490 H   0  0  0  0  0  0  0  0  0  0  0  0
   -0.3474   27.5317  -27.2078 H   0  0  0  0  0  0  0  0  0  0  0  0
    0.8625   29.2111  -25.8313 H   0  0  0  0  0  0  0  0  0  0  0  0
  1  2  1  0
  2  3  1  0
  3  4  2  0
  4  5  1  0
  5  6  2  0
  6  7  1  0
  7  8  2  0
  8  9  1  0
  9 10  2  0
 10 11  1  0
 11 12  1  0
 12 13  1  0
 13 14  2  0
 14 15  1  0
 15 16  2  0
 16 17  1  0
 17 18  2  0
 18 19  1  0
 19 20  2  0
 19 21  1  0
 21 22  1  0
 22 23  2  0
 23 24  1  0
 24 25  2  0
 25 26  1  0
 26 27  1  0
 26 28  2  0
 28 29  1  0
 11 30  2  0
 30 31  1  0
 31 32  2  0
 32 33  1  0
  6 34  1  0
 34 35  2  0
 35  3  1  0
 33  7  1  0
 32  9  1  0
 18 13  1  0
 28 22  1  0
  1 36  1  0
  1 37  1  0
  1 38  1  0
  4 39  1  0
  5 40  1  0
 10 41  1  0
 12 42  1  0
 14 43  1  0
 15 44  1  0
 16 45  1  0
 17 46  1  0
 23 47  1  0
 24 48  1  0
 25 49  1  0
 27 50  1  0
 27 51  1  0
 27 52  1  0
 29 53  1  0
 29 54  1  0
 29 55  1  0
 30 56  1  0
 31 57  1  0
 33 58  1  0
 34 59  1  0
 35 60  1  0
M  CHG  1  21  -1
M  END
>  <UniqueID>  (11) 
11

>  <SMILES>  (11) 
COc1ccc(-c2nc3cc(Nc4ccccc4C(=O)[N-]c4cccc(C)c4C)ccc3[nH]2)cc1

>  <Energy>  (11) 
121.3736994435278

>  <Genealogy>  (11) 
COc1ccc(-c2nc3cc(Nc4ccccc4C(=O)[N-]c4cccc(C)c4C)ccc3[nH]2)cc1 (protonated)
COc1ccc(-c2nc3cc(Nc4ccccc4C(=O)[N-]c4cccc(C)c4C)ccc3[nH]2)cc1 (3D coordinates assigned)
COc1ccc(-c2nc3cc(Nc4ccccc4C(=O)[N-]c4cccc(C)c4C)ccc3[nH]2)cc1 (optimized conformer: 121.3736994435278 kcal/mol)

>  <smiles>  (11) 
COc1ccc(-c2nc3cc(Nc4ccccc4C(=O)Nc4cccc(C)c4C)ccc3[nH]2)cc1

>  <score_type>  (11) 
oracle

>  <origin>  (11) 
adgpu

>  <m_score__min__energy>  (11) 
-9.7799999999999994

>  <m_primary>  (11) 
energy

$$$$
11:0
     RDKit          3D

 43 45  0  0  0  0  0  0  0  0999 V2000
   -0.4360   20.9010  -27.1590 C   0  0  0  0  0  0  0  0  0  0  0  0
   -1.5380   21.8760  -27.4510 C   0  0  0  0  0  0  0  0  0  0  0  0
   -2.8700   21.4420  -27.5110 C   0  0  0  0  0  0  0  0  0  0  0  0
   -3.8940   22.3430  -27.8180 C   0  0  0  0  0  0  0  0  0  0  0  0
   -3.5990   23.6920  -28.0900 C   0  0  0  0  0  0  0  0  0  0  0  0
   -4.6260   24.6450  -28.4190 N   0  0  0  0  0  0  0  0  0  0  0  0
   -5.2670   24.8680  -30.0150 S   0  0  0  0  0  0  0  0  0  0  0  0
   -6.5430   25.6600  -29.9260 O   0  0  0  0  0  0  0  0  0  0  0  0
   -4.2750   25.6310  -30.8460 O   0  0  0  0  0  0  0  0  0  0  0  0
   -5.5560   23.3050  -30.7740 C   0  0  0  0  0  0  0  0  0  0  0  0
   -6.8280   22.9960  -31.2740 C   0  0  0  0  0  0  0  0  0  0  0  0
   -7.0600   21.7650  -31.8930 C   0  0  0  0  0  0  0  0  0  0  0  0
   -6.0280   20.8200  -32.0030 C   0  0  0  0  0  0  0  0  0  0  0  0
   -6.2770   19.5670  -32.6630 N   0  0  0  0  0  0  0  0  0  0  0  0
   -5.4540   19.0570  -33.5670 N   0  0  0  0  0  0  0  0  0  0  0  0
   -5.9840   17.8930  -33.9900 C   0  0  0  0  0  0  0  0  0  0  0  0
   -5.3210   16.9820  -34.9660 C   0  0  0  0  0  0  0  0  0  0  0  0
   -7.1730   17.6440  -33.3320 C   0  0  0  0  0  0  0  0  0  0  0  0
   -7.3390   18.7400  -32.5100 C   0  0  0  0  0  0  0  0  0  0  0  0
   -8.5170   18.9690  -31.6130 C   0  0  0  0  0  0  0  0  0  0  0  0
   -4.7510   21.1390  -31.5130 C   0  0  0  0  0  0  0  0  0  0  0  0
   -4.5190   22.3710  -30.8960 C   0  0  0  0  0  0  0  0  0  0  0  0
   -2.2620   24.1180  -28.0390 C   0  0  0  0  0  0  0  0  0  0  0  0
   -1.2390   23.2170  -27.7310 C   0  0  0  0  0  0  0  0  0  0  0  0
   -0.3178   20.7965  -26.0704 H   0  0  0  0  0  0  0  0  0  0  0  0
   -0.6862   19.9231  -27.5963 H   0  0  0  0  0  0  0  0  0  0  0  0
    0.5041   21.2685  -27.5963 H   0  0  0  0  0  0  0  0  0  0  0  0
   -3.1106   20.3866  -27.3154 H   0  0  0  0  0  0  0  0  0  0  0  0
   -4.9372   21.9952  -27.8472 H   0  0  0  0  0  0  0  0  0  0  0  0
   -4.9640   25.3010  -27.6790 H   0  0  0  0  0  0  0  0  0  0  0  0
   -7.6464   23.7248  -31.1789 H   0  0  0  0  0  0  0  0  0  0  0  0
   -8.0572   21.5351  -32.2964 H   0  0  0  0  0  0  0  0  0  0  0  0
   -4.7584   16.2089  -34.4222 H   0  0  0  0  0  0  0  0  0  0  0  0
   -6.0839   16.5039  -35.5980 H   0  0  0  0  0  0  0  0  0  0  0  0
   -4.6315   17.5609  -35.5980 H   0  0  0  0  0  0  0  0  0  0  0  0
   -7.8353   16.7723  -33.4388 H   0  0  0  0  0  0  0  0  0  0  0  0
   -8.1958   18.9066  -30.5628 H   0  0  0  0  0  0  0  0  0  0  0  0
   -8.9387   19.9659  -31.8088 H   0  0  0  0  0  0  0  0  0  0  0  0
   -9.2814   18.2026  -31.8088 H   0  0  0  0  0  0  0  0  0  0  0  0
   -3.9291   20.4151  -31.6155 H   0  0  0  0  0  0  0  0  0  0  0  0
   -3.5187   22.6083  -30.5047 H   0  0  0  0  0  0  0  0  0  0  0  0
   -2.0175   25.1708  -28.2434 H   0  0  0  0  0  0  0  0  0  0  0  0
   -0.1946   23.5614  -27.7081 H   0  0  0  0  0  0  0  0  0  0  0  0
  1  2  1  0
  2  3  2  0
  3  4  1  0
  4  5  2  0
  5  6  1  0
  6  7  1  0
  7  8  2  0
  7  9  2  0
  7 10  1  0
 10 11  2  0
 11 12  1  0
 12 13  2  0
 13 14  1  0
 14 15  1  0
 15 16  2  0
 16 17  1  0
 16 18  1  0
 18 19  2  0
 19 20  1  0
 13 21  1  0
 21 22  2  0
  5 23  1  0
 23 24  2  0
 24  2  1  0
 22 10  1  0
 19 14  1  0
  1 25  1  0
  1 26  1  0
  1 27  1  0
  3 28  1  0
  4 29  1  0
  6 30  1  0
 11 31  1  0
 12 32  1  0
 17 33  1  0
 17 34  1  0
 17 35  1  0
 18 36  1  0
 20 37  1  0
 20 38  1  0
 20 39  1  0
 21 40  1  0
 22 41  1  0
 23 42  1  0
 24 43  1  0
M  END
>  <UniqueID>  (12) 
12

>  <SMILES>  (12) 
Cc1ccc(NS(=O)(=O)c2ccc(-n3nc(C)cc3C)cc2)cc1

>  <Energy>  (12) 
79.63051792628002

>  <Genealogy>  (12) 
Cc1ccc(NS(=O)(=O)c2ccc(-n3nc(C)cc3C)cc2)cc1 (3D coordinates assigned)
Cc1ccc(NS(=O)(=O)c2ccc(-n3nc(C)cc3C)cc2)cc1 (optimized conformer: 79.63051792628002 kcal/mol)

>  <smiles>  (12) 
Cc1ccc(NS(=O)(=O)c2ccc(-n3nc(C)cc3C)cc2)cc1

>  <score_type>  (12) 
oracle

>  <origin>  (12) 
adgpu

>  <m_score__min__energy>  (12) 
-9.4600000000000009

>  <m_primary>  (12) 
energy

$$$$
12:0
     RDKit          3D

 44 46  0  0  0  0  0  0  0  0999 V2000
    0.9700   16.5060  -27.4860 C   0  0  0  0  0  0  0  0  0  0  0  0
    0.2660   17.5020  -28.3910 C   0  0  0  0  0  0  0  0  0  0  0  0
    0.5230   18.8270  -27.9320 O   0  0  0  0  0  0  0  0  0  0  0  0
   -0.3240   19.9220  -28.1590 C   0  0  0  0  0  0  0  0  0  0  0  0
   -0.0020   20.8100  -29.1890 C   0  0  0  0  0  0  0  0  0  0  0  0
   -0.8300   21.8980  -29.4730 C   0  0  0  0  0  0  0  0  0  0  0  0
   -1.9980   22.1240  -28.7260 C   0  0  0  0  0  0  0  0  0  0  0  0
   -2.8770   23.1970  -29.1160 N   0  0  0  0  0  0  0  0  0  0  0  0
   -3.5040   24.1180  -28.2130 C   0  0  0  0  0  0  0  0  0  0  0  0
   -2.8710   24.5830  -27.2260 O   0  0  0  0  0  0  0  0  0  0  0  0
   -4.9220   24.5420  -28.4480 C   0  0  0  0  0  0  0  0  0  0  0  0
   -5.1910   24.8760  -30.1830 S   0  0  0  0  0  0  0  0  0  0  0  0
   -3.8700   25.1550  -30.8420 O   0  0  0  0  0  0  0  0  0  0  0  0
   -6.0550   26.0990  -30.3160 O   0  0  0  0  0  0  0  0  0  0  0  0
   -5.9350   23.4680  -30.9600 C   0  0  0  0  0  0  0  0  0  0  0  0
   -7.3340   23.3660  -30.9400 C   0  0  0  0  0  0  0  0  0  0  0  0
   -7.9840   22.3300  -31.6130 C   0  0  0  0  0  0  0  0  0  0  0  0
   -7.2470   21.3790  -32.3200 C   0  0  0  0  0  0  0  0  0  0  0  0
   -5.8480   21.4570  -32.3510 C   0  0  0  0  0  0  0  0  0  0  0  0
   -5.0930   20.5210  -33.0680 C   0  0  0  0  0  0  0  0  0  0  0  0
   -3.7010   20.6240  -33.0920 C   0  0  0  0  0  0  0  0  0  0  0  0
   -3.0790   21.6630  -32.4000 C   0  0  0  0  0  0  0  0  0  0  0  0
   -3.8230   22.5680  -31.7120 N   0  0  0  0  0  0  0  0  0  0  0  0
   -5.1830   22.5010  -31.6630 C   0  0  0  0  0  0  0  0  0  0  0  0
   -2.3150   21.2350  -27.6810 C   0  0  0  0  0  0  0  0  0  0  0  0
   -1.4840   20.1480  -27.3970 C   0  0  0  0  0  0  0  0  0  0  0  0
    0.7833   16.7702  -26.4347 H   0  0  0  0  0  0  0  0  0  0  0  0
    0.5849   15.4948  -27.6839 H   0  0  0  0  0  0  0  0  0  0  0  0
    2.0517   16.5316  -27.6839 H   0  0  0  0  0  0  0  0  0  0  0  0
    0.6406   17.3913  -29.4193 H   0  0  0  0  0  0  0  0  0  0  0  0
   -0.8172   17.3117  -28.3723 H   0  0  0  0  0  0  0  0  0  0  0  0
    0.9113   20.6506  -29.7809 H   0  0  0  0  0  0  0  0  0  0  0  0
   -0.5649   22.5851  -30.2900 H   0  0  0  0  0  0  0  0  0  0  0  0
   -3.1940   23.2260  -30.1120 H   0  0  0  0  0  0  0  0  0  0  0  0
   -5.5994   23.7381  -28.1241 H   0  0  0  0  0  0  0  0  0  0  0  0
   -5.1213   25.4580  -27.8725 H   0  0  0  0  0  0  0  0  0  0  0  0
   -7.9256   24.1109  -30.3877 H   0  0  0  0  0  0  0  0  0  0  0  0
   -9.0816   22.2630  -31.5859 H   0  0  0  0  0  0  0  0  0  0  0  0
   -7.7643   20.5678  -32.8532 H   0  0  0  0  0  0  0  0  0  0  0  0
   -5.5952   19.7067  -33.6109 H   0  0  0  0  0  0  0  0  0  0  0  0
   -3.1000   19.8922  -33.6517 H   0  0  0  0  0  0  0  0  0  0  0  0
   -1.9825   21.7500  -32.4113 H   0  0  0  0  0  0  0  0  0  0  0  0
   -3.2241   21.3975  -27.0834 H   0  0  0  0  0  0  0  0  0  0  0  0
   -1.7387   19.4654  -26.5729 H   0  0  0  0  0  0  0  0  0  0  0  0
  1  2  1  0
  2  3  1  0
  3  4  1  0
  4  5  2  0
  5  6  1  0
  6  7  2  0
  7  8  1  0
  8  9  1  0
  9 10  2  0
  9 11  1  0
 11 12  1  0
 12 13  2  0
 12 14  2  0
 12 15  1  0
 15 16  2  0
 16 17  1  0
 17 18  2  0
 18 19  1  0
 19 20  2  0
 20 21  1  0
 21 22  2  0
 22 23  1  0
 23 24  2  0
  7 25  1  0
 25 26  2  0
 26  4  1  0
 24 15  1  0
 24 19  1  0
  1 27  1  0
  1 28  1  0
  1 29  1  0
  2 30  1  0
  2 31  1  0
  5 32  1  0
  6 33  1  0
  8 34  1  0
 11 35  1  0
 11 36  1  0
 16 37  1  0
 17 38  1  0
 18 39  1  0
 20 40  1  0
 21 41  1  0
 22 42  1  0
 25 43  1  0
 26 44  1  0
M  END
>  <UniqueID>  (13) 
13

>  <SMILES>  (13) 
CCOc1ccc(NC(=O)CS(=O)(=O)c2cccc3cccnc23)cc1

>  <Energy>  (13) 
42.39538453434204

>  <Genealogy>  (13) 
CCOc1ccc(NC(=O)CS(=O)(=O)c2cccc3cccnc23)cc1 (3D coordinates assigned)
CCOc1ccc(NC(=O)CS(=O)(=O)c2cccc3cccnc23)cc1 (optimized conformer: 42.39538453434204 kcal/mol)

>  <smiles>  (13) 
CCOc1ccc(NC(=O)CS(=O)(=O)c2cccc3cccnc23)cc1

>  <score_type>  (13) 
oracle

>  <origin>  (13) 
adgpu

>  <m_score__min__energy>  (13) 
-9.1899999999999995

>  <m_primary>  (13) 
energy

$$$$
13:0
     RDKit          3D

 55 59  0  0  0  0  0  0  0  0999 V2000
   -0.9390   21.4040  -31.4450 O   0  0  0  0  0  0  0  0  0  0  0  0
   -2.1100   21.0580  -31.7610 C   0  0  0  0  0  0  0  0  0  0  0  0
   -3.2310   21.8300  -31.3000 N   0  0  0  0  0  0  0  0  0  0  0  0
   -3.0750   22.9840  -30.4180 C   0  0  0  0  0  0  0  0  0  0  0  0
   -4.3900   23.6920  -30.2420 C   0  0  0  0  0  0  0  0  0  0  0  0
   -4.4820   25.0840  -30.4080 C   0  0  0  0  0  0  0  0  0  0  0  0
   -5.7120   25.7310  -30.2590 C   0  0  0  0  0  0  0  0  0  0  0  0
   -6.8590   24.9950  -29.9470 C   0  0  0  0  0  0  0  0  0  0  0  0
   -6.7770   23.6090  -29.7870 C   0  0  0  0  0  0  0  0  0  0  0  0
   -5.5480   22.9580  -29.9350 C   0  0  0  0  0  0  0  0  0  0  0  0
   -2.3050   19.8640  -32.6130 C   0  0  0  0  0  0  0  0  0  0  0  0
   -1.2150   19.2460  -33.2500 C   0  0  0  0  0  0  0  0  0  0  0  0
   -1.4140   18.1300  -34.0670 C   0  0  0  0  0  0  0  0  0  0  0  0
   -2.7000   17.6230  -34.2610 C   0  0  0  0  0  0  0  0  0  0  0  0
   -3.7980   18.2150  -33.6180 C   0  0  0  0  0  0  0  0  0  0  0  0
   -3.5960   19.3440  -32.8090 C   0  0  0  0  0  0  0  0  0  0  0  0
   -5.1250   17.6760  -33.7910 N   0  0  0  0  0  0  0  0  0  0  0  0
   -6.1250   18.5080  -34.4770 C   0  0  0  0  0  0  0  0  0  0  0  0
   -6.9300   19.2740  -33.4630 C   0  0  0  0  0  0  0  0  0  0  0  0
   -7.9120   18.6230  -32.6980 C   0  0  0  0  0  0  0  0  0  0  0  0
   -8.6140   19.3240  -31.7120 C   0  0  0  0  0  0  0  0  0  0  0  0
   -8.3300   20.6710  -31.4740 C   0  0  0  0  0  0  0  0  0  0  0  0
   -9.0110   21.3470  -30.5170 F   0  0  0  0  0  0  0  0  0  0  0  0
   -7.3430   21.3200  -32.2210 C   0  0  0  0  0  0  0  0  0  0  0  0
   -6.6400   20.6250  -33.2100 C   0  0  0  0  0  0  0  0  0  0  0  0
   -5.4460   16.3190  -33.3970 C   0  0  0  0  0  0  0  0  0  0  0  0
   -6.6550   15.9730  -33.2920 O   0  0  0  0  0  0  0  0  0  0  0  0
   -4.4020   15.3130  -33.0700 C   0  0  0  0  0  0  0  0  0  0  0  0
   -4.5890   14.4670  -31.9610 C   0  0  0  0  0  0  0  0  0  0  0  0
   -3.6090   13.5360  -31.6040 C   0  0  0  0  0  0  0  0  0  0  0  0
   -2.4320   13.4380  -32.3490 C   0  0  0  0  0  0  0  0  0  0  0  0
   -2.2380   14.2580  -33.4620 C   0  0  0  0  0  0  0  0  0  0  0  0
   -3.2230   15.1800  -33.8380 C   0  0  0  0  0  0  0  0  0  0  0  0
   -2.9520   16.1880  -35.2950 S   0  0  0  0  0  0  0  0  0  0  0  0
   -4.1930   21.6030  -31.6400 H   0  0  0  0  0  0  0  0  0  0  0  0
   -2.7126   22.6436  -29.4368 H   0  0  0  0  0  0  0  0  0  0  0  0
   -2.3523   23.6810  -30.8674 H   0  0  0  0  0  0  0  0  0  0  0  0
   -3.5827   25.6669  -30.6562 H   0  0  0  0  0  0  0  0  0  0  0  0
   -5.7777   26.8215  -30.3875 H   0  0  0  0  0  0  0  0  0  0  0  0
   -7.8255   25.5065  -29.8275 H   0  0  0  0  0  0  0  0  0  0  0  0
   -7.6800   23.0295  -29.5444 H   0  0  0  0  0  0  0  0  0  0  0  0
   -5.4878   21.8667  -29.8105 H   0  0  0  0  0  0  0  0  0  0  0  0
   -0.1996   19.6432  -33.1045 H   0  0  0  0  0  0  0  0  0  0  0  0
   -0.5551   17.6498  -34.5585 H   0  0  0  0  0  0  0  0  0  0  0  0
   -4.4569   19.8268  -32.3234 H   0  0  0  0  0  0  0  0  0  0  0  0
   -5.6144   19.2147  -35.1478 H   0  0  0  0  0  0  0  0  0  0  0  0
   -6.7963   17.8622  -35.0620 H   0  0  0  0  0  0  0  0  0  0  0  0
   -8.1294   17.5593  -32.8748 H   0  0  0  0  0  0  0  0  0  0  0  0
   -9.3907   18.8140  -31.1232 H   0  0  0  0  0  0  0  0  0  0  0  0
   -7.1187   22.3799  -32.0305 H   0  0  0  0  0  0  0  0  0  0  0  0
   -5.8586   21.1370  -33.7908 H   0  0  0  0  0  0  0  0  0  0  0  0
   -5.5140   14.5389  -31.3701 H   0  0  0  0  0  0  0  0  0  0  0  0
   -3.7653   12.8798  -30.7351 H   0  0  0  0  0  0  0  0  0  0  0  0
   -1.6567   12.7137  -32.0585 H   0  0  0  0  0  0  0  0  0  0  0  0
   -1.3088   14.1798  -34.0454 H   0  0  0  0  0  0  0  0  0  0  0  0
  1  2  2  0
  2  3  1  0
  3  4  1  0
  4  5  1  0
  5  6  2  0
  6  7  1  0
  7  8  2  0
  8  9  1  0
  9 10  2  0
  2 11  1  0
 11 12  2  0
 12 13  1  0
 13 14  2  0
 14 15  1  0
 15 16  2  0
 15 17  1  0
 17 18  1  0
 18 19  1  0
 19 20  2  0
 20 21  1  0
 21 22  2  0
 22 23  1  0
 22 24  1  0
 24 25  2  0
 17 26  1  0
 26 27  2  0
 26 28  1  0
 28 29  2  0
 29 30  1  0
 30 31  2  0
 31 32  1  0
 32 33  2  0
 33 34  1  0
 10  5  1  0
 16 11  1  0
 25 19  1  0
 33 28  1  0
 34 14  1  0
  3 35  1  0
  4 36  1  0
  4 37  1  0
  6 38  1  0
  7 39  1  0
  8 40  1  0
  9 41  1  0
 10 42  1  0
 12 43  1  0
 13 44  1  0
 16 45  1  0
 18 46  1  0
 18 47  1  0
 20 48  1  0
 21 49  1  0
 24 50  1  0
 25 51  1  0
 29 52  1  0
 30 53  1  0
 31 54  1  0
 32 55  1  0
M  END
>  <UniqueID>  (14) 
14

>  <SMILES>  (14) 
O=C(NCc1ccccc1)c1ccc2c(c1)N(Cc1ccc(F)cc1)C(=O)c1ccccc1S2

>  <Energy>  (14) 
73.20435617844953

>  <Genealogy>  (14) 
O=C(NCc1ccccc1)c1ccc2c(c1)N(Cc1ccc(F)cc1)C(=O)c1ccccc1S2 (3D coordinates assigned)
O=C(NCc1ccccc1)c1ccc2c(c1)N(Cc1ccc(F)cc1)C(=O)c1ccccc1S2 (nonaromatic ring conformer: 73.20435617844953 kcal/mol)

>  <smiles>  (14) 
O=C(NCc1ccccc1)c1ccc2c(c1)N(Cc1ccc(F)cc1)C(=O)c1ccccc1S2

>  <score_type>  (14) 
oracle

>  <origin>  (14) 
adgpu

>  <m_score__min__energy>  (14) 
-9.5500000000000007

>  <m_primary>  (14) 
energy

$$$$
14:0
     RDKit          3D

 49 52  0  0  1  0  0  0  0  0999 V2000
   -9.5380   19.5450  -33.1330 N   0  0  0  0  0  0  0  0  0  0  0  0
   -8.3770   19.5080  -31.8290 S   0  0  0  0  0  0  0  0  0  0  0  0
   -8.6070   18.2290  -31.0990 O   0  0  0  0  0  0  0  0  0  0  0  0
   -8.5720   20.6550  -30.8990 O   0  0  0  0  0  0  0  0  0  0  0  0
   -6.7460   19.5020  -32.5120 C   0  0  0  0  0  0  0  0  0  0  0  0
   -6.1390   20.7170  -32.7450 C   0  0  0  0  0  0  0  0  0  0  0  0
   -4.8660   20.7910  -33.2780 C   0  0  0  0  0  0  0  0  0  0  0  0
   -4.2110   19.6120  -33.5730 C   0  0  0  0  0  0  0  0  0  0  0  0
   -2.9020   19.7120  -34.1200 N   0  0  0  0  0  0  0  0  0  0  0  0
   -1.9070   20.0580  -33.3890 C   0  0  0  0  0  0  0  0  0  0  0  0
   -2.0580   20.3490  -32.0380 C   0  0  0  0  0  0  0  0  0  0  0  0
   -0.9290   20.7180  -31.3080 C   0  0  0  0  0  0  0  0  0  0  0  0
   -1.0280   21.0250  -29.9320 N   0  0  0  0  0  0  0  0  0  0  0  0
   -1.0220   20.0130  -28.8640 C   0  0  0  0  0  0  0  0  0  0  0  0
   -1.3260   20.7940  -27.6030 C   0  0  0  0  0  0  0  0  0  0  0  0
   -0.6910   22.1210  -27.9560 C   0  0  0  0  0  0  0  0  0  0  0  0
   -1.1500   22.3480  -29.3550 C   0  0  2  0  0  0  0  0  0  0  0  0
   -2.5500   22.7610  -29.4750 C   0  0  0  0  0  0  0  0  0  0  0  0
   -3.5870   21.9560  -29.8920 C   0  0  0  0  0  0  0  0  0  0  0  0
   -4.8970   22.4030  -29.9870 C   0  0  0  0  0  0  0  0  0  0  0  0
   -5.2100   23.7080  -29.6530 C   0  0  0  0  0  0  0  0  0  0  0  0
   -4.1790   24.5390  -29.2290 C   0  0  0  0  0  0  0  0  0  0  0  0
   -2.8650   24.0730  -29.1390 C   0  0  0  0  0  0  0  0  0  0  0  0
   -1.6480   25.2110  -28.5910 Cl  0  0  0  0  0  0  0  0  0  0  0  0
    0.2230   20.7640  -31.9670 N   0  0  0  0  0  0  0  0  0  0  0  0
    0.3720   20.4820  -33.2750 C   0  0  0  0  0  0  0  0  0  0  0  0
   -0.7010   20.1280  -33.9840 N   0  0  0  0  0  0  0  0  0  0  0  0
   -4.8130   18.3850  -33.3420 C   0  0  0  0  0  0  0  0  0  0  0  0
   -6.0910   18.3240  -32.8070 C   0  0  0  0  0  0  0  0  0  0  0  0
   -9.6140   18.5480  -33.4640 H   0  0  0  0  0  0  0  0  0  0  0  0
   -9.0510   20.0750  -33.9110 H   0  0  0  0  0  0  0  0  0  0  0  0
   -6.6775   21.6450  -32.5023 H   0  0  0  0  0  0  0  0  0  0  0  0
   -4.3871   21.7640  -33.4624 H   0  0  0  0  0  0  0  0  0  0  0  0
   -3.0451   20.2895  -31.5563 H   0  0  0  0  0  0  0  0  0  0  0  0
   -1.7943   19.2510  -29.0455 H   0  0  0  0  0  0  0  0  0  0  0  0
   -0.0651   19.4739  -28.8027 H   0  0  0  0  0  0  0  0  0  0  0  0
   -2.4086   20.8916  -27.4343 H   0  0  0  0  0  0  0  0  0  0  0  0
   -0.9559   20.3360  -26.6739 H   0  0  0  0  0  0  0  0  0  0  0  0
   -1.0463   22.9198  -27.2884 H   0  0  0  0  0  0  0  0  0  0  0  0
    0.4042   22.1195  -27.8530 H   0  0  0  0  0  0  0  0  0  0  0  0
   -0.5700   23.1546  -29.8272 H   0  0  0  0  0  0  0  0  0  0  0  0
   -3.3668   20.9125  -30.1616 H   0  0  0  0  0  0  0  0  0  0  0  0
   -5.6876   21.7186  -30.3284 H   0  0  0  0  0  0  0  0  0  0  0  0
   -6.2438   24.0776  -29.7208 H   0  0  0  0  0  0  0  0  0  0  0  0
   -4.4019   25.5819  -28.9596 H   0  0  0  0  0  0  0  0  0  0  0  0
    1.1130   21.0370  -31.4640 H   0  0  0  0  0  0  0  0  0  0  0  0
    1.3618   20.5425  -33.7510 H   0  0  0  0  0  0  0  0  0  0  0  0
   -4.2752   17.4564  -33.5839 H   0  0  0  0  0  0  0  0  0  0  0  0
   -6.5741   17.3534  -32.6211 H   0  0  0  0  0  0  0  0  0  0  0  0
  1  2  1  0
  2  3  2  0
  2  4  2  0
  2  5  1  0
  5  6  2  0
  6  7  1  0
  7  8  2  0
  8  9  1  0
  9 10  2  0
 10 11  1  0
 11 12  2  0
 12 13  1  0
 13 14  1  0
 14 15  1  0
 15 16  1  0
 16 17  1  0
 17 18  1  0
 18 19  2  0
 19 20  1  0
 20 21  2  0
 21 22  1  0
 22 23  2  0
 23 24  1  0
 12 25  1  0
 25 26  1  0
 26 27  2  0
  8 28  1  0
 28 29  2  0
 29  5  1  0
 27 10  1  0
 17 13  1  0
 23 18  1  0
  1 30  1  0
  1 31  1  0
  6 32  1  0
  7 33  1  0
 11 34  1  0
 14 35  1  0
 14 36  1  0
 15 37  1  0
 15 38  1  0
 16 39  1  0
 16 40  1  0
 17 41  1  6
 19 42  1  0
 20 43  1  0
 21 44  1  0
 22 45  1  0
 25 46  1  0
 26 47  1  0
 28 48  1  0
 29 49  1  0
M  END
>  <smiles>  (15) 
NS(=O)(=O)c1ccc(N=c2cc(N3CCCC3c3ccccc3Cl)[nH]cn2)cc1

>  <score_type>  (15) 
oracle

>  <origin>  (15) 
adgpu

>  <m_score__min__energy>  (15) 
-9.5399999999999991

>  <m_primary>  (15) 
energy

$$$$
15:0
     RDKit          3D

 44 47  0  0  0  0  0  0  0  0999 V2000
   -1.7921   21.3317  -31.8045 H   0  0  0  0  0  0  0  0  0  0  0  0
   -1.9070   21.7940  -30.8130 C   0  0  0  0  0  0  0  0  0  0  0  0
   -0.9280   21.5840  -29.8220 C   0  0  0  0  0  0  0  0  0  0  0  0
   -0.0499   20.9593  -30.0428 H   0  0  0  0  0  0  0  0  0  0  0  0
   -1.0690   22.1690  -28.5540 C   0  0  0  0  0  0  0  0  0  0  0  0
   -0.3106   22.0086  -27.7735 H   0  0  0  0  0  0  0  0  0  0  0  0
   -2.1930   22.9590  -28.3050 C   0  0  0  0  0  0  0  0  0  0  0  0
   -3.1400   23.1670  -29.2680 C   0  0  0  0  0  0  0  0  0  0  0  0
   -3.0290   22.5920  -30.5380 C   0  0  0  0  0  0  0  0  0  0  0  0
   -3.8016   22.7608  -31.3026 H   0  0  0  0  0  0  0  0  0  0  0  0
   -4.1630   24.0300  -28.8040 N   0  0  0  0  0  0  0  0  0  0  0  0
   -5.3170   24.8390  -29.8150 S   0  0  0  0  0  0  0  0  0  0  0  0
   -4.6040   25.6550  -30.8570 O   0  0  0  0  0  0  0  0  0  0  0  0
   -6.1550   25.7500  -28.9630 O   0  0  0  0  0  0  0  0  0  0  0  0
   -6.3210   23.6340  -30.6120 C   0  0  0  0  0  0  0  0  0  0  0  0
   -6.0400   23.2660  -31.9330 C   0  0  0  0  0  0  0  0  0  0  0  0
   -5.2539   23.7933  -32.4934 H   0  0  0  0  0  0  0  0  0  0  0  0
   -6.7540   22.2320  -32.5420 C   0  0  0  0  0  0  0  0  0  0  0  0
   -6.5286   21.9497  -33.5810 H   0  0  0  0  0  0  0  0  0  0  0  0
   -7.7590   21.5500  -31.8350 C   0  0  0  0  0  0  0  0  0  0  0  0
   -8.4620   20.3980  -32.4480 C   0  0  0  0  0  0  0  0  0  0  0  0
   -9.7020   20.2620  -32.2740 O   0  0  0  0  0  0  0  0  0  0  0  0
   -7.7790   19.4630  -33.2990 N   0  0  0  0  0  0  0  0  0  0  0  0
   -7.0290   18.4620  -32.9240 C   0  0  0  0  0  0  0  0  0  0  0  0
   -6.3500   17.7310  -33.9070 C   0  0  0  0  0  0  0  0  0  0  0  0
   -6.4648   17.9933  -34.9691 H   0  0  0  0  0  0  0  0  0  0  0  0
   -5.5270   16.6680  -33.5320 C   0  0  0  0  0  0  0  0  0  0  0  0
   -4.9845   16.0942  -34.2978 H   0  0  0  0  0  0  0  0  0  0  0  0
   -5.3940   16.3350  -32.1850 C   0  0  0  0  0  0  0  0  0  0  0  0
   -4.7390   15.5059  -31.8791 H   0  0  0  0  0  0  0  0  0  0  0  0
   -6.1010   17.0650  -31.2290 C   0  0  0  0  0  0  0  0  0  0  0  0
   -6.0090   16.8051  -30.1641 H   0  0  0  0  0  0  0  0  0  0  0  0
   -6.9040   18.0970  -31.6070 N   0  0  0  0  0  0  0  0  0  0  0  0
   -7.4430   18.5780  -30.8550 H   0  0  0  0  0  0  0  0  0  0  0  0
   -8.0720   21.9570  -30.5270 C   0  0  0  0  0  0  0  0  0  0  0  0
   -8.8870   21.4610  -29.9795 H   0  0  0  0  0  0  0  0  0  0  0  0
   -7.3520   22.9900  -29.9180 C   0  0  0  0  0  0  0  0  0  0  0  0
   -7.5967   23.2973  -28.8905 H   0  0  0  0  0  0  0  0  0  0  0  0
   -3.8400   24.4500  -27.4410 C   0  0  0  0  0  0  0  0  0  0  0  0
   -3.6782   25.5374  -27.4041 H   0  0  0  0  0  0  0  0  0  0  0  0
   -4.6582   24.2188  -26.7431 H   0  0  0  0  0  0  0  0  0  0  0  0
   -2.5400   23.6990  -27.0610 C   0  0  0  0  0  0  0  0  0  0  0  0
   -1.7426   24.4058  -26.7880 H   0  0  0  0  0  0  0  0  0  0  0  0
   -2.6641   23.0395  -26.1894 H   0  0  0  0  0  0  0  0  0  0  0  0
  1  2  1  0
  2  3  2  0
  3  4  1  0
  3  5  1  0
  5  6  1  0
  5  7  2  0
  7  8  1  0
  8  9  2  0
  9 10  1  0
  8 11  1  0
 11 12  1  0
 12 13  2  0
 12 14  2  0
 12 15  1  0
 15 16  2  0
 16 17  1  0
 16 18  1  0
 18 19  1  0
 18 20  2  0
 20 21  1  0
 21 22  2  0
 21 23  1  0
 23 24  2  0
 24 25  1  0
 25 26  1  0
 25 27  2  0
 27 28  1  0
 27 29  1  0
 29 30  1  0
 29 31  2  0
 31 32  1  0
 31 33  1  0
 33 34  1  0
 20 35  1  0
 35 36  1  0
 35 37  2  0
 37 38  1  0
 11 39  1  0
 39 40  1  0
 39 41  1  0
 39 42  1  0
 42 43  1  0
 42 44  1  0
  9  2  1  0
 37 15  1  0
 42  7  1  0
 33 24  1  0
M  END
>  <UniqueID>  (16) 
15

>  <SMILES>  (16) 
O=C(/N=c1/cccc[nH]1)c1ccc(S(=O)(=O)N2CCc3ccccc32)cc1

>  <Energy>  (16) 
72.68536450753186

>  <Genealogy>  (16) 
O=C(/N=c1/cccc[nH]1)c1ccc(S(=O)(=O)N2CCc3ccccc32)cc1 (cis-trans isomerization)
O=C(/N=c1/cccc[nH]1)c1ccc(S(=O)(=O)N2CCc3ccccc32)cc1 (3D coordinates assigned)
O=C(/N=c1/cccc[nH]1)c1ccc(S(=O)(=O)N2CCc3ccccc32)cc1 (nonaromatic ring conformer: 72.68536450753186 kcal/mol)

>  <smiles>  (16) 
O=C(N=c1cccc[nH]1)c1ccc(S(=O)(=O)N2CCc3ccccc32)cc1

>  <score_type>  (16) 
oracle

>  <origin>  (16) 
adgpu

>  <m_score__min__energy>  (16) 
-10.140000000000001

>  <m_primary>  (16) 
energy

$$$$
16:0
     RDKit          3D

 49 52  0  0  0  0  0  0  0  0999 V2000
   -6.8390   25.6520  -29.3480 C   0  0  0  0  0  0  0  0  0  0  0  0
   -5.5830   25.0300  -29.8610 C   0  0  0  0  0  0  0  0  0  0  0  0
   -5.1800   23.7270  -29.6630 C   0  0  0  0  0  0  0  0  0  0  0  0
   -3.9610   23.6630  -30.3110 C   0  0  0  0  0  0  0  0  0  0  0  0
   -3.0490   22.5010  -30.3990 C   0  0  0  0  0  0  0  0  0  0  0  0
   -2.9850   21.5820  -29.3370 C   0  0  0  0  0  0  0  0  0  0  0  0
   -2.1830   20.4410  -29.4370 C   0  0  0  0  0  0  0  0  0  0  0  0
   -1.4470   20.1990  -30.5980 C   0  0  0  0  0  0  0  0  0  0  0  0
   -1.4850   21.1150  -31.6580 C   0  0  0  0  0  0  0  0  0  0  0  0
   -0.6750   20.7320  -33.1760 S   0  0  0  0  0  0  0  0  0  0  0  0
    0.7550   20.3700  -32.8960 O   0  0  0  0  0  0  0  0  0  0  0  0
   -0.7030   21.9110  -34.1090 O   0  0  0  0  0  0  0  0  0  0  0  0
   -1.4790   19.3810  -33.9020 N   0  0  0  0  0  0  0  0  0  0  0  0
   -2.8880   19.1870  -33.7550 C   0  0  0  0  0  0  0  0  0  0  0  0
   -3.5030   18.0190  -33.3410 C   0  0  0  0  0  0  0  0  0  0  0  0
   -2.8150   16.7070  -33.1030 C   0  0  0  0  0  0  0  0  0  0  0  0
   -4.7760   18.3090  -32.9690 N   0  0  0  0  0  0  0  0  0  0  0  0
   -5.7310   17.3630  -32.3890 C   0  0  0  0  0  0  0  0  0  0  0  0
   -4.9810   19.6170  -33.1230 N   0  0  0  0  0  0  0  0  0  0  0  0
   -6.1250   20.3550  -32.6610 C   0  0  0  0  0  0  0  0  0  0  0  0
   -7.4090   19.7970  -32.7500 C   0  0  0  0  0  0  0  0  0  0  0  0
   -8.5270   20.5350  -32.3480 C   0  0  0  0  0  0  0  0  0  0  0  0
   -8.3700   21.8350  -31.8610 C   0  0  0  0  0  0  0  0  0  0  0  0
   -7.0950   22.4030  -31.7830 C   0  0  0  0  0  0  0  0  0  0  0  0
   -5.9770   21.6700  -32.1880 C   0  0  0  0  0  0  0  0  0  0  0  0
   -3.8490   20.1640  -33.6090 C   0  0  0  0  0  0  0  0  0  0  0  0
   -3.6970   21.3930  -33.8450 O   0  0  0  0  0  0  0  0  0  0  0  0
   -2.2690   22.2710  -31.5460 C   0  0  0  0  0  0  0  0  0  0  0  0
   -3.7050   24.8410  -30.8360 O   0  0  0  0  0  0  0  0  0  0  0  0
   -4.6600   25.6890  -30.5870 N   0  0  0  0  0  0  0  0  0  0  0  0
   -6.8281   25.6466  -28.2481 H   0  0  0  0  0  0  0  0  0  0  0  0
   -6.9087   26.6888  -29.7089 H   0  0  0  0  0  0  0  0  0  0  0  0
   -7.7059   25.0790  -29.7089 H   0  0  0  0  0  0  0  0  0  0  0  0
   -5.7041   22.9277  -29.1185 H   0  0  0  0  0  0  0  0  0  0  0  0
   -3.5691   21.7616  -28.4223 H   0  0  0  0  0  0  0  0  0  0  0  0
   -2.1319   19.7317  -28.5978 H   0  0  0  0  0  0  0  0  0  0  0  0
   -0.8362   19.2879  -30.6811 H   0  0  0  0  0  0  0  0  0  0  0  0
   -2.7233   16.5321  -32.0209 H   0  0  0  0  0  0  0  0  0  0  0  0
   -3.4041   15.8964  -33.5568 H   0  0  0  0  0  0  0  0  0  0  0  0
   -1.8133   16.7306  -33.5568 H   0  0  0  0  0  0  0  0  0  0  0  0
   -5.6783   17.4152  -31.2915 H   0  0  0  0  0  0  0  0  0  0  0  0
   -6.7482   17.6196  -32.7199 H   0  0  0  0  0  0  0  0  0  0  0  0
   -5.4841   16.3434  -32.7199 H   0  0  0  0  0  0  0  0  0  0  0  0
   -7.5370   18.7754  -33.1373 H   0  0  0  0  0  0  0  0  0  0  0  0
   -9.5313   20.0913  -32.4154 H   0  0  0  0  0  0  0  0  0  0  0  0
   -9.2496   22.4116  -31.5389 H   0  0  0  0  0  0  0  0  0  0  0  0
   -6.9721   23.4277  -31.4025 H   0  0  0  0  0  0  0  0  0  0  0  0
   -4.9764   22.1241  -32.1365 H   0  0  0  0  0  0  0  0  0  0  0  0
   -2.2743   23.0063  -32.3641 H   0  0  0  0  0  0  0  0  0  0  0  0
  1  2  1  0
  2  3  1  0
  3  4  2  0
  4  5  1  0
  5  6  2  0
  6  7  1  0
  7  8  2  0
  8  9  1  0
  9 10  1  0
 10 11  2  0
 10 12  2  0
 10 13  1  0
 13 14  1  0
 14 15  2  0
 15 16  1  0
 15 17  1  0
 17 18  1  0
 17 19  1  0
 19 20  1  0
 20 21  2  0
 21 22  1  0
 22 23  2  0
 23 24  1  0
 24 25  2  0
 19 26  1  0
 26 27  2  0
  9 28  2  0
  4 29  1  0
 29 30  1  0
 30  2  2  0
 28  5  1  0
 26 14  1  0
 25 20  1  0
  1 31  1  0
  1 32  1  0
  1 33  1  0
  3 34  1  0
  6 35  1  0
  7 36  1  0
  8 37  1  0
 16 38  1  0
 16 39  1  0
 16 40  1  0
 18 41  1  0
 18 42  1  0
 18 43  1  0
 21 44  1  0
 22 45  1  0
 23 46  1  0
 24 47  1  0
 25 48  1  0
 28 49  1  0
M  CHG  1  13  -1
M  END
>  <UniqueID>  (17) 
16

>  <SMILES>  (17) 
Cc1cc(-c2cccc(S(=O)(=O)[N-]c3c(C)n(C)n(-c4ccccc4)c3=O)c2)on1

>  <Energy>  (17) 
126.95940080400197

>  <Genealogy>  (17) 
Cc1cc(-c2cccc(S(=O)(=O)[N-]c3c(C)n(C)n(-c4ccccc4)c3=O)c2)on1 (protonated)
Cc1cc(-c2cccc(S(=O)(=O)[N-]c3c(C)n(C)n(-c4ccccc4)c3=O)c2)on1 (3D coordinates assigned)
Cc1cc(-c2cccc(S(=O)(=O)[N-]c3c(C)n(C)n(-c4ccccc4)c3=O)c2)on1 (optimized conformer: 126.95940080400197 kcal/mol)

>  <smiles>  (17) 
Cc1cc(-c2cccc(S(=O)(=O)Nc3c(C)n(C)n(-c4ccccc4)c3=O)c2)on1

>  <score_type>  (17) 
oracle

>  <origin>  (17) 
adgpu

>  <m_score__min__energy>  (17) 
-11.26

>  <m_primary>  (17) 
energy

$$$$
17:0
     RDKit          3D

 51 54  0  0  0  0  0  0  0  0999 V2000
   -5.0680   24.2090  -31.9540 O   0  0  0  0  0  0  0  0  0  0  0  0
   -5.6110   24.3540  -30.5610 S   0  0  0  0  0  0  0  0  0  0  0  0
   -5.6140   25.8080  -30.1830 O   0  0  0  0  0  0  0  0  0  0  0  0
   -7.2350   23.7360  -30.4990 N   0  0  0  0  0  0  0  0  0  0  0  0
   -7.3050   22.3640  -31.0170 C   0  0  2  0  0  0  0  0  0  0  0  0
   -6.8210   22.3350  -32.4680 C   0  0  0  0  0  0  0  0  0  0  0  0
   -6.8790   20.9010  -33.0360 C   0  0  0  0  0  0  0  0  0  0  0  0
   -8.0780   20.1140  -32.6090 N   0  0  1  0  0  0  0  0  0  0  0  0
   -7.7470   19.0490  -31.6250 C   0  0  0  0  0  0  0  0  0  0  0  0
   -6.8690   17.9730  -32.2250 C   0  0  0  0  0  0  0  0  0  0  0  0
   -6.1150   17.1300  -31.3900 C   0  0  0  0  0  0  0  0  0  0  0  0
   -5.3070   16.1300  -31.9410 C   0  0  0  0  0  0  0  0  0  0  0  0
   -5.2430   15.9670  -33.3270 C   0  0  0  0  0  0  0  0  0  0  0  0
   -5.9850   16.8030  -34.1650 C   0  0  0  0  0  0  0  0  0  0  0  0
   -6.7950   17.8030  -33.6190 C   0  0  0  0  0  0  0  0  0  0  0  0
   -9.1760   20.9750  -32.1100 C   0  0  0  0  0  0  0  0  0  0  0  0
   -8.7560   21.8490  -30.9110 C   0  0  0  0  0  0  0  0  0  0  0  0
   -4.5950   23.4690  -29.4360 C   0  0  0  0  0  0  0  0  0  0  0  0
   -4.2160   23.9080  -28.1790 C   0  0  0  0  0  0  0  0  0  0  0  0
   -3.4600   22.9660  -27.4720 C   0  0  0  0  0  0  0  0  0  0  0  0
   -3.2490   21.7740  -28.1740 C   0  0  0  0  0  0  0  0  0  0  0  0
   -2.5010   20.5820  -27.6980 C   0  0  0  0  0  0  0  0  0  0  0  0
   -3.0920   19.6880  -26.7880 C   0  0  0  0  0  0  0  0  0  0  0  0
   -2.3790   18.5700  -26.3480 C   0  0  0  0  0  0  0  0  0  0  0  0
   -1.1160   18.3470  -26.7940 N   0  0  0  0  0  0  0  0  0  0  0  0
   -0.5120   19.1930  -27.6690 C   0  0  0  0  0  0  0  0  0  0  0  0
   -1.1890   20.3220  -28.1360 C   0  0  0  0  0  0  0  0  0  0  0  0
   -4.0130   21.9150  -29.6740 S   0  0  0  0  0  0  0  0  0  0  0  0
   -6.6542   21.7067  -30.4217 H   0  0  0  0  0  0  0  0  0  0  0  0
   -7.4629   22.9899  -33.0755 H   0  0  0  0  0  0  0  0  0  0  0  0
   -5.7786   22.6850  -32.4993 H   0  0  0  0  0  0  0  0  0  0  0  0
   -6.8836   20.9660  -34.1341 H   0  0  0  0  0  0  0  0  0  0  0  0
   -5.9995   20.3715  -32.6409 H   0  0  0  0  0  0  0  0  0  0  0  0
   -8.4590   19.6410  -33.4620 H   0  0  0  0  0  0  0  0  0  0  0  0
   -7.2190   19.5040  -30.7740 H   0  0  0  0  0  0  0  0  0  0  0  0
   -8.6886   18.5787  -31.3052 H   0  0  0  0  0  0  0  0  0  0  0  0
   -6.1607   17.2574  -30.2984 H   0  0  0  0  0  0  0  0  0  0  0  0
   -4.7216   15.4715  -31.2825 H   0  0  0  0  0  0  0  0  0  0  0  0
   -4.6078   15.1796  -33.7589 H   0  0  0  0  0  0  0  0  0  0  0  0
   -5.9318   16.6742  -35.2561 H   0  0  0  0  0  0  0  0  0  0  0  0
   -7.3769   18.4596  -34.2825 H   0  0  0  0  0  0  0  0  0  0  0  0
   -9.5039   21.6344  -32.9271 H   0  0  0  0  0  0  0  0  0  0  0  0
   -9.9852   20.3129  -31.7683 H   0  0  0  0  0  0  0  0  0  0  0  0
   -9.4318   22.7151  -30.8552 H   0  0  0  0  0  0  0  0  0  0  0  0
   -8.8165   21.2211  -30.0098 H   0  0  0  0  0  0  0  0  0  0  0  0
   -4.4820   24.8967  -27.7768 H   0  0  0  0  0  0  0  0  0  0  0  0
   -3.0685   23.1457  -26.4598 H   0  0  0  0  0  0  0  0  0  0  0  0
   -4.1139   19.8685  -26.4231 H   0  0  0  0  0  0  0  0  0  0  0  0
   -2.8420   17.8685  -25.6384 H   0  0  0  0  0  0  0  0  0  0  0  0
    0.5133   18.9882  -28.0107 H   0  0  0  0  0  0  0  0  0  0  0  0
   -0.6981   21.0059  -28.8440 H   0  0  0  0  0  0  0  0  0  0  0  0
  1  2  2  0
  2  3  2  0
  2  4  1  0
  4  5  1  0
  5  6  1  0
  6  7  1  0
  7  8  1  0
  8  9  1  0
  9 10  1  0
 10 11  2  0
 11 12  1  0
 12 13  2  0
 13 14  1  0
 14 15  2  0
  8 16  1  0
 16 17  1  0
  2 18  1  0
 18 19  2  0
 19 20  1  0
 20 21  2  0
 21 22  1  0
 22 23  2  0
 23 24  1  0
 24 25  2  0
 25 26  1  0
 26 27  2  0
 21 28  1  0
 17  5  1  0
 28 18  1  0
 15 10  1  0
 27 22  1  0
  5 29  1  1
  6 30  1  0
  6 31  1  0
  7 32  1  0
  7 33  1  0
  8 34  1  6
  9 35  1  0
  9 36  1  0
 11 37  1  0
 12 38  1  0
 13 39  1  0
 14 40  1  0
 15 41  1  0
 16 42  1  0
 16 43  1  0
 17 44  1  0
 17 45  1  0
 19 46  1  0
 20 47  1  0
 23 48  1  0
 24 49  1  0
 26 50  1  0
 27 51  1  0
M  CHG  2   4  -1   8   1
M  END
>  <UniqueID>  (18) 
17

>  <SMILES>  (18) 
O=S(=O)([N-]C1CC[NH+](Cc2ccccc2)CC1)c1ccc(-c2ccncc2)s1

>  <Energy>  (18) 
92.95595471098821

>  <Genealogy>  (18) 
O=S(=O)([N-]C1CC[NH+](Cc2ccccc2)CC1)c1ccc(-c2ccncc2)s1 (protonated)
O=S(=O)([N-]C1CC[NH+](Cc2ccccc2)CC1)c1ccc(-c2ccncc2)s1 (3D coordinates assigned)
O=S(=O)([N-]C1CC[NH+](Cc2ccccc2)CC1)c1ccc(-c2ccncc2)s1 (nonaromatic ring conformer: 92.95595471098821 kcal/mol)

>  <smiles>  (18) 
O=S(=O)(NC1CCN(Cc2ccccc2)CC1)c1ccc(-c2ccncc2)s1

>  <score_type>  (18) 
oracle

>  <origin>  (18) 
adgpu

>  <m_score__min__energy>  (18) 
-10.24

>  <m_primary>  (18) 
energy

$$$$
18:0
     RDKit          3D

 44 46  0  0  0  0  0  0  0  0999 V2000
   -5.9990   15.7420  -33.9120 C   0  0  0  0  0  0  0  0  0  0  0  0
   -5.1360   16.4970  -34.7580 O   0  0  0  0  0  0  0  0  0  0  0  0
   -4.3250   17.5590  -34.3260 C   0  0  0  0  0  0  0  0  0  0  0  0
   -2.9190   17.4550  -34.3050 C   0  0  0  0  0  0  0  0  0  0  0  0
   -2.1370   18.5240  -33.8660 C   0  0  0  0  0  0  0  0  0  0  0  0
   -2.7420   19.7080  -33.4490 C   0  0  0  0  0  0  0  0  0  0  0  0
   -4.1330   19.8280  -33.4680 C   0  0  0  0  0  0  0  0  0  0  0  0
   -4.9390   18.7570  -33.8990 C   0  0  0  0  0  0  0  0  0  0  0  0
   -6.3770   18.8680  -33.9190 N   0  0  0  0  0  0  0  0  0  0  0  0
   -7.3490   19.0550  -32.4930 S   0  0  0  0  0  0  0  0  0  0  0  0
   -6.6670   18.3820  -31.3370 O   0  0  0  0  0  0  0  0  0  0  0  0
   -8.6850   18.4040  -32.7220 O   0  0  0  0  0  0  0  0  0  0  0  0
   -7.5450   20.7640  -32.1150 C   0  0  0  0  0  0  0  0  0  0  0  0
   -8.8220   21.3020  -31.9070 C   0  0  0  0  0  0  0  0  0  0  0  0
   -8.9720   22.6630  -31.6330 C   0  0  0  0  0  0  0  0  0  0  0  0
   -7.8500   23.4920  -31.5530 C   0  0  0  0  0  0  0  0  0  0  0  0
   -6.5620   22.9560  -31.7310 C   0  0  0  0  0  0  0  0  0  0  0  0
   -5.3830   23.7750  -31.6840 N   0  0  0  0  0  0  0  0  0  0  0  0
   -5.1860   24.9450  -30.8820 C   0  0  0  0  0  0  0  0  0  0  0  0
   -6.1630   25.6830  -30.5830 O   0  0  0  0  0  0  0  0  0  0  0  0
   -3.8520   25.2740  -30.4620 N   0  0  0  0  0  0  0  0  0  0  0  0
   -3.0750   24.6610  -29.6120 C   0  0  0  0  0  0  0  0  0  0  0  0
   -3.4000   23.4210  -29.0180 C   0  0  0  0  0  0  0  0  0  0  0  0
   -2.5060   22.8330  -28.1220 C   0  0  0  0  0  0  0  0  0  0  0  0
   -1.2980   23.4640  -27.8250 C   0  0  0  0  0  0  0  0  0  0  0  0
   -0.9960   24.6770  -28.4410 C   0  0  0  0  0  0  0  0  0  0  0  0
   -1.8790   25.2380  -29.3100 N   0  0  0  0  0  0  0  0  0  0  0  0
   -6.4210   21.5960  -32.0280 C   0  0  0  0  0  0  0  0  0  0  0  0
   -5.7577   15.9531  -32.8598 H   0  0  0  0  0  0  0  0  0  0  0  0
   -7.0441   16.0210  -34.1116 H   0  0  0  0  0  0  0  0  0  0  0  0
   -5.8614   14.6690  -34.1116 H   0  0  0  0  0  0  0  0  0  0  0  0
   -2.4352   16.5246  -34.6370 H   0  0  0  0  0  0  0  0  0  0  0  0
   -1.0410   18.4319  -33.8491 H   0  0  0  0  0  0  0  0  0  0  0  0
   -2.1228   20.5493  -33.1044 H   0  0  0  0  0  0  0  0  0  0  0  0
   -4.6034   20.7678  -33.1433 H   0  0  0  0  0  0  0  0  0  0  0  0
   -6.8920   18.7450  -34.8190 H   0  0  0  0  0  0  0  0  0  0  0  0
   -9.7074   20.6514  -31.9596 H   0  0  0  0  0  0  0  0  0  0  0  0
   -9.9767   23.0839  -31.4796 H   0  0  0  0  0  0  0  0  0  0  0  0
   -7.9744   24.5660  -31.3504 H   0  0  0  0  0  0  0  0  0  0  0  0
   -4.3504   22.9228  -29.2599 H   0  0  0  0  0  0  0  0  0  0  0  0
   -2.7542   21.8711  -27.6496 H   0  0  0  0  0  0  0  0  0  0  0  0
   -0.5926   23.0099  -27.1135 H   0  0  0  0  0  0  0  0  0  0  0  0
   -0.0427   25.1811  -28.2242 H   0  0  0  0  0  0  0  0  0  0  0  0
   -5.4181   21.1760  -32.1948 H   0  0  0  0  0  0  0  0  0  0  0  0
  1  2  1  0
  2  3  1  0
  3  4  2  0
  4  5  1  0
  5  6  2  0
  6  7  1  0
  7  8  2  0
  8  9  1  0
  9 10  1  0
 10 11  2  0
 10 12  2  0
 10 13  1  0
 13 14  2  0
 14 15  1  0
 15 16  2  0
 16 17  1  0
 17 18  1  0
 18 19  1  0
 19 20  2  0
 19 21  1  0
 21 22  2  3
 22 23  1  0
 23 24  2  0
 24 25  1  0
 25 26  2  0
 26 27  1  0
 17 28  2  0
  8  3  1  0
 28 13  1  0
 27 22  1  0
  1 29  1  0
  1 30  1  0
  1 31  1  0
  4 32  1  0
  5 33  1  0
  6 34  1  0
  7 35  1  0
  9 36  1  0
 14 37  1  0
 15 38  1  0
 16 39  1  0
 23 40  1  0
 24 41  1  0
 25 42  1  0
 26 43  1  0
 28 44  1  0
M  CHG  2  18  -1  27  -1
M  END
>  <UniqueID>  (19) 
18

>  <SMILES>  (19) 
COc1ccccc1NS(=O)(=O)c1cccc([N-]C(=O)N=c2cccc[n-]2)c1

>  <Energy>  (19) 
61.343680302568984

>  <Genealogy>  (19) 
COc1ccccc1NS(=O)(=O)c1cccc([N-]C(=O)N=c2cccc[n-]2)c1 (protonated)
COc1ccccc1NS(=O)(=O)c1cccc([N-]C(=O)N=c2cccc[n-]2)c1 (3D coordinates assigned)
COc1ccccc1NS(=O)(=O)c1cccc([N-]C(=O)N=c2cccc[n-]2)c1 (optimized conformer: 61.343680302568984 kcal/mol)

>  <smiles>  (19) 
COc1ccccc1NS(=O)(=O)c1cccc(NC(=O)N=c2cccc[nH]2)c1

>  <score_type>  (19) 
oracle

>  <origin>  (19) 
adgpu

>  <m_score__min__energy>  (19) 
-11.82

>  <m_primary>  (19) 
energy

$$$$
19:0
     RDKit          3D

 46 49  0  0  0  0  0  0  0  0999 V2000
   -1.4960   19.5540  -30.8740 O   0  0  0  0  0  0  0  0  0  0  0  0
   -2.1650   20.4380  -31.4740 C   0  0  0  0  0  0  0  0  0  0  0  0
   -2.8870   21.3810  -30.7410 C   0  0  0  0  0  0  0  0  0  0  0  0
   -3.6290   22.3600  -31.4280 C   0  0  0  0  0  0  0  0  0  0  0  0
   -4.4200   23.3910  -30.7110 C   0  0  0  0  0  0  0  0  0  0  0  0
   -5.3880   24.1750  -31.3700 C   0  0  0  0  0  0  0  0  0  0  0  0
   -6.1250   25.1330  -30.6650 C   0  0  0  0  0  0  0  0  0  0  0  0
   -5.9110   25.3150  -29.2970 C   0  0  0  0  0  0  0  0  0  0  0  0
   -4.9630   24.5350  -28.6300 C   0  0  0  0  0  0  0  0  0  0  0  0
   -4.2250   23.5760  -29.3300 C   0  0  0  0  0  0  0  0  0  0  0  0
   -3.6360   22.3590  -32.7620 O   0  0  0  0  0  0  0  0  0  0  0  0
   -2.9600   21.4750  -33.4900 C   0  0  0  0  0  0  0  0  0  0  0  0
   -2.1990   20.4800  -32.8710 C   0  0  0  0  0  0  0  0  0  0  0  0
   -1.2960   19.2890  -33.8670 S   0  0  0  0  0  0  0  0  0  0  0  0
   -2.7220   18.2200  -34.0410 C   0  0  0  0  0  0  0  0  0  0  0  0
   -4.0140   18.7460  -33.9340 C   0  0  0  0  0  0  0  0  0  0  0  0
   -5.1250   17.8940  -34.0690 C   0  0  0  0  0  0  0  0  0  0  0  0
   -6.4770   18.3810  -33.9660 N   0  0  0  0  0  0  0  0  0  0  0  0
   -7.2850   18.3320  -32.7450 C   0  0  0  0  0  0  0  0  0  0  0  0
   -7.7280   19.7150  -32.3410 C   0  0  0  0  0  0  0  0  0  0  0  0
   -6.9570   20.8350  -32.6980 C   0  0  0  0  0  0  0  0  0  0  0  0
   -7.3700   22.1200  -32.3310 C   0  0  0  0  0  0  0  0  0  0  0  0
   -8.5560   22.2970  -31.6130 C   0  0  0  0  0  0  0  0  0  0  0  0
   -9.3340   21.1890  -31.2660 C   0  0  0  0  0  0  0  0  0  0  0  0
   -8.9260   19.9020  -31.6320 C   0  0  0  0  0  0  0  0  0  0  0  0
   -4.9030   16.5300  -34.3040 C   0  0  0  0  0  0  0  0  0  0  0  0
   -3.5980   16.0460  -34.4060 C   0  0  0  0  0  0  0  0  0  0  0  0
   -2.5440   16.8940  -34.2740 N   0  0  0  0  0  0  0  0  0  0  0  0
   -2.8763   21.3594  -29.6413 H   0  0  0  0  0  0  0  0  0  0  0  0
   -5.5655   24.0328  -32.4462 H   0  0  0  0  0  0  0  0  0  0  0  0
   -6.8745   25.7440  -31.1894 H   0  0  0  0  0  0  0  0  0  0  0  0
   -6.4882   26.0716  -28.7453 H   0  0  0  0  0  0  0  0  0  0  0  0
   -4.7970   24.6758  -27.5518 H   0  0  0  0  0  0  0  0  0  0  0  0
   -3.4855   22.9608  -28.7965 H   0  0  0  0  0  0  0  0  0  0  0  0
   -3.0002   21.5275  -34.5880 H   0  0  0  0  0  0  0  0  0  0  0  0
   -4.1601   19.8198  -33.7454 H   0  0  0  0  0  0  0  0  0  0  0  0
   -6.9120   18.8240  -34.8070 H   0  0  0  0  0  0  0  0  0  0  0  0
   -8.1723   17.7071  -32.9244 H   0  0  0  0  0  0  0  0  0  0  0  0
   -6.6746   17.9064  -31.9349 H   0  0  0  0  0  0  0  0  0  0  0  0
   -6.0258   20.7004  -33.2679 H   0  0  0  0  0  0  0  0  0  0  0  0
   -6.7603   22.9927  -32.6079 H   0  0  0  0  0  0  0  0  0  0  0  0
   -8.8769   23.3079  -31.3212 H   0  0  0  0  0  0  0  0  0  0  0  0
  -10.2691   21.3293  -30.7039 H   0  0  0  0  0  0  0  0  0  0  0  0
   -9.5454   19.0335  -31.3637 H   0  0  0  0  0  0  0  0  0  0  0  0
   -5.7555   15.8427  -34.4078 H   0  0  0  0  0  0  0  0  0  0  0  0
   -3.4221   14.9765  -34.5935 H   0  0  0  0  0  0  0  0  0  0  0  0
  1  2  2  0
  2  3  1  0
  3  4  2  0
  4  5  1  0
  5  6  2  0
  6  7  1  0
  7  8  2  0
  8  9  1  0
  9 10  2  0
  4 11  1  0
 11 12  1  0
 12 13  2  0
 13 14  1  0
 14 15  1  0
 15 16  2  0
 16 17  1  0
 17 18  1  0
 18 19  1  0
 19 20  1  0
 20 21  2  0
 21 22  1  0
 22 23  2  0
 23 24  1  0
 24 25  2  0
 17 26  2  0
 26 27  1  0
 27 28  2  0
 13  2  1  0
 28 15  1  0
 10  5  1  0
 25 20  1  0
  3 29  1  0
  6 30  1  0
  7 31  1  0
  8 32  1  0
  9 33  1  0
 10 34  1  0
 12 35  1  0
 16 36  1  0
 18 37  1  0
 19 38  1  0
 19 39  1  0
 21 40  1  0
 22 41  1  0
 23 42  1  0
 24 43  1  0
 25 44  1  0
 26 45  1  0
 27 46  1  0
M  END
>  <UniqueID>  (20) 
19

>  <SMILES>  (20) 
O=c1cc(-c2ccccc2)occ1Sc1cc(NCc2ccccc2)ccn1

>  <Energy>  (20) 
51.976279201520825

>  <Genealogy>  (20) 
O=c1cc(-c2ccccc2)occ1Sc1cc(NCc2ccccc2)ccn1 (3D coordinates assigned)
O=c1cc(-c2ccccc2)occ1Sc1cc(NCc2ccccc2)ccn1 (optimized conformer: 51.976279201520825 kcal/mol)

>  <smiles>  (20) 
O=c1cc(-c2ccccc2)occ1Sc1cc(NCc2ccccc2)ccn1

>  <score_type>  (20) 
oracle

>  <origin>  (20) 
adgpu

>  <m_score__min__energy>  (20) 
-9.75

>  <m_primary>  (20) 
energy

$$$$
20:0
     RDKit          3D

 49 52  0  0  0  0  0  0  0  0999 V2000
    0.9150   24.0200  -36.0900 C   0  0  0  0  0  0  0  0  0  0  0  0
    0.9490   22.4920  -36.1030 C   0  0  0  0  0  0  0  0  0  0  0  0
   -0.0730   21.9470  -35.2080 N   0  0  0  0  0  0  0  0  0  0  0  0
   -0.0090   20.6170  -34.6750 C   0  0  0  0  0  0  0  0  0  0  0  0
    0.9300   19.8410  -35.0130 O   0  0  0  0  0  0  0  0  0  0  0  0
   -1.0630   20.1550  -33.8210 N   0  0  0  0  0  0  0  0  0  0  0  0
   -1.2440   20.4870  -32.4360 C   0  0  0  0  0  0  0  0  0  0  0  0
   -0.8950   19.6000  -31.4040 C   0  0  0  0  0  0  0  0  0  0  0  0
   -1.1400   19.9430  -30.0700 C   0  0  0  0  0  0  0  0  0  0  0  0
   -1.7280   21.1720  -29.7560 C   0  0  0  0  0  0  0  0  0  0  0  0
   -2.0380   22.0860  -30.7740 C   0  0  0  0  0  0  0  0  0  0  0  0
   -2.7300   23.3480  -30.4530 C   0  0  0  0  0  0  0  0  0  0  0  0
   -2.1860   24.3330  -29.6990 N   0  0  0  0  0  0  0  0  0  0  0  0
   -3.1060   25.2630  -29.4670 N   0  0  0  0  0  0  0  0  0  0  0  0
   -4.2360   24.8690  -30.0800 C   0  0  0  0  0  0  0  0  0  0  0  0
   -5.4720   25.5040  -30.0780 C   0  0  0  0  0  0  0  0  0  0  0  0
   -6.5220   24.8950  -30.7890 C   0  0  0  0  0  0  0  0  0  0  0  0
   -6.3160   23.6830  -31.4960 C   0  0  0  0  0  0  0  0  0  0  0  0
   -7.4090   23.1320  -32.2410 N   0  0  0  0  0  0  0  0  0  0  0  0
   -8.3490   21.7610  -31.7480 S   0  0  0  0  0  0  0  0  0  0  0  0
   -9.7410   21.9010  -32.2950 O   0  0  0  0  0  0  0  0  0  0  0  0
   -8.4210   21.7310  -30.2490 O   0  0  0  0  0  0  0  0  0  0  0  0
   -7.6120   20.2660  -32.3120 C   0  0  0  0  0  0  0  0  0  0  0  0
   -6.5130   20.3020  -33.1810 C   0  0  0  0  0  0  0  0  0  0  0  0
   -5.9710   19.1100  -33.6780 C   0  0  0  0  0  0  0  0  0  0  0  0
   -6.5280   17.8770  -33.3100 C   0  0  0  0  0  0  0  0  0  0  0  0
   -6.0300   16.7250  -33.8180 F   0  0  0  0  0  0  0  0  0  0  0  0
   -7.6120   17.8380  -32.4320 C   0  0  0  0  0  0  0  0  0  0  0  0
   -8.1560   19.0260  -31.9350 C   0  0  0  0  0  0  0  0  0  0  0  0
   -5.0520   23.0520  -31.4490 C   0  0  0  0  0  0  0  0  0  0  0  0
   -4.0420   23.6790  -30.7190 C   0  0  0  0  0  0  0  0  0  0  0  0
   -1.7800   21.7400  -32.1120 C   0  0  0  0  0  0  0  0  0  0  0  0
    0.9070   24.3777  -35.0498 H   0  0  0  0  0  0  0  0  0  0  0  0
    1.8047   24.4110  -36.6054 H   0  0  0  0  0  0  0  0  0  0  0  0
    0.0088   24.3710  -36.6054 H   0  0  0  0  0  0  0  0  0  0  0  0
    0.7613   22.1348  -37.1263 H   0  0  0  0  0  0  0  0  0  0  0  0
    1.9382   22.1560  -35.7585 H   0  0  0  0  0  0  0  0  0  0  0  0
   -0.9130   22.5340  -34.9950 H   0  0  0  0  0  0  0  0  0  0  0  0
   -0.4281   18.6337  -31.6453 H   0  0  0  0  0  0  0  0  0  0  0  0
   -0.8691   19.2434  -29.2655 H   0  0  0  0  0  0  0  0  0  0  0  0
   -1.9481   21.4229  -28.7079 H   0  0  0  0  0  0  0  0  0  0  0  0
   -5.6242   26.4506  -29.5388 H   0  0  0  0  0  0  0  0  0  0  0  0
   -7.5164   25.3653  -30.7967 H   0  0  0  0  0  0  0  0  0  0  0  0
   -6.0754   21.2680  -33.4732 H   0  0  0  0  0  0  0  0  0  0  0  0
   -5.1070   19.1412  -34.3581 H   0  0  0  0  0  0  0  0  0  0  0  0
   -8.0393   16.8703  -32.1303 H   0  0  0  0  0  0  0  0  0  0  0  0
   -9.0130   18.9902  -31.2463 H   0  0  0  0  0  0  0  0  0  0  0  0
   -4.8711   22.1001  -31.9697 H   0  0  0  0  0  0  0  0  0  0  0  0
   -2.0014   22.4608  -32.9129 H   0  0  0  0  0  0  0  0  0  0  0  0
  1  2  1  0
  2  3  1  0
  3  4  1  0
  4  5  2  0
  4  6  1  0
  6  7  1  0
  7  8  2  0
  8  9  1  0
  9 10  2  0
 10 11  1  0
 11 12  1  0
 12 13  2  0
 13 14  1  0
 14 15  1  0
 15 16  2  0
 16 17  1  0
 17 18  2  0
 18 19  1  0
 19 20  1  0
 20 21  2  0
 20 22  2  0
 20 23  1  0
 23 24  2  0
 24 25  1  0
 25 26  2  0
 26 27  1  0
 26 28  1  0
 28 29  2  0
 18 30  1  0
 30 31  2  0
 11 32  2  0
 32  7  1  0
 31 12  1  0
 31 15  1  0
 29 23  1  0
  1 33  1  0
  1 34  1  0
  1 35  1  0
  2 36  1  0
  2 37  1  0
  3 38  1  0
  8 39  1  0
  9 40  1  0
 10 41  1  0
 16 42  1  0
 17 43  1  0
 24 44  1  0
 25 45  1  0
 28 46  1  0
 29 47  1  0
 30 48  1  0
 32 49  1  0
M  CHG  3   6  -1  14  -1  19  -1
M  END
>  <UniqueID>  (21) 
20

>  <SMILES>  (21) 
CCNC(=O)[N-]c1cccc(-c2n[n-]c3ccc([N-]S(=O)(=O)c4ccc(F)cc4)cc23)c1

>  <Energy>  (21) 
96.3153556382077

>  <Genealogy>  (21) 
CCNC(=O)[N-]c1cccc(-c2n[n-]c3ccc([N-]S(=O)(=O)c4ccc(F)cc4)cc23)c1 (protonated)
CCNC(=O)[N-]c1cccc(-c2n[n-]c3ccc([N-]S(=O)(=O)c4ccc(F)cc4)cc23)c1 (3D coordinates assigned)
CCNC(=O)[N-]c1cccc(-c2n[n-]c3ccc([N-]S(=O)(=O)c4ccc(F)cc4)cc23)c1 (optimized conformer: 96.3153556382077 kcal/mol)

>  <smiles>  (21) 
CCNC(=O)Nc1cccc(-c2n[nH]c3ccc(NS(=O)(=O)c4ccc(F)cc4)cc23)c1

>  <score_type>  (21) 
oracle

>  <origin>  (21) 
adgpu

>  <m_score__min__energy>  (21) 
-11.970000000000001

>  <m_primary>  (21) 
energy

$$$$
21:0
     RDKit          3D

 45 47  0  0  0  0  0  0  0  0999 V2000
   -9.3340   18.9830  -33.0740 O   0  0  0  0  0  0  0  0  0  0  0  0
   -8.3820   19.6490  -32.5830 C   0  0  0  0  0  0  0  0  0  0  0  0
   -8.5620   20.3350  -31.2630 C   0  0  0  0  0  0  0  0  0  0  0  0
   -8.8980   21.8210  -31.4410 C   0  0  0  0  0  0  0  0  0  0  0  0
   -7.6830   22.6960  -31.2540 C   0  0  0  0  0  0  0  0  0  0  0  0
   -7.0570   22.7840  -29.9990 C   0  0  0  0  0  0  0  0  0  0  0  0
   -5.8960   23.5470  -29.8420 C   0  0  0  0  0  0  0  0  0  0  0  0
   -5.3500   24.2290  -30.9370 C   0  0  0  0  0  0  0  0  0  0  0  0
   -4.1920   24.9900  -30.7930 O   0  0  0  0  0  0  0  0  0  0  0  0
   -5.9690   24.1420  -32.1880 C   0  0  0  0  0  0  0  0  0  0  0  0
   -7.1280   23.3780  -32.3490 C   0  0  0  0  0  0  0  0  0  0  0  0
   -7.0930   19.6640  -33.2080 N   0  0  0  0  0  0  0  0  0  0  0  0
   -5.8720   20.1680  -32.6490 C   0  0  0  0  0  0  0  0  0  0  0  0
   -5.4550   19.8380  -31.3480 C   0  0  0  0  0  0  0  0  0  0  0  0
   -4.2480   20.3370  -30.8490 C   0  0  0  0  0  0  0  0  0  0  0  0
   -3.4400   21.1580  -31.6460 C   0  0  0  0  0  0  0  0  0  0  0  0
   -1.9160   21.7720  -31.0130 S   0  0  0  0  0  0  0  0  0  0  0  0
   -1.4250   20.9160  -29.8780 O   0  0  0  0  0  0  0  0  0  0  0  0
   -0.8930   21.7560  -32.1120 O   0  0  0  0  0  0  0  0  0  0  0  0
   -2.1160   23.4050  -30.4500 N   0  0  0  0  0  0  0  0  0  0  0  0
   -1.5190   23.9530  -29.4310 C   0  0  0  0  0  0  0  0  0  0  0  0
   -0.5920   23.2560  -28.6280 C   0  0  0  0  0  0  0  0  0  0  0  0
    0.0040   23.9070  -27.5450 C   0  0  0  0  0  0  0  0  0  0  0  0
   -0.3180   25.2360  -27.2680 C   0  0  0  0  0  0  0  0  0  0  0  0
   -1.2360   25.8980  -28.0820 C   0  0  0  0  0  0  0  0  0  0  0  0
   -1.8080   25.2490  -29.1310 N   0  0  0  0  0  0  0  0  0  0  0  0
   -3.8470   21.4740  -32.9490 C   0  0  0  0  0  0  0  0  0  0  0  0
   -5.0520   20.9730  -33.4480 C   0  0  0  0  0  0  0  0  0  0  0  0
   -9.3816   19.8466  -30.7156 H   0  0  0  0  0  0  0  0  0  0  0  0
   -7.6174   20.2600  -30.7043 H   0  0  0  0  0  0  0  0  0  0  0  0
   -9.2968   21.9771  -32.4542 H   0  0  0  0  0  0  0  0  0  0  0  0
   -9.6398   22.0979  -30.6774 H   0  0  0  0  0  0  0  0  0  0  0  0
   -7.4823   22.2502  -29.1363 H   0  0  0  0  0  0  0  0  0  0  0  0
   -5.4105   23.6119  -28.8571 H   0  0  0  0  0  0  0  0  0  0  0  0
   -3.2930   24.5590  -30.6100 H   0  0  0  0  0  0  0  0  0  0  0  0
   -5.5418   24.6772  -33.0489 H   0  0  0  0  0  0  0  0  0  0  0  0
   -7.6072   23.3106  -33.3368 H   0  0  0  0  0  0  0  0  0  0  0  0
   -6.0799   19.1854  -30.7207 H   0  0  0  0  0  0  0  0  0  0  0  0
   -3.9316   20.0838  -29.8264 H   0  0  0  0  0  0  0  0  0  0  0  0
   -0.3406   22.2089  -28.8526 H   0  0  0  0  0  0  0  0  0  0  0  0
    0.7266   23.3721  -26.9111 H   0  0  0  0  0  0  0  0  0  0  0  0
    0.1471   25.7554  -26.4172 H   0  0  0  0  0  0  0  0  0  0  0  0
   -1.4978   26.9462  -27.8755 H   0  0  0  0  0  0  0  0  0  0  0  0
   -3.2167   22.1177  -33.5802 H   0  0  0  0  0  0  0  0  0  0  0  0
   -5.3586   21.2131  -34.4768 H   0  0  0  0  0  0  0  0  0  0  0  0
  1  2  2  0
  2  3  1  0
  3  4  1  0
  4  5  1  0
  5  6  2  0
  6  7  1  0
  7  8  2  0
  8  9  1  0
  8 10  1  0
 10 11  2  0
  2 12  1  0
 12 13  1  0
 13 14  2  0
 14 15  1  0
 15 16  2  0
 16 17  1  0
 17 18  2  0
 17 19  2  0
 17 20  1  0
 20 21  2  3
 21 22  1  0
 22 23  2  0
 23 24  1  0
 24 25  2  0
 25 26  1  0
 16 27  1  0
 27 28  2  0
 11  5  1  0
 28 13  1  0
 26 21  1  0
  3 29  1  0
  3 30  1  0
  4 31  1  0
  4 32  1  0
  6 33  1  0
  7 34  1  0
  9 35  1  0
 10 36  1  0
 11 37  1  0
 14 38  1  0
 15 39  1  0
 22 40  1  0
 23 41  1  0
 24 42  1  0
 25 43  1  0
 27 44  1  0
 28 45  1  0
M  CHG  2  12  -1  26  -1
M  END
>  <UniqueID>  (22) 
21

>  <SMILES>  (22) 
O=C(CCc1ccc(O)cc1)[N-]c1ccc(S(=O)(=O)N=c2cccc[n-]2)cc1

>  <Energy>  (22) 
52.02992033763364

>  <Genealogy>  (22) 
O=C(CCc1ccc(O)cc1)[N-]c1ccc(S(=O)(=O)N=c2cccc[n-]2)cc1 (protonated)
O=C(CCc1ccc(O)cc1)[N-]c1ccc(S(=O)(=O)N=c2cccc[n-]2)cc1 (3D coordinates assigned)
O=C(CCc1ccc(O)cc1)[N-]c1ccc(S(=O)(=O)N=c2cccc[n-]2)cc1 (optimized conformer: 52.02992033763364 kcal/mol)

>  <smiles>  (22) 
O=C(CCc1ccc(O)cc1)Nc1ccc(S(=O)(=O)N=c2cccc[nH]2)cc1

>  <score_type>  (22) 
oracle

>  <origin>  (22) 
adgpu

>  <m_score__min__energy>  (22) 
-11.470000000000001

>  <m_primary>  (22) 
energy

$$$$
22:0
     RDKit          3D

 53 57  0  0  0  0  0  0  0  0999 V2000
   -1.3380   20.7530  -33.8030 C   0  0  0  0  0  0  0  0  0  0  0  0
   -0.8400   21.3180  -32.5960 O   0  0  0  0  0  0  0  0  0  0  0  0
   -1.6460   21.8380  -31.5730 C   0  0  0  0  0  0  0  0  0  0  0  0
   -1.0490   22.1450  -30.3490 C   0  0  0  0  0  0  0  0  0  0  0  0
   -1.7930   22.6890  -29.2950 C   0  0  0  0  0  0  0  0  0  0  0  0
   -3.1770   22.9030  -29.4530 C   0  0  0  0  0  0  0  0  0  0  0  0
   -3.7870   22.5710  -30.6800 C   0  0  0  0  0  0  0  0  0  0  0  0
   -5.2390   22.7650  -30.8750 C   0  0  0  0  0  0  0  0  0  0  0  0
   -6.0000   21.6920  -31.3640 C   0  0  0  0  0  0  0  0  0  0  0  0
   -7.3750   21.8390  -31.5930 C   0  0  0  0  0  0  0  0  0  0  0  0
   -8.1910   20.6770  -32.0760 C   0  0  0  0  0  0  0  0  0  0  0  0
   -7.9940   23.0620  -31.3060 C   0  0  0  0  0  0  0  0  0  0  0  0
   -7.2450   24.1370  -30.8210 C   0  0  0  0  0  0  0  0  0  0  0  0
   -5.8650   24.0000  -30.5910 C   0  0  0  0  0  0  0  0  0  0  0  0
   -5.0790   25.1920  -30.1010 C   0  0  0  0  0  0  0  0  0  0  0  0
   -3.9280   25.3680  -30.8790 O   0  0  0  0  0  0  0  0  0  0  0  0
   -3.0230   22.0590  -31.7360 C   0  0  0  0  0  0  0  0  0  0  0  0
   -4.0180   23.3100  -28.3680 N   0  0  0  0  0  0  0  0  0  0  0  0
   -3.6880   24.0590  -27.1970 C   0  0  0  0  0  0  0  0  0  0  0  0
   -4.5730   24.1890  -26.3100 O   0  0  0  0  0  0  0  0  0  0  0  0
   -2.3990   24.7530  -27.0260 C   0  0  0  0  0  0  0  0  0  0  0  0
   -2.3660   25.9720  -26.3310 C   0  0  0  0  0  0  0  0  0  0  0  0
   -1.1530   26.6110  -26.0750 C   0  0  0  0  0  0  0  0  0  0  0  0
    0.0430   26.0180  -26.5040 C   0  0  0  0  0  0  0  0  0  0  0  0
    1.3640   26.6450  -26.2450 C   0  0  0  0  0  0  0  0  0  0  0  0
    1.6240   27.9840  -26.5900 C   0  0  0  0  0  0  0  0  0  0  0  0
    2.8840   28.5310  -26.3410 C   0  0  0  0  0  0  0  0  0  0  0  0
    3.8590   27.7730  -25.7740 N   0  0  0  0  0  0  0  0  0  0  0  0
    3.6430   26.4750  -25.4340 C   0  0  0  0  0  0  0  0  0  0  0  0
    2.3980   25.8870  -25.6670 C   0  0  0  0  0  0  0  0  0  0  0  0
   -0.0130   24.8270  -27.1600 N   0  0  0  0  0  0  0  0  0  0  0  0
   -1.1810   24.1900  -27.4430 C   0  0  0  0  0  0  0  0  0  0  0  0
   -1.1120   22.9680  -28.1100 O   0  0  0  0  0  0  0  0  0  0  0  0
   -2.0481   19.9473  -33.5651 H   0  0  0  0  0  0  0  0  0  0  0  0
   -1.8492   21.5313  -34.3886 H   0  0  0  0  0  0  0  0  0  0  0  0
   -0.5017   20.3435  -34.3886 H   0  0  0  0  0  0  0  0  0  0  0  0
    0.0257   21.9560  -30.2100 H   0  0  0  0  0  0  0  0  0  0  0  0
   -5.5132   20.7272  -31.5694 H   0  0  0  0  0  0  0  0  0  0  0  0
   -8.5824   20.1196  -31.2122 H   0  0  0  0  0  0  0  0  0  0  0  0
   -9.0295   21.0457  -32.6850 H   0  0  0  0  0  0  0  0  0  0  0  0
   -7.5595   20.0134  -32.6850 H   0  0  0  0  0  0  0  0  0  0  0  0
   -9.0766   23.1769  -31.4634 H   0  0  0  0  0  0  0  0  0  0  0  0
   -7.7392   25.0984  -30.6175 H   0  0  0  0  0  0  0  0  0  0  0  0
   -5.7055   26.0934  -30.1708 H   0  0  0  0  0  0  0  0  0  0  0  0
   -4.7818   25.0198  -29.0560 H   0  0  0  0  0  0  0  0  0  0  0  0
   -4.2330   25.6870  -31.7690 H   0  0  0  0  0  0  0  0  0  0  0  0
   -3.5041   21.8288  -32.6981 H   0  0  0  0  0  0  0  0  0  0  0  0
   -3.3055   26.4276  -25.9850 H   0  0  0  0  0  0  0  0  0  0  0  0
   -1.1347   27.5724  -25.5409 H   0  0  0  0  0  0  0  0  0  0  0  0
    0.8376   28.5974  -27.0541 H   0  0  0  0  0  0  0  0  0  0  0  0
    3.0883   29.5792  -26.6047 H   0  0  0  0  0  0  0  0  0  0  0  0
    4.4506   25.8864  -24.9743 H   0  0  0  0  0  0  0  0  0  0  0  0
    2.2266   24.8340  -25.3992 H   0  0  0  0  0  0  0  0  0  0  0  0
  1  2  1  0
  2  3  1  0
  3  4  2  0
  4  5  1  0
  5  6  2  0
  6  7  1  0
  7  8  1  0
  8  9  2  0
  9 10  1  0
 10 11  1  0
 10 12  2  0
 12 13  1  0
 13 14  2  0
 14 15  1  0
 15 16  1  0
  7 17  2  0
  6 18  1  0
 18 19  1  0
 19 20  2  0
 19 21  1  0
 21 22  2  0
 22 23  1  0
 23 24  2  0
 24 25  1  0
 25 26  2  0
 26 27  1  0
 27 28  2  0
 28 29  1  0
 29 30  2  0
 24 31  1  0
 31 32  2  0
 32 33  1  0
 17  3  1  0
 32 21  1  0
 33  5  1  0
 14  8  1  0
 30 25  1  0
  1 34  1  0
  1 35  1  0
  1 36  1  0
  4 37  1  0
  9 38  1  0
 11 39  1  0
 11 40  1  0
 11 41  1  0
 12 42  1  0
 13 43  1  0
 15 44  1  0
 15 45  1  0
 16 46  1  0
 17 47  1  0
 22 48  1  0
 23 49  1  0
 26 50  1  0
 27 51  1  0
 29 52  1  0
 30 53  1  0
M  CHG  1  18  -1
M  END
>  <UniqueID>  (23) 
22

>  <SMILES>  (23) 
COc1cc2c(c(-c3cc(C)ccc3CO)c1)[N-]C(=O)c1ccc(-c3ccncc3)nc1O2

>  <Energy>  (23) 
93.62649920344944

>  <Genealogy>  (23) 
COc1cc2c(c(-c3cc(C)ccc3CO)c1)[N-]C(=O)c1ccc(-c3ccncc3)nc1O2 (protonated)
COc1cc2c(c(-c3cc(C)ccc3CO)c1)[N-]C(=O)c1ccc(-c3ccncc3)nc1O2 (3D coordinates assigned)
COc1cc2c(c(-c3cc(C)ccc3CO)c1)[N-]C(=O)c1ccc(-c3ccncc3)nc1O2 (nonaromatic ring conformer: 93.62649920344944 kcal/mol)

>  <smiles>  (23) 
COc1cc2c(c(-c3cc(C)ccc3CO)c1)NC(=O)c1ccc(-c3ccncc3)nc1O2

>  <score_type>  (23) 
oracle

>  <origin>  (23) 
adgpu

>  <m_score__min__energy>  (23) 
-11.4

>  <m_primary>  (23) 
energy

$$$$
23:0
     RDKit          3D

 54 56  0  0  0  0  0  0  0  0999 V2000
   -2.5820   15.3080  -35.8100 C   0  0  0  0  0  0  0  0  0  0  0  0
   -2.3450   16.6830  -35.2640 C   0  0  0  0  0  0  0  0  0  0  0  0
   -1.2120   17.2110  -35.4320 O   0  0  0  0  0  0  0  0  0  0  0  0
   -3.3810   17.4140  -34.5750 N   0  0  0  0  0  0  0  0  0  0  0  0
   -4.7780   16.9600  -34.5800 C   0  0  0  0  0  0  0  0  0  0  0  0
   -5.7250   18.1700  -34.5650 C   0  0  0  0  0  0  0  0  0  0  0  0
   -5.4220   19.1630  -33.5000 N   0  0  0  0  0  0  0  0  0  0  0  0
   -6.7230   19.2480  -32.3330 S   0  0  0  0  0  0  0  0  0  0  0  0
   -7.9760   18.7100  -32.9680 O   0  0  0  0  0  0  0  0  0  0  0  0
   -6.3770   18.4150  -31.1300 O   0  0  0  0  0  0  0  0  0  0  0  0
   -6.9730   20.9230  -31.8060 C   0  0  0  0  0  0  0  0  0  0  0  0
   -5.8740   21.6410  -31.3050 C   0  0  0  0  0  0  0  0  0  0  0  0
   -6.0060   22.9780  -30.8980 C   0  0  0  0  0  0  0  0  0  0  0  0
   -4.8360   23.7350  -30.3880 C   0  0  0  0  0  0  0  0  0  0  0  0
   -4.4490   24.7660  -31.0020 O   0  0  0  0  0  0  0  0  0  0  0  0
   -4.1100   23.2760  -29.2350 N   0  0  0  0  0  0  0  0  0  0  0  0
   -3.2660   24.1200  -28.4320 C   0  0  0  0  0  0  0  0  0  0  0  0
   -3.6280   24.4900  -27.1240 C   0  0  0  0  0  0  0  0  0  0  0  0
   -2.7800   25.2930  -26.3550 C   0  0  0  0  0  0  0  0  0  0  0  0
   -1.5460   25.7170  -26.8720 C   0  0  0  0  0  0  0  0  0  0  0  0
   -0.6550   26.6110  -26.0620 C   0  0  0  0  0  0  0  0  0  0  0  0
   -1.1810   25.3460  -28.1740 C   0  0  0  0  0  0  0  0  0  0  0  0
   -2.0290   24.5420  -28.9430 C   0  0  0  0  0  0  0  0  0  0  0  0
   -7.2670   23.5860  -30.9630 C   0  0  0  0  0  0  0  0  0  0  0  0
   -8.3730   22.8770  -31.4320 C   0  0  0  0  0  0  0  0  0  0  0  0
   -8.2470   21.5410  -31.8450 C   0  0  0  0  0  0  0  0  0  0  0  0
   -9.4690   20.8180  -32.3440 C   0  0  0  0  0  0  0  0  0  0  0  0
   -4.1420   18.9450  -32.7970 C   0  0  0  0  0  0  0  0  0  0  0  0
   -3.0200   18.5910  -33.7750 C   0  0  0  0  0  0  0  0  0  0  0  0
   -2.7042   14.5991  -34.9778 H   0  0  0  0  0  0  0  0  0  0  0  0
   -3.4930   15.3103  -36.4265 H   0  0  0  0  0  0  0  0  0  0  0  0
   -1.7228   15.0052  -36.4265 H   0  0  0  0  0  0  0  0  0  0  0  0
   -4.9637   16.3635  -35.4854 H   0  0  0  0  0  0  0  0  0  0  0  0
   -4.9613   16.3474  -33.6849 H   0  0  0  0  0  0  0  0  0  0  0  0
   -5.6552   18.6758  -35.5393 H   0  0  0  0  0  0  0  0  0  0  0  0
   -6.7336   17.7818  -34.3601 H   0  0  0  0  0  0  0  0  0  0  0  0
   -4.8939   21.1472  -31.2305 H   0  0  0  0  0  0  0  0  0  0  0  0
   -4.1090   22.2510  -29.0330 H   0  0  0  0  0  0  0  0  0  0  0  0
   -4.5843   24.1454  -26.7034 H   0  0  0  0  0  0  0  0  0  0  0  0
   -3.0813   25.5936  -25.3407 H   0  0  0  0  0  0  0  0  0  0  0  0
   -0.8326   26.4328  -24.9911 H   0  0  0  0  0  0  0  0  0  0  0  0
    0.3967   26.3939  -26.3004 H   0  0  0  0  0  0  0  0  0  0  0  0
   -0.8756   27.6620  -26.3004 H   0  0  0  0  0  0  0  0  0  0  0  0
   -0.2233   25.6888  -28.5927 H   0  0  0  0  0  0  0  0  0  0  0  0
   -1.7241   24.2384  -29.9554 H   0  0  0  0  0  0  0  0  0  0  0  0
   -7.3856   24.6312  -30.6414 H   0  0  0  0  0  0  0  0  0  0  0  0
   -9.3551   23.3702  -31.4788 H   0  0  0  0  0  0  0  0  0  0  0  0
  -10.0627   20.4668  -31.4871 H   0  0  0  0  0  0  0  0  0  0  0  0
  -10.0761   21.5024  -32.9548 H   0  0  0  0  0  0  0  0  0  0  0  0
   -9.1614   19.9564  -32.9548 H   0  0  0  0  0  0  0  0  0  0  0  0
   -3.8693   19.8639  -32.2572 H   0  0  0  0  0  0  0  0  0  0  0  0
   -4.2698   18.1048  -32.0987 H   0  0  0  0  0  0  0  0  0  0  0  0
   -2.8441   19.4441  -34.4468 H   0  0  0  0  0  0  0  0  0  0  0  0
   -2.1096   18.3629  -33.2012 H   0  0  0  0  0  0  0  0  0  0  0  0
  1  2  1  0
  2  3  2  0
  2  4  1  0
  4  5  1  0
  5  6  1  0
  6  7  1  0
  7  8  1  0
  8  9  2  0
  8 10  2  0
  8 11  1  0
 11 12  2  0
 12 13  1  0
 13 14  1  0
 14 15  2  0
 14 16  1  0
 16 17  1  0
 17 18  2  0
 18 19  1  0
 19 20  2  0
 20 21  1  0
 20 22  1  0
 22 23  2  0
 13 24  2  0
 24 25  1  0
 25 26  2  0
 26 27  1  0
  7 28  1  0
 28 29  1  0
 29  4  1  0
 26 11  1  0
 23 17  1  0
  1 30  1  0
  1 31  1  0
  1 32  1  0
  5 33  1  0
  5 34  1  0
  6 35  1  0
  6 36  1  0
 12 37  1  0
 16 38  1  0
 18 39  1  0
 19 40  1  0
 21 41  1  0
 21 42  1  0
 21 43  1  0
 22 44  1  0
 23 45  1  0
 24 46  1  0
 25 47  1  0
 27 48  1  0
 27 49  1  0
 27 50  1  0
 28 51  1  0
 28 52  1  0
 29 53  1  0
 29 54  1  0
M  END
>  <UniqueID>  (24) 
23

>  <SMILES>  (24) 
CC(=O)N1CCN(S(=O)(=O)c2cc(C(=O)Nc3ccc(C)cc3)ccc2C)CC1

>  <Energy>  (24) 
65.48797262727795

>  <Genealogy>  (24) 
CC(=O)N1CCN(S(=O)(=O)c2cc(C(=O)Nc3ccc(C)cc3)ccc2C)CC1 (3D coordinates assigned)
CC(=O)N1CCN(S(=O)(=O)c2cc(C(=O)Nc3ccc(C)cc3)ccc2C)CC1 (nonaromatic ring conformer: 65.48797262727795 kcal/mol)

>  <smiles>  (24) 
CC(=O)N1CCN(S(=O)(=O)c2cc(C(=O)Nc3ccc(C)cc3)ccc2C)CC1

>  <score_type>  (24) 
oracle

>  <origin>  (24) 
adgpu

>  <m_score__min__energy>  (24) 
-9.9100000000000001

>  <m_primary>  (24) 
energy

$$$$
24:0
     RDKit          3D

 35 38  0  0  0  0  0  0  0  0999 V2000
   -0.8190   23.2990  -27.4520 C   0  0  0  0  0  0  0  0  0  0  0  0
   -0.9190   23.0730  -28.8540 O   0  0  0  0  0  0  0  0  0  0  0  0
   -2.0910   23.2430  -29.6100 C   0  0  0  0  0  0  0  0  0  0  0  0
   -2.7450   22.1670  -30.2380 C   0  0  0  0  0  0  0  0  0  0  0  0
   -3.9030   22.3660  -31.0270 C   0  0  0  0  0  0  0  0  0  0  0  0
   -4.4780   23.6660  -31.0380 C   0  0  0  0  0  0  0  0  0  0  0  0
   -5.7210   23.8680  -31.6430 C   0  0  0  0  0  0  0  0  0  0  0  0
   -6.4300   22.8050  -32.1820 C   0  0  0  0  0  0  0  0  0  0  0  0
   -5.8840   21.5080  -32.2160 C   0  0  0  0  0  0  0  0  0  0  0  0
   -6.6220   20.4240  -32.7590 C   0  0  0  0  0  0  0  0  0  0  0  0
   -7.9780   20.5420  -33.0950 O   0  0  0  0  0  0  0  0  0  0  0  0
   -5.9970   19.1810  -32.9600 C   0  0  0  0  0  0  0  0  0  0  0  0
   -6.7120   18.0970  -33.5100 C   0  0  0  0  0  0  0  0  0  0  0  0
   -6.0820   16.8740  -33.7420 C   0  0  0  0  0  0  0  0  0  0  0  0
   -4.7330   16.7140  -33.4310 C   0  0  0  0  0  0  0  0  0  0  0  0
   -4.0100   17.7730  -32.8820 C   0  0  0  0  0  0  0  0  0  0  0  0
   -4.6340   19.0130  -32.6310 C   0  0  0  0  0  0  0  0  0  0  0  0
   -3.9090   20.0780  -32.0670 C   0  0  0  0  0  0  0  0  0  0  0  0
   -2.5320   19.9270  -31.9150 O   0  0  0  0  0  0  0  0  0  0  0  0
   -4.5520   21.3040  -31.7430 C   0  0  0  0  0  0  0  0  0  0  0  0
   -3.8140   24.7420  -30.4170 C   0  0  0  0  0  0  0  0  0  0  0  0
   -4.3410   26.0300  -30.4710 O   0  0  0  0  0  0  0  0  0  0  0  0
   -2.6210   24.5290  -29.7260 C   0  0  0  0  0  0  0  0  0  0  0  0
   -1.9690   25.6020  -29.1270 O   0  0  0  0  0  0  0  0  0  0  0  0
   -1.2065   22.4232  -26.9109 H   0  0  0  0  0  0  0  0  0  0  0  0
    0.2347   23.4608  -27.1809 H   0  0  0  0  0  0  0  0  0  0  0  0
   -1.4079   24.1876  -27.1809 H   0  0  0  0  0  0  0  0  0  0  0  0
   -2.3476   21.1489  -30.1130 H   0  0  0  0  0  0  0  0  0  0  0  0
   -6.1425   24.8828  -31.6924 H   0  0  0  0  0  0  0  0  0  0  0  0
   -7.4367   22.9784  -32.5901 H   0  0  0  0  0  0  0  0  0  0  0  0
   -8.4260   20.0530  -33.8560 H   0  0  0  0  0  0  0  0  0  0  0  0
   -7.7768   18.2169  -33.7585 H   0  0  0  0  0  0  0  0  0  0  0  0
   -6.6504   16.0355  -34.1707 H   0  0  0  0  0  0  0  0  0  0  0  0
   -4.2372   15.7502  -33.6189 H   0  0  0  0  0  0  0  0  0  0  0  0
   -2.9446   17.6401  -32.6428 H   0  0  0  0  0  0  0  0  0  0  0  0
  1  2  1  0
  2  3  1  0
  3  4  2  0
  4  5  1  0
  5  6  2  0
  6  7  1  0
  7  8  2  0
  8  9  1  0
  9 10  2  0
 10 11  1  0
 10 12  1  0
 12 13  2  0
 13 14  1  0
 14 15  2  0
 15 16  1  0
 16 17  2  0
 17 18  1  0
 18 19  1  0
 18 20  2  0
  6 21  1  0
 21 22  1  0
 21 23  2  0
 23 24  1  0
 23  3  1  0
 20  5  1  0
 20  9  1  0
 17 12  1  0
  1 25  1  0
  1 26  1  0
  1 27  1  0
  4 28  1  0
  7 29  1  0
  8 30  1  0
 11 31  1  0
 13 32  1  0
 14 33  1  0
 15 34  1  0
 16 35  1  0
M  CHG  3  19  -1  22  -1  24  -1
M  END
>  <UniqueID>  (25) 
24

>  <SMILES>  (25) 
COc1cc2c(ccc3c(O)c4ccccc4c([O-])c32)c([O-])c1[O-]

>  <Energy>  (25) 
69.52199598777352

>  <Genealogy>  (25) 
COc1cc2c(ccc3c(O)c4ccccc4c([O-])c32)c([O-])c1[O-] (protonated)
COc1cc2c(ccc3c(O)c4ccccc4c([O-])c32)c([O-])c1[O-] (3D coordinates assigned)
COc1cc2c(ccc3c(O)c4ccccc4c([O-])c32)c([O-])c1[O-] (optimized conformer: 69.52199598777352 kcal/mol)

>  <smiles>  (25) 
COc1cc2c(ccc3c(O)c4ccccc4c(O)c32)c(O)c1O

>  <score_type>  (25) 
oracle

>  <origin>  (25) 
adgpu

>  <m_score__min__energy>  (25) 
-13.06

>  <m_primary>  (25) 
energy

$$$$
25:0
     RDKit          3D

 39 41  0  0  0  0  0  0  0  0999 V2000
   -2.1960   24.7620  -28.1340 C   0  0  0  0  0  0  0  0  0  0  0  0
   -2.7380   25.2840  -29.3440 O   0  0  0  0  0  0  0  0  0  0  0  0
   -3.7820   24.6860  -30.0650 C   0  0  0  0  0  0  0  0  0  0  0  0
   -5.0540   25.2630  -29.9930 C   0  0  0  0  0  0  0  0  0  0  0  0
   -6.1290   24.7060  -30.6910 C   0  0  0  0  0  0  0  0  0  0  0  0
   -5.9500   23.5480  -31.4680 C   0  0  0  0  0  0  0  0  0  0  0  0
   -7.0760   22.9580  -32.2280 C   0  0  0  0  0  0  0  0  0  0  0  0
   -7.9530   23.7210  -32.7140 O   0  0  0  0  0  0  0  0  0  0  0  0
   -7.2010   21.4980  -32.4400 C   0  0  0  0  0  0  0  0  0  0  0  0
   -8.3250   20.7020  -32.2510 C   0  0  0  0  0  0  0  0  0  0  0  0
   -9.6630   21.1440  -31.7490 C   0  0  0  0  0  0  0  0  0  0  0  0
   -8.0420   19.4370  -32.6300 N   0  0  0  0  0  0  0  0  0  0  0  0
   -6.7850   19.3840  -33.0480 N   0  0  0  0  0  0  0  0  0  0  0  0
   -6.1430   18.1930  -33.5430 C   0  0  0  0  0  0  0  0  0  0  0  0
   -5.2200   18.2610  -34.6030 C   0  0  0  0  0  0  0  0  0  0  0  0
   -4.5950   17.1010  -35.0710 C   0  0  0  0  0  0  0  0  0  0  0  0
   -4.8820   15.8660  -34.4850 C   0  0  0  0  0  0  0  0  0  0  0  0
   -5.7910   15.7880  -33.4290 C   0  0  0  0  0  0  0  0  0  0  0  0
   -6.4180   16.9460  -32.9560 C   0  0  0  0  0  0  0  0  0  0  0  0
   -6.2590   20.6240  -32.9560 C   0  0  0  0  0  0  0  0  0  0  0  0
   -5.1050   20.9390  -33.3530 O   0  0  0  0  0  0  0  0  0  0  0  0
   -4.6690   22.9780  -31.5540 C   0  0  0  0  0  0  0  0  0  0  0  0
   -3.5940   23.5370  -30.8550 C   0  0  0  0  0  0  0  0  0  0  0  0
   -2.6909   25.2386  -27.2749 H   0  0  0  0  0  0  0  0  0  0  0  0
   -2.3624   23.6753  -28.0965 H   0  0  0  0  0  0  0  0  0  0  0  0
   -1.1163   24.9691  -28.0965 H   0  0  0  0  0  0  0  0  0  0  0  0
   -5.2098   26.1638  -29.3812 H   0  0  0  0  0  0  0  0  0  0  0  0
   -7.1215   25.1766  -30.6321 H   0  0  0  0  0  0  0  0  0  0  0  0
   -9.6605   21.1432  -30.6490 H   0  0  0  0  0  0  0  0  0  0  0  0
   -9.8745   22.1597  -32.1144 H   0  0  0  0  0  0  0  0  0  0  0  0
  -10.4379   20.4541  -32.1144 H   0  0  0  0  0  0  0  0  0  0  0  0
   -8.6970   18.6240  -32.5890 H   0  0  0  0  0  0  0  0  0  0  0  0
   -4.9889   19.2318  -35.0659 H   0  0  0  0  0  0  0  0  0  0  0  0
   -3.8764   17.1611  -35.9017 H   0  0  0  0  0  0  0  0  0  0  0  0
   -4.3912   14.9542  -34.8562 H   0  0  0  0  0  0  0  0  0  0  0  0
   -6.0149   14.8148  -32.9678 H   0  0  0  0  0  0  0  0  0  0  0  0
   -7.1300   16.8800  -32.1202 H   0  0  0  0  0  0  0  0  0  0  0  0
   -4.5100   22.0848  -32.1761 H   0  0  0  0  0  0  0  0  0  0  0  0
   -2.5974   23.0763  -30.9232 H   0  0  0  0  0  0  0  0  0  0  0  0
  1  2  1  0
  2  3  1  0
  3  4  2  0
  4  5  1  0
  5  6  2  0
  6  7  1  0
  7  8  2  0
  7  9  1  0
  9 10  2  0
 10 11  1  0
 10 12  1  0
 12 13  1  0
 13 14  1  0
 14 15  2  0
 15 16  1  0
 16 17  2  0
 17 18  1  0
 18 19  2  0
 13 20  1  0
 20 21  2  0
  6 22  1  0
 22 23  2  0
 23  3  1  0
 20  9  1  0
 19 14  1  0
  1 24  1  0
  1 25  1  0
  1 26  1  0
  4 27  1  0
  5 28  1  0
 11 29  1  0
 11 30  1  0
 11 31  1  0
 12 32  1  0
 15 33  1  0
 16 34  1  0
 17 35  1  0
 18 36  1  0
 19 37  1  0
 22 38  1  0
 23 39  1  0
M  END
>  <UniqueID>  (26) 
25

>  <SMILES>  (26) 
COc1ccc(C(=O)c2c(C)[nH]n(-c3ccccc3)c2=O)cc1

>  <Energy>  (26) 
83.01351341799608

>  <Genealogy>  (26) 
COc1ccc(C(=O)c2c(C)[nH]n(-c3ccccc3)c2=O)cc1 (3D coordinates assigned)
COc1ccc(C(=O)c2c(C)[nH]n(-c3ccccc3)c2=O)cc1 (optimized conformer: 83.01351341799608 kcal/mol)

>  <smiles>  (26) 
COc1ccc(C(=O)c2c(C)[nH]n(-c3ccccc3)c2=O)cc1

>  <score_type>  (26) 
oracle

>  <origin>  (26) 
adgpu

>  <m_score__min__energy>  (26) 
-8.6600000000000001

>  <m_primary>  (26) 
energy

$$$$
26:0
     RDKit          3D

 42 44  0  0  0  0  0  0  0  0999 V2000
   -0.1250   24.1780  -29.0570 O   0  0  0  0  0  0  0  0  0  0  0  0
   -1.0370   23.8600  -28.2450 C   0  0  0  0  0  0  0  0  0  0  0  0
   -0.6990   23.6990  -26.8150 C   0  0  0  0  0  0  0  0  0  0  0  0
   -0.2960   24.8240  -26.0740 C   0  0  0  0  0  0  0  0  0  0  0  0
    0.0130   24.7060  -24.7170 C   0  0  0  0  0  0  0  0  0  0  0  0
   -0.0790   23.4640  -24.0850 C   0  0  0  0  0  0  0  0  0  0  0  0
   -0.4790   22.3390  -24.8080 C   0  0  0  0  0  0  0  0  0  0  0  0
   -0.7930   22.4460  -26.1690 C   0  0  0  0  0  0  0  0  0  0  0  0
   -1.2800   20.8460  -27.1100 Br  0  0  0  0  0  0  0  0  0  0  0  0
   -2.3780   23.6390  -28.7270 N   0  0  0  0  0  0  0  0  0  0  0  0
   -3.5310   23.8470  -27.8410 C   0  0  0  0  0  0  0  0  0  0  0  0
   -4.7860   24.1620  -28.6630 C   0  0  0  0  0  0  0  0  0  0  0  0
   -5.0770   23.0970  -29.6510 N   0  0  0  0  0  0  0  0  0  0  0  0
   -6.2300   23.6960  -30.8210 S   0  0  0  0  0  0  0  0  0  0  0  0
   -7.1980   24.6350  -30.1550 O   0  0  0  0  0  0  0  0  0  0  0  0
   -5.5080   24.4420  -31.9090 O   0  0  0  0  0  0  0  0  0  0  0  0
   -7.1350   22.3490  -31.5080 C   0  0  0  0  0  0  0  0  0  0  0  0
   -8.5060   22.2270  -31.2430 C   0  0  0  0  0  0  0  0  0  0  0  0
   -9.2320   21.1550  -31.7720 C   0  0  0  0  0  0  0  0  0  0  0  0
   -8.5910   20.2010  -32.5670 C   0  0  0  0  0  0  0  0  0  0  0  0
   -7.2230   20.3160  -32.8310 C   0  0  0  0  0  0  0  0  0  0  0  0
   -6.4940   21.3860  -32.3030 C   0  0  0  0  0  0  0  0  0  0  0  0
   -3.8750   22.5360  -30.3310 C   0  0  0  0  0  0  0  0  0  0  0  0
   -2.6120   23.3910  -30.1530 C   0  0  0  0  0  0  0  0  0  0  0  0
   -0.2235   25.8047  -26.5669 H   0  0  0  0  0  0  0  0  0  0  0  0
    0.3289   25.5915  -24.1459 H   0  0  0  0  0  0  0  0  0  0  0  0
    0.1641   23.3722  -23.0161 H   0  0  0  0  0  0  0  0  0  0  0  0
   -0.5481   21.3626  -24.3061 H   0  0  0  0  0  0  0  0  0  0  0  0
   -3.7037   22.9350  -27.2507 H   0  0  0  0  0  0  0  0  0  0  0  0
   -3.3196   24.6950  -27.1730 H   0  0  0  0  0  0  0  0  0  0  0  0
   -5.6435   24.2591  -27.9809 H   0  0  0  0  0  0  0  0  0  0  0  0
   -4.6097   25.0990  -29.2116 H   0  0  0  0  0  0  0  0  0  0  0  0
   -5.5530   22.3160  -29.1410 H   0  0  0  0  0  0  0  0  0  0  0  0
   -9.0124   22.9766  -30.6171 H   0  0  0  0  0  0  0  0  0  0  0  0
  -10.3079   21.0628  -31.5622 H   0  0  0  0  0  0  0  0  0  0  0  0
   -9.1629   19.3595  -32.9851 H   0  0  0  0  0  0  0  0  0  0  0  0
   -6.7192   19.5634  -33.4552 H   0  0  0  0  0  0  0  0  0  0  0  0
   -5.4173   21.4732  -32.5108 H   0  0  0  0  0  0  0  0  0  0  0  0
   -3.6781   21.5351  -29.9193 H   0  0  0  0  0  0  0  0  0  0  0  0
   -4.0970   22.5095  -31.4080 H   0  0  0  0  0  0  0  0  0  0  0  0
   -1.7479   22.8592  -30.5779 H   0  0  0  0  0  0  0  0  0  0  0  0
   -2.7472   24.3516  -30.6717 H   0  0  0  0  0  0  0  0  0  0  0  0
  1  2  2  0
  2  3  1  0
  3  4  2  0
  4  5  1  0
  5  6  2  0
  6  7  1  0
  7  8  2  0
  8  9  1  0
  2 10  1  0
 10 11  1  0
 11 12  1  0
 12 13  1  0
 13 14  1  0
 14 15  2  0
 14 16  2  0
 14 17  1  0
 17 18  2  0
 18 19  1  0
 19 20  2  0
 20 21  1  0
 21 22  2  0
 13 23  1  0
 23 24  1  0
  8  3  1  0
 24 10  1  0
 22 17  1  0
  4 25  1  0
  5 26  1  0
  6 27  1  0
  7 28  1  0
 11 29  1  0
 11 30  1  0
 12 31  1  0
 12 32  1  0
 13 33  1  0
 18 34  1  0
 19 35  1  0
 20 36  1  0
 21 37  1  0
 22 38  1  0
 23 39  1  0
 23 40  1  0
 24 41  1  0
 24 42  1  0
M  CHG  1  13   1
M  END
>  <UniqueID>  (27) 
26

>  <SMILES>  (27) 
O=C(c1ccccc1Br)N1CC[NH+](S(=O)(=O)c2ccccc2)CC1

>  <Energy>  (27) 
55.43629117808463

>  <Genealogy>  (27) 
O=C(c1ccccc1Br)N1CC[NH+](S(=O)(=O)c2ccccc2)CC1 (protonated)
O=C(c1ccccc1Br)N1CC[NH+](S(=O)(=O)c2ccccc2)CC1 (3D coordinates assigned)
O=C(c1ccccc1Br)N1CC[NH+](S(=O)(=O)c2ccccc2)CC1 (nonaromatic ring conformer: 55.43629117808463 kcal/mol)

>  <smiles>  (27) 
O=C(c1ccccc1Br)N1CCN(S(=O)(=O)c2ccccc2)CC1

>  <score_type>  (27) 
oracle

>  <origin>  (27) 
adgpu

>  <m_score__min__energy>  (27) 
-8.1799999999999997

>  <m_primary>  (27) 
energy

$$$$
27:0
     RDKit          3D

 44 47  0  0  0  0  0  0  0  0999 V2000
    0.2990   14.1650  -25.6700 H   0  0  0  0  0  0  0  0  0  0  0  0
    1.1200   14.3260  -26.2970 N   0  0  0  0  0  0  0  0  0  0  0  0
    1.1810   15.3740  -27.0510 C   0  0  0  0  0  0  0  0  0  0  0  0
    2.2080   15.6350  -27.8770 N   0  0  0  0  0  0  0  0  0  0  0  0
    1.9060   16.7810  -28.4690 N   0  0  0  0  0  0  0  0  0  0  0  0
    0.7100   17.1670  -27.9770 C   0  0  0  0  0  0  0  0  0  0  0  0
    0.0020   18.4000  -28.3740 C   0  0  0  0  0  0  0  0  0  0  0  0
   -0.8620   19.0470  -27.4780 C   0  0  0  0  0  0  0  0  0  0  0  0
   -1.0157   18.6328  -26.4706 H   0  0  0  0  0  0  0  0  0  0  0  0
   -1.5280   20.2140  -27.8580 C   0  0  0  0  0  0  0  0  0  0  0  0
   -2.1977   20.7160  -27.1442 H   0  0  0  0  0  0  0  0  0  0  0  0
   -1.3510   20.7530  -29.1430 C   0  0  0  0  0  0  0  0  0  0  0  0
   -2.0890   21.9810  -29.5170 C   0  0  0  0  0  0  0  0  0  0  0  0
   -1.8040   23.1950  -28.8780 C   0  0  0  0  0  0  0  0  0  0  0  0
   -1.0097   23.2393  -28.1183 H   0  0  0  0  0  0  0  0  0  0  0  0
   -2.5210   24.3480  -29.1990 C   0  0  0  0  0  0  0  0  0  0  0  0
   -2.2825   25.2964  -28.6953 H   0  0  0  0  0  0  0  0  0  0  0  0
   -3.5470   24.3080  -30.1620 C   0  0  0  0  0  0  0  0  0  0  0  0
   -4.2780   25.4570  -30.5090 O   0  0  0  0  0  0  0  0  0  0  0  0
   -5.6110   25.7270  -30.0880 C   0  0  0  0  0  0  0  0  0  0  0  0
   -5.6537   25.7357  -28.9889 H   0  0  0  0  0  0  0  0  0  0  0  0
   -5.9263   26.7072  -30.4749 H   0  0  0  0  0  0  0  0  0  0  0  0
   -6.2829   24.9467  -30.4749 H   0  0  0  0  0  0  0  0  0  0  0  0
   -3.8420   23.0890  -30.8060 C   0  0  0  0  0  0  0  0  0  0  0  0
   -4.9430   23.0030  -31.7940 C   0  0  0  0  0  0  0  0  0  0  0  0
   -5.4410   24.0640  -32.2580 O   0  0  0  0  0  0  0  0  0  0  0  0
   -5.4850   21.7080  -32.2460 C   0  0  0  0  0  0  0  0  0  0  0  0
   -6.3570   20.9820  -31.5110 N   0  0  0  0  0  0  0  0  0  0  0  0
   -6.6120   19.9090  -32.2860 C   0  0  0  0  0  0  0  0  0  0  0  0
   -7.5860   18.8360  -31.9300 C   0  0  0  0  0  0  0  0  0  0  0  0
   -7.6590   18.7555  -30.8354 H   0  0  0  0  0  0  0  0  0  0  0  0
   -8.5735   19.0844  -32.3461 H   0  0  0  0  0  0  0  0  0  0  0  0
   -7.2435   17.8771  -32.3461 H   0  0  0  0  0  0  0  0  0  0  0  0
   -5.9270   20.0130  -33.4750 C   0  0  0  0  0  0  0  0  0  0  0  0
   -5.9583   19.2919  -34.3051 H   0  0  0  0  0  0  0  0  0  0  0  0
   -5.2150   21.1480  -33.4430 N   0  0  0  0  0  0  0  0  0  0  0  0
   -4.6160   21.5290  -34.2090 H   0  0  0  0  0  0  0  0  0  0  0  0
   -3.1170   21.9320  -30.4690 C   0  0  0  0  0  0  0  0  0  0  0  0
   -3.3594   20.9771  -30.9583 H   0  0  0  0  0  0  0  0  0  0  0  0
   -0.4740   20.1100  -30.0420 C   0  0  0  0  0  0  0  0  0  0  0  0
   -0.1310   20.7690  -31.6400 Cl  0  0  0  0  0  0  0  0  0  0  0  0
    0.1930   18.9410  -29.6550 C   0  0  0  0  0  0  0  0  0  0  0  0
    0.8728   18.4422  -30.3614 H   0  0  0  0  0  0  0  0  0  0  0  0
    0.2570   16.3000  -27.1010 O   0  0  0  0  0  0  0  0  0  0  0  0
  1  2  1  0
  2  3  2  0
  3  4  1  0
  4  5  1  0
  5  6  2  0
  6  7  1  0
  7  8  2  0
  8  9  1  0
  8 10  1  0
 10 11  1  0
 10 12  2  0
 12 13  1  0
 13 14  2  0
 14 15  1  0
 14 16  1  0
 16 17  1  0
 16 18  2  0
 18 19  1  0
 19 20  1  0
 20 21  1  0
 20 22  1  0
 20 23  1  0
 18 24  1  0
 24 25  1  0
 25 26  2  0
 25 27  1  0
 27 28  2  0
 28 29  1  0
 29 30  1  0
 30 31  1  0
 30 32  1  0
 30 33  1  0
 29 34  2  0
 34 35  1  0
 34 36  1  0
 36 37  1  0
 24 38  2  0
 38 39  1  0
 12 40  1  0
 40 41  1  0
 40 42  2  0
 42 43  1  0
  6 44  1  0
 44  3  1  0
 42  7  1  0
 38 13  1  0
 36 27  1  0
M  CHG  1   4  -1
M  END
>  <UniqueID>  (28) 
27

>  <SMILES>  (28) 
[H]/N=c1/[n-]nc(-c2ccc(-c3ccc(OC)c(C(=O)c4nc(C)c[nH]4)c3)c(Cl)c2)o1

>  <Energy>  (28) 
122.16704111338466

>  <Genealogy>  (28) 
COc1ccc(-c2ccc(-c3n[n-]c(=N)o3)cc2Cl)cc1C(=O)c1nc(C)c[nH]1 (protonated)
[H]/N=c1/[n-]nc(-c2ccc(-c3ccc(OC)c(C(=O)c4nc(C)c[nH]4)c3)c(Cl)c2)o1 (cis-trans isomerization)
[H]/N=c1/[n-]nc(-c2ccc(-c3ccc(OC)c(C(=O)c4nc(C)c[nH]4)c3)c(Cl)c2)o1 (3D coordinates assigned)
[H]/N=c1/[n-]nc(-c2ccc(-c3ccc(OC)c(C(=O)c4nc(C)c[nH]4)c3)c(Cl)c2)o1 (optimized conformer: 122.16704111338466 kcal/mol)

>  <smiles>  (28) 
COc1ccc(-c2ccc(-c3n[nH]c(=N)o3)cc2Cl)cc1C(=O)c1nc(C)c[nH]1

>  <score_type>  (28) 
oracle

>  <origin>  (28) 
adgpu

>  <m_score__min__energy>  (28) 
-9.9800000000000004

>  <m_primary>  (28) 
energy

$$$$
28:0
     RDKit          3D

 61 64  0  0  0  0  0  0  0  0999 V2000
    0.3020   17.4390  -27.4660 C   0  0  0  0  0  0  0  0  0  0  0  0
    1.5210   18.2540  -27.7850 C   0  0  0  0  0  0  0  0  0  0  0  0
    2.5940   18.0130  -27.1720 O   0  0  0  0  0  0  0  0  0  0  0  0
    1.5080   19.2740  -28.7940 N   0  0  0  0  0  0  0  0  0  0  0  0
    0.6510   19.2960  -29.9430 C   0  0  0  0  0  0  0  0  0  0  0  0
    0.1810   20.5240  -30.4200 C   0  0  0  0  0  0  0  0  0  0  0  0
   -0.6080   20.5780  -31.5740 C   0  0  0  0  0  0  0  0  0  0  0  0
   -0.9490   19.3970  -32.2520 C   0  0  0  0  0  0  0  0  0  0  0  0
   -1.6880   19.4640  -33.5650 C   0  0  0  0  0  0  0  0  0  0  0  0
   -2.3470   20.7630  -33.7200 N   0  0  0  0  0  0  0  0  0  0  0  0
   -3.3910   21.2510  -32.8530 C   0  0  0  0  0  0  0  0  0  0  0  0
   -3.1550   22.3900  -32.0720 C   0  0  0  0  0  0  0  0  0  0  0  0
   -4.1720   22.9370  -31.2780 C   0  0  0  0  0  0  0  0  0  0  0  0
   -3.8910   24.1250  -30.4440 C   0  0  0  0  0  0  0  0  0  0  0  0
   -4.2520   25.2590  -30.8550 O   0  0  0  0  0  0  0  0  0  0  0  0
   -3.2450   24.0300  -29.1680 N   0  0  0  0  0  0  0  0  0  0  0  0
   -1.8760   23.5720  -28.9550 C   0  0  0  0  0  0  0  0  0  0  0  0
   -1.9020   22.2910  -28.1690 C   0  0  0  0  0  0  0  0  0  0  0  0
   -1.1550   22.1750  -26.9840 C   0  0  0  0  0  0  0  0  0  0  0  0
   -1.1970   20.9900  -26.2400 C   0  0  0  0  0  0  0  0  0  0  0  0
   -1.9860   19.9170  -26.6700 C   0  0  0  0  0  0  0  0  0  0  0  0
   -2.7370   20.0300  -27.8420 C   0  0  0  0  0  0  0  0  0  0  0  0
   -2.7030   21.2160  -28.5870 C   0  0  0  0  0  0  0  0  0  0  0  0
   -5.4290   22.3190  -31.2440 C   0  0  0  0  0  0  0  0  0  0  0  0
   -5.6920   21.1750  -32.0190 C   0  0  0  0  0  0  0  0  0  0  0  0
   -7.0080   20.5750  -32.0180 N   0  0  0  0  0  0  0  0  0  0  0  0
   -8.2550   21.3210  -31.8360 C   0  0  0  0  0  0  0  0  0  0  0  0
   -9.4390   20.3880  -32.1570 C   0  0  0  0  0  0  0  0  0  0  0  0
   -9.0480   18.9350  -31.8510 C   0  0  0  0  0  0  0  0  0  0  0  0
   -7.3070   18.8840  -32.1180 S   0  0  0  0  0  0  0  0  0  0  0  0
   -6.5980   18.1260  -31.0300 O   0  0  0  0  0  0  0  0  0  0  0  0
   -6.9760   18.3390  -33.4810 O   0  0  0  0  0  0  0  0  0  0  0  0
   -4.6550   20.6350  -32.7990 C   0  0  0  0  0  0  0  0  0  0  0  0
   -0.5490   18.1600  -31.7210 C   0  0  0  0  0  0  0  0  0  0  0  0
    0.2480   18.1100  -30.5760 C   0  0  0  0  0  0  0  0  0  0  0  0
    0.1874   17.3624  -26.3747 H   0  0  0  0  0  0  0  0  0  0  0  0
   -0.5867   17.9252  -27.8947 H   0  0  0  0  0  0  0  0  0  0  0  0
    0.4117   16.4320  -27.8947 H   0  0  0  0  0  0  0  0  0  0  0  0
    0.4329   21.4517  -29.8852 H   0  0  0  0  0  0  0  0  0  0  0  0
   -0.9622   21.5487  -31.9512 H   0  0  0  0  0  0  0  0  0  0  0  0
   -0.9741   19.3202  -34.3894 H   0  0  0  0  0  0  0  0  0  0  0  0
   -2.4531   18.6739  -33.5820 H   0  0  0  0  0  0  0  0  0  0  0  0
   -2.1270   21.3080  -34.5860 H   0  0  0  0  0  0  0  0  0  0  0  0
   -2.1605   22.8600  -32.0822 H   0  0  0  0  0  0  0  0  0  0  0  0
   -1.3905   23.3981  -29.9266 H   0  0  0  0  0  0  0  0  0  0  0  0
   -1.3121   24.3359  -28.3996 H   0  0  0  0  0  0  0  0  0  0  0  0
   -0.5362   23.0171  -26.6406 H   0  0  0  0  0  0  0  0  0  0  0  0
   -0.6083   20.9019  -25.3150 H   0  0  0  0  0  0  0  0  0  0  0  0
   -2.0146   18.9856  -26.0854 H   0  0  0  0  0  0  0  0  0  0  0  0
   -3.3563   19.1864  -28.1808 H   0  0  0  0  0  0  0  0  0  0  0  0
   -3.3059   21.3054  -29.5027 H   0  0  0  0  0  0  0  0  0  0  0  0
   -6.2206   22.7339  -30.6028 H   0  0  0  0  0  0  0  0  0  0  0  0
   -8.3296   21.6694  -30.7953 H   0  0  0  0  0  0  0  0  0  0  0  0
   -8.2719   22.1930  -32.5064 H   0  0  0  0  0  0  0  0  0  0  0  0
  -10.3055   20.6712  -31.5415 H   0  0  0  0  0  0  0  0  0  0  0  0
   -9.6979   20.4799  -33.2221 H   0  0  0  0  0  0  0  0  0  0  0  0
   -9.2897   18.6781  -30.8091 H   0  0  0  0  0  0  0  0  0  0  0  0
   -9.5899   18.2136  -32.4802 H   0  0  0  0  0  0  0  0  0  0  0  0
   -4.8344   19.7161  -33.3765 H   0  0  0  0  0  0  0  0  0  0  0  0
   -0.8651   17.2264  -32.2094 H   0  0  0  0  0  0  0  0  0  0  0  0
    0.5613   17.1375  -30.1684 H   0  0  0  0  0  0  0  0  0  0  0  0
  1  2  1  0
  2  3  2  0
  2  4  1  0
  4  5  1  0
  5  6  2  0
  6  7  1  0
  7  8  2  0
  8  9  1  0
  9 10  1  0
 10 11  1  0
 11 12  2  0
 12 13  1  0
 13 14  1  0
 14 15  2  0
 14 16  1  0
 16 17  1  0
 17 18  1  0
 18 19  2  0
 19 20  1  0
 20 21  2  0
 21 22  1  0
 22 23  2  0
 13 24  2  0
 24 25  1  0
 25 26  1  0
 26 27  1  0
 27 28  1  0
 28 29  1  0
 29 30  1  0
 30 31  2  0
 30 32  2  0
 25 33  2  0
  8 34  1  0
 34 35  2  0
 35  5  1  0
 33 11  1  0
 23 18  1  0
 30 26  1  0
  1 36  1  0
  1 37  1  0
  1 38  1  0
  6 39  1  0
  7 40  1  0
  9 41  1  0
  9 42  1  0
 10 43  1  0
 12 44  1  0
 17 45  1  0
 17 46  1  0
 19 47  1  0
 20 48  1  0
 21 49  1  0
 22 50  1  0
 23 51  1  0
 24 52  1  0
 27 53  1  0
 27 54  1  0
 28 55  1  0
 28 56  1  0
 29 57  1  0
 29 58  1  0
 33 59  1  0
 34 60  1  0
 35 61  1  0
M  CHG  2   4  -1  16  -1
M  END
>  <UniqueID>  (29) 
28

>  <SMILES>  (29) 
CC(=O)[N-]c1ccc(CNc2cc(C(=O)[N-]Cc3ccccc3)cc(N3CCCS3(=O)=O)c2)cc1

>  <Energy>  (29) 
75.32650124224703

>  <Genealogy>  (29) 
CC(=O)[N-]c1ccc(CNc2cc(C(=O)[N-]Cc3ccccc3)cc(N3CCCS3(=O)=O)c2)cc1 (protonated)
CC(=O)[N-]c1ccc(CNc2cc(C(=O)[N-]Cc3ccccc3)cc(N3CCCS3(=O)=O)c2)cc1 (3D coordinates assigned)
CC(=O)[N-]c1ccc(CNc2cc(C(=O)[N-]Cc3ccccc3)cc(N3CCCS3(=O)=O)c2)cc1 (nonaromatic ring conformer: 75.32650124224703 kcal/mol)

>  <smiles>  (29) 
CC(=O)Nc1ccc(CNc2cc(C(=O)NCc3ccccc3)cc(N3CCCS3(=O)=O)c2)cc1

>  <score_type>  (29) 
oracle

>  <origin>  (29) 
adgpu

>  <m_score__min__energy>  (29) 
-12.24

>  <m_primary>  (29) 
energy

$$$$
29:0
     RDKit          3D

 59 64  0  0  0  0  0  0  0  0999 V2000
   -5.3550   26.3940  -30.4770 O   0  0  0  0  0  0  0  0  0  0  0  0
   -4.8920   25.2730  -30.8050 C   0  0  0  0  0  0  0  0  0  0  0  0
   -3.5390   24.9500  -30.4590 N   0  0  0  0  0  0  0  0  0  0  0  0
   -3.0700   24.3370  -29.2090 C   0  0  1  0  0  0  0  0  0  0  0  0
   -2.5590   22.9330  -29.4710 C   0  0  0  0  0  0  0  0  0  0  0  0
   -3.2480   21.8250  -28.9470 C   0  0  0  0  0  0  0  0  0  0  0  0
   -2.7770   20.5300  -29.1710 C   0  0  0  0  0  0  0  0  0  0  0  0
   -1.6140   20.3260  -29.9170 C   0  0  0  0  0  0  0  0  0  0  0  0
   -0.9160   21.4170  -30.4360 C   0  0  0  0  0  0  0  0  0  0  0  0
   -1.3820   22.7140  -30.2140 C   0  0  0  0  0  0  0  0  0  0  0  0
   -2.0530   25.1950  -28.4940 C   0  0  0  0  0  0  0  0  0  0  0  0
   -1.9500   25.2370  -27.1490 N   0  0  0  0  0  0  0  0  0  0  0  0
   -1.0050   26.1710  -26.9250 C   0  0  0  0  0  0  0  0  0  0  0  0
   -0.6030   26.6310  -25.5760 C   0  0  0  0  0  0  0  0  0  0  0  0
   -1.0770   25.9820  -24.4190 C   0  0  0  0  0  0  0  0  0  0  0  0
   -0.6480   26.3940  -23.1550 C   0  0  0  0  0  0  0  0  0  0  0  0
    0.2550   27.4500  -23.0300 C   0  0  0  0  0  0  0  0  0  0  0  0
    0.7350   28.0980  -24.1700 C   0  0  0  0  0  0  0  0  0  0  0  0
    0.3120   27.6910  -25.4370 C   0  0  0  0  0  0  0  0  0  0  0  0
   -0.5570   26.6630  -28.1310 C   0  0  0  0  0  0  0  0  0  0  0  0
   -1.2180   26.0510  -29.1260 N   0  0  0  0  0  0  0  0  0  0  0  0
   -5.6700   24.3760  -31.5440 O   0  0  0  0  0  0  0  0  0  0  0  0
   -5.9220   23.0310  -31.1520 C   0  0  0  0  0  0  0  0  0  0  0  0
   -6.0550   22.1710  -32.4140 C   0  0  0  0  0  0  0  0  0  0  0  0
   -7.0320   21.0350  -32.2250 C   0  0  0  0  0  0  0  0  0  0  0  0
   -8.3790   21.1110  -31.8690 C   0  0  0  0  0  0  0  0  0  0  0  0
   -9.1180   19.9230  -31.7830 C   0  0  0  0  0  0  0  0  0  0  0  0
   -8.5080   18.6800  -32.0440 C   0  0  0  0  0  0  0  0  0  0  0  0
   -7.1500   18.6160  -32.3780 C   0  0  0  0  0  0  0  0  0  0  0  0
   -6.4350   19.8100  -32.4560 C   0  0  0  0  0  0  0  0  0  0  0  0
   -5.0420   20.0370  -32.7710 C   0  0  0  0  0  0  0  0  0  0  0  0
   -4.0430   19.1260  -33.1160 C   0  0  0  0  0  0  0  0  0  0  0  0
   -2.7710   19.6240  -33.4360 C   0  0  0  0  0  0  0  0  0  0  0  0
   -2.5200   21.0100  -33.4120 C   0  0  0  0  0  0  0  0  0  0  0  0
   -3.5410   21.9090  -33.0650 C   0  0  0  0  0  0  0  0  0  0  0  0
   -4.8000   21.3990  -32.7310 C   0  0  0  0  0  0  0  0  0  0  0  0
   -3.9285   24.2628  -28.5253 H   0  0  0  0  0  0  0  0  0  0  0  0
   -4.1635   21.9794  -28.3571 H   0  0  0  0  0  0  0  0  0  0  0  0
   -3.3230   19.6685  -28.7591 H   0  0  0  0  0  0  0  0  0  0  0  0
   -1.2479   19.3042  -30.0956 H   0  0  0  0  0  0  0  0  0  0  0  0
    0.0018   21.2550  -31.0203 H   0  0  0  0  0  0  0  0  0  0  0  0
   -0.8264   23.5712  -30.6220 H   0  0  0  0  0  0  0  0  0  0  0  0
   -1.7877   25.1475  -24.5112 H   0  0  0  0  0  0  0  0  0  0  0  0
   -1.0234   25.8842  -22.2555 H   0  0  0  0  0  0  0  0  0  0  0  0
    0.5891   27.7724  -22.0328 H   0  0  0  0  0  0  0  0  0  0  0  0
    1.4473   28.9302  -24.0698 H   0  0  0  0  0  0  0  0  0  0  0  0
    0.6964   28.2022  -26.3320 H   0  0  0  0  0  0  0  0  0  0  0  0
    0.2178   27.4334  -28.2582 H   0  0  0  0  0  0  0  0  0  0  0  0
   -5.0876   22.6614  -30.5378 H   0  0  0  0  0  0  0  0  0  0  0  0
   -6.8489   22.9787  -30.5620 H   0  0  0  0  0  0  0  0  0  0  0  0
   -6.3391   22.9042  -33.1833 H   0  0  0  0  0  0  0  0  0  0  0  0
   -8.8509   22.0825  -31.6603 H   0  0  0  0  0  0  0  0  0  0  0  0
  -10.1828   19.9614  -31.5095 H   0  0  0  0  0  0  0  0  0  0  0  0
   -9.1015   17.7557  -31.9851 H   0  0  0  0  0  0  0  0  0  0  0  0
   -6.6608   17.6503  -32.5734 H   0  0  0  0  0  0  0  0  0  0  0  0
   -4.2474   18.0454  -33.1366 H   0  0  0  0  0  0  0  0  0  0  0  0
   -1.9641   18.9274  -33.7075 H   0  0  0  0  0  0  0  0  0  0  0  0
   -1.5194   21.3896  -33.6663 H   0  0  0  0  0  0  0  0  0  0  0  0
   -3.3546   22.9931  -33.0559 H   0  0  0  0  0  0  0  0  0  0  0  0
  1  2  2  0
  2  3  1  0
  3  4  1  0
  4  5  1  0
  5  6  2  0
  6  7  1  0
  7  8  2  0
  8  9  1  0
  9 10  2  0
  4 11  1  0
 11 12  2  0
 12 13  1  0
 13 14  1  0
 14 15  2  0
 15 16  1  0
 16 17  2  0
 17 18  1  0
 18 19  2  0
 13 20  2  0
 20 21  1  0
  2 22  1  0
 22 23  1  0
 23 24  1  0
 24 25  1  0
 25 26  2  0
 26 27  1  0
 27 28  2  0
 28 29  1  0
 29 30  2  0
 30 31  1  0
 31 32  2  0
 32 33  1  0
 33 34  2  0
 34 35  1  0
 35 36  2  0
 10  5  1  0
 21 11  1  0
 36 24  1  0
 19 14  1  0
 30 25  1  0
 36 31  1  0
  4 37  1  1
  6 38  1  0
  7 39  1  0
  8 40  1  0
  9 41  1  0
 10 42  1  0
 15 43  1  0
 16 44  1  0
 17 45  1  0
 18 46  1  0
 19 47  1  0
 20 48  1  0
 23 49  1  0
 23 50  1  0
 24 51  1  0
 26 52  1  0
 27 53  1  0
 28 54  1  0
 29 55  1  0
 32 56  1  0
 33 57  1  0
 34 58  1  0
 35 59  1  0
M  CHG  2   3  -1  21  -1
M  END
>  <UniqueID>  (30) 
29

>  <SMILES>  (30) 
O=C([N-][C@@H](c1ccccc1)c1nc(-c2ccccc2)c[n-]1)OCC1c2ccccc2-c2ccccc21

>  <Energy>  (30) 
114.03580152126445

>  <Genealogy>  (30) 
O=C([N-]C(c1ccccc1)c1nc(-c2ccccc2)c[n-]1)OCC1c2ccccc2-c2ccccc21 (protonated)
O=C([N-][C@@H](c1ccccc1)c1nc(-c2ccccc2)c[n-]1)OCC1c2ccccc2-c2ccccc21 (chirality)
O=C([N-][C@@H](c1ccccc1)c1nc(-c2ccccc2)c[n-]1)OCC1c2ccccc2-c2ccccc21 (3D coordinates assigned)
O=C([N-][C@@H](c1ccccc1)c1nc(-c2ccccc2)c[n-]1)OCC1c2ccccc2-c2ccccc21 (nonaromatic ring conformer: 114.03580152126445 kcal/mol)

>  <smiles>  (30) 
O=C(NC(c1ccccc1)c1nc(-c2ccccc2)c[nH]1)OCC1c2ccccc2-c2ccccc21

>  <score_type>  (30) 
oracle

>  <origin>  (30) 
adgpu

>  <m_score__min__energy>  (30) 
-14.109999999999999

>  <m_primary>  (30) 
energy

$$$$
30:0
     RDKit          3D

 57 60  0  0  0  0  0  0  0  0999 V2000
   -0.1270   27.1720  -23.2860 C   0  0  0  0  0  0  0  0  0  0  0  0
   -0.4850   26.9050  -24.7190 C   0  0  0  0  0  0  0  0  0  0  0  0
    0.3300   27.3860  -25.7550 C   0  0  0  0  0  0  0  0  0  0  0  0
    0.0180   27.1030  -27.0890 C   0  0  0  0  0  0  0  0  0  0  0  0
   -1.1030   26.3100  -27.4020 C   0  0  0  0  0  0  0  0  0  0  0  0
   -1.4670   26.0040  -28.7540 N   0  0  0  0  0  0  0  0  0  0  0  0
   -1.6870   24.7010  -29.3090 C   0  0  0  0  0  0  0  0  0  0  0  0
   -0.7130   23.9630  -29.6220 O   0  0  0  0  0  0  0  0  0  0  0  0
   -3.0920   24.1620  -29.3860 C   0  0  2  0  0  0  0  0  0  0  0  0
   -3.5470   23.6340  -28.0120 C   0  0  0  0  0  0  0  0  0  0  0  0
   -2.7240   22.4470  -27.5760 C   0  0  0  0  0  0  0  0  0  0  0  0
   -3.1260   21.1450  -27.9190 C   0  0  0  0  0  0  0  0  0  0  0  0
   -2.3950   20.0410  -27.4720 C   0  0  0  0  0  0  0  0  0  0  0  0
   -1.2630   20.2280  -26.6730 C   0  0  0  0  0  0  0  0  0  0  0  0
   -0.8620   21.5200  -26.3200 C   0  0  0  0  0  0  0  0  0  0  0  0
   -1.5900   22.6270  -26.7670 C   0  0  0  0  0  0  0  0  0  0  0  0
   -3.1800   23.0980  -30.3930 N   0  0  0  0  0  0  0  0  0  0  0  0
   -4.2260   23.0560  -31.3750 C   0  0  0  0  0  0  0  0  0  0  0  0
   -5.1070   23.9600  -31.4000 O   0  0  0  0  0  0  0  0  0  0  0  0
   -4.2860   21.9010  -32.3430 C   0  0  2  0  0  0  0  0  0  0  0  0
   -5.4980   20.9780  -32.0950 C   0  0  0  0  0  0  0  0  0  0  0  0
   -5.4170   19.7320  -32.9380 C   0  0  0  0  0  0  0  0  0  0  0  0
   -6.5610   18.9350  -33.1030 C   0  0  0  0  0  0  0  0  0  0  0  0
   -6.4930   17.7470  -33.8360 C   0  0  0  0  0  0  0  0  0  0  0  0
   -5.2830   17.3430  -34.4020 C   0  0  0  0  0  0  0  0  0  0  0  0
   -4.1340   18.1200  -34.2330 C   0  0  0  0  0  0  0  0  0  0  0  0
   -4.1860   19.3070  -33.4850 C   0  0  0  0  0  0  0  0  0  0  0  0
   -2.9470   20.1670  -33.3690 C   0  0  0  0  0  0  0  0  0  0  0  0
   -3.0360   21.1320  -32.2640 N   0  0  0  0  0  0  0  0  0  0  0  0
   -1.9170   25.8380  -26.3650 C   0  0  0  0  0  0  0  0  0  0  0  0
   -1.6040   26.1200  -25.0320 C   0  0  0  0  0  0  0  0  0  0  0  0
   -0.8332   26.6453  -22.6274 H   0  0  0  0  0  0  0  0  0  0  0  0
    0.8943   26.8132  -23.0902 H   0  0  0  0  0  0  0  0  0  0  0  0
   -0.1797   28.2532  -23.0902 H   0  0  0  0  0  0  0  0  0  0  0  0
    1.2189   27.9887  -25.5170 H   0  0  0  0  0  0  0  0  0  0  0  0
    0.6504   27.5012  -27.8962 H   0  0  0  0  0  0  0  0  0  0  0  0
   -3.7601   24.9838  -29.6832 H   0  0  0  0  0  0  0  0  0  0  0  0
   -3.4397   24.4364  -27.2672 H   0  0  0  0  0  0  0  0  0  0  0  0
   -4.5964   23.3148  -28.0950 H   0  0  0  0  0  0  0  0  0  0  0  0
   -4.0199   20.9941  -28.5420 H   0  0  0  0  0  0  0  0  0  0  0  0
   -2.7104   19.0242  -27.7490 H   0  0  0  0  0  0  0  0  0  0  0  0
   -0.6878   19.3585  -26.3221 H   0  0  0  0  0  0  0  0  0  0  0  0
    0.0276   21.6659  -25.6896 H   0  0  0  0  0  0  0  0  0  0  0  0
   -1.2736   23.6419  -26.4842 H   0  0  0  0  0  0  0  0  0  0  0  0
   -2.4740   22.3280  -30.3980 H   0  0  0  0  0  0  0  0  0  0  0  0
   -4.4098   22.3200  -33.3525 H   0  0  0  0  0  0  0  0  0  0  0  0
   -5.5194   20.6917  -31.0331 H   0  0  0  0  0  0  0  0  0  0  0  0
   -6.4128   21.5241  -32.3686 H   0  0  0  0  0  0  0  0  0  0  0  0
   -7.5152   19.2470  -32.6533 H   0  0  0  0  0  0  0  0  0  0  0  0
   -7.3941   17.1298  -33.9669 H   0  0  0  0  0  0  0  0  0  0  0  0
   -5.2337   16.4102  -34.9829 H   0  0  0  0  0  0  0  0  0  0  0  0
   -3.1848   17.8004  -34.6879 H   0  0  0  0  0  0  0  0  0  0  0  0
   -2.0784   19.5139  -33.1985 H   0  0  0  0  0  0  0  0  0  0  0  0
   -2.8456   20.7368  -34.3044 H   0  0  0  0  0  0  0  0  0  0  0  0
   -3.0050   20.6080  -31.3570 H   0  0  0  0  0  0  0  0  0  0  0  0
   -2.8099   25.2405  -26.6011 H   0  0  0  0  0  0  0  0  0  0  0  0
   -2.2383   25.7244  -24.2251 H   0  0  0  0  0  0  0  0  0  0  0  0
  1  2  1  0
  2  3  2  0
  3  4  1  0
  4  5  2  0
  5  6  1  0
  6  7  1  0
  7  8  2  0
  7  9  1  0
  9 10  1  0
 10 11  1  0
 11 12  2  0
 12 13  1  0
 13 14  2  0
 14 15  1  0
 15 16  2  0
  9 17  1  0
 17 18  1  0
 18 19  2  0
 18 20  1  0
 20 21  1  0
 21 22  1  0
 22 23  2  0
 23 24  1  0
 24 25  2  0
 25 26  1  0
 26 27  2  0
 27 28  1  0
 28 29  1  0
  5 30  1  0
 30 31  2  0
 31  2  1  0
 16 11  1  0
 29 20  1  0
 27 22  1  0
  1 32  1  0
  1 33  1  0
  1 34  1  0
  3 35  1  0
  4 36  1  0
  9 37  1  6
 10 38  1  0
 10 39  1  0
 12 40  1  0
 13 41  1  0
 14 42  1  0
 15 43  1  0
 16 44  1  0
 17 45  1  0
 20 46  1  6
 21 47  1  0
 21 48  1  0
 23 49  1  0
 24 50  1  0
 25 51  1  0
 26 52  1  0
 28 53  1  0
 28 54  1  0
 29 55  1  0
 30 56  1  0
 31 57  1  0
M  CHG  1   6  -1
M  END
>  <UniqueID>  (31) 
30

>  <SMILES>  (31) 
Cc1ccc([N-]C(=O)[C@H](Cc2ccccc2)NC(=O)[C@@H]2Cc3ccccc3CN2)cc1

>  <Energy>  (31) 
61.70120304686238

>  <Genealogy>  (31) 
Cc1ccc([N-]C(=O)C(Cc2ccccc2)NC(=O)C2Cc3ccccc3CN2)cc1 (protonated)
Cc1ccc([N-]C(=O)[C@H](Cc2ccccc2)NC(=O)[C@@H]2Cc3ccccc3CN2)cc1 (chirality)
Cc1ccc([N-]C(=O)[C@H](Cc2ccccc2)NC(=O)[C@@H]2Cc3ccccc3CN2)cc1 (3D coordinates assigned)
Cc1ccc([N-]C(=O)[C@H](Cc2ccccc2)NC(=O)[C@@H]2Cc3ccccc3CN2)cc1 (nonaromatic ring conformer: 61.70120304686238 kcal/mol)

>  <smiles>  (31) 
Cc1ccc(NC(=O)C(Cc2ccccc2)NC(=O)C2Cc3ccccc3CN2)cc1

>  <score_type>  (31) 
oracle

>  <origin>  (31) 
adgpu

>  <m_score__min__energy>  (31) 
-11.99

>  <m_primary>  (31) 
energy

$$$$
31:0
     RDKit          3D

 37 39  0  0  0  0  0  0  0  0999 V2000
   -6.9610   19.6410  -35.0040 H   0  0  0  0  0  0  0  0  0  0  0  0
   -6.6820   19.5420  -34.0340 O   0  0  0  0  0  0  0  0  0  0  0  0
   -7.0860   20.4570  -33.0640 C   0  0  0  0  0  0  0  0  0  0  0  0
   -8.3920   20.4320  -32.5580 C   0  0  0  0  0  0  0  0  0  0  0  0
   -9.1070   19.6781  -32.9191 H   0  0  0  0  0  0  0  0  0  0  0  0
   -8.7870   21.3640  -31.5950 C   0  0  0  0  0  0  0  0  0  0  0  0
   -9.8148   21.3460  -31.2033 H   0  0  0  0  0  0  0  0  0  0  0  0
   -7.8800   22.3190  -31.1280 C   0  0  0  0  0  0  0  0  0  0  0  0
   -8.1995   23.0572  -30.3776 H   0  0  0  0  0  0  0  0  0  0  0  0
   -6.5620   22.3400  -31.6130 C   0  0  0  0  0  0  0  0  0  0  0  0
   -5.6140   23.3710  -31.1360 C   0  0  0  0  0  0  0  0  0  0  0  0
   -5.7590   24.7230  -31.3500 C   0  0  0  0  0  0  0  0  0  0  0  0
   -6.6131   25.1994  -31.8536 H   0  0  0  0  0  0  0  0  0  0  0  0
   -4.6930   25.3700  -30.8470 N   0  0  0  0  0  0  0  0  0  0  0  0
   -3.9190   24.3990  -30.3200 C   0  0  0  0  0  0  0  0  0  0  0  0
   -2.7650   24.6960  -29.7840 N   0  0  0  0  0  0  0  0  0  0  0  0
   -1.7320   23.8590  -29.1780 C   0  0  0  0  0  0  0  0  0  0  0  0
   -2.1849   22.9061  -28.8668 H   0  0  0  0  0  0  0  0  0  0  0  0
   -0.9424   23.6996  -29.9271 H   0  0  0  0  0  0  0  0  0  0  0  0
   -1.1030   24.5170  -27.9710 C   0  0  0  0  0  0  0  0  0  0  0  0
   -0.6350   23.7150  -26.9140 C   0  0  0  0  0  0  0  0  0  0  0  0
   -0.7610   22.6232  -26.9608 H   0  0  0  0  0  0  0  0  0  0  0  0
   -0.0120   24.2930  -25.8060 C   0  0  0  0  0  0  0  0  0  0  0  0
    0.3297   23.6583  -24.9751 H   0  0  0  0  0  0  0  0  0  0  0  0
    0.1780   25.6750  -25.7510 C   0  0  0  0  0  0  0  0  0  0  0  0
    0.6601   26.1293  -24.8728 H   0  0  0  0  0  0  0  0  0  0  0  0
   -0.2440   26.4810  -26.8110 C   0  0  0  0  0  0  0  0  0  0  0  0
   -0.0848   27.5686  -26.7697 H   0  0  0  0  0  0  0  0  0  0  0  0
   -0.8690   25.9090  -27.9260 C   0  0  0  0  0  0  0  0  0  0  0  0
   -1.2410   26.7310  -28.9840 O   0  0  0  0  0  0  0  0  0  0  0  0
   -4.4590   23.1550  -30.4630 N   0  0  0  0  0  0  0  0  0  0  0  0
   -4.0000   21.8650  -29.9390 C   0  0  0  0  0  0  0  0  0  0  0  0
   -4.0095   21.8916  -28.8394 H   0  0  0  0  0  0  0  0  0  0  0  0
   -4.6692   21.0667  -30.2922 H   0  0  0  0  0  0  0  0  0  0  0  0
   -2.9769   21.6688  -30.2922 H   0  0  0  0  0  0  0  0  0  0  0  0
   -6.1760   21.4130  -32.5970 C   0  0  0  0  0  0  0  0  0  0  0  0
   -5.1536   21.4390  -33.0021 H   0  0  0  0  0  0  0  0  0  0  0  0
  1  2  1  0
  2  3  1  0
  3  4  2  0
  4  5  1  0
  4  6  1  0
  6  7  1  0
  6  8  2  0
  8  9  1  0
  8 10  1  0
 10 11  1  0
 11 12  2  0
 12 13  1  0
 12 14  1  0
 14 15  1  0
 15 16  2  0
 16 17  1  0
 17 18  1  0
 17 19  1  0
 17 20  1  0
 20 21  2  0
 21 22  1  0
 21 23  1  0
 23 24  1  0
 23 25  2  0
 25 26  1  0
 25 27  1  0
 27 28  1  0
 27 29  2  0
 29 30  1  0
 15 31  1  0
 31 32  1  0
 32 33  1  0
 32 34  1  0
 32 35  1  0
 10 36  2  0
 36 37  1  0
 36  3  1  0
 31 11  1  0
 29 20  1  0
M  CHG  2  14  -1  30  -1
M  END
>  <UniqueID>  (32) 
31

>  <SMILES>  (32) 
Cn1c(-c2cccc(O)c2)c[n-]/c1=N/Cc1ccccc1[O-]

>  <Energy>  (32) 
83.89013793617258

>  <Genealogy>  (32) 
Cn1c(-c2cccc(O)c2)c[n-]c1=NCc1ccccc1[O-] (protonated)
Cn1c(-c2cccc(O)c2)c[n-]/c1=N/Cc1ccccc1[O-] (cis-trans isomerization)
Cn1c(-c2cccc(O)c2)c[n-]/c1=N/Cc1ccccc1[O-] (3D coordinates assigned)
Cn1c(-c2cccc(O)c2)c[n-]/c1=N/Cc1ccccc1[O-] (optimized conformer: 83.89013793617258 kcal/mol)

>  <smiles>  (32) 
Cn1c(-c2cccc(O)c2)c[nH]c1=NCc1ccccc1O

>  <score_type>  (32) 
oracle

>  <origin>  (32) 
adgpu

>  <m_score__min__energy>  (32) 
-11.960000000000001

>  <m_primary>  (32) 
energy

$$$$
32:0
     RDKit          3D

 47 50  0  0  0  0  0  0  0  0999 V2000
   -3.5050   24.4190  -30.8280 N   0  0  0  0  0  0  0  0  0  0  0  0
   -5.1320   24.6960  -30.3130 S   0  0  0  0  0  0  0  0  0  0  0  0
   -5.5970   26.0400  -30.8050 O   0  0  0  0  0  0  0  0  0  0  0  0
   -5.1830   24.6860  -28.8110 O   0  0  0  0  0  0  0  0  0  0  0  0
   -6.1790   23.4360  -30.9640 C   0  0  0  0  0  0  0  0  0  0  0  0
   -7.4610   23.7630  -31.4170 C   0  0  0  0  0  0  0  0  0  0  0  0
   -8.2930   22.7740  -31.9470 C   0  0  0  0  0  0  0  0  0  0  0  0
   -7.8520   21.4490  -32.0170 C   0  0  0  0  0  0  0  0  0  0  0  0
   -6.5690   21.1050  -31.5550 C   0  0  0  0  0  0  0  0  0  0  0  0
   -6.0840   19.7550  -31.5840 N   0  0  0  0  0  0  0  0  0  0  0  0
   -5.4030   18.9720  -32.9730 S   0  0  0  0  0  0  0  0  0  0  0  0
   -5.3060   17.4950  -32.7090 O   0  0  0  0  0  0  0  0  0  0  0  0
   -6.2990   19.2000  -34.1570 O   0  0  0  0  0  0  0  0  0  0  0  0
   -3.8170   19.6540  -33.3200 C   0  0  0  0  0  0  0  0  0  0  0  0
   -2.8030   18.8310  -33.8240 C   0  0  0  0  0  0  0  0  0  0  0  0
   -1.5500   19.3640  -34.1380 C   0  0  0  0  0  0  0  0  0  0  0  0
   -1.2930   20.7380  -33.9420 C   0  0  0  0  0  0  0  0  0  0  0  0
   -0.0370   21.3570  -34.2700 N   0  0  0  0  0  0  0  0  0  0  0  0
    0.2690   21.9710  -35.3740 C   0  0  0  0  0  0  0  0  0  0  0  0
    1.5920   22.5900  -35.5500 C   0  0  0  0  0  0  0  0  0  0  0  0
    2.7960   21.8980  -35.5930 C   0  0  0  0  0  0  0  0  0  0  0  0
    3.8250   22.7460  -35.8120 N   0  0  0  0  0  0  0  0  0  0  0  0
    3.2830   23.9710  -35.9100 C   0  0  0  0  0  0  0  0  0  0  0  0
    3.9540   25.1670  -36.1660 C   0  0  0  0  0  0  0  0  0  0  0  0
    3.1890   26.3460  -36.2530 C   0  0  0  0  0  0  0  0  0  0  0  0
    1.7880   26.3030  -36.0850 C   0  0  0  0  0  0  0  0  0  0  0  0
    1.1360   25.0800  -35.8350 C   0  0  0  0  0  0  0  0  0  0  0  0
    1.9190   23.9230  -35.7550 C   0  0  0  0  0  0  0  0  0  0  0  0
   -2.3140   21.5520  -33.4330 C   0  0  0  0  0  0  0  0  0  0  0  0
   -3.5660   21.0160  -33.1200 C   0  0  0  0  0  0  0  0  0  0  0  0
   -5.7340   22.1070  -31.0410 C   0  0  0  0  0  0  0  0  0  0  0  0
   -2.9630   25.2840  -30.6060 H   0  0  0  0  0  0  0  0  0  0  0  0
   -7.8154   24.8025  -31.3558 H   0  0  0  0  0  0  0  0  0  0  0  0
   -9.2972   23.0381  -32.3100 H   0  0  0  0  0  0  0  0  0  0  0  0
   -8.5106   20.6733  -32.4347 H   0  0  0  0  0  0  0  0  0  0  0  0
   -2.9937   17.7581  -33.9738 H   0  0  0  0  0  0  0  0  0  0  0  0
   -0.7613   18.7106  -34.5393 H   0  0  0  0  0  0  0  0  0  0  0  0
   -0.4702   22.0285  -36.1866 H   0  0  0  0  0  0  0  0  0  0  0  0
    2.8976   20.8101  -35.4663 H   0  0  0  0  0  0  0  0  0  0  0  0
    4.8330   22.4940  -35.9110 H   0  0  0  0  0  0  0  0  0  0  0  0
    5.0461   25.1884  -36.2958 H   0  0  0  0  0  0  0  0  0  0  0  0
    3.6862   27.3066  -36.4531 H   0  0  0  0  0  0  0  0  0  0  0  0
    1.2015   27.2313  -36.1498 H   0  0  0  0  0  0  0  0  0  0  0  0
    0.0444   25.0356  -35.7065 H   0  0  0  0  0  0  0  0  0  0  0  0
   -2.1277   22.6250  -33.2781 H   0  0  0  0  0  0  0  0  0  0  0  0
   -4.3558   21.6661  -32.7156 H   0  0  0  0  0  0  0  0  0  0  0  0
   -4.7220   21.8496  -30.6953 H   0  0  0  0  0  0  0  0  0  0  0  0
  1  2  1  0
  2  3  2  0
  2  4  2  0
  2  5  1  0
  5  6  2  0
  6  7  1  0
  7  8  2  0
  8  9  1  0
  9 10  1  0
 10 11  1  0
 11 12  2  0
 11 13  2  0
 11 14  1  0
 14 15  2  0
 15 16  1  0
 16 17  2  0
 17 18  1  0
 18 19  2  3
 19 20  1  0
 20 21  2  0
 21 22  1  0
 22 23  1  0
 23 24  2  0
 24 25  1  0
 25 26  2  0
 26 27  1  0
 27 28  2  0
 17 29  1  0
 29 30  2  0
  9 31  2  0
 31  5  1  0
 30 14  1  0
 28 20  1  0
 28 23  1  0
  1 32  1  0
  6 33  1  0
  7 34  1  0
  8 35  1  0
 15 36  1  0
 16 37  1  0
 19 38  1  0
 21 39  1  0
 22 40  1  0
 24 41  1  0
 25 42  1  0
 26 43  1  0
 27 44  1  0
 29 45  1  0
 30 46  1  0
 31 47  1  0
M  CHG  2   1  -1  10  -1
M  END
>  <UniqueID>  (33) 
32

>  <SMILES>  (33) 
[NH-]S(=O)(=O)c1cccc([N-]S(=O)(=O)c2ccc(N=Cc3c[nH]c4ccccc34)cc2)c1

>  <Energy>  (33) 
90.46426843696521

>  <Genealogy>  (33) 
[NH-]S(=O)(=O)c1cccc([N-]S(=O)(=O)c2ccc(N=Cc3c[nH]c4ccccc34)cc2)c1 (protonated)
[NH-]S(=O)(=O)c1cccc([N-]S(=O)(=O)c2ccc(N=Cc3c[nH]c4ccccc34)cc2)c1 (3D coordinates assigned)
[NH-]S(=O)(=O)c1cccc([N-]S(=O)(=O)c2ccc(N=Cc3c[nH]c4ccccc34)cc2)c1 (optimized conformer: 90.46426843696521 kcal/mol)

>  <smiles>  (33) 
NS(=O)(=O)c1cccc(NS(=O)(=O)c2ccc(N=Cc3c[nH]c4ccccc34)cc2)c1

>  <score_type>  (33) 
oracle

>  <origin>  (33) 
adgpu

>  <m_score__min__energy>  (33) 
-11.619999999999999

>  <m_primary>  (33) 
energy

$$$$
33:0
     RDKit          3D

 45 48  0  0  0  0  0  0  0  0999 V2000
   -4.7860   25.1310  -31.1920 O   0  0  0  0  0  0  0  0  0  0  0  0
   -4.6790   23.9390  -30.2800 S   0  0  0  0  0  0  0  0  0  0  0  0
   -3.7800   24.2950  -29.1280 O   0  0  0  0  0  0  0  0  0  0  0  0
   -6.2530   23.5250  -29.6730 N   0  0  0  0  0  0  0  0  0  0  0  0
   -7.2530   23.7250  -30.7220 C   0  0  0  0  0  0  0  0  0  0  0  0
   -7.7050   22.3980  -31.2460 C   0  0  0  0  0  0  0  0  0  0  0  0
   -9.0460   22.0230  -31.3030 C   0  0  0  0  0  0  0  0  0  0  0  0
   -9.1200   20.4880  -31.9830 S   0  0  0  0  0  0  0  0  0  0  0  0
   -7.4480   20.3700  -32.1880 C   0  0  0  0  0  0  0  0  0  0  0  0
   -6.7430   19.2520  -32.7650 N   0  0  0  0  0  0  0  0  0  0  0  0
   -6.4720   19.1910  -34.2080 C   0  0  0  0  0  0  0  0  0  0  0  0
   -5.0760   18.6290  -34.4520 C   0  0  0  0  0  0  0  0  0  0  0  0
   -4.9010   17.3160  -33.7480 C   0  0  0  0  0  0  0  0  0  0  0  0
   -4.0090   16.3610  -34.2640 C   0  0  0  0  0  0  0  0  0  0  0  0
   -3.8000   15.1530  -33.5940 C   0  0  0  0  0  0  0  0  0  0  0  0
   -4.4700   14.8930  -32.3970 C   0  0  0  0  0  0  0  0  0  0  0  0
   -5.3540   15.8380  -31.8710 C   0  0  0  0  0  0  0  0  0  0  0  0
   -5.5780   17.0540  -32.5380 C   0  0  0  0  0  0  0  0  0  0  0  0
   -6.5500   18.0470  -31.9390 C   0  0  0  0  0  0  0  0  0  0  0  0
   -6.8250   21.4870  -31.7460 N   0  0  0  0  0  0  0  0  0  0  0  0
   -3.9860   22.5660  -31.1390 C   0  0  0  0  0  0  0  0  0  0  0  0
   -4.2070   22.4290  -32.5160 C   0  0  0  0  0  0  0  0  0  0  0  0
   -3.6510   21.3530  -33.2130 C   0  0  0  0  0  0  0  0  0  0  0  0
   -2.8680   20.4100  -32.5390 C   0  0  0  0  0  0  0  0  0  0  0  0
   -2.6400   20.5460  -31.1660 C   0  0  0  0  0  0  0  0  0  0  0  0
   -3.1960   21.6220  -30.4660 C   0  0  0  0  0  0  0  0  0  0  0  0
   -6.4590   24.1940  -28.8960 H   0  0  0  0  0  0  0  0  0  0  0  0
   -8.1153   24.2674  -30.3069 H   0  0  0  0  0  0  0  0  0  0  0  0
   -6.8098   24.3092  -31.5419 H   0  0  0  0  0  0  0  0  0  0  0  0
   -9.9025   22.6240  -30.9637 H   0  0  0  0  0  0  0  0  0  0  0  0
   -7.2162   18.5410  -34.6914 H   0  0  0  0  0  0  0  0  0  0  0  0
   -6.5325   20.2049  -34.6304 H   0  0  0  0  0  0  0  0  0  0  0  0
   -4.9301   18.4815  -35.5323 H   0  0  0  0  0  0  0  0  0  0  0  0
   -4.3351   19.3413  -34.0599 H   0  0  0  0  0  0  0  0  0  0  0  0
   -3.4716   16.5658  -35.2017 H   0  0  0  0  0  0  0  0  0  0  0  0
   -3.1073   14.4064  -34.0097 H   0  0  0  0  0  0  0  0  0  0  0  0
   -4.3016   13.9434  -31.8678 H   0  0  0  0  0  0  0  0  0  0  0  0
   -5.8788   15.6285  -30.9272 H   0  0  0  0  0  0  0  0  0  0  0  0
   -7.5235   17.5500  -31.8153 H   0  0  0  0  0  0  0  0  0  0  0  0
   -6.1252   18.3771  -30.9795 H   0  0  0  0  0  0  0  0  0  0  0  0
   -4.8198   23.1704  -33.0497 H   0  0  0  0  0  0  0  0  0  0  0  0
   -3.8293   21.2474  -34.2933 H   0  0  0  0  0  0  0  0  0  0  0  0
   -2.4321   19.5625  -33.0883 H   0  0  0  0  0  0  0  0  0  0  0  0
   -2.0227   19.8059  -30.6357 H   0  0  0  0  0  0  0  0  0  0  0  0
   -3.0135   21.7281  -29.3864 H   0  0  0  0  0  0  0  0  0  0  0  0
  1  2  2  0
  2  3  2  0
  2  4  1  0
  4  5  1  0
  5  6  1  0
  6  7  2  0
  7  8  1  0
  8  9  1  0
  9 10  1  0
 10 11  1  0
 11 12  1  0
 12 13  1  0
 13 14  2  0
 14 15  1  0
 15 16  2  0
 16 17  1  0
 17 18  2  0
 18 19  1  0
  9 20  2  0
  2 21  1  0
 21 22  2  0
 22 23  1  0
 23 24  2  0
 24 25  1  0
 25 26  2  0
 20  6  1  0
 26 21  1  0
 19 10  1  0
 18 13  1  0
  4 27  1  0
  5 28  1  0
  5 29  1  0
  7 30  1  0
 11 31  1  0
 11 32  1  0
 12 33  1  0
 12 34  1  0
 14 35  1  0
 15 36  1  0
 16 37  1  0
 17 38  1  0
 19 39  1  0
 19 40  1  0
 22 41  1  0
 23 42  1  0
 24 43  1  0
 25 44  1  0
 26 45  1  0
M  END
>  <UniqueID>  (34) 
33

>  <SMILES>  (34) 
O=S(=O)(NCc1csc(N2CCc3ccccc3C2)n1)c1ccccc1

>  <Energy>  (34) 
77.35234171326776

>  <Genealogy>  (34) 
O=S(=O)(NCc1csc(N2CCc3ccccc3C2)n1)c1ccccc1 (3D coordinates assigned)
O=S(=O)(NCc1csc(N2CCc3ccccc3C2)n1)c1ccccc1 (nonaromatic ring conformer: 77.35234171326776 kcal/mol)

>  <smiles>  (34) 
O=S(=O)(NCc1csc(N2CCc3ccccc3C2)n1)c1ccccc1

>  <score_type>  (34) 
oracle

>  <origin>  (34) 
adgpu

>  <m_score__min__energy>  (34) 
-9.7799999999999994

>  <m_primary>  (34) 
energy

$$$$
34:0
     RDKit          3D

 41 44  0  0  0  0  0  0  0  0999 V2000
   -9.0800   17.6170  -31.9670 O   0  0  0  0  0  0  0  0  0  0  0  0
   -8.4010   18.6700  -32.1120 C   0  0  0  0  0  0  0  0  0  0  0  0
   -8.9130   19.8580  -31.6910 N   0  0  0  0  0  0  0  0  0  0  0  0
   -8.2380   21.0300  -31.8600 C   0  0  0  0  0  0  0  0  0  0  0  0
   -8.8300   22.2430  -31.4670 C   0  0  0  0  0  0  0  0  0  0  0  0
   -8.1680   23.4520  -31.6800 C   0  0  0  0  0  0  0  0  0  0  0  0
   -6.9190   23.4650  -32.3010 C   0  0  0  0  0  0  0  0  0  0  0  0
   -6.3140   22.2680  -32.6910 C   0  0  0  0  0  0  0  0  0  0  0  0
   -6.9460   21.0320  -32.4450 C   0  0  0  0  0  0  0  0  0  0  0  0
   -6.3590   19.7910  -32.7980 C   0  0  0  0  0  0  0  0  0  0  0  0
   -7.1280   18.6200  -32.7020 C   0  0  0  0  0  0  0  0  0  0  0  0
   -6.5410   17.3320  -33.2180 C   0  0  0  0  0  0  0  0  0  0  0  0
   -5.7300   17.6210  -34.4830 C   0  0  0  0  0  0  0  0  0  0  0  0
   -4.5960   18.6200  -34.1990 C   0  0  0  0  0  0  0  0  0  0  0  0
   -4.9810   19.6720  -33.2360 N   0  0  0  0  0  0  0  0  0  0  0  0
   -3.9190   20.3290  -32.5100 C   0  0  0  0  0  0  0  0  0  0  0  0
   -2.8110   20.8570  -33.1950 C   0  0  0  0  0  0  0  0  0  0  0  0
   -1.7850   21.4970  -32.4960 C   0  0  0  0  0  0  0  0  0  0  0  0
   -1.8380   21.6200  -31.1030 C   0  0  0  0  0  0  0  0  0  0  0  0
   -0.7810   22.2750  -30.4540 O   0  0  0  0  0  0  0  0  0  0  0  0
   -0.9150   23.1520  -29.3380 C   0  0  0  0  0  0  0  0  0  0  0  0
   -1.8100   24.1650  -29.6330 F   0  0  0  0  0  0  0  0  0  0  0  0
    0.3160   23.6930  -29.0060 F   0  0  0  0  0  0  0  0  0  0  0  0
   -1.3920   22.4360  -28.2580 F   0  0  0  0  0  0  0  0  0  0  0  0
   -2.9430   21.0850  -30.4110 C   0  0  0  0  0  0  0  0  0  0  0  0
   -3.9700   20.4440  -31.1100 C   0  0  0  0  0  0  0  0  0  0  0  0
   -9.8640   19.8660  -31.2530 H   0  0  0  0  0  0  0  0  0  0  0  0
   -9.8207   22.2386  -30.9889 H   0  0  0  0  0  0  0  0  0  0  0  0
   -8.6313   24.3963  -31.3579 H   0  0  0  0  0  0  0  0  0  0  0  0
   -6.4084   24.4219  -32.4843 H   0  0  0  0  0  0  0  0  0  0  0  0
   -5.3362   22.2899  -33.1943 H   0  0  0  0  0  0  0  0  0  0  0  0
   -5.8844   16.8938  -32.4519 H   0  0  0  0  0  0  0  0  0  0  0  0
   -7.3499   16.6239  -33.4508 H   0  0  0  0  0  0  0  0  0  0  0  0
   -5.2957   16.6808  -34.8537 H   0  0  0  0  0  0  0  0  0  0  0  0
   -6.4017   18.0604  -35.2352 H   0  0  0  0  0  0  0  0  0  0  0  0
   -3.7368   18.0680  -33.7902 H   0  0  0  0  0  0  0  0  0  0  0  0
   -4.3503   19.1175  -35.1488 H   0  0  0  0  0  0  0  0  0  0  0  0
   -2.7515   20.7655  -34.2896 H   0  0  0  0  0  0  0  0  0  0  0  0
   -0.9262   21.9087  -33.0463 H   0  0  0  0  0  0  0  0  0  0  0  0
   -2.9976   21.1722  -29.3158 H   0  0  0  0  0  0  0  0  0  0  0  0
   -4.8257   20.0259  -30.5595 H   0  0  0  0  0  0  0  0  0  0  0  0
  1  2  2  0
  2  3  1  0
  3  4  1  0
  4  5  2  0
  5  6  1  0
  6  7  2  0
  7  8  1  0
  8  9  2  0
  9 10  1  0
 10 11  2  0
 11 12  1  0
 12 13  1  0
 13 14  1  0
 14 15  1  0
 15 16  1  0
 16 17  2  0
 17 18  1  0
 18 19  2  0
 19 20  1  0
 20 21  1  0
 21 22  1  0
 21 23  1  0
 21 24  1  0
 19 25  1  0
 25 26  2  0
 11  2  1  0
 26 16  1  0
  9  4  1  0
 15 10  1  0
  3 27  1  0
  5 28  1  0
  6 29  1  0
  7 30  1  0
  8 31  1  0
 12 32  1  0
 12 33  1  0
 13 34  1  0
 13 35  1  0
 14 36  1  0
 14 37  1  0
 17 38  1  0
 18 39  1  0
 25 40  1  0
 26 41  1  0
M  END
>  <UniqueID>  (35) 
34

>  <SMILES>  (35) 
O=c1[nH]c2ccccc2c2c1CCCN2c1ccc(OC(F)(F)F)cc1

>  <Energy>  (35) 
62.89452413874027

>  <Genealogy>  (35) 
O=c1[nH]c2ccccc2c2c1CCCN2c1ccc(OC(F)(F)F)cc1 (3D coordinates assigned)
O=c1[nH]c2ccccc2c2c1CCCN2c1ccc(OC(F)(F)F)cc1 (nonaromatic ring conformer: 62.89452413874027 kcal/mol)

>  <smiles>  (35) 
O=c1[nH]c2ccccc2c2c1CCCN2c1ccc(OC(F)(F)F)cc1

>  <score_type>  (35) 
oracle

>  <origin>  (35) 
adgpu

>  <m_score__min__energy>  (35) 
-7.5700000000000003

>  <m_primary>  (35) 
energy

$$$$
35:0
     RDKit          3D

 48 50  0  0  0  0  0  0  0  0999 V2000
   -6.0460   26.0400  -30.0790 C   0  0  0  0  0  0  0  0  0  0  0  0
   -4.8820   25.5160  -30.7090 O   0  0  0  0  0  0  0  0  0  0  0  0
   -4.3580   24.2350  -30.4720 C   0  0  0  0  0  0  0  0  0  0  0  0
   -5.0760   23.0630  -30.7780 C   0  0  0  0  0  0  0  0  0  0  0  0
   -4.5120   21.8090  -30.5360 C   0  0  0  0  0  0  0  0  0  0  0  0
   -3.2340   21.7090  -29.9850 C   0  0  0  0  0  0  0  0  0  0  0  0
   -2.5080   22.8650  -29.6610 C   0  0  0  0  0  0  0  0  0  0  0  0
   -1.1090   22.7450  -29.1150 C   0  0  0  0  0  0  0  0  0  0  0  0
   -0.3590   21.7330  -29.8600 N   0  0  0  0  0  0  0  0  0  0  0  0
   -0.0810   20.4230  -29.3340 C   0  0  0  0  0  0  0  0  0  0  0  0
   -0.5110   20.0880  -28.0370 C   0  0  0  0  0  0  0  0  0  0  0  0
   -0.1950   18.8510  -27.4790 C   0  0  0  0  0  0  0  0  0  0  0  0
    0.5620   17.9300  -28.2010 C   0  0  0  0  0  0  0  0  0  0  0  0
    0.9590   16.3760  -27.4930 Cl  0  0  0  0  0  0  0  0  0  0  0  0
    0.9970   18.2430  -29.4910 C   0  0  0  0  0  0  0  0  0  0  0  0
    0.6760   19.4800  -30.0790 C   0  0  0  0  0  0  0  0  0  0  0  0
    1.0990   19.7320  -31.4790 C   0  0  0  0  0  0  0  0  0  0  0  0
    2.1690   19.2320  -31.9200 O   0  0  0  0  0  0  0  0  0  0  0  0
    0.2740   20.5330  -32.3360 N   0  0  0  0  0  0  0  0  0  0  0  0
   -1.0920   20.2750  -32.6960 C   0  0  0  0  0  0  0  0  0  0  0  0
   -1.8970   21.3500  -33.0850 C   0  0  0  0  0  0  0  0  0  0  0  0
   -3.2290   21.1420  -33.4540 C   0  0  0  0  0  0  0  0  0  0  0  0
   -3.7740   19.8530  -33.4570 C   0  0  0  0  0  0  0  0  0  0  0  0
   -5.1200   19.7020  -33.8270 O   0  0  0  0  0  0  0  0  0  0  0  0
   -6.2230   19.6680  -32.9250 C   0  0  0  0  0  0  0  0  0  0  0  0
   -7.1550   18.7370  -33.3460 F   0  0  0  0  0  0  0  0  0  0  0  0
   -5.7660   19.3050  -31.6720 F   0  0  0  0  0  0  0  0  0  0  0  0
   -6.8100   20.9180  -32.8410 F   0  0  0  0  0  0  0  0  0  0  0  0
   -2.9560   18.7650  -33.0950 C   0  0  0  0  0  0  0  0  0  0  0  0
   -1.6240   18.9740  -32.7250 C   0  0  0  0  0  0  0  0  0  0  0  0
   -3.0750   24.1290  -29.9150 C   0  0  0  0  0  0  0  0  0  0  0  0
   -2.3630   25.2880  -29.6160 O   0  0  0  0  0  0  0  0  0  0  0  0
   -5.9273   25.9866  -28.9867 H   0  0  0  0  0  0  0  0  0  0  0  0
   -6.1864   27.0882  -30.3817 H   0  0  0  0  0  0  0  0  0  0  0  0
   -6.9238   25.4502  -30.3817 H   0  0  0  0  0  0  0  0  0  0  0  0
   -6.0853   23.1357  -31.2094 H   0  0  0  0  0  0  0  0  0  0  0  0
   -5.0768   20.8972  -30.7804 H   0  0  0  0  0  0  0  0  0  0  0  0
   -2.7930   20.7177  -29.8035 H   0  0  0  0  0  0  0  0  0  0  0  0
   -0.5991   23.7153  -29.2066 H   0  0  0  0  0  0  0  0  0  0  0  0
   -1.1616   22.4457  -28.0578 H   0  0  0  0  0  0  0  0  0  0  0  0
   -0.0750   21.9580  -30.8390 H   0  0  0  0  0  0  0  0  0  0  0  0
   -1.1034   20.8108  -27.4569 H   0  0  0  0  0  0  0  0  0  0  0  0
   -0.5438   18.6007  -26.4662 H   0  0  0  0  0  0  0  0  0  0  0  0
    1.5978   17.5134  -30.0538 H   0  0  0  0  0  0  0  0  0  0  0  0
   -1.4788   22.3673  -33.1008 H   0  0  0  0  0  0  0  0  0  0  0  0
   -3.8544   21.9990  -33.7446 H   0  0  0  0  0  0  0  0  0  0  0  0
   -3.3675   17.7449  -33.1034 H   0  0  0  0  0  0  0  0  0  0  0  0
   -0.9896   18.1168  -32.4554 H   0  0  0  0  0  0  0  0  0  0  0  0
  1  2  1  0
  2  3  1  0
  3  4  2  0
  4  5  1  0
  5  6  2  0
  6  7  1  0
  7  8  1  0
  8  9  1  0
  9 10  1  0
 10 11  2  0
 11 12  1  0
 12 13  2  0
 13 14  1  0
 13 15  1  0
 15 16  2  0
 16 17  1  0
 17 18  2  0
 17 19  1  0
 19 20  1  0
 20 21  2  0
 21 22  1  0
 22 23  2  0
 23 24  1  0
 24 25  1  0
 25 26  1  0
 25 27  1  0
 25 28  1  0
 23 29  1  0
 29 30  2  0
  7 31  2  0
 31 32  1  0
 31  3  1  0
 16 10  1  0
 30 20  1  0
  1 33  1  0
  1 34  1  0
  1 35  1  0
  4 36  1  0
  5 37  1  0
  6 38  1  0
  8 39  1  0
  8 40  1  0
  9 41  1  0
 11 42  1  0
 12 43  1  0
 15 44  1  0
 21 45  1  0
 22 46  1  0
 29 47  1  0
 30 48  1  0
M  CHG  2  19  -1  32  -1
M  END
>  <UniqueID>  (36) 
35

>  <SMILES>  (36) 
COc1cccc(CNc2ccc(Cl)cc2C(=O)[N-]c2ccc(OC(F)(F)F)cc2)c1[O-]

>  <Energy>  (36) 
58.923549747499834

>  <Genealogy>  (36) 
COc1cccc(CNc2ccc(Cl)cc2C(=O)[N-]c2ccc(OC(F)(F)F)cc2)c1[O-] (protonated)
COc1cccc(CNc2ccc(Cl)cc2C(=O)[N-]c2ccc(OC(F)(F)F)cc2)c1[O-] (3D coordinates assigned)
COc1cccc(CNc2ccc(Cl)cc2C(=O)[N-]c2ccc(OC(F)(F)F)cc2)c1[O-] (optimized conformer: 58.923549747499834 kcal/mol)

>  <smiles>  (36) 
COc1cccc(CNc2ccc(Cl)cc2C(=O)Nc2ccc(OC(F)(F)F)cc2)c1O

>  <score_type>  (36) 
oracle

>  <origin>  (36) 
adgpu

>  <m_score__min__energy>  (36) 
-11.9

>  <m_primary>  (36) 
energy

$$$$
36:0
     RDKit          3D

 46 48  0  0  0  0  0  0  0  0999 V2000
   -9.1040   19.0190  -32.1790 C   0  0  0  0  0  0  0  0  0  0  0  0
   -7.6350   18.9590  -32.4720 C   0  0  0  0  0  0  0  0  0  0  0  0
   -6.8520   17.9110  -31.9640 C   0  0  0  0  0  0  0  0  0  0  0  0
   -5.4790   17.8680  -32.2250 C   0  0  0  0  0  0  0  0  0  0  0  0
   -4.8690   18.8810  -32.9810 C   0  0  0  0  0  0  0  0  0  0  0  0
   -3.4120   18.7800  -33.3460 C   0  0  0  0  0  0  0  0  0  0  0  0
   -2.9590   19.9930  -34.0190 N   0  0  0  0  0  0  0  0  0  0  0  0
   -2.1450   20.9700  -33.3640 C   0  0  0  0  0  0  0  0  0  0  0  0
   -1.2500   21.5630  -34.0220 O   0  0  0  0  0  0  0  0  0  0  0  0
   -2.3330   21.2700  -31.9280 C   0  0  0  0  0  0  0  0  0  0  0  0
   -1.8050   20.4130  -30.9480 C   0  0  0  0  0  0  0  0  0  0  0  0
   -1.9110   20.7400  -29.5940 C   0  0  0  0  0  0  0  0  0  0  0  0
   -2.5510   21.9190  -29.2060 C   0  0  0  0  0  0  0  0  0  0  0  0
   -3.1060   22.7690  -30.1710 C   0  0  0  0  0  0  0  0  0  0  0  0
   -3.8830   24.2650  -29.6620 S   0  0  0  0  0  0  0  0  0  0  0  0
   -3.1540   24.8900  -28.5040 O   0  0  0  0  0  0  0  0  0  0  0  0
   -3.8610   25.2320  -30.8100 O   0  0  0  0  0  0  0  0  0  0  0  0
   -5.5290   23.9430  -29.2170 N   0  0  0  0  0  0  0  0  0  0  0  0
   -6.5230   23.4240  -30.1190 C   0  0  0  0  0  0  0  0  0  0  0  0
   -6.5460   23.8780  -31.4480 C   0  0  0  0  0  0  0  0  0  0  0  0
   -7.5060   23.4030  -32.3460 C   0  0  0  0  0  0  0  0  0  0  0  0
   -8.4600   22.4740  -31.9240 C   0  0  0  0  0  0  0  0  0  0  0  0
   -8.4530   22.0190  -30.6030 C   0  0  0  0  0  0  0  0  0  0  0  0
   -7.4910   22.4880  -29.7040 C   0  0  0  0  0  0  0  0  0  0  0  0
   -3.0050   22.4380  -31.5300 C   0  0  0  0  0  0  0  0  0  0  0  0
   -5.6500   19.9410  -33.4680 C   0  0  0  0  0  0  0  0  0  0  0  0
   -7.0230   19.9820  -33.2100 C   0  0  0  0  0  0  0  0  0  0  0  0
   -9.2608   19.0254  -31.0902 H   0  0  0  0  0  0  0  0  0  0  0  0
   -9.5279   19.9352  -32.6159 H   0  0  0  0  0  0  0  0  0  0  0  0
   -9.6012   18.1404  -32.6159 H   0  0  0  0  0  0  0  0  0  0  0  0
   -7.3199   17.1208  -31.3585 H   0  0  0  0  0  0  0  0  0  0  0  0
   -4.8738   17.0359  -31.8358 H   0  0  0  0  0  0  0  0  0  0  0  0
   -2.8205   18.6338  -32.4302 H   0  0  0  0  0  0  0  0  0  0  0  0
   -3.2788   17.9282  -34.0291 H   0  0  0  0  0  0  0  0  0  0  0  0
   -1.3057   19.4800  -31.2483 H   0  0  0  0  0  0  0  0  0  0  0  0
   -1.4896   20.0677  -28.8322 H   0  0  0  0  0  0  0  0  0  0  0  0
   -2.6194   22.1808  -28.1398 H   0  0  0  0  0  0  0  0  0  0  0  0
   -5.8270   24.2540  -28.2650 H   0  0  0  0  0  0  0  0  0  0  0  0
   -5.8015   24.6142  -31.7852 H   0  0  0  0  0  0  0  0  0  0  0  0
   -7.5103   23.7611  -33.3861 H   0  0  0  0  0  0  0  0  0  0  0  0
   -9.2159   22.1011  -32.6309 H   0  0  0  0  0  0  0  0  0  0  0  0
   -9.2063   21.2900  -30.2697 H   0  0  0  0  0  0  0  0  0  0  0  0
   -7.4896   22.1241  -28.6659 H   0  0  0  0  0  0  0  0  0  0  0  0
   -3.4542   23.0962  -32.2883 H   0  0  0  0  0  0  0  0  0  0  0  0
   -5.1792   20.7431  -34.0554 H   0  0  0  0  0  0  0  0  0  0  0  0
   -7.6262   20.8207  -33.5877 H   0  0  0  0  0  0  0  0  0  0  0  0
  1  2  1  0
  2  3  2  0
  3  4  1  0
  4  5  2  0
  5  6  1  0
  6  7  1  0
  7  8  1  0
  8  9  2  0
  8 10  1  0
 10 11  2  0
 11 12  1  0
 12 13  2  0
 13 14  1  0
 14 15  1  0
 15 16  2  0
 15 17  2  0
 15 18  1  0
 18 19  1  0
 19 20  2  0
 20 21  1  0
 21 22  2  0
 22 23  1  0
 23 24  2  0
 14 25  2  0
  5 26  1  0
 26 27  2  0
 27  2  1  0
 25 10  1  0
 24 19  1  0
  1 28  1  0
  1 29  1  0
  1 30  1  0
  3 31  1  0
  4 32  1  0
  6 33  1  0
  6 34  1  0
 11 35  1  0
 12 36  1  0
 13 37  1  0
 18 38  1  0
 20 39  1  0
 21 40  1  0
 22 41  1  0
 23 42  1  0
 24 43  1  0
 25 44  1  0
 26 45  1  0
 27 46  1  0
M  CHG  1   7  -1
M  END
>  <UniqueID>  (37) 
36

>  <SMILES>  (37) 
Cc1ccc(C[N-]C(=O)c2cccc(S(=O)(=O)Nc3ccccc3)c2)cc1

>  <Energy>  (37) 
52.76375475327946

>  <Genealogy>  (37) 
Cc1ccc(C[N-]C(=O)c2cccc(S(=O)(=O)Nc3ccccc3)c2)cc1 (protonated)
Cc1ccc(C[N-]C(=O)c2cccc(S(=O)(=O)Nc3ccccc3)c2)cc1 (3D coordinates assigned)
Cc1ccc(C[N-]C(=O)c2cccc(S(=O)(=O)Nc3ccccc3)c2)cc1 (optimized conformer: 52.76375475327946 kcal/mol)

>  <smiles>  (37) 
Cc1ccc(CNC(=O)c2cccc(S(=O)(=O)Nc3ccccc3)c2)cc1

>  <score_type>  (37) 
oracle

>  <origin>  (37) 
adgpu

>  <m_score__min__energy>  (37) 
-11.15

>  <m_primary>  (37) 
energy

$$$$
37:0
     RDKit          3D

 66 70  0  0  0  0  0  0  0  0999 V2000
   -5.0020   15.6610  -32.4050 C   0  0  0  0  0  0  0  0  0  0  0  0
   -5.4140   16.6420  -33.4630 C   0  0  0  0  0  0  0  0  0  0  0  0
   -5.1180   16.3920  -34.6630 O   0  0  0  0  0  0  0  0  0  0  0  0
   -6.1400   17.8490  -33.1390 N   0  0  0  0  0  0  0  0  0  0  0  0
   -6.1290   18.9590  -34.1060 C   0  0  0  0  0  0  0  0  0  0  0  0
   -6.5000   20.2890  -33.4420 C   0  0  0  0  0  0  0  0  0  0  0  0
   -7.8520   20.1810  -32.7180 C   0  0  0  0  0  0  0  0  0  0  0  0
   -8.1380   21.3950  -31.9440 N   0  0  0  0  0  0  0  0  0  0  0  0
   -7.3520   22.5920  -31.8290 C   0  0  0  0  0  0  0  0  0  0  0  0
   -7.7360   23.6340  -32.4250 O   0  0  0  0  0  0  0  0  0  0  0  0
   -6.1230   22.6520  -31.0340 C   0  0  0  0  0  0  0  0  0  0  0  0
   -5.8050   23.6280  -30.1110 C   0  0  0  0  0  0  0  0  0  0  0  0
   -4.5520   23.2660  -29.6520 C   0  0  0  0  0  0  0  0  0  0  0  0
   -3.7640   24.0140  -28.6480 C   0  0  0  0  0  0  0  0  0  0  0  0
   -4.2750   24.2460  -27.3620 C   0  0  0  0  0  0  0  0  0  0  0  0
   -3.5070   24.9180  -26.4060 C   0  0  0  0  0  0  0  0  0  0  0  0
   -2.2190   25.3820  -26.7230 C   0  0  0  0  0  0  0  0  0  0  0  0
   -1.3900   26.0680  -25.7000 C   0  0  0  0  0  0  0  0  0  0  0  0
   -1.1960   27.4610  -25.7560 C   0  0  0  0  0  0  0  0  0  0  0  0
   -0.4260   28.1080  -24.7840 C   0  0  0  0  0  0  0  0  0  0  0  0
    0.1580   27.3740  -23.7490 C   0  0  0  0  0  0  0  0  0  0  0  0
   -0.0250   25.9910  -23.6850 C   0  0  0  0  0  0  0  0  0  0  0  0
   -0.7950   25.3390  -24.6520 C   0  0  0  0  0  0  0  0  0  0  0  0
   -1.7230   25.1770  -28.0240 C   0  0  0  0  0  0  0  0  0  0  0  0
   -2.4910   24.5030  -28.9770 C   0  0  0  0  0  0  0  0  0  0  0  0
   -4.1780   22.1210  -30.2750 N   0  0  0  0  0  0  0  0  0  0  0  0
   -2.8980   21.4720  -30.2330 C   0  0  0  0  0  0  0  0  0  0  0  0
   -2.4860   20.8160  -29.0660 C   0  0  0  0  0  0  0  0  0  0  0  0
   -1.2530   20.1560  -29.0210 C   0  0  0  0  0  0  0  0  0  0  0  0
   -0.4200   20.1220  -30.1550 C   0  0  0  0  0  0  0  0  0  0  0  0
    0.8930   19.4330  -30.1230 C   0  0  0  0  0  0  0  0  0  0  0  0
    1.6430   19.1970  -31.3170 N   0  0  0  0  0  0  0  0  0  0  0  0
    1.3730   19.0570  -29.0190 O   0  0  0  0  0  0  0  0  0  0  0  0
   -0.8450   20.7710  -31.3280 C   0  0  0  0  0  0  0  0  0  0  0  0
   -2.0770   21.4290  -31.3700 C   0  0  0  0  0  0  0  0  0  0  0  0
   -5.1350   21.7410  -31.1070 N   0  0  0  0  0  0  0  0  0  0  0  0
   -8.0100   18.8890  -31.8760 C   0  0  0  0  0  0  0  0  0  0  0  0
   -6.7290   18.0390  -31.8030 C   0  0  0  0  0  0  0  0  0  0  0  0
   -5.1845   16.0955  -31.4111 H   0  0  0  0  0  0  0  0  0  0  0  0
   -5.5878   14.7364  -32.5142 H   0  0  0  0  0  0  0  0  0  0  0  0
   -3.9317   15.4319  -32.5142 H   0  0  0  0  0  0  0  0  0  0  0  0
   -5.1216   19.0451  -34.5392 H   0  0  0  0  0  0  0  0  0  0  0  0
   -6.8747   18.7437  -34.8855 H   0  0  0  0  0  0  0  0  0  0  0  0
   -5.7212   20.5574  -32.7130 H   0  0  0  0  0  0  0  0  0  0  0  0
   -6.5787   21.0615  -34.2211 H   0  0  0  0  0  0  0  0  0  0  0  0
   -8.6164   20.0972  -33.5046 H   0  0  0  0  0  0  0  0  0  0  0  0
   -6.4103   24.4956  -29.8095 H   0  0  0  0  0  0  0  0  0  0  0  0
   -5.2859   23.8971  -27.1043 H   0  0  0  0  0  0  0  0  0  0  0  0
   -3.9143   25.0847  -25.3979 H   0  0  0  0  0  0  0  0  0  0  0  0
   -1.6527   28.0443  -26.5691 H   0  0  0  0  0  0  0  0  0  0  0  0
   -0.2800   29.1971  -24.8347 H   0  0  0  0  0  0  0  0  0  0  0  0
    0.7618   27.8851  -22.9847 H   0  0  0  0  0  0  0  0  0  0  0  0
    0.4381   25.4134  -22.8714 H   0  0  0  0  0  0  0  0  0  0  0  0
   -0.9373   24.2498  -24.5943 H   0  0  0  0  0  0  0  0  0  0  0  0
   -0.7236   25.5500  -28.2925 H   0  0  0  0  0  0  0  0  0  0  0  0
   -2.0946   24.3548  -29.9923 H   0  0  0  0  0  0  0  0  0  0  0  0
   -3.1362   20.8197  -28.1788 H   0  0  0  0  0  0  0  0  0  0  0  0
   -0.9325   19.6602  -28.0928 H   0  0  0  0  0  0  0  0  0  0  0  0
    1.3700   19.6230  -32.2300 H   0  0  0  0  0  0  0  0  0  0  0  0
    2.5420   18.6700  -31.2710 H   0  0  0  0  0  0  0  0  0  0  0  0
   -0.2019   20.7606  -32.2203 H   0  0  0  0  0  0  0  0  0  0  0  0
   -2.4052   21.9162  -32.3000 H   0  0  0  0  0  0  0  0  0  0  0  0
   -8.2968   19.1738  -30.8530 H   0  0  0  0  0  0  0  0  0  0  0  0
   -8.7766   18.2742  -32.3704 H   0  0  0  0  0  0  0  0  0  0  0  0
   -5.9976   18.5469  -31.1572 H   0  0  0  0  0  0  0  0  0  0  0  0
   -6.9885   17.0519  -31.3928 H   0  0  0  0  0  0  0  0  0  0  0  0
  1  2  1  0
  2  3  2  0
  2  4  1  0
  4  5  1  0
  5  6  1  0
  6  7  1  0
  7  8  1  0
  8  9  1  0
  9 10  2  0
  9 11  1  0
 11 12  1  0
 12 13  2  0
 13 14  1  0
 14 15  2  0
 15 16  1  0
 16 17  2  0
 17 18  1  0
 18 19  2  0
 19 20  1  0
 20 21  2  0
 21 22  1  0
 22 23  2  0
 17 24  1  0
 24 25  2  0
 13 26  1  0
 26 27  1  0
 27 28  2  0
 28 29  1  0
 29 30  2  0
 30 31  1  0
 31 32  1  0
 31 33  2  0
 30 34  1  0
 34 35  2  0
 26 36  1  0
  7 37  1  0
 37 38  1  0
 38  4  1  0
 36 11  2  0
 25 14  1  0
 35 27  1  0
 23 18  1  0
  1 39  1  0
  1 40  1  0
  1 41  1  0
  5 42  1  0
  5 43  1  0
  6 44  1  0
  6 45  1  0
  7 46  1  0
 12 47  1  0
 15 48  1  0
 16 49  1  0
 19 50  1  0
 20 51  1  0
 21 52  1  0
 22 53  1  0
 23 54  1  0
 24 55  1  0
 25 56  1  0
 28 57  1  0
 29 58  1  0
 32 59  1  0
 32 60  1  0
 34 61  1  0
 35 62  1  0
 37 63  1  0
 37 64  1  0
 38 65  1  0
 38 66  1  0
M  CHG  1   8  -1
M  END
>  <UniqueID>  (38) 
37

>  <SMILES>  (38) 
CC(=O)N1CCC([N-]C(=O)c2cc(-c3ccc(-c4ccccc4)cc3)n(-c3ccc(C(N)=O)cc3)n2)CC1

>  <Energy>  (38) 
123.87798590985773

>  <Genealogy>  (38) 
CC(=O)N1CCC([N-]C(=O)c2cc(-c3ccc(-c4ccccc4)cc3)n(-c3ccc(C(N)=O)cc3)n2)CC1 (protonated)
CC(=O)N1CCC([N-]C(=O)c2cc(-c3ccc(-c4ccccc4)cc3)n(-c3ccc(C(N)=O)cc3)n2)CC1 (3D coordinates assigned)
CC(=O)N1CCC([N-]C(=O)c2cc(-c3ccc(-c4ccccc4)cc3)n(-c3ccc(C(N)=O)cc3)n2)CC1 (nonaromatic ring conformer: 123.87798590985773 kcal/mol)

>  <smiles>  (38) 
CC(=O)N1CCC(NC(=O)c2cc(-c3ccc(-c4ccccc4)cc3)n(-c3ccc(C(N)=O)cc3)n2)CC1

>  <score_type>  (38) 
oracle

>  <origin>  (38) 
adgpu

>  <m_score__min__energy>  (38) 
-11.73

>  <m_primary>  (38) 
energy

$$$$
38:0
     RDKit          3D

 40 42  0  0  0  0  0  0  0  0999 V2000
   -2.1210   24.4600  -29.1940 C   0  0  0  0  0  0  0  0  0  0  0  0
   -3.1300   24.9220  -30.0860 O   0  0  0  0  0  0  0  0  0  0  0  0
   -4.3770   24.3040  -30.2590 C   0  0  0  0  0  0  0  0  0  0  0  0
   -4.5080   22.9750  -30.7030 C   0  0  0  0  0  0  0  0  0  0  0  0
   -5.7740   22.4020  -30.8570 C   0  0  0  0  0  0  0  0  0  0  0  0
   -6.9340   23.1470  -30.5680 C   0  0  0  0  0  0  0  0  0  0  0  0
   -8.2540   22.5860  -30.7110 N   0  0  0  0  0  0  0  0  0  0  0  0
   -8.8160   22.1070  -31.9730 C   0  0  0  0  0  0  0  0  0  0  0  0
   -8.4380   20.6760  -32.2060 C   0  0  0  0  0  0  0  0  0  0  0  0
   -9.1010   19.5730  -31.7220 C   0  0  0  0  0  0  0  0  0  0  0  0
   -8.4400   18.5140  -32.1190 O   0  0  0  0  0  0  0  0  0  0  0  0
   -7.4050   18.9370  -32.8150 C   0  0  0  0  0  0  0  0  0  0  0  0
   -6.4140   18.0370  -33.4370 C   0  0  0  0  0  0  0  0  0  0  0  0
   -5.3610   18.5560  -34.2090 C   0  0  0  0  0  0  0  0  0  0  0  0
   -4.4260   17.6970  -34.7970 C   0  0  0  0  0  0  0  0  0  0  0  0
   -4.5370   16.3090  -34.6320 C   0  0  0  0  0  0  0  0  0  0  0  0
   -3.5120   15.3920  -35.2300 C   0  0  0  0  0  0  0  0  0  0  0  0
   -5.5780   15.7900  -33.8470 C   0  0  0  0  0  0  0  0  0  0  0  0
   -6.5130   16.6480  -33.2590 C   0  0  0  0  0  0  0  0  0  0  0  0
   -7.3500   20.2850  -32.8960 N   0  0  0  0  0  0  0  0  0  0  0  0
   -6.7960   24.4720  -30.1290 C   0  0  0  0  0  0  0  0  0  0  0  0
   -5.5300   25.0430  -29.9750 C   0  0  0  0  0  0  0  0  0  0  0  0
   -2.4519   24.6115  -28.1560 H   0  0  0  0  0  0  0  0  0  0  0  0
   -1.9397   23.3892  -29.3685 H   0  0  0  0  0  0  0  0  0  0  0  0
   -1.1919   25.0224  -29.3685 H   0  0  0  0  0  0  0  0  0  0  0  0
   -3.6089   22.3834  -30.9303 H   0  0  0  0  0  0  0  0  0  0  0  0
   -5.8647   21.3628  -31.2061 H   0  0  0  0  0  0  0  0  0  0  0  0
   -8.8520   22.4960  -29.8580 H   0  0  0  0  0  0  0  0  0  0  0  0
   -9.9122   22.1905  -31.9359 H   0  0  0  0  0  0  0  0  0  0  0  0
   -8.4168   22.7189  -32.7953 H   0  0  0  0  0  0  0  0  0  0  0  0
  -10.0174   19.5788  -31.1136 H   0  0  0  0  0  0  0  0  0  0  0  0
   -5.2712   19.6430  -34.3518 H   0  0  0  0  0  0  0  0  0  0  0  0
   -3.5994   18.1128  -35.3919 H   0  0  0  0  0  0  0  0  0  0  0  0
   -2.9532   14.8921  -34.4251 H   0  0  0  0  0  0  0  0  0  0  0  0
   -4.0143   14.6363  -35.8517 H   0  0  0  0  0  0  0  0  0  0  0  0
   -2.8167   15.9750  -35.8517 H   0  0  0  0  0  0  0  0  0  0  0  0
   -5.6590   14.7038  -33.6935 H   0  0  0  0  0  0  0  0  0  0  0  0
   -7.3313   16.2317  -32.6531 H   0  0  0  0  0  0  0  0  0  0  0  0
   -7.6931   25.0674  -29.9038 H   0  0  0  0  0  0  0  0  0  0  0  0
   -5.4394   26.0827  -29.6274 H   0  0  0  0  0  0  0  0  0  0  0  0
  1  2  1  0
  2  3  1  0
  3  4  2  0
  4  5  1  0
  5  6  2  0
  6  7  1  0
  7  8  1  0
  8  9  1  0
  9 10  2  0
 10 11  1  0
 11 12  1  0
 12 13  1  0
 13 14  2  0
 14 15  1  0
 15 16  2  0
 16 17  1  0
 16 18  1  0
 18 19  2  0
 12 20  2  0
  6 21  1  0
 21 22  2  0
 22  3  1  0
 20  9  1  0
 19 13  1  0
  1 23  1  0
  1 24  1  0
  1 25  1  0
  4 26  1  0
  5 27  1  0
  7 28  1  0
  8 29  1  0
  8 30  1  0
 10 31  1  0
 14 32  1  0
 15 33  1  0
 17 34  1  0
 17 35  1  0
 17 36  1  0
 18 37  1  0
 19 38  1  0
 21 39  1  0
 22 40  1  0
M  END
>  <UniqueID>  (39) 
38

>  <SMILES>  (39) 
COc1ccc(NCc2coc(-c3ccc(C)cc3)n2)cc1

>  <Energy>  (39) 
68.92959507791987

>  <Genealogy>  (39) 
COc1ccc(NCc2coc(-c3ccc(C)cc3)n2)cc1 (3D coordinates assigned)
COc1ccc(NCc2coc(-c3ccc(C)cc3)n2)cc1 (optimized conformer: 68.92959507791987 kcal/mol)

>  <smiles>  (39) 
COc1ccc(NCc2coc(-c3ccc(C)cc3)n2)cc1

>  <score_type>  (39) 
oracle

>  <origin>  (39) 
adgpu

>  <m_score__min__energy>  (39) 
-8.1199999999999992

>  <m_primary>  (39) 
energy

$$$$
39:0
     RDKit          3D

 52 54  0  0  0  0  0  0  0  0999 V2000
   -6.8830   17.3650  -33.4800 C   0  0  0  0  0  0  0  0  0  0  0  0
   -6.7730   18.7770  -32.9880 C   0  0  0  0  0  0  0  0  0  0  0  0
   -7.8690   19.4040  -32.3970 C   0  0  0  0  0  0  0  0  0  0  0  0
   -7.7870   20.7310  -31.9450 C   0  0  0  0  0  0  0  0  0  0  0  0
   -9.0310   21.3540  -31.3580 C   0  0  0  0  0  0  0  0  0  0  0  0
   -6.5730   21.4590  -32.0960 C   0  0  0  0  0  0  0  0  0  0  0  0
   -6.4260   23.0770  -31.3350 S   0  0  0  0  0  0  0  0  0  0  0  0
   -5.3540   23.9320  -31.9450 O   0  0  0  0  0  0  0  0  0  0  0  0
   -7.7350   23.8010  -31.4730 O   0  0  0  0  0  0  0  0  0  0  0  0
   -6.0570   22.8690  -29.6520 N   0  0  0  0  0  0  0  0  0  0  0  0
   -4.7570   23.1960  -29.1480 C   0  0  0  0  0  0  0  0  0  0  0  0
   -4.6100   24.0890  -28.0780 C   0  0  0  0  0  0  0  0  0  0  0  0
   -3.3410   24.5110  -27.6820 C   0  0  0  0  0  0  0  0  0  0  0  0
   -2.2040   24.0470  -28.3510 C   0  0  0  0  0  0  0  0  0  0  0  0
   -0.9510   24.5490  -27.9930 O   0  0  0  0  0  0  0  0  0  0  0  0
   -0.6980   25.1990  -26.7760 C   0  0  0  0  0  0  0  0  0  0  0  0
   -0.3570   24.4230  -25.6640 C   0  0  0  0  0  0  0  0  0  0  0  0
   -0.0960   25.0260  -24.4300 C   0  0  0  0  0  0  0  0  0  0  0  0
   -0.1770   26.4190  -24.2950 C   0  0  0  0  0  0  0  0  0  0  0  0
    0.0870   27.0370  -23.0320 N   0  0  0  0  0  0  0  0  0  0  0  0
   -0.5240   27.2020  -25.4040 C   0  0  0  0  0  0  0  0  0  0  0  0
   -0.7870   26.6010  -26.6380 C   0  0  0  0  0  0  0  0  0  0  0  0
   -2.3340   23.0950  -29.3810 C   0  0  0  0  0  0  0  0  0  0  0  0
   -1.1250   22.5980  -30.1200 C   0  0  0  0  0  0  0  0  0  0  0  0
   -3.6160   22.6790  -29.7760 C   0  0  0  0  0  0  0  0  0  0  0  0
   -5.4870   20.8400  -32.7820 C   0  0  0  0  0  0  0  0  0  0  0  0
   -4.2000   21.5610  -33.0920 C   0  0  0  0  0  0  0  0  0  0  0  0
   -5.6020   19.5060  -33.2060 C   0  0  0  0  0  0  0  0  0  0  0  0
   -6.9363   16.6804  -32.6207 H   0  0  0  0  0  0  0  0  0  0  0  0
   -7.7921   17.2591  -34.0902 H   0  0  0  0  0  0  0  0  0  0  0  0
   -6.0013   17.1196  -34.0902 H   0  0  0  0  0  0  0  0  0  0  0  0
   -8.8128   18.8506  -32.2830 H   0  0  0  0  0  0  0  0  0  0  0  0
   -8.9726   21.3247  -30.2599 H   0  0  0  0  0  0  0  0  0  0  0  0
   -9.1111   22.3986  -31.6932 H   0  0  0  0  0  0  0  0  0  0  0  0
   -9.9155   20.7925  -31.6932 H   0  0  0  0  0  0  0  0  0  0  0  0
   -6.6650   22.2190  -29.1050 H   0  0  0  0  0  0  0  0  0  0  0  0
   -5.4999   24.4590  -27.5478 H   0  0  0  0  0  0  0  0  0  0  0  0
   -3.2341   25.2113  -26.8405 H   0  0  0  0  0  0  0  0  0  0  0  0
   -0.2936   23.3291  -25.7609 H   0  0  0  0  0  0  0  0  0  0  0  0
    0.1737   24.4057  -23.5626 H   0  0  0  0  0  0  0  0  0  0  0  0
    0.7700   26.6160  -22.3640 H   0  0  0  0  0  0  0  0  0  0  0  0
   -0.4000   27.9180  -22.7560 H   0  0  0  0  0  0  0  0  0  0  0  0
   -0.5897   28.2954  -25.3028 H   0  0  0  0  0  0  0  0  0  0  0  0
   -1.0638   27.2215  -27.5031 H   0  0  0  0  0  0  0  0  0  0  0  0
   -0.3577   22.2826  -29.3976 H   0  0  0  0  0  0  0  0  0  0  0  0
   -1.4073   21.7430  -30.7519 H   0  0  0  0  0  0  0  0  0  0  0  0
   -0.7243   23.4044  -30.7519 H   0  0  0  0  0  0  0  0  0  0  0  0
   -3.7252   21.9415  -30.5848 H   0  0  0  0  0  0  0  0  0  0  0  0
   -3.7009   21.8406  -32.1525 H   0  0  0  0  0  0  0  0  0  0  0  0
   -3.5410   20.9007  -33.6749 H   0  0  0  0  0  0  0  0  0  0  0  0
   -4.4189   22.4678  -33.6749 H   0  0  0  0  0  0  0  0  0  0  0  0
   -4.7549   19.0270  -33.7188 H   0  0  0  0  0  0  0  0  0  0  0  0
  1  2  1  0
  2  3  2  0
  3  4  1  0
  4  5  1  0
  4  6  2  0
  6  7  1  0
  7  8  2  0
  7  9  2  0
  7 10  1  0
 10 11  1  0
 11 12  2  0
 12 13  1  0
 13 14  2  0
 14 15  1  0
 15 16  1  0
 16 17  2  0
 17 18  1  0
 18 19  2  0
 19 20  1  0
 19 21  1  0
 21 22  2  0
 14 23  1  0
 23 24  1  0
 23 25  2  0
  6 26  1  0
 26 27  1  0
 26 28  2  0
 28  2  1  0
 25 11  1  0
 22 16  1  0
  1 29  1  0
  1 30  1  0
  1 31  1  0
  3 32  1  0
  5 33  1  0
  5 34  1  0
  5 35  1  0
 10 36  1  0
 12 37  1  0
 13 38  1  0
 17 39  1  0
 18 40  1  0
 20 41  1  0
 20 42  1  0
 21 43  1  0
 22 44  1  0
 24 45  1  0
 24 46  1  0
 24 47  1  0
 25 48  1  0
 27 49  1  0
 27 50  1  0
 27 51  1  0
 28 52  1  0
M  END
>  <UniqueID>  (40) 
39

>  <SMILES>  (40) 
Cc1cc(C)c(S(=O)(=O)Nc2ccc(Oc3ccc(N)cc3)c(C)c2)c(C)c1

>  <Energy>  (40) 
68.81862303737108

>  <Genealogy>  (40) 
Cc1cc(C)c(S(=O)(=O)Nc2ccc(Oc3ccc(N)cc3)c(C)c2)c(C)c1 (3D coordinates assigned)
Cc1cc(C)c(S(=O)(=O)Nc2ccc(Oc3ccc(N)cc3)c(C)c2)c(C)c1 (optimized conformer: 68.81862303737108 kcal/mol)

>  <smiles>  (40) 
Cc1cc(C)c(S(=O)(=O)Nc2ccc(Oc3ccc(N)cc3)c(C)c2)c(C)c1

>  <score_type>  (40) 
oracle

>  <origin>  (40) 
adgpu

>  <m_score__min__energy>  (40) 
-10.119999999999999

>  <m_primary>  (40) 
energy

$$$$
40:0
     RDKit          3D

 59 62  0  0  0  0  0  0  0  0999 V2000
   -4.2150   24.5060  -27.0440 C   0  0  0  0  0  0  0  0  0  0  0  0
   -4.2940   23.0380  -27.4450 C   0  0  0  0  0  0  0  0  0  0  0  0
   -3.1160   22.3040  -26.9910 N   0  0  0  0  0  0  0  0  0  0  0  0
   -2.7610   20.9390  -27.2700 C   0  0  0  0  0  0  0  0  0  0  0  0
   -3.5690   20.0410  -26.9150 O   0  0  0  0  0  0  0  0  0  0  0  0
   -1.5140   20.5570  -27.9870 C   0  0  0  0  0  0  0  0  0  0  0  0
   -1.0150   19.3020  -27.8120 N   0  0  0  0  0  0  0  0  0  0  0  0
    0.1430   18.8860  -28.3880 C   0  0  0  0  0  0  0  0  0  0  0  0
    0.8800   19.7600  -29.1810 C   0  0  0  0  0  0  0  0  0  0  0  0
    0.4130   21.0570  -29.3780 C   0  0  0  0  0  0  0  0  0  0  0  0
   -0.7870   21.4750  -28.7880 C   0  0  0  0  0  0  0  0  0  0  0  0
   -1.2650   22.8500  -29.0600 C   0  0  0  0  0  0  0  0  0  0  0  0
   -0.6510   24.0250  -28.6190 C   0  0  0  0  0  0  0  0  0  0  0  0
    0.5670   24.1340  -27.7770 C   0  0  0  0  0  0  0  0  0  0  0  0
    1.5240   24.8580  -28.1610 O   0  0  0  0  0  0  0  0  0  0  0  0
    0.6940   23.4230  -26.4550 C   0  0  0  0  0  0  0  0  0  0  0  0
   -0.6020   23.5170  -25.6210 C   0  0  0  0  0  0  0  0  0  0  0  0
   -0.9470   24.9740  -25.2810 C   0  0  0  0  0  0  0  0  0  0  0  0
   -0.4620   22.6940  -24.3350 C   0  0  0  0  0  0  0  0  0  0  0  0
   -1.4460   25.0560  -29.0960 C   0  0  0  0  0  0  0  0  0  0  0  0
   -1.2570   26.4200  -28.9090 O   0  0  0  0  0  0  0  0  0  0  0  0
   -2.4850   24.4860  -29.7900 C   0  0  0  0  0  0  0  0  0  0  0  0
   -3.4930   25.1880  -30.4400 O   0  0  0  0  0  0  0  0  0  0  0  0
   -2.3800   23.1430  -29.7750 N   0  0  0  0  0  0  0  0  0  0  0  0
   -3.2640   22.2210  -30.4370 C   0  0  0  0  0  0  0  0  0  0  0  0
   -4.6440   22.4640  -30.4680 C   0  0  0  0  0  0  0  0  0  0  0  0
   -5.5050   21.5700  -31.1080 C   0  0  0  0  0  0  0  0  0  0  0  0
   -5.0010   20.4130  -31.7310 C   0  0  0  0  0  0  0  0  0  0  0  0
   -5.9190   19.4430  -32.3770 C   0  0  0  0  0  0  0  0  0  0  0  0
   -7.2880   19.3440  -32.0690 C   0  0  0  0  0  0  0  0  0  0  0  0
   -7.9590   18.3740  -32.8000 C   0  0  0  0  0  0  0  0  0  0  0  0
   -6.8560   17.6400  -33.8300 S   0  0  0  0  0  0  0  0  0  0  0  0
   -5.5170   18.5420  -33.3640 C   0  0  0  0  0  0  0  0  0  0  0  0
   -3.6140   20.1820  -31.7100 C   0  0  0  0  0  0  0  0  0  0  0  0
   -2.7540   21.0780  -31.0690 C   0  0  0  0  0  0  0  0  0  0  0  0
   -4.2107   24.5867  -25.9470 H   0  0  0  0  0  0  0  0  0  0  0  0
   -3.2918   24.9472  -27.4478 H   0  0  0  0  0  0  0  0  0  0  0  0
   -5.0855   25.0438  -27.4478 H   0  0  0  0  0  0  0  0  0  0  0  0
   -5.1919   22.5904  -26.9940 H   0  0  0  0  0  0  0  0  0  0  0  0
   -4.3411   22.9780  -28.5424 H   0  0  0  0  0  0  0  0  0  0  0  0
    0.4982   17.8574  -28.2273 H   0  0  0  0  0  0  0  0  0  0  0  0
    1.8204   19.4303  -29.6468 H   0  0  0  0  0  0  0  0  0  0  0  0
    0.9895   21.7573  -30.0003 H   0  0  0  0  0  0  0  0  0  0  0  0
    0.9198   22.3628  -26.6422 H   0  0  0  0  0  0  0  0  0  0  0  0
    1.5008   23.9070  -25.8850 H   0  0  0  0  0  0  0  0  0  0  0  0
   -1.4241   23.1079  -26.2266 H   0  0  0  0  0  0  0  0  0  0  0  0
   -0.9765   25.0985  -24.1885 H   0  0  0  0  0  0  0  0  0  0  0  0
   -0.1819   25.6406  -25.7055 H   0  0  0  0  0  0  0  0  0  0  0  0
   -1.9298   25.2267  -25.7055 H   0  0  0  0  0  0  0  0  0  0  0  0
   -0.5744   23.3547  -23.4628 H   0  0  0  0  0  0  0  0  0  0  0  0
   -1.2410   21.9178  -24.3098 H   0  0  0  0  0  0  0  0  0  0  0  0
    0.5298   22.2190  -24.3098 H   0  0  0  0  0  0  0  0  0  0  0  0
   -5.0514   23.3645  -29.9852 H   0  0  0  0  0  0  0  0  0  0  0  0
   -6.5862   21.7718  -31.1253 H   0  0  0  0  0  0  0  0  0  0  0  0
   -7.7815   19.9776  -31.3174 H   0  0  0  0  0  0  0  0  0  0  0  0
   -9.0282   18.1288  -32.7185 H   0  0  0  0  0  0  0  0  0  0  0  0
   -4.4988   18.4399  -33.7675 H   0  0  0  0  0  0  0  0  0  0  0  0
   -3.2024   19.2885  -32.2023 H   0  0  0  0  0  0  0  0  0  0  0  0
   -1.6710   20.8854  -31.0603 H   0  0  0  0  0  0  0  0  0  0  0  0
  1  2  1  0
  2  3  1  0
  3  4  1  0
  4  5  2  0
  4  6  1  0
  6  7  2  0
  7  8  1  0
  8  9  2  0
  9 10  1  0
 10 11  2  0
 11 12  1  0
 12 13  2  0
 13 14  1  0
 14 15  2  0
 14 16  1  0
 16 17  1  0
 17 18  1  0
 17 19  1  0
 13 20  1  0
 20 21  1  0
 20 22  2  0
 22 23  1  0
 22 24  1  0
 24 25  1  0
 25 26  2  0
 26 27  1  0
 27 28  2  0
 28 29  1  0
 29 30  1  0
 30 31  2  0
 31 32  1  0
 32 33  1  0
 28 34  1  0
 34 35  2  0
 11  6  1  0
 24 12  1  0
 35 25  1  0
 33 29  2  0
  1 36  1  0
  1 37  1  0
  1 38  1  0
  2 39  1  0
  2 40  1  0
  8 41  1  0
  9 42  1  0
 10 43  1  0
 16 44  1  0
 16 45  1  0
 17 46  1  0
 18 47  1  0
 18 48  1  0
 18 49  1  0
 19 50  1  0
 19 51  1  0
 19 52  1  0
 26 53  1  0
 27 54  1  0
 30 55  1  0
 31 56  1  0
 33 57  1  0
 34 58  1  0
 35 59  1  0
M  CHG  3   3  -1  21  -1  23  -1
M  END
>  <UniqueID>  (41) 
40

>  <SMILES>  (41) 
CC[N-]C(=O)c1ncccc1-c1c(C(=O)CC(C)C)c([O-])c([O-])n1-c1ccc(-c2ccsc2)cc1

>  <Energy>  (41) 
126.65841660927954

>  <Genealogy>  (41) 
CC[N-]C(=O)c1ncccc1-c1c(C(=O)CC(C)C)c([O-])c([O-])n1-c1ccc(-c2ccsc2)cc1 (protonated)
CC[N-]C(=O)c1ncccc1-c1c(C(=O)CC(C)C)c([O-])c([O-])n1-c1ccc(-c2ccsc2)cc1 (3D coordinates assigned)
CC[N-]C(=O)c1ncccc1-c1c(C(=O)CC(C)C)c([O-])c([O-])n1-c1ccc(-c2ccsc2)cc1 (optimized conformer: 126.65841660927954 kcal/mol)

>  <smiles>  (41) 
CCNC(=O)c1ncccc1-c1c(C(=O)CC(C)C)c(O)c(O)n1-c1ccc(-c2ccsc2)cc1

>  <score_type>  (41) 
oracle

>  <origin>  (41) 
adgpu

>  <m_score__min__energy>  (41) 
-15.609999999999999

>  <m_primary>  (41) 
energy

$$$$
41:0
     RDKit          3D

 33 35  0  0  0  0  0  0  0  0999 V2000
   -7.4870   22.6610  -30.2010 O   0  0  0  0  0  0  0  0  0  0  0  0
   -6.9390   21.7440  -30.8680 C   0  0  0  0  0  0  0  0  0  0  0  0
   -5.5120   21.5790  -30.8370 N   0  0  0  0  0  0  0  0  0  0  0  0
   -4.5980   22.5940  -30.3850 C   0  0  0  0  0  0  0  0  0  0  0  0
   -4.9720   23.9430  -30.4660 C   0  0  0  0  0  0  0  0  0  0  0  0
   -4.1120   24.9470  -30.0120 C   0  0  0  0  0  0  0  0  0  0  0  0
   -2.8730   24.6120  -29.4410 C   0  0  0  0  0  0  0  0  0  0  0  0
   -1.9590   25.6180  -28.9810 N   0  0  0  0  0  0  0  0  0  0  0  0
   -0.8470   25.4080  -28.1040 C   0  0  0  0  0  0  0  0  0  0  0  0
    0.1300   24.7280  -28.5150 O   0  0  0  0  0  0  0  0  0  0  0  0
   -0.8370   25.9140  -26.7190 C   0  0  0  0  0  0  0  0  0  0  0  0
   -0.8360   27.2470  -26.3190 C   0  0  0  0  0  0  0  0  0  0  0  0
   -0.8660   27.4080  -24.9290 C   0  0  0  0  0  0  0  0  0  0  0  0
   -0.9020   26.2100  -24.2280 C   0  0  0  0  0  0  0  0  0  0  0  0
   -0.9000   24.9500  -25.3410 S   0  0  0  0  0  0  0  0  0  0  0  0
   -2.4960   23.2660  -29.3610 C   0  0  0  0  0  0  0  0  0  0  0  0
   -3.3550   22.2620  -29.8170 C   0  0  0  0  0  0  0  0  0  0  0  0
   -7.7900   20.8240  -31.6410 C   0  0  0  0  0  0  0  0  0  0  0  0
   -9.1060   21.0300  -32.0130 C   0  0  0  0  0  0  0  0  0  0  0  0
   -9.4780   19.8990  -32.7080 C   0  0  0  0  0  0  0  0  0  0  0  0
   -8.3720   19.0740  -32.7170 C   0  0  0  0  0  0  0  0  0  0  0  0
   -7.3850   19.6510  -32.0720 O   0  0  0  0  0  0  0  0  0  0  0  0
   -5.1180   20.6370  -31.0580 H   0  0  0  0  0  0  0  0  0  0  0  0
   -5.9502   24.2133  -30.8903 H   0  0  0  0  0  0  0  0  0  0  0  0
   -4.4064   26.0030  -30.1021 H   0  0  0  0  0  0  0  0  0  0  0  0
   -0.8138   28.0902  -27.0251 H   0  0  0  0  0  0  0  0  0  0  0  0
   -0.8615   28.3921  -24.4376 H   0  0  0  0  0  0  0  0  0  0  0  0
   -0.9274   26.1037  -23.1334 H   0  0  0  0  0  0  0  0  0  0  0  0
   -1.5175   22.9969  -28.9366 H   0  0  0  0  0  0  0  0  0  0  0  0
   -3.0572   21.2066  -29.7311 H   0  0  0  0  0  0  0  0  0  0  0  0
   -9.7267   21.9126  -31.7989 H   0  0  0  0  0  0  0  0  0  0  0  0
  -10.4584   19.6954  -33.1634 H   0  0  0  0  0  0  0  0  0  0  0  0
   -8.3246   18.0832  -33.1925 H   0  0  0  0  0  0  0  0  0  0  0  0
  1  2  2  0
  2  3  1  0
  3  4  1  0
  4  5  2  0
  5  6  1  0
  6  7  2  0
  7  8  1  0
  8  9  1  0
  9 10  2  0
  9 11  1  0
 11 12  2  0
 12 13  1  0
 13 14  2  0
 14 15  1  0
  7 16  1  0
 16 17  2  0
  2 18  1  0
 18 19  2  0
 19 20  1  0
 20 21  2  0
 21 22  1  0
 17  4  1  0
 22 18  1  0
 15 11  1  0
  3 23  1  0
  5 24  1  0
  6 25  1  0
 12 26  1  0
 13 27  1  0
 14 28  1  0
 16 29  1  0
 17 30  1  0
 19 31  1  0
 20 32  1  0
 21 33  1  0
M  CHG  1   8  -1
M  END
>  <UniqueID>  (42) 
41

>  <SMILES>  (42) 
O=C(Nc1ccc([N-]C(=O)c2cccs2)cc1)c1ccco1

>  <Energy>  (42) 
95.56509802905641

>  <Genealogy>  (42) 
O=C(Nc1ccc([N-]C(=O)c2cccs2)cc1)c1ccco1 (protonated)
O=C(Nc1ccc([N-]C(=O)c2cccs2)cc1)c1ccco1 (3D coordinates assigned)
O=C(Nc1ccc([N-]C(=O)c2cccs2)cc1)c1ccco1 (optimized conformer: 95.56509802905641 kcal/mol)

>  <smiles>  (42) 
O=C(Nc1ccc(NC(=O)c2cccs2)cc1)c1ccco1

>  <score_type>  (42) 
oracle

>  <origin>  (42) 
adgpu

>  <m_score__min__energy>  (42) 
-8.8100000000000005

>  <m_primary>  (42) 
energy

$$$$
42:0
     RDKit          3D

 44 46  0  0  0  0  0  0  0  0999 V2000
   -3.6420   21.5730  -32.9660 C   0  0  0  0  0  0  0  0  0  0  0  0
   -3.7040   22.6900  -32.0850 O   0  0  0  0  0  0  0  0  0  0  0  0
   -4.8900   23.2160  -31.5510 C   0  0  0  0  0  0  0  0  0  0  0  0
   -6.1480   22.6330  -31.8070 C   0  0  0  0  0  0  0  0  0  0  0  0
   -7.3060   23.1850  -31.2570 C   0  0  0  0  0  0  0  0  0  0  0  0
   -7.2260   24.3200  -30.4510 C   0  0  0  0  0  0  0  0  0  0  0  0
   -5.9870   24.9080  -30.1910 C   0  0  0  0  0  0  0  0  0  0  0  0
   -4.8110   24.3600  -30.7360 C   0  0  0  0  0  0  0  0  0  0  0  0
   -3.5210   24.9350  -30.4820 N   0  0  0  0  0  0  0  0  0  0  0  0
   -2.4530   24.4740  -29.1960 S   0  0  0  0  0  0  0  0  0  0  0  0
   -3.1650   24.6420  -27.8830 O   0  0  0  0  0  0  0  0  0  0  0  0
   -1.2440   25.3650  -29.2150 O   0  0  0  0  0  0  0  0  0  0  0  0
   -1.9330   22.8050  -29.4150 C   0  0  0  0  0  0  0  0  0  0  0  0
   -2.1900   21.8600  -28.4160 C   0  0  0  0  0  0  0  0  0  0  0  0
   -1.7620   20.5410  -28.5720 C   0  0  0  0  0  0  0  0  0  0  0  0
   -1.0820   20.1560  -29.7310 C   0  0  0  0  0  0  0  0  0  0  0  0
   -0.8300   21.0890  -30.7540 C   0  0  0  0  0  0  0  0  0  0  0  0
   -0.1040   20.6750  -31.9780 C   0  0  0  0  0  0  0  0  0  0  0  0
    0.6930   19.6980  -31.9260 O   0  0  0  0  0  0  0  0  0  0  0  0
   -0.3330   21.3410  -33.2320 N   0  0  0  0  0  0  0  0  0  0  0  0
    0.5890   21.3060  -34.3350 C   0  0  0  0  0  0  0  0  0  0  0  0
    1.5430   20.2780  -34.4050 C   0  0  0  0  0  0  0  0  0  0  0  0
    2.4350   20.2110  -35.4800 C   0  0  0  0  0  0  0  0  0  0  0  0
    2.3730   21.1610  -36.5030 C   0  0  0  0  0  0  0  0  0  0  0  0
    3.2590   21.0940  -37.5700 O   0  0  0  0  0  0  0  0  0  0  0  0
    1.4130   22.1770  -36.4540 C   0  0  0  0  0  0  0  0  0  0  0  0
    0.5200   22.2470  -35.3800 C   0  0  0  0  0  0  0  0  0  0  0  0
   -1.2570   22.4190  -30.5810 C   0  0  0  0  0  0  0  0  0  0  0  0
   -3.5905   20.6447  -32.3781 H   0  0  0  0  0  0  0  0  0  0  0  0
   -4.5406   21.5559  -33.6002 H   0  0  0  0  0  0  0  0  0  0  0  0
   -2.7471   21.6555  -33.6002 H   0  0  0  0  0  0  0  0  0  0  0  0
   -6.2172   21.7385  -32.4435 H   0  0  0  0  0  0  0  0  0  0  0  0
   -8.2838   22.7237  -31.4598 H   0  0  0  0  0  0  0  0  0  0  0  0
   -8.1406   24.7527  -30.0194 H   0  0  0  0  0  0  0  0  0  0  0  0
   -5.9296   25.8048  -29.5565 H   0  0  0  0  0  0  0  0  0  0  0  0
   -2.7307   22.1574  -27.5054 H   0  0  0  0  0  0  0  0  0  0  0  0
   -1.9602   19.8026  -27.7811 H   0  0  0  0  0  0  0  0  0  0  0  0
   -0.7414   19.1162  -29.8443 H   0  0  0  0  0  0  0  0  0  0  0  0
   -1.2680   21.7800  -33.3900 H   0  0  0  0  0  0  0  0  0  0  0  0
    1.5890   19.5203  -33.6089 H   0  0  0  0  0  0  0  0  0  0  0  0
    3.1868   19.4090  -35.5204 H   0  0  0  0  0  0  0  0  0  0  0  0
    1.3603   22.9221  -37.2615 H   0  0  0  0  0  0  0  0  0  0  0  0
   -0.2403   23.0414  -35.3515 H   0  0  0  0  0  0  0  0  0  0  0  0
   -1.0586   23.1620  -31.3675 H   0  0  0  0  0  0  0  0  0  0  0  0
  1  2  1  0
  2  3  1  0
  3  4  2  0
  4  5  1  0
  5  6  2  0
  6  7  1  0
  7  8  2  0
  8  9  1  0
  9 10  1  0
 10 11  2  0
 10 12  2  0
 10 13  1  0
 13 14  2  0
 14 15  1  0
 15 16  2  0
 16 17  1  0
 17 18  1  0
 18 19  2  0
 18 20  1  0
 20 21  1  0
 21 22  2  0
 22 23  1  0
 23 24  2  0
 24 25  1  0
 24 26  1  0
 26 27  2  0
 17 28  2  0
  8  3  1  0
 28 13  1  0
 27 21  1  0
  1 29  1  0
  1 30  1  0
  1 31  1  0
  4 32  1  0
  5 33  1  0
  6 34  1  0
  7 35  1  0
 14 36  1  0
 15 37  1  0
 16 38  1  0
 20 39  1  0
 22 40  1  0
 23 41  1  0
 26 42  1  0
 27 43  1  0
 28 44  1  0
M  CHG  2   9  -1  25  -1
M  END
>  <UniqueID>  (43) 
42

>  <SMILES>  (43) 
COc1ccccc1[N-]S(=O)(=O)c1cccc(C(=O)Nc2ccc([O-])cc2)c1

>  <Energy>  (43) 
55.01697721225066

>  <Genealogy>  (43) 
COc1ccccc1[N-]S(=O)(=O)c1cccc(C(=O)Nc2ccc([O-])cc2)c1 (protonated)
COc1ccccc1[N-]S(=O)(=O)c1cccc(C(=O)Nc2ccc([O-])cc2)c1 (3D coordinates assigned)
COc1ccccc1[N-]S(=O)(=O)c1cccc(C(=O)Nc2ccc([O-])cc2)c1 (optimized conformer: 55.01697721225066 kcal/mol)

>  <smiles>  (43) 
COc1ccccc1NS(=O)(=O)c1cccc(C(=O)Nc2ccc(O)cc2)c1

>  <score_type>  (43) 
oracle

>  <origin>  (43) 
adgpu

>  <m_score__min__energy>  (43) 
-10.74

>  <m_primary>  (43) 
energy

$$$$
43:0
     RDKit          3D

 41 44  0  0  0  0  0  0  0  0999 V2000
   -4.8840   20.2440  -33.4740 O   0  0  0  0  0  0  0  0  0  0  0  0
   -4.3340   21.0730  -32.6960 C   0  0  0  0  0  0  0  0  0  0  0  0
   -5.1370   21.9800  -31.9220 N   0  0  0  0  0  0  0  0  0  0  0  0
   -6.5750   21.9490  -31.8810 C   0  0  0  0  0  0  0  0  0  0  0  0
   -7.3430   23.1270  -31.9810 C   0  0  0  0  0  0  0  0  0  0  0  0
   -8.7410   23.0610  -31.9680 C   0  0  0  0  0  0  0  0  0  0  0  0
   -9.3830   21.8220  -31.8700 C   0  0  0  0  0  0  0  0  0  0  0  0
   -8.6290   20.6470  -31.7890 C   0  0  0  0  0  0  0  0  0  0  0  0
   -7.2310   20.7080  -31.8030 C   0  0  0  0  0  0  0  0  0  0  0  0
   -2.8570   21.1320  -32.6250 C   0  0  0  0  0  0  0  0  0  0  0  0
   -2.1130   21.1600  -33.8200 C   0  0  0  0  0  0  0  0  0  0  0  0
   -0.7160   21.1600  -33.7890 C   0  0  0  0  0  0  0  0  0  0  0  0
    0.2750   21.1890  -35.4210 Br  0  0  0  0  0  0  0  0  0  0  0  0
   -0.0450   21.1240  -32.5660 C   0  0  0  0  0  0  0  0  0  0  0  0
   -0.7670   21.0960  -31.3720 C   0  0  0  0  0  0  0  0  0  0  0  0
   -2.1750   21.1010  -31.3830 C   0  0  0  0  0  0  0  0  0  0  0  0
   -2.9010   21.1530  -30.1400 N   0  0  0  0  0  0  0  0  0  0  0  0
   -2.4930   21.9820  -29.0380 C   0  0  0  0  0  0  0  0  0  0  0  0
   -1.4510   21.5200  -28.1900 C   0  0  0  0  0  0  0  0  0  0  0  0
   -1.0640   22.2490  -27.0530 C   0  0  0  0  0  0  0  0  0  0  0  0
   -1.7350   23.4330  -26.7970 C   0  0  0  0  0  0  0  0  0  0  0  0
   -1.5700   24.2870  -25.7760 N   0  0  0  0  0  0  0  0  0  0  0  0
   -2.4500   25.2300  -25.9940 O   0  0  0  0  0  0  0  0  0  0  0  0
   -3.1700   25.0520  -27.0740 N   0  0  0  0  0  0  0  0  0  0  0  0
   -2.7240   23.9000  -27.5990 C   0  0  0  0  0  0  0  0  0  0  0  0
   -3.1500   23.2200  -28.7520 C   0  0  0  0  0  0  0  0  0  0  0  0
   -4.1750   23.7840  -29.6030 N   0  0  0  0  0  0  0  0  0  0  0  0
   -5.3720   23.4500  -29.4810 O   0  0  0  0  0  0  0  0  0  0  0  0
   -3.8340   24.6170  -30.6500 O   0  0  0  0  0  0  0  0  0  0  0  0
   -4.6600   22.7470  -31.4000 H   0  0  0  0  0  0  0  0  0  0  0  0
   -6.8415   24.1020  -32.0696 H   0  0  0  0  0  0  0  0  0  0  0  0
   -9.3354   23.9842  -32.0349 H   0  0  0  0  0  0  0  0  0  0  0  0
  -10.4818   21.7719  -31.8566 H   0  0  0  0  0  0  0  0  0  0  0  0
   -9.1355   19.6734  -31.7142 H   0  0  0  0  0  0  0  0  0  0  0  0
   -6.6423   19.7801  -31.7527 H   0  0  0  0  0  0  0  0  0  0  0  0
   -2.6364   21.1821  -34.7872 H   0  0  0  0  0  0  0  0  0  0  0  0
    1.0547   21.1177  -32.5430 H   0  0  0  0  0  0  0  0  0  0  0  0
   -0.2304   21.0697  -30.4121 H   0  0  0  0  0  0  0  0  0  0  0  0
   -3.7200   20.5210  -29.9980 H   0  0  0  0  0  0  0  0  0  0  0  0
   -0.9388   20.5760  -28.4275 H   0  0  0  0  0  0  0  0  0  0  0  0
   -0.2597   21.8933  -26.3922 H   0  0  0  0  0  0  0  0  0  0  0  0
  1  2  2  0
  2  3  1  0
  3  4  1  0
  4  5  2  0
  5  6  1  0
  6  7  2  0
  7  8  1  0
  8  9  2  0
  2 10  1  0
 10 11  2  0
 11 12  1  0
 12 13  1  0
 12 14  2  0
 14 15  1  0
 15 16  2  0
 16 17  1  0
 17 18  1  0
 18 19  1  0
 19 20  2  0
 20 21  1  0
 21 22  2  0
 22 23  1  0
 23 24  1  0
 24 25  2  0
 25 26  1  0
 26 27  1  0
 27 28  2  0
 27 29  1  0
  9  4  1  0
 16 10  1  0
 26 18  2  0
 25 21  1  0
  3 30  1  0
  5 31  1  0
  6 32  1  0
  7 33  1  0
  8 34  1  0
  9 35  1  0
 11 36  1  0
 14 37  1  0
 15 38  1  0
 17 39  1  0
 19 40  1  0
 20 41  1  0
M  CHG  2  27   1  29  -1
M  END
>  <UniqueID>  (44) 
43

>  <SMILES>  (44) 
O=C(Nc1ccccc1)c1cc(Br)ccc1Nc1ccc2nonc2c1[N+](=O)[O-]

>  <Energy>  (44) 
108.8222107378154

>  <Genealogy>  (44) 
O=C(Nc1ccccc1)c1cc(Br)ccc1Nc1ccc2nonc2c1[N+](=O)[O-] (3D coordinates assigned)
O=C(Nc1ccccc1)c1cc(Br)ccc1Nc1ccc2nonc2c1[N+](=O)[O-] (optimized conformer: 108.8222107378154 kcal/mol)

>  <smiles>  (44) 
O=C(Nc1ccccc1)c1cc(Br)ccc1Nc1ccc2nonc2c1[N+](=O)[O-]

>  <score_type>  (44) 
oracle

>  <origin>  (44) 
adgpu

>  <m_score__min__energy>  (44) 
-9.7799999999999994

>  <m_primary>  (44) 
energy

$$$$
44:0
     RDKit          3D

 49 51  0  0  0  0  0  0  0  0999 V2000
   -1.5770   26.2770  -26.5390 C   0  0  0  0  0  0  0  0  0  0  0  0
   -0.8690   26.7110  -27.8130 C   0  0  0  0  0  0  0  0  0  0  0  0
   -1.4490   26.0440  -28.9300 O   0  0  0  0  0  0  0  0  0  0  0  0
   -1.7520   24.6740  -28.9710 C   0  0  0  0  0  0  0  0  0  0  0  0
   -0.9770   23.7150  -28.2880 C   0  0  0  0  0  0  0  0  0  0  0  0
   -1.3090   22.3610  -28.3550 C   0  0  0  0  0  0  0  0  0  0  0  0
   -2.4060   21.9460  -29.1100 C   0  0  0  0  0  0  0  0  0  0  0  0
   -3.1800   22.8850  -29.7950 C   0  0  0  0  0  0  0  0  0  0  0  0
   -2.8700   24.2550  -29.7140 C   0  0  0  0  0  0  0  0  0  0  0  0
   -3.6460   25.2380  -30.4190 N   0  0  0  0  0  0  0  0  0  0  0  0
   -5.0660   25.2120  -30.6120 C   0  0  0  0  0  0  0  0  0  0  0  0
   -5.7170   26.2780  -30.4550 O   0  0  0  0  0  0  0  0  0  0  0  0
   -5.7900   23.9610  -30.9410 C   0  0  0  0  0  0  0  0  0  0  0  0
   -5.5250   23.2890  -32.1460 C   0  0  0  0  0  0  0  0  0  0  0  0
   -6.1920   22.1000  -32.4540 C   0  0  0  0  0  0  0  0  0  0  0  0
   -7.1450   21.5760  -31.5710 C   0  0  0  0  0  0  0  0  0  0  0  0
   -7.9570   20.0520  -31.9240 S   0  0  0  0  0  0  0  0  0  0  0  0
   -8.4830   20.0730  -33.3330 O   0  0  0  0  0  0  0  0  0  0  0  0
   -9.1240   19.9110  -30.9880 O   0  0  0  0  0  0  0  0  0  0  0  0
   -6.8610   18.7030  -31.6920 N   0  0  0  0  0  0  0  0  0  0  0  0
   -7.2780   17.5200  -32.4840 C   0  0  0  0  0  0  0  0  0  0  0  0
   -6.5050   17.3910  -33.8110 C   0  0  0  0  0  0  0  0  0  0  0  0
   -6.1610   18.6640  -34.3080 O   0  0  0  0  0  0  0  0  0  0  0  0
   -5.1880   19.2710  -33.4760 C   0  0  0  0  0  0  0  0  0  0  0  0
   -5.4590   19.0800  -31.9640 C   0  0  0  0  0  0  0  0  0  0  0  0
   -7.4250   22.2510  -30.3770 C   0  0  0  0  0  0  0  0  0  0  0  0
   -6.7590   23.4390  -30.0670 C   0  0  0  0  0  0  0  0  0  0  0  0
   -1.0070   26.6264  -25.6655 H   0  0  0  0  0  0  0  0  0  0  0  0
   -2.5875   26.7111  -26.5150 H   0  0  0  0  0  0  0  0  0  0  0  0
   -1.6487   25.1796  -26.5150 H   0  0  0  0  0  0  0  0  0  0  0  0
   -0.9758   27.7985  -27.9395 H   0  0  0  0  0  0  0  0  0  0  0  0
    0.1981   26.4525  -27.7454 H   0  0  0  0  0  0  0  0  0  0  0  0
   -0.1053   24.0356  -27.6986 H   0  0  0  0  0  0  0  0  0  0  0  0
   -0.7045   21.6199  -27.8115 H   0  0  0  0  0  0  0  0  0  0  0  0
   -2.6617   20.8776  -29.1659 H   0  0  0  0  0  0  0  0  0  0  0  0
   -4.0358   22.5521  -30.4006 H   0  0  0  0  0  0  0  0  0  0  0  0
   -4.7882   23.7011  -32.8512 H   0  0  0  0  0  0  0  0  0  0  0  0
   -5.9677   21.5736  -33.3935 H   0  0  0  0  0  0  0  0  0  0  0  0
   -6.9250   18.4520  -30.6780 H   0  0  0  0  0  0  0  0  0  0  0  0
   -7.1015   16.6149  -31.8843 H   0  0  0  0  0  0  0  0  0  0  0  0
   -8.3430   17.6432  -32.7301 H   0  0  0  0  0  0  0  0  0  0  0  0
   -5.5873   16.8091  -33.6402 H   0  0  0  0  0  0  0  0  0  0  0  0
   -7.1450   16.8828  -34.5473 H   0  0  0  0  0  0  0  0  0  0  0  0
   -4.2069   18.8328  -33.7115 H   0  0  0  0  0  0  0  0  0  0  0  0
   -5.2222   20.3522  -33.6757 H   0  0  0  0  0  0  0  0  0  0  0  0
   -4.7986   18.2870  -31.5831 H   0  0  0  0  0  0  0  0  0  0  0  0
   -5.2636   20.0391  -31.4620 H   0  0  0  0  0  0  0  0  0  0  0  0
   -8.1725   21.8442  -29.6801 H   0  0  0  0  0  0  0  0  0  0  0  0
   -6.9945   23.9695  -29.1326 H   0  0  0  0  0  0  0  0  0  0  0  0
  1  2  1  0
  2  3  1  0
  3  4  1  0
  4  5  2  0
  5  6  1  0
  6  7  2  0
  7  8  1  0
  8  9  2  0
  9 10  1  0
 10 11  1  0
 11 12  2  0
 11 13  1  0
 13 14  2  0
 14 15  1  0
 15 16  2  0
 16 17  1  0
 17 18  2  0
 17 19  2  0
 17 20  1  0
 20 21  1  0
 21 22  1  0
 22 23  1  0
 23 24  1  0
 24 25  1  0
 16 26  1  0
 26 27  2  0
  9  4  1  0
 27 13  1  0
 25 20  1  0
  1 28  1  0
  1 29  1  0
  1 30  1  0
  2 31  1  0
  2 32  1  0
  5 33  1  0
  6 34  1  0
  7 35  1  0
  8 36  1  0
 14 37  1  0
 15 38  1  0
 20 39  1  0
 21 40  1  0
 21 41  1  0
 22 42  1  0
 22 43  1  0
 24 44  1  0
 24 45  1  0
 25 46  1  0
 25 47  1  0
 26 48  1  0
 27 49  1  0
M  CHG  2  10  -1  20   1
M  END
>  <UniqueID>  (45) 
44

>  <SMILES>  (45) 
CCOc1ccccc1[N-]C(=O)c1ccc(S(=O)(=O)[NH+]2CCOCC2)cc1

>  <Energy>  (45) 
63.9049437708146

>  <Genealogy>  (45) 
CCOc1ccccc1[N-]C(=O)c1ccc(S(=O)(=O)[NH+]2CCOCC2)cc1 (protonated)
CCOc1ccccc1[N-]C(=O)c1ccc(S(=O)(=O)[NH+]2CCOCC2)cc1 (3D coordinates assigned)
CCOc1ccccc1[N-]C(=O)c1ccc(S(=O)(=O)[NH+]2CCOCC2)cc1 (nonaromatic ring conformer: 63.9049437708146 kcal/mol)

>  <smiles>  (45) 
CCOc1ccccc1NC(=O)c1ccc(S(=O)(=O)N2CCOCC2)cc1

>  <score_type>  (45) 
oracle

>  <origin>  (45) 
adgpu

>  <m_score__min__energy>  (45) 
-11.92

>  <m_primary>  (45) 
energy

$$$$
45:0
     RDKit          3D

 41 43  0  0  0  0  0  0  0  0999 V2000
   -3.8230   18.5170  -26.2340 C   0  0  0  0  0  0  0  0  0  0  0  0
   -2.8160   19.5270  -26.6700 C   0  0  0  0  0  0  0  0  0  0  0  0
   -3.1420   20.7610  -27.1030 N   0  0  0  0  0  0  0  0  0  0  0  0
   -1.9460   21.3190  -27.3820 C   0  0  0  0  0  0  0  0  0  0  0  0
   -1.7810   22.6970  -27.9040 C   0  0  0  0  0  0  0  0  0  0  0  0
   -0.7560   23.5370  -27.4330 C   0  0  0  0  0  0  0  0  0  0  0  0
   -0.6160   24.8310  -27.9410 C   0  0  0  0  0  0  0  0  0  0  0  0
   -1.4920   25.3040  -28.9180 C   0  0  0  0  0  0  0  0  0  0  0  0
   -2.5230   24.4810  -29.4010 C   0  0  0  0  0  0  0  0  0  0  0  0
   -3.4480   24.9240  -30.4040 N   0  0  0  0  0  0  0  0  0  0  0  0
   -5.1740   24.9440  -30.2350 S   0  0  0  0  0  0  0  0  0  0  0  0
   -5.5260   24.9100  -28.7740 O   0  0  0  0  0  0  0  0  0  0  0  0
   -5.7170   26.2130  -30.8290 O   0  0  0  0  0  0  0  0  0  0  0  0
   -5.8650   23.5270  -31.0200 C   0  0  0  0  0  0  0  0  0  0  0  0
   -5.0280   22.6560  -31.7230 C   0  0  0  0  0  0  0  0  0  0  0  0
   -5.5590   21.5320  -32.3590 C   0  0  0  0  0  0  0  0  0  0  0  0
   -6.9380   21.2650  -32.3060 C   0  0  0  0  0  0  0  0  0  0  0  0
   -7.4780   20.0350  -32.9860 C   0  0  0  0  0  0  0  0  0  0  0  0
   -7.7890   22.1460  -31.5970 C   0  0  0  0  0  0  0  0  0  0  0  0
   -9.2760   21.9110  -31.5300 C   0  0  0  0  0  0  0  0  0  0  0  0
   -7.2400   23.2760  -30.9630 C   0  0  0  0  0  0  0  0  0  0  0  0
   -2.6580   23.1820  -28.8920 C   0  0  0  0  0  0  0  0  0  0  0  0
   -0.9460   20.4070  -27.0930 C   0  0  0  0  0  0  0  0  0  0  0  0
   -1.5210   19.3150  -26.6560 O   0  0  0  0  0  0  0  0  0  0  0  0
   -3.8565   18.4834  -25.1350 H   0  0  0  0  0  0  0  0  0  0  0  0
   -4.8136   18.7955  -26.6227 H   0  0  0  0  0  0  0  0  0  0  0  0
   -3.5416   17.5272  -26.6227 H   0  0  0  0  0  0  0  0  0  0  0  0
   -0.0615   23.1736  -26.6613 H   0  0  0  0  0  0  0  0  0  0  0  0
    0.1897   25.4805  -27.5683 H   0  0  0  0  0  0  0  0  0  0  0  0
   -1.3752   26.3246  -29.3115 H   0  0  0  0  0  0  0  0  0  0  0  0
   -3.9477   22.8565  -31.7754 H   0  0  0  0  0  0  0  0  0  0  0  0
   -4.8922   20.8495  -32.9063 H   0  0  0  0  0  0  0  0  0  0  0  0
   -7.7978   19.3066  -32.2263 H   0  0  0  0  0  0  0  0  0  0  0  0
   -8.3377   20.3109  -33.6142 H   0  0  0  0  0  0  0  0  0  0  0  0
   -6.6930   19.5888  -33.6142 H   0  0  0  0  0  0  0  0  0  0  0  0
   -9.5923   21.8610  -30.4776 H   0  0  0  0  0  0  0  0  0  0  0  0
   -9.8008   22.7374  -32.0317 H   0  0  0  0  0  0  0  0  0  0  0  0
   -9.5204   20.9631  -32.0317 H   0  0  0  0  0  0  0  0  0  0  0  0
   -7.8982   23.9683  -30.4175 H   0  0  0  0  0  0  0  0  0  0  0  0
   -3.4610   22.5323  -29.2703 H   0  0  0  0  0  0  0  0  0  0  0  0
    0.1356   20.5700  -27.2093 H   0  0  0  0  0  0  0  0  0  0  0  0
  1  2  1  0
  2  3  2  0
  3  4  1  0
  4  5  1  0
  5  6  2  0
  6  7  1  0
  7  8  2  0
  8  9  1  0
  9 10  1  0
 10 11  1  0
 11 12  2  0
 11 13  2  0
 11 14  1  0
 14 15  2  0
 15 16  1  0
 16 17  2  0
 17 18  1  0
 17 19  1  0
 19 20  1  0
 19 21  2  0
  9 22  2  0
  4 23  2  0
 23 24  1  0
 24  2  1  0
 22  5  1  0
 21 14  1  0
  1 25  1  0
  1 26  1  0
  1 27  1  0
  6 28  1  0
  7 29  1  0
  8 30  1  0
 15 31  1  0
 16 32  1  0
 18 33  1  0
 18 34  1  0
 18 35  1  0
 20 36  1  0
 20 37  1  0
 20 38  1  0
 21 39  1  0
 22 40  1  0
 23 41  1  0
M  CHG  1  10  -1
M  END
>  <UniqueID>  (46) 
45

>  <SMILES>  (46) 
Cc1nc(-c2cccc([N-]S(=O)(=O)c3ccc(C)c(C)c3)c2)co1

>  <Energy>  (46) 
75.82257450979984

>  <Genealogy>  (46) 
Cc1nc(-c2cccc([N-]S(=O)(=O)c3ccc(C)c(C)c3)c2)co1 (protonated)
Cc1nc(-c2cccc([N-]S(=O)(=O)c3ccc(C)c(C)c3)c2)co1 (3D coordinates assigned)
Cc1nc(-c2cccc([N-]S(=O)(=O)c3ccc(C)c(C)c3)c2)co1 (optimized conformer: 75.82257450979984 kcal/mol)

>  <smiles>  (46) 
Cc1nc(-c2cccc(NS(=O)(=O)c3ccc(C)c(C)c3)c2)co1

>  <score_type>  (46) 
oracle

>  <origin>  (46) 
adgpu

>  <m_score__min__energy>  (46) 
-10.220000000000001

>  <m_primary>  (46) 
energy

$$$$
46:0
     RDKit          3D

 25 27  0  0  0  0  0  0  0  0999 V2000
   -7.7150   21.1870  -32.3220 Cl  0  0  0  0  0  0  0  0  0  0  0  0
   -6.4730   22.2740  -31.7270 C   0  0  0  0  0  0  0  0  0  0  0  0
   -5.1300   22.0320  -32.0260 C   0  0  0  0  0  0  0  0  0  0  0  0
   -4.1380   22.8970  -31.5550 C   0  0  0  0  0  0  0  0  0  0  0  0
   -4.4820   24.0070  -30.7590 C   0  0  0  0  0  0  0  0  0  0  0  0
   -3.4870   24.9330  -30.2870 N   0  0  0  0  0  0  0  0  0  0  0  0
   -2.6550   24.7450  -29.3050 C   0  0  0  0  0  0  0  0  0  0  0  0
   -1.7280   25.6780  -28.9700 N   0  0  0  0  0  0  0  0  0  0  0  0
   -1.1240   25.1150  -27.9130 C   0  0  0  0  0  0  0  0  0  0  0  0
   -0.0770   25.6320  -27.1540 C   0  0  0  0  0  0  0  0  0  0  0  0
    0.3950   24.8570  -26.0770 C   0  0  0  0  0  0  0  0  0  0  0  0
   -0.1890   23.6000  -25.7910 C   0  0  0  0  0  0  0  0  0  0  0  0
   -1.2470   23.1110  -26.5800 C   0  0  0  0  0  0  0  0  0  0  0  0
   -1.6860   23.9050  -27.6380 C   0  0  0  0  0  0  0  0  0  0  0  0
   -2.6720   23.6420  -28.5070 N   0  0  0  0  0  0  0  0  0  0  0  0
   -5.8380   24.2600  -30.4870 C   0  0  0  0  0  0  0  0  0  0  0  0
   -6.3190   25.6580  -29.5350 Cl  0  0  0  0  0  0  0  0  0  0  0  0
   -6.8260   23.3890  -30.9620 C   0  0  0  0  0  0  0  0  0  0  0  0
   -4.8523   21.1582  -32.6338 H   0  0  0  0  0  0  0  0  0  0  0  0
   -3.0838   22.7099  -31.8072 H   0  0  0  0  0  0  0  0  0  0  0  0
    0.3658   26.6115  -27.3876 H   0  0  0  0  0  0  0  0  0  0  0  0
    1.2217   25.2306  -25.4549 H   0  0  0  0  0  0  0  0  0  0  0  0
    0.1860   23.0019  -24.9474 H   0  0  0  0  0  0  0  0  0  0  0  0
   -1.7111   22.1363  -26.3690 H   0  0  0  0  0  0  0  0  0  0  0  0
   -7.8841   23.5831  -30.7322 H   0  0  0  0  0  0  0  0  0  0  0  0
  1  2  1  0
  2  3  2  0
  3  4  1  0
  4  5  2  0
  5  6  1  0
  6  7  2  3
  7  8  1  0
  8  9  1  0
  9 10  2  0
 10 11  1  0
 11 12  2  0
 12 13  1  0
 13 14  2  0
 14 15  1  0
  5 16  1  0
 16 17  1  0
 16 18  2  0
 18  2  1  0
 15  7  1  0
 14  9  1  0
  3 19  1  0
  4 20  1  0
 10 21  1  0
 11 22  1  0
 12 23  1  0
 13 24  1  0
 18 25  1  0
M  CHG  2   8  -1  15  -1
M  END
>  <UniqueID>  (47) 
46

>  <SMILES>  (47) 
Clc1ccc(N=c2[n-]c3ccccc3[n-]2)c(Cl)c1

>  <Energy>  (47) 
69.18269419972914

>  <Genealogy>  (47) 
Clc1ccc(N=c2[n-]c3ccccc3[n-]2)c(Cl)c1 (protonated)
Clc1ccc(N=c2[n-]c3ccccc3[n-]2)c(Cl)c1 (3D coordinates assigned)
Clc1ccc(N=c2[n-]c3ccccc3[n-]2)c(Cl)c1 (optimized conformer: 69.18269419972914 kcal/mol)

>  <smiles>  (47) 
Clc1ccc(N=c2[nH]c3ccccc3[nH]2)c(Cl)c1

>  <score_type>  (47) 
oracle

>  <origin>  (47) 
adgpu

>  <m_score__min__energy>  (47) 
-10.17

>  <m_primary>  (47) 
energy

$$$$
47:0
     RDKit          3D

 36 38  0  0  0  0  0  0  0  0999 V2000
   -5.8180   25.3310  -30.5540 C   0  0  0  0  0  0  0  0  0  0  0  0
   -4.9020   24.1800  -30.8640 C   0  0  0  0  0  0  0  0  0  0  0  0
   -5.3820   23.0590  -31.5630 C   0  0  0  0  0  0  0  0  0  0  0  0
   -4.5370   21.9690  -31.8410 C   0  0  0  0  0  0  0  0  0  0  0  0
   -5.0540   20.7960  -32.5890 C   0  0  0  0  0  0  0  0  0  0  0  0
   -5.0050   20.7930  -33.8510 O   0  0  0  0  0  0  0  0  0  0  0  0
   -5.6540   19.6880  -31.8980 N   0  0  0  0  0  0  0  0  0  0  0  0
   -5.8040   18.3760  -32.4700 C   0  0  0  0  0  0  0  0  0  0  0  0
   -4.6680   17.5850  -32.6850 C   0  0  0  0  0  0  0  0  0  0  0  0
   -4.7840   16.3160  -33.2580 C   0  0  0  0  0  0  0  0  0  0  0  0
   -6.0400   15.8150  -33.6450 C   0  0  0  0  0  0  0  0  0  0  0  0
   -6.1530   14.4630  -34.2530 C   0  0  0  0  0  0  0  0  0  0  0  0
   -7.3220   13.8290  -34.6800 C   0  0  0  0  0  0  0  0  0  0  0  0
   -7.1060   12.5520  -35.2140 C   0  0  0  0  0  0  0  0  0  0  0  0
   -5.7730   12.1640  -35.2170 C   0  0  0  0  0  0  0  0  0  0  0  0
   -4.8680   13.4130  -34.5550 S   0  0  0  0  0  0  0  0  0  0  0  0
   -7.1770   16.6210  -33.4440 C   0  0  0  0  0  0  0  0  0  0  0  0
   -7.0600   17.8900  -32.8690 C   0  0  0  0  0  0  0  0  0  0  0  0
   -3.1980   22.0210  -31.4200 C   0  0  0  0  0  0  0  0  0  0  0  0
   -2.7180   23.1310  -30.7190 C   0  0  0  0  0  0  0  0  0  0  0  0
   -3.5630   24.2060  -30.4370 C   0  0  0  0  0  0  0  0  0  0  0  0
   -3.0680   25.2980  -29.7320 O   0  0  0  0  0  0  0  0  0  0  0  0
   -5.9082   25.4444  -29.4636 H   0  0  0  0  0  0  0  0  0  0  0  0
   -5.4052   26.2547  -30.9858 H   0  0  0  0  0  0  0  0  0  0  0  0
   -6.8108   25.1361  -30.9858 H   0  0  0  0  0  0  0  0  0  0  0  0
   -6.4300   23.0336  -31.8964 H   0  0  0  0  0  0  0  0  0  0  0  0
   -6.1090   19.8730  -30.9760 H   0  0  0  0  0  0  0  0  0  0  0  0
   -3.6762   17.9662  -32.4003 H   0  0  0  0  0  0  0  0  0  0  0  0
   -3.8835   15.7023  -33.4080 H   0  0  0  0  0  0  0  0  0  0  0  0
   -8.3183   14.2890  -34.6041 H   0  0  0  0  0  0  0  0  0  0  0  0
   -7.9178   11.9154  -35.5958 H   0  0  0  0  0  0  0  0  0  0  0  0
   -5.3791   11.2063  -35.5880 H   0  0  0  0  0  0  0  0  0  0  0  0
   -8.1679   16.2482  -33.7426 H   0  0  0  0  0  0  0  0  0  0  0  0
   -7.9567   18.5114  -32.7283 H   0  0  0  0  0  0  0  0  0  0  0  0
   -2.5223   21.1823  -31.6435 H   0  0  0  0  0  0  0  0  0  0  0  0
   -1.6693   23.1576  -30.3879 H   0  0  0  0  0  0  0  0  0  0  0  0
  1  2  1  0
  2  3  2  0
  3  4  1  0
  4  5  1  0
  5  6  2  0
  5  7  1  0
  7  8  1  0
  8  9  2  0
  9 10  1  0
 10 11  2  0
 11 12  1  0
 12 13  2  0
 13 14  1  0
 14 15  2  0
 15 16  1  0
 11 17  1  0
 17 18  2  0
  4 19  2  0
 19 20  1  0
 20 21  2  0
 21 22  1  0
 21  2  1  0
 18  8  1  0
 16 12  1  0
  1 23  1  0
  1 24  1  0
  1 25  1  0
  3 26  1  0
  7 27  1  0
  9 28  1  0
 10 29  1  0
 13 30  1  0
 14 31  1  0
 15 32  1  0
 17 33  1  0
 18 34  1  0
 19 35  1  0
 20 36  1  0
M  CHG  1  22  -1
M  END
>  <UniqueID>  (48) 
47

>  <SMILES>  (48) 
Cc1cc(C(=O)Nc2ccc(-c3cccs3)cc2)ccc1[O-]

>  <Energy>  (48) 
72.50704690631315

>  <Genealogy>  (48) 
Cc1cc(C(=O)Nc2ccc(-c3cccs3)cc2)ccc1[O-] (protonated)
Cc1cc(C(=O)Nc2ccc(-c3cccs3)cc2)ccc1[O-] (3D coordinates assigned)
Cc1cc(C(=O)Nc2ccc(-c3cccs3)cc2)ccc1[O-] (optimized conformer: 72.50704690631315 kcal/mol)

>  <smiles>  (48) 
Cc1cc(C(=O)Nc2ccc(-c3cccs3)cc2)ccc1O

>  <score_type>  (48) 
oracle

>  <origin>  (48) 
adgpu

>  <m_score__min__energy>  (48) 
-9.5

>  <m_primary>  (48) 
energy

$$$$
48:0
     RDKit          3D

 49 50  0  0  1  0  0  0  0  0999 V2000
    0.9790   25.2950  -26.8730 C   0  0  0  0  0  0  0  0  0  0  0  0
    0.0190   25.5330  -27.8800 N   0  0  0  0  0  0  0  0  0  0  0  0
   -0.8790   24.7340  -28.3190 C   0  0  0  0  0  0  0  0  0  0  0  0
   -1.7440   25.0790  -29.2900 N   0  0  0  0  0  0  0  0  0  0  0  0
   -2.6900   24.2440  -29.7550 C   0  0  0  0  0  0  0  0  0  0  0  0
   -3.4990   24.6220  -30.6920 N   0  0  0  0  0  0  0  0  0  0  0  0
   -4.4590   23.6610  -31.1080 C   0  0  0  0  0  0  0  0  0  0  0  0
   -5.8070   23.8720  -30.9150 C   0  0  0  0  0  0  0  0  0  0  0  0
   -6.7110   22.8940  -31.3430 C   0  0  0  0  0  0  0  0  0  0  0  0
   -6.2760   21.7330  -31.9480 C   0  0  0  0  0  0  0  0  0  0  0  0
   -7.2710   20.7580  -32.3670 C   0  0  0  0  0  0  0  0  0  0  0  0
   -7.1600   20.3140  -33.5480 O   0  0  0  0  0  0  0  0  0  0  0  0
   -8.3250   20.2960  -31.5350 N   0  0  0  0  0  0  0  0  0  0  0  0
   -9.2810   19.3340  -31.9920 C   0  0  0  0  0  0  0  0  0  0  0  0
   -8.7820   17.9110  -31.9870 C   0  0  0  0  0  0  0  0  0  0  0  0
   -7.3840   17.8750  -32.4320 N   0  0  0  0  0  0  0  0  0  0  0  0
   -6.5840   17.5550  -31.2550 C   0  0  0  0  0  0  0  0  0  0  0  0
   -7.1870   16.8120  -33.4090 C   0  0  0  0  0  0  0  0  0  0  0  0
   -4.9190   21.5680  -32.1180 C   0  0  0  0  0  0  0  0  0  0  0  0
   -3.9890   22.5060  -31.7120 C   0  0  0  0  0  0  0  0  0  0  0  0
   -2.6190   22.3280  -31.8880 O   0  0  0  0  0  0  0  0  0  0  0  0
   -2.1890   21.2050  -32.6470 C   0  0  0  0  0  0  0  0  0  0  0  0
   -2.7650   23.0050  -29.2140 N   0  0  0  0  0  0  0  0  0  0  0  0
   -1.9160   22.6170  -28.2360 C   0  0  0  0  0  0  0  0  0  0  0  0
   -0.9520   23.4860  -27.7700 C   0  0  0  0  0  0  0  0  0  0  0  0
    0.1300   23.0020  -26.5280 Cl  0  0  0  0  0  0  0  0  0  0  0  0
    0.5102   25.4112  -25.8847 H   0  0  0  0  0  0  0  0  0  0  0  0
    1.3713   24.2724  -26.9748 H   0  0  0  0  0  0  0  0  0  0  0  0
    1.8036   26.0159  -26.9748 H   0  0  0  0  0  0  0  0  0  0  0  0
   -1.7000   26.0480  -29.7270 H   0  0  0  0  0  0  0  0  0  0  0  0
   -6.1659   24.7933  -30.4329 H   0  0  0  0  0  0  0  0  0  0  0  0
   -7.7891   23.0537  -31.1943 H   0  0  0  0  0  0  0  0  0  0  0  0
   -8.3730   20.6930  -30.5710 H   0  0  0  0  0  0  0  0  0  0  0  0
  -10.1653   19.3910  -31.3403 H   0  0  0  0  0  0  0  0  0  0  0  0
   -9.5041   19.5854  -33.0394 H   0  0  0  0  0  0  0  0  0  0  0  0
   -8.8519   17.5027  -30.9680 H   0  0  0  0  0  0  0  0  0  0  0  0
   -9.3972   17.3071  -32.6702 H   0  0  0  0  0  0  0  0  0  0  0  0
   -7.1599   17.7854  -30.3465 H   0  0  0  0  0  0  0  0  0  0  0  0
   -6.3280   16.4853  -31.2654 H   0  0  0  0  0  0  0  0  0  0  0  0
   -5.6609   18.1531  -31.2654 H   0  0  0  0  0  0  0  0  0  0  0  0
   -7.0107   15.8608  -32.8854 H   0  0  0  0  0  0  0  0  0  0  0  0
   -8.0839   16.7227  -34.0396 H   0  0  0  0  0  0  0  0  0  0  0  0
   -6.3177   17.0500  -34.0396 H   0  0  0  0  0  0  0  0  0  0  0  0
   -4.5589   20.6467  -32.5993 H   0  0  0  0  0  0  0  0  0  0  0  0
   -1.8802   20.3985  -31.9657 H   0  0  0  0  0  0  0  0  0  0  0  0
   -3.0159   20.8527  -33.2812 H   0  0  0  0  0  0  0  0  0  0  0  0
   -1.3383   21.4951  -33.2812 H   0  0  0  0  0  0  0  0  0  0  0  0
   -3.4870   22.3230  -29.5470 H   0  0  0  0  0  0  0  0  0  0  0  0
   -1.9944   21.6055  -27.8109 H   0  0  0  0  0  0  0  0  0  0  0  0
  1  2  1  0
  2  3  2  0
  3  4  1  0
  4  5  1  0
  5  6  2  0
  6  7  1  0
  7  8  2  0
  8  9  1  0
  9 10  2  0
 10 11  1  0
 11 12  2  0
 11 13  1  0
 13 14  1  0
 14 15  1  0
 15 16  1  0
 16 17  1  0
 16 18  1  0
 10 19  1  0
 19 20  2  0
 20 21  1  0
 21 22  1  0
  5 23  1  0
 23 24  1  0
 24 25  2  0
 25 26  1  0
 25  3  1  0
 20  7  1  0
  1 27  1  0
  1 28  1  0
  1 29  1  0
  4 30  1  0
  8 31  1  0
  9 32  1  0
 13 33  1  0
 14 34  1  0
 14 35  1  0
 15 36  1  0
 15 37  1  0
 17 38  1  0
 17 39  1  0
 17 40  1  0
 18 41  1  0
 18 42  1  0
 18 43  1  0
 19 44  1  0
 22 45  1  0
 22 46  1  0
 22 47  1  0
 23 48  1  0
 24 49  1  0
M  END
>  <smiles>  (49) 
CN=c1[nH]c(=Nc2ccc(C(=O)NCCN(C)C)cc2OC)[nH]cc1Cl

>  <score_type>  (49) 
oracle

>  <origin>  (49) 
adgpu

>  <m_score__min__energy>  (49) 
-7.8399999999999999

>  <m_primary>  (49) 
energy

$$$$
49:0
     RDKit          3D

 53 56  0  0  0  0  0  0  0  0999 V2000
   -7.2300   17.2880  -33.4580 C   0  0  0  0  0  0  0  0  0  0  0  0
   -6.4300   18.3630  -32.8780 N   0  0  0  0  0  0  0  0  0  0  0  0
   -5.1180   18.5740  -33.0710 C   0  0  0  0  0  0  0  0  0  0  0  0
   -4.7570   19.6990  -32.3520 C   0  0  0  0  0  0  0  0  0  0  0  0
   -3.4090   20.3100  -32.2760 C   0  0  0  0  0  0  0  0  0  0  0  0
   -2.8790   20.7600  -31.0510 C   0  0  0  0  0  0  0  0  0  0  0  0
   -1.6060   21.3340  -30.9970 C   0  0  0  0  0  0  0  0  0  0  0  0
   -0.8470   21.4660  -32.1620 C   0  0  0  0  0  0  0  0  0  0  0  0
   -1.3590   21.0220  -33.3810 C   0  0  0  0  0  0  0  0  0  0  0  0
   -2.6310   20.4440  -33.4410 C   0  0  0  0  0  0  0  0  0  0  0  0
   -5.8420   20.1900  -31.7110 N   0  0  0  0  0  0  0  0  0  0  0  0
   -6.8400   19.3440  -32.0460 C   0  0  0  0  0  0  0  0  0  0  0  0
   -8.2630   19.5600  -31.6260 C   0  0  0  0  0  0  0  0  0  0  0  0
   -8.6470   20.9480  -31.8740 N   0  0  0  0  0  0  0  0  0  0  0  0
   -7.7880   22.0610  -31.5710 C   0  0  0  0  0  0  0  0  0  0  0  0
   -7.0850   22.7370  -32.5810 C   0  0  0  0  0  0  0  0  0  0  0  0
   -6.2410   23.8050  -32.2610 C   0  0  0  0  0  0  0  0  0  0  0  0
   -6.1070   24.2340  -30.9300 C   0  0  0  0  0  0  0  0  0  0  0  0
   -5.2180   25.3710  -30.5800 C   0  0  0  0  0  0  0  0  0  0  0  0
   -5.7300   26.4890  -30.3070 O   0  0  0  0  0  0  0  0  0  0  0  0
   -3.7940   25.2270  -30.4750 N   0  0  0  0  0  0  0  0  0  0  0  0
   -3.0860   24.3820  -29.5570 C   0  0  0  0  0  0  0  0  0  0  0  0
   -3.7920   23.3950  -28.8640 C   0  0  0  0  0  0  0  0  0  0  0  0
   -3.1330   22.5440  -27.9720 C   0  0  0  0  0  0  0  0  0  0  0  0
   -1.7490   22.6760  -27.7570 C   0  0  0  0  0  0  0  0  0  0  0  0
   -1.0110   21.7720  -26.8020 C   0  0  0  0  0  0  0  0  0  0  0  0
    0.2270   21.4520  -27.3310 F   0  0  0  0  0  0  0  0  0  0  0  0
   -0.8320   22.4250  -25.5960 F   0  0  0  0  0  0  0  0  0  0  0  0
   -1.7040   20.5960  -26.5720 F   0  0  0  0  0  0  0  0  0  0  0  0
   -1.0510   23.6980  -28.4200 C   0  0  0  0  0  0  0  0  0  0  0  0
   -1.7130   24.5470  -29.3110 C   0  0  0  0  0  0  0  0  0  0  0  0
   -6.7940   23.5420  -29.9190 C   0  0  0  0  0  0  0  0  0  0  0  0
   -7.6220   22.4610  -30.2380 C   0  0  0  0  0  0  0  0  0  0  0  0
   -7.6768   16.6876  -32.6519 H   0  0  0  0  0  0  0  0  0  0  0  0
   -8.0284   17.7195  -34.0795 H   0  0  0  0  0  0  0  0  0  0  0  0
   -6.5874   16.6471  -34.0795 H   0  0  0  0  0  0  0  0  0  0  0  0
   -4.4484   17.9603  -33.6915 H   0  0  0  0  0  0  0  0  0  0  0  0
   -3.4716   20.6588  -30.1298 H   0  0  0  0  0  0  0  0  0  0  0  0
   -1.2011   21.6824  -30.0354 H   0  0  0  0  0  0  0  0  0  0  0  0
    0.1540   21.9199  -32.1181 H   0  0  0  0  0  0  0  0  0  0  0  0
   -0.7605   21.1268  -34.2980 H   0  0  0  0  0  0  0  0  0  0  0  0
   -3.0261   20.0917  -34.4053 H   0  0  0  0  0  0  0  0  0  0  0  0
   -8.9193   18.8910  -32.2020 H   0  0  0  0  0  0  0  0  0  0  0  0
   -8.3619   19.3421  -30.5524 H   0  0  0  0  0  0  0  0  0  0  0  0
   -9.4490   21.1100  -32.5230 H   0  0  0  0  0  0  0  0  0  0  0  0
   -7.1988   22.4248  -33.6296 H   0  0  0  0  0  0  0  0  0  0  0  0
   -5.6777   24.3131  -33.0576 H   0  0  0  0  0  0  0  0  0  0  0  0
   -4.8752   23.2868  -29.0217 H   0  0  0  0  0  0  0  0  0  0  0  0
   -3.6990   21.7679  -27.4360 H   0  0  0  0  0  0  0  0  0  0  0  0
    0.0254   23.8315  -28.2367 H   0  0  0  0  0  0  0  0  0  0  0  0
   -1.1570   25.3472  -29.8214 H   0  0  0  0  0  0  0  0  0  0  0  0
   -6.6801   23.8522  -28.8698 H   0  0  0  0  0  0  0  0  0  0  0  0
   -8.1470   21.9205  -29.4366 H   0  0  0  0  0  0  0  0  0  0  0  0
  1  2  1  0
  2  3  1  0
  3  4  2  0
  4  5  1  0
  5  6  2  0
  6  7  1  0
  7  8  2  0
  8  9  1  0
  9 10  2  0
  4 11  1  0
 11 12  2  0
 12 13  1  0
 13 14  1  0
 14 15  1  0
 15 16  2  0
 16 17  1  0
 17 18  2  0
 18 19  1  0
 19 20  2  0
 19 21  1  0
 21 22  1  0
 22 23  2  0
 23 24  1  0
 24 25  2  0
 25 26  1  0
 26 27  1  0
 26 28  1  0
 26 29  1  0
 25 30  1  0
 30 31  2  0
 18 32  1  0
 32 33  2  0
 12  2  1  0
 33 15  1  0
 10  5  1  0
 31 22  1  0
  1 34  1  0
  1 35  1  0
  1 36  1  0
  3 37  1  0
  6 38  1  0
  7 39  1  0
  8 40  1  0
  9 41  1  0
 10 42  1  0
 13 43  1  0
 13 44  1  0
 14 45  1  0
 16 46  1  0
 17 47  1  0
 23 48  1  0
 24 49  1  0
 30 50  1  0
 31 51  1  0
 32 52  1  0
 33 53  1  0
M  CHG  1  21  -1
M  END
>  <UniqueID>  (50) 
48

>  <SMILES>  (50) 
Cn1cc(-c2ccccc2)nc1CNc1ccc(C(=O)[N-]c2ccc(C(F)(F)F)cc2)cc1

>  <Energy>  (50) 
93.03379372603041

>  <Genealogy>  (50) 
Cn1cc(-c2ccccc2)nc1CNc1ccc(C(=O)[N-]c2ccc(C(F)(F)F)cc2)cc1 (protonated)
Cn1cc(-c2ccccc2)nc1CNc1ccc(C(=O)[N-]c2ccc(C(F)(F)F)cc2)cc1 (3D coordinates assigned)
Cn1cc(-c2ccccc2)nc1CNc1ccc(C(=O)[N-]c2ccc(C(F)(F)F)cc2)cc1 (optimized conformer: 93.03379372603041 kcal/mol)

>  <smiles>  (50) 
Cn1cc(-c2ccccc2)nc1CNc1ccc(C(=O)Nc2ccc(C(F)(F)F)cc2)cc1

>  <score_type>  (50) 
oracle

>  <origin>  (50) 
adgpu

>  <m_score__min__energy>  (50) 
-10.58

>  <m_primary>  (50) 
energy

$$$$
