0:0
     RDKit          3D

 33 34  0  0  0  0  0  0  0  0999 V2000
   -1.5260   23.3130  -27.8680 C   0  0  0  0  0  0  0  0  0  0  0  0
   -1.5920   24.5700  -28.6810 C   0  0  0  0  0  0  0  0  0  0  0  0
   -0.6150   25.3630  -28.6400 O   0  0  0  0  0  0  0  0  0  0  0  0
   -2.7360   24.9340  -29.4710 N   0  0  0  0  0  0  0  0  0  0  0  0
   -3.5380   24.1670  -30.1540 C   0  0  0  0  0  0  0  0  0  0  0  0
   -4.5990   24.6670  -30.8220 N   0  0  0  0  0  0  0  0  0  0  0  0
   -5.2870   23.7030  -31.4930 C   0  0  0  0  0  0  0  0  0  0  0  0
   -6.4750   24.0500  -32.3340 C   0  0  0  0  0  0  0  0  0  0  0  0
   -4.7530   22.4160  -31.3710 C   0  0  0  0  0  0  0  0  0  0  0  0
   -5.3370   20.9260  -32.1140 S   0  0  0  0  0  0  0  0  0  0  0  0
   -4.7300   20.7630  -33.4780 O   0  0  0  0  0  0  0  0  0  0  0  0
   -4.8920   19.7660  -31.2680 O   0  0  0  0  0  0  0  0  0  0  0  0
   -7.0790   20.9020  -32.2520 N   0  0  0  0  0  0  0  0  0  0  0  0
   -7.7020   21.4360  -31.0310 C   0  0  0  0  0  0  0  0  0  0  0  0
   -9.2370   21.2910  -31.0990 C   0  0  0  0  0  0  0  0  0  0  0  0
   -9.6550   20.8030  -32.3600 O   0  0  0  0  0  0  0  0  0  0  0  0
   -9.1010   19.5200  -32.5850 C   0  0  0  0  0  0  0  0  0  0  0  0
   -7.5600   19.5370  -32.5080 C   0  0  0  0  0  0  0  0  0  0  0  0
   -3.3870   22.5040  -30.3950 S   0  0  0  0  0  0  0  0  0  0  0  0
   -1.5394   23.5673  -26.7979 H   0  0  0  0  0  0  0  0  0  0  0  0
   -2.3920   22.6774  -28.1046 H   0  0  0  0  0  0  0  0  0  0  0  0
   -0.5982   22.7716  -28.1046 H   0  0  0  0  0  0  0  0  0  0  0  0
   -7.3256   24.2985  -31.6823 H   0  0  0  0  0  0  0  0  0  0  0  0
   -6.2345   24.9154  -32.9690 H   0  0  0  0  0  0  0  0  0  0  0  0
   -6.7382   23.1912  -32.9690 H   0  0  0  0  0  0  0  0  0  0  0  0
   -7.3243   20.8811  -30.1596 H   0  0  0  0  0  0  0  0  0  0  0  0
   -7.4493   22.5027  -30.9402 H   0  0  0  0  0  0  0  0  0  0  0  0
   -9.5651   20.5899  -30.3174 H   0  0  0  0  0  0  0  0  0  0  0  0
   -9.6853   22.2839  -30.9465 H   0  0  0  0  0  0  0  0  0  0  0  0
   -9.4875   18.8272  -31.8230 H   0  0  0  0  0  0  0  0  0  0  0  0
   -9.3882   19.1973  -33.5966 H   0  0  0  0  0  0  0  0  0  0  0  0
   -7.2297   18.8766  -31.6926 H   0  0  0  0  0  0  0  0  0  0  0  0
   -7.1491   19.1857  -33.4660 H   0  0  0  0  0  0  0  0  0  0  0  0
  1  2  1  0
  2  3  2  0
  2  4  1  0
  4  5  2  3
  5  6  1  0
  6  7  1  0
  7  8  1  0
  7  9  2  0
  9 10  1  0
 10 11  2  0
 10 12  2  0
 10 13  1  0
 13 14  1  0
 14 15  1  0
 15 16  1  0
 16 17  1  0
 17 18  1  0
  9 19  1  0
 19  5  1  0
 18 13  1  0
  1 20  1  0
  1 21  1  0
  1 22  1  0
  8 23  1  0
  8 24  1  0
  8 25  1  0
 14 26  1  0
 14 27  1  0
 15 28  1  0
 15 29  1  0
 17 30  1  0
 17 31  1  0
 18 32  1  0
 18 33  1  0
M  CHG  1   6  -1
M  END
>  <UniqueID>  (1) 
1

>  <SMILES>  (1) 
CC(=O)N=c1[n-]c(C)c(S(=O)(=O)N2CCOCC2)s1

>  <Energy>  (1) 
73.06848338050183

>  <Genealogy>  (1) 
CC(=O)N=c1[n-]c(C)c(S(=O)(=O)N2CCOCC2)s1 (protonated)
CC(=O)N=c1[n-]c(C)c(S(=O)(=O)N2CCOCC2)s1 (3D coordinates assigned)
CC(=O)N=c1[n-]c(C)c(S(=O)(=O)N2CCOCC2)s1 (nonaromatic ring conformer: 73.06848338050183 kcal/mol)

>  <smiles>  (1) 
CC(=O)N=c1[nH]c(C)c(S(=O)(=O)N2CCOCC2)s1

>  <score_type>  (1) 
oracle

>  <origin>  (1) 
adgpu

>  <m_score__min__energy>  (1) 
-8.7400000000000002

>  <m_primary>  (1) 
energy

$$$$
1:0
     RDKit          3D

 72 76  0  0  0  0  0  0  0  0999 V2000
   -2.0160   19.4103  -34.5204 H   0  0  0  0  0  0  0  0  0  0  0  0
   -2.8570   19.6290  -33.8460 C   0  0  0  0  0  0  0  0  0  0  0  0
   -3.8790   18.6910  -33.6840 C   0  0  0  0  0  0  0  0  0  0  0  0
   -3.8363   17.7352  -34.2268 H   0  0  0  0  0  0  0  0  0  0  0  0
   -4.9570   18.9620  -32.8340 C   0  0  0  0  0  0  0  0  0  0  0  0
   -6.2710   17.8020  -32.6550 S   0  0  0  0  0  0  0  0  0  0  0  0
   -6.2490   16.8230  -33.8010 O   0  0  0  0  0  0  0  0  0  0  0  0
   -6.0820   17.0400  -31.3730 O   0  0  0  0  0  0  0  0  0  0  0  0
   -7.7910   18.6570  -32.6060 N   0  0  0  0  0  0  0  0  0  0  0  0
   -8.2460   18.8590  -31.2300 C   0  0  0  0  0  0  0  0  0  0  0  0
   -8.8520   18.0017  -30.9016 H   0  0  0  0  0  0  0  0  0  0  0  0
   -7.3932   18.9495  -30.5411 H   0  0  0  0  0  0  0  0  0  0  0  0
   -9.0880   20.1280  -31.2280 C   0  0  0  0  0  0  0  0  0  0  0  0
  -10.1588   19.8791  -31.1917 H   0  0  0  0  0  0  0  0  0  0  0  0
   -8.8761   20.7576  -30.3513 H   0  0  0  0  0  0  0  0  0  0  0  0
   -8.7510   20.8400  -32.5300 C   0  0  0  0  0  0  0  0  0  0  0  0
   -9.6364   20.8938  -33.1805 H   0  0  0  0  0  0  0  0  0  0  0  0
   -8.4197   21.8748  -32.3586 H   0  0  0  0  0  0  0  0  0  0  0  0
   -7.6650   19.9960  -33.1770 C   0  0  0  0  0  0  0  0  0  0  0  0
   -7.8091   19.9603  -34.2669 H   0  0  0  0  0  0  0  0  0  0  0  0
   -6.6664   20.4178  -32.9901 H   0  0  0  0  0  0  0  0  0  0  0  0
   -5.0120   20.1820  -32.1530 C   0  0  0  0  0  0  0  0  0  0  0  0
   -5.8737   20.4094  -31.5083 H   0  0  0  0  0  0  0  0  0  0  0  0
   -3.9720   21.1210  -32.2870 C   0  0  0  0  0  0  0  0  0  0  0  0
   -4.0300   22.3940  -31.6190 N   0  0  0  0  0  0  0  0  0  0  0  0
   -3.2590   22.7910  -30.6480 C   0  0  0  0  0  0  0  0  0  0  0  0
   -2.2080   22.0380  -30.2240 N   0  0  0  0  0  0  0  0  0  0  0  0
   -1.4010   22.4480  -29.2450 N   0  0  0  0  0  0  0  0  0  0  0  0
   -1.5770   23.6440  -28.6170 C   0  0  0  0  0  0  0  0  0  0  0  0
   -0.6450   24.0400  -27.5260 C   0  0  0  0  0  0  0  0  0  0  0  0
    0.6300   23.4670  -27.4040 C   0  0  0  0  0  0  0  0  0  0  0  0
    0.9589   22.7095  -28.1307 H   0  0  0  0  0  0  0  0  0  0  0  0
    1.4840   23.8490  -26.3700 C   0  0  0  0  0  0  0  0  0  0  0  0
    2.4751   23.3795  -26.2847 H   0  0  0  0  0  0  0  0  0  0  0  0
    1.0980   24.8240  -25.4360 C   0  0  0  0  0  0  0  0  0  0  0  0
    2.0520   25.1400  -24.3150 C   0  0  0  0  0  0  0  0  0  0  0  0
    1.5513   24.9741  -23.3497 H   0  0  0  0  0  0  0  0  0  0  0  0
    2.9333   24.4858  -24.3881 H   0  0  0  0  0  0  0  0  0  0  0  0
    2.3685   26.1910  -24.3881 H   0  0  0  0  0  0  0  0  0  0  0  0
   -0.1920   25.4100  -25.5400 C   0  0  0  0  0  0  0  0  0  0  0  0
   -0.8390   26.5860  -24.3680 S   0  0  0  0  0  0  0  0  0  0  0  0
   -2.3000   26.7690  -24.6750 O   0  0  0  0  0  0  0  0  0  0  0  0
   -0.7620   26.0270  -22.9750 O   0  0  0  0  0  0  0  0  0  0  0  0
   -0.0760   28.1690  -24.3910 N   0  0  0  0  0  0  0  0  0  0  0  0
   -0.1120   28.4680  -23.3880 H   0  0  0  0  0  0  0  0  0  0  0  0
   -0.8510   29.1950  -25.1340 C   0  0  0  0  0  0  0  0  0  0  0  0
   -1.9219   28.9854  -24.9952 H   0  0  0  0  0  0  0  0  0  0  0  0
   -0.5507   30.1722  -24.7278 H   0  0  0  0  0  0  0  0  0  0  0  0
   -0.5600   29.2370  -26.6440 C   0  0  0  0  0  0  0  0  0  0  0  0
   -0.9795   28.3353  -27.1141 H   0  0  0  0  0  0  0  0  0  0  0  0
   -1.0208   30.1455  -27.0592 H   0  0  0  0  0  0  0  0  0  0  0  0
    0.9380   29.2900  -26.9230 C   0  0  0  0  0  0  0  0  0  0  0  0
    1.1097   29.2413  -28.0084 H   0  0  0  0  0  0  0  0  0  0  0  0
    1.3495   30.2296  -26.5256 H   0  0  0  0  0  0  0  0  0  0  0  0
    1.6280   28.1120  -26.2480 C   0  0  0  0  0  0  0  0  0  0  0  0
    1.2400   27.1736  -26.6709 H   0  0  0  0  0  0  0  0  0  0  0  0
    2.7116   28.1850  -26.4223 H   0  0  0  0  0  0  0  0  0  0  0  0
    1.3640   28.1330  -24.7370 C   0  0  0  0  0  0  0  0  0  0  0  0
    1.8066   27.2290  -24.2933 H   0  0  0  0  0  0  0  0  0  0  0  0
    1.8158   29.0547  -24.3416 H   0  0  0  0  0  0  0  0  0  0  0  0
   -1.0500   24.9890  -26.5720 C   0  0  0  0  0  0  0  0  0  0  0  0
   -2.0631   25.4131  -26.6338 H   0  0  0  0  0  0  0  0  0  0  0  0
   -2.6520   24.4540  -29.0170 C   0  0  0  0  0  0  0  0  0  0  0  0
   -2.8333   25.4183  -28.5197 H   0  0  0  0  0  0  0  0  0  0  0  0
   -3.4870   24.0290  -30.0470 C   0  0  0  0  0  0  0  0  0  0  0  0
   -4.3195   24.6642  -30.3840 H   0  0  0  0  0  0  0  0  0  0  0  0
   -2.8970   20.8530  -33.1510 C   0  0  0  0  0  0  0  0  0  0  0  0
   -1.8860   21.8190  -33.2850 O   0  0  0  0  0  0  0  0  0  0  0  0
   -0.5420   21.5330  -33.6620 C   0  0  0  0  0  0  0  0  0  0  0  0
    0.0722   21.4023  -32.7589 H   0  0  0  0  0  0  0  0  0  0  0  0
   -0.5173   20.6095  -34.2591 H   0  0  0  0  0  0  0  0  0  0  0  0
   -0.1434   22.3664  -34.2591 H   0  0  0  0  0  0  0  0  0  0  0  0
  1  2  1  0
  2  3  2  0
  3  4  1  0
  3  5  1  0
  5  6  1  0
  6  7  2  0
  6  8  2  0
  6  9  1  0
  9 10  1  0
 10 11  1  0
 10 12  1  0
 10 13  1  0
 13 14  1  0
 13 15  1  0
 13 16  1  0
 16 17  1  0
 16 18  1  0
 16 19  1  0
 19 20  1  0
 19 21  1  0
  5 22  2  0
 22 23  1  0
 22 24  1  0
 24 25  1  0
 25 26  2  0
 26 27  1  0
 27 28  1  0
 28 29  2  0
 29 30  1  0
 30 31  2  0
 31 32  1  0
 31 33  1  0
 33 34  1  0
 33 35  2  0
 35 36  1  0
 36 37  1  0
 36 38  1  0
 36 39  1  0
 35 40  1  0
 40 41  1  0
 41 42  2  0
 41 43  2  0
 41 44  1  0
 44 45  1  0
 44 46  1  0
 46 47  1  0
 46 48  1  0
 46 49  1  0
 49 50  1  0
 49 51  1  0
 49 52  1  0
 52 53  1  0
 52 54  1  0
 52 55  1  0
 55 56  1  0
 55 57  1  0
 55 58  1  0
 58 59  1  0
 58 60  1  0
 40 61  2  0
 61 62  1  0
 29 63  1  0
 63 64  1  0
 63 65  2  0
 65 66  1  0
 24 67  2  0
 67 68  1  0
 68 69  1  0
 69 70  1  0
 69 71  1  0
 69 72  1  0
 67  2  1  0
 19  9  1  0
 65 26  1  0
 61 30  1  0
 58 44  1  0
M  CHG  2  27  -1  44   1
M  END
>  <UniqueID>  (2) 
2

>  <SMILES>  (2) 
COc1ccc(S(=O)(=O)N2CCCC2)cc1/N=c1/ccc(-c2ccc(C)c(S(=O)(=O)[NH+]3CCCCC3)c2)n[n-]1

>  <Energy>  (2) 
91.7899103724934

>  <Genealogy>  (2) 
COc1ccc(S(=O)(=O)N2CCCC2)cc1N=c1ccc(-c2ccc(C)c(S(=O)(=O)[NH+]3CCCCC3)c2)n[n-]1 (protonated)
COc1ccc(S(=O)(=O)N2CCCC2)cc1/N=c1/ccc(-c2ccc(C)c(S(=O)(=O)[NH+]3CCCCC3)c2)n[n-]1 (cis-trans isomerization)
COc1ccc(S(=O)(=O)N2CCCC2)cc1/N=c1/ccc(-c2ccc(C)c(S(=O)(=O)[NH+]3CCCCC3)c2)n[n-]1 (3D coordinates assigned)
COc1ccc(S(=O)(=O)N2CCCC2)cc1/N=c1/ccc(-c2ccc(C)c(S(=O)(=O)[NH+]3CCCCC3)c2)n[n-]1 (nonaromatic ring conformer: 91.7899103724934 kcal/mol)

>  <smiles>  (2) 
COc1ccc(S(=O)(=O)N2CCCC2)cc1N=c1ccc(-c2ccc(C)c(S(=O)(=O)N3CCCCC3)c2)n[nH]1

>  <score_type>  (2) 
oracle

>  <origin>  (2) 
adgpu

>  <m_score__min__energy>  (2) 
-12.94

>  <m_primary>  (2) 
energy

$$$$
2:0
     RDKit          3D

 50 53  0  0  0  0  0  0  0  0999 V2000
    2.6350   16.8560  -28.3600 C   0  0  0  0  0  0  0  0  0  0  0  0
    2.0210   18.0790  -28.9000 N   0  0  0  0  0  0  0  0  0  0  0  0
    2.0090   19.1440  -27.8710 C   0  0  0  0  0  0  0  0  0  0  0  0
    1.0340   20.2700  -28.2290 C   0  0  0  0  0  0  0  0  0  0  0  0
   -0.3220   19.7280  -28.3930 N   0  0  0  0  0  0  0  0  0  0  0  0
   -1.4740   20.5210  -28.0470 C   0  0  0  0  0  0  0  0  0  0  0  0
   -2.4720   19.9630  -27.5140 O   0  0  0  0  0  0  0  0  0  0  0  0
   -1.5150   21.9790  -28.2980 C   0  0  0  0  0  0  0  0  0  0  0  0
   -0.6950   22.8440  -27.5590 C   0  0  0  0  0  0  0  0  0  0  0  0
   -0.7350   24.2210  -27.7870 C   0  0  0  0  0  0  0  0  0  0  0  0
   -1.5990   24.7500  -28.7500 C   0  0  0  0  0  0  0  0  0  0  0  0
   -1.6220   26.1230  -28.9700 O   0  0  0  0  0  0  0  0  0  0  0  0
   -2.4370   23.9030  -29.4880 C   0  0  0  0  0  0  0  0  0  0  0  0
   -3.3160   24.4790  -30.4640 N   0  0  0  0  0  0  0  0  0  0  0  0
   -5.0140   24.7580  -30.2410 S   0  0  0  0  0  0  0  0  0  0  0  0
   -5.3220   24.9230  -28.7800 O   0  0  0  0  0  0  0  0  0  0  0  0
   -5.4150   26.0010  -30.9850 O   0  0  0  0  0  0  0  0  0  0  0  0
   -5.9040   23.3640  -30.8590 C   0  0  0  0  0  0  0  0  0  0  0  0
   -7.2430   23.1670  -30.4900 C   0  0  0  0  0  0  0  0  0  0  0  0
   -7.9590   22.0690  -30.9740 C   0  0  0  0  0  0  0  0  0  0  0  0
   -7.3480   21.1510  -31.8320 C   0  0  0  0  0  0  0  0  0  0  0  0
   -6.0110   21.3290  -32.2100 C   0  0  0  0  0  0  0  0  0  0  0  0
   -5.3750   20.4220  -33.0680 C   0  0  0  0  0  0  0  0  0  0  0  0
   -4.0420   20.6240  -33.4270 C   0  0  0  0  0  0  0  0  0  0  0  0
   -3.3540   21.7300  -32.9250 C   0  0  0  0  0  0  0  0  0  0  0  0
   -3.9810   22.6030  -32.0930 N   0  0  0  0  0  0  0  0  0  0  0  0
   -5.2820   22.4400  -31.7220 C   0  0  0  0  0  0  0  0  0  0  0  0
   -2.3990   22.5170  -29.2490 C   0  0  0  0  0  0  0  0  0  0  0  0
   -0.4870   18.3010  -28.6840 C   0  0  0  0  0  0  0  0  0  0  0  0
    0.6980   17.7930  -29.5180 C   0  0  0  0  0  0  0  0  0  0  0  0
    2.6172   16.8914  -27.2607 H   0  0  0  0  0  0  0  0  0  0  0  0
    2.0708   15.9781  -28.7078 H   0  0  0  0  0  0  0  0  0  0  0  0
    3.6761   16.7841  -28.7078 H   0  0  0  0  0  0  0  0  0  0  0  0
    1.7083   18.7054  -26.9081 H   0  0  0  0  0  0  0  0  0  0  0  0
    3.0200   19.5732  -27.8114 H   0  0  0  0  0  0  0  0  0  0  0  0
    1.0317   21.0195  -27.4239 H   0  0  0  0  0  0  0  0  0  0  0  0
    1.3526   20.7369  -29.1727 H   0  0  0  0  0  0  0  0  0  0  0  0
   -0.0166   22.4355  -26.7956 H   0  0  0  0  0  0  0  0  0  0  0  0
   -0.0843   24.8918  -27.2068 H   0  0  0  0  0  0  0  0  0  0  0  0
   -7.7334   23.8829  -29.8140 H   0  0  0  0  0  0  0  0  0  0  0  0
   -9.0088   21.9267  -30.6781 H   0  0  0  0  0  0  0  0  0  0  0  0
   -7.9167   20.2888  -32.2105 H   0  0  0  0  0  0  0  0  0  0  0  0
   -5.9253   19.5529  -33.4576 H   0  0  0  0  0  0  0  0  0  0  0  0
   -3.5367   19.9166  -34.1010 H   0  0  0  0  0  0  0  0  0  0  0  0
   -2.3027   21.8953  -33.2032 H   0  0  0  0  0  0  0  0  0  0  0  0
   -3.0672   21.8484  -29.8116 H   0  0  0  0  0  0  0  0  0  0  0  0
   -0.5341   17.7399  -27.7390 H   0  0  0  0  0  0  0  0  0  0  0  0
   -1.4171   18.1543  -29.2527 H   0  0  0  0  0  0  0  0  0  0  0  0
    0.5978   16.7043  -29.6393 H   0  0  0  0  0  0  0  0  0  0  0  0
    0.6681   18.3231  -30.4814 H   0  0  0  0  0  0  0  0  0  0  0  0
  1  2  1  0
  2  3  1  0
  3  4  1  0
  4  5  1  0
  5  6  1  0
  6  7  2  0
  6  8  1  0
  8  9  2  0
  9 10  1  0
 10 11  2  0
 11 12  1  0
 11 13  1  0
 13 14  1  0
 14 15  1  0
 15 16  2  0
 15 17  2  0
 15 18  1  0
 18 19  2  0
 19 20  1  0
 20 21  2  0
 21 22  1  0
 22 23  2  0
 23 24  1  0
 24 25  2  0
 25 26  1  0
 26 27  2  0
 13 28  2  0
  5 29  1  0
 29 30  1  0
 30  2  1  0
 28  8  1  0
 27 18  1  0
 27 22  1  0
  1 31  1  0
  1 32  1  0
  1 33  1  0
  3 34  1  0
  3 35  1  0
  4 36  1  0
  4 37  1  0
  9 38  1  0
 10 39  1  0
 19 40  1  0
 20 41  1  0
 21 42  1  0
 23 43  1  0
 24 44  1  0
 25 45  1  0
 28 46  1  0
 29 47  1  0
 29 48  1  0
 30 49  1  0
 30 50  1  0
M  CHG  2  12  -1  14  -1
M  END
>  <UniqueID>  (3) 
3

>  <SMILES>  (3) 
CN1CCN(C(=O)c2ccc([O-])c([N-]S(=O)(=O)c3cccc4cccnc34)c2)CC1

>  <Energy>  (3) 
72.37824959131143

>  <Genealogy>  (3) 
CN1CCN(C(=O)c2ccc([O-])c([N-]S(=O)(=O)c3cccc4cccnc34)c2)CC1 (protonated)
CN1CCN(C(=O)c2ccc([O-])c([N-]S(=O)(=O)c3cccc4cccnc34)c2)CC1 (3D coordinates assigned)
CN1CCN(C(=O)c2ccc([O-])c([N-]S(=O)(=O)c3cccc4cccnc34)c2)CC1 (nonaromatic ring conformer: 72.37824959131143 kcal/mol)

>  <smiles>  (3) 
CN1CCN(C(=O)c2ccc(O)c(NS(=O)(=O)c3cccc4cccnc34)c2)CC1

>  <score_type>  (3) 
oracle

>  <origin>  (3) 
adgpu

>  <m_score__min__energy>  (3) 
-14.039999999999999

>  <m_primary>  (3) 
energy

$$$$
3:0
     RDKit          3D

 56 59  0  0  0  0  0  0  0  0999 V2000
   -4.7960   24.9460  -29.3300 O   0  0  0  0  0  0  0  0  0  0  0  0
   -4.0010   24.1510  -29.8950 C   0  0  0  0  0  0  0  0  0  0  0  0
   -4.2200   23.7870  -31.2630 N   0  0  0  0  0  0  0  0  0  0  0  0
   -4.8870   22.5750  -31.6370 C   0  0  0  0  0  0  0  0  0  0  0  0
   -6.2140   22.6190  -32.0780 C   0  0  0  0  0  0  0  0  0  0  0  0
   -6.9120   21.4320  -32.3170 C   0  0  0  0  0  0  0  0  0  0  0  0
   -6.2760   20.1930  -32.1470 C   0  0  0  0  0  0  0  0  0  0  0  0
   -7.1890   18.6940  -32.2900 S   0  0  0  0  0  0  0  0  0  0  0  0
   -6.8230   17.7860  -31.1490 O   0  0  0  0  0  0  0  0  0  0  0  0
   -8.6580   18.9980  -32.1830 O   0  0  0  0  0  0  0  0  0  0  0  0
   -6.8690   17.8790  -33.8080 N   0  0  0  0  0  0  0  0  0  0  0  0
   -6.6410   16.4280  -33.6390 C   0  0  0  0  0  0  0  0  0  0  0  0
   -5.1550   16.0380  -33.7000 C   0  0  0  0  0  0  0  0  0  0  0  0
   -4.3470   17.1080  -33.2700 O   0  0  0  0  0  0  0  0  0  0  0  0
   -4.3900   18.1450  -34.2260 C   0  0  0  0  0  0  0  0  0  0  0  0
   -5.8310   18.5570  -34.6100 C   0  0  0  0  0  0  0  0  0  0  0  0
   -4.9240   20.1540  -31.7880 C   0  0  0  0  0  0  0  0  0  0  0  0
   -4.2350   21.3370  -31.5250 C   0  0  0  0  0  0  0  0  0  0  0  0
   -2.8620   23.5910  -29.1390 C   0  0  0  0  0  0  0  0  0  0  0  0
   -2.9320   22.2810  -28.6420 C   0  0  0  0  0  0  0  0  0  0  0  0
   -1.9010   21.7690  -27.8410 C   0  0  0  0  0  0  0  0  0  0  0  0
   -2.0400   20.1560  -27.1360 S   0  0  0  0  0  0  0  0  0  0  0  0
   -3.4900   19.7600  -27.1050 O   0  0  0  0  0  0  0  0  0  0  0  0
   -1.5390   20.1950  -25.7190 O   0  0  0  0  0  0  0  0  0  0  0  0
   -1.1320   18.9510  -28.0180 N   0  0  0  0  0  0  0  0  0  0  0  0
   -0.0090   19.5330  -28.7490 C   0  0  0  0  0  0  0  0  0  0  0  0
    0.9940   18.4090  -28.9530 C   0  0  0  0  0  0  0  0  0  0  0  0
    0.6580   17.3740  -27.8880 C   0  0  0  0  0  0  0  0  0  0  0  0
   -0.5410   17.9410  -27.1410 C   0  0  0  0  0  0  0  0  0  0  0  0
   -0.7700   22.5550  -27.5830 C   0  0  0  0  0  0  0  0  0  0  0  0
   -0.6880   23.8550  -28.0860 C   0  0  0  0  0  0  0  0  0  0  0  0
   -1.7320   24.3790  -28.8540 C   0  0  0  0  0  0  0  0  0  0  0  0
   -1.6330   25.6800  -29.3370 O   0  0  0  0  0  0  0  0  0  0  0  0
   -6.7084   23.5887  -32.2368 H   0  0  0  0  0  0  0  0  0  0  0  0
   -7.9631   21.4693  -32.6393 H   0  0  0  0  0  0  0  0  0  0  0  0
   -7.0430   16.1223  -32.6618 H   0  0  0  0  0  0  0  0  0  0  0  0
   -7.1476   15.9180  -34.4716 H   0  0  0  0  0  0  0  0  0  0  0  0
   -4.9817   15.1688  -33.0485 H   0  0  0  0  0  0  0  0  0  0  0  0
   -4.8943   15.7903  -34.7395 H   0  0  0  0  0  0  0  0  0  0  0  0
   -3.8730   19.0237  -33.8129 H   0  0  0  0  0  0  0  0  0  0  0  0
   -3.9018   17.7709  -35.1380 H   0  0  0  0  0  0  0  0  0  0  0  0
   -5.9331   19.6427  -34.4660 H   0  0  0  0  0  0  0  0  0  0  0  0
   -5.9850   18.2598  -35.6578 H   0  0  0  0  0  0  0  0  0  0  0  0
   -4.4037   19.1877  -31.7132 H   0  0  0  0  0  0  0  0  0  0  0  0
   -3.1763   21.3002  -31.2286 H   0  0  0  0  0  0  0  0  0  0  0  0
   -3.8013   21.6512  -28.8822 H   0  0  0  0  0  0  0  0  0  0  0  0
   -0.3475   19.9227  -29.7204 H   0  0  0  0  0  0  0  0  0  0  0  0
    0.4373   20.3722  -28.1953 H   0  0  0  0  0  0  0  0  0  0  0  0
    0.8882   17.9758  -29.9585 H   0  0  0  0  0  0  0  0  0  0  0  0
    2.0316   18.7641  -28.8675 H   0  0  0  0  0  0  0  0  0  0  0  0
    0.4016   16.4111  -28.3539 H   0  0  0  0  0  0  0  0  0  0  0  0
    1.5084   17.1860  -27.2161 H   0  0  0  0  0  0  0  0  0  0  0  0
   -1.2705   17.1447  -26.9316 H   0  0  0  0  0  0  0  0  0  0  0  0
   -0.2413   18.3759  -26.1761 H   0  0  0  0  0  0  0  0  0  0  0  0
    0.0560   22.1466  -26.9822 H   0  0  0  0  0  0  0  0  0  0  0  0
    0.2008   24.4687  -27.8773 H   0  0  0  0  0  0  0  0  0  0  0  0
  1  2  2  0
  2  3  1  0
  3  4  1  0
  4  5  2  0
  5  6  1  0
  6  7  2  0
  7  8  1  0
  8  9  2  0
  8 10  2  0
  8 11  1  0
 11 12  1  0
 12 13  1  0
 13 14  1  0
 14 15  1  0
 15 16  1  0
  7 17  1  0
 17 18  2  0
  2 19  1  0
 19 20  2  0
 20 21  1  0
 21 22  1  0
 22 23  2  0
 22 24  2  0
 22 25  1  0
 25 26  1  0
 26 27  1  0
 27 28  1  0
 28 29  1  0
 21 30  2  0
 30 31  1  0
 31 32  2  0
 32 33  1  0
 18  4  1  0
 32 19  1  0
 16 11  1  0
 29 25  1  0
  5 34  1  0
  6 35  1  0
 12 36  1  0
 12 37  1  0
 13 38  1  0
 13 39  1  0
 15 40  1  0
 15 41  1  0
 16 42  1  0
 16 43  1  0
 17 44  1  0
 18 45  1  0
 20 46  1  0
 26 47  1  0
 26 48  1  0
 27 49  1  0
 27 50  1  0
 28 51  1  0
 28 52  1  0
 29 53  1  0
 29 54  1  0
 30 55  1  0
 31 56  1  0
M  CHG  2   3  -1  33  -1
M  END
>  <UniqueID>  (4) 
4

>  <SMILES>  (4) 
O=C([N-]c1ccc(S(=O)(=O)N2CCOCC2)cc1)c1cc(S(=O)(=O)N2CCCC2)ccc1[O-]

>  <Energy>  (4) 
74.41053789003708

>  <Genealogy>  (4) 
O=C([N-]c1ccc(S(=O)(=O)N2CCOCC2)cc1)c1cc(S(=O)(=O)N2CCCC2)ccc1[O-] (protonated)
O=C([N-]c1ccc(S(=O)(=O)N2CCOCC2)cc1)c1cc(S(=O)(=O)N2CCCC2)ccc1[O-] (3D coordinates assigned)
O=C([N-]c1ccc(S(=O)(=O)N2CCOCC2)cc1)c1cc(S(=O)(=O)N2CCCC2)ccc1[O-] (nonaromatic ring conformer: 74.41053789003708 kcal/mol)

>  <smiles>  (4) 
O=C(Nc1ccc(S(=O)(=O)N2CCOCC2)cc1)c1cc(S(=O)(=O)N2CCCC2)ccc1O

>  <score_type>  (4) 
oracle

>  <origin>  (4) 
adgpu

>  <m_score__min__energy>  (4) 
-13.93

>  <m_primary>  (4) 
energy

$$$$
4:0
     RDKit          3D

 46 48  0  0  0  0  0  0  0  0999 V2000
   -8.9130   19.8410  -32.1680 C   0  0  0  0  0  0  0  0  0  0  0  0
   -7.9850   21.0180  -32.0170 C   0  0  0  0  0  0  0  0  0  0  0  0
   -8.5580   22.2580  -31.6960 C   0  0  0  0  0  0  0  0  0  0  0  0
   -7.7720   23.3980  -31.5740 C   0  0  0  0  0  0  0  0  0  0  0  0
   -6.4020   23.3380  -31.8060 C   0  0  0  0  0  0  0  0  0  0  0  0
   -5.6470   24.5570  -31.7320 N   0  0  0  0  0  0  0  0  0  0  0  0
   -5.0420   25.0910  -30.5470 C   0  0  0  0  0  0  0  0  0  0  0  0
   -5.7740   25.3800  -29.5650 O   0  0  0  0  0  0  0  0  0  0  0  0
   -3.6260   25.2960  -30.4450 N   0  0  0  0  0  0  0  0  0  0  0  0
   -2.7110   24.4770  -29.7040 C   0  0  0  0  0  0  0  0  0  0  0  0
   -2.5980   23.1190  -30.0290 C   0  0  0  0  0  0  0  0  0  0  0  0
   -1.7180   22.2950  -29.3220 C   0  0  0  0  0  0  0  0  0  0  0  0
   -0.9510   22.8210  -28.2770 C   0  0  0  0  0  0  0  0  0  0  0  0
   -0.0690   22.0030  -27.5820 O   0  0  0  0  0  0  0  0  0  0  0  0
   -1.0780   24.1690  -27.9300 C   0  0  0  0  0  0  0  0  0  0  0  0
   -1.9630   24.9930  -28.6300 C   0  0  0  0  0  0  0  0  0  0  0  0
   -5.7870   22.1000  -32.0800 C   0  0  0  0  0  0  0  0  0  0  0  0
   -4.3980   22.0800  -32.2440 O   0  0  0  0  0  0  0  0  0  0  0  0
   -6.5720   20.9160  -32.1670 C   0  0  0  0  0  0  0  0  0  0  0  0
   -5.7480   19.3520  -32.4300 S   0  0  0  0  0  0  0  0  0  0  0  0
   -4.3180   19.6380  -32.7930 O   0  0  0  0  0  0  0  0  0  0  0  0
   -5.7360   18.4900  -31.2000 O   0  0  0  0  0  0  0  0  0  0  0  0
   -6.5350   18.5040  -33.7470 N   0  0  0  0  0  0  0  0  0  0  0  0
   -6.9550   17.1400  -33.3640 C   0  0  0  0  0  0  0  0  0  0  0  0
   -5.9510   16.0580  -33.8030 C   0  0  0  0  0  0  0  0  0  0  0  0
   -4.6440   16.5820  -33.8410 O   0  0  0  0  0  0  0  0  0  0  0  0
   -4.5280   17.5220  -34.8950 C   0  0  0  0  0  0  0  0  0  0  0  0
   -5.7150   18.5130  -34.9720 C   0  0  0  0  0  0  0  0  0  0  0  0
   -9.2032   19.4729  -31.1729 H   0  0  0  0  0  0  0  0  0  0  0  0
   -9.8120   20.1514  -32.7207 H   0  0  0  0  0  0  0  0  0  0  0  0
   -8.4014   19.0392  -32.7207 H   0  0  0  0  0  0  0  0  0  0  0  0
   -9.6444   22.3289  -31.5387 H   0  0  0  0  0  0  0  0  0  0  0  0
   -8.2368   24.3543  -31.2920 H   0  0  0  0  0  0  0  0  0  0  0  0
   -3.2049   22.6992  -30.8447 H   0  0  0  0  0  0  0  0  0  0  0  0
   -1.6284   21.2313  -29.5876 H   0  0  0  0  0  0  0  0  0  0  0  0
   -0.4800   24.5819  -27.1042 H   0  0  0  0  0  0  0  0  0  0  0  0
   -2.0752   26.0483  -28.3405 H   0  0  0  0  0  0  0  0  0  0  0  0
   -3.8230   21.2560  -32.1480 H   0  0  0  0  0  0  0  0  0  0  0  0
   -7.0588   17.0991  -32.2697 H   0  0  0  0  0  0  0  0  0  0  0  0
   -7.9074   16.9327  -33.8738 H   0  0  0  0  0  0  0  0  0  0  0  0
   -5.9849   15.2220  -33.0889 H   0  0  0  0  0  0  0  0  0  0  0  0
   -6.2230   15.7088  -34.8100 H   0  0  0  0  0  0  0  0  0  0  0  0
   -3.6025   18.0980  -34.7476 H   0  0  0  0  0  0  0  0  0  0  0  0
   -4.5198   16.9531  -35.8365 H   0  0  0  0  0  0  0  0  0  0  0  0
   -5.3187   19.5277  -35.1243 H   0  0  0  0  0  0  0  0  0  0  0  0
   -6.3581   18.2017  -35.8084 H   0  0  0  0  0  0  0  0  0  0  0  0
  1  2  1  0
  2  3  2  0
  3  4  1  0
  4  5  2  0
  5  6  1  0
  6  7  1  0
  7  8  2  0
  7  9  1  0
  9 10  1  0
 10 11  2  0
 11 12  1  0
 12 13  2  0
 13 14  1  0
 13 15  1  0
 15 16  2  0
  5 17  1  0
 17 18  1  0
 17 19  2  0
 19 20  1  0
 20 21  2  0
 20 22  2  0
 20 23  1  0
 23 24  1  0
 24 25  1  0
 25 26  1  0
 26 27  1  0
 27 28  1  0
 19  2  1  0
 28 23  1  0
 16 10  1  0
  1 29  1  0
  1 30  1  0
  1 31  1  0
  3 32  1  0
  4 33  1  0
 11 34  1  0
 12 35  1  0
 15 36  1  0
 16 37  1  0
 18 38  1  0
 24 39  1  0
 24 40  1  0
 25 41  1  0
 25 42  1  0
 27 43  1  0
 27 44  1  0
 28 45  1  0
 28 46  1  0
M  CHG  3   6  -1   9  -1  14  -1
M  END
>  <UniqueID>  (5) 
5

>  <SMILES>  (5) 
Cc1ccc([N-]C(=O)[N-]c2ccc([O-])cc2)c(O)c1S(=O)(=O)N1CCOCC1

>  <Energy>  (5) 
71.49593377335665

>  <Genealogy>  (5) 
Cc1ccc([N-]C(=O)[N-]c2ccc([O-])cc2)c(O)c1S(=O)(=O)N1CCOCC1 (protonated)
Cc1ccc([N-]C(=O)[N-]c2ccc([O-])cc2)c(O)c1S(=O)(=O)N1CCOCC1 (3D coordinates assigned)
Cc1ccc([N-]C(=O)[N-]c2ccc([O-])cc2)c(O)c1S(=O)(=O)N1CCOCC1 (nonaromatic ring conformer: 71.49593377335665 kcal/mol)

>  <smiles>  (5) 
Cc1ccc(NC(=O)Nc2ccc(O)cc2)c(O)c1S(=O)(=O)N1CCOCC1

>  <score_type>  (5) 
oracle

>  <origin>  (5) 
adgpu

>  <m_score__min__energy>  (5) 
-11.18

>  <m_primary>  (5) 
energy

$$$$
5:0
     RDKit          3D

 53 57  0  0  0  0  0  0  0  0999 V2000
   -9.2130   22.9490  -31.4260 O   0  0  0  0  0  0  0  0  0  0  0  0
   -8.1510   22.2690  -31.4820 C   0  0  0  0  0  0  0  0  0  0  0  0
   -8.2040   20.8490  -31.9020 C   0  0  0  0  0  0  0  0  0  0  0  0
   -9.4320   20.2480  -32.2400 C   0  0  0  0  0  0  0  0  0  0  0  0
   -9.4770   18.9090  -32.6350 C   0  0  0  0  0  0  0  0  0  0  0  0
   -8.3050   18.1570  -32.6960 C   0  0  0  0  0  0  0  0  0  0  0  0
   -7.0800   18.7400  -32.3640 C   0  0  0  0  0  0  0  0  0  0  0  0
   -7.0180   20.0880  -31.9650 C   0  0  0  0  0  0  0  0  0  0  0  0
   -5.7200   20.7100  -31.6100 C   0  0  0  0  0  0  0  0  0  0  0  0
   -4.6590   20.0300  -31.6670 O   0  0  0  0  0  0  0  0  0  0  0  0
   -5.6660   22.1320  -31.1920 C   0  0  0  0  0  0  0  0  0  0  0  0
   -4.4400   22.7320  -30.8540 C   0  0  0  0  0  0  0  0  0  0  0  0
   -4.3830   24.0820  -30.4690 C   0  0  0  0  0  0  0  0  0  0  0  0
   -3.1400   24.7010  -30.0990 N   0  0  0  0  0  0  0  0  0  0  0  0
   -2.1310   24.0740  -29.2880 C   0  0  0  0  0  0  0  0  0  0  0  0
   -0.9330   24.7360  -28.9720 C   0  0  0  0  0  0  0  0  0  0  0  0
    0.0170   24.1200  -28.1560 C   0  0  0  0  0  0  0  0  0  0  0  0
   -0.2170   22.8420  -27.6320 C   0  0  0  0  0  0  0  0  0  0  0  0
    0.7380   22.2480  -26.8100 O   0  0  0  0  0  0  0  0  0  0  0  0
   -1.4200   22.1750  -27.9330 C   0  0  0  0  0  0  0  0  0  0  0  0
   -1.7890   20.5730  -27.2780 S   0  0  0  0  0  0  0  0  0  0  0  0
   -1.0190   20.4050  -25.9980 O   0  0  0  0  0  0  0  0  0  0  0  0
   -3.2540   20.4550  -26.9580 O   0  0  0  0  0  0  0  0  0  0  0  0
   -1.3010   19.3270  -28.4090 N   0  0  0  0  0  0  0  0  0  0  0  0
   -0.2590   18.4480  -27.8510 C   0  0  0  0  0  0  0  0  0  0  0  0
    1.1320   19.1250  -27.8210 C   0  0  0  0  0  0  0  0  0  0  0  0
    1.2200   20.2730  -28.6470 O   0  0  0  0  0  0  0  0  0  0  0  0
    0.6090   20.0210  -29.8910 C   0  0  0  0  0  0  0  0  0  0  0  0
   -0.9160   19.8940  -29.7210 C   0  0  0  0  0  0  0  0  0  0  0  0
   -2.3740   22.8040  -28.7460 C   0  0  0  0  0  0  0  0  0  0  0  0
   -5.5700   24.8190  -30.3850 C   0  0  0  0  0  0  0  0  0  0  0  0
   -6.7930   24.2340  -30.7180 C   0  0  0  0  0  0  0  0  0  0  0  0
   -6.8530   22.8910  -31.1270 C   0  0  0  0  0  0  0  0  0  0  0  0
  -10.3604   20.8361  -32.1927 H   0  0  0  0  0  0  0  0  0  0  0  0
  -10.4398   18.4468  -32.8986 H   0  0  0  0  0  0  0  0  0  0  0  0
   -8.3449   17.1024  -33.0062 H   0  0  0  0  0  0  0  0  0  0  0  0
   -6.1582   18.1419  -32.4147 H   0  0  0  0  0  0  0  0  0  0  0  0
   -3.5151   22.1377  -30.8914 H   0  0  0  0  0  0  0  0  0  0  0  0
   -2.9550   25.6700  -30.4440 H   0  0  0  0  0  0  0  0  0  0  0  0
   -0.7429   25.7440  -29.3693 H   0  0  0  0  0  0  0  0  0  0  0  0
    0.9567   24.6420  -27.9225 H   0  0  0  0  0  0  0  0  0  0  0  0
    0.8380   21.2410  -26.7510 H   0  0  0  0  0  0  0  0  0  0  0  0
   -0.5408   18.1747  -26.8234 H   0  0  0  0  0  0  0  0  0  0  0  0
   -0.1862   17.5621  -28.4989 H   0  0  0  0  0  0  0  0  0  0  0  0
    1.3516   19.4236  -26.7853 H   0  0  0  0  0  0  0  0  0  0  0  0
    1.8566   18.3927  -28.2067 H   0  0  0  0  0  0  0  0  0  0  0  0
    0.8297   20.8509  -30.5785 H   0  0  0  0  0  0  0  0  0  0  0  0
    1.0034   19.0787  -30.2991 H   0  0  0  0  0  0  0  0  0  0  0  0
   -1.3650   20.8936  -29.8174 H   0  0  0  0  0  0  0  0  0  0  0  0
   -1.2801   19.2067  -30.4989 H   0  0  0  0  0  0  0  0  0  0  0  0
   -3.3249   22.2946  -28.9612 H   0  0  0  0  0  0  0  0  0  0  0  0
   -5.5389   25.8675  -30.0539 H   0  0  0  0  0  0  0  0  0  0  0  0
   -7.7165   24.8288  -30.6598 H   0  0  0  0  0  0  0  0  0  0  0  0
  1  2  2  0
  2  3  1  0
  3  4  2  0
  4  5  1  0
  5  6  2  0
  6  7  1  0
  7  8  2  0
  8  9  1  0
  9 10  2  0
  9 11  1  0
 11 12  2  0
 12 13  1  0
 13 14  1  0
 14 15  1  0
 15 16  2  0
 16 17  1  0
 17 18  2  0
 18 19  1  0
 18 20  1  0
 20 21  1  0
 21 22  2  0
 21 23  2  0
 21 24  1  0
 24 25  1  0
 25 26  1  0
 26 27  1  0
 27 28  1  0
 28 29  1  0
 20 30  2  0
 13 31  2  0
 31 32  1  0
 32 33  2  0
 33  2  1  0
  8  3  1  0
 33 11  1  0
 30 15  1  0
 29 24  1  0
  4 34  1  0
  5 35  1  0
  6 36  1  0
  7 37  1  0
 12 38  1  0
 14 39  1  0
 16 40  1  0
 17 41  1  0
 19 42  1  0
 25 43  1  0
 25 44  1  0
 26 45  1  0
 26 46  1  0
 28 47  1  0
 28 48  1  0
 29 49  1  0
 29 50  1  0
 30 51  1  0
 31 52  1  0
 32 53  1  0
M  END
>  <UniqueID>  (6) 
6

>  <SMILES>  (6) 
O=C1c2ccccc2C(=O)c2cc(Nc3ccc(O)c(S(=O)(=O)N4CCOCC4)c3)ccc21

>  <Energy>  (6) 
80.35313586932537

>  <Genealogy>  (6) 
O=C1c2ccccc2C(=O)c2cc(Nc3ccc(O)c(S(=O)(=O)N4CCOCC4)c3)ccc21 (3D coordinates assigned)
O=C1c2ccccc2C(=O)c2cc(Nc3ccc(O)c(S(=O)(=O)N4CCOCC4)c3)ccc21 (nonaromatic ring conformer: 80.35313586932537 kcal/mol)

>  <smiles>  (6) 
O=C1c2ccccc2C(=O)c2cc(Nc3ccc(O)c(S(=O)(=O)N4CCOCC4)c3)ccc21

>  <score_type>  (6) 
oracle

>  <origin>  (6) 
adgpu

>  <m_score__min__energy>  (6) 
-10.949999999999999

>  <m_primary>  (6) 
energy

$$$$
6:0
     RDKit          3D

 57 59  0  0  0  0  0  0  0  0999 V2000
   -6.7390   14.9230  -34.1940 C   0  0  0  0  0  0  0  0  0  0  0  0
   -5.8010   16.0180  -33.9750 N   0  0  0  0  0  0  0  0  0  0  0  0
   -6.1870   17.2110  -33.2810 C   0  0  0  0  0  0  0  0  0  0  0  0
   -7.2620   17.2360  -32.6210 O   0  0  0  0  0  0  0  0  0  0  0  0
   -5.3290   18.4080  -33.2930 C   0  0  0  0  0  0  0  0  0  0  0  0
   -4.0230   18.3840  -33.6600 N   0  0  0  0  0  0  0  0  0  0  0  0
   -3.5400   19.6160  -33.5460 N   0  0  0  0  0  0  0  0  0  0  0  0
   -2.1780   19.9930  -33.9070 C   0  0  0  0  0  0  0  0  0  0  0  0
   -4.5220   20.4310  -33.1120 C   0  0  0  0  0  0  0  0  0  0  0  0
   -4.4630   21.7940  -32.8310 C   0  0  0  0  0  0  0  0  0  0  0  0
   -5.6130   22.4140  -32.3060 C   0  0  0  0  0  0  0  0  0  0  0  0
   -5.5710   23.7920  -31.9370 N   0  0  0  0  0  0  0  0  0  0  0  0
   -4.8080   24.3460  -30.4870 S   0  0  0  0  0  0  0  0  0  0  0  0
   -3.8770   25.4740  -30.8230 O   0  0  0  0  0  0  0  0  0  0  0  0
   -5.8570   24.8630  -29.5480 O   0  0  0  0  0  0  0  0  0  0  0  0
   -3.8850   23.0600  -29.7070 C   0  0  0  0  0  0  0  0  0  0  0  0
   -4.2210   22.6440  -28.4130 C   0  0  0  0  0  0  0  0  0  0  0  0
   -3.4870   21.6360  -27.7870 C   0  0  0  0  0  0  0  0  0  0  0  0
   -2.4010   21.0260  -28.4430 C   0  0  0  0  0  0  0  0  0  0  0  0
   -1.6630   19.9190  -27.7860 C   0  0  0  0  0  0  0  0  0  0  0  0
   -2.3050   19.0780  -27.0970 O   0  0  0  0  0  0  0  0  0  0  0  0
   -0.2410   19.7550  -27.9410 N   0  0  0  0  0  0  0  0  0  0  0  0
    0.3100   18.4040  -28.0510 C   0  0  0  0  0  0  0  0  0  0  0  0
    0.6770   20.8910  -27.8460 C   0  0  0  0  0  0  0  0  0  0  0  0
   -2.0770   21.4420  -29.7470 C   0  0  0  0  0  0  0  0  0  0  0  0
   -2.8070   22.4590  -30.3690 C   0  0  0  0  0  0  0  0  0  0  0  0
   -6.8080   21.6620  -32.1180 C   0  0  0  0  0  0  0  0  0  0  0  0
   -7.9910   22.2880  -31.5930 N   0  0  0  0  0  0  0  0  0  0  0  0
   -8.7510   21.6360  -30.5240 C   0  0  0  0  0  0  0  0  0  0  0  0
   -8.5910   23.4090  -32.3210 C   0  0  0  0  0  0  0  0  0  0  0  0
   -6.8260   20.2820  -32.4180 C   0  0  0  0  0  0  0  0  0  0  0  0
   -5.6650   19.7050  -32.9290 C   0  0  0  0  0  0  0  0  0  0  0  0
   -7.0762   14.5294  -33.2237 H   0  0  0  0  0  0  0  0  0  0  0  0
   -7.6063   15.2911  -34.7617 H   0  0  0  0  0  0  0  0  0  0  0  0
   -6.2421   14.1225  -34.7617 H   0  0  0  0  0  0  0  0  0  0  0  0
   -4.8080   15.8890  -34.2660 H   0  0  0  0  0  0  0  0  0  0  0  0
   -1.5882   20.1562  -32.9929 H   0  0  0  0  0  0  0  0  0  0  0  0
   -1.7197   19.1879  -34.5002 H   0  0  0  0  0  0  0  0  0  0  0  0
   -2.1989   20.9191  -34.5002 H   0  0  0  0  0  0  0  0  0  0  0  0
   -3.5438   22.3698  -33.0141 H   0  0  0  0  0  0  0  0  0  0  0  0
   -5.0662   23.1133  -27.8883 H   0  0  0  0  0  0  0  0  0  0  0  0
   -3.7596   21.3148  -26.7709 H   0  0  0  0  0  0  0  0  0  0  0  0
    0.4775   17.9933  -27.0444 H   0  0  0  0  0  0  0  0  0  0  0  0
   -0.3983   17.7624  -28.5956 H   0  0  0  0  0  0  0  0  0  0  0  0
    1.2650   18.4407  -28.5956 H   0  0  0  0  0  0  0  0  0  0  0  0
    0.8647   21.1232  -26.7873 H   0  0  0  0  0  0  0  0  0  0  0  0
    1.6267   20.6373  -28.3397 H   0  0  0  0  0  0  0  0  0  0  0  0
    0.2296   21.7663  -28.3397 H   0  0  0  0  0  0  0  0  0  0  0  0
   -1.2430   20.9635  -30.2813 H   0  0  0  0  0  0  0  0  0  0  0  0
   -2.5337   22.7885  -31.3823 H   0  0  0  0  0  0  0  0  0  0  0  0
   -8.3668   21.9656  -29.5474 H   0  0  0  0  0  0  0  0  0  0  0  0
   -9.8133   21.9080  -30.6109 H   0  0  0  0  0  0  0  0  0  0  0  0
   -8.6437   20.5447  -30.6109 H   0  0  0  0  0  0  0  0  0  0  0  0
   -8.9843   24.1439  -31.6032 H   0  0  0  0  0  0  0  0  0  0  0  0
   -7.8277   23.8862  -32.9532 H   0  0  0  0  0  0  0  0  0  0  0  0
   -9.4114   23.0386  -32.9532 H   0  0  0  0  0  0  0  0  0  0  0  0
   -7.7313   19.6794  -32.2529 H   0  0  0  0  0  0  0  0  0  0  0  0
  1  2  1  0
  2  3  1  0
  3  4  2  0
  3  5  1  0
  5  6  2  0
  6  7  1  0
  7  8  1  0
  7  9  1  0
  9 10  2  0
 10 11  1  0
 11 12  1  0
 12 13  1  0
 13 14  2  0
 13 15  2  0
 13 16  1  0
 16 17  2  0
 17 18  1  0
 18 19  2  0
 19 20  1  0
 20 21  2  0
 20 22  1  0
 22 23  1  0
 22 24  1  0
 19 25  1  0
 25 26  2  0
 11 27  2  0
 27 28  1  0
 28 29  1  0
 28 30  1  0
 27 31  1  0
 31 32  2  0
 32  5  1  0
 32  9  1  0
 26 16  1  0
  1 33  1  0
  1 34  1  0
  1 35  1  0
  2 36  1  0
  8 37  1  0
  8 38  1  0
  8 39  1  0
 10 40  1  0
 17 41  1  0
 18 42  1  0
 23 43  1  0
 23 44  1  0
 23 45  1  0
 24 46  1  0
 24 47  1  0
 24 48  1  0
 25 49  1  0
 26 50  1  0
 29 51  1  0
 29 52  1  0
 29 53  1  0
 30 54  1  0
 30 55  1  0
 30 56  1  0
 31 57  1  0
M  CHG  1  12  -1
M  END
>  <UniqueID>  (7) 
7

>  <SMILES>  (7) 
CNC(=O)c1nn(C)c2cc([N-]S(=O)(=O)c3ccc(C(=O)N(C)C)cc3)c(N(C)C)cc12

>  <Energy>  (7) 
109.44060043100534

>  <Genealogy>  (7) 
CNC(=O)c1nn(C)c2cc([N-]S(=O)(=O)c3ccc(C(=O)N(C)C)cc3)c(N(C)C)cc12 (protonated)
CNC(=O)c1nn(C)c2cc([N-]S(=O)(=O)c3ccc(C(=O)N(C)C)cc3)c(N(C)C)cc12 (3D coordinates assigned)
CNC(=O)c1nn(C)c2cc([N-]S(=O)(=O)c3ccc(C(=O)N(C)C)cc3)c(N(C)C)cc12 (optimized conformer: 109.44060043100534 kcal/mol)

>  <smiles>  (7) 
CNC(=O)c1nn(C)c2cc(NS(=O)(=O)c3ccc(C(=O)N(C)C)cc3)c(N(C)C)cc12

>  <score_type>  (7) 
oracle

>  <origin>  (7) 
adgpu

>  <m_score__min__energy>  (7) 
-10.34

>  <m_primary>  (7) 
energy

$$$$
7:0
     RDKit          3D

 61 64  0  0  0  0  0  0  0  0999 V2000
    1.2320   22.1920  -35.9330 C   0  0  0  0  0  0  0  0  0  0  0  0
    0.2370   22.2130  -34.9150 O   0  0  0  0  0  0  0  0  0  0  0  0
   -0.1240   21.1040  -34.1360 C   0  0  0  0  0  0  0  0  0  0  0  0
   -0.1600   21.1500  -32.7290 C   0  0  0  0  0  0  0  0  0  0  0  0
   -0.5350   20.0180  -31.9990 C   0  0  0  0  0  0  0  0  0  0  0  0
   -0.8700   18.8340  -32.6580 C   0  0  0  0  0  0  0  0  0  0  0  0
   -0.8230   18.7690  -34.0590 C   0  0  0  0  0  0  0  0  0  0  0  0
   -1.2290   17.5090  -34.7730 C   0  0  0  0  0  0  0  0  0  0  0  0
   -2.6490   17.1660  -34.4330 C   0  0  0  0  0  0  0  0  0  0  0  0
   -3.1260   15.8570  -34.5700 C   0  0  0  0  0  0  0  0  0  0  0  0
   -4.4460   15.5830  -34.1960 C   0  0  0  0  0  0  0  0  0  0  0  0
   -4.9980   14.1940  -34.3250 C   0  0  0  0  0  0  0  0  0  0  0  0
   -4.3980   13.5280  -35.3790 F   0  0  0  0  0  0  0  0  0  0  0  0
   -6.3610   14.2560  -34.5520 F   0  0  0  0  0  0  0  0  0  0  0  0
   -4.7630   13.4890  -33.1590 F   0  0  0  0  0  0  0  0  0  0  0  0
   -5.2210   16.5820  -33.6950 N   0  0  0  0  0  0  0  0  0  0  0  0
   -4.7440   17.8490  -33.5520 C   0  0  0  0  0  0  0  0  0  0  0  0
   -5.6030   18.9150  -32.9800 C   0  0  0  0  0  0  0  0  0  0  0  0
   -6.8690   19.1870  -33.5320 C   0  0  0  0  0  0  0  0  0  0  0  0
   -7.6700   20.2040  -33.0060 C   0  0  0  0  0  0  0  0  0  0  0  0
   -7.2230   20.9630  -31.9180 C   0  0  0  0  0  0  0  0  0  0  0  0
   -8.2040   22.2810  -31.2820 S   0  0  0  0  0  0  0  0  0  0  0  0
   -9.4940   22.3740  -32.0480 O   0  0  0  0  0  0  0  0  0  0  0  0
   -8.5240   21.9950  -29.8400 O   0  0  0  0  0  0  0  0  0  0  0  0
   -7.3250   23.7880  -31.4020 N   0  0  0  0  0  0  0  0  0  0  0  0
   -6.9440   24.2540  -30.0490 C   0  0  0  0  0  0  0  0  0  0  0  0
   -5.7800   25.2540  -30.1090 C   0  0  0  0  0  0  0  0  0  0  0  0
   -4.5630   24.6690  -30.7290 N   0  0  0  0  0  0  0  0  0  0  0  0
   -3.5530   24.3320  -29.7150 C   0  0  0  0  0  0  0  0  0  0  0  0
   -4.8390   23.4950  -31.5880 C   0  0  0  0  0  0  0  0  0  0  0  0
   -6.1730   23.6550  -32.3330 C   0  0  0  0  0  0  0  0  0  0  0  0
   -5.9660   20.7000  -31.3620 C   0  0  0  0  0  0  0  0  0  0  0  0
   -5.1620   19.6820  -31.8850 C   0  0  0  0  0  0  0  0  0  0  0  0
   -3.4640   18.1240  -33.9200 N   0  0  0  0  0  0  0  0  0  0  0  0
   -0.4600   19.9120  -34.7910 C   0  0  0  0  0  0  0  0  0  0  0  0
    2.2297   22.1709  -35.4702 H   0  0  0  0  0  0  0  0  0  0  0  0
    1.0986   21.2965  -36.5577 H   0  0  0  0  0  0  0  0  0  0  0  0
    1.1365   23.0924  -36.5577 H   0  0  0  0  0  0  0  0  0  0  0  0
    0.1075   22.0784  -32.2032 H   0  0  0  0  0  0  0  0  0  0  0  0
   -0.5662   20.0607  -30.9003 H   0  0  0  0  0  0  0  0  0  0  0  0
   -1.1716   17.9496  -32.0776 H   0  0  0  0  0  0  0  0  0  0  0  0
   -1.1400   17.6600  -35.8589 H   0  0  0  0  0  0  0  0  0  0  0  0
   -0.5715   16.6855  -34.4576 H   0  0  0  0  0  0  0  0  0  0  0  0
   -2.4768   15.0609  -34.9633 H   0  0  0  0  0  0  0  0  0  0  0  0
   -7.2309   18.5939  -34.3848 H   0  0  0  0  0  0  0  0  0  0  0  0
   -8.6559   20.4090  -33.4487 H   0  0  0  0  0  0  0  0  0  0  0  0
   -7.9890   24.4860  -31.8110 H   0  0  0  0  0  0  0  0  0  0  0  0
   -7.8116   24.7420  -29.5809 H   0  0  0  0  0  0  0  0  0  0  0  0
   -6.6222   23.3824  -29.4601 H   0  0  0  0  0  0  0  0  0  0  0  0
   -6.0937   26.1264  -30.7011 H   0  0  0  0  0  0  0  0  0  0  0  0
   -5.5276   25.5377  -29.0766 H   0  0  0  0  0  0  0  0  0  0  0  0
   -3.9796   24.4743  -28.7111 H   0  0  0  0  0  0  0  0  0  0  0  0
   -3.2462   23.2828  -29.8376 H   0  0  0  0  0  0  0  0  0  0  0  0
   -2.6776   24.9867  -29.8376 H   0  0  0  0  0  0  0  0  0  0  0  0
   -4.0276   23.3893  -32.3231 H   0  0  0  0  0  0  0  0  0  0  0  0
   -4.9011   22.6019  -30.9489 H   0  0  0  0  0  0  0  0  0  0  0  0
   -6.1210   24.5553  -32.9629 H   0  0  0  0  0  0  0  0  0  0  0  0
   -6.3316   22.7506  -32.9388 H   0  0  0  0  0  0  0  0  0  0  0  0
   -5.6086   21.2966  -30.5097 H   0  0  0  0  0  0  0  0  0  0  0  0
   -4.1779   19.4792  -31.4374 H   0  0  0  0  0  0  0  0  0  0  0  0
   -0.4394   19.8705  -35.8900 H   0  0  0  0  0  0  0  0  0  0  0  0
  1  2  1  0
  2  3  1  0
  3  4  2  0
  4  5  1  0
  5  6  2  0
  6  7  1  0
  7  8  1  0
  8  9  1  0
  9 10  2  0
 10 11  1  0
 11 12  1  0
 12 13  1  0
 12 14  1  0
 12 15  1  0
 11 16  2  0
 16 17  1  0
 17 18  1  0
 18 19  2  0
 19 20  1  0
 20 21  2  0
 21 22  1  0
 22 23  2  0
 22 24  2  0
 22 25  1  0
 25 26  1  0
 26 27  1  0
 27 28  1  0
 28 29  1  0
 28 30  1  0
 30 31  1  0
 21 32  1  0
 32 33  2  0
 17 34  2  0
  7 35  2  0
 35  3  1  0
 34  9  1  0
 33 18  1  0
 31 25  1  0
  1 36  1  0
  1 37  1  0
  1 38  1  0
  4 39  1  0
  5 40  1  0
  6 41  1  0
  8 42  1  0
  8 43  1  0
 10 44  1  0
 19 45  1  0
 20 46  1  0
 25 47  1  0
 26 48  1  0
 26 49  1  0
 27 50  1  0
 27 51  1  0
 29 52  1  0
 29 53  1  0
 29 54  1  0
 30 55  1  0
 30 56  1  0
 31 57  1  0
 31 58  1  0
 32 59  1  0
 33 60  1  0
 35 61  1  0
M  CHG  1  25   1
M  END
>  <UniqueID>  (8) 
8

>  <SMILES>  (8) 
COc1cccc(Cc2cc(C(F)(F)F)nc(-c3ccc(S(=O)(=O)[NH+]4CCN(C)CC4)cc3)n2)c1

>  <Energy>  (8) 
72.6335344864686

>  <Genealogy>  (8) 
COc1cccc(Cc2cc(C(F)(F)F)nc(-c3ccc(S(=O)(=O)[NH+]4CCN(C)CC4)cc3)n2)c1 (protonated)
COc1cccc(Cc2cc(C(F)(F)F)nc(-c3ccc(S(=O)(=O)[NH+]4CCN(C)CC4)cc3)n2)c1 (3D coordinates assigned)
COc1cccc(Cc2cc(C(F)(F)F)nc(-c3ccc(S(=O)(=O)[NH+]4CCN(C)CC4)cc3)n2)c1 (nonaromatic ring conformer: 72.6335344864686 kcal/mol)

>  <smiles>  (8) 
COc1cccc(Cc2cc(C(F)(F)F)nc(-c3ccc(S(=O)(=O)N4CCN(C)CC4)cc3)n2)c1

>  <score_type>  (8) 
oracle

>  <origin>  (8) 
adgpu

>  <m_score__min__energy>  (8) 
-9.0899999999999999

>  <m_primary>  (8) 
energy

$$$$
8:0
     RDKit          3D

 42 45  0  0  0  0  0  0  0  0999 V2000
   -3.2040   16.3880  -32.8670 C   0  0  0  0  0  0  0  0  0  0  0  0
   -4.3190   15.9210  -33.7110 N   0  0  0  0  0  0  0  0  0  0  0  0
   -4.3690   16.6010  -35.0180 C   0  0  0  0  0  0  0  0  0  0  0  0
   -4.6830   18.1000  -34.8920 C   0  0  0  0  0  0  0  0  0  0  0  0
   -5.7830   18.3770  -33.9020 C   0  0  0  0  0  0  0  0  0  0  0  0
   -6.3770   19.6470  -33.8820 C   0  0  0  0  0  0  0  0  0  0  0  0
   -7.3730   19.9590  -32.9400 C   0  0  0  0  0  0  0  0  0  0  0  0
   -8.0140   21.2430  -32.9140 N   0  0  0  0  0  0  0  0  0  0  0  0
   -7.9620   22.3710  -31.5980 S   0  0  0  0  0  0  0  0  0  0  0  0
   -8.7710   21.8280  -30.4530 O   0  0  0  0  0  0  0  0  0  0  0  0
   -8.5640   23.6790  -32.0280 O   0  0  0  0  0  0  0  0  0  0  0  0
   -6.2980   22.5840  -31.0680 C   0  0  0  0  0  0  0  0  0  0  0  0
   -5.4390   21.4670  -30.9060 C   0  0  0  0  0  0  0  0  0  0  0  0
   -4.1130   21.6420  -30.4710 C   0  0  0  0  0  0  0  0  0  0  0  0
   -3.6790   22.9410  -30.2150 C   0  0  0  0  0  0  0  0  0  0  0  0
   -2.4610   23.4080  -29.7930 C   0  0  0  0  0  0  0  0  0  0  0  0
   -2.6280   24.7840  -29.7240 C   0  0  0  0  0  0  0  0  0  0  0  0
   -1.6360   25.6740  -29.3380 O   0  0  0  0  0  0  0  0  0  0  0  0
   -3.8740   25.1790  -30.0760 N   0  0  0  0  0  0  0  0  0  0  0  0
   -4.5020   24.0270  -30.3750 C   0  0  0  0  0  0  0  0  0  0  0  0
   -5.8210   23.8830  -30.7970 C   0  0  0  0  0  0  0  0  0  0  0  0
   -7.7600   18.9910  -32.0020 C   0  0  0  0  0  0  0  0  0  0  0  0
   -8.7490   19.2900  -31.0690 O   0  0  0  0  0  0  0  0  0  0  0  0
   -7.1570   17.7260  -32.0090 C   0  0  0  0  0  0  0  0  0  0  0  0
   -6.1640   17.4130  -32.9480 C   0  0  0  0  0  0  0  0  0  0  0  0
   -5.6130   16.0060  -33.0050 C   0  0  0  0  0  0  0  0  0  0  0  0
   -3.4743   16.2748  -31.8068 H   0  0  0  0  0  0  0  0  0  0  0  0
   -2.3059   15.7904  -33.0823 H   0  0  0  0  0  0  0  0  0  0  0  0
   -2.9999   17.4472  -33.0823 H   0  0  0  0  0  0  0  0  0  0  0  0
   -3.3934   16.4857  -35.5128 H   0  0  0  0  0  0  0  0  0  0  0  0
   -5.1776   16.1390  -35.6035 H   0  0  0  0  0  0  0  0  0  0  0  0
   -3.7733   18.6248  -34.5647 H   0  0  0  0  0  0  0  0  0  0  0  0
   -5.0221   18.4546  -35.8765 H   0  0  0  0  0  0  0  0  0  0  0  0
   -6.0603   20.4073  -34.6111 H   0  0  0  0  0  0  0  0  0  0  0  0
   -5.8130   20.4554  -31.1224 H   0  0  0  0  0  0  0  0  0  0  0  0
   -3.4407   20.7817  -30.3373 H   0  0  0  0  0  0  0  0  0  0  0  0
   -1.5574   22.8249  -29.5618 H   0  0  0  0  0  0  0  0  0  0  0  0
   -6.4742   24.7600  -30.9159 H   0  0  0  0  0  0  0  0  0  0  0  0
   -9.1250   20.2270  -30.9760 H   0  0  0  0  0  0  0  0  0  0  0  0
   -7.4657   16.9713  -31.2707 H   0  0  0  0  0  0  0  0  0  0  0  0
   -5.4756   15.6415  -31.9763 H   0  0  0  0  0  0  0  0  0  0  0  0
   -6.3342   15.3928  -33.5652 H   0  0  0  0  0  0  0  0  0  0  0  0
  1  2  1  0
  2  3  1  0
  3  4  1  0
  4  5  1  0
  5  6  2  0
  6  7  1  0
  7  8  1  0
  8  9  1  0
  9 10  2  0
  9 11  2  0
  9 12  1  0
 12 13  2  0
 13 14  1  0
 14 15  2  0
 15 16  1  0
 16 17  2  0
 17 18  1  0
 17 19  1  0
 19 20  1  0
 20 21  2  0
  7 22  2  0
 22 23  1  0
 22 24  1  0
 24 25  2  0
 25 26  1  0
 26  2  1  0
 25  5  1  0
 21 12  1  0
 20 15  1  0
  1 27  1  0
  1 28  1  0
  1 29  1  0
  3 30  1  0
  3 31  1  0
  4 32  1  0
  4 33  1  0
  6 34  1  0
 13 35  1  0
 14 36  1  0
 16 37  1  0
 21 38  1  0
 23 39  1  0
 24 40  1  0
 26 41  1  0
 26 42  1  0
M  CHG  3   8  -1  18  -1  19  -1
M  END
>  <UniqueID>  (9) 
9

>  <SMILES>  (9) 
CN1CCc2cc([N-]S(=O)(=O)c3ccc4cc([O-])[n-]c4c3)c(O)cc2C1

>  <Energy>  (9) 
86.00098679685777

>  <Genealogy>  (9) 
CN1CCc2cc([N-]S(=O)(=O)c3ccc4cc([O-])[n-]c4c3)c(O)cc2C1 (protonated)
CN1CCc2cc([N-]S(=O)(=O)c3ccc4cc([O-])[n-]c4c3)c(O)cc2C1 (3D coordinates assigned)
CN1CCc2cc([N-]S(=O)(=O)c3ccc4cc([O-])[n-]c4c3)c(O)cc2C1 (nonaromatic ring conformer: 86.00098679685777 kcal/mol)

>  <smiles>  (9) 
CN1CCc2cc(NS(=O)(=O)c3ccc4cc(O)[nH]c4c3)c(O)cc2C1

>  <score_type>  (9) 
oracle

>  <origin>  (9) 
adgpu

>  <m_score__min__energy>  (9) 
-12.42

>  <m_primary>  (9) 
energy

$$$$
9:0
     RDKit          3D

 45 47  0  0  0  0  0  0  0  0999 V2000
   -1.7860   20.0260  -26.2610 C   0  0  0  0  0  0  0  0  0  0  0  0
   -1.9200   20.5030  -27.6710 C   0  0  0  0  0  0  0  0  0  0  0  0
   -2.9370   20.1500  -28.4860 N   0  0  0  0  0  0  0  0  0  0  0  0
   -2.7390   20.7410  -29.6580 N   0  0  0  0  0  0  0  0  0  0  0  0
   -3.5980   20.5390  -30.8200 C   0  0  0  0  0  0  0  0  0  0  0  0
   -1.6110   21.4830  -29.6150 C   0  0  0  0  0  0  0  0  0  0  0  0
   -0.9760   22.1490  -30.7990 C   0  0  0  0  0  0  0  0  0  0  0  0
   -1.0510   21.3280  -28.3650 C   0  0  0  0  0  0  0  0  0  0  0  0
    0.2210   21.8250  -27.9430 N   0  0  0  0  0  0  0  0  0  0  0  0
    0.4520   23.4720  -27.4540 S   0  0  0  0  0  0  0  0  0  0  0  0
    1.3670   23.5100  -26.2620 O   0  0  0  0  0  0  0  0  0  0  0  0
    1.0750   24.2570  -28.5760 O   0  0  0  0  0  0  0  0  0  0  0  0
   -1.1030   24.1600  -26.9910 C   0  0  0  0  0  0  0  0  0  0  0  0
   -1.2140   25.0050  -25.8780 C   0  0  0  0  0  0  0  0  0  0  0  0
   -2.4500   25.5690  -25.5510 C   0  0  0  0  0  0  0  0  0  0  0  0
   -3.5800   25.2920  -26.3280 C   0  0  0  0  0  0  0  0  0  0  0  0
   -3.4840   24.4290  -27.4360 C   0  0  0  0  0  0  0  0  0  0  0  0
   -4.6170   24.1580  -28.2830 N   0  0  0  0  0  0  0  0  0  0  0  0
   -4.5890   24.2380  -29.7190 C   0  0  0  0  0  0  0  0  0  0  0  0
   -3.6390   24.8330  -30.2990 O   0  0  0  0  0  0  0  0  0  0  0  0
   -5.7050   23.6890  -30.5190 C   0  0  0  0  0  0  0  0  0  0  0  0
   -5.7830   23.9190  -31.9040 C   0  0  0  0  0  0  0  0  0  0  0  0
   -6.8600   23.3950  -32.6250 C   0  0  0  0  0  0  0  0  0  0  0  0
   -7.8430   22.6510  -31.9690 C   0  0  0  0  0  0  0  0  0  0  0  0
   -7.7310   22.4330  -30.5950 C   0  0  0  0  0  0  0  0  0  0  0  0
   -6.6730   22.9450  -29.9110 N   0  0  0  0  0  0  0  0  0  0  0  0
   -2.2360   23.8770  -27.7640 C   0  0  0  0  0  0  0  0  0  0  0  0
   -2.0177   20.8510  -25.5713 H   0  0  0  0  0  0  0  0  0  0  0  0
   -2.4855   19.1951  -26.0870 H   0  0  0  0  0  0  0  0  0  0  0  0
   -0.7561   19.6809  -26.0870 H   0  0  0  0  0  0  0  0  0  0  0  0
   -4.6179   20.2992  -30.4848 H   0  0  0  0  0  0  0  0  0  0  0  0
   -3.6175   21.4571  -31.4256 H   0  0  0  0  0  0  0  0  0  0  0  0
   -3.2063   19.7085  -31.4256 H   0  0  0  0  0  0  0  0  0  0  0  0
   -0.2557   22.9045  -30.4521 H   0  0  0  0  0  0  0  0  0  0  0  0
   -0.4532   21.3958  -31.4067 H   0  0  0  0  0  0  0  0  0  0  0  0
   -1.7533   22.6353  -31.4067 H   0  0  0  0  0  0  0  0  0  0  0  0
   -0.3289   25.2239  -25.2626 H   0  0  0  0  0  0  0  0  0  0  0  0
   -2.5349   26.2338  -24.6787 H   0  0  0  0  0  0  0  0  0  0  0  0
   -4.5468   25.7501  -26.0722 H   0  0  0  0  0  0  0  0  0  0  0  0
   -5.5290   23.9610  -27.8160 H   0  0  0  0  0  0  0  0  0  0  0  0
   -5.0048   24.5051  -32.4148 H   0  0  0  0  0  0  0  0  0  0  0  0
   -6.9331   23.5687  -33.7087 H   0  0  0  0  0  0  0  0  0  0  0  0
   -8.6964   22.2412  -32.5292 H   0  0  0  0  0  0  0  0  0  0  0  0
   -8.4976   21.8478  -30.0660 H   0  0  0  0  0  0  0  0  0  0  0  0
   -2.1468   23.2148  -28.6378 H   0  0  0  0  0  0  0  0  0  0  0  0
  1  2  1  0
  2  3  2  0
  3  4  1  0
  4  5  1  0
  4  6  1  0
  6  7  1  0
  6  8  2  0
  8  9  1  0
  9 10  1  0
 10 11  2  0
 10 12  2  0
 10 13  1  0
 13 14  2  0
 14 15  1  0
 15 16  2  0
 16 17  1  0
 17 18  1  0
 18 19  1  0
 19 20  2  0
 19 21  1  0
 21 22  2  0
 22 23  1  0
 23 24  2  0
 24 25  1  0
 25 26  2  0
 17 27  2  0
  8  2  1  0
 27 13  1  0
 26 21  1  0
  1 28  1  0
  1 29  1  0
  1 30  1  0
  5 31  1  0
  5 32  1  0
  5 33  1  0
  7 34  1  0
  7 35  1  0
  7 36  1  0
 14 37  1  0
 15 38  1  0
 16 39  1  0
 18 40  1  0
 22 41  1  0
 23 42  1  0
 24 43  1  0
 25 44  1  0
 27 45  1  0
M  CHG  1   9  -1
M  END
>  <UniqueID>  (10) 
10

>  <SMILES>  (10) 
Cc1nn(C)c(C)c1[N-]S(=O)(=O)c1cccc(NC(=O)c2ccccn2)c1

>  <Energy>  (10) 
86.82757535071866

>  <Genealogy>  (10) 
Cc1nn(C)c(C)c1[N-]S(=O)(=O)c1cccc(NC(=O)c2ccccn2)c1 (protonated)
Cc1nn(C)c(C)c1[N-]S(=O)(=O)c1cccc(NC(=O)c2ccccn2)c1 (3D coordinates assigned)
Cc1nn(C)c(C)c1[N-]S(=O)(=O)c1cccc(NC(=O)c2ccccn2)c1 (optimized conformer: 86.82757535071866 kcal/mol)

>  <smiles>  (10) 
Cc1nn(C)c(C)c1NS(=O)(=O)c1cccc(NC(=O)c2ccccn2)c1

>  <score_type>  (10) 
oracle

>  <origin>  (10) 
adgpu

>  <m_score__min__energy>  (10) 
-9.8699999999999992

>  <m_primary>  (10) 
energy

$$$$
10:0
     RDKit          3D

 55 58  0  0  0  0  0  0  0  0999 V2000
   -9.3320   18.2070  -31.4940 C   0  0  0  0  0  0  0  0  0  0  0  0
   -8.7000   19.2290  -32.3920 C   0  0  0  0  0  0  0  0  0  0  0  0
   -9.2900   20.3290  -32.5610 O   0  0  0  0  0  0  0  0  0  0  0  0
   -7.4600   18.9610  -33.0860 N   0  0  0  0  0  0  0  0  0  0  0  0
   -6.9340   17.5870  -33.1600 C   0  0  0  0  0  0  0  0  0  0  0  0
   -5.7760   17.4700  -34.1590 C   0  0  0  0  0  0  0  0  0  0  0  0
   -4.7930   18.5390  -33.9380 N   0  0  0  0  0  0  0  0  0  0  0  0
   -3.4170   18.3140  -34.3040 C   0  0  0  0  0  0  0  0  0  0  0  0
   -3.1490   17.5220  -35.2500 O   0  0  0  0  0  0  0  0  0  0  0  0
   -2.3030   18.9830  -33.5930 C   0  0  0  0  0  0  0  0  0  0  0  0
   -1.5830   20.0100  -34.2250 C   0  0  0  0  0  0  0  0  0  0  0  0
   -0.4950   20.6070  -33.5860 C   0  0  0  0  0  0  0  0  0  0  0  0
   -0.1130   20.1910  -32.3040 C   0  0  0  0  0  0  0  0  0  0  0  0
    0.9710   20.7930  -31.6650 O   0  0  0  0  0  0  0  0  0  0  0  0
   -0.8260   19.1710  -31.6570 C   0  0  0  0  0  0  0  0  0  0  0  0
   -0.4080   18.7520  -30.3520 N   0  0  0  0  0  0  0  0  0  0  0  0
   -0.1400   19.8140  -29.0060 S   0  0  0  0  0  0  0  0  0  0  0  0
   -0.5800   19.1820  -27.7150 O   0  0  0  0  0  0  0  0  0  0  0  0
    1.3350   20.0930  -28.9130 O   0  0  0  0  0  0  0  0  0  0  0  0
   -1.0160   21.3210  -29.2720 C   0  0  0  0  0  0  0  0  0  0  0  0
   -0.3810   22.5590  -29.0960 C   0  0  0  0  0  0  0  0  0  0  0  0
   -1.0820   23.7470  -29.3210 C   0  0  0  0  0  0  0  0  0  0  0  0
   -2.4190   23.7080  -29.7300 C   0  0  0  0  0  0  0  0  0  0  0  0
   -3.0640   22.4690  -29.9120 C   0  0  0  0  0  0  0  0  0  0  0  0
   -2.3570   21.2820  -29.6720 C   0  0  0  0  0  0  0  0  0  0  0  0
   -4.5360   22.4290  -30.2440 C   0  0  0  0  0  0  0  0  0  0  0  0
   -4.9590   23.6100  -31.1330 C   0  0  0  0  0  0  0  0  0  0  0  0
   -4.4130   24.9040  -30.6010 C   0  0  0  0  0  0  0  0  0  0  0  0
   -5.0520   25.9780  -30.7590 O   0  0  0  0  0  0  0  0  0  0  0  0
   -3.1250   24.9280  -29.9830 N   0  0  0  0  0  0  0  0  0  0  0  0
   -1.9060   18.5560  -32.3150 C   0  0  0  0  0  0  0  0  0  0  0  0
   -5.2490   19.9020  -33.6160 C   0  0  0  0  0  0  0  0  0  0  0  0
   -6.7630   20.0470  -33.7920 C   0  0  0  0  0  0  0  0  0  0  0  0
   -9.1599   18.4852  -30.4438 H   0  0  0  0  0  0  0  0  0  0  0  0
  -10.4136   18.1656  -31.6899 H   0  0  0  0  0  0  0  0  0  0  0  0
   -8.8859   17.2208  -31.6899 H   0  0  0  0  0  0  0  0  0  0  0  0
   -6.5753   17.2896  -32.1636 H   0  0  0  0  0  0  0  0  0  0  0  0
   -7.7466   16.9292  -33.5021 H   0  0  0  0  0  0  0  0  0  0  0  0
   -5.2844   16.4944  -34.0301 H   0  0  0  0  0  0  0  0  0  0  0  0
   -6.1769   17.5620  -35.1792 H   0  0  0  0  0  0  0  0  0  0  0  0
   -1.8783   20.3460  -35.2299 H   0  0  0  0  0  0  0  0  0  0  0  0
    0.0649   21.4077  -34.0913 H   0  0  0  0  0  0  0  0  0  0  0  0
    1.3040   20.4690  -30.7640 H   0  0  0  0  0  0  0  0  0  0  0  0
    0.6720   22.5951  -28.7799 H   0  0  0  0  0  0  0  0  0  0  0  0
   -0.5808   24.7154  -29.1760 H   0  0  0  0  0  0  0  0  0  0  0  0
   -2.8603   20.3122  -29.7991 H   0  0  0  0  0  0  0  0  0  0  0  0
   -4.7552   21.4899  -30.7733 H   0  0  0  0  0  0  0  0  0  0  0  0
   -5.0986   22.4954  -29.3011 H   0  0  0  0  0  0  0  0  0  0  0  0
   -4.5761   23.4492  -32.1516 H   0  0  0  0  0  0  0  0  0  0  0  0
   -6.0574   23.6686  -31.1402 H   0  0  0  0  0  0  0  0  0  0  0  0
   -2.4452   17.7324  -31.8241 H   0  0  0  0  0  0  0  0  0  0  0  0
   -4.9879   20.1282  -32.5717 H   0  0  0  0  0  0  0  0  0  0  0  0
   -4.7542   20.6018  -34.3055 H   0  0  0  0  0  0  0  0  0  0  0  0
   -7.0861   21.0147  -33.3806 H   0  0  0  0  0  0  0  0  0  0  0  0
   -7.0076   19.9954  -34.8632 H   0  0  0  0  0  0  0  0  0  0  0  0
  1  2  1  0
  2  3  2  0
  2  4  1  0
  4  5  1  0
  5  6  1  0
  6  7  1  0
  7  8  1  0
  8  9  2  0
  8 10  1  0
 10 11  2  0
 11 12  1  0
 12 13  2  0
 13 14  1  0
 13 15  1  0
 15 16  1  0
 16 17  1  0
 17 18  2  0
 17 19  2  0
 17 20  1  0
 20 21  2  0
 21 22  1  0
 22 23  2  0
 23 24  1  0
 24 25  2  0
 24 26  1  0
 26 27  1  0
 27 28  1  0
 28 29  2  0
 28 30  1  0
 15 31  2  0
  7 32  1  0
 32 33  1  0
 33  4  1  0
 31 10  1  0
 25 20  1  0
 30 23  1  0
  1 34  1  0
  1 35  1  0
  1 36  1  0
  5 37  1  0
  5 38  1  0
  6 39  1  0
  6 40  1  0
 11 41  1  0
 12 42  1  0
 14 43  1  0
 21 44  1  0
 22 45  1  0
 25 46  1  0
 26 47  1  0
 26 48  1  0
 27 49  1  0
 27 50  1  0
 31 51  1  0
 32 52  1  0
 32 53  1  0
 33 54  1  0
 33 55  1  0
M  CHG  2  16  -1  30  -1
M  END
>  <UniqueID>  (11) 
11

>  <SMILES>  (11) 
CC(=O)N1CCN(C(=O)c2ccc(O)c([N-]S(=O)(=O)c3ccc4c(c3)CCC(=O)[N-]4)c2)CC1

>  <Energy>  (11) 
66.42119342964465

>  <Genealogy>  (11) 
CC(=O)N1CCN(C(=O)c2ccc(O)c([N-]S(=O)(=O)c3ccc4c(c3)CCC(=O)[N-]4)c2)CC1 (protonated)
CC(=O)N1CCN(C(=O)c2ccc(O)c([N-]S(=O)(=O)c3ccc4c(c3)CCC(=O)[N-]4)c2)CC1 (3D coordinates assigned)
CC(=O)N1CCN(C(=O)c2ccc(O)c([N-]S(=O)(=O)c3ccc4c(c3)CCC(=O)[N-]4)c2)CC1 (nonaromatic ring conformer: 66.42119342964465 kcal/mol)

>  <smiles>  (11) 
CC(=O)N1CCN(C(=O)c2ccc(O)c(NS(=O)(=O)c3ccc4c(c3)CCC(=O)N4)c2)CC1

>  <score_type>  (11) 
oracle

>  <origin>  (11) 
adgpu

>  <m_score__min__energy>  (11) 
-11.65

>  <m_primary>  (11) 
energy

$$$$
11:0
     RDKit          3D

 55 59  0  0  0  0  0  0  0  0999 V2000
   -8.2370   22.8990  -32.4140 O   0  0  0  0  0  0  0  0  0  0  0  0
   -7.5660   22.2450  -31.2370 S   0  0  0  0  0  0  0  0  0  0  0  0
   -8.5350   22.2440  -30.0870 O   0  0  0  0  0  0  0  0  0  0  0  0
   -6.1200   23.1440  -30.7920 C   0  0  0  0  0  0  0  0  0  0  0  0
   -6.0100   24.5060  -31.1060 C   0  0  0  0  0  0  0  0  0  0  0  0
   -4.8700   25.2230  -30.7340 C   0  0  0  0  0  0  0  0  0  0  0  0
   -3.8370   24.5850  -30.0400 C   0  0  0  0  0  0  0  0  0  0  0  0
   -2.7040   25.2970  -29.6690 O   0  0  0  0  0  0  0  0  0  0  0  0
   -3.9460   23.2270  -29.7170 C   0  0  0  0  0  0  0  0  0  0  0  0
   -5.0860   22.5090  -30.0900 C   0  0  0  0  0  0  0  0  0  0  0  0
   -7.1120   20.5980  -31.6590 C   0  0  0  0  0  0  0  0  0  0  0  0
   -8.0820   19.6000  -31.7800 C   0  0  0  0  0  0  0  0  0  0  0  0
   -7.7000   18.2920  -32.0720 C   0  0  0  0  0  0  0  0  0  0  0  0
   -6.3520   17.9800  -32.2740 C   0  0  0  0  0  0  0  0  0  0  0  0
   -5.3650   18.9880  -32.2540 C   0  0  0  0  0  0  0  0  0  0  0  0
   -5.7630   20.2870  -31.8700 C   0  0  0  0  0  0  0  0  0  0  0  0
   -4.0080   18.7030  -32.7190 N   0  0  0  0  0  0  0  0  0  0  0  0
   -2.8870   19.5840  -32.3250 C   0  0  0  0  0  0  0  0  0  0  0  0
   -2.8160   20.9720  -33.0400 C   0  0  0  0  0  0  0  0  0  0  0  0
   -1.5660   21.2750  -33.7870 N   0  0  0  0  0  0  0  0  0  0  0  0
   -1.1880   20.1500  -34.6560 C   0  0  0  0  0  0  0  0  0  0  0  0
    0.3100   20.2550  -34.8930 C   0  0  0  0  0  0  0  0  0  0  0  0
    0.8350   21.1080  -33.7520 C   0  0  0  0  0  0  0  0  0  0  0  0
   -0.3900   21.4910  -32.9320 C   0  0  0  0  0  0  0  0  0  0  0  0
   -3.7630   17.5360  -33.5660 C   0  0  0  0  0  0  0  0  0  0  0  0
   -2.6220   17.4360  -34.3980 C   0  0  0  0  0  0  0  0  0  0  0  0
   -2.5120   16.4130  -35.3450 C   0  0  0  0  0  0  0  0  0  0  0  0
   -3.5200   15.4580  -35.4660 C   0  0  0  0  0  0  0  0  0  0  0  0
   -4.6060   15.4840  -34.5940 C   0  0  0  0  0  0  0  0  0  0  0  0
   -4.7060   16.4880  -33.6240 C   0  0  0  0  0  0  0  0  0  0  0  0
   -5.8740   16.2660  -32.2980 S   0  0  0  0  0  0  0  0  0  0  0  0
   -6.8236   25.0116  -31.6468 H   0  0  0  0  0  0  0  0  0  0  0  0
   -4.7849   26.2901  -30.9872 H   0  0  0  0  0  0  0  0  0  0  0  0
   -3.1345   22.7250  -29.1697 H   0  0  0  0  0  0  0  0  0  0  0  0
   -5.1719   21.4431  -29.8320 H   0  0  0  0  0  0  0  0  0  0  0  0
   -9.1456   19.8462  -31.6450 H   0  0  0  0  0  0  0  0  0  0  0  0
   -8.4619   17.5019  -32.1439 H   0  0  0  0  0  0  0  0  0  0  0  0
   -5.0005   21.0681  -31.7342 H   0  0  0  0  0  0  0  0  0  0  0  0
   -2.9684   19.7674  -31.2435 H   0  0  0  0  0  0  0  0  0  0  0  0
   -1.9734   19.0506  -32.6263 H   0  0  0  0  0  0  0  0  0  0  0  0
   -3.6515   21.0225  -33.7537 H   0  0  0  0  0  0  0  0  0  0  0  0
   -2.8573   21.7164  -32.2312 H   0  0  0  0  0  0  0  0  0  0  0  0
   -1.6890   22.1060  -34.4010 H   0  0  0  0  0  0  0  0  0  0  0  0
   -1.4266   19.1957  -34.1637 H   0  0  0  0  0  0  0  0  0  0  0  0
   -1.7393   20.1863  -35.6072 H   0  0  0  0  0  0  0  0  0  0  0  0
    0.7742   19.2579  -34.8744 H   0  0  0  0  0  0  0  0  0  0  0  0
    0.5410   20.6943  -35.8746 H   0  0  0  0  0  0  0  0  0  0  0  0
    1.5444   20.5339  -33.1379 H   0  0  0  0  0  0  0  0  0  0  0  0
    1.3730   21.9943  -34.1196 H   0  0  0  0  0  0  0  0  0  0  0  0
   -0.4554   20.8597  -32.0336 H   0  0  0  0  0  0  0  0  0  0  0  0
   -0.3305   22.5396  -32.6049 H   0  0  0  0  0  0  0  0  0  0  0  0
   -1.8113   18.1727  -34.2982 H   0  0  0  0  0  0  0  0  0  0  0  0
   -1.6272   16.3618  -35.9965 H   0  0  0  0  0  0  0  0  0  0  0  0
   -3.4581   14.6863  -36.2475 H   0  0  0  0  0  0  0  0  0  0  0  0
   -5.3873   14.7132  -34.6680 H   0  0  0  0  0  0  0  0  0  0  0  0
  1  2  2  0
  2  3  2  0
  2  4  1  0
  4  5  2  0
  5  6  1  0
  6  7  2  0
  7  8  1  0
  7  9  1  0
  9 10  2  0
  2 11  1  0
 11 12  2  0
 12 13  1  0
 13 14  2  0
 14 15  1  0
 15 16  2  0
 15 17  1  0
 17 18  1  0
 18 19  1  0
 19 20  1  0
 20 21  1  0
 21 22  1  0
 22 23  1  0
 23 24  1  0
 17 25  1  0
 25 26  2  0
 26 27  1  0
 27 28  2  0
 28 29  1  0
 29 30  2  0
 30 31  1  0
 10  4  1  0
 16 11  1  0
 24 20  1  0
 30 25  1  0
 31 14  1  0
  5 32  1  0
  6 33  1  0
  9 34  1  0
 10 35  1  0
 12 36  1  0
 13 37  1  0
 16 38  1  0
 18 39  1  0
 18 40  1  0
 19 41  1  0
 19 42  1  0
 20 43  1  0
 21 44  1  0
 21 45  1  0
 22 46  1  0
 22 47  1  0
 23 48  1  0
 23 49  1  0
 24 50  1  0
 24 51  1  0
 26 52  1  0
 27 53  1  0
 28 54  1  0
 29 55  1  0
M  CHG  2   8  -1  20   1
M  END
>  <UniqueID>  (12) 
12

>  <SMILES>  (12) 
O=S(=O)(c1ccc([O-])cc1)c1ccc2c(c1)N(CC[NH+]1CCCC1)c1ccccc1S2

>  <Energy>  (12) 
92.38160633388759

>  <Genealogy>  (12) 
O=S(=O)(c1ccc([O-])cc1)c1ccc2c(c1)N(CC[NH+]1CCCC1)c1ccccc1S2 (protonated)
O=S(=O)(c1ccc([O-])cc1)c1ccc2c(c1)N(CC[NH+]1CCCC1)c1ccccc1S2 (3D coordinates assigned)
O=S(=O)(c1ccc([O-])cc1)c1ccc2c(c1)N(CC[NH+]1CCCC1)c1ccccc1S2 (nonaromatic ring conformer: 92.38160633388759 kcal/mol)

>  <smiles>  (12) 
O=S(=O)(c1ccc(O)cc1)c1ccc2c(c1)N(CCN1CCCC1)c1ccccc1S2

>  <score_type>  (12) 
oracle

>  <origin>  (12) 
adgpu

>  <m_score__min__energy>  (12) 
-12.31

>  <m_primary>  (12) 
energy

$$$$
12:0
     RDKit          3D

 45 47  0  0  0  0  0  0  0  0999 V2000
   -9.6090   20.3220  -32.0070 C   0  0  0  0  0  0  0  0  0  0  0  0
   -8.3960   21.2140  -31.9540 C   0  0  0  0  0  0  0  0  0  0  0  0
   -8.5930   22.5990  -31.8550 C   0  0  0  0  0  0  0  0  0  0  0  0
   -7.5080   23.4680  -31.8010 C   0  0  0  0  0  0  0  0  0  0  0  0
   -6.2040   22.9800  -31.8730 C   0  0  0  0  0  0  0  0  0  0  0  0
   -5.1260   23.9280  -31.8300 N   0  0  0  0  0  0  0  0  0  0  0  0
   -4.9010   24.9340  -30.8340 C   0  0  0  0  0  0  0  0  0  0  0  0
   -5.8900   25.5580  -30.3710 O   0  0  0  0  0  0  0  0  0  0  0  0
   -3.5910   25.2570  -30.3440 N   0  0  0  0  0  0  0  0  0  0  0  0
   -2.7910   24.5020  -29.4220 C   0  0  0  0  0  0  0  0  0  0  0  0
   -3.1150   23.1800  -29.0640 C   0  0  0  0  0  0  0  0  0  0  0  0
   -2.3280   22.4860  -28.1400 C   0  0  0  0  0  0  0  0  0  0  0  0
   -2.7700   20.8580  -27.6610 Cl  0  0  0  0  0  0  0  0  0  0  0  0
   -1.1880   23.0890  -27.6010 C   0  0  0  0  0  0  0  0  0  0  0  0
   -0.8240   24.3780  -27.9990 C   0  0  0  0  0  0  0  0  0  0  0  0
   -1.6170   25.0790  -28.9140 C   0  0  0  0  0  0  0  0  0  0  0  0
   -1.2320   26.3530  -29.3180 O   0  0  0  0  0  0  0  0  0  0  0  0
   -5.9810   21.5910  -31.9260 C   0  0  0  0  0  0  0  0  0  0  0  0
   -4.6760   21.1100  -31.9300 O   0  0  0  0  0  0  0  0  0  0  0  0
   -7.0760   20.6940  -31.9500 C   0  0  0  0  0  0  0  0  0  0  0  0
   -6.8010   18.9320  -31.9860 S   0  0  0  0  0  0  0  0  0  0  0  0
   -5.4840   18.5720  -31.3570 O   0  0  0  0  0  0  0  0  0  0  0  0
   -7.8860   18.2650  -31.1870 O   0  0  0  0  0  0  0  0  0  0  0  0
   -6.8550   18.3560  -33.6390 N   0  0  0  0  0  0  0  0  0  0  0  0
   -5.7830   18.9510  -34.4560 C   0  0  0  0  0  0  0  0  0  0  0  0
   -4.4000   18.3290  -34.1460 C   0  0  0  0  0  0  0  0  0  0  0  0
   -4.4680   17.0630  -33.5120 O   0  0  0  0  0  0  0  0  0  0  0  0
   -5.4970   16.2860  -34.0790 C   0  0  0  0  0  0  0  0  0  0  0  0
   -6.8700   16.8780  -33.7140 C   0  0  0  0  0  0  0  0  0  0  0  0
   -9.9336   20.0833  -30.9834 H   0  0  0  0  0  0  0  0  0  0  0  0
  -10.4216   20.8393  -32.5381 H   0  0  0  0  0  0  0  0  0  0  0  0
   -9.3574   19.3922  -32.5381 H   0  0  0  0  0  0  0  0  0  0  0  0
   -9.6158   23.0023  -31.8197 H   0  0  0  0  0  0  0  0  0  0  0  0
   -7.6805   24.5497  -31.7006 H   0  0  0  0  0  0  0  0  0  0  0  0
   -3.9916   22.6904  -29.5133 H   0  0  0  0  0  0  0  0  0  0  0  0
   -0.5770   22.5485  -26.8631 H   0  0  0  0  0  0  0  0  0  0  0  0
    0.0868   24.8420  -27.5926 H   0  0  0  0  0  0  0  0  0  0  0  0
   -6.0150   18.7876  -35.5188 H   0  0  0  0  0  0  0  0  0  0  0  0
   -5.7324   20.0238  -34.2184 H   0  0  0  0  0  0  0  0  0  0  0  0
   -3.8524   18.2130  -35.0930 H   0  0  0  0  0  0  0  0  0  0  0  0
   -3.8938   19.0097  -33.4457 H   0  0  0  0  0  0  0  0  0  0  0  0
   -5.3845   16.2761  -35.1732 H   0  0  0  0  0  0  0  0  0  0  0  0
   -5.4315   15.2605  -33.6864 H   0  0  0  0  0  0  0  0  0  0  0  0
   -7.5992   16.5722  -34.4786 H   0  0  0  0  0  0  0  0  0  0  0  0
   -7.1404   16.4983  -32.7177 H   0  0  0  0  0  0  0  0  0  0  0  0
  1  2  1  0
  2  3  2  0
  3  4  1  0
  4  5  2  0
  5  6  1  0
  6  7  1  0
  7  8  2  0
  7  9  1  0
  9 10  1  0
 10 11  2  0
 11 12  1  0
 12 13  1  0
 12 14  2  0
 14 15  1  0
 15 16  2  0
 16 17  1  0
  5 18  1  0
 18 19  1  0
 18 20  2  0
 20 21  1  0
 21 22  2  0
 21 23  2  0
 21 24  1  0
 24 25  1  0
 25 26  1  0
 26 27  1  0
 27 28  1  0
 28 29  1  0
 20  2  1  0
 29 24  1  0
 16 10  1  0
  1 30  1  0
  1 31  1  0
  1 32  1  0
  3 33  1  0
  4 34  1  0
 11 35  1  0
 14 36  1  0
 15 37  1  0
 25 38  1  0
 25 39  1  0
 26 40  1  0
 26 41  1  0
 28 42  1  0
 28 43  1  0
 29 44  1  0
 29 45  1  0
M  CHG  4   6  -1   9  -1  17  -1  19  -1
M  END
>  <UniqueID>  (13) 
13

>  <SMILES>  (13) 
Cc1ccc([N-]C(=O)[N-]c2cc(Cl)ccc2[O-])c([O-])c1S(=O)(=O)N1CCOCC1

>  <Energy>  (13) 
67.08888650792997

>  <Genealogy>  (13) 
Cc1ccc([N-]C(=O)[N-]c2cc(Cl)ccc2[O-])c([O-])c1S(=O)(=O)N1CCOCC1 (protonated)
Cc1ccc([N-]C(=O)[N-]c2cc(Cl)ccc2[O-])c([O-])c1S(=O)(=O)N1CCOCC1 (3D coordinates assigned)
Cc1ccc([N-]C(=O)[N-]c2cc(Cl)ccc2[O-])c([O-])c1S(=O)(=O)N1CCOCC1 (nonaromatic ring conformer: 67.08888650792997 kcal/mol)

>  <smiles>  (13) 
Cc1ccc(NC(=O)Nc2cc(Cl)ccc2O)c(O)c1S(=O)(=O)N1CCOCC1

>  <score_type>  (13) 
oracle

>  <origin>  (13) 
adgpu

>  <m_score__min__energy>  (13) 
-15.470000000000001

>  <m_primary>  (13) 
energy

$$$$
13:0
     RDKit          3D

 56 59  0  0  0  0  0  0  0  0999 V2000
   -4.4730   24.5520  -27.3320 O   0  0  0  0  0  0  0  0  0  0  0  0
   -3.4740   24.4470  -28.0970 C   0  0  0  0  0  0  0  0  0  0  0  0
   -3.6740   24.1500  -29.4890 N   0  0  0  0  0  0  0  0  0  0  0  0
   -4.9500   23.7360  -30.0000 C   0  0  0  0  0  0  0  0  0  0  0  0
   -5.4240   24.2220  -31.2290 C   0  0  0  0  0  0  0  0  0  0  0  0
   -6.6440   23.7730  -31.7410 C   0  0  0  0  0  0  0  0  0  0  0  0
   -7.3980   22.8250  -31.0370 C   0  0  0  0  0  0  0  0  0  0  0  0
   -8.8820   22.1760  -31.7390 S   0  0  0  0  0  0  0  0  0  0  0  0
   -9.4850   23.2040  -32.6590 O   0  0  0  0  0  0  0  0  0  0  0  0
   -9.8730   21.8970  -30.6410 O   0  0  0  0  0  0  0  0  0  0  0  0
   -8.5760   20.7010  -32.6290 N   0  0  0  0  0  0  0  0  0  0  0  0
   -9.0660   19.5300  -31.8730 C   0  0  0  0  0  0  0  0  0  0  0  0
   -8.3750   18.2450  -32.3600 C   0  0  0  0  0  0  0  0  0  0  0  0
   -6.9620   18.2490  -32.1880 O   0  0  0  0  0  0  0  0  0  0  0  0
   -6.3920   19.5510  -32.1640 C   0  0  0  0  0  0  0  0  0  0  0  0
   -7.1550   20.5770  -33.0290 C   0  0  0  0  0  0  0  0  0  0  0  0
   -6.9470   22.3730  -29.7880 C   0  0  0  0  0  0  0  0  0  0  0  0
   -5.7340   22.8350  -29.2680 C   0  0  0  0  0  0  0  0  0  0  0  0
   -2.1170   24.6530  -27.5380 C   0  0  0  0  0  0  0  0  0  0  0  0
   -1.9530   25.0600  -26.2020 C   0  0  0  0  0  0  0  0  0  0  0  0
   -0.6750   25.1890  -25.6530 C   0  0  0  0  0  0  0  0  0  0  0  0
    0.4530   24.9080  -26.4270 C   0  0  0  0  0  0  0  0  0  0  0  0
    0.3050   24.5000  -27.7550 C   0  0  0  0  0  0  0  0  0  0  0  0
   -0.9730   24.3690  -28.3170 C   0  0  0  0  0  0  0  0  0  0  0  0
   -1.1210   24.0320  -29.7010 N   0  0  0  0  0  0  0  0  0  0  0  0
   -1.3860   22.4220  -30.2790 S   0  0  0  0  0  0  0  0  0  0  0  0
   -2.5960   22.3920  -31.1680 O   0  0  0  0  0  0  0  0  0  0  0  0
   -0.1830   21.9570  -31.0530 O   0  0  0  0  0  0  0  0  0  0  0  0
   -1.6310   21.3800  -28.8840 C   0  0  0  0  0  0  0  0  0  0  0  0
   -0.5220   20.8320  -28.2210 C   0  0  0  0  0  0  0  0  0  0  0  0
   -0.7080   19.9670  -27.1380 C   0  0  0  0  0  0  0  0  0  0  0  0
   -2.0010   19.6490  -26.7060 C   0  0  0  0  0  0  0  0  0  0  0  0
   -3.1090   20.1990  -27.3560 C   0  0  0  0  0  0  0  0  0  0  0  0
   -2.9260   21.0630  -28.4430 C   0  0  0  0  0  0  0  0  0  0  0  0
   -2.9000   24.3170  -30.1710 H   0  0  0  0  0  0  0  0  0  0  0  0
   -4.8323   24.9594  -31.7912 H   0  0  0  0  0  0  0  0  0  0  0  0
   -7.0137   24.1651  -32.6999 H   0  0  0  0  0  0  0  0  0  0  0  0
   -8.8506   19.6737  -30.8039 H   0  0  0  0  0  0  0  0  0  0  0  0
  -10.1500   19.4326  -32.0324 H   0  0  0  0  0  0  0  0  0  0  0  0
   -8.7898   17.3947  -31.7987 H   0  0  0  0  0  0  0  0  0  0  0  0
   -8.5648   18.1706  -33.4410 H   0  0  0  0  0  0  0  0  0  0  0  0
   -6.3867   19.9089  -31.1239 H   0  0  0  0  0  0  0  0  0  0  0  0
   -5.3785   19.4667  -32.5832 H   0  0  0  0  0  0  0  0  0  0  0  0
   -6.6705   21.5589  -32.9235 H   0  0  0  0  0  0  0  0  0  0  0  0
   -7.1274   20.2262  -34.0712 H   0  0  0  0  0  0  0  0  0  0  0  0
   -7.5497   21.6525  -29.2156 H   0  0  0  0  0  0  0  0  0  0  0  0
   -5.3941   22.4896  -28.2805 H   0  0  0  0  0  0  0  0  0  0  0  0
   -2.8371   25.2783  -25.5850 H   0  0  0  0  0  0  0  0  0  0  0  0
   -0.5568   25.5127  -24.6084 H   0  0  0  0  0  0  0  0  0  0  0  0
    1.4580   25.0079  -25.9911 H   0  0  0  0  0  0  0  0  0  0  0  0
    1.1953   24.2805  -28.3626 H   0  0  0  0  0  0  0  0  0  0  0  0
    0.4958   21.0835  -28.5540 H   0  0  0  0  0  0  0  0  0  0  0  0
    0.1638   19.5355  -26.6244 H   0  0  0  0  0  0  0  0  0  0  0  0
   -2.1447   18.9666  -25.8553 H   0  0  0  0  0  0  0  0  0  0  0  0
   -4.1252   19.9533  -27.0139 H   0  0  0  0  0  0  0  0  0  0  0  0
   -3.7997   21.4948  -28.9531 H   0  0  0  0  0  0  0  0  0  0  0  0
  1  2  2  0
  2  3  1  0
  3  4  1  0
  4  5  2  0
  5  6  1  0
  6  7  2  0
  7  8  1  0
  8  9  2  0
  8 10  2  0
  8 11  1  0
 11 12  1  0
 12 13  1  0
 13 14  1  0
 14 15  1  0
 15 16  1  0
  7 17  1  0
 17 18  2  0
  2 19  1  0
 19 20  2  0
 20 21  1  0
 21 22  2  0
 22 23  1  0
 23 24  2  0
 24 25  1  0
 25 26  1  0
 26 27  2  0
 26 28  2  0
 26 29  1  0
 29 30  2  0
 30 31  1  0
 31 32  2  0
 32 33  1  0
 33 34  2  0
 18  4  1  0
 24 19  1  0
 34 29  1  0
 16 11  1  0
  3 35  1  0
  5 36  1  0
  6 37  1  0
 12 38  1  0
 12 39  1  0
 13 40  1  0
 13 41  1  0
 15 42  1  0
 15 43  1  0
 16 44  1  0
 16 45  1  0
 17 46  1  0
 18 47  1  0
 20 48  1  0
 21 49  1  0
 22 50  1  0
 23 51  1  0
 30 52  1  0
 31 53  1  0
 32 54  1  0
 33 55  1  0
 34 56  1  0
M  CHG  1  25  -1
M  END
>  <UniqueID>  (14) 
14

>  <SMILES>  (14) 
O=C(Nc1ccc(S(=O)(=O)N2CCOCC2)cc1)c1ccccc1[N-]S(=O)(=O)c1ccccc1

>  <Energy>  (14) 
86.92713170489458

>  <Genealogy>  (14) 
O=C(Nc1ccc(S(=O)(=O)N2CCOCC2)cc1)c1ccccc1[N-]S(=O)(=O)c1ccccc1 (protonated)
O=C(Nc1ccc(S(=O)(=O)N2CCOCC2)cc1)c1ccccc1[N-]S(=O)(=O)c1ccccc1 (3D coordinates assigned)
O=C(Nc1ccc(S(=O)(=O)N2CCOCC2)cc1)c1ccccc1[N-]S(=O)(=O)c1ccccc1 (nonaromatic ring conformer: 86.92713170489458 kcal/mol)

>  <smiles>  (14) 
O=C(Nc1ccc(S(=O)(=O)N2CCOCC2)cc1)c1ccccc1NS(=O)(=O)c1ccccc1

>  <score_type>  (14) 
oracle

>  <origin>  (14) 
adgpu

>  <m_score__min__energy>  (14) 
-10.300000000000001

>  <m_primary>  (14) 
energy

$$$$
14:0
     RDKit          3D

 52 55  0  0  0  0  0  0  0  0999 V2000
   -3.7720   17.4110  -35.2990 O   0  0  0  0  0  0  0  0  0  0  0  0
   -3.7550   18.0600  -34.2180 C   0  0  0  0  0  0  0  0  0  0  0  0
   -5.0050   18.2030  -33.4310 C   0  0  0  0  0  0  0  0  0  0  0  0
   -5.8070   19.3480  -33.5960 C   0  0  0  0  0  0  0  0  0  0  0  0
   -6.9740   19.5190  -32.8440 C   0  0  0  0  0  0  0  0  0  0  0  0
   -7.7720   20.6870  -33.0520 N   0  0  0  0  0  0  0  0  0  0  0  0
   -8.1570   21.8220  -31.7990 S   0  0  0  0  0  0  0  0  0  0  0  0
   -8.5500   21.0650  -30.5620 O   0  0  0  0  0  0  0  0  0  0  0  0
   -9.3260   22.6600  -32.2350 O   0  0  0  0  0  0  0  0  0  0  0  0
   -6.7920   22.8690  -31.4160 C   0  0  0  0  0  0  0  0  0  0  0  0
   -5.4890   22.4760  -31.7560 C   0  0  0  0  0  0  0  0  0  0  0  0
   -4.4020   23.2910  -31.4270 C   0  0  0  0  0  0  0  0  0  0  0  0
   -4.6070   24.4990  -30.7550 C   0  0  0  0  0  0  0  0  0  0  0  0
   -3.5200   25.3010  -30.4280 O   0  0  0  0  0  0  0  0  0  0  0  0
   -5.9060   24.8990  -30.4120 C   0  0  0  0  0  0  0  0  0  0  0  0
   -6.1040   26.1040  -29.7410 O   0  0  0  0  0  0  0  0  0  0  0  0
   -6.9970   24.0820  -30.7440 C   0  0  0  0  0  0  0  0  0  0  0  0
   -7.3750   18.5180  -31.9500 C   0  0  0  0  0  0  0  0  0  0  0  0
   -6.5840   17.3810  -31.7710 C   0  0  0  0  0  0  0  0  0  0  0  0
   -5.4020   17.2200  -32.5010 C   0  0  0  0  0  0  0  0  0  0  0  0
   -4.6430   16.0700  -32.3090 O   0  0  0  0  0  0  0  0  0  0  0  0
   -2.5150   18.6290  -33.7550 N   0  0  0  0  0  0  0  0  0  0  0  0
   -1.2370   17.9720  -34.0450 C   0  0  0  0  0  0  0  0  0  0  0  0
   -0.4270   18.8330  -35.0160 C   0  0  0  0  0  0  0  0  0  0  0  0
   -0.3820   20.2210  -34.5390 N   0  0  0  0  0  0  0  0  0  0  0  0
    0.7950   21.0150  -34.7830 C   0  0  0  0  0  0  0  0  0  0  0  0
    2.0800   20.4660  -34.6310 C   0  0  0  0  0  0  0  0  0  0  0  0
    3.2000   21.2580  -34.8910 C   0  0  0  0  0  0  0  0  0  0  0  0
    3.0360   22.5820  -35.3030 C   0  0  0  0  0  0  0  0  0  0  0  0
    1.7470   23.0950  -35.4510 C   0  0  0  0  0  0  0  0  0  0  0  0
    0.6670   22.3080  -35.1940 N   0  0  0  0  0  0  0  0  0  0  0  0
   -1.6560   20.8760  -34.2000 C   0  0  0  0  0  0  0  0  0  0  0  0
   -2.4580   19.9990  -33.2350 C   0  0  0  0  0  0  0  0  0  0  0  0
   -5.5125   20.1174  -34.3249 H   0  0  0  0  0  0  0  0  0  0  0  0
   -5.3223   21.5247  -32.2825 H   0  0  0  0  0  0  0  0  0  0  0  0
   -3.3821   22.9805  -31.6979 H   0  0  0  0  0  0  0  0  0  0  0  0
   -5.3840   26.5080  -29.1530 H   0  0  0  0  0  0  0  0  0  0  0  0
   -8.0171   24.3944  -30.4760 H   0  0  0  0  0  0  0  0  0  0  0  0
   -8.3143   18.6276  -31.3881 H   0  0  0  0  0  0  0  0  0  0  0  0
   -6.8924   16.6078  -31.0519 H   0  0  0  0  0  0  0  0  0  0  0  0
   -0.6712   17.8429  -33.1105 H   0  0  0  0  0  0  0  0  0  0  0  0
   -1.4264   16.9882  -34.4992 H   0  0  0  0  0  0  0  0  0  0  0  0
    0.5974   18.4383  -35.0854 H   0  0  0  0  0  0  0  0  0  0  0  0
   -0.9048   18.8069  -36.0065 H   0  0  0  0  0  0  0  0  0  0  0  0
    2.2022   19.4210  -34.3099 H   0  0  0  0  0  0  0  0  0  0  0  0
    4.2102   20.8395  -34.7714 H   0  0  0  0  0  0  0  0  0  0  0  0
    3.9130   23.2134  -35.5085 H   0  0  0  0  0  0  0  0  0  0  0  0
    1.6037   24.1362  -35.7756 H   0  0  0  0  0  0  0  0  0  0  0  0
   -1.4509   21.8466  -33.7247 H   0  0  0  0  0  0  0  0  0  0  0  0
   -2.2398   21.0258  -35.1202 H   0  0  0  0  0  0  0  0  0  0  0  0
   -1.9704   19.9973  -32.2490 H   0  0  0  0  0  0  0  0  0  0  0  0
   -3.4785   20.3979  -33.1376 H   0  0  0  0  0  0  0  0  0  0  0  0
  1  2  2  0
  2  3  1  0
  3  4  2  0
  4  5  1  0
  5  6  1  0
  6  7  1  0
  7  8  2  0
  7  9  2  0
  7 10  1  0
 10 11  2  0
 11 12  1  0
 12 13  2  0
 13 14  1  0
 13 15  1  0
 15 16  1  0
 15 17  2  0
  5 18  2  0
 18 19  1  0
 19 20  2  0
 20 21  1  0
  2 22  1  0
 22 23  1  0
 23 24  1  0
 24 25  1  0
 25 26  1  0
 26 27  2  0
 27 28  1  0
 28 29  2  0
 29 30  1  0
 30 31  2  0
 25 32  1  0
 32 33  1  0
 20  3  1  0
 33 22  1  0
 17 10  1  0
 31 26  1  0
  4 34  1  0
 11 35  1  0
 12 36  1  0
 16 37  1  0
 17 38  1  0
 18 39  1  0
 19 40  1  0
 23 41  1  0
 23 42  1  0
 24 43  1  0
 24 44  1  0
 27 45  1  0
 28 46  1  0
 29 47  1  0
 30 48  1  0
 32 49  1  0
 32 50  1  0
 33 51  1  0
 33 52  1  0
M  CHG  3   6  -1  14  -1  21  -1
M  END
>  <UniqueID>  (15) 
15

>  <SMILES>  (15) 
O=C(c1cc([N-]S(=O)(=O)c2ccc([O-])c(O)c2)ccc1[O-])N1CCN(c2ccccn2)CC1

>  <Energy>  (15) 
74.00022339478535

>  <Genealogy>  (15) 
O=C(c1cc([N-]S(=O)(=O)c2ccc([O-])c(O)c2)ccc1[O-])N1CCN(c2ccccn2)CC1 (protonated)
O=C(c1cc([N-]S(=O)(=O)c2ccc([O-])c(O)c2)ccc1[O-])N1CCN(c2ccccn2)CC1 (3D coordinates assigned)
O=C(c1cc([N-]S(=O)(=O)c2ccc([O-])c(O)c2)ccc1[O-])N1CCN(c2ccccn2)CC1 (nonaromatic ring conformer: 74.00022339478535 kcal/mol)

>  <smiles>  (15) 
O=C(c1cc(NS(=O)(=O)c2ccc(O)c(O)c2)ccc1O)N1CCN(c2ccccn2)CC1

>  <score_type>  (15) 
oracle

>  <origin>  (15) 
adgpu

>  <m_score__min__energy>  (15) 
-12.720000000000001

>  <m_primary>  (15) 
energy

$$$$
15:0
     RDKit          3D

 60 63  0  0  0  0  0  0  0  0999 V2000
   -0.5450   22.0790  -30.1390 C   0  0  0  0  0  0  0  0  0  0  0  0
   -0.7510   21.0860  -31.2450 C   0  0  0  0  0  0  0  0  0  0  0  0
   -1.1600   21.5270  -32.5140 C   0  0  0  0  0  0  0  0  0  0  0  0
   -1.4120   20.6040  -33.5330 C   0  0  0  0  0  0  0  0  0  0  0  0
   -1.2690   19.2270  -33.2960 C   0  0  0  0  0  0  0  0  0  0  0  0
   -1.5830   18.2320  -34.3770 C   0  0  0  0  0  0  0  0  0  0  0  0
   -3.0250   18.1110  -34.5710 N   0  0  0  0  0  0  0  0  0  0  0  0
   -3.7480   16.9180  -34.2400 C   0  0  0  0  0  0  0  0  0  0  0  0
   -3.1310   15.8430  -34.0130 O   0  0  0  0  0  0  0  0  0  0  0  0
   -5.2400   16.9540  -34.1000 C   0  0  0  0  0  0  0  0  0  0  0  0
   -5.6600   17.2420  -32.6540 C   0  0  0  0  0  0  0  0  0  0  0  0
   -6.1590   18.6270  -32.4970 N   0  0  0  0  0  0  0  0  0  0  0  0
   -7.4950   18.8410  -32.3150 C   0  0  0  0  0  0  0  0  0  0  0  0
   -8.2920   17.8640  -32.2660 O   0  0  0  0  0  0  0  0  0  0  0  0
   -7.9900   20.1430  -32.1870 C   0  0  0  0  0  0  0  0  0  0  0  0
   -9.3680   20.3720  -32.0030 C   0  0  0  0  0  0  0  0  0  0  0  0
   -9.8570   21.6700  -31.8740 C   0  0  0  0  0  0  0  0  0  0  0  0
   -8.9860   22.7500  -31.9400 C   0  0  0  0  0  0  0  0  0  0  0  0
   -7.6190   22.5430  -32.1290 C   0  0  0  0  0  0  0  0  0  0  0  0
   -7.0840   21.2320  -32.2460 C   0  0  0  0  0  0  0  0  0  0  0  0
   -5.7340   20.9840  -32.4130 N   0  0  0  0  0  0  0  0  0  0  0  0
   -4.7160   22.0640  -32.4470 C   0  0  0  0  0  0  0  0  0  0  0  0
   -4.5270   22.6800  -31.0810 C   0  0  0  0  0  0  0  0  0  0  0  0
   -4.9770   23.9870  -30.8250 C   0  0  0  0  0  0  0  0  0  0  0  0
   -4.8360   24.5480  -29.5540 C   0  0  0  0  0  0  0  0  0  0  0  0
   -4.2460   23.8120  -28.5160 C   0  0  0  0  0  0  0  0  0  0  0  0
   -4.1380   24.4120  -27.1460 C   0  0  0  0  0  0  0  0  0  0  0  0
   -3.7860   22.5110  -28.7710 C   0  0  0  0  0  0  0  0  0  0  0  0
   -3.9230   21.9510  -30.0430 C   0  0  0  0  0  0  0  0  0  0  0  0
   -5.2910   19.6900  -32.5610 C   0  0  0  0  0  0  0  0  0  0  0  0
   -4.0620   19.4740  -32.7610 O   0  0  0  0  0  0  0  0  0  0  0  0
   -0.8630   18.7860  -32.0270 C   0  0  0  0  0  0  0  0  0  0  0  0
   -0.6140   19.7090  -31.0070 C   0  0  0  0  0  0  0  0  0  0  0  0
   -0.6499   21.5732  -29.1678 H   0  0  0  0  0  0  0  0  0  0  0  0
    0.4624   22.5134  -30.2192 H   0  0  0  0  0  0  0  0  0  0  0  0
   -1.2965   22.8783  -30.2192 H   0  0  0  0  0  0  0  0  0  0  0  0
   -1.2825   22.6030  -32.7068 H   0  0  0  0  0  0  0  0  0  0  0  0
   -1.7242   20.9582  -34.5265 H   0  0  0  0  0  0  0  0  0  0  0  0
   -1.1197   18.5641  -35.3178 H   0  0  0  0  0  0  0  0  0  0  0  0
   -1.1851   17.2510  -34.0780 H   0  0  0  0  0  0  0  0  0  0  0  0
   -3.5600   18.9730  -34.8170 H   0  0  0  0  0  0  0  0  0  0  0  0
   -5.6417   17.7427  -34.7531 H   0  0  0  0  0  0  0  0  0  0  0  0
   -5.6382   15.9694  -34.3863 H   0  0  0  0  0  0  0  0  0  0  0  0
   -6.4575   16.5406  -32.3675 H   0  0  0  0  0  0  0  0  0  0  0  0
   -4.7779   17.1189  -32.0085 H   0  0  0  0  0  0  0  0  0  0  0  0
  -10.0625   19.5200  -31.9609 H   0  0  0  0  0  0  0  0  0  0  0  0
  -10.9329   21.8397  -31.7199 H   0  0  0  0  0  0  0  0  0  0  0  0
   -9.3759   23.7740  -31.8428 H   0  0  0  0  0  0  0  0  0  0  0  0
   -6.9441   23.4096  -32.1884 H   0  0  0  0  0  0  0  0  0  0  0  0
   -3.7580   21.6434  -32.7865 H   0  0  0  0  0  0  0  0  0  0  0  0
   -5.0623   22.8473  -33.1373 H   0  0  0  0  0  0  0  0  0  0  0  0
   -5.4434   24.5718  -31.6315 H   0  0  0  0  0  0  0  0  0  0  0  0
   -5.1895   25.5725  -29.3659 H   0  0  0  0  0  0  0  0  0  0  0  0
   -4.2794   23.6262  -26.3894 H   0  0  0  0  0  0  0  0  0  0  0  0
   -3.1437   24.8659  -27.0218 H   0  0  0  0  0  0  0  0  0  0  0  0
   -4.9116   25.1841  -27.0218 H   0  0  0  0  0  0  0  0  0  0  0  0
   -3.3151   21.9293  -27.9649 H   0  0  0  0  0  0  0  0  0  0  0  0
   -3.5554   20.9319  -30.2335 H   0  0  0  0  0  0  0  0  0  0  0  0
   -0.7402   17.7100  -31.8342 H   0  0  0  0  0  0  0  0  0  0  0  0
   -0.3088   19.3542  -30.0115 H   0  0  0  0  0  0  0  0  0  0  0  0
  1  2  1  0
  2  3  2  0
  3  4  1  0
  4  5  2  0
  5  6  1  0
  6  7  1  0
  7  8  1  0
  8  9  2  0
  8 10  1  0
 10 11  1  0
 11 12  1  0
 12 13  1  0
 13 14  2  0
 13 15  1  0
 15 16  2  0
 16 17  1  0
 17 18  2  0
 18 19  1  0
 19 20  2  0
 20 21  1  0
 21 22  1  0
 22 23  1  0
 23 24  2  0
 24 25  1  0
 25 26  2  0
 26 27  1  0
 26 28  1  0
 28 29  2  0
 21 30  1  0
 30 31  2  0
  5 32  1  0
 32 33  2  0
 33  2  1  0
 30 12  1  0
 20 15  1  0
 29 23  1  0
  1 34  1  0
  1 35  1  0
  1 36  1  0
  3 37  1  0
  4 38  1  0
  6 39  1  0
  6 40  1  0
  7 41  1  0
 10 42  1  0
 10 43  1  0
 11 44  1  0
 11 45  1  0
 16 46  1  0
 17 47  1  0
 18 48  1  0
 19 49  1  0
 22 50  1  0
 22 51  1  0
 24 52  1  0
 25 53  1  0
 27 54  1  0
 27 55  1  0
 27 56  1  0
 28 57  1  0
 29 58  1  0
 32 59  1  0
 33 60  1  0
M  END
>  <UniqueID>  (16) 
16

>  <SMILES>  (16) 
Cc1ccc(CNC(=O)CCn2c(=O)c3ccccc3n(Cc3ccc(C)cc3)c2=O)cc1

>  <Energy>  (16) 
68.8877739145041

>  <Genealogy>  (16) 
Cc1ccc(CNC(=O)CCn2c(=O)c3ccccc3n(Cc3ccc(C)cc3)c2=O)cc1 (3D coordinates assigned)
Cc1ccc(CNC(=O)CCn2c(=O)c3ccccc3n(Cc3ccc(C)cc3)c2=O)cc1 (optimized conformer: 68.8877739145041 kcal/mol)

>  <smiles>  (16) 
Cc1ccc(CNC(=O)CCn2c(=O)c3ccccc3n(Cc3ccc(C)cc3)c2=O)cc1

>  <score_type>  (16) 
oracle

>  <origin>  (16) 
adgpu

>  <m_score__min__energy>  (16) 
-10.93

>  <m_primary>  (16) 
energy

$$$$
16:0
     RDKit          3D

 44 46  0  0  0  0  0  0  0  0999 V2000
   -5.6040   13.7700  -33.6600 C   0  0  0  0  0  0  0  0  0  0  0  0
   -5.7010   15.1850  -34.2280 C   0  0  1  0  0  0  0  0  0  0  0  0
   -6.8100   15.9850  -33.5240 C   0  0  0  0  0  0  0  0  0  0  0  0
   -6.6150   17.4210  -33.7540 N   0  0  0  0  0  0  0  0  0  0  0  0
   -7.3420   18.3870  -32.9670 C   0  0  0  0  0  0  0  0  0  0  0  0
   -8.7080   18.2110  -32.7050 C   0  0  0  0  0  0  0  0  0  0  0  0
   -9.3870   19.1280  -31.9680 N   0  0  0  0  0  0  0  0  0  0  0  0
   -8.7830   20.2370  -31.4680 C   0  0  0  0  0  0  0  0  0  0  0  0
   -7.4220   20.4770  -31.7140 C   0  0  0  0  0  0  0  0  0  0  0  0
   -6.7600   21.6860  -31.1680 C   0  0  0  0  0  0  0  0  0  0  0  0
   -7.3320   22.3480  -30.2570 O   0  0  0  0  0  0  0  0  0  0  0  0
   -5.5040   22.1420  -31.6970 N   0  0  0  0  0  0  0  0  0  0  0  0
   -4.6110   23.0190  -30.9900 C   0  0  0  0  0  0  0  0  0  0  0  0
   -4.9900   24.3510  -30.7640 C   0  0  0  0  0  0  0  0  0  0  0  0
   -4.1300   25.2290  -30.0980 C   0  0  0  0  0  0  0  0  0  0  0  0
   -2.8760   24.7900  -29.6640 C   0  0  0  0  0  0  0  0  0  0  0  0
   -2.0300   25.6720  -29.0010 O   0  0  0  0  0  0  0  0  0  0  0  0
   -2.4780   23.4680  -29.9030 C   0  0  0  0  0  0  0  0  0  0  0  0
   -0.8970   22.9050  -29.3830 Cl  0  0  0  0  0  0  0  0  0  0  0  0
   -3.3390   22.5880  -30.5690 C   0  0  0  0  0  0  0  0  0  0  0  0
   -6.7040   19.5320  -32.4670 C   0  0  0  0  0  0  0  0  0  0  0  0
   -5.7320   17.8440  -34.8470 C   0  0  0  0  0  0  0  0  0  0  0  0
   -4.3980   17.0410  -34.8130 C   0  0  1  0  0  0  0  0  0  0  0  0
   -3.2680   17.9050  -34.2540 C   0  0  0  0  0  0  0  0  0  0  0  0
   -4.4670   15.8490  -34.0390 O   0  0  0  0  0  0  0  0  0  0  0  0
   -5.6071   13.8151  -32.5609 H   0  0  0  0  0  0  0  0  0  0  0  0
   -6.4636   13.1767  -34.0051 H   0  0  0  0  0  0  0  0  0  0  0  0
   -4.6715   13.2995  -34.0051 H   0  0  0  0  0  0  0  0  0  0  0  0
   -5.9403   15.1143  -35.2993 H   0  0  0  0  0  0  0  0  0  0  0  0
   -6.7766   15.7811  -32.4436 H   0  0  0  0  0  0  0  0  0  0  0  0
   -7.7867   15.6833  -33.9301 H   0  0  0  0  0  0  0  0  0  0  0  0
   -9.2318   17.3271  -33.0977 H   0  0  0  0  0  0  0  0  0  0  0  0
   -9.3640   20.9516  -30.8665 H   0  0  0  0  0  0  0  0  0  0  0  0
   -5.2800   21.9130  -32.6920 H   0  0  0  0  0  0  0  0  0  0  0  0
   -5.9705   24.7067  -31.1133 H   0  0  0  0  0  0  0  0  0  0  0  0
   -4.4410   26.2681  -29.9150 H   0  0  0  0  0  0  0  0  0  0  0  0
   -3.0197   21.5537  -30.7645 H   0  0  0  0  0  0  0  0  0  0  0  0
   -5.6339   19.6914  -32.6657 H   0  0  0  0  0  0  0  0  0  0  0  0
   -5.5117   18.9164  -34.7399 H   0  0  0  0  0  0  0  0  0  0  0  0
   -6.2369   17.6542  -35.8057 H   0  0  0  0  0  0  0  0  0  0  0  0
   -4.2031   16.7550  -35.8571 H   0  0  0  0  0  0  0  0  0  0  0  0
   -3.2982   17.8819  -33.1547 H   0  0  0  0  0  0  0  0  0  0  0  0
   -2.3007   17.5140  -34.6025 H   0  0  0  0  0  0  0  0  0  0  0  0
   -3.3918   18.9410  -34.6025 H   0  0  0  0  0  0  0  0  0  0  0  0
  1  2  1  0
  2  3  1  0
  3  4  1  0
  4  5  1  0
  5  6  2  0
  6  7  1  0
  7  8  2  0
  8  9  1  0
  9 10  1  0
 10 11  2  0
 10 12  1  0
 12 13  1  0
 13 14  2  0
 14 15  1  0
 15 16  2  0
 16 17  1  0
 16 18  1  0
 18 19  1  0
 18 20  2  0
  9 21  2  0
  4 22  1  0
 22 23  1  0
 23 24  1  0
 23 25  1  0
 25  2  1  0
 21  5  1  0
 20 13  1  0
  1 26  1  0
  1 27  1  0
  1 28  1  0
  2 29  1  6
  3 30  1  0
  3 31  1  0
  6 32  1  0
  8 33  1  0
 12 34  1  0
 14 35  1  0
 15 36  1  0
 20 37  1  0
 21 38  1  0
 22 39  1  0
 22 40  1  0
 23 41  1  6
 24 42  1  0
 24 43  1  0
 24 44  1  0
M  CHG  1  17  -1
M  END
>  <UniqueID>  (17) 
17

>  <SMILES>  (17) 
C[C@@H]1CN(c2cncc(C(=O)Nc3ccc([O-])c(Cl)c3)c2)C[C@H](C)O1

>  <Energy>  (17) 
58.96410691579851

>  <Genealogy>  (17) 
CC1CN(c2cncc(C(=O)Nc3ccc([O-])c(Cl)c3)c2)CC(C)O1 (protonated)
C[C@@H]1CN(c2cncc(C(=O)Nc3ccc([O-])c(Cl)c3)c2)C[C@H](C)O1 (chirality)
C[C@@H]1CN(c2cncc(C(=O)Nc3ccc([O-])c(Cl)c3)c2)C[C@H](C)O1 (3D coordinates assigned)
C[C@@H]1CN(c2cncc(C(=O)Nc3ccc([O-])c(Cl)c3)c2)C[C@H](C)O1 (nonaromatic ring conformer: 58.96410691579851 kcal/mol)

>  <smiles>  (17) 
CC1CN(c2cncc(C(=O)Nc3ccc(O)c(Cl)c3)c2)CC(C)O1

>  <score_type>  (17) 
oracle

>  <origin>  (17) 
adgpu

>  <m_score__min__energy>  (17) 
-9.6699999999999999

>  <m_primary>  (17) 
energy

$$$$
17:0
     RDKit          3D

 48 51  0  0  0  0  0  0  0  0999 V2000
   -0.8120   27.7490  -24.9820 C   0  0  0  0  0  0  0  0  0  0  0  0
   -1.2150   26.7750  -26.0470 C   0  0  0  0  0  0  0  0  0  0  0  0
   -0.6620   26.8650  -27.3340 C   0  0  0  0  0  0  0  0  0  0  0  0
   -1.0660   25.9820  -28.3390 C   0  0  0  0  0  0  0  0  0  0  0  0
   -2.0220   24.9870  -28.0660 C   0  0  0  0  0  0  0  0  0  0  0  0
   -2.4910   24.0980  -29.0910 N   0  0  0  0  0  0  0  0  0  0  0  0
   -3.7340   23.8180  -29.3560 C   0  0  0  0  0  0  0  0  0  0  0  0
   -4.8070   24.3980  -28.7860 N   0  0  0  0  0  0  0  0  0  0  0  0
   -5.8780   23.8590  -29.3440 N   0  0  0  0  0  0  0  0  0  0  0  0
   -5.4110   22.9630  -30.2420 C   0  0  0  0  0  0  0  0  0  0  0  0
   -6.2680   22.1210  -31.1020 C   0  0  0  0  0  0  0  0  0  0  0  0
   -7.6580   22.3190  -31.1210 C   0  0  0  0  0  0  0  0  0  0  0  0
   -8.4720   21.5200  -31.9280 C   0  0  0  0  0  0  0  0  0  0  0  0
   -7.9080   20.5220  -32.7250 C   0  0  0  0  0  0  0  0  0  0  0  0
   -6.5220   20.3180  -32.7200 C   0  0  0  0  0  0  0  0  0  0  0  0
   -5.7990   19.0440  -33.7000 S   0  0  0  0  0  0  0  0  0  0  0  0
   -4.3070   19.0850  -33.5230 O   0  0  0  0  0  0  0  0  0  0  0  0
   -6.1170   19.2700  -35.1530 O   0  0  0  0  0  0  0  0  0  0  0  0
   -6.4090   17.4870  -33.1920 N   0  0  0  0  0  0  0  0  0  0  0  0
   -6.4200   16.5530  -34.3340 C   0  0  0  0  0  0  0  0  0  0  0  0
   -6.4420   15.0970  -33.8420 C   0  0  0  0  0  0  0  0  0  0  0  0
   -5.3260   14.7370  -33.0360 O   0  0  0  0  0  0  0  0  0  0  0  0
   -4.6780   15.8440  -32.4270 C   0  0  0  0  0  0  0  0  0  0  0  0
   -5.6480   16.9710  -32.0310 C   0  0  0  0  0  0  0  0  0  0  0  0
   -5.7060   21.1150  -31.9050 C   0  0  0  0  0  0  0  0  0  0  0  0
   -4.0950   22.9390  -30.2560 O   0  0  0  0  0  0  0  0  0  0  0  0
   -2.6090   24.9310  -26.7970 C   0  0  0  0  0  0  0  0  0  0  0  0
   -2.2070   25.8150  -25.7910 C   0  0  0  0  0  0  0  0  0  0  0  0
   -0.9952   27.3062  -23.9919 H   0  0  0  0  0  0  0  0  0  0  0  0
    0.2574   27.9845  -25.0862 H   0  0  0  0  0  0  0  0  0  0  0  0
   -1.4024   28.6713  -25.0862 H   0  0  0  0  0  0  0  0  0  0  0  0
    0.0931   27.6344  -27.5526 H   0  0  0  0  0  0  0  0  0  0  0  0
   -0.6347   26.0654  -29.3475 H   0  0  0  0  0  0  0  0  0  0  0  0
   -4.8370   25.1600  -28.0740 H   0  0  0  0  0  0  0  0  0  0  0  0
   -8.1078   23.1062  -30.4981 H   0  0  0  0  0  0  0  0  0  0  0  0
   -9.5606   21.6778  -31.9354 H   0  0  0  0  0  0  0  0  0  0  0  0
   -8.5530   19.8948  -33.3579 H   0  0  0  0  0  0  0  0  0  0  0  0
   -7.3142   16.7412  -34.9463 H   0  0  0  0  0  0  0  0  0  0  0  0
   -5.5097   16.7119  -34.9308 H   0  0  0  0  0  0  0  0  0  0  0  0
   -7.3574   14.9463  -33.2509 H   0  0  0  0  0  0  0  0  0  0  0  0
   -6.4036   14.4599  -34.7379 H   0  0  0  0  0  0  0  0  0  0  0  0
   -4.1621   15.4923  -31.5213 H   0  0  0  0  0  0  0  0  0  0  0  0
   -3.9775   16.2600  -33.1661 H   0  0  0  0  0  0  0  0  0  0  0  0
   -6.3581   16.5820  -31.2864 H   0  0  0  0  0  0  0  0  0  0  0  0
   -5.0530   17.8005  -31.6212 H   0  0  0  0  0  0  0  0  0  0  0  0
   -4.6183   20.9514  -31.8943 H   0  0  0  0  0  0  0  0  0  0  0  0
   -3.3919   24.1866  -26.5895 H   0  0  0  0  0  0  0  0  0  0  0  0
   -2.6699   25.7581  -24.7948 H   0  0  0  0  0  0  0  0  0  0  0  0
  1  2  1  0
  2  3  2  0
  3  4  1  0
  4  5  2  0
  5  6  1  0
  6  7  2  3
  7  8  1  0
  8  9  1  0
  9 10  2  0
 10 11  1  0
 11 12  2  0
 12 13  1  0
 13 14  2  0
 14 15  1  0
 15 16  1  0
 16 17  2  0
 16 18  2  0
 16 19  1  0
 19 20  1  0
 20 21  1  0
 21 22  1  0
 22 23  1  0
 23 24  1  0
 15 25  2  0
 10 26  1  0
  5 27  1  0
 27 28  2  0
 28  2  1  0
 26  7  1  0
 25 11  1  0
 24 19  1  0
  1 29  1  0
  1 30  1  0
  1 31  1  0
  3 32  1  0
  4 33  1  0
  8 34  1  0
 12 35  1  0
 13 36  1  0
 14 37  1  0
 20 38  1  0
 20 39  1  0
 21 40  1  0
 21 41  1  0
 23 42  1  0
 23 43  1  0
 24 44  1  0
 24 45  1  0
 25 46  1  0
 27 47  1  0
 28 48  1  0
M  END
>  <UniqueID>  (18) 
18

>  <SMILES>  (18) 
Cc1ccc(N=c2[nH]nc(-c3cccc(S(=O)(=O)N4CCOCC4)c3)o2)cc1

>  <Energy>  (18) 
106.18742036789574

>  <Genealogy>  (18) 
Cc1ccc(N=c2[nH]nc(-c3cccc(S(=O)(=O)N4CCOCC4)c3)o2)cc1 (3D coordinates assigned)
Cc1ccc(N=c2[nH]nc(-c3cccc(S(=O)(=O)N4CCOCC4)c3)o2)cc1 (nonaromatic ring conformer: 106.18742036789574 kcal/mol)

>  <smiles>  (18) 
Cc1ccc(N=c2[nH]nc(-c3cccc(S(=O)(=O)N4CCOCC4)c3)o2)cc1

>  <score_type>  (18) 
oracle

>  <origin>  (18) 
adgpu

>  <m_score__min__energy>  (18) 
-9.7200000000000006

>  <m_primary>  (18) 
energy

$$$$
18:0
     RDKit          3D

 44 47  0  0  0  0  0  0  0  0999 V2000
   -9.2170   20.7360  -32.7330 O   0  0  0  0  0  0  0  0  0  0  0  0
   -8.2450   20.4360  -31.6250 S   0  0  0  0  0  0  0  0  0  0  0  0
   -8.7770   19.2810  -30.8220 O   0  0  0  0  0  0  0  0  0  0  0  0
   -8.0970   21.8240  -30.5950 N   0  0  0  0  0  0  0  0  0  0  0  0
   -7.0110   22.7610  -30.6170 C   0  0  0  0  0  0  0  0  0  0  0  0
   -7.0730   23.8460  -31.5290 C   0  0  0  0  0  0  0  0  0  0  0  0
   -6.0380   24.8000  -31.5900 C   0  0  0  0  0  0  0  0  0  0  0  0
   -4.9570   24.6360  -30.7310 C   0  0  0  0  0  0  0  0  0  0  0  0
   -3.8650   25.4130  -30.6150 N   0  0  0  0  0  0  0  0  0  0  0  0
   -3.1010   24.8740  -29.6680 N   0  0  0  0  0  0  0  0  0  0  0  0
   -3.7030   23.7610  -29.1840 C   0  0  0  0  0  0  0  0  0  0  0  0
   -4.8890   23.5950  -29.8540 C   0  0  0  0  0  0  0  0  0  0  0  0
   -5.8900   22.6330  -29.7600 C   0  0  0  0  0  0  0  0  0  0  0  0
   -6.6680   19.9970  -32.2720 C   0  0  0  0  0  0  0  0  0  0  0  0
   -5.7660   20.9860  -32.6920 C   0  0  0  0  0  0  0  0  0  0  0  0
   -4.5040   20.6260  -33.1720 C   0  0  0  0  0  0  0  0  0  0  0  0
   -4.1350   19.2780  -33.2490 C   0  0  0  0  0  0  0  0  0  0  0  0
   -2.5260   18.8420  -33.8180 S   0  0  0  0  0  0  0  0  0  0  0  0
   -1.7670   18.1480  -32.7200 O   0  0  0  0  0  0  0  0  0  0  0  0
   -2.6660   17.8930  -34.9750 O   0  0  0  0  0  0  0  0  0  0  0  0
   -1.6780   20.2870  -34.3270 N   0  0  0  0  0  0  0  0  0  0  0  0
   -1.3640   21.1480  -33.1790 C   0  0  0  0  0  0  0  0  0  0  0  0
    0.0450   20.8000  -32.7110 C   0  0  0  0  0  0  0  0  0  0  0  0
    0.6720   20.0090  -33.8450 C   0  0  0  0  0  0  0  0  0  0  0  0
   -0.3850   19.9590  -34.9410 C   0  0  0  0  0  0  0  0  0  0  0  0
   -5.0410   18.2890  -32.8390 C   0  0  0  0  0  0  0  0  0  0  0  0
   -6.3000   18.6480  -32.3470 C   0  0  0  0  0  0  0  0  0  0  0  0
   -7.9410   23.9438  -32.1976 H   0  0  0  0  0  0  0  0  0  0  0  0
   -6.0835   25.6451  -32.2927 H   0  0  0  0  0  0  0  0  0  0  0  0
   -3.3101   23.1055  -28.3929 H   0  0  0  0  0  0  0  0  0  0  0  0
   -5.8136   21.8011  -29.0444 H   0  0  0  0  0  0  0  0  0  0  0  0
   -6.0527   22.0469  -32.6434 H   0  0  0  0  0  0  0  0  0  0  0  0
   -3.7969   21.4060  -33.4910 H   0  0  0  0  0  0  0  0  0  0  0  0
   -2.2830   20.8010  -35.0110 H   0  0  0  0  0  0  0  0  0  0  0  0
   -1.4085   22.2051  -33.4801 H   0  0  0  0  0  0  0  0  0  0  0  0
   -2.0899   20.9891  -32.3679 H   0  0  0  0  0  0  0  0  0  0  0  0
    0.6221   21.7163  -32.5179 H   0  0  0  0  0  0  0  0  0  0  0  0
    0.0304   20.2238  -31.7741 H   0  0  0  0  0  0  0  0  0  0  0  0
    1.5795   20.5129  -34.2091 H   0  0  0  0  0  0  0  0  0  0  0  0
    0.9721   19.0013  -33.5219 H   0  0  0  0  0  0  0  0  0  0  0  0
   -0.1461   20.6915  -35.7261 H   0  0  0  0  0  0  0  0  0  0  0  0
   -0.4180   18.9600  -35.4002 H   0  0  0  0  0  0  0  0  0  0  0  0
   -4.7604   17.2274  -32.9046 H   0  0  0  0  0  0  0  0  0  0  0  0
   -7.0030   17.8686  -32.0181 H   0  0  0  0  0  0  0  0  0  0  0  0
  1  2  2  0
  2  3  2  0
  2  4  1  0
  4  5  1  0
  5  6  2  0
  6  7  1  0
  7  8  2  0
  8  9  1  0
  9 10  1  0
 10 11  2  0
 11 12  1  0
 12 13  2  0
  2 14  1  0
 14 15  2  0
 15 16  1  0
 16 17  2  0
 17 18  1  0
 18 19  2  0
 18 20  2  0
 18 21  1  0
 21 22  1  0
 22 23  1  0
 23 24  1  0
 24 25  1  0
 17 26  1  0
 26 27  2  0
 13  5  1  0
 27 14  1  0
 12  8  1  0
 25 21  1  0
  6 28  1  0
  7 29  1  0
 11 30  1  0
 13 31  1  0
 15 32  1  0
 16 33  1  0
 21 34  1  0
 22 35  1  0
 22 36  1  0
 23 37  1  0
 23 38  1  0
 24 39  1  0
 24 40  1  0
 25 41  1  0
 25 42  1  0
 26 43  1  0
 27 44  1  0
M  CHG  3   4  -1   9  -1  21   1
M  END
>  <UniqueID>  (19) 
19

>  <SMILES>  (19) 
O=S(=O)([N-]c1ccc2[n-]ncc2c1)c1ccc(S(=O)(=O)[NH+]2CCCC2)cc1

>  <Energy>  (19) 
89.47472278273969

>  <Genealogy>  (19) 
O=S(=O)([N-]c1ccc2[n-]ncc2c1)c1ccc(S(=O)(=O)[NH+]2CCCC2)cc1 (protonated)
O=S(=O)([N-]c1ccc2[n-]ncc2c1)c1ccc(S(=O)(=O)[NH+]2CCCC2)cc1 (3D coordinates assigned)
O=S(=O)([N-]c1ccc2[n-]ncc2c1)c1ccc(S(=O)(=O)[NH+]2CCCC2)cc1 (nonaromatic ring conformer: 89.47472278273969 kcal/mol)

>  <smiles>  (19) 
O=S(=O)(Nc1ccc2[nH]ncc2c1)c1ccc(S(=O)(=O)N2CCCC2)cc1

>  <score_type>  (19) 
oracle

>  <origin>  (19) 
adgpu

>  <m_score__min__energy>  (19) 
-10.970000000000001

>  <m_primary>  (19) 
energy

$$$$
19:0
     RDKit          3D

 71 75  0  0  0  0  0  0  0  0999 V2000
   -4.5940   11.6210  -34.5590 C   0  0  0  0  0  0  0  0  0  0  0  0
   -5.2970   12.7830  -34.1350 O   0  0  0  0  0  0  0  0  0  0  0  0
   -4.7140   14.0480  -33.9740 C   0  0  0  0  0  0  0  0  0  0  0  0
   -3.8560   14.5190  -34.9770 C   0  0  0  0  0  0  0  0  0  0  0  0
   -3.2680   15.7810  -34.8730 C   0  0  0  0  0  0  0  0  0  0  0  0
   -3.5340   16.5930  -33.7620 C   0  0  0  0  0  0  0  0  0  0  0  0
   -2.8570   18.2120  -33.6510 S   0  0  0  0  0  0  0  0  0  0  0  0
   -2.0740   18.3010  -32.3710 O   0  0  0  0  0  0  0  0  0  0  0  0
   -1.9230   18.4900  -34.7950 O   0  0  0  0  0  0  0  0  0  0  0  0
   -4.1320   19.3990  -33.6480 N   0  0  0  0  0  0  0  0  0  0  0  0
   -5.4940   19.0210  -34.0400 C   0  0  0  0  0  0  0  0  0  0  0  0
   -6.4500   19.9270  -33.2430 C   0  0  0  0  0  0  0  0  0  0  0  0
   -5.5300   20.8530  -32.5350 C   0  0  0  0  0  0  0  0  0  0  0  0
   -5.8940   21.9500  -31.7590 C   0  0  0  0  0  0  0  0  0  0  0  0
   -4.8830   22.7650  -31.2310 C   0  0  0  0  0  0  0  0  0  0  0  0
   -5.2810   24.2230  -30.3300 S   0  0  0  0  0  0  0  0  0  0  0  0
   -6.6510   24.0780  -29.7260 O   0  0  0  0  0  0  0  0  0  0  0  0
   -5.2780   25.4280  -31.2290 O   0  0  0  0  0  0  0  0  0  0  0  0
   -4.0630   24.4310  -29.0750 C   0  0  0  0  0  0  0  0  0  0  0  0
   -4.4250   24.4540  -27.7220 C   0  0  0  0  0  0  0  0  0  0  0  0
   -3.4420   24.5380  -26.7320 C   0  0  0  0  0  0  0  0  0  0  0  0
   -2.0810   24.5790  -27.0850 C   0  0  0  0  0  0  0  0  0  0  0  0
   -1.0460   24.6320  -26.0280 C   0  0  0  0  0  0  0  0  0  0  0  0
   -0.2170   23.6830  -25.9430 O   0  0  0  0  0  0  0  0  0  0  0  0
   -0.9590   25.7340  -25.1010 N   0  0  0  0  0  0  0  0  0  0  0  0
   -1.4140   27.0830  -25.4620 C   0  0  0  0  0  0  0  0  0  0  0  0
   -0.3860   28.1490  -25.0350 C   0  0  0  0  0  0  0  0  0  0  0  0
    0.2870   27.8710  -23.7310 N   0  0  0  0  0  0  0  0  0  0  0  0
    1.7290   27.6120  -23.9180 C   0  0  0  0  0  0  0  0  0  0  0  0
   -0.3570   26.7930  -22.9460 C   0  0  0  0  0  0  0  0  0  0  0  0
   -0.4580   25.4860  -23.7450 C   0  0  0  0  0  0  0  0  0  0  0  0
   -1.7250   24.5830  -28.4430 C   0  0  0  0  0  0  0  0  0  0  0  0
   -2.7110   24.5040  -29.4310 C   0  0  0  0  0  0  0  0  0  0  0  0
   -3.5340   22.4780  -31.5120 C   0  0  0  0  0  0  0  0  0  0  0  0
   -3.1770   21.3770  -32.3160 C   0  0  0  0  0  0  0  0  0  0  0  0
   -1.7430   21.2190  -32.7250 C   0  0  0  0  0  0  0  0  0  0  0  0
   -4.2180   20.5390  -32.7890 C   0  0  0  0  0  0  0  0  0  0  0  0
   -4.3720   16.1190  -32.7460 C   0  0  0  0  0  0  0  0  0  0  0  0
   -4.9620   14.8570  -32.8490 C   0  0  0  0  0  0  0  0  0  0  0  0
   -4.2528   11.0571  -33.6783 H   0  0  0  0  0  0  0  0  0  0  0  0
   -5.2613   10.9888  -35.1633 H   0  0  0  0  0  0  0  0  0  0  0  0
   -3.7244   11.9187  -35.1633 H   0  0  0  0  0  0  0  0  0  0  0  0
   -3.6441   13.8891  -35.8535 H   0  0  0  0  0  0  0  0  0  0  0  0
   -2.5941   16.1390  -35.6652 H   0  0  0  0  0  0  0  0  0  0  0  0
   -5.6351   19.1773  -35.1197 H   0  0  0  0  0  0  0  0  0  0  0  0
   -5.6866   17.9588  -33.8288 H   0  0  0  0  0  0  0  0  0  0  0  0
   -7.1235   20.4782  -33.9158 H   0  0  0  0  0  0  0  0  0  0  0  0
   -7.1066   19.3667  -32.5611 H   0  0  0  0  0  0  0  0  0  0  0  0
   -6.9534   22.1728  -31.5641 H   0  0  0  0  0  0  0  0  0  0  0  0
   -5.4865   24.4058  -27.4377 H   0  0  0  0  0  0  0  0  0  0  0  0
   -3.7340   24.5722  -25.6720 H   0  0  0  0  0  0  0  0  0  0  0  0
   -1.5538   27.1352  -26.5518 H   0  0  0  0  0  0  0  0  0  0  0  0
   -2.3615   27.2831  -24.9402 H   0  0  0  0  0  0  0  0  0  0  0  0
    0.3875   28.2125  -25.8145 H   0  0  0  0  0  0  0  0  0  0  0  0
   -0.9436   29.0884  -24.9060 H   0  0  0  0  0  0  0  0  0  0  0  0
    0.2220   28.7410  -23.1490 H   0  0  0  0  0  0  0  0  0  0  0  0
    2.2162   27.5245  -22.9357 H   0  0  0  0  0  0  0  0  0  0  0  0
    1.8636   26.6753  -24.4788 H   0  0  0  0  0  0  0  0  0  0  0  0
    2.1811   28.4433  -24.4788 H   0  0  0  0  0  0  0  0  0  0  0  0
    0.2372   26.6102  -22.0385 H   0  0  0  0  0  0  0  0  0  0  0  0
   -1.3770   27.1179  -22.6930 H   0  0  0  0  0  0  0  0  0  0  0  0
    0.5391   25.0259  -23.8089 H   0  0  0  0  0  0  0  0  0  0  0  0
   -1.1610   24.8148  -23.2299 H   0  0  0  0  0  0  0  0  0  0  0  0
   -0.6654   24.6486  -28.7310 H   0  0  0  0  0  0  0  0  0  0  0  0
   -2.4232   24.4992  -30.4927 H   0  0  0  0  0  0  0  0  0  0  0  0
   -2.7457   23.1235  -31.0974 H   0  0  0  0  0  0  0  0  0  0  0  0
   -1.1112   21.1494  -31.8272 H   0  0  0  0  0  0  0  0  0  0  0  0
   -1.6313   20.3031  -33.3239 H   0  0  0  0  0  0  0  0  0  0  0  0
   -1.4346   22.0886  -33.3239 H   0  0  0  0  0  0  0  0  0  0  0  0
   -4.5670   16.7436  -31.8618 H   0  0  0  0  0  0  0  0  0  0  0  0
   -5.6228   14.4941  -32.0480 H   0  0  0  0  0  0  0  0  0  0  0  0
  1  2  1  0
  2  3  1  0
  3  4  2  0
  4  5  1  0
  5  6  2  0
  6  7  1  0
  7  8  2  0
  7  9  2  0
  7 10  1  0
 10 11  1  0
 11 12  1  0
 12 13  1  0
 13 14  2  0
 14 15  1  0
 15 16  1  0
 16 17  2  0
 16 18  2  0
 16 19  1  0
 19 20  2  0
 20 21  1  0
 21 22  2  0
 22 23  1  0
 23 24  2  0
 23 25  1  0
 25 26  1  0
 26 27  1  0
 27 28  1  0
 28 29  1  0
 28 30  1  0
 30 31  1  0
 22 32  1  0
 32 33  2  0
 15 34  2  0
 34 35  1  0
 35 36  1  0
 35 37  2  0
  6 38  1  0
 38 39  2  0
 39  3  1  0
 37 10  1  0
 37 13  1  0
 33 19  1  0
 31 25  1  0
  1 40  1  0
  1 41  1  0
  1 42  1  0
  4 43  1  0
  5 44  1  0
 11 45  1  0
 11 46  1  0
 12 47  1  0
 12 48  1  0
 14 49  1  0
 20 50  1  0
 21 51  1  0
 26 52  1  0
 26 53  1  0
 27 54  1  0
 27 55  1  0
 28 56  1  0
 29 57  1  0
 29 58  1  0
 29 59  1  0
 30 60  1  0
 30 61  1  0
 31 62  1  0
 31 63  1  0
 32 64  1  0
 33 65  1  0
 34 66  1  0
 36 67  1  0
 36 68  1  0
 36 69  1  0
 38 70  1  0
 39 71  1  0
M  CHG  1  28   1
M  END
>  <UniqueID>  (20) 
20

>  <SMILES>  (20) 
COc1ccc(S(=O)(=O)N2CCc3cc(S(=O)(=O)c4ccc(C(=O)N5CC[NH+](C)CC5)cc4)cc(C)c32)cc1

>  <Energy>  (20) 
109.55780272249493

>  <Genealogy>  (20) 
COc1ccc(S(=O)(=O)N2CCc3cc(S(=O)(=O)c4ccc(C(=O)N5CC[NH+](C)CC5)cc4)cc(C)c32)cc1 (protonated)
COc1ccc(S(=O)(=O)N2CCc3cc(S(=O)(=O)c4ccc(C(=O)N5CC[NH+](C)CC5)cc4)cc(C)c32)cc1 (3D coordinates assigned)
COc1ccc(S(=O)(=O)N2CCc3cc(S(=O)(=O)c4ccc(C(=O)N5CC[NH+](C)CC5)cc4)cc(C)c32)cc1 (nonaromatic ring conformer: 109.55780272249493 kcal/mol)

>  <smiles>  (20) 
COc1ccc(S(=O)(=O)N2CCc3cc(S(=O)(=O)c4ccc(C(=O)N5CCN(C)CC5)cc4)cc(C)c32)cc1

>  <score_type>  (20) 
oracle

>  <origin>  (20) 
adgpu

>  <m_score__min__energy>  (20) 
-11.630000000000001

>  <m_primary>  (20) 
energy

$$$$
20:0
     RDKit          3D

 59 62  0  0  0  0  0  0  0  0999 V2000
   -7.2430   15.2010  -34.4950 C   0  0  0  0  0  0  0  0  0  0  0  0
   -6.6030   16.4040  -33.9410 N   0  0  0  0  0  0  0  0  0  0  0  0
   -5.8620   16.0810  -32.7110 C   0  0  0  0  0  0  0  0  0  0  0  0
   -5.3690   17.3740  -32.0310 C   0  0  0  0  0  0  0  0  0  0  0  0
   -5.1700   18.4940  -32.9770 N   0  0  0  0  0  0  0  0  0  0  0  0
   -6.5740   19.5450  -33.0660 S   0  0  0  0  0  0  0  0  0  0  0  0
   -6.7900   20.0190  -34.4760 O   0  0  0  0  0  0  0  0  0  0  0  0
   -7.8160   18.8320  -32.6060 O   0  0  0  0  0  0  0  0  0  0  0  0
   -6.2880   20.9420  -32.0360 C   0  0  0  0  0  0  0  0  0  0  0  0
   -4.9790   21.3440  -31.7300 C   0  0  0  0  0  0  0  0  0  0  0  0
   -4.7580   22.5170  -31.0040 C   0  0  0  0  0  0  0  0  0  0  0  0
   -5.8420   23.3000  -30.5800 C   0  0  0  0  0  0  0  0  0  0  0  0
   -5.5410   24.8890  -29.8790 S   0  0  0  0  0  0  0  0  0  0  0  0
   -4.9360   25.8130  -30.8980 O   0  0  0  0  0  0  0  0  0  0  0  0
   -6.8480   25.4640  -29.4090 O   0  0  0  0  0  0  0  0  0  0  0  0
   -4.4530   24.7440  -28.5320 N   0  0  0  0  0  0  0  0  0  0  0  0
   -3.3180   23.8600  -28.5340 C   0  0  0  0  0  0  0  0  0  0  0  0
   -3.4480   22.5150  -28.1430 C   0  0  0  0  0  0  0  0  0  0  0  0
   -2.3280   21.6770  -28.0650 C   0  0  0  0  0  0  0  0  0  0  0  0
   -1.0550   22.1790  -28.4040 C   0  0  0  0  0  0  0  0  0  0  0  0
   -0.9350   23.4980  -28.8640 C   0  0  0  0  0  0  0  0  0  0  0  0
   -2.0540   24.3390  -28.9180 C   0  0  0  0  0  0  0  0  0  0  0  0
   -1.8970   25.6560  -29.3410 O   0  0  0  0  0  0  0  0  0  0  0  0
    0.1520   21.2710  -28.4100 C   0  0  0  0  0  0  0  0  0  0  0  0
   -0.0380   20.1080  -27.5190 N   0  0  0  0  0  0  0  0  0  0  0  0
    1.1100   19.1940  -27.6330 C   0  0  0  0  0  0  0  0  0  0  0  0
   -1.2860   19.4030  -27.8620 C   0  0  0  0  0  0  0  0  0  0  0  0
   -2.4850   20.2820  -27.5110 C   0  0  0  0  0  0  0  0  0  0  0  0
   -7.1490   22.8740  -30.8500 C   0  0  0  0  0  0  0  0  0  0  0  0
   -7.3680   21.7040  -31.5810 C   0  0  0  0  0  0  0  0  0  0  0  0
   -4.7310   18.0360  -34.3060 C   0  0  0  0  0  0  0  0  0  0  0  0
   -5.7160   17.0310  -34.9430 C   0  0  0  0  0  0  0  0  0  0  0  0
   -7.5860   14.5563  -33.6724 H   0  0  0  0  0  0  0  0  0  0  0  0
   -8.1037   15.4954  -35.1135 H   0  0  0  0  0  0  0  0  0  0  0  0
   -6.5179   14.6517  -35.1135 H   0  0  0  0  0  0  0  0  0  0  0  0
   -6.5234   15.5369  -32.0207 H   0  0  0  0  0  0  0  0  0  0  0  0
   -4.9932   15.4574  -32.9687 H   0  0  0  0  0  0  0  0  0  0  0  0
   -6.1129   17.6791  -31.2804 H   0  0  0  0  0  0  0  0  0  0  0  0
   -4.3910   17.1518  -31.5792 H   0  0  0  0  0  0  0  0  0  0  0  0
   -4.1255   20.7347  -32.0622 H   0  0  0  0  0  0  0  0  0  0  0  0
   -3.7304   22.8277  -30.7640 H   0  0  0  0  0  0  0  0  0  0  0  0
   -4.7350   25.2120  -27.6440 H   0  0  0  0  0  0  0  0  0  0  0  0
   -4.4426   22.1158  -27.8951 H   0  0  0  0  0  0  0  0  0  0  0  0
    0.0468   23.8759  -29.1854 H   0  0  0  0  0  0  0  0  0  0  0  0
    0.3228   20.9111  -29.4353 H   0  0  0  0  0  0  0  0  0  0  0  0
    1.0166   21.8455  -28.0462 H   0  0  0  0  0  0  0  0  0  0  0  0
    1.4588   18.9163  -26.6274 H   0  0  0  0  0  0  0  0  0  0  0  0
    0.8051   18.2887  -28.1784 H   0  0  0  0  0  0  0  0  0  0  0  0
    1.9240   19.6940  -28.1784 H   0  0  0  0  0  0  0  0  0  0  0  0
   -1.2972   19.1820  -28.9395 H   0  0  0  0  0  0  0  0  0  0  0  0
   -1.3429   18.4636  -27.2925 H   0  0  0  0  0  0  0  0  0  0  0  0
   -3.3951   19.8302  -27.9324 H   0  0  0  0  0  0  0  0  0  0  0  0
   -2.5538   20.3511  -26.4153 H   0  0  0  0  0  0  0  0  0  0  0  0
   -8.0043   23.4619  -30.4857 H   0  0  0  0  0  0  0  0  0  0  0  0
   -8.3963   21.3804  -31.7999 H   0  0  0  0  0  0  0  0  0  0  0  0
   -4.6419   18.9099  -34.9681 H   0  0  0  0  0  0  0  0  0  0  0  0
   -3.7663   17.5227  -34.1797 H   0  0  0  0  0  0  0  0  0  0  0  0
   -6.3354   17.5619  -35.6809 H   0  0  0  0  0  0  0  0  0  0  0  0
   -5.1244   16.2329  -35.4153 H   0  0  0  0  0  0  0  0  0  0  0  0
  1  2  1  0
  2  3  1  0
  3  4  1  0
  4  5  1  0
  5  6  1  0
  6  7  2  0
  6  8  2  0
  6  9  1  0
  9 10  2  0
 10 11  1  0
 11 12  2  0
 12 13  1  0
 13 14  2  0
 13 15  2  0
 13 16  1  0
 16 17  1  0
 17 18  2  0
 18 19  1  0
 19 20  2  0
 20 21  1  0
 21 22  2  0
 22 23  1  0
 20 24  1  0
 24 25  1  0
 25 26  1  0
 25 27  1  0
 27 28  1  0
 12 29  1  0
 29 30  2  0
  5 31  1  0
 31 32  1  0
 32  2  1  0
 30  9  1  0
 22 17  1  0
 28 19  1  0
  1 33  1  0
  1 34  1  0
  1 35  1  0
  3 36  1  0
  3 37  1  0
  4 38  1  0
  4 39  1  0
 10 40  1  0
 11 41  1  0
 16 42  1  0
 18 43  1  0
 21 44  1  0
 24 45  1  0
 24 46  1  0
 26 47  1  0
 26 48  1  0
 26 49  1  0
 27 50  1  0
 27 51  1  0
 28 52  1  0
 28 53  1  0
 29 54  1  0
 30 55  1  0
 31 56  1  0
 31 57  1  0
 32 58  1  0
 32 59  1  0
M  CHG  1  23  -1
M  END
>  <UniqueID>  (21) 
21

>  <SMILES>  (21) 
CN1CCN(S(=O)(=O)c2ccc(S(=O)(=O)Nc3cc4c(cc3[O-])CN(C)CC4)cc2)CC1

>  <Energy>  (21) 
74.58540171058678

>  <Genealogy>  (21) 
CN1CCN(S(=O)(=O)c2ccc(S(=O)(=O)Nc3cc4c(cc3[O-])CN(C)CC4)cc2)CC1 (protonated)
CN1CCN(S(=O)(=O)c2ccc(S(=O)(=O)Nc3cc4c(cc3[O-])CN(C)CC4)cc2)CC1 (3D coordinates assigned)
CN1CCN(S(=O)(=O)c2ccc(S(=O)(=O)Nc3cc4c(cc3[O-])CN(C)CC4)cc2)CC1 (nonaromatic ring conformer: 74.58540171058678 kcal/mol)

>  <smiles>  (21) 
CN1CCN(S(=O)(=O)c2ccc(S(=O)(=O)Nc3cc4c(cc3O)CN(C)CC4)cc2)CC1

>  <score_type>  (21) 
oracle

>  <origin>  (21) 
adgpu

>  <m_score__min__energy>  (21) 
-14.720000000000001

>  <m_primary>  (21) 
energy

$$$$
21:0
     RDKit          3D

 57 60  0  0  0  0  0  0  0  0999 V2000
   -3.6470   21.8320  -30.8900 C   0  0  0  0  0  0  0  0  0  0  0  0
   -4.9880   22.4660  -31.1880 C   0  0  0  0  0  0  0  0  0  0  0  0
   -5.2230   23.8400  -30.8950 C   0  0  0  0  0  0  0  0  0  0  0  0
   -4.1450   24.7590  -30.4530 C   0  0  0  0  0  0  0  0  0  0  0  0
   -4.2880   26.0060  -30.5760 O   0  0  0  0  0  0  0  0  0  0  0  0
   -2.9450   24.2680  -29.9490 O   0  0  0  0  0  0  0  0  0  0  0  0
   -6.5190   24.3630  -31.0410 C   0  0  0  0  0  0  0  0  0  0  0  0
   -7.5610   23.5670  -31.5050 C   0  0  0  0  0  0  0  0  0  0  0  0
   -7.3260   22.2410  -31.8570 C   0  0  0  0  0  0  0  0  0  0  0  0
   -6.0470   21.6810  -31.7230 C   0  0  0  0  0  0  0  0  0  0  0  0
   -5.8490   20.2830  -32.1770 C   0  0  0  0  0  0  0  0  0  0  0  0
   -6.5580   19.2320  -31.5720 C   0  0  0  0  0  0  0  0  0  0  0  0
   -6.3990   17.9190  -32.0260 C   0  0  0  0  0  0  0  0  0  0  0  0
   -5.5360   17.6410  -33.0960 C   0  0  0  0  0  0  0  0  0  0  0  0
   -5.3530   15.9940  -33.6920 S   0  0  0  0  0  0  0  0  0  0  0  0
   -5.3440   15.0430  -32.5260 O   0  0  0  0  0  0  0  0  0  0  0  0
   -6.5260   15.6580  -34.5700 O   0  0  0  0  0  0  0  0  0  0  0  0
   -3.8890   15.7810  -34.5970 N   0  0  0  0  0  0  0  0  0  0  0  0
   -2.6220   16.3040  -34.1940 C   0  0  0  0  0  0  0  0  0  0  0  0
   -2.1180   17.4730  -34.7790 C   0  0  0  0  0  0  0  0  0  0  0  0
   -0.8790   17.9980  -34.3800 C   0  0  0  0  0  0  0  0  0  0  0  0
   -0.1420   17.3440  -33.3700 C   0  0  0  0  0  0  0  0  0  0  0  0
   -0.6700   16.1980  -32.7570 C   0  0  0  0  0  0  0  0  0  0  0  0
   -1.9020   15.6780  -33.1610 C   0  0  0  0  0  0  0  0  0  0  0  0
   -2.3870   14.5320  -32.5300 O   0  0  0  0  0  0  0  0  0  0  0  0
    1.1670   17.9210  -32.8940 C   0  0  0  0  0  0  0  0  0  0  0  0
    0.9780   19.3180  -32.2730 C   0  0  0  0  0  0  0  0  0  0  0  0
    1.0370   20.4110  -33.2730 N   0  0  0  0  0  0  0  0  0  0  0  0
    2.2340   20.2410  -34.1130 C   0  0  0  0  0  0  0  0  0  0  0  0
   -0.1770   20.4660  -34.1220 C   0  0  0  0  0  0  0  0  0  0  0  0
   -0.3280   19.2390  -35.0540 C   0  0  0  0  0  0  0  0  0  0  0  0
   -4.8240   18.6870  -33.6990 C   0  0  0  0  0  0  0  0  0  0  0  0
   -4.9820   20.0000  -33.2470 C   0  0  0  0  0  0  0  0  0  0  0  0
   -3.5067   21.7657  -29.8010 H   0  0  0  0  0  0  0  0  0  0  0  0
   -3.6136   20.8227  -31.3262 H   0  0  0  0  0  0  0  0  0  0  0  0
   -2.8458   22.4467  -31.3262 H   0  0  0  0  0  0  0  0  0  0  0  0
   -6.7119   25.4153  -30.7851 H   0  0  0  0  0  0  0  0  0  0  0  0
   -8.5739   23.9867  -31.5940 H   0  0  0  0  0  0  0  0  0  0  0  0
   -8.1517   21.6260  -32.2442 H   0  0  0  0  0  0  0  0  0  0  0  0
   -7.2419   19.4430  -30.7367 H   0  0  0  0  0  0  0  0  0  0  0  0
   -6.9529   17.1011  -31.5421 H   0  0  0  0  0  0  0  0  0  0  0  0
   -2.6997   17.9850  -35.5596 H   0  0  0  0  0  0  0  0  0  0  0  0
   -0.1085   15.7040  -31.9504 H   0  0  0  0  0  0  0  0  0  0  0  0
   -3.3430   14.2160  -32.6410 H   0  0  0  0  0  0  0  0  0  0  0  0
    1.5992   17.2495  -32.1375 H   0  0  0  0  0  0  0  0  0  0  0  0
    1.8364   18.0176  -33.7615 H   0  0  0  0  0  0  0  0  0  0  0  0
   -0.0028   19.3506  -31.7760 H   0  0  0  0  0  0  0  0  0  0  0  0
    1.8040   19.4767  -31.5641 H   0  0  0  0  0  0  0  0  0  0  0  0
    3.1180   20.1155  -33.4705 H   0  0  0  0  0  0  0  0  0  0  0  0
    2.1129   19.3510  -34.7481 H   0  0  0  0  0  0  0  0  0  0  0  0
    2.3655   21.1295  -34.7481 H   0  0  0  0  0  0  0  0  0  0  0  0
   -1.0592   20.5177  -33.4670 H   0  0  0  0  0  0  0  0  0  0  0  0
   -0.0855   21.3541  -34.7645 H   0  0  0  0  0  0  0  0  0  0  0  0
   -1.0067   19.5134  -35.8751 H   0  0  0  0  0  0  0  0  0  0  0  0
    0.6848   18.9828  -35.3984 H   0  0  0  0  0  0  0  0  0  0  0  0
   -4.1378   18.4735  -34.5318 H   0  0  0  0  0  0  0  0  0  0  0  0
   -4.4253   20.8161  -33.7308 H   0  0  0  0  0  0  0  0  0  0  0  0
  1  2  1  0
  2  3  2  0
  3  4  1  0
  4  5  2  0
  4  6  1  0
  3  7  1  0
  7  8  2  0
  8  9  1  0
  9 10  2  0
 10 11  1  0
 11 12  2  0
 12 13  1  0
 13 14  2  0
 14 15  1  0
 15 16  2  0
 15 17  2  0
 15 18  1  0
 18 19  1  0
 19 20  2  0
 20 21  1  0
 21 22  2  0
 22 23  1  0
 23 24  2  0
 24 25  1  0
 22 26  1  0
 26 27  1  0
 27 28  1  0
 28 29  1  0
 28 30  1  0
 30 31  1  0
 14 32  1  0
 32 33  2  0
 10  2  1  0
 33 11  1  0
 24 19  1  0
 31 21  1  0
  1 34  1  0
  1 35  1  0
  1 36  1  0
  7 37  1  0
  8 38  1  0
  9 39  1  0
 12 40  1  0
 13 41  1  0
 20 42  1  0
 23 43  1  0
 25 44  1  0
 26 45  1  0
 26 46  1  0
 27 47  1  0
 27 48  1  0
 29 49  1  0
 29 50  1  0
 29 51  1  0
 30 52  1  0
 30 53  1  0
 31 54  1  0
 31 55  1  0
 32 56  1  0
 33 57  1  0
M  CHG  2   6  -1  18  -1
M  END
>  <UniqueID>  (22) 
22

>  <SMILES>  (22) 
Cc1c(C(=O)[O-])cccc1-c1ccc(S(=O)(=O)[N-]c2cc3c(cc2O)CCN(C)CC3)cc1

>  <Energy>  (22) 
91.43947802373611

>  <Genealogy>  (22) 
Cc1c(C(=O)[O-])cccc1-c1ccc(S(=O)(=O)[N-]c2cc3c(cc2O)CCN(C)CC3)cc1 (protonated)
Cc1c(C(=O)[O-])cccc1-c1ccc(S(=O)(=O)[N-]c2cc3c(cc2O)CCN(C)CC3)cc1 (3D coordinates assigned)
Cc1c(C(=O)[O-])cccc1-c1ccc(S(=O)(=O)[N-]c2cc3c(cc2O)CCN(C)CC3)cc1 (nonaromatic ring conformer: 91.43947802373611 kcal/mol)

>  <smiles>  (22) 
Cc1c(C(=O)O)cccc1-c1ccc(S(=O)(=O)Nc2cc3c(cc2O)CCN(C)CC3)cc1

>  <score_type>  (22) 
oracle

>  <origin>  (22) 
adgpu

>  <m_score__min__energy>  (22) 
-10.289999999999999

>  <m_primary>  (22) 
energy

$$$$
22:0
     RDKit          3D

 45 47  0  0  0  0  0  0  0  0999 V2000
   -2.2430   20.3730  -27.7130 C   0  0  0  0  0  0  0  0  0  0  0  0
   -2.5070   21.8400  -27.5340 C   0  0  0  0  0  0  0  0  0  0  0  0
   -1.5910   22.6430  -26.8370 C   0  0  0  0  0  0  0  0  0  0  0  0
   -1.8150   24.0210  -26.7060 C   0  0  0  0  0  0  0  0  0  0  0  0
   -0.8640   24.8670  -25.9120 C   0  0  0  0  0  0  0  0  0  0  0  0
   -2.9650   24.5930  -27.2690 C   0  0  0  0  0  0  0  0  0  0  0  0
   -3.8710   23.8080  -27.9970 C   0  0  0  0  0  0  0  0  0  0  0  0
   -5.0180   24.4320  -28.5980 N   0  0  0  0  0  0  0  0  0  0  0  0
   -5.1700   24.7040  -30.3050 S   0  0  0  0  0  0  0  0  0  0  0  0
   -6.2910   25.6710  -30.5590 O   0  0  0  0  0  0  0  0  0  0  0  0
   -3.8930   25.2960  -30.8310 O   0  0  0  0  0  0  0  0  0  0  0  0
   -5.4570   23.1670  -31.1210 C   0  0  0  0  0  0  0  0  0  0  0  0
   -4.4000   22.5260  -31.7610 C   0  0  0  0  0  0  0  0  0  0  0  0
   -4.5940   21.2930  -32.3760 C   0  0  0  0  0  0  0  0  0  0  0  0
   -5.8590   20.6560  -32.3590 C   0  0  0  0  0  0  0  0  0  0  0  0
   -6.9430   21.3040  -31.6980 C   0  0  0  0  0  0  0  0  0  0  0  0
   -6.7190   22.5650  -31.0940 C   0  0  0  0  0  0  0  0  0  0  0  0
   -8.1780   20.6930  -31.6540 N   0  0  0  0  0  0  0  0  0  0  0  0
   -9.3130   21.3340  -30.9560 C   0  0  0  0  0  0  0  0  0  0  0  0
   -8.3560   19.4750  -32.2580 C   0  0  0  0  0  0  0  0  0  0  0  0
   -9.4810   18.9010  -32.2340 O   0  0  0  0  0  0  0  0  0  0  0  0
   -7.2950   18.8450  -32.9120 C   0  0  0  0  0  0  0  0  0  0  0  0
   -7.4990   17.7230  -33.4570 O   0  0  0  0  0  0  0  0  0  0  0  0
   -6.0570   19.4320  -32.9600 N   0  0  0  0  0  0  0  0  0  0  0  0
   -4.9480   18.7440  -33.6560 C   0  0  0  0  0  0  0  0  0  0  0  0
   -3.6380   22.4260  -28.1180 C   0  0  0  0  0  0  0  0  0  0  0  0
   -2.1566   19.8930  -26.7270 H   0  0  0  0  0  0  0  0  0  0  0  0
   -3.0734   19.9165  -28.2716 H   0  0  0  0  0  0  0  0  0  0  0  0
   -1.3055   20.2346  -28.2716 H   0  0  0  0  0  0  0  0  0  0  0  0
   -0.6934   22.1894  -26.3915 H   0  0  0  0  0  0  0  0  0  0  0  0
   -1.0417   24.7089  -24.8380 H   0  0  0  0  0  0  0  0  0  0  0  0
    0.1705   24.5851  -26.1579 H   0  0  0  0  0  0  0  0  0  0  0  0
   -1.0235   25.9272  -26.1579 H   0  0  0  0  0  0  0  0  0  0  0  0
   -3.1584   25.6680  -27.1383 H   0  0  0  0  0  0  0  0  0  0  0  0
   -5.7300   24.8870  -27.9820 H   0  0  0  0  0  0  0  0  0  0  0  0
   -3.4060   22.9967  -31.7807 H   0  0  0  0  0  0  0  0  0  0  0  0
   -3.7499   20.8042  -32.8845 H   0  0  0  0  0  0  0  0  0  0  0  0
   -7.5527   23.0804  -30.5946 H   0  0  0  0  0  0  0  0  0  0  0  0
   -9.1682   21.2522  -29.8686 H   0  0  0  0  0  0  0  0  0  0  0  0
   -9.3659   22.3954  -31.2400 H   0  0  0  0  0  0  0  0  0  0  0  0
  -10.2493   20.8313  -31.2400 H   0  0  0  0  0  0  0  0  0  0  0  0
   -4.2584   18.3162  -32.9134 H   0  0  0  0  0  0  0  0  0  0  0  0
   -5.3539   17.9389  -34.2861 H   0  0  0  0  0  0  0  0  0  0  0  0
   -4.4069   19.4653  -34.2861 H   0  0  0  0  0  0  0  0  0  0  0  0
   -4.3498   21.7999  -28.6759 H   0  0  0  0  0  0  0  0  0  0  0  0
  1  2  1  0
  2  3  2  0
  3  4  1  0
  4  5  1  0
  4  6  2  0
  6  7  1  0
  7  8  1  0
  8  9  1  0
  9 10  2  0
  9 11  2  0
  9 12  1  0
 12 13  2  0
 13 14  1  0
 14 15  2  0
 15 16  1  0
 16 17  2  0
 16 18  1  0
 18 19  1  0
 18 20  1  0
 20 21  2  0
 20 22  1  0
 22 23  2  0
 22 24  1  0
 24 25  1  0
  7 26  2  0
 26  2  1  0
 17 12  1  0
 24 15  1  0
  1 27  1  0
  1 28  1  0
  1 29  1  0
  3 30  1  0
  5 31  1  0
  5 32  1  0
  5 33  1  0
  6 34  1  0
  8 35  1  0
 13 36  1  0
 14 37  1  0
 17 38  1  0
 19 39  1  0
 19 40  1  0
 19 41  1  0
 25 42  1  0
 25 43  1  0
 25 44  1  0
 26 45  1  0
M  END
>  <UniqueID>  (23) 
23

>  <SMILES>  (23) 
Cc1cc(C)cc(NS(=O)(=O)c2ccc3c(c2)n(C)c(=O)c(=O)n3C)c1

>  <Energy>  (23) 
65.15711509896278

>  <Genealogy>  (23) 
Cc1cc(C)cc(NS(=O)(=O)c2ccc3c(c2)n(C)c(=O)c(=O)n3C)c1 (3D coordinates assigned)
Cc1cc(C)cc(NS(=O)(=O)c2ccc3c(c2)n(C)c(=O)c(=O)n3C)c1 (optimized conformer: 65.15711509896278 kcal/mol)

>  <smiles>  (23) 
Cc1cc(C)cc(NS(=O)(=O)c2ccc3c(c2)n(C)c(=O)c(=O)n3C)c1

>  <score_type>  (23) 
oracle

>  <origin>  (23) 
adgpu

>  <m_score__min__energy>  (23) 
-10.01

>  <m_primary>  (23) 
energy

$$$$
23:0
     RDKit          3D

 51 54  0  0  0  0  0  0  0  0999 V2000
   -5.7790   26.2630  -31.2180 O   0  0  0  0  0  0  0  0  0  0  0  0
   -5.3350   25.1220  -30.3470 S   0  0  0  0  0  0  0  0  0  0  0  0
   -5.7700   25.3960  -28.9370 O   0  0  0  0  0  0  0  0  0  0  0  0
   -3.6060   25.0060  -30.3960 N   0  0  0  0  0  0  0  0  0  0  0  0
   -2.7990   24.2090  -29.5160 C   0  0  0  0  0  0  0  0  0  0  0  0
   -3.1630   22.9000  -29.1510 C   0  0  0  0  0  0  0  0  0  0  0  0
   -2.3640   22.1530  -28.2700 C   0  0  0  0  0  0  0  0  0  0  0  0
   -1.1580   22.7030  -27.7880 C   0  0  0  0  0  0  0  0  0  0  0  0
   -0.8020   24.0110  -28.1490 C   0  0  0  0  0  0  0  0  0  0  0  0
   -1.6160   24.7590  -29.0050 C   0  0  0  0  0  0  0  0  0  0  0  0
   -1.2380   26.0520  -29.3530 O   0  0  0  0  0  0  0  0  0  0  0  0
   -0.2940   21.9380  -26.8110 C   0  0  0  0  0  0  0  0  0  0  0  0
   -0.5450   20.4880  -26.8580 N   0  0  0  0  0  0  0  0  0  0  0  0
   -1.9800   20.1990  -26.7270 C   0  0  0  0  0  0  0  0  0  0  0  0
   -2.7570   20.7360  -27.9340 C   0  0  0  0  0  0  0  0  0  0  0  0
   -6.0580   23.6060  -30.8800 C   0  0  0  0  0  0  0  0  0  0  0  0
   -7.1360   23.0650  -30.1660 C   0  0  0  0  0  0  0  0  0  0  0  0
   -7.7170   21.8610  -30.5770 C   0  0  0  0  0  0  0  0  0  0  0  0
   -7.2200   21.1850  -31.7000 C   0  0  0  0  0  0  0  0  0  0  0  0
   -7.9260   19.6500  -32.2030 S   0  0  0  0  0  0  0  0  0  0  0  0
   -8.7290   19.8750  -33.4580 O   0  0  0  0  0  0  0  0  0  0  0  0
   -8.8480   19.1380  -31.1280 O   0  0  0  0  0  0  0  0  0  0  0  0
   -6.6590   18.4830  -32.5180 N   0  0  0  0  0  0  0  0  0  0  0  0
   -7.2470   17.2060  -32.9770 C   0  0  0  0  0  0  0  0  0  0  0  0
   -6.2280   16.3950  -33.7940 C   0  0  0  0  0  0  0  0  0  0  0  0
   -5.7870   17.0580  -34.9710 O   0  0  0  0  0  0  0  0  0  0  0  0
   -5.8550   18.4780  -34.8910 C   0  0  0  0  0  0  0  0  0  0  0  0
   -5.6580   19.0270  -33.4630 C   0  0  0  0  0  0  0  0  0  0  0  0
   -6.1360   21.7210  -32.4050 C   0  0  0  0  0  0  0  0  0  0  0  0
   -5.5610   22.9300  -32.0020 C   0  0  0  0  0  0  0  0  0  0  0  0
   -4.0830   22.4569  -29.5599 H   0  0  0  0  0  0  0  0  0  0  0  0
    0.1256   24.4520  -27.7552 H   0  0  0  0  0  0  0  0  0  0  0  0
    0.7628   22.1219  -27.0544 H   0  0  0  0  0  0  0  0  0  0  0  0
   -0.5405   22.2890  -25.7981 H   0  0  0  0  0  0  0  0  0  0  0  0
   -0.2050   20.1120  -27.7750 H   0  0  0  0  0  0  0  0  0  0  0  0
   -2.1239   19.1104  -26.6611 H   0  0  0  0  0  0  0  0  0  0  0  0
   -2.3568   20.6914  -25.8184 H   0  0  0  0  0  0  0  0  0  0  0  0
   -2.5516   20.0942  -28.8034 H   0  0  0  0  0  0  0  0  0  0  0  0
   -3.8275   20.7297  -27.6809 H   0  0  0  0  0  0  0  0  0  0  0  0
   -7.5259   23.5885  -29.2806 H   0  0  0  0  0  0  0  0  0  0  0  0
   -8.5667   21.4431  -30.0172 H   0  0  0  0  0  0  0  0  0  0  0  0
   -7.5570   16.6169  -32.1013 H   0  0  0  0  0  0  0  0  0  0  0  0
   -8.1136   17.4281  -33.6171 H   0  0  0  0  0  0  0  0  0  0  0  0
   -5.3526   16.1951  -33.1585 H   0  0  0  0  0  0  0  0  0  0  0  0
   -6.7322   15.4710  -34.1134 H   0  0  0  0  0  0  0  0  0  0  0  0
   -5.0713   18.9005  -35.5370 H   0  0  0  0  0  0  0  0  0  0  0  0
   -6.8655   18.7708  -35.2122 H   0  0  0  0  0  0  0  0  0  0  0  0
   -4.6522   18.7524  -33.1123 H   0  0  0  0  0  0  0  0  0  0  0  0
   -5.7819   20.1194  -33.4983 H   0  0  0  0  0  0  0  0  0  0  0  0
   -5.7348   21.1886  -33.2800 H   0  0  0  0  0  0  0  0  0  0  0  0
   -4.7165   23.3514  -32.5671 H   0  0  0  0  0  0  0  0  0  0  0  0
  1  2  2  0
  2  3  2  0
  2  4  1  0
  4  5  1  0
  5  6  2  0
  6  7  1  0
  7  8  2  0
  8  9  1  0
  9 10  2  0
 10 11  1  0
  8 12  1  0
 12 13  1  0
 13 14  1  0
 14 15  1  0
  2 16  1  0
 16 17  2  0
 17 18  1  0
 18 19  2  0
 19 20  1  0
 20 21  2  0
 20 22  2  0
 20 23  1  0
 23 24  1  0
 24 25  1  0
 25 26  1  0
 26 27  1  0
 27 28  1  0
 19 29  1  0
 29 30  2  0
 10  5  1  0
 30 16  1  0
 15  7  1  0
 28 23  1  0
  6 31  1  0
  9 32  1  0
 12 33  1  0
 12 34  1  0
 13 35  1  0
 14 36  1  0
 14 37  1  0
 15 38  1  0
 15 39  1  0
 17 40  1  0
 18 41  1  0
 24 42  1  0
 24 43  1  0
 25 44  1  0
 25 45  1  0
 27 46  1  0
 27 47  1  0
 28 48  1  0
 28 49  1  0
 29 50  1  0
 30 51  1  0
M  CHG  2   4  -1  11  -1
M  END
>  <UniqueID>  (24) 
24

>  <SMILES>  (24) 
O=S(=O)([N-]c1cc2c(cc1[O-])CNCC2)c1ccc(S(=O)(=O)N2CCOCC2)cc1

>  <Energy>  (24) 
70.64754213580414

>  <Genealogy>  (24) 
O=S(=O)([N-]c1cc2c(cc1[O-])CNCC2)c1ccc(S(=O)(=O)N2CCOCC2)cc1 (protonated)
O=S(=O)([N-]c1cc2c(cc1[O-])CNCC2)c1ccc(S(=O)(=O)N2CCOCC2)cc1 (3D coordinates assigned)
O=S(=O)([N-]c1cc2c(cc1[O-])CNCC2)c1ccc(S(=O)(=O)N2CCOCC2)cc1 (nonaromatic ring conformer: 70.64754213580414 kcal/mol)

>  <smiles>  (24) 
O=S(=O)(Nc1cc2c(cc1O)CNCC2)c1ccc(S(=O)(=O)N2CCOCC2)cc1

>  <score_type>  (24) 
oracle

>  <origin>  (24) 
adgpu

>  <m_score__min__energy>  (24) 
-15.32

>  <m_primary>  (24) 
energy

$$$$
24:0
     RDKit          3D

 54 57  0  0  0  0  0  0  0  0999 V2000
   -2.0340   25.2670  -28.0560 C   0  0  0  0  0  0  0  0  0  0  0  0
   -2.0870   24.1420  -29.0520 C   0  0  0  0  0  0  0  0  0  0  0  0
   -1.0950   23.1550  -29.0430 C   0  0  0  0  0  0  0  0  0  0  0  0
   -1.1230   22.1480  -29.9530 N   0  0  0  0  0  0  0  0  0  0  0  0
   -2.1020   22.0730  -30.8950 C   0  0  0  0  0  0  0  0  0  0  0  0
   -2.1120   20.9670  -31.8820 C   0  0  0  0  0  0  0  0  0  0  0  0
   -2.8740   21.0610  -33.0600 C   0  0  0  0  0  0  0  0  0  0  0  0
   -2.8680   20.0070  -33.9760 C   0  0  0  0  0  0  0  0  0  0  0  0
   -2.1300   18.8920  -33.7300 N   0  0  0  0  0  0  0  0  0  0  0  0
   -1.3830   18.7690  -32.6020 C   0  0  0  0  0  0  0  0  0  0  0  0
   -1.3600   19.8000  -31.6590 C   0  0  0  0  0  0  0  0  0  0  0  0
   -3.0660   23.0310  -30.9290 N   0  0  0  0  0  0  0  0  0  0  0  0
   -3.0800   24.0650  -30.0460 C   0  0  0  0  0  0  0  0  0  0  0  0
   -4.3790   25.2970  -30.2010 S   0  0  0  0  0  0  0  0  0  0  0  0
   -5.6090   24.0790  -30.6620 C   0  0  0  0  0  0  0  0  0  0  0  0
   -6.0870   23.1710  -29.7080 C   0  0  0  0  0  0  0  0  0  0  0  0
   -7.0330   22.2060  -30.0690 C   0  0  0  0  0  0  0  0  0  0  0  0
   -7.5150   22.1510  -31.3840 C   0  0  0  0  0  0  0  0  0  0  0  0
   -8.6840   20.9220  -31.8630 S   0  0  0  0  0  0  0  0  0  0  0  0
   -9.1310   20.1410  -30.6580 O   0  0  0  0  0  0  0  0  0  0  0  0
   -9.8820   21.6060  -32.4620 O   0  0  0  0  0  0  0  0  0  0  0  0
   -7.9630   19.8460  -33.0360 N   0  0  0  0  0  0  0  0  0  0  0  0
   -6.5170   20.1440  -33.2150 C   0  0  0  0  0  0  0  0  0  0  0  0
   -5.6200   19.1440  -32.4720 C   0  0  0  0  0  0  0  0  0  0  0  0
   -5.8390   17.7630  -32.9600 N   0  0  0  0  0  0  0  0  0  0  0  0
   -5.3360   16.7900  -31.9780 C   0  0  0  0  0  0  0  0  0  0  0  0
   -7.2480   17.4790  -33.3320 C   0  0  0  0  0  0  0  0  0  0  0  0
   -8.2360   18.4410  -32.6550 C   0  0  0  0  0  0  0  0  0  0  0  0
   -7.0440   23.0670  -32.3350 C   0  0  0  0  0  0  0  0  0  0  0  0
   -6.0970   24.0300  -31.9730 C   0  0  0  0  0  0  0  0  0  0  0  0
   -2.0534   24.8551  -27.0362 H   0  0  0  0  0  0  0  0  0  0  0  0
   -1.1078   25.8422  -28.2015 H   0  0  0  0  0  0  0  0  0  0  0  0
   -2.9021   25.9268  -28.2015 H   0  0  0  0  0  0  0  0  0  0  0  0
   -0.2891   23.1953  -28.2954 H   0  0  0  0  0  0  0  0  0  0  0  0
   -3.4729   21.9619  -33.2593 H   0  0  0  0  0  0  0  0  0  0  0  0
   -3.4620   20.0791  -34.8990 H   0  0  0  0  0  0  0  0  0  0  0  0
   -0.7947   17.8555  -32.4305 H   0  0  0  0  0  0  0  0  0  0  0  0
   -0.7557   19.6990  -30.7454 H   0  0  0  0  0  0  0  0  0  0  0  0
   -5.7175   23.2171  -28.6729 H   0  0  0  0  0  0  0  0  0  0  0  0
   -7.3993   21.4890  -29.3195 H   0  0  0  0  0  0  0  0  0  0  0  0
   -8.4460   20.0320  -33.9470 H   0  0  0  0  0  0  0  0  0  0  0  0
   -6.2778   20.1045  -34.2880 H   0  0  0  0  0  0  0  0  0  0  0  0
   -6.3250   21.1433  -32.7973 H   0  0  0  0  0  0  0  0  0  0  0  0
   -4.5670   19.4185  -32.6325 H   0  0  0  0  0  0  0  0  0  0  0  0
   -5.8712   19.1792  -31.4016 H   0  0  0  0  0  0  0  0  0  0  0  0
   -5.5285   17.1625  -30.9610 H   0  0  0  0  0  0  0  0  0  0  0  0
   -5.8495   15.8275  -32.1193 H   0  0  0  0  0  0  0  0  0  0  0  0
   -4.2538   16.6524  -32.1193 H   0  0  0  0  0  0  0  0  0  0  0  0
   -7.3520   17.5753  -34.4228 H   0  0  0  0  0  0  0  0  0  0  0  0
   -7.4860   16.4597  -32.9937 H   0  0  0  0  0  0  0  0  0  0  0  0
   -9.2593   18.1786  -32.9616 H   0  0  0  0  0  0  0  0  0  0  0  0
   -8.1213   18.3474  -31.5650 H   0  0  0  0  0  0  0  0  0  0  0  0
   -7.4201   23.0281  -33.3680 H   0  0  0  0  0  0  0  0  0  0  0  0
   -5.7345   24.7510  -32.7205 H   0  0  0  0  0  0  0  0  0  0  0  0
  1  2  1  0
  2  3  2  0
  3  4  1  0
  4  5  2  0
  5  6  1  0
  6  7  2  0
  7  8  1  0
  8  9  2  0
  9 10  1  0
 10 11  2  0
  5 12  1  0
 12 13  2  0
 13 14  1  0
 14 15  1  0
 15 16  2  0
 16 17  1  0
 17 18  2  0
 18 19  1  0
 19 20  2  0
 19 21  2  0
 19 22  1  0
 22 23  1  0
 23 24  1  0
 24 25  1  0
 25 26  1  0
 25 27  1  0
 27 28  1  0
 18 29  1  0
 29 30  2  0
 13  2  1  0
 30 15  1  0
 11  6  1  0
 28 22  1  0
  1 31  1  0
  1 32  1  0
  1 33  1  0
  3 34  1  0
  7 35  1  0
  8 36  1  0
 10 37  1  0
 11 38  1  0
 16 39  1  0
 17 40  1  0
 22 41  1  0
 23 42  1  0
 23 43  1  0
 24 44  1  0
 24 45  1  0
 26 46  1  0
 26 47  1  0
 26 48  1  0
 27 49  1  0
 27 50  1  0
 28 51  1  0
 28 52  1  0
 29 53  1  0
 30 54  1  0
M  CHG  1  22   1
M  END
>  <UniqueID>  (25) 
25

>  <SMILES>  (25) 
Cc1cnc(-c2ccncc2)nc1Sc1ccc(S(=O)(=O)[NH+]2CCN(C)CC2)cc1

>  <Energy>  (25) 
65.92148091514491

>  <Genealogy>  (25) 
Cc1cnc(-c2ccncc2)nc1Sc1ccc(S(=O)(=O)[NH+]2CCN(C)CC2)cc1 (protonated)
Cc1cnc(-c2ccncc2)nc1Sc1ccc(S(=O)(=O)[NH+]2CCN(C)CC2)cc1 (3D coordinates assigned)
Cc1cnc(-c2ccncc2)nc1Sc1ccc(S(=O)(=O)[NH+]2CCN(C)CC2)cc1 (nonaromatic ring conformer: 65.92148091514491 kcal/mol)

>  <smiles>  (25) 
Cc1cnc(-c2ccncc2)nc1Sc1ccc(S(=O)(=O)N2CCN(C)CC2)cc1

>  <score_type>  (25) 
oracle

>  <origin>  (25) 
adgpu

>  <m_score__min__energy>  (25) 
-9.2300000000000004

>  <m_primary>  (25) 
energy

$$$$
25:0
     RDKit          3D

 55 58  0  0  0  0  0  0  0  0999 V2000
    1.3050   19.6520  -29.7250 C   0  0  0  0  0  0  0  0  0  0  0  0
    0.5670   19.7240  -30.9960 N   0  0  0  0  0  0  0  0  0  0  0  0
   -0.2370   20.9720  -31.0880 C   0  0  0  0  0  0  0  0  0  0  0  0
   -1.7140   20.7570  -30.7190 C   0  0  0  0  0  0  0  0  0  0  0  0
   -2.3840   19.6810  -31.6080 C   0  0  0  0  0  0  0  0  0  0  0  0
   -3.2350   20.2930  -32.6510 N   0  0  0  0  0  0  0  0  0  0  0  0
   -2.7490   20.4120  -34.0290 C   0  0  0  0  0  0  0  0  0  0  0  0
   -4.6100   20.6440  -32.4040 C   0  0  0  0  0  0  0  0  0  0  0  0
   -5.6240   19.7540  -32.7880 C   0  0  0  0  0  0  0  0  0  0  0  0
   -6.9660   20.0770  -32.5820 C   0  0  0  0  0  0  0  0  0  0  0  0
   -7.9420   19.1970  -32.9360 N   0  0  0  0  0  0  0  0  0  0  0  0
   -9.2600   19.4830  -32.7580 C   0  0  0  0  0  0  0  0  0  0  0  0
   -9.6440   20.7050  -32.2020 C   0  0  0  0  0  0  0  0  0  0  0  0
   -8.6640   21.6290  -31.8320 C   0  0  0  0  0  0  0  0  0  0  0  0
   -7.3100   21.3200  -32.0170 C   0  0  0  0  0  0  0  0  0  0  0  0
   -6.3030   22.2270  -31.6640 C   0  0  0  0  0  0  0  0  0  0  0  0
   -4.9470   21.8950  -31.8310 C   0  0  0  0  0  0  0  0  0  0  0  0
   -3.9130   22.8270  -31.4630 N   0  0  0  0  0  0  0  0  0  0  0  0
   -4.0090   23.8770  -30.0800 S   0  0  0  0  0  0  0  0  0  0  0  0
   -5.3550   23.7630  -29.4210 O   0  0  0  0  0  0  0  0  0  0  0  0
   -3.8510   25.2970  -30.5480 O   0  0  0  0  0  0  0  0  0  0  0  0
   -2.7060   23.5120  -28.9400 C   0  0  0  0  0  0  0  0  0  0  0  0
   -2.7100   22.2730  -28.2790 C   0  0  0  0  0  0  0  0  0  0  0  0
   -1.7170   21.9660  -27.3450 C   0  0  0  0  0  0  0  0  0  0  0  0
   -0.7120   22.8930  -27.0600 C   0  0  0  0  0  0  0  0  0  0  0  0
   -0.6900   24.1270  -27.7180 C   0  0  0  0  0  0  0  0  0  0  0  0
    0.5870   25.2780  -27.3490 Cl  0  0  0  0  0  0  0  0  0  0  0  0
   -1.6790   24.4380  -28.6650 C   0  0  0  0  0  0  0  0  0  0  0  0
   -1.6280   25.6610  -29.3270 O   0  0  0  0  0  0  0  0  0  0  0  0
   -1.3530   18.6960  -32.2060 C   0  0  0  0  0  0  0  0  0  0  0  0
   -0.2060   18.4760  -31.2160 C   0  0  0  0  0  0  0  0  0  0  0  0
    0.5973   19.7210  -28.8857 H   0  0  0  0  0  0  0  0  0  0  0  0
    1.8475   18.6967  -29.6696 H   0  0  0  0  0  0  0  0  0  0  0  0
    2.0219   20.4845  -29.6696 H   0  0  0  0  0  0  0  0  0  0  0  0
    0.1917   21.7177  -30.4024 H   0  0  0  0  0  0  0  0  0  0  0  0
   -0.2027   21.3121  -32.1335 H   0  0  0  0  0  0  0  0  0  0  0  0
   -1.7745   20.4373  -29.6682 H   0  0  0  0  0  0  0  0  0  0  0  0
   -2.2452   21.7071  -30.8774 H   0  0  0  0  0  0  0  0  0  0  0  0
   -3.0429   19.0878  -30.9569 H   0  0  0  0  0  0  0  0  0  0  0  0
   -1.6806   20.6736  -34.0197 H   0  0  0  0  0  0  0  0  0  0  0  0
   -2.8873   19.4535  -34.5506 H   0  0  0  0  0  0  0  0  0  0  0  0
   -3.3145   21.1982  -34.5506 H   0  0  0  0  0  0  0  0  0  0  0  0
   -5.3593   18.7939  -33.2552 H   0  0  0  0  0  0  0  0  0  0  0  0
  -10.0252   18.7498  -33.0528 H   0  0  0  0  0  0  0  0  0  0  0  0
  -10.7092   20.9380  -32.0566 H   0  0  0  0  0  0  0  0  0  0  0  0
   -8.9545   22.5965  -31.3966 H   0  0  0  0  0  0  0  0  0  0  0  0
   -6.5758   23.2096  -31.2517 H   0  0  0  0  0  0  0  0  0  0  0  0
   -2.9740   22.7500  -31.9110 H   0  0  0  0  0  0  0  0  0  0  0  0
   -3.4999   21.5394  -28.4979 H   0  0  0  0  0  0  0  0  0  0  0  0
   -1.7269   20.9923  -26.8332 H   0  0  0  0  0  0  0  0  0  0  0  0
    0.0630   22.6524  -26.3173 H   0  0  0  0  0  0  0  0  0  0  0  0
   -1.8452   17.7343  -32.4132 H   0  0  0  0  0  0  0  0  0  0  0  0
   -0.9499   19.1166  -33.1391 H   0  0  0  0  0  0  0  0  0  0  0  0
   -0.6223   18.1389  -30.2552 H   0  0  0  0  0  0  0  0  0  0  0  0
    0.4723   17.7182  -31.6352 H   0  0  0  0  0  0  0  0  0  0  0  0
  1  2  1  0
  2  3  1  0
  3  4  1  0
  4  5  1  0
  5  6  1  0
  6  7  1  0
  6  8  1  0
  8  9  2  0
  9 10  1  0
 10 11  2  0
 11 12  1  0
 12 13  2  0
 13 14  1  0
 14 15  2  0
 15 16  1  0
 16 17  2  0
 17 18  1  0
 18 19  1  0
 19 20  2  0
 19 21  2  0
 19 22  1  0
 22 23  2  0
 23 24  1  0
 24 25  2  0
 25 26  1  0
 26 27  1  0
 26 28  2  0
 28 29  1  0
  5 30  1  0
 30 31  1  0
 31  2  1  0
 17  8  1  0
 28 22  1  0
 15 10  1  0
  1 32  1  0
  1 33  1  0
  1 34  1  0
  3 35  1  0
  3 36  1  0
  4 37  1  0
  4 38  1  0
  5 39  1  0
  7 40  1  0
  7 41  1  0
  7 42  1  0
  9 43  1  0
 12 44  1  0
 13 45  1  0
 14 46  1  0
 16 47  1  0
 18 48  1  0
 23 49  1  0
 24 50  1  0
 25 51  1  0
 30 52  1  0
 30 53  1  0
 31 54  1  0
 31 55  1  0
M  CHG  1  29  -1
M  END
>  <UniqueID>  (26) 
26

>  <SMILES>  (26) 
CN1CCC(N(C)c2cc3ncccc3cc2NS(=O)(=O)c2cccc(Cl)c2[O-])CC1

>  <Energy>  (26) 
77.64192119857556

>  <Genealogy>  (26) 
CN1CCC(N(C)c2cc3ncccc3cc2NS(=O)(=O)c2cccc(Cl)c2[O-])CC1 (protonated)
CN1CCC(N(C)c2cc3ncccc3cc2NS(=O)(=O)c2cccc(Cl)c2[O-])CC1 (3D coordinates assigned)
CN1CCC(N(C)c2cc3ncccc3cc2NS(=O)(=O)c2cccc(Cl)c2[O-])CC1 (nonaromatic ring conformer: 77.64192119857556 kcal/mol)

>  <smiles>  (26) 
CN1CCC(N(C)c2cc3ncccc3cc2NS(=O)(=O)c2cccc(Cl)c2O)CC1

>  <score_type>  (26) 
oracle

>  <origin>  (26) 
adgpu

>  <m_score__min__energy>  (26) 
-13.09

>  <m_primary>  (26) 
energy

$$$$
26:0
     RDKit          3D

 65 68  0  0  0  0  0  0  0  0999 V2000
   -2.3150   25.3200  -27.8810 C   0  0  0  0  0  0  0  0  0  0  0  0
   -2.3800   25.1310  -29.2900 O   0  0  0  0  0  0  0  0  0  0  0  0
   -3.4010   24.4350  -29.9560 C   0  0  0  0  0  0  0  0  0  0  0  0
   -4.6580   25.0180  -30.2000 C   0  0  0  0  0  0  0  0  0  0  0  0
   -5.6540   24.3050  -30.8700 C   0  0  0  0  0  0  0  0  0  0  0  0
   -5.4170   22.9970  -31.3200 C   0  0  0  0  0  0  0  0  0  0  0  0
   -6.5160   22.2290  -32.0360 C   0  0  0  0  0  0  0  0  0  0  0  0
   -7.8120   22.2220  -31.2040 C   0  0  0  0  0  0  0  0  0  0  0  0
   -8.7730   21.1640  -31.7540 C   0  0  0  0  0  0  0  0  0  0  0  0
   -8.2300   19.7900  -31.6140 N   0  0  0  0  0  0  0  0  0  0  0  0
   -8.8190   18.8920  -32.6190 C   0  0  0  0  0  0  0  0  0  0  0  0
   -6.7470   19.7020  -31.6070 C   0  0  0  0  0  0  0  0  0  0  0  0
   -6.0730   20.8010  -32.4500 C   0  0  0  0  0  0  0  0  0  0  0  0
   -4.1640   22.4110  -31.0730 C   0  0  0  0  0  0  0  0  0  0  0  0
   -3.1580   23.1170  -30.3910 C   0  0  0  0  0  0  0  0  0  0  0  0
   -1.8100   22.4700  -30.1840 C   0  0  0  0  0  0  0  0  0  0  0  0
   -1.3090   22.7360  -28.7890 C   0  0  0  0  0  0  0  0  0  0  0  0
   -2.0030   22.2280  -27.6810 C   0  0  0  0  0  0  0  0  0  0  0  0
   -1.5220   22.4440  -26.3860 C   0  0  0  0  0  0  0  0  0  0  0  0
   -0.3400   23.1680  -26.1850 C   0  0  0  0  0  0  0  0  0  0  0  0
    0.2700   23.4070  -24.5490 S   0  0  0  0  0  0  0  0  0  0  0  0
   -0.4550   22.5000  -23.5940 O   0  0  0  0  0  0  0  0  0  0  0  0
    1.7330   23.0610  -24.5260 O   0  0  0  0  0  0  0  0  0  0  0  0
    0.0500   25.0720  -24.0680 N   0  0  0  0  0  0  0  0  0  0  0  0
   -0.9970   25.6990  -24.8950 C   0  0  0  0  0  0  0  0  0  0  0  0
   -1.2390   27.1670  -24.4760 C   0  0  0  0  0  0  0  0  0  0  0  0
   -0.2050   27.6510  -23.5510 N   0  0  0  0  0  0  0  0  0  0  0  0
    1.1320   27.3340  -24.0610 C   0  0  0  0  0  0  0  0  0  0  0  0
    1.3280   25.8070  -24.1780 C   0  0  0  0  0  0  0  0  0  0  0  0
    0.3610   23.6700  -27.2910 C   0  0  0  0  0  0  0  0  0  0  0  0
   -0.1210   23.4560  -28.5840 C   0  0  0  0  0  0  0  0  0  0  0  0
   -2.6322   24.3977  -27.3723 H   0  0  0  0  0  0  0  0  0  0  0  0
   -1.2820   25.5621  -27.5908 H   0  0  0  0  0  0  0  0  0  0  0  0
   -2.9806   26.1463  -27.5908 H   0  0  0  0  0  0  0  0  0  0  0  0
   -4.8579   26.0448  -29.8598 H   0  0  0  0  0  0  0  0  0  0  0  0
   -6.6337   24.7729  -31.0468 H   0  0  0  0  0  0  0  0  0  0  0  0
   -6.7271   22.7592  -32.9764 H   0  0  0  0  0  0  0  0  0  0  0  0
   -7.5724   21.9888  -30.1560 H   0  0  0  0  0  0  0  0  0  0  0  0
   -8.2879   23.2120  -31.2628 H   0  0  0  0  0  0  0  0  0  0  0  0
   -9.7233   21.2276  -31.2036 H   0  0  0  0  0  0  0  0  0  0  0  0
   -8.9185   21.3631  -32.8260 H   0  0  0  0  0  0  0  0  0  0  0  0
   -9.3545   18.0756  -32.1123 H   0  0  0  0  0  0  0  0  0  0  0  0
   -9.5225   19.4570  -33.2482 H   0  0  0  0  0  0  0  0  0  0  0  0
   -8.0205   18.4718  -33.2482 H   0  0  0  0  0  0  0  0  0  0  0  0
   -6.3957   19.7923  -30.5685 H   0  0  0  0  0  0  0  0  0  0  0  0
   -6.4736   18.7335  -32.0512 H   0  0  0  0  0  0  0  0  0  0  0  0
   -4.9829   20.7209  -32.3261 H   0  0  0  0  0  0  0  0  0  0  0  0
   -6.3755   20.6495  -33.4967 H   0  0  0  0  0  0  0  0  0  0  0  0
   -3.9676   21.3852  -31.4183 H   0  0  0  0  0  0  0  0  0  0  0  0
   -1.9019   21.3843  -30.3353 H   0  0  0  0  0  0  0  0  0  0  0  0
   -1.0963   22.8931  -30.9063 H   0  0  0  0  0  0  0  0  0  0  0  0
   -2.9308   21.6565  -27.8317 H   0  0  0  0  0  0  0  0  0  0  0  0
   -2.0736   22.0441  -25.5224 H   0  0  0  0  0  0  0  0  0  0  0  0
   -0.2600   25.0690  -23.0670 H   0  0  0  0  0  0  0  0  0  0  0  0
   -0.6838   25.6741  -25.9492 H   0  0  0  0  0  0  0  0  0  0  0  0
   -1.9330   25.1387  -24.7540 H   0  0  0  0  0  0  0  0  0  0  0  0
   -1.2346   27.7990  -25.3763 H   0  0  0  0  0  0  0  0  0  0  0  0
   -2.2090   27.2184  -23.9597 H   0  0  0  0  0  0  0  0  0  0  0  0
   -0.2900   28.6930  -23.4890 H   0  0  0  0  0  0  0  0  0  0  0  0
    1.2564   27.7904  -25.0541 H   0  0  0  0  0  0  0  0  0  0  0  0
    1.8798   27.7321  -23.3594 H   0  0  0  0  0  0  0  0  0  0  0  0
    1.7839   25.5817  -25.1534 H   0  0  0  0  0  0  0  0  0  0  0  0
    1.9765   25.4844  -23.3501 H   0  0  0  0  0  0  0  0  0  0  0  0
    1.2932   24.2340  -27.1396 H   0  0  0  0  0  0  0  0  0  0  0  0
    0.4332   23.8538  -29.4470 H   0  0  0  0  0  0  0  0  0  0  0  0
  1  2  1  0
  2  3  1  0
  3  4  2  0
  4  5  1  0
  5  6  2  0
  6  7  1  0
  7  8  1  0
  8  9  1  0
  9 10  1  0
 10 11  1  0
 10 12  1  0
 12 13  1  0
  6 14  1  0
 14 15  2  0
 15 16  1  0
 16 17  1  0
 17 18  2  0
 18 19  1  0
 19 20  2  0
 20 21  1  0
 21 22  2  0
 21 23  2  0
 21 24  1  0
 24 25  1  0
 25 26  1  0
 26 27  1  0
 27 28  1  0
 28 29  1  0
 20 30  1  0
 30 31  2  0
 15  3  1  0
 31 17  1  0
 13  7  1  0
 29 24  1  0
  1 32  1  0
  1 33  1  0
  1 34  1  0
  4 35  1  0
  5 36  1  0
  7 37  1  0
  8 38  1  0
  8 39  1  0
  9 40  1  0
  9 41  1  0
 11 42  1  0
 11 43  1  0
 11 44  1  0
 12 45  1  0
 12 46  1  0
 13 47  1  0
 13 48  1  0
 14 49  1  0
 16 50  1  0
 16 51  1  0
 18 52  1  0
 19 53  1  0
 24 54  1  0
 25 55  1  0
 25 56  1  0
 26 57  1  0
 26 58  1  0
 27 59  1  0
 28 60  1  0
 28 61  1  0
 29 62  1  0
 29 63  1  0
 30 64  1  0
 31 65  1  0
M  CHG  1  24   1
M  END
>  <UniqueID>  (27) 
27

>  <SMILES>  (27) 
COc1ccc(C2CCN(C)CC2)cc1Cc1ccc(S(=O)(=O)[NH+]2CCNCC2)cc1

>  <Energy>  (27) 
77.97214395720788

>  <Genealogy>  (27) 
COc1ccc(C2CCN(C)CC2)cc1Cc1ccc(S(=O)(=O)[NH+]2CCNCC2)cc1 (protonated)
COc1ccc(C2CCN(C)CC2)cc1Cc1ccc(S(=O)(=O)[NH+]2CCNCC2)cc1 (3D coordinates assigned)
COc1ccc(C2CCN(C)CC2)cc1Cc1ccc(S(=O)(=O)[NH+]2CCNCC2)cc1 (nonaromatic ring conformer: 77.97214395720788 kcal/mol)

>  <smiles>  (27) 
COc1ccc(C2CCN(C)CC2)cc1Cc1ccc(S(=O)(=O)N2CCNCC2)cc1

>  <score_type>  (27) 
oracle

>  <origin>  (27) 
adgpu

>  <m_score__min__energy>  (27) 
-10

>  <m_primary>  (27) 
energy

$$$$
27:0
     RDKit          3D

 74 78  0  0  0  0  0  0  0  0999 V2000
   -0.1690   20.0680  -29.6490 O   0  0  0  0  0  0  0  0  0  0  0  0
   -0.9400   20.3360  -30.6100 C   0  0  0  0  0  0  0  0  0  0  0  0
   -2.3490   20.3840  -30.3610 N   0  0  0  0  0  0  0  0  0  0  0  0
   -3.0390   21.4720  -29.7340 C   0  0  0  0  0  0  0  0  0  0  0  0
   -2.7860   21.7510  -28.3850 C   0  0  0  0  0  0  0  0  0  0  0  0
   -3.4370   22.8110  -27.7500 C   0  0  0  0  0  0  0  0  0  0  0  0
   -4.3260   23.6200  -28.4630 C   0  0  0  0  0  0  0  0  0  0  0  0
   -4.9410   24.6400  -27.8120 F   0  0  0  0  0  0  0  0  0  0  0  0
   -4.5660   23.3710  -29.8310 C   0  0  0  0  0  0  0  0  0  0  0  0
   -5.6440   24.4010  -30.7820 S   0  0  0  0  0  0  0  0  0  0  0  0
   -6.8280   24.8110  -29.9520 O   0  0  0  0  0  0  0  0  0  0  0  0
   -4.9300   25.6530  -31.2140 O   0  0  0  0  0  0  0  0  0  0  0  0
   -6.1420   23.5550  -32.2170 N   0  0  0  0  0  0  0  0  0  0  0  0
   -6.8840   22.3240  -32.2040 C   0  0  0  0  0  0  0  0  0  0  0  0
   -8.1110   22.2710  -31.5240 C   0  0  0  0  0  0  0  0  0  0  0  0
   -8.8390   21.0770  -31.4650 C   0  0  0  0  0  0  0  0  0  0  0  0
   -8.3390   19.9230  -32.0700 C   0  0  0  0  0  0  0  0  0  0  0  0
   -7.1090   19.9560  -32.7350 C   0  0  0  0  0  0  0  0  0  0  0  0
   -6.4390   18.4730  -33.4150 S   0  0  0  0  0  0  0  0  0  0  0  0
   -7.4680   17.3820  -33.3010 O   0  0  0  0  0  0  0  0  0  0  0  0
   -6.1370   18.6850  -34.8730 O   0  0  0  0  0  0  0  0  0  0  0  0
   -4.9900   17.9970  -32.5540 N   0  0  0  0  0  0  0  0  0  0  0  0
   -3.8810   18.9510  -32.7500 C   0  0  0  0  0  0  0  0  0  0  0  0
   -3.2560   18.8640  -34.1560 C   0  0  0  0  0  0  0  0  0  0  0  0
   -3.1800   17.4260  -34.6970 C   0  0  0  0  0  0  0  0  0  0  0  0
   -3.3110   16.3930  -33.5800 C   0  0  0  0  0  0  0  0  0  0  0  0
   -4.6310   16.5800  -32.8110 C   0  0  0  0  0  0  0  0  0  0  0  0
   -6.3820   21.1550  -32.7980 C   0  0  0  0  0  0  0  0  0  0  0  0
   -3.9280   22.2900  -30.4560 C   0  0  0  0  0  0  0  0  0  0  0  0
   -0.3800   20.5290  -31.9710 C   0  0  0  0  0  0  0  0  0  0  0  0
   -1.1380   21.1430  -32.9840 C   0  0  0  0  0  0  0  0  0  0  0  0
   -0.6230   21.2740  -34.2770 C   0  0  0  0  0  0  0  0  0  0  0  0
    0.6580   20.7950  -34.5800 C   0  0  0  0  0  0  0  0  0  0  0  0
    1.2910   20.9250  -36.2250 S   0  0  0  0  0  0  0  0  0  0  0  0
    0.2530   20.4310  -37.1930 O   0  0  0  0  0  0  0  0  0  0  0  0
    2.5030   20.0460  -36.3570 O   0  0  0  0  0  0  0  0  0  0  0  0
    1.7380   22.5690  -36.6240 N   0  0  0  0  0  0  0  0  0  0  0  0
    3.1940   22.7880  -36.4890 C   0  0  0  0  0  0  0  0  0  0  0  0
    3.5420   23.5680  -35.2070 C   0  0  0  0  0  0  0  0  0  0  0  0
    2.9120   24.8380  -35.1290 O   0  0  0  0  0  0  0  0  0  0  0  0
    1.6420   24.8910  -35.7660 C   0  0  0  0  0  0  0  0  0  0  0  0
    0.9320   23.5300  -35.8480 C   0  0  0  0  0  0  0  0  0  0  0  0
    1.4180   20.1800  -33.5770 C   0  0  0  0  0  0  0  0  0  0  0  0
    0.9040   20.0470  -32.2820 C   0  0  0  0  0  0  0  0  0  0  0  0
   -2.0711   21.1322  -27.8229 H   0  0  0  0  0  0  0  0  0  0  0  0
   -3.2493   23.0099  -26.6845 H   0  0  0  0  0  0  0  0  0  0  0  0
   -5.6520   23.8260  -33.1010 H   0  0  0  0  0  0  0  0  0  0  0  0
   -8.5032   23.1744  -31.0340 H   0  0  0  0  0  0  0  0  0  0  0  0
   -9.8060   21.0482  -30.9414 H   0  0  0  0  0  0  0  0  0  0  0  0
   -8.9132   18.9859  -32.0238 H   0  0  0  0  0  0  0  0  0  0  0  0
   -4.2646   19.9708  -32.5990 H   0  0  0  0  0  0  0  0  0  0  0  0
   -3.0952   18.6972  -32.0233 H   0  0  0  0  0  0  0  0  0  0  0  0
   -3.8645   19.4659  -34.8470 H   0  0  0  0  0  0  0  0  0  0  0  0
   -2.2249   19.2395  -34.0794 H   0  0  0  0  0  0  0  0  0  0  0  0
   -3.9948   17.2740  -35.4201 H   0  0  0  0  0  0  0  0  0  0  0  0
   -2.1981   17.2913  -35.1743 H   0  0  0  0  0  0  0  0  0  0  0  0
   -3.2892   15.3842  -34.0180 H   0  0  0  0  0  0  0  0  0  0  0  0
   -2.4739   16.5256  -32.8788 H   0  0  0  0  0  0  0  0  0  0  0  0
   -5.4400   16.1201  -33.3975 H   0  0  0  0  0  0  0  0  0  0  0  0
   -4.4942   16.1054  -31.8281 H   0  0  0  0  0  0  0  0  0  0  0  0
   -5.4121   21.1790  -33.3164 H   0  0  0  0  0  0  0  0  0  0  0  0
   -4.1237   22.0799  -31.5179 H   0  0  0  0  0  0  0  0  0  0  0  0
   -2.1448   21.5235  -32.7570 H   0  0  0  0  0  0  0  0  0  0  0  0
   -1.2267   21.7556  -35.0604 H   0  0  0  0  0  0  0  0  0  0  0  0
    3.6991   21.8113  -36.4590 H   0  0  0  0  0  0  0  0  0  0  0  0
    3.5303   23.3825  -37.3512 H   0  0  0  0  0  0  0  0  0  0  0  0
    3.2280   22.9695  -34.3391 H   0  0  0  0  0  0  0  0  0  0  0  0
    4.6275   23.7452  -35.2203 H   0  0  0  0  0  0  0  0  0  0  0  0
    0.9999   25.5838  -35.2023 H   0  0  0  0  0  0  0  0  0  0  0  0
    1.8156   25.2247  -36.7997 H   0  0  0  0  0  0  0  0  0  0  0  0
    0.7830   23.1383  -34.8310 H   0  0  0  0  0  0  0  0  0  0  0  0
   -0.0374   23.6658  -36.3498 H   0  0  0  0  0  0  0  0  0  0  0  0
    2.4239   19.7996  -33.8082 H   0  0  0  0  0  0  0  0  0  0  0  0
    1.5088   19.5619  -31.5017 H   0  0  0  0  0  0  0  0  0  0  0  0
  1  2  2  0
  2  3  1  0
  3  4  1  0
  4  5  2  0
  5  6  1  0
  6  7  2  0
  7  8  1  0
  7  9  1  0
  9 10  1  0
 10 11  2  0
 10 12  2  0
 10 13  1  0
 13 14  1  0
 14 15  2  0
 15 16  1  0
 16 17  2  0
 17 18  1  0
 18 19  1  0
 19 20  2  0
 19 21  2  0
 19 22  1  0
 22 23  1  0
 23 24  1  0
 24 25  1  0
 25 26  1  0
 26 27  1  0
 18 28  2  0
  9 29  2  0
  2 30  1  0
 30 31  2  0
 31 32  1  0
 32 33  2  0
 33 34  1  0
 34 35  2  0
 34 36  2  0
 34 37  1  0
 37 38  1  0
 38 39  1  0
 39 40  1  0
 40 41  1  0
 41 42  1  0
 33 43  1  0
 43 44  2  0
 29  4  1  0
 44 30  1  0
 28 14  1  0
 42 37  1  0
 27 22  1  0
  5 45  1  0
  6 46  1  0
 13 47  1  0
 15 48  1  0
 16 49  1  0
 17 50  1  0
 23 51  1  0
 23 52  1  0
 24 53  1  0
 24 54  1  0
 25 55  1  0
 25 56  1  0
 26 57  1  0
 26 58  1  0
 27 59  1  0
 27 60  1  0
 28 61  1  0
 29 62  1  0
 31 63  1  0
 32 64  1  0
 38 65  1  0
 38 66  1  0
 39 67  1  0
 39 68  1  0
 41 69  1  0
 41 70  1  0
 42 71  1  0
 42 72  1  0
 43 73  1  0
 44 74  1  0
M  CHG  1   3  -1
M  END
>  <UniqueID>  (28) 
28

>  <SMILES>  (28) 
O=C([N-]c1ccc(F)c(S(=O)(=O)Nc2cccc(S(=O)(=O)N3CCCCC3)c2)c1)c1ccc(S(=O)(=O)N2CCOCC2)cc1

>  <Energy>  (28) 
103.3021336856429

>  <Genealogy>  (28) 
O=C([N-]c1ccc(F)c(S(=O)(=O)Nc2cccc(S(=O)(=O)N3CCCCC3)c2)c1)c1ccc(S(=O)(=O)N2CCOCC2)cc1 (protonated)
O=C([N-]c1ccc(F)c(S(=O)(=O)Nc2cccc(S(=O)(=O)N3CCCCC3)c2)c1)c1ccc(S(=O)(=O)N2CCOCC2)cc1 (3D coordinates assigned)
O=C([N-]c1ccc(F)c(S(=O)(=O)Nc2cccc(S(=O)(=O)N3CCCCC3)c2)c1)c1ccc(S(=O)(=O)N2CCOCC2)cc1 (nonaromatic ring conformer: 103.3021336856429 kcal/mol)

>  <smiles>  (28) 
O=C(Nc1ccc(F)c(S(=O)(=O)Nc2cccc(S(=O)(=O)N3CCCCC3)c2)c1)c1ccc(S(=O)(=O)N2CCOCC2)cc1

>  <score_type>  (28) 
oracle

>  <origin>  (28) 
adgpu

>  <m_score__min__energy>  (28) 
-13.44

>  <m_primary>  (28) 
energy

$$$$
28:0
     RDKit          3D

 48 50  0  0  1  0  0  0  0  0999 V2000
   -8.4510   19.6140  -31.5850 C   0  0  0  0  0  0  0  0  0  0  0  0
   -8.4440   18.6990  -32.7090 N   0  0  0  0  0  0  0  0  0  0  0  0
   -7.0670   17.6700  -32.6810 S   0  0  0  0  0  0  0  0  0  0  0  0
   -6.8640   17.0920  -31.3100 O   0  0  0  0  0  0  0  0  0  0  0  0
   -7.2170   16.5400  -33.6580 O   0  0  0  0  0  0  0  0  0  0  0  0
   -5.5980   18.5560  -33.0780 C   0  0  0  0  0  0  0  0  0  0  0  0
   -5.5100   19.9290  -32.9390 C   0  0  0  0  0  0  0  0  0  0  0  0
   -4.3350   20.6280  -33.2610 C   0  0  0  0  0  0  0  0  0  0  0  0
   -4.2490   22.1070  -33.1100 C   0  0  0  0  0  0  0  0  0  0  0  0
   -3.5560   22.5710  -31.9880 N   0  0  0  0  0  0  0  0  0  0  0  0
   -3.8960   23.2950  -31.0140 C   0  0  0  0  0  0  0  0  0  0  0  0
   -3.0150   23.6010  -30.0430 N   0  0  0  0  0  0  0  0  0  0  0  0
   -3.3430   24.3700  -28.9910 C   0  0  0  0  0  0  0  0  0  0  0  0
   -2.3430   24.6630  -27.9730 C   0  0  0  0  0  0  0  0  0  0  0  0
   -2.6640   24.9520  -26.6640 C   0  0  0  0  0  0  0  0  0  0  0  0
   -1.7030   25.2300  -25.7130 C   0  0  0  0  0  0  0  0  0  0  0  0
   -0.3590   25.2240  -26.0570 C   0  0  0  0  0  0  0  0  0  0  0  0
   -0.0350   24.9350  -27.3660 C   0  0  0  0  0  0  0  0  0  0  0  0
    1.2840   24.9080  -27.7990 O   0  0  0  0  0  0  0  0  0  0  0  0
   -1.0090   24.6610  -28.3040 C   0  0  0  0  0  0  0  0  0  0  0  0
   -4.6040   24.8290  -28.9450 N   0  0  0  0  0  0  0  0  0  0  0  0
   -5.5280   24.5530  -29.8890 C   0  0  0  0  0  0  0  0  0  0  0  0
   -6.9110   25.0980  -29.7730 C   0  0  0  0  0  0  0  0  0  0  0  0
   -5.1710   23.7660  -30.9560 C   0  0  0  0  0  0  0  0  0  0  0  0
   -6.3060   23.3940  -32.1710 Cl  0  0  0  0  0  0  0  0  0  0  0  0
   -3.3060   19.8350  -33.7160 C   0  0  0  0  0  0  0  0  0  0  0  0
   -3.3850   18.4660  -33.8570 C   0  0  0  0  0  0  0  0  0  0  0  0
   -4.5390   17.8110  -33.5360 C   0  0  0  0  0  0  0  0  0  0  0  0
   -4.6060   16.4340  -33.6820 O   0  0  0  0  0  0  0  0  0  0  0  0
   -8.4466   19.0412  -30.6459 H   0  0  0  0  0  0  0  0  0  0  0  0
   -7.5577   20.2545  -31.6280 H   0  0  0  0  0  0  0  0  0  0  0  0
   -9.3540   20.2407  -31.6280 H   0  0  0  0  0  0  0  0  0  0  0  0
   -8.4650   19.2790  -33.5710 H   0  0  0  0  0  0  0  0  0  0  0  0
   -6.3816   20.4875  -32.5671 H   0  0  0  0  0  0  0  0  0  0  0  0
   -3.7483   22.5076  -34.0038 H   0  0  0  0  0  0  0  0  0  0  0  0
   -5.2855   22.4518  -32.9808 H   0  0  0  0  0  0  0  0  0  0  0  0
   -3.7231   24.9614  -26.3669 H   0  0  0  0  0  0  0  0  0  0  0  0
   -2.0036   25.4569  -24.6795 H   0  0  0  0  0  0  0  0  0  0  0  0
    0.4205   25.4420  -25.3121 H   0  0  0  0  0  0  0  0  0  0  0  0
    1.9720   25.3970  -27.2180 H   0  0  0  0  0  0  0  0  0  0  0  0
   -0.7116   24.4361  -29.3389 H   0  0  0  0  0  0  0  0  0  0  0  0
   -4.9190   25.4270  -28.1570 H   0  0  0  0  0  0  0  0  0  0  0  0
   -7.1760   25.2024  -28.7105 H   0  0  0  0  0  0  0  0  0  0  0  0
   -6.9593   26.0824  -30.2614 H   0  0  0  0  0  0  0  0  0  0  0  0
   -7.6179   24.4112  -30.2614 H   0  0  0  0  0  0  0  0  0  0  0  0
   -2.3589   20.3257  -33.9846 H   0  0  0  0  0  0  0  0  0  0  0  0
   -2.5175   17.9009  -34.2285 H   0  0  0  0  0  0  0  0  0  0  0  0
   -5.2870   15.8460  -33.2520 H   0  0  0  0  0  0  0  0  0  0  0  0
  1  2  1  0
  2  3  1  0
  3  4  2  0
  3  5  2  0
  3  6  1  0
  6  7  2  0
  7  8  1  0
  8  9  1  0
  9 10  1  0
 10 11  2  0
 11 12  1  0
 12 13  2  0
 13 14  1  0
 14 15  2  0
 15 16  1  0
 16 17  2  0
 17 18  1  0
 18 19  1  0
 18 20  2  0
 13 21  1  0
 21 22  1  0
 22 23  1  0
 22 24  2  0
 24 25  1  0
  8 26  2  0
 26 27  1  0
 27 28  2  0
 28 29  1  0
 28  6  1  0
 24 11  1  0
 20 14  1  0
  1 30  1  0
  1 31  1  0
  1 32  1  0
  2 33  1  0
  7 34  1  0
  9 35  1  0
  9 36  1  0
 15 37  1  0
 16 38  1  0
 17 39  1  0
 19 40  1  0
 20 41  1  0
 21 42  1  0
 23 43  1  0
 23 44  1  0
 23 45  1  0
 26 46  1  0
 27 47  1  0
 29 48  1  0
M  END
>  <smiles>  (29) 
CNS(=O)(=O)c1cc(CN=c2nc(-c3cccc(O)c3)[nH]c(C)c2Cl)ccc1O

>  <score_type>  (29) 
oracle

>  <origin>  (29) 
adgpu

>  <m_score__min__energy>  (29) 
-9.5500000000000007

>  <m_primary>  (29) 
energy

$$$$
29:0
     RDKit          3D

 43 47  0  0  0  0  0  0  0  0999 V2000
   -5.3560   26.2000  -30.2480 O   0  0  0  0  0  0  0  0  0  0  0  0
   -4.7420   25.1120  -30.4130 C   0  0  0  0  0  0  0  0  0  0  0  0
   -3.4880   24.9860  -29.9200 N   0  0  0  0  0  0  0  0  0  0  0  0
   -2.7440   23.8660  -30.0930 C   0  0  0  0  0  0  0  0  0  0  0  0
   -1.4650   23.8190  -29.5310 C   0  0  0  0  0  0  0  0  0  0  0  0
   -0.6500   22.7110  -29.7310 C   0  0  0  0  0  0  0  0  0  0  0  0
   -1.0730   21.6780  -30.5610 C   0  0  0  0  0  0  0  0  0  0  0  0
   -2.3360   21.7150  -31.1730 C   0  0  0  0  0  0  0  0  0  0  0  0
   -2.5470   20.7650  -32.2830 C   0  0  0  0  0  0  0  0  0  0  0  0
   -3.4030   20.9780  -33.3060 N   0  0  0  0  0  0  0  0  0  0  0  0
   -3.3710   19.8970  -34.0760 N   0  0  0  0  0  0  0  0  0  0  0  0
   -2.5170   19.0300  -33.4990 C   0  0  0  0  0  0  0  0  0  0  0  0
   -2.0930   17.5980  -34.1690 S   0  0  0  0  0  0  0  0  0  0  0  0
   -2.0050   19.5370  -32.3630 N   0  0  0  0  0  0  0  0  0  0  0  0
   -1.0420   18.9740  -31.5040 N   0  0  0  0  0  0  0  0  0  0  0  0
    0.2440   19.0530  -31.6890 C   0  0  0  0  0  0  0  0  0  0  0  0
    0.8650   19.6260  -32.9030 C   0  0  0  0  0  0  0  0  0  0  0  0
    0.5050   20.8970  -33.3810 C   0  0  0  0  0  0  0  0  0  0  0  0
    1.0970   21.4110  -34.5390 C   0  0  0  0  0  0  0  0  0  0  0  0
    0.7360   22.6770  -34.9860 O   0  0  0  0  0  0  0  0  0  0  0  0
    2.0440   20.6490  -35.2430 C   0  0  0  0  0  0  0  0  0  0  0  0
    2.6490   21.1490  -36.3980 O   0  0  0  0  0  0  0  0  0  0  0  0
    2.3820   19.3680  -34.7850 C   0  0  0  0  0  0  0  0  0  0  0  0
    3.6580   18.3000  -35.7290 Br  0  0  0  0  0  0  0  0  0  0  0  0
    1.7860   18.8570  -33.6260 C   0  0  0  0  0  0  0  0  0  0  0  0
   -3.2480   22.7700  -30.8450 C   0  0  0  0  0  0  0  0  0  0  0  0
   -4.6270   22.8130  -31.2260 C   0  0  0  0  0  0  0  0  0  0  0  0
   -5.3400   21.6770  -31.6780 C   0  0  0  0  0  0  0  0  0  0  0  0
   -6.6670   21.7810  -32.1010 C   0  0  0  0  0  0  0  0  0  0  0  0
   -7.3280   23.0030  -32.0430 C   0  0  0  0  0  0  0  0  0  0  0  0
   -6.6860   24.1180  -31.5090 C   0  0  0  0  0  0  0  0  0  0  0  0
   -5.3520   24.0280  -31.0640 C   0  0  0  0  0  0  0  0  0  0  0  0
   -1.1015   24.6635  -28.9271 H   0  0  0  0  0  0  0  0  0  0  0  0
    0.3291   22.6510  -29.2332 H   0  0  0  0  0  0  0  0  0  0  0  0
   -0.4085   20.8199  -30.7404 H   0  0  0  0  0  0  0  0  0  0  0  0
    0.9064   18.6721  -30.8977 H   0  0  0  0  0  0  0  0  0  0  0  0
   -0.2469   21.4914  -32.8413 H   0  0  0  0  0  0  0  0  0  0  0  0
    2.5120   22.1040  -36.7060 H   0  0  0  0  0  0  0  0  0  0  0  0
    2.0426   17.8447  -33.2806 H   0  0  0  0  0  0  0  0  0  0  0  0
   -4.8412   20.6968  -31.6964 H   0  0  0  0  0  0  0  0  0  0  0  0
   -7.1916   20.8923  -32.4817 H   0  0  0  0  0  0  0  0  0  0  0  0
   -8.3582   23.0893  -32.4189 H   0  0  0  0  0  0  0  0  0  0  0  0
   -7.2237   25.0747  -31.4342 H   0  0  0  0  0  0  0  0  0  0  0  0
  1  2  2  0
  2  3  1  0
  3  4  1  0
  4  5  2  0
  5  6  1  0
  6  7  2  0
  7  8  1  0
  8  9  1  0
  9 10  2  0
 10 11  1  0
 11 12  1  0
 12 13  2  0
 12 14  1  0
 14 15  1  0
 15 16  2  3
 16 17  1  0
 17 18  2  0
 18 19  1  0
 19 20  1  0
 19 21  2  0
 21 22  1  0
 21 23  1  0
 23 24  1  0
 23 25  2  0
  8 26  2  0
 26 27  1  0
 27 28  2  0
 28 29  1  0
 29 30  2  0
 30 31  1  0
 31 32  2  0
 32  2  1  0
 26  4  1  0
 32 27  1  0
 14  9  1  0
 25 17  1  0
  5 33  1  0
  6 34  1  0
  7 35  1  0
 16 36  1  0
 18 37  1  0
 22 38  1  0
 25 39  1  0
 28 40  1  0
 29 41  1  0
 30 42  1  0
 31 43  1  0
M  CHG  3   3  -1  11  -1  20  -1
M  END
>  <UniqueID>  (30) 
29

>  <SMILES>  (30) 
O=c1[n-]c2cccc(-c3n[n-]c(=S)n3N=Cc3cc([O-])c(O)c(Br)c3)c2c2ccccc12

>  <Energy>  (30) 
124.87998138280025

>  <Genealogy>  (30) 
O=c1[n-]c2cccc(-c3n[n-]c(=S)n3N=Cc3cc([O-])c(O)c(Br)c3)c2c2ccccc12 (protonated)
O=c1[n-]c2cccc(-c3n[n-]c(=S)n3N=Cc3cc([O-])c(O)c(Br)c3)c2c2ccccc12 (3D coordinates assigned)
O=c1[n-]c2cccc(-c3n[n-]c(=S)n3N=Cc3cc([O-])c(O)c(Br)c3)c2c2ccccc12 (optimized conformer: 124.87998138280025 kcal/mol)

>  <smiles>  (30) 
O=c1[nH]c2cccc(-c3n[nH]c(=S)n3N=Cc3cc(O)c(O)c(Br)c3)c2c2ccccc12

>  <score_type>  (30) 
oracle

>  <origin>  (30) 
adgpu

>  <m_score__min__energy>  (30) 
-13.92

>  <m_primary>  (30) 
energy

$$$$
30:0
     RDKit          3D

 59 63  0  0  0  0  0  0  0  0999 V2000
   -5.3890   26.2800  -30.3840 O   0  0  0  0  0  0  0  0  0  0  0  0
   -4.9300   25.1230  -30.5620 C   0  0  0  0  0  0  0  0  0  0  0  0
   -3.5150   24.9130  -30.4700 N   0  0  0  0  0  0  0  0  0  0  0  0
   -2.8760   23.6340  -30.3510 C   0  0  0  0  0  0  0  0  0  0  0  0
   -2.9220   22.7140  -31.4120 C   0  0  0  0  0  0  0  0  0  0  0  0
   -2.3380   21.4500  -31.2860 C   0  0  0  0  0  0  0  0  0  0  0  0
   -2.3770   20.3360  -32.6500 S   0  0  0  0  0  0  0  0  0  0  0  0
   -2.8920   21.0810  -33.8500 O   0  0  0  0  0  0  0  0  0  0  0  0
   -3.3200   19.2000  -32.3570 O   0  0  0  0  0  0  0  0  0  0  0  0
   -0.7690   19.7300  -32.9940 N   0  0  0  0  0  0  0  0  0  0  0  0
   -0.5990   19.3910  -34.4170 C   0  0  0  0  0  0  0  0  0  0  0  0
   -0.4850   20.6490  -35.3110 C   0  0  0  0  0  0  0  0  0  0  0  0
   -0.1510   21.8260  -34.5940 O   0  0  0  0  0  0  0  0  0  0  0  0
    0.8460   21.5480  -33.6370 C   0  0  0  0  0  0  0  0  0  0  0  0
    0.2790   20.6570  -32.5140 C   0  0  0  0  0  0  0  0  0  0  0  0
   -1.7120   21.0940  -30.0850 C   0  0  0  0  0  0  0  0  0  0  0  0
   -1.6840   21.9900  -29.0160 C   0  0  0  0  0  0  0  0  0  0  0  0
   -2.2630   23.2640  -29.1360 C   0  0  0  0  0  0  0  0  0  0  0  0
   -2.1970   24.1840  -28.0300 N   0  0  0  0  0  0  0  0  0  0  0  0
   -1.1010   25.1600  -27.9420 C   0  0  0  0  0  0  0  0  0  0  0  0
   -0.6190   25.2690  -26.4940 C   0  0  0  0  0  0  0  0  0  0  0  0
   -1.7610   25.6010  -25.5090 C   0  0  0  0  0  0  0  0  0  0  0  0
   -3.1700   25.3750  -26.0870 C   0  0  0  0  0  0  0  0  0  0  0  0
   -3.2270   24.1320  -26.9810 C   0  0  0  0  0  0  0  0  0  0  0  0
   -5.8430   24.0220  -30.9150 C   0  0  0  0  0  0  0  0  0  0  0  0
   -7.0850   23.7830  -30.3310 C   0  0  0  0  0  0  0  0  0  0  0  0
   -7.5510   22.6600  -30.9760 C   0  0  0  0  0  0  0  0  0  0  0  0
   -8.7310   21.9370  -30.8150 C   0  0  0  0  0  0  0  0  0  0  0  0
   -8.9250   20.8100  -31.6370 C   0  0  0  0  0  0  0  0  0  0  0  0
   -7.9460   20.4400  -32.5870 C   0  0  0  0  0  0  0  0  0  0  0  0
   -6.7650   21.1940  -32.7250 C   0  0  0  0  0  0  0  0  0  0  0  0
   -6.6010   22.2990  -31.8930 C   0  0  0  0  0  0  0  0  0  0  0  0
   -5.5830   23.1220  -31.8470 O   0  0  0  0  0  0  0  0  0  0  0  0
   -3.4227   22.9911  -32.3514 H   0  0  0  0  0  0  0  0  0  0  0  0
    0.3165   18.7919  -34.5310 H   0  0  0  0  0  0  0  0  0  0  0  0
   -1.4890   18.8298  -34.7378 H   0  0  0  0  0  0  0  0  0  0  0  0
    0.2938   20.4693  -36.0667 H   0  0  0  0  0  0  0  0  0  0  0  0
   -1.4745   20.8154  -35.7618 H   0  0  0  0  0  0  0  0  0  0  0  0
    1.6824   21.0269  -34.1258 H   0  0  0  0  0  0  0  0  0  0  0  0
    1.1948   22.4951  -33.1995 H   0  0  0  0  0  0  0  0  0  0  0  0
    1.1015   20.0661  -32.0846 H   0  0  0  0  0  0  0  0  0  0  0  0
   -0.1809   21.3189  -31.7654 H   0  0  0  0  0  0  0  0  0  0  0  0
   -1.2410   20.1051  -29.9842 H   0  0  0  0  0  0  0  0  0  0  0  0
   -1.2042   21.6961  -28.0708 H   0  0  0  0  0  0  0  0  0  0  0  0
   -0.2676   24.8318  -28.5806 H   0  0  0  0  0  0  0  0  0  0  0  0
   -1.4619   26.1428  -28.2796 H   0  0  0  0  0  0  0  0  0  0  0  0
   -0.1685   24.3095  -26.1999 H   0  0  0  0  0  0  0  0  0  0  0  0
    0.1095   26.0918  -26.4475 H   0  0  0  0  0  0  0  0  0  0  0  0
   -1.6460   24.9653  -24.6187 H   0  0  0  0  0  0  0  0  0  0  0  0
   -1.6799   26.6731  -25.2764 H   0  0  0  0  0  0  0  0  0  0  0  0
   -3.8794   25.2484  -25.2559 H   0  0  0  0  0  0  0  0  0  0  0  0
   -3.4314   26.2494  -26.7011 H   0  0  0  0  0  0  0  0  0  0  0  0
   -3.0643   23.2372  -26.3623 H   0  0  0  0  0  0  0  0  0  0  0  0
   -4.2147   24.0950  -27.4639 H   0  0  0  0  0  0  0  0  0  0  0  0
   -7.5801   24.3600  -29.5360 H   0  0  0  0  0  0  0  0  0  0  0  0
   -9.4848   22.2360  -30.0718 H   0  0  0  0  0  0  0  0  0  0  0  0
   -9.8443   20.2139  -31.5391 H   0  0  0  0  0  0  0  0  0  0  0  0
   -8.1079   19.5571  -33.2228 H   0  0  0  0  0  0  0  0  0  0  0  0
   -5.9982   20.9199  -33.4645 H   0  0  0  0  0  0  0  0  0  0  0  0
  1  2  2  0
  2  3  1  0
  3  4  1  0
  4  5  2  0
  5  6  1  0
  6  7  1  0
  7  8  2  0
  7  9  2  0
  7 10  1  0
 10 11  1  0
 11 12  1  0
 12 13  1  0
 13 14  1  0
 14 15  1  0
  6 16  2  0
 16 17  1  0
 17 18  2  0
 18 19  1  0
 19 20  1  0
 20 21  1  0
 21 22  1  0
 22 23  1  0
 23 24  1  0
  2 25  1  0
 25 26  2  0
 26 27  1  0
 27 28  2  0
 28 29  1  0
 29 30  2  0
 30 31  1  0
 31 32  2  0
 32 33  1  0
 18  4  1  0
 24 19  1  0
 33 25  1  0
 15 10  1  0
 32 27  1  0
  5 34  1  0
 11 35  1  0
 11 36  1  0
 12 37  1  0
 12 38  1  0
 14 39  1  0
 14 40  1  0
 15 41  1  0
 15 42  1  0
 16 43  1  0
 17 44  1  0
 20 45  1  0
 20 46  1  0
 21 47  1  0
 21 48  1  0
 22 49  1  0
 22 50  1  0
 23 51  1  0
 23 52  1  0
 24 53  1  0
 24 54  1  0
 26 55  1  0
 28 56  1  0
 29 57  1  0
 30 58  1  0
 31 59  1  0
M  CHG  1   3  -1
M  END
>  <UniqueID>  (31) 
30

>  <SMILES>  (31) 
O=C([N-]c1cc(S(=O)(=O)N2CCOCC2)ccc1N1CCCCC1)c1cc2ccccc2o1

>  <Energy>  (31) 
114.35854078498063

>  <Genealogy>  (31) 
O=C([N-]c1cc(S(=O)(=O)N2CCOCC2)ccc1N1CCCCC1)c1cc2ccccc2o1 (protonated)
O=C([N-]c1cc(S(=O)(=O)N2CCOCC2)ccc1N1CCCCC1)c1cc2ccccc2o1 (3D coordinates assigned)
O=C([N-]c1cc(S(=O)(=O)N2CCOCC2)ccc1N1CCCCC1)c1cc2ccccc2o1 (nonaromatic ring conformer: 114.35854078498063 kcal/mol)

>  <smiles>  (31) 
O=C(Nc1cc(S(=O)(=O)N2CCOCC2)ccc1N1CCCCC1)c1cc2ccccc2o1

>  <score_type>  (31) 
oracle

>  <origin>  (31) 
adgpu

>  <m_score__min__energy>  (31) 
-11.539999999999999

>  <m_primary>  (31) 
energy

$$$$
31:0
     RDKit          3D

 56 59  0  0  0  0  0  0  0  0999 V2000
   -3.2930   12.9900  -33.7850 C   0  0  0  0  0  0  0  0  0  0  0  0
   -4.0980   13.6480  -34.7570 O   0  0  0  0  0  0  0  0  0  0  0  0
   -4.8130   14.8340  -34.5270 C   0  0  0  0  0  0  0  0  0  0  0  0
   -6.1880   14.8320  -34.2260 C   0  0  0  0  0  0  0  0  0  0  0  0
   -6.8660   16.0310  -34.0070 C   0  0  0  0  0  0  0  0  0  0  0  0
   -6.1880   17.2580  -34.0970 C   0  0  0  0  0  0  0  0  0  0  0  0
   -6.8620   18.5050  -33.8530 N   0  0  0  0  0  0  0  0  0  0  0  0
   -7.6550   18.7700  -32.6870 C   0  0  0  0  0  0  0  0  0  0  0  0
   -8.1750   17.8160  -32.0470 O   0  0  0  0  0  0  0  0  0  0  0  0
   -7.9410   20.1540  -32.2680 C   0  0  0  0  0  0  0  0  0  0  0  0
   -9.1950   20.7580  -32.2660 C   0  0  0  0  0  0  0  0  0  0  0  0
   -9.1070   22.0340  -31.8280 N   0  0  0  0  0  0  0  0  0  0  0  0
   -7.8100   22.2390  -31.5400 C   0  0  0  0  0  0  0  0  0  0  0  0
   -7.2400   23.4010  -31.0230 C   0  0  0  0  0  0  0  0  0  0  0  0
   -5.8600   23.3960  -30.7400 C   0  0  0  0  0  0  0  0  0  0  0  0
   -5.0940   24.8320  -30.0570 S   0  0  0  0  0  0  0  0  0  0  0  0
   -6.1510   25.7210  -29.4610 O   0  0  0  0  0  0  0  0  0  0  0  0
   -4.4080   25.5970  -31.1550 O   0  0  0  0  0  0  0  0  0  0  0  0
   -3.9220   24.4110  -28.8280 N   0  0  0  0  0  0  0  0  0  0  0  0
   -4.2740   23.1180  -28.2040 C   0  0  0  0  0  0  0  0  0  0  0  0
   -3.0830   22.5210  -27.4470 C   0  0  0  0  0  0  0  0  0  0  0  0
   -1.9130   22.2250  -28.4010 C   0  0  0  0  0  0  0  0  0  0  0  0
   -1.9240   23.1200  -29.6520 C   0  0  0  0  0  0  0  0  0  0  0  0
   -2.5330   24.4960  -29.3450 C   0  0  0  0  0  0  0  0  0  0  0  0
   -5.0940   22.2310  -30.9840 C   0  0  0  0  0  0  0  0  0  0  0  0
   -5.6970   21.0720  -31.5030 C   0  0  0  0  0  0  0  0  0  0  0  0
   -7.0640   21.1150  -31.7880 C   0  0  0  0  0  0  0  0  0  0  0  0
   -4.8140   17.2600  -34.3750 C   0  0  0  0  0  0  0  0  0  0  0  0
   -4.1230   16.0530  -34.5990 C   0  0  0  0  0  0  0  0  0  0  0  0
   -2.7500   16.0250  -34.8940 O   0  0  0  0  0  0  0  0  0  0  0  0
   -2.1940   15.5120  -36.1000 C   0  0  0  0  0  0  0  0  0  0  0  0
   -3.6340   13.2687  -32.7770 H   0  0  0  0  0  0  0  0  0  0  0  0
   -3.3798   11.9010  -33.9134 H   0  0  0  0  0  0  0  0  0  0  0  0
   -2.2430   13.2918  -33.9134 H   0  0  0  0  0  0  0  0  0  0  0  0
   -6.7318   13.8779  -34.1630 H   0  0  0  0  0  0  0  0  0  0  0  0
   -7.9383   16.0157  -33.7623 H   0  0  0  0  0  0  0  0  0  0  0  0
   -6.8730   19.2170  -34.6180 H   0  0  0  0  0  0  0  0  0  0  0  0
  -10.1280   20.2656  -32.5775 H   0  0  0  0  0  0  0  0  0  0  0  0
   -9.8910   22.7150  -31.7240 H   0  0  0  0  0  0  0  0  0  0  0  0
   -7.8509   24.2974  -30.8409 H   0  0  0  0  0  0  0  0  0  0  0  0
   -5.1040   23.2747  -27.4994 H   0  0  0  0  0  0  0  0  0  0  0  0
   -4.5654   22.4169  -29.0000 H   0  0  0  0  0  0  0  0  0  0  0  0
   -2.7495   23.2360  -26.6804 H   0  0  0  0  0  0  0  0  0  0  0  0
   -3.4023   21.5767  -26.9819 H   0  0  0  0  0  0  0  0  0  0  0  0
   -0.9688   22.3877  -27.8605 H   0  0  0  0  0  0  0  0  0  0  0  0
   -2.0154   21.1829  -28.7380 H   0  0  0  0  0  0  0  0  0  0  0  0
   -0.8911   23.2555  -30.0053 H   0  0  0  0  0  0  0  0  0  0  0  0
   -2.5371   22.6321  -30.4240 H   0  0  0  0  0  0  0  0  0  0  0  0
   -1.9078   24.9961  -28.5907 H   0  0  0  0  0  0  0  0  0  0  0  0
   -2.5661   25.0602  -30.2887 H   0  0  0  0  0  0  0  0  0  0  0  0
   -4.0160   22.2325  -30.7653 H   0  0  0  0  0  0  0  0  0  0  0  0
   -5.1100   20.1586  -31.6794 H   0  0  0  0  0  0  0  0  0  0  0  0
   -4.2693   18.2147  -34.4187 H   0  0  0  0  0  0  0  0  0  0  0  0
   -1.4051   14.7841  -35.8595 H   0  0  0  0  0  0  0  0  0  0  0  0
   -2.9827   15.0177  -36.6862 H   0  0  0  0  0  0  0  0  0  0  0  0
   -1.7646   16.3378  -36.6862 H   0  0  0  0  0  0  0  0  0  0  0  0
  1  2  1  0
  2  3  1  0
  3  4  2  0
  4  5  1  0
  5  6  2  0
  6  7  1  0
  7  8  1  0
  8  9  2  0
  8 10  1  0
 10 11  2  0
 11 12  1  0
 12 13  1  0
 13 14  2  0
 14 15  1  0
 15 16  1  0
 16 17  2  0
 16 18  2  0
 16 19  1  0
 19 20  1  0
 20 21  1  0
 21 22  1  0
 22 23  1  0
 23 24  1  0
 15 25  2  0
 25 26  1  0
 26 27  2  0
  6 28  1  0
 28 29  2  0
 29 30  1  0
 30 31  1  0
 29  3  1  0
 27 10  1  0
 27 13  1  0
 24 19  1  0
  1 32  1  0
  1 33  1  0
  1 34  1  0
  4 35  1  0
  5 36  1  0
  7 37  1  0
 11 38  1  0
 12 39  1  0
 14 40  1  0
 20 41  1  0
 20 42  1  0
 21 43  1  0
 21 44  1  0
 22 45  1  0
 22 46  1  0
 23 47  1  0
 23 48  1  0
 24 49  1  0
 24 50  1  0
 25 51  1  0
 26 52  1  0
 28 53  1  0
 31 54  1  0
 31 55  1  0
 31 56  1  0
M  END
>  <UniqueID>  (32) 
31

>  <SMILES>  (32) 
COc1ccc(NC(=O)c2c[nH]c3cc(S(=O)(=O)N4CCCCC4)ccc23)cc1OC

>  <Energy>  (32) 
100.5776079492099

>  <Genealogy>  (32) 
COc1ccc(NC(=O)c2c[nH]c3cc(S(=O)(=O)N4CCCCC4)ccc23)cc1OC (3D coordinates assigned)
COc1ccc(NC(=O)c2c[nH]c3cc(S(=O)(=O)N4CCCCC4)ccc23)cc1OC (nonaromatic ring conformer: 100.5776079492099 kcal/mol)

>  <smiles>  (32) 
COc1ccc(NC(=O)c2c[nH]c3cc(S(=O)(=O)N4CCCCC4)ccc23)cc1OC

>  <score_type>  (32) 
oracle

>  <origin>  (32) 
adgpu

>  <m_score__min__energy>  (32) 
-10.02

>  <m_primary>  (32) 
energy

$$$$
32:0
     RDKit          3D

 83 88  0  0  0  0  0  0  0  0999 V2000
   -5.2240   20.0460  -31.6380 C   0  0  0  0  0  0  0  0  0  0  0  0
   -3.9150   20.2560  -32.3620 C   0  0  0  0  0  0  0  0  0  0  0  0
   -3.4530   19.2950  -33.2950 C   0  0  0  0  0  0  0  0  0  0  0  0
   -4.2230   18.0730  -33.5990 C   0  0  0  0  0  0  0  0  0  0  0  0
   -5.4500   18.1600  -34.2750 C   0  0  0  0  0  0  0  0  0  0  0  0
   -6.1710   16.9990  -34.5710 C   0  0  0  0  0  0  0  0  0  0  0  0
   -5.6660   15.7470  -34.1990 C   0  0  0  0  0  0  0  0  0  0  0  0
   -4.4470   15.6560  -33.5230 C   0  0  0  0  0  0  0  0  0  0  0  0
   -3.7270   16.8150  -33.2160 C   0  0  0  0  0  0  0  0  0  0  0  0
   -2.2320   19.4940  -33.9550 C   0  0  0  0  0  0  0  0  0  0  0  0
   -1.4440   20.6130  -33.6730 C   0  0  0  0  0  0  0  0  0  0  0  0
   -0.1490   20.7960  -34.3540 C   0  0  0  0  0  0  0  0  0  0  0  0
   -0.0870   21.6990  -35.4290 C   0  0  0  0  0  0  0  0  0  0  0  0
    1.1240   21.9520  -36.0720 C   0  0  0  0  0  0  0  0  0  0  0  0
    2.2860   21.3100  -35.6460 C   0  0  0  0  0  0  0  0  0  0  0  0
    2.2390   20.4010  -34.5860 C   0  0  0  0  0  0  0  0  0  0  0  0
    1.0250   20.1170  -33.9380 C   0  0  0  0  0  0  0  0  0  0  0  0
    1.0050   18.9170  -32.6290 S   0  0  0  0  0  0  0  0  0  0  0  0
   -0.2960   18.1690  -32.6770 O   0  0  0  0  0  0  0  0  0  0  0  0
    2.1400   17.9460  -32.8030 O   0  0  0  0  0  0  0  0  0  0  0  0
    1.1780   19.6900  -31.0680 N   0  0  2  0  0  0  0  0  0  0  0  0
    1.9750   18.8690  -30.1400 C   0  0  0  0  0  0  0  0  0  0  0  0
    1.1280   18.6160  -28.9030 C   0  0  0  0  0  0  0  0  0  0  0  0
    0.0350   19.6910  -28.9220 C   0  0  2  0  0  0  0  0  0  0  0  0
    0.5460   20.9870  -28.2400 C   0  0  0  0  0  0  0  0  0  0  0  0
   -1.2300   19.1860  -28.3060 N   0  0  0  0  0  0  0  0  0  0  0  0
   -2.4270   20.0490  -28.5330 C   0  0  0  0  0  0  0  0  0  0  0  0
   -3.1140   20.5000  -27.2360 C   0  0  0  0  0  0  0  0  0  0  0  0
   -3.4950   19.2970  -26.3650 C   0  0  0  0  0  0  0  0  0  0  0  0
   -2.4240   18.1920  -26.3690 C   0  0  0  0  0  0  0  0  0  0  0  0
   -1.0830   18.6970  -26.9100 C   0  0  0  0  0  0  0  0  0  0  0  0
   -0.1330   19.9150  -30.4370 C   0  0  0  0  0  0  0  0  0  0  0  0
   -1.8830   21.5500  -32.7340 C   0  0  0  0  0  0  0  0  0  0  0  0
   -3.1100   21.3870  -32.0820 C   0  0  0  0  0  0  0  0  0  0  0  0
   -3.5300   22.3950  -31.1530 N   0  0  0  0  0  0  0  0  0  0  0  0
   -4.9230   22.8560  -31.1630 C   0  0  0  0  0  0  0  0  0  0  0  0
   -5.0280   24.3720  -30.8860 C   0  0  0  0  0  0  0  0  0  0  0  0
   -3.8490   24.9450  -30.2070 N   0  0  0  0  0  0  0  0  0  0  0  0
   -3.2060   23.9860  -29.3050 C   0  0  0  0  0  0  0  0  0  0  0  0
   -2.5880   22.8640  -30.1330 C   0  0  0  0  0  0  0  0  0  0  0  0
   -5.0509   20.0738  -30.5521 H   0  0  0  0  0  0  0  0  0  0  0  0
   -5.9294   20.8425  -31.9174 H   0  0  0  0  0  0  0  0  0  0  0  0
   -5.6449   19.0688  -31.9174 H   0  0  0  0  0  0  0  0  0  0  0  0
   -5.8449   19.1427  -34.5723 H   0  0  0  0  0  0  0  0  0  0  0  0
   -7.1350   17.0692  -35.0961 H   0  0  0  0  0  0  0  0  0  0  0  0
   -6.2301   14.8338  -34.4395 H   0  0  0  0  0  0  0  0  0  0  0  0
   -4.0528   14.6713  -33.2317 H   0  0  0  0  0  0  0  0  0  0  0  0
   -2.7722   16.7420  -32.6746 H   0  0  0  0  0  0  0  0  0  0  0  0
   -1.8911   18.7621  -34.7021 H   0  0  0  0  0  0  0  0  0  0  0  0
   -1.0009   22.2102  -35.7658 H   0  0  0  0  0  0  0  0  0  0  0  0
    1.1626   22.6577  -36.9149 H   0  0  0  0  0  0  0  0  0  0  0  0
    3.2430   21.5198  -36.1461 H   0  0  0  0  0  0  0  0  0  0  0  0
    3.1621   19.9024  -34.2553 H   0  0  0  0  0  0  0  0  0  0  0  0
    1.6420   20.6180  -31.2040 H   0  0  0  0  0  0  0  0  0  0  0  0
    2.2374   17.9129  -30.6164 H   0  0  0  0  0  0  0  0  0  0  0  0
    2.9067   19.3875  -29.8697 H   0  0  0  0  0  0  0  0  0  0  0  0
    0.6797   17.6123  -28.9438 H   0  0  0  0  0  0  0  0  0  0  0  0
    1.7287   18.6638  -27.9827 H   0  0  0  0  0  0  0  0  0  0  0  0
    0.4995   20.8691  -27.1473 H   0  0  0  0  0  0  0  0  0  0  0  0
    1.5860   21.1760  -28.5445 H   0  0  0  0  0  0  0  0  0  0  0  0
   -0.0851   21.8349  -28.5445 H   0  0  0  0  0  0  0  0  0  0  0  0
   -2.1102   20.9442  -29.0882 H   0  0  0  0  0  0  0  0  0  0  0  0
   -3.1577   19.4467  -29.0927 H   0  0  0  0  0  0  0  0  0  0  0  0
   -2.4269   21.1482  -26.6723 H   0  0  0  0  0  0  0  0  0  0  0  0
   -4.0324   21.0453  -27.4989 H   0  0  0  0  0  0  0  0  0  0  0  0
   -3.6379   19.6436  -25.3309 H   0  0  0  0  0  0  0  0  0  0  0  0
   -4.4164   18.8653  -26.7830 H   0  0  0  0  0  0  0  0  0  0  0  0
   -2.2795   17.8333  -25.3392 H   0  0  0  0  0  0  0  0  0  0  0  0
   -2.7730   17.3819  -27.0262 H   0  0  0  0  0  0  0  0  0  0  0  0
   -0.7245   19.5204  -26.2749 H   0  0  0  0  0  0  0  0  0  0  0  0
   -0.3624   17.8660  -26.9005 H   0  0  0  0  0  0  0  0  0  0  0  0
   -0.8706   19.2063  -30.8415 H   0  0  0  0  0  0  0  0  0  0  0  0
   -0.4893   20.9358  -30.6396 H   0  0  0  0  0  0  0  0  0  0  0  0
   -1.2572   22.4251  -32.5050 H   0  0  0  0  0  0  0  0  0  0  0  0
   -5.3613   22.6431  -32.1492 H   0  0  0  0  0  0  0  0  0  0  0  0
   -5.4645   22.3248  -30.3664 H   0  0  0  0  0  0  0  0  0  0  0  0
   -5.1585   24.8904  -31.8474 H   0  0  0  0  0  0  0  0  0  0  0  0
   -5.8828   24.5115  -30.2079 H   0  0  0  0  0  0  0  0  0  0  0  0
   -4.1640   25.7650  -29.6410 H   0  0  0  0  0  0  0  0  0  0  0  0
   -2.4200   24.4935  -28.7265 H   0  0  0  0  0  0  0  0  0  0  0  0
   -3.9519   23.5694  -28.6121 H   0  0  0  0  0  0  0  0  0  0  0  0
   -1.6783   23.2376  -30.6258 H   0  0  0  0  0  0  0  0  0  0  0  0
   -2.3425   22.0251  -29.4652 H   0  0  0  0  0  0  0  0  0  0  0  0
  1  2  1  0
  2  3  2  0
  3  4  1  0
  4  5  2  0
  5  6  1  0
  6  7  2  0
  7  8  1  0
  8  9  2  0
  3 10  1  0
 10 11  2  0
 11 12  1  0
 12 13  2  0
 13 14  1  0
 14 15  2  0
 15 16  1  0
 16 17  2  0
 17 18  1  0
 18 19  2  0
 18 20  2  0
 18 21  1  0
 21 22  1  0
 22 23  1  0
 23 24  1  0
 24 25  1  1
 24 26  1  0
 26 27  1  0
 27 28  1  0
 28 29  1  0
 29 30  1  0
 30 31  1  0
 24 32  1  0
 11 33  1  0
 33 34  2  0
 34 35  1  0
 35 36  1  0
 36 37  1  0
 37 38  1  0
 38 39  1  0
 39 40  1  0
 34  2  1  0
 40 35  1  0
  9  4  1  0
 17 12  1  0
 32 21  1  0
 31 26  1  0
  1 41  1  0
  1 42  1  0
  1 43  1  0
  5 44  1  0
  6 45  1  0
  7 46  1  0
  8 47  1  0
  9 48  1  0
 10 49  1  0
 13 50  1  0
 14 51  1  0
 15 52  1  0
 16 53  1  0
 21 54  1  6
 22 55  1  0
 22 56  1  0
 23 57  1  0
 23 58  1  0
 25 59  1  0
 25 60  1  0
 25 61  1  0
 27 62  1  0
 27 63  1  0
 28 64  1  0
 28 65  1  0
 29 66  1  0
 29 67  1  0
 30 68  1  0
 30 69  1  0
 31 70  1  0
 31 71  1  0
 32 72  1  0
 32 73  1  0
 33 74  1  0
 36 75  1  0
 36 76  1  0
 37 77  1  0
 37 78  1  0
 38 79  1  0
 39 80  1  0
 39 81  1  0
 40 82  1  0
 40 83  1  0
M  CHG  1  21   1
M  END
>  <UniqueID>  (33) 
32

>  <SMILES>  (33) 
Cc1c(-c2ccccc2)cc(-c2ccccc2S(=O)(=O)[N@@H+]2CC[C@](C)(N3CCCCC3)C2)cc1N1CCNCC1

>  <Energy>  (33) 
129.38155761003196

>  <Genealogy>  (33) 
Cc1c(-c2ccccc2)cc(-c2ccccc2S(=O)(=O)[NH+]2CCC(C)(N3CCCCC3)C2)cc1N1CCNCC1 (protonated)
Cc1c(-c2ccccc2)cc(-c2ccccc2S(=O)(=O)[N@@H+]2CC[C@](C)(N3CCCCC3)C2)cc1N1CCNCC1 (chirality)
Cc1c(-c2ccccc2)cc(-c2ccccc2S(=O)(=O)[N@@H+]2CC[C@](C)(N3CCCCC3)C2)cc1N1CCNCC1 (3D coordinates assigned)
Cc1c(-c2ccccc2)cc(-c2ccccc2S(=O)(=O)[N@@H+]2CC[C@](C)(N3CCCCC3)C2)cc1N1CCNCC1 (nonaromatic ring conformer: 129.38155761003196 kcal/mol)

>  <smiles>  (33) 
Cc1c(-c2ccccc2)cc(-c2ccccc2S(=O)(=O)N2CCC(C)(N3CCCCC3)C2)cc1N1CCNCC1

>  <score_type>  (33) 
oracle

>  <origin>  (33) 
adgpu

>  <m_score__min__energy>  (33) 
-10.99

>  <m_primary>  (33) 
energy

$$$$
33:0
     RDKit          3D

 44 46  0  0  0  0  0  0  0  0999 V2000
   -7.4110   17.9110  -31.9380 C   0  0  0  0  0  0  0  0  0  0  0  0
   -8.2300   19.1120  -32.3030 C   0  0  0  0  0  0  0  0  0  0  0  0
   -9.4560   19.1220  -32.0210 O   0  0  0  0  0  0  0  0  0  0  0  0
   -7.6710   20.2350  -33.0000 N   0  0  0  0  0  0  0  0  0  0  0  0
   -7.1020   21.4140  -32.4110 C   0  0  0  0  0  0  0  0  0  0  0  0
   -7.9220   22.2480  -31.6410 C   0  0  0  0  0  0  0  0  0  0  0  0
   -7.3970   23.3910  -31.0320 C   0  0  0  0  0  0  0  0  0  0  0  0
   -6.0360   23.7040  -31.1780 C   0  0  0  0  0  0  0  0  0  0  0  0
   -5.3550   25.1470  -30.4360 S   0  0  0  0  0  0  0  0  0  0  0  0
   -5.7380   26.3850  -31.1990 O   0  0  0  0  0  0  0  0  0  0  0  0
   -5.8830   25.2660  -29.0340 O   0  0  0  0  0  0  0  0  0  0  0  0
   -3.6270   25.0140  -30.3820 N   0  0  0  0  0  0  0  0  0  0  0  0
   -2.8800   24.2650  -29.4120 C   0  0  0  0  0  0  0  0  0  0  0  0
   -3.3010   23.0000  -28.9610 C   0  0  0  0  0  0  0  0  0  0  0  0
   -2.5400   22.2870  -28.0210 C   0  0  0  0  0  0  0  0  0  0  0  0
   -1.3630   22.8560  -27.4990 C   0  0  0  0  0  0  0  0  0  0  0  0
   -0.9400   24.1110  -27.9600 C   0  0  0  0  0  0  0  0  0  0  0  0
   -1.6920   24.8110  -28.9060 C   0  0  0  0  0  0  0  0  0  0  0  0
   -1.2520   26.0530  -29.3470 O   0  0  0  0  0  0  0  0  0  0  0  0
   -0.4870   22.0930  -26.5400 C   0  0  0  0  0  0  0  0  0  0  0  0
   -1.2090   20.8900  -25.9160 C   0  0  0  0  0  0  0  0  0  0  0  0
   -1.9940   20.1270  -26.9070 N   0  0  0  0  0  0  0  0  0  0  0  0
   -1.1490   19.4860  -27.9310 C   0  0  0  0  0  0  0  0  0  0  0  0
   -3.0540   20.9600  -27.5090 C   0  0  0  0  0  0  0  0  0  0  0  0
   -5.2060   22.8560  -31.9230 C   0  0  0  0  0  0  0  0  0  0  0  0
   -5.7310   21.7100  -32.5260 C   0  0  0  0  0  0  0  0  0  0  0  0
   -7.3529   17.8259  -30.8428 H   0  0  0  0  0  0  0  0  0  0  0  0
   -7.8815   17.0068  -32.3516 H   0  0  0  0  0  0  0  0  0  0  0  0
   -6.3975   18.0189  -32.3516 H   0  0  0  0  0  0  0  0  0  0  0  0
   -8.9866   22.0018  -31.5146 H   0  0  0  0  0  0  0  0  0  0  0  0
   -8.0507   24.0462  -30.4376 H   0  0  0  0  0  0  0  0  0  0  0  0
   -4.2346   22.5661  -29.3485 H   0  0  0  0  0  0  0  0  0  0  0  0
   -0.0076   24.5480  -27.5731 H   0  0  0  0  0  0  0  0  0  0  0  0
    0.3985   21.7306  -27.0827 H   0  0  0  0  0  0  0  0  0  0  0  0
   -0.2089   22.7766  -25.7243 H   0  0  0  0  0  0  0  0  0  0  0  0
   -0.4589   20.2210  -25.4691 H   0  0  0  0  0  0  0  0  0  0  0  0
   -1.9085   21.2749  -25.1593 H   0  0  0  0  0  0  0  0  0  0  0  0
   -0.3649   18.8912  -27.4396 H   0  0  0  0  0  0  0  0  0  0  0  0
   -1.7686   18.8287  -28.5587 H   0  0  0  0  0  0  0  0  0  0  0  0
   -0.6830   20.2598  -28.5587 H   0  0  0  0  0  0  0  0  0  0  0  0
   -3.4992   20.4080  -28.3499 H   0  0  0  0  0  0  0  0  0  0  0  0
   -3.7928   21.1734  -26.7225 H   0  0  0  0  0  0  0  0  0  0  0  0
   -4.1376   23.0932  -32.0336 H   0  0  0  0  0  0  0  0  0  0  0  0
   -5.0705   21.0370  -33.0924 H   0  0  0  0  0  0  0  0  0  0  0  0
  1  2  1  0
  2  3  2  0
  2  4  1  0
  4  5  1  0
  5  6  2  0
  6  7  1  0
  7  8  2  0
  8  9  1  0
  9 10  2  0
  9 11  2  0
  9 12  1  0
 12 13  1  0
 13 14  2  0
 14 15  1  0
 15 16  2  0
 16 17  1  0
 17 18  2  0
 18 19  1  0
 16 20  1  0
 20 21  1  0
 21 22  1  0
 22 23  1  0
 22 24  1  0
  8 25  1  0
 25 26  2  0
 26  5  1  0
 18 13  1  0
 24 15  1  0
  1 27  1  0
  1 28  1  0
  1 29  1  0
  6 30  1  0
  7 31  1  0
 14 32  1  0
 17 33  1  0
 20 34  1  0
 20 35  1  0
 21 36  1  0
 21 37  1  0
 23 38  1  0
 23 39  1  0
 23 40  1  0
 24 41  1  0
 24 42  1  0
 25 43  1  0
 26 44  1  0
M  CHG  3   4  -1  12  -1  19  -1
M  END
>  <UniqueID>  (34) 
33

>  <SMILES>  (34) 
CC(=O)[N-]c1ccc(S(=O)(=O)[N-]c2cc3c(cc2[O-])CCN(C)C3)cc1

>  <Energy>  (34) 
57.15430379090581

>  <Genealogy>  (34) 
CC(=O)[N-]c1ccc(S(=O)(=O)[N-]c2cc3c(cc2[O-])CCN(C)C3)cc1 (protonated)
CC(=O)[N-]c1ccc(S(=O)(=O)[N-]c2cc3c(cc2[O-])CCN(C)C3)cc1 (3D coordinates assigned)
CC(=O)[N-]c1ccc(S(=O)(=O)[N-]c2cc3c(cc2[O-])CCN(C)C3)cc1 (nonaromatic ring conformer: 57.15430379090581 kcal/mol)

>  <smiles>  (34) 
CC(=O)Nc1ccc(S(=O)(=O)Nc2cc3c(cc2O)CCN(C)C3)cc1

>  <score_type>  (34) 
oracle

>  <origin>  (34) 
adgpu

>  <m_score__min__energy>  (34) 
-13.640000000000001

>  <m_primary>  (34) 
energy

$$$$
34:0
     RDKit          3D

 62 65  0  0  0  0  0  0  0  0999 V2000
   -1.9910   25.6720  -28.8420 O   0  0  0  0  0  0  0  0  0  0  0  0
   -2.4990   24.6820  -29.4330 C   0  0  0  0  0  0  0  0  0  0  0  0
   -3.4920   24.9060  -30.4420 N   0  0  0  0  0  0  0  0  0  0  0  0
   -4.7860   24.2290  -30.4910 C   0  0  0  0  0  0  0  0  0  0  0  0
   -5.6980   24.7560  -29.3670 C   0  0  0  0  0  0  0  0  0  0  0  0
   -7.1910   24.7700  -29.7570 C   0  0  0  0  0  0  0  0  0  0  0  0
   -7.5610   23.6740  -30.6760 N   0  0  0  0  0  0  0  0  0  0  0  0
   -7.5690   22.3570  -30.0020 C   0  0  0  0  0  0  0  0  0  0  0  0
   -7.1990   21.2560  -30.9650 C   0  0  0  0  0  0  0  0  0  0  0  0
   -8.2020   20.5230  -31.6200 C   0  0  0  0  0  0  0  0  0  0  0  0
   -7.8600   19.5310  -32.5460 C   0  0  0  0  0  0  0  0  0  0  0  0
   -6.5130   19.2300  -32.8070 C   0  0  0  0  0  0  0  0  0  0  0  0
   -6.1360   18.2200  -33.8690 C   0  0  0  0  0  0  0  0  0  0  0  0
   -6.1030   18.8200  -35.1140 F   0  0  0  0  0  0  0  0  0  0  0  0
   -7.0720   17.2010  -33.8830 F   0  0  0  0  0  0  0  0  0  0  0  0
   -4.8870   17.6740  -33.6190 F   0  0  0  0  0  0  0  0  0  0  0  0
   -5.5110   19.9690  -32.1530 C   0  0  0  0  0  0  0  0  0  0  0  0
   -5.8500   20.9690  -31.2370 C   0  0  0  0  0  0  0  0  0  0  0  0
   -6.7890   23.6980  -31.9490 C   0  0  0  0  0  0  0  0  0  0  0  0
   -5.4360   24.4360  -31.8610 C   0  0  0  0  0  0  0  0  0  0  0  0
   -2.0720   23.3200  -29.0590 C   0  0  0  0  0  0  0  0  0  0  0  0
   -0.9440   23.1280  -28.2490 C   0  0  0  0  0  0  0  0  0  0  0  0
   -0.5090   21.8350  -27.9440 C   0  0  0  0  0  0  0  0  0  0  0  0
   -1.2170   20.7220  -28.4180 C   0  0  0  0  0  0  0  0  0  0  0  0
   -0.6070   19.1010  -28.1100 S   0  0  0  0  0  0  0  0  0  0  0  0
   -1.5330   18.3770  -27.1750 O   0  0  0  0  0  0  0  0  0  0  0  0
    0.7380   19.2130  -27.4420 O   0  0  0  0  0  0  0  0  0  0  0  0
   -0.4320   18.2290  -29.6200 N   0  0  0  0  0  0  0  0  0  0  0  0
    0.6270   17.2090  -29.5530 C   0  0  0  0  0  0  0  0  0  0  0  0
    2.0470   17.8280  -29.5630 C   0  0  0  0  0  0  0  0  0  0  0  0
    2.0720   19.1780  -30.0010 O   0  0  0  0  0  0  0  0  0  0  0  0
    1.2470   19.3420  -31.1340 C   0  0  0  0  0  0  0  0  0  0  0  0
   -0.2400   19.1430  -30.7690 C   0  0  0  0  0  0  0  0  0  0  0  0
   -2.3680   20.9130  -29.1980 C   0  0  0  0  0  0  0  0  0  0  0  0
   -2.7900   22.2050  -29.5180 C   0  0  0  0  0  0  0  0  0  0  0  0
   -4.6355   23.1499  -30.3396 H   0  0  0  0  0  0  0  0  0  0  0  0
   -5.5727   24.1126  -28.4836 H   0  0  0  0  0  0  0  0  0  0  0  0
   -5.4018   25.7957  -29.1639 H   0  0  0  0  0  0  0  0  0  0  0  0
   -7.7929   24.6768  -28.8410 H   0  0  0  0  0  0  0  0  0  0  0  0
   -7.3836   25.7171  -30.2822 H   0  0  0  0  0  0  0  0  0  0  0  0
   -6.8433   22.3712  -29.1755 H   0  0  0  0  0  0  0  0  0  0  0  0
   -8.5826   22.1639  -29.6207 H   0  0  0  0  0  0  0  0  0  0  0  0
   -9.2607   20.7294  -31.4043 H   0  0  0  0  0  0  0  0  0  0  0  0
   -8.6533   18.9819  -33.0743 H   0  0  0  0  0  0  0  0  0  0  0  0
   -4.4522   19.7584  -32.3640 H   0  0  0  0  0  0  0  0  0  0  0  0
   -5.0567   21.5345  -30.7262 H   0  0  0  0  0  0  0  0  0  0  0  0
   -6.5948   22.6589  -32.2531 H   0  0  0  0  0  0  0  0  0  0  0  0
   -7.4012   24.2508  -32.6768 H   0  0  0  0  0  0  0  0  0  0  0  0
   -4.7635   24.0483  -32.6404 H   0  0  0  0  0  0  0  0  0  0  0  0
   -5.6138   25.5119  -32.0054 H   0  0  0  0  0  0  0  0  0  0  0  0
   -0.3995   23.9975  -27.8522 H   0  0  0  0  0  0  0  0  0  0  0  0
    0.3921   21.6905  -27.3299 H   0  0  0  0  0  0  0  0  0  0  0  0
    0.5010   16.6298  -28.6264 H   0  0  0  0  0  0  0  0  0  0  0  0
    0.5338   16.5709  -30.4441 H   0  0  0  0  0  0  0  0  0  0  0  0
    2.4527   17.7856  -28.5414 H   0  0  0  0  0  0  0  0  0  0  0  0
    2.6496   17.2451  -30.2751 H   0  0  0  0  0  0  0  0  0  0  0  0
    1.3860   20.3562  -31.5365 H   0  0  0  0  0  0  0  0  0  0  0  0
    1.5277   18.5880  -31.8841 H   0  0  0  0  0  0  0  0  0  0  0  0
   -0.6736   20.1217  -30.5157 H   0  0  0  0  0  0  0  0  0  0  0  0
   -0.7366   18.6893  -31.6394 H   0  0  0  0  0  0  0  0  0  0  0  0
   -2.9383   20.0439  -29.5577 H   0  0  0  0  0  0  0  0  0  0  0  0
   -3.6903   22.3496  -30.1333 H   0  0  0  0  0  0  0  0  0  0  0  0
  1  2  2  0
  2  3  1  0
  3  4  1  0
  4  5  1  0
  5  6  1  0
  6  7  1  0
  7  8  1  0
  8  9  1  0
  9 10  2  0
 10 11  1  0
 11 12  2  0
 12 13  1  0
 13 14  1  0
 13 15  1  0
 13 16  1  0
 12 17  1  0
 17 18  2  0
  7 19  1  0
 19 20  1  0
  2 21  1  0
 21 22  2  0
 22 23  1  0
 23 24  2  0
 24 25  1  0
 25 26  2  0
 25 27  2  0
 25 28  1  0
 28 29  1  0
 29 30  1  0
 30 31  1  0
 31 32  1  0
 32 33  1  0
 24 34  1  0
 34 35  2  0
 20  4  1  0
 35 21  1  0
 18  9  1  0
 33 28  1  0
  4 36  1  0
  5 37  1  0
  5 38  1  0
  6 39  1  0
  6 40  1  0
  8 41  1  0
  8 42  1  0
 10 43  1  0
 11 44  1  0
 17 45  1  0
 18 46  1  0
 19 47  1  0
 19 48  1  0
 20 49  1  0
 20 50  1  0
 22 51  1  0
 23 52  1  0
 29 53  1  0
 29 54  1  0
 30 55  1  0
 30 56  1  0
 32 57  1  0
 32 58  1  0
 33 59  1  0
 33 60  1  0
 34 61  1  0
 35 62  1  0
M  CHG  1   3  -1
M  END
>  <UniqueID>  (35) 
34

>  <SMILES>  (35) 
O=C([N-]C1CCN(Cc2ccc(C(F)(F)F)cc2)CC1)c1ccc(S(=O)(=O)N2CCOCC2)cc1

>  <Energy>  (35) 
87.90602638313877

>  <Genealogy>  (35) 
O=C([N-]C1CCN(Cc2ccc(C(F)(F)F)cc2)CC1)c1ccc(S(=O)(=O)N2CCOCC2)cc1 (protonated)
O=C([N-]C1CCN(Cc2ccc(C(F)(F)F)cc2)CC1)c1ccc(S(=O)(=O)N2CCOCC2)cc1 (3D coordinates assigned)
O=C([N-]C1CCN(Cc2ccc(C(F)(F)F)cc2)CC1)c1ccc(S(=O)(=O)N2CCOCC2)cc1 (nonaromatic ring conformer: 87.90602638313877 kcal/mol)

>  <smiles>  (35) 
O=C(NC1CCN(Cc2ccc(C(F)(F)F)cc2)CC1)c1ccc(S(=O)(=O)N2CCOCC2)cc1

>  <score_type>  (35) 
oracle

>  <origin>  (35) 
adgpu

>  <m_score__min__energy>  (35) 
-11.91

>  <m_primary>  (35) 
energy

$$$$
35:0
     RDKit          3D

 44 46  0  0  0  0  0  0  0  0999 V2000
   -2.3070   19.9870  -27.1330 N   0  0  0  0  0  0  0  0  0  0  0  0
   -2.1320   21.0810  -27.4670 C   0  0  0  0  0  0  0  0  0  0  0  0
   -1.9140   22.4410  -27.8840 C   0  0  0  0  0  0  0  0  0  0  0  0
   -0.8030   23.1480  -27.4120 C   0  0  0  0  0  0  0  0  0  0  0  0
   -0.5900   24.4680  -27.8180 C   0  0  0  0  0  0  0  0  0  0  0  0
   -1.4760   25.0830  -28.7090 C   0  0  0  0  0  0  0  0  0  0  0  0
   -1.2350   26.3930  -29.1100 O   0  0  0  0  0  0  0  0  0  0  0  0
   -2.5900   24.3770  -29.2040 C   0  0  0  0  0  0  0  0  0  0  0  0
   -3.4750   25.0030  -30.1490 N   0  0  0  0  0  0  0  0  0  0  0  0
   -5.1160   24.4880  -30.3830 S   0  0  0  0  0  0  0  0  0  0  0  0
   -5.8000   24.4030  -29.0470 O   0  0  0  0  0  0  0  0  0  0  0  0
   -5.8390   25.4850  -31.2430 O   0  0  0  0  0  0  0  0  0  0  0  0
   -5.1290   22.9230  -31.1930 C   0  0  0  0  0  0  0  0  0  0  0  0
   -6.3510   22.2830  -31.4390 C   0  0  0  0  0  0  0  0  0  0  0  0
   -6.3900   21.1130  -32.2000 C   0  0  0  0  0  0  0  0  0  0  0  0
   -5.2060   20.5680  -32.7140 C   0  0  0  0  0  0  0  0  0  0  0  0
   -5.2570   19.1850  -33.8020 S   0  0  0  0  0  0  0  0  0  0  0  0
   -3.9380   19.0370  -34.5100 O   0  0  0  0  0  0  0  0  0  0  0  0
   -6.3330   19.4100  -34.8280 O   0  0  0  0  0  0  0  0  0  0  0  0
   -5.6100   17.7380  -32.8870 N   0  0  0  0  0  0  0  0  0  0  0  0
   -4.4210   16.8660  -32.8510 C   0  0  0  0  0  0  0  0  0  0  0  0
   -4.8170   15.4290  -32.4780 C   0  0  0  0  0  0  0  0  0  0  0  0
   -5.7520   14.8270  -33.3670 O   0  0  0  0  0  0  0  0  0  0  0  0
   -6.4680   15.7590  -34.1640 C   0  0  0  0  0  0  0  0  0  0  0  0
   -6.8150   17.0540  -33.4080 C   0  0  0  0  0  0  0  0  0  0  0  0
   -3.9810   21.1900  -32.4420 C   0  0  0  0  0  0  0  0  0  0  0  0
   -3.9410   22.3620  -31.6820 C   0  0  0  0  0  0  0  0  0  0  0  0
   -2.8100   23.0560  -28.7660 C   0  0  0  0  0  0  0  0  0  0  0  0
   -0.0968   22.6646  -26.7209 H   0  0  0  0  0  0  0  0  0  0  0  0
    0.2776   25.0256  -27.4356 H   0  0  0  0  0  0  0  0  0  0  0  0
   -3.0880   25.6740  -30.8500 H   0  0  0  0  0  0  0  0  0  0  0  0
   -7.2822   22.7035  -31.0315 H   0  0  0  0  0  0  0  0  0  0  0  0
   -7.3525   20.6180  -32.3964 H   0  0  0  0  0  0  0  0  0  0  0  0
   -3.9437   16.8640  -33.8420 H   0  0  0  0  0  0  0  0  0  0  0  0
   -3.7219   17.2498  -32.0934 H   0  0  0  0  0  0  0  0  0  0  0  0
   -3.9059   14.8127  -32.4679 H   0  0  0  0  0  0  0  0  0  0  0  0
   -5.3085   15.4838  -31.4955 H   0  0  0  0  0  0  0  0  0  0  0  0
   -5.8532   16.0176  -35.0387 H   0  0  0  0  0  0  0  0  0  0  0  0
   -7.4162   15.2834  -34.4552 H   0  0  0  0  0  0  0  0  0  0  0  0
   -7.3398   17.7349  -34.0942 H   0  0  0  0  0  0  0  0  0  0  0  0
   -7.4477   16.7844  -32.5495 H   0  0  0  0  0  0  0  0  0  0  0  0
   -3.0474   20.7546  -32.8278 H   0  0  0  0  0  0  0  0  0  0  0  0
   -2.9763   22.8449  -31.4672 H   0  0  0  0  0  0  0  0  0  0  0  0
   -3.6929   22.5037  -29.1200 H   0  0  0  0  0  0  0  0  0  0  0  0
  1  2  3  0
  2  3  1  0
  3  4  2  0
  4  5  1  0
  5  6  2  0
  6  7  1  0
  6  8  1  0
  8  9  1  0
  9 10  1  0
 10 11  2  0
 10 12  2  0
 10 13  1  0
 13 14  2  0
 14 15  1  0
 15 16  2  0
 16 17  1  0
 17 18  2  0
 17 19  2  0
 17 20  1  0
 20 21  1  0
 21 22  1  0
 22 23  1  0
 23 24  1  0
 24 25  1  0
 16 26  1  0
 26 27  2  0
  8 28  2  0
 28  3  1  0
 27 13  1  0
 25 20  1  0
  4 29  1  0
  5 30  1  0
  9 31  1  0
 14 32  1  0
 15 33  1  0
 21 34  1  0
 21 35  1  0
 22 36  1  0
 22 37  1  0
 24 38  1  0
 24 39  1  0
 25 40  1  0
 25 41  1  0
 26 42  1  0
 27 43  1  0
 28 44  1  0
M  CHG  1   7  -1
M  END
>  <UniqueID>  (36) 
35

>  <SMILES>  (36) 
N#Cc1ccc([O-])c(NS(=O)(=O)c2ccc(S(=O)(=O)N3CCOCC3)cc2)c1

>  <Energy>  (36) 
59.01852933434286

>  <Genealogy>  (36) 
N#Cc1ccc([O-])c(NS(=O)(=O)c2ccc(S(=O)(=O)N3CCOCC3)cc2)c1 (protonated)
N#Cc1ccc([O-])c(NS(=O)(=O)c2ccc(S(=O)(=O)N3CCOCC3)cc2)c1 (3D coordinates assigned)
N#Cc1ccc([O-])c(NS(=O)(=O)c2ccc(S(=O)(=O)N3CCOCC3)cc2)c1 (nonaromatic ring conformer: 59.01852933434286 kcal/mol)

>  <smiles>  (36) 
N#Cc1ccc(O)c(NS(=O)(=O)c2ccc(S(=O)(=O)N3CCOCC3)cc2)c1

>  <score_type>  (36) 
oracle

>  <origin>  (36) 
adgpu

>  <m_score__min__energy>  (36) 
-14.18

>  <m_primary>  (36) 
energy

$$$$
36:0
     RDKit          3D

 36 38  0  0  0  0  0  0  0  0999 V2000
   -5.5560   16.5590  -34.2250 C   0  0  0  0  0  0  0  0  0  0  0  0
   -6.8430   16.8230  -33.6780 O   0  0  0  0  0  0  0  0  0  0  0  0
   -7.2240   18.0450  -33.1030 C   0  0  0  0  0  0  0  0  0  0  0  0
   -8.2780   18.1490  -32.1740 C   0  0  0  0  0  0  0  0  0  0  0  0
   -8.6170   19.3910  -31.6300 C   0  0  0  0  0  0  0  0  0  0  0  0
   -7.9090   20.5400  -31.9990 C   0  0  0  0  0  0  0  0  0  0  0  0
   -8.3560   22.1060  -31.3340 S   0  0  0  0  0  0  0  0  0  0  0  0
   -9.2190   21.9180  -30.1170 O   0  0  0  0  0  0  0  0  0  0  0  0
   -9.1440   22.8890  -32.3480 O   0  0  0  0  0  0  0  0  0  0  0  0
   -6.8930   22.9850  -30.9050 C   0  0  0  0  0  0  0  0  0  0  0  0
   -6.8340   24.3750  -31.0640 C   0  0  0  0  0  0  0  0  0  0  0  0
   -5.6810   25.0780  -30.7030 C   0  0  0  0  0  0  0  0  0  0  0  0
   -4.5810   24.3960  -30.1760 C   0  0  0  0  0  0  0  0  0  0  0  0
   -3.4620   25.0860  -29.8250 N   0  0  0  0  0  0  0  0  0  0  0  0
   -2.3650   24.4730  -29.3030 C   0  0  0  0  0  0  0  0  0  0  0  0
   -1.1900   25.2860  -28.9470 C   0  0  0  0  0  0  0  0  0  0  0  0
   -1.2420   26.5450  -28.9750 O   0  0  0  0  0  0  0  0  0  0  0  0
   -0.0050   24.6640  -28.5730 O   0  0  0  0  0  0  0  0  0  0  0  0
   -2.3740   23.0820  -29.1130 C   0  0  0  0  0  0  0  0  0  0  0  0
   -3.5080   22.3410  -29.4610 C   0  0  0  0  0  0  0  0  0  0  0  0
   -3.5070   21.0920  -29.2870 O   0  0  0  0  0  0  0  0  0  0  0  0
   -4.6320   22.9950  -30.0010 C   0  0  0  0  0  0  0  0  0  0  0  0
   -5.7970   22.2960  -30.3680 C   0  0  0  0  0  0  0  0  0  0  0  0
   -6.8670   20.4420  -32.9300 C   0  0  0  0  0  0  0  0  0  0  0  0
   -6.5260   19.2000  -33.4750 C   0  0  0  0  0  0  0  0  0  0  0  0
   -4.8339   16.4109  -33.4085 H   0  0  0  0  0  0  0  0  0  0  0  0
   -5.6001   15.6512  -34.8446 H   0  0  0  0  0  0  0  0  0  0  0  0
   -5.2392   17.4109  -34.8446 H   0  0  0  0  0  0  0  0  0  0  0  0
   -8.8362   17.2493  -31.8757 H   0  0  0  0  0  0  0  0  0  0  0  0
   -9.4441   19.4655  -30.9086 H   0  0  0  0  0  0  0  0  0  0  0  0
   -7.6990   24.9162  -31.4749 H   0  0  0  0  0  0  0  0  0  0  0  0
   -5.6395   26.1694  -30.8339 H   0  0  0  0  0  0  0  0  0  0  0  0
   -1.4923   22.5767  -28.6919 H   0  0  0  0  0  0  0  0  0  0  0  0
   -5.8476   21.2055  -30.2330 H   0  0  0  0  0  0  0  0  0  0  0  0
   -6.3156   21.3442  -33.2332 H   0  0  0  0  0  0  0  0  0  0  0  0
   -5.7030   19.1302  -34.2015 H   0  0  0  0  0  0  0  0  0  0  0  0
  1  2  1  0
  2  3  1  0
  3  4  2  0
  4  5  1  0
  5  6  2  0
  6  7  1  0
  7  8  2  0
  7  9  2  0
  7 10  1  0
 10 11  2  0
 11 12  1  0
 12 13  2  0
 13 14  1  0
 14 15  1  0
 15 16  1  0
 16 17  2  0
 16 18  1  0
 15 19  2  0
 19 20  1  0
 20 21  2  0
 20 22  1  0
 22 23  2  0
  6 24  1  0
 24 25  2  0
 25  3  1  0
 23 10  1  0
 22 13  1  0
  1 26  1  0
  1 27  1  0
  1 28  1  0
  4 29  1  0
  5 30  1  0
 11 31  1  0
 12 32  1  0
 19 33  1  0
 23 34  1  0
 24 35  1  0
 25 36  1  0
M  CHG  2  14  -1  18  -1
M  END
>  <UniqueID>  (37) 
36

>  <SMILES>  (37) 
COc1ccc(S(=O)(=O)c2ccc3[n-]c(C(=O)[O-])cc(=O)c3c2)cc1

>  <Energy>  (37) 
44.33726787378755

>  <Genealogy>  (37) 
COc1ccc(S(=O)(=O)c2ccc3[n-]c(C(=O)[O-])cc(=O)c3c2)cc1 (protonated)
COc1ccc(S(=O)(=O)c2ccc3[n-]c(C(=O)[O-])cc(=O)c3c2)cc1 (3D coordinates assigned)
COc1ccc(S(=O)(=O)c2ccc3[n-]c(C(=O)[O-])cc(=O)c3c2)cc1 (optimized conformer: 44.33726787378755 kcal/mol)

>  <smiles>  (37) 
COc1ccc(S(=O)(=O)c2ccc3[nH]c(C(=O)O)cc(=O)c3c2)cc1

>  <score_type>  (37) 
oracle

>  <origin>  (37) 
adgpu

>  <m_score__min__energy>  (37) 
-12.970000000000001

>  <m_primary>  (37) 
energy

$$$$
37:0
     RDKit          3D

 43 45  0  0  0  0  0  0  0  0999 V2000
   -0.5640   18.9420  -31.2360 C   0  0  0  0  0  0  0  0  0  0  0  0
   -1.2970   20.1820  -30.9570 N   0  0  0  0  0  0  0  0  0  0  0  0
   -2.0550   20.7720  -32.4140 S   0  0  0  0  0  0  0  0  0  0  0  0
   -2.0980   19.6470  -33.4160 O   0  0  0  0  0  0  0  0  0  0  0  0
   -1.2450   21.9100  -32.9740 O   0  0  0  0  0  0  0  0  0  0  0  0
   -3.7080   21.3210  -32.0920 C   0  0  0  0  0  0  0  0  0  0  0  0
   -3.9060   22.5680  -31.4800 C   0  0  0  0  0  0  0  0  0  0  0  0
   -5.1940   23.0520  -31.2170 C   0  0  0  0  0  0  0  0  0  0  0  0
   -5.3150   24.6160  -30.3890 S   0  0  0  0  0  0  0  0  0  0  0  0
   -4.6750   25.6610  -31.2590 O   0  0  0  0  0  0  0  0  0  0  0  0
   -6.7340   25.0260  -30.1050 O   0  0  0  0  0  0  0  0  0  0  0  0
   -4.4490   24.5230  -28.8830 N   0  0  0  0  0  0  0  0  0  0  0  0
   -3.2630   23.7440  -28.6670 C   0  0  0  0  0  0  0  0  0  0  0  0
   -3.3260   22.4090  -28.2270 C   0  0  0  0  0  0  0  0  0  0  0  0
   -2.1540   21.6540  -28.0730 C   0  0  0  0  0  0  0  0  0  0  0  0
   -0.9020   22.2320  -28.3740 C   0  0  0  0  0  0  0  0  0  0  0  0
   -0.8400   23.5770  -28.7720 C   0  0  0  0  0  0  0  0  0  0  0  0
   -2.0110   24.3260  -28.9220 C   0  0  0  0  0  0  0  0  0  0  0  0
   -1.9270   25.6520  -29.3370 O   0  0  0  0  0  0  0  0  0  0  0  0
    0.3810   21.4510  -28.1820 C   0  0  0  0  0  0  0  0  0  0  0  0
    0.1630   19.9950  -28.1510 N   0  0  0  0  0  0  0  0  0  0  0  0
   -0.9140   19.6440  -27.2160 C   0  0  0  0  0  0  0  0  0  0  0  0
   -2.2580   20.1970  -27.7040 C   0  0  0  0  0  0  0  0  0  0  0  0
   -6.3130   22.2660  -31.5790 C   0  0  0  0  0  0  0  0  0  0  0  0
   -7.9740   22.7640  -31.2960 Cl  0  0  0  0  0  0  0  0  0  0  0  0
   -6.1160   21.0170  -32.1740 C   0  0  0  0  0  0  0  0  0  0  0  0
   -4.8300   20.5300  -32.4200 C   0  0  0  0  0  0  0  0  0  0  0  0
   -4.7120   19.2540  -32.9760 O   0  0  0  0  0  0  0  0  0  0  0  0
   -0.2805   18.4624  -30.2876 H   0  0  0  0  0  0  0  0  0  0  0  0
   -1.2042   18.2600  -31.8148 H   0  0  0  0  0  0  0  0  0  0  0  0
    0.3422   19.1740  -31.8148 H   0  0  0  0  0  0  0  0  0  0  0  0
   -3.0334   23.1770  -31.2015 H   0  0  0  0  0  0  0  0  0  0  0  0
   -4.3019   21.9539  -28.0021 H   0  0  0  0  0  0  0  0  0  0  0  0
    0.1364   24.0446  -28.9671 H   0  0  0  0  0  0  0  0  0  0  0  0
    1.0635   21.6867  -29.0118 H   0  0  0  0  0  0  0  0  0  0  0  0
    0.8046   21.7434  -27.2099 H   0  0  0  0  0  0  0  0  0  0  0  0
   -0.0980   19.6720  -29.1160 H   0  0  0  0  0  0  0  0  0  0  0  0
   -0.9813   18.5489  -27.1377 H   0  0  0  0  0  0  0  0  0  0  0  0
   -0.6866   20.0840  -26.2338 H   0  0  0  0  0  0  0  0  0  0  0  0
   -2.5796   19.6265  -28.5878 H   0  0  0  0  0  0  0  0  0  0  0  0
   -2.9886   20.0989  -26.8876 H   0  0  0  0  0  0  0  0  0  0  0  0
   -6.9879   20.4073  -32.4533 H   0  0  0  0  0  0  0  0  0  0  0  0
   -3.8250   18.7930  -33.1310 H   0  0  0  0  0  0  0  0  0  0  0  0
  1  2  1  0
  2  3  1  0
  3  4  2  0
  3  5  2  0
  3  6  1  0
  6  7  2  0
  7  8  1  0
  8  9  1  0
  9 10  2  0
  9 11  2  0
  9 12  1  0
 12 13  1  0
 13 14  2  0
 14 15  1  0
 15 16  2  0
 16 17  1  0
 17 18  2  0
 18 19  1  0
 16 20  1  0
 20 21  1  0
 21 22  1  0
 22 23  1  0
  8 24  2  0
 24 25  1  0
 24 26  1  0
 26 27  2  0
 27 28  1  0
 27  6  1  0
 18 13  1  0
 23 15  1  0
  1 29  1  0
  1 30  1  0
  1 31  1  0
  7 32  1  0
 14 33  1  0
 17 34  1  0
 20 35  1  0
 20 36  1  0
 21 37  1  0
 22 38  1  0
 22 39  1  0
 23 40  1  0
 23 41  1  0
 26 42  1  0
 28 43  1  0
M  CHG  3   2  -1  12  -1  19  -1
M  END
>  <UniqueID>  (38) 
37

>  <SMILES>  (38) 
C[N-]S(=O)(=O)c1cc(S(=O)(=O)[N-]c2cc3c(cc2[O-])CNCC3)c(Cl)cc1O

>  <Energy>  (38) 
53.60242802953368

>  <Genealogy>  (38) 
C[N-]S(=O)(=O)c1cc(S(=O)(=O)[N-]c2cc3c(cc2[O-])CNCC3)c(Cl)cc1O (protonated)
C[N-]S(=O)(=O)c1cc(S(=O)(=O)[N-]c2cc3c(cc2[O-])CNCC3)c(Cl)cc1O (3D coordinates assigned)
C[N-]S(=O)(=O)c1cc(S(=O)(=O)[N-]c2cc3c(cc2[O-])CNCC3)c(Cl)cc1O (nonaromatic ring conformer: 53.60242802953368 kcal/mol)

>  <smiles>  (38) 
CNS(=O)(=O)c1cc(S(=O)(=O)Nc2cc3c(cc2O)CNCC3)c(Cl)cc1O

>  <score_type>  (38) 
oracle

>  <origin>  (38) 
adgpu

>  <m_score__min__energy>  (38) 
-12.880000000000001

>  <m_primary>  (38) 
energy

$$$$
38:0
     RDKit          3D

 60 63  0  0  0  0  0  0  0  0999 V2000
   -5.6160   25.3560  -29.5360 O   0  0  0  0  0  0  0  0  0  0  0  0
   -4.9190   24.6800  -30.3400 C   0  0  0  0  0  0  0  0  0  0  0  0
   -3.5110   24.9290  -30.4490 N   0  0  0  0  0  0  0  0  0  0  0  0
   -2.4790   24.2900  -29.6840 C   0  0  0  0  0  0  0  0  0  0  0  0
   -2.3800   22.8930  -29.7370 C   0  0  0  0  0  0  0  0  0  0  0  0
   -1.3890   22.2180  -29.0120 C   0  0  0  0  0  0  0  0  0  0  0  0
   -1.2800   20.4570  -29.0860 S   0  0  0  0  0  0  0  0  0  0  0  0
   -2.4680   19.8580  -28.3840 O   0  0  0  0  0  0  0  0  0  0  0  0
   -0.0400   20.0120  -28.3590 O   0  0  0  0  0  0  0  0  0  0  0  0
   -1.2270   19.8720  -30.7310 N   0  0  0  0  0  0  0  0  0  0  0  0
   -0.4230   18.6450  -30.8180 C   0  0  0  0  0  0  0  0  0  0  0  0
   -0.4320   18.1180  -32.2690 C   0  0  0  0  0  0  0  0  0  0  0  0
   -0.9860   19.0520  -33.1820 O   0  0  0  0  0  0  0  0  0  0  0  0
   -0.3630   20.3130  -33.0180 C   0  0  0  0  0  0  0  0  0  0  0  0
   -0.6830   20.9060  -31.6300 C   0  0  0  0  0  0  0  0  0  0  0  0
   -0.4770   22.9510  -28.2410 C   0  0  0  0  0  0  0  0  0  0  0  0
   -0.5430   24.3460  -28.2130 C   0  0  0  0  0  0  0  0  0  0  0  0
   -1.5240   25.0210  -28.9450 C   0  0  0  0  0  0  0  0  0  0  0  0
   -1.5150   26.4110  -28.9610 O   0  0  0  0  0  0  0  0  0  0  0  0
   -5.5380   23.5820  -31.1220 C   0  0  0  0  0  0  0  0  0  0  0  0
   -4.7200   22.5720  -31.6660 C   0  0  0  0  0  0  0  0  0  0  0  0
   -5.2770   21.5160  -32.4000 C   0  0  0  0  0  0  0  0  0  0  0  0
   -4.2510   20.2330  -33.0420 S   0  0  0  0  0  0  0  0  0  0  0  0
   -3.1540   20.8650  -33.8550 O   0  0  0  0  0  0  0  0  0  0  0  0
   -3.6180   19.4730  -31.9090 O   0  0  0  0  0  0  0  0  0  0  0  0
   -5.1740   19.1510  -34.0630 N   0  0  0  0  0  0  0  0  0  0  0  0
   -6.4030   18.6690  -33.3990 C   0  0  0  0  0  0  0  0  0  0  0  0
   -6.1230   17.6130  -32.3130 C   0  0  0  0  0  0  0  0  0  0  0  0
   -5.0240   16.6130  -32.7130 C   0  0  0  0  0  0  0  0  0  0  0  0
   -4.7290   16.6550  -34.2110 C   0  0  0  0  0  0  0  0  0  0  0  0
   -4.3240   18.0770  -34.6400 C   0  0  0  0  0  0  0  0  0  0  0  0
   -6.6610   21.4590  -32.5910 C   0  0  0  0  0  0  0  0  0  0  0  0
   -7.4820   22.4580  -32.0670 C   0  0  0  0  0  0  0  0  0  0  0  0
   -6.9340   23.5210  -31.3360 C   0  0  0  0  0  0  0  0  0  0  0  0
   -7.7750   24.5150  -30.8360 O   0  0  0  0  0  0  0  0  0  0  0  0
   -3.0878   22.3204  -30.3543 H   0  0  0  0  0  0  0  0  0  0  0  0
    0.6116   18.8637  -30.5149 H   0  0  0  0  0  0  0  0  0  0  0  0
   -0.8502   17.8818  -30.1509 H   0  0  0  0  0  0  0  0  0  0  0  0
    0.6028   17.8998  -32.5717 H   0  0  0  0  0  0  0  0  0  0  0  0
   -1.0589   17.2145  -32.2929 H   0  0  0  0  0  0  0  0  0  0  0  0
    0.7260   20.1927  -33.1164 H   0  0  0  0  0  0  0  0  0  0  0  0
   -0.7440   20.9975  -33.7902 H   0  0  0  0  0  0  0  0  0  0  0  0
    0.2389   21.3159  -31.1918 H   0  0  0  0  0  0  0  0  0  0  0  0
   -1.4355   21.6992  -31.7508 H   0  0  0  0  0  0  0  0  0  0  0  0
    0.2930   22.4265  -27.6562 H   0  0  0  0  0  0  0  0  0  0  0  0
    0.1806   24.9162  -27.6119 H   0  0  0  0  0  0  0  0  0  0  0  0
   -3.6315   22.6128  -31.5128 H   0  0  0  0  0  0  0  0  0  0  0  0
   -6.9092   19.5268  -32.9322 H   0  0  0  0  0  0  0  0  0  0  0  0
   -7.0289   18.1933  -34.1683 H   0  0  0  0  0  0  0  0  0  0  0  0
   -5.8084   18.1302  -31.3946 H   0  0  0  0  0  0  0  0  0  0  0  0
   -7.0503   17.0399  -32.1657 H   0  0  0  0  0  0  0  0  0  0  0  0
   -4.1035   16.8582  -32.1629 H   0  0  0  0  0  0  0  0  0  0  0  0
   -5.3786   15.6017  -32.4651 H   0  0  0  0  0  0  0  0  0  0  0  0
   -3.9069   15.9603  -34.4379 H   0  0  0  0  0  0  0  0  0  0  0  0
   -5.6354   16.3616  -34.7609 H   0  0  0  0  0  0  0  0  0  0  0  0
   -3.2852   18.2507  -34.3225 H   0  0  0  0  0  0  0  0  0  0  0  0
   -4.4489   18.1262  -35.7318 H   0  0  0  0  0  0  0  0  0  0  0  0
   -7.1033   20.6249  -33.1555 H   0  0  0  0  0  0  0  0  0  0  0  0
   -8.5690   22.4110  -32.2290 H   0  0  0  0  0  0  0  0  0  0  0  0
   -7.4900   25.1230  -30.0780 H   0  0  0  0  0  0  0  0  0  0  0  0
  1  2  2  0
  2  3  1  0
  3  4  1  0
  4  5  2  0
  5  6  1  0
  6  7  1  0
  7  8  2  0
  7  9  2  0
  7 10  1  0
 10 11  1  0
 11 12  1  0
 12 13  1  0
 13 14  1  0
 14 15  1  0
  6 16  2  0
 16 17  1  0
 17 18  2  0
 18 19  1  0
  2 20  1  0
 20 21  2  0
 21 22  1  0
 22 23  1  0
 23 24  2  0
 23 25  2  0
 23 26  1  0
 26 27  1  0
 27 28  1  0
 28 29  1  0
 29 30  1  0
 30 31  1  0
 22 32  2  0
 32 33  1  0
 33 34  2  0
 34 35  1  0
 18  4  1  0
 34 20  1  0
 15 10  1  0
 31 26  1  0
  5 36  1  0
 11 37  1  0
 11 38  1  0
 12 39  1  0
 12 40  1  0
 14 41  1  0
 14 42  1  0
 15 43  1  0
 15 44  1  0
 16 45  1  0
 17 46  1  0
 21 47  1  0
 27 48  1  0
 27 49  1  0
 28 50  1  0
 28 51  1  0
 29 52  1  0
 29 53  1  0
 30 54  1  0
 30 55  1  0
 31 56  1  0
 31 57  1  0
 32 58  1  0
 33 59  1  0
 35 60  1  0
M  CHG  2   3  -1  19  -1
M  END
>  <UniqueID>  (39) 
38

>  <SMILES>  (39) 
O=C([N-]c1cc(S(=O)(=O)N2CCOCC2)ccc1[O-])c1cc(S(=O)(=O)N2CCCCC2)ccc1O

>  <Energy>  (39) 
83.98544260380922

>  <Genealogy>  (39) 
O=C([N-]c1cc(S(=O)(=O)N2CCOCC2)ccc1[O-])c1cc(S(=O)(=O)N2CCCCC2)ccc1O (protonated)
O=C([N-]c1cc(S(=O)(=O)N2CCOCC2)ccc1[O-])c1cc(S(=O)(=O)N2CCCCC2)ccc1O (3D coordinates assigned)
O=C([N-]c1cc(S(=O)(=O)N2CCOCC2)ccc1[O-])c1cc(S(=O)(=O)N2CCCCC2)ccc1O (nonaromatic ring conformer: 83.98544260380922 kcal/mol)

>  <smiles>  (39) 
O=C(Nc1cc(S(=O)(=O)N2CCOCC2)ccc1O)c1cc(S(=O)(=O)N2CCCCC2)ccc1O

>  <score_type>  (39) 
oracle

>  <origin>  (39) 
adgpu

>  <m_score__min__energy>  (39) 
-14.77

>  <m_primary>  (39) 
energy

$$$$
39:0
     RDKit          3D

 35 37  0  0  0  0  0  0  0  0999 V2000
   -9.0300   18.2220  -31.9240 C   0  0  0  0  0  0  0  0  0  0  0  0
   -8.6950   19.6730  -31.8320 C   0  0  0  0  0  0  0  0  0  0  0  0
   -7.4580   20.1970  -31.5250 C   0  0  0  0  0  0  0  0  0  0  0  0
   -7.6810   21.5630  -31.5070 C   0  0  0  0  0  0  0  0  0  0  0  0
   -6.6960   22.6350  -31.2380 C   0  0  0  0  0  0  0  0  0  0  0  0
   -6.8060   23.8990  -31.8420 C   0  0  0  0  0  0  0  0  0  0  0  0
   -5.8630   24.8940  -31.5730 C   0  0  0  0  0  0  0  0  0  0  0  0
   -4.8070   24.6470  -30.6940 C   0  0  0  0  0  0  0  0  0  0  0  0
   -3.8750   25.6500  -30.4510 O   0  0  0  0  0  0  0  0  0  0  0  0
   -4.6900   23.3930  -30.0700 C   0  0  0  0  0  0  0  0  0  0  0  0
   -3.3740   23.0650  -28.9390 S   0  0  0  0  0  0  0  0  0  0  0  0
   -2.1700   22.5420  -29.6680 O   0  0  0  0  0  0  0  0  0  0  0  0
   -3.8340   22.0370  -27.9460 O   0  0  0  0  0  0  0  0  0  0  0  0
   -2.9270   24.5080  -28.0850 N   0  0  0  0  0  0  0  0  0  0  0  0
   -1.6620   24.7370  -27.4480 C   0  0  0  0  0  0  0  0  0  0  0  0
   -1.2270   23.9640  -26.3540 C   0  0  0  0  0  0  0  0  0  0  0  0
    0.0210   24.2060  -25.7730 C   0  0  0  0  0  0  0  0  0  0  0  0
    0.8410   25.2200  -26.2700 C   0  0  0  0  0  0  0  0  0  0  0  0
    0.4150   25.9950  -27.3510 C   0  0  0  0  0  0  0  0  0  0  0  0
   -0.8300   25.7550  -27.9410 C   0  0  0  0  0  0  0  0  0  0  0  0
   -1.2380   26.5310  -29.0200 O   0  0  0  0  0  0  0  0  0  0  0  0
   -5.6280   22.3900  -30.3580 C   0  0  0  0  0  0  0  0  0  0  0  0
   -8.9500   21.7810  -31.7750 O   0  0  0  0  0  0  0  0  0  0  0  0
   -9.5920   20.6660  -31.9700 N   0  0  0  0  0  0  0  0  0  0  0  0
   -9.1267   17.8031  -30.9115 H   0  0  0  0  0  0  0  0  0  0  0  0
   -9.9803   18.0986  -32.4642 H   0  0  0  0  0  0  0  0  0  0  0  0
   -8.2300   17.6945  -32.4642 H   0  0  0  0  0  0  0  0  0  0  0  0
   -6.5174   19.6581  -31.3386 H   0  0  0  0  0  0  0  0  0  0  0  0
   -7.6388   24.1061  -32.5301 H   0  0  0  0  0  0  0  0  0  0  0  0
   -5.9531   25.8778  -32.0567 H   0  0  0  0  0  0  0  0  0  0  0  0
   -1.8718   23.1669  -25.9553 H   0  0  0  0  0  0  0  0  0  0  0  0
    0.3576   23.5957  -24.9220 H   0  0  0  0  0  0  0  0  0  0  0  0
    1.8225   25.4088  -25.8105 H   0  0  0  0  0  0  0  0  0  0  0  0
    1.0606   26.7965  -27.7394 H   0  0  0  0  0  0  0  0  0  0  0  0
   -5.5262   21.4000  -29.8894 H   0  0  0  0  0  0  0  0  0  0  0  0
  1  2  1  0
  2  3  1  0
  3  4  2  0
  4  5  1  0
  5  6  2  0
  6  7  1  0
  7  8  2  0
  8  9  1  0
  8 10  1  0
 10 11  1  0
 11 12  2  0
 11 13  2  0
 11 14  1  0
 14 15  1  0
 15 16  2  0
 16 17  1  0
 17 18  2  0
 18 19  1  0
 19 20  2  0
 20 21  1  0
 10 22  2  0
  4 23  1  0
 23 24  1  0
 24  2  2  0
 22  5  1  0
 20 15  1  0
  1 25  1  0
  1 26  1  0
  1 27  1  0
  3 28  1  0
  6 29  1  0
  7 30  1  0
 16 31  1  0
 17 32  1  0
 18 33  1  0
 19 34  1  0
 22 35  1  0
M  CHG  3   9  -1  14  -1  21  -1
M  END
>  <UniqueID>  (40) 
39

>  <SMILES>  (40) 
Cc1cc(-c2ccc([O-])c(S(=O)(=O)[N-]c3ccccc3[O-])c2)on1

>  <Energy>  (40) 
71.6963646927468

>  <Genealogy>  (40) 
Cc1cc(-c2ccc([O-])c(S(=O)(=O)[N-]c3ccccc3[O-])c2)on1 (protonated)
Cc1cc(-c2ccc([O-])c(S(=O)(=O)[N-]c3ccccc3[O-])c2)on1 (3D coordinates assigned)
Cc1cc(-c2ccc([O-])c(S(=O)(=O)[N-]c3ccccc3[O-])c2)on1 (optimized conformer: 71.6963646927468 kcal/mol)

>  <smiles>  (40) 
Cc1cc(-c2ccc(O)c(S(=O)(=O)Nc3ccccc3O)c2)on1

>  <score_type>  (40) 
oracle

>  <origin>  (40) 
adgpu

>  <m_score__min__energy>  (40) 
-15.23

>  <m_primary>  (40) 
energy

$$$$
40:0
     RDKit          3D

 80 85  0  0  0  0  0  0  0  0999 V2000
   -8.7022   19.6181  -32.2788 H   0  0  0  0  0  0  0  0  0  0  0  0
   -7.6660   19.2490  -32.2890 C   0  0  0  0  0  0  0  0  0  0  0  0
   -6.6700   19.9500  -31.6030 C   0  0  0  0  0  0  0  0  0  0  0  0
   -6.9243   20.8676  -31.0522 H   0  0  0  0  0  0  0  0  0  0  0  0
   -5.3440   19.4840  -31.6160 C   0  0  0  0  0  0  0  0  0  0  0  0
   -4.2990   20.1750  -30.9160 N   0  0  0  0  0  0  0  0  0  0  0  0
   -4.1800   21.4650  -30.8200 C   0  0  0  0  0  0  0  0  0  0  0  0
   -3.1440   21.9860  -30.1160 N   0  0  0  0  0  0  0  0  0  0  0  0
   -3.0320   23.3290  -29.9350 C   0  0  0  0  0  0  0  0  0  0  0  0
   -1.9310   23.8830  -29.1130 C   0  0  0  0  0  0  0  0  0  0  0  0
   -2.0170   25.1830  -28.5860 C   0  0  0  0  0  0  0  0  0  0  0  0
   -2.8803   25.8166  -28.8376 H   0  0  0  0  0  0  0  0  0  0  0  0
   -1.0160   25.6790  -27.7450 C   0  0  0  0  0  0  0  0  0  0  0  0
   -1.0994   26.6975  -27.3380 H   0  0  0  0  0  0  0  0  0  0  0  0
    0.0970   24.8840  -27.4160 C   0  0  0  0  0  0  0  0  0  0  0  0
    1.0950   25.3600  -26.4860 N   0  0  0  0  0  0  0  0  0  0  0  0
    2.0520   26.4140  -26.8550 C   0  0  0  0  0  0  0  0  0  0  0  0
    3.0753   26.0473  -26.6865 H   0  0  0  0  0  0  0  0  0  0  0  0
    1.9063   26.6675  -27.9154 H   0  0  0  0  0  0  0  0  0  0  0  0
    1.8230   27.6820  -26.0070 C   0  0  0  0  0  0  0  0  0  0  0  0
    2.7948   28.1644  -25.8256 H   0  0  0  0  0  0  0  0  0  0  0  0
    1.1417   28.3386  -26.5680 H   0  0  0  0  0  0  0  0  0  0  0  0
    1.1560   27.3740  -24.6350 C   0  0  0  0  0  0  0  0  0  0  0  0
    0.0657   27.3227  -24.7713 H   0  0  0  0  0  0  0  0  0  0  0  0
    1.3320   28.4870  -23.6490 N   0  0  0  0  0  0  0  0  0  0  0  0
    0.4460   28.5120  -23.0860 H   0  0  0  0  0  0  0  0  0  0  0  0
    2.4300   28.1970  -22.6960 C   0  0  0  0  0  0  0  0  0  0  0  0
    2.3370   27.1577  -22.3478 H   0  0  0  0  0  0  0  0  0  0  0  0
    3.3884   28.3498  -23.2138 H   0  0  0  0  0  0  0  0  0  0  0  0
    2.3790   29.1420  -21.4770 C   0  0  0  0  0  0  0  0  0  0  0  0
    1.7717   28.6706  -20.6902 H   0  0  0  0  0  0  0  0  0  0  0  0
    3.4129   29.3120  -21.1421 H   0  0  0  0  0  0  0  0  0  0  0  0
    1.7670   30.5110  -21.8190 C   0  0  0  0  0  0  0  0  0  0  0  0
    0.6793   30.4672  -21.6607 H   0  0  0  0  0  0  0  0  0  0  0  0
    2.2243   31.2693  -21.1664 H   0  0  0  0  0  0  0  0  0  0  0  0
    2.0440   30.8940  -23.2730 C   0  0  0  0  0  0  0  0  0  0  0  0
    1.5572   31.8573  -23.4854 H   0  0  0  0  0  0  0  0  0  0  0  0
    3.1340   30.9613  -23.4048 H   0  0  0  0  0  0  0  0  0  0  0  0
    1.5070   29.8330  -24.2650 C   0  0  0  0  0  0  0  0  0  0  0  0
    0.5324   30.1724  -24.6458 H   0  0  0  0  0  0  0  0  0  0  0  0
    2.2519   29.7302  -25.0678 H   0  0  0  0  0  0  0  0  0  0  0  0
    1.5930   25.9730  -24.1280 C   0  0  0  0  0  0  0  0  0  0  0  0
    2.6911   25.9254  -24.0843 H   0  0  0  0  0  0  0  0  0  0  0  0
    1.1773   25.8013  -23.1242 H   0  0  0  0  0  0  0  0  0  0  0  0
    1.0710   24.8910  -25.0900 C   0  0  0  0  0  0  0  0  0  0  0  0
    1.7051   23.9966  -25.0015 H   0  0  0  0  0  0  0  0  0  0  0  0
    0.0305   24.6584  -24.8195 H   0  0  0  0  0  0  0  0  0  0  0  0
    0.2010   23.6000  -27.9700 C   0  0  0  0  0  0  0  0  0  0  0  0
    1.0823   22.9806  -27.7469 H   0  0  0  0  0  0  0  0  0  0  0  0
   -0.8040   23.0990  -28.8030 C   0  0  0  0  0  0  0  0  0  0  0  0
   -0.7132   22.0848  -29.2191 H   0  0  0  0  0  0  0  0  0  0  0  0
   -3.9760   24.1490  -30.4640 N   0  0  0  0  0  0  0  0  0  0  0  0
   -5.0180   23.6380  -31.1680 C   0  0  0  0  0  0  0  0  0  0  0  0
   -6.0300   24.5490  -31.7760 C   0  0  0  0  0  0  0  0  0  0  0  0
   -6.5931   25.0559  -30.9785 H   0  0  0  0  0  0  0  0  0  0  0  0
   -5.5208   25.2991  -32.3990 H   0  0  0  0  0  0  0  0  0  0  0  0
   -6.7226   23.9640  -32.3990 H   0  0  0  0  0  0  0  0  0  0  0  0
   -5.1160   22.2980  -31.3480 N   0  0  0  0  0  0  0  0  0  0  0  0
   -5.0270   18.3340  -32.3500 C   0  0  0  0  0  0  0  0  0  0  0  0
   -3.9827   17.9929  -32.4050 H   0  0  0  0  0  0  0  0  0  0  0  0
   -6.0290   17.6140  -33.0150 C   0  0  0  0  0  0  0  0  0  0  0  0
   -5.6320   16.1090  -33.8490 S   0  0  0  0  0  0  0  0  0  0  0  0
   -6.8740   15.5520  -34.4900 O   0  0  0  0  0  0  0  0  0  0  0  0
   -4.6350   16.3960  -34.9390 O   0  0  0  0  0  0  0  0  0  0  0  0
   -4.9670   14.9220  -32.7520 N   0  0  0  0  0  0  0  0  0  0  0  0
   -3.4970   15.0250  -32.7070 C   0  0  0  0  0  0  0  0  0  0  0  0
   -3.1093   15.0941  -33.7341 H   0  0  0  0  0  0  0  0  0  0  0  0
   -3.2253   15.9227  -32.1322 H   0  0  0  0  0  0  0  0  0  0  0  0
   -2.8790   13.7920  -32.0160 C   0  0  0  0  0  0  0  0  0  0  0  0
   -2.4690   13.1172  -32.7819 H   0  0  0  0  0  0  0  0  0  0  0  0
   -2.0821   14.1308  -31.3376 H   0  0  0  0  0  0  0  0  0  0  0  0
   -3.8520   13.0990  -31.2610 O   0  0  0  0  0  0  0  0  0  0  0  0
   -4.8320   12.5440  -32.1240 C   0  0  0  0  0  0  0  0  0  0  0  0
   -4.3826   11.7028  -32.6721 H   0  0  0  0  0  0  0  0  0  0  0  0
   -5.6776   12.2176  -31.5007 H   0  0  0  0  0  0  0  0  0  0  0  0
   -5.3730   13.5670  -33.1460 C   0  0  0  0  0  0  0  0  0  0  0  0
   -4.9664   13.3386  -34.1423 H   0  0  0  0  0  0  0  0  0  0  0  0
   -6.4711   13.5091  -33.1731 H   0  0  0  0  0  0  0  0  0  0  0  0
   -7.3500   18.0820  -32.9870 C   0  0  0  0  0  0  0  0  0  0  0  0
   -8.1396   17.5284  -33.5163 H   0  0  0  0  0  0  0  0  0  0  0  0
  1  2  1  0
  2  3  2  0
  3  4  1  0
  3  5  1  0
  5  6  1  0
  6  7  2  0
  7  8  1  0
  8  9  2  0
  9 10  1  0
 10 11  2  0
 11 12  1  0
 11 13  1  0
 13 14  1  0
 13 15  2  0
 15 16  1  0
 16 17  1  0
 17 18  1  0
 17 19  1  0
 17 20  1  0
 20 21  1  0
 20 22  1  0
 20 23  1  0
 23 24  1  0
 23 25  1  0
 25 26  1  0
 25 27  1  0
 27 28  1  0
 27 29  1  0
 27 30  1  0
 30 31  1  0
 30 32  1  0
 30 33  1  0
 33 34  1  0
 33 35  1  0
 33 36  1  0
 36 37  1  0
 36 38  1  0
 36 39  1  0
 39 40  1  0
 39 41  1  0
 23 42  1  0
 42 43  1  0
 42 44  1  0
 42 45  1  0
 45 46  1  0
 45 47  1  0
 15 48  1  0
 48 49  1  0
 48 50  2  0
 50 51  1  0
  9 52  1  0
 52 53  1  0
 53 54  1  0
 54 55  1  0
 54 56  1  0
 54 57  1  0
 53 58  2  0
  5 59  2  0
 59 60  1  0
 59 61  1  0
 61 62  1  0
 62 63  2  0
 62 64  2  0
 62 65  1  0
 65 66  1  0
 66 67  1  0
 66 68  1  0
 66 69  1  0
 69 70  1  0
 69 71  1  0
 69 72  1  0
 72 73  1  0
 73 74  1  0
 73 75  1  0
 73 76  1  0
 76 77  1  0
 76 78  1  0
 61 79  2  0
 79 80  1  0
 79  2  1  0
 58  7  1  0
 76 65  1  0
 50 10  1  0
 45 16  1  0
 39 25  1  0
M  CHG  2  25   1  52  -1
M  END
>  <UniqueID>  (41) 
40

>  <SMILES>  (41) 
Cc1n/c(=N\c2cccc(S(=O)(=O)N3CCOCC3)c2)nc(-c2ccc(N3CCC([NH+]4CCCCC4)CC3)cc2)[n-]1

>  <Energy>  (41) 
119.30518769054011

>  <Genealogy>  (41) 
Cc1nc(=Nc2cccc(S(=O)(=O)N3CCOCC3)c2)nc(-c2ccc(N3CCC([NH+]4CCCCC4)CC3)cc2)[n-]1 (protonated)
Cc1n/c(=N\c2cccc(S(=O)(=O)N3CCOCC3)c2)nc(-c2ccc(N3CCC([NH+]4CCCCC4)CC3)cc2)[n-]1 (cis-trans isomerization)
Cc1n/c(=N\c2cccc(S(=O)(=O)N3CCOCC3)c2)nc(-c2ccc(N3CCC([NH+]4CCCCC4)CC3)cc2)[n-]1 (3D coordinates assigned)
Cc1n/c(=N\c2cccc(S(=O)(=O)N3CCOCC3)c2)nc(-c2ccc(N3CCC([NH+]4CCCCC4)CC3)cc2)[n-]1 (nonaromatic ring conformer: 119.30518769054011 kcal/mol)

>  <smiles>  (41) 
Cc1nc(=Nc2cccc(S(=O)(=O)N3CCOCC3)c2)nc(-c2ccc(N3CCC(N4CCCCC4)CC3)cc2)[nH]1

>  <score_type>  (41) 
oracle

>  <origin>  (41) 
adgpu

>  <m_score__min__energy>  (41) 
-11.99

>  <m_primary>  (41) 
energy

$$$$
41:0
     RDKit          3D

 57 60  0  0  0  0  0  0  0  0999 V2000
   -3.3330   24.3610  -30.4820 O   0  0  0  0  0  0  0  0  0  0  0  0
   -3.7340   24.2040  -29.2950 C   0  0  0  0  0  0  0  0  0  0  0  0
   -5.0040   23.5750  -29.0520 N   0  0  0  0  0  0  0  0  0  0  0  0
   -5.6380   22.6770  -29.9780 C   0  0  0  0  0  0  0  0  0  0  0  0
   -4.8730   22.0720  -30.9860 C   0  0  0  0  0  0  0  0  0  0  0  0
   -5.4710   21.2110  -31.9110 C   0  0  0  0  0  0  0  0  0  0  0  0
   -6.8480   20.9610  -31.8530 C   0  0  0  0  0  0  0  0  0  0  0  0
   -7.6120   19.8640  -32.9990 S   0  0  0  0  0  0  0  0  0  0  0  0
   -7.0260   20.0660  -34.3710 O   0  0  0  0  0  0  0  0  0  0  0  0
   -9.0840   20.1640  -33.0570 O   0  0  0  0  0  0  0  0  0  0  0  0
   -7.3700   18.2190  -32.4680 N   0  0  0  0  0  0  0  0  0  0  0  0
   -6.4050   18.1530  -31.3700 C   0  0  0  0  0  0  0  0  0  0  0  0
   -5.7670   16.7740  -31.4390 C   0  0  0  0  0  0  0  0  0  0  0  0
   -6.0200   16.2820  -32.8560 C   0  0  0  0  0  0  0  0  0  0  0  0
   -6.8070   17.3930  -33.5340 C   0  0  0  0  0  0  0  0  0  0  0  0
   -7.6200   21.5730  -30.8580 C   0  0  0  0  0  0  0  0  0  0  0  0
   -7.0230   22.4310  -29.9300 C   0  0  0  0  0  0  0  0  0  0  0  0
   -2.9110   24.7140  -28.1730 C   0  0  0  0  0  0  0  0  0  0  0  0
   -1.5760   25.1090  -28.3770 C   0  0  0  0  0  0  0  0  0  0  0  0
   -0.8120   25.6020  -27.3150 C   0  0  0  0  0  0  0  0  0  0  0  0
   -1.3670   25.7080  -26.0350 C   0  0  0  0  0  0  0  0  0  0  0  0
   -0.3940   26.3550  -24.7160 S   0  0  0  0  0  0  0  0  0  0  0  0
   -0.8490   25.7660  -23.4090 O   0  0  0  0  0  0  0  0  0  0  0  0
    1.0380   25.9650  -24.9480 O   0  0  0  0  0  0  0  0  0  0  0  0
   -0.5520   28.0990  -24.6920 N   0  0  0  0  0  0  0  0  0  0  0  0
    0.6470   28.7550  -24.1250 C   0  0  0  0  0  0  0  0  0  0  0  0
    1.5950   29.3000  -25.2080 C   0  0  0  0  0  0  0  0  0  0  0  0
    1.5470   28.4840  -26.3560 O   0  0  0  0  0  0  0  0  0  0  0  0
    0.2910   28.6170  -26.9980 C   0  0  0  0  0  0  0  0  0  0  0  0
   -0.9080   28.6320  -26.0190 C   0  0  0  0  0  0  0  0  0  0  0  0
   -2.6980   25.3280  -25.8250 C   0  0  0  0  0  0  0  0  0  0  0  0
   -3.4650   24.8360  -26.8850 C   0  0  0  0  0  0  0  0  0  0  0  0
   -5.5430   23.8700  -28.2070 H   0  0  0  0  0  0  0  0  0  0  0  0
   -3.7940   22.2766  -31.0492 H   0  0  0  0  0  0  0  0  0  0  0  0
   -4.8583   20.7284  -32.6867 H   0  0  0  0  0  0  0  0  0  0  0  0
   -5.6386   18.9329  -31.4901 H   0  0  0  0  0  0  0  0  0  0  0  0
   -6.8951   18.3167  -30.3989 H   0  0  0  0  0  0  0  0  0  0  0  0
   -4.6869   16.8394  -31.2415 H   0  0  0  0  0  0  0  0  0  0  0  0
   -6.1884   16.0903  -30.6873 H   0  0  0  0  0  0  0  0  0  0  0  0
   -5.0680   16.1098  -33.3795 H   0  0  0  0  0  0  0  0  0  0  0  0
   -6.5670   15.3277  -32.8665 H   0  0  0  0  0  0  0  0  0  0  0  0
   -6.1415   17.9958  -34.1694 H   0  0  0  0  0  0  0  0  0  0  0  0
   -7.5995   16.9815  -34.1764 H   0  0  0  0  0  0  0  0  0  0  0  0
   -8.7013   21.3777  -30.8064 H   0  0  0  0  0  0  0  0  0  0  0  0
   -7.6386   22.9164  -29.1584 H   0  0  0  0  0  0  0  0  0  0  0  0
   -1.1302   25.0293  -29.3794 H   0  0  0  0  0  0  0  0  0  0  0  0
    0.2305   25.9081  -27.4866 H   0  0  0  0  0  0  0  0  0  0  0  0
    0.3225   29.5913  -23.4884 H   0  0  0  0  0  0  0  0  0  0  0  0
    1.1999   27.9969  -23.5509 H   0  0  0  0  0  0  0  0  0  0  0  0
    1.2898   30.3222  -25.4764 H   0  0  0  0  0  0  0  0  0  0  0  0
    2.6223   29.3043  -24.8149 H   0  0  0  0  0  0  0  0  0  0  0  0
    0.2886   29.5596  -27.5650 H   0  0  0  0  0  0  0  0  0  0  0  0
    0.1661   27.7376  -27.6468 H   0  0  0  0  0  0  0  0  0  0  0  0
   -1.2565   29.6688  -25.9021 H   0  0  0  0  0  0  0  0  0  0  0  0
   -1.6950   27.9892  -26.4402 H   0  0  0  0  0  0  0  0  0  0  0  0
   -3.1417   25.4169  -24.8224 H   0  0  0  0  0  0  0  0  0  0  0  0
   -4.5105   24.5417  -26.7110 H   0  0  0  0  0  0  0  0  0  0  0  0
  1  2  2  0
  2  3  1  0
  3  4  1  0
  4  5  2  0
  5  6  1  0
  6  7  2  0
  7  8  1  0
  8  9  2  0
  8 10  2  0
  8 11  1  0
 11 12  1  0
 12 13  1  0
 13 14  1  0
 14 15  1  0
  7 16  1  0
 16 17  2  0
  2 18  1  0
 18 19  2  0
 19 20  1  0
 20 21  2  0
 21 22  1  0
 22 23  2  0
 22 24  2  0
 22 25  1  0
 25 26  1  0
 26 27  1  0
 27 28  1  0
 28 29  1  0
 29 30  1  0
 21 31  1  0
 31 32  2  0
 17  4  1  0
 32 18  1  0
 15 11  1  0
 30 25  1  0
  3 33  1  0
  5 34  1  0
  6 35  1  0
 12 36  1  0
 12 37  1  0
 13 38  1  0
 13 39  1  0
 14 40  1  0
 14 41  1  0
 15 42  1  0
 15 43  1  0
 16 44  1  0
 17 45  1  0
 19 46  1  0
 20 47  1  0
 26 48  1  0
 26 49  1  0
 27 50  1  0
 27 51  1  0
 29 52  1  0
 29 53  1  0
 30 54  1  0
 30 55  1  0
 31 56  1  0
 32 57  1  0
M  END
>  <UniqueID>  (42) 
41

>  <SMILES>  (42) 
O=C(Nc1ccc(S(=O)(=O)N2CCCC2)cc1)c1ccc(S(=O)(=O)N2CCOCC2)cc1

>  <Energy>  (42) 
76.12961166842307

>  <Genealogy>  (42) 
O=C(Nc1ccc(S(=O)(=O)N2CCCC2)cc1)c1ccc(S(=O)(=O)N2CCOCC2)cc1 (3D coordinates assigned)
O=C(Nc1ccc(S(=O)(=O)N2CCCC2)cc1)c1ccc(S(=O)(=O)N2CCOCC2)cc1 (nonaromatic ring conformer: 76.12961166842307 kcal/mol)

>  <smiles>  (42) 
O=C(Nc1ccc(S(=O)(=O)N2CCCC2)cc1)c1ccc(S(=O)(=O)N2CCOCC2)cc1

>  <score_type>  (42) 
oracle

>  <origin>  (42) 
adgpu

>  <m_score__min__energy>  (42) 
-9.8200000000000003

>  <m_primary>  (42) 
energy

$$$$
42:0
     RDKit          3D

 48 52  0  0  0  0  0  0  0  0999 V2000
    0.2340   18.6360  -27.9830 O   0  0  0  0  0  0  0  0  0  0  0  0
   -0.0920   19.2060  -29.0610 C   0  0  0  0  0  0  0  0  0  0  0  0
    0.0850   18.5020  -30.3540 C   0  0  0  0  0  0  0  0  0  0  0  0
    0.5810   17.1830  -30.3910 C   0  0  0  0  0  0  0  0  0  0  0  0
    0.7470   16.5220  -31.6110 C   0  0  0  0  0  0  0  0  0  0  0  0
    0.4190   17.1700  -32.8060 C   0  0  0  0  0  0  0  0  0  0  0  0
   -0.0760   18.4800  -32.7840 C   0  0  0  0  0  0  0  0  0  0  0  0
   -0.2500   19.1550  -31.5620 C   0  0  0  0  0  0  0  0  0  0  0  0
   -0.7790   20.5420  -31.5340 C   0  0  0  0  0  0  0  0  0  0  0  0
   -1.0450   21.1410  -32.6160 O   0  0  0  0  0  0  0  0  0  0  0  0
   -0.9930   21.2290  -30.2390 C   0  0  0  0  0  0  0  0  0  0  0  0
   -1.5440   22.5220  -30.2000 C   0  0  0  0  0  0  0  0  0  0  0  0
   -1.7500   23.1700  -28.9780 C   0  0  0  0  0  0  0  0  0  0  0  0
   -2.5280   24.7520  -28.9570 S   0  0  0  0  0  0  0  0  0  0  0  0
   -1.4660   25.8130  -28.9510 O   0  0  0  0  0  0  0  0  0  0  0  0
   -3.3830   24.9230  -27.7280 O   0  0  0  0  0  0  0  0  0  0  0  0
   -3.4980   24.9210  -30.3920 N   0  0  0  0  0  0  0  0  0  0  0  0
   -4.6130   24.0750  -30.7010 C   0  0  0  0  0  0  0  0  0  0  0  0
   -4.4930   23.0130  -31.6070 C   0  0  0  0  0  0  0  0  0  0  0  0
   -5.6010   22.2160  -31.9240 C   0  0  0  0  0  0  0  0  0  0  0  0
   -6.8450   22.4660  -31.3000 C   0  0  0  0  0  0  0  0  0  0  0  0
   -6.9640   23.5290  -30.4050 C   0  0  0  0  0  0  0  0  0  0  0  0
   -5.8510   24.3180  -30.0850 C   0  0  0  0  0  0  0  0  0  0  0  0
   -5.9710   25.3560  -29.1610 O   0  0  0  0  0  0  0  0  0  0  0  0
   -8.0580   21.6440  -31.6640 C   0  0  0  0  0  0  0  0  0  0  0  0
   -7.6940   20.3180  -32.1800 N   0  0  0  0  0  0  0  0  0  0  0  0
   -6.7520   20.4360  -33.3020 C   0  0  0  0  0  0  0  0  0  0  0  0
   -5.4130   21.0340  -32.8430 C   0  0  0  0  0  0  0  0  0  0  0  0
   -1.3960   22.5270  -27.7840 C   0  0  0  0  0  0  0  0  0  0  0  0
   -0.8520   21.2400  -27.8090 C   0  0  0  0  0  0  0  0  0  0  0  0
   -0.6510   20.5780  -29.0320 C   0  0  0  0  0  0  0  0  0  0  0  0
    0.8393   16.6703  -29.4527 H   0  0  0  0  0  0  0  0  0  0  0  0
    1.1353   15.4930  -31.6313 H   0  0  0  0  0  0  0  0  0  0  0  0
    0.5501   16.6494  -33.7661 H   0  0  0  0  0  0  0  0  0  0  0  0
   -0.3303   18.9842  -33.7280 H   0  0  0  0  0  0  0  0  0  0  0  0
   -1.8152   23.0280  -31.1383 H   0  0  0  0  0  0  0  0  0  0  0  0
   -3.5195   22.8029  -32.0740 H   0  0  0  0  0  0  0  0  0  0  0  0
   -7.9393   23.7498  -29.9467 H   0  0  0  0  0  0  0  0  0  0  0  0
   -5.1700   25.6990  -28.6410 H   0  0  0  0  0  0  0  0  0  0  0  0
   -8.6818   21.5163  -30.7670 H   0  0  0  0  0  0  0  0  0  0  0  0
   -8.6025   22.1776  -32.4570 H   0  0  0  0  0  0  0  0  0  0  0  0
   -7.2450   19.7680  -31.4080 H   0  0  0  0  0  0  0  0  0  0  0  0
   -6.5722   19.4371  -33.7261 H   0  0  0  0  0  0  0  0  0  0  0  0
   -7.1915   21.1046  -34.0569 H   0  0  0  0  0  0  0  0  0  0  0  0
   -4.8429   20.2585  -32.3104 H   0  0  0  0  0  0  0  0  0  0  0  0
   -4.8756   21.3837  -33.7368 H   0  0  0  0  0  0  0  0  0  0  0  0
   -1.5472   23.0383  -26.8218 H   0  0  0  0  0  0  0  0  0  0  0  0
   -0.5797   20.7426  -26.8664 H   0  0  0  0  0  0  0  0  0  0  0  0
  1  2  2  0
  2  3  1  0
  3  4  2  0
  4  5  1  0
  5  6  2  0
  6  7  1  0
  7  8  2  0
  8  9  1  0
  9 10  2  0
  9 11  1  0
 11 12  2  0
 12 13  1  0
 13 14  1  0
 14 15  2  0
 14 16  2  0
 14 17  1  0
 17 18  1  0
 18 19  2  0
 19 20  1  0
 20 21  2  0
 21 22  1  0
 22 23  2  0
 23 24  1  0
 21 25  1  0
 25 26  1  0
 26 27  1  0
 27 28  1  0
 13 29  2  0
 29 30  1  0
 30 31  2  0
 31  2  1  0
  8  3  1  0
 31 11  1  0
 23 18  1  0
 28 20  1  0
  4 32  1  0
  5 33  1  0
  6 34  1  0
  7 35  1  0
 12 36  1  0
 19 37  1  0
 22 38  1  0
 24 39  1  0
 25 40  1  0
 25 41  1  0
 26 42  1  0
 27 43  1  0
 27 44  1  0
 28 45  1  0
 28 46  1  0
 29 47  1  0
 30 48  1  0
M  CHG  1  17  -1
M  END
>  <UniqueID>  (43) 
42

>  <SMILES>  (43) 
O=C1c2ccccc2C(=O)c2cc(S(=O)(=O)[N-]c3cc4c(cc3O)CNCC4)ccc21

>  <Energy>  (43) 
64.73191400669323

>  <Genealogy>  (43) 
O=C1c2ccccc2C(=O)c2cc(S(=O)(=O)[N-]c3cc4c(cc3O)CNCC4)ccc21 (protonated)
O=C1c2ccccc2C(=O)c2cc(S(=O)(=O)[N-]c3cc4c(cc3O)CNCC4)ccc21 (3D coordinates assigned)
O=C1c2ccccc2C(=O)c2cc(S(=O)(=O)[N-]c3cc4c(cc3O)CNCC4)ccc21 (nonaromatic ring conformer: 64.73191400669323 kcal/mol)

>  <smiles>  (43) 
O=C1c2ccccc2C(=O)c2cc(S(=O)(=O)Nc3cc4c(cc3O)CNCC4)ccc21

>  <score_type>  (43) 
oracle

>  <origin>  (43) 
adgpu

>  <m_score__min__energy>  (43) 
-11.970000000000001

>  <m_primary>  (43) 
energy

$$$$
43:0
     RDKit          3D

 48 51  0  0  0  0  0  0  0  0999 V2000
   -5.9310   26.0330  -31.3200 O   0  0  0  0  0  0  0  0  0  0  0  0
   -5.4110   24.9540  -30.4110 S   0  0  0  0  0  0  0  0  0  0  0  0
   -6.1140   25.0460  -29.0870 O   0  0  0  0  0  0  0  0  0  0  0  0
   -3.7090   25.1850  -30.1710 N   0  0  0  0  0  0  0  0  0  0  0  0
   -2.8850   24.4010  -29.2950 C   0  0  0  0  0  0  0  0  0  0  0  0
   -3.2780   23.1260  -28.8490 C   0  0  0  0  0  0  0  0  0  0  0  0
   -2.4330   22.3650  -28.0260 C   0  0  0  0  0  0  0  0  0  0  0  0
   -1.2010   22.9040  -27.6030 C   0  0  0  0  0  0  0  0  0  0  0  0
   -0.8130   24.1740  -28.0510 C   0  0  0  0  0  0  0  0  0  0  0  0
   -1.6480   24.9170  -28.8880 C   0  0  0  0  0  0  0  0  0  0  0  0
   -1.2350   26.1690  -29.3250 O   0  0  0  0  0  0  0  0  0  0  0  0
   -0.2430   22.0840  -26.7680 C   0  0  0  0  0  0  0  0  0  0  0  0
   -0.9140   20.9850  -26.0590 N   0  0  0  0  0  0  0  0  0  0  0  0
   -1.7260   20.1850  -26.9840 C   0  0  0  0  0  0  0  0  0  0  0  0
   -2.8920   21.0130  -27.5410 C   0  0  0  0  0  0  0  0  0  0  0  0
   -5.6960   23.3880  -31.1650 C   0  0  0  0  0  0  0  0  0  0  0  0
   -4.6510   22.7330  -31.8210 C   0  0  0  0  0  0  0  0  0  0  0  0
   -4.8530   21.4750  -32.3930 C   0  0  0  0  0  0  0  0  0  0  0  0
   -6.1120   20.8310  -32.3190 C   0  0  0  0  0  0  0  0  0  0  0  0
   -6.3220   19.5050  -32.8980 N   0  0  0  0  0  0  0  0  0  0  0  0
   -5.6930   19.1730  -34.1950 C   0  0  0  0  0  0  0  0  0  0  0  0
   -6.0920   17.7970  -34.7300 C   0  0  0  0  0  0  0  0  0  0  0  0
   -6.1490   16.8530  -33.6870 O   0  0  0  0  0  0  0  0  0  0  0  0
   -7.2550   17.1600  -32.8720 C   0  0  0  0  0  0  0  0  0  0  0  0
   -7.0380   18.4750  -32.1140 C   0  0  0  0  0  0  0  0  0  0  0  0
   -7.1620   21.5220  -31.6670 C   0  0  0  0  0  0  0  0  0  0  0  0
   -6.9530   22.7810  -31.0990 C   0  0  0  0  0  0  0  0  0  0  0  0
   -4.2564   22.7217  -29.1479 H   0  0  0  0  0  0  0  0  0  0  0  0
    0.1573   24.5889  -27.7407 H   0  0  0  0  0  0  0  0  0  0  0  0
    0.5269   21.6594  -27.4291 H   0  0  0  0  0  0  0  0  0  0  0  0
    0.1967   22.7508  -26.0117 H   0  0  0  0  0  0  0  0  0  0  0  0
   -1.5340   21.3910  -25.3180 H   0  0  0  0  0  0  0  0  0  0  0  0
   -1.0939   19.8457  -27.8178 H   0  0  0  0  0  0  0  0  0  0  0  0
   -2.1353   19.3221  -26.4382 H   0  0  0  0  0  0  0  0  0  0  0  0
   -3.3469   20.4682  -28.3814 H   0  0  0  0  0  0  0  0  0  0  0  0
   -3.6206   21.1678  -26.7316 H   0  0  0  0  0  0  0  0  0  0  0  0
   -3.6626   23.2112  -31.8875 H   0  0  0  0  0  0  0  0  0  0  0  0
   -4.0200   20.9760  -32.9098 H   0  0  0  0  0  0  0  0  0  0  0  0
   -5.9914   19.9333  -34.9318 H   0  0  0  0  0  0  0  0  0  0  0  0
   -4.6052   19.1549  -34.0327 H   0  0  0  0  0  0  0  0  0  0  0  0
   -7.0808   17.8681  -35.2066 H   0  0  0  0  0  0  0  0  0  0  0  0
   -5.3376   17.4702  -35.4608 H   0  0  0  0  0  0  0  0  0  0  0  0
   -8.1508   17.2536  -33.5034 H   0  0  0  0  0  0  0  0  0  0  0  0
   -7.3809   16.3513  -32.1370 H   0  0  0  0  0  0  0  0  0  0  0  0
   -8.0213   18.8774  -31.8291 H   0  0  0  0  0  0  0  0  0  0  0  0
   -6.4096   18.2420  -31.2418 H   0  0  0  0  0  0  0  0  0  0  0  0
   -8.1584   21.0599  -31.6068 H   0  0  0  0  0  0  0  0  0  0  0  0
   -7.7836   23.2982  -30.5963 H   0  0  0  0  0  0  0  0  0  0  0  0
  1  2  2  0
  2  3  2  0
  2  4  1  0
  4  5  1  0
  5  6  2  0
  6  7  1  0
  7  8  2  0
  8  9  1  0
  9 10  2  0
 10 11  1  0
  8 12  1  0
 12 13  1  0
 13 14  1  0
 14 15  1  0
  2 16  1  0
 16 17  2  0
 17 18  1  0
 18 19  2  0
 19 20  1  0
 20 21  1  0
 21 22  1  0
 22 23  1  0
 23 24  1  0
 24 25  1  0
 19 26  1  0
 26 27  2  0
 10  5  1  0
 27 16  1  0
 15  7  1  0
 25 20  1  0
  6 28  1  0
  9 29  1  0
 12 30  1  0
 12 31  1  0
 13 32  1  0
 14 33  1  0
 14 34  1  0
 15 35  1  0
 15 36  1  0
 17 37  1  0
 18 38  1  0
 21 39  1  0
 21 40  1  0
 22 41  1  0
 22 42  1  0
 24 43  1  0
 24 44  1  0
 25 45  1  0
 25 46  1  0
 26 47  1  0
 27 48  1  0
M  CHG  2   4  -1  11  -1
M  END
>  <UniqueID>  (44) 
43

>  <SMILES>  (44) 
O=S(=O)([N-]c1cc2c(cc1[O-])CNCC2)c1ccc(N2CCOCC2)cc1

>  <Energy>  (44) 
63.439211455054746

>  <Genealogy>  (44) 
O=S(=O)([N-]c1cc2c(cc1[O-])CNCC2)c1ccc(N2CCOCC2)cc1 (protonated)
O=S(=O)([N-]c1cc2c(cc1[O-])CNCC2)c1ccc(N2CCOCC2)cc1 (3D coordinates assigned)
O=S(=O)([N-]c1cc2c(cc1[O-])CNCC2)c1ccc(N2CCOCC2)cc1 (nonaromatic ring conformer: 63.439211455054746 kcal/mol)

>  <smiles>  (44) 
O=S(=O)(Nc1cc2c(cc1O)CNCC2)c1ccc(N2CCOCC2)cc1

>  <score_type>  (44) 
oracle

>  <origin>  (44) 
adgpu

>  <m_score__min__energy>  (44) 
-13.77

>  <m_primary>  (44) 
energy

$$$$
44:0
     RDKit          3D

 51 54  0  0  0  0  0  0  0  0999 V2000
   -5.5360   26.4200  -30.9290 O   0  0  0  0  0  0  0  0  0  0  0  0
   -5.2090   25.1610  -30.1740 S   0  0  0  0  0  0  0  0  0  0  0  0
   -5.7470   25.2960  -28.7750 O   0  0  0  0  0  0  0  0  0  0  0  0
   -3.4870   24.9780  -30.1020 N   0  0  0  0  0  0  0  0  0  0  0  0
   -2.8420   23.8730  -29.4600 C   0  0  0  0  0  0  0  0  0  0  0  0
   -2.1360   22.9230  -30.2140 C   0  0  0  0  0  0  0  0  0  0  0  0
   -1.4930   21.8470  -29.5880 C   0  0  0  0  0  0  0  0  0  0  0  0
   -1.5790   21.7030  -28.1890 C   0  0  0  0  0  0  0  0  0  0  0  0
   -2.2500   22.6760  -27.4340 C   0  0  0  0  0  0  0  0  0  0  0  0
   -2.8780   23.7580  -28.0590 C   0  0  0  0  0  0  0  0  0  0  0  0
   -3.5450   24.6960  -27.2690 O   0  0  0  0  0  0  0  0  0  0  0  0
   -0.8650   20.5730  -27.4840 C   0  0  0  0  0  0  0  0  0  0  0  0
   -0.5580   19.4520  -28.3830 N   0  0  0  0  0  0  0  0  0  0  0  0
    0.1310   19.9250  -29.5890 C   0  0  0  0  0  0  0  0  0  0  0  0
   -0.7910   20.8140  -30.4310 C   0  0  0  0  0  0  0  0  0  0  0  0
   -5.9710   23.7990  -30.9910 C   0  0  0  0  0  0  0  0  0  0  0  0
   -7.3680   23.7090  -31.0670 C   0  0  0  0  0  0  0  0  0  0  0  0
   -7.9660   22.6150  -31.6980 C   0  0  0  0  0  0  0  0  0  0  0  0
   -7.1740   21.6040  -32.2520 C   0  0  0  0  0  0  0  0  0  0  0  0
   -5.7780   21.6800  -32.1700 C   0  0  0  0  0  0  0  0  0  0  0  0
   -4.7850   20.4110  -32.8810 S   0  0  0  0  0  0  0  0  0  0  0  0
   -4.0320   19.7050  -31.7880 O   0  0  0  0  0  0  0  0  0  0  0  0
   -3.7900   21.0180  -33.8310 O   0  0  0  0  0  0  0  0  0  0  0  0
   -5.8130   19.2710  -33.7080 N   0  0  0  0  0  0  0  0  0  0  0  0
   -5.0280   18.3350  -34.5150 C   0  0  0  0  0  0  0  0  0  0  0  0
   -5.8350   17.0490  -34.5990 C   0  0  0  0  0  0  0  0  0  0  0  0
   -6.8550   17.1340  -33.4730 C   0  0  0  0  0  0  0  0  0  0  0  0
   -6.5540   18.4420  -32.7590 C   0  0  0  0  0  0  0  0  0  0  0  0
   -5.1790   22.7830  -31.5430 C   0  0  0  0  0  0  0  0  0  0  0  0
   -2.0869   23.0242  -31.3082 H   0  0  0  0  0  0  0  0  0  0  0  0
   -2.2827   22.5871  -26.3381 H   0  0  0  0  0  0  0  0  0  0  0  0
   -4.1560   25.4000  -27.6630 H   0  0  0  0  0  0  0  0  0  0  0  0
    0.0769   20.9576  -27.0658 H   0  0  0  0  0  0  0  0  0  0  0  0
   -1.5337   20.1956  -26.6964 H   0  0  0  0  0  0  0  0  0  0  0  0
   -1.4530   18.9840  -28.6600 H   0  0  0  0  0  0  0  0  0  0  0  0
    1.0184   20.5039  -29.2934 H   0  0  0  0  0  0  0  0  0  0  0  0
    0.4252   19.0528  -30.1913 H   0  0  0  0  0  0  0  0  0  0  0  0
   -0.1899   21.3271  -31.1961 H   0  0  0  0  0  0  0  0  0  0  0  0
   -1.5555   20.1729  -30.8942 H   0  0  0  0  0  0  0  0  0  0  0  0
   -7.9941   24.5005  -30.6294 H   0  0  0  0  0  0  0  0  0  0  0  0
   -9.0623   22.5487  -31.7592 H   0  0  0  0  0  0  0  0  0  0  0  0
   -7.6486   20.7475  -32.7531 H   0  0  0  0  0  0  0  0  0  0  0  0
   -4.8647   18.7468  -35.5219 H   0  0  0  0  0  0  0  0  0  0  0  0
   -4.0409   18.1546  -34.0643 H   0  0  0  0  0  0  0  0  0  0  0  0
   -6.3422   16.9765  -35.5724 H   0  0  0  0  0  0  0  0  0  0  0  0
   -5.1954   16.1592  -34.5035 H   0  0  0  0  0  0  0  0  0  0  0  0
   -7.8774   17.1426  -33.8788 H   0  0  0  0  0  0  0  0  0  0  0  0
   -6.7900   16.2710  -32.7940 H   0  0  0  0  0  0  0  0  0  0  0  0
   -7.4904   18.9409  -32.4688 H   0  0  0  0  0  0  0  0  0  0  0  0
   -5.9720   18.2700  -31.8416 H   0  0  0  0  0  0  0  0  0  0  0  0
   -4.0826   22.8507  -31.4844 H   0  0  0  0  0  0  0  0  0  0  0  0
  1  2  2  0
  2  3  2  0
  2  4  1  0
  4  5  1  0
  5  6  2  0
  6  7  1  0
  7  8  2  0
  8  9  1  0
  9 10  2  0
 10 11  1  0
  8 12  1  0
 12 13  1  0
 13 14  1  0
 14 15  1  0
  2 16  1  0
 16 17  2  0
 17 18  1  0
 18 19  2  0
 19 20  1  0
 20 21  1  0
 21 22  2  0
 21 23  2  0
 21 24  1  0
 24 25  1  0
 25 26  1  0
 26 27  1  0
 27 28  1  0
 20 29  2  0
 10  5  1  0
 29 16  1  0
 15  7  1  0
 28 24  1  0
  6 30  1  0
  9 31  1  0
 11 32  1  0
 12 33  1  0
 12 34  1  0
 13 35  1  0
 14 36  1  0
 14 37  1  0
 15 38  1  0
 15 39  1  0
 17 40  1  0
 18 41  1  0
 19 42  1  0
 25 43  1  0
 25 44  1  0
 26 45  1  0
 26 46  1  0
 27 47  1  0
 27 48  1  0
 28 49  1  0
 28 50  1  0
 29 51  1  0
M  CHG  1   4  -1
M  END
>  <UniqueID>  (45) 
44

>  <SMILES>  (45) 
O=S(=O)([N-]c1cc2c(cc1O)CNCC2)c1cccc(S(=O)(=O)N2CCCC2)c1

>  <Energy>  (45) 
63.53847421920889

>  <Genealogy>  (45) 
O=S(=O)([N-]c1cc2c(cc1O)CNCC2)c1cccc(S(=O)(=O)N2CCCC2)c1 (protonated)
O=S(=O)([N-]c1cc2c(cc1O)CNCC2)c1cccc(S(=O)(=O)N2CCCC2)c1 (3D coordinates assigned)
O=S(=O)([N-]c1cc2c(cc1O)CNCC2)c1cccc(S(=O)(=O)N2CCCC2)c1 (nonaromatic ring conformer: 63.53847421920889 kcal/mol)

>  <smiles>  (45) 
O=S(=O)(Nc1cc2c(cc1O)CNCC2)c1cccc(S(=O)(=O)N2CCCC2)c1

>  <score_type>  (45) 
oracle

>  <origin>  (45) 
adgpu

>  <m_score__min__energy>  (45) 
-12.23

>  <m_primary>  (45) 
energy

$$$$
45:0
     RDKit          3D

 50 52  0  0  1  0  0  0  0  0999 V2000
   -5.7020   16.3810  -31.7150 C   0  0  0  0  0  0  0  0  0  0  0  0
   -5.4720   17.6960  -32.3530 C   0  0  0  0  0  0  0  0  0  0  0  0
   -6.4960   18.6200  -32.3060 C   0  0  0  0  0  0  0  0  0  0  0  0
   -6.2750   19.8470  -32.9020 C   0  0  0  0  0  0  0  0  0  0  0  0
   -7.1790   20.7440  -32.8950 N   0  0  0  0  0  0  0  0  0  0  0  0
   -8.4660   20.5780  -32.2900 C   0  0  0  0  0  0  0  0  0  0  0  0
   -8.9650   21.8660  -31.6220 C   0  0  0  0  0  0  0  0  0  0  0  0
   -7.8080   22.7510  -31.2990 C   0  0  0  0  0  0  0  0  0  0  0  0
   -7.3050   22.7780  -29.9990 C   0  0  0  0  0  0  0  0  0  0  0  0
   -6.2330   23.5960  -29.6920 C   0  0  0  0  0  0  0  0  0  0  0  0
   -5.6410   24.4000  -30.6660 C   0  0  0  0  0  0  0  0  0  0  0  0
   -4.5600   25.2090  -30.3100 O   0  0  0  0  0  0  0  0  0  0  0  0
   -6.1340   24.3770  -31.9530 C   0  0  0  0  0  0  0  0  0  0  0  0
   -7.2160   23.5520  -32.2670 C   0  0  0  0  0  0  0  0  0  0  0  0
   -5.0930   20.0940  -33.4970 N   0  0  0  0  0  0  0  0  0  0  0  0
   -4.0970   19.1540  -33.5250 C   0  0  0  0  0  0  0  0  0  0  0  0
   -2.9140   19.4350  -34.1790 N   0  0  0  0  0  0  0  0  0  0  0  0
   -2.0360   20.2300  -33.7530 C   0  0  0  0  0  0  0  0  0  0  0  0
   -1.9920   21.0250  -32.5600 C   0  0  0  0  0  0  0  0  0  0  0  0
   -3.0540   21.9150  -32.3590 C   0  0  0  0  0  0  0  0  0  0  0  0
   -3.0950   22.7160  -31.2440 C   0  0  0  0  0  0  0  0  0  0  0  0
   -2.1300   22.7150  -30.2620 C   0  0  0  0  0  0  0  0  0  0  0  0
   -2.2840   23.7650  -28.9040 S   0  0  0  0  0  0  0  0  0  0  0  0
   -3.8210   23.5880  -28.1460 N   0  0  0  0  0  0  0  0  0  0  0  0
   -2.1350   25.1970  -29.3090 O   0  0  0  0  0  0  0  0  0  0  0  0
   -1.2450   23.3840  -27.8680 O   0  0  0  0  0  0  0  0  0  0  0  0
   -1.0780   21.8410  -30.4500 C   0  0  0  0  0  0  0  0  0  0  0  0
   -1.0350   21.0230  -31.5880 C   0  0  0  0  0  0  0  0  0  0  0  0
   -4.2870   17.9310  -32.9440 N   0  0  0  0  0  0  0  0  0  0  0  0
   -5.6820   16.4956  -30.6212 H   0  0  0  0  0  0  0  0  0  0  0  0
   -6.6822   15.9896  -32.0248 H   0  0  0  0  0  0  0  0  0  0  0  0
   -4.9128   15.6801  -32.0248 H   0  0  0  0  0  0  0  0  0  0  0  0
   -7.4517   18.3886  -31.8129 H   0  0  0  0  0  0  0  0  0  0  0  0
   -9.1862   20.2800  -33.0662 H   0  0  0  0  0  0  0  0  0  0  0  0
   -8.3748   19.8076  -31.5102 H   0  0  0  0  0  0  0  0  0  0  0  0
   -9.6465   22.3918  -32.3069 H   0  0  0  0  0  0  0  0  0  0  0  0
   -9.4960   21.6103  -30.6932 H   0  0  0  0  0  0  0  0  0  0  0  0
   -7.7599   22.1498  -29.2190 H   0  0  0  0  0  0  0  0  0  0  0  0
   -5.8413   23.6128  -28.6642 H   0  0  0  0  0  0  0  0  0  0  0  0
   -4.3110   25.3090  -29.3400 H   0  0  0  0  0  0  0  0  0  0  0  0
   -5.6765   25.0066  -32.7304 H   0  0  0  0  0  0  0  0  0  0  0  0
   -7.6051   23.5363  -33.2958 H   0  0  0  0  0  0  0  0  0  0  0  0
   -1.1555   20.3321  -34.4044 H   0  0  0  0  0  0  0  0  0  0  0  0
   -3.8636   21.9733  -33.1014 H   0  0  0  0  0  0  0  0  0  0  0  0
   -3.9496   23.3989  -31.1288 H   0  0  0  0  0  0  0  0  0  0  0  0
   -3.7550   23.3890  -27.1200 H   0  0  0  0  0  0  0  0  0  0  0  0
   -4.4720   24.3730  -28.3090 H   0  0  0  0  0  0  0  0  0  0  0  0
   -0.2709   21.7862  -29.7046 H   0  0  0  0  0  0  0  0  0  0  0  0
   -0.1803   20.3403  -31.7036 H   0  0  0  0  0  0  0  0  0  0  0  0
   -3.5060   17.2520  -32.9890 H   0  0  0  0  0  0  0  0  0  0  0  0
  1  2  1  0
  2  3  2  0
  3  4  1  0
  4  5  2  0
  5  6  1  0
  6  7  1  0
  7  8  1  0
  8  9  2  0
  9 10  1  0
 10 11  2  0
 11 12  1  0
 11 13  1  0
 13 14  2  0
  4 15  1  0
 15 16  2  0
 16 17  1  0
 17 18  2  0
 18 19  1  0
 19 20  2  0
 20 21  1  0
 21 22  2  0
 22 23  1  0
 23 24  1  0
 23 25  2  0
 23 26  2  0
 22 27  1  0
 27 28  2  0
 16 29  1  0
 29  2  1  0
 14  8  1  0
 28 19  1  0
  1 30  1  0
  1 31  1  0
  1 32  1  0
  3 33  1  0
  6 34  1  0
  6 35  1  0
  7 36  1  0
  7 37  1  0
  9 38  1  0
 10 39  1  0
 12 40  1  0
 13 41  1  0
 14 42  1  0
 18 43  1  0
 20 44  1  0
 21 45  1  0
 24 46  1  0
 24 47  1  0
 27 48  1  0
 28 49  1  0
 29 50  1  0
M  END
>  <smiles>  (46) 
Cc1cc(=NCCc2ccc(O)cc2)nc(N=Cc2ccc(S(N)(=O)=O)cc2)[nH]1

>  <score_type>  (46) 
oracle

>  <origin>  (46) 
adgpu

>  <m_score__min__energy>  (46) 
-10.470000000000001

>  <m_primary>  (46) 
energy

$$$$
46:0
     RDKit          3D

 57 60  0  0  0  0  0  0  0  0999 V2000
   -8.5800   22.6040  -31.6020 N   0  0  0  0  0  0  0  0  0  0  0  0
   -7.1970   22.2280  -31.5660 C   0  0  0  0  0  0  0  0  0  0  0  0
   -6.2580   23.2060  -31.2040 C   0  0  0  0  0  0  0  0  0  0  0  0
   -4.8880   22.9180  -31.1810 C   0  0  0  0  0  0  0  0  0  0  0  0
   -3.9600   23.9100  -30.8460 O   0  0  0  0  0  0  0  0  0  0  0  0
   -3.5160   24.1820  -29.5420 C   0  0  0  0  0  0  0  0  0  0  0  0
   -4.3500   24.0290  -28.4190 C   0  0  0  0  0  0  0  0  0  0  0  0
   -3.8490   24.2660  -27.1360 C   0  0  0  0  0  0  0  0  0  0  0  0
   -2.5150   24.6350  -26.9580 C   0  0  0  0  0  0  0  0  0  0  0  0
   -1.6630   24.7720  -28.0670 C   0  0  0  0  0  0  0  0  0  0  0  0
   -0.2400   25.1210  -27.8690 C   0  0  0  0  0  0  0  0  0  0  0  0
    0.6710   24.3330  -28.2430 O   0  0  0  0  0  0  0  0  0  0  0  0
    0.1130   26.3240  -27.2610 O   0  0  0  0  0  0  0  0  0  0  0  0
   -2.1760   24.5530  -29.3580 C   0  0  0  0  0  0  0  0  0  0  0  0
   -4.4400   21.6370  -31.5260 C   0  0  0  0  0  0  0  0  0  0  0  0
   -2.7190   21.2470  -31.4440 S   0  0  0  0  0  0  0  0  0  0  0  0
   -1.9420   22.2920  -32.1930 O   0  0  0  0  0  0  0  0  0  0  0  0
   -2.4450   19.9050  -32.0630 O   0  0  0  0  0  0  0  0  0  0  0  0
   -2.2300   21.2000  -29.7520 C   0  0  0  0  0  0  0  0  0  0  0  0
   -0.9050   21.4960  -29.4080 C   0  0  0  0  0  0  0  0  0  0  0  0
   -0.4840   21.3970  -28.0770 C   0  0  0  0  0  0  0  0  0  0  0  0
   -1.3870   21.0010  -27.0850 C   0  0  0  0  0  0  0  0  0  0  0  0
   -2.7110   20.7050  -27.4230 C   0  0  0  0  0  0  0  0  0  0  0  0
   -3.1330   20.8050  -28.7540 C   0  0  0  0  0  0  0  0  0  0  0  0
   -5.3700   20.6500  -31.8750 C   0  0  0  0  0  0  0  0  0  0  0  0
   -6.7490   20.9220  -31.8930 C   0  0  0  0  0  0  0  0  0  0  0  0
   -7.8440   19.5740  -32.2790 S   0  0  0  0  0  0  0  0  0  0  0  0
   -9.0410   20.0590  -33.0460 O   0  0  0  0  0  0  0  0  0  0  0  0
   -8.3540   18.9960  -30.9880 O   0  0  0  0  0  0  0  0  0  0  0  0
   -7.0340   18.3120  -33.1760 N   0  0  0  0  0  0  0  0  0  0  0  0
   -6.1310   18.8890  -34.1860 C   0  0  0  0  0  0  0  0  0  0  0  0
   -5.2830   17.7970  -34.8670 C   0  0  0  0  0  0  0  0  0  0  0  0
   -5.7550   16.4570  -34.4990 N   0  0  0  0  0  0  0  0  0  0  0  0
   -5.6580   16.2590  -33.0440 C   0  0  0  0  0  0  0  0  0  0  0  0
   -6.2820   17.4350  -32.2640 C   0  0  0  0  0  0  0  0  0  0  0  0
   -9.3330   21.9620  -31.9260 H   0  0  0  0  0  0  0  0  0  0  0  0
   -8.8670   23.5760  -31.3620 H   0  0  0  0  0  0  0  0  0  0  0  0
   -6.6037   24.2148  -30.9341 H   0  0  0  0  0  0  0  0  0  0  0  0
   -5.3981   23.7223  -28.5512 H   0  0  0  0  0  0  0  0  0  0  0  0
   -4.5093   24.1612  -26.2625 H   0  0  0  0  0  0  0  0  0  0  0  0
   -2.1286   24.8195  -25.9448 H   0  0  0  0  0  0  0  0  0  0  0  0
   -1.5196   24.6739  -30.2324 H   0  0  0  0  0  0  0  0  0  0  0  0
   -0.1929   21.8073  -30.1865 H   0  0  0  0  0  0  0  0  0  0  0  0
    0.5574   21.6307  -27.8109 H   0  0  0  0  0  0  0  0  0  0  0  0
   -1.0556   20.9225  -26.0391 H   0  0  0  0  0  0  0  0  0  0  0  0
   -3.4212   20.3935  -26.6429 H   0  0  0  0  0  0  0  0  0  0  0  0
   -4.1754   20.5732  -29.0179 H   0  0  0  0  0  0  0  0  0  0  0  0
   -5.0149   19.6432  -32.1400 H   0  0  0  0  0  0  0  0  0  0  0  0
   -6.7308   19.4055  -34.9498 H   0  0  0  0  0  0  0  0  0  0  0  0
   -5.4519   19.5933  -33.6832 H   0  0  0  0  0  0  0  0  0  0  0  0
   -5.3532   17.9157  -35.9583 H   0  0  0  0  0  0  0  0  0  0  0  0
   -4.2404   17.9046  -34.5333 H   0  0  0  0  0  0  0  0  0  0  0  0
   -5.1280   15.7550  -34.9620 H   0  0  0  0  0  0  0  0  0  0  0  0
   -6.1862   15.3325  -32.7745 H   0  0  0  0  0  0  0  0  0  0  0  0
   -4.5926   16.1980  -32.7770 H   0  0  0  0  0  0  0  0  0  0  0  0
   -6.9637   17.0401  -31.4963 H   0  0  0  0  0  0  0  0  0  0  0  0
   -5.4775   18.0170  -31.7907 H   0  0  0  0  0  0  0  0  0  0  0  0
  1  2  1  0
  2  3  2  0
  3  4  1  0
  4  5  1  0
  5  6  1  0
  6  7  2  0
  7  8  1  0
  8  9  2  0
  9 10  1  0
 10 11  1  0
 11 12  2  0
 11 13  1  0
 10 14  2  0
  4 15  2  0
 15 16  1  0
 16 17  2  0
 16 18  2  0
 16 19  1  0
 19 20  2  0
 20 21  1  0
 21 22  2  0
 22 23  1  0
 23 24  2  0
 15 25  1  0
 25 26  2  0
 26 27  1  0
 27 28  2  0
 27 29  2  0
 27 30  1  0
 30 31  1  0
 31 32  1  0
 32 33  1  0
 33 34  1  0
 34 35  1  0
 26  2  1  0
 35 30  1  0
 14  6  1  0
 24 19  1  0
  1 36  1  0
  1 37  1  0
  3 38  1  0
  7 39  1  0
  8 40  1  0
  9 41  1  0
 14 42  1  0
 20 43  1  0
 21 44  1  0
 22 45  1  0
 23 46  1  0
 24 47  1  0
 25 48  1  0
 31 49  1  0
 31 50  1  0
 32 51  1  0
 32 52  1  0
 33 53  1  0
 34 54  1  0
 34 55  1  0
 35 56  1  0
 35 57  1  0
M  CHG  1  13  -1
M  END
>  <UniqueID>  (47) 
45

>  <SMILES>  (47) 
Nc1cc(Oc2cccc(C(=O)[O-])c2)c(S(=O)(=O)c2ccccc2)cc1S(=O)(=O)N1CCNCC1

>  <Energy>  (47) 
75.4857930554173

>  <Genealogy>  (47) 
Nc1cc(Oc2cccc(C(=O)[O-])c2)c(S(=O)(=O)c2ccccc2)cc1S(=O)(=O)N1CCNCC1 (protonated)
Nc1cc(Oc2cccc(C(=O)[O-])c2)c(S(=O)(=O)c2ccccc2)cc1S(=O)(=O)N1CCNCC1 (3D coordinates assigned)
Nc1cc(Oc2cccc(C(=O)[O-])c2)c(S(=O)(=O)c2ccccc2)cc1S(=O)(=O)N1CCNCC1 (nonaromatic ring conformer: 75.4857930554173 kcal/mol)

>  <smiles>  (47) 
Nc1cc(Oc2cccc(C(=O)O)c2)c(S(=O)(=O)c2ccccc2)cc1S(=O)(=O)N1CCNCC1

>  <score_type>  (47) 
oracle

>  <origin>  (47) 
adgpu

>  <m_score__min__energy>  (47) 
-11.369999999999999

>  <m_primary>  (47) 
energy

$$$$
47:0
     RDKit          3D

 32 33  0  0  0  0  0  0  0  0999 V2000
   -6.2363   25.2133  -28.5630 H   0  0  0  0  0  0  0  0  0  0  0  0
   -5.3460   24.7100  -28.9680 C   0  0  0  0  0  0  0  0  0  0  0  0
   -5.3800   24.2970  -30.3910 C   0  0  0  0  0  0  0  0  0  0  0  0
   -4.6040   24.8460  -31.2180 O   0  0  0  0  0  0  0  0  0  0  0  0
   -6.3530   23.3060  -30.8980 C   0  0  0  0  0  0  0  0  0  0  0  0
   -7.4100   23.6015  -30.9722 H   0  0  0  0  0  0  0  0  0  0  0  0
   -6.0100   22.0640  -31.2720 C   0  0  0  0  0  0  0  0  0  0  0  0
   -4.9524   21.7715  -31.1944 H   0  0  0  0  0  0  0  0  0  0  0  0
   -6.9790   21.0620  -31.7850 C   0  0  0  0  0  0  0  0  0  0  0  0
   -8.3320   21.4290  -31.8890 C   0  0  0  0  0  0  0  0  0  0  0  0
   -8.6457   22.4425  -31.5985 H   0  0  0  0  0  0  0  0  0  0  0  0
   -9.2820   20.5180  -32.3580 C   0  0  0  0  0  0  0  0  0  0  0  0
  -10.3365   20.8194  -32.4431 H   0  0  0  0  0  0  0  0  0  0  0  0
   -8.8950   19.2250  -32.7190 C   0  0  0  0  0  0  0  0  0  0  0  0
   -9.6431   18.5107  -33.0933 H   0  0  0  0  0  0  0  0  0  0  0  0
   -7.5560   18.8400  -32.6040 C   0  0  0  0  0  0  0  0  0  0  0  0
   -7.1760   17.5500  -32.9490 O   0  0  0  0  0  0  0  0  0  0  0  0
   -6.6010   19.7500  -32.1370 C   0  0  0  0  0  0  0  0  0  0  0  0
   -5.5497   19.4401  -32.0440 H   0  0  0  0  0  0  0  0  0  0  0  0
   -4.3100   24.5160  -28.1360 C   0  0  0  0  0  0  0  0  0  0  0  0
   -4.3529   25.0032  -27.1507 H   0  0  0  0  0  0  0  0  0  0  0  0
   -3.1150   23.6980  -28.4410 C   0  0  0  0  0  0  0  0  0  0  0  0
   -3.0630   22.3370  -28.0880 C   0  0  0  0  0  0  0  0  0  0  0  0
   -3.9327   21.8621  -27.6104 H   0  0  0  0  0  0  0  0  0  0  0  0
   -1.9120   21.5850  -28.3410 C   0  0  0  0  0  0  0  0  0  0  0  0
   -1.8840   20.5176  -28.0765 H   0  0  0  0  0  0  0  0  0  0  0  0
   -0.7980   22.1870  -28.9290 C   0  0  0  0  0  0  0  0  0  0  0  0
    0.1045   21.5923  -29.1333 H   0  0  0  0  0  0  0  0  0  0  0  0
   -0.8290   23.5440  -29.2580 C   0  0  0  0  0  0  0  0  0  0  0  0
    0.0528   24.0174  -29.7145 H   0  0  0  0  0  0  0  0  0  0  0  0
   -1.9780   24.3040  -29.0090 C   0  0  0  0  0  0  0  0  0  0  0  0
   -1.9860   25.6540  -29.3380 O   0  0  0  0  0  0  0  0  0  0  0  0
  1  2  1  0
  2  3  1  0
  3  4  2  0
  3  5  1  0
  5  6  1  0
  5  7  2  0
  7  8  1  0
  7  9  1  0
  9 10  2  0
 10 11  1  0
 10 12  1  0
 12 13  1  0
 12 14  2  0
 14 15  1  0
 14 16  1  0
 16 17  1  0
 16 18  2  0
 18 19  1  0
  2 20  2  0
 20 21  1  0
 20 22  1  0
 22 23  2  0
 23 24  1  0
 23 25  1  0
 25 26  1  0
 25 27  2  0
 27 28  1  0
 27 29  1  0
 29 30  1  0
 29 31  2  0
 31 32  1  0
 18  9  1  0
 31 22  1  0
M  CHG  2  17  -1  32  -1
M  END
>  <UniqueID>  (48) 
46

>  <SMILES>  (48) 
O=C(/C=C\c1ccccc1[O-])/C=C/c1cccc([O-])c1

>  <Energy>  (48) 
44.401843195462455

>  <Genealogy>  (48) 
O=C(C=Cc1cccc([O-])c1)C=Cc1ccccc1[O-] (protonated)
O=C(/C=C\c1ccccc1[O-])/C=C/c1cccc([O-])c1 (cis-trans isomerization)
O=C(/C=C\c1ccccc1[O-])/C=C/c1cccc([O-])c1 (3D coordinates assigned)
O=C(/C=C\c1ccccc1[O-])/C=C/c1cccc([O-])c1 (optimized conformer: 44.401843195462455 kcal/mol)

>  <smiles>  (48) 
O=C(C=Cc1cccc(O)c1)C=Cc1ccccc1O

>  <score_type>  (48) 
oracle

>  <origin>  (48) 
adgpu

>  <m_score__min__energy>  (48) 
-11.09

>  <m_primary>  (48) 
energy

$$$$
48:0
     RDKit          3D

 49 53  0  0  0  0  0  0  0  0999 V2000
   -0.6940   27.3870  -24.7790 C   0  0  0  0  0  0  0  0  0  0  0  0
   -1.1620   26.4560  -25.8580 C   0  0  0  0  0  0  0  0  0  0  0  0
   -0.4870   26.4000  -27.0860 C   0  0  0  0  0  0  0  0  0  0  0  0
   -0.9460   25.5600  -28.1050 C   0  0  0  0  0  0  0  0  0  0  0  0
   -2.0890   24.7650  -27.9150 C   0  0  0  0  0  0  0  0  0  0  0  0
   -2.5530   23.9120  -28.9780 N   0  0  0  0  0  0  0  0  0  0  0  0
   -2.0760   22.6910  -29.2080 N   0  0  0  0  0  0  0  0  0  0  0  0
   -2.7530   22.1510  -30.2520 C   0  0  0  0  0  0  0  0  0  0  0  0
   -3.6880   23.0690  -30.6830 C   0  0  0  0  0  0  0  0  0  0  0  0
   -4.7050   23.0490  -31.6370 C   0  0  0  0  0  0  0  0  0  0  0  0
   -4.9150   21.9300  -32.5130 N   0  0  0  0  0  0  0  0  0  0  0  0
   -3.8660   21.5020  -33.4480 C   0  0  0  0  0  0  0  0  0  0  0  0
   -3.7780   19.9710  -33.4740 C   0  0  0  0  0  0  0  0  0  0  0  0
   -5.1130   19.3510  -33.4860 N   0  0  0  0  0  0  0  0  0  0  0  0
   -5.2120   17.9150  -33.4500 C   0  0  0  0  0  0  0  0  0  0  0  0
   -6.3440   17.2500  -33.9510 C   0  0  0  0  0  0  0  0  0  0  0  0
   -6.4120   15.8560  -33.8780 C   0  0  0  0  0  0  0  0  0  0  0  0
   -5.3640   15.1380  -33.3010 C   0  0  0  0  0  0  0  0  0  0  0  0
   -4.2620   15.8290  -32.7950 C   0  0  0  0  0  0  0  0  0  0  0  0
   -4.2130   17.1860  -32.8760 N   0  0  0  0  0  0  0  0  0  0  0  0
   -6.3050   20.2000  -33.6210 C   0  0  0  0  0  0  0  0  0  0  0  0
   -6.2570   21.3320  -32.5900 C   0  0  0  0  0  0  0  0  0  0  0  0
   -5.5400   24.1310  -31.6830 N   0  0  0  0  0  0  0  0  0  0  0  0
   -5.3810   25.1990  -30.8390 C   0  0  0  0  0  0  0  0  0  0  0  0
   -4.3790   25.2070  -29.9110 N   0  0  0  0  0  0  0  0  0  0  0  0
   -3.5390   24.1430  -29.8650 C   0  0  0  0  0  0  0  0  0  0  0  0
   -2.7820   24.8490  -26.6940 C   0  0  0  0  0  0  0  0  0  0  0  0
   -2.3220   25.6900  -25.6760 C   0  0  0  0  0  0  0  0  0  0  0  0
   -0.9147   26.9480  -23.7948 H   0  0  0  0  0  0  0  0  0  0  0  0
    0.3904   27.5445  -24.8755 H   0  0  0  0  0  0  0  0  0  0  0  0
   -1.2145   28.3512  -24.8755 H   0  0  0  0  0  0  0  0  0  0  0  0
    0.4073   27.0196  -27.2481 H   0  0  0  0  0  0  0  0  0  0  0  0
   -0.4078   25.5211  -29.0636 H   0  0  0  0  0  0  0  0  0  0  0  0
   -2.5852   21.1522  -30.6813 H   0  0  0  0  0  0  0  0  0  0  0  0
   -4.1049   21.8702  -34.4566 H   0  0  0  0  0  0  0  0  0  0  0  0
   -2.9002   21.9133  -33.1194 H   0  0  0  0  0  0  0  0  0  0  0  0
   -3.2321   19.6602  -34.3770 H   0  0  0  0  0  0  0  0  0  0  0  0
   -3.2540   19.6413  -32.5648 H   0  0  0  0  0  0  0  0  0  0  0  0
   -7.1705   17.8224  -34.3973 H   0  0  0  0  0  0  0  0  0  0  0  0
   -7.2903   15.3257  -34.2748 H   0  0  0  0  0  0  0  0  0  0  0  0
   -5.4058   14.0402  -33.2456 H   0  0  0  0  0  0  0  0  0  0  0  0
   -3.4325   15.2759  -32.3303 H   0  0  0  0  0  0  0  0  0  0  0  0
   -6.3345   20.6294  -34.6333 H   0  0  0  0  0  0  0  0  0  0  0  0
   -7.2050   19.5913  -33.4495 H   0  0  0  0  0  0  0  0  0  0  0  0
   -6.9796   22.1097  -32.8782 H   0  0  0  0  0  0  0  0  0  0  0  0
   -6.5072   20.9136  -31.6039 H   0  0  0  0  0  0  0  0  0  0  0  0
   -6.0660   26.0568  -30.9096 H   0  0  0  0  0  0  0  0  0  0  0  0
   -3.6912   24.2496  -26.5390 H   0  0  0  0  0  0  0  0  0  0  0  0
   -2.8738   25.7510  -24.7264 H   0  0  0  0  0  0  0  0  0  0  0  0
  1  2  1  0
  2  3  2  0
  3  4  1  0
  4  5  2  0
  5  6  1  0
  6  7  1  0
  7  8  2  0
  8  9  1  0
  9 10  2  0
 10 11  1  0
 11 12  1  0
 12 13  1  0
 13 14  1  0
 14 15  1  0
 15 16  2  0
 16 17  1  0
 17 18  2  0
 18 19  1  0
 19 20  2  0
 14 21  1  0
 21 22  1  0
 10 23  1  0
 23 24  2  0
 24 25  1  0
 25 26  2  0
  5 27  1  0
 27 28  2  0
 28  2  1  0
 26  6  1  0
 26  9  1  0
 22 11  1  0
 20 15  1  0
  1 29  1  0
  1 30  1  0
  1 31  1  0
  3 32  1  0
  4 33  1  0
  8 34  1  0
 12 35  1  0
 12 36  1  0
 13 37  1  0
 13 38  1  0
 16 39  1  0
 17 40  1  0
 18 41  1  0
 19 42  1  0
 21 43  1  0
 21 44  1  0
 22 45  1  0
 22 46  1  0
 24 47  1  0
 27 48  1  0
 28 49  1  0
M  END
>  <UniqueID>  (49) 
47

>  <SMILES>  (49) 
Cc1ccc(-n2ncc3c(N4CCN(c5ccccn5)CC4)ncnc32)cc1

>  <Energy>  (49) 
108.55807115568427

>  <Genealogy>  (49) 
Cc1ccc(-n2ncc3c(N4CCN(c5ccccn5)CC4)ncnc32)cc1 (3D coordinates assigned)
Cc1ccc(-n2ncc3c(N4CCN(c5ccccn5)CC4)ncnc32)cc1 (nonaromatic ring conformer: 108.55807115568427 kcal/mol)

>  <smiles>  (49) 
Cc1ccc(-n2ncc3c(N4CCN(c5ccccn5)CC4)ncnc32)cc1

>  <score_type>  (49) 
oracle

>  <origin>  (49) 
adgpu

>  <m_score__min__energy>  (49) 
-8.3300000000000001

>  <m_primary>  (49) 
energy

$$$$
