0:0
     RDKit          3D

 57 59  0  0  0  0  0  0  0  0999 V2000
   -4.1950   23.1600  -27.8440 C   0  0  0  0  0  0  0  0  0  0  0  0
   -2.8680   23.2490  -28.3500 O   0  0  0  0  0  0  0  0  0  0  0  0
   -2.4830   22.6750  -29.5650 C   0  0  0  0  0  0  0  0  0  0  0  0
   -1.1350   22.3770  -29.7850 C   0  0  0  0  0  0  0  0  0  0  0  0
   -0.7520   21.7890  -30.9930 C   0  0  0  0  0  0  0  0  0  0  0  0
   -1.7120   21.5120  -31.9740 C   0  0  0  0  0  0  0  0  0  0  0  0
   -1.2250   20.8000  -33.5110 S   0  0  0  0  0  0  0  0  0  0  0  0
   -0.5940   21.8500  -34.3840 O   0  0  0  0  0  0  0  0  0  0  0  0
   -0.2190   19.7060  -33.2770 O   0  0  0  0  0  0  0  0  0  0  0  0
   -2.6210   20.1180  -34.2790 N   0  0  0  0  0  0  0  0  0  0  0  0
   -3.1980   18.8790  -33.8550 C   0  0  0  0  0  0  0  0  0  0  0  0
   -2.3890   17.8050  -33.4840 C   0  0  0  0  0  0  0  0  0  0  0  0
   -2.9670   16.5930  -33.1320 C   0  0  0  0  0  0  0  0  0  0  0  0
   -4.3620   16.4470  -33.1550 C   0  0  0  0  0  0  0  0  0  0  0  0
   -4.9440   15.0990  -32.8030 C   0  0  0  0  0  0  0  0  0  0  0  0
   -5.1630   17.5270  -33.4800 N   0  0  0  0  0  0  0  0  0  0  0  0
   -6.6360   17.3890  -33.5460 C   0  0  0  0  0  0  0  0  0  0  0  0
   -7.3120   18.2820  -32.5430 C   0  0  0  0  0  0  0  0  0  0  0  0
   -7.5100   17.8780  -31.3630 O   0  0  0  0  0  0  0  0  0  0  0  0
   -7.7360   19.5940  -32.9380 N   0  0  0  0  0  0  0  0  0  0  0  0
   -8.4900   20.4730  -32.0480 C   0  0  0  0  0  0  0  0  0  0  0  0
   -7.6840   21.7030  -31.7230 C   0  0  0  0  0  0  0  0  0  0  0  0
   -7.9320   22.4300  -30.5490 C   0  0  0  0  0  0  0  0  0  0  0  0
   -7.1890   23.5800  -30.2610 C   0  0  0  0  0  0  0  0  0  0  0  0
   -6.1880   24.0170  -31.1450 C   0  0  0  0  0  0  0  0  0  0  0  0
   -5.3930   25.2610  -30.8460 C   0  0  0  0  0  0  0  0  0  0  0  0
   -3.9660   24.9460  -30.8050 N   0  0  0  0  0  0  0  0  0  0  0  0
   -5.9530   23.3010  -32.3280 C   0  0  0  0  0  0  0  0  0  0  0  0
   -6.6950   22.1500  -32.6150 C   0  0  0  0  0  0  0  0  0  0  0  0
   -4.5900   18.7280  -33.8340 C   0  0  0  0  0  0  0  0  0  0  0  0
   -5.3120   19.7070  -34.1760 O   0  0  0  0  0  0  0  0  0  0  0  0
   -3.0520   21.8350  -31.7190 C   0  0  0  0  0  0  0  0  0  0  0  0
   -3.4020   22.4010  -30.5330 N   0  0  0  0  0  0  0  0  0  0  0  0
   -4.1690   23.1617  -26.7443 H   0  0  0  0  0  0  0  0  0  0  0  0
   -4.7810   24.0209  -28.1983 H   0  0  0  0  0  0  0  0  0  0  0  0
   -4.6608   22.2286  -28.1983 H   0  0  0  0  0  0  0  0  0  0  0  0
   -0.3833   22.6033  -29.0145 H   0  0  0  0  0  0  0  0  0  0  0  0
    0.3049   21.5434  -31.1737 H   0  0  0  0  0  0  0  0  0  0  0  0
   -1.2949   17.9182  -33.4704 H   0  0  0  0  0  0  0  0  0  0  0  0
   -2.3306   15.7464  -32.8348 H   0  0  0  0  0  0  0  0  0  0  0  0
   -4.9895   14.9936  -31.7090 H   0  0  0  0  0  0  0  0  0  0  0  0
   -5.9578   15.0167  -33.2218 H   0  0  0  0  0  0  0  0  0  0  0  0
   -4.3087   14.3046  -33.2218 H   0  0  0  0  0  0  0  0  0  0  0  0
   -6.9769   17.6613  -34.5558 H   0  0  0  0  0  0  0  0  0  0  0  0
   -6.8984   16.3459  -33.3158 H   0  0  0  0  0  0  0  0  0  0  0  0
   -7.5080   19.9330  -33.9000 H   0  0  0  0  0  0  0  0  0  0  0  0
   -9.4264   20.7725  -32.5415 H   0  0  0  0  0  0  0  0  0  0  0  0
   -8.7117   19.9335  -31.1154 H   0  0  0  0  0  0  0  0  0  0  0  0
   -8.7140   22.0944  -29.8519 H   0  0  0  0  0  0  0  0  0  0  0  0
   -7.3894   24.1446  -29.3384 H   0  0  0  0  0  0  0  0  0  0  0  0
   -5.5783   26.0089  -31.6310 H   0  0  0  0  0  0  0  0  0  0  0  0
   -5.7023   25.6604  -29.8689 H   0  0  0  0  0  0  0  0  0  0  0  0
   -3.7640   24.4480  -29.9040 H   0  0  0  0  0  0  0  0  0  0  0  0
   -3.7700   24.2620  -31.5740 H   0  0  0  0  0  0  0  0  0  0  0  0
   -5.1822   23.6458  -33.0330 H   0  0  0  0  0  0  0  0  0  0  0  0
   -6.5030   21.5924  -33.5436 H   0  0  0  0  0  0  0  0  0  0  0  0
   -3.8209   21.6305  -32.4786 H   0  0  0  0  0  0  0  0  0  0  0  0
  1  2  1  0
  2  3  1  0
  3  4  2  0
  4  5  1  0
  5  6  2  0
  6  7  1  0
  7  8  2  0
  7  9  2  0
  7 10  1  0
 10 11  1  0
 11 12  2  0
 12 13  1  0
 13 14  2  0
 14 15  1  0
 14 16  1  0
 16 17  1  0
 17 18  1  0
 18 19  2  0
 18 20  1  0
 20 21  1  0
 21 22  1  0
 22 23  2  0
 23 24  1  0
 24 25  2  0
 25 26  1  0
 26 27  1  0
 25 28  1  0
 28 29  2  0
 16 30  1  0
 30 31  2  0
  6 32  1  0
 32 33  2  0
 33  3  1  0
 30 11  1  0
 29 22  1  0
  1 34  1  0
  1 35  1  0
  1 36  1  0
  4 37  1  0
  5 38  1  0
 12 39  1  0
 13 40  1  0
 15 41  1  0
 15 42  1  0
 15 43  1  0
 17 44  1  0
 17 45  1  0
 20 46  1  0
 21 47  1  0
 21 48  1  0
 23 49  1  0
 24 50  1  0
 26 51  1  0
 26 52  1  0
 27 53  1  0
 27 54  1  0
 28 55  1  0
 29 56  1  0
 32 57  1  0
M  CHG  1  10  -1
M  END
>  <UniqueID>  (1) 
1

>  <SMILES>  (1) 
COc1ccc(S(=O)(=O)[N-]c2ccc(C)n(CC(=O)NCc3ccc(CN)cc3)c2=O)cn1

>  <Energy>  (1) 
62.08317625933819

>  <Genealogy>  (1) 
COc1ccc(S(=O)(=O)[N-]c2ccc(C)n(CC(=O)NCc3ccc(CN)cc3)c2=O)cn1 (protonated)
COc1ccc(S(=O)(=O)[N-]c2ccc(C)n(CC(=O)NCc3ccc(CN)cc3)c2=O)cn1 (3D coordinates assigned)
COc1ccc(S(=O)(=O)[N-]c2ccc(C)n(CC(=O)NCc3ccc(CN)cc3)c2=O)cn1 (optimized conformer: 62.08317625933819 kcal/mol)

>  <smiles>  (1) 
COc1ccc(S(=O)(=O)Nc2ccc(C)n(CC(=O)NCc3ccc(CN)cc3)c2=O)cn1

>  <score_type>  (1) 
oracle

>  <origin>  (1) 
adgpu

>  <m_score__min__energy>  (1) 
-8.9499999999999993

>  <m_primary>  (1) 
energy

$$$$
1:0
     RDKit          3D

 26 28  0  0  0  0  0  0  0  0999 V2000
   -3.8730   25.6670  -30.7010 O   0  0  0  0  0  0  0  0  0  0  0  0
   -3.3800   24.5240  -30.0820 C   0  0  0  0  0  0  0  0  0  0  0  0
   -4.0460   23.3050  -30.2410 C   0  0  0  0  0  0  0  0  0  0  0  0
   -3.5570   22.1510  -29.6220 C   0  0  0  0  0  0  0  0  0  0  0  0
   -2.3920   22.2070  -28.8360 C   0  0  0  0  0  0  0  0  0  0  0  0
   -1.8680   20.9940  -28.1790 C   0  0  0  0  0  0  0  0  0  0  0  0
   -2.4990   20.3270  -27.1910 N   0  0  0  0  0  0  0  0  0  0  0  0
   -1.7190   19.3070  -26.8710 N   0  0  0  0  0  0  0  0  0  0  0  0
   -0.6400   19.3890  -27.6740 C   0  0  0  0  0  0  0  0  0  0  0  0
    0.4820   18.4420  -27.6460 C   0  0  0  0  0  0  0  0  0  0  0  0
    0.2620   17.0710  -27.4450 C   0  0  0  0  0  0  0  0  0  0  0  0
    1.3510   16.1970  -27.4240 C   0  0  0  0  0  0  0  0  0  0  0  0
    2.6430   16.6930  -27.6030 C   0  0  0  0  0  0  0  0  0  0  0  0
    2.8270   18.0640  -27.8010 C   0  0  0  0  0  0  0  0  0  0  0  0
    1.7540   18.9000  -27.8190 N   0  0  0  0  0  0  0  0  0  0  0  0
   -0.7260   20.4220  -28.4790 O   0  0  0  0  0  0  0  0  0  0  0  0
   -1.7280   23.4360  -28.6810 C   0  0  0  0  0  0  0  0  0  0  0  0
   -2.2200   24.5900  -29.3010 C   0  0  0  0  0  0  0  0  0  0  0  0
   -1.5540   25.7990  -29.1390 O   0  0  0  0  0  0  0  0  0  0  0  0
   -4.9573   23.2539  -30.8549 H   0  0  0  0  0  0  0  0  0  0  0  0
   -4.0857   21.1949  -29.7502 H   0  0  0  0  0  0  0  0  0  0  0  0
   -0.7596   16.6878  -27.3051 H   0  0  0  0  0  0  0  0  0  0  0  0
    1.1907   15.1202  -27.2667 H   0  0  0  0  0  0  0  0  0  0  0  0
    3.5070   16.0123  -27.5884 H   0  0  0  0  0  0  0  0  0  0  0  0
    3.8405   18.4676  -27.9424 H   0  0  0  0  0  0  0  0  0  0  0  0
   -0.8159   23.4911  -28.0685 H   0  0  0  0  0  0  0  0  0  0  0  0
  1  2  1  0
  2  3  2  0
  3  4  1  0
  4  5  2  0
  5  6  1  0
  6  7  2  0
  7  8  1  0
  8  9  2  0
  9 10  1  0
 10 11  2  0
 11 12  1  0
 12 13  2  0
 13 14  1  0
 14 15  2  0
  9 16  1  0
  5 17  1  0
 17 18  2  0
 18 19  1  0
 18  2  1  0
 16  6  1  0
 15 10  1  0
  3 20  1  0
  4 21  1  0
 11 22  1  0
 12 23  1  0
 13 24  1  0
 14 25  1  0
 17 26  1  0
M  CHG  2   1  -1  19  -1
M  END
>  <UniqueID>  (2) 
2

>  <SMILES>  (2) 
[O-]c1ccc(-c2nnc(-c3ccccn3)o2)cc1[O-]

>  <Energy>  (2) 
64.18378006942261

>  <Genealogy>  (2) 
[O-]c1ccc(-c2nnc(-c3ccccn3)o2)cc1[O-] (protonated)
[O-]c1ccc(-c2nnc(-c3ccccn3)o2)cc1[O-] (3D coordinates assigned)
[O-]c1ccc(-c2nnc(-c3ccccn3)o2)cc1[O-] (optimized conformer: 64.18378006942261 kcal/mol)

>  <smiles>  (2) 
Oc1ccc(-c2nnc(-c3ccccn3)o2)cc1O

>  <score_type>  (2) 
oracle

>  <origin>  (2) 
adgpu

>  <m_score__min__energy>  (2) 
-11.789999999999999

>  <m_primary>  (2) 
energy

$$$$
2:0
     RDKit          3D

 33 34  0  0  0  0  0  0  0  0999 V2000
   -2.5300   19.2860  -26.8910 C   0  0  0  0  0  0  0  0  0  0  0  0
   -1.6380   20.4510  -26.4760 C   0  0  0  0  0  0  0  0  0  0  0  0
   -1.0750   21.0900  -27.6220 O   0  0  0  0  0  0  0  0  0  0  0  0
   -1.6450   22.1660  -28.3220 C   0  0  0  0  0  0  0  0  0  0  0  0
   -1.1180   23.4710  -28.2750 C   0  0  0  0  0  0  0  0  0  0  0  0
   -1.7390   24.5040  -28.9790 C   0  0  0  0  0  0  0  0  0  0  0  0
   -2.8830   24.2540  -29.7420 C   0  0  0  0  0  0  0  0  0  0  0  0
   -3.4810   25.3000  -30.4350 O   0  0  0  0  0  0  0  0  0  0  0  0
   -3.4140   22.9540  -29.8110 C   0  0  0  0  0  0  0  0  0  0  0  0
   -4.6090   22.7070  -30.5750 N   0  0  0  0  0  0  0  0  0  0  0  0
   -4.8860   21.4570  -31.2310 C   0  0  0  0  0  0  0  0  0  0  0  0
   -3.9360   20.6710  -31.5010 O   0  0  0  0  0  0  0  0  0  0  0  0
   -6.2660   21.1020  -31.6400 C   0  0  0  0  0  0  0  0  0  0  0  0
   -7.3540   21.9380  -31.3210 C   0  0  0  0  0  0  0  0  0  0  0  0
   -8.6530   21.5880  -31.7060 C   0  0  0  0  0  0  0  0  0  0  0  0
   -8.8810   20.4020  -32.4080 C   0  0  0  0  0  0  0  0  0  0  0  0
  -10.1410   20.0650  -32.7780 F   0  0  0  0  0  0  0  0  0  0  0  0
   -7.8120   19.5600  -32.7210 C   0  0  0  0  0  0  0  0  0  0  0  0
   -6.5120   19.9040  -32.3380 C   0  0  0  0  0  0  0  0  0  0  0  0
   -2.7950   21.9220  -29.0830 C   0  0  0  0  0  0  0  0  0  0  0  0
   -2.9161   18.7818  -25.9928 H   0  0  0  0  0  0  0  0  0  0  0  0
   -3.3718   19.6639  -27.4898 H   0  0  0  0  0  0  0  0  0  0  0  0
   -1.9456   18.5719  -27.4898 H   0  0  0  0  0  0  0  0  0  0  0  0
   -2.2374   21.1818  -25.9133 H   0  0  0  0  0  0  0  0  0  0  0  0
   -0.8204   20.0643  -25.8499 H   0  0  0  0  0  0  0  0  0  0  0  0
   -0.2147   23.6769  -27.6820 H   0  0  0  0  0  0  0  0  0  0  0  0
   -1.3251   25.5221  -28.9330 H   0  0  0  0  0  0  0  0  0  0  0  0
   -5.2570   23.5070  -30.7500 H   0  0  0  0  0  0  0  0  0  0  0  0
   -7.1814   22.8718  -30.7658 H   0  0  0  0  0  0  0  0  0  0  0  0
   -9.4964   22.2482  -31.4553 H   0  0  0  0  0  0  0  0  0  0  0  0
   -7.9930   18.6241  -33.2700 H   0  0  0  0  0  0  0  0  0  0  0  0
   -5.6751   19.2337  -32.5838 H   0  0  0  0  0  0  0  0  0  0  0  0
   -3.2205   20.9081  -29.1118 H   0  0  0  0  0  0  0  0  0  0  0  0
  1  2  1  0
  2  3  1  0
  3  4  1  0
  4  5  2  0
  5  6  1  0
  6  7  2  0
  7  8  1  0
  7  9  1  0
  9 10  1  0
 10 11  1  0
 11 12  2  0
 11 13  1  0
 13 14  2  0
 14 15  1  0
 15 16  2  0
 16 17  1  0
 16 18  1  0
 18 19  2  0
  9 20  2  0
 20  4  1  0
 19 13  1  0
  1 21  1  0
  1 22  1  0
  1 23  1  0
  2 24  1  0
  2 25  1  0
  5 26  1  0
  6 27  1  0
 10 28  1  0
 14 29  1  0
 15 30  1  0
 18 31  1  0
 19 32  1  0
 20 33  1  0
M  CHG  1   8  -1
M  END
>  <UniqueID>  (3) 
3

>  <SMILES>  (3) 
CCOc1ccc([O-])c(NC(=O)c2ccc(F)cc2)c1

>  <Energy>  (3) 
37.78021598119089

>  <Genealogy>  (3) 
CCOc1ccc([O-])c(NC(=O)c2ccc(F)cc2)c1 (protonated)
CCOc1ccc([O-])c(NC(=O)c2ccc(F)cc2)c1 (3D coordinates assigned)
CCOc1ccc([O-])c(NC(=O)c2ccc(F)cc2)c1 (optimized conformer: 37.78021598119089 kcal/mol)

>  <smiles>  (3) 
CCOc1ccc(O)c(NC(=O)c2ccc(F)cc2)c1

>  <score_type>  (3) 
oracle

>  <origin>  (3) 
adgpu

>  <m_score__min__energy>  (3) 
-9.9299999999999997

>  <m_primary>  (3) 
energy

$$$$
3:0
     RDKit          3D

 49 51  0  0  0  0  0  0  0  0999 V2000
    0.2500   18.4860  -29.4110 C   0  0  0  0  0  0  0  0  0  0  0  0
   -0.2960   19.3720  -30.3830 O   0  0  0  0  0  0  0  0  0  0  0  0
   -1.0700   20.5050  -30.0850 C   0  0  0  0  0  0  0  0  0  0  0  0
   -1.2840   20.9320  -28.7600 C   0  0  0  0  0  0  0  0  0  0  0  0
   -2.0590   22.0640  -28.4960 C   0  0  0  0  0  0  0  0  0  0  0  0
   -2.6240   22.7970  -29.5510 C   0  0  0  0  0  0  0  0  0  0  0  0
   -3.4470   23.9510  -29.3210 N   0  0  0  0  0  0  0  0  0  0  0  0
   -4.2920   24.6040  -30.2790 C   0  0  0  0  0  0  0  0  0  0  0  0
   -3.9130   25.6710  -30.8330 O   0  0  0  0  0  0  0  0  0  0  0  0
   -5.5890   23.9970  -30.6590 C   0  0  0  0  0  0  0  0  0  0  0  0
   -6.3260   23.2380  -29.7340 C   0  0  0  0  0  0  0  0  0  0  0  0
   -7.5470   22.6700  -30.1050 C   0  0  0  0  0  0  0  0  0  0  0  0
   -8.0250   22.8640  -31.4030 C   0  0  0  0  0  0  0  0  0  0  0  0
   -9.1240   22.3590  -31.7540 O   0  0  0  0  0  0  0  0  0  0  0  0
   -7.3040   23.5990  -32.2890 N   0  0  0  0  0  0  0  0  0  0  0  0
   -6.1130   24.1630  -31.9540 C   0  0  0  0  0  0  0  0  0  0  0  0
   -2.4340   22.3610  -30.8670 C   0  0  0  0  0  0  0  0  0  0  0  0
   -1.6540   21.2280  -31.1410 C   0  0  0  0  0  0  0  0  0  0  0  0
   -1.4050   20.7110  -32.8090 S   0  0  0  0  0  0  0  0  0  0  0  0
   -0.3180   21.5550  -33.4150 O   0  0  0  0  0  0  0  0  0  0  0  0
   -1.0020   19.2640  -32.8600 O   0  0  0  0  0  0  0  0  0  0  0  0
   -2.8860   20.9210  -33.6890 N   0  0  0  0  0  0  0  0  0  0  0  0
   -4.1180   20.2810  -33.3100 C   0  0  0  0  0  0  0  0  0  0  0  0
   -5.0910   20.9920  -32.5850 C   0  0  0  0  0  0  0  0  0  0  0  0
   -6.2990   20.3890  -32.2320 C   0  0  0  0  0  0  0  0  0  0  0  0
   -6.5700   19.0700  -32.6140 C   0  0  0  0  0  0  0  0  0  0  0  0
   -7.8540   18.4120  -32.2040 C   0  0  0  0  0  0  0  0  0  0  0  0
   -5.6030   18.3470  -33.3250 C   0  0  0  0  0  0  0  0  0  0  0  0
   -4.3780   18.9390  -33.6800 C   0  0  0  0  0  0  0  0  0  0  0  0
   -3.3650   18.1300  -34.4440 C   0  0  0  0  0  0  0  0  0  0  0  0
    0.0192   18.8605  -28.4028 H   0  0  0  0  0  0  0  0  0  0  0  0
   -0.1883   17.4854  -29.5397 H   0  0  0  0  0  0  0  0  0  0  0  0
    1.3409   18.4277  -29.5397 H   0  0  0  0  0  0  0  0  0  0  0  0
   -0.8375   20.3698  -27.9266 H   0  0  0  0  0  0  0  0  0  0  0  0
   -2.2271   22.3822  -27.4565 H   0  0  0  0  0  0  0  0  0  0  0  0
   -5.9401   23.0907  -28.7145 H   0  0  0  0  0  0  0  0  0  0  0  0
   -8.1260   22.0761  -29.3825 H   0  0  0  0  0  0  0  0  0  0  0  0
   -5.5569   24.7515  -32.6986 H   0  0  0  0  0  0  0  0  0  0  0  0
   -2.9015   22.9129  -31.6957 H   0  0  0  0  0  0  0  0  0  0  0  0
   -2.8290   21.4590  -34.5810 H   0  0  0  0  0  0  0  0  0  0  0  0
   -4.8977   22.0348  -32.2930 H   0  0  0  0  0  0  0  0  0  0  0  0
   -7.0425   20.9535  -31.6502 H   0  0  0  0  0  0  0  0  0  0  0  0
   -7.9156   18.3804  -31.1062 H   0  0  0  0  0  0  0  0  0  0  0  0
   -8.7036   18.9858  -32.6026 H   0  0  0  0  0  0  0  0  0  0  0  0
   -7.8844   17.3872  -32.6026 H   0  0  0  0  0  0  0  0  0  0  0  0
   -5.8046   17.3036  -33.6089 H   0  0  0  0  0  0  0  0  0  0  0  0
   -2.7067   17.6043  -33.7367 H   0  0  0  0  0  0  0  0  0  0  0  0
   -3.8844   17.3954  -35.0769 H   0  0  0  0  0  0  0  0  0  0  0  0
   -2.7634   18.7990  -35.0769 H   0  0  0  0  0  0  0  0  0  0  0  0
  1  2  1  0
  2  3  1  0
  3  4  2  0
  4  5  1  0
  5  6  2  0
  6  7  1  0
  7  8  1  0
  8  9  2  0
  8 10  1  0
 10 11  1  0
 11 12  2  0
 12 13  1  0
 13 14  2  0
 13 15  1  0
 15 16  1  0
  6 17  1  0
 17 18  2  0
 18 19  1  0
 19 20  2  0
 19 21  2  0
 19 22  1  0
 22 23  1  0
 23 24  2  0
 24 25  1  0
 25 26  2  0
 26 27  1  0
 26 28  1  0
 28 29  2  0
 29 30  1  0
 18  3  1  0
 29 23  1  0
 16 10  2  0
  1 31  1  0
  1 32  1  0
  1 33  1  0
  4 34  1  0
  5 35  1  0
 11 36  1  0
 12 37  1  0
 16 38  1  0
 17 39  1  0
 22 40  1  0
 24 41  1  0
 25 42  1  0
 27 43  1  0
 27 44  1  0
 27 45  1  0
 28 46  1  0
 30 47  1  0
 30 48  1  0
 30 49  1  0
M  CHG  2   7  -1  15  -1
M  END
>  <UniqueID>  (4) 
4

>  <SMILES>  (4) 
COc1ccc([N-]C(=O)c2ccc(=O)[n-]c2)cc1S(=O)(=O)Nc1ccc(C)cc1C

>  <Energy>  (4) 
60.17485816450473

>  <Genealogy>  (4) 
COc1ccc([N-]C(=O)c2ccc(=O)[n-]c2)cc1S(=O)(=O)Nc1ccc(C)cc1C (protonated)
COc1ccc([N-]C(=O)c2ccc(=O)[n-]c2)cc1S(=O)(=O)Nc1ccc(C)cc1C (3D coordinates assigned)
COc1ccc([N-]C(=O)c2ccc(=O)[n-]c2)cc1S(=O)(=O)Nc1ccc(C)cc1C (optimized conformer: 60.17485816450473 kcal/mol)

>  <smiles>  (4) 
COc1ccc(NC(=O)c2ccc(=O)[nH]c2)cc1S(=O)(=O)Nc1ccc(C)cc1C

>  <score_type>  (4) 
oracle

>  <origin>  (4) 
adgpu

>  <m_score__min__energy>  (4) 
-11.06

>  <m_primary>  (4) 
energy

$$$$
4:0
     RDKit          3D

 45 48  0  0  0  0  0  0  0  0999 V2000
   -3.2550   21.4060  -30.7280 C   0  0  0  0  0  0  0  0  0  0  0  0
   -4.5240   22.0920  -30.9730 N   0  0  0  0  0  0  0  0  0  0  0  0
   -4.7860   23.4270  -30.9280 C   0  0  0  0  0  0  0  0  0  0  0  0
   -3.8620   24.4030  -30.5400 O   0  0  0  0  0  0  0  0  0  0  0  0
   -3.3680   24.5550  -29.2370 C   0  0  0  0  0  0  0  0  0  0  0  0
   -4.2490   24.3870  -28.1610 C   0  0  0  0  0  0  0  0  0  0  0  0
   -3.7940   24.5260  -26.8460 C   0  0  0  0  0  0  0  0  0  0  0  0
   -2.4510   24.8250  -26.5970 C   0  0  0  0  0  0  0  0  0  0  0  0
   -1.5610   24.9800  -27.6630 C   0  0  0  0  0  0  0  0  0  0  0  0
   -2.0130   24.8420  -28.9790 C   0  0  0  0  0  0  0  0  0  0  0  0
   -6.0450   23.7490  -31.3200 N   0  0  0  0  0  0  0  0  0  0  0  0
   -6.5860   22.5440  -31.5880 C   0  0  0  0  0  0  0  0  0  0  0  0
   -5.6880   21.5520  -31.3800 C   0  0  0  0  0  0  0  0  0  0  0  0
   -6.0390   20.2290  -31.6120 C   0  0  0  0  0  0  0  0  0  0  0  0
   -5.2100   19.3020  -31.4030 O   0  0  0  0  0  0  0  0  0  0  0  0
   -7.3110   19.9580  -32.0670 N   0  0  0  0  0  0  0  0  0  0  0  0
   -7.6980   18.5650  -32.3700 C   0  0  0  0  0  0  0  0  0  0  0  0
   -6.6390   17.8920  -33.2060 C   0  0  0  0  0  0  0  0  0  0  0  0
   -6.1440   16.6280  -32.8450 C   0  0  0  0  0  0  0  0  0  0  0  0
   -5.1370   16.0210  -33.6030 C   0  0  0  0  0  0  0  0  0  0  0  0
   -4.6170   16.6720  -34.7240 C   0  0  0  0  0  0  0  0  0  0  0  0
   -5.1010   17.9310  -35.0890 C   0  0  0  0  0  0  0  0  0  0  0  0
   -6.1070   18.5410  -34.3340 C   0  0  0  0  0  0  0  0  0  0  0  0
   -8.2070   20.9940  -32.2820 C   0  0  0  0  0  0  0  0  0  0  0  0
   -9.3650   20.7430  -32.7220 O   0  0  0  0  0  0  0  0  0  0  0  0
   -7.8520   22.3000  -32.0220 N   0  0  0  0  0  0  0  0  0  0  0  0
   -8.7860   23.4050  -32.2760 C   0  0  0  0  0  0  0  0  0  0  0  0
   -3.0898   21.3167  -29.6442 H   0  0  0  0  0  0  0  0  0  0  0  0
   -3.2877   20.4027  -31.1778 H   0  0  0  0  0  0  0  0  0  0  0  0
   -2.4335   21.9829  -31.1778 H   0  0  0  0  0  0  0  0  0  0  0  0
   -5.3048   24.1443  -28.3515 H   0  0  0  0  0  0  0  0  0  0  0  0
   -4.4935   24.4000  -26.0065 H   0  0  0  0  0  0  0  0  0  0  0  0
   -2.0952   24.9382  -25.5623 H   0  0  0  0  0  0  0  0  0  0  0  0
   -0.5036   25.2108  -27.4667 H   0  0  0  0  0  0  0  0  0  0  0  0
   -1.3083   24.9579  -29.8156 H   0  0  0  0  0  0  0  0  0  0  0  0
   -7.8218   18.0107  -31.4279 H   0  0  0  0  0  0  0  0  0  0  0  0
   -8.6432   18.5730  -32.9326 H   0  0  0  0  0  0  0  0  0  0  0  0
   -6.5501   16.1129  -31.9620 H   0  0  0  0  0  0  0  0  0  0  0  0
   -4.7545   15.0304  -33.3160 H   0  0  0  0  0  0  0  0  0  0  0  0
   -3.8260   16.1933  -35.3199 H   0  0  0  0  0  0  0  0  0  0  0  0
   -4.6898   18.4428  -35.9716 H   0  0  0  0  0  0  0  0  0  0  0  0
   -6.4840   19.5330  -34.6237 H   0  0  0  0  0  0  0  0  0  0  0  0
   -9.1349   23.8178  -31.3179 H   0  0  0  0  0  0  0  0  0  0  0  0
   -8.2753   24.1921  -32.8501 H   0  0  0  0  0  0  0  0  0  0  0  0
   -9.6472   23.0326  -32.8501 H   0  0  0  0  0  0  0  0  0  0  0  0
  1  2  1  0
  2  3  1  0
  3  4  1  0
  4  5  1  0
  5  6  2  0
  6  7  1  0
  7  8  2  0
  8  9  1  0
  9 10  2  0
  3 11  2  0
 11 12  1  0
 12 13  2  0
 13 14  1  0
 14 15  2  0
 14 16  1  0
 16 17  1  0
 17 18  1  0
 18 19  2  0
 19 20  1  0
 20 21  2  0
 21 22  1  0
 22 23  2  0
 16 24  1  0
 24 25  2  0
 24 26  1  0
 26 27  1  0
 13  2  1  0
 23 18  1  0
 10  5  1  0
 26 12  1  0
  1 28  1  0
  1 29  1  0
  1 30  1  0
  6 31  1  0
  7 32  1  0
  8 33  1  0
  9 34  1  0
 10 35  1  0
 17 36  1  0
 17 37  1  0
 19 38  1  0
 20 39  1  0
 21 40  1  0
 22 41  1  0
 23 42  1  0
 27 43  1  0
 27 44  1  0
 27 45  1  0
M  END
>  <UniqueID>  (5) 
5

>  <SMILES>  (5) 
Cn1c(Oc2ccccc2)nc2c1c(=O)n(Cc1ccccc1)c(=O)n2C

>  <Energy>  (5) 
101.97417551753676

>  <Genealogy>  (5) 
Cn1c(Oc2ccccc2)nc2c1c(=O)n(Cc1ccccc1)c(=O)n2C (3D coordinates assigned)
Cn1c(Oc2ccccc2)nc2c1c(=O)n(Cc1ccccc1)c(=O)n2C (optimized conformer: 101.97417551753676 kcal/mol)

>  <smiles>  (5) 
Cn1c(Oc2ccccc2)nc2c1c(=O)n(Cc1ccccc1)c(=O)n2C

>  <score_type>  (5) 
oracle

>  <origin>  (5) 
adgpu

>  <m_score__min__energy>  (5) 
-8.5099999999999998

>  <m_primary>  (5) 
energy

$$$$
5:0
     RDKit          3D

 42 44  0  0  0  0  0  0  0  0999 V2000
   -5.4190   26.2150  -30.4940 O   0  0  0  0  0  0  0  0  0  0  0  0
   -4.9070   25.0800  -30.6910 C   0  0  0  0  0  0  0  0  0  0  0  0
   -3.4990   24.9160  -30.4770 N   0  0  0  0  0  0  0  0  0  0  0  0
   -2.8730   23.8850  -29.7000 C   0  0  0  0  0  0  0  0  0  0  0  0
   -2.8740   23.9080  -28.2970 C   0  0  0  0  0  0  0  0  0  0  0  0
   -2.2520   22.8820  -27.5840 C   0  0  0  0  0  0  0  0  0  0  0  0
   -1.6590   21.8280  -28.2810 C   0  0  0  0  0  0  0  0  0  0  0  0
   -1.6910   21.8060  -29.6390 N   0  0  0  0  0  0  0  0  0  0  0  0
   -2.2820   22.7990  -30.3540 C   0  0  0  0  0  0  0  0  0  0  0  0
   -5.7780   23.9480  -31.0830 C   0  0  0  0  0  0  0  0  0  0  0  0
   -7.1350   23.9260  -30.7230 C   0  0  0  0  0  0  0  0  0  0  0  0
   -7.9410   22.8460  -31.0820 C   0  0  0  0  0  0  0  0  0  0  0  0
   -7.4120   21.7830  -31.8190 C   0  0  0  0  0  0  0  0  0  0  0  0
   -8.2140   20.7390  -32.1430 F   0  0  0  0  0  0  0  0  0  0  0  0
   -6.0650   21.8050  -32.2130 C   0  0  0  0  0  0  0  0  0  0  0  0
   -5.3760   20.4840  -33.1590 S   0  0  0  0  0  0  0  0  0  0  0  0
   -6.3660   20.0840  -34.2180 O   0  0  0  0  0  0  0  0  0  0  0  0
   -4.1020   20.9340  -33.8170 O   0  0  0  0  0  0  0  0  0  0  0  0
   -5.0360   19.1210  -32.1180 N   0  0  0  0  0  0  0  0  0  0  0  0
   -4.0470   18.2090  -32.7450 C   0  0  0  0  0  0  0  0  0  0  0  0
   -4.6880   16.9540  -33.3520 C   0  0  0  0  0  0  0  0  0  0  0  0
   -5.4540   16.1540  -32.2860 C   0  0  0  0  0  0  0  0  0  0  0  0
   -6.0630   17.0500  -31.1930 C   0  0  0  0  0  0  0  0  0  0  0  0
   -6.3030   18.4720  -31.7120 C   0  0  0  0  0  0  0  0  0  0  0  0
   -5.2550   22.8860  -31.8390 C   0  0  0  0  0  0  0  0  0  0  0  0
   -3.3642   24.7334  -27.7599 H   0  0  0  0  0  0  0  0  0  0  0  0
   -2.2293   22.9037  -26.4844 H   0  0  0  0  0  0  0  0  0  0  0  0
   -1.1651   21.0141  -27.7300 H   0  0  0  0  0  0  0  0  0  0  0  0
   -2.2957   22.7485  -31.4528 H   0  0  0  0  0  0  0  0  0  0  0  0
   -7.5644   24.7646  -30.1551 H   0  0  0  0  0  0  0  0  0  0  0  0
   -8.9995   22.8308  -30.7832 H   0  0  0  0  0  0  0  0  0  0  0  0
   -3.5230   18.7556  -33.5429 H   0  0  0  0  0  0  0  0  0  0  0  0
   -3.3587   17.8766  -31.9539 H   0  0  0  0  0  0  0  0  0  0  0  0
   -5.3869   17.2556  -34.1461 H   0  0  0  0  0  0  0  0  0  0  0  0
   -3.8901   16.3168  -33.7612 H   0  0  0  0  0  0  0  0  0  0  0  0
   -6.2660   15.5991  -32.7787 H   0  0  0  0  0  0  0  0  0  0  0  0
   -4.7358   15.4781  -31.7988 H   0  0  0  0  0  0  0  0  0  0  0  0
   -7.0221   16.6195  -30.8693 H   0  0  0  0  0  0  0  0  0  0  0  0
   -5.3570   17.1011  -30.3510 H   0  0  0  0  0  0  0  0  0  0  0  0
   -6.9762   18.4268  -32.5808 H   0  0  0  0  0  0  0  0  0  0  0  0
   -6.7508   19.0650  -30.9010 H   0  0  0  0  0  0  0  0  0  0  0  0
   -4.1974   22.9029  -32.1411 H   0  0  0  0  0  0  0  0  0  0  0  0
  1  2  2  0
  2  3  1  0
  3  4  1  0
  4  5  2  0
  5  6  1  0
  6  7  2  0
  7  8  1  0
  8  9  2  0
  2 10  1  0
 10 11  2  0
 11 12  1  0
 12 13  2  0
 13 14  1  0
 13 15  1  0
 15 16  1  0
 16 17  2  0
 16 18  2  0
 16 19  1  0
 19 20  1  0
 20 21  1  0
 21 22  1  0
 22 23  1  0
 23 24  1  0
 15 25  2  0
  9  4  1  0
 25 10  1  0
 24 19  1  0
  5 26  1  0
  6 27  1  0
  7 28  1  0
  9 29  1  0
 11 30  1  0
 12 31  1  0
 20 32  1  0
 20 33  1  0
 21 34  1  0
 21 35  1  0
 22 36  1  0
 22 37  1  0
 23 38  1  0
 23 39  1  0
 24 40  1  0
 24 41  1  0
 25 42  1  0
M  CHG  1   3  -1
M  END
>  <UniqueID>  (6) 
6

>  <SMILES>  (6) 
O=C([N-]c1cccnc1)c1ccc(F)c(S(=O)(=O)N2CCCCC2)c1

>  <Energy>  (6) 
56.95641100943611

>  <Genealogy>  (6) 
O=C([N-]c1cccnc1)c1ccc(F)c(S(=O)(=O)N2CCCCC2)c1 (protonated)
O=C([N-]c1cccnc1)c1ccc(F)c(S(=O)(=O)N2CCCCC2)c1 (3D coordinates assigned)
O=C([N-]c1cccnc1)c1ccc(F)c(S(=O)(=O)N2CCCCC2)c1 (nonaromatic ring conformer: 56.95641100943611 kcal/mol)

>  <smiles>  (6) 
O=C(Nc1cccnc1)c1ccc(F)c(S(=O)(=O)N2CCCCC2)c1

>  <score_type>  (6) 
oracle

>  <origin>  (6) 
adgpu

>  <m_score__min__energy>  (6) 
-10.279999999999999

>  <m_primary>  (6) 
energy

$$$$
6:0
     RDKit          3D

 35 36  0  0  0  0  0  0  0  0999 V2000
   -4.0190   20.2862  -33.4143 H   0  0  0  0  0  0  0  0  0  0  0  0
   -4.8380   20.7920  -32.8820 C   0  0  0  0  0  0  0  0  0  0  0  0
   -4.5630   21.8960  -32.0710 C   0  0  0  0  0  0  0  0  0  0  0  0
   -3.5267   22.2468  -31.9566 H   0  0  0  0  0  0  0  0  0  0  0  0
   -5.6010   22.5580  -31.4030 C   0  0  0  0  0  0  0  0  0  0  0  0
   -5.2460   23.9380  -30.3680 S   0  0  0  0  0  0  0  0  0  0  0  0
   -6.5130   24.4210  -29.7160 O   0  0  0  0  0  0  0  0  0  0  0  0
   -4.6630   25.0490  -31.1970 O   0  0  0  0  0  0  0  0  0  0  0  0
   -4.1110   23.4500  -29.1550 N   0  0  0  0  0  0  0  0  0  0  0  0
   -3.0560   24.1470  -28.8690 C   0  0  0  0  0  0  0  0  0  0  0  0
   -2.7250   25.2770  -29.4510 O   0  0  0  0  0  0  0  0  0  0  0  0
   -1.6020   25.7290  -28.9680 N   0  0  0  0  0  0  0  0  0  0  0  0
   -1.1900   24.8480  -28.0310 C   0  0  0  0  0  0  0  0  0  0  0  0
    0.0740   24.9920  -27.2490 C   0  0  0  0  0  0  0  0  0  0  0  0
   -0.1552   24.9659  -26.1735 H   0  0  0  0  0  0  0  0  0  0  0  0
    0.7558   24.1657  -27.4987 H   0  0  0  0  0  0  0  0  0  0  0  0
    0.5525   25.9505  -27.4987 H   0  0  0  0  0  0  0  0  0  0  0  0
   -2.1110   23.8210  -27.9250 C   0  0  0  0  0  0  0  0  0  0  0  0
   -2.0270   22.5830  -27.0880 C   0  0  0  0  0  0  0  0  0  0  0  0
   -2.0457   22.8583  -26.0232 H   0  0  0  0  0  0  0  0  0  0  0  0
   -2.8829   21.9296  -27.3128 H   0  0  0  0  0  0  0  0  0  0  0  0
   -1.0907   22.0512  -27.3128 H   0  0  0  0  0  0  0  0  0  0  0  0
   -6.9180   22.1050  -31.5510 C   0  0  0  0  0  0  0  0  0  0  0  0
   -7.7368   22.6186  -31.0260 H   0  0  0  0  0  0  0  0  0  0  0  0
   -7.1950   21.0020  -32.3640 C   0  0  0  0  0  0  0  0  0  0  0  0
   -8.2341   20.6634  -32.4893 H   0  0  0  0  0  0  0  0  0  0  0  0
   -6.1580   20.3240  -33.0210 C   0  0  0  0  0  0  0  0  0  0  0  0
   -6.4730   19.2050  -33.8680 N   0  0  0  0  0  0  0  0  0  0  0  0
   -6.9170   19.4000  -34.7940 H   0  0  0  0  0  0  0  0  0  0  0  0
   -6.3200   17.8310  -33.4790 C   0  0  0  0  0  0  0  0  0  0  0  0
   -6.1300   17.5220  -32.2720 O   0  0  0  0  0  0  0  0  0  0  0  0
   -6.4840   16.7480  -34.4960 C   0  0  0  0  0  0  0  0  0  0  0  0
   -6.6299   15.7846  -33.9855 H   0  0  0  0  0  0  0  0  0  0  0  0
   -7.3594   16.9656  -35.1255 H   0  0  0  0  0  0  0  0  0  0  0  0
   -5.5834   16.6967  -35.1255 H   0  0  0  0  0  0  0  0  0  0  0  0
  1  2  1  0
  2  3  2  0
  3  4  1  0
  3  5  1  0
  5  6  1  0
  6  7  2  0
  6  8  2  0
  6  9  1  0
  9 10  2  0
 10 11  1  0
 11 12  1  0
 12 13  1  0
 13 14  1  0
 14 15  1  0
 14 16  1  0
 14 17  1  0
 13 18  2  0
 18 19  1  0
 19 20  1  0
 19 21  1  0
 19 22  1  0
  5 23  2  0
 23 24  1  0
 23 25  1  0
 25 26  1  0
 25 27  2  0
 27 28  1  0
 28 29  1  0
 28 30  1  0
 30 31  2  0
 30 32  1  0
 32 33  1  0
 32 34  1  0
 32 35  1  0
 27  2  1  0
 18 10  1  0
M  CHG  1  12  -1
M  END
>  <UniqueID>  (7) 
7

>  <SMILES>  (7) 
CC(=O)Nc1ccc(S(=O)(=O)/N=c2\o[n-]c(C)c2C)cc1

>  <Energy>  (7) 
69.55001751167846

>  <Genealogy>  (7) 
CC(=O)Nc1ccc(S(=O)(=O)N=c2o[n-]c(C)c2C)cc1 (protonated)
CC(=O)Nc1ccc(S(=O)(=O)/N=c2\o[n-]c(C)c2C)cc1 (cis-trans isomerization)
CC(=O)Nc1ccc(S(=O)(=O)/N=c2\o[n-]c(C)c2C)cc1 (3D coordinates assigned)
CC(=O)Nc1ccc(S(=O)(=O)/N=c2\o[n-]c(C)c2C)cc1 (optimized conformer: 69.55001751167846 kcal/mol)

>  <smiles>  (7) 
CC(=O)Nc1ccc(S(=O)(=O)N=c2o[nH]c(C)c2C)cc1

>  <score_type>  (7) 
oracle

>  <origin>  (7) 
adgpu

>  <m_score__min__energy>  (7) 
-11.210000000000001

>  <m_primary>  (7) 
energy

$$$$
7:0
     RDKit          3D

 41 42  0  0  0  0  0  0  0  0999 V2000
   -2.0680   22.8710  -27.6160 C   0  0  0  0  0  0  0  0  0  0  0  0
   -1.1150   23.5340  -28.6090 C   0  0  0  0  0  0  0  0  0  0  0  0
   -1.3780   23.0840  -29.9780 N   0  0  0  0  0  0  0  0  0  0  0  0
   -2.6860   23.0980  -30.5800 C   0  0  0  0  0  0  0  0  0  0  0  0
   -3.5680   24.1810  -30.4000 C   0  0  0  0  0  0  0  0  0  0  0  0
   -3.1120   25.2830  -29.6670 O   0  0  0  0  0  0  0  0  0  0  0  0
   -4.8390   24.1520  -30.9410 N   0  0  0  0  0  0  0  0  0  0  0  0
   -5.7190   25.3150  -30.7250 C   0  0  0  0  0  0  0  0  0  0  0  0
   -5.2620   23.0440  -31.6540 C   0  0  0  0  0  0  0  0  0  0  0  0
   -6.6920   22.8640  -32.1300 C   0  0  0  0  0  0  0  0  0  0  0  0
   -7.6400   21.7450  -31.0310 S   0  0  0  0  0  0  0  0  0  0  0  0
   -7.3370   20.2580  -31.9940 C   0  0  0  0  0  0  0  0  0  0  0  0
   -7.8590   19.0300  -31.5660 C   0  0  0  0  0  0  0  0  0  0  0  0
   -7.5870   17.8640  -32.2860 C   0  0  0  0  0  0  0  0  0  0  0  0
   -6.8100   17.9190  -33.4530 C   0  0  0  0  0  0  0  0  0  0  0  0
   -6.4770   16.6610  -34.1980 C   0  0  0  0  0  0  0  0  0  0  0  0
   -6.2890   19.1520  -33.8780 C   0  0  0  0  0  0  0  0  0  0  0  0
   -6.5600   20.3180  -33.1550 C   0  0  0  0  0  0  0  0  0  0  0  0
   -4.3750   21.9830  -31.8860 C   0  0  0  0  0  0  0  0  0  0  0  0
   -3.0940   22.0110  -31.3540 C   0  0  0  0  0  0  0  0  0  0  0  0
   -2.3190   21.0360  -31.5500 O   0  0  0  0  0  0  0  0  0  0  0  0
   -1.7434   23.0969  -26.5895 H   0  0  0  0  0  0  0  0  0  0  0  0
   -3.0863   23.2567  -27.7717 H   0  0  0  0  0  0  0  0  0  0  0  0
   -2.0605   21.7821  -27.7717 H   0  0  0  0  0  0  0  0  0  0  0  0
   -1.2465   24.6249  -28.5586 H   0  0  0  0  0  0  0  0  0  0  0  0
   -0.0850   23.2543  -28.3426 H   0  0  0  0  0  0  0  0  0  0  0  0
   -0.6250   22.5300  -30.4480 H   0  0  0  0  0  0  0  0  0  0  0  0
   -2.1820   25.6750  -29.7370 H   0  0  0  0  0  0  0  0  0  0  0  0
   -5.8462   25.4831  -29.6454 H   0  0  0  0  0  0  0  0  0  0  0  0
   -5.2675   26.2068  -31.1842 H   0  0  0  0  0  0  0  0  0  0  0  0
   -6.6999   25.1229  -31.1842 H   0  0  0  0  0  0  0  0  0  0  0  0
   -7.1867   23.8463  -32.1502 H   0  0  0  0  0  0  0  0  0  0  0  0
   -6.6641   22.4144  -33.1335 H   0  0  0  0  0  0  0  0  0  0  0  0
   -8.4838   18.9840  -30.6618 H   0  0  0  0  0  0  0  0  0  0  0  0
   -7.9835   16.8992  -31.9367 H   0  0  0  0  0  0  0  0  0  0  0  0
   -6.2637   15.8553  -33.4801 H   0  0  0  0  0  0  0  0  0  0  0  0
   -7.3297   16.3726  -34.8302 H   0  0  0  0  0  0  0  0  0  0  0  0
   -5.5933   16.8323  -34.8302 H   0  0  0  0  0  0  0  0  0  0  0  0
   -5.6655   19.2008  -34.7829 H   0  0  0  0  0  0  0  0  0  0  0  0
   -6.1615   21.2835  -33.5000 H   0  0  0  0  0  0  0  0  0  0  0  0
   -4.6966   21.1239  -32.4931 H   0  0  0  0  0  0  0  0  0  0  0  0
  1  2  1  0
  2  3  1  0
  3  4  1  0
  4  5  2  0
  5  6  1  0
  5  7  1  0
  7  8  1  0
  7  9  1  0
  9 10  1  0
 10 11  1  0
 11 12  1  0
 12 13  2  0
 13 14  1  0
 14 15  2  0
 15 16  1  0
 15 17  1  0
 17 18  2  0
  9 19  2  0
 19 20  1  0
 20 21  2  0
 20  4  1  0
 18 12  1  0
  1 22  1  0
  1 23  1  0
  1 24  1  0
  2 25  1  0
  2 26  1  0
  3 27  1  0
  6 28  1  0
  8 29  1  0
  8 30  1  0
  8 31  1  0
 10 32  1  0
 10 33  1  0
 13 34  1  0
 14 35  1  0
 16 36  1  0
 16 37  1  0
 16 38  1  0
 17 39  1  0
 18 40  1  0
 19 41  1  0
M  END
>  <UniqueID>  (8) 
8

>  <SMILES>  (8) 
CCNc1c(O)n(C)c(CSc2ccc(C)cc2)cc1=O

>  <Energy>  (8) 
43.24690995748246

>  <Genealogy>  (8) 
CCNc1c(O)n(C)c(CSc2ccc(C)cc2)cc1=O (3D coordinates assigned)
CCNc1c(O)n(C)c(CSc2ccc(C)cc2)cc1=O (optimized conformer: 43.24690995748246 kcal/mol)

>  <smiles>  (8) 
CCNc1c(O)n(C)c(CSc2ccc(C)cc2)cc1=O

>  <score_type>  (8) 
oracle

>  <origin>  (8) 
adgpu

>  <m_score__min__energy>  (8) 
-8.1300000000000008

>  <m_primary>  (8) 
energy

$$$$
8:0
     RDKit          3D

 46 48  0  0  0  0  0  0  0  0999 V2000
   -2.9810   24.8850  -29.3400 C   0  0  0  0  0  0  0  0  0  0  0  0
   -3.8650   25.3020  -30.4240 N   0  0  0  0  0  0  0  0  0  0  0  0
   -4.9720   24.0180  -30.8060 S   0  0  0  0  0  0  0  0  0  0  0  0
   -5.9570   24.5050  -31.8310 O   0  0  0  0  0  0  0  0  0  0  0  0
   -5.7290   23.6170  -29.5700 O   0  0  0  0  0  0  0  0  0  0  0  0
   -4.0980   22.6350  -31.4620 C   0  0  0  0  0  0  0  0  0  0  0  0
   -4.4170   22.1530  -32.7380 C   0  0  0  0  0  0  0  0  0  0  0  0
   -3.7140   21.0720  -33.2780 C   0  0  0  0  0  0  0  0  0  0  0  0
   -2.6880   20.4630  -32.5450 C   0  0  0  0  0  0  0  0  0  0  0  0
   -1.7730   19.1250  -33.2310 S   0  0  0  0  0  0  0  0  0  0  0  0
   -1.3800   18.1680  -32.1410 O   0  0  0  0  0  0  0  0  0  0  0  0
   -2.6130   18.3780  -34.2290 O   0  0  0  0  0  0  0  0  0  0  0  0
   -0.3390   19.7640  -34.0240 C   0  0  0  0  0  0  0  0  0  0  0  0
   -0.0360   21.1290  -33.9310 C   0  0  0  0  0  0  0  0  0  0  0  0
    1.1180   21.6380  -34.5350 C   0  0  0  0  0  0  0  0  0  0  0  0
    1.9770   20.7840  -35.2500 C   0  0  0  0  0  0  0  0  0  0  0  0
    3.1860   21.2580  -35.8600 N   0  0  0  0  0  0  0  0  0  0  0  0
    3.3070   22.3470  -36.7860 C   0  0  0  0  0  0  0  0  0  0  0  0
    4.3380   22.4650  -37.5010 O   0  0  0  0  0  0  0  0  0  0  0  0
    2.3120   23.3740  -36.8320 N   0  0  0  0  0  0  0  0  0  0  0  0
    2.4530   24.7100  -36.3300 C   0  0  0  0  0  0  0  0  0  0  0  0
    1.4170   25.6260  -36.5520 C   0  0  0  0  0  0  0  0  0  0  0  0
    1.5090   26.9330  -36.0610 C   0  0  0  0  0  0  0  0  0  0  0  0
    0.2130   28.0760  -36.3590 Cl  0  0  0  0  0  0  0  0  0  0  0  0
    2.6360   27.3280  -35.3310 C   0  0  0  0  0  0  0  0  0  0  0  0
    3.6620   26.4120  -35.0820 C   0  0  0  0  0  0  0  0  0  0  0  0
    5.0620   26.9000  -34.1430 Cl  0  0  0  0  0  0  0  0  0  0  0  0
    3.5700   25.1040  -35.5710 C   0  0  0  0  0  0  0  0  0  0  0  0
    1.6860   19.4160  -35.3130 C   0  0  0  0  0  0  0  0  0  0  0  0
    0.5320   18.9080  -34.7090 C   0  0  0  0  0  0  0  0  0  0  0  0
   -2.3600   20.9530  -31.2730 C   0  0  0  0  0  0  0  0  0  0  0  0
   -3.0620   22.0340  -30.7340 C   0  0  0  0  0  0  0  0  0  0  0  0
   -3.4555   25.1088  -28.3732 H   0  0  0  0  0  0  0  0  0  0  0  0
   -2.7938   23.8036  -29.4149 H   0  0  0  0  0  0  0  0  0  0  0  0
   -2.0274   25.4282  -29.4149 H   0  0  0  0  0  0  0  0  0  0  0  0
   -5.2234   22.6267  -33.3171 H   0  0  0  0  0  0  0  0  0  0  0  0
   -3.9675   20.6989  -34.2813 H   0  0  0  0  0  0  0  0  0  0  0  0
   -0.7088   21.8030  -33.3805 H   0  0  0  0  0  0  0  0  0  0  0  0
    1.3545   22.7090  -34.4507 H   0  0  0  0  0  0  0  0  0  0  0  0
    0.5251   25.3158  -37.1161 H   0  0  0  0  0  0  0  0  0  0  0  0
    2.7142   28.3583  -34.9536 H   0  0  0  0  0  0  0  0  0  0  0  0
    4.3731   24.3822  -35.3614 H   0  0  0  0  0  0  0  0  0  0  0  0
    2.3703   18.7360  -35.8415 H   0  0  0  0  0  0  0  0  0  0  0  0
    0.3077   17.8330  -34.7721 H   0  0  0  0  0  0  0  0  0  0  0  0
   -1.5476   20.4850  -30.6977 H   0  0  0  0  0  0  0  0  0  0  0  0
   -2.8009   22.4145  -29.7355 H   0  0  0  0  0  0  0  0  0  0  0  0
  1  2  1  0
  2  3  1  0
  3  4  2  0
  3  5  2  0
  3  6  1  0
  6  7  2  0
  7  8  1  0
  8  9  2  0
  9 10  1  0
 10 11  2  0
 10 12  2  0
 10 13  1  0
 13 14  2  0
 14 15  1  0
 15 16  2  0
 16 17  1  0
 17 18  1  0
 18 19  2  0
 18 20  1  0
 20 21  1  0
 21 22  2  0
 22 23  1  0
 23 24  1  0
 23 25  2  0
 25 26  1  0
 26 27  1  0
 26 28  2  0
 16 29  1  0
 29 30  2  0
  9 31  1  0
 31 32  2  0
 32  6  1  0
 30 13  1  0
 28 21  1  0
  1 33  1  0
  1 34  1  0
  1 35  1  0
  7 36  1  0
  8 37  1  0
 14 38  1  0
 15 39  1  0
 22 40  1  0
 25 41  1  0
 28 42  1  0
 29 43  1  0
 30 44  1  0
 31 45  1  0
 32 46  1  0
M  CHG  3   2  -1  17  -1  20  -1
M  END
>  <UniqueID>  (9) 
9

>  <SMILES>  (9) 
C[N-]S(=O)(=O)c1ccc(S(=O)(=O)c2ccc([N-]C(=O)[N-]c3cc(Cl)cc(Cl)c3)cc2)cc1

>  <Energy>  (9) 
54.83884825292609

>  <Genealogy>  (9) 
C[N-]S(=O)(=O)c1ccc(S(=O)(=O)c2ccc([N-]C(=O)[N-]c3cc(Cl)cc(Cl)c3)cc2)cc1 (protonated)
C[N-]S(=O)(=O)c1ccc(S(=O)(=O)c2ccc([N-]C(=O)[N-]c3cc(Cl)cc(Cl)c3)cc2)cc1 (3D coordinates assigned)
C[N-]S(=O)(=O)c1ccc(S(=O)(=O)c2ccc([N-]C(=O)[N-]c3cc(Cl)cc(Cl)c3)cc2)cc1 (optimized conformer: 54.83884825292609 kcal/mol)

>  <smiles>  (9) 
CNS(=O)(=O)c1ccc(S(=O)(=O)c2ccc(NC(=O)Nc3cc(Cl)cc(Cl)c3)cc2)cc1

>  <score_type>  (9) 
oracle

>  <origin>  (9) 
adgpu

>  <m_score__min__energy>  (9) 
-13.779999999999999

>  <m_primary>  (9) 
energy

$$$$
9:0
     RDKit          3D

 48 51  0  0  0  0  0  0  0  0999 V2000
   -8.3450   23.4190  -31.9250 C   0  0  0  0  0  0  0  0  0  0  0  0
   -7.0500   22.8930  -31.6510 O   0  0  0  0  0  0  0  0  0  0  0  0
   -6.5570   21.6760  -32.1520 C   0  0  0  0  0  0  0  0  0  0  0  0
   -7.3710   20.8100  -32.9070 C   0  0  0  0  0  0  0  0  0  0  0  0
   -6.8530   19.6280  -33.4360 C   0  0  0  0  0  0  0  0  0  0  0  0
   -5.5100   19.2810  -33.2270 C   0  0  0  0  0  0  0  0  0  0  0  0
   -4.9570   18.0260  -33.7980 C   0  0  0  0  0  0  0  0  0  0  0  0
   -5.6450   16.8090  -33.6640 C   0  0  0  0  0  0  0  0  0  0  0  0
   -5.1140   15.6370  -34.2040 C   0  0  0  0  0  0  0  0  0  0  0  0
   -3.8890   15.6830  -34.8830 C   0  0  0  0  0  0  0  0  0  0  0  0
   -3.3020   14.4350  -35.4750 C   0  0  0  0  0  0  0  0  0  0  0  0
   -2.8490   14.6720  -36.7610 F   0  0  0  0  0  0  0  0  0  0  0  0
   -2.2400   14.0080  -34.6980 F   0  0  0  0  0  0  0  0  0  0  0  0
   -4.2640   13.4440  -35.5150 F   0  0  0  0  0  0  0  0  0  0  0  0
   -3.2370   16.8710  -35.0070 N   0  0  0  0  0  0  0  0  0  0  0  0
   -3.7320   18.0260  -34.4870 C   0  0  0  0  0  0  0  0  0  0  0  0
   -4.6970   20.1380  -32.4660 C   0  0  0  0  0  0  0  0  0  0  0  0
   -5.2100   21.3250  -31.9140 C   0  0  0  0  0  0  0  0  0  0  0  0
   -4.3160   22.1870  -31.1050 C   0  0  0  0  0  0  0  0  0  0  0  0
   -2.9430   22.3670  -31.2840 C   0  0  0  0  0  0  0  0  0  0  0  0
   -2.3610   23.2390  -30.4190 N   0  0  0  0  0  0  0  0  0  0  0  0
   -3.2630   23.7580  -29.5580 C   0  0  0  0  0  0  0  0  0  0  0  0
   -2.9690   24.6160  -28.6310 N   0  0  0  0  0  0  0  0  0  0  0  0
   -1.3640   25.2140  -28.3690 S   0  0  0  0  0  0  0  0  0  0  0  0
   -1.2270   26.5870  -28.9660 O   0  0  0  0  0  0  0  0  0  0  0  0
   -0.3650   24.2950  -29.0150 O   0  0  0  0  0  0  0  0  0  0  0  0
   -1.0600   25.2900  -26.6380 C   0  0  0  0  0  0  0  0  0  0  0  0
   -1.1990   26.5050  -25.9490 C   0  0  0  0  0  0  0  0  0  0  0  0
   -0.9690   26.5610  -24.5710 C   0  0  0  0  0  0  0  0  0  0  0  0
   -0.6070   25.4060  -23.8740 C   0  0  0  0  0  0  0  0  0  0  0  0
   -0.4750   24.1910  -24.5540 C   0  0  0  0  0  0  0  0  0  0  0  0
   -0.1300   23.0680  -23.8750 F   0  0  0  0  0  0  0  0  0  0  0  0
   -0.7040   24.1310  -25.9330 C   0  0  0  0  0  0  0  0  0  0  0  0
   -4.8120   23.1720  -29.8260 S   0  0  0  0  0  0  0  0  0  0  0  0
   -8.8632   23.6295  -30.9778 H   0  0  0  0  0  0  0  0  0  0  0  0
   -8.2480   24.3490  -32.5044 H   0  0  0  0  0  0  0  0  0  0  0  0
   -8.9239   22.6847  -32.5044 H   0  0  0  0  0  0  0  0  0  0  0  0
   -8.4259   21.0682  -33.0814 H   0  0  0  0  0  0  0  0  0  0  0  0
   -7.5033   18.9621  -34.0222 H   0  0  0  0  0  0  0  0  0  0  0  0
   -6.6068   16.7796  -33.1310 H   0  0  0  0  0  0  0  0  0  0  0  0
   -5.6530   14.6840  -34.0975 H   0  0  0  0  0  0  0  0  0  0  0  0
   -3.1710   18.9646  -34.6062 H   0  0  0  0  0  0  0  0  0  0  0  0
   -3.6418   19.8759  -32.2994 H   0  0  0  0  0  0  0  0  0  0  0  0
   -2.3750   21.8424  -32.0664 H   0  0  0  0  0  0  0  0  0  0  0  0
   -1.4895   27.4151  -26.4943 H   0  0  0  0  0  0  0  0  0  0  0  0
   -1.0733   27.5159  -24.0351 H   0  0  0  0  0  0  0  0  0  0  0  0
   -0.4257   25.4520  -22.7900 H   0  0  0  0  0  0  0  0  0  0  0  0
   -0.6047   23.1734  -26.4650 H   0  0  0  0  0  0  0  0  0  0  0  0
  1  2  1  0
  2  3  1  0
  3  4  2  0
  4  5  1  0
  5  6  2  0
  6  7  1  0
  7  8  2  0
  8  9  1  0
  9 10  2  0
 10 11  1  0
 11 12  1  0
 11 13  1  0
 11 14  1  0
 10 15  1  0
 15 16  2  0
  6 17  1  0
 17 18  2  0
 18 19  1  0
 19 20  2  0
 20 21  1  0
 21 22  1  0
 22 23  2  3
 23 24  1  0
 24 25  2  0
 24 26  2  0
 24 27  1  0
 27 28  2  0
 28 29  1  0
 29 30  2  0
 30 31  1  0
 31 32  1  0
 31 33  2  0
 22 34  1  0
 18  3  1  0
 34 19  1  0
 16  7  1  0
 33 27  1  0
  1 35  1  0
  1 36  1  0
  1 37  1  0
  4 38  1  0
  5 39  1  0
  8 40  1  0
  9 41  1  0
 16 42  1  0
 17 43  1  0
 20 44  1  0
 28 45  1  0
 29 46  1  0
 30 47  1  0
 33 48  1  0
M  CHG  1  21  -1
M  END
>  <UniqueID>  (10) 
10

>  <SMILES>  (10) 
COc1ccc(-c2ccc(C(F)(F)F)nc2)cc1-c1c[n-]c(=NS(=O)(=O)c2cccc(F)c2)s1

>  <Energy>  (10) 
96.0996989495086

>  <Genealogy>  (10) 
COc1ccc(-c2ccc(C(F)(F)F)nc2)cc1-c1c[n-]c(=NS(=O)(=O)c2cccc(F)c2)s1 (protonated)
COc1ccc(-c2ccc(C(F)(F)F)nc2)cc1-c1c[n-]c(=NS(=O)(=O)c2cccc(F)c2)s1 (3D coordinates assigned)
COc1ccc(-c2ccc(C(F)(F)F)nc2)cc1-c1c[n-]c(=NS(=O)(=O)c2cccc(F)c2)s1 (optimized conformer: 96.0996989495086 kcal/mol)

>  <smiles>  (10) 
COc1ccc(-c2ccc(C(F)(F)F)nc2)cc1-c1c[nH]c(=NS(=O)(=O)c2cccc(F)c2)s1

>  <score_type>  (10) 
oracle

>  <origin>  (10) 
adgpu

>  <m_score__min__energy>  (10) 
-11.380000000000001

>  <m_primary>  (10) 
energy

$$$$
10:0
     RDKit          3D

 45 47  0  0  0  0  0  0  0  0999 V2000
   -0.8670   25.9160  -23.7000 C   0  0  0  0  0  0  0  0  0  0  0  0
   -1.0640   25.8290  -25.1860 C   0  0  0  0  0  0  0  0  0  0  0  0
   -0.1350   26.4160  -26.0550 C   0  0  0  0  0  0  0  0  0  0  0  0
   -0.3330   26.3610  -27.4360 C   0  0  0  0  0  0  0  0  0  0  0  0
   -1.4690   25.7380  -27.9630 C   0  0  0  0  0  0  0  0  0  0  0  0
   -1.6110   25.6620  -29.3450 O   0  0  0  0  0  0  0  0  0  0  0  0
   -2.4350   25.1780  -27.1000 C   0  0  0  0  0  0  0  0  0  0  0  0
   -3.6620   24.5300  -27.6220 C   0  0  0  0  0  0  0  0  0  0  0  0
   -4.5140   24.0760  -26.8110 O   0  0  0  0  0  0  0  0  0  0  0  0
   -3.9210   24.4770  -29.0340 N   0  0  0  0  0  0  0  0  0  0  0  0
   -4.8540   23.5700  -29.6430 C   0  0  0  0  0  0  0  0  0  0  0  0
   -4.4220   22.5250  -30.4810 C   0  0  0  0  0  0  0  0  0  0  0  0
   -5.3510   21.6670  -31.0760 C   0  0  0  0  0  0  0  0  0  0  0  0
   -6.7220   21.8430  -30.8490 C   0  0  0  0  0  0  0  0  0  0  0  0
   -7.8930   20.7540  -31.5850 S   0  0  0  0  0  0  0  0  0  0  0  0
   -9.2820   21.0300  -31.0840 O   0  0  0  0  0  0  0  0  0  0  0  0
   -7.8700   20.9840  -33.0690 O   0  0  0  0  0  0  0  0  0  0  0  0
   -7.4750   19.0950  -31.2880 N   0  0  0  0  0  0  0  0  0  0  0  0
   -6.6670   18.3090  -31.9410 C   0  0  0  0  0  0  0  0  0  0  0  0
   -6.4950   17.0580  -31.5830 O   0  0  0  0  0  0  0  0  0  0  0  0
   -5.6460   16.4520  -32.3600 N   0  0  0  0  0  0  0  0  0  0  0  0
   -5.2390   17.3510  -33.2750 C   0  0  0  0  0  0  0  0  0  0  0  0
   -4.2330   17.0420  -34.3380 C   0  0  0  0  0  0  0  0  0  0  0  0
   -5.8700   18.5670  -33.0590 C   0  0  0  0  0  0  0  0  0  0  0  0
   -5.6040   19.8350  -33.8140 C   0  0  0  0  0  0  0  0  0  0  0  0
   -7.1580   22.8990  -30.0390 C   0  0  0  0  0  0  0  0  0  0  0  0
   -6.2310   23.7590  -29.4450 C   0  0  0  0  0  0  0  0  0  0  0  0
   -2.2150   25.2250  -25.7110 C   0  0  0  0  0  0  0  0  0  0  0  0
   -1.7578   25.5226  -23.1884 H   0  0  0  0  0  0  0  0  0  0  0  0
    0.0134   25.3230  -23.4115 H   0  0  0  0  0  0  0  0  0  0  0  0
   -0.7123   26.9662  -23.4115 H   0  0  0  0  0  0  0  0  0  0  0  0
    0.7531   26.9217  -25.6481 H   0  0  0  0  0  0  0  0  0  0  0  0
    0.4084   26.8101  -28.1132 H   0  0  0  0  0  0  0  0  0  0  0  0
   -3.4890   25.2150  -29.6360 H   0  0  0  0  0  0  0  0  0  0  0  0
   -3.3475   22.3828  -30.6686 H   0  0  0  0  0  0  0  0  0  0  0  0
   -5.0040   20.8498  -31.7255 H   0  0  0  0  0  0  0  0  0  0  0  0
   -3.2819   16.7499  -33.8689 H   0  0  0  0  0  0  0  0  0  0  0  0
   -4.6024   16.2159  -34.9634 H   0  0  0  0  0  0  0  0  0  0  0  0
   -4.0749   17.9330  -34.9634 H   0  0  0  0  0  0  0  0  0  0  0  0
   -5.4318   20.6561  -33.1026 H   0  0  0  0  0  0  0  0  0  0  0  0
   -4.7135   19.7051  -34.4466 H   0  0  0  0  0  0  0  0  0  0  0  0
   -6.4716   20.0739  -34.4466 H   0  0  0  0  0  0  0  0  0  0  0  0
   -8.2341   23.0518  -29.8699 H   0  0  0  0  0  0  0  0  0  0  0  0
   -6.5828   24.5909  -28.8171 H   0  0  0  0  0  0  0  0  0  0  0  0
   -2.9554   24.7823  -25.0286 H   0  0  0  0  0  0  0  0  0  0  0  0
  1  2  1  0
  2  3  2  0
  3  4  1  0
  4  5  2  0
  5  6  1  0
  5  7  1  0
  7  8  1  0
  8  9  2  0
  8 10  1  0
 10 11  1  0
 11 12  2  0
 12 13  1  0
 13 14  2  0
 14 15  1  0
 15 16  2  0
 15 17  2  0
 15 18  1  0
 18 19  2  3
 19 20  1  0
 20 21  1  0
 21 22  1  0
 22 23  1  0
 22 24  2  0
 24 25  1  0
 14 26  1  0
 26 27  2  0
  7 28  2  0
 28  2  1  0
 27 11  1  0
 24 19  1  0
  1 29  1  0
  1 30  1  0
  1 31  1  0
  3 32  1  0
  4 33  1  0
 10 34  1  0
 12 35  1  0
 13 36  1  0
 23 37  1  0
 23 38  1  0
 23 39  1  0
 25 40  1  0
 25 41  1  0
 25 42  1  0
 26 43  1  0
 27 44  1  0
 28 45  1  0
M  CHG  2   6  -1  21  -1
M  END
>  <UniqueID>  (11) 
11

>  <SMILES>  (11) 
Cc1ccc([O-])c(C(=O)Nc2ccc(S(=O)(=O)N=c3o[n-]c(C)c3C)cc2)c1

>  <Energy>  (11) 
93.30924428604041

>  <Genealogy>  (11) 
Cc1ccc([O-])c(C(=O)Nc2ccc(S(=O)(=O)N=c3o[n-]c(C)c3C)cc2)c1 (protonated)
Cc1ccc([O-])c(C(=O)Nc2ccc(S(=O)(=O)N=c3o[n-]c(C)c3C)cc2)c1 (3D coordinates assigned)
Cc1ccc([O-])c(C(=O)Nc2ccc(S(=O)(=O)N=c3o[n-]c(C)c3C)cc2)c1 (optimized conformer: 93.30924428604041 kcal/mol)

>  <smiles>  (11) 
Cc1ccc(O)c(C(=O)Nc2ccc(S(=O)(=O)N=c3o[nH]c(C)c3C)cc2)c1

>  <score_type>  (11) 
oracle

>  <origin>  (11) 
adgpu

>  <m_score__min__energy>  (11) 
-12.140000000000001

>  <m_primary>  (11) 
energy

$$$$
11:0
     RDKit          3D

 45 47  0  0  0  0  0  0  0  0999 V2000
   -0.4680   20.6370  -34.7150 C   0  0  0  0  0  0  0  0  0  0  0  0
   -1.1810   21.5430  -33.8800 O   0  0  0  0  0  0  0  0  0  0  0  0
   -1.6100   21.2540  -32.5750 C   0  0  0  0  0  0  0  0  0  0  0  0
   -0.8190   21.5560  -31.4480 C   0  0  0  0  0  0  0  0  0  0  0  0
   -1.3000   21.3090  -30.1590 C   0  0  0  0  0  0  0  0  0  0  0  0
   -2.5720   20.7670  -29.9780 C   0  0  0  0  0  0  0  0  0  0  0  0
   -3.3600   20.4500  -31.0860 C   0  0  0  0  0  0  0  0  0  0  0  0
   -2.8780   20.6680  -32.3860 C   0  0  0  0  0  0  0  0  0  0  0  0
   -3.7080   20.3250  -33.5040 N   0  0  0  0  0  0  0  0  0  0  0  0
   -4.5710   18.8210  -33.5770 S   0  0  0  0  0  0  0  0  0  0  0  0
   -4.5970   18.3520  -35.0030 O   0  0  0  0  0  0  0  0  0  0  0  0
   -3.8960   17.7850  -32.7200 O   0  0  0  0  0  0  0  0  0  0  0  0
   -6.2100   19.0520  -32.9720 C   0  0  0  0  0  0  0  0  0  0  0  0
   -6.6260   20.3300  -32.5730 C   0  0  0  0  0  0  0  0  0  0  0  0
   -7.8970   20.5220  -32.0160 C   0  0  0  0  0  0  0  0  0  0  0  0
   -8.3990   22.1170  -31.4590 S   0  0  0  0  0  0  0  0  0  0  0  0
   -9.8150   22.3590  -31.8980 O   0  0  0  0  0  0  0  0  0  0  0  0
   -8.3290   22.1880  -29.9590 O   0  0  0  0  0  0  0  0  0  0  0  0
   -7.3880   23.3590  -32.1310 N   0  0  0  0  0  0  0  0  0  0  0  0
   -6.2080   23.8940  -31.5150 C   0  0  0  0  0  0  0  0  0  0  0  0
   -5.0370   23.1230  -31.5290 C   0  0  0  0  0  0  0  0  0  0  0  0
   -3.8730   23.5910  -30.9120 C   0  0  0  0  0  0  0  0  0  0  0  0
   -3.8720   24.8350  -30.2740 C   0  0  0  0  0  0  0  0  0  0  0  0
   -2.7170   25.2950  -29.6520 O   0  0  0  0  0  0  0  0  0  0  0  0
   -5.0310   25.6140  -30.2620 C   0  0  0  0  0  0  0  0  0  0  0  0
   -6.1960   25.1500  -30.8830 C   0  0  0  0  0  0  0  0  0  0  0  0
   -8.7670   19.4330  -31.8870 C   0  0  0  0  0  0  0  0  0  0  0  0
   -8.3610   18.1590  -32.2930 C   0  0  0  0  0  0  0  0  0  0  0  0
   -7.0840   17.9630  -32.8250 C   0  0  0  0  0  0  0  0  0  0  0  0
   -6.6980   16.7120  -33.1800 F   0  0  0  0  0  0  0  0  0  0  0  0
    0.0919   19.9256  -34.0901 H   0  0  0  0  0  0  0  0  0  0  0  0
   -1.1782   20.0872  -35.3500 H   0  0  0  0  0  0  0  0  0  0  0  0
    0.2333   21.1981  -35.3500 H   0  0  0  0  0  0  0  0  0  0  0  0
    0.1831   21.9888  -31.5838 H   0  0  0  0  0  0  0  0  0  0  0  0
   -0.6737   21.5427  -29.2854 H   0  0  0  0  0  0  0  0  0  0  0  0
   -2.9546   20.5892  -28.9621 H   0  0  0  0  0  0  0  0  0  0  0  0
   -4.3647   20.0268  -30.9392 H   0  0  0  0  0  0  0  0  0  0  0  0
   -4.0570   21.0960  -34.1150 H   0  0  0  0  0  0  0  0  0  0  0  0
   -5.9494   21.1883  -32.6982 H   0  0  0  0  0  0  0  0  0  0  0  0
   -5.0341   22.1431  -32.0289 H   0  0  0  0  0  0  0  0  0  0  0  0
   -2.9581   22.9805  -30.9285 H   0  0  0  0  0  0  0  0  0  0  0  0
   -5.0281   26.5945  -29.7633 H   0  0  0  0  0  0  0  0  0  0  0  0
   -7.1049   25.7695  -30.8767 H   0  0  0  0  0  0  0  0  0  0  0  0
   -9.7722   19.5804  -31.4652 H   0  0  0  0  0  0  0  0  0  0  0  0
   -9.0496   17.3070  -32.1933 H   0  0  0  0  0  0  0  0  0  0  0  0
  1  2  1  0
  2  3  1  0
  3  4  2  0
  4  5  1  0
  5  6  2  0
  6  7  1  0
  7  8  2  0
  8  9  1  0
  9 10  1  0
 10 11  2  0
 10 12  2  0
 10 13  1  0
 13 14  2  0
 14 15  1  0
 15 16  1  0
 16 17  2  0
 16 18  2  0
 16 19  1  0
 19 20  1  0
 20 21  2  0
 21 22  1  0
 22 23  2  0
 23 24  1  0
 23 25  1  0
 25 26  2  0
 15 27  2  0
 27 28  1  0
 28 29  2  0
 29 30  1  0
  8  3  1  0
 29 13  1  0
 26 20  1  0
  1 31  1  0
  1 32  1  0
  1 33  1  0
  4 34  1  0
  5 35  1  0
  6 36  1  0
  7 37  1  0
  9 38  1  0
 14 39  1  0
 21 40  1  0
 22 41  1  0
 25 42  1  0
 26 43  1  0
 27 44  1  0
 28 45  1  0
M  CHG  2  19  -1  24  -1
M  END
>  <UniqueID>  (12) 
12

>  <SMILES>  (12) 
COc1ccccc1NS(=O)(=O)c1cc(S(=O)(=O)[N-]c2ccc([O-])cc2)ccc1F

>  <Energy>  (12) 
54.59412142316995

>  <Genealogy>  (12) 
COc1ccccc1NS(=O)(=O)c1cc(S(=O)(=O)[N-]c2ccc([O-])cc2)ccc1F (protonated)
COc1ccccc1NS(=O)(=O)c1cc(S(=O)(=O)[N-]c2ccc([O-])cc2)ccc1F (3D coordinates assigned)
COc1ccccc1NS(=O)(=O)c1cc(S(=O)(=O)[N-]c2ccc([O-])cc2)ccc1F (optimized conformer: 54.59412142316995 kcal/mol)

>  <smiles>  (12) 
COc1ccccc1NS(=O)(=O)c1cc(S(=O)(=O)Nc2ccc(O)cc2)ccc1F

>  <score_type>  (12) 
oracle

>  <origin>  (12) 
adgpu

>  <m_score__min__energy>  (12) 
-12.130000000000001

>  <m_primary>  (12) 
energy

$$$$
12:0
     RDKit          3D

 41 43  0  0  0  0  0  0  0  0999 V2000
   -8.3040   20.8400  -32.2800 C   0  0  0  0  0  0  0  0  0  0  0  0
   -7.4100   21.9870  -31.8900 C   0  0  0  0  0  0  0  0  0  0  0  0
   -7.9450   23.0410  -31.1360 C   0  0  0  0  0  0  0  0  0  0  0  0
   -7.1380   24.1020  -30.7210 C   0  0  0  0  0  0  0  0  0  0  0  0
   -5.7740   24.1330  -31.0530 C   0  0  0  0  0  0  0  0  0  0  0  0
   -4.9130   25.2530  -30.6030 C   0  0  0  0  0  0  0  0  0  0  0  0
   -5.4180   26.3900  -30.4000 O   0  0  0  0  0  0  0  0  0  0  0  0
   -3.5000   25.0560  -30.4490 N   0  0  0  0  0  0  0  0  0  0  0  0
   -2.8450   24.3550  -29.3820 C   0  0  0  0  0  0  0  0  0  0  0  0
   -1.9100   25.0450  -28.5990 C   0  0  0  0  0  0  0  0  0  0  0  0
   -1.2350   24.3920  -27.5630 C   0  0  0  0  0  0  0  0  0  0  0  0
   -1.4770   23.0400  -27.3120 C   0  0  0  0  0  0  0  0  0  0  0  0
   -2.3890   22.3340  -28.1030 C   0  0  0  0  0  0  0  0  0  0  0  0
   -2.6970   20.4770  -27.7780 Br  0  0  0  0  0  0  0  0  0  0  0  0
   -3.0670   22.9850  -29.1410 C   0  0  0  0  0  0  0  0  0  0  0  0
   -5.2390   23.0870  -31.8260 C   0  0  0  0  0  0  0  0  0  0  0  0
   -6.0490   22.0330  -32.2710 C   0  0  0  0  0  0  0  0  0  0  0  0
   -5.4560   21.0000  -33.0720 N   0  0  0  0  0  0  0  0  0  0  0  0
   -5.3340   19.6450  -32.6100 C   0  0  0  0  0  0  0  0  0  0  0  0
   -5.8740   19.3020  -31.5230 O   0  0  0  0  0  0  0  0  0  0  0  0
   -4.5930   18.6460  -33.4100 C   0  0  0  0  0  0  0  0  0  0  0  0
   -5.2700   17.6470  -34.1300 C   0  0  0  0  0  0  0  0  0  0  0  0
   -4.5370   16.7170  -34.8700 C   0  0  0  0  0  0  0  0  0  0  0  0
   -3.1430   16.7860  -34.8900 C   0  0  0  0  0  0  0  0  0  0  0  0
   -2.2090   15.6250  -35.8150 Cl  0  0  0  0  0  0  0  0  0  0  0  0
   -2.5000   17.7910  -34.1620 C   0  0  0  0  0  0  0  0  0  0  0  0
   -3.2320   18.6860  -33.4470 N   0  0  0  0  0  0  0  0  0  0  0  0
   -8.6869   20.3488  -31.3733 H   0  0  0  0  0  0  0  0  0  0  0  0
   -9.1475   21.2187  -32.8758 H   0  0  0  0  0  0  0  0  0  0  0  0
   -7.7308   20.1145  -32.8758 H   0  0  0  0  0  0  0  0  0  0  0  0
   -9.0120   23.0319  -30.8685 H   0  0  0  0  0  0  0  0  0  0  0  0
   -7.5742   24.9202  -30.1292 H   0  0  0  0  0  0  0  0  0  0  0  0
   -1.7057   26.1069  -28.8005 H   0  0  0  0  0  0  0  0  0  0  0  0
   -0.5121   24.9444  -26.9447 H   0  0  0  0  0  0  0  0  0  0  0  0
   -0.9502   22.5301  -26.4920 H   0  0  0  0  0  0  0  0  0  0  0  0
   -3.7748   22.4251  -29.7699 H   0  0  0  0  0  0  0  0  0  0  0  0
   -4.1700   23.0961  -32.0850 H   0  0  0  0  0  0  0  0  0  0  0  0
   -5.2860   21.2060  -34.0820 H   0  0  0  0  0  0  0  0  0  0  0  0
   -6.3687   17.5980  -34.1108 H   0  0  0  0  0  0  0  0  0  0  0  0
   -5.0575   15.9308  -35.4366 H   0  0  0  0  0  0  0  0  0  0  0  0
   -1.4020   17.8577  -34.1676 H   0  0  0  0  0  0  0  0  0  0  0  0
  1  2  1  0
  2  3  2  0
  3  4  1  0
  4  5  2  0
  5  6  1  0
  6  7  2  0
  6  8  1  0
  8  9  1  0
  9 10  2  0
 10 11  1  0
 11 12  2  0
 12 13  1  0
 13 14  1  0
 13 15  2  0
  5 16  1  0
 16 17  2  0
 17 18  1  0
 18 19  1  0
 19 20  2  0
 19 21  1  0
 21 22  2  0
 22 23  1  0
 23 24  2  0
 24 25  1  0
 24 26  1  0
 26 27  2  0
 17  2  1  0
 27 21  1  0
 15  9  1  0
  1 28  1  0
  1 29  1  0
  1 30  1  0
  3 31  1  0
  4 32  1  0
 10 33  1  0
 11 34  1  0
 12 35  1  0
 15 36  1  0
 16 37  1  0
 18 38  1  0
 22 39  1  0
 23 40  1  0
 26 41  1  0
M  CHG  1   8  -1
M  END
>  <UniqueID>  (13) 
13

>  <SMILES>  (13) 
Cc1ccc(C(=O)[N-]c2cccc(Br)c2)cc1NC(=O)c1ccc(Cl)cn1

>  <Energy>  (13) 
54.75425494120336

>  <Genealogy>  (13) 
Cc1ccc(C(=O)[N-]c2cccc(Br)c2)cc1NC(=O)c1ccc(Cl)cn1 (protonated)
Cc1ccc(C(=O)[N-]c2cccc(Br)c2)cc1NC(=O)c1ccc(Cl)cn1 (3D coordinates assigned)
Cc1ccc(C(=O)[N-]c2cccc(Br)c2)cc1NC(=O)c1ccc(Cl)cn1 (optimized conformer: 54.75425494120336 kcal/mol)

>  <smiles>  (13) 
Cc1ccc(C(=O)Nc2cccc(Br)c2)cc1NC(=O)c1ccc(Cl)cn1

>  <score_type>  (13) 
oracle

>  <origin>  (13) 
adgpu

>  <m_score__min__energy>  (13) 
-10.92

>  <m_primary>  (13) 
energy

$$$$
13:0
     RDKit          3D

 24 25  0  0  0  0  0  0  0  0999 V2000
   -1.9850   25.2800  -29.3350 O   0  0  0  0  0  0  0  0  0  0  0  0
   -3.0300   24.5810  -29.3860 C   0  0  0  0  0  0  0  0  0  0  0  0
   -3.3690   23.7440  -28.3200 C   0  0  0  0  0  0  0  0  0  0  0  0
   -4.5370   22.9880  -28.4160 C   0  0  0  0  0  0  0  0  0  0  0  0
   -5.3110   23.0750  -29.5280 N   0  0  0  0  0  0  0  0  0  0  0  0
   -4.9630   23.8900  -30.5580 C   0  0  0  0  0  0  0  0  0  0  0  0
   -5.9930   23.9710  -32.0210 S   0  0  0  0  0  0  0  0  0  0  0  0
   -7.3100   22.9030  -31.3410 C   0  0  0  0  0  0  0  0  0  0  0  0
   -7.2010   21.5030  -31.8810 C   0  0  0  0  0  0  0  0  0  0  0  0
   -8.2600   20.5970  -31.7120 C   0  0  0  0  0  0  0  0  0  0  0  0
   -8.1480   19.2860  -32.1850 C   0  0  0  0  0  0  0  0  0  0  0  0
   -6.9780   18.8680  -32.8260 C   0  0  0  0  0  0  0  0  0  0  0  0
   -6.8370   17.2220  -33.4140 Cl  0  0  0  0  0  0  0  0  0  0  0  0
   -5.9160   19.7650  -32.9940 C   0  0  0  0  0  0  0  0  0  0  0  0
   -6.0260   21.0770  -32.5230 C   0  0  0  0  0  0  0  0  0  0  0  0
   -3.8310   24.6380  -30.4820 N   0  0  0  0  0  0  0  0  0  0  0  0
   -2.7302   23.6828  -27.4266 H   0  0  0  0  0  0  0  0  0  0  0  0
   -4.8309   22.3218  -27.5915 H   0  0  0  0  0  0  0  0  0  0  0  0
   -7.2197   22.8740  -30.2451 H   0  0  0  0  0  0  0  0  0  0  0  0
   -8.2851   23.3177  -31.6363 H   0  0  0  0  0  0  0  0  0  0  0  0
   -9.1815   20.9198  -31.2055 H   0  0  0  0  0  0  0  0  0  0  0  0
   -8.9825   18.5817  -32.0524 H   0  0  0  0  0  0  0  0  0  0  0  0
   -4.9943   19.4372  -33.4970 H   0  0  0  0  0  0  0  0  0  0  0  0
   -5.1892   21.7785  -32.6556 H   0  0  0  0  0  0  0  0  0  0  0  0
  1  2  2  0
  2  3  1  0
  3  4  2  0
  4  5  1  0
  5  6  1  0
  6  7  1  0
  7  8  1  0
  8  9  1  0
  9 10  2  0
 10 11  1  0
 11 12  2  0
 12 13  1  0
 12 14  1  0
 14 15  2  0
  6 16  2  0
 16  2  1  0
 15  9  1  0
  3 17  1  0
  4 18  1  0
  8 19  1  0
  8 20  1  0
 10 21  1  0
 11 22  1  0
 14 23  1  0
 15 24  1  0
M  CHG  1   5  -1
M  END
>  <UniqueID>  (14) 
14

>  <SMILES>  (14) 
O=c1cc[n-]c(SCc2ccc(Cl)cc2)n1

>  <Energy>  (14) 
21.034313850820286

>  <Genealogy>  (14) 
O=c1cc[n-]c(SCc2ccc(Cl)cc2)n1 (protonated)
O=c1cc[n-]c(SCc2ccc(Cl)cc2)n1 (3D coordinates assigned)
O=c1cc[n-]c(SCc2ccc(Cl)cc2)n1 (optimized conformer: 21.034313850820286 kcal/mol)

>  <smiles>  (14) 
O=c1cc[nH]c(SCc2ccc(Cl)cc2)n1

>  <score_type>  (14) 
oracle

>  <origin>  (14) 
adgpu

>  <m_score__min__energy>  (14) 
-8

>  <m_primary>  (14) 
energy

$$$$
14:0
     RDKit          3D

 45 48  0  0  0  0  0  0  0  0999 V2000
   -5.9000   25.2970  -30.8950 O   0  0  0  0  0  0  0  0  0  0  0  0
   -4.9220   24.5030  -30.9300 C   0  0  0  0  0  0  0  0  0  0  0  0
   -3.6390   24.9280  -30.4550 N   0  0  0  0  0  0  0  0  0  0  0  0
   -3.1460   24.6530  -29.1100 C   0  0  0  0  0  0  0  0  0  0  0  0
   -2.4960   23.2990  -29.0650 C   0  0  0  0  0  0  0  0  0  0  0  0
   -1.2860   23.0630  -29.7350 C   0  0  0  0  0  0  0  0  0  0  0  0
   -0.6910   21.8030  -29.6540 C   0  0  0  0  0  0  0  0  0  0  0  0
   -1.2760   20.8170  -28.9250 N   0  0  0  0  0  0  0  0  0  0  0  0
   -2.4400   21.0170  -28.2480 C   0  0  0  0  0  0  0  0  0  0  0  0
   -3.0560   19.8820  -27.4830 C   0  0  0  0  0  0  0  0  0  0  0  0
   -2.1290   19.4080  -26.3680 C   0  0  0  0  0  0  0  0  0  0  0  0
   -1.4370   18.2760  -26.7640 F   0  0  0  0  0  0  0  0  0  0  0  0
   -3.0740   22.2670  -28.3130 C   0  0  0  0  0  0  0  0  0  0  0  0
   -5.0740   23.1530  -31.5210 C   0  0  0  0  0  0  0  0  0  0  0  0
   -3.9250   22.5200  -32.0190 C   0  0  0  0  0  0  0  0  0  0  0  0
   -4.0170   21.2650  -32.6500 C   0  0  0  0  0  0  0  0  0  0  0  0
   -2.8320   20.5190  -33.2290 C   0  0  0  0  0  0  0  0  0  0  0  0
   -1.4530   21.1410  -33.0540 C   0  0  0  0  0  0  0  0  0  0  0  0
   -1.8430   19.9080  -32.2450 C   0  0  0  0  0  0  0  0  0  0  0  0
   -5.2340   20.6730  -32.7610 N   0  0  0  0  0  0  0  0  0  0  0  0
   -6.3710   21.2340  -32.2750 C   0  0  0  0  0  0  0  0  0  0  0  0
   -7.5840   20.5500  -32.4100 C   0  0  0  0  0  0  0  0  0  0  0  0
   -8.7580   21.0910  -31.8850 C   0  0  0  0  0  0  0  0  0  0  0  0
   -8.7240   22.3130  -31.2130 C   0  0  0  0  0  0  0  0  0  0  0  0
   -7.5180   23.0070  -31.0720 C   0  0  0  0  0  0  0  0  0  0  0  0
   -6.3250   22.4910  -31.6240 C   0  0  0  0  0  0  0  0  0  0  0  0
   -2.4092   25.4198  -28.8287 H   0  0  0  0  0  0  0  0  0  0  0  0
   -3.9913   24.6701  -28.4063 H   0  0  0  0  0  0  0  0  0  0  0  0
   -0.8102   23.8644  -30.3193 H   0  0  0  0  0  0  0  0  0  0  0  0
    0.2541   21.6078  -30.1818 H   0  0  0  0  0  0  0  0  0  0  0  0
   -4.0059   20.2188  -27.0423 H   0  0  0  0  0  0  0  0  0  0  0  0
   -3.2280   19.0449  -28.1756 H   0  0  0  0  0  0  0  0  0  0  0  0
   -1.4112   20.2066  -26.1294 H   0  0  0  0  0  0  0  0  0  0  0  0
   -2.7328   19.1650  -25.4812 H   0  0  0  0  0  0  0  0  0  0  0  0
   -4.0194   22.4361  -27.7768 H   0  0  0  0  0  0  0  0  0  0  0  0
   -2.9447   23.0082  -31.9155 H   0  0  0  0  0  0  0  0  0  0  0  0
   -3.4113   20.1445  -34.0858 H   0  0  0  0  0  0  0  0  0  0  0  0
   -0.7062   21.0583  -33.8574 H   0  0  0  0  0  0  0  0  0  0  0  0
   -1.0780   22.1457  -32.8091 H   0  0  0  0  0  0  0  0  0  0  0  0
   -1.3776   18.9359  -32.4649 H   0  0  0  0  0  0  0  0  0  0  0  0
   -1.8659   19.6547  -31.1748 H   0  0  0  0  0  0  0  0  0  0  0  0
   -7.6122   19.5821  -32.9320 H   0  0  0  0  0  0  0  0  0  0  0  0
   -9.7108   20.5537  -32.0010 H   0  0  0  0  0  0  0  0  0  0  0  0
   -9.6497   22.7325  -30.7922 H   0  0  0  0  0  0  0  0  0  0  0  0
   -7.4986   23.9622  -30.5269 H   0  0  0  0  0  0  0  0  0  0  0  0
  1  2  2  0
  2  3  1  0
  3  4  1  0
  4  5  1  0
  5  6  2  0
  6  7  1  0
  7  8  2  0
  8  9  1  0
  9 10  1  0
 10 11  1  0
 11 12  1  0
  9 13  2  0
  2 14  1  0
 14 15  2  0
 15 16  1  0
 16 17  1  0
 17 18  1  0
 18 19  1  0
 16 20  2  0
 20 21  1  0
 21 22  2  0
 22 23  1  0
 23 24  2  0
 24 25  1  0
 25 26  2  0
 13  5  1  0
 26 14  1  0
 19 17  1  0
 26 21  1  0
  4 27  1  0
  4 28  1  0
  6 29  1  0
  7 30  1  0
 10 31  1  0
 10 32  1  0
 11 33  1  0
 11 34  1  0
 13 35  1  0
 15 36  1  0
 17 37  1  0
 18 38  1  0
 18 39  1  0
 19 40  1  0
 19 41  1  0
 22 42  1  0
 23 43  1  0
 24 44  1  0
 25 45  1  0
M  CHG  1   3  -1
M  END
>  <UniqueID>  (15) 
15

>  <SMILES>  (15) 
O=C([N-]Cc1ccnc(CCF)c1)c1cc(C2CC2)nc2ccccc12

>  <Energy>  (15) 
320.36480147141924

>  <Genealogy>  (15) 
O=C([N-]Cc1ccnc(CCF)c1)c1cc(C2CC2)nc2ccccc12 (protonated)
O=C([N-]Cc1ccnc(CCF)c1)c1cc(C2CC2)nc2ccccc12 (3D coordinates assigned)
O=C([N-]Cc1ccnc(CCF)c1)c1cc(C2CC2)nc2ccccc12 (nonaromatic ring conformer: 320.36480147141924 kcal/mol)

>  <smiles>  (15) 
O=C(NCc1ccnc(CCF)c1)c1cc(C2CC2)nc2ccccc12

>  <score_type>  (15) 
oracle

>  <origin>  (15) 
adgpu

>  <m_score__min__energy>  (15) 
-9.7799999999999994

>  <m_primary>  (15) 
energy

$$$$
15:0
     RDKit          3D

 38 40  0  0  0  0  0  0  0  0999 V2000
   -7.9000   22.3000  -29.8140 C   0  0  0  0  0  0  0  0  0  0  0  0
   -8.6500   21.8500  -31.3680 S   0  0  0  0  0  0  0  0  0  0  0  0
  -10.1220   21.6500  -31.1400 O   0  0  0  0  0  0  0  0  0  0  0  0
   -8.4440   22.9780  -32.3390 O   0  0  0  0  0  0  0  0  0  0  0  0
   -7.9650   20.3690  -32.0480 C   0  0  0  0  0  0  0  0  0  0  0  0
   -8.5720   19.1250  -31.8120 C   0  0  0  0  0  0  0  0  0  0  0  0
   -8.0260   17.9590  -32.3540 C   0  0  0  0  0  0  0  0  0  0  0  0
   -6.8670   18.0220  -33.1280 C   0  0  0  0  0  0  0  0  0  0  0  0
   -6.2540   19.2540  -33.3690 C   0  0  0  0  0  0  0  0  0  0  0  0
   -6.8050   20.4380  -32.8450 C   0  0  0  0  0  0  0  0  0  0  0  0
   -6.1920   21.6820  -33.0610 O   0  0  0  0  0  0  0  0  0  0  0  0
   -5.2470   22.2810  -32.2130 C   0  0  0  0  0  0  0  0  0  0  0  0
   -5.5410   23.4400  -31.4740 C   0  0  0  0  0  0  0  0  0  0  0  0
   -4.5790   23.9980  -30.6270 C   0  0  0  0  0  0  0  0  0  0  0  0
   -3.3140   23.4010  -30.4950 C   0  0  0  0  0  0  0  0  0  0  0  0
   -2.2940   23.9920  -29.5990 C   0  0  0  0  0  0  0  0  0  0  0  0
   -1.2850   23.2770  -29.0510 N   0  0  0  0  0  0  0  0  0  0  0  0
   -0.6060   24.1850  -28.3290 C   0  0  0  0  0  0  0  0  0  0  0  0
    0.5740   23.8620  -27.4690 C   0  0  0  0  0  0  0  0  0  0  0  0
    0.2750   24.1130  -26.1430 F   0  0  0  0  0  0  0  0  0  0  0  0
    1.6580   24.6380  -27.8410 F   0  0  0  0  0  0  0  0  0  0  0  0
    0.9000   22.5270  -27.6180 F   0  0  0  0  0  0  0  0  0  0  0  0
   -1.2200   25.4100  -28.4340 C   0  0  0  0  0  0  0  0  0  0  0  0
   -2.2860   25.2960  -29.2420 N   0  0  0  0  0  0  0  0  0  0  0  0
   -3.0330   22.2310  -31.2210 C   0  0  0  0  0  0  0  0  0  0  0  0
   -3.9960   21.6750  -32.0680 C   0  0  0  0  0  0  0  0  0  0  0  0
   -8.5208   21.9275  -28.9858 H   0  0  0  0  0  0  0  0  0  0  0  0
   -6.8962   21.8549  -29.7488 H   0  0  0  0  0  0  0  0  0  0  0  0
   -7.8204   23.3952  -29.7488 H   0  0  0  0  0  0  0  0  0  0  0  0
   -9.4823   19.0683  -31.1971 H   0  0  0  0  0  0  0  0  0  0  0  0
   -8.5110   16.9890  -32.1701 H   0  0  0  0  0  0  0  0  0  0  0  0
   -6.4358   17.1016  -33.5485 H   0  0  0  0  0  0  0  0  0  0  0  0
   -5.3351   19.2988  -33.9720 H   0  0  0  0  0  0  0  0  0  0  0  0
   -6.5317   23.9097  -31.5625 H   0  0  0  0  0  0  0  0  0  0  0  0
   -4.8140   24.9108  -30.0599 H   0  0  0  0  0  0  0  0  0  0  0  0
   -0.8912   26.3343  -27.9365 H   0  0  0  0  0  0  0  0  0  0  0  0
   -2.0489   21.7496  -31.1221 H   0  0  0  0  0  0  0  0  0  0  0  0
   -3.7676   20.7540  -32.6244 H   0  0  0  0  0  0  0  0  0  0  0  0
  1  2  1  0
  2  3  2  0
  2  4  2  0
  2  5  1  0
  5  6  2  0
  6  7  1  0
  7  8  2  0
  8  9  1  0
  9 10  2  0
 10 11  1  0
 11 12  1  0
 12 13  2  0
 13 14  1  0
 14 15  2  0
 15 16  1  0
 16 17  2  0
 17 18  1  0
 18 19  1  0
 19 20  1  0
 19 21  1  0
 19 22  1  0
 18 23  2  0
 23 24  1  0
 15 25  1  0
 25 26  2  0
 10  5  1  0
 26 12  1  0
 24 16  1  0
  1 27  1  0
  1 28  1  0
  1 29  1  0
  6 30  1  0
  7 31  1  0
  8 32  1  0
  9 33  1  0
 13 34  1  0
 14 35  1  0
 23 36  1  0
 25 37  1  0
 26 38  1  0
M  CHG  1  24  -1
M  END
>  <UniqueID>  (16) 
16

>  <SMILES>  (16) 
CS(=O)(=O)c1ccccc1Oc1ccc(-c2nc(C(F)(F)F)c[n-]2)cc1

>  <Energy>  (16) 
72.43216663162454

>  <Genealogy>  (16) 
CS(=O)(=O)c1ccccc1Oc1ccc(-c2nc(C(F)(F)F)c[n-]2)cc1 (protonated)
CS(=O)(=O)c1ccccc1Oc1ccc(-c2nc(C(F)(F)F)c[n-]2)cc1 (3D coordinates assigned)
CS(=O)(=O)c1ccccc1Oc1ccc(-c2nc(C(F)(F)F)c[n-]2)cc1 (optimized conformer: 72.43216663162454 kcal/mol)

>  <smiles>  (16) 
CS(=O)(=O)c1ccccc1Oc1ccc(-c2nc(C(F)(F)F)c[nH]2)cc1

>  <score_type>  (16) 
oracle

>  <origin>  (16) 
adgpu

>  <m_score__min__energy>  (16) 
-9

>  <m_primary>  (16) 
energy

$$$$
16:0
     RDKit          3D

 61 64  0  0  0  0  0  0  0  0999 V2000
   -9.8550   21.9240  -31.1670 C   0  0  0  0  0  0  0  0  0  0  0  0
  -10.0070   21.0350  -32.3210 N   0  0  0  0  0  0  0  0  0  0  0  0
   -9.3670   19.7440  -32.0580 C   0  0  0  0  0  0  0  0  0  0  0  0
   -7.8910   19.8420  -32.3370 C   0  0  0  0  0  0  0  0  0  0  0  0
   -7.1250   20.8490  -31.7320 C   0  0  0  0  0  0  0  0  0  0  0  0
   -5.7620   20.9680  -32.0190 C   0  0  0  0  0  0  0  0  0  0  0  0
   -5.1440   20.0880  -32.9250 C   0  0  0  0  0  0  0  0  0  0  0  0
   -3.6980   20.2170  -33.2380 C   0  0  0  0  0  0  0  0  0  0  0  0
   -3.0000   21.3950  -32.9190 C   0  0  0  0  0  0  0  0  0  0  0  0
   -1.6360   21.5100  -33.2030 C   0  0  0  0  0  0  0  0  0  0  0  0
   -0.9510   20.4520  -33.8120 C   0  0  0  0  0  0  0  0  0  0  0  0
    0.7770   20.5690  -34.1210 S   0  0  0  0  0  0  0  0  0  0  0  0
    1.1500   21.9890  -34.4360 O   0  0  0  0  0  0  0  0  0  0  0  0
    1.1430   19.7100  -35.2990 O   0  0  0  0  0  0  0  0  0  0  0  0
    1.6330   20.0530  -32.7080 N   0  0  0  0  0  0  0  0  0  0  0  0
    1.1280   18.9680  -31.9260 C   0  0  0  0  0  0  0  0  0  0  0  0
    1.1520   17.6730  -32.4620 C   0  0  0  0  0  0  0  0  0  0  0  0
    0.7430   16.5820  -31.6900 C   0  0  0  0  0  0  0  0  0  0  0  0
    0.3080   16.7780  -30.3790 C   0  0  0  0  0  0  0  0  0  0  0  0
    0.2620   18.0670  -29.8410 C   0  0  0  0  0  0  0  0  0  0  0  0
    0.6410   19.1720  -30.6140 C   0  0  0  0  0  0  0  0  0  0  0  0
    0.5410   20.4490  -30.0430 O   0  0  0  0  0  0  0  0  0  0  0  0
   -0.6420   21.0230  -29.5510 C   0  0  0  0  0  0  0  0  0  0  0  0
   -1.4460   20.2650  -28.7000 C   0  0  0  0  0  0  0  0  0  0  0  0
   -2.6240   20.7990  -28.1810 C   0  0  0  0  0  0  0  0  0  0  0  0
   -3.0270   22.1060  -28.5040 C   0  0  0  0  0  0  0  0  0  0  0  0
   -4.2840   22.6450  -27.8710 C   0  0  0  0  0  0  0  0  0  0  0  0
   -2.2410   22.8740  -29.4060 C   0  0  0  0  0  0  0  0  0  0  0  0
   -2.6180   24.2450  -29.8410 C   0  0  0  0  0  0  0  0  0  0  0  0
   -2.0330   25.2470  -29.3490 O   0  0  0  0  0  0  0  0  0  0  0  0
   -3.5880   24.4510  -30.8150 O   0  0  0  0  0  0  0  0  0  0  0  0
   -1.0500   22.3160  -29.9140 C   0  0  0  0  0  0  0  0  0  0  0  0
   -1.6380   19.2730  -34.1260 C   0  0  0  0  0  0  0  0  0  0  0  0
   -3.0020   19.1570  -33.8460 C   0  0  0  0  0  0  0  0  0  0  0  0
   -5.9200   19.0880  -33.5390 C   0  0  0  0  0  0  0  0  0  0  0  0
   -7.2820   18.9710  -33.2520 C   0  0  0  0  0  0  0  0  0  0  0  0
   -9.9547   21.3411  -30.2395 H   0  0  0  0  0  0  0  0  0  0  0  0
   -8.8628   22.3979  -31.1974 H   0  0  0  0  0  0  0  0  0  0  0  0
  -10.6334   22.7007  -31.1974 H   0  0  0  0  0  0  0  0  0  0  0  0
  -11.0340   20.8690  -32.4530 H   0  0  0  0  0  0  0  0  0  0  0  0
   -9.5222   19.4670  -31.0048 H   0  0  0  0  0  0  0  0  0  0  0  0
   -9.8107   18.9782  -32.7112 H   0  0  0  0  0  0  0  0  0  0  0  0
   -7.5991   21.5488  -31.0280 H   0  0  0  0  0  0  0  0  0  0  0  0
   -5.1685   21.7560  -31.5324 H   0  0  0  0  0  0  0  0  0  0  0  0
   -3.5310   22.2323  -32.4425 H   0  0  0  0  0  0  0  0  0  0  0  0
   -1.0991   22.4353  -32.9470 H   0  0  0  0  0  0  0  0  0  0  0  0
    2.2260   20.7680  -32.2310 H   0  0  0  0  0  0  0  0  0  0  0  0
    1.4944   17.5146  -33.4953 H   0  0  0  0  0  0  0  0  0  0  0  0
    0.7641   15.5682  -32.1164 H   0  0  0  0  0  0  0  0  0  0  0  0
    0.0007   15.9166  -29.7678 H   0  0  0  0  0  0  0  0  0  0  0  0
   -0.0739   18.2148  -28.8040 H   0  0  0  0  0  0  0  0  0  0  0  0
   -1.1484   19.2392  -28.4368 H   0  0  0  0  0  0  0  0  0  0  0  0
   -3.2466   20.1894  -27.5096 H   0  0  0  0  0  0  0  0  0  0  0  0
   -4.1895   22.6045  -26.7758 H   0  0  0  0  0  0  0  0  0  0  0  0
   -4.4360   23.6874  -28.1876 H   0  0  0  0  0  0  0  0  0  0  0  0
   -5.1440   22.0365  -28.1876 H   0  0  0  0  0  0  0  0  0  0  0  0
   -0.4300   22.9040  -30.6067 H   0  0  0  0  0  0  0  0  0  0  0  0
   -1.1018   18.4348  -34.5949 H   0  0  0  0  0  0  0  0  0  0  0  0
   -3.5353   18.2299  -34.1030 H   0  0  0  0  0  0  0  0  0  0  0  0
   -5.4505   18.3929  -34.2506 H   0  0  0  0  0  0  0  0  0  0  0  0
   -7.8802   18.1914  -33.7464 H   0  0  0  0  0  0  0  0  0  0  0  0
  1  2  1  0
  2  3  1  0
  3  4  1  0
  4  5  2  0
  5  6  1  0
  6  7  2  0
  7  8  1  0
  8  9  2  0
  9 10  1  0
 10 11  2  0
 11 12  1  0
 12 13  2  0
 12 14  2  0
 12 15  1  0
 15 16  1  0
 16 17  2  0
 17 18  1  0
 18 19  2  0
 19 20  1  0
 20 21  2  0
 21 22  1  0
 22 23  1  0
 23 24  2  0
 24 25  1  0
 25 26  2  0
 26 27  1  0
 26 28  1  0
 28 29  1  0
 29 30  2  0
 29 31  1  0
 28 32  2  0
 11 33  1  0
 33 34  2  0
  7 35  1  0
 35 36  2  0
 36  4  1  0
 34  8  1  0
 21 16  1  0
 32 23  1  0
  1 37  1  0
  1 38  1  0
  1 39  1  0
  2 40  1  0
  3 41  1  0
  3 42  1  0
  5 43  1  0
  6 44  1  0
  9 45  1  0
 10 46  1  0
 15 47  1  0
 17 48  1  0
 18 49  1  0
 19 50  1  0
 20 51  1  0
 24 52  1  0
 25 53  1  0
 27 54  1  0
 27 55  1  0
 27 56  1  0
 32 57  1  0
 33 58  1  0
 34 59  1  0
 35 60  1  0
 36 61  1  0
M  CHG  1  31  -1
M  END
>  <UniqueID>  (17) 
17

>  <SMILES>  (17) 
CNCc1ccc(-c2ccc(S(=O)(=O)Nc3ccccc3Oc3ccc(C)c(C(=O)[O-])c3)cc2)cc1

>  <Energy>  (17) 
85.98503676670185

>  <Genealogy>  (17) 
CNCc1ccc(-c2ccc(S(=O)(=O)Nc3ccccc3Oc3ccc(C)c(C(=O)[O-])c3)cc2)cc1 (protonated)
CNCc1ccc(-c2ccc(S(=O)(=O)Nc3ccccc3Oc3ccc(C)c(C(=O)[O-])c3)cc2)cc1 (3D coordinates assigned)
CNCc1ccc(-c2ccc(S(=O)(=O)Nc3ccccc3Oc3ccc(C)c(C(=O)[O-])c3)cc2)cc1 (optimized conformer: 85.98503676670185 kcal/mol)

>  <smiles>  (17) 
CNCc1ccc(-c2ccc(S(=O)(=O)Nc3ccccc3Oc3ccc(C)c(C(=O)O)c3)cc2)cc1

>  <score_type>  (17) 
oracle

>  <origin>  (17) 
adgpu

>  <m_score__min__energy>  (17) 
-11.539999999999999

>  <m_primary>  (17) 
energy

$$$$
17:0
     RDKit          3D

 31 32  0  0  0  0  0  0  0  0999 V2000
   -4.5240   22.3630  -32.9140 N   0  0  0  0  0  0  0  0  0  0  0  0
   -5.7520   22.3230  -32.1740 C   0  0  0  0  0  0  0  0  0  0  0  0
   -6.7470   21.4130  -32.5680 C   0  0  0  0  0  0  0  0  0  0  0  0
   -7.9730   21.3670  -31.9020 C   0  0  0  0  0  0  0  0  0  0  0  0
   -8.2230   22.2330  -30.8400 C   0  0  0  0  0  0  0  0  0  0  0  0
   -7.2430   23.1400  -30.4300 C   0  0  0  0  0  0  0  0  0  0  0  0
   -5.9950   23.1850  -31.0750 C   0  0  0  0  0  0  0  0  0  0  0  0
   -4.7710   24.3260  -30.4930 S   0  0  0  0  0  0  0  0  0  0  0  0
   -4.9960   25.6570  -31.1540 O   0  0  0  0  0  0  0  0  0  0  0  0
   -3.3960   23.8220  -30.8410 O   0  0  0  0  0  0  0  0  0  0  0  0
   -4.8900   24.5310  -28.7690 N   0  0  0  0  0  0  0  0  0  0  0  0
   -3.9190   23.6660  -28.0920 C   0  0  0  0  0  0  0  0  0  0  0  0
   -2.7090   24.4720  -27.7140 C   0  0  0  0  0  0  0  0  0  0  0  0
   -2.6930   25.2220  -26.5290 C   0  0  0  0  0  0  0  0  0  0  0  0
   -1.5760   25.9960  -26.2070 C   0  0  0  0  0  0  0  0  0  0  0  0
   -0.4880   26.0220  -27.0820 C   0  0  0  0  0  0  0  0  0  0  0  0
   -0.5240   25.3030  -28.2360 N   0  0  0  0  0  0  0  0  0  0  0  0
   -1.6000   24.5410  -28.5710 C   0  0  0  0  0  0  0  0  0  0  0  0
   -3.5910   22.3980  -32.4510 H   0  0  0  0  0  0  0  0  0  0  0  0
   -4.5390   22.4220  -33.9560 H   0  0  0  0  0  0  0  0  0  0  0  0
   -6.5583   20.7301  -33.4094 H   0  0  0  0  0  0  0  0  0  0  0  0
   -8.7423   20.6463  -32.2161 H   0  0  0  0  0  0  0  0  0  0  0  0
   -9.1937   22.2026  -30.3234 H   0  0  0  0  0  0  0  0  0  0  0  0
   -7.4498   23.8253  -29.5948 H   0  0  0  0  0  0  0  0  0  0  0  0
   -4.6380   25.5250  -28.5620 H   0  0  0  0  0  0  0  0  0  0  0  0
   -4.3752   23.2421  -27.1853 H   0  0  0  0  0  0  0  0  0  0  0  0
   -3.6204   22.8508  -28.7675 H   0  0  0  0  0  0  0  0  0  0  0  0
   -3.5605   25.2006  -25.8530 H   0  0  0  0  0  0  0  0  0  0  0  0
   -1.5535   26.5788  -25.2743 H   0  0  0  0  0  0  0  0  0  0  0  0
    0.3992   26.6247  -26.8377 H   0  0  0  0  0  0  0  0  0  0  0  0
   -1.6007   23.9777  -29.5158 H   0  0  0  0  0  0  0  0  0  0  0  0
  1  2  1  0
  2  3  2  0
  3  4  1  0
  4  5  2  0
  5  6  1  0
  6  7  2  0
  7  8  1  0
  8  9  2  0
  8 10  2  0
  8 11  1  0
 11 12  1  0
 12 13  1  0
 13 14  2  0
 14 15  1  0
 15 16  2  0
 16 17  1  0
 17 18  2  0
  7  2  1  0
 18 13  1  0
  1 19  1  0
  1 20  1  0
  3 21  1  0
  4 22  1  0
  5 23  1  0
  6 24  1  0
 11 25  1  0
 12 26  1  0
 12 27  1  0
 14 28  1  0
 15 29  1  0
 16 30  1  0
 18 31  1  0
M  END
>  <UniqueID>  (18) 
18

>  <SMILES>  (18) 
Nc1ccccc1S(=O)(=O)NCc1cccnc1

>  <Energy>  (18) 
31.42536331692583

>  <Genealogy>  (18) 
Nc1ccccc1S(=O)(=O)NCc1cccnc1 (3D coordinates assigned)
Nc1ccccc1S(=O)(=O)NCc1cccnc1 (optimized conformer: 31.42536331692583 kcal/mol)

>  <smiles>  (18) 
Nc1ccccc1S(=O)(=O)NCc1cccnc1

>  <score_type>  (18) 
oracle

>  <origin>  (18) 
adgpu

>  <m_score__min__energy>  (18) 
-7.7999999999999998

>  <m_primary>  (18) 
energy

$$$$
18:0
     RDKit          3D

 48 51  0  0  0  0  0  0  0  0999 V2000
   -4.3869   15.1989  -35.9051 H   0  0  0  0  0  0  0  0  0  0  0  0
   -3.5320   15.7420  -35.4760 C   0  0  0  0  0  0  0  0  0  0  0  0
   -3.7100   16.9860  -34.9590 N   0  0  0  0  0  0  0  0  0  0  0  0
   -2.6860   17.7050  -34.4190 C   0  0  0  0  0  0  0  0  0  0  0  0
   -2.9420   19.0260  -33.8960 N   0  0  0  0  0  0  0  0  0  0  0  0
   -4.3310   19.3510  -33.5080 C   0  0  0  0  0  0  0  0  0  0  0  0
   -4.6700   18.6206  -32.7586 H   0  0  0  0  0  0  0  0  0  0  0  0
   -4.9536   19.3118  -34.4140 H   0  0  0  0  0  0  0  0  0  0  0  0
   -4.4470   20.7250  -32.9290 C   0  0  0  0  0  0  0  0  0  0  0  0
   -5.8640   21.5260  -32.5060 S   0  0  0  0  0  0  0  0  0  0  0  0
   -5.0330   22.8590  -31.8970 C   0  0  0  0  0  0  0  0  0  0  0  0
   -5.6410   23.8840  -31.3710 N   0  0  0  0  0  0  0  0  0  0  0  0
   -5.0760   25.1000  -30.8570 C   0  0  0  0  0  0  0  0  0  0  0  0
   -5.7390   26.1710  -30.8360 O   0  0  0  0  0  0  0  0  0  0  0  0
   -3.7320   25.0730  -30.3640 N   0  0  0  0  0  0  0  0  0  0  0  0
   -3.2240   24.2480  -29.3040 C   0  0  0  0  0  0  0  0  0  0  0  0
   -3.8090   23.0070  -28.9910 C   0  0  0  0  0  0  0  0  0  0  0  0
   -4.6875   22.6587  -29.5540 H   0  0  0  0  0  0  0  0  0  0  0  0
   -3.2800   22.2150  -27.9690 C   0  0  0  0  0  0  0  0  0  0  0  0
   -3.7499   21.2517  -27.7216 H   0  0  0  0  0  0  0  0  0  0  0  0
   -2.1570   22.6440  -27.2620 C   0  0  0  0  0  0  0  0  0  0  0  0
   -1.7465   22.0216  -26.4532 H   0  0  0  0  0  0  0  0  0  0  0  0
   -1.5530   23.8620  -27.5790 C   0  0  0  0  0  0  0  0  0  0  0  0
   -0.6633   24.1924  -27.0229 H   0  0  0  0  0  0  0  0  0  0  0  0
   -2.0770   24.6710  -28.6080 C   0  0  0  0  0  0  0  0  0  0  0  0
   -1.4920   25.8980  -28.9610 O   0  0  0  0  0  0  0  0  0  0  0  0
   -0.8790   26.7940  -28.0400 C   0  0  0  0  0  0  0  0  0  0  0  0
   -1.1000   26.4710  -27.0120 H   0  0  0  0  0  0  0  0  0  0  0  0
    0.2096   26.7945  -28.1982 H   0  0  0  0  0  0  0  0  0  0  0  0
   -1.2730   27.8088  -28.1982 H   0  0  0  0  0  0  0  0  0  0  0  0
   -3.6870   22.6970  -31.9910 N   0  0  0  0  0  0  0  0  0  0  0  0
   -2.9600   23.3520  -31.6350 H   0  0  0  0  0  0  0  0  0  0  0  0
   -3.3670   21.5120  -32.5770 C   0  0  0  0  0  0  0  0  0  0  0  0
   -1.9690   21.0170  -32.7450 C   0  0  0  0  0  0  0  0  0  0  0  0
   -1.6607   20.4791  -31.8364 H   0  0  0  0  0  0  0  0  0  0  0  0
   -1.2993   21.8729  -32.9151 H   0  0  0  0  0  0  0  0  0  0  0  0
   -1.8930   20.0680  -33.9490 C   0  0  0  0  0  0  0  0  0  0  0  0
   -0.9071   19.5803  -33.9560 H   0  0  0  0  0  0  0  0  0  0  0  0
   -2.0476   20.6618  -34.8620 H   0  0  0  0  0  0  0  0  0  0  0  0
   -1.3910   17.1530  -34.4180 C   0  0  0  0  0  0  0  0  0  0  0  0
   -0.5465   17.7241  -34.0050 H   0  0  0  0  0  0  0  0  0  0  0  0
   -1.1850   15.8770  -34.9440 C   0  0  0  0  0  0  0  0  0  0  0  0
   -0.1746   15.4423  -34.9501 H   0  0  0  0  0  0  0  0  0  0  0  0
   -2.2620   15.1490  -35.4640 C   0  0  0  0  0  0  0  0  0  0  0  0
   -2.0480   13.7940  -36.0700 C   0  0  0  0  0  0  0  0  0  0  0  0
   -1.9303   13.0488  -35.2695 H   0  0  0  0  0  0  0  0  0  0  0  0
   -2.9155   13.5296  -36.6925 H   0  0  0  0  0  0  0  0  0  0  0  0
   -1.1412   13.8098  -36.6925 H   0  0  0  0  0  0  0  0  0  0  0  0
  1  2  1  0
  2  3  2  0
  3  4  1  0
  4  5  1  0
  5  6  1  0
  6  7  1  0
  6  8  1  0
  6  9  1  0
  9 10  1  0
 10 11  1  0
 11 12  2  0
 12 13  1  0
 13 14  2  0
 13 15  1  0
 15 16  1  0
 16 17  2  0
 17 18  1  0
 17 19  1  0
 19 20  1  0
 19 21  2  0
 21 22  1  0
 21 23  1  0
 23 24  1  0
 23 25  2  0
 25 26  1  0
 26 27  1  0
 27 28  1  0
 27 29  1  0
 27 30  1  0
 11 31  1  0
 31 32  1  0
 31 33  1  0
 33 34  1  0
 34 35  1  0
 34 36  1  0
 34 37  1  0
 37 38  1  0
 37 39  1  0
  4 40  2  0
 40 41  1  0
 40 42  1  0
 42 43  1  0
 42 44  2  0
 44 45  1  0
 45 46  1  0
 45 47  1  0
 45 48  1  0
 44  2  1  0
 37  5  1  0
 33  9  2  0
 25 16  1  0
M  CHG  1  15  -1
M  END
>  <UniqueID>  (19) 
19

>  <SMILES>  (19) 
COc1ccccc1[N-]C(=O)/N=c1\[nH]c2c(s1)CN(c1ccc(C)cn1)CC2

>  <Energy>  (19) 
94.26411141327901

>  <Genealogy>  (19) 
COc1ccccc1[N-]C(=O)N=c1[nH]c2c(s1)CN(c1ccc(C)cn1)CC2 (protonated)
COc1ccccc1[N-]C(=O)/N=c1\[nH]c2c(s1)CN(c1ccc(C)cn1)CC2 (cis-trans isomerization)
COc1ccccc1[N-]C(=O)/N=c1\[nH]c2c(s1)CN(c1ccc(C)cn1)CC2 (3D coordinates assigned)
COc1ccccc1[N-]C(=O)/N=c1\[nH]c2c(s1)CN(c1ccc(C)cn1)CC2 (nonaromatic ring conformer: 94.26411141327901 kcal/mol)

>  <smiles>  (19) 
COc1ccccc1NC(=O)N=c1[nH]c2c(s1)CN(c1ccc(C)cn1)CC2

>  <score_type>  (19) 
oracle

>  <origin>  (19) 
adgpu

>  <m_score__min__energy>  (19) 
-10

>  <m_primary>  (19) 
energy

$$$$
19:0
     RDKit          3D

 47 50  0  0  0  0  0  0  0  0999 V2000
   -5.5040   17.9690  -34.9620 C   0  0  0  0  0  0  0  0  0  0  0  0
   -6.5070   17.0480  -34.2230 C   0  0  1  0  0  0  0  0  0  0  0  0
   -5.9550   15.6040  -34.1810 C   0  0  0  0  0  0  0  0  0  0  0  0
   -5.3540   15.4350  -32.7960 C   0  0  0  0  0  0  0  0  0  0  0  0
   -6.0040   16.5220  -32.0290 C   0  0  0  0  0  0  0  0  0  0  0  0
   -5.9300   16.6040  -30.8110 O   0  0  0  0  0  0  0  0  0  0  0  0
   -6.8010   17.4240  -32.8090 N   0  0  1  0  0  0  0  0  0  0  0  0
   -6.5620   18.8100  -32.4400 C   0  0  0  0  0  0  0  0  0  0  0  0
   -7.4940   19.8000  -32.7600 C   0  0  0  0  0  0  0  0  0  0  0  0
   -7.3070   21.1060  -32.3060 C   0  0  0  0  0  0  0  0  0  0  0  0
   -6.1690   21.4440  -31.5600 C   0  0  0  0  0  0  0  0  0  0  0  0
   -5.9480   22.8520  -31.1090 C   0  0  0  0  0  0  0  0  0  0  0  0
   -7.0310   23.5870  -30.5820 C   0  0  0  0  0  0  0  0  0  0  0  0
   -6.8690   24.9130  -30.1870 C   0  0  0  0  0  0  0  0  0  0  0  0
   -5.6260   25.5230  -30.3390 C   0  0  0  0  0  0  0  0  0  0  0  0
   -4.5810   24.8180  -30.8430 N   0  0  0  0  0  0  0  0  0  0  0  0
   -4.6930   23.5120  -31.2160 C   0  0  0  0  0  0  0  0  0  0  0  0
   -3.5160   22.8300  -31.6610 N   0  0  0  0  0  0  0  0  0  0  0  0
   -2.4720   22.4150  -30.7440 C   0  0  0  0  0  0  0  0  0  0  0  0
   -1.4890   21.6220  -31.5880 C   0  0  0  0  0  0  0  0  0  0  0  0
   -2.2680   21.1870  -32.8260 C   0  0  0  0  0  0  0  0  0  0  0  0
   -3.4410   22.1530  -32.9430 C   0  0  0  0  0  0  0  0  0  0  0  0
   -5.2290   20.4280  -31.2980 C   0  0  0  0  0  0  0  0  0  0  0  0
   -5.4610   19.1540  -31.7100 N   0  0  0  0  0  0  0  0  0  0  0  0
   -4.9023   18.5215  -34.2254 H   0  0  0  0  0  0  0  0  0  0  0  0
   -4.8413   17.3581  -35.5927 H   0  0  0  0  0  0  0  0  0  0  0  0
   -6.0563   18.6812  -35.5927 H   0  0  0  0  0  0  0  0  0  0  0  0
   -7.4394   17.1489  -34.7978 H   0  0  0  0  0  0  0  0  0  0  0  0
   -6.7665   14.8782  -34.3383 H   0  0  0  0  0  0  0  0  0  0  0  0
   -5.2098   15.4306  -34.9714 H   0  0  0  0  0  0  0  0  0  0  0  0
   -5.5993   14.4492  -32.3740 H   0  0  0  0  0  0  0  0  0  0  0  0
   -4.2553   15.4878  -32.7856 H   0  0  0  0  0  0  0  0  0  0  0  0
   -7.8020   17.1780  -32.6120 H   0  0  0  0  0  0  0  0  0  0  0  0
   -8.3749   19.5501  -33.3696 H   0  0  0  0  0  0  0  0  0  0  0  0
   -8.0581   21.8763  -32.5351 H   0  0  0  0  0  0  0  0  0  0  0  0
   -8.0156   23.1069  -30.4818 H   0  0  0  0  0  0  0  0  0  0  0  0
   -7.7140   25.4726  -29.7594 H   0  0  0  0  0  0  0  0  0  0  0  0
   -5.4911   26.5759  -30.0507 H   0  0  0  0  0  0  0  0  0  0  0  0
   -1.9785   23.2919  -30.2997 H   0  0  0  0  0  0  0  0  0  0  0  0
   -2.8715   21.8184  -29.9107 H   0  0  0  0  0  0  0  0  0  0  0  0
   -0.6336   22.2516  -31.8743 H   0  0  0  0  0  0  0  0  0  0  0  0
   -1.0841   20.7595  -31.0383 H   0  0  0  0  0  0  0  0  0  0  0  0
   -1.6306   21.2491  -33.7204 H   0  0  0  0  0  0  0  0  0  0  0  0
   -2.6101   20.1449  -32.7421 H   0  0  0  0  0  0  0  0  0  0  0  0
   -3.2626   22.8781  -33.7507 H   0  0  0  0  0  0  0  0  0  0  0  0
   -4.3781   21.6294  -33.1832 H   0  0  0  0  0  0  0  0  0  0  0  0
   -4.3018   20.6673  -30.7567 H   0  0  0  0  0  0  0  0  0  0  0  0
  1  2  1  0
  2  3  1  0
  3  4  1  0
  4  5  1  0
  5  6  2  0
  5  7  1  0
  7  8  1  0
  8  9  2  0
  9 10  1  0
 10 11  2  0
 11 12  1  0
 12 13  2  0
 13 14  1  0
 14 15  2  0
 15 16  1  0
 16 17  2  0
 17 18  1  0
 18 19  1  0
 19 20  1  0
 20 21  1  0
 21 22  1  0
 11 23  1  0
 23 24  2  0
  7  2  1  0
 24  8  1  0
 17 12  1  0
 22 18  1  0
  1 25  1  0
  1 26  1  0
  1 27  1  0
  2 28  1  6
  3 29  1  0
  3 30  1  0
  4 31  1  0
  4 32  1  0
  7 33  1  1
  9 34  1  0
 10 35  1  0
 13 36  1  0
 14 37  1  0
 15 38  1  0
 19 39  1  0
 19 40  1  0
 20 41  1  0
 20 42  1  0
 21 43  1  0
 21 44  1  0
 22 45  1  0
 22 46  1  0
 23 47  1  0
M  CHG  1   7   1
M  END
>  <UniqueID>  (20) 
20

>  <SMILES>  (20) 
C[C@H]1CCC(=O)[N@H+]1c1ccc(-c2cccnc2N2CCCC2)cn1

>  <Energy>  (20) 
73.17317016488543

>  <Genealogy>  (20) 
CC1CCC(=O)[NH+]1c1ccc(-c2cccnc2N2CCCC2)cn1 (protonated)
C[C@H]1CCC(=O)[N@H+]1c1ccc(-c2cccnc2N2CCCC2)cn1 (chirality)
C[C@H]1CCC(=O)[N@H+]1c1ccc(-c2cccnc2N2CCCC2)cn1 (3D coordinates assigned)
C[C@H]1CCC(=O)[N@H+]1c1ccc(-c2cccnc2N2CCCC2)cn1 (nonaromatic ring conformer: 73.17317016488543 kcal/mol)

>  <smiles>  (20) 
CC1CCC(=O)N1c1ccc(-c2cccnc2N2CCCC2)cn1

>  <score_type>  (20) 
oracle

>  <origin>  (20) 
adgpu

>  <m_score__min__energy>  (20) 
-7.7800000000000002

>  <m_primary>  (20) 
energy

$$$$
20:0
     RDKit          3D

 47 50  0  0  1  0  0  0  0  0999 V2000
   -0.8590   22.9800  -25.1970 N   0  0  0  0  0  0  0  0  0  0  0  0
   -0.7610   22.7790  -26.5910 C   0  0  0  0  0  0  0  0  0  0  0  0
    0.1650   21.9900  -26.9710 O   0  0  0  0  0  0  0  0  0  0  0  0
   -1.5670   23.3660  -27.6250 C   0  0  0  0  0  0  0  0  0  0  0  0
   -2.7890   22.7200  -27.8750 C   0  0  0  0  0  0  0  0  0  0  0  0
   -3.6390   23.1400  -28.8230 N   0  0  0  0  0  0  0  0  0  0  0  0
   -3.3500   24.2110  -29.5800 C   0  0  0  0  0  0  0  0  0  0  0  0
   -4.1840   24.5760  -30.4710 N   0  0  0  0  0  0  0  0  0  0  0  0
   -5.4390   23.9220  -30.7420 C   0  0  0  0  0  0  0  0  0  0  0  0
   -5.1030   22.8430  -31.7750 C   0  0  0  0  0  0  0  0  0  0  0  0
   -6.2220   21.9350  -32.0450 C   0  0  0  0  0  0  0  0  0  0  0  0
   -7.5150   22.2340  -31.6400 C   0  0  0  0  0  0  0  0  0  0  0  0
   -8.5830   21.3860  -31.8890 C   0  0  0  0  0  0  0  0  0  0  0  0
   -8.3710   20.1840  -32.5690 C   0  0  0  0  0  0  0  0  0  0  0  0
   -7.0810   19.8700  -32.9820 C   0  0  0  0  0  0  0  0  0  0  0  0
   -6.0210   20.7440  -32.7190 C   0  0  0  0  0  0  0  0  0  0  0  0
   -2.1900   24.8470  -29.3590 N   0  0  0  0  0  0  0  0  0  0  0  0
   -1.3020   24.4460  -28.4000 C   0  0  0  0  0  0  0  0  0  0  0  0
   -0.3240   25.1820  -28.1900 N   0  0  0  0  0  0  0  0  0  0  0  0
    0.6600   25.1180  -27.2090 C   0  0  0  0  0  0  0  0  0  0  0  0
    1.9340   24.5670  -27.4410 C   0  0  0  0  0  0  0  0  0  0  0  0
    2.8620   24.4500  -26.4340 C   0  0  0  0  0  0  0  0  0  0  0  0
    2.5100   24.8950  -25.1680 C   0  0  0  0  0  0  0  0  0  0  0  0
    1.2680   25.4330  -24.9350 C   0  0  0  0  0  0  0  0  0  0  0  0
    0.6940   25.9270  -23.8210 N   0  0  0  0  0  0  0  0  0  0  0  0
   -0.5390   26.3440  -24.0770 N   0  0  0  0  0  0  0  0  0  0  0  0
   -0.8200   26.1360  -25.3860 C   0  0  0  0  0  0  0  0  0  0  0  0
    0.3150   25.5650  -25.9220 C   0  0  0  0  0  0  0  0  0  0  0  0
   -0.9950   23.9600  -24.8630 H   0  0  0  0  0  0  0  0  0  0  0  0
   -0.8040   22.2170  -24.4820 H   0  0  0  0  0  0  0  0  0  0  0  0
   -3.0577   21.8397  -27.2726 H   0  0  0  0  0  0  0  0  0  0  0  0
   -4.5360   22.6170  -28.9630 H   0  0  0  0  0  0  0  0  0  0  0  0
   -5.8452   23.4683  -29.8260 H   0  0  0  0  0  0  0  0  0  0  0  0
   -6.2024   24.6241  -31.1084 H   0  0  0  0  0  0  0  0  0  0  0  0
   -4.8179   23.3363  -32.7160 H   0  0  0  0  0  0  0  0  0  0  0  0
   -4.2828   22.2378  -31.3613 H   0  0  0  0  0  0  0  0  0  0  0  0
   -7.6989   23.1762  -31.1029 H   0  0  0  0  0  0  0  0  0  0  0  0
   -9.5941   21.6586  -31.5523 H   0  0  0  0  0  0  0  0  0  0  0  0
   -9.2078   19.4999  -32.7735 H   0  0  0  0  0  0  0  0  0  0  0  0
   -6.8929   18.9285  -33.5188 H   0  0  0  0  0  0  0  0  0  0  0  0
   -5.0076   20.4789  -33.0548 H   0  0  0  0  0  0  0  0  0  0  0  0
   -1.9900   25.6750  -29.9610 H   0  0  0  0  0  0  0  0  0  0  0  0
    2.1933   24.2216  -28.4527 H   0  0  0  0  0  0  0  0  0  0  0  0
    3.8545   24.0163  -26.6262 H   0  0  0  0  0  0  0  0  0  0  0  0
    3.2328   24.8162  -24.3426 H   0  0  0  0  0  0  0  0  0  0  0  0
    1.2050   25.9530  -22.8950 H   0  0  0  0  0  0  0  0  0  0  0  0
   -1.7571   26.3729  -25.9111 H   0  0  0  0  0  0  0  0  0  0  0  0
  1  2  1  0
  2  3  2  0
  2  4  1  0
  4  5  2  0
  5  6  1  0
  6  7  1  0
  7  8  2  0
  8  9  1  0
  9 10  1  0
 10 11  1  0
 11 12  2  0
 12 13  1  0
 13 14  2  0
 14 15  1  0
 15 16  2  0
  7 17  1  0
 17 18  1  0
 18 19  2  0
 19 20  1  0
 20 21  2  0
 21 22  1  0
 22 23  2  0
 23 24  1  0
 24 25  1  0
 25 26  1  0
 26 27  2  0
 27 28  1  0
 18  4  1  0
 28 20  1  0
 16 11  1  0
 28 24  2  0
  1 29  1  0
  1 30  1  0
  5 31  1  0
  6 32  1  0
  9 33  1  0
  9 34  1  0
 10 35  1  0
 10 36  1  0
 12 37  1  0
 13 38  1  0
 14 39  1  0
 15 40  1  0
 16 41  1  0
 17 42  1  0
 21 43  1  0
 22 44  1  0
 23 45  1  0
 25 46  1  0
 27 47  1  0
M  END
>  <smiles>  (21) 
NC(=O)c1c[nH]c(=NCCc2ccccc2)[nH]c1=Nc1cccc2[nH]ncc12

>  <score_type>  (21) 
oracle

>  <origin>  (21) 
adgpu

>  <m_score__min__energy>  (21) 
-10

>  <m_primary>  (21) 
energy

$$$$
21:0
     RDKit          3D

 58 60  0  0  0  0  0  0  0  0999 V2000
   -0.1080   23.5180  -25.9890 C   0  0  0  0  0  0  0  0  0  0  0  0
   -1.2000   23.5370  -27.0210 C   0  0  0  0  0  0  0  0  0  0  0  0
   -1.9590   22.3810  -27.2580 C   0  0  0  0  0  0  0  0  0  0  0  0
   -2.9810   22.3860  -28.2110 C   0  0  0  0  0  0  0  0  0  0  0  0
   -3.2620   23.5460  -28.9510 C   0  0  0  0  0  0  0  0  0  0  0  0
   -4.3520   23.5430  -29.9570 C   0  0  0  0  0  0  0  0  0  0  0  0
   -4.0970   23.8810  -31.1460 O   0  0  0  0  0  0  0  0  0  0  0  0
   -5.7000   23.2130  -29.5820 N   0  0  0  0  0  0  0  0  0  0  0  0
   -6.7170   22.8090  -30.5160 C   0  0  0  0  0  0  0  0  0  0  0  0
   -7.5940   23.7720  -31.0350 C   0  0  0  0  0  0  0  0  0  0  0  0
   -8.5930   23.4050  -31.9380 C   0  0  0  0  0  0  0  0  0  0  0  0
   -8.7350   22.0710  -32.3240 C   0  0  0  0  0  0  0  0  0  0  0  0
   -7.8810   21.0830  -31.8020 C   0  0  0  0  0  0  0  0  0  0  0  0
   -8.0160   19.6270  -32.2150 C   0  0  1  0  0  0  0  0  0  0  0  0
   -9.4860   19.2630  -32.4390 C   0  0  0  0  0  0  0  0  0  0  0  0
   -7.2440   19.3170  -33.4370 N   0  0  0  0  0  0  0  0  0  0  0  0
   -5.9410   18.6870  -33.1660 C   0  0  0  0  0  0  0  0  0  0  0  0
   -4.8340   19.6930  -33.0670 C   0  0  0  0  0  0  0  0  0  0  0  0
   -3.5900   19.3950  -32.6390 N   0  0  0  0  0  0  0  0  0  0  0  0
   -2.9400   20.5740  -32.7270 C   0  0  0  0  0  0  0  0  0  0  0  0
   -1.4920   20.7950  -32.3220 C   0  0  0  0  0  0  0  0  0  0  0  0
   -1.4280   21.9140  -31.2670 C   0  0  0  0  0  0  0  0  0  0  0  0
   -0.6640   21.2020  -33.5560 C   0  0  0  0  0  0  0  0  0  0  0  0
   -0.8950   19.5050  -31.7260 C   0  0  0  0  0  0  0  0  0  0  0  0
   -3.8150   21.5370  -33.1870 C   0  0  0  0  0  0  0  0  0  0  0  0
   -4.9720   20.9590  -33.3890 O   0  0  0  0  0  0  0  0  0  0  0  0
   -6.8830   21.4620  -30.8840 C   0  0  0  0  0  0  0  0  0  0  0  0
   -2.5090   24.7070  -28.7060 C   0  0  0  0  0  0  0  0  0  0  0  0
   -1.4850   24.7090  -27.7510 C   0  0  0  0  0  0  0  0  0  0  0  0
   -0.5080   26.3360  -27.4680 Br  0  0  0  0  0  0  0  0  0  0  0  0
   -0.5537   23.5258  -24.9834 H   0  0  0  0  0  0  0  0  0  0  0  0
    0.4989   22.6092  -26.1141 H   0  0  0  0  0  0  0  0  0  0  0  0
    0.5302   24.4052  -26.1141 H   0  0  0  0  0  0  0  0  0  0  0  0
   -1.7479   21.4635  -26.6891 H   0  0  0  0  0  0  0  0  0  0  0  0
   -3.5705   21.4734  -28.3830 H   0  0  0  0  0  0  0  0  0  0  0  0
   -5.9910   23.3990  -28.5950 H   0  0  0  0  0  0  0  0  0  0  0  0
   -7.4941   24.8237  -30.7285 H   0  0  0  0  0  0  0  0  0  0  0  0
   -9.2704   24.1692  -32.3467 H   0  0  0  0  0  0  0  0  0  0  0  0
   -9.5203   21.7906  -33.0414 H   0  0  0  0  0  0  0  0  0  0  0  0
   -7.6053   19.0262  -31.3902 H   0  0  0  0  0  0  0  0  0  0  0  0
   -9.9854   19.1393  -31.4667 H   0  0  0  0  0  0  0  0  0  0  0  0
   -9.9803   20.0659  -33.0056 H   0  0  0  0  0  0  0  0  0  0  0  0
   -9.5486   18.3222  -33.0056 H   0  0  0  0  0  0  0  0  0  0  0  0
   -7.1220   20.1640  -34.0400 H   0  0  0  0  0  0  0  0  0  0  0  0
   -6.0048   18.1362  -32.2160 H   0  0  0  0  0  0  0  0  0  0  0  0
   -5.7109   18.0139  -34.0050 H   0  0  0  0  0  0  0  0  0  0  0  0
   -1.4533   21.4709  -30.2605 H   0  0  0  0  0  0  0  0  0  0  0  0
   -0.4958   22.4841  -31.3933 H   0  0  0  0  0  0  0  0  0  0  0  0
   -2.2891   22.5867  -31.3933 H   0  0  0  0  0  0  0  0  0  0  0  0
    0.2785   21.6653  -33.2286 H   0  0  0  0  0  0  0  0  0  0  0  0
   -0.4435   20.3096  -34.1602 H   0  0  0  0  0  0  0  0  0  0  0  0
   -1.2359   21.9217  -34.1602 H   0  0  0  0  0  0  0  0  0  0  0  0
   -0.9214   19.5621  -30.6278 H   0  0  0  0  0  0  0  0  0  0  0  0
   -1.4839   18.6389  -32.0624 H   0  0  0  0  0  0  0  0  0  0  0  0
    0.1463   19.3934  -32.0624 H   0  0  0  0  0  0  0  0  0  0  0  0
   -3.5821   22.5990  -33.3539 H   0  0  0  0  0  0  0  0  0  0  0  0
   -6.2251   20.6950  -30.4493 H   0  0  0  0  0  0  0  0  0  0  0  0
   -2.7267   25.6252  -29.2713 H   0  0  0  0  0  0  0  0  0  0  0  0
  1  2  1  0
  2  3  2  0
  3  4  1  0
  4  5  2  0
  5  6  1  0
  6  7  2  0
  6  8  1  0
  8  9  1  0
  9 10  2  0
 10 11  1  0
 11 12  2  0
 12 13  1  0
 13 14  1  0
 14 15  1  0
 14 16  1  0
 16 17  1  0
 17 18  1  0
 18 19  2  0
 19 20  1  0
 20 21  1  0
 21 22  1  0
 21 23  1  0
 21 24  1  0
 20 25  2  0
 25 26  1  0
 13 27  2  0
  5 28  1  0
 28 29  2  0
 29 30  1  0
 29  2  1  0
 27  9  1  0
 26 18  1  0
  1 31  1  0
  1 32  1  0
  1 33  1  0
  3 34  1  0
  4 35  1  0
  8 36  1  0
 10 37  1  0
 11 38  1  0
 12 39  1  0
 14 40  1  1
 15 41  1  0
 15 42  1  0
 15 43  1  0
 16 44  1  0
 17 45  1  0
 17 46  1  0
 22 47  1  0
 22 48  1  0
 22 49  1  0
 23 50  1  0
 23 51  1  0
 23 52  1  0
 24 53  1  0
 24 54  1  0
 24 55  1  0
 25 56  1  0
 27 57  1  0
 28 58  1  0
M  END
>  <UniqueID>  (22) 
21

>  <SMILES>  (22) 
Cc1ccc(C(=O)Nc2cccc([C@@H](C)NCc3nc(C(C)(C)C)co3)c2)cc1Br

>  <Energy>  (22) 
85.60874081890275

>  <Genealogy>  (22) 
Cc1ccc(C(=O)Nc2cccc([C@@H](C)NCc3nc(C(C)(C)C)co3)c2)cc1Br (chirality)
Cc1ccc(C(=O)Nc2cccc([C@@H](C)NCc3nc(C(C)(C)C)co3)c2)cc1Br (3D coordinates assigned)
Cc1ccc(C(=O)Nc2cccc([C@@H](C)NCc3nc(C(C)(C)C)co3)c2)cc1Br (optimized conformer: 85.60874081890275 kcal/mol)

>  <smiles>  (22) 
Cc1ccc(C(=O)Nc2cccc(C(C)NCc3nc(C(C)(C)C)co3)c2)cc1Br

>  <score_type>  (22) 
oracle

>  <origin>  (22) 
adgpu

>  <m_score__min__energy>  (22) 
-10.68

>  <m_primary>  (22) 
energy

$$$$
22:0
     RDKit          3D

 31 32  0  0  0  0  0  0  0  0999 V2000
   -5.3590   26.0410  -30.8530 O   0  0  0  0  0  0  0  0  0  0  0  0
   -4.5480   25.0850  -30.7490 C   0  0  0  0  0  0  0  0  0  0  0  0
   -4.6660   23.9320  -31.5930 N   0  0  0  0  0  0  0  0  0  0  0  0
   -5.8340   23.1180  -31.7790 C   0  0  0  0  0  0  0  0  0  0  0  0
   -7.0530   23.4060  -31.1470 C   0  0  0  0  0  0  0  0  0  0  0  0
   -8.1600   22.5750  -31.3360 C   0  0  0  0  0  0  0  0  0  0  0  0
   -8.0710   21.4300  -32.1490 C   0  0  0  0  0  0  0  0  0  0  0  0
   -9.2700   20.5730  -32.3270 C   0  0  0  0  0  0  0  0  0  0  0  0
   -9.1610   19.3290  -32.4940 O   0  0  0  0  0  0  0  0  0  0  0  0
  -10.5420   21.1340  -32.3150 O   0  0  0  0  0  0  0  0  0  0  0  0
   -6.8340   21.1260  -32.7640 C   0  0  0  0  0  0  0  0  0  0  0  0
   -6.6970   19.9950  -33.5680 O   0  0  0  0  0  0  0  0  0  0  0  0
   -5.7280   21.9680  -32.5660 C   0  0  0  0  0  0  0  0  0  0  0  0
   -3.5060   25.1630  -29.7690 N   0  0  0  0  0  0  0  0  0  0  0  0
   -3.0840   24.1060  -28.8940 C   0  0  0  0  0  0  0  0  0  0  0  0
   -3.9160   22.9920  -28.6750 C   0  0  0  0  0  0  0  0  0  0  0  0
   -3.5010   21.9450  -27.8510 C   0  0  0  0  0  0  0  0  0  0  0  0
   -2.2470   21.9870  -27.2470 C   0  0  0  0  0  0  0  0  0  0  0  0
   -1.3970   23.0710  -27.4730 C   0  0  0  0  0  0  0  0  0  0  0  0
   -1.7940   24.1390  -28.3010 C   0  0  0  0  0  0  0  0  0  0  0  0
   -0.8490   25.2700  -28.5080 C   0  0  0  0  0  0  0  0  0  0  0  0
   -1.2380   26.3670  -28.9900 O   0  0  0  0  0  0  0  0  0  0  0  0
    0.4910   25.1340  -28.1650 O   0  0  0  0  0  0  0  0  0  0  0  0
   -7.1376   24.2909  -30.4991 H   0  0  0  0  0  0  0  0  0  0  0  0
   -9.1128   22.8188  -30.8433 H   0  0  0  0  0  0  0  0  0  0  0  0
   -7.5000   19.4580  -33.8760 H   0  0  0  0  0  0  0  0  0  0  0  0
   -4.7654   21.7192  -33.0366 H   0  0  0  0  0  0  0  0  0  0  0  0
   -4.9031   22.9462  -29.1582 H   0  0  0  0  0  0  0  0  0  0  0  0
   -4.1653   21.0854  -27.6784 H   0  0  0  0  0  0  0  0  0  0  0  0
   -1.9257   21.1647  -26.5908 H   0  0  0  0  0  0  0  0  0  0  0  0
   -0.4048   23.0914  -26.9985 H   0  0  0  0  0  0  0  0  0  0  0  0
  1  2  2  0
  2  3  1  0
  3  4  1  0
  4  5  2  0
  5  6  1  0
  6  7  2  0
  7  8  1  0
  8  9  2  0
  8 10  1  0
  7 11  1  0
 11 12  1  0
 11 13  2  0
  2 14  1  0
 14 15  1  0
 15 16  2  0
 16 17  1  0
 17 18  2  0
 18 19  1  0
 19 20  2  0
 20 21  1  0
 21 22  2  0
 21 23  1  0
 13  4  1  0
 20 15  1  0
  5 24  1  0
  6 25  1  0
 12 26  1  0
 13 27  1  0
 16 28  1  0
 17 29  1  0
 18 30  1  0
 19 31  1  0
M  CHG  4   3  -1  10  -1  14  -1  23  -1
M  END
>  <UniqueID>  (23) 
22

>  <SMILES>  (23) 
O=C([N-]c1ccc(C(=O)[O-])c(O)c1)[N-]c1ccccc1C(=O)[O-]

>  <Energy>  (23) 
44.02360878400663

>  <Genealogy>  (23) 
O=C([N-]c1ccc(C(=O)[O-])c(O)c1)[N-]c1ccccc1C(=O)[O-] (protonated)
O=C([N-]c1ccc(C(=O)[O-])c(O)c1)[N-]c1ccccc1C(=O)[O-] (3D coordinates assigned)
O=C([N-]c1ccc(C(=O)[O-])c(O)c1)[N-]c1ccccc1C(=O)[O-] (optimized conformer: 44.02360878400663 kcal/mol)

>  <smiles>  (23) 
O=C(Nc1ccc(C(=O)O)c(O)c1)Nc1ccccc1C(=O)O

>  <score_type>  (23) 
oracle

>  <origin>  (23) 
adgpu

>  <m_score__min__energy>  (23) 
-11.41

>  <m_primary>  (23) 
energy

$$$$
23:0
     RDKit          3D

 39 41  0  0  1  0  0  0  0  0999 V2000
   -4.0740   24.4750  -27.1070 C   0  0  0  0  0  0  0  0  0  0  0  0
   -3.9860   23.4030  -28.1760 C   0  0  0  0  0  0  0  0  0  0  0  0
   -4.6160   23.7990  -29.4540 C   0  0  0  0  0  0  0  0  0  0  0  0
   -5.9020   23.4030  -29.8030 C   0  0  0  0  0  0  0  0  0  0  0  0
   -6.1160   23.9760  -31.0590 C   0  0  0  0  0  0  0  0  0  0  0  0
   -7.3940   23.7900  -31.7960 C   0  0  0  0  0  0  0  0  0  0  0  0
   -7.8300   22.4300  -31.5120 N   0  0  0  0  0  0  0  0  0  0  0  0
   -7.2320   21.3790  -31.9050 C   0  0  0  0  0  0  0  0  0  0  0  0
   -7.7490   20.1400  -31.5670 C   0  0  0  0  0  0  0  0  0  0  0  0
   -7.1140   18.9890  -31.9850 C   0  0  0  0  0  0  0  0  0  0  0  0
   -5.9910   19.1510  -32.7200 N   0  0  0  0  0  0  0  0  0  0  0  0
   -5.5020   20.3680  -33.0390 C   0  0  0  0  0  0  0  0  0  0  0  0
   -4.2960   20.3980  -33.8280 N   0  0  0  0  0  0  0  0  0  0  0  0
   -3.2200   20.8630  -33.2520 C   0  0  0  0  0  0  0  0  0  0  0  0
   -3.1420   21.3250  -31.9550 C   0  0  0  0  0  0  0  0  0  0  0  0
   -1.8500   21.7340  -31.7000 C   0  0  0  0  0  0  0  0  0  0  0  0
   -1.3140   22.3020  -30.4290 C   0  0  0  0  0  0  0  0  0  0  0  0
   -1.1660   21.5150  -32.8380 N   0  0  0  0  0  0  0  0  0  0  0  0
   -1.9840   20.9940  -33.7650 N   0  0  0  0  0  0  0  0  0  0  0  0
   -6.1040   21.5160  -32.6430 N   0  0  0  0  0  0  0  0  0  0  0  0
   -5.0410   24.6460  -31.4020 O   0  0  0  0  0  0  0  0  0  0  0  0
   -4.1380   24.5530  -30.4620 N   0  0  0  0  0  0  0  0  0  0  0  0
   -4.0355   24.0056  -26.1129 H   0  0  0  0  0  0  0  0  0  0  0  0
   -3.2300   25.1720  -27.2163 H   0  0  0  0  0  0  0  0  0  0  0  0
   -5.0203   25.0250  -27.2163 H   0  0  0  0  0  0  0  0  0  0  0  0
   -2.9247   23.1828  -28.3633 H   0  0  0  0  0  0  0  0  0  0  0  0
   -4.5316   22.5241  -27.8021 H   0  0  0  0  0  0  0  0  0  0  0  0
   -6.5956   22.7785  -29.2208 H   0  0  0  0  0  0  0  0  0  0  0  0
   -8.1455   24.5128  -31.4455 H   0  0  0  0  0  0  0  0  0  0  0  0
   -7.2623   23.9524  -32.8759 H   0  0  0  0  0  0  0  0  0  0  0  0
   -8.6670   20.0734  -30.9646 H   0  0  0  0  0  0  0  0  0  0  0  0
   -7.5014   17.9907  -31.7332 H   0  0  0  0  0  0  0  0  0  0  0  0
   -5.5220   18.2630  -33.0280 H   0  0  0  0  0  0  0  0  0  0  0  0
   -3.9763   21.3614  -31.2390 H   0  0  0  0  0  0  0  0  0  0  0  0
   -1.7887   21.7990  -29.5737 H   0  0  0  0  0  0  0  0  0  0  0  0
   -0.2258   22.1465  -30.3881 H   0  0  0  0  0  0  0  0  0  0  0  0
   -1.5323   23.3794  -30.3881 H   0  0  0  0  0  0  0  0  0  0  0  0
   -0.1490   21.7380  -32.9240 H   0  0  0  0  0  0  0  0  0  0  0  0
   -1.7110   20.7360  -34.7190 H   0  0  0  0  0  0  0  0  0  0  0  0
  1  2  1  0
  2  3  1  0
  3  4  1  0
  4  5  2  0
  5  6  1  0
  6  7  1  0
  7  8  2  0
  8  9  1  0
  9 10  2  0
 10 11  1  0
 11 12  1  0
 12 13  1  0
 13 14  2  0
 14 15  1  0
 15 16  2  0
 16 17  1  0
 16 18  1  0
 18 19  1  0
 12 20  2  0
  5 21  1  0
 21 22  1  0
 22  3  2  0
 20  8  1  0
 19 14  1  0
  1 23  1  0
  1 24  1  0
  1 25  1  0
  2 26  1  0
  2 27  1  0
  4 28  1  0
  6 29  1  0
  6 30  1  0
  9 31  1  0
 10 32  1  0
 11 33  1  0
 15 34  1  0
 17 35  1  0
 17 36  1  0
 17 37  1  0
 18 38  1  0
 19 39  1  0
M  END
>  <smiles>  (24) 
CCc1cc(CN=c2cc[nH]c(N=c3cc(C)[nH][nH]3)n2)on1

>  <score_type>  (24) 
oracle

>  <origin>  (24) 
adgpu

>  <m_score__min__energy>  (24) 
-8.1400000000000006

>  <m_primary>  (24) 
energy

$$$$
24:0
     RDKit          3D

 29 31  0  0  0  0  0  0  0  0999 V2000
   -0.7222   26.2100  -27.8774 H   0  0  0  0  0  0  0  0  0  0  0  0
   -1.5600   25.5380  -28.1150 C   0  0  0  0  0  0  0  0  0  0  0  0
   -2.0210   25.3020  -29.3210 O   0  0  0  0  0  0  0  0  0  0  0  0
   -3.0230   24.4580  -29.2320 C   0  0  0  0  0  0  0  0  0  0  0  0
   -3.7770   23.9600  -30.3970 C   0  0  0  0  0  0  0  0  0  0  0  0
   -3.1890   23.2310  -31.2380 O   0  0  0  0  0  0  0  0  0  0  0  0
   -5.1780   24.2180  -30.5590 N   0  0  0  0  0  0  0  0  0  0  0  0
   -6.0430   23.4050  -31.0910 C   0  0  0  0  0  0  0  0  0  0  0  0
   -7.6540   23.8020  -31.3340 S   0  0  0  0  0  0  0  0  0  0  0  0
   -8.0370   22.2950  -31.9820 C   0  0  0  0  0  0  0  0  0  0  0  0
   -9.0284   21.9825  -32.3417 H   0  0  0  0  0  0  0  0  0  0  0  0
   -6.8810   21.5090  -31.9850 C   0  0  0  0  0  0  0  0  0  0  0  0
   -6.8390   20.1160  -32.4950 C   0  0  0  0  0  0  0  0  0  0  0  0
   -5.9590   19.7650  -33.5350 C   0  0  0  0  0  0  0  0  0  0  0  0
   -5.2970   20.5272  -33.9718 H   0  0  0  0  0  0  0  0  0  0  0  0
   -5.9210   18.4520  -34.0170 C   0  0  0  0  0  0  0  0  0  0  0  0
   -5.2295   18.1860  -34.8301 H   0  0  0  0  0  0  0  0  0  0  0  0
   -6.7580   17.4790  -33.4690 C   0  0  0  0  0  0  0  0  0  0  0  0
   -6.7190   16.2080  -33.9390 F   0  0  0  0  0  0  0  0  0  0  0  0
   -7.6380   17.8170  -32.4380 C   0  0  0  0  0  0  0  0  0  0  0  0
   -8.2989   17.0503  -32.0075 H   0  0  0  0  0  0  0  0  0  0  0  0
   -7.6810   19.1270  -31.9520 C   0  0  0  0  0  0  0  0  0  0  0  0
   -8.3768   19.3866  -31.1405 H   0  0  0  0  0  0  0  0  0  0  0  0
   -5.7790   22.1340  -31.4770 N   0  0  0  0  0  0  0  0  0  0  0  0
   -4.8570   21.6620  -31.3510 H   0  0  0  0  0  0  0  0  0  0  0  0
   -3.2290   24.1120  -27.9090 C   0  0  0  0  0  0  0  0  0  0  0  0
   -3.9871   23.4202  -27.5130 H   0  0  0  0  0  0  0  0  0  0  0  0
   -2.2860   24.8150  -27.1900 C   0  0  0  0  0  0  0  0  0  0  0  0
   -2.1413   24.8024  -26.0996 H   0  0  0  0  0  0  0  0  0  0  0  0
  1  2  1  0
  2  3  1  0
  3  4  1  0
  4  5  1  0
  5  6  2  0
  5  7  1  0
  7  8  2  0
  8  9  1  0
  9 10  1  0
 10 11  1  0
 10 12  2  0
 12 13  1  0
 13 14  2  0
 14 15  1  0
 14 16  1  0
 16 17  1  0
 16 18  2  0
 18 19  1  0
 18 20  1  0
 20 21  1  0
 20 22  2  0
 22 23  1  0
 12 24  1  0
 24 25  1  0
  4 26  2  0
 26 27  1  0
 26 28  1  0
 28 29  1  0
 28  2  2  0
 24  8  1  0
 22 13  1  0
M  END
>  <UniqueID>  (25) 
23

>  <SMILES>  (25) 
O=C(/N=c1\[nH]c(-c2ccc(F)cc2)cs1)c1ccco1

>  <Energy>  (25) 
96.77927520176367

>  <Genealogy>  (25) 
O=C(/N=c1\[nH]c(-c2ccc(F)cc2)cs1)c1ccco1 (cis-trans isomerization)
O=C(/N=c1\[nH]c(-c2ccc(F)cc2)cs1)c1ccco1 (3D coordinates assigned)
O=C(/N=c1\[nH]c(-c2ccc(F)cc2)cs1)c1ccco1 (optimized conformer: 96.77927520176367 kcal/mol)

>  <smiles>  (25) 
O=C(N=c1[nH]c(-c2ccc(F)cc2)cs1)c1ccco1

>  <score_type>  (25) 
oracle

>  <origin>  (25) 
adgpu

>  <m_score__min__energy>  (25) 
-7.6100000000000003

>  <m_primary>  (25) 
energy

$$$$
25:0
     RDKit          3D

 44 46  0  0  0  0  0  0  0  0999 V2000
   -1.9930   21.6680  -30.9510 C   0  0  0  0  0  0  0  0  0  0  0  0
   -2.4210   21.9250  -29.5410 C   0  0  0  0  0  0  0  0  0  0  0  0
   -2.5130   20.9650  -28.6050 N   0  0  0  0  0  0  0  0  0  0  0  0
   -2.9520   21.5610  -27.5320 O   0  0  0  0  0  0  0  0  0  0  0  0
   -3.1550   22.8400  -27.6870 N   0  0  0  0  0  0  0  0  0  0  0  0
   -2.8100   23.1150  -28.9560 C   0  0  0  0  0  0  0  0  0  0  0  0
   -2.9140   24.4590  -29.5560 C   0  0  0  0  0  0  0  0  0  0  0  0
   -2.0060   25.2990  -29.3230 O   0  0  0  0  0  0  0  0  0  0  0  0
   -4.0210   24.8500  -30.3780 N   0  0  0  0  0  0  0  0  0  0  0  0
   -5.1500   24.0320  -30.7120 C   0  0  0  0  0  0  0  0  0  0  0  0
   -5.7340   24.1680  -31.9780 C   0  0  0  0  0  0  0  0  0  0  0  0
   -6.8510   23.4030  -32.3260 C   0  0  0  0  0  0  0  0  0  0  0  0
   -7.3810   22.4770  -31.4180 C   0  0  0  0  0  0  0  0  0  0  0  0
   -8.8260   21.5520  -31.8190 S   0  0  0  0  0  0  0  0  0  0  0  0
   -9.8040   22.4590  -32.5130 O   0  0  0  0  0  0  0  0  0  0  0  0
   -9.4660   21.0280  -30.5620 O   0  0  0  0  0  0  0  0  0  0  0  0
   -8.4010   20.2230  -32.8730 N   0  0  0  0  0  0  0  0  0  0  0  0
   -8.6980   18.9170  -32.2270 C   0  0  0  0  0  0  0  0  0  0  0  0
   -7.4440   18.2630  -31.6200 C   0  0  0  0  0  0  0  0  0  0  0  0
   -6.3710   18.0540  -32.6250 N   0  0  0  0  0  0  0  0  0  0  0  0
   -6.3610   16.6700  -33.1220 C   0  0  0  0  0  0  0  0  0  0  0  0
   -6.4190   19.0100  -33.7550 C   0  0  0  0  0  0  0  0  0  0  0  0
   -6.9940   20.3610  -33.3150 C   0  0  0  0  0  0  0  0  0  0  0  0
   -6.7820   22.3170  -30.1630 C   0  0  0  0  0  0  0  0  0  0  0  0
   -5.6670   23.0820  -29.8130 C   0  0  0  0  0  0  0  0  0  0  0  0
   -1.0500   21.1017  -30.9505 H   0  0  0  0  0  0  0  0  0  0  0  0
   -2.7695   21.0866  -31.4697 H   0  0  0  0  0  0  0  0  0  0  0  0
   -1.8448   22.6266  -31.4697 H   0  0  0  0  0  0  0  0  0  0  0  0
   -5.3115   24.8803  -32.7019 H   0  0  0  0  0  0  0  0  0  0  0  0
   -7.3151   23.5284  -33.3154 H   0  0  0  0  0  0  0  0  0  0  0  0
   -9.0140   20.3080  -33.7180 H   0  0  0  0  0  0  0  0  0  0  0  0
   -9.4347   19.0786  -31.4263 H   0  0  0  0  0  0  0  0  0  0  0  0
   -9.0867   18.2404  -33.0024 H   0  0  0  0  0  0  0  0  0  0  0  0
   -7.0580   18.9135  -30.8213 H   0  0  0  0  0  0  0  0  0  0  0  0
   -7.7356   17.2763  -31.2310 H   0  0  0  0  0  0  0  0  0  0  0  0
   -6.3560   15.9744  -32.2699 H   0  0  0  0  0  0  0  0  0  0  0  0
   -7.2579   16.4937  -33.7340 H   0  0  0  0  0  0  0  0  0  0  0  0
   -5.4617   16.5067  -33.7340 H   0  0  0  0  0  0  0  0  0  0  0  0
   -5.3997   19.1622  -34.1396 H   0  0  0  0  0  0  0  0  0  0  0  0
   -7.0706   18.5924  -34.5367 H   0  0  0  0  0  0  0  0  0  0  0  0
   -6.3925   20.7533  -32.4818 H   0  0  0  0  0  0  0  0  0  0  0  0
   -6.9629   21.0499  -34.1720 H   0  0  0  0  0  0  0  0  0  0  0  0
   -7.1909   21.5861  -29.4498 H   0  0  0  0  0  0  0  0  0  0  0  0
   -5.1917   22.9410  -28.8310 H   0  0  0  0  0  0  0  0  0  0  0  0
  1  2  1  0
  2  3  2  0
  3  4  1  0
  4  5  1  0
  5  6  2  0
  6  7  1  0
  7  8  2  0
  7  9  1  0
  9 10  1  0
 10 11  2  0
 11 12  1  0
 12 13  2  0
 13 14  1  0
 14 15  2  0
 14 16  2  0
 14 17  1  0
 17 18  1  0
 18 19  1  0
 19 20  1  0
 20 21  1  0
 20 22  1  0
 22 23  1  0
 13 24  1  0
 24 25  2  0
  6  2  1  0
 25 10  1  0
 23 17  1  0
  1 26  1  0
  1 27  1  0
  1 28  1  0
 11 29  1  0
 12 30  1  0
 17 31  1  0
 18 32  1  0
 18 33  1  0
 19 34  1  0
 19 35  1  0
 21 36  1  0
 21 37  1  0
 21 38  1  0
 22 39  1  0
 22 40  1  0
 23 41  1  0
 23 42  1  0
 24 43  1  0
 25 44  1  0
M  CHG  2   9  -1  17   1
M  END
>  <UniqueID>  (26) 
24

>  <SMILES>  (26) 
Cc1nonc1C(=O)[N-]c1ccc(S(=O)(=O)[NH+]2CCN(C)CC2)cc1

>  <Energy>  (26) 
94.36311387577102

>  <Genealogy>  (26) 
Cc1nonc1C(=O)[N-]c1ccc(S(=O)(=O)[NH+]2CCN(C)CC2)cc1 (protonated)
Cc1nonc1C(=O)[N-]c1ccc(S(=O)(=O)[NH+]2CCN(C)CC2)cc1 (3D coordinates assigned)
Cc1nonc1C(=O)[N-]c1ccc(S(=O)(=O)[NH+]2CCN(C)CC2)cc1 (nonaromatic ring conformer: 94.36311387577102 kcal/mol)

>  <smiles>  (26) 
Cc1nonc1C(=O)Nc1ccc(S(=O)(=O)N2CCN(C)CC2)cc1

>  <score_type>  (26) 
oracle

>  <origin>  (26) 
adgpu

>  <m_score__min__energy>  (26) 
-10.300000000000001

>  <m_primary>  (26) 
energy

$$$$
26:0
     RDKit          3D

 31 32  0  0  0  0  0  0  0  0999 V2000
   -4.0790   25.6770  -30.8550 O   0  0  0  0  0  0  0  0  0  0  0  0
   -3.4940   24.8680  -30.0890 C   0  0  0  0  0  0  0  0  0  0  0  0
   -2.4060   25.2970  -29.3430 O   0  0  0  0  0  0  0  0  0  0  0  0
   -3.9620   23.4470  -29.9880 C   0  0  0  0  0  0  0  0  0  0  0  0
   -3.9750   22.7050  -31.3430 C   0  0  1  0  0  0  0  0  0  0  0  0
   -2.8340   21.7860  -31.4660 N   0  0  0  0  0  0  0  0  0  0  0  0
   -2.3420   21.3510  -32.7450 C   0  0  0  0  0  0  0  0  0  0  0  0
   -3.0240   21.5540  -33.7860 O   0  0  0  0  0  0  0  0  0  0  0  0
   -1.0480   20.6570  -32.8730 C   0  0  0  0  0  0  0  0  0  0  0  0
   -0.3940   20.3330  -34.0500 C   0  0  0  0  0  0  0  0  0  0  0  0
    0.7630   19.6870  -33.6700 C   0  0  0  0  0  0  0  0  0  0  0  0
    0.7400   19.6530  -32.2930 C   0  0  0  0  0  0  0  0  0  0  0  0
    2.0800   18.8770  -31.1780 Br  0  0  0  0  0  0  0  0  0  0  0  0
   -0.3470   20.2340  -31.8440 O   0  0  0  0  0  0  0  0  0  0  0  0
   -5.3000   21.9950  -31.5810 C   0  0  0  0  0  0  0  0  0  0  0  0
   -5.3140   20.6070  -31.8110 C   0  0  0  0  0  0  0  0  0  0  0  0
   -6.5170   19.9420  -32.0690 C   0  0  0  0  0  0  0  0  0  0  0  0
   -7.7180   20.6540  -32.1120 C   0  0  0  0  0  0  0  0  0  0  0  0
   -9.2270   19.8170  -32.4330 Cl  0  0  0  0  0  0  0  0  0  0  0  0
   -7.7170   22.0330  -31.8950 C   0  0  0  0  0  0  0  0  0  0  0  0
   -6.5170   22.7030  -31.6360 C   0  0  0  0  0  0  0  0  0  0  0  0
   -3.2922   22.9077  -29.3021 H   0  0  0  0  0  0  0  0  0  0  0  0
   -4.9994   23.4730  -29.6233 H   0  0  0  0  0  0  0  0  0  0  0  0
   -3.8682   23.4630  -32.1329 H   0  0  0  0  0  0  0  0  0  0  0  0
   -2.3590   21.4370  -30.6060 H   0  0  0  0  0  0  0  0  0  0  0  0
   -0.7286   20.5469  -35.0758 H   0  0  0  0  0  0  0  0  0  0  0  0
    1.5439   19.2820  -34.3304 H   0  0  0  0  0  0  0  0  0  0  0  0
   -4.3714   20.0405  -31.7877 H   0  0  0  0  0  0  0  0  0  0  0  0
   -6.5174   18.8551  -32.2385 H   0  0  0  0  0  0  0  0  0  0  0  0
   -8.6625   22.5941  -31.9278 H   0  0  0  0  0  0  0  0  0  0  0  0
   -6.5233   23.7910  -31.4740 H   0  0  0  0  0  0  0  0  0  0  0  0
  1  2  2  0
  2  3  1  0
  2  4  1  0
  4  5  1  0
  5  6  1  0
  6  7  1  0
  7  8  2  0
  7  9  1  0
  9 10  2  0
 10 11  1  0
 11 12  2  0
 12 13  1  0
 12 14  1  0
  5 15  1  0
 15 16  2  0
 16 17  1  0
 17 18  2  0
 18 19  1  0
 18 20  1  0
 20 21  2  0
 14  9  1  0
 21 15  1  0
  4 22  1  0
  4 23  1  0
  5 24  1  6
  6 25  1  0
 10 26  1  0
 11 27  1  0
 16 28  1  0
 17 29  1  0
 20 30  1  0
 21 31  1  0
M  CHG  1   3  -1
M  END
>  <UniqueID>  (27) 
25

>  <SMILES>  (27) 
O=C([O-])C[C@@H](NC(=O)c1ccc(Br)o1)c1ccc(Cl)cc1

>  <Energy>  (27) 
55.90706162497026

>  <Genealogy>  (27) 
O=C([O-])CC(NC(=O)c1ccc(Br)o1)c1ccc(Cl)cc1 (protonated)
O=C([O-])C[C@@H](NC(=O)c1ccc(Br)o1)c1ccc(Cl)cc1 (chirality)
O=C([O-])C[C@@H](NC(=O)c1ccc(Br)o1)c1ccc(Cl)cc1 (3D coordinates assigned)
O=C([O-])C[C@@H](NC(=O)c1ccc(Br)o1)c1ccc(Cl)cc1 (optimized conformer: 55.90706162497026 kcal/mol)

>  <smiles>  (27) 
O=C(O)CC(NC(=O)c1ccc(Br)o1)c1ccc(Cl)cc1

>  <score_type>  (27) 
oracle

>  <origin>  (27) 
adgpu

>  <m_score__min__energy>  (27) 
-9.8300000000000001

>  <m_primary>  (27) 
energy

$$$$
27:0
     RDKit          3D

 38 40  0  0  0  0  0  0  0  0999 V2000
   -5.7360   18.3640  -34.9800 C   0  0  0  0  0  0  0  0  0  0  0  0
   -6.4070   18.4530  -33.6500 C   0  0  0  0  0  0  0  0  0  0  0  0
   -7.0320   19.5620  -33.1220 C   0  0  0  0  0  0  0  0  0  0  0  0
   -7.4930   19.1040  -31.9020 C   0  0  0  0  0  0  0  0  0  0  0  0
   -8.1460   19.7840  -31.0090 N   0  0  0  0  0  0  0  0  0  0  0  0
   -8.5630   21.4620  -31.1670 S   0  0  0  0  0  0  0  0  0  0  0  0
   -9.2650   21.6820  -32.4780 O   0  0  0  0  0  0  0  0  0  0  0  0
   -9.4930   21.8490  -30.0520 O   0  0  0  0  0  0  0  0  0  0  0  0
   -7.1030   22.4400  -31.0610 C   0  0  0  0  0  0  0  0  0  0  0  0
   -7.2100   23.8280  -30.9060 C   0  0  0  0  0  0  0  0  0  0  0  0
   -6.0610   24.6090  -30.7410 C   0  0  0  0  0  0  0  0  0  0  0  0
   -4.7980   24.0060  -30.7020 C   0  0  0  0  0  0  0  0  0  0  0  0
   -3.6410   24.8210  -30.4700 N   0  0  0  0  0  0  0  0  0  0  0  0
   -2.6310   24.5580  -29.4860 C   0  0  0  0  0  0  0  0  0  0  0  0
   -2.0210   25.5330  -28.9710 O   0  0  0  0  0  0  0  0  0  0  0  0
   -2.3220   23.1810  -29.0290 C   0  0  0  0  0  0  0  0  0  0  0  0
   -1.3200   22.4210  -29.6610 C   0  0  0  0  0  0  0  0  0  0  0  0
   -1.0300   21.1270  -29.2180 C   0  0  0  0  0  0  0  0  0  0  0  0
   -1.7420   20.5760  -28.1500 C   0  0  0  0  0  0  0  0  0  0  0  0
   -2.7510   21.3150  -27.5290 C   0  0  0  0  0  0  0  0  0  0  0  0
   -3.0450   22.6100  -27.9680 C   0  0  0  0  0  0  0  0  0  0  0  0
   -4.6900   22.6180  -30.8980 C   0  0  0  0  0  0  0  0  0  0  0  0
   -5.8360   21.8410  -31.0760 C   0  0  0  0  0  0  0  0  0  0  0  0
   -7.1660   17.8090  -31.7350 N   0  0  0  0  0  0  0  0  0  0  0  0
   -6.5160   17.4520  -32.8050 O   0  0  0  0  0  0  0  0  0  0  0  0
   -4.6549   18.2206  -34.8364 H   0  0  0  0  0  0  0  0  0  0  0  0
   -6.1474   17.5125  -35.5420 H   0  0  0  0  0  0  0  0  0  0  0  0
   -5.9112   19.2932  -35.5420 H   0  0  0  0  0  0  0  0  0  0  0  0
   -7.1379   20.5643  -33.5627 H   0  0  0  0  0  0  0  0  0  0  0  0
   -8.2009   24.3056  -30.9140 H   0  0  0  0  0  0  0  0  0  0  0  0
   -6.1502   25.7009  -30.6415 H   0  0  0  0  0  0  0  0  0  0  0  0
   -0.7622   22.8473  -30.5078 H   0  0  0  0  0  0  0  0  0  0  0  0
   -0.2399   20.5419  -29.7113 H   0  0  0  0  0  0  0  0  0  0  0  0
   -1.5079   19.5604  -27.7983 H   0  0  0  0  0  0  0  0  0  0  0  0
   -3.3159   20.8776  -26.6926 H   0  0  0  0  0  0  0  0  0  0  0  0
   -3.8463   23.1844  -27.4802 H   0  0  0  0  0  0  0  0  0  0  0  0
   -3.6983   22.1423  -30.9111 H   0  0  0  0  0  0  0  0  0  0  0  0
   -5.7444   20.7555  -31.2285 H   0  0  0  0  0  0  0  0  0  0  0  0
  1  2  1  0
  2  3  2  0
  3  4  1  0
  4  5  2  3
  5  6  1  0
  6  7  2  0
  6  8  2  0
  6  9  1  0
  9 10  2  0
 10 11  1  0
 11 12  2  0
 12 13  1  0
 13 14  1  0
 14 15  2  0
 14 16  1  0
 16 17  2  0
 17 18  1  0
 18 19  2  0
 19 20  1  0
 20 21  2  0
 12 22  1  0
 22 23  2  0
  4 24  1  0
 24 25  1  0
 25  2  1  0
 23  9  1  0
 21 16  1  0
  1 26  1  0
  1 27  1  0
  1 28  1  0
  3 29  1  0
 10 30  1  0
 11 31  1  0
 17 32  1  0
 18 33  1  0
 19 34  1  0
 20 35  1  0
 21 36  1  0
 22 37  1  0
 23 38  1  0
M  CHG  2  13  -1  24  -1
M  END
>  <UniqueID>  (28) 
26

>  <SMILES>  (28) 
Cc1cc(=NS(=O)(=O)c2ccc([N-]C(=O)c3ccccc3)cc2)[n-]o1

>  <Energy>  (28) 
79.64468386528938

>  <Genealogy>  (28) 
Cc1cc(=NS(=O)(=O)c2ccc([N-]C(=O)c3ccccc3)cc2)[n-]o1 (protonated)
Cc1cc(=NS(=O)(=O)c2ccc([N-]C(=O)c3ccccc3)cc2)[n-]o1 (3D coordinates assigned)
Cc1cc(=NS(=O)(=O)c2ccc([N-]C(=O)c3ccccc3)cc2)[n-]o1 (optimized conformer: 79.64468386528938 kcal/mol)

>  <smiles>  (28) 
Cc1cc(=NS(=O)(=O)c2ccc(NC(=O)c3ccccc3)cc2)[nH]o1

>  <score_type>  (28) 
oracle

>  <origin>  (28) 
adgpu

>  <m_score__min__energy>  (28) 
-10.359999999999999

>  <m_primary>  (28) 
energy

$$$$
28:0
     RDKit          3D

 44 46  0  0  0  0  0  0  0  0999 V2000
   -4.7770   16.2500  -33.2570 C   0  0  0  0  0  0  0  0  0  0  0  0
   -5.4630   17.5180  -33.6600 C   0  0  0  0  0  0  0  0  0  0  0  0
   -5.4680   18.0020  -34.9140 N   0  0  0  0  0  0  0  0  0  0  0  0
   -6.1240   19.1220  -34.9140 O   0  0  0  0  0  0  0  0  0  0  0  0
   -6.5630   19.4060  -33.7090 C   0  0  0  0  0  0  0  0  0  0  0  0
   -7.2390   20.4960  -33.4770 N   0  0  0  0  0  0  0  0  0  0  0  0
   -7.9260   21.0930  -31.9990 S   0  0  0  0  0  0  0  0  0  0  0  0
   -8.4450   19.9420  -31.1830 O   0  0  0  0  0  0  0  0  0  0  0  0
   -9.0850   21.9830  -32.3450 O   0  0  0  0  0  0  0  0  0  0  0  0
   -6.7640   22.0560  -31.0950 C   0  0  0  0  0  0  0  0  0  0  0  0
   -7.1520   23.2670  -30.5080 C   0  0  0  0  0  0  0  0  0  0  0  0
   -6.2280   24.0250  -29.7840 C   0  0  0  0  0  0  0  0  0  0  0  0
   -4.9010   23.5890  -29.6430 C   0  0  0  0  0  0  0  0  0  0  0  0
   -3.9730   24.3960  -28.8920 N   0  0  0  0  0  0  0  0  0  0  0  0
   -3.2940   23.9580  -27.6710 C   0  0  0  0  0  0  0  0  0  0  0  0
   -2.4270   25.0620  -27.1120 C   0  0  0  0  0  0  0  0  0  0  0  0
   -2.3810   25.2700  -25.7210 C   0  0  0  0  0  0  0  0  0  0  0  0
   -1.5760   26.2770  -25.1820 C   0  0  0  0  0  0  0  0  0  0  0  0
   -0.8000   27.0780  -26.0220 C   0  0  0  0  0  0  0  0  0  0  0  0
   -0.8210   26.8690  -27.4030 C   0  0  0  0  0  0  0  0  0  0  0  0
   -1.6240   25.8620  -27.9520 C   0  0  0  0  0  0  0  0  0  0  0  0
   -1.6140   25.6660  -29.3290 O   0  0  0  0  0  0  0  0  0  0  0  0
   -4.5160   22.3730  -30.2390 C   0  0  0  0  0  0  0  0  0  0  0  0
   -5.4420   21.6170  -30.9640 C   0  0  0  0  0  0  0  0  0  0  0  0
   -6.1730   18.3800  -32.8360 C   0  0  0  0  0  0  0  0  0  0  0  0
   -6.3260   18.2270  -31.3510 C   0  0  0  0  0  0  0  0  0  0  0  0
   -4.7418   16.1850  -32.1595 H   0  0  0  0  0  0  0  0  0  0  0  0
   -5.3325   15.3893  -33.6577 H   0  0  0  0  0  0  0  0  0  0  0  0
   -3.7526   16.2440  -33.6577 H   0  0  0  0  0  0  0  0  0  0  0  0
   -5.0180   17.5750  -35.7550 H   0  0  0  0  0  0  0  0  0  0  0  0
   -8.1872   23.6225  -30.6173 H   0  0  0  0  0  0  0  0  0  0  0  0
   -6.5431   24.9715  -29.3205 H   0  0  0  0  0  0  0  0  0  0  0  0
   -3.7380   25.3500  -29.2500 H   0  0  0  0  0  0  0  0  0  0  0  0
   -4.0476   23.6767  -26.9207 H   0  0  0  0  0  0  0  0  0  0  0  0
   -2.6542   23.0967  -27.9137 H   0  0  0  0  0  0  0  0  0  0  0  0
   -2.9827   24.6357  -25.0535 H   0  0  0  0  0  0  0  0  0  0  0  0
   -1.5536   26.4389  -24.0942 H   0  0  0  0  0  0  0  0  0  0  0  0
   -0.1717   27.8741  -25.5960 H   0  0  0  0  0  0  0  0  0  0  0  0
   -0.2042   27.4980  -28.0617 H   0  0  0  0  0  0  0  0  0  0  0  0
   -3.4810   22.0158  -30.1337 H   0  0  0  0  0  0  0  0  0  0  0  0
   -5.1297   20.6726  -31.4337 H   0  0  0  0  0  0  0  0  0  0  0  0
   -5.6377   18.9153  -30.8386 H   0  0  0  0  0  0  0  0  0  0  0  0
   -7.3613   18.4619  -31.0629 H   0  0  0  0  0  0  0  0  0  0  0  0
   -6.0911   17.1917  -31.0629 H   0  0  0  0  0  0  0  0  0  0  0  0
  1  2  1  0
  2  3  1  0
  3  4  1  0
  4  5  1  0
  5  6  2  3
  6  7  1  0
  7  8  2  0
  7  9  2  0
  7 10  1  0
 10 11  2  0
 11 12  1  0
 12 13  2  0
 13 14  1  0
 14 15  1  0
 15 16  1  0
 16 17  2  0
 17 18  1  0
 18 19  2  0
 19 20  1  0
 20 21  2  0
 21 22  1  0
 13 23  1  0
 23 24  2  0
  5 25  1  0
 25 26  1  0
 25  2  2  0
 24 10  1  0
 21 16  1  0
  1 27  1  0
  1 28  1  0
  1 29  1  0
  3 30  1  0
 11 31  1  0
 12 32  1  0
 14 33  1  0
 15 34  1  0
 15 35  1  0
 17 36  1  0
 18 37  1  0
 19 38  1  0
 20 39  1  0
 23 40  1  0
 24 41  1  0
 26 42  1  0
 26 43  1  0
 26 44  1  0
M  CHG  1  22  -1
M  END
>  <UniqueID>  (29) 
27

>  <SMILES>  (29) 
Cc1[nH]oc(=NS(=O)(=O)c2ccc(NCc3ccccc3[O-])cc2)c1C

>  <Energy>  (29) 
86.37927631606405

>  <Genealogy>  (29) 
Cc1[nH]oc(=NS(=O)(=O)c2ccc(NCc3ccccc3[O-])cc2)c1C (protonated)
Cc1[nH]oc(=NS(=O)(=O)c2ccc(NCc3ccccc3[O-])cc2)c1C (3D coordinates assigned)
Cc1[nH]oc(=NS(=O)(=O)c2ccc(NCc3ccccc3[O-])cc2)c1C (optimized conformer: 86.37927631606405 kcal/mol)

>  <smiles>  (29) 
Cc1[nH]oc(=NS(=O)(=O)c2ccc(NCc3ccccc3O)cc2)c1C

>  <score_type>  (29) 
oracle

>  <origin>  (29) 
adgpu

>  <m_score__min__energy>  (29) 
-11.699999999999999

>  <m_primary>  (29) 
energy

$$$$
29:0
     RDKit          3D

 58 62  0  0  0  0  0  0  0  0999 V2000
   -0.8370   26.7160  -27.5770 C   0  0  0  0  0  0  0  0  0  0  0  0
   -1.5930   26.0990  -28.6150 O   0  0  0  0  0  0  0  0  0  0  0  0
   -2.1370   24.8070  -28.5390 C   0  0  0  0  0  0  0  0  0  0  0  0
   -1.8170   23.7970  -29.4690 C   0  0  0  0  0  0  0  0  0  0  0  0
   -2.3790   22.5100  -29.3580 C   0  0  0  0  0  0  0  0  0  0  0  0
   -2.0250   21.4600  -30.3490 C   0  0  0  0  0  0  0  0  0  0  0  0
   -1.5070   20.2040  -30.0160 C   0  0  0  0  0  0  0  0  0  0  0  0
   -1.2370   19.3480  -31.4380 S   0  0  0  0  0  0  0  0  0  0  0  0
   -1.7980   20.6010  -32.4170 C   0  0  0  0  0  0  0  0  0  0  0  0
   -1.8360   20.6010  -33.7180 N   0  0  0  0  0  0  0  0  0  0  0  0
   -1.4970   19.4930  -34.5640 C   0  0  0  0  0  0  0  0  0  0  0  0
   -0.5300   19.6180  -35.3610 O   0  0  0  0  0  0  0  0  0  0  0  0
   -2.2910   18.2410  -34.5740 C   0  0  0  0  0  0  0  0  0  0  0  0
   -1.7320   17.0390  -35.0430 C   0  0  0  0  0  0  0  0  0  0  0  0
   -2.4850   15.8620  -35.0440 C   0  0  0  0  0  0  0  0  0  0  0  0
   -3.7960   15.8680  -34.5670 C   0  0  0  0  0  0  0  0  0  0  0  0
   -4.3630   17.0530  -34.0800 C   0  0  0  0  0  0  0  0  0  0  0  0
   -6.0140   17.0530  -33.4560 S   0  0  0  0  0  0  0  0  0  0  0  0
   -6.8980   16.2720  -34.3890 O   0  0  0  0  0  0  0  0  0  0  0  0
   -6.0350   16.3700  -32.1170 O   0  0  0  0  0  0  0  0  0  0  0  0
   -6.6340   18.6780  -33.2900 N   0  0  1  0  0  0  0  0  0  0  0  0
   -7.9610   18.6530  -32.6480 C   0  0  0  0  0  0  0  0  0  0  0  0
   -8.5990   20.0470  -32.6800 C   0  0  0  0  0  0  0  0  0  0  0  0
   -7.6310   21.1220  -32.2590 C   0  0  0  0  0  0  0  0  0  0  0  0
   -8.1150   22.4050  -31.9590 C   0  0  0  0  0  0  0  0  0  0  0  0
   -7.2320   23.4310  -31.6130 C   0  0  0  0  0  0  0  0  0  0  0  0
   -5.8580   23.1880  -31.5720 C   0  0  0  0  0  0  0  0  0  0  0  0
   -5.3620   21.9180  -31.8810 C   0  0  0  0  0  0  0  0  0  0  0  0
   -6.2380   20.8830  -32.2450 C   0  0  0  0  0  0  0  0  0  0  0  0
   -5.6910   19.5010  -32.5070 C   0  0  0  0  0  0  0  0  0  0  0  0
   -3.6080   18.2340  -34.0820 C   0  0  0  0  0  0  0  0  0  0  0  0
   -2.1730   21.6710  -31.6890 N   0  0  0  0  0  0  0  0  0  0  0  0
   -3.2800   22.2530  -28.3070 C   0  0  0  0  0  0  0  0  0  0  0  0
   -3.5980   23.2530  -27.3870 C   0  0  0  0  0  0  0  0  0  0  0  0
   -3.0300   24.5220  -27.4990 C   0  0  0  0  0  0  0  0  0  0  0  0
   -3.3490   25.4820  -26.5960 F   0  0  0  0  0  0  0  0  0  0  0  0
   -1.2278   26.3970  -26.5995 H   0  0  0  0  0  0  0  0  0  0  0  0
    0.2182   26.4179  -27.6650 H   0  0  0  0  0  0  0  0  0  0  0  0
   -0.9176   27.8095  -27.6650 H   0  0  0  0  0  0  0  0  0  0  0  0
   -1.1201   24.0165  -30.2913 H   0  0  0  0  0  0  0  0  0  0  0  0
   -1.3099   19.8385  -28.9974 H   0  0  0  0  0  0  0  0  0  0  0  0
   -0.6956   17.0252  -35.4113 H   0  0  0  0  0  0  0  0  0  0  0  0
   -2.0430   14.9283  -35.4219 H   0  0  0  0  0  0  0  0  0  0  0  0
   -4.3862   14.9397  -34.5733 H   0  0  0  0  0  0  0  0  0  0  0  0
   -6.7210   19.0770  -34.2550 H   0  0  0  0  0  0  0  0  0  0  0  0
   -8.6098   17.9455  -33.1851 H   0  0  0  0  0  0  0  0  0  0  0  0
   -7.8436   18.3393  -31.6002 H   0  0  0  0  0  0  0  0  0  0  0  0
   -8.9399   20.2578  -33.7044 H   0  0  0  0  0  0  0  0  0  0  0  0
   -9.4401   20.0514  -31.9711 H   0  0  0  0  0  0  0  0  0  0  0  0
   -9.1962   22.6039  -31.9965 H   0  0  0  0  0  0  0  0  0  0  0  0
   -7.6201   24.4318  -31.3725 H   0  0  0  0  0  0  0  0  0  0  0  0
   -5.1649   23.9965  -31.2963 H   0  0  0  0  0  0  0  0  0  0  0  0
   -4.2793   21.7286  -31.8387 H   0  0  0  0  0  0  0  0  0  0  0  0
   -4.7480   19.5913  -33.0661 H   0  0  0  0  0  0  0  0  0  0  0  0
   -5.5297   19.0074  -31.5373 H   0  0  0  0  0  0  0  0  0  0  0  0
   -4.0501   19.1640  -33.6950 H   0  0  0  0  0  0  0  0  0  0  0  0
   -3.7365   21.2569  -28.2104 H   0  0  0  0  0  0  0  0  0  0  0  0
   -4.3010   23.0391  -26.5684 H   0  0  0  0  0  0  0  0  0  0  0  0
  1  2  1  0
  2  3  1  0
  3  4  2  0
  4  5  1  0
  5  6  1  0
  6  7  2  0
  7  8  1  0
  8  9  1  0
  9 10  2  3
 10 11  1  0
 11 12  2  0
 11 13  1  0
 13 14  2  0
 14 15  1  0
 15 16  2  0
 16 17  1  0
 17 18  1  0
 18 19  2  0
 18 20  2  0
 18 21  1  0
 21 22  1  0
 22 23  1  0
 23 24  1  0
 24 25  2  0
 25 26  1  0
 26 27  2  0
 27 28  1  0
 28 29  2  0
 29 30  1  0
 17 31  2  0
  9 32  1  0
  5 33  2  0
 33 34  1  0
 34 35  2  0
 35 36  1  0
 35  3  1  0
 32  6  1  0
 31 13  1  0
 30 21  1  0
 29 24  1  0
  1 37  1  0
  1 38  1  0
  1 39  1  0
  4 40  1  0
  7 41  1  0
 14 42  1  0
 15 43  1  0
 16 44  1  0
 21 45  1  6
 22 46  1  0
 22 47  1  0
 23 48  1  0
 23 49  1  0
 25 50  1  0
 26 51  1  0
 27 52  1  0
 28 53  1  0
 30 54  1  0
 30 55  1  0
 31 56  1  0
 33 57  1  0
 34 58  1  0
M  CHG  2  21   1  32  -1
M  END
>  <UniqueID>  (30) 
28

>  <SMILES>  (30) 
COc1cc(-c2csc(=NC(=O)c3cccc(S(=O)(=O)[N@H+]4CCc5ccccc5C4)c3)[n-]2)ccc1F

>  <Energy>  (30) 
105.19947706920202

>  <Genealogy>  (30) 
COc1cc(-c2csc(=NC(=O)c3cccc(S(=O)(=O)[NH+]4CCc5ccccc5C4)c3)[n-]2)ccc1F (protonated)
COc1cc(-c2csc(=NC(=O)c3cccc(S(=O)(=O)[N@H+]4CCc5ccccc5C4)c3)[n-]2)ccc1F (chirality)
COc1cc(-c2csc(=NC(=O)c3cccc(S(=O)(=O)[N@H+]4CCc5ccccc5C4)c3)[n-]2)ccc1F (3D coordinates assigned)
COc1cc(-c2csc(=NC(=O)c3cccc(S(=O)(=O)[N@H+]4CCc5ccccc5C4)c3)[n-]2)ccc1F (nonaromatic ring conformer: 105.19947706920202 kcal/mol)

>  <smiles>  (30) 
COc1cc(-c2csc(=NC(=O)c3cccc(S(=O)(=O)N4CCc5ccccc5C4)c3)[nH]2)ccc1F

>  <score_type>  (30) 
oracle

>  <origin>  (30) 
adgpu

>  <m_score__min__energy>  (30) 
-10.710000000000001

>  <m_primary>  (30) 
energy

$$$$
30:0
     RDKit          3D

 41 43  0  0  0  0  0  0  0  0999 V2000
   -1.5550   25.5260  -29.3020 O   0  0  0  0  0  0  0  0  0  0  0  0
   -2.6530   24.9120  -29.2400 C   0  0  0  0  0  0  0  0  0  0  0  0
   -2.9460   24.0420  -28.0430 C   0  0  0  0  0  0  0  0  0  0  0  0
   -2.1240   24.4470  -26.8450 C   0  0  0  0  0  0  0  0  0  0  0  0
   -2.3630   25.6760  -26.2040 C   0  0  0  0  0  0  0  0  0  0  0  0
   -1.6120   26.0460  -25.0830 C   0  0  0  0  0  0  0  0  0  0  0  0
   -0.6210   25.1910  -24.5910 C   0  0  0  0  0  0  0  0  0  0  0  0
   -0.3760   23.9680  -25.2210 C   0  0  0  0  0  0  0  0  0  0  0  0
   -1.1250   23.5940  -26.3420 C   0  0  0  0  0  0  0  0  0  0  0  0
   -3.5110   24.9270  -30.3880 N   0  0  0  0  0  0  0  0  0  0  0  0
   -4.6910   24.1350  -30.5690 C   0  0  0  0  0  0  0  0  0  0  0  0
   -4.6170   22.8060  -31.0160 C   0  0  0  0  0  0  0  0  0  0  0  0
   -5.7810   22.0500  -31.1690 C   0  0  0  0  0  0  0  0  0  0  0  0
   -7.0290   22.6050  -30.8600 C   0  0  0  0  0  0  0  0  0  0  0  0
   -8.4890   21.6490  -31.0910 S   0  0  0  0  0  0  0  0  0  0  0  0
   -9.1800   22.0320  -32.3700 O   0  0  0  0  0  0  0  0  0  0  0  0
   -9.4230   21.8930  -29.9400 O   0  0  0  0  0  0  0  0  0  0  0  0
   -8.0770   19.9640  -31.1530 N   0  0  0  0  0  0  0  0  0  0  0  0
   -7.4010   19.4270  -32.1210 C   0  0  0  0  0  0  0  0  0  0  0  0
   -7.1030   18.0590  -32.0810 C   0  0  0  0  0  0  0  0  0  0  0  0
   -6.3710   17.4850  -33.1230 C   0  0  0  0  0  0  0  0  0  0  0  0
   -5.9440   18.2760  -34.1910 C   0  0  0  0  0  0  0  0  0  0  0  0
   -6.2580   19.6370  -34.2010 C   0  0  0  0  0  0  0  0  0  0  0  0
   -6.9720   20.1770  -33.1780 N   0  0  0  0  0  0  0  0  0  0  0  0
   -7.1010   23.9200  -30.3800 C   0  0  0  0  0  0  0  0  0  0  0  0
   -5.9350   24.6760  -30.2260 C   0  0  0  0  0  0  0  0  0  0  0  0
   -4.0128   24.1311  -27.7900 H   0  0  0  0  0  0  0  0  0  0  0  0
   -2.6877   23.0045  -28.3015 H   0  0  0  0  0  0  0  0  0  0  0  0
   -3.1443   26.3496  -26.5860 H   0  0  0  0  0  0  0  0  0  0  0  0
   -1.8013   27.0101  -24.5884 H   0  0  0  0  0  0  0  0  0  0  0  0
   -0.0338   25.4813  -23.7073 H   0  0  0  0  0  0  0  0  0  0  0  0
    0.4068   23.2984  -24.8351 H   0  0  0  0  0  0  0  0  0  0  0  0
   -0.9318   22.6284  -26.8323 H   0  0  0  0  0  0  0  0  0  0  0  0
   -3.6388   22.3589  -31.2464 H   0  0  0  0  0  0  0  0  0  0  0  0
   -5.7174   21.0142  -31.5338 H   0  0  0  0  0  0  0  0  0  0  0  0
   -7.4426   17.4419  -31.2361 H   0  0  0  0  0  0  0  0  0  0  0  0
   -6.1315   16.4116  -33.1020 H   0  0  0  0  0  0  0  0  0  0  0  0
   -5.3666   17.8324  -35.0156 H   0  0  0  0  0  0  0  0  0  0  0  0
   -5.9276   20.2717  -35.0365 H   0  0  0  0  0  0  0  0  0  0  0  0
   -8.0770   24.3581  -30.1239 H   0  0  0  0  0  0  0  0  0  0  0  0
   -5.9959   25.7016  -29.8331 H   0  0  0  0  0  0  0  0  0  0  0  0
  1  2  2  0
  2  3  1  0
  3  4  1  0
  4  5  2  0
  5  6  1  0
  6  7  2  0
  7  8  1  0
  8  9  2  0
  2 10  1  0
 10 11  1  0
 11 12  2  0
 12 13  1  0
 13 14  2  0
 14 15  1  0
 15 16  2  0
 15 17  2  0
 15 18  1  0
 18 19  2  3
 19 20  1  0
 20 21  2  0
 21 22  1  0
 22 23  2  0
 23 24  1  0
 14 25  1  0
 25 26  2  0
  9  4  1  0
 26 11  1  0
 24 19  1  0
  3 27  1  0
  3 28  1  0
  5 29  1  0
  6 30  1  0
  7 31  1  0
  8 32  1  0
  9 33  1  0
 12 34  1  0
 13 35  1  0
 20 36  1  0
 21 37  1  0
 22 38  1  0
 23 39  1  0
 25 40  1  0
 26 41  1  0
M  CHG  2  10  -1  24  -1
M  END
>  <UniqueID>  (31) 
29

>  <SMILES>  (31) 
O=C(Cc1ccccc1)[N-]c1ccc(S(=O)(=O)N=c2cccc[n-]2)cc1

>  <Energy>  (31) 
52.15289421033355

>  <Genealogy>  (31) 
O=C(Cc1ccccc1)[N-]c1ccc(S(=O)(=O)N=c2cccc[n-]2)cc1 (protonated)
O=C(Cc1ccccc1)[N-]c1ccc(S(=O)(=O)N=c2cccc[n-]2)cc1 (3D coordinates assigned)
O=C(Cc1ccccc1)[N-]c1ccc(S(=O)(=O)N=c2cccc[n-]2)cc1 (optimized conformer: 52.15289421033355 kcal/mol)

>  <smiles>  (31) 
O=C(Cc1ccccc1)Nc1ccc(S(=O)(=O)N=c2cccc[nH]2)cc1

>  <score_type>  (31) 
oracle

>  <origin>  (31) 
adgpu

>  <m_score__min__energy>  (31) 
-11.050000000000001

>  <m_primary>  (31) 
energy

$$$$
31:0
     RDKit          3D

 36 37  0  0  0  0  0  0  0  0999 V2000
   -6.0180   18.6450  -34.1910 C   0  0  0  0  0  0  0  0  0  0  0  0
   -5.0350   19.6740  -34.1230 O   0  0  0  0  0  0  0  0  0  0  0  0
   -5.0280   20.7080  -33.1720 C   0  0  0  0  0  0  0  0  0  0  0  0
   -6.1630   21.0120  -32.3980 C   0  0  0  0  0  0  0  0  0  0  0  0
   -6.1240   22.0430  -31.4570 C   0  0  0  0  0  0  0  0  0  0  0  0
   -4.9590   22.7970  -31.2860 C   0  0  0  0  0  0  0  0  0  0  0  0
   -4.9180   24.0920  -30.0920 S   0  0  0  0  0  0  0  0  0  0  0  0
   -6.2570   24.7760  -30.0750 O   0  0  0  0  0  0  0  0  0  0  0  0
   -3.8720   25.1040  -30.4760 O   0  0  0  0  0  0  0  0  0  0  0  0
   -4.5720   23.4350  -28.5120 N   0  0  0  0  0  0  0  0  0  0  0  0
   -3.4850   22.4540  -28.6160 C   0  0  0  0  0  0  0  0  0  0  0  0
   -4.1800   24.5250  -27.6090 C   0  0  0  0  0  0  0  0  0  0  0  0
   -3.8240   22.5000  -32.0510 C   0  0  0  0  0  0  0  0  0  0  0  0
   -3.8440   21.4490  -32.9850 C   0  0  0  0  0  0  0  0  0  0  0  0
   -2.6820   21.1560  -33.7830 N   0  0  0  0  0  0  0  0  0  0  0  0
   -1.3410   21.1850  -33.2650 C   0  0  0  0  0  0  0  0  0  0  0  0
   -1.1450   21.1400  -32.0200 O   0  0  0  0  0  0  0  0  0  0  0  0
   -0.1760   21.2260  -34.1680 C   0  0  0  0  0  0  0  0  0  0  0  0
    0.7510   20.1860  -34.2950 C   0  0  0  0  0  0  0  0  0  0  0  0
    1.8300   20.7360  -35.4420 S   0  0  0  0  0  0  0  0  0  0  0  0
    1.1370   22.2100  -35.7460 N   0  0  0  0  0  0  0  0  0  0  0  0
    0.0610   22.3100  -34.9720 N   0  0  0  0  0  0  0  0  0  0  0  0
   -6.3052   18.3444  -33.1726 H   0  0  0  0  0  0  0  0  0  0  0  0
   -6.9033   19.0185  -34.7265 H   0  0  0  0  0  0  0  0  0  0  0  0
   -5.6045   17.7777  -34.7265 H   0  0  0  0  0  0  0  0  0  0  0  0
   -7.0882   20.4330  -32.5352 H   0  0  0  0  0  0  0  0  0  0  0  0
   -7.0132   22.2628  -30.8479 H   0  0  0  0  0  0  0  0  0  0  0  0
   -3.1589   22.1597  -27.6075 H   0  0  0  0  0  0  0  0  0  0  0  0
   -3.8425   21.5668  -29.1592 H   0  0  0  0  0  0  0  0  0  0  0  0
   -2.6390   22.9003  -29.1592 H   0  0  0  0  0  0  0  0  0  0  0  0
   -4.2979   24.1971  -26.5656 H   0  0  0  0  0  0  0  0  0  0  0  0
   -3.1291   24.7932  -27.7925 H   0  0  0  0  0  0  0  0  0  0  0  0
   -4.8194   25.4011  -27.7925 H   0  0  0  0  0  0  0  0  0  0  0  0
   -2.9080   23.0947  -31.9199 H   0  0  0  0  0  0  0  0  0  0  0  0
   -2.8300   20.8110  -34.7570 H   0  0  0  0  0  0  0  0  0  0  0  0
    0.7651   19.2248  -33.7604 H   0  0  0  0  0  0  0  0  0  0  0  0
  1  2  1  0
  2  3  1  0
  3  4  2  0
  4  5  1  0
  5  6  2  0
  6  7  1  0
  7  8  2  0
  7  9  2  0
  7 10  1  0
 10 11  1  0
 10 12  1  0
  6 13  1  0
 13 14  2  0
 14 15  1  0
 15 16  1  0
 16 17  2  0
 16 18  1  0
 18 19  2  0
 19 20  1  0
 20 21  1  0
 21 22  2  0
 14  3  1  0
 22 18  1  0
  1 23  1  0
  1 24  1  0
  1 25  1  0
  4 26  1  0
  5 27  1  0
 11 28  1  0
 11 29  1  0
 11 30  1  0
 12 31  1  0
 12 32  1  0
 12 33  1  0
 13 34  1  0
 15 35  1  0
 19 36  1  0
M  END
>  <UniqueID>  (32) 
30

>  <SMILES>  (32) 
COc1ccc(S(=O)(=O)N(C)C)cc1NC(=O)c1csnn1

>  <Energy>  (32) 
73.54572283009763

>  <Genealogy>  (32) 
COc1ccc(S(=O)(=O)N(C)C)cc1NC(=O)c1csnn1 (3D coordinates assigned)
COc1ccc(S(=O)(=O)N(C)C)cc1NC(=O)c1csnn1 (optimized conformer: 73.54572283009763 kcal/mol)

>  <smiles>  (32) 
COc1ccc(S(=O)(=O)N(C)C)cc1NC(=O)c1csnn1

>  <score_type>  (32) 
oracle

>  <origin>  (32) 
adgpu

>  <m_score__min__energy>  (32) 
-8.1099999999999994

>  <m_primary>  (32) 
energy

$$$$
32:0
     RDKit          3D

 57 61  0  0  0  0  0  0  0  0999 V2000
   -4.6260   25.1592  -30.3059 H   0  0  0  0  0  0  0  0  0  0  0  0
   -3.7510   24.5930  -29.9540 C   0  0  0  0  0  0  0  0  0  0  0  0
   -2.7220   25.2500  -29.3500 N   0  0  0  0  0  0  0  0  0  0  0  0
   -1.6360   24.5680  -28.9110 C   0  0  0  0  0  0  0  0  0  0  0  0
   -0.5360   25.1650  -28.2870 C   0  0  0  0  0  0  0  0  0  0  0  0
   -0.4580   26.2449  -28.0929 H   0  0  0  0  0  0  0  0  0  0  0  0
    0.4550   24.2410  -27.9360 C   0  0  0  0  0  0  0  0  0  0  0  0
    1.7460   24.5340  -27.2620 C   0  0  0  0  0  0  0  0  0  0  0  0
    2.9330   24.6130  -28.0130 C   0  0  0  0  0  0  0  0  0  0  0  0
    2.9024   24.4512  -29.1006 H   0  0  0  0  0  0  0  0  0  0  0  0
    4.1490   24.8950  -27.3890 C   0  0  0  0  0  0  0  0  0  0  0  0
    5.0688   24.9653  -27.9883 H   0  0  0  0  0  0  0  0  0  0  0  0
    4.2030   25.0880  -26.0090 C   0  0  0  0  0  0  0  0  0  0  0  0
    5.1635   25.3223  -25.5267 H   0  0  0  0  0  0  0  0  0  0  0  0
    3.0390   24.9850  -25.2320 C   0  0  0  0  0  0  0  0  0  0  0  0
    3.0980   25.2010  -23.7310 C   0  0  0  0  0  0  0  0  0  0  0  0
    4.1452   25.0976  -23.4107 H   0  0  0  0  0  0  0  0  0  0  0  0
    2.4323   24.4491  -23.2822 H   0  0  0  0  0  0  0  0  0  0  0  0
    2.6030   26.5260  -23.2750 N   0  0  0  0  0  0  0  0  0  0  0  0
    2.8220   26.5570  -22.2510 H   0  0  0  0  0  0  0  0  0  0  0  0
    3.3250   27.6590  -23.9110 C   0  0  0  0  0  0  0  0  0  0  0  0
    3.5862   27.3730  -24.9406 H   0  0  0  0  0  0  0  0  0  0  0  0
    4.2163   27.8626  -23.2994 H   0  0  0  0  0  0  0  0  0  0  0  0
    2.4940   28.9620  -23.9590 C   0  0  0  0  0  0  0  0  0  0  0  0
    1.9098   28.9718  -24.8910 H   0  0  0  0  0  0  0  0  0  0  0  0
    3.1985   29.8054  -23.9092 H   0  0  0  0  0  0  0  0  0  0  0  0
    1.5650   29.0920  -22.8190 N   0  0  0  0  0  0  0  0  0  0  0  0
    2.2690   29.4350  -21.5720 C   0  0  0  0  0  0  0  0  0  0  0  0
    1.6548   29.1357  -20.7099 H   0  0  0  0  0  0  0  0  0  0  0  0
    3.2325   28.9053  -21.5373 H   0  0  0  0  0  0  0  0  0  0  0  0
    2.4457   30.5202  -21.5373 H   0  0  0  0  0  0  0  0  0  0  0  0
    0.6550   27.9300  -22.6630 C   0  0  0  0  0  0  0  0  0  0  0  0
   -0.3332   28.2061  -23.0596 H   0  0  0  0  0  0  0  0  0  0  0  0
    0.6216   27.6873  -21.5906 H   0  0  0  0  0  0  0  0  0  0  0  0
    1.1400   26.6650  -23.3990 C   0  0  0  0  0  0  0  0  0  0  0  0
    0.8721   26.7400  -24.4633 H   0  0  0  0  0  0  0  0  0  0  0  0
    0.6589   25.7842  -22.9488 H   0  0  0  0  0  0  0  0  0  0  0  0
    1.8110   24.7290  -25.8700 C   0  0  0  0  0  0  0  0  0  0  0  0
    0.8890   24.6807  -25.2720 H   0  0  0  0  0  0  0  0  0  0  0  0
   -0.0700   22.7060  -28.4180 S   0  0  0  0  0  0  0  0  0  0  0  0
   -1.5470   23.1910  -29.0660 C   0  0  0  0  0  0  0  0  0  0  0  0
   -2.5870   22.4590  -29.6840 C   0  0  0  0  0  0  0  0  0  0  0  0
   -2.5660   21.1640  -29.8590 N   0  0  0  0  0  0  0  0  0  0  0  0
   -1.5370   20.2470  -29.4700 C   0  0  0  0  0  0  0  0  0  0  0  0
   -0.4410   20.0110  -30.3190 C   0  0  0  0  0  0  0  0  0  0  0  0
   -0.3270   20.8060  -31.8830 Cl  0  0  0  0  0  0  0  0  0  0  0  0
    0.5680   19.1250  -29.9280 C   0  0  0  0  0  0  0  0  0  0  0  0
    1.4201   18.9345  -30.5971 H   0  0  0  0  0  0  0  0  0  0  0  0
    0.4970   18.4810  -28.6900 C   0  0  0  0  0  0  0  0  0  0  0  0
    1.2908   17.7819  -28.3882 H   0  0  0  0  0  0  0  0  0  0  0  0
   -0.5810   18.7240  -27.8350 C   0  0  0  0  0  0  0  0  0  0  0  0
   -0.6328   18.2176  -26.8599 H   0  0  0  0  0  0  0  0  0  0  0  0
   -1.5950   19.6100  -28.2160 C   0  0  0  0  0  0  0  0  0  0  0  0
   -2.9420   19.8960  -27.1220 Cl  0  0  0  0  0  0  0  0  0  0  0  0
   -3.7070   23.1960  -30.1330 C   0  0  0  0  0  0  0  0  0  0  0  0
   -4.8210   22.5410  -30.7790 C   0  0  0  0  0  0  0  0  0  0  0  0
   -5.7120   22.0160  -31.2960 N   0  0  0  0  0  0  0  0  0  0  0  0
  1  2  1  0
  2  3  1  0
  3  4  1  0
  4  5  1  0
  5  6  1  0
  5  7  2  0
  7  8  1  0
  8  9  2  0
  9 10  1  0
  9 11  1  0
 11 12  1  0
 11 13  2  0
 13 14  1  0
 13 15  1  0
 15 16  1  0
 16 17  1  0
 16 18  1  0
 16 19  1  0
 19 20  1  0
 19 21  1  0
 21 22  1  0
 21 23  1  0
 21 24  1  0
 24 25  1  0
 24 26  1  0
 24 27  1  0
 27 28  1  0
 28 29  1  0
 28 30  1  0
 28 31  1  0
 27 32  1  0
 32 33  1  0
 32 34  1  0
 32 35  1  0
 35 36  1  0
 35 37  1  0
 15 38  2  0
 38 39  1  0
  7 40  1  0
 40 41  1  0
 41 42  1  0
 42 43  2  0
 43 44  1  0
 44 45  2  0
 45 46  1  0
 45 47  1  0
 47 48  1  0
 47 49  2  0
 49 50  1  0
 49 51  1  0
 51 52  1  0
 51 53  2  0
 53 54  1  0
 42 55  1  0
 55 56  1  0
 56 57  3  0
 55  2  2  0
 41  4  2  0
 53 44  1  0
 38  8  1  0
 35 19  1  0
M  CHG  2   3  -1  19   1
M  END
>  <UniqueID>  (33) 
31

>  <SMILES>  (33) 
CN1CC[NH+](Cc2cccc(-c3cc4[n-]cc(C#N)/c(=N/c5c(Cl)cccc5Cl)c4s3)c2)CC1

>  <Energy>  (33) 
125.93647439392731

>  <Genealogy>  (33) 
CN1CC[NH+](Cc2cccc(-c3cc4[n-]cc(C#N)c(=Nc5c(Cl)cccc5Cl)c4s3)c2)CC1 (protonated)
CN1CC[NH+](Cc2cccc(-c3cc4[n-]cc(C#N)/c(=N/c5c(Cl)cccc5Cl)c4s3)c2)CC1 (cis-trans isomerization)
CN1CC[NH+](Cc2cccc(-c3cc4[n-]cc(C#N)/c(=N/c5c(Cl)cccc5Cl)c4s3)c2)CC1 (3D coordinates assigned)
CN1CC[NH+](Cc2cccc(-c3cc4[n-]cc(C#N)/c(=N/c5c(Cl)cccc5Cl)c4s3)c2)CC1 (nonaromatic ring conformer: 125.93647439392731 kcal/mol)

>  <smiles>  (33) 
CN1CCN(Cc2cccc(-c3cc4[nH]cc(C#N)c(=Nc5c(Cl)cccc5Cl)c4s3)c2)CC1

>  <score_type>  (33) 
oracle

>  <origin>  (33) 
adgpu

>  <m_score__min__energy>  (33) 
-9.8200000000000003

>  <m_primary>  (33) 
energy

$$$$
33:0
     RDKit          3D

 58 61  0  0  0  0  0  0  0  0999 V2000
   -7.7540   18.6760  -32.3030 C   0  0  0  0  0  0  0  0  0  0  0  0
   -6.4490   19.2000  -32.7010 N   0  0  0  0  0  0  0  0  0  0  0  0
   -6.0010   20.4860  -32.2290 C   0  0  0  0  0  0  0  0  0  0  0  0
   -6.6250   21.6680  -32.6650 C   0  0  0  0  0  0  0  0  0  0  0  0
   -6.1820   22.9150  -32.2110 C   0  0  0  0  0  0  0  0  0  0  0  0
   -5.1160   22.9940  -31.3080 C   0  0  0  0  0  0  0  0  0  0  0  0
   -4.6660   24.2760  -30.8330 C   0  0  0  0  0  0  0  0  0  0  0  0
   -4.3030   25.3060  -30.4500 N   0  0  0  0  0  0  0  0  0  0  0  0
   -4.5020   21.8220  -30.8520 C   0  0  0  0  0  0  0  0  0  0  0  0
   -4.9430   20.5760  -31.3070 C   0  0  0  0  0  0  0  0  0  0  0  0
   -5.5480   18.3490  -33.9220 S   0  0  0  0  0  0  0  0  0  0  0  0
   -5.6830   16.8660  -33.7110 O   0  0  0  0  0  0  0  0  0  0  0  0
   -6.1040   18.6750  -35.2810 O   0  0  0  0  0  0  0  0  0  0  0  0
   -3.8460   18.7970  -33.8370 C   0  0  0  0  0  0  0  0  0  0  0  0
   -2.8680   17.7990  -33.7440 C   0  0  0  0  0  0  0  0  0  0  0  0
   -1.5160   18.1430  -33.6620 C   0  0  0  0  0  0  0  0  0  0  0  0
   -1.1200   19.4950  -33.6660 C   0  0  0  0  0  0  0  0  0  0  0  0
    0.3140   19.8600  -33.5760 C   0  0  0  0  0  0  0  0  0  0  0  0
    0.9990   19.9790  -34.6270 O   0  0  0  0  0  0  0  0  0  0  0  0
    0.9320   20.0280  -32.2930 N   0  0  0  0  0  0  0  0  0  0  0  0
    0.2700   20.0490  -31.0200 C   0  0  0  0  0  0  0  0  0  0  0  0
    0.5060   19.0720  -30.0380 C   0  0  0  0  0  0  0  0  0  0  0  0
   -0.1440   19.1430  -28.8030 C   0  0  0  0  0  0  0  0  0  0  0  0
   -1.0280   20.1930  -28.5280 C   0  0  0  0  0  0  0  0  0  0  0  0
   -1.8410   20.2680  -26.9680 S   0  0  0  0  0  0  0  0  0  0  0  0
   -3.1880   20.9070  -27.1590 O   0  0  0  0  0  0  0  0  0  0  0  0
   -2.0320   18.8910  -26.3940 O   0  0  0  0  0  0  0  0  0  0  0  0
   -0.9110   21.2260  -25.8560 N   0  0  0  0  0  0  0  0  0  0  0  0
   -0.9280   22.5240  -25.7530 C   0  0  0  0  0  0  0  0  0  0  0  0
   -0.1180   23.1270  -24.7820 C   0  0  0  0  0  0  0  0  0  0  0  0
   -0.1190   24.5150  -24.6450 C   0  0  0  0  0  0  0  0  0  0  0  0
   -0.9320   25.2920  -25.4690 C   0  0  0  0  0  0  0  0  0  0  0  0
   -0.9550   27.1930  -25.2860 Br  0  0  0  0  0  0  0  0  0  0  0  0
   -1.7300   24.6650  -26.4280 C   0  0  0  0  0  0  0  0  0  0  0  0
   -1.7110   23.3090  -26.5580 N   0  0  0  0  0  0  0  0  0  0  0  0
   -1.2440   21.1840  -29.4940 C   0  0  0  0  0  0  0  0  0  0  0  0
   -0.5930   21.1140  -30.7290 C   0  0  0  0  0  0  0  0  0  0  0  0
   -2.1080   20.4910  -33.7630 C   0  0  0  0  0  0  0  0  0  0  0  0
   -3.4590   20.1440  -33.8520 C   0  0  0  0  0  0  0  0  0  0  0  0
   -7.8193   18.6498  -31.2053 H   0  0  0  0  0  0  0  0  0  0  0  0
   -8.5471   19.3254  -32.7021 H   0  0  0  0  0  0  0  0  0  0  0  0
   -7.8778   17.6585  -32.7021 H   0  0  0  0  0  0  0  0  0  0  0  0
   -7.4685   21.6119  -33.3689 H   0  0  0  0  0  0  0  0  0  0  0  0
   -6.6722   23.8342  -32.5642 H   0  0  0  0  0  0  0  0  0  0  0  0
   -3.6707   21.8814  -30.1341 H   0  0  0  0  0  0  0  0  0  0  0  0
   -4.4586   19.6587  -30.9410 H   0  0  0  0  0  0  0  0  0  0  0  0
   -3.1652   16.7399  -33.7355 H   0  0  0  0  0  0  0  0  0  0  0  0
   -0.7549   17.3518  -33.5938 H   0  0  0  0  0  0  0  0  0  0  0  0
    1.2053   18.2479  -30.2423 H   0  0  0  0  0  0  0  0  0  0  0  0
    0.0400   18.3696  -28.0428 H   0  0  0  0  0  0  0  0  0  0  0  0
    0.5163   22.5083  -24.1302 H   0  0  0  0  0  0  0  0  0  0  0  0
    0.5198   24.9952  -23.8891 H   0  0  0  0  0  0  0  0  0  0  0  0
   -2.3769   25.2687  -27.0815 H   0  0  0  0  0  0  0  0  0  0  0  0
   -2.3170   22.8970  -27.3000 H   0  0  0  0  0  0  0  0  0  0  0  0
   -1.9273   22.0191  -29.2803 H   0  0  0  0  0  0  0  0  0  0  0  0
   -0.7595   21.9015  -31.4787 H   0  0  0  0  0  0  0  0  0  0  0  0
   -1.8153   21.5513  -33.7689 H   0  0  0  0  0  0  0  0  0  0  0  0
   -4.2222   20.9319  -33.9342 H   0  0  0  0  0  0  0  0  0  0  0  0
  1  2  1  0
  2  3  1  0
  3  4  2  0
  4  5  1  0
  5  6  2  0
  6  7  1  0
  7  8  3  0
  6  9  1  0
  9 10  2  0
  2 11  1  0
 11 12  2  0
 11 13  2  0
 11 14  1  0
 14 15  2  0
 15 16  1  0
 16 17  2  0
 17 18  1  0
 18 19  2  0
 18 20  1  0
 20 21  1  0
 21 22  2  0
 22 23  1  0
 23 24  2  0
 24 25  1  0
 25 26  2  0
 25 27  2  0
 25 28  1  0
 28 29  2  3
 29 30  1  0
 30 31  2  0
 31 32  1  0
 32 33  1  0
 32 34  2  0
 34 35  1  0
 24 36  1  0
 36 37  2  0
 17 38  1  0
 38 39  2  0
 10  3  1  0
 39 14  1  0
 37 21  1  0
 35 29  1  0
  1 40  1  0
  1 41  1  0
  1 42  1  0
  4 43  1  0
  5 44  1  0
  9 45  1  0
 10 46  1  0
 15 47  1  0
 16 48  1  0
 22 49  1  0
 23 50  1  0
 30 51  1  0
 31 52  1  0
 34 53  1  0
 35 54  1  0
 36 55  1  0
 37 56  1  0
 38 57  1  0
 39 58  1  0
M  CHG  1  20  -1
M  END
>  <UniqueID>  (34) 
32

>  <SMILES>  (34) 
CN(c1ccc(C#N)cc1)S(=O)(=O)c1ccc(C(=O)[N-]c2ccc(S(=O)(=O)N=c3ccc(Br)c[nH]3)cc2)cc1

>  <Energy>  (34) 
76.14804961639086

>  <Genealogy>  (34) 
CN(c1ccc(C#N)cc1)S(=O)(=O)c1ccc(C(=O)[N-]c2ccc(S(=O)(=O)N=c3ccc(Br)c[nH]3)cc2)cc1 (protonated)
CN(c1ccc(C#N)cc1)S(=O)(=O)c1ccc(C(=O)[N-]c2ccc(S(=O)(=O)N=c3ccc(Br)c[nH]3)cc2)cc1 (3D coordinates assigned)
CN(c1ccc(C#N)cc1)S(=O)(=O)c1ccc(C(=O)[N-]c2ccc(S(=O)(=O)N=c3ccc(Br)c[nH]3)cc2)cc1 (optimized conformer: 76.14804961639086 kcal/mol)

>  <smiles>  (34) 
CN(c1ccc(C#N)cc1)S(=O)(=O)c1ccc(C(=O)Nc2ccc(S(=O)(=O)N=c3ccc(Br)c[nH]3)cc2)cc1

>  <score_type>  (34) 
oracle

>  <origin>  (34) 
adgpu

>  <m_score__min__energy>  (34) 
-12.49

>  <m_primary>  (34) 
energy

$$$$
34:0
     RDKit          3D

 40 42  0  0  0  0  0  0  0  0999 V2000
   -9.7720   21.9070  -30.8810 C   0  0  0  0  0  0  0  0  0  0  0  0
   -8.3000   22.1640  -31.0180 C   0  0  0  0  0  0  0  0  0  0  0  0
   -7.5180   22.4090  -29.8810 C   0  0  0  0  0  0  0  0  0  0  0  0
   -6.1540   22.6850  -30.0080 C   0  0  0  0  0  0  0  0  0  0  0  0
   -5.5480   22.7330  -31.2790 C   0  0  0  0  0  0  0  0  0  0  0  0
   -4.0740   23.0480  -31.4630 C   0  0  1  0  0  0  0  0  0  0  0  0
   -3.6130   24.0590  -30.4470 C   0  0  0  0  0  0  0  0  0  0  0  0
   -3.9560   25.2650  -30.5730 O   0  0  0  0  0  0  0  0  0  0  0  0
   -2.7890   23.6770  -29.3430 N   0  0  0  0  0  0  0  0  0  0  0  0
   -2.5020   22.2830  -29.0210 C   0  0  1  0  0  0  0  0  0  0  0  0
   -3.4830   21.7830  -27.9610 C   0  0  0  0  0  0  0  0  0  0  0  0
   -2.5380   21.4170  -30.2500 C   0  0  0  0  0  0  0  0  0  0  0  0
   -1.9500   20.3010  -30.2200 O   0  0  0  0  0  0  0  0  0  0  0  0
   -3.2400   21.8320  -31.4420 N   0  0  0  0  0  0  0  0  0  0  0  0
   -3.1910   20.9910  -32.6470 C   0  0  0  0  0  0  0  0  0  0  0  0
   -4.3830   20.0890  -32.6930 C   0  0  0  0  0  0  0  0  0  0  0  0
   -5.0510   19.6750  -33.8380 C   0  0  0  0  0  0  0  0  0  0  0  0
   -6.1660   18.8750  -33.5630 C   0  0  0  0  0  0  0  0  0  0  0  0
   -6.3840   18.6680  -32.2070 C   0  0  0  0  0  0  0  0  0  0  0  0
   -5.1870   19.4800  -31.3490 S   0  0  0  0  0  0  0  0  0  0  0  0
   -6.3440   22.5030  -32.4150 C   0  0  0  0  0  0  0  0  0  0  0  0
   -7.7080   22.2280  -32.2860 C   0  0  0  0  0  0  0  0  0  0  0  0
  -10.0384   21.8605  -29.8148 H   0  0  0  0  0  0  0  0  0  0  0  0
  -10.3328   22.7208  -31.3639 H   0  0  0  0  0  0  0  0  0  0  0  0
  -10.0239   20.9513  -31.3639 H   0  0  0  0  0  0  0  0  0  0  0  0
   -7.9804   22.3839  -28.8832 H   0  0  0  0  0  0  0  0  0  0  0  0
   -5.5482   22.8663  -29.1079 H   0  0  0  0  0  0  0  0  0  0  0  0
   -3.9520   23.4925  -32.4618 H   0  0  0  0  0  0  0  0  0  0  0  0
   -2.4920   24.4140  -28.6630 H   0  0  0  0  0  0  0  0  0  0  0  0
   -1.4820   22.2211  -28.6138 H   0  0  0  0  0  0  0  0  0  0  0  0
   -3.0775   21.9897  -26.9596 H   0  0  0  0  0  0  0  0  0  0  0  0
   -4.4466   22.2999  -28.0803 H   0  0  0  0  0  0  0  0  0  0  0  0
   -3.6309   20.6995  -28.0803 H   0  0  0  0  0  0  0  0  0  0  0  0
   -3.1866   21.6340  -33.5395 H   0  0  0  0  0  0  0  0  0  0  0  0
   -2.2772   20.3791  -32.6221 H   0  0  0  0  0  0  0  0  0  0  0  0
   -4.7362   19.9477  -34.8561 H   0  0  0  0  0  0  0  0  0  0  0  0
   -6.8095   18.4500  -34.3474 H   0  0  0  0  0  0  0  0  0  0  0  0
   -7.2001   18.0744  -31.7691 H   0  0  0  0  0  0  0  0  0  0  0  0
   -5.8884   22.5399  -33.4155 H   0  0  0  0  0  0  0  0  0  0  0  0
   -8.3199   22.0609  -33.1847 H   0  0  0  0  0  0  0  0  0  0  0  0
  1  2  1  0
  2  3  2  0
  3  4  1  0
  4  5  2  0
  5  6  1  0
  6  7  1  0
  7  8  2  0
  7  9  1  0
  9 10  1  0
 10 11  1  0
 10 12  1  0
 12 13  2  0
 12 14  1  0
 14 15  1  0
 15 16  1  0
 16 17  2  0
 17 18  1  0
 18 19  2  0
 19 20  1  0
  5 21  1  0
 21 22  2  0
 22  2  1  0
 14  6  1  0
 20 16  1  0
  1 23  1  0
  1 24  1  0
  1 25  1  0
  3 26  1  0
  4 27  1  0
  6 28  1  6
  9 29  1  0
 10 30  1  1
 11 31  1  0
 11 32  1  0
 11 33  1  0
 15 34  1  0
 15 35  1  0
 17 36  1  0
 18 37  1  0
 19 38  1  0
 21 39  1  0
 22 40  1  0
M  END
>  <UniqueID>  (35) 
33

>  <SMILES>  (35) 
Cc1ccc([C@H]2C(=O)N[C@@H](C)C(=O)N2Cc2cccs2)cc1

>  <Energy>  (35) 
62.89404428399066

>  <Genealogy>  (35) 
Cc1ccc([C@H]2C(=O)N[C@@H](C)C(=O)N2Cc2cccs2)cc1 (chirality)
Cc1ccc([C@H]2C(=O)N[C@@H](C)C(=O)N2Cc2cccs2)cc1 (3D coordinates assigned)
Cc1ccc([C@H]2C(=O)N[C@@H](C)C(=O)N2Cc2cccs2)cc1 (nonaromatic ring conformer: 62.89404428399066 kcal/mol)

>  <smiles>  (35) 
Cc1ccc(C2C(=O)NC(C)C(=O)N2Cc2cccs2)cc1

>  <score_type>  (35) 
oracle

>  <origin>  (35) 
adgpu

>  <m_score__min__energy>  (35) 
-7.2699999999999996

>  <m_primary>  (35) 
energy

$$$$
35:0
     RDKit          3D

 34 37  0  0  0  0  0  0  0  0999 V2000
   -4.4970   25.9610  -30.6560 O   0  0  0  0  0  0  0  0  0  0  0  0
   -3.8530   24.9210  -30.3520 C   0  0  0  0  0  0  0  0  0  0  0  0
   -2.6920   25.0450  -29.5970 O   0  0  0  0  0  0  0  0  0  0  0  0
   -4.3220   23.5900  -30.7930 C   0  0  0  0  0  0  0  0  0  0  0  0
   -3.3870   22.5460  -31.0270 C   0  0  0  0  0  0  0  0  0  0  0  0
   -3.8140   21.2740  -31.4460 C   0  0  0  0  0  0  0  0  0  0  0  0
   -5.1790   21.0740  -31.6220 C   0  0  0  0  0  0  0  0  0  0  0  0
   -6.1000   22.0750  -31.3990 C   0  0  0  0  0  0  0  0  0  0  0  0
   -5.7040   23.3450  -30.9830 C   0  0  0  0  0  0  0  0  0  0  0  0
   -7.3600   21.6510  -31.6330 N   0  0  0  0  0  0  0  0  0  0  0  0
   -7.2240   20.3600  -32.0090 C   0  0  0  0  0  0  0  0  0  0  0  0
   -8.2400   19.4750  -32.3580 C   0  0  0  0  0  0  0  0  0  0  0  0
   -7.8800   18.1640  -32.7190 C   0  0  0  0  0  0  0  0  0  0  0  0
   -6.5180   17.7540  -32.7270 C   0  0  0  0  0  0  0  0  0  0  0  0
   -6.1540   16.3660  -33.1100 C   0  0  0  0  0  0  0  0  0  0  0  0
   -6.9030   15.6710  -34.0790 C   0  0  0  0  0  0  0  0  0  0  0  0
   -6.5590   14.3650  -34.4370 C   0  0  0  0  0  0  0  0  0  0  0  0
   -5.4660   13.7370  -33.8340 C   0  0  0  0  0  0  0  0  0  0  0  0
   -4.7150   14.4150  -32.8720 C   0  0  0  0  0  0  0  0  0  0  0  0
   -5.0560   15.7220  -32.5090 C   0  0  0  0  0  0  0  0  0  0  0  0
   -5.5110   18.6810  -32.3680 C   0  0  0  0  0  0  0  0  0  0  0  0
   -5.9020   19.9710  -32.0150 C   0  0  0  0  0  0  0  0  0  0  0  0
   -2.3138   22.7359  -30.8782 H   0  0  0  0  0  0  0  0  0  0  0  0
   -3.0926   20.4639  -31.6286 H   0  0  0  0  0  0  0  0  0  0  0  0
   -6.4464   24.1373  -30.8066 H   0  0  0  0  0  0  0  0  0  0  0  0
   -8.2450   22.1980  -31.5420 H   0  0  0  0  0  0  0  0  0  0  0  0
   -9.2935   19.7915  -32.3517 H   0  0  0  0  0  0  0  0  0  0  0  0
   -8.6637   17.4449  -32.9994 H   0  0  0  0  0  0  0  0  0  0  0  0
   -7.7647   16.1596  -34.5573 H   0  0  0  0  0  0  0  0  0  0  0  0
   -7.1498   13.8300  -35.1951 H   0  0  0  0  0  0  0  0  0  0  0  0
   -5.1974   12.7086  -34.1172 H   0  0  0  0  0  0  0  0  0  0  0  0
   -3.8538   13.9206  -32.3988 H   0  0  0  0  0  0  0  0  0  0  0  0
   -4.4621   16.2503  -31.7486 H   0  0  0  0  0  0  0  0  0  0  0  0
   -4.4498   18.3915  -32.3676 H   0  0  0  0  0  0  0  0  0  0  0  0
  1  2  2  0
  2  3  1  0
  2  4  1  0
  4  5  2  0
  5  6  1  0
  6  7  2  0
  7  8  1  0
  8  9  2  0
  8 10  1  0
 10 11  1  0
 11 12  2  0
 12 13  1  0
 13 14  2  0
 14 15  1  0
 15 16  2  0
 16 17  1  0
 17 18  2  0
 18 19  1  0
 19 20  2  0
 14 21  1  0
 21 22  2  0
  9  4  1  0
 22 11  1  0
 22  7  1  0
 20 15  1  0
  5 23  1  0
  6 24  1  0
  9 25  1  0
 10 26  1  0
 12 27  1  0
 13 28  1  0
 16 29  1  0
 17 30  1  0
 18 31  1  0
 19 32  1  0
 20 33  1  0
 21 34  1  0
M  CHG  1   3  -1
M  END
>  <UniqueID>  (36) 
34

>  <SMILES>  (36) 
O=C([O-])c1ccc2c(c1)[nH]c1ccc(-c3ccccc3)cc12

>  <Energy>  (36) 
85.04111658546417

>  <Genealogy>  (36) 
O=C([O-])c1ccc2c(c1)[nH]c1ccc(-c3ccccc3)cc12 (protonated)
O=C([O-])c1ccc2c(c1)[nH]c1ccc(-c3ccccc3)cc12 (3D coordinates assigned)
O=C([O-])c1ccc2c(c1)[nH]c1ccc(-c3ccccc3)cc12 (optimized conformer: 85.04111658546417 kcal/mol)

>  <smiles>  (36) 
O=C(O)c1ccc2c(c1)[nH]c1ccc(-c3ccccc3)cc12

>  <score_type>  (36) 
oracle

>  <origin>  (36) 
adgpu

>  <m_score__min__energy>  (36) 
-10.210000000000001

>  <m_primary>  (36) 
energy

$$$$
36:0
     RDKit          3D

 58 62  0  0  0  0  0  0  0  0999 V2000
   -2.0590   25.4250  -28.9540 O   0  0  0  0  0  0  0  0  0  0  0  0
   -2.8480   24.5130  -28.5820 C   0  0  0  0  0  0  0  0  0  0  0  0
   -2.5680   23.7650  -27.3840 N   0  0  0  0  0  0  0  0  0  0  0  0
   -1.4920   24.0740  -26.4830 C   0  0  0  0  0  0  0  0  0  0  0  0
   -0.5900   23.0640  -26.1160 C   0  0  0  0  0  0  0  0  0  0  0  0
    0.4550   23.3370  -25.2300 C   0  0  0  0  0  0  0  0  0  0  0  0
    0.5960   24.6140  -24.6840 C   0  0  0  0  0  0  0  0  0  0  0  0
   -0.3180   25.6240  -25.0130 C   0  0  0  0  0  0  0  0  0  0  0  0
   -0.1490   27.2390  -24.3300 S   0  0  0  0  0  0  0  0  0  0  0  0
   -0.8380   27.2830  -22.9940 O   0  0  0  0  0  0  0  0  0  0  0  0
    1.3070   27.5600  -24.1290 O   0  0  0  0  0  0  0  0  0  0  0  0
   -0.8890   28.3960  -25.4060 N   0  0  0  0  0  0  0  0  0  0  0  0
   -0.2360   28.3990  -26.7150 C   0  0  0  0  0  0  0  0  0  0  0  0
   -0.4340   29.7900  -27.2960 C   0  0  0  0  0  0  0  0  0  0  0  0
   -0.7760   30.6790  -26.1100 C   0  0  0  0  0  0  0  0  0  0  0  0
   -0.7500   29.7600  -24.8980 C   0  0  0  0  0  0  0  0  0  0  0  0
   -1.3600   25.3520  -25.9090 C   0  0  0  0  0  0  0  0  0  0  0  0
   -4.0500   24.2290  -29.4030 C   0  0  0  0  0  0  0  0  0  0  0  0
   -4.6380   22.9520  -29.3580 C   0  0  0  0  0  0  0  0  0  0  0  0
   -5.7710   22.6620  -30.1220 C   0  0  0  0  0  0  0  0  0  0  0  0
   -6.3390   23.6450  -30.9460 C   0  0  0  0  0  0  0  0  0  0  0  0
   -7.5850   23.3460  -31.7360 C   0  0  0  0  0  0  0  0  0  0  0  0
   -7.5310   21.9860  -32.2660 N   0  0  0  0  0  0  0  0  0  0  0  0
   -6.3670   21.3130  -32.7550 C   0  0  0  0  0  0  0  0  0  0  0  0
   -5.2880   21.8900  -33.0550 O   0  0  0  0  0  0  0  0  0  0  0  0
   -6.6130   19.8780  -32.8290 C   0  0  0  0  0  0  0  0  0  0  0  0
   -5.7880   18.8330  -33.2430 C   0  0  0  0  0  0  0  0  0  0  0  0
   -6.3020   17.5260  -33.1880 C   0  0  0  0  0  0  0  0  0  0  0  0
   -7.6150   17.2910  -32.7220 C   0  0  0  0  0  0  0  0  0  0  0  0
   -8.4250   18.3630  -32.3050 C   0  0  0  0  0  0  0  0  0  0  0  0
   -7.8930   19.6490  -32.3740 C   0  0  0  0  0  0  0  0  0  0  0  0
   -8.4690   20.9380  -32.0080 C   0  0  0  0  0  0  0  0  0  0  0  0
   -9.6150   21.1170  -31.5170 O   0  0  0  0  0  0  0  0  0  0  0  0
   -5.7740   24.9280  -30.9740 C   0  0  0  0  0  0  0  0  0  0  0  0
   -4.6390   25.2180  -30.2110 C   0  0  0  0  0  0  0  0  0  0  0  0
   -3.1360   22.9180  -27.1660 H   0  0  0  0  0  0  0  0  0  0  0  0
   -0.7064   22.0509  -26.5284 H   0  0  0  0  0  0  0  0  0  0  0  0
    1.1684   22.5438  -24.9619 H   0  0  0  0  0  0  0  0  0  0  0  0
    1.4259   24.8278  -23.9944 H   0  0  0  0  0  0  0  0  0  0  0  0
    0.8369   28.1831  -26.6044 H   0  0  0  0  0  0  0  0  0  0  0  0
   -0.6644   27.6293  -27.3738 H   0  0  0  0  0  0  0  0  0  0  0  0
    0.4883   30.1379  -27.7843 H   0  0  0  0  0  0  0  0  0  0  0  0
   -1.2254   29.8051  -28.0598 H   0  0  0  0  0  0  0  0  0  0  0  0
   -0.0304   31.4805  -26.0017 H   0  0  0  0  0  0  0  0  0  0  0  0
   -1.7537   31.1679  -26.2327 H   0  0  0  0  0  0  0  0  0  0  0  0
    0.2027   29.8692  -24.3591 H   0  0  0  0  0  0  0  0  0  0  0  0
   -1.5597   30.0065  -24.1954 H   0  0  0  0  0  0  0  0  0  0  0  0
   -2.0800   26.1430  -26.1656 H   0  0  0  0  0  0  0  0  0  0  0  0
   -4.2013   22.1739  -28.7147 H   0  0  0  0  0  0  0  0  0  0  0  0
   -6.2196   21.6586  -30.0773 H   0  0  0  0  0  0  0  0  0  0  0  0
   -8.4633   23.4464  -31.0814 H   0  0  0  0  0  0  0  0  0  0  0  0
   -7.6583   24.0554  -32.5735 H   0  0  0  0  0  0  0  0  0  0  0  0
   -4.7661   19.0256  -33.6017 H   0  0  0  0  0  0  0  0  0  0  0  0
   -5.6774   16.6798  -33.5101 H   0  0  0  0  0  0  0  0  0  0  0  0
   -8.0063   16.2636  -32.6850 H   0  0  0  0  0  0  0  0  0  0  0  0
   -9.4469   18.1913  -31.9358 H   0  0  0  0  0  0  0  0  0  0  0  0
   -6.2265   25.7111  -31.6001 H   0  0  0  0  0  0  0  0  0  0  0  0
   -4.2033   26.2275  -30.2429 H   0  0  0  0  0  0  0  0  0  0  0  0
  1  2  2  0
  2  3  1  0
  3  4  1  0
  4  5  2  0
  5  6  1  0
  6  7  2  0
  7  8  1  0
  8  9  1  0
  9 10  2  0
  9 11  2  0
  9 12  1  0
 12 13  1  0
 13 14  1  0
 14 15  1  0
 15 16  1  0
  8 17  2  0
  2 18  1  0
 18 19  2  0
 19 20  1  0
 20 21  2  0
 21 22  1  0
 22 23  1  0
 23 24  1  0
 24 25  2  0
 24 26  1  0
 26 27  2  0
 27 28  1  0
 28 29  2  0
 29 30  1  0
 30 31  2  0
 31 32  1  0
 32 33  2  0
 21 34  1  0
 34 35  2  0
 17  4  1  0
 35 18  1  0
 16 12  1  0
 32 23  1  0
 31 26  1  0
  3 36  1  0
  5 37  1  0
  6 38  1  0
  7 39  1  0
 13 40  1  0
 13 41  1  0
 14 42  1  0
 14 43  1  0
 15 44  1  0
 15 45  1  0
 16 46  1  0
 16 47  1  0
 17 48  1  0
 19 49  1  0
 20 50  1  0
 22 51  1  0
 22 52  1  0
 27 53  1  0
 28 54  1  0
 29 55  1  0
 30 56  1  0
 34 57  1  0
 35 58  1  0
M  END
>  <UniqueID>  (37) 
35

>  <SMILES>  (37) 
O=C(Nc1cccc(S(=O)(=O)N2CCCC2)c1)c1ccc(CN2C(=O)c3ccccc3C2=O)cc1

>  <Energy>  (37) 
100.81896467232606

>  <Genealogy>  (37) 
O=C(Nc1cccc(S(=O)(=O)N2CCCC2)c1)c1ccc(CN2C(=O)c3ccccc3C2=O)cc1 (3D coordinates assigned)
O=C(Nc1cccc(S(=O)(=O)N2CCCC2)c1)c1ccc(CN2C(=O)c3ccccc3C2=O)cc1 (nonaromatic ring conformer: 100.81896467232606 kcal/mol)

>  <smiles>  (37) 
O=C(Nc1cccc(S(=O)(=O)N2CCCC2)c1)c1ccc(CN2C(=O)c3ccccc3C2=O)cc1

>  <score_type>  (37) 
oracle

>  <origin>  (37) 
adgpu

>  <m_score__min__energy>  (37) 
-10.99

>  <m_primary>  (37) 
energy

$$$$
37:0
     RDKit          3D

 52 54  0  0  0  0  0  0  0  0999 V2000
   -0.1910   20.8290  -33.9140 C   0  0  0  0  0  0  0  0  0  0  0  0
   -0.5400   19.9110  -32.7470 C   0  0  0  0  0  0  0  0  0  0  0  0
   -1.8120   20.3190  -32.1310 N   0  0  0  0  0  0  0  0  0  0  0  0
   -3.0920   19.9650  -32.7630 C   0  0  0  0  0  0  0  0  0  0  0  0
   -3.7070   21.1850  -33.4410 C   0  0  0  0  0  0  0  0  0  0  0  0
   -1.8000   21.0760  -30.9050 C   0  0  0  0  0  0  0  0  0  0  0  0
   -1.2260   20.5400  -29.7420 C   0  0  0  0  0  0  0  0  0  0  0  0
   -1.1800   21.2950  -28.5680 C   0  0  0  0  0  0  0  0  0  0  0  0
   -1.6840   22.5980  -28.5490 C   0  0  0  0  0  0  0  0  0  0  0  0
   -2.2470   23.1570  -29.7080 C   0  0  0  0  0  0  0  0  0  0  0  0
   -2.7400   24.5570  -29.6970 C   0  0  0  0  0  0  0  0  0  0  0  0
   -2.1630   25.4100  -28.9730 O   0  0  0  0  0  0  0  0  0  0  0  0
   -3.8850   24.9670  -30.4620 N   0  0  0  0  0  0  0  0  0  0  0  0
   -5.0900   24.2090  -30.6440 C   0  0  0  0  0  0  0  0  0  0  0  0
   -5.6160   23.4980  -29.5590 C   0  0  0  0  0  0  0  0  0  0  0  0
   -6.7600   22.7110  -29.7200 C   0  0  0  0  0  0  0  0  0  0  0  0
   -7.4020   22.6460  -30.9630 C   0  0  0  0  0  0  0  0  0  0  0  0
   -8.8300   21.6360  -31.1670 S   0  0  0  0  0  0  0  0  0  0  0  0
   -9.4870   21.9880  -32.4720 O   0  0  0  0  0  0  0  0  0  0  0  0
   -9.8090   21.8670  -30.0510 O   0  0  0  0  0  0  0  0  0  0  0  0
   -8.3820   19.9580  -31.1940 N   0  0  0  0  0  0  0  0  0  0  0  0
   -7.6330   19.3680  -32.0820 C   0  0  0  0  0  0  0  0  0  0  0  0
   -7.0660   20.0550  -33.1760 C   0  0  0  0  0  0  0  0  0  0  0  0
   -6.2770   19.3550  -34.0900 C   0  0  0  0  0  0  0  0  0  0  0  0
   -6.0530   17.9900  -33.9180 C   0  0  0  0  0  0  0  0  0  0  0  0
   -6.6260   17.3390  -32.8240 C   0  0  0  0  0  0  0  0  0  0  0  0
   -7.3930   18.0350  -31.9440 N   0  0  0  0  0  0  0  0  0  0  0  0
   -6.9000   23.3860  -32.0410 C   0  0  0  0  0  0  0  0  0  0  0  0
   -5.7550   24.1710  -31.8820 C   0  0  0  0  0  0  0  0  0  0  0  0
   -2.3350   22.3730  -30.8710 C   0  0  0  0  0  0  0  0  0  0  0  0
    0.1749   21.7914  -33.5268 H   0  0  0  0  0  0  0  0  0  0  0  0
    0.5914   20.3597  -34.5284 H   0  0  0  0  0  0  0  0  0  0  0  0
   -1.0876   20.9980  -34.5284 H   0  0  0  0  0  0  0  0  0  0  0  0
   -0.6308   18.8780  -33.1140 H   0  0  0  0  0  0  0  0  0  0  0  0
    0.2574   19.9774  -31.9922 H   0  0  0  0  0  0  0  0  0  0  0  0
   -2.9200   19.1809  -33.5151 H   0  0  0  0  0  0  0  0  0  0  0  0
   -3.7833   19.6016  -31.9884 H   0  0  0  0  0  0  0  0  0  0  0  0
   -4.0624   21.8900  -32.6750 H   0  0  0  0  0  0  0  0  0  0  0  0
   -2.9491   21.6767  -34.0685 H   0  0  0  0  0  0  0  0  0  0  0  0
   -4.5531   20.8682  -34.0685 H   0  0  0  0  0  0  0  0  0  0  0  0
   -0.8108   19.5215  -29.7551 H   0  0  0  0  0  0  0  0  0  0  0  0
   -0.7454   20.8622  -27.6549 H   0  0  0  0  0  0  0  0  0  0  0  0
   -1.6397   23.1887  -27.6221 H   0  0  0  0  0  0  0  0  0  0  0  0
   -5.1270   23.5588  -28.5755 H   0  0  0  0  0  0  0  0  0  0  0  0
   -7.1574   22.1408  -28.8674 H   0  0  0  0  0  0  0  0  0  0  0  0
   -7.2441   21.1325  -33.3074 H   0  0  0  0  0  0  0  0  0  0  0  0
   -5.8314   19.8811  -34.9471 H   0  0  0  0  0  0  0  0  0  0  0  0
   -5.4325   17.4327  -34.6353 H   0  0  0  0  0  0  0  0  0  0  0  0
   -6.4567   16.2625  -32.6742 H   0  0  0  0  0  0  0  0  0  0  0  0
   -7.4086   23.3491  -33.0157 H   0  0  0  0  0  0  0  0  0  0  0  0
   -5.3728   24.7610  -32.7281 H   0  0  0  0  0  0  0  0  0  0  0  0
   -2.8291   22.7807  -31.7652 H   0  0  0  0  0  0  0  0  0  0  0  0
  1  2  1  0
  2  3  1  0
  3  4  1  0
  4  5  1  0
  3  6  1  0
  6  7  2  0
  7  8  1  0
  8  9  2  0
  9 10  1  0
 10 11  1  0
 11 12  2  0
 11 13  1  0
 13 14  1  0
 14 15  2  0
 15 16  1  0
 16 17  2  0
 17 18  1  0
 18 19  2  0
 18 20  2  0
 18 21  1  0
 21 22  2  3
 22 23  1  0
 23 24  2  0
 24 25  1  0
 25 26  2  0
 26 27  1  0
 17 28  1  0
 28 29  2  0
 10 30  2  0
 30  6  1  0
 29 14  1  0
 27 22  1  0
  1 31  1  0
  1 32  1  0
  1 33  1  0
  2 34  1  0
  2 35  1  0
  4 36  1  0
  4 37  1  0
  5 38  1  0
  5 39  1  0
  5 40  1  0
  7 41  1  0
  8 42  1  0
  9 43  1  0
 15 44  1  0
 16 45  1  0
 23 46  1  0
 24 47  1  0
 25 48  1  0
 26 49  1  0
 28 50  1  0
 29 51  1  0
 30 52  1  0
M  CHG  2  13  -1  27  -1
M  END
>  <UniqueID>  (38) 
36

>  <SMILES>  (38) 
CCN(CC)c1cccc(C(=O)[N-]c2ccc(S(=O)(=O)N=c3cccc[n-]3)cc2)c1

>  <Energy>  (38) 
61.97165121534404

>  <Genealogy>  (38) 
CCN(CC)c1cccc(C(=O)[N-]c2ccc(S(=O)(=O)N=c3cccc[n-]3)cc2)c1 (protonated)
CCN(CC)c1cccc(C(=O)[N-]c2ccc(S(=O)(=O)N=c3cccc[n-]3)cc2)c1 (3D coordinates assigned)
CCN(CC)c1cccc(C(=O)[N-]c2ccc(S(=O)(=O)N=c3cccc[n-]3)cc2)c1 (optimized conformer: 61.97165121534404 kcal/mol)

>  <smiles>  (38) 
CCN(CC)c1cccc(C(=O)Nc2ccc(S(=O)(=O)N=c3cccc[nH]3)cc2)c1

>  <score_type>  (38) 
oracle

>  <origin>  (38) 
adgpu

>  <m_score__min__energy>  (38) 
-10.789999999999999

>  <m_primary>  (38) 
energy

$$$$
38:0
     RDKit          3D

 42 44  0  0  0  0  0  0  0  0999 V2000
   -9.4740   21.5520  -30.7380 C   0  0  0  0  0  0  0  0  0  0  0  0
   -9.1250   20.1860  -30.9290 O   0  0  0  0  0  0  0  0  0  0  0  0
   -8.1700   19.7340  -31.8520 C   0  0  0  0  0  0  0  0  0  0  0  0
   -7.5340   20.5980  -32.7640 C   0  0  0  0  0  0  0  0  0  0  0  0
   -6.5830   20.1000  -33.6600 C   0  0  0  0  0  0  0  0  0  0  0  0
   -6.2460   18.7370  -33.6540 C   0  0  0  0  0  0  0  0  0  0  0  0
   -5.2050   18.2040  -34.6020 C   0  0  0  0  0  0  0  0  0  0  0  0
   -3.9120   17.9280  -33.8890 C   0  0  0  0  0  0  0  0  0  0  0  0
   -3.3620   16.6890  -33.6370 C   0  0  0  0  0  0  0  0  0  0  0  0
   -2.2060   16.8480  -32.9650 N   0  0  0  0  0  0  0  0  0  0  0  0
   -2.0000   18.1430  -32.7740 N   0  0  0  0  0  0  0  0  0  0  0  0
   -3.0220   18.8240  -33.3280 C   0  0  0  0  0  0  0  0  0  0  0  0
   -3.1570   20.3190  -33.2510 C   0  0  0  0  0  0  0  0  0  0  0  0
   -2.6940   20.8730  -31.8960 C   0  0  0  0  0  0  0  0  0  0  0  0
   -3.4790   22.0910  -31.4790 C   0  0  0  0  0  0  0  0  0  0  0  0
   -4.8310   22.2140  -31.8320 C   0  0  0  0  0  0  0  0  0  0  0  0
   -5.5520   23.3580  -31.4730 C   0  0  0  0  0  0  0  0  0  0  0  0
   -4.9280   24.3920  -30.7660 C   0  0  0  0  0  0  0  0  0  0  0  0
   -5.6690   25.5220  -30.4210 O   0  0  0  0  0  0  0  0  0  0  0  0
   -3.5730   24.2770  -30.4170 C   0  0  0  0  0  0  0  0  0  0  0  0
   -2.9340   25.2950  -29.7190 O   0  0  0  0  0  0  0  0  0  0  0  0
   -2.8530   23.1310  -30.7750 C   0  0  0  0  0  0  0  0  0  0  0  0
   -6.8930   17.8750  -32.7540 C   0  0  0  0  0  0  0  0  0  0  0  0
   -7.8430   18.3730  -31.8580 C   0  0  0  0  0  0  0  0  0  0  0  0
   -9.5295   21.7691  -29.6611 H   0  0  0  0  0  0  0  0  0  0  0  0
   -8.7110   22.1938  -31.2026 H   0  0  0  0  0  0  0  0  0  0  0  0
  -10.4514   21.7492  -31.2026 H   0  0  0  0  0  0  0  0  0  0  0  0
   -7.7862   21.6687  -32.7716 H   0  0  0  0  0  0  0  0  0  0  0  0
   -6.0958   20.7803  -34.3740 H   0  0  0  0  0  0  0  0  0  0  0  0
   -5.5735   17.2701  -35.0514 H   0  0  0  0  0  0  0  0  0  0  0  0
   -5.0202   18.9612  -35.3782 H   0  0  0  0  0  0  0  0  0  0  0  0
   -3.7979   15.7247  -33.9370 H   0  0  0  0  0  0  0  0  0  0  0  0
   -2.5464   20.7715  -34.0463 H   0  0  0  0  0  0  0  0  0  0  0  0
   -4.2212   20.5692  -33.3728 H   0  0  0  0  0  0  0  0  0  0  0  0
   -2.8206   20.0916  -31.1322 H   0  0  0  0  0  0  0  0  0  0  0  0
   -1.6394   21.1694  -31.9955 H   0  0  0  0  0  0  0  0  0  0  0  0
   -5.3263   21.4079  -32.3932 H   0  0  0  0  0  0  0  0  0  0  0  0
   -6.6136   23.4450  -31.7476 H   0  0  0  0  0  0  0  0  0  0  0  0
   -5.3600   26.1680  -29.7050 H   0  0  0  0  0  0  0  0  0  0  0  0
   -1.7906   23.0453  -30.5029 H   0  0  0  0  0  0  0  0  0  0  0  0
   -6.6508   16.8020  -32.7542 H   0  0  0  0  0  0  0  0  0  0  0  0
   -8.3377   17.6899  -31.1518 H   0  0  0  0  0  0  0  0  0  0  0  0
  1  2  1  0
  2  3  1  0
  3  4  2  0
  4  5  1  0
  5  6  2  0
  6  7  1  0
  7  8  1  0
  8  9  1  0
  9 10  2  0
 10 11  1  0
 11 12  1  0
 12 13  1  0
 13 14  1  0
 14 15  1  0
 15 16  2  0
 16 17  1  0
 17 18  2  0
 18 19  1  0
 18 20  1  0
 20 21  1  0
 20 22  2  0
  6 23  1  0
 23 24  2  0
 24  3  1  0
 12  8  2  0
 22 15  1  0
  1 25  1  0
  1 26  1  0
  1 27  1  0
  4 28  1  0
  5 29  1  0
  7 30  1  0
  7 31  1  0
  9 32  1  0
 13 33  1  0
 13 34  1  0
 14 35  1  0
 14 36  1  0
 16 37  1  0
 17 38  1  0
 19 39  1  0
 22 40  1  0
 23 41  1  0
 24 42  1  0
M  CHG  2  11  -1  21  -1
M  END
>  <UniqueID>  (39) 
37

>  <SMILES>  (39) 
COc1ccc(Cc2cn[n-]c2CCc2ccc(O)c([O-])c2)cc1

>  <Energy>  (39) 
66.74051970027652

>  <Genealogy>  (39) 
COc1ccc(Cc2cn[n-]c2CCc2ccc(O)c([O-])c2)cc1 (protonated)
COc1ccc(Cc2cn[n-]c2CCc2ccc(O)c([O-])c2)cc1 (3D coordinates assigned)
COc1ccc(Cc2cn[n-]c2CCc2ccc(O)c([O-])c2)cc1 (optimized conformer: 66.74051970027652 kcal/mol)

>  <smiles>  (39) 
COc1ccc(Cc2cn[nH]c2CCc2ccc(O)c(O)c2)cc1

>  <score_type>  (39) 
oracle

>  <origin>  (39) 
adgpu

>  <m_score__min__energy>  (39) 
-11.92

>  <m_primary>  (39) 
energy

$$$$
39:0
     RDKit          3D

 36 38  0  0  0  0  0  0  0  0999 V2000
   -5.3650   24.8460  -28.5360 O   0  0  0  0  0  0  0  0  0  0  0  0
   -5.2210   24.9130  -30.0300 S   0  0  0  0  0  0  0  0  0  0  0  0
   -5.8950   26.1650  -30.5150 O   0  0  0  0  0  0  0  0  0  0  0  0
   -3.5490   24.9730  -30.4760 N   0  0  0  0  0  0  0  0  0  0  0  0
   -2.5430   24.2960  -29.7230 C   0  0  0  0  0  0  0  0  0  0  0  0
   -2.4940   22.8970  -29.7550 C   0  0  0  0  0  0  0  0  0  0  0  0
   -1.5320   22.2080  -29.0060 C   0  0  0  0  0  0  0  0  0  0  0  0
   -1.4970   20.4170  -29.0210 S   0  0  0  0  0  0  0  0  0  0  0  0
   -1.0830   20.3580  -30.7610 C   0  0  0  0  0  0  0  0  0  0  0  0
    0.2420   20.1630  -31.1650 C   0  0  0  0  0  0  0  0  0  0  0  0
    0.5380   20.1170  -32.5290 C   0  0  0  0  0  0  0  0  0  0  0  0
   -0.4840   20.2730  -33.4690 C   0  0  0  0  0  0  0  0  0  0  0  0
   -0.1300   20.2180  -35.1850 Cl  0  0  0  0  0  0  0  0  0  0  0  0
   -1.7950   20.4700  -33.0250 C   0  0  0  0  0  0  0  0  0  0  0  0
   -2.0640   20.5050  -31.6930 N   0  0  0  0  0  0  0  0  0  0  0  0
   -0.6020   22.9210  -28.2410 C   0  0  0  0  0  0  0  0  0  0  0  0
   -0.6330   24.3170  -28.2230 C   0  0  0  0  0  0  0  0  0  0  0  0
   -1.5960   25.0080  -28.9670 C   0  0  0  0  0  0  0  0  0  0  0  0
   -1.5900   26.3980  -28.9660 O   0  0  0  0  0  0  0  0  0  0  0  0
   -5.9810   23.5050  -30.7690 C   0  0  0  0  0  0  0  0  0  0  0  0
   -5.3180   22.8070  -31.7880 C   0  0  0  0  0  0  0  0  0  0  0  0
   -5.9040   21.6750  -32.3620 C   0  0  0  0  0  0  0  0  0  0  0  0
   -7.1570   21.2360  -31.9220 C   0  0  0  0  0  0  0  0  0  0  0  0
   -7.9420   19.6640  -32.6700 Br  0  0  0  0  0  0  0  0  0  0  0  0
   -7.8310   21.9410  -30.9200 C   0  0  0  0  0  0  0  0  0  0  0  0
   -7.2470   23.0740  -30.3450 C   0  0  0  0  0  0  0  0  0  0  0  0
   -3.2136   22.3373  -30.3705 H   0  0  0  0  0  0  0  0  0  0  0  0
    1.0408   20.0473  -30.4176 H   0  0  0  0  0  0  0  0  0  0  0  0
    1.5740   19.9582  -32.8628 H   0  0  0  0  0  0  0  0  0  0  0  0
   -2.6091   20.5967  -33.7538 H   0  0  0  0  0  0  0  0  0  0  0  0
    0.1546   22.3809  -27.6529 H   0  0  0  0  0  0  0  0  0  0  0  0
    0.1010   24.8746  -27.6228 H   0  0  0  0  0  0  0  0  0  0  0  0
   -4.3333   23.1512  -32.1371 H   0  0  0  0  0  0  0  0  0  0  0  0
   -5.3794   21.1292  -33.1601 H   0  0  0  0  0  0  0  0  0  0  0  0
   -8.8224   21.6037  -30.5835 H   0  0  0  0  0  0  0  0  0  0  0  0
   -7.7810   23.6282  -29.5591 H   0  0  0  0  0  0  0  0  0  0  0  0
  1  2  2  0
  2  3  2  0
  2  4  1  0
  4  5  1  0
  5  6  2  0
  6  7  1  0
  7  8  1  0
  8  9  1  0
  9 10  2  0
 10 11  1  0
 11 12  2  0
 12 13  1  0
 12 14  1  0
 14 15  2  0
  7 16  2  0
 16 17  1  0
 17 18  2  0
 18 19  1  0
  2 20  1  0
 20 21  2  0
 21 22  1  0
 22 23  2  0
 23 24  1  0
 23 25  1  0
 25 26  2  0
 18  5  1  0
 26 20  1  0
 15  9  1  0
  6 27  1  0
 10 28  1  0
 11 29  1  0
 14 30  1  0
 16 31  1  0
 17 32  1  0
 21 33  1  0
 22 34  1  0
 25 35  1  0
 26 36  1  0
M  CHG  2   4  -1  19  -1
M  END
>  <UniqueID>  (40) 
38

>  <SMILES>  (40) 
O=S(=O)([N-]c1cc(Sc2ccc(Cl)cn2)ccc1[O-])c1ccc(Br)cc1

>  <Energy>  (40) 
41.14106839884894

>  <Genealogy>  (40) 
O=S(=O)([N-]c1cc(Sc2ccc(Cl)cn2)ccc1[O-])c1ccc(Br)cc1 (protonated)
O=S(=O)([N-]c1cc(Sc2ccc(Cl)cn2)ccc1[O-])c1ccc(Br)cc1 (3D coordinates assigned)
O=S(=O)([N-]c1cc(Sc2ccc(Cl)cn2)ccc1[O-])c1ccc(Br)cc1 (optimized conformer: 41.14106839884894 kcal/mol)

>  <smiles>  (40) 
O=S(=O)(Nc1cc(Sc2ccc(Cl)cn2)ccc1O)c1ccc(Br)cc1

>  <score_type>  (40) 
oracle

>  <origin>  (40) 
adgpu

>  <m_score__min__energy>  (40) 
-14.06

>  <m_primary>  (40) 
energy

$$$$
40:0
     RDKit          3D

 30 31  0  0  0  0  0  0  0  0999 V2000
   -9.1530   22.5710  -32.2600 O   0  0  0  0  0  0  0  0  0  0  0  0
   -8.6690   21.4510  -31.9430 C   0  0  0  0  0  0  0  0  0  0  0  0
   -9.4160   20.2030  -32.2990 C   0  0  0  0  0  0  0  0  0  0  0  0
   -8.7240   18.7490  -31.4340 S   0  0  0  0  0  0  0  0  0  0  0  0
   -7.4620   18.4160  -32.6670 C   0  0  0  0  0  0  0  0  0  0  0  0
   -7.1140   17.0950  -32.9800 C   0  0  0  0  0  0  0  0  0  0  0  0
   -6.1330   16.8390  -33.9430 C   0  0  0  0  0  0  0  0  0  0  0  0
   -5.4960   17.9020  -34.5930 C   0  0  0  0  0  0  0  0  0  0  0  0
   -5.8340   19.2210  -34.2750 C   0  0  0  0  0  0  0  0  0  0  0  0
   -6.8120   19.4780  -33.3100 C   0  0  0  0  0  0  0  0  0  0  0  0
   -7.4400   21.3680  -31.2050 N   0  0  0  0  0  0  0  0  0  0  0  0
   -6.5120   22.4560  -31.0520 C   0  0  0  0  0  0  0  0  0  0  0  0
   -5.1270   22.2750  -31.2330 C   0  0  0  0  0  0  0  0  0  0  0  0
   -4.2460   23.3450  -31.0490 C   0  0  0  0  0  0  0  0  0  0  0  0
   -4.7340   24.6000  -30.6720 C   0  0  0  0  0  0  0  0  0  0  0  0
   -3.8560   25.6620  -30.4910 O   0  0  0  0  0  0  0  0  0  0  0  0
   -6.1050   24.7830  -30.4710 C   0  0  0  0  0  0  0  0  0  0  0  0
   -6.9890   23.7150  -30.6530 C   0  0  0  0  0  0  0  0  0  0  0  0
  -10.4713   20.3224  -32.0124 H   0  0  0  0  0  0  0  0  0  0  0  0
   -9.3246   20.0396  -33.3829 H   0  0  0  0  0  0  0  0  0  0  0  0
   -7.6129   16.2591  -32.4678 H   0  0  0  0  0  0  0  0  0  0  0  0
   -5.8620   15.8018  -34.1897 H   0  0  0  0  0  0  0  0  0  0  0  0
   -4.7287   17.6998  -35.3548 H   0  0  0  0  0  0  0  0  0  0  0  0
   -5.3305   20.0561  -34.7841 H   0  0  0  0  0  0  0  0  0  0  0  0
   -7.0719   20.5159  -33.0548 H   0  0  0  0  0  0  0  0  0  0  0  0
   -7.2380   20.4750  -30.7010 H   0  0  0  0  0  0  0  0  0  0  0  0
   -4.7367   21.2875  -31.5204 H   0  0  0  0  0  0  0  0  0  0  0  0
   -3.1664   23.1992  -31.2012 H   0  0  0  0  0  0  0  0  0  0  0  0
   -6.4891   25.7686  -30.1692 H   0  0  0  0  0  0  0  0  0  0  0  0
   -8.0657   23.8621  -30.4824 H   0  0  0  0  0  0  0  0  0  0  0  0
  1  2  2  0
  2  3  1  0
  3  4  1  0
  4  5  1  0
  5  6  2  0
  6  7  1  0
  7  8  2  0
  8  9  1  0
  9 10  2  0
  2 11  1  0
 11 12  1  0
 12 13  2  0
 13 14  1  0
 14 15  2  0
 15 16  1  0
 15 17  1  0
 17 18  2  0
 10  5  1  0
 18 12  1  0
  3 19  1  0
  3 20  1  0
  6 21  1  0
  7 22  1  0
  8 23  1  0
  9 24  1  0
 10 25  1  0
 11 26  1  0
 13 27  1  0
 14 28  1  0
 17 29  1  0
 18 30  1  0
M  CHG  1  16  -1
M  END
>  <UniqueID>  (41) 
39

>  <SMILES>  (41) 
O=C(CSc1ccccc1)Nc1ccc([O-])cc1

>  <Energy>  (41) 
27.96567801455057

>  <Genealogy>  (41) 
O=C(CSc1ccccc1)Nc1ccc([O-])cc1 (protonated)
O=C(CSc1ccccc1)Nc1ccc([O-])cc1 (3D coordinates assigned)
O=C(CSc1ccccc1)Nc1ccc([O-])cc1 (optimized conformer: 27.96567801455057 kcal/mol)

>  <smiles>  (41) 
O=C(CSc1ccccc1)Nc1ccc(O)cc1

>  <score_type>  (41) 
oracle

>  <origin>  (41) 
adgpu

>  <m_score__min__energy>  (41) 
-10.75

>  <m_primary>  (41) 
energy

$$$$
41:0
     RDKit          3D

 51 53  0  0  0  0  0  0  0  0999 V2000
   -0.2240   24.0020  -24.7920 C   0  0  0  0  0  0  0  0  0  0  0  0
   -0.8530   24.0680  -26.1590 C   0  0  0  0  0  0  0  0  0  0  0  0
   -1.4450   22.9020  -26.6700 C   0  0  0  0  0  0  0  0  0  0  0  0
   -2.0350   22.8950  -27.9310 C   0  0  0  0  0  0  0  0  0  0  0  0
   -2.0420   24.0490  -28.7160 C   0  0  0  0  0  0  0  0  0  0  0  0
   -2.6450   24.0030  -30.0180 N   0  0  0  0  0  0  0  0  0  0  0  0
   -4.0280   24.3110  -30.2520 C   0  0  0  0  0  0  0  0  0  0  0  0
   -4.6960   24.9240  -29.3770 O   0  0  0  0  0  0  0  0  0  0  0  0
   -4.6450   24.0120  -31.5090 N   0  0  0  0  0  0  0  0  0  0  0  0
   -5.7110   23.0750  -31.7200 C   0  0  0  0  0  0  0  0  0  0  0  0
   -6.9940   23.3950  -31.2590 C   0  0  0  0  0  0  0  0  0  0  0  0
   -8.0510   22.4950  -31.4250 C   0  0  0  0  0  0  0  0  0  0  0  0
   -7.8270   21.2580  -32.0400 C   0  0  0  0  0  0  0  0  0  0  0  0
   -9.1530   20.1280  -32.2460 Cl  0  0  0  0  0  0  0  0  0  0  0  0
   -6.5440   20.9210  -32.4800 C   0  0  0  0  0  0  0  0  0  0  0  0
   -5.4860   21.8200  -32.3160 C   0  0  0  0  0  0  0  0  0  0  0  0
   -1.5080   25.2440  -28.1980 C   0  0  0  0  0  0  0  0  0  0  0  0
   -1.5940   26.4080  -28.9550 O   0  0  0  0  0  0  0  0  0  0  0  0
   -0.9100   25.2680  -26.9160 C   0  0  0  0  0  0  0  0  0  0  0  0
   -0.2060   26.7900  -26.3060 S   0  0  0  0  0  0  0  0  0  0  0  0
   -0.7280   27.9620  -27.0910 O   0  0  0  0  0  0  0  0  0  0  0  0
   -0.5930   27.0000  -24.8700 O   0  0  0  0  0  0  0  0  0  0  0  0
    1.5860   26.7300  -26.4470 C   0  0  0  0  0  0  0  0  0  0  0  0
    2.2300   26.5240  -25.0600 C   0  0  0  0  0  0  0  0  0  0  0  0
    3.6300   25.9200  -25.2060 C   0  0  0  0  0  0  0  0  0  0  0  0
    3.5820   24.5630  -25.8040 N   0  0  0  0  0  0  0  0  0  0  0  0
    4.8820   24.2170  -26.3970 C   0  0  0  0  0  0  0  0  0  0  0  0
    2.4710   24.3560  -26.7700 C   0  0  0  0  0  0  0  0  0  0  0  0
    2.0370   25.6560  -27.4650 C   0  0  0  0  0  0  0  0  0  0  0  0
   -1.0070   24.0842  -24.0238 H   0  0  0  0  0  0  0  0  0  0  0  0
    0.3034   23.0436  -24.6770 H   0  0  0  0  0  0  0  0  0  0  0  0
    0.4909   24.8301  -24.6770 H   0  0  0  0  0  0  0  0  0  0  0  0
   -1.4426   21.9824  -26.0664 H   0  0  0  0  0  0  0  0  0  0  0  0
   -2.4991   21.9731  -28.3115 H   0  0  0  0  0  0  0  0  0  0  0  0
   -2.0190   23.9060  -30.8490 H   0  0  0  0  0  0  0  0  0  0  0  0
   -7.1714   24.3607  -30.7631 H   0  0  0  0  0  0  0  0  0  0  0  0
   -9.0588   22.7592  -31.0722 H   0  0  0  0  0  0  0  0  0  0  0  0
   -6.3662   19.9457  -32.9567 H   0  0  0  0  0  0  0  0  0  0  0  0
   -4.4756   21.5459  -32.6535 H   0  0  0  0  0  0  0  0  0  0  0  0
    1.9361   27.6976  -26.8358 H   0  0  0  0  0  0  0  0  0  0  0  0
    2.3055   27.4945  -24.5477 H   0  0  0  0  0  0  0  0  0  0  0  0
    1.6034   25.8353  -24.4743 H   0  0  0  0  0  0  0  0  0  0  0  0
    4.2346   26.5733  -25.8523 H   0  0  0  0  0  0  0  0  0  0  0  0
    4.0744   25.8375  -24.2032 H   0  0  0  0  0  0  0  0  0  0  0  0
    5.6105   24.0231  -25.5959 H   0  0  0  0  0  0  0  0  0  0  0  0
    4.7731   23.3166  -27.0194 H   0  0  0  0  0  0  0  0  0  0  0  0
    5.2351   25.0524  -27.0194 H   0  0  0  0  0  0  0  0  0  0  0  0
    2.8011   23.6404  -27.5374 H   0  0  0  0  0  0  0  0  0  0  0  0
    1.6065   23.9778  -26.2047 H   0  0  0  0  0  0  0  0  0  0  0  0
    2.8846   26.0494  -28.0453 H   0  0  0  0  0  0  0  0  0  0  0  0
    1.1829   25.4251  -28.1186 H   0  0  0  0  0  0  0  0  0  0  0  0
  1  2  1  0
  2  3  2  0
  3  4  1  0
  4  5  2  0
  5  6  1  0
  6  7  1  0
  7  8  2  0
  7  9  1  0
  9 10  1  0
 10 11  2  0
 11 12  1  0
 12 13  2  0
 13 14  1  0
 13 15  1  0
 15 16  2  0
  5 17  1  0
 17 18  1  0
 17 19  2  0
 19 20  1  0
 20 21  2  0
 20 22  2  0
 20 23  1  0
 23 24  1  0
 24 25  1  0
 25 26  1  0
 26 27  1  0
 26 28  1  0
 28 29  1  0
 19  2  1  0
 29 23  1  0
 16 10  1  0
  1 30  1  0
  1 31  1  0
  1 32  1  0
  3 33  1  0
  4 34  1  0
  6 35  1  0
 11 36  1  0
 12 37  1  0
 15 38  1  0
 16 39  1  0
 23 40  1  0
 24 41  1  0
 24 42  1  0
 25 43  1  0
 25 44  1  0
 27 45  1  0
 27 46  1  0
 27 47  1  0
 28 48  1  0
 28 49  1  0
 29 50  1  0
 29 51  1  0
M  CHG  2   9  -1  18  -1
M  END
>  <UniqueID>  (42) 
40

>  <SMILES>  (42) 
Cc1ccc(NC(=O)[N-]c2ccc(Cl)cc2)c([O-])c1S(=O)(=O)C1CCN(C)CC1

>  <Energy>  (42) 
68.59994585373781

>  <Genealogy>  (42) 
Cc1ccc(NC(=O)[N-]c2ccc(Cl)cc2)c([O-])c1S(=O)(=O)C1CCN(C)CC1 (protonated)
Cc1ccc(NC(=O)[N-]c2ccc(Cl)cc2)c([O-])c1S(=O)(=O)C1CCN(C)CC1 (3D coordinates assigned)
Cc1ccc(NC(=O)[N-]c2ccc(Cl)cc2)c([O-])c1S(=O)(=O)C1CCN(C)CC1 (nonaromatic ring conformer: 68.59994585373781 kcal/mol)

>  <smiles>  (42) 
Cc1ccc(NC(=O)Nc2ccc(Cl)cc2)c(O)c1S(=O)(=O)C1CCN(C)CC1

>  <score_type>  (42) 
oracle

>  <origin>  (42) 
adgpu

>  <m_score__min__energy>  (42) 
-13.380000000000001

>  <m_primary>  (42) 
energy

$$$$
42:0
     RDKit          3D

 57 59  0  0  0  0  0  0  0  0999 V2000
   -8.5740   22.4150  -31.6690 C   0  0  0  0  0  0  0  0  0  0  0  0
   -7.3010   22.3770  -31.0330 O   0  0  0  0  0  0  0  0  0  0  0  0
   -6.3240   23.3570  -31.2380 C   0  0  0  0  0  0  0  0  0  0  0  0
   -6.4510   24.1830  -32.1850 O   0  0  0  0  0  0  0  0  0  0  0  0
   -5.1480   23.4230  -30.3430 C   0  0  0  0  0  0  0  0  0  0  0  0
   -5.2490   24.0330  -29.0830 C   0  0  0  0  0  0  0  0  0  0  0  0
   -4.1410   24.1070  -28.2340 C   0  0  0  0  0  0  0  0  0  0  0  0
   -4.3150   24.9180  -26.6820 Cl  0  0  0  0  0  0  0  0  0  0  0  0
   -2.9090   23.5570  -28.6340 C   0  0  0  0  0  0  0  0  0  0  0  0
   -1.7700   23.6290  -27.7630 N   0  0  0  0  0  0  0  0  0  0  0  0
   -1.6130   22.6630  -26.6710 C   0  0  0  0  0  0  0  0  0  0  0  0
   -0.9830   21.3970  -27.1810 C   0  0  0  0  0  0  0  0  0  0  0  0
   -1.6800   20.1860  -27.1270 C   0  0  0  0  0  0  0  0  0  0  0  0
   -1.0740   18.9960  -27.5360 C   0  0  0  0  0  0  0  0  0  0  0  0
    0.2560   18.9880  -28.0140 C   0  0  0  0  0  0  0  0  0  0  0  0
    0.9750   17.6970  -28.4620 C   0  0  0  0  0  0  0  0  0  0  0  0
    0.5530   17.2270  -29.8750 C   0  0  0  0  0  0  0  0  0  0  0  0
    0.6500   16.5590  -27.4720 C   0  0  0  0  0  0  0  0  0  0  0  0
    2.5010   17.9350  -28.4840 C   0  0  0  0  0  0  0  0  0  0  0  0
    0.9470   20.2210  -28.0620 C   0  0  0  0  0  0  0  0  0  0  0  0
    0.3360   21.4050  -27.6510 C   0  0  0  0  0  0  0  0  0  0  0  0
   -0.7190   25.0070  -27.8600 S   0  0  0  0  0  0  0  0  0  0  0  0
    0.6820   24.5630  -28.1820 O   0  0  0  0  0  0  0  0  0  0  0  0
   -1.1950   25.9250  -28.9500 O   0  0  0  0  0  0  0  0  0  0  0  0
   -0.7090   25.8600  -26.3250 C   0  0  0  0  0  0  0  0  0  0  0  0
   -0.8470   27.2530  -26.2820 C   0  0  0  0  0  0  0  0  0  0  0  0
   -0.7990   27.9090  -25.0490 C   0  0  0  0  0  0  0  0  0  0  0  0
   -0.6160   27.1740  -23.8800 C   0  0  0  0  0  0  0  0  0  0  0  0
   -0.4870   25.7850  -23.9600 C   0  0  0  0  0  0  0  0  0  0  0  0
   -0.5340   25.1640  -25.1690 N   0  0  0  0  0  0  0  0  0  0  0  0
   -2.7990   22.9530  -29.8990 C   0  0  0  0  0  0  0  0  0  0  0  0
   -1.2780   22.2650  -30.4510 Cl  0  0  0  0  0  0  0  0  0  0  0  0
   -3.9120   22.8870  -30.7420 C   0  0  0  0  0  0  0  0  0  0  0  0
   -9.3650   22.4386  -30.9050 H   0  0  0  0  0  0  0  0  0  0  0  0
   -8.6435   23.3156  -32.2967 H   0  0  0  0  0  0  0  0  0  0  0  0
   -8.6971   21.5201  -32.2967 H   0  0  0  0  0  0  0  0  0  0  0  0
   -6.2109   24.4576  -28.7600 H   0  0  0  0  0  0  0  0  0  0  0  0
   -0.9718   23.0986  -25.8906 H   0  0  0  0  0  0  0  0  0  0  0  0
   -2.6042   22.4276  -26.2562 H   0  0  0  0  0  0  0  0  0  0  0  0
   -2.7163   20.1704  -26.7586 H   0  0  0  0  0  0  0  0  0  0  0  0
   -1.6388   18.0534  -27.4855 H   0  0  0  0  0  0  0  0  0  0  0  0
   -0.1795   16.4112  -29.7865 H   0  0  0  0  0  0  0  0  0  0  0  0
    0.1010   18.0679  -30.4214 H   0  0  0  0  0  0  0  0  0  0  0  0
    1.4376   16.8679  -30.4214 H   0  0  0  0  0  0  0  0  0  0  0  0
    0.7555   16.9284  -26.4413 H   0  0  0  0  0  0  0  0  0  0  0  0
   -0.3822   16.2153  -27.6345 H   0  0  0  0  0  0  0  0  0  0  0  0
    1.3450   15.7220  -27.6345 H   0  0  0  0  0  0  0  0  0  0  0  0
    2.8778   17.9938  -27.4522 H   0  0  0  0  0  0  0  0  0  0  0  0
    2.9944   17.1029  -29.0077 H   0  0  0  0  0  0  0  0  0  0  0  0
    2.7176   18.8778  -29.0077 H   0  0  0  0  0  0  0  0  0  0  0  0
    1.9835   20.2464  -28.4296 H   0  0  0  0  0  0  0  0  0  0  0  0
    0.8940   22.3519  -27.6963 H   0  0  0  0  0  0  0  0  0  0  0  0
   -0.9918   27.8254  -27.2101 H   0  0  0  0  0  0  0  0  0  0  0  0
   -0.9054   29.0028  -25.0017 H   0  0  0  0  0  0  0  0  0  0  0  0
   -0.5735   27.6813  -22.9049 H   0  0  0  0  0  0  0  0  0  0  0  0
   -0.3472   25.1928  -23.0436 H   0  0  0  0  0  0  0  0  0  0  0  0
   -3.8192   22.4101  -31.7289 H   0  0  0  0  0  0  0  0  0  0  0  0
  1  2  1  0
  2  3  1  0
  3  4  2  0
  3  5  1  0
  5  6  2  0
  6  7  1  0
  7  8  1  0
  7  9  2  0
  9 10  1  0
 10 11  1  0
 11 12  1  0
 12 13  2  0
 13 14  1  0
 14 15  2  0
 15 16  1  0
 16 17  1  0
 16 18  1  0
 16 19  1  0
 15 20  1  0
 20 21  2  0
 10 22  1  0
 22 23  2  0
 22 24  2  0
 22 25  1  0
 25 26  2  0
 26 27  1  0
 27 28  2  0
 28 29  1  0
 29 30  2  0
  9 31  1  0
 31 32  1  0
 31 33  2  0
 33  5  1  0
 21 12  1  0
 30 25  1  0
  1 34  1  0
  1 35  1  0
  1 36  1  0
  6 37  1  0
 11 38  1  0
 11 39  1  0
 13 40  1  0
 14 41  1  0
 17 42  1  0
 17 43  1  0
 17 44  1  0
 18 45  1  0
 18 46  1  0
 18 47  1  0
 19 48  1  0
 19 49  1  0
 19 50  1  0
 20 51  1  0
 21 52  1  0
 26 53  1  0
 27 54  1  0
 28 55  1  0
 29 56  1  0
 33 57  1  0
M  END
>  <UniqueID>  (43) 
41

>  <SMILES>  (43) 
COC(=O)c1cc(Cl)c(N(Cc2ccc(C(C)(C)C)cc2)S(=O)(=O)c2ccccn2)c(Cl)c1

>  <Energy>  (43) 
62.06872836397656

>  <Genealogy>  (43) 
COC(=O)c1cc(Cl)c(N(Cc2ccc(C(C)(C)C)cc2)S(=O)(=O)c2ccccn2)c(Cl)c1 (3D coordinates assigned)
COC(=O)c1cc(Cl)c(N(Cc2ccc(C(C)(C)C)cc2)S(=O)(=O)c2ccccn2)c(Cl)c1 (optimized conformer: 62.06872836397656 kcal/mol)

>  <smiles>  (43) 
COC(=O)c1cc(Cl)c(N(Cc2ccc(C(C)(C)C)cc2)S(=O)(=O)c2ccccn2)c(Cl)c1

>  <score_type>  (43) 
oracle

>  <origin>  (43) 
adgpu

>  <m_score__min__energy>  (43) 
-9.0999999999999996

>  <m_primary>  (43) 
energy

$$$$
43:0
     RDKit          3D

 36 38  0  0  0  0  0  0  0  0999 V2000
   -7.4960   18.5860  -32.6900 C   0  0  0  0  0  0  0  0  0  0  0  0
   -7.8020   19.9910  -32.2610 C   0  0  0  0  0  0  0  0  0  0  0  0
   -9.1120   20.4840  -32.3420 C   0  0  0  0  0  0  0  0  0  0  0  0
   -9.3910   21.8030  -31.9770 C   0  0  0  0  0  0  0  0  0  0  0  0
   -8.3630   22.6420  -31.5400 C   0  0  0  0  0  0  0  0  0  0  0  0
   -7.0410   22.1710  -31.4700 C   0  0  0  0  0  0  0  0  0  0  0  0
   -5.9520   23.0630  -31.0170 C   0  0  0  0  0  0  0  0  0  0  0  0
   -5.3610   23.9850  -31.8030 N   0  0  0  0  0  0  0  0  0  0  0  0
   -4.4710   24.5510  -31.0460 O   0  0  0  0  0  0  0  0  0  0  0  0
   -4.5010   24.0150  -29.8510 C   0  0  0  0  0  0  0  0  0  0  0  0
   -3.6220   24.4180  -28.7360 C   0  0  0  0  0  0  0  0  0  0  0  0
   -2.2590   24.6780  -28.9570 C   0  0  0  0  0  0  0  0  0  0  0  0
   -1.4300   25.0590  -27.8970 C   0  0  0  0  0  0  0  0  0  0  0  0
   -1.9540   25.1900  -26.6050 C   0  0  0  0  0  0  0  0  0  0  0  0
   -0.9070   25.6520  -25.2680 S   0  0  0  0  0  0  0  0  0  0  0  0
   -0.4630   24.2030  -24.3380 C   0  0  0  0  0  0  0  0  0  0  0  0
    0.3360   26.3100  -25.7980 O   0  0  0  0  0  0  0  0  0  0  0  0
   -1.6220   26.6240  -24.3720 O   0  0  0  0  0  0  0  0  0  0  0  0
   -3.3100   24.9240  -26.3780 C   0  0  0  0  0  0  0  0  0  0  0  0
   -4.1400   24.5430  -27.4370 C   0  0  0  0  0  0  0  0  0  0  0  0
   -5.4370   23.0480  -29.7690 N   0  0  0  0  0  0  0  0  0  0  0  0
   -6.7680   20.8410  -31.8400 C   0  0  0  0  0  0  0  0  0  0  0  0
   -7.3581   17.9530  -31.8010 H   0  0  0  0  0  0  0  0  0  0  0  0
   -8.3303   18.1964  -33.2917 H   0  0  0  0  0  0  0  0  0  0  0  0
   -6.5752   18.5787  -33.2917 H   0  0  0  0  0  0  0  0  0  0  0  0
   -9.9230   19.8296  -32.6943 H   0  0  0  0  0  0  0  0  0  0  0  0
  -10.4221   22.1819  -32.0337 H   0  0  0  0  0  0  0  0  0  0  0  0
   -8.5900   23.6782  -31.2488 H   0  0  0  0  0  0  0  0  0  0  0  0
   -1.8414   24.5813  -29.9700 H   0  0  0  0  0  0  0  0  0  0  0  0
   -0.3632   25.2563  -28.0787 H   0  0  0  0  0  0  0  0  0  0  0  0
   -0.5304   24.4228  -23.2623 H   0  0  0  0  0  0  0  0  0  0  0  0
   -1.1507   23.3817  -24.5882 H   0  0  0  0  0  0  0  0  0  0  0  0
    0.5668   23.9080  -24.5882 H   0  0  0  0  0  0  0  0  0  0  0  0
   -3.7238   25.0151  -25.3629 H   0  0  0  0  0  0  0  0  0  0  0  0
   -5.2050   24.3400  -27.2512 H   0  0  0  0  0  0  0  0  0  0  0  0
   -5.7352   20.4645  -31.7988 H   0  0  0  0  0  0  0  0  0  0  0  0
  1  2  1  0
  2  3  2  0
  3  4  1  0
  4  5  2  0
  5  6  1  0
  6  7  1  0
  7  8  2  0
  8  9  1  0
  9 10  1  0
 10 11  1  0
 11 12  2  0
 12 13  1  0
 13 14  2  0
 14 15  1  0
 15 16  1  0
 15 17  2  0
 15 18  2  0
 14 19  1  0
 19 20  2  0
 10 21  2  0
  6 22  2  0
 22  2  1  0
 21  7  1  0
 20 11  1  0
  1 23  1  0
  1 24  1  0
  1 25  1  0
  3 26  1  0
  4 27  1  0
  5 28  1  0
 12 29  1  0
 13 30  1  0
 16 31  1  0
 16 32  1  0
 16 33  1  0
 19 34  1  0
 20 35  1  0
 22 36  1  0
M  END
>  <UniqueID>  (44) 
42

>  <SMILES>  (44) 
Cc1cccc(-c2noc(-c3ccc(S(C)(=O)=O)cc3)n2)c1

>  <Energy>  (44) 
68.61985849451717

>  <Genealogy>  (44) 
Cc1cccc(-c2noc(-c3ccc(S(C)(=O)=O)cc3)n2)c1 (3D coordinates assigned)
Cc1cccc(-c2noc(-c3ccc(S(C)(=O)=O)cc3)n2)c1 (optimized conformer: 68.61985849451717 kcal/mol)

>  <smiles>  (44) 
Cc1cccc(-c2noc(-c3ccc(S(C)(=O)=O)cc3)n2)c1

>  <score_type>  (44) 
oracle

>  <origin>  (44) 
adgpu

>  <m_score__min__energy>  (44) 
-9.0099999999999998

>  <m_primary>  (44) 
energy

$$$$
44:0
     RDKit          3D

 42 44  0  0  0  0  0  0  0  0999 V2000
   -4.7830   17.6030  -34.6480 C   0  0  0  0  0  0  0  0  0  0  0  0
   -5.0410   19.0030  -33.5490 S   0  0  0  0  0  0  0  0  0  0  0  0
   -3.9400   19.9930  -33.7780 O   0  0  0  0  0  0  0  0  0  0  0  0
   -4.9880   18.5940  -32.1210 O   0  0  0  0  0  0  0  0  0  0  0  0
   -6.5700   19.7340  -33.9510 N   0  0  0  0  0  0  0  0  0  0  0  0
   -7.3620   20.4180  -32.9890 C   0  0  0  0  0  0  0  0  0  0  0  0
   -8.6710   20.0940  -32.7280 C   0  0  0  0  0  0  0  0  0  0  0  0
   -9.4640   20.7480  -31.8160 C   0  0  0  0  0  0  0  0  0  0  0  0
   -8.9340   21.7840  -31.1160 C   0  0  0  0  0  0  0  0  0  0  0  0
   -7.6080   22.1410  -31.3550 C   0  0  0  0  0  0  0  0  0  0  0  0
   -6.8120   21.4860  -32.2680 C   0  0  0  0  0  0  0  0  0  0  0  0
   -5.4450   21.8200  -32.4630 N   0  0  0  0  0  0  0  0  0  0  0  0
   -4.5490   22.1480  -31.4110 C   0  0  0  0  0  0  0  0  0  0  0  0
   -3.8460   21.2180  -30.6790 C   0  0  0  0  0  0  0  0  0  0  0  0
   -3.0180   21.6580  -29.6450 C   0  0  0  0  0  0  0  0  0  0  0  0
   -2.8840   22.9960  -29.3350 C   0  0  0  0  0  0  0  0  0  0  0  0
   -2.0160   23.4750  -28.2510 C   0  0  0  0  0  0  0  0  0  0  0  0
   -0.9910   22.7940  -27.9800 O   0  0  0  0  0  0  0  0  0  0  0  0
   -2.3740   24.6670  -27.5750 N   0  0  0  0  0  0  0  0  0  0  0  0
   -1.8580   24.9100  -26.4260 C   0  0  0  0  0  0  0  0  0  0  0  0
   -2.1470   26.0190  -25.7210 N   0  0  0  0  0  0  0  0  0  0  0  0
   -1.4630   25.9670  -24.6080 N   0  0  0  0  0  0  0  0  0  0  0  0
   -0.7390   24.8760  -24.5530 N   0  0  0  0  0  0  0  0  0  0  0  0
   -0.9870   24.2240  -25.6810 N   0  0  0  0  0  0  0  0  0  0  0  0
   -3.6040   23.9190  -30.0880 C   0  0  0  0  0  0  0  0  0  0  0  0
   -3.5050   25.2990  -29.8150 O   0  0  0  0  0  0  0  0  0  0  0  0
   -4.4250   23.4960  -31.1110 C   0  0  0  0  0  0  0  0  0  0  0  0
   -4.6155   16.6943  -34.0511 H   0  0  0  0  0  0  0  0  0  0  0  0
   -5.6711   17.4664  -35.2825 H   0  0  0  0  0  0  0  0  0  0  0  0
   -3.9046   17.7920  -35.2825 H   0  0  0  0  0  0  0  0  0  0  0  0
   -6.8640   19.6280  -34.9490 H   0  0  0  0  0  0  0  0  0  0  0  0
   -9.1138   19.2557  -33.2858 H   0  0  0  0  0  0  0  0  0  0  0  0
  -10.5074   20.4385  -31.6561 H   0  0  0  0  0  0  0  0  0  0  0  0
   -9.5382   22.3297  -30.3763 H   0  0  0  0  0  0  0  0  0  0  0  0
   -7.1791   22.9819  -30.7902 H   0  0  0  0  0  0  0  0  0  0  0  0
   -5.0450   21.8370  -33.4240 H   0  0  0  0  0  0  0  0  0  0  0  0
   -3.9353   20.1452  -30.9053 H   0  0  0  0  0  0  0  0  0  0  0  0
   -2.4554   20.9159  -29.0596 H   0  0  0  0  0  0  0  0  0  0  0  0
   -0.0890   24.5480  -23.8020 H   0  0  0  0  0  0  0  0  0  0  0  0
   -0.5530   23.3220  -25.9190 H   0  0  0  0  0  0  0  0  0  0  0  0
   -3.8740   25.5400  -28.8810 H   0  0  0  0  0  0  0  0  0  0  0  0
   -4.9888   24.2370  -31.6967 H   0  0  0  0  0  0  0  0  0  0  0  0
  1  2  1  0
  2  3  2  0
  2  4  2  0
  2  5  1  0
  5  6  1  0
  6  7  2  0
  7  8  1  0
  8  9  2  0
  9 10  1  0
 10 11  2  0
 11 12  1  0
 12 13  1  0
 13 14  2  0
 14 15  1  0
 15 16  2  0
 16 17  1  0
 17 18  2  0
 17 19  1  0
 19 20  2  3
 20 21  1  0
 21 22  2  0
 22 23  1  0
 23 24  1  0
 16 25  1  0
 25 26  1  0
 25 27  2  0
 11  6  1  0
 27 13  1  0
 24 20  1  0
  1 28  1  0
  1 29  1  0
  1 30  1  0
  5 31  1  0
  7 32  1  0
  8 33  1  0
  9 34  1  0
 10 35  1  0
 12 36  1  0
 14 37  1  0
 15 38  1  0
 23 39  1  0
 24 40  1  0
 26 41  1  0
 27 42  1  0
M  END
>  <smiles>  (45) 
CS(=O)(=O)Nc1ccccc1Nc1ccc(C(=O)N=c2nn[nH][nH]2)c(O)c1

>  <score_type>  (45) 
oracle

>  <origin>  (45) 
adgpu

>  <m_score__min__energy>  (45) 
-9.9399999999999995

>  <m_primary>  (45) 
energy

$$$$
45:0
     RDKit          3D

 56 59  0  0  0  0  0  0  0  0999 V2000
   -7.7890   21.2270  -30.8250 O   0  0  0  0  0  0  0  0  0  0  0  0
   -7.3630   20.8870  -31.9620 C   0  0  0  0  0  0  0  0  0  0  0  0
   -8.0780   19.8100  -32.7340 C   0  0  0  0  0  0  0  0  0  0  0  0
   -7.1260   18.7470  -33.2180 C   0  0  0  0  0  0  0  0  0  0  0  0
   -7.2190   17.4320  -32.7300 C   0  0  0  0  0  0  0  0  0  0  0  0
   -6.3580   16.4410  -33.2130 C   0  0  0  0  0  0  0  0  0  0  0  0
   -5.4110   16.7520  -34.1930 C   0  0  0  0  0  0  0  0  0  0  0  0
   -5.3190   18.0560  -34.6900 C   0  0  0  0  0  0  0  0  0  0  0  0
   -6.1730   19.0510  -34.2050 C   0  0  0  0  0  0  0  0  0  0  0  0
   -6.1910   21.5060  -32.5190 N   0  0  0  0  0  0  0  0  0  0  0  0
   -5.3710   22.4660  -31.8290 C   0  0  0  0  0  0  0  0  0  0  0  0
   -5.9490   23.6600  -31.3720 C   0  0  0  0  0  0  0  0  0  0  0  0
   -5.1830   24.5980  -30.6700 C   0  0  0  0  0  0  0  0  0  0  0  0
   -3.8260   24.3660  -30.4310 C   0  0  0  0  0  0  0  0  0  0  0  0
   -3.1090   25.2980  -29.6650 O   0  0  0  0  0  0  0  0  0  0  0  0
   -2.2920   24.9620  -28.5810 C   0  0  0  0  0  0  0  0  0  0  0  0
   -0.9070   24.8940  -28.7630 C   0  0  0  0  0  0  0  0  0  0  0  0
   -0.0680   24.6370  -27.6770 C   0  0  0  0  0  0  0  0  0  0  0  0
   -0.6100   24.4280  -26.4020 C   0  0  0  0  0  0  0  0  0  0  0  0
    0.4510   24.2430  -25.0060 S   0  0  0  0  0  0  0  0  0  0  0  0
    1.8120   23.8110  -25.4720 O   0  0  0  0  0  0  0  0  0  0  0  0
   -0.0950   23.1610  -24.1150 O   0  0  0  0  0  0  0  0  0  0  0  0
    0.6080   25.7340  -24.0980 N   0  0  0  0  0  0  0  0  0  0  0  0
    1.5670   26.6710  -24.7180 C   0  0  0  0  0  0  0  0  0  0  0  0
    0.9390   27.5440  -25.8320 C   0  0  0  0  0  0  0  0  0  0  0  0
   -0.4620   27.3990  -25.9310 O   0  0  0  0  0  0  0  0  0  0  0  0
   -1.0410   27.5480  -24.6580 C   0  0  0  0  0  0  0  0  0  0  0  0
   -0.6930   26.3470  -23.7610 C   0  0  0  0  0  0  0  0  0  0  0  0
   -2.0010   24.4250  -26.2340 C   0  0  0  0  0  0  0  0  0  0  0  0
   -2.8380   24.6940  -27.3170 C   0  0  0  0  0  0  0  0  0  0  0  0
   -3.2340   23.1890  -30.9220 C   0  0  0  0  0  0  0  0  0  0  0  0
   -3.9960   22.2540  -31.6270 C   0  0  0  0  0  0  0  0  0  0  0  0
   -8.8313   19.3440  -32.0818 H   0  0  0  0  0  0  0  0  0  0  0  0
   -8.5505   20.2735  -33.6126 H   0  0  0  0  0  0  0  0  0  0  0  0
   -7.9705   17.1817  -31.9667 H   0  0  0  0  0  0  0  0  0  0  0  0
   -6.4263   15.4155  -32.8211 H   0  0  0  0  0  0  0  0  0  0  0  0
   -4.7374   15.9702  -34.5737 H   0  0  0  0  0  0  0  0  0  0  0  0
   -4.5746   18.2988  -35.4626 H   0  0  0  0  0  0  0  0  0  0  0  0
   -6.0987   20.0759  -34.5975 H   0  0  0  0  0  0  0  0  0  0  0  0
   -5.9980   21.3420  -33.5320 H   0  0  0  0  0  0  0  0  0  0  0  0
   -7.0128   23.8606  -31.5670 H   0  0  0  0  0  0  0  0  0  0  0  0
   -5.6521   25.5233  -30.3043 H   0  0  0  0  0  0  0  0  0  0  0  0
   -0.4775   25.0434  -29.7646 H   0  0  0  0  0  0  0  0  0  0  0  0
    1.0216   24.5985  -27.8228 H   0  0  0  0  0  0  0  0  0  0  0  0
    1.9617   27.3352  -23.9350 H   0  0  0  0  0  0  0  0  0  0  0  0
    2.3572   26.0655  -25.1859 H   0  0  0  0  0  0  0  0  0  0  0  0
    1.1668   28.5989  -25.6192 H   0  0  0  0  0  0  0  0  0  0  0  0
    1.3697   27.2121  -26.7882 H   0  0  0  0  0  0  0  0  0  0  0  0
   -0.6597   28.4691  -24.1930 H   0  0  0  0  0  0  0  0  0  0  0  0
   -2.1340   27.6025  -24.7696 H   0  0  0  0  0  0  0  0  0  0  0  0
   -0.6598   26.6880  -22.7157 H   0  0  0  0  0  0  0  0  0  0  0  0
   -1.4681   25.5825  -23.9186 H   0  0  0  0  0  0  0  0  0  0  0  0
   -2.4340   24.2100  -25.2459 H   0  0  0  0  0  0  0  0  0  0  0  0
   -3.9294   24.6960  -27.1794 H   0  0  0  0  0  0  0  0  0  0  0  0
   -2.1636   23.0031  -30.7499 H   0  0  0  0  0  0  0  0  0  0  0  0
   -3.5177   21.3474  -32.0260 H   0  0  0  0  0  0  0  0  0  0  0  0
  1  2  2  0
  2  3  1  0
  3  4  1  0
  4  5  2  0
  5  6  1  0
  6  7  2  0
  7  8  1  0
  8  9  2  0
  2 10  1  0
 10 11  1  0
 11 12  2  0
 12 13  1  0
 13 14  2  0
 14 15  1  0
 15 16  1  0
 16 17  2  0
 17 18  1  0
 18 19  2  0
 19 20  1  0
 20 21  2  0
 20 22  2  0
 20 23  1  0
 23 24  1  0
 24 25  1  0
 25 26  1  0
 26 27  1  0
 27 28  1  0
 19 29  1  0
 29 30  2  0
 14 31  1  0
 31 32  2  0
  9  4  1  0
 32 11  1  0
 30 16  1  0
 28 23  1  0
  3 33  1  0
  3 34  1  0
  5 35  1  0
  6 36  1  0
  7 37  1  0
  8 38  1  0
  9 39  1  0
 10 40  1  0
 12 41  1  0
 13 42  1  0
 17 43  1  0
 18 44  1  0
 24 45  1  0
 24 46  1  0
 25 47  1  0
 25 48  1  0
 27 49  1  0
 27 50  1  0
 28 51  1  0
 28 52  1  0
 29 53  1  0
 30 54  1  0
 31 55  1  0
 32 56  1  0
M  END
>  <UniqueID>  (46) 
43

>  <SMILES>  (46) 
O=C(Cc1ccccc1)Nc1ccc(Oc2ccc(S(=O)(=O)N3CCOCC3)cc2)cc1

>  <Energy>  (46) 
80.61656867752889

>  <Genealogy>  (46) 
O=C(Cc1ccccc1)Nc1ccc(Oc2ccc(S(=O)(=O)N3CCOCC3)cc2)cc1 (3D coordinates assigned)
O=C(Cc1ccccc1)Nc1ccc(Oc2ccc(S(=O)(=O)N3CCOCC3)cc2)cc1 (nonaromatic ring conformer: 80.61656867752889 kcal/mol)

>  <smiles>  (46) 
O=C(Cc1ccccc1)Nc1ccc(Oc2ccc(S(=O)(=O)N3CCOCC3)cc2)cc1

>  <score_type>  (46) 
oracle

>  <origin>  (46) 
adgpu

>  <m_score__min__energy>  (46) 
-9.6999999999999993

>  <m_primary>  (46) 
energy

$$$$
46:0
     RDKit          3D

 15 15  0  0  0  0  0  0  0  0999 V2000
    0.9320   24.2160  -28.2810 O   0  0  0  0  0  0  0  0  0  0  0  0
   -0.1600   23.8400  -27.7800 C   0  0  0  0  0  0  0  0  0  0  0  0
   -1.3790   23.6800  -28.6050 C   0  0  0  0  0  0  0  0  0  0  0  0
   -1.8700   22.3850  -28.8310 C   0  0  0  0  0  0  0  0  0  0  0  0
   -3.0170   22.1850  -29.6030 C   0  0  0  0  0  0  0  0  0  0  0  0
   -3.6910   23.2730  -30.1610 C   0  0  0  0  0  0  0  0  0  0  0  0
   -4.8330   23.0430  -30.9280 O   0  0  0  0  0  0  0  0  0  0  0  0
   -3.2110   24.5740  -29.9440 C   0  0  0  0  0  0  0  0  0  0  0  0
   -3.8740   25.6650  -30.4950 O   0  0  0  0  0  0  0  0  0  0  0  0
   -2.0600   24.7810  -29.1700 C   0  0  0  0  0  0  0  0  0  0  0  0
   -1.6060   26.0810  -28.9700 O   0  0  0  0  0  0  0  0  0  0  0  0
   -0.2098   23.6250  -26.7024 H   0  0  0  0  0  0  0  0  0  0  0  0
   -1.3473   21.5201  -28.3966 H   0  0  0  0  0  0  0  0  0  0  0  0
   -3.3913   21.1646  -29.7722 H   0  0  0  0  0  0  0  0  0  0  0  0
   -5.3670   23.8000  -31.3370 H   0  0  0  0  0  0  0  0  0  0  0  0
  1  2  2  0
  2  3  1  0
  3  4  2  0
  4  5  1  0
  5  6  2  0
  6  7  1  0
  6  8  1  0
  8  9  1  0
  8 10  2  0
 10 11  1  0
 10  3  1  0
  2 12  1  0
  4 13  1  0
  5 14  1  0
  7 15  1  0
M  CHG  2   9  -1  11  -1
M  END
>  <UniqueID>  (47) 
44

>  <SMILES>  (47) 
O=Cc1ccc(O)c([O-])c1[O-]

>  <Energy>  (47) 
15.672206410981431

>  <Genealogy>  (47) 
O=Cc1ccc(O)c([O-])c1[O-] (protonated)
O=Cc1ccc(O)c([O-])c1[O-] (3D coordinates assigned)
O=Cc1ccc(O)c([O-])c1[O-] (optimized conformer: 15.672206410981431 kcal/mol)

>  <smiles>  (47) 
O=Cc1ccc(O)c(O)c1O

>  <score_type>  (47) 
oracle

>  <origin>  (47) 
adgpu

>  <m_score__min__energy>  (47) 
-9.9800000000000004

>  <m_primary>  (47) 
energy

$$$$
47:0
     RDKit          3D

 42 45  0  0  0  0  0  0  0  0999 V2000
   -1.2250   26.7950  -28.9720 O   0  0  0  0  0  0  0  0  0  0  0  0
   -1.2090   25.4350  -28.6890 C   0  0  0  0  0  0  0  0  0  0  0  0
   -0.2320   24.9120  -27.8390 C   0  0  0  0  0  0  0  0  0  0  0  0
   -0.2090   23.5440  -27.5490 C   0  0  0  0  0  0  0  0  0  0  0  0
   -1.1680   22.6780  -28.1110 C   0  0  0  0  0  0  0  0  0  0  0  0
   -1.1680   21.2210  -27.8160 C   0  0  0  0  0  0  0  0  0  0  0  0
   -2.1780   20.5590  -27.1090 C   0  0  0  0  0  0  0  0  0  0  0  0
   -1.7630   18.9330  -27.0000 S   0  0  0  0  0  0  0  0  0  0  0  0
   -0.3230   19.1290  -27.8500 C   0  0  0  0  0  0  0  0  0  0  0  0
    0.6140   18.0770  -28.1500 N   0  0  0  0  0  0  0  0  0  0  0  0
    1.9730   18.1120  -27.5900 C   0  0  0  0  0  0  0  0  0  0  0  0
    2.4120   16.7060  -27.1640 C   0  0  0  0  0  0  0  0  0  0  0  0
    2.0920   15.7040  -28.1910 N   0  0  0  0  0  0  0  0  0  0  0  0
    2.3410   14.3160  -27.9250 C   0  0  0  0  0  0  0  0  0  0  0  0
    1.6720   13.6750  -26.8710 C   0  0  0  0  0  0  0  0  0  0  0  0
    1.9130   12.3260  -26.5980 C   0  0  0  0  0  0  0  0  0  0  0  0
    2.8230   11.6070  -27.3760 C   0  0  0  0  0  0  0  0  0  0  0  0
    3.4900   12.2350  -28.4320 C   0  0  0  0  0  0  0  0  0  0  0  0
    3.2500   13.5850  -28.7130 C   0  0  0  0  0  0  0  0  0  0  0  0
    3.9010   14.1850  -29.7840 O   0  0  0  0  0  0  0  0  0  0  0  0
    1.4180   16.1040  -29.4300 C   0  0  0  0  0  0  0  0  0  0  0  0
    0.2370   17.0230  -29.1080 C   0  0  0  0  0  0  0  0  0  0  0  0
   -0.1440   20.4160  -28.2190 N   0  0  0  0  0  0  0  0  0  0  0  0
   -2.1510   23.2190  -28.9630 C   0  0  0  0  0  0  0  0  0  0  0  0
   -2.1700   24.5880  -29.2510 C   0  0  0  0  0  0  0  0  0  0  0  0
   -3.1450   25.1020  -30.0980 O   0  0  0  0  0  0  0  0  0  0  0  0
    0.5224   25.5787  -27.3958 H   0  0  0  0  0  0  0  0  0  0  0  0
    0.5634   23.1412  -26.8773 H   0  0  0  0  0  0  0  0  0  0  0  0
   -3.0863   21.0221  -26.6960 H   0  0  0  0  0  0  0  0  0  0  0  0
    2.6690   18.4939  -28.3514 H   0  0  0  0  0  0  0  0  0  0  0  0
    1.9788   18.7700  -26.7085 H   0  0  0  0  0  0  0  0  0  0  0  0
    3.4987   16.7078  -26.9936 H   0  0  0  0  0  0  0  0  0  0  0  0
    1.8702   16.4406  -26.2442 H   0  0  0  0  0  0  0  0  0  0  0  0
    0.9539   14.2376  -26.2564 H   0  0  0  0  0  0  0  0  0  0  0  0
    1.3856   11.8300  -25.7698 H   0  0  0  0  0  0  0  0  0  0  0  0
    3.0150   10.5461  -27.1578 H   0  0  0  0  0  0  0  0  0  0  0  0
    4.2057   11.6664  -29.0440 H   0  0  0  0  0  0  0  0  0  0  0  0
    2.1300   16.6381  -30.0763 H   0  0  0  0  0  0  0  0  0  0  0  0
    1.0476   15.2062  -29.9466 H   0  0  0  0  0  0  0  0  0  0  0  0
   -0.1120   17.4948  -30.0384 H   0  0  0  0  0  0  0  0  0  0  0  0
   -0.5583   16.4140  -28.6534 H   0  0  0  0  0  0  0  0  0  0  0  0
   -2.9110   22.5586  -29.4061 H   0  0  0  0  0  0  0  0  0  0  0  0
  1  2  1  0
  2  3  2  0
  3  4  1  0
  4  5  2  0
  5  6  1  0
  6  7  2  0
  7  8  1  0
  8  9  1  0
  9 10  1  0
 10 11  1  0
 11 12  1  0
 12 13  1  0
 13 14  1  0
 14 15  2  0
 15 16  1  0
 16 17  2  0
 17 18  1  0
 18 19  2  0
 19 20  1  0
 13 21  1  0
 21 22  1  0
  9 23  2  0
  5 24  1  0
 24 25  2  0
 25 26  1  0
 25  2  1  0
 23  6  1  0
 22 10  1  0
 19 14  1  0
  3 27  1  0
  4 28  1  0
  7 29  1  0
 11 30  1  0
 11 31  1  0
 12 32  1  0
 12 33  1  0
 15 34  1  0
 16 35  1  0
 17 36  1  0
 18 37  1  0
 21 38  1  0
 21 39  1  0
 22 40  1  0
 22 41  1  0
 24 42  1  0
M  CHG  3   1  -1  20  -1  26  -1
M  END
>  <UniqueID>  (48) 
45

>  <SMILES>  (48) 
[O-]c1ccc(-c2csc(N3CCN(c4ccccc4[O-])CC3)n2)cc1[O-]

>  <Energy>  (48) 
83.9013774522269

>  <Genealogy>  (48) 
[O-]c1ccc(-c2csc(N3CCN(c4ccccc4[O-])CC3)n2)cc1[O-] (protonated)
[O-]c1ccc(-c2csc(N3CCN(c4ccccc4[O-])CC3)n2)cc1[O-] (3D coordinates assigned)
[O-]c1ccc(-c2csc(N3CCN(c4ccccc4[O-])CC3)n2)cc1[O-] (nonaromatic ring conformer: 83.9013774522269 kcal/mol)

>  <smiles>  (48) 
Oc1ccc(-c2csc(N3CCN(c4ccccc4O)CC3)n2)cc1O

>  <score_type>  (48) 
oracle

>  <origin>  (48) 
adgpu

>  <m_score__min__energy>  (48) 
-12.470000000000001

>  <m_primary>  (48) 
energy

$$$$
