0:0
     RDKit          3D

 42 44  0  0  0  0  0  0  0  0999 V2000
   -0.7580   26.7200  -27.9460 C   0  0  0  0  0  0  0  0  0  0  0  0
   -1.6510   25.5410  -28.1420 C   0  0  0  0  0  0  0  0  0  0  0  0
   -2.3700   24.9000  -27.1480 C   0  0  0  0  0  0  0  0  0  0  0  0
   -2.9640   23.8530  -27.8130 C   0  0  0  0  0  0  0  0  0  0  0  0
   -3.7140   22.9870  -27.2880 O   0  0  0  0  0  0  0  0  0  0  0  0
   -2.6060   23.8690  -29.1110 N   0  0  0  0  0  0  0  0  0  0  0  0
   -3.0380   22.9660  -30.1430 C   0  0  0  0  0  0  0  0  0  0  0  0
   -2.3340   21.7690  -30.3490 C   0  0  0  0  0  0  0  0  0  0  0  0
   -2.7810   20.8300  -31.2790 C   0  0  0  0  0  0  0  0  0  0  0  0
   -3.9440   21.0700  -32.0160 C   0  0  0  0  0  0  0  0  0  0  0  0
   -4.5190   19.8870  -33.1890 S   0  0  0  0  0  0  0  0  0  0  0  0
   -3.4360   19.6610  -34.2080 O   0  0  0  0  0  0  0  0  0  0  0  0
   -5.7460   20.4140  -33.8790 O   0  0  0  0  0  0  0  0  0  0  0  0
   -4.8950   18.3900  -32.3640 N   0  0  0  0  0  0  0  0  0  0  0  0
   -6.3460   18.2660  -32.0690 C   0  0  0  0  0  0  0  0  0  0  0  0
   -7.0240   17.0670  -32.7540 C   0  0  0  0  0  0  0  0  0  0  0  0
   -6.5750   16.9590  -34.2100 C   0  0  0  0  0  0  0  0  0  0  0  0
   -5.0460   16.8340  -34.3330 C   0  0  0  0  0  0  0  0  0  0  0  0
   -4.3000   17.2220  -33.0420 C   0  0  0  0  0  0  0  0  0  0  0  0
   -4.6560   22.2580  -31.8190 C   0  0  0  0  0  0  0  0  0  0  0  0
   -4.2080   23.2220  -30.9000 C   0  0  0  0  0  0  0  0  0  0  0  0
   -4.9150   24.4690  -30.7820 N   0  0  0  0  0  0  0  0  0  0  0  0
   -6.1640   24.4880  -30.8010 O   0  0  0  0  0  0  0  0  0  0  0  0
   -4.2340   25.6620  -30.8370 O   0  0  0  0  0  0  0  0  0  0  0  0
   -1.8010   24.8990  -29.3200 N   0  0  0  0  0  0  0  0  0  0  0  0
   -0.6208   26.9011  -26.8697 H   0  0  0  0  0  0  0  0  0  0  0  0
    0.2186   26.5218  -28.4119 H   0  0  0  0  0  0  0  0  0  0  0  0
   -1.2134   27.6063  -28.4119 H   0  0  0  0  0  0  0  0  0  0  0  0
   -2.4476   25.1643  -26.0830 H   0  0  0  0  0  0  0  0  0  0  0  0
   -1.4198   21.5692  -29.7708 H   0  0  0  0  0  0  0  0  0  0  0  0
   -2.2167   19.8984  -31.4326 H   0  0  0  0  0  0  0  0  0  0  0  0
   -6.4698   18.1583  -30.9813 H   0  0  0  0  0  0  0  0  0  0  0  0
   -6.8292   19.1723  -32.4628 H   0  0  0  0  0  0  0  0  0  0  0  0
   -6.7511   16.1440  -32.2215 H   0  0  0  0  0  0  0  0  0  0  0  0
   -8.1141   17.2117  -32.7275 H   0  0  0  0  0  0  0  0  0  0  0  0
   -7.0415   16.0706  -34.6607 H   0  0  0  0  0  0  0  0  0  0  0  0
   -6.8842   17.8775  -34.7304 H   0  0  0  0  0  0  0  0  0  0  0  0
   -4.7991   15.7908  -34.5795 H   0  0  0  0  0  0  0  0  0  0  0  0
   -4.7230   17.5317  -35.1197 H   0  0  0  0  0  0  0  0  0  0  0  0
   -4.3239   16.3657  -32.3519 H   0  0  0  0  0  0  0  0  0  0  0  0
   -3.2715   17.4922  -33.3235 H   0  0  0  0  0  0  0  0  0  0  0  0
   -5.5781   22.4398  -32.3906 H   0  0  0  0  0  0  0  0  0  0  0  0
  1  2  1  0
  2  3  2  0
  3  4  1  0
  4  5  2  0
  4  6  1  0
  6  7  1  0
  7  8  2  0
  8  9  1  0
  9 10  2  0
 10 11  1  0
 11 12  2  0
 11 13  2  0
 11 14  1  0
 14 15  1  0
 15 16  1  0
 16 17  1  0
 17 18  1  0
 18 19  1  0
 10 20  1  0
 20 21  2  0
 21 22  1  0
 22 23  2  0
 22 24  1  0
  6 25  1  0
 25  2  1  0
 21  7  1  0
 19 14  1  0
  1 26  1  0
  1 27  1  0
  1 28  1  0
  3 29  1  0
  8 30  1  0
  9 31  1  0
 15 32  1  0
 15 33  1  0
 16 34  1  0
 16 35  1  0
 17 36  1  0
 17 37  1  0
 18 38  1  0
 18 39  1  0
 19 40  1  0
 19 41  1  0
 20 42  1  0
M  CHG  3  22   1  24  -1  25  -1
M  END
>  <UniqueID>  (1) 
1

>  <SMILES>  (1) 
Cc1cc(=O)n(-c2ccc(S(=O)(=O)N3CCCCC3)cc2[N+](=O)[O-])[n-]1

>  <Energy>  (1) 
90.0998580234555

>  <Genealogy>  (1) 
Cc1cc(=O)n(-c2ccc(S(=O)(=O)N3CCCCC3)cc2[N+](=O)[O-])[n-]1 (protonated)
Cc1cc(=O)n(-c2ccc(S(=O)(=O)N3CCCCC3)cc2[N+](=O)[O-])[n-]1 (3D coordinates assigned)
Cc1cc(=O)n(-c2ccc(S(=O)(=O)N3CCCCC3)cc2[N+](=O)[O-])[n-]1 (nonaromatic ring conformer: 90.0998580234555 kcal/mol)

>  <smiles>  (1) 
Cc1cc(=O)n(-c2ccc(S(=O)(=O)N3CCCCC3)cc2[N+](=O)[O-])[nH]1

>  <score_type>  (1) 
oracle

>  <origin>  (1) 
adgpu

>  <m_score__min__energy>  (1) 
-10.48

>  <m_primary>  (1) 
energy

$$$$
1:0
     RDKit          3D

 33 35  0  0  0  0  0  0  0  0999 V2000
   -2.1540   11.8540  -35.8920 H   0  0  0  0  0  0  0  0  0  0  0  0
   -2.8710   12.0480  -35.1590 N   0  0  0  0  0  0  0  0  0  0  0  0
   -4.0240   13.1300  -35.8550 S   0  0  0  0  0  0  0  0  0  0  0  0
   -3.7800   13.2410  -37.3340 O   0  0  0  0  0  0  0  0  0  0  0  0
   -5.4100   12.5930  -35.6340 O   0  0  0  0  0  0  0  0  0  0  0  0
   -3.8700   14.7150  -35.1040 C   0  0  0  0  0  0  0  0  0  0  0  0
   -3.0080   15.6730  -35.6530 C   0  0  0  0  0  0  0  0  0  0  0  0
   -2.4346   15.4377  -36.5617 H   0  0  0  0  0  0  0  0  0  0  0  0
   -2.8740   16.9270  -35.0500 C   0  0  0  0  0  0  0  0  0  0  0  0
   -2.1856   17.6689  -35.4809 H   0  0  0  0  0  0  0  0  0  0  0  0
   -3.6090   17.2460  -33.9020 C   0  0  0  0  0  0  0  0  0  0  0  0
   -3.4180   18.5380  -33.2990 N   0  0  0  0  0  0  0  0  0  0  0  0
   -4.3480   19.3750  -32.9460 C   0  0  0  0  0  0  0  0  0  0  0  0
   -5.6670   19.1990  -33.1590 N   0  0  0  0  0  0  0  0  0  0  0  0
   -6.2570   20.2810  -32.6760 N   0  0  0  0  0  0  0  0  0  0  0  0
   -5.2770   21.0730  -32.1950 C   0  0  0  0  0  0  0  0  0  0  0  0
   -5.4980   22.3890  -31.5650 C   0  0  0  0  0  0  0  0  0  0  0  0
   -6.7970   22.8180  -31.2430 C   0  0  0  0  0  0  0  0  0  0  0  0
   -7.6579   22.1694  -31.4623 H   0  0  0  0  0  0  0  0  0  0  0  0
   -7.0000   24.0660  -30.6450 C   0  0  0  0  0  0  0  0  0  0  0  0
   -8.0196   24.3947  -30.3952 H   0  0  0  0  0  0  0  0  0  0  0  0
   -5.9090   24.8990  -30.3630 C   0  0  0  0  0  0  0  0  0  0  0  0
   -6.1050   26.1440  -29.7680 O   0  0  0  0  0  0  0  0  0  0  0  0
   -5.3360   26.6670  -29.3670 H   0  0  0  0  0  0  0  0  0  0  0  0
   -4.6120   24.4760  -30.6820 C   0  0  0  0  0  0  0  0  0  0  0  0
   -3.5240   25.2950  -30.4050 O   0  0  0  0  0  0  0  0  0  0  0  0
   -4.4080   23.2270  -31.2790 C   0  0  0  0  0  0  0  0  0  0  0  0
   -3.3873   22.8995  -31.5259 H   0  0  0  0  0  0  0  0  0  0  0  0
   -4.0970   20.5200  -32.3620 O   0  0  0  0  0  0  0  0  0  0  0  0
   -4.4470   16.2690  -33.3310 C   0  0  0  0  0  0  0  0  0  0  0  0
   -4.9993   16.4936  -32.4066 H   0  0  0  0  0  0  0  0  0  0  0  0
   -4.5800   15.0150  -33.9340 C   0  0  0  0  0  0  0  0  0  0  0  0
   -5.2448   14.2606  -33.4881 H   0  0  0  0  0  0  0  0  0  0  0  0
  1  2  1  0
  2  3  1  0
  3  4  2  0
  3  5  2  0
  3  6  1  0
  6  7  2  0
  7  8  1  0
  7  9  1  0
  9 10  1  0
  9 11  2  0
 11 12  1  0
 12 13  2  0
 13 14  1  0
 14 15  1  0
 15 16  2  0
 16 17  1  0
 17 18  2  0
 18 19  1  0
 18 20  1  0
 20 21  1  0
 20 22  2  0
 22 23  1  0
 23 24  1  0
 22 25  1  0
 25 26  1  0
 25 27  2  0
 27 28  1  0
 16 29  1  0
 11 30  1  0
 30 31  1  0
 30 32  2  0
 32 33  1  0
 32  6  1  0
 29 13  1  0
 27 17  1  0
M  CHG  3   2  -1  14  -1  26  -1
M  END
>  <UniqueID>  (2) 
2

>  <SMILES>  (2) 
[NH-]S(=O)(=O)c1ccc(/N=c2\[n-]nc(-c3ccc(O)c([O-])c3)o2)cc1

>  <Energy>  (2) 
76.80841263369102

>  <Genealogy>  (2) 
[NH-]S(=O)(=O)c1ccc(N=c2[n-]nc(-c3ccc(O)c([O-])c3)o2)cc1 (protonated)
[NH-]S(=O)(=O)c1ccc(/N=c2\[n-]nc(-c3ccc(O)c([O-])c3)o2)cc1 (cis-trans isomerization)
[NH-]S(=O)(=O)c1ccc(/N=c2\[n-]nc(-c3ccc(O)c([O-])c3)o2)cc1 (3D coordinates assigned)
[NH-]S(=O)(=O)c1ccc(/N=c2\[n-]nc(-c3ccc(O)c([O-])c3)o2)cc1 (optimized conformer: 76.80841263369102 kcal/mol)

>  <smiles>  (2) 
NS(=O)(=O)c1ccc(N=c2[nH]nc(-c3ccc(O)c(O)c3)o2)cc1

>  <score_type>  (2) 
oracle

>  <origin>  (2) 
adgpu

>  <m_score__min__energy>  (2) 
-8.9700000000000006

>  <m_primary>  (2) 
energy

$$$$
2:0
     RDKit          3D

 50 52  0  0  0  0  0  0  0  0999 V2000
   -2.5600   17.1050  -33.1410 C   0  0  0  0  0  0  0  0  0  0  0  0
   -2.8120   18.1920  -34.1790 C   0  0  0  0  0  0  0  0  0  0  0  0
   -4.0730   18.8930  -33.8950 N   0  0  0  0  0  0  0  0  0  0  0  0
   -5.3340   18.3800  -34.4570 C   0  0  0  0  0  0  0  0  0  0  0  0
   -6.4570   18.5780  -33.4760 C   0  0  0  0  0  0  0  0  0  0  0  0
   -7.1980   19.7700  -33.4580 C   0  0  0  0  0  0  0  0  0  0  0  0
   -8.2060   19.9500  -32.5100 C   0  0  0  0  0  0  0  0  0  0  0  0
   -8.4640   18.9380  -31.5850 C   0  0  0  0  0  0  0  0  0  0  0  0
   -7.7340   17.7910  -31.6080 N   0  0  0  0  0  0  0  0  0  0  0  0
   -6.7460   17.5910  -32.5220 C   0  0  0  0  0  0  0  0  0  0  0  0
   -4.0740   19.9920  -32.9570 C   0  0  0  0  0  0  0  0  0  0  0  0
   -3.9530   21.3250  -33.3880 C   0  0  0  0  0  0  0  0  0  0  0  0
   -3.9720   22.3560  -32.4490 C   0  0  0  0  0  0  0  0  0  0  0  0
   -4.0970   22.0640  -31.0890 C   0  0  0  0  0  0  0  0  0  0  0  0
   -4.1580   23.3700  -29.9070 S   0  0  0  0  0  0  0  0  0  0  0  0
   -3.4150   24.5500  -30.4710 O   0  0  0  0  0  0  0  0  0  0  0  0
   -3.4710   22.9430  -28.6400 O   0  0  0  0  0  0  0  0  0  0  0  0
   -5.8180   23.8320  -29.5820 N   0  0  0  0  0  0  0  0  0  0  0  0
   -6.2540   24.9490  -30.4510 C   0  0  0  0  0  0  0  0  0  0  0  0
   -6.4730   24.5250  -31.9150 C   0  0  0  0  0  0  0  0  0  0  0  0
   -7.1470   23.1490  -32.0520 C   0  0  0  0  0  0  0  0  0  0  0  0
   -7.7760   22.6880  -30.7390 C   0  0  0  0  0  0  0  0  0  0  0  0
   -6.7270   22.6490  -29.6130 C   0  0  0  0  0  0  0  0  0  0  0  0
   -4.2050   20.7270  -30.6920 C   0  0  0  0  0  0  0  0  0  0  0  0
   -4.1880   19.7370  -31.6230 N   0  0  0  0  0  0  0  0  0  0  0  0
   -2.6589   17.5316  -32.1319 H   0  0  0  0  0  0  0  0  0  0  0  0
   -3.2945   16.2966  -33.2709 H   0  0  0  0  0  0  0  0  0  0  0  0
   -1.5447   16.7022  -33.2709 H   0  0  0  0  0  0  0  0  0  0  0  0
   -1.9829   18.9145  -34.1551 H   0  0  0  0  0  0  0  0  0  0  0  0
   -2.8803   17.7257  -35.1730 H   0  0  0  0  0  0  0  0  0  0  0  0
   -5.5641   18.9205  -35.3870 H   0  0  0  0  0  0  0  0  0  0  0  0
   -5.2239   17.3055  -34.6653 H   0  0  0  0  0  0  0  0  0  0  0  0
   -6.9842   20.5619  -34.1909 H   0  0  0  0  0  0  0  0  0  0  0  0
   -8.7916   20.8810  -32.4922 H   0  0  0  0  0  0  0  0  0  0  0  0
   -9.2591   19.0681  -30.8360 H   0  0  0  0  0  0  0  0  0  0  0  0
   -6.1722   16.6526  -32.5128 H   0  0  0  0  0  0  0  0  0  0  0  0
   -3.8441   21.5531  -34.4586 H   0  0  0  0  0  0  0  0  0  0  0  0
   -3.8883   23.4016  -32.7803 H   0  0  0  0  0  0  0  0  0  0  0  0
   -5.8140   24.2020  -28.6030 H   0  0  0  0  0  0  0  0  0  0  0  0
   -7.1996   25.3502  -30.0575 H   0  0  0  0  0  0  0  0  0  0  0  0
   -5.4525   25.7023  -30.4440 H   0  0  0  0  0  0  0  0  0  0  0  0
   -7.1092   25.2765  -32.4054 H   0  0  0  0  0  0  0  0  0  0  0  0
   -5.4818   24.4524  -32.3865 H   0  0  0  0  0  0  0  0  0  0  0  0
   -7.9327   23.2130  -32.8192 H   0  0  0  0  0  0  0  0  0  0  0  0
   -6.3746   22.4184  -32.3342 H   0  0  0  0  0  0  0  0  0  0  0  0
   -8.5790   23.3859  -30.4595 H   0  0  0  0  0  0  0  0  0  0  0  0
   -8.1802   21.6746  -30.8789 H   0  0  0  0  0  0  0  0  0  0  0  0
   -7.2563   22.5955  -28.6502 H   0  0  0  0  0  0  0  0  0  0  0  0
   -6.0941   21.7692  -29.8012 H   0  0  0  0  0  0  0  0  0  0  0  0
   -4.3038   20.4767  -29.6254 H   0  0  0  0  0  0  0  0  0  0  0  0
  1  2  1  0
  2  3  1  0
  3  4  1  0
  4  5  1  0
  5  6  2  0
  6  7  1  0
  7  8  2  0
  8  9  1  0
  9 10  2  0
  3 11  1  0
 11 12  2  0
 12 13  1  0
 13 14  2  0
 14 15  1  0
 15 16  2  0
 15 17  2  0
 15 18  1  0
 18 19  1  0
 19 20  1  0
 20 21  1  0
 21 22  1  0
 22 23  1  0
 14 24  1  0
 24 25  2  0
 10  5  1  0
 25 11  1  0
 23 18  1  0
  1 26  1  0
  1 27  1  0
  1 28  1  0
  2 29  1  0
  2 30  1  0
  4 31  1  0
  4 32  1  0
  6 33  1  0
  7 34  1  0
  8 35  1  0
 10 36  1  0
 12 37  1  0
 13 38  1  0
 18 39  1  0
 19 40  1  0
 19 41  1  0
 20 42  1  0
 20 43  1  0
 21 44  1  0
 21 45  1  0
 22 46  1  0
 22 47  1  0
 23 48  1  0
 23 49  1  0
 24 50  1  0
M  CHG  1  18   1
M  END
>  <UniqueID>  (3) 
3

>  <SMILES>  (3) 
CCN(Cc1cccnc1)c1ccc(S(=O)(=O)[NH+]2CCCCC2)cn1

>  <Energy>  (3) 
56.6494450905933

>  <Genealogy>  (3) 
CCN(Cc1cccnc1)c1ccc(S(=O)(=O)[NH+]2CCCCC2)cn1 (protonated)
CCN(Cc1cccnc1)c1ccc(S(=O)(=O)[NH+]2CCCCC2)cn1 (3D coordinates assigned)
CCN(Cc1cccnc1)c1ccc(S(=O)(=O)[NH+]2CCCCC2)cn1 (nonaromatic ring conformer: 56.6494450905933 kcal/mol)

>  <smiles>  (3) 
CCN(Cc1cccnc1)c1ccc(S(=O)(=O)N2CCCCC2)cn1

>  <score_type>  (3) 
oracle

>  <origin>  (3) 
adgpu

>  <m_score__min__energy>  (3) 
-8.2200000000000006

>  <m_primary>  (3) 
energy

$$$$
3:0
     RDKit          3D

 54 57  0  0  0  0  0  0  0  0999 V2000
   -0.8190   19.7850  -29.2150 C   0  0  0  0  0  0  0  0  0  0  0  0
   -0.9840   20.7500  -28.0790 C   0  0  0  0  0  0  0  0  0  0  0  0
   -1.0520   20.2890  -26.9070 O   0  0  0  0  0  0  0  0  0  0  0  0
   -1.0690   22.2210  -28.2970 C   0  0  0  0  0  0  0  0  0  0  0  0
   -0.1140   23.0740  -27.7170 C   0  0  0  0  0  0  0  0  0  0  0  0
   -0.1800   24.4540  -27.9140 C   0  0  0  0  0  0  0  0  0  0  0  0
   -1.2010   25.0100  -28.6930 C   0  0  0  0  0  0  0  0  0  0  0  0
   -1.2650   26.3880  -28.8880 O   0  0  0  0  0  0  0  0  0  0  0  0
   -2.1650   24.1810  -29.2820 C   0  0  0  0  0  0  0  0  0  0  0  0
   -3.1720   24.7750  -30.0560 O   0  0  0  0  0  0  0  0  0  0  0  0
   -4.5260   24.9290  -29.6390 C   0  0  0  0  0  0  0  0  0  0  0  0
   -5.4360   24.9340  -30.8680 C   0  0  0  0  0  0  0  0  0  0  0  0
   -5.9210   23.5930  -31.2560 N   0  0  0  0  0  0  0  0  0  0  0  0
   -5.7320   23.1990  -32.6690 C   0  0  0  0  0  0  0  0  0  0  0  0
   -4.5240   22.2780  -32.8730 C   0  0  0  0  0  0  0  0  0  0  0  0
   -4.5690   21.1950  -31.8930 N   0  0  0  0  0  0  0  0  0  0  0  0
   -5.0270   19.8920  -32.2850 C   0  0  0  0  0  0  0  0  0  0  0  0
   -4.1260   18.9900  -32.7640 N   0  0  0  0  0  0  0  0  0  0  0  0
   -4.4790   17.7320  -33.1290 C   0  0  0  0  0  0  0  0  0  0  0  0
   -5.8050   17.3150  -33.0180 C   0  0  0  0  0  0  0  0  0  0  0  0
   -6.7710   18.2110  -32.5440 C   0  0  0  0  0  0  0  0  0  0  0  0
   -8.1140   17.8190  -32.4410 C   0  0  0  0  0  0  0  0  0  0  0  0
   -9.0770   18.7240  -31.9880 C   0  0  0  0  0  0  0  0  0  0  0  0
   -8.7090   20.0260  -31.6440 C   0  0  0  0  0  0  0  0  0  0  0  0
   -7.3750   20.4300  -31.7390 C   0  0  0  0  0  0  0  0  0  0  0  0
   -6.3880   19.5250  -32.1760 C   0  0  0  0  0  0  0  0  0  0  0  0
   -4.6030   21.5930  -30.4890 C   0  0  0  0  0  0  0  0  0  0  0  0
   -5.7990   22.5200  -30.2430 C   0  0  0  0  0  0  0  0  0  0  0  0
   -2.0950   22.7870  -29.0800 C   0  0  0  0  0  0  0  0  0  0  0  0
   -0.6463   18.7747  -28.8157 H   0  0  0  0  0  0  0  0  0  0  0  0
   -1.7302   19.7849  -29.8313 H   0  0  0  0  0  0  0  0  0  0  0  0
    0.0404   20.0876  -29.8313 H   0  0  0  0  0  0  0  0  0  0  0  0
    0.6932   22.6496  -27.1019 H   0  0  0  0  0  0  0  0  0  0  0  0
    0.5750   25.1086  -27.4542 H   0  0  0  0  0  0  0  0  0  0  0  0
   -1.2440   26.7960  -29.8160 H   0  0  0  0  0  0  0  0  0  0  0  0
   -4.8044   24.0942  -28.9791 H   0  0  0  0  0  0  0  0  0  0  0  0
   -4.6380   25.8778  -29.0938 H   0  0  0  0  0  0  0  0  0  0  0  0
   -6.3078   25.5690  -30.6516 H   0  0  0  0  0  0  0  0  0  0  0  0
   -4.8371   25.3139  -31.7088 H   0  0  0  0  0  0  0  0  0  0  0  0
   -6.6359   22.6738  -33.0112 H   0  0  0  0  0  0  0  0  0  0  0  0
   -5.5495   24.1170  -33.2469 H   0  0  0  0  0  0  0  0  0  0  0  0
   -4.5517   21.8557  -33.8883 H   0  0  0  0  0  0  0  0  0  0  0  0
   -3.5962   22.8541  -32.7419 H   0  0  0  0  0  0  0  0  0  0  0  0
   -3.7167   17.0386  -33.5138 H   0  0  0  0  0  0  0  0  0  0  0  0
   -6.0898   16.2907  -33.3004 H   0  0  0  0  0  0  0  0  0  0  0  0
   -8.4096   16.7962  -32.7177 H   0  0  0  0  0  0  0  0  0  0  0  0
  -10.1277   18.4100  -31.9022 H   0  0  0  0  0  0  0  0  0  0  0  0
   -9.4729   20.7371  -31.2965 H   0  0  0  0  0  0  0  0  0  0  0  0
   -7.0942   21.4593  -31.4714 H   0  0  0  0  0  0  0  0  0  0  0  0
   -4.6986   20.6975  -29.8574 H   0  0  0  0  0  0  0  0  0  0  0  0
   -3.6730   22.1244  -30.2386 H   0  0  0  0  0  0  0  0  0  0  0  0
   -6.7186   21.9167  -30.2597 H   0  0  0  0  0  0  0  0  0  0  0  0
   -5.6423   23.0056  -29.2685 H   0  0  0  0  0  0  0  0  0  0  0  0
   -2.8509   22.1331  -29.5395 H   0  0  0  0  0  0  0  0  0  0  0  0
  1  2  1  0
  2  3  2  0
  2  4  1  0
  4  5  2  0
  5  6  1  0
  6  7  2  0
  7  8  1  0
  7  9  1  0
  9 10  1  0
 10 11  1  0
 11 12  1  0
 12 13  1  0
 13 14  1  0
 14 15  1  0
 15 16  1  0
 16 17  1  0
 17 18  2  0
 18 19  1  0
 19 20  2  0
 20 21  1  0
 21 22  2  0
 22 23  1  0
 23 24  2  0
 24 25  1  0
 25 26  2  0
 16 27  1  0
 27 28  1  0
  9 29  2  0
 29  4  1  0
 28 13  1  0
 26 17  1  0
 26 21  1  0
  1 30  1  0
  1 31  1  0
  1 32  1  0
  5 33  1  0
  6 34  1  0
  8 35  1  0
 11 36  1  0
 11 37  1  0
 12 38  1  0
 12 39  1  0
 14 40  1  0
 14 41  1  0
 15 42  1  0
 15 43  1  0
 19 44  1  0
 20 45  1  0
 22 46  1  0
 23 47  1  0
 24 48  1  0
 25 49  1  0
 27 50  1  0
 27 51  1  0
 28 52  1  0
 28 53  1  0
 29 54  1  0
M  END
>  <UniqueID>  (4) 
4

>  <SMILES>  (4) 
CC(=O)c1ccc(O)c(OCCN2CCN(c3nccc4ccccc34)CC2)c1

>  <Energy>  (4) 
74.95138477748611

>  <Genealogy>  (4) 
CC(=O)c1ccc(O)c(OCCN2CCN(c3nccc4ccccc34)CC2)c1 (3D coordinates assigned)
CC(=O)c1ccc(O)c(OCCN2CCN(c3nccc4ccccc34)CC2)c1 (nonaromatic ring conformer: 74.95138477748611 kcal/mol)

>  <smiles>  (4) 
CC(=O)c1ccc(O)c(OCCN2CCN(c3nccc4ccccc34)CC2)c1

>  <score_type>  (4) 
oracle

>  <origin>  (4) 
adgpu

>  <m_score__min__energy>  (4) 
-9.6099999999999994

>  <m_primary>  (4) 
energy

$$$$
4:0
     RDKit          3D

 42 44  0  0  0  0  0  0  0  0999 V2000
   -2.6768   22.5709  -29.1141 H   0  0  0  0  0  0  0  0  0  0  0  0
   -2.4770   23.4800  -28.5280 C   0  0  0  0  0  0  0  0  0  0  0  0
   -2.5450   24.7710  -29.2360 C   0  0  0  0  0  0  0  0  0  0  0  0
   -1.6930   25.6580  -28.9660 O   0  0  0  0  0  0  0  0  0  0  0  0
   -3.4890   24.9750  -30.2970 N   0  0  0  0  0  0  0  0  0  0  0  0
   -4.6920   24.2290  -30.5220 C   0  0  0  0  0  0  0  0  0  0  0  0
   -4.6720   22.8530  -30.8150 C   0  0  0  0  0  0  0  0  0  0  0  0
   -3.7139   22.3136  -30.8491 H   0  0  0  0  0  0  0  0  0  0  0  0
   -5.8660   22.1690  -31.0630 C   0  0  0  0  0  0  0  0  0  0  0  0
   -5.8451   21.0896  -31.2739 H   0  0  0  0  0  0  0  0  0  0  0  0
   -7.0880   22.8520  -31.0440 C   0  0  0  0  0  0  0  0  0  0  0  0
   -8.5900   21.9840  -31.3340 S   0  0  0  0  0  0  0  0  0  0  0  0
   -9.4170   22.7170  -32.3520 O   0  0  0  0  0  0  0  0  0  0  0  0
   -9.3860   21.8990  -30.0600 O   0  0  0  0  0  0  0  0  0  0  0  0
   -8.2150   20.3680  -31.9180 C   0  0  0  0  0  0  0  0  0  0  0  0
   -8.9440   19.2630  -31.4560 C   0  0  0  0  0  0  0  0  0  0  0  0
   -9.7650   19.4083  -30.7384 H   0  0  0  0  0  0  0  0  0  0  0  0
   -8.6300   17.9780  -31.9050 C   0  0  0  0  0  0  0  0  0  0  0  0
   -9.2071   17.1142  -31.5433 H   0  0  0  0  0  0  0  0  0  0  0  0
   -7.5840   17.7870  -32.8130 C   0  0  0  0  0  0  0  0  0  0  0  0
   -7.3408   16.7745  -33.1674 H   0  0  0  0  0  0  0  0  0  0  0  0
   -6.8460   18.8860  -33.2710 C   0  0  0  0  0  0  0  0  0  0  0  0
   -5.7630   18.6890  -34.1990 C   0  0  0  0  0  0  0  0  0  0  0  0
   -4.8930   18.5310  -34.9450 N   0  0  0  0  0  0  0  0  0  0  0  0
   -7.1600   20.1750  -32.8200 C   0  0  0  0  0  0  0  0  0  0  0  0
   -6.5769   21.0376  -33.1749 H   0  0  0  0  0  0  0  0  0  0  0  0
   -7.1090   24.2250  -30.7660 C   0  0  0  0  0  0  0  0  0  0  0  0
   -8.0667   24.7657  -30.7429 H   0  0  0  0  0  0  0  0  0  0  0  0
   -5.9160   24.9090  -30.5180 C   0  0  0  0  0  0  0  0  0  0  0  0
   -5.9386   25.9904  -30.3180 H   0  0  0  0  0  0  0  0  0  0  0  0
   -2.1910   23.3240  -27.2260 C   0  0  0  0  0  0  0  0  0  0  0  0
   -2.3249   22.3210  -26.7947 H   0  0  0  0  0  0  0  0  0  0  0  0
   -1.7100   24.3940  -26.3250 C   0  0  0  0  0  0  0  0  0  0  0  0
   -2.5570   25.4640  -26.0050 C   0  0  0  0  0  0  0  0  0  0  0  0
   -3.5646   25.5151  -26.4433 H   0  0  0  0  0  0  0  0  0  0  0  0
   -2.1380   26.4390  -25.1550 N   0  0  0  0  0  0  0  0  0  0  0  0
   -0.9070   26.4050  -24.5790 C   0  0  0  0  0  0  0  0  0  0  0  0
   -0.5931   27.2153  -23.9046 H   0  0  0  0  0  0  0  0  0  0  0  0
   -0.0410   25.3420  -24.8430 C   0  0  0  0  0  0  0  0  0  0  0  0
    0.9530   25.3050  -24.3734 H   0  0  0  0  0  0  0  0  0  0  0  0
   -0.4500   24.3270  -25.7090 C   0  0  0  0  0  0  0  0  0  0  0  0
    0.2151   23.4740  -25.9091 H   0  0  0  0  0  0  0  0  0  0  0  0
  1  2  1  0
  2  3  1  0
  3  4  2  0
  3  5  1  0
  5  6  1  0
  6  7  2  0
  7  8  1  0
  7  9  1  0
  9 10  1  0
  9 11  2  0
 11 12  1  0
 12 13  2  0
 12 14  2  0
 12 15  1  0
 15 16  2  0
 16 17  1  0
 16 18  1  0
 18 19  1  0
 18 20  2  0
 20 21  1  0
 20 22  1  0
 22 23  1  0
 23 24  3  0
 22 25  2  0
 25 26  1  0
 11 27  1  0
 27 28  1  0
 27 29  2  0
 29 30  1  0
  2 31  2  0
 31 32  1  0
 31 33  1  0
 33 34  2  0
 34 35  1  0
 34 36  1  0
 36 37  2  0
 37 38  1  0
 37 39  1  0
 39 40  1  0
 39 41  2  0
 41 42  1  0
 29  6  1  0
 41 33  1  0
 25 15  1  0
M  CHG  1   5  -1
M  END
>  <UniqueID>  (5) 
5

>  <SMILES>  (5) 
N#Cc1cccc(S(=O)(=O)c2ccc([N-]C(=O)/C=C\c3cccnc3)cc2)c1

>  <Energy>  (5) 
56.81883834160988

>  <Genealogy>  (5) 
N#Cc1cccc(S(=O)(=O)c2ccc([N-]C(=O)C=Cc3cccnc3)cc2)c1 (protonated)
N#Cc1cccc(S(=O)(=O)c2ccc([N-]C(=O)/C=C\c3cccnc3)cc2)c1 (cis-trans isomerization)
N#Cc1cccc(S(=O)(=O)c2ccc([N-]C(=O)/C=C\c3cccnc3)cc2)c1 (3D coordinates assigned)
N#Cc1cccc(S(=O)(=O)c2ccc([N-]C(=O)/C=C\c3cccnc3)cc2)c1 (optimized conformer: 56.81883834160988 kcal/mol)

>  <smiles>  (5) 
N#Cc1cccc(S(=O)(=O)c2ccc(NC(=O)C=Cc3cccnc3)cc2)c1

>  <score_type>  (5) 
oracle

>  <origin>  (5) 
adgpu

>  <m_score__min__energy>  (5) 
-12.35

>  <m_primary>  (5) 
energy

$$$$
5:0
     RDKit          3D

 48 50  0  0  0  0  0  0  0  0999 V2000
   -1.9020   15.4490  -36.0850 C   0  0  0  0  0  0  0  0  0  0  0  0
   -2.4770   16.6440  -34.8960 S   0  0  0  0  0  0  0  0  0  0  0  0
   -1.5850   17.8510  -34.9540 O   0  0  0  0  0  0  0  0  0  0  0  0
   -2.4220   16.0700  -33.5080 O   0  0  0  0  0  0  0  0  0  0  0  0
   -4.0990   17.1320  -35.2740 N   0  0  0  0  0  0  0  0  0  0  0  0
   -5.0430   17.6940  -34.3510 C   0  0  0  0  0  0  0  0  0  0  0  0
   -6.2440   17.0110  -34.1280 C   0  0  0  0  0  0  0  0  0  0  0  0
   -7.1910   17.5160  -33.2370 C   0  0  0  0  0  0  0  0  0  0  0  0
   -6.9470   18.7110  -32.5570 C   0  0  0  0  0  0  0  0  0  0  0  0
   -5.7490   19.4170  -32.7670 C   0  0  0  0  0  0  0  0  0  0  0  0
   -5.4850   20.6870  -32.0440 C   0  0  0  0  0  0  0  0  0  0  0  0
   -4.2100   21.2810  -32.0800 C   0  0  0  0  0  0  0  0  0  0  0  0
   -3.9690   22.4860  -31.4160 C   0  0  0  0  0  0  0  0  0  0  0  0
   -4.9980   23.1170  -30.7050 C   0  0  0  0  0  0  0  0  0  0  0  0
   -4.7290   24.6650  -29.9110 S   0  0  0  0  0  0  0  0  0  0  0  0
   -6.0340   25.3070  -29.5310 O   0  0  0  0  0  0  0  0  0  0  0  0
   -3.9950   25.5710  -30.8610 O   0  0  0  0  0  0  0  0  0  0  0  0
   -3.7700   24.4300  -28.4840 N   0  0  0  0  0  0  0  0  0  0  0  0
   -3.0730   23.1990  -28.2150 C   0  0  0  0  0  0  0  0  0  0  0  0
   -3.7800   21.9830  -28.1880 C   0  0  0  0  0  0  0  0  0  0  0  0
   -3.1200   20.7810  -27.9240 C   0  0  0  0  0  0  0  0  0  0  0  0
   -1.7500   20.7780  -27.6740 C   0  0  0  0  0  0  0  0  0  0  0  0
   -1.0330   21.9750  -27.6870 C   0  0  0  0  0  0  0  0  0  0  0  0
   -1.6790   23.1920  -27.9570 C   0  0  0  0  0  0  0  0  0  0  0  0
   -0.7200   24.6780  -28.0070 S   0  0  0  0  0  0  0  0  0  0  0  0
   -1.5030   25.8460  -29.0120 N   0  0  0  0  0  0  0  0  0  0  0  0
    0.6450   24.4000  -28.5700 O   0  0  0  0  0  0  0  0  0  0  0  0
   -0.5690   25.2260  -26.6170 O   0  0  0  0  0  0  0  0  0  0  0  0
   -6.2660   22.5290  -30.6570 C   0  0  0  0  0  0  0  0  0  0  0  0
   -6.5110   21.3240  -31.3210 C   0  0  0  0  0  0  0  0  0  0  0  0
   -4.7990   18.8990  -33.6670 C   0  0  0  0  0  0  0  0  0  0  0  0
   -1.4834   14.5791  -35.5576 H   0  0  0  0  0  0  0  0  0  0  0  0
   -2.7430   15.1255  -36.7159 H   0  0  0  0  0  0  0  0  0  0  0  0
   -1.1244   15.9043  -36.7159 H   0  0  0  0  0  0  0  0  0  0  0  0
   -6.4427   16.0686  -34.6595 H   0  0  0  0  0  0  0  0  0  0  0  0
   -8.1321   16.9717  -33.0696 H   0  0  0  0  0  0  0  0  0  0  0  0
   -7.6962   19.1024  -31.8530 H   0  0  0  0  0  0  0  0  0  0  0  0
   -3.3962   20.7923  -32.6357 H   0  0  0  0  0  0  0  0  0  0  0  0
   -2.9681   22.9409  -31.4515 H   0  0  0  0  0  0  0  0  0  0  0  0
   -3.6310   25.2590  -27.8690 H   0  0  0  0  0  0  0  0  0  0  0  0
   -4.8637   21.9790  -28.3768 H   0  0  0  0  0  0  0  0  0  0  0  0
   -3.6827   19.8359  -27.9135 H   0  0  0  0  0  0  0  0  0  0  0  0
   -1.2321   19.8301  -27.4659 H   0  0  0  0  0  0  0  0  0  0  0  0
    0.0480   21.9651  -27.4839 H   0  0  0  0  0  0  0  0  0  0  0  0
   -2.0350   25.3160  -29.7370 H   0  0  0  0  0  0  0  0  0  0  0  0
   -7.0747   23.0175  -30.0937 H   0  0  0  0  0  0  0  0  0  0  0  0
   -7.5122   20.8704  -31.2783 H   0  0  0  0  0  0  0  0  0  0  0  0
   -3.8572   19.4412  -33.8372 H   0  0  0  0  0  0  0  0  0  0  0  0
  1  2  1  0
  2  3  2  0
  2  4  2  0
  2  5  1  0
  5  6  1  0
  6  7  2  0
  7  8  1  0
  8  9  2  0
  9 10  1  0
 10 11  1  0
 11 12  2  0
 12 13  1  0
 13 14  2  0
 14 15  1  0
 15 16  2  0
 15 17  2  0
 15 18  1  0
 18 19  1  0
 19 20  2  0
 20 21  1  0
 21 22  2  0
 22 23  1  0
 23 24  2  0
 24 25  1  0
 25 26  1  0
 25 27  2  0
 25 28  2  0
 14 29  1  0
 29 30  2  0
 10 31  2  0
 31  6  1  0
 30 11  1  0
 24 19  1  0
  1 32  1  0
  1 33  1  0
  1 34  1  0
  7 35  1  0
  8 36  1  0
  9 37  1  0
 12 38  1  0
 13 39  1  0
 18 40  1  0
 20 41  1  0
 21 42  1  0
 22 43  1  0
 23 44  1  0
 26 45  1  0
 29 46  1  0
 30 47  1  0
 31 48  1  0
M  CHG  2   5  -1  26  -1
M  END
>  <UniqueID>  (6) 
6

>  <SMILES>  (6) 
CS(=O)(=O)[N-]c1cccc(-c2ccc(S(=O)(=O)Nc3ccccc3S([NH-])(=O)=O)cc2)c1

>  <Energy>  (6) 
58.62790911135864

>  <Genealogy>  (6) 
CS(=O)(=O)[N-]c1cccc(-c2ccc(S(=O)(=O)Nc3ccccc3S([NH-])(=O)=O)cc2)c1 (protonated)
CS(=O)(=O)[N-]c1cccc(-c2ccc(S(=O)(=O)Nc3ccccc3S([NH-])(=O)=O)cc2)c1 (3D coordinates assigned)
CS(=O)(=O)[N-]c1cccc(-c2ccc(S(=O)(=O)Nc3ccccc3S([NH-])(=O)=O)cc2)c1 (optimized conformer: 58.62790911135864 kcal/mol)

>  <smiles>  (6) 
CS(=O)(=O)Nc1cccc(-c2ccc(S(=O)(=O)Nc3ccccc3S(N)(=O)=O)cc2)c1

>  <score_type>  (6) 
oracle

>  <origin>  (6) 
adgpu

>  <m_score__min__energy>  (6) 
-12.890000000000001

>  <m_primary>  (6) 
energy

$$$$
6:0
     RDKit          3D

 40 43  0  0  0  0  0  0  0  0999 V2000
    1.1868   19.5695  -33.4342 H   0  0  0  0  0  0  0  0  0  0  0  0
    0.3460   20.1530  -33.0310 C   0  0  0  0  0  0  0  0  0  0  0  0
    0.2700   20.4000  -31.6980 N   0  0  0  0  0  0  0  0  0  0  0  0
   -0.7550   21.1260  -31.1810 C   0  0  0  0  0  0  0  0  0  0  0  0
   -0.8059   21.3080  -30.0974 H   0  0  0  0  0  0  0  0  0  0  0  0
   -1.7460   21.6430  -32.0220 C   0  0  0  0  0  0  0  0  0  0  0  0
   -2.8440   22.3910  -31.4700 N   0  0  0  0  0  0  0  0  0  0  0  0
   -2.6270   23.2660  -30.9410 H   0  0  0  0  0  0  0  0  0  0  0  0
   -4.2260   22.0340  -31.6400 C   0  0  0  0  0  0  0  0  0  0  0  0
   -5.2600   22.9120  -31.2510 C   0  0  0  0  0  0  0  0  0  0  0  0
   -4.9910   24.1780  -30.5310 C   0  0  0  0  0  0  0  0  0  0  0  0
   -4.9710   25.2640  -31.1710 O   0  0  0  0  0  0  0  0  0  0  0  0
   -4.6430   24.2000  -29.1380 N   0  0  0  0  0  0  0  0  0  0  0  0
   -3.4910   24.5360  -28.6310 C   0  0  0  0  0  0  0  0  0  0  0  0
   -2.4260   24.8330  -29.4310 N   0  0  0  0  0  0  0  0  0  0  0  0
   -1.2130   25.1730  -28.9190 C   0  0  0  0  0  0  0  0  0  0  0  0
   -0.3788   25.4134  -29.5945 H   0  0  0  0  0  0  0  0  0  0  0  0
   -1.0260   25.2170  -27.5350 C   0  0  0  0  0  0  0  0  0  0  0  0
    0.6720   25.6950  -26.8040 Br  0  0  0  0  0  0  0  0  0  0  0  0
   -2.0960   24.9050  -26.6930 C   0  0  0  0  0  0  0  0  0  0  0  0
   -1.9642   24.9324  -25.6013 H   0  0  0  0  0  0  0  0  0  0  0  0
   -3.3340   24.5580  -27.2400 C   0  0  0  0  0  0  0  0  0  0  0  0
   -4.1787   24.3041  -26.5828 H   0  0  0  0  0  0  0  0  0  0  0  0
   -6.5540   22.5700  -31.4990 N   0  0  0  0  0  0  0  0  0  0  0  0
   -6.9140   21.4190  -32.1270 C   0  0  0  0  0  0  0  0  0  0  0  0
   -8.3940   21.1840  -32.3490 C   0  0  0  0  0  0  0  0  0  0  0  0
   -8.3485   21.5004  -33.4015 H   0  0  0  0  0  0  0  0  0  0  0  0
   -9.3340   21.4620  -31.1850 C   0  0  0  0  0  0  0  0  0  0  0  0
   -8.9361   21.8583  -30.2391 H   0  0  0  0  0  0  0  0  0  0  0  0
  -10.2493   22.0567  -31.0490 H   0  0  0  0  0  0  0  0  0  0  0  0
   -9.0330   20.0270  -31.5960 C   0  0  0  0  0  0  0  0  0  0  0  0
   -8.4178   19.3865  -30.9469 H   0  0  0  0  0  0  0  0  0  0  0  0
   -9.6410   19.1553  -31.8798 H   0  0  0  0  0  0  0  0  0  0  0  0
   -5.9060   20.5280  -32.5380 C   0  0  0  0  0  0  0  0  0  0  0  0
   -6.1701   19.5890  -33.0465 H   0  0  0  0  0  0  0  0  0  0  0  0
   -4.5690   20.8440  -32.2960 C   0  0  0  0  0  0  0  0  0  0  0  0
   -3.7775   20.1535  -32.6227 H   0  0  0  0  0  0  0  0  0  0  0  0
   -1.6560   21.3570  -33.3930 C   0  0  0  0  0  0  0  0  0  0  0  0
   -2.4288   21.7253  -34.0837 H   0  0  0  0  0  0  0  0  0  0  0  0
   -0.6140   20.6250  -33.8670 N   0  0  0  0  0  0  0  0  0  0  0  0
  1  2  1  0
  2  3  2  0
  3  4  1  0
  4  5  1  0
  4  6  2  0
  6  7  1  0
  7  8  1  0
  7  9  1  0
  9 10  1  0
 10 11  1  0
 11 12  2  0
 11 13  1  0
 13 14  2  0
 14 15  1  0
 15 16  1  0
 16 17  1  0
 16 18  2  0
 18 19  1  0
 18 20  1  0
 20 21  1  0
 20 22  2  0
 22 23  1  0
 10 24  2  0
 24 25  1  0
 25 26  1  0
 26 27  1  0
 26 28  1  0
 28 29  1  0
 28 30  1  0
 28 31  1  0
 31 32  1  0
 31 33  1  0
 25 34  2  0
 34 35  1  0
 34 36  1  0
 36 37  1  0
  6 38  1  0
 38 39  1  0
 38 40  2  0
 40  2  1  0
 36  9  2  0
 22 14  1  0
 31 26  1  0
M  CHG  1  15  -1
M  END
>  <UniqueID>  (7) 
7

>  <SMILES>  (7) 
O=C(/N=c1/ccc(Br)c[n-]1)c1nc(C2CC2)ccc1Nc1cncnc1

>  <Energy>  (7) 
327.3091368566591

>  <Genealogy>  (7) 
O=C(N=c1ccc(Br)c[n-]1)c1nc(C2CC2)ccc1Nc1cncnc1 (protonated)
O=C(/N=c1/ccc(Br)c[n-]1)c1nc(C2CC2)ccc1Nc1cncnc1 (cis-trans isomerization)
O=C(/N=c1/ccc(Br)c[n-]1)c1nc(C2CC2)ccc1Nc1cncnc1 (3D coordinates assigned)
O=C(/N=c1/ccc(Br)c[n-]1)c1nc(C2CC2)ccc1Nc1cncnc1 (nonaromatic ring conformer: 327.3091368566591 kcal/mol)

>  <smiles>  (7) 
O=C(N=c1ccc(Br)c[nH]1)c1nc(C2CC2)ccc1Nc1cncnc1

>  <score_type>  (7) 
oracle

>  <origin>  (7) 
adgpu

>  <m_score__min__energy>  (7) 
-9.7300000000000004

>  <m_primary>  (7) 
energy

$$$$
7:0
     RDKit          3D

 42 45  0  0  0  0  0  0  0  0999 V2000
   -2.6370   21.7420  -29.3830 H   0  0  0  0  0  0  0  0  0  0  0  0
   -3.5350   21.9450  -29.8730 N   0  0  0  0  0  0  0  0  0  0  0  0
   -3.9100   23.1420  -30.1990 C   0  0  0  0  0  0  0  0  0  0  0  0
   -5.0650   23.4670  -30.8960 C   0  0  0  0  0  0  0  0  0  0  0  0
   -6.1650   22.6100  -31.3960 C   0  0  0  0  0  0  0  0  0  0  0  0
   -5.8470   21.5130  -32.1380 N   0  0  0  0  0  0  0  0  0  0  0  0
   -6.7800   20.6580  -32.6420 C   0  0  0  0  0  0  0  0  0  0  0  0
   -6.3150   19.5020  -33.4380 C   0  0  0  0  0  0  0  0  0  0  0  0
   -5.3370   19.6140  -34.2250 O   0  0  0  0  0  0  0  0  0  0  0  0
   -7.0270   18.2600  -33.3430 N   0  0  0  0  0  0  0  0  0  0  0  0
   -6.4550   16.9440  -33.3190 C   0  0  0  0  0  0  0  0  0  0  0  0
   -6.8730   15.9250  -34.1940 C   0  0  0  0  0  0  0  0  0  0  0  0
   -7.6800   16.1177  -34.9162 H   0  0  0  0  0  0  0  0  0  0  0  0
   -6.2800   14.7010  -34.1480 N   0  0  0  0  0  0  0  0  0  0  0  0
   -5.2750   14.4250  -33.2760 C   0  0  0  0  0  0  0  0  0  0  0  0
   -4.8246   13.4216  -33.2555 H   0  0  0  0  0  0  0  0  0  0  0  0
   -4.8140   15.4150  -32.4060 C   0  0  0  0  0  0  0  0  0  0  0  0
   -3.9948   15.2001  -31.7040 H   0  0  0  0  0  0  0  0  0  0  0  0
   -5.4030   16.6800  -32.4360 C   0  0  0  0  0  0  0  0  0  0  0  0
   -5.0390   17.4710  -31.7638 H   0  0  0  0  0  0  0  0  0  0  0  0
   -8.1440   20.9070  -32.3880 C   0  0  0  0  0  0  0  0  0  0  0  0
   -9.1350   20.0620  -32.8870 O   0  0  0  0  0  0  0  0  0  0  0  0
   -8.9170   19.3060  -33.5250 H   0  0  0  0  0  0  0  0  0  0  0  0
   -8.4980   22.0210  -31.6190 C   0  0  0  0  0  0  0  0  0  0  0  0
   -9.5580   22.2254  -31.4079 H   0  0  0  0  0  0  0  0  0  0  0  0
   -7.5150   22.8730  -31.1190 C   0  0  0  0  0  0  0  0  0  0  0  0
   -7.7957   23.7458  -30.5112 H   0  0  0  0  0  0  0  0  0  0  0  0
   -4.9880   24.8450  -31.0360 C   0  0  0  0  0  0  0  0  0  0  0  0
   -5.7389   25.4714  -31.5397 H   0  0  0  0  0  0  0  0  0  0  0  0
   -3.8560   25.3030  -30.4630 N   0  0  0  0  0  0  0  0  0  0  0  0
   -3.2070   24.2700  -29.9480 N   0  0  0  0  0  0  0  0  0  0  0  0
   -1.9700   24.4090  -29.2310 C   0  0  0  0  0  0  0  0  0  0  0  0
   -1.8160   25.4480  -28.3010 C   0  0  0  0  0  0  0  0  0  0  0  0
   -2.6337   26.1667  -28.1433 H   0  0  0  0  0  0  0  0  0  0  0  0
   -0.6280   25.5750  -27.5730 C   0  0  0  0  0  0  0  0  0  0  0  0
   -0.5081   26.3999  -26.8553 H   0  0  0  0  0  0  0  0  0  0  0  0
    0.4070   24.6530  -27.7580 C   0  0  0  0  0  0  0  0  0  0  0  0
    1.5870   24.7800  -27.0360 O   0  0  0  0  0  0  0  0  0  0  0  0
    0.2530   23.6020  -28.6670 C   0  0  0  0  0  0  0  0  0  0  0  0
    1.0658   22.8745  -28.8090 H   0  0  0  0  0  0  0  0  0  0  0  0
   -0.9340   23.4750  -29.3960 C   0  0  0  0  0  0  0  0  0  0  0  0
   -1.0567   22.6401  -30.1016 H   0  0  0  0  0  0  0  0  0  0  0  0
  1  2  1  0
  2  3  2  0
  3  4  1  0
  4  5  1  0
  5  6  2  0
  6  7  1  0
  7  8  1  0
  8  9  2  0
  8 10  1  0
 10 11  1  0
 11 12  2  0
 12 13  1  0
 12 14  1  0
 14 15  2  0
 15 16  1  0
 15 17  1  0
 17 18  1  0
 17 19  2  0
 19 20  1  0
  7 21  2  0
 21 22  1  0
 22 23  1  0
 21 24  1  0
 24 25  1  0
 24 26  2  0
 26 27  1  0
  4 28  2  0
 28 29  1  0
 28 30  1  0
 30 31  1  0
 31 32  1  0
 32 33  2  0
 33 34  1  0
 33 35  1  0
 35 36  1  0
 35 37  2  0
 37 38  1  0
 37 39  1  0
 39 40  1  0
 39 41  2  0
 41 42  1  0
 31  3  1  0
 41 32  1  0
 26  5  1  0
 19 11  1  0
M  CHG  3  10  -1  30  -1  38  -1
M  END
>  <UniqueID>  (8) 
8

>  <SMILES>  (8) 
[H]/N=c1/c(-c2ccc(O)c(C(=O)[N-]c3cccnc3)n2)c[n-]n1-c1ccc([O-])cc1

>  <Energy>  (8) 
94.42760492936928

>  <Genealogy>  (8) 
N=c1c(-c2ccc(O)c(C(=O)[N-]c3cccnc3)n2)c[n-]n1-c1ccc([O-])cc1 (protonated)
[H]/N=c1/c(-c2ccc(O)c(C(=O)[N-]c3cccnc3)n2)c[n-]n1-c1ccc([O-])cc1 (cis-trans isomerization)
[H]/N=c1/c(-c2ccc(O)c(C(=O)[N-]c3cccnc3)n2)c[n-]n1-c1ccc([O-])cc1 (3D coordinates assigned)
[H]/N=c1/c(-c2ccc(O)c(C(=O)[N-]c3cccnc3)n2)c[n-]n1-c1ccc([O-])cc1 (optimized conformer: 94.42760492936928 kcal/mol)

>  <smiles>  (8) 
N=c1c(-c2ccc(O)c(C(=O)Nc3cccnc3)n2)c[nH]n1-c1ccc(O)cc1

>  <score_type>  (8) 
oracle

>  <origin>  (8) 
adgpu

>  <m_score__min__energy>  (8) 
-9.9399999999999995

>  <m_primary>  (8) 
energy

$$$$
8:0
     RDKit          3D

 41 43  0  0  0  0  0  0  0  0999 V2000
   -4.7640   16.9760  -35.7280 H   0  0  0  0  0  0  0  0  0  0  0  0
   -4.1750   17.5510  -35.0850 N   0  0  0  0  0  0  0  0  0  0  0  0
   -4.6550   18.5610  -34.4330 C   0  0  0  0  0  0  0  0  0  0  0  0
   -3.8420   19.2720  -33.6110 N   0  0  0  0  0  0  0  0  0  0  0  0
   -4.3070   20.3390  -32.9110 C   0  0  0  0  0  0  0  0  0  0  0  0
   -3.6280   20.9018  -32.2536 H   0  0  0  0  0  0  0  0  0  0  0  0
   -5.6500   20.7250  -33.0240 C   0  0  0  0  0  0  0  0  0  0  0  0
   -6.1830   21.8860  -32.2670 C   0  0  0  0  0  0  0  0  0  0  0  0
   -7.5370   21.9350  -31.8960 C   0  0  0  0  0  0  0  0  0  0  0  0
   -8.2086   21.1082  -32.1703 H   0  0  0  0  0  0  0  0  0  0  0  0
   -8.0360   23.0250  -31.1820 C   0  0  0  0  0  0  0  0  0  0  0  0
   -9.0979   23.0526  -30.8962 H   0  0  0  0  0  0  0  0  0  0  0  0
   -7.1940   24.0800  -30.8290 C   0  0  0  0  0  0  0  0  0  0  0  0
   -7.5963   24.9344  -30.2650 H   0  0  0  0  0  0  0  0  0  0  0  0
   -5.8350   24.0590  -31.1890 C   0  0  0  0  0  0  0  0  0  0  0  0
   -4.9420   25.1810  -30.8150 C   0  0  0  0  0  0  0  0  0  0  0  0
   -5.3740   26.3650  -30.8470 O   0  0  0  0  0  0  0  0  0  0  0  0
   -3.5730   24.9240  -30.4690 N   0  0  0  0  0  0  0  0  0  0  0  0
   -3.0890   23.8980  -29.5910 C   0  0  0  0  0  0  0  0  0  0  0  0
   -3.6100   23.7140  -28.2970 C   0  0  0  0  0  0  0  0  0  0  0  0
   -4.4016   24.3811  -27.9250 H   0  0  0  0  0  0  0  0  0  0  0  0
   -3.1250   22.6860  -27.4820 C   0  0  0  0  0  0  0  0  0  0  0  0
   -3.5247   22.5579  -26.4652 H   0  0  0  0  0  0  0  0  0  0  0  0
   -2.1320   21.8190  -27.9560 C   0  0  0  0  0  0  0  0  0  0  0  0
   -1.5120   20.5350  -26.9230 S   0  0  0  0  0  0  0  0  0  0  0  0
   -0.2290   19.9980  -27.4920 O   0  0  0  0  0  0  0  0  0  0  0  0
   -1.2400   21.0740  -25.5470 O   0  0  0  0  0  0  0  0  0  0  0  0
   -2.7120   19.2260  -26.8230 C   0  0  0  0  0  0  0  0  0  0  0  0
   -2.9200   18.9991  -25.7669 H   0  0  0  0  0  0  0  0  0  0  0  0
   -3.6411   19.5416  -27.3201 H   0  0  0  0  0  0  0  0  0  0  0  0
   -2.3170   18.3277  -27.3201 H   0  0  0  0  0  0  0  0  0  0  0  0
   -1.6240   21.9900  -29.2500 C   0  0  0  0  0  0  0  0  0  0  0  0
   -0.8414   21.3145  -29.6259 H   0  0  0  0  0  0  0  0  0  0  0  0
   -2.1090   23.0170  -30.0650 C   0  0  0  0  0  0  0  0  0  0  0  0
   -1.7179   23.1340  -31.0864 H   0  0  0  0  0  0  0  0  0  0  0  0
   -5.3380   22.9550  -31.9090 C   0  0  0  0  0  0  0  0  0  0  0  0
   -4.2763   22.9272  -32.1955 H   0  0  0  0  0  0  0  0  0  0  0  0
   -6.4720   19.9740  -33.8790 C   0  0  0  0  0  0  0  0  0  0  0  0
   -7.5319   20.2443  -33.9952 H   0  0  0  0  0  0  0  0  0  0  0  0
   -5.9660   18.9150  -34.5640 N   0  0  0  0  0  0  0  0  0  0  0  0
   -6.5990   18.3760  -35.1960 H   0  0  0  0  0  0  0  0  0  0  0  0
  1  2  1  0
  2  3  2  0
  3  4  1  0
  4  5  2  0
  5  6  1  0
  5  7  1  0
  7  8  1  0
  8  9  2  0
  9 10  1  0
  9 11  1  0
 11 12  1  0
 11 13  2  0
 13 14  1  0
 13 15  1  0
 15 16  1  0
 16 17  2  0
 16 18  1  0
 18 19  1  0
 19 20  2  0
 20 21  1  0
 20 22  1  0
 22 23  1  0
 22 24  2  0
 24 25  1  0
 25 26  2  0
 25 27  2  0
 25 28  1  0
 28 29  1  0
 28 30  1  0
 28 31  1  0
 24 32  1  0
 32 33  1  0
 32 34  2  0
 34 35  1  0
 15 36  2  0
 36 37  1  0
  7 38  2  0
 38 39  1  0
 38 40  1  0
 40 41  1  0
 40  3  1  0
 36  8  1  0
 34 19  1  0
M  CHG  1  18  -1
M  END
>  <UniqueID>  (9) 
9

>  <SMILES>  (9) 
[H]/N=c1/ncc(-c2cccc(C(=O)[N-]c3ccc(S(C)(=O)=O)cc3)c2)c[nH]1

>  <Energy>  (9) 
51.161567023575344

>  <Genealogy>  (9) 
CS(=O)(=O)c1ccc([N-]C(=O)c2cccc(-c3cnc(=N)[nH]c3)c2)cc1 (protonated)
[H]/N=c1/ncc(-c2cccc(C(=O)[N-]c3ccc(S(C)(=O)=O)cc3)c2)c[nH]1 (cis-trans isomerization)
[H]/N=c1/ncc(-c2cccc(C(=O)[N-]c3ccc(S(C)(=O)=O)cc3)c2)c[nH]1 (3D coordinates assigned)
[H]/N=c1/ncc(-c2cccc(C(=O)[N-]c3ccc(S(C)(=O)=O)cc3)c2)c[nH]1 (optimized conformer: 51.161567023575344 kcal/mol)

>  <smiles>  (9) 
CS(=O)(=O)c1ccc(NC(=O)c2cccc(-c3cnc(=N)[nH]c3)c2)cc1

>  <score_type>  (9) 
oracle

>  <origin>  (9) 
adgpu

>  <m_score__min__energy>  (9) 
-10.66

>  <m_primary>  (9) 
energy

$$$$
9:0
     RDKit          3D

 51 53  0  0  0  0  0  0  0  0999 V2000
   -1.2300   26.1310  -28.1920 C   0  0  0  0  0  0  0  0  0  0  0  0
   -2.0620   25.3050  -29.0010 O   0  0  0  0  0  0  0  0  0  0  0  0
   -2.1660   23.9100  -28.8750 C   0  0  0  0  0  0  0  0  0  0  0  0
   -1.0310   23.0760  -28.9260 C   0  0  0  0  0  0  0  0  0  0  0  0
   -1.1640   21.6920  -28.8040 C   0  0  0  0  0  0  0  0  0  0  0  0
   -2.4230   21.1240  -28.6260 C   0  0  0  0  0  0  0  0  0  0  0  0
   -3.5570   21.9360  -28.5700 C   0  0  0  0  0  0  0  0  0  0  0  0
   -3.4440   23.3340  -28.7000 C   0  0  0  0  0  0  0  0  0  0  0  0
   -4.6080   24.1820  -28.6490 N   0  0  0  0  0  0  0  0  0  0  0  0
   -5.4180   24.7850  -30.0610 S   0  0  0  0  0  0  0  0  0  0  0  0
   -4.4710   25.6510  -30.8440 O   0  0  0  0  0  0  0  0  0  0  0  0
   -6.5980   25.6120  -29.6350 O   0  0  0  0  0  0  0  0  0  0  0  0
   -5.9280   23.4410  -31.0800 C   0  0  0  0  0  0  0  0  0  0  0  0
   -5.0110   22.8430  -31.9470 C   0  0  0  0  0  0  0  0  0  0  0  0
   -5.3980   21.7630  -32.7400 C   0  0  0  0  0  0  0  0  0  0  0  0
   -6.7140   21.2740  -32.6930 C   0  0  0  0  0  0  0  0  0  0  0  0
   -7.0630   20.1010  -33.4470 N   0  0  0  0  0  0  0  0  0  0  0  0
   -6.1880   18.9730  -33.6270 C   0  0  0  0  0  0  0  0  0  0  0  0
   -4.8000   19.1410  -33.7740 C   0  0  0  0  0  0  0  0  0  0  0  0
   -3.9620   18.0300  -33.9460 C   0  0  0  0  0  0  0  0  0  0  0  0
   -2.4840   18.2210  -34.1240 C   0  0  0  0  0  0  0  0  0  0  0  0
   -4.5210   16.7460  -34.0200 C   0  0  0  0  0  0  0  0  0  0  0  0
   -5.9080   16.5700  -33.9130 C   0  0  0  0  0  0  0  0  0  0  0  0
   -6.4990   15.1900  -33.9530 C   0  0  0  0  0  0  0  0  0  0  0  0
   -6.7330   17.6840  -33.7030 C   0  0  0  0  0  0  0  0  0  0  0  0
   -7.6520   21.8840  -31.8240 C   0  0  0  0  0  0  0  0  0  0  0  0
   -9.0220   21.4430  -31.7640 N   0  0  0  0  0  0  0  0  0  0  0  0
   -9.5060   20.7380  -32.6720 O   0  0  0  0  0  0  0  0  0  0  0  0
   -9.8580   21.9190  -30.7800 O   0  0  0  0  0  0  0  0  0  0  0  0
   -7.2420   22.9620  -31.0200 C   0  0  0  0  0  0  0  0  0  0  0  0
   -1.4338   25.9286  -27.1302 H   0  0  0  0  0  0  0  0  0  0  0  0
   -0.1740   25.9137  -28.4105 H   0  0  0  0  0  0  0  0  0  0  0  0
   -1.4396   27.1885  -28.4105 H   0  0  0  0  0  0  0  0  0  0  0  0
   -0.0335   23.5189  -29.0629 H   0  0  0  0  0  0  0  0  0  0  0  0
   -0.2728   21.0488  -28.8485 H   0  0  0  0  0  0  0  0  0  0  0  0
   -2.5241   20.0329  -28.5293 H   0  0  0  0  0  0  0  0  0  0  0  0
   -4.5473   21.4803  -28.4231 H   0  0  0  0  0  0  0  0  0  0  0  0
   -4.9390   24.5490  -27.7300 H   0  0  0  0  0  0  0  0  0  0  0  0
   -3.9810   23.2247  -32.0046 H   0  0  0  0  0  0  0  0  0  0  0  0
   -4.6649   21.2891  -33.4094 H   0  0  0  0  0  0  0  0  0  0  0  0
   -8.0290   20.0470  -33.8420 H   0  0  0  0  0  0  0  0  0  0  0  0
   -4.3678   20.1523  -33.7539 H   0  0  0  0  0  0  0  0  0  0  0  0
   -2.0009   18.2834  -33.1377 H   0  0  0  0  0  0  0  0  0  0  0  0
   -2.0688   17.3690  -34.6824 H   0  0  0  0  0  0  0  0  0  0  0  0
   -2.2990   19.1505  -34.6824 H   0  0  0  0  0  0  0  0  0  0  0  0
   -3.8680   15.8724  -34.1627 H   0  0  0  0  0  0  0  0  0  0  0  0
   -6.6542   14.8277  -32.9260 H   0  0  0  0  0  0  0  0  0  0  0  0
   -7.4635   15.2193  -34.4811 H   0  0  0  0  0  0  0  0  0  0  0  0
   -5.8122   14.5122  -34.4811 H   0  0  0  0  0  0  0  0  0  0  0  0
   -7.8190   17.5449  -33.5968 H   0  0  0  0  0  0  0  0  0  0  0  0
   -7.9621   23.4346  -30.3358 H   0  0  0  0  0  0  0  0  0  0  0  0
  1  2  1  0
  2  3  1  0
  3  4  2  0
  4  5  1  0
  5  6  2  0
  6  7  1  0
  7  8  2  0
  8  9  1  0
  9 10  1  0
 10 11  2  0
 10 12  2  0
 10 13  1  0
 13 14  2  0
 14 15  1  0
 15 16  2  0
 16 17  1  0
 17 18  1  0
 18 19  2  0
 19 20  1  0
 20 21  1  0
 20 22  2  0
 22 23  1  0
 23 24  1  0
 23 25  2  0
 16 26  1  0
 26 27  1  0
 27 28  2  0
 27 29  1  0
 26 30  2  0
  8  3  1  0
 30 13  1  0
 25 18  1  0
  1 31  1  0
  1 32  1  0
  1 33  1  0
  4 34  1  0
  5 35  1  0
  6 36  1  0
  7 37  1  0
  9 38  1  0
 14 39  1  0
 15 40  1  0
 17 41  1  0
 19 42  1  0
 21 43  1  0
 21 44  1  0
 21 45  1  0
 22 46  1  0
 24 47  1  0
 24 48  1  0
 24 49  1  0
 25 50  1  0
 30 51  1  0
M  CHG  2  27   1  29  -1
M  END
>  <UniqueID>  (10) 
10

>  <SMILES>  (10) 
COc1ccccc1NS(=O)(=O)c1ccc(Nc2cc(C)cc(C)c2)c([N+](=O)[O-])c1

>  <Energy>  (10) 
64.02468199963978

>  <Genealogy>  (10) 
COc1ccccc1NS(=O)(=O)c1ccc(Nc2cc(C)cc(C)c2)c([N+](=O)[O-])c1 (3D coordinates assigned)
COc1ccccc1NS(=O)(=O)c1ccc(Nc2cc(C)cc(C)c2)c([N+](=O)[O-])c1 (optimized conformer: 64.02468199963978 kcal/mol)

>  <smiles>  (10) 
COc1ccccc1NS(=O)(=O)c1ccc(Nc2cc(C)cc(C)c2)c([N+](=O)[O-])c1

>  <score_type>  (10) 
oracle

>  <origin>  (10) 
adgpu

>  <m_score__min__energy>  (10) 
-10.99

>  <m_primary>  (10) 
energy

$$$$
10:0
     RDKit          3D

 30 32  0  0  0  0  0  0  0  0999 V2000
   -2.4127   23.2155  -26.4621 H   0  0  0  0  0  0  0  0  0  0  0  0
   -2.6400   23.6210  -27.4590 C   0  0  0  0  0  0  0  0  0  0  0  0
   -3.8940   23.1210  -28.4630 S   0  0  0  0  0  0  0  0  0  0  0  0
   -3.5050   24.2230  -29.6780 C   0  0  0  0  0  0  0  0  0  0  0  0
   -4.0910   24.3360  -30.8350 N   0  0  0  0  0  0  0  0  0  0  0  0
   -5.2620   23.6280  -31.2720 C   0  0  0  0  0  0  0  0  0  0  0  0
   -6.5250   24.1490  -30.9600 C   0  0  0  0  0  0  0  0  0  0  0  0
   -6.6043   25.1021  -30.4166 H   0  0  0  0  0  0  0  0  0  0  0  0
   -7.6840   23.4650  -31.3350 C   0  0  0  0  0  0  0  0  0  0  0  0
   -8.6718   23.8889  -31.1014 H   0  0  0  0  0  0  0  0  0  0  0  0
   -7.5900   22.2420  -32.0070 C   0  0  0  0  0  0  0  0  0  0  0  0
   -8.5034   21.7098  -32.3112 H   0  0  0  0  0  0  0  0  0  0  0  0
   -6.3350   21.6960  -32.2920 C   0  0  0  0  0  0  0  0  0  0  0  0
   -6.2060   20.0090  -33.1780 Br  0  0  0  0  0  0  0  0  0  0  0  0
   -5.1720   22.3800  -31.9160 C   0  0  0  0  0  0  0  0  0  0  0  0
   -4.1855   21.9404  -32.1247 H   0  0  0  0  0  0  0  0  0  0  0  0
   -2.4250   24.9590  -29.3420 N   0  0  0  0  0  0  0  0  0  0  0  0
   -2.0030   25.6720  -29.9770 H   0  0  0  0  0  0  0  0  0  0  0  0
   -1.9360   24.6400  -28.1080 C   0  0  0  0  0  0  0  0  0  0  0  0
   -0.7570   25.3220  -27.5170 C   0  0  0  0  0  0  0  0  0  0  0  0
   -0.8510   26.6550  -27.0750 C   0  0  0  0  0  0  0  0  0  0  0  0
   -1.8045   27.1955  -27.1682 H   0  0  0  0  0  0  0  0  0  0  0  0
    0.2600   27.2970  -26.5180 C   0  0  0  0  0  0  0  0  0  0  0  0
    0.1772   28.3392  -26.1761 H   0  0  0  0  0  0  0  0  0  0  0  0
    1.4740   26.6180  -26.3950 C   0  0  0  0  0  0  0  0  0  0  0  0
    2.5490   27.2430  -25.8560 F   0  0  0  0  0  0  0  0  0  0  0  0
    1.5800   25.2950  -26.8290 C   0  0  0  0  0  0  0  0  0  0  0  0
    2.5366   24.7605  -26.7329 H   0  0  0  0  0  0  0  0  0  0  0  0
    0.4710   24.6480  -27.3860 C   0  0  0  0  0  0  0  0  0  0  0  0
    0.5601   23.6050  -27.7238 H   0  0  0  0  0  0  0  0  0  0  0  0
  1  2  1  0
  2  3  1  0
  3  4  1  0
  4  5  2  0
  5  6  1  0
  6  7  2  0
  7  8  1  0
  7  9  1  0
  9 10  1  0
  9 11  2  0
 11 12  1  0
 11 13  1  0
 13 14  1  0
 13 15  2  0
 15 16  1  0
  4 17  1  0
 17 18  1  0
 17 19  1  0
 19 20  1  0
 20 21  2  0
 21 22  1  0
 21 23  1  0
 23 24  1  0
 23 25  2  0
 25 26  1  0
 25 27  1  0
 27 28  1  0
 27 29  2  0
 29 30  1  0
 19  2  2  0
 29 20  1  0
 15  6  1  0
M  END
>  <UniqueID>  (11) 
11

>  <SMILES>  (11) 
Fc1ccc(-c2cs/c(=N\c3cccc(Br)c3)[nH]2)cc1

>  <Energy>  (11) 
73.13675772284046

>  <Genealogy>  (11) 
Fc1ccc(-c2cs/c(=N\c3cccc(Br)c3)[nH]2)cc1 (cis-trans isomerization)
Fc1ccc(-c2cs/c(=N\c3cccc(Br)c3)[nH]2)cc1 (3D coordinates assigned)
Fc1ccc(-c2cs/c(=N\c3cccc(Br)c3)[nH]2)cc1 (optimized conformer: 73.13675772284046 kcal/mol)

>  <smiles>  (11) 
Fc1ccc(-c2csc(=Nc3cccc(Br)c3)[nH]2)cc1

>  <score_type>  (11) 
oracle

>  <origin>  (11) 
adgpu

>  <m_score__min__energy>  (11) 
-8.0800000000000001

>  <m_primary>  (11) 
energy

$$$$
11:0
     RDKit          3D

 67 70  0  0  1  0  0  0  0  0999 V2000
   -2.9120   25.3130  -25.7420 C   0  0  0  0  0  0  0  0  0  0  0  0
   -1.6980   24.5880  -25.7120 O   0  0  0  0  0  0  0  0  0  0  0  0
   -0.4670   25.1300  -25.9520 C   0  0  0  0  0  0  0  0  0  0  0  0
    0.5580   25.1170  -25.0230 C   0  0  0  0  0  0  0  0  0  0  0  0
    1.8010   25.6640  -25.2660 C   0  0  0  0  0  0  0  0  0  0  0  0
    2.8590   25.6530  -24.3140 N   0  0  0  0  0  0  0  0  0  0  0  0
    3.8340   24.6050  -24.2170 C   0  0  0  0  0  0  0  0  0  0  0  0
    5.1370   25.2340  -23.7380 C   0  0  0  0  0  0  0  0  0  0  0  0
    4.8860   25.6170  -22.3660 N   0  0  0  0  0  0  0  0  0  0  0  0
    4.6630   24.4480  -21.5280 C   0  0  0  0  0  0  0  0  0  0  0  0
    3.8340   26.5670  -22.2270 C   0  0  0  0  0  0  0  0  0  0  0  0
    2.9450   26.7650  -23.3960 C   0  0  0  0  0  0  0  0  0  0  0  0
    1.9820   26.2500  -26.5230 C   0  0  0  0  0  0  0  0  0  0  0  0
    0.9760   26.2790  -27.4670 C   0  0  0  0  0  0  0  0  0  0  0  0
   -0.2550   25.7200  -27.1900 C   0  0  0  0  0  0  0  0  0  0  0  0
   -1.2580   25.7750  -28.1980 N   0  0  0  0  0  0  0  0  0  0  0  0
   -1.7980   24.6870  -28.6380 C   0  0  0  0  0  0  0  0  0  0  0  0
   -1.3810   23.5250  -28.1160 N   0  0  0  0  0  0  0  0  0  0  0  0
   -1.9600   22.4040  -28.5920 C   0  0  0  0  0  0  0  0  0  0  0  0
   -2.9290   22.4110  -29.5610 C   0  0  0  0  0  0  0  0  0  0  0  0
   -3.6520   20.9430  -30.1490 Cl  0  0  0  0  0  0  0  0  0  0  0  0
   -3.3390   23.6080  -30.0810 C   0  0  0  0  0  0  0  0  0  0  0  0
   -4.2220   23.7790  -30.9790 N   0  0  0  0  0  0  0  0  0  0  0  0
   -4.9040   22.6900  -31.5600 C   0  0  0  0  0  0  0  0  0  0  0  0
   -6.1860   22.3460  -31.1090 C   0  0  0  0  0  0  0  0  0  0  0  0
   -6.7600   23.0400  -30.0860 F   0  0  0  0  0  0  0  0  0  0  0  0
   -6.8830   21.2880  -31.7050 C   0  0  0  0  0  0  0  0  0  0  0  0
   -6.2900   20.5780  -32.7550 C   0  0  0  0  0  0  0  0  0  0  0  0
   -7.0550   19.5170  -33.3140 N   0  0  0  0  0  0  0  0  0  0  0  0
   -7.5100   18.1080  -32.4490 S   0  0  0  0  0  0  0  0  0  0  0  0
   -9.0630   18.2440  -31.6330 C   0  0  0  0  0  0  0  0  0  0  0  0
   -6.4510   17.8190  -31.4220 O   0  0  0  0  0  0  0  0  0  0  0  0
   -7.5900   16.9790  -33.4550 O   0  0  0  0  0  0  0  0  0  0  0  0
   -5.0230   20.9100  -33.2100 C   0  0  0  0  0  0  0  0  0  0  0  0
   -4.3510   21.9560  -32.6090 C   0  0  0  0  0  0  0  0  0  0  0  0
   -3.0800   22.3430  -33.0120 O   0  0  0  0  0  0  0  0  0  0  0  0
   -2.1620   21.3270  -33.3840 C   0  0  0  0  0  0  0  0  0  0  0  0
   -2.7450   24.7360  -29.5900 N   0  0  0  0  0  0  0  0  0  0  0  0
   -3.2456   25.5122  -24.7129 H   0  0  0  0  0  0  0  0  0  0  0  0
   -2.7568   26.2664  -26.2682 H   0  0  0  0  0  0  0  0  0  0  0  0
   -3.6778   24.7242  -26.2682 H   0  0  0  0  0  0  0  0  0  0  0  0
    0.3733   24.6487  -24.0450 H   0  0  0  0  0  0  0  0  0  0  0  0
    3.4974   23.8444  -23.4972 H   0  0  0  0  0  0  0  0  0  0  0  0
    3.9755   24.1161  -25.1922 H   0  0  0  0  0  0  0  0  0  0  0  0
    5.9602   24.5064  -23.7918 H   0  0  0  0  0  0  0  0  0  0  0  0
    5.4340   26.0922  -24.3587 H   0  0  0  0  0  0  0  0  0  0  0  0
    4.7187   24.7400  -20.4689 H   0  0  0  0  0  0  0  0  0  0  0  0
    3.6686   24.0285  -21.7409 H   0  0  0  0  0  0  0  0  0  0  0  0
    5.4331   23.6920  -21.7409 H   0  0  0  0  0  0  0  0  0  0  0  0
    3.2057   26.2447  -21.3836 H   0  0  0  0  0  0  0  0  0  0  0  0
    4.3399   27.5337  -22.0870 H   0  0  0  0  0  0  0  0  0  0  0  0
    1.9323   26.9711  -23.0192 H   0  0  0  0  0  0  0  0  0  0  0  0
    3.3851   27.5938  -23.9699 H   0  0  0  0  0  0  0  0  0  0  0  0
    2.9553   26.7012  -26.7663 H   0  0  0  0  0  0  0  0  0  0  0  0
    1.1560   26.7498  -28.4447 H   0  0  0  0  0  0  0  0  0  0  0  0
   -0.6390   23.5030  -27.3720 H   0  0  0  0  0  0  0  0  0  0  0  0
   -1.6383   21.4353  -28.1819 H   0  0  0  0  0  0  0  0  0  0  0  0
   -7.8885   21.0171  -31.3508 H   0  0  0  0  0  0  0  0  0  0  0  0
   -7.3370   19.6560  -34.3310 H   0  0  0  0  0  0  0  0  0  0  0  0
   -8.9075   18.2304  -30.5441 H   0  0  0  0  0  0  0  0  0  0  0  0
   -9.5478   19.1880  -31.9224 H   0  0  0  0  0  0  0  0  0  0  0  0
   -9.7045   17.3986  -31.9224 H   0  0  0  0  0  0  0  0  0  0  0  0
   -4.5608   20.3495  -34.0360 H   0  0  0  0  0  0  0  0  0  0  0  0
   -1.7425   20.8627  -32.4793 H   0  0  0  0  0  0  0  0  0  0  0  0
   -2.6823   20.5632  -33.9805 H   0  0  0  0  0  0  0  0  0  0  0  0
   -1.3495   21.7675  -33.9805 H   0  0  0  0  0  0  0  0  0  0  0  0
   -3.0180   25.6670  -29.9480 H   0  0  0  0  0  0  0  0  0  0  0  0
  1  2  1  0
  2  3  1  0
  3  4  2  0
  4  5  1  0
  5  6  1  0
  6  7  1  0
  7  8  1  0
  8  9  1  0
  9 10  1  0
  9 11  1  0
 11 12  1  0
  5 13  2  0
 13 14  1  0
 14 15  2  0
 15 16  1  0
 16 17  2  0
 17 18  1  0
 18 19  1  0
 19 20  2  0
 20 21  1  0
 20 22  1  0
 22 23  2  0
 23 24  1  0
 24 25  2  0
 25 26  1  0
 25 27  1  0
 27 28  2  0
 28 29  1  0
 29 30  1  0
 30 31  1  0
 30 32  2  0
 30 33  2  0
 28 34  1  0
 34 35  2  0
 35 36  1  0
 36 37  1  0
 22 38  1  0
 15  3  1  0
 38 17  1  0
 12  6  1  0
 35 24  1  0
  1 39  1  0
  1 40  1  0
  1 41  1  0
  4 42  1  0
  7 43  1  0
  7 44  1  0
  8 45  1  0
  8 46  1  0
 10 47  1  0
 10 48  1  0
 10 49  1  0
 11 50  1  0
 11 51  1  0
 12 52  1  0
 12 53  1  0
 13 54  1  0
 14 55  1  0
 18 56  1  0
 19 57  1  0
 27 58  1  0
 29 59  1  0
 31 60  1  0
 31 61  1  0
 31 62  1  0
 34 63  1  0
 37 64  1  0
 37 65  1  0
 37 66  1  0
 38 67  1  0
M  END
>  <smiles>  (12) 
COc1cc(N2CCN(C)CC2)ccc1N=c1[nH]cc(Cl)c(=Nc2c(F)cc(NS(C)(=O)=O)cc2OC)[nH]1

>  <score_type>  (12) 
oracle

>  <origin>  (12) 
adgpu

>  <m_score__min__energy>  (12) 
-9.2599999999999998

>  <m_primary>  (12) 
energy

$$$$
12:0
     RDKit          3D

 51 54  0  0  0  0  0  0  0  0999 V2000
   -0.7190   27.7910  -25.0260 C   0  0  0  0  0  0  0  0  0  0  0  0
   -1.2530   26.8040  -26.0220 C   0  0  0  0  0  0  0  0  0  0  0  0
   -2.2450   25.8870  -25.6460 C   0  0  0  0  0  0  0  0  0  0  0  0
   -2.7180   24.9420  -26.5630 C   0  0  0  0  0  0  0  0  0  0  0  0
   -2.2030   24.9040  -27.8720 C   0  0  0  0  0  0  0  0  0  0  0  0
   -2.6530   23.9270  -28.8260 N   0  0  0  0  0  0  0  0  0  0  0  0
   -1.8250   22.8640  -29.3350 C   0  0  0  0  0  0  0  0  0  0  0  0
   -0.6550   22.7080  -28.8880 O   0  0  0  0  0  0  0  0  0  0  0  0
   -2.3230   21.9330  -30.3770 C   0  0  0  0  0  0  0  0  0  0  0  0
   -1.7970   21.9390  -31.6820 C   0  0  0  0  0  0  0  0  0  0  0  0
   -2.2880   21.0570  -32.6490 C   0  0  0  0  0  0  0  0  0  0  0  0
   -3.3110   20.1520  -32.3300 C   0  0  0  0  0  0  0  0  0  0  0  0
   -3.8630   19.2350  -33.3820 C   0  0  0  0  0  0  0  0  0  0  0  0
   -4.9540   18.4520  -32.8110 N   0  0  0  0  0  0  0  0  0  0  0  0
   -6.4620   18.9350  -33.5230 S   0  0  0  0  0  0  0  0  0  0  0  0
   -6.2480   19.3100  -34.9640 O   0  0  0  0  0  0  0  0  0  0  0  0
   -7.4240   17.7820  -33.4690 O   0  0  0  0  0  0  0  0  0  0  0  0
   -7.1440   20.2930  -32.6320 C   0  0  0  0  0  0  0  0  0  0  0  0
   -8.5210   20.3590  -32.3820 C   0  0  0  0  0  0  0  0  0  0  0  0
   -9.0540   21.4500  -31.6930 C   0  0  0  0  0  0  0  0  0  0  0  0
   -8.2200   22.4800  -31.2540 C   0  0  0  0  0  0  0  0  0  0  0  0
   -6.8360   22.4350  -31.5020 C   0  0  0  0  0  0  0  0  0  0  0  0
   -5.9880   23.5100  -31.0480 N   0  0  0  0  0  0  0  0  0  0  0  0
   -6.2340   24.4470  -30.1120 C   0  0  0  0  0  0  0  0  0  0  0  0
   -5.1740   25.2680  -30.0010 N   0  0  0  0  0  0  0  0  0  0  0  0
   -4.2870   24.8170  -30.8760 N   0  0  0  0  0  0  0  0  0  0  0  0
   -4.7740   23.7600  -31.5070 N   0  0  0  0  0  0  0  0  0  0  0  0
   -6.3070   21.3310  -32.1990 C   0  0  0  0  0  0  0  0  0  0  0  0
   -3.8590   20.1630  -31.0400 C   0  0  0  0  0  0  0  0  0  0  0  0
   -3.3690   21.0440  -30.0720 C   0  0  0  0  0  0  0  0  0  0  0  0
   -1.1800   25.7930  -28.2300 C   0  0  0  0  0  0  0  0  0  0  0  0
   -0.7080   26.7390  -27.3130 C   0  0  0  0  0  0  0  0  0  0  0  0
   -0.9161   27.4267  -24.0070 H   0  0  0  0  0  0  0  0  0  0  0  0
    0.3652   27.9076  -25.1704 H   0  0  0  0  0  0  0  0  0  0  0  0
   -1.2147   28.7623  -25.1704 H   0  0  0  0  0  0  0  0  0  0  0  0
   -2.6534   25.9107  -24.6249 H   0  0  0  0  0  0  0  0  0  0  0  0
   -3.4957   24.2258  -26.2594 H   0  0  0  0  0  0  0  0  0  0  0  0
   -3.6560   23.9750  -29.1100 H   0  0  0  0  0  0  0  0  0  0  0  0
   -0.9933   22.6431  -31.9433 H   0  0  0  0  0  0  0  0  0  0  0  0
   -1.8696   21.0728  -33.6662 H   0  0  0  0  0  0  0  0  0  0  0  0
   -4.2399   19.8294  -34.2274 H   0  0  0  0  0  0  0  0  0  0  0  0
   -3.0702   18.5603  -33.7373 H   0  0  0  0  0  0  0  0  0  0  0  0
   -9.1822   19.5511  -32.7286 H   0  0  0  0  0  0  0  0  0  0  0  0
  -10.1350   21.4983  -31.4953 H   0  0  0  0  0  0  0  0  0  0  0  0
   -8.6488   23.3342  -30.7095 H   0  0  0  0  0  0  0  0  0  0  0  0
   -7.1617   24.5286  -29.5266 H   0  0  0  0  0  0  0  0  0  0  0  0
   -5.2276   21.2829  -32.4054 H   0  0  0  0  0  0  0  0  0  0  0  0
   -4.6791   19.4745  -30.7881 H   0  0  0  0  0  0  0  0  0  0  0  0
   -3.8055   21.0420  -29.0623 H   0  0  0  0  0  0  0  0  0  0  0  0
   -0.7450   25.7467  -29.2393 H   0  0  0  0  0  0  0  0  0  0  0  0
    0.0930   27.4339  -27.6055 H   0  0  0  0  0  0  0  0  0  0  0  0
  1  2  1  0
  2  3  2  0
  3  4  1  0
  4  5  2  0
  5  6  1  0
  6  7  1  0
  7  8  2  0
  7  9  1  0
  9 10  2  0
 10 11  1  0
 11 12  2  0
 12 13  1  0
 13 14  1  0
 14 15  1  0
 15 16  2  0
 15 17  2  0
 15 18  1  0
 18 19  2  0
 19 20  1  0
 20 21  2  0
 21 22  1  0
 22 23  1  0
 23 24  1  0
 24 25  2  0
 25 26  1  0
 26 27  2  0
 22 28  2  0
 12 29  1  0
 29 30  2  0
  5 31  1  0
 31 32  2  0
 32  2  1  0
 30  9  1  0
 28 18  1  0
 27 23  1  0
  1 33  1  0
  1 34  1  0
  1 35  1  0
  3 36  1  0
  4 37  1  0
  6 38  1  0
 10 39  1  0
 11 40  1  0
 13 41  1  0
 13 42  1  0
 19 43  1  0
 20 44  1  0
 21 45  1  0
 24 46  1  0
 28 47  1  0
 29 48  1  0
 30 49  1  0
 31 50  1  0
 32 51  1  0
M  CHG  1  14  -1
M  END
>  <UniqueID>  (13) 
12

>  <SMILES>  (13) 
Cc1ccc(NC(=O)c2ccc(C[N-]S(=O)(=O)c3cccc(-n4cnnn4)c3)cc2)cc1

>  <Energy>  (13) 
101.08780089940227

>  <Genealogy>  (13) 
Cc1ccc(NC(=O)c2ccc(C[N-]S(=O)(=O)c3cccc(-n4cnnn4)c3)cc2)cc1 (protonated)
Cc1ccc(NC(=O)c2ccc(C[N-]S(=O)(=O)c3cccc(-n4cnnn4)c3)cc2)cc1 (3D coordinates assigned)
Cc1ccc(NC(=O)c2ccc(C[N-]S(=O)(=O)c3cccc(-n4cnnn4)c3)cc2)cc1 (optimized conformer: 101.08780089940227 kcal/mol)

>  <smiles>  (13) 
Cc1ccc(NC(=O)c2ccc(CNS(=O)(=O)c3cccc(-n4cnnn4)c3)cc2)cc1

>  <score_type>  (13) 
oracle

>  <origin>  (13) 
adgpu

>  <m_score__min__energy>  (13) 
-10.380000000000001

>  <m_primary>  (13) 
energy

$$$$
13:0
     RDKit          3D

 44 46  0  0  0  0  0  0  0  0999 V2000
   -1.0940   20.3300  -34.2410 C   0  0  0  0  0  0  0  0  0  0  0  0
   -1.5890   21.5230  -33.6280 O   0  0  0  0  0  0  0  0  0  0  0  0
   -2.2010   21.5720  -32.3630 C   0  0  0  0  0  0  0  0  0  0  0  0
   -1.5090   22.0320  -31.2220 C   0  0  0  0  0  0  0  0  0  0  0  0
   -2.1460   22.0840  -29.9800 C   0  0  0  0  0  0  0  0  0  0  0  0
   -3.4730   21.6740  -29.8560 C   0  0  0  0  0  0  0  0  0  0  0  0
   -4.1710   21.2120  -30.9760 C   0  0  0  0  0  0  0  0  0  0  0  0
   -3.5460   21.1600  -32.2390 C   0  0  0  0  0  0  0  0  0  0  0  0
   -4.2650   20.7010  -33.4010 N   0  0  0  0  0  0  0  0  0  0  0  0
   -4.9860   19.1250  -33.5120 S   0  0  0  0  0  0  0  0  0  0  0  0
   -5.1460   18.7560  -34.9610 O   0  0  0  0  0  0  0  0  0  0  0  0
   -4.0850   18.1230  -32.8450 O   0  0  0  0  0  0  0  0  0  0  0  0
   -6.5770   19.1310  -32.7550 C   0  0  0  0  0  0  0  0  0  0  0  0
   -7.2850   17.9360  -32.5880 C   0  0  0  0  0  0  0  0  0  0  0  0
   -8.5490   17.9490  -31.9940 C   0  0  0  0  0  0  0  0  0  0  0  0
   -9.1160   19.1540  -31.5710 C   0  0  0  0  0  0  0  0  0  0  0  0
   -8.4270   20.3660  -31.7510 C   0  0  0  0  0  0  0  0  0  0  0  0
   -9.0390   21.6440  -31.3080 C   0  0  0  0  0  0  0  0  0  0  0  0
   -9.9780   21.6190  -30.4680 O   0  0  0  0  0  0  0  0  0  0  0  0
   -8.5640   22.9200  -31.7600 N   0  0  0  0  0  0  0  0  0  0  0  0
   -7.3070   23.5310  -31.4320 C   0  0  0  0  0  0  0  0  0  0  0  0
   -7.1810   24.2120  -30.2170 C   0  0  0  0  0  0  0  0  0  0  0  0
   -5.9690   24.8170  -29.8750 C   0  0  0  0  0  0  0  0  0  0  0  0
   -4.8910   24.7500  -30.7700 C   0  0  0  0  0  0  0  0  0  0  0  0
   -3.7550   25.3020  -30.4840 N   0  0  0  0  0  0  0  0  0  0  0  0
   -5.0400   24.1000  -31.9570 N   0  0  0  0  0  0  0  0  0  0  0  0
   -6.2090   23.4980  -32.3070 C   0  0  0  0  0  0  0  0  0  0  0  0
   -7.1450   20.3410  -32.3300 C   0  0  0  0  0  0  0  0  0  0  0  0
   -0.7966   19.6133  -33.4613 H   0  0  0  0  0  0  0  0  0  0  0  0
   -1.8818   19.8852  -34.8667 H   0  0  0  0  0  0  0  0  0  0  0  0
   -0.2227   20.5736  -34.8667 H   0  0  0  0  0  0  0  0  0  0  0  0
   -0.4604   22.3519  -31.3116 H   0  0  0  0  0  0  0  0  0  0  0  0
   -1.5997   22.4492  -29.0979 H   0  0  0  0  0  0  0  0  0  0  0  0
   -3.9712   21.7141  -28.8761 H   0  0  0  0  0  0  0  0  0  0  0  0
   -5.2164   20.8864  -30.8710 H   0  0  0  0  0  0  0  0  0  0  0  0
   -4.4910   21.3710  -34.1680 H   0  0  0  0  0  0  0  0  0  0  0  0
   -6.8458   16.9854  -32.9248 H   0  0  0  0  0  0  0  0  0  0  0  0
   -9.1004   17.0068  -31.8586 H   0  0  0  0  0  0  0  0  0  0  0  0
  -10.1074   19.1542  -31.0943 H   0  0  0  0  0  0  0  0  0  0  0  0
   -8.0376   24.2714  -29.5295 H   0  0  0  0  0  0  0  0  0  0  0  0
   -5.8612   25.3406  -28.9136 H   0  0  0  0  0  0  0  0  0  0  0  0
   -3.5870   25.8130  -29.5880 H   0  0  0  0  0  0  0  0  0  0  0  0
   -6.2941   22.9850  -33.2763 H   0  0  0  0  0  0  0  0  0  0  0  0
   -6.5830   21.2789  -32.4505 H   0  0  0  0  0  0  0  0  0  0  0  0
  1  2  1  0
  2  3  1  0
  3  4  2  0
  4  5  1  0
  5  6  2  0
  6  7  1  0
  7  8  2  0
  8  9  1  0
  9 10  1  0
 10 11  2  0
 10 12  2  0
 10 13  1  0
 13 14  2  0
 14 15  1  0
 15 16  2  0
 16 17  1  0
 17 18  1  0
 18 19  2  0
 18 20  1  0
 20 21  1  0
 21 22  1  0
 22 23  2  0
 23 24  1  0
 24 25  2  3
 24 26  1  0
 26 27  1  0
 17 28  2  0
  8  3  1  0
 28 13  1  0
 27 21  2  0
  1 29  1  0
  1 30  1  0
  1 31  1  0
  4 32  1  0
  5 33  1  0
  6 34  1  0
  7 35  1  0
  9 36  1  0
 14 37  1  0
 15 38  1  0
 16 39  1  0
 22 40  1  0
 23 41  1  0
 25 42  1  0
 27 43  1  0
 28 44  1  0
M  CHG  2  20  -1  26  -1
M  END
>  <UniqueID>  (14) 
13

>  <SMILES>  (14) 
COc1ccccc1NS(=O)(=O)c1cccc(C(=O)[N-]c2ccc(=N)[n-]c2)c1

>  <Energy>  (14) 
56.41951494150852

>  <Genealogy>  (14) 
COc1ccccc1NS(=O)(=O)c1cccc(C(=O)[N-]c2ccc(=N)[n-]c2)c1 (protonated)
COc1ccccc1NS(=O)(=O)c1cccc(C(=O)[N-]c2ccc(=N)[n-]c2)c1 (3D coordinates assigned)
COc1ccccc1NS(=O)(=O)c1cccc(C(=O)[N-]c2ccc(=N)[n-]c2)c1 (optimized conformer: 56.41951494150852 kcal/mol)

>  <smiles>  (14) 
COc1ccccc1NS(=O)(=O)c1cccc(C(=O)Nc2ccc(=N)[nH]c2)c1

>  <score_type>  (14) 
oracle

>  <origin>  (14) 
adgpu

>  <m_score__min__energy>  (14) 
-11.23

>  <m_primary>  (14) 
energy

$$$$
14:0
     RDKit          3D

 50 52  0  0  0  0  0  0  0  0999 V2000
   -8.8190   22.0090  -31.1650 C   0  0  0  0  0  0  0  0  0  0  0  0
   -8.2680   23.2440  -31.6070 O   0  0  0  0  0  0  0  0  0  0  0  0
   -6.9850   23.6680  -31.2450 C   0  0  0  0  0  0  0  0  0  0  0  0
   -6.8350   24.7100  -30.3260 C   0  0  0  0  0  0  0  0  0  0  0  0
   -5.5510   25.1220  -29.9580 C   0  0  0  0  0  0  0  0  0  0  0  0
   -4.4280   24.4750  -30.4830 C   0  0  0  0  0  0  0  0  0  0  0  0
   -3.1210   24.9120  -30.0880 N   0  0  0  0  0  0  0  0  0  0  0  0
   -2.4450   24.5420  -28.8780 C   0  0  0  0  0  0  0  0  0  0  0  0
   -3.0130   24.6680  -27.7620 O   0  0  0  0  0  0  0  0  0  0  0  0
   -1.0310   24.0500  -28.9400 C   0  0  0  0  0  0  0  0  0  0  0  0
   -0.9870   22.5850  -29.0290 N   0  0  0  0  0  0  0  0  0  0  0  0
   -1.7590   21.8790  -30.0220 C   0  0  0  0  0  0  0  0  0  0  0  0
   -1.3600   21.8720  -31.3690 C   0  0  0  0  0  0  0  0  0  0  0  0
   -2.1160   21.1930  -32.3280 C   0  0  0  0  0  0  0  0  0  0  0  0
   -3.2910   20.5270  -31.9660 C   0  0  0  0  0  0  0  0  0  0  0  0
   -4.0070   19.8400  -32.9580 O   0  0  0  0  0  0  0  0  0  0  0  0
   -5.3370   19.4040  -32.8610 C   0  0  0  0  0  0  0  0  0  0  0  0
   -5.5830   18.0820  -32.4690 C   0  0  0  0  0  0  0  0  0  0  0  0
   -6.8920   17.6030  -32.3790 C   0  0  0  0  0  0  0  0  0  0  0  0
   -7.9680   18.4410  -32.6840 C   0  0  0  0  0  0  0  0  0  0  0  0
   -7.7340   19.7550  -33.0950 C   0  0  0  0  0  0  0  0  0  0  0  0
   -6.4240   20.2350  -33.1940 C   0  0  0  0  0  0  0  0  0  0  0  0
   -3.6900   20.5230  -30.6180 C   0  0  0  0  0  0  0  0  0  0  0  0
   -2.9390   21.2080  -29.6590 C   0  0  0  0  0  0  0  0  0  0  0  0
    0.0270   21.6980  -27.9230 S   0  0  0  0  0  0  0  0  0  0  0  0
    0.5790   20.1770  -28.6710 C   0  0  0  0  0  0  0  0  0  0  0  0
   -0.7360   21.3990  -26.6630 O   0  0  0  0  0  0  0  0  0  0  0  0
    1.2460   22.5100  -27.5830 O   0  0  0  0  0  0  0  0  0  0  0  0
   -4.6190   23.4470  -31.4200 C   0  0  0  0  0  0  0  0  0  0  0  0
   -5.8800   23.0720  -31.7740 N   0  0  0  0  0  0  0  0  0  0  0  0
   -8.8297   21.9850  -30.0653 H   0  0  0  0  0  0  0  0  0  0  0  0
   -9.8469   21.9095  -31.5440 H   0  0  0  0  0  0  0  0  0  0  0  0
   -8.2064   21.1777  -31.5440 H   0  0  0  0  0  0  0  0  0  0  0  0
   -7.7199   25.2018  -29.8958 H   0  0  0  0  0  0  0  0  0  0  0  0
   -5.4236   25.9573  -29.2537 H   0  0  0  0  0  0  0  0  0  0  0  0
   -0.5393   24.4791  -29.8255 H   0  0  0  0  0  0  0  0  0  0  0  0
   -0.5111   24.3611  -28.0219 H   0  0  0  0  0  0  0  0  0  0  0  0
   -0.4461   22.4047  -31.6708 H   0  0  0  0  0  0  0  0  0  0  0  0
   -1.7840   21.1823  -33.3767 H   0  0  0  0  0  0  0  0  0  0  0  0
   -4.7400   17.4168  -32.2305 H   0  0  0  0  0  0  0  0  0  0  0  0
   -7.0763   16.5643  -32.0675 H   0  0  0  0  0  0  0  0  0  0  0  0
   -8.9987   18.0658  -32.6004 H   0  0  0  0  0  0  0  0  0  0  0  0
   -8.5805   20.4129  -33.3410 H   0  0  0  0  0  0  0  0  0  0  0  0
   -6.2422   21.2655  -33.5332 H   0  0  0  0  0  0  0  0  0  0  0  0
   -4.5971   19.9784  -30.3169 H   0  0  0  0  0  0  0  0  0  0  0  0
   -3.2743   21.2220  -28.6115 H   0  0  0  0  0  0  0  0  0  0  0  0
    0.8410   19.4551  -27.8835 H   0  0  0  0  0  0  0  0  0  0  0  0
   -0.2260   19.7623  -29.2955 H   0  0  0  0  0  0  0  0  0  0  0  0
    1.4626   20.3751  -29.2955 H   0  0  0  0  0  0  0  0  0  0  0  0
   -3.7497   22.9439  -31.8687 H   0  0  0  0  0  0  0  0  0  0  0  0
  1  2  1  0
  2  3  1  0
  3  4  2  0
  4  5  1  0
  5  6  2  0
  6  7  1  0
  7  8  1  0
  8  9  2  0
  8 10  1  0
 10 11  1  0
 11 12  1  0
 12 13  2  0
 13 14  1  0
 14 15  2  0
 15 16  1  0
 16 17  1  0
 17 18  2  0
 18 19  1  0
 19 20  2  0
 20 21  1  0
 21 22  2  0
 15 23  1  0
 23 24  2  0
 11 25  1  0
 25 26  1  0
 25 27  2  0
 25 28  2  0
  6 29  1  0
 29 30  2  0
 30  3  1  0
 24 12  1  0
 22 17  1  0
  1 31  1  0
  1 32  1  0
  1 33  1  0
  4 34  1  0
  5 35  1  0
 10 36  1  0
 10 37  1  0
 13 38  1  0
 14 39  1  0
 18 40  1  0
 19 41  1  0
 20 42  1  0
 21 43  1  0
 22 44  1  0
 23 45  1  0
 24 46  1  0
 26 47  1  0
 26 48  1  0
 26 49  1  0
 29 50  1  0
M  CHG  1   7  -1
M  END
>  <UniqueID>  (15) 
14

>  <SMILES>  (15) 
COc1ccc([N-]C(=O)CN(c2ccc(Oc3ccccc3)cc2)S(C)(=O)=O)cn1

>  <Energy>  (15) 
60.61504600903017

>  <Genealogy>  (15) 
COc1ccc([N-]C(=O)CN(c2ccc(Oc3ccccc3)cc2)S(C)(=O)=O)cn1 (protonated)
COc1ccc([N-]C(=O)CN(c2ccc(Oc3ccccc3)cc2)S(C)(=O)=O)cn1 (3D coordinates assigned)
COc1ccc([N-]C(=O)CN(c2ccc(Oc3ccccc3)cc2)S(C)(=O)=O)cn1 (optimized conformer: 60.61504600903017 kcal/mol)

>  <smiles>  (15) 
COc1ccc(NC(=O)CN(c2ccc(Oc3ccccc3)cc2)S(C)(=O)=O)cn1

>  <score_type>  (15) 
oracle

>  <origin>  (15) 
adgpu

>  <m_score__min__energy>  (15) 
-9.8800000000000008

>  <m_primary>  (15) 
energy

$$$$
15:0
     RDKit          3D

 48 49  0  0  0  0  0  0  0  0999 V2000
   -4.5750   14.3150  -31.8800 C   0  0  0  0  0  0  0  0  0  0  0  0
   -4.1970   14.7450  -33.6070 S   0  0  0  0  0  0  0  0  0  0  0  0
   -5.0920   16.2990  -33.5420 C   0  0  0  0  0  0  0  0  0  0  0  0
   -5.8910   16.6030  -32.4340 C   0  0  0  0  0  0  0  0  0  0  0  0
   -6.5860   17.8140  -32.3820 C   0  0  0  0  0  0  0  0  0  0  0  0
   -6.4810   18.7410  -33.4300 C   0  0  0  0  0  0  0  0  0  0  0  0
   -7.2230   19.9710  -33.3640 N   0  0  0  0  0  0  0  0  0  0  0  0
   -6.7760   21.1380  -32.6530 C   0  0  0  0  0  0  0  0  0  0  0  0
   -5.4260   21.5200  -32.7300 C   0  0  0  0  0  0  0  0  0  0  0  0
   -4.9510   22.6050  -31.9950 C   0  0  0  0  0  0  0  0  0  0  0  0
   -5.8120   23.3180  -31.1580 C   0  0  0  0  0  0  0  0  0  0  0  0
   -5.2050   24.7150  -30.2670 S   0  0  0  0  0  0  0  0  0  0  0  0
   -5.9150   25.9640  -30.7100 O   0  0  0  0  0  0  0  0  0  0  0  0
   -5.4940   24.5040  -28.8080 O   0  0  0  0  0  0  0  0  0  0  0  0
   -3.4890   24.9340  -30.4700 N   0  0  0  0  0  0  0  0  0  0  0  0
   -2.7170   24.5390  -29.2880 C   0  0  0  0  0  0  0  0  0  0  0  0
   -1.7530   23.3780  -29.5870 C   0  0  0  0  0  0  0  0  0  0  0  0
   -2.4440   22.2650  -30.2750 N   0  0  0  0  0  0  0  0  0  0  0  0
   -3.0470   21.3320  -29.3050 C   0  0  0  0  0  0  0  0  0  0  0  0
   -1.5030   21.5300  -31.1340 C   0  0  0  0  0  0  0  0  0  0  0  0
   -7.1530   22.9280  -31.0490 C   0  0  0  0  0  0  0  0  0  0  0  0
   -7.6530   21.8490  -31.8000 C   0  0  0  0  0  0  0  0  0  0  0  0
   -9.0520   21.5200  -31.7130 N   0  0  0  0  0  0  0  0  0  0  0  0
   -9.7350   21.8890  -30.7350 O   0  0  0  0  0  0  0  0  0  0  0  0
   -9.6180   20.6600  -32.6260 O   0  0  0  0  0  0  0  0  0  0  0  0
   -5.6860   18.4230  -34.5480 C   0  0  0  0  0  0  0  0  0  0  0  0
   -4.9910   17.2100  -34.5980 C   0  0  0  0  0  0  0  0  0  0  0  0
   -4.0012   14.9677  -31.2056 H   0  0  0  0  0  0  0  0  0  0  0  0
   -5.6507   14.4517  -31.6951 H   0  0  0  0  0  0  0  0  0  0  0  0
   -4.3016   13.2657  -31.6951 H   0  0  0  0  0  0  0  0  0  0  0  0
   -5.9720   15.8873  -31.6026 H   0  0  0  0  0  0  0  0  0  0  0  0
   -7.2203   18.0424  -31.5128 H   0  0  0  0  0  0  0  0  0  0  0  0
   -8.1580   20.0130  -33.8280 H   0  0  0  0  0  0  0  0  0  0  0  0
   -4.7370   20.9571  -33.3769 H   0  0  0  0  0  0  0  0  0  0  0  0
   -3.8944   22.9006  -32.0745 H   0  0  0  0  0  0  0  0  0  0  0  0
   -2.1332   25.4041  -28.9405 H   0  0  0  0  0  0  0  0  0  0  0  0
   -3.4261   24.2004  -28.5183 H   0  0  0  0  0  0  0  0  0  0  0  0
   -0.9390   23.7453  -30.2293 H   0  0  0  0  0  0  0  0  0  0  0  0
   -1.3577   23.0020  -28.6318 H   0  0  0  0  0  0  0  0  0  0  0  0
   -2.8267   21.6729  -28.2826 H   0  0  0  0  0  0  0  0  0  0  0  0
   -4.1364   21.3011  -29.4544 H   0  0  0  0  0  0  0  0  0  0  0  0
   -2.6277   20.3261  -29.4544 H   0  0  0  0  0  0  0  0  0  0  0  0
   -0.7911   20.9740  -30.5063 H   0  0  0  0  0  0  0  0  0  0  0  0
   -2.0599   20.8254  -31.7691 H   0  0  0  0  0  0  0  0  0  0  0  0
   -0.9542   22.2410  -31.7691 H   0  0  0  0  0  0  0  0  0  0  0  0
   -7.8233   23.4724  -30.3676 H   0  0  0  0  0  0  0  0  0  0  0  0
   -5.6112   19.1317  -35.3859 H   0  0  0  0  0  0  0  0  0  0  0  0
   -4.3638   16.9723  -35.4698 H   0  0  0  0  0  0  0  0  0  0  0  0
  1  2  1  0
  2  3  1  0
  3  4  2  0
  4  5  1  0
  5  6  2  0
  6  7  1  0
  7  8  1  0
  8  9  2  0
  9 10  1  0
 10 11  2  0
 11 12  1  0
 12 13  2  0
 12 14  2  0
 12 15  1  0
 15 16  1  0
 16 17  1  0
 17 18  1  0
 18 19  1  0
 18 20  1  0
 11 21  1  0
 21 22  2  0
 22 23  1  0
 23 24  2  0
 23 25  1  0
  6 26  1  0
 26 27  2  0
 27  3  1  0
 22  8  1  0
  1 28  1  0
  1 29  1  0
  1 30  1  0
  4 31  1  0
  5 32  1  0
  7 33  1  0
  9 34  1  0
 10 35  1  0
 16 36  1  0
 16 37  1  0
 17 38  1  0
 17 39  1  0
 19 40  1  0
 19 41  1  0
 19 42  1  0
 20 43  1  0
 20 44  1  0
 20 45  1  0
 21 46  1  0
 26 47  1  0
 27 48  1  0
M  CHG  3  15  -1  23   1  25  -1
M  END
>  <UniqueID>  (16) 
15

>  <SMILES>  (16) 
CSc1ccc(Nc2ccc(S(=O)(=O)[N-]CCN(C)C)cc2[N+](=O)[O-])cc1

>  <Energy>  (16) 
51.820070987330325

>  <Genealogy>  (16) 
CSc1ccc(Nc2ccc(S(=O)(=O)[N-]CCN(C)C)cc2[N+](=O)[O-])cc1 (protonated)
CSc1ccc(Nc2ccc(S(=O)(=O)[N-]CCN(C)C)cc2[N+](=O)[O-])cc1 (3D coordinates assigned)
CSc1ccc(Nc2ccc(S(=O)(=O)[N-]CCN(C)C)cc2[N+](=O)[O-])cc1 (optimized conformer: 51.820070987330325 kcal/mol)

>  <smiles>  (16) 
CSc1ccc(Nc2ccc(S(=O)(=O)NCCN(C)C)cc2[N+](=O)[O-])cc1

>  <score_type>  (16) 
oracle

>  <origin>  (16) 
adgpu

>  <m_score__min__energy>  (16) 
-10.66

>  <m_primary>  (16) 
energy

$$$$
16:0
     RDKit          3D

 38 40  0  0  0  0  0  0  0  0999 V2000
   -6.1230   18.0190  -33.8990 C   0  0  0  0  0  0  0  0  0  0  0  0
   -7.2330   18.3680  -33.0790 O   0  0  0  0  0  0  0  0  0  0  0  0
   -7.4590   19.6460  -32.5460 C   0  0  0  0  0  0  0  0  0  0  0  0
   -6.4070   20.4740  -32.1040 C   0  0  0  0  0  0  0  0  0  0  0  0
   -6.6730   21.7520  -31.5750 C   0  0  0  0  0  0  0  0  0  0  0  0
   -5.5830   22.6400  -31.1030 C   0  0  0  0  0  0  0  0  0  0  0  0
   -5.5080   24.0180  -31.2420 C   0  0  0  0  0  0  0  0  0  0  0  0
   -4.3250   24.3730  -30.6420 C   0  0  0  0  0  0  0  0  0  0  0  0
   -3.8530   25.6730  -30.5040 O   0  0  0  0  0  0  0  0  0  0  0  0
   -3.7310   23.2120  -30.1760 C   0  0  0  0  0  0  0  0  0  0  0  0
   -2.4470   23.0620  -29.4520 C   0  0  0  0  0  0  0  0  0  0  0  0
   -1.9790   21.7750  -29.1490 C   0  0  0  0  0  0  0  0  0  0  0  0
   -0.7730   21.5990  -28.4700 C   0  0  0  0  0  0  0  0  0  0  0  0
   -0.0080   22.7100  -28.0930 C   0  0  0  0  0  0  0  0  0  0  0  0
    1.1960   22.5340  -27.4130 O   0  0  0  0  0  0  0  0  0  0  0  0
   -0.4490   24.0040  -28.3990 C   0  0  0  0  0  0  0  0  0  0  0  0
    0.3520   25.0900  -28.0120 O   0  0  0  0  0  0  0  0  0  0  0  0
   -0.0590   26.1190  -27.1180 C   0  0  0  0  0  0  0  0  0  0  0  0
   -1.6690   24.1750  -29.0830 C   0  0  0  0  0  0  0  0  0  0  0  0
   -4.5180   22.2000  -30.4650 O   0  0  0  0  0  0  0  0  0  0  0  0
   -8.0040   22.1900  -31.4910 C   0  0  0  0  0  0  0  0  0  0  0  0
   -9.0480   21.3720  -31.9270 C   0  0  0  0  0  0  0  0  0  0  0  0
   -8.7790   20.1060  -32.4520 C   0  0  0  0  0  0  0  0  0  0  0  0
   -9.8290   19.3040  -32.8820 O   0  0  0  0  0  0  0  0  0  0  0  0
   -5.2672   17.7499  -33.2625 H   0  0  0  0  0  0  0  0  0  0  0  0
   -6.3914   17.1619  -34.5341 H   0  0  0  0  0  0  0  0  0  0  0  0
   -5.8526   18.8755  -34.5341 H   0  0  0  0  0  0  0  0  0  0  0  0
   -5.3683   20.1185  -32.1729 H   0  0  0  0  0  0  0  0  0  0  0  0
   -6.2379   24.6824  -31.7276 H   0  0  0  0  0  0  0  0  0  0  0  0
   -2.5683   20.8962  -29.4495 H   0  0  0  0  0  0  0  0  0  0  0  0
   -0.4219   20.5846  -28.2300 H   0  0  0  0  0  0  0  0  0  0  0  0
    1.7660   23.3230  -27.1310 H   0  0  0  0  0  0  0  0  0  0  0  0
    0.0767   25.7792  -26.0806 H   0  0  0  0  0  0  0  0  0  0  0  0
    0.5484   27.0195  -27.2913 H   0  0  0  0  0  0  0  0  0  0  0  0
   -1.1197   26.3532  -27.2913 H   0  0  0  0  0  0  0  0  0  0  0  0
   -2.0167   25.1887  -29.3310 H   0  0  0  0  0  0  0  0  0  0  0  0
   -8.2261   23.1853  -31.0785 H   0  0  0  0  0  0  0  0  0  0  0  0
  -10.0871   21.7262  -31.8567 H   0  0  0  0  0  0  0  0  0  0  0  0
  1  2  1  0
  2  3  1  0
  3  4  2  0
  4  5  1  0
  5  6  1  0
  6  7  2  0
  7  8  1  0
  8  9  1  0
  8 10  2  0
 10 11  1  0
 11 12  2  0
 12 13  1  0
 13 14  2  0
 14 15  1  0
 14 16  1  0
 16 17  1  0
 17 18  1  0
 16 19  2  0
 10 20  1  0
  5 21  2  0
 21 22  1  0
 22 23  2  0
 23 24  1  0
 23  3  1  0
 20  6  1  0
 19 11  1  0
  1 25  1  0
  1 26  1  0
  1 27  1  0
  4 28  1  0
  7 29  1  0
 12 30  1  0
 13 31  1  0
 15 32  1  0
 18 33  1  0
 18 34  1  0
 18 35  1  0
 19 36  1  0
 21 37  1  0
 22 38  1  0
M  CHG  2   9  -1  24  -1
M  END
>  <UniqueID>  (17) 
16

>  <SMILES>  (17) 
COc1cc(-c2cc([O-])c(-c3ccc(O)c(OC)c3)o2)ccc1[O-]

>  <Energy>  (17) 
71.40518961755004

>  <Genealogy>  (17) 
COc1cc(-c2cc([O-])c(-c3ccc(O)c(OC)c3)o2)ccc1[O-] (protonated)
COc1cc(-c2cc([O-])c(-c3ccc(O)c(OC)c3)o2)ccc1[O-] (3D coordinates assigned)
COc1cc(-c2cc([O-])c(-c3ccc(O)c(OC)c3)o2)ccc1[O-] (optimized conformer: 71.40518961755004 kcal/mol)

>  <smiles>  (17) 
COc1cc(-c2cc(O)c(-c3ccc(O)c(OC)c3)o2)ccc1O

>  <score_type>  (17) 
oracle

>  <origin>  (17) 
adgpu

>  <m_score__min__energy>  (17) 
-9.6899999999999995

>  <m_primary>  (17) 
energy

$$$$
17:0
     RDKit          3D

 45 47  0  0  0  0  0  0  0  0999 V2000
   -6.7640   13.8560  -34.4590 C   0  0  0  0  0  0  0  0  0  0  0  0
   -5.3410   13.5570  -34.3420 N   0  0  0  0  0  0  0  0  0  0  0  0
   -4.5960   14.6680  -33.2340 S   0  0  0  0  0  0  0  0  0  0  0  0
   -4.6140   14.0870  -31.8470 O   0  0  0  0  0  0  0  0  0  0  0  0
   -3.1670   14.8870  -33.6400 O   0  0  0  0  0  0  0  0  0  0  0  0
   -5.4420   16.2130  -33.2580 C   0  0  0  0  0  0  0  0  0  0  0  0
   -5.4440   17.0090  -34.4110 C   0  0  0  0  0  0  0  0  0  0  0  0
   -6.1060   18.2410  -34.4150 C   0  0  0  0  0  0  0  0  0  0  0  0
   -6.7830   18.6870  -33.2700 C   0  0  0  0  0  0  0  0  0  0  0  0
   -7.4350   19.9690  -33.2900 N   0  0  0  0  0  0  0  0  0  0  0  0
   -6.9540   21.1350  -32.5980 C   0  0  0  0  0  0  0  0  0  0  0  0
   -5.5730   21.3660  -32.5130 C   0  0  0  0  0  0  0  0  0  0  0  0
   -5.0840   22.5020  -31.8620 C   0  0  0  0  0  0  0  0  0  0  0  0
   -5.9720   23.4290  -31.3000 C   0  0  0  0  0  0  0  0  0  0  0  0
   -5.3620   24.8520  -30.4640 S   0  0  0  0  0  0  0  0  0  0  0  0
   -5.9710   24.9060  -29.0920 O   0  0  0  0  0  0  0  0  0  0  0  0
   -5.7290   26.1060  -31.2100 O   0  0  0  0  0  0  0  0  0  0  0  0
   -3.6330   24.7660  -30.3120 N   0  0  0  0  0  0  0  0  0  0  0  0
   -2.9610   24.0780  -29.4300 C   0  0  0  0  0  0  0  0  0  0  0  0
   -3.5950   23.2780  -28.4560 C   0  0  0  0  0  0  0  0  0  0  0  0
   -2.8200   22.5740  -27.5340 C   0  0  0  0  0  0  0  0  0  0  0  0
   -1.4300   22.6590  -27.5840 C   0  0  0  0  0  0  0  0  0  0  0  0
   -0.8300   23.4540  -28.5600 C   0  0  0  0  0  0  0  0  0  0  0  0
   -1.5980   24.1390  -29.4530 N   0  0  0  0  0  0  0  0  0  0  0  0
   -7.3530   23.2200  -31.4120 C   0  0  0  0  0  0  0  0  0  0  0  0
   -7.8420   22.0840  -32.0610 C   0  0  0  0  0  0  0  0  0  0  0  0
   -6.7530   17.8990  -32.1050 C   0  0  0  0  0  0  0  0  0  0  0  0
   -6.0910   16.6680  -32.1030 C   0  0  0  0  0  0  0  0  0  0  0  0
   -7.2031   13.9483  -33.4547 H   0  0  0  0  0  0  0  0  0  0  0  0
   -6.8963   14.8016  -35.0053 H   0  0  0  0  0  0  0  0  0  0  0  0
   -7.2657   13.0437  -35.0053 H   0  0  0  0  0  0  0  0  0  0  0  0
   -4.9231   16.6638  -35.3162 H   0  0  0  0  0  0  0  0  0  0  0  0
   -6.0958   18.8641  -35.3215 H   0  0  0  0  0  0  0  0  0  0  0  0
   -8.3160   20.0600  -33.8450 H   0  0  0  0  0  0  0  0  0  0  0  0
   -4.8703   20.6484  -32.9616 H   0  0  0  0  0  0  0  0  0  0  0  0
   -3.9991   22.6689  -31.7906 H   0  0  0  0  0  0  0  0  0  0  0  0
   -4.6924   23.2099  -28.4238 H   0  0  0  0  0  0  0  0  0  0  0  0
   -3.3060   21.9521  -26.7678 H   0  0  0  0  0  0  0  0  0  0  0  0
   -0.8128   22.1050  -26.8614 H   0  0  0  0  0  0  0  0  0  0  0  0
    0.2664   23.5283  -28.6091 H   0  0  0  0  0  0  0  0  0  0  0  0
   -1.1180   24.7280  -30.1710 H   0  0  0  0  0  0  0  0  0  0  0  0
   -8.0545   23.9532  -30.9873 H   0  0  0  0  0  0  0  0  0  0  0  0
   -8.9274   21.9309  -32.1526 H   0  0  0  0  0  0  0  0  0  0  0  0
   -7.2528   18.2533  -31.1914 H   0  0  0  0  0  0  0  0  0  0  0  0
   -6.0796   16.0538  -31.1905 H   0  0  0  0  0  0  0  0  0  0  0  0
  1  2  1  0
  2  3  1  0
  3  4  2  0
  3  5  2  0
  3  6  1  0
  6  7  2  0
  7  8  1  0
  8  9  2  0
  9 10  1  0
 10 11  1  0
 11 12  2  0
 12 13  1  0
 13 14  2  0
 14 15  1  0
 15 16  2  0
 15 17  2  0
 15 18  1  0
 18 19  2  3
 19 20  1  0
 20 21  2  0
 21 22  1  0
 22 23  2  0
 23 24  1  0
 14 25  1  0
 25 26  2  0
  9 27  1  0
 27 28  2  0
 28  6  1  0
 26 11  1  0
 24 19  1  0
  1 29  1  0
  1 30  1  0
  1 31  1  0
  7 32  1  0
  8 33  1  0
 10 34  1  0
 12 35  1  0
 13 36  1  0
 20 37  1  0
 21 38  1  0
 22 39  1  0
 23 40  1  0
 24 41  1  0
 25 42  1  0
 26 43  1  0
 27 44  1  0
 28 45  1  0
M  CHG  1   2  -1
M  END
>  <UniqueID>  (18) 
17

>  <SMILES>  (18) 
C[N-]S(=O)(=O)c1ccc(Nc2ccc(S(=O)(=O)N=c3cccc[nH]3)cc2)cc1

>  <Energy>  (18) 
56.3879463486789

>  <Genealogy>  (18) 
C[N-]S(=O)(=O)c1ccc(Nc2ccc(S(=O)(=O)N=c3cccc[nH]3)cc2)cc1 (protonated)
C[N-]S(=O)(=O)c1ccc(Nc2ccc(S(=O)(=O)N=c3cccc[nH]3)cc2)cc1 (3D coordinates assigned)
C[N-]S(=O)(=O)c1ccc(Nc2ccc(S(=O)(=O)N=c3cccc[nH]3)cc2)cc1 (optimized conformer: 56.3879463486789 kcal/mol)

>  <smiles>  (18) 
CNS(=O)(=O)c1ccc(Nc2ccc(S(=O)(=O)N=c3cccc[nH]3)cc2)cc1

>  <score_type>  (18) 
oracle

>  <origin>  (18) 
adgpu

>  <m_score__min__energy>  (18) 
-9.9399999999999995

>  <m_primary>  (18) 
energy

$$$$
18:0
     RDKit          3D

 49 52  0  0  0  0  0  0  0  0999 V2000
   -0.7690   26.7010  -27.7240 C   0  0  0  0  0  0  0  0  0  0  0  0
   -1.3100   25.9370  -28.7970 O   0  0  0  0  0  0  0  0  0  0  0  0
   -1.5780   24.5590  -28.7400 C   0  0  0  0  0  0  0  0  0  0  0  0
   -0.7820   23.6810  -27.9770 C   0  0  0  0  0  0  0  0  0  0  0  0
   -1.0800   22.3190  -27.9290 C   0  0  0  0  0  0  0  0  0  0  0  0
   -2.1660   21.8150  -28.6440 C   0  0  0  0  0  0  0  0  0  0  0  0
   -2.9600   22.6720  -29.4060 C   0  0  0  0  0  0  0  0  0  0  0  0
   -2.6810   24.0500  -29.4590 C   0  0  0  0  0  0  0  0  0  0  0  0
   -3.5050   24.9430  -30.2320 N   0  0  0  0  0  0  0  0  0  0  0  0
   -5.2280   25.0500  -30.0480 S   0  0  0  0  0  0  0  0  0  0  0  0
   -5.6930   26.3880  -30.5540 O   0  0  0  0  0  0  0  0  0  0  0  0
   -5.5810   24.9240  -28.5930 O   0  0  0  0  0  0  0  0  0  0  0  0
   -6.0140   23.7460  -30.9340 C   0  0  0  0  0  0  0  0  0  0  0  0
   -7.4050   23.7440  -31.1070 C   0  0  0  0  0  0  0  0  0  0  0  0
   -8.0180   22.7230  -31.8370 C   0  0  0  0  0  0  0  0  0  0  0  0
   -7.2480   21.6990  -32.3950 C   0  0  0  0  0  0  0  0  0  0  0  0
   -5.8580   21.6760  -32.2060 C   0  0  0  0  0  0  0  0  0  0  0  0
   -5.0440   20.6180  -32.8410 C   0  0  0  0  0  0  0  0  0  0  0  0
   -3.7800   20.9380  -33.2230 N   0  0  0  0  0  0  0  0  0  0  0  0
   -2.9410   20.0510  -33.7620 N   0  0  0  0  0  0  0  0  0  0  0  0
   -1.5980   20.4990  -34.1350 C   0  0  0  0  0  0  0  0  0  0  0  0
   -3.3210   18.7520  -33.9510 C   0  0  0  0  0  0  0  0  0  0  0  0
   -2.5100   17.9210  -34.4480 O   0  0  0  0  0  0  0  0  0  0  0  0
   -4.6210   18.3480  -33.5980 C   0  0  0  0  0  0  0  0  0  0  0  0
   -5.0550   17.0240  -33.7960 C   0  0  0  0  0  0  0  0  0  0  0  0
   -6.3600   16.6520  -33.4710 C   0  0  0  0  0  0  0  0  0  0  0  0
   -7.2480   17.5940  -32.9550 C   0  0  0  0  0  0  0  0  0  0  0  0
   -6.8330   18.9110  -32.7470 C   0  0  0  0  0  0  0  0  0  0  0  0
   -5.5100   19.3000  -33.0430 C   0  0  0  0  0  0  0  0  0  0  0  0
   -5.2450   22.7120  -31.4830 C   0  0  0  0  0  0  0  0  0  0  0  0
   -1.0813   26.2600  -26.7659 H   0  0  0  0  0  0  0  0  0  0  0  0
    0.3291   26.6976  -27.7886 H   0  0  0  0  0  0  0  0  0  0  0  0
   -1.1369   27.7356  -27.7886 H   0  0  0  0  0  0  0  0  0  0  0  0
    0.0795   24.0721  -27.4159 H   0  0  0  0  0  0  0  0  0  0  0  0
   -0.4573   21.6416  -27.3262 H   0  0  0  0  0  0  0  0  0  0  0  0
   -2.3968   20.7401  -28.6070 H   0  0  0  0  0  0  0  0  0  0  0  0
   -3.8124   22.2666  -29.9709 H   0  0  0  0  0  0  0  0  0  0  0  0
   -3.0550   25.6590  -30.8450 H   0  0  0  0  0  0  0  0  0  0  0  0
   -8.0145   24.5473  -30.6674 H   0  0  0  0  0  0  0  0  0  0  0  0
   -9.1096   22.7250  -31.9730 H   0  0  0  0  0  0  0  0  0  0  0  0
   -7.7337   20.9077  -32.9849 H   0  0  0  0  0  0  0  0  0  0  0  0
   -1.0110   20.6948  -33.2255 H   0  0  0  0  0  0  0  0  0  0  0  0
   -1.1028   19.7174  -34.7298 H   0  0  0  0  0  0  0  0  0  0  0  0
   -1.6712   21.4214  -34.7298 H   0  0  0  0  0  0  0  0  0  0  0  0
   -4.3610   16.2775  -34.2097 H   0  0  0  0  0  0  0  0  0  0  0  0
   -6.6885   15.6132  -33.6224 H   0  0  0  0  0  0  0  0  0  0  0  0
   -8.2792   17.2991  -32.7108 H   0  0  0  0  0  0  0  0  0  0  0  0
   -7.5434   19.6507  -32.3493 H   0  0  0  0  0  0  0  0  0  0  0  0
   -4.1535   22.7115  -31.3468 H   0  0  0  0  0  0  0  0  0  0  0  0
  1  2  1  0
  2  3  1  0
  3  4  2  0
  4  5  1  0
  5  6  2  0
  6  7  1  0
  7  8  2  0
  8  9  1  0
  9 10  1  0
 10 11  2  0
 10 12  2  0
 10 13  1  0
 13 14  2  0
 14 15  1  0
 15 16  2  0
 16 17  1  0
 17 18  1  0
 18 19  2  0
 19 20  1  0
 20 21  1  0
 20 22  1  0
 22 23  2  0
 22 24  1  0
 24 25  2  0
 25 26  1  0
 26 27  2  0
 27 28  1  0
 28 29  2  0
 17 30  2  0
  8  3  1  0
 30 13  1  0
 29 18  1  0
 29 24  1  0
  1 31  1  0
  1 32  1  0
  1 33  1  0
  4 34  1  0
  5 35  1  0
  6 36  1  0
  7 37  1  0
  9 38  1  0
 14 39  1  0
 15 40  1  0
 16 41  1  0
 21 42  1  0
 21 43  1  0
 21 44  1  0
 25 45  1  0
 26 46  1  0
 27 47  1  0
 28 48  1  0
 30 49  1  0
M  END
>  <UniqueID>  (19) 
18

>  <SMILES>  (19) 
COc1ccccc1NS(=O)(=O)c1cccc(-c2nn(C)c(=O)c3ccccc23)c1

>  <Energy>  (19) 
69.25189099211488

>  <Genealogy>  (19) 
COc1ccccc1NS(=O)(=O)c1cccc(-c2nn(C)c(=O)c3ccccc23)c1 (3D coordinates assigned)
COc1ccccc1NS(=O)(=O)c1cccc(-c2nn(C)c(=O)c3ccccc23)c1 (optimized conformer: 69.25189099211488 kcal/mol)

>  <smiles>  (19) 
COc1ccccc1NS(=O)(=O)c1cccc(-c2nn(C)c(=O)c3ccccc23)c1

>  <score_type>  (19) 
oracle

>  <origin>  (19) 
adgpu

>  <m_score__min__energy>  (19) 
-11.4

>  <m_primary>  (19) 
energy

$$$$
19:0
     RDKit          3D

 36 38  0  0  0  0  0  0  0  0999 V2000
   -3.3845   23.7772  -26.0816 H   0  0  0  0  0  0  0  0  0  0  0  0
   -3.3340   24.0030  -27.1570 C   0  0  0  0  0  0  0  0  0  0  0  0
   -4.2800   23.2990  -28.3580 S   0  0  0  0  0  0  0  0  0  0  0  0
   -3.5560   24.1800  -29.5980 C   0  0  0  0  0  0  0  0  0  0  0  0
   -3.8800   24.1490  -30.8580 N   0  0  0  0  0  0  0  0  0  0  0  0
   -4.8390   23.2750  -31.4730 C   0  0  0  0  0  0  0  0  0  0  0  0
   -4.3910   22.0900  -32.0670 C   0  0  0  0  0  0  0  0  0  0  0  0
   -3.3156   21.8590  -32.0832 H   0  0  0  0  0  0  0  0  0  0  0  0
   -5.3020   21.1980  -32.6400 C   0  0  0  0  0  0  0  0  0  0  0  0
   -4.9354   20.2795  -33.1216 H   0  0  0  0  0  0  0  0  0  0  0  0
   -6.6750   21.4620  -32.6070 C   0  0  0  0  0  0  0  0  0  0  0  0
   -7.5480   20.5370  -33.1980 O   0  0  0  0  0  0  0  0  0  0  0  0
   -8.2100   19.4930  -32.4920 C   0  0  0  0  0  0  0  0  0  0  0  0
   -8.1051   19.6585  -31.4096 H   0  0  0  0  0  0  0  0  0  0  0  0
   -9.2767   19.4879  -32.7604 H   0  0  0  0  0  0  0  0  0  0  0  0
   -7.7597   18.5260  -32.7604 H   0  0  0  0  0  0  0  0  0  0  0  0
   -7.1310   22.6370  -31.9780 C   0  0  0  0  0  0  0  0  0  0  0  0
   -8.2088   22.8527  -31.9360 H   0  0  0  0  0  0  0  0  0  0  0  0
   -6.2200   23.5300  -31.4070 C   0  0  0  0  0  0  0  0  0  0  0  0
   -6.5854   24.4371  -30.9033 H   0  0  0  0  0  0  0  0  0  0  0  0
   -2.6120   25.0160  -29.1160 N   0  0  0  0  0  0  0  0  0  0  0  0
   -2.0740   25.6760  -29.7200 H   0  0  0  0  0  0  0  0  0  0  0  0
   -2.4730   24.9240  -27.7610 C   0  0  0  0  0  0  0  0  0  0  0  0
   -1.4900   25.7390  -27.0040 C   0  0  0  0  0  0  0  0  0  0  0  0
   -0.2630   26.1050  -27.5880 C   0  0  0  0  0  0  0  0  0  0  0  0
   -0.0297   25.7861  -28.6146 H   0  0  0  0  0  0  0  0  0  0  0  0
    0.6610   26.8710  -26.8720 C   0  0  0  0  0  0  0  0  0  0  0  0
    1.6183   27.1503  -27.3363 H   0  0  0  0  0  0  0  0  0  0  0  0
    0.3730   27.2830  -25.5690 C   0  0  0  0  0  0  0  0  0  0  0  0
    1.1040   27.8846  -25.0090 H   0  0  0  0  0  0  0  0  0  0  0  0
   -0.8460   26.9310  -24.9740 C   0  0  0  0  0  0  0  0  0  0  0  0
   -1.1430   27.3590  -23.6420 N   0  0  0  0  0  0  0  0  0  0  0  0
   -0.4370   27.8820  -23.0770 H   0  0  0  0  0  0  0  0  0  0  0  0
   -2.0730   27.1560  -23.2100 H   0  0  0  0  0  0  0  0  0  0  0  0
   -1.7720   26.1610  -25.6920 C   0  0  0  0  0  0  0  0  0  0  0  0
   -2.7285   25.8841  -25.2247 H   0  0  0  0  0  0  0  0  0  0  0  0
  1  2  1  0
  2  3  1  0
  3  4  1  0
  4  5  2  0
  5  6  1  0
  6  7  2  0
  7  8  1  0
  7  9  1  0
  9 10  1  0
  9 11  2  0
 11 12  1  0
 12 13  1  0
 13 14  1  0
 13 15  1  0
 13 16  1  0
 11 17  1  0
 17 18  1  0
 17 19  2  0
 19 20  1  0
  4 21  1  0
 21 22  1  0
 21 23  1  0
 23 24  1  0
 24 25  2  0
 25 26  1  0
 25 27  1  0
 27 28  1  0
 27 29  2  0
 29 30  1  0
 29 31  1  0
 31 32  1  0
 32 33  1  0
 32 34  1  0
 31 35  2  0
 35 36  1  0
 23  2  2  0
 35 24  1  0
 19  6  1  0
M  END
>  <UniqueID>  (20) 
19

>  <SMILES>  (20) 
COc1ccc(/N=c2/[nH]c(-c3cccc(N)c3)cs2)cc1

>  <Energy>  (20) 
77.41906868454043

>  <Genealogy>  (20) 
COc1ccc(/N=c2/[nH]c(-c3cccc(N)c3)cs2)cc1 (cis-trans isomerization)
COc1ccc(/N=c2/[nH]c(-c3cccc(N)c3)cs2)cc1 (3D coordinates assigned)
COc1ccc(/N=c2/[nH]c(-c3cccc(N)c3)cs2)cc1 (optimized conformer: 77.41906868454043 kcal/mol)

>  <smiles>  (20) 
COc1ccc(N=c2[nH]c(-c3cccc(N)c3)cs2)cc1

>  <score_type>  (20) 
oracle

>  <origin>  (20) 
adgpu

>  <m_score__min__energy>  (20) 
-8.0899999999999999

>  <m_primary>  (20) 
energy

$$$$
20:0
     RDKit          3D

 68 71  0  0  0  0  0  0  0  0999 V2000
   -3.1490   19.7050  -27.0920 C   0  0  0  0  0  0  0  0  0  0  0  0
   -2.1550   18.5900  -26.7800 C   0  0  0  0  0  0  0  0  0  0  0  0
   -0.7110   18.9790  -27.1150 C   0  0  0  0  0  0  0  0  0  0  0  0
   -0.3880   19.0670  -28.9190 S   0  0  0  0  0  0  0  0  0  0  0  0
   -0.8300   20.8050  -29.1080 C   0  0  0  0  0  0  0  0  0  0  0  0
   -0.3720   21.7250  -28.1580 C   0  0  0  0  0  0  0  0  0  0  0  0
   -0.7570   23.0690  -28.2160 C   0  0  0  0  0  0  0  0  0  0  0  0
   -0.0360   24.2520  -26.8870 Br  0  0  0  0  0  0  0  0  0  0  0  0
   -1.6170   23.5090  -29.2480 C   0  0  0  0  0  0  0  0  0  0  0  0
   -2.1320   24.8940  -29.3260 C   0  0  0  0  0  0  0  0  0  0  0  0
   -1.4140   25.8660  -28.9660 O   0  0  0  0  0  0  0  0  0  0  0  0
   -3.4820   25.1240  -29.7410 N   0  0  0  0  0  0  0  0  0  0  0  0
   -4.6390   24.5490  -29.0640 C   0  0  0  0  0  0  0  0  0  0  0  0
   -5.5500   23.9120  -30.0760 C   0  0  0  0  0  0  0  0  0  0  0  0
   -6.2920   22.7660  -29.7490 C   0  0  0  0  0  0  0  0  0  0  0  0
   -7.0920   22.1460  -30.7140 C   0  0  0  0  0  0  0  0  0  0  0  0
   -7.1530   22.6620  -32.0120 C   0  0  0  0  0  0  0  0  0  0  0  0
   -6.4110   23.7960  -32.3470 C   0  0  0  0  0  0  0  0  0  0  0  0
   -5.6090   24.4180  -31.3840 C   0  0  0  0  0  0  0  0  0  0  0  0
   -2.0370   22.5890  -30.2220 C   0  0  0  0  0  0  0  0  0  0  0  0
   -1.6370   21.2510  -30.1730 C   0  0  0  0  0  0  0  0  0  0  0  0
   -2.1430   20.3500  -31.1680 N   0  0  0  0  0  0  0  0  0  0  0  0
   -3.3590   20.5870  -31.8920 C   0  0  0  0  0  0  0  0  0  0  0  0
   -3.9630   21.6860  -31.7720 O   0  0  0  0  0  0  0  0  0  0  0  0
   -3.9060   19.5720  -32.8100 C   0  0  0  0  0  0  0  0  0  0  0  0
   -5.1420   19.6580  -33.3380 N   0  0  0  0  0  0  0  0  0  0  0  0
   -5.3500   18.5420  -34.0620 C   0  0  0  0  0  0  0  0  0  0  0  0
   -4.2480   17.7110  -33.9770 C   0  0  0  0  0  0  0  0  0  0  0  0
   -4.1290   16.3790  -34.6050 C   0  0  0  0  0  0  0  0  0  0  0  0
   -4.9080   15.3100  -34.1330 C   0  0  0  0  0  0  0  0  0  0  0  0
   -4.7940   14.0410  -34.7090 C   0  0  0  0  0  0  0  0  0  0  0  0
   -3.8900   13.8190  -35.7650 C   0  0  0  0  0  0  0  0  0  0  0  0
   -3.7410   12.5680  -36.3790 O   0  0  0  0  0  0  0  0  0  0  0  0
   -3.1100   12.3610  -37.6400 C   0  0  0  0  0  0  0  0  0  0  0  0
   -3.1010   14.8820  -36.2210 C   0  0  0  0  0  0  0  0  0  0  0  0
   -3.2170   16.1490  -35.6470 C   0  0  0  0  0  0  0  0  0  0  0  0
   -3.3140   18.3750  -33.1900 C   0  0  0  0  0  0  0  0  0  0  0  0
   -1.6860   17.7680  -32.7160 S   0  0  0  0  0  0  0  0  0  0  0  0
   -0.7940   18.9480  -33.7800 C   0  0  0  0  0  0  0  0  0  0  0  0
   -3.5289   20.1312  -26.1518 H   0  0  0  0  0  0  0  0  0  0  0  0
   -2.6469   20.4914  -27.6746 H   0  0  0  0  0  0  0  0  0  0  0  0
   -3.9877   19.2961  -27.6746 H   0  0  0  0  0  0  0  0  0  0  0  0
   -2.2165   18.3527  -25.7077 H   0  0  0  0  0  0  0  0  0  0  0  0
   -2.4200   17.7227  -27.4025 H   0  0  0  0  0  0  0  0  0  0  0  0
   -0.5029   19.9649  -26.6738 H   0  0  0  0  0  0  0  0  0  0  0  0
   -0.0570   18.1964  -26.7029 H   0  0  0  0  0  0  0  0  0  0  0  0
    0.2996   21.3870  -27.3550 H   0  0  0  0  0  0  0  0  0  0  0  0
   -4.3016   23.7881  -28.3449 H   0  0  0  0  0  0  0  0  0  0  0  0
   -5.1828   25.3432  -28.5315 H   0  0  0  0  0  0  0  0  0  0  0  0
   -6.2440   22.3543  -28.7301 H   0  0  0  0  0  0  0  0  0  0  0  0
   -7.6744   21.2506  -30.4513 H   0  0  0  0  0  0  0  0  0  0  0  0
   -7.7853   22.1747  -32.7688 H   0  0  0  0  0  0  0  0  0  0  0  0
   -6.4569   24.2008  -33.3688 H   0  0  0  0  0  0  0  0  0  0  0  0
   -5.0216   25.3082  -31.6533 H   0  0  0  0  0  0  0  0  0  0  0  0
   -2.6924   22.9275  -31.0380 H   0  0  0  0  0  0  0  0  0  0  0  0
   -1.6700   19.4300  -31.2560 H   0  0  0  0  0  0  0  0  0  0  0  0
   -5.8220   20.4410  -33.2090 H   0  0  0  0  0  0  0  0  0  0  0  0
   -6.2622   18.3235  -34.6365 H   0  0  0  0  0  0  0  0  0  0  0  0
   -5.6129   15.4722  -33.3042 H   0  0  0  0  0  0  0  0  0  0  0  0
   -5.4135   13.2124  -34.3353 H   0  0  0  0  0  0  0  0  0  0  0  0
   -2.0758   12.0217  -37.4812 H   0  0  0  0  0  0  0  0  0  0  0  0
   -3.6636   11.5974  -38.2061 H   0  0  0  0  0  0  0  0  0  0  0  0
   -3.1037   13.3042  -38.2061 H   0  0  0  0  0  0  0  0  0  0  0  0
   -2.3837   14.7172  -37.0385 H   0  0  0  0  0  0  0  0  0  0  0  0
   -2.5887   16.9739  -36.0141 H   0  0  0  0  0  0  0  0  0  0  0  0
   -0.2493   19.6685  -33.1522 H   0  0  0  0  0  0  0  0  0  0  0  0
   -0.0806   18.4023  -34.4151 H   0  0  0  0  0  0  0  0  0  0  0  0
   -1.5136   19.4855  -34.4151 H   0  0  0  0  0  0  0  0  0  0  0  0
  1  2  1  0
  2  3  1  0
  3  4  1  0
  4  5  1  0
  5  6  2  0
  6  7  1  0
  7  8  1  0
  7  9  2  0
  9 10  1  0
 10 11  2  0
 10 12  1  0
 12 13  1  0
 13 14  1  0
 14 15  2  0
 15 16  1  0
 16 17  2  0
 17 18  1  0
 18 19  2  0
  9 20  1  0
 20 21  2  0
 21 22  1  0
 22 23  1  0
 23 24  2  0
 23 25  1  0
 25 26  1  0
 26 27  1  0
 27 28  2  0
 28 29  1  0
 29 30  2  0
 30 31  1  0
 31 32  2  0
 32 33  1  0
 33 34  1  0
 32 35  1  0
 35 36  2  0
 28 37  1  0
 37 38  1  0
 38 39  1  0
 21  5  1  0
 37 25  2  0
 19 14  1  0
 36 29  1  0
  1 40  1  0
  1 41  1  0
  1 42  1  0
  2 43  1  0
  2 44  1  0
  3 45  1  0
  3 46  1  0
  6 47  1  0
 13 48  1  0
 13 49  1  0
 15 50  1  0
 16 51  1  0
 17 52  1  0
 18 53  1  0
 19 54  1  0
 20 55  1  0
 22 56  1  0
 26 57  1  0
 27 58  1  0
 30 59  1  0
 31 60  1  0
 34 61  1  0
 34 62  1  0
 34 63  1  0
 35 64  1  0
 36 65  1  0
 39 66  1  0
 39 67  1  0
 39 68  1  0
M  CHG  1  12  -1
M  END
>  <UniqueID>  (21) 
20

>  <SMILES>  (21) 
CCCSc1cc(Br)c(C(=O)[N-]Cc2ccccc2)cc1NC(=O)c1[nH]cc(-c2ccc(OC)cc2)c1SC

>  <Energy>  (21) 
101.57323743622597

>  <Genealogy>  (21) 
CCCSc1cc(Br)c(C(=O)[N-]Cc2ccccc2)cc1NC(=O)c1[nH]cc(-c2ccc(OC)cc2)c1SC (protonated)
CCCSc1cc(Br)c(C(=O)[N-]Cc2ccccc2)cc1NC(=O)c1[nH]cc(-c2ccc(OC)cc2)c1SC (3D coordinates assigned)
CCCSc1cc(Br)c(C(=O)[N-]Cc2ccccc2)cc1NC(=O)c1[nH]cc(-c2ccc(OC)cc2)c1SC (optimized conformer: 101.57323743622597 kcal/mol)

>  <smiles>  (21) 
CCCSc1cc(Br)c(C(=O)NCc2ccccc2)cc1NC(=O)c1[nH]cc(-c2ccc(OC)cc2)c1SC

>  <score_type>  (21) 
oracle

>  <origin>  (21) 
adgpu

>  <m_score__min__energy>  (21) 
-10.390000000000001

>  <m_primary>  (21) 
energy

$$$$
21:0
     RDKit          3D

 32 33  0  0  0  0  0  0  0  0999 V2000
   -3.8750   21.7730  -33.7340 N   0  0  0  0  0  0  0  0  0  0  0  0
   -3.6130   21.5010  -32.3230 C   0  0  0  0  0  0  0  0  0  0  0  0
   -4.0630   22.6500  -31.4560 C   0  0  0  0  0  0  0  0  0  0  0  0
   -5.4240   22.9820  -31.3740 C   0  0  0  0  0  0  0  0  0  0  0  0
   -5.8340   24.0730  -30.6060 C   0  0  0  0  0  0  0  0  0  0  0  0
   -4.8930   24.8420  -29.9150 C   0  0  0  0  0  0  0  0  0  0  0  0
   -3.5270   24.5140  -29.9810 C   0  0  0  0  0  0  0  0  0  0  0  0
   -2.5240   25.2930  -29.3140 N   0  0  0  0  0  0  0  0  0  0  0  0
   -1.3820   24.7920  -28.6040 C   0  0  0  0  0  0  0  0  0  0  0  0
   -0.6000   23.9760  -29.1620 O   0  0  0  0  0  0  0  0  0  0  0  0
   -1.0880   25.2760  -27.2350 C   0  0  0  0  0  0  0  0  0  0  0  0
   -0.8190   26.6370  -27.0000 C   0  0  0  0  0  0  0  0  0  0  0  0
   -0.5400   27.0940  -25.7080 C   0  0  0  0  0  0  0  0  0  0  0  0
   -0.5260   26.1990  -24.6300 C   0  0  0  0  0  0  0  0  0  0  0  0
   -0.2410   26.6670  -23.3100 N   0  0  0  0  0  0  0  0  0  0  0  0
   -0.7920   24.8430  -24.8560 C   0  0  0  0  0  0  0  0  0  0  0  0
   -1.0710   24.3830  -26.1470 C   0  0  0  0  0  0  0  0  0  0  0  0
   -3.1190   23.4330  -30.7730 C   0  0  0  0  0  0  0  0  0  0  0  0
   -2.9620   21.9180  -34.2240 H   0  0  0  0  0  0  0  0  0  0  0  0
   -4.4200   22.6630  -33.8090 H   0  0  0  0  0  0  0  0  0  0  0  0
   -4.1564   20.5921  -32.0254 H   0  0  0  0  0  0  0  0  0  0  0  0
   -2.5297   21.3652  -32.1886 H   0  0  0  0  0  0  0  0  0  0  0  0
   -6.1692   22.3813  -31.9160 H   0  0  0  0  0  0  0  0  0  0  0  0
   -6.9021   24.3288  -30.5442 H   0  0  0  0  0  0  0  0  0  0  0  0
   -5.2217   25.7056  -29.3183 H   0  0  0  0  0  0  0  0  0  0  0  0
   -0.8282   27.3476  -27.8396 H   0  0  0  0  0  0  0  0  0  0  0  0
   -0.3307   28.1603  -25.5374 H   0  0  0  0  0  0  0  0  0  0  0  0
    0.2340   26.0490  -22.6140 H   0  0  0  0  0  0  0  0  0  0  0  0
   -0.5020   27.6340  -23.0170 H   0  0  0  0  0  0  0  0  0  0  0  0
   -0.7815   24.1357  -24.0136 H   0  0  0  0  0  0  0  0  0  0  0  0
   -1.2786   23.3157  -26.3134 H   0  0  0  0  0  0  0  0  0  0  0  0
   -2.0485   23.1954  -30.8606 H   0  0  0  0  0  0  0  0  0  0  0  0
  1  2  1  0
  2  3  1  0
  3  4  2  0
  4  5  1  0
  5  6  2  0
  6  7  1  0
  7  8  1  0
  8  9  1  0
  9 10  2  0
  9 11  1  0
 11 12  2  0
 12 13  1  0
 13 14  2  0
 14 15  1  0
 14 16  1  0
 16 17  2  0
  7 18  2  0
 18  3  1  0
 17 11  1  0
  1 19  1  0
  1 20  1  0
  2 21  1  0
  2 22  1  0
  4 23  1  0
  5 24  1  0
  6 25  1  0
 12 26  1  0
 13 27  1  0
 15 28  1  0
 15 29  1  0
 16 30  1  0
 17 31  1  0
 18 32  1  0
M  CHG  1   8  -1
M  END
>  <UniqueID>  (22) 
21

>  <SMILES>  (22) 
NCc1cccc([N-]C(=O)c2ccc(N)cc2)c1

>  <Energy>  (22) 
34.50824724591847

>  <Genealogy>  (22) 
NCc1cccc([N-]C(=O)c2ccc(N)cc2)c1 (protonated)
NCc1cccc([N-]C(=O)c2ccc(N)cc2)c1 (3D coordinates assigned)
NCc1cccc([N-]C(=O)c2ccc(N)cc2)c1 (optimized conformer: 34.50824724591847 kcal/mol)

>  <smiles>  (22) 
NCc1cccc(NC(=O)c2ccc(N)cc2)c1

>  <score_type>  (22) 
oracle

>  <origin>  (22) 
adgpu

>  <m_score__min__energy>  (22) 
-8.2599999999999998

>  <m_primary>  (22) 
energy

$$$$
22:0
     RDKit          3D

 46 48  0  0  0  0  0  0  0  0999 V2000
   -6.7020   18.3730  -32.7160 C   0  0  0  0  0  0  0  0  0  0  0  0
   -6.0210   19.1930  -33.8020 C   0  0  0  0  0  0  0  0  0  0  0  0
   -4.8480   19.8660  -33.2450 N   0  0  0  0  0  0  0  0  0  0  0  0
   -4.8490   21.0040  -32.6110 C   0  0  0  0  0  0  0  0  0  0  0  0
   -6.0230   21.7460  -32.3820 C   0  0  0  0  0  0  0  0  0  0  0  0
   -5.9480   22.9230  -31.7090 N   0  0  0  0  0  0  0  0  0  0  0  0
   -4.7670   23.4080  -31.2390 C   0  0  0  0  0  0  0  0  0  0  0  0
   -4.7310   24.6960  -30.5120 C   0  0  0  0  0  0  0  0  0  0  0  0
   -5.8110   25.2730  -30.2120 O   0  0  0  0  0  0  0  0  0  0  0  0
   -3.4960   25.2810  -30.0760 N   0  0  0  0  0  0  0  0  0  0  0  0
   -2.6710   24.7980  -29.0070 C   0  0  0  0  0  0  0  0  0  0  0  0
   -1.3520   25.2550  -28.9060 C   0  0  0  0  0  0  0  0  0  0  0  0
   -0.5290   24.8110  -27.8670 C   0  0  0  0  0  0  0  0  0  0  0  0
   -1.0100   23.8850  -26.9320 C   0  0  0  0  0  0  0  0  0  0  0  0
    0.0060   23.3740  -25.5880 S   0  0  0  0  0  0  0  0  0  0  0  0
   -0.5620   22.1260  -24.9700 O   0  0  0  0  0  0  0  0  0  0  0  0
    1.3870   23.0700  -26.0980 O   0  0  0  0  0  0  0  0  0  0  0  0
    0.0870   24.6580  -24.4100 N   0  0  0  0  0  0  0  0  0  0  0  0
    1.2160   25.5560  -24.6590 C   0  0  0  0  0  0  0  0  0  0  0  0
    0.8350   26.9070  -24.0730 C   0  0  0  0  0  0  0  0  0  0  0  0
   -0.6810   26.8820  -23.9480 C   0  0  0  0  0  0  0  0  0  0  0  0
   -1.1080   25.5040  -24.4390 C   0  0  0  0  0  0  0  0  0  0  0  0
   -2.3210   23.4020  -27.0480 C   0  0  0  0  0  0  0  0  0  0  0  0
   -3.1440   23.8470  -28.0850 C   0  0  0  0  0  0  0  0  0  0  0  0
   -3.5960   22.6750  -31.4790 C   0  0  0  0  0  0  0  0  0  0  0  0
   -3.6680   21.4980  -32.1520 N   0  0  0  0  0  0  0  0  0  0  0  0
   -6.3932   18.7448  -31.7279 H   0  0  0  0  0  0  0  0  0  0  0  0
   -7.7935   18.4645  -32.8175 H   0  0  0  0  0  0  0  0  0  0  0  0
   -6.4116   17.3169  -32.8175 H   0  0  0  0  0  0  0  0  0  0  0  0
   -5.7075   18.5283  -34.6205 H   0  0  0  0  0  0  0  0  0  0  0  0
   -6.7250   19.9450  -34.1878 H   0  0  0  0  0  0  0  0  0  0  0  0
   -6.9930   21.3755  -32.7451 H   0  0  0  0  0  0  0  0  0  0  0  0
   -0.9611   25.9670  -29.6478 H   0  0  0  0  0  0  0  0  0  0  0  0
    0.5002   25.1901  -27.7831 H   0  0  0  0  0  0  0  0  0  0  0  0
    0.1880   24.2320  -23.4580 H   0  0  0  0  0  0  0  0  0  0  0  0
    2.1221   25.1714  -24.1681 H   0  0  0  0  0  0  0  0  0  0  0  0
    1.4287   25.6365  -25.7352 H   0  0  0  0  0  0  0  0  0  0  0  0
    1.3001   27.0428  -23.0855 H   0  0  0  0  0  0  0  0  0  0  0  0
    1.1790   27.7383  -24.7059 H   0  0  0  0  0  0  0  0  0  0  0  0
   -0.9827   27.0271  -22.9002 H   0  0  0  0  0  0  0  0  0  0  0  0
   -1.1517   27.6868  -24.5317 H   0  0  0  0  0  0  0  0  0  0  0  0
   -1.8825   25.0889  -23.7772 H   0  0  0  0  0  0  0  0  0  0  0  0
   -1.5296   25.5586  -25.4535 H   0  0  0  0  0  0  0  0  0  0  0  0
   -2.7025   22.6706  -26.3203 H   0  0  0  0  0  0  0  0  0  0  0  0
   -4.1662   23.4521  -28.1810 H   0  0  0  0  0  0  0  0  0  0  0  0
   -2.6251   23.0512  -31.1242 H   0  0  0  0  0  0  0  0  0  0  0  0
  1  2  1  0
  2  3  1  0
  3  4  2  3
  4  5  1  0
  5  6  2  0
  6  7  1  0
  7  8  1  0
  8  9  2  0
  8 10  1  0
 10 11  1  0
 11 12  2  0
 12 13  1  0
 13 14  2  0
 14 15  1  0
 15 16  2  0
 15 17  2  0
 15 18  1  0
 18 19  1  0
 19 20  1  0
 20 21  1  0
 21 22  1  0
 14 23  1  0
 23 24  2  0
  7 25  2  0
 25 26  1  0
 26  4  1  0
 24 11  1  0
 22 18  1  0
  1 27  1  0
  1 28  1  0
  1 29  1  0
  2 30  1  0
  2 31  1  0
  5 32  1  0
 12 33  1  0
 13 34  1  0
 18 35  1  0
 19 36  1  0
 19 37  1  0
 20 38  1  0
 20 39  1  0
 21 40  1  0
 21 41  1  0
 22 42  1  0
 22 43  1  0
 23 44  1  0
 24 45  1  0
 25 46  1  0
M  CHG  3  10  -1  18   1  26  -1
M  END
>  <UniqueID>  (23) 
22

>  <SMILES>  (23) 
CCN=c1cnc(C(=O)[N-]c2ccc(S(=O)(=O)[NH+]3CCCC3)cc2)c[n-]1

>  <Energy>  (23) 
52.65121395034837

>  <Genealogy>  (23) 
CCN=c1cnc(C(=O)[N-]c2ccc(S(=O)(=O)[NH+]3CCCC3)cc2)c[n-]1 (protonated)
CCN=c1cnc(C(=O)[N-]c2ccc(S(=O)(=O)[NH+]3CCCC3)cc2)c[n-]1 (3D coordinates assigned)
CCN=c1cnc(C(=O)[N-]c2ccc(S(=O)(=O)[NH+]3CCCC3)cc2)c[n-]1 (nonaromatic ring conformer: 52.65121395034837 kcal/mol)

>  <smiles>  (23) 
CCN=c1cnc(C(=O)Nc2ccc(S(=O)(=O)N3CCCC3)cc2)c[nH]1

>  <score_type>  (23) 
oracle

>  <origin>  (23) 
adgpu

>  <m_score__min__energy>  (23) 
-10.59

>  <m_primary>  (23) 
energy

$$$$
23:0
     RDKit          3D

 54 57  0  0  0  0  0  0  0  0999 V2000
   -8.2250   22.1400  -31.6250 C   0  0  0  0  0  0  0  0  0  0  0  0
   -6.9320   21.6090  -32.1740 C   0  0  0  0  0  0  0  0  0  0  0  0
   -5.7810   22.4080  -32.1870 C   0  0  0  0  0  0  0  0  0  0  0  0
   -4.5860   21.9150  -32.7170 C   0  0  0  0  0  0  0  0  0  0  0  0
   -4.5220   20.6150  -33.2510 C   0  0  0  0  0  0  0  0  0  0  0  0
   -3.3040   20.0850  -33.8000 N   0  0  0  0  0  0  0  0  0  0  0  0
   -1.7050   20.4350  -33.2230 S   0  0  0  0  0  0  0  0  0  0  0  0
   -0.8500   20.8800  -34.3750 O   0  0  0  0  0  0  0  0  0  0  0  0
   -1.7720   21.5410  -32.2100 O   0  0  0  0  0  0  0  0  0  0  0  0
   -1.0330   18.9970  -32.4610 C   0  0  0  0  0  0  0  0  0  0  0  0
   -1.2030   17.7480  -33.0710 C   0  0  0  0  0  0  0  0  0  0  0  0
   -0.6070   16.6130  -32.5200 C   0  0  0  0  0  0  0  0  0  0  0  0
    0.1760   16.7200  -31.3680 C   0  0  0  0  0  0  0  0  0  0  0  0
    0.3600   17.9710  -30.7530 C   0  0  0  0  0  0  0  0  0  0  0  0
    1.1960   18.1280  -29.6010 N   0  0  0  0  0  0  0  0  0  0  0  0
    0.6890   18.9430  -28.1590 S   0  0  0  0  0  0  0  0  0  0  0  0
    1.8770   19.5680  -27.4810 O   0  0  0  0  0  0  0  0  0  0  0  0
    0.0590   17.9530  -27.2210 O   0  0  0  0  0  0  0  0  0  0  0  0
   -0.5110   20.1550  -28.5980 C   0  0  0  0  0  0  0  0  0  0  0  0
   -0.0880   21.3730  -29.1430 C   0  0  0  0  0  0  0  0  0  0  0  0
   -1.0160   22.3750  -29.4380 C   0  0  0  0  0  0  0  0  0  0  0  0
   -2.3870   22.1790  -29.1790 C   0  0  0  0  0  0  0  0  0  0  0  0
   -3.3960   23.2270  -29.4900 C   0  0  0  0  0  0  0  0  0  0  0  0
   -4.7350   23.1170  -29.0820 C   0  0  0  0  0  0  0  0  0  0  0  0
   -5.6330   24.1360  -29.3940 C   0  0  0  0  0  0  0  0  0  0  0  0
   -5.1810   25.2400  -30.1130 C   0  0  0  0  0  0  0  0  0  0  0  0
   -5.9710   26.1730  -30.4080 O   0  0  0  0  0  0  0  0  0  0  0  0
   -3.8810   25.3020  -30.4980 N   0  0  0  0  0  0  0  0  0  0  0  0
   -3.0210   24.3280  -30.1990 N   0  0  0  0  0  0  0  0  0  0  0  0
   -2.8020   20.9470  -28.6380 C   0  0  0  0  0  0  0  0  0  0  0  0
   -1.8730   19.9440  -28.3480 C   0  0  0  0  0  0  0  0  0  0  0  0
   -0.2680   19.1010  -31.2910 C   0  0  0  0  0  0  0  0  0  0  0  0
   -5.6840   19.8130  -33.2510 C   0  0  0  0  0  0  0  0  0  0  0  0
   -5.6600   18.4300  -33.8420 C   0  0  0  0  0  0  0  0  0  0  0  0
   -6.8860   20.3240  -32.7300 C   0  0  0  0  0  0  0  0  0  0  0  0
   -8.1900   22.1256  -30.5257 H   0  0  0  0  0  0  0  0  0  0  0  0
   -8.3749   23.1725  -31.9736 H   0  0  0  0  0  0  0  0  0  0  0  0
   -9.0573   21.5109  -31.9736 H   0  0  0  0  0  0  0  0  0  0  0  0
   -5.8185   23.4284  -31.7779 H   0  0  0  0  0  0  0  0  0  0  0  0
   -3.6871   22.5490  -32.7168 H   0  0  0  0  0  0  0  0  0  0  0  0
   -1.8074   17.6615  -33.9860 H   0  0  0  0  0  0  0  0  0  0  0  0
   -0.7541   15.6313  -32.9940 H   0  0  0  0  0  0  0  0  0  0  0  0
    0.6496   15.8236  -30.9411 H   0  0  0  0  0  0  0  0  0  0  0  0
    0.9809   21.5422  -29.3401 H   0  0  0  0  0  0  0  0  0  0  0  0
   -0.6736   23.3242  -29.8758 H   0  0  0  0  0  0  0  0  0  0  0  0
   -5.0726   22.2334  -28.5205 H   0  0  0  0  0  0  0  0  0  0  0  0
   -6.6842   24.0694  -29.0768 H   0  0  0  0  0  0  0  0  0  0  0  0
   -3.8700   20.7719  -28.4413 H   0  0  0  0  0  0  0  0  0  0  0  0
   -2.2118   18.9877  -27.9229 H   0  0  0  0  0  0  0  0  0  0  0  0
   -0.1604   20.0758  -30.7927 H   0  0  0  0  0  0  0  0  0  0  0  0
   -5.6471   17.6855  -33.0324 H   0  0  0  0  0  0  0  0  0  0  0  0
   -6.5557   18.2810  -34.4629 H   0  0  0  0  0  0  0  0  0  0  0  0
   -4.7597   18.3122  -34.4629 H   0  0  0  0  0  0  0  0  0  0  0  0
   -7.7979   19.7095  -32.7593 H   0  0  0  0  0  0  0  0  0  0  0  0
  1  2  1  0
  2  3  2  0
  3  4  1  0
  4  5  2  0
  5  6  1  0
  6  7  1  0
  7  8  2  0
  7  9  2  0
  7 10  1  0
 10 11  2  0
 11 12  1  0
 12 13  2  0
 13 14  1  0
 14 15  1  0
 15 16  1  0
 16 17  2  0
 16 18  2  0
 16 19  1  0
 19 20  2  0
 20 21  1  0
 21 22  2  0
 22 23  1  0
 23 24  1  0
 24 25  2  0
 25 26  1  0
 26 27  2  0
 26 28  1  0
 28 29  1  0
 22 30  1  0
 30 31  2  0
 14 32  2  0
  5 33  1  0
 33 34  1  0
 33 35  2  0
 35  2  1  0
 32 10  1  0
 31 19  1  0
 29 23  2  0
  1 36  1  0
  1 37  1  0
  1 38  1  0
  3 39  1  0
  4 40  1  0
 11 41  1  0
 12 42  1  0
 13 43  1  0
 20 44  1  0
 21 45  1  0
 24 46  1  0
 25 47  1  0
 30 48  1  0
 31 49  1  0
 32 50  1  0
 34 51  1  0
 34 52  1  0
 34 53  1  0
 35 54  1  0
M  CHG  3   6  -1  15  -1  28  -1
M  END
>  <UniqueID>  (24) 
23

>  <SMILES>  (24) 
Cc1ccc([N-]S(=O)(=O)c2cccc([N-]S(=O)(=O)c3ccc(-c4ccc(=O)[n-]n4)cc3)c2)c(C)c1

>  <Energy>  (24) 
67.88123815219865

>  <Genealogy>  (24) 
Cc1ccc([N-]S(=O)(=O)c2cccc([N-]S(=O)(=O)c3ccc(-c4ccc(=O)[n-]n4)cc3)c2)c(C)c1 (protonated)
Cc1ccc([N-]S(=O)(=O)c2cccc([N-]S(=O)(=O)c3ccc(-c4ccc(=O)[n-]n4)cc3)c2)c(C)c1 (3D coordinates assigned)
Cc1ccc([N-]S(=O)(=O)c2cccc([N-]S(=O)(=O)c3ccc(-c4ccc(=O)[n-]n4)cc3)c2)c(C)c1 (optimized conformer: 67.88123815219865 kcal/mol)

>  <smiles>  (24) 
Cc1ccc(NS(=O)(=O)c2cccc(NS(=O)(=O)c3ccc(-c4ccc(=O)[nH]n4)cc3)c2)c(C)c1

>  <score_type>  (24) 
oracle

>  <origin>  (24) 
adgpu

>  <m_score__min__energy>  (24) 
-12.710000000000001

>  <m_primary>  (24) 
energy

$$$$
24:0
     RDKit          3D

 38 39  0  0  0  0  0  0  0  0999 V2000
   -1.6030   25.3180  -27.6070 C   0  0  0  0  0  0  0  0  0  0  0  0
   -2.0220   25.3070  -28.9680 O   0  0  0  0  0  0  0  0  0  0  0  0
   -2.3480   24.1480  -29.6890 C   0  0  0  0  0  0  0  0  0  0  0  0
   -1.5720   22.9760  -29.6120 C   0  0  0  0  0  0  0  0  0  0  0  0
   -1.9280   21.8440  -30.3460 C   0  0  0  0  0  0  0  0  0  0  0  0
   -3.0630   21.8600  -31.1610 C   0  0  0  0  0  0  0  0  0  0  0  0
   -3.4840   20.4300  -32.1020 S   0  0  0  0  0  0  0  0  0  0  0  0
   -2.3750   19.4170  -32.0350 O   0  0  0  0  0  0  0  0  0  0  0  0
   -3.6790   20.8290  -33.5370 O   0  0  0  0  0  0  0  0  0  0  0  0
   -4.9570   19.7350  -31.4950 N   0  0  0  0  0  0  0  0  0  0  0  0
   -5.9430   19.6430  -32.5740 C   0  0  0  0  0  0  0  0  0  0  0  0
   -7.0890   20.5730  -32.2910 C   0  0  0  0  0  0  0  0  0  0  0  0
   -6.8620   21.9540  -32.1630 C   0  0  0  0  0  0  0  0  0  0  0  0
   -7.9310   22.8260  -31.9340 C   0  0  0  0  0  0  0  0  0  0  0  0
   -9.2340   22.3270  -31.8430 C   0  0  0  0  0  0  0  0  0  0  0  0
   -9.4690   20.9560  -31.9840 C   0  0  0  0  0  0  0  0  0  0  0  0
   -8.4020   20.0810  -32.2130 C   0  0  0  0  0  0  0  0  0  0  0  0
   -3.8380   23.0230  -31.2470 C   0  0  0  0  0  0  0  0  0  0  0  0
   -3.4860   24.1720  -30.5120 C   0  0  0  0  0  0  0  0  0  0  0  0
   -4.2380   25.3560  -30.5740 O   0  0  0  0  0  0  0  0  0  0  0  0
   -5.6330   25.4410  -30.2990 C   0  0  0  0  0  0  0  0  0  0  0  0
   -2.4859   25.2948  -26.9513 H   0  0  0  0  0  0  0  0  0  0  0  0
   -0.9761   24.4360  -27.4092 H   0  0  0  0  0  0  0  0  0  0  0  0
   -1.0233   26.2317  -27.4092 H   0  0  0  0  0  0  0  0  0  0  0  0
   -0.6796   22.9525  -28.9693 H   0  0  0  0  0  0  0  0  0  0  0  0
   -1.3123   20.9347  -30.2828 H   0  0  0  0  0  0  0  0  0  0  0  0
   -5.3270   20.3950  -30.7720 H   0  0  0  0  0  0  0  0  0  0  0  0
   -5.4703   19.9240  -33.5267 H   0  0  0  0  0  0  0  0  0  0  0  0
   -6.3179   18.6109  -32.6390 H   0  0  0  0  0  0  0  0  0  0  0  0
   -5.8392   22.3507  -32.2433 H   0  0  0  0  0  0  0  0  0  0  0  0
   -7.7467   23.9050  -31.8254 H   0  0  0  0  0  0  0  0  0  0  0  0
  -10.0742   23.0131  -31.6605 H   0  0  0  0  0  0  0  0  0  0  0  0
  -10.4947   20.5648  -31.9147 H   0  0  0  0  0  0  0  0  0  0  0  0
   -8.5920   19.0041  -32.3324 H   0  0  0  0  0  0  0  0  0  0  0  0
   -4.7281   23.0395  -31.8931 H   0  0  0  0  0  0  0  0  0  0  0  0
   -5.7922   25.4507  -29.2106 H   0  0  0  0  0  0  0  0  0  0  0  0
   -6.0374   26.3655  -30.7370 H   0  0  0  0  0  0  0  0  0  0  0  0
   -6.1467   24.5725  -30.7370 H   0  0  0  0  0  0  0  0  0  0  0  0
  1  2  1  0
  2  3  1  0
  3  4  2  0
  4  5  1  0
  5  6  2  0
  6  7  1  0
  7  8  2  0
  7  9  2  0
  7 10  1  0
 10 11  1  0
 11 12  1  0
 12 13  2  0
 13 14  1  0
 14 15  2  0
 15 16  1  0
 16 17  2  0
  6 18  1  0
 18 19  2  0
 19 20  1  0
 20 21  1  0
 19  3  1  0
 17 12  1  0
  1 22  1  0
  1 23  1  0
  1 24  1  0
  4 25  1  0
  5 26  1  0
 10 27  1  0
 11 28  1  0
 11 29  1  0
 13 30  1  0
 14 31  1  0
 15 32  1  0
 16 33  1  0
 17 34  1  0
 18 35  1  0
 21 36  1  0
 21 37  1  0
 21 38  1  0
M  END
>  <UniqueID>  (25) 
24

>  <SMILES>  (25) 
COc1ccc(S(=O)(=O)NCc2ccccc2)cc1OC

>  <Energy>  (25) 
34.082181946769154

>  <Genealogy>  (25) 
COc1ccc(S(=O)(=O)NCc2ccccc2)cc1OC (3D coordinates assigned)
COc1ccc(S(=O)(=O)NCc2ccccc2)cc1OC (optimized conformer: 34.082181946769154 kcal/mol)

>  <smiles>  (25) 
COc1ccc(S(=O)(=O)NCc2ccccc2)cc1OC

>  <score_type>  (25) 
oracle

>  <origin>  (25) 
adgpu

>  <m_score__min__energy>  (25) 
-8.1400000000000006

>  <m_primary>  (25) 
energy

$$$$
25:0
     RDKit          3D

 33 33  0  0  0  0  0  0  0  0999 V2000
   -6.2560   19.0240  -33.6790 C   0  0  0  0  0  0  0  0  0  0  0  0
   -6.1920   20.4290  -33.4610 O   0  0  0  0  0  0  0  0  0  0  0  0
   -6.7510   21.0850  -32.3530 C   0  0  0  0  0  0  0  0  0  0  0  0
   -8.0860   20.8890  -31.9550 C   0  0  0  0  0  0  0  0  0  0  0  0
   -8.5970   21.5720  -30.8490 C   0  0  0  0  0  0  0  0  0  0  0  0
   -7.7840   22.4500  -30.1270 C   0  0  0  0  0  0  0  0  0  0  0  0
   -6.4420   22.6430  -30.5010 C   0  0  0  0  0  0  0  0  0  0  0  0
   -5.5900   23.5580  -29.7890 N   0  0  0  0  0  0  0  0  0  0  0  0
   -4.7000   24.4770  -30.4410 C   0  0  0  0  0  0  0  0  0  0  0  0
   -4.9950   24.9250  -31.5800 O   0  0  0  0  0  0  0  0  0  0  0  0
   -3.4800   24.9250  -29.8280 N   0  0  0  0  0  0  0  0  0  0  0  0
   -2.6560   24.3000  -28.7840 C   0  0  0  0  0  0  0  0  0  0  0  0
   -1.3580   25.1020  -28.5720 C   0  0  0  0  0  0  0  0  0  0  0  0
   -2.2850   22.8940  -29.2830 C   0  0  0  0  0  0  0  0  0  0  0  0
   -3.4420   24.1590  -27.4650 C   0  0  0  0  0  0  0  0  0  0  0  0
   -5.9420   21.9660  -31.6250 C   0  0  0  0  0  0  0  0  0  0  0  0
   -6.2797   18.5034  -32.7103 H   0  0  0  0  0  0  0  0  0  0  0  0
   -7.1661   18.7822  -34.2476 H   0  0  0  0  0  0  0  0  0  0  0  0
   -5.3717   18.7005  -34.2476 H   0  0  0  0  0  0  0  0  0  0  0  0
   -8.7294   20.1957  -32.5166 H   0  0  0  0  0  0  0  0  0  0  0  0
   -9.6430   21.4183  -30.5452 H   0  0  0  0  0  0  0  0  0  0  0  0
   -8.1953   22.9922  -29.2628 H   0  0  0  0  0  0  0  0  0  0  0  0
   -5.7200   23.6350  -28.7590 H   0  0  0  0  0  0  0  0  0  0  0  0
   -1.1705   25.2179  -27.4943 H   0  0  0  0  0  0  0  0  0  0  0  0
   -0.5162   24.5663  -29.0351 H   0  0  0  0  0  0  0  0  0  0  0  0
   -1.4604   26.0945  -29.0351 H   0  0  0  0  0  0  0  0  0  0  0  0
   -2.1106   22.2332  -28.4211 H   0  0  0  0  0  0  0  0  0  0  0  0
   -3.1079   22.4923  -29.8925 H   0  0  0  0  0  0  0  0  0  0  0  0
   -1.3710   22.9506  -29.8925 H   0  0  0  0  0  0  0  0  0  0  0  0
   -2.7557   24.2821  -26.6142 H   0  0  0  0  0  0  0  0  0  0  0  0
   -4.2241   24.9312  -27.4199 H   0  0  0  0  0  0  0  0  0  0  0  0
   -3.9069   23.1631  -27.4199 H   0  0  0  0  0  0  0  0  0  0  0  0
   -4.9003   22.1300  -31.9380 H   0  0  0  0  0  0  0  0  0  0  0  0
  1  2  1  0
  2  3  1  0
  3  4  2  0
  4  5  1  0
  5  6  2  0
  6  7  1  0
  7  8  1  0
  8  9  1  0
  9 10  2  0
  9 11  1  0
 11 12  1  0
 12 13  1  0
 12 14  1  0
 12 15  1  0
  7 16  2  0
 16  3  1  0
  1 17  1  0
  1 18  1  0
  1 19  1  0
  4 20  1  0
  5 21  1  0
  6 22  1  0
  8 23  1  0
 13 24  1  0
 13 25  1  0
 13 26  1  0
 14 27  1  0
 14 28  1  0
 14 29  1  0
 15 30  1  0
 15 31  1  0
 15 32  1  0
 16 33  1  0
M  CHG  1  11  -1
M  END
>  <UniqueID>  (26) 
25

>  <SMILES>  (26) 
COc1cccc(NC(=O)[N-]C(C)(C)C)c1

>  <Energy>  (26) 
31.57963772394021

>  <Genealogy>  (26) 
COc1cccc(NC(=O)[N-]C(C)(C)C)c1 (protonated)
COc1cccc(NC(=O)[N-]C(C)(C)C)c1 (3D coordinates assigned)
COc1cccc(NC(=O)[N-]C(C)(C)C)c1 (optimized conformer: 31.57963772394021 kcal/mol)

>  <smiles>  (26) 
COc1cccc(NC(=O)NC(C)(C)C)c1

>  <score_type>  (26) 
oracle

>  <origin>  (26) 
adgpu

>  <m_score__min__energy>  (26) 
-7.0099999999999998

>  <m_primary>  (26) 
energy

$$$$
26:0
     RDKit          3D

 36 37  0  0  0  0  0  0  0  0999 V2000
   -2.6910   25.2860  -26.3460 C   0  0  0  0  0  0  0  0  0  0  0  0
   -1.7580   24.3130  -27.0630 C   0  0  0  0  0  0  0  0  0  0  0  0
   -1.4300   24.7880  -28.4540 C   0  0  0  0  0  0  0  0  0  0  0  0
   -0.2610   24.6290  -28.8940 O   0  0  0  0  0  0  0  0  0  0  0  0
   -2.4340   25.2990  -29.3420 N   0  0  0  0  0  0  0  0  0  0  0  0
   -3.6600   24.6540  -29.7140 C   0  0  0  0  0  0  0  0  0  0  0  0
   -4.5860   25.3560  -30.4950 C   0  0  0  0  0  0  0  0  0  0  0  0
   -5.8030   24.7650  -30.8510 C   0  0  0  0  0  0  0  0  0  0  0  0
   -6.1090   23.4720  -30.4130 C   0  0  0  0  0  0  0  0  0  0  0  0
   -7.6610   22.7090  -30.8800 S   0  0  0  0  0  0  0  0  0  0  0  0
   -6.8380   21.3940  -31.7690 C   0  0  0  0  0  0  0  0  0  0  0  0
   -7.4510   20.1910  -31.9210 N   0  0  0  0  0  0  0  0  0  0  0  0
   -6.8360   19.1690  -32.5740 C   0  0  0  0  0  0  0  0  0  0  0  0
   -7.5340   17.8560  -32.7290 C   0  0  0  0  0  0  0  0  0  0  0  0
   -5.5560   19.3580  -33.1060 C   0  0  0  0  0  0  0  0  0  0  0  0
   -4.9440   20.6050  -32.9490 C   0  0  0  0  0  0  0  0  0  0  0  0
   -3.5670   20.8480  -33.4800 C   0  0  0  0  0  0  0  0  0  0  0  0
   -5.5940   21.5940  -32.2780 N   0  0  0  0  0  0  0  0  0  0  0  0
   -5.2020   22.7790  -29.6020 C   0  0  0  0  0  0  0  0  0  0  0  0
   -3.9860   23.3690  -29.2470 C   0  0  0  0  0  0  0  0  0  0  0  0
   -2.5780   25.1681  -25.2582 H   0  0  0  0  0  0  0  0  0  0  0  0
   -2.4353   26.3170  -26.6316 H   0  0  0  0  0  0  0  0  0  0  0  0
   -3.7319   25.0738  -26.6316 H   0  0  0  0  0  0  0  0  0  0  0  0
   -0.8253   24.2217  -26.4870 H   0  0  0  0  0  0  0  0  0  0  0  0
   -2.2663   23.3406  -27.1408 H   0  0  0  0  0  0  0  0  0  0  0  0
   -4.3553   26.3779  -30.8305 H   0  0  0  0  0  0  0  0  0  0  0  0
   -6.5201   25.3175  -31.4759 H   0  0  0  0  0  0  0  0  0  0  0  0
   -7.7557   17.4390  -31.7355 H   0  0  0  0  0  0  0  0  0  0  0  0
   -8.4730   18.0030  -33.2828 H   0  0  0  0  0  0  0  0  0  0  0  0
   -6.8869   17.1599  -33.2828 H   0  0  0  0  0  0  0  0  0  0  0  0
   -5.0421   18.5428  -33.6365 H   0  0  0  0  0  0  0  0  0  0  0  0
   -2.8669   20.9716  -32.6406 H   0  0  0  0  0  0  0  0  0  0  0  0
   -3.2546   19.9911  -34.0949 H   0  0  0  0  0  0  0  0  0  0  0  0
   -3.5668   21.7601  -34.0949 H   0  0  0  0  0  0  0  0  0  0  0  0
   -5.4471   21.7683  -29.2437 H   0  0  0  0  0  0  0  0  0  0  0  0
   -3.2815   22.8259  -28.5999 H   0  0  0  0  0  0  0  0  0  0  0  0
  1  2  1  0
  2  3  1  0
  3  4  2  0
  3  5  1  0
  5  6  1  0
  6  7  2  0
  7  8  1  0
  8  9  2  0
  9 10  1  0
 10 11  1  0
 11 12  2  0
 12 13  1  0
 13 14  1  0
 13 15  2  0
 15 16  1  0
 16 17  1  0
 16 18  2  0
  9 19  1  0
 19 20  2  0
 20  6  1  0
 18 11  1  0
  1 21  1  0
  1 22  1  0
  1 23  1  0
  2 24  1  0
  2 25  1  0
  7 26  1  0
  8 27  1  0
 14 28  1  0
 14 29  1  0
 14 30  1  0
 15 31  1  0
 17 32  1  0
 17 33  1  0
 17 34  1  0
 19 35  1  0
 20 36  1  0
M  CHG  1   5  -1
M  END
>  <UniqueID>  (27) 
26

>  <SMILES>  (27) 
CCC(=O)[N-]c1ccc(Sc2nc(C)cc(C)n2)cc1

>  <Energy>  (27) 
31.706518976153433

>  <Genealogy>  (27) 
CCC(=O)[N-]c1ccc(Sc2nc(C)cc(C)n2)cc1 (protonated)
CCC(=O)[N-]c1ccc(Sc2nc(C)cc(C)n2)cc1 (3D coordinates assigned)
CCC(=O)[N-]c1ccc(Sc2nc(C)cc(C)n2)cc1 (optimized conformer: 31.706518976153433 kcal/mol)

>  <smiles>  (27) 
CCC(=O)Nc1ccc(Sc2nc(C)cc(C)n2)cc1

>  <score_type>  (27) 
oracle

>  <origin>  (27) 
adgpu

>  <m_score__min__energy>  (27) 
-9.3300000000000001

>  <m_primary>  (27) 
energy

$$$$
27:0
     RDKit          3D

 50 52  0  0  0  0  0  0  0  0999 V2000
    1.8620   18.4280  -28.6210 C   0  0  0  0  0  0  0  0  0  0  0  0
    0.8680   18.8870  -29.6460 C   0  0  0  0  0  0  0  0  0  0  0  0
    0.1380   20.0670  -29.4410 C   0  0  0  0  0  0  0  0  0  0  0  0
   -0.7640   20.5160  -30.4110 C   0  0  0  0  0  0  0  0  0  0  0  0
   -0.9480   19.7910  -31.6020 C   0  0  0  0  0  0  0  0  0  0  0  0
   -1.8480   20.2450  -32.6260 N   0  0  0  0  0  0  0  0  0  0  0  0
   -3.0450   19.5530  -33.0090 C   0  0  0  0  0  0  0  0  0  0  0  0
   -3.1850   18.3270  -32.7520 O   0  0  0  0  0  0  0  0  0  0  0  0
   -4.1120   20.2720  -33.7750 C   0  0  0  0  0  0  0  0  0  0  0  0
   -5.0810   20.8700  -32.8520 N   0  0  0  0  0  0  0  0  0  0  0  0
   -4.7690   22.0920  -32.1620 C   0  0  0  0  0  0  0  0  0  0  0  0
   -5.6860   23.1570  -32.1490 C   0  0  0  0  0  0  0  0  0  0  0  0
   -5.3830   24.3400  -31.4680 C   0  0  0  0  0  0  0  0  0  0  0  0
   -4.1620   24.4710  -30.7980 C   0  0  0  0  0  0  0  0  0  0  0  0
   -3.8640   25.6470  -30.1210 O   0  0  0  0  0  0  0  0  0  0  0  0
   -3.2440   23.4170  -30.8090 C   0  0  0  0  0  0  0  0  0  0  0  0
   -3.5440   22.2320  -31.4880 C   0  0  0  0  0  0  0  0  0  0  0  0
   -6.5210   19.9880  -32.4310 S   0  0  0  0  0  0  0  0  0  0  0  0
   -7.5410   20.1300  -33.5260 O   0  0  0  0  0  0  0  0  0  0  0  0
   -7.1000   20.5420  -31.1600 O   0  0  0  0  0  0  0  0  0  0  0  0
   -6.1480   18.2770  -32.2560 C   0  0  0  0  0  0  0  0  0  0  0  0
   -6.0770   17.5880  -31.0620 C   0  0  0  0  0  0  0  0  0  0  0  0
   -5.7700   16.3000  -31.3100 N   0  0  0  0  0  0  0  0  0  0  0  0
   -5.6470   16.1560  -32.6210 N   0  0  0  0  0  0  0  0  0  0  0  0
   -5.3190   14.8870  -33.2610 C   0  0  0  0  0  0  0  0  0  0  0  0
   -5.8860   17.3360  -33.2350 C   0  0  0  0  0  0  0  0  0  0  0  0
   -5.7900   17.5780  -34.7130 C   0  0  0  0  0  0  0  0  0  0  0  0
   -0.1850   18.6330  -31.8190 C   0  0  0  0  0  0  0  0  0  0  0  0
    0.7160   18.1840  -30.8500 C   0  0  0  0  0  0  0  0  0  0  0  0
    1.4615   18.6129  -27.6133 H   0  0  0  0  0  0  0  0  0  0  0  0
    2.0502   17.3518  -28.7490 H   0  0  0  0  0  0  0  0  0  0  0  0
    2.8033   18.9826  -28.7490 H   0  0  0  0  0  0  0  0  0  0  0  0
    0.2755   20.6418  -28.5133 H   0  0  0  0  0  0  0  0  0  0  0  0
   -1.3330   21.4420  -30.2413 H   0  0  0  0  0  0  0  0  0  0  0  0
   -1.5920   21.1060  -33.1610 H   0  0  0  0  0  0  0  0  0  0  0  0
   -3.6516   21.0650  -34.3826 H   0  0  0  0  0  0  0  0  0  0  0  0
   -4.6321   19.5543  -34.4265 H   0  0  0  0  0  0  0  0  0  0  0  0
   -6.6462   23.0595  -32.6768 H   0  0  0  0  0  0  0  0  0  0  0  0
   -6.1059   25.1690  -31.4591 H   0  0  0  0  0  0  0  0  0  0  0  0
   -2.2837   23.5199  -30.2825 H   0  0  0  0  0  0  0  0  0  0  0  0
   -2.8178   21.4058  -31.4946 H   0  0  0  0  0  0  0  0  0  0  0  0
   -6.2446   18.0222  -30.0653 H   0  0  0  0  0  0  0  0  0  0  0  0
   -5.1227   14.1274  -32.4900 H   0  0  0  0  0  0  0  0  0  0  0  0
   -6.1631   14.5635  -33.8879 H   0  0  0  0  0  0  0  0  0  0  0  0
   -4.4239   15.0130  -33.8879 H   0  0  0  0  0  0  0  0  0  0  0  0
   -5.3899   18.5865  -34.8942 H   0  0  0  0  0  0  0  0  0  0  0  0
   -5.1200   16.8312  -35.1641 H   0  0  0  0  0  0  0  0  0  0  0  0
   -6.7897   17.4936  -35.1641 H   0  0  0  0  0  0  0  0  0  0  0  0
   -0.2973   18.0743  -32.7598 H   0  0  0  0  0  0  0  0  0  0  0  0
    1.3086   17.2753  -31.0322 H   0  0  0  0  0  0  0  0  0  0  0  0
  1  2  1  0
  2  3  2  0
  3  4  1  0
  4  5  2  0
  5  6  1  0
  6  7  1  0
  7  8  2  0
  7  9  1  0
  9 10  1  0
 10 11  1  0
 11 12  2  0
 12 13  1  0
 13 14  2  0
 14 15  1  0
 14 16  1  0
 16 17  2  0
 10 18  1  0
 18 19  2  0
 18 20  2  0
 18 21  1  0
 21 22  1  0
 22 23  2  0
 23 24  1  0
 24 25  1  0
 24 26  1  0
 26 27  1  0
  5 28  1  0
 28 29  2  0
 29  2  1  0
 17 11  1  0
 26 21  2  0
  1 30  1  0
  1 31  1  0
  1 32  1  0
  3 33  1  0
  4 34  1  0
  6 35  1  0
  9 36  1  0
  9 37  1  0
 12 38  1  0
 13 39  1  0
 16 40  1  0
 17 41  1  0
 22 42  1  0
 25 43  1  0
 25 44  1  0
 25 45  1  0
 27 46  1  0
 27 47  1  0
 27 48  1  0
 28 49  1  0
 29 50  1  0
M  CHG  1  15  -1
M  END
>  <UniqueID>  (28) 
27

>  <SMILES>  (28) 
Cc1ccc(NC(=O)CN(c2ccc([O-])cc2)S(=O)(=O)c2cnn(C)c2C)cc1

>  <Energy>  (28) 
86.71216702158797

>  <Genealogy>  (28) 
Cc1ccc(NC(=O)CN(c2ccc([O-])cc2)S(=O)(=O)c2cnn(C)c2C)cc1 (protonated)
Cc1ccc(NC(=O)CN(c2ccc([O-])cc2)S(=O)(=O)c2cnn(C)c2C)cc1 (3D coordinates assigned)
Cc1ccc(NC(=O)CN(c2ccc([O-])cc2)S(=O)(=O)c2cnn(C)c2C)cc1 (optimized conformer: 86.71216702158797 kcal/mol)

>  <smiles>  (28) 
Cc1ccc(NC(=O)CN(c2ccc(O)cc2)S(=O)(=O)c2cnn(C)c2C)cc1

>  <score_type>  (28) 
oracle

>  <origin>  (28) 
adgpu

>  <m_score__min__energy>  (28) 
-9.8399999999999999

>  <m_primary>  (28) 
energy

$$$$
28:0
     RDKit          3D

 44 47  0  0  0  0  0  0  0  0999 V2000
    2.8500   25.7830  -25.7850 C   0  0  0  0  0  0  0  0  0  0  0  0
    1.4480   25.6200  -26.2070 N   0  0  0  0  0  0  0  0  0  0  0  0
    1.1600   25.0650  -27.4330 C   0  0  0  0  0  0  0  0  0  0  0  0
    2.0730   24.6680  -28.2090 O   0  0  0  0  0  0  0  0  0  0  0  0
   -0.1670   24.9470  -27.8040 C   0  0  0  0  0  0  0  0  0  0  0  0
   -0.6840   24.4230  -28.9250 N   0  0  0  0  0  0  0  0  0  0  0  0
   -2.0230   24.5770  -28.7310 C   0  0  0  0  0  0  0  0  0  0  0  0
   -3.0350   24.1390  -29.7170 C   0  0  0  0  0  0  0  0  0  0  0  0
   -2.8100   23.0050  -30.5150 C   0  0  0  0  0  0  0  0  0  0  0  0
   -3.7670   22.5930  -31.4470 C   0  0  0  0  0  0  0  0  0  0  0  0
   -4.9690   23.2940  -31.5890 C   0  0  0  0  0  0  0  0  0  0  0  0
   -5.8940   22.8480  -32.5440 O   0  0  0  0  0  0  0  0  0  0  0  0
   -7.2130   22.4530  -32.2760 C   0  0  0  0  0  0  0  0  0  0  0  0
   -8.0880   23.3070  -31.9690 O   0  0  0  0  0  0  0  0  0  0  0  0
   -7.5670   21.0200  -32.3620 C   0  0  0  0  0  0  0  0  0  0  0  0
   -8.7300   20.5830  -31.7000 C   0  0  0  0  0  0  0  0  0  0  0  0
   -9.0750   19.2300  -31.6850 C   0  0  0  0  0  0  0  0  0  0  0  0
   -8.2670   18.2950  -32.3300 C   0  0  0  0  0  0  0  0  0  0  0  0
   -7.1210   18.7130  -33.0090 C   0  0  0  0  0  0  0  0  0  0  0  0
   -6.7720   20.0680  -33.0520 C   0  0  0  0  0  0  0  0  0  0  0  0
   -5.6580   20.4280  -33.8130 O   0  0  0  0  0  0  0  0  0  0  0  0
   -5.1910   24.4420  -30.8060 C   0  0  0  0  0  0  0  0  0  0  0  0
   -4.2340   24.8560  -29.8750 C   0  0  0  0  0  0  0  0  0  0  0  0
   -2.3500   25.1680  -27.5490 N   0  0  0  0  0  0  0  0  0  0  0  0
   -1.1480   25.3880  -26.9930 C   0  0  0  0  0  0  0  0  0  0  0  0
   -0.8920   25.9790  -25.7950 N   0  0  0  0  0  0  0  0  0  0  0  0
   -1.9860   26.4290  -24.9250 C   0  0  0  0  0  0  0  0  0  0  0  0
    0.4250   26.0870  -25.3980 C   0  0  0  0  0  0  0  0  0  0  0  0
    0.6970   26.6190  -24.2850 O   0  0  0  0  0  0  0  0  0  0  0  0
    2.9039   25.7893  -24.6863 H   0  0  0  0  0  0  0  0  0  0  0  0
    3.4502   24.9486  -26.1768 H   0  0  0  0  0  0  0  0  0  0  0  0
    3.2428   26.7329  -26.1768 H   0  0  0  0  0  0  0  0  0  0  0  0
   -1.8742   22.4372  -30.4057 H   0  0  0  0  0  0  0  0  0  0  0  0
   -3.5731   21.7102  -32.0739 H   0  0  0  0  0  0  0  0  0  0  0  0
   -9.3734   21.3147  -31.1894 H   0  0  0  0  0  0  0  0  0  0  0  0
   -9.9860   18.9014  -31.1633 H   0  0  0  0  0  0  0  0  0  0  0  0
   -8.5323   17.2278  -32.3040 H   0  0  0  0  0  0  0  0  0  0  0  0
   -6.4863   17.9706  -33.5150 H   0  0  0  0  0  0  0  0  0  0  0  0
   -5.3450   21.3820  -33.9300 H   0  0  0  0  0  0  0  0  0  0  0  0
   -6.1215   25.0160  -30.9271 H   0  0  0  0  0  0  0  0  0  0  0  0
   -4.4204   25.7496  -29.2613 H   0  0  0  0  0  0  0  0  0  0  0  0
   -1.6909   26.3076  -23.8723 H   0  0  0  0  0  0  0  0  0  0  0  0
   -2.2016   27.4889  -25.1255 H   0  0  0  0  0  0  0  0  0  0  0  0
   -2.8850   25.8276  -25.1255 H   0  0  0  0  0  0  0  0  0  0  0  0
  1  2  1  0
  2  3  1  0
  3  4  2  0
  3  5  1  0
  5  6  1  0
  6  7  1  0
  7  8  1  0
  8  9  2  0
  9 10  1  0
 10 11  2  0
 11 12  1  0
 12 13  1  0
 13 14  2  0
 13 15  1  0
 15 16  2  0
 16 17  1  0
 17 18  2  0
 18 19  1  0
 19 20  2  0
 20 21  1  0
 11 22  1  0
 22 23  2  0
  7 24  2  0
 24 25  1  0
 25 26  1  0
 26 27  1  0
 26 28  1  0
 28 29  2  0
 28  2  1  0
 25  5  2  0
 23  8  1  0
 20 15  1  0
  1 30  1  0
  1 31  1  0
  1 32  1  0
  9 33  1  0
 10 34  1  0
 16 35  1  0
 17 36  1  0
 18 37  1  0
 19 38  1  0
 21 39  1  0
 22 40  1  0
 23 41  1  0
 27 42  1  0
 27 43  1  0
 27 44  1  0
M  CHG  1   6  -1
M  END
>  <UniqueID>  (29) 
28

>  <SMILES>  (29) 
Cn1c(=O)c2[n-]c(-c3ccc(OC(=O)c4ccccc4O)cc3)nc2n(C)c1=O

>  <Energy>  (29) 
101.7256991799864

>  <Genealogy>  (29) 
Cn1c(=O)c2[n-]c(-c3ccc(OC(=O)c4ccccc4O)cc3)nc2n(C)c1=O (protonated)
Cn1c(=O)c2[n-]c(-c3ccc(OC(=O)c4ccccc4O)cc3)nc2n(C)c1=O (3D coordinates assigned)
Cn1c(=O)c2[n-]c(-c3ccc(OC(=O)c4ccccc4O)cc3)nc2n(C)c1=O (optimized conformer: 101.7256991799864 kcal/mol)

>  <smiles>  (29) 
Cn1c(=O)c2[nH]c(-c3ccc(OC(=O)c4ccccc4O)cc3)nc2n(C)c1=O

>  <score_type>  (29) 
oracle

>  <origin>  (29) 
adgpu

>  <m_score__min__energy>  (29) 
-9.0399999999999991

>  <m_primary>  (29) 
energy

$$$$
29:0
     RDKit          3D

 29 30  0  0  0  0  0  0  0  0999 V2000
   -8.6760   23.4970  -32.0030 O   0  0  0  0  0  0  0  0  0  0  0  0
   -7.8260   22.8380  -31.3440 C   0  0  0  0  0  0  0  0  0  0  0  0
   -8.0930   21.4740  -30.9980 N   0  0  0  0  0  0  0  0  0  0  0  0
   -8.7800   20.5370  -31.8780 C   0  0  0  0  0  0  0  0  0  0  0  0
   -7.7910   19.6110  -32.5300 C   0  0  0  0  0  0  0  0  0  0  0  0
   -6.8840   20.0920  -33.4900 C   0  0  0  0  0  0  0  0  0  0  0  0
   -5.9860   19.2180  -34.1110 C   0  0  0  0  0  0  0  0  0  0  0  0
   -5.9890   17.8590  -33.7820 C   0  0  0  0  0  0  0  0  0  0  0  0
   -4.8630   16.7650  -34.5650 Cl  0  0  0  0  0  0  0  0  0  0  0  0
   -6.8920   17.3730  -32.8320 C   0  0  0  0  0  0  0  0  0  0  0  0
   -7.7910   18.2440  -32.2090 C   0  0  0  0  0  0  0  0  0  0  0  0
   -6.5300   23.4490  -30.9770 C   0  0  0  0  0  0  0  0  0  0  0  0
   -6.4880   24.8310  -30.7200 C   0  0  0  0  0  0  0  0  0  0  0  0
   -5.3020   25.4430  -30.3060 C   0  0  0  0  0  0  0  0  0  0  0  0
   -4.1440   24.6840  -30.1430 C   0  0  0  0  0  0  0  0  0  0  0  0
   -2.9680   25.2920  -29.7200 O   0  0  0  0  0  0  0  0  0  0  0  0
   -4.1630   23.3140  -30.4120 C   0  0  0  0  0  0  0  0  0  0  0  0
   -5.3390   22.6890  -30.8480 C   0  0  0  0  0  0  0  0  0  0  0  0
   -5.2740   21.3330  -31.1720 O   0  0  0  0  0  0  0  0  0  0  0  0
   -9.4970   19.9458  -31.2895 H   0  0  0  0  0  0  0  0  0  0  0  0
   -9.3089   21.1026  -32.6593 H   0  0  0  0  0  0  0  0  0  0  0  0
   -6.8805   21.1599  -33.7539 H   0  0  0  0  0  0  0  0  0  0  0  0
   -5.2762   19.6003  -34.8594 H   0  0  0  0  0  0  0  0  0  0  0  0
   -6.8953   16.3036  -32.5742 H   0  0  0  0  0  0  0  0  0  0  0  0
   -8.5015   17.8566  -31.4640 H   0  0  0  0  0  0  0  0  0  0  0  0
   -7.3978   25.4362  -30.8461 H   0  0  0  0  0  0  0  0  0  0  0  0
   -5.2820   26.5249  -30.1085 H   0  0  0  0  0  0  0  0  0  0  0  0
   -3.2466   22.7200  -30.2805 H   0  0  0  0  0  0  0  0  0  0  0  0
   -6.0790   20.7210  -31.1730 H   0  0  0  0  0  0  0  0  0  0  0  0
  1  2  2  0
  2  3  1  0
  3  4  1  0
  4  5  1  0
  5  6  2  0
  6  7  1  0
  7  8  2  0
  8  9  1  0
  8 10  1  0
 10 11  2  0
  2 12  1  0
 12 13  2  0
 13 14  1  0
 14 15  2  0
 15 16  1  0
 15 17  1  0
 17 18  2  0
 18 19  1  0
 11  5  1  0
 18 12  1  0
  4 20  1  0
  4 21  1  0
  6 22  1  0
  7 23  1  0
 10 24  1  0
 11 25  1  0
 13 26  1  0
 14 27  1  0
 17 28  1  0
 19 29  1  0
M  CHG  2   3  -1  16  -1
M  END
>  <UniqueID>  (30) 
29

>  <SMILES>  (30) 
O=C([N-]Cc1ccc(Cl)cc1)c1ccc([O-])cc1O

>  <Energy>  (30) 
32.78966738654117

>  <Genealogy>  (30) 
O=C([N-]Cc1ccc(Cl)cc1)c1ccc([O-])cc1O (protonated)
O=C([N-]Cc1ccc(Cl)cc1)c1ccc([O-])cc1O (3D coordinates assigned)
O=C([N-]Cc1ccc(Cl)cc1)c1ccc([O-])cc1O (optimized conformer: 32.78966738654117 kcal/mol)

>  <smiles>  (30) 
O=C(NCc1ccc(Cl)cc1)c1ccc(O)cc1O

>  <score_type>  (30) 
oracle

>  <origin>  (30) 
adgpu

>  <m_score__min__energy>  (30) 
-9.8800000000000008

>  <m_primary>  (30) 
energy

$$$$
30:0
     RDKit          3D

 53 55  0  0  0  0  0  0  0  0999 V2000
   -1.0100   21.7300  -29.8550 C   0  0  0  0  0  0  0  0  0  0  0  0
   -2.0950   21.5270  -30.8240 N   0  0  0  0  0  0  0  0  0  0  0  0
   -3.4720   21.8750  -30.4480 C   0  0  0  0  0  0  0  0  0  0  0  0
   -3.9700   23.0360  -31.2550 C   0  0  0  0  0  0  0  0  0  0  0  0
   -4.4850   22.8370  -32.3880 O   0  0  0  0  0  0  0  0  0  0  0  0
   -3.8720   24.3640  -30.7290 N   0  0  0  0  0  0  0  0  0  0  0  0
   -4.9770   25.3150  -30.7080 C   0  0  0  0  0  0  0  0  0  0  0  0
   -6.2750   24.6550  -30.1760 C   0  0  0  0  0  0  0  0  0  0  0  0
   -6.7530   23.4790  -30.9480 N   0  0  0  0  0  0  0  0  0  0  0  0
   -7.8880   23.7620  -31.8470 C   0  0  0  0  0  0  0  0  0  0  0  0
   -8.7870   22.5390  -31.8250 C   0  0  0  0  0  0  0  0  0  0  0  0
   -8.5550   21.9340  -30.4590 C   0  0  0  0  0  0  0  0  0  0  0  0
   -7.1260   22.3230  -30.1060 C   0  0  0  0  0  0  0  0  0  0  0  0
   -1.8070   20.9930  -32.1350 C   0  0  0  0  0  0  0  0  0  0  0  0
   -0.7860   21.5650  -32.9140 C   0  0  0  0  0  0  0  0  0  0  0  0
   -0.5120   21.0820  -34.1960 C   0  0  0  0  0  0  0  0  0  0  0  0
    0.7590   21.8150  -35.1550 Cl  0  0  0  0  0  0  0  0  0  0  0  0
   -1.2460   20.0130  -34.7090 C   0  0  0  0  0  0  0  0  0  0  0  0
   -2.2560   19.4270  -33.9460 C   0  0  0  0  0  0  0  0  0  0  0  0
   -2.5530   19.9150  -32.6600 C   0  0  0  0  0  0  0  0  0  0  0  0
   -3.5320   19.3000  -31.8670 O   0  0  0  0  0  0  0  0  0  0  0  0
   -4.9110   19.3240  -32.1130 C   0  0  0  0  0  0  0  0  0  0  0  0
   -5.4900   20.2150  -33.0370 C   0  0  0  0  0  0  0  0  0  0  0  0
   -6.8750   20.2240  -33.2320 C   0  0  0  0  0  0  0  0  0  0  0  0
   -7.6930   19.3540  -32.5040 C   0  0  0  0  0  0  0  0  0  0  0  0
   -9.4290   19.3710  -32.7470 Cl  0  0  0  0  0  0  0  0  0  0  0  0
   -7.1240   18.4770  -31.5730 C   0  0  0  0  0  0  0  0  0  0  0  0
   -5.7380   18.4670  -31.3760 C   0  0  0  0  0  0  0  0  0  0  0  0
   -1.4117   21.6548  -28.8337 H   0  0  0  0  0  0  0  0  0  0  0  0
   -0.2377   20.9608  -30.0028 H   0  0  0  0  0  0  0  0  0  0  0  0
   -0.5681   22.7264  -30.0028 H   0  0  0  0  0  0  0  0  0  0  0  0
   -4.1240   21.0070  -30.6255 H   0  0  0  0  0  0  0  0  0  0  0  0
   -3.4857   22.1549  -29.3843 H   0  0  0  0  0  0  0  0  0  0  0  0
   -4.7108   26.1599  -30.0559 H   0  0  0  0  0  0  0  0  0  0  0  0
   -5.1584   25.6608  -31.7364 H   0  0  0  0  0  0  0  0  0  0  0  0
   -6.0914   24.3302  -29.1412 H   0  0  0  0  0  0  0  0  0  0  0  0
   -7.0624   25.4178  -30.2659 H   0  0  0  0  0  0  0  0  0  0  0  0
   -5.9500   23.1790  -31.5520 H   0  0  0  0  0  0  0  0  0  0  0  0
   -8.4410   24.6438  -31.4912 H   0  0  0  0  0  0  0  0  0  0  0  0
   -7.5371   23.9730  -32.8679 H   0  0  0  0  0  0  0  0  0  0  0  0
   -9.8412   22.8272  -31.9503 H   0  0  0  0  0  0  0  0  0  0  0  0
   -8.5631   21.8362  -32.6411 H   0  0  0  0  0  0  0  0  0  0  0  0
   -9.2628   22.3476  -29.7255 H   0  0  0  0  0  0  0  0  0  0  0  0
   -8.7047   20.8442  -30.4539 H   0  0  0  0  0  0  0  0  0  0  0  0
   -7.0647   22.5988  -29.0429 H   0  0  0  0  0  0  0  0  0  0  0  0
   -6.4423   21.4801  -30.2848 H   0  0  0  0  0  0  0  0  0  0  0  0
   -0.1968   22.4014  -32.5100 H   0  0  0  0  0  0  0  0  0  0  0  0
   -1.0281   19.6312  -35.7173 H   0  0  0  0  0  0  0  0  0  0  0  0
   -2.8243   18.5774  -34.3524 H   0  0  0  0  0  0  0  0  0  0  0  0
   -4.8513   20.9058  -33.6070 H   0  0  0  0  0  0  0  0  0  0  0  0
   -7.3220   20.9171  -33.9598 H   0  0  0  0  0  0  0  0  0  0  0  0
   -7.7662   17.7954  -30.9960 H   0  0  0  0  0  0  0  0  0  0  0  0
   -5.2958   17.7818  -30.6378 H   0  0  0  0  0  0  0  0  0  0  0  0
  1  2  1  0
  2  3  1  0
  3  4  1  0
  4  5  2  0
  4  6  1  0
  6  7  1  0
  7  8  1  0
  8  9  1  0
  9 10  1  0
 10 11  1  0
 11 12  1  0
 12 13  1  0
  2 14  1  0
 14 15  2  0
 15 16  1  0
 16 17  1  0
 16 18  2  0
 18 19  1  0
 19 20  2  0
 20 21  1  0
 21 22  1  0
 22 23  2  0
 23 24  1  0
 24 25  2  0
 25 26  1  0
 25 27  1  0
 27 28  2  0
 13  9  1  0
 20 14  1  0
 28 22  1  0
  1 29  1  0
  1 30  1  0
  1 31  1  0
  3 32  1  0
  3 33  1  0
  7 34  1  0
  7 35  1  0
  8 36  1  0
  8 37  1  0
  9 38  1  0
 10 39  1  0
 10 40  1  0
 11 41  1  0
 11 42  1  0
 12 43  1  0
 12 44  1  0
 13 45  1  0
 13 46  1  0
 15 47  1  0
 18 48  1  0
 19 49  1  0
 23 50  1  0
 24 51  1  0
 27 52  1  0
 28 53  1  0
M  CHG  2   6  -1   9   1
M  END
>  <UniqueID>  (31) 
30

>  <SMILES>  (31) 
CN(CC(=O)[N-]CC[NH+]1CCCC1)c1cc(Cl)ccc1Oc1ccc(Cl)cc1

>  <Energy>  (31) 
67.14998621134644

>  <Genealogy>  (31) 
CN(CC(=O)[N-]CC[NH+]1CCCC1)c1cc(Cl)ccc1Oc1ccc(Cl)cc1 (protonated)
CN(CC(=O)[N-]CC[NH+]1CCCC1)c1cc(Cl)ccc1Oc1ccc(Cl)cc1 (3D coordinates assigned)
CN(CC(=O)[N-]CC[NH+]1CCCC1)c1cc(Cl)ccc1Oc1ccc(Cl)cc1 (nonaromatic ring conformer: 67.14998621134644 kcal/mol)

>  <smiles>  (31) 
CN(CC(=O)NCCN1CCCC1)c1cc(Cl)ccc1Oc1ccc(Cl)cc1

>  <score_type>  (31) 
oracle

>  <origin>  (31) 
adgpu

>  <m_score__min__energy>  (31) 
-9.7100000000000009

>  <m_primary>  (31) 
energy

$$$$
31:0
     RDKit          3D

 48 50  0  0  0  0  0  0  0  0999 V2000
   -0.7230   18.9390  -33.7900 C   0  0  0  0  0  0  0  0  0  0  0  0
   -1.8640   18.1210  -34.0210 O   0  0  0  0  0  0  0  0  0  0  0  0
   -3.1930   18.5690  -33.9500 C   0  0  0  0  0  0  0  0  0  0  0  0
   -3.5550   19.7220  -33.2250 C   0  0  0  0  0  0  0  0  0  0  0  0
   -4.8920   20.1450  -33.1740 C   0  0  0  0  0  0  0  0  0  0  0  0
   -5.2550   21.3240  -32.4330 N   0  0  0  0  0  0  0  0  0  0  0  0
   -6.5700   21.7830  -32.1090 C   0  0  0  0  0  0  0  0  0  0  0  0
   -7.6340   21.2240  -32.4850 O   0  0  0  0  0  0  0  0  0  0  0  0
   -6.4900   23.0150  -31.3350 C   0  0  0  0  0  0  0  0  0  0  0  0
   -7.5090   23.8060  -30.8100 C   0  0  0  0  0  0  0  0  0  0  0  0
   -7.1490   24.9590  -30.0950 C   0  0  0  0  0  0  0  0  0  0  0  0
   -5.7920   25.2970  -29.9200 C   0  0  0  0  0  0  0  0  0  0  0  0
   -4.7710   24.4860  -30.4600 C   0  0  0  0  0  0  0  0  0  0  0  0
   -3.3980   24.8460  -30.2780 N   0  0  0  0  0  0  0  0  0  0  0  0
   -5.1560   23.3370  -31.1720 C   0  0  0  0  0  0  0  0  0  0  0  0
   -4.3780   22.2920  -31.8460 C   0  0  0  0  0  0  0  0  0  0  0  0
   -3.1220   22.2080  -31.8710 O   0  0  0  0  0  0  0  0  0  0  0  0
   -5.8690   19.4070  -33.8550 C   0  0  0  0  0  0  0  0  0  0  0  0
   -5.5200   18.2630  -34.5740 C   0  0  0  0  0  0  0  0  0  0  0  0
   -4.1800   17.8360  -34.6260 C   0  0  0  0  0  0  0  0  0  0  0  0
   -3.7890   16.6920  -35.3400 O   0  0  0  0  0  0  0  0  0  0  0  0
   -3.8920   15.3580  -34.8500 C   0  0  0  0  0  0  0  0  0  0  0  0
   -2.4780   14.7830  -34.6630 C   0  0  0  0  0  0  0  0  0  0  0  0
   -1.3790   15.7230  -34.9960 N   0  0  0  0  0  0  0  0  0  0  0  0
   -0.2160   15.5740  -34.1030 C   0  0  0  0  0  0  0  0  0  0  0  0
   -0.9700   15.6390  -36.4090 C   0  0  0  0  0  0  0  0  0  0  0  0
   -0.5658   19.0517  -32.7071 H   0  0  0  0  0  0  0  0  0  0  0  0
    0.1628   18.4689  -34.2421 H   0  0  0  0  0  0  0  0  0  0  0  0
   -0.8838   19.9288  -34.2421 H   0  0  0  0  0  0  0  0  0  0  0  0
   -2.7817   20.2962  -32.6937 H   0  0  0  0  0  0  0  0  0  0  0  0
   -8.5656   23.5350  -30.9516 H   0  0  0  0  0  0  0  0  0  0  0  0
   -7.9317   25.6034  -29.6682 H   0  0  0  0  0  0  0  0  0  0  0  0
   -5.5257   26.2032  -29.3562 H   0  0  0  0  0  0  0  0  0  0  0  0
   -2.6400   24.2650  -30.7010 H   0  0  0  0  0  0  0  0  0  0  0  0
   -3.1140   25.6790  -29.7210 H   0  0  0  0  0  0  0  0  0  0  0  0
   -6.9194   19.7319  -33.8227 H   0  0  0  0  0  0  0  0  0  0  0  0
   -6.2968   17.6916  -35.1032 H   0  0  0  0  0  0  0  0  0  0  0  0
   -4.4203   15.3592  -33.8851 H   0  0  0  0  0  0  0  0  0  0  0  0
   -4.4525   14.7407  -35.5675 H   0  0  0  0  0  0  0  0  0  0  0  0
   -2.3660   14.4835  -33.6105 H   0  0  0  0  0  0  0  0  0  0  0  0
   -2.3896   13.9397  -35.3638 H   0  0  0  0  0  0  0  0  0  0  0  0
   -1.7570   16.6890  -34.8450 H   0  0  0  0  0  0  0  0  0  0  0  0
   -0.5499   15.6168  -33.0558 H   0  0  0  0  0  0  0  0  0  0  0  0
    0.2708   14.6061  -34.2934 H   0  0  0  0  0  0  0  0  0  0  0  0
    0.4991   16.3879  -34.2934 H   0  0  0  0  0  0  0  0  0  0  0  0
    0.1060   15.4180  -36.4667 H   0  0  0  0  0  0  0  0  0  0  0  0
   -1.5360   14.8384  -36.9076 H   0  0  0  0  0  0  0  0  0  0  0  0
   -1.1747   16.5979  -36.9076 H   0  0  0  0  0  0  0  0  0  0  0  0
  1  2  1  0
  2  3  1  0
  3  4  2  0
  4  5  1  0
  5  6  1  0
  6  7  1  0
  7  8  2  0
  7  9  1  0
  9 10  2  0
 10 11  1  0
 11 12  2  0
 12 13  1  0
 13 14  1  0
 13 15  2  0
 15 16  1  0
 16 17  2  0
  5 18  2  0
 18 19  1  0
 19 20  2  0
 20 21  1  0
 21 22  1  0
 22 23  1  0
 23 24  1  0
 24 25  1  0
 24 26  1  0
 20  3  1  0
 16  6  1  0
 15  9  1  0
  1 27  1  0
  1 28  1  0
  1 29  1  0
  4 30  1  0
 10 31  1  0
 11 32  1  0
 12 33  1  0
 14 34  1  0
 14 35  1  0
 18 36  1  0
 19 37  1  0
 22 38  1  0
 22 39  1  0
 23 40  1  0
 23 41  1  0
 24 42  1  0
 25 43  1  0
 25 44  1  0
 25 45  1  0
 26 46  1  0
 26 47  1  0
 26 48  1  0
M  CHG  1  24   1
M  END
>  <UniqueID>  (32) 
31

>  <SMILES>  (32) 
COc1cc(N2C(=O)c3cccc(N)c3C2=O)ccc1OCC[NH+](C)C

>  <Energy>  (32) 
87.09779383331376

>  <Genealogy>  (32) 
COc1cc(N2C(=O)c3cccc(N)c3C2=O)ccc1OCC[NH+](C)C (protonated)
COc1cc(N2C(=O)c3cccc(N)c3C2=O)ccc1OCC[NH+](C)C (3D coordinates assigned)
COc1cc(N2C(=O)c3cccc(N)c3C2=O)ccc1OCC[NH+](C)C (nonaromatic ring conformer: 87.09779383331376 kcal/mol)

>  <smiles>  (32) 
COc1cc(N2C(=O)c3cccc(N)c3C2=O)ccc1OCCN(C)C

>  <score_type>  (32) 
oracle

>  <origin>  (32) 
adgpu

>  <m_score__min__energy>  (32) 
-6.8799999999999999

>  <m_primary>  (32) 
energy

$$$$
32:0
     RDKit          3D

 27 28  0  0  0  0  0  0  0  0999 V2000
   -8.4820   21.0280  -32.3200 C   0  0  0  0  0  0  0  0  0  0  0  0
   -7.3470   21.8460  -31.7770 C   0  0  0  0  0  0  0  0  0  0  0  0
   -7.6020   23.0000  -31.0320 C   0  0  0  0  0  0  0  0  0  0  0  0
   -6.5350   23.7820  -30.5620 C   0  0  0  0  0  0  0  0  0  0  0  0
   -6.8380   25.0190  -29.7520 C   0  0  0  0  0  0  0  0  0  0  0  0
   -5.2400   23.4050  -30.8330 N   0  0  0  0  0  0  0  0  0  0  0  0
   -4.1370   24.1800  -30.3350 C   0  0  0  0  0  0  0  0  0  0  0  0
   -3.8920   25.3090  -30.8410 O   0  0  0  0  0  0  0  0  0  0  0  0
   -3.2880   23.6590  -29.2520 C   0  0  0  0  0  0  0  0  0  0  0  0
   -3.5620   22.5500  -28.4600 C   0  0  0  0  0  0  0  0  0  0  0  0
   -2.5700   22.2970  -27.5050 C   0  0  0  0  0  0  0  0  0  0  0  0
   -1.5190   23.2020  -27.5380 C   0  0  0  0  0  0  0  0  0  0  0  0
   -1.8210   24.3180  -28.7580 S   0  0  0  0  0  0  0  0  0  0  0  0
   -4.9790   22.2880  -31.5860 C   0  0  0  0  0  0  0  0  0  0  0  0
   -3.7900   21.9520  -31.8470 O   0  0  0  0  0  0  0  0  0  0  0  0
   -6.0260   21.5010  -32.0710 C   0  0  0  0  0  0  0  0  0  0  0  0
   -9.0637   20.6087  -31.4858 H   0  0  0  0  0  0  0  0  0  0  0  0
   -9.1322   21.6665  -32.9361 H   0  0  0  0  0  0  0  0  0  0  0  0
   -8.0820   20.2092  -32.9361 H   0  0  0  0  0  0  0  0  0  0  0  0
   -8.6387   23.2959  -30.8137 H   0  0  0  0  0  0  0  0  0  0  0  0
   -6.7792   24.7789  -28.6801 H   0  0  0  0  0  0  0  0  0  0  0  0
   -6.1055   25.8035  -29.9928 H   0  0  0  0  0  0  0  0  0  0  0  0
   -7.8502   25.3761  -29.9928 H   0  0  0  0  0  0  0  0  0  0  0  0
   -4.4663   21.9338  -28.5722 H   0  0  0  0  0  0  0  0  0  0  0  0
   -2.6193   21.4586  -26.7946 H   0  0  0  0  0  0  0  0  0  0  0  0
   -0.6387   23.1911  -26.8786 H   0  0  0  0  0  0  0  0  0  0  0  0
   -5.8108   20.6123  -32.6825 H   0  0  0  0  0  0  0  0  0  0  0  0
  1  2  1  0
  2  3  1  0
  3  4  2  0
  4  5  1  0
  4  6  1  0
  6  7  1  0
  7  8  2  0
  7  9  1  0
  9 10  2  0
 10 11  1  0
 11 12  2  0
 12 13  1  0
  6 14  1  0
 14 15  2  0
 14 16  1  0
 16  2  2  0
 13  9  1  0
  1 17  1  0
  1 18  1  0
  1 19  1  0
  3 20  1  0
  5 21  1  0
  5 22  1  0
  5 23  1  0
 10 24  1  0
 11 25  1  0
 12 26  1  0
 16 27  1  0
M  END
>  <UniqueID>  (33) 
32

>  <SMILES>  (33) 
Cc1cc(C)n(C(=O)c2cccs2)c(=O)c1

>  <Energy>  (33) 
61.91085226165329

>  <Genealogy>  (33) 
Cc1cc(C)n(C(=O)c2cccs2)c(=O)c1 (3D coordinates assigned)
Cc1cc(C)n(C(=O)c2cccs2)c(=O)c1 (optimized conformer: 61.91085226165329 kcal/mol)

>  <smiles>  (33) 
Cc1cc(C)n(C(=O)c2cccs2)c(=O)c1

>  <score_type>  (33) 
oracle

>  <origin>  (33) 
adgpu

>  <m_score__min__energy>  (33) 
-6.5899999999999999

>  <m_primary>  (33) 
energy

$$$$
33:0
     RDKit          3D

 45 47  0  0  0  0  0  0  0  0999 V2000
   -1.5900   25.6490  -29.3370 N   0  0  0  0  0  0  0  0  0  0  0  0
   -1.0070   25.0830  -27.8110 S   0  0  0  0  0  0  0  0  0  0  0  0
    0.4950   25.1530  -27.8040 O   0  0  0  0  0  0  0  0  0  0  0  0
   -1.5410   25.9540  -26.7090 O   0  0  0  0  0  0  0  0  0  0  0  0
   -1.5480   23.4210  -27.5590 C   0  0  0  0  0  0  0  0  0  0  0  0
   -0.6680   22.4780  -27.0040 C   0  0  0  0  0  0  0  0  0  0  0  0
   -1.0770   21.1560  -26.8140 C   0  0  0  0  0  0  0  0  0  0  0  0
   -2.3690   20.7670  -27.1680 C   0  0  0  0  0  0  0  0  0  0  0  0
   -3.2530   21.6950  -27.7210 C   0  0  0  0  0  0  0  0  0  0  0  0
   -2.8490   23.0270  -27.9340 C   0  0  0  0  0  0  0  0  0  0  0  0
   -3.7360   23.9920  -28.5240 N   0  0  0  0  0  0  0  0  0  0  0  0
   -4.2750   23.9610  -30.1710 S   0  0  0  0  0  0  0  0  0  0  0  0
   -4.0550   25.3110  -30.7930 O   0  0  0  0  0  0  0  0  0  0  0  0
   -5.7420   23.6360  -30.2110 O   0  0  0  0  0  0  0  0  0  0  0  0
   -3.3360   22.7640  -31.0560 C   0  0  0  0  0  0  0  0  0  0  0  0
   -3.9660   21.9740  -32.0250 C   0  0  0  0  0  0  0  0  0  0  0  0
   -3.2150   21.1110  -32.8260 C   0  0  0  0  0  0  0  0  0  0  0  0
   -1.8210   21.0430  -32.6820 C   0  0  0  0  0  0  0  0  0  0  0  0
   -1.0550   20.2410  -33.5950 N   0  0  0  0  0  0  0  0  0  0  0  0
   -0.8640   20.6010  -35.0010 C   0  0  0  0  0  0  0  0  0  0  0  0
    0.4900   21.2370  -35.2020 C   0  0  0  0  0  0  0  0  0  0  0  0
    0.6380   22.3180  -36.0890 C   0  0  0  0  0  0  0  0  0  0  0  0
    1.9010   22.8710  -36.3260 C   0  0  0  0  0  0  0  0  0  0  0  0
    2.0380   23.9370  -37.2070 O   0  0  0  0  0  0  0  0  0  0  0  0
    3.0250   22.3500  -35.6800 C   0  0  0  0  0  0  0  0  0  0  0  0
    2.8890   21.2790  -34.7940 C   0  0  0  0  0  0  0  0  0  0  0  0
    1.6290   20.7210  -34.5530 C   0  0  0  0  0  0  0  0  0  0  0  0
    1.5160   19.6490  -33.6710 O   0  0  0  0  0  0  0  0  0  0  0  0
   -1.1990   21.8020  -31.6760 C   0  0  0  0  0  0  0  0  0  0  0  0
   -1.9530   22.6570  -30.8680 C   0  0  0  0  0  0  0  0  0  0  0  0
   -2.6320   25.6880  -29.2710 H   0  0  0  0  0  0  0  0  0  0  0  0
    0.3495   22.7821  -26.7172 H   0  0  0  0  0  0  0  0  0  0  0  0
   -0.3799   20.4212  -26.3850 H   0  0  0  0  0  0  0  0  0  0  0  0
   -2.6917   19.7272  -27.0111 H   0  0  0  0  0  0  0  0  0  0  0  0
   -4.2725   21.3835  -27.9923 H   0  0  0  0  0  0  0  0  0  0  0  0
   -5.0566   22.0332  -32.1559 H   0  0  0  0  0  0  0  0  0  0  0  0
   -3.7191   20.4812  -33.5738 H   0  0  0  0  0  0  0  0  0  0  0  0
   -0.7920   19.2700  -33.3070 H   0  0  0  0  0  0  0  0  0  0  0  0
   -0.9341   19.6944  -35.6200 H   0  0  0  0  0  0  0  0  0  0  0  0
   -1.6431   21.3201  -35.2942 H   0  0  0  0  0  0  0  0  0  0  0  0
   -0.2444   22.7312  -36.5995 H   0  0  0  0  0  0  0  0  0  0  0  0
    4.0180   22.7838  -35.8694 H   0  0  0  0  0  0  0  0  0  0  0  0
    3.7752   20.8731  -34.2842 H   0  0  0  0  0  0  0  0  0  0  0  0
   -0.1125   21.7226  -31.5238 H   0  0  0  0  0  0  0  0  0  0  0  0
   -1.4587   23.2473  -30.0824 H   0  0  0  0  0  0  0  0  0  0  0  0
  1  2  1  0
  2  3  2  0
  2  4  2  0
  2  5  1  0
  5  6  2  0
  6  7  1  0
  7  8  2  0
  8  9  1  0
  9 10  2  0
 10 11  1  0
 11 12  1  0
 12 13  2  0
 12 14  2  0
 12 15  1  0
 15 16  2  0
 16 17  1  0
 17 18  2  0
 18 19  1  0
 19 20  1  0
 20 21  1  0
 21 22  2  0
 22 23  1  0
 23 24  1  0
 23 25  2  0
 25 26  1  0
 26 27  2  0
 27 28  1  0
 18 29  1  0
 29 30  2  0
 10  5  1  0
 30 15  1  0
 27 21  1  0
  1 31  1  0
  6 32  1  0
  7 33  1  0
  8 34  1  0
  9 35  1  0
 16 36  1  0
 17 37  1  0
 19 38  1  0
 20 39  1  0
 20 40  1  0
 22 41  1  0
 25 42  1  0
 26 43  1  0
 29 44  1  0
 30 45  1  0
M  CHG  4   1  -1  11  -1  24  -1  28  -1
M  END
>  <UniqueID>  (34) 
33

>  <SMILES>  (34) 
[NH-]S(=O)(=O)c1ccccc1[N-]S(=O)(=O)c1ccc(NCc2cc([O-])ccc2[O-])cc1

>  <Energy>  (34) 
50.594633207730766

>  <Genealogy>  (34) 
[NH-]S(=O)(=O)c1ccccc1[N-]S(=O)(=O)c1ccc(NCc2cc([O-])ccc2[O-])cc1 (protonated)
[NH-]S(=O)(=O)c1ccccc1[N-]S(=O)(=O)c1ccc(NCc2cc([O-])ccc2[O-])cc1 (3D coordinates assigned)
[NH-]S(=O)(=O)c1ccccc1[N-]S(=O)(=O)c1ccc(NCc2cc([O-])ccc2[O-])cc1 (optimized conformer: 50.594633207730766 kcal/mol)

>  <smiles>  (34) 
NS(=O)(=O)c1ccccc1NS(=O)(=O)c1ccc(NCc2cc(O)ccc2O)cc1

>  <score_type>  (34) 
oracle

>  <origin>  (34) 
adgpu

>  <m_score__min__energy>  (34) 
-12.779999999999999

>  <m_primary>  (34) 
energy

$$$$
34:0
     RDKit          3D

 30 31  0  0  0  0  0  0  0  0999 V2000
   -6.5030   25.1510  -30.0980 C   0  0  0  0  0  0  0  0  0  0  0  0
   -6.2610   23.8660  -30.8410 C   0  0  0  0  0  0  0  0  0  0  0  0
   -7.3430   23.0400  -31.1860 C   0  0  0  0  0  0  0  0  0  0  0  0
   -7.1290   21.8420  -31.8740 C   0  0  0  0  0  0  0  0  0  0  0  0
   -8.6090   20.7250  -32.3330 Br  0  0  0  0  0  0  0  0  0  0  0  0
   -5.8320   21.4570  -32.2170 C   0  0  0  0  0  0  0  0  0  0  0  0
   -4.7480   22.2710  -31.8820 C   0  0  0  0  0  0  0  0  0  0  0  0
   -4.9530   23.4910  -31.2140 C   0  0  0  0  0  0  0  0  0  0  0  0
   -3.8410   24.3190  -30.8370 N   0  0  0  0  0  0  0  0  0  0  0  0
   -3.3870   24.5580  -29.5000 C   0  0  0  0  0  0  0  0  0  0  0  0
   -4.1040   24.1690  -28.5410 O   0  0  0  0  0  0  0  0  0  0  0  0
   -2.1520   25.2560  -29.2550 N   0  0  0  0  0  0  0  0  0  0  0  0
   -1.6190   25.5130  -27.9450 C   0  0  0  0  0  0  0  0  0  0  0  0
   -0.8640   26.6760  -27.7300 C   0  0  0  0  0  0  0  0  0  0  0  0
   -0.3540   26.9630  -26.4600 C   0  0  0  0  0  0  0  0  0  0  0  0
   -0.6070   26.1000  -25.3900 C   0  0  0  0  0  0  0  0  0  0  0  0
    0.0310   26.4630  -23.7970 Cl  0  0  0  0  0  0  0  0  0  0  0  0
   -1.3800   24.9520  -25.5900 C   0  0  0  0  0  0  0  0  0  0  0  0
   -1.8910   24.6610  -26.8590 C   0  0  0  0  0  0  0  0  0  0  0  0
   -6.4672   24.9608  -29.0152 H   0  0  0  0  0  0  0  0  0  0  0  0
   -5.7268   25.8823  -30.3677 H   0  0  0  0  0  0  0  0  0  0  0  0
   -7.4920   25.5498  -30.3677 H   0  0  0  0  0  0  0  0  0  0  0  0
   -8.3661   23.3377  -30.9130 H   0  0  0  0  0  0  0  0  0  0  0  0
   -5.6635   20.5108  -32.7521 H   0  0  0  0  0  0  0  0  0  0  0  0
   -3.7269   21.9556  -32.1425 H   0  0  0  0  0  0  0  0  0  0  0  0
   -1.5660   25.5350  -30.0730 H   0  0  0  0  0  0  0  0  0  0  0  0
   -0.6722   27.3658  -28.5651 H   0  0  0  0  0  0  0  0  0  0  0  0
    0.2478   27.8702  -26.3026 H   0  0  0  0  0  0  0  0  0  0  0  0
   -1.5867   24.2761  -24.7471 H   0  0  0  0  0  0  0  0  0  0  0  0
   -2.5079   23.7626  -27.0085 H   0  0  0  0  0  0  0  0  0  0  0  0
  1  2  1  0
  2  3  2  0
  3  4  1  0
  4  5  1  0
  4  6  2  0
  6  7  1  0
  7  8  2  0
  8  9  1  0
  9 10  1  0
 10 11  2  0
 10 12  1  0
 12 13  1  0
 13 14  2  0
 14 15  1  0
 15 16  2  0
 16 17  1  0
 16 18  1  0
 18 19  2  0
  8  2  1  0
 19 13  1  0
  1 20  1  0
  1 21  1  0
  1 22  1  0
  3 23  1  0
  6 24  1  0
  7 25  1  0
 12 26  1  0
 14 27  1  0
 15 28  1  0
 18 29  1  0
 19 30  1  0
M  CHG  1   9  -1
M  END
>  <UniqueID>  (35) 
34

>  <SMILES>  (35) 
Cc1cc(Br)ccc1[N-]C(=O)Nc1ccc(Cl)cc1

>  <Energy>  (35) 
38.69431073601299

>  <Genealogy>  (35) 
Cc1cc(Br)ccc1[N-]C(=O)Nc1ccc(Cl)cc1 (protonated)
Cc1cc(Br)ccc1[N-]C(=O)Nc1ccc(Cl)cc1 (3D coordinates assigned)
Cc1cc(Br)ccc1[N-]C(=O)Nc1ccc(Cl)cc1 (optimized conformer: 38.69431073601299 kcal/mol)

>  <smiles>  (35) 
Cc1cc(Br)ccc1NC(=O)Nc1ccc(Cl)cc1

>  <score_type>  (35) 
oracle

>  <origin>  (35) 
adgpu

>  <m_score__min__energy>  (35) 
-9.5399999999999991

>  <m_primary>  (35) 
energy

$$$$
35:0
     RDKit          3D

 43 45  0  0  0  0  0  0  0  0999 V2000
   -0.0498   21.0381  -28.2488 H   0  0  0  0  0  0  0  0  0  0  0  0
   -0.8700   21.7710  -28.2640 C   0  0  0  0  0  0  0  0  0  0  0  0
   -0.6170   23.0920  -28.6400 C   0  0  0  0  0  0  0  0  0  0  0  0
    0.4041   23.3970  -28.9127 H   0  0  0  0  0  0  0  0  0  0  0  0
   -1.6620   24.0360  -28.6720 C   0  0  0  0  0  0  0  0  0  0  0  0
   -1.4350   25.3830  -28.9970 O   0  0  0  0  0  0  0  0  0  0  0  0
   -0.8510   26.3400  -28.1170 C   0  0  0  0  0  0  0  0  0  0  0  0
   -1.0343   26.0396  -27.0748 H   0  0  0  0  0  0  0  0  0  0  0  0
    0.2327   26.3917  -28.2985 H   0  0  0  0  0  0  0  0  0  0  0  0
   -1.3006   27.3274  -28.2985 H   0  0  0  0  0  0  0  0  0  0  0  0
   -2.9720   23.6240  -28.3490 C   0  0  0  0  0  0  0  0  0  0  0  0
   -4.0670   24.5500  -28.3590 N   0  0  0  0  0  0  0  0  0  0  0  0
   -5.0830   24.4960  -29.1680 C   0  0  0  0  0  0  0  0  0  0  0  0
   -5.3910   23.2800  -30.3040 S   0  0  0  0  0  0  0  0  0  0  0  0
   -6.8340   24.0340  -30.7410 C   0  0  0  0  0  0  0  0  0  0  0  0
   -7.9710   23.4180  -31.9800 S   0  0  0  0  0  0  0  0  0  0  0  0
   -8.2220   21.8010  -31.1670 C   0  0  0  0  0  0  0  0  0  0  0  0
   -9.3008   21.6200  -31.0514 H   0  0  0  0  0  0  0  0  0  0  0  0
   -7.7276   21.8218  -30.1846 H   0  0  0  0  0  0  0  0  0  0  0  0
   -7.6210   20.6890  -31.9830 C   0  0  0  0  0  0  0  0  0  0  0  0
   -6.4560   20.9070  -32.7350 C   0  0  0  0  0  0  0  0  0  0  0  0
   -5.9924   21.9044  -32.7491 H   0  0  0  0  0  0  0  0  0  0  0  0
   -5.8820   19.8630  -33.4660 C   0  0  0  0  0  0  0  0  0  0  0  0
   -4.9692   20.0449  -34.0523 H   0  0  0  0  0  0  0  0  0  0  0  0
   -6.4620   18.5820  -33.4580 C   0  0  0  0  0  0  0  0  0  0  0  0
   -5.8490   17.4800  -34.2320 C   0  0  0  0  0  0  0  0  0  0  0  0
   -5.3790   17.7000  -35.3820 O   0  0  0  0  0  0  0  0  0  0  0  0
   -5.7920   16.1940  -33.6860 O   0  0  0  0  0  0  0  0  0  0  0  0
   -5.0150   15.8810  -32.5350 C   0  0  0  0  0  0  0  0  0  0  0  0
   -5.5927   16.1137  -31.6283 H   0  0  0  0  0  0  0  0  0  0  0  0
   -4.7616   14.8106  -32.5437 H   0  0  0  0  0  0  0  0  0  0  0  0
   -4.0904   16.4768  -32.5437 H   0  0  0  0  0  0  0  0  0  0  0  0
   -7.6290   18.3680  -32.7010 C   0  0  0  0  0  0  0  0  0  0  0  0
   -8.0941   17.3713  -32.6848 H   0  0  0  0  0  0  0  0  0  0  0  0
   -8.2010   19.4120  -31.9700 C   0  0  0  0  0  0  0  0  0  0  0  0
   -9.1120   19.2314  -31.3805 H   0  0  0  0  0  0  0  0  0  0  0  0
   -7.0460   25.1630  -30.0280 N   0  0  0  0  0  0  0  0  0  0  0  0
   -6.0740   25.4130  -29.1530 N   0  0  0  0  0  0  0  0  0  0  0  0
   -6.0940   26.2420  -28.5200 H   0  0  0  0  0  0  0  0  0  0  0  0
   -3.2080   22.3050  -27.9420 C   0  0  0  0  0  0  0  0  0  0  0  0
   -4.2222   21.9968  -27.6481 H   0  0  0  0  0  0  0  0  0  0  0  0
   -2.1630   21.3780  -27.9070 C   0  0  0  0  0  0  0  0  0  0  0  0
   -2.4730   19.7230  -27.4170 Cl  0  0  0  0  0  0  0  0  0  0  0  0
  1  2  1  0
  2  3  2  0
  3  4  1  0
  3  5  1  0
  5  6  1  0
  6  7  1  0
  7  8  1  0
  7  9  1  0
  7 10  1  0
  5 11  2  0
 11 12  1  0
 12 13  2  0
 13 14  1  0
 14 15  1  0
 15 16  1  0
 16 17  1  0
 17 18  1  0
 17 19  1  0
 17 20  1  0
 20 21  2  0
 21 22  1  0
 21 23  1  0
 23 24  1  0
 23 25  2  0
 25 26  1  0
 26 27  2  0
 26 28  1  0
 28 29  1  0
 29 30  1  0
 29 31  1  0
 29 32  1  0
 25 33  1  0
 33 34  1  0
 33 35  2  0
 35 36  1  0
 15 37  2  0
 37 38  1  0
 38 39  1  0
 11 40  1  0
 40 41  1  0
 40 42  2  0
 42 43  1  0
 42  2  1  0
 38 13  1  0
 35 20  1  0
M  END
>  <UniqueID>  (36) 
35

>  <SMILES>  (36) 
COC(=O)c1ccc(CSc2n[nH]/c(=N/c3cc(Cl)ccc3OC)s2)cc1

>  <Energy>  (36) 
80.34043666361251

>  <Genealogy>  (36) 
COC(=O)c1ccc(CSc2n[nH]/c(=N/c3cc(Cl)ccc3OC)s2)cc1 (cis-trans isomerization)
COC(=O)c1ccc(CSc2n[nH]/c(=N/c3cc(Cl)ccc3OC)s2)cc1 (3D coordinates assigned)
COC(=O)c1ccc(CSc2n[nH]/c(=N/c3cc(Cl)ccc3OC)s2)cc1 (optimized conformer: 80.34043666361251 kcal/mol)

>  <smiles>  (36) 
COC(=O)c1ccc(CSc2n[nH]c(=Nc3cc(Cl)ccc3OC)s2)cc1

>  <score_type>  (36) 
oracle

>  <origin>  (36) 
adgpu

>  <m_score__min__energy>  (36) 
-9.5

>  <m_primary>  (36) 
energy

$$$$
36:0
     RDKit          3D

 58 61  0  0  0  0  0  0  0  0999 V2000
   -7.4825   23.5914  -33.1767 H   0  0  0  0  0  0  0  0  0  0  0  0
   -7.3210   23.3280  -32.1210 C   0  0  0  0  0  0  0  0  0  0  0  0
   -6.3880   23.9950  -31.3920 N   0  0  0  0  0  0  0  0  0  0  0  0
   -6.1560   23.7140  -30.0810 C   0  0  0  0  0  0  0  0  0  0  0  0
   -5.1240   24.4390  -29.3920 N   0  0  0  0  0  0  0  0  0  0  0  0
   -3.8820   24.0790  -29.2430 C   0  0  0  0  0  0  0  0  0  0  0  0
   -3.0210   24.9240  -28.5990 N   0  0  0  0  0  0  0  0  0  0  0  0
   -1.7360   24.5270  -28.4280 C   0  0  0  0  0  0  0  0  0  0  0  0
   -1.2840   23.3320  -28.8650 C   0  0  0  0  0  0  0  0  0  0  0  0
    0.0160   23.1790  -28.5690 N   0  0  0  0  0  0  0  0  0  0  0  0
    0.3180   24.3440  -27.9310 C   0  0  0  0  0  0  0  0  0  0  0  0
    1.6720   24.5990  -27.4060 C   0  0  0  0  0  0  0  0  0  0  0  0
    2.5830   24.9300  -28.2110 O   0  0  0  0  0  0  0  0  0  0  0  0
    1.9590   24.5060  -25.9950 N   0  0  0  0  0  0  0  0  0  0  0  0
    0.9630   23.9630  -25.0650 C   0  0  0  0  0  0  0  0  0  0  0  0
    1.2913   24.1420  -24.0305 H   0  0  0  0  0  0  0  0  0  0  0  0
   -0.0045   24.4585  -25.2335 H   0  0  0  0  0  0  0  0  0  0  0  0
    0.8553   22.8813  -25.2335 H   0  0  0  0  0  0  0  0  0  0  0  0
    3.2850   24.8990  -25.5090 C   0  0  0  0  0  0  0  0  0  0  0  0
    3.2870   24.8996  -24.4090 H   0  0  0  0  0  0  0  0  0  0  0  0
    4.0367   24.1850  -25.8767 H   0  0  0  0  0  0  0  0  0  0  0  0
    3.5263   25.9073  -25.8767 H   0  0  0  0  0  0  0  0  0  0  0  0
   -0.7420   25.2070  -27.8340 N   0  0  0  0  0  0  0  0  0  0  0  0
   -0.8490   26.5570  -27.2530 C   0  0  0  0  0  0  0  0  0  0  0  0
   -1.4165   27.1777  -27.9620 H   0  0  0  0  0  0  0  0  0  0  0  0
   -1.6290   26.5240  -25.9360 C   0  0  0  0  0  0  0  0  0  0  0  0
   -0.9245   26.5538  -25.0918 H   0  0  0  0  0  0  0  0  0  0  0  0
   -2.2994   27.3946  -25.8850 H   0  0  0  0  0  0  0  0  0  0  0  0
   -2.2235   25.5999  -25.8850 H   0  0  0  0  0  0  0  0  0  0  0  0
    0.5190   27.2310  -27.0950 C   0  0  0  0  0  0  0  0  0  0  0  0
    0.7503   27.3450  -26.0256 H   0  0  0  0  0  0  0  0  0  0  0  0
    1.2910   26.6101  -27.5730 H   0  0  0  0  0  0  0  0  0  0  0  0
    0.4972   28.2215  -27.5730 H   0  0  0  0  0  0  0  0  0  0  0  0
   -2.1420   22.4580  -29.5110 C   0  0  0  0  0  0  0  0  0  0  0  0
   -1.7926   21.4792  -29.8713 H   0  0  0  0  0  0  0  0  0  0  0  0
   -3.4370   22.8540  -29.6850 N   0  0  0  0  0  0  0  0  0  0  0  0
   -6.8660   22.6670  -29.4670 C   0  0  0  0  0  0  0  0  0  0  0  0
   -6.6622   22.3987  -28.4199 H   0  0  0  0  0  0  0  0  0  0  0  0
   -7.8310   21.9710  -30.1960 C   0  0  0  0  0  0  0  0  0  0  0  0
   -8.3985   21.1580  -29.7197 H   0  0  0  0  0  0  0  0  0  0  0  0
   -8.0780   22.3060  -31.5330 C   0  0  0  0  0  0  0  0  0  0  0  0
   -9.0930   21.5400  -32.3480 C   0  0  0  0  0  0  0  0  0  0  0  0
   -9.9755   21.3385  -31.7230 H   0  0  0  0  0  0  0  0  0  0  0  0
   -9.3655   22.1486  -33.2228 H   0  0  0  0  0  0  0  0  0  0  0  0
   -8.5400   20.2560  -32.8280 N   0  0  2  0  0  0  0  0  0  0  0  0
   -8.9400   20.0320  -33.7730 H   0  0  0  0  0  0  0  0  0  0  0  0
   -8.8660   19.1490  -31.9180 C   0  0  0  0  0  0  0  0  0  0  0  0
   -8.8719   19.5043  -30.8770 H   0  0  0  0  0  0  0  0  0  0  0  0
   -9.8623   18.7383  -32.1388 H   0  0  0  0  0  0  0  0  0  0  0  0
   -7.7870   18.0910  -32.1040 C   0  0  0  0  0  0  0  0  0  0  0  0
   -7.4792   17.6804  -31.1310 H   0  0  0  0  0  0  0  0  0  0  0  0
   -8.1445   17.2452  -32.7097 H   0  0  0  0  0  0  0  0  0  0  0  0
   -6.6230   18.8110  -32.7700 C   0  0  2  0  0  0  0  0  0  0  0  0
   -6.3707   18.3585  -33.7403 H   0  0  0  0  0  0  0  0  0  0  0  0
   -5.4780   18.7310  -31.9930 F   0  0  0  0  0  0  0  0  0  0  0  0
   -7.0730   20.2590  -32.9200 C   0  0  0  0  0  0  0  0  0  0  0  0
   -6.6438   20.8748  -32.1159 H   0  0  0  0  0  0  0  0  0  0  0  0
   -6.7371   20.6809  -33.8787 H   0  0  0  0  0  0  0  0  0  0  0  0
  1  2  1  0
  2  3  2  0
  3  4  1  0
  4  5  1  0
  5  6  2  0
  6  7  1  0
  7  8  2  0
  8  9  1  0
  9 10  1  0
 10 11  2  0
 11 12  1  0
 12 13  2  0
 12 14  1  0
 14 15  1  0
 15 16  1  0
 15 17  1  0
 15 18  1  0
 14 19  1  0
 19 20  1  0
 19 21  1  0
 19 22  1  0
 11 23  1  0
 23 24  1  0
 24 25  1  0
 24 26  1  0
 26 27  1  0
 26 28  1  0
 26 29  1  0
 24 30  1  0
 30 31  1  0
 30 32  1  0
 30 33  1  0
  9 34  2  0
 34 35  1  0
 34 36  1  0
  4 37  2  0
 37 38  1  0
 37 39  1  0
 39 40  1  0
 39 41  2  0
 41 42  1  0
 42 43  1  0
 42 44  1  0
 42 45  1  0
 45 46  1  6
 45 47  1  0
 47 48  1  0
 47 49  1  0
 47 50  1  0
 50 51  1  0
 50 52  1  0
 50 53  1  0
 53 54  1  6
 53 55  1  0
 53 56  1  0
 56 57  1  0
 56 58  1  0
 41  2  1  0
 56 45  1  0
 36  6  1  0
 23  8  1  0
M  CHG  2  36  -1  45   1
M  END
>  <UniqueID>  (37) 
36

>  <SMILES>  (37) 
CC(C)n1c(C(=O)N(C)C)nc2c[n-]/c(=N\c3ccc(C[N@@H+]4CC[C@H](F)C4)cn3)nc21

>  <Energy>  (37) 
112.22491180222076

>  <Genealogy>  (37) 
CC(C)n1c(C(=O)N(C)C)nc2c[n-]c(=Nc3ccc(C[NH+]4CCC(F)C4)cn3)nc21 (protonated)
CC(C)n1c(C(=O)N(C)C)nc2c[n-]c(=Nc3ccc(C[N@@H+]4CC[C@H](F)C4)cn3)nc21 (chirality)
CC(C)n1c(C(=O)N(C)C)nc2c[n-]/c(=N\c3ccc(C[N@@H+]4CC[C@H](F)C4)cn3)nc21 (cis-trans isomerization)
CC(C)n1c(C(=O)N(C)C)nc2c[n-]/c(=N\c3ccc(C[N@@H+]4CC[C@H](F)C4)cn3)nc21 (3D coordinates assigned)
CC(C)n1c(C(=O)N(C)C)nc2c[n-]/c(=N\c3ccc(C[N@@H+]4CC[C@H](F)C4)cn3)nc21 (nonaromatic ring conformer: 112.22491180222076 kcal/mol)

>  <smiles>  (37) 
CC(C)n1c(C(=O)N(C)C)nc2c[nH]c(=Nc3ccc(CN4CCC(F)C4)cn3)nc21

>  <score_type>  (37) 
oracle

>  <origin>  (37) 
adgpu

>  <m_score__min__energy>  (37) 
-8.8900000000000006

>  <m_primary>  (37) 
energy

$$$$
37:0
     RDKit          3D

 40 42  0  0  0  0  0  0  0  0999 V2000
    0.7620   21.1210  -36.0860 C   0  0  0  0  0  0  0  0  0  0  0  0
    0.3510   21.9480  -35.0020 O   0  0  0  0  0  0  0  0  0  0  0  0
   -0.2120   21.4730  -33.8080 C   0  0  0  0  0  0  0  0  0  0  0  0
    0.5740   20.9300  -32.7730 C   0  0  0  0  0  0  0  0  0  0  0  0
   -0.0300   20.4810  -31.5960 C   0  0  0  0  0  0  0  0  0  0  0  0
   -1.4180   20.5530  -31.4330 C   0  0  0  0  0  0  0  0  0  0  0  0
   -1.9920   20.0730  -30.2110 N   0  0  0  0  0  0  0  0  0  0  0  0
   -1.5930   20.6500  -28.6240 S   0  0  0  0  0  0  0  0  0  0  0  0
   -2.4350   19.9190  -27.6130 O   0  0  0  0  0  0  0  0  0  0  0  0
   -0.1440   20.3620  -28.3490 O   0  0  0  0  0  0  0  0  0  0  0  0
   -1.8650   22.3870  -28.5120 C   0  0  0  0  0  0  0  0  0  0  0  0
   -1.3710   23.1100  -27.4190 C   0  0  0  0  0  0  0  0  0  0  0  0
   -1.5980   24.4860  -27.3290 C   0  0  0  0  0  0  0  0  0  0  0  0
   -2.3050   25.1510  -28.3390 C   0  0  0  0  0  0  0  0  0  0  0  0
   -2.7780   24.4430  -29.4500 C   0  0  0  0  0  0  0  0  0  0  0  0
   -3.4900   25.1460  -30.4780 N   0  0  0  0  0  0  0  0  0  0  0  0
   -4.9120   25.1330  -30.6580 C   0  0  0  0  0  0  0  0  0  0  0  0
   -5.5670   26.1850  -30.4370 O   0  0  0  0  0  0  0  0  0  0  0  0
   -5.6280   23.9320  -31.1310 C   0  0  0  0  0  0  0  0  0  0  0  0
   -6.9640   23.6310  -30.9210 C   0  0  0  0  0  0  0  0  0  0  0  0
   -7.1750   22.4160  -31.5370 C   0  0  0  0  0  0  0  0  0  0  0  0
   -5.9590   22.0510  -32.0780 C   0  0  0  0  0  0  0  0  0  0  0  0
   -5.6160   20.4540  -33.0640 Br  0  0  0  0  0  0  0  0  0  0  0  0
   -5.0550   22.9680  -31.8180 O   0  0  0  0  0  0  0  0  0  0  0  0
   -2.5810   23.0530  -29.5180 C   0  0  0  0  0  0  0  0  0  0  0  0
   -2.2070   21.0820  -32.4720 C   0  0  0  0  0  0  0  0  0  0  0  0
   -1.6020   21.5420  -33.6470 C   0  0  0  0  0  0  0  0  0  0  0  0
    1.2192   20.2011  -35.6925 H   0  0  0  0  0  0  0  0  0  0  0  0
   -0.1121   20.8618  -36.7014 H   0  0  0  0  0  0  0  0  0  0  0  0
    1.4965   21.6613  -36.7014 H   0  0  0  0  0  0  0  0  0  0  0  0
    1.6653   20.8593  -32.8916 H   0  0  0  0  0  0  0  0  0  0  0  0
    0.5920   20.0665  -30.7889 H   0  0  0  0  0  0  0  0  0  0  0  0
   -0.8036   22.5941  -26.6304 H   0  0  0  0  0  0  0  0  0  0  0  0
   -1.2204   25.0485  -26.4624 H   0  0  0  0  0  0  0  0  0  0  0  0
   -2.4890   26.2325  -28.2588 H   0  0  0  0  0  0  0  0  0  0  0  0
   -7.7032   24.2362  -30.3757 H   0  0  0  0  0  0  0  0  0  0  0  0
   -8.1187   21.8531  -31.5871 H   0  0  0  0  0  0  0  0  0  0  0  0
   -2.9908   22.4837  -30.3654 H   0  0  0  0  0  0  0  0  0  0  0  0
   -3.3001   21.1338  -32.3601 H   0  0  0  0  0  0  0  0  0  0  0  0
   -2.2236   21.9617  -34.4517 H   0  0  0  0  0  0  0  0  0  0  0  0
  1  2  1  0
  2  3  1  0
  3  4  2  0
  4  5  1  0
  5  6  2  0
  6  7  1  0
  7  8  1  0
  8  9  2  0
  8 10  2  0
  8 11  1  0
 11 12  2  0
 12 13  1  0
 13 14  2  0
 14 15  1  0
 15 16  1  0
 16 17  1  0
 17 18  2  0
 17 19  1  0
 19 20  2  0
 20 21  1  0
 21 22  2  0
 22 23  1  0
 22 24  1  0
 15 25  2  0
  6 26  1  0
 26 27  2  0
 27  3  1  0
 25 11  1  0
 24 19  1  0
  1 28  1  0
  1 29  1  0
  1 30  1  0
  4 31  1  0
  5 32  1  0
 12 33  1  0
 13 34  1  0
 14 35  1  0
 20 36  1  0
 21 37  1  0
 25 38  1  0
 26 39  1  0
 27 40  1  0
M  CHG  2   7  -1  16  -1
M  END
>  <UniqueID>  (38) 
37

>  <SMILES>  (38) 
COc1ccc([N-]S(=O)(=O)c2cccc([N-]C(=O)c3ccc(Br)o3)c2)cc1

>  <Energy>  (38) 
74.26803918388521

>  <Genealogy>  (38) 
COc1ccc([N-]S(=O)(=O)c2cccc([N-]C(=O)c3ccc(Br)o3)c2)cc1 (protonated)
COc1ccc([N-]S(=O)(=O)c2cccc([N-]C(=O)c3ccc(Br)o3)c2)cc1 (3D coordinates assigned)
COc1ccc([N-]S(=O)(=O)c2cccc([N-]C(=O)c3ccc(Br)o3)c2)cc1 (optimized conformer: 74.26803918388521 kcal/mol)

>  <smiles>  (38) 
COc1ccc(NS(=O)(=O)c2cccc(NC(=O)c3ccc(Br)o3)c2)cc1

>  <score_type>  (38) 
oracle

>  <origin>  (38) 
adgpu

>  <m_score__min__energy>  (38) 
-10.119999999999999

>  <m_primary>  (38) 
energy

$$$$
38:0
     RDKit          3D

 42 44  0  0  0  0  0  0  0  0999 V2000
   -9.4180   21.3260  -31.3480 C   0  0  0  0  0  0  0  0  0  0  0  0
   -8.9420   19.7330  -31.9770 S   0  0  0  0  0  0  0  0  0  0  0  0
   -9.0870   18.7010  -30.8940 O   0  0  0  0  0  0  0  0  0  0  0  0
   -9.8350   19.3560  -33.1260 O   0  0  0  0  0  0  0  0  0  0  0  0
   -7.2690   19.7970  -32.5210 C   0  0  0  0  0  0  0  0  0  0  0  0
   -6.5990   21.0250  -32.5900 C   0  0  0  0  0  0  0  0  0  0  0  0
   -5.2720   21.0780  -33.0250 C   0  0  0  0  0  0  0  0  0  0  0  0
   -4.6050   19.9110  -33.4110 C   0  0  0  0  0  0  0  0  0  0  0  0
   -3.2870   20.0160  -33.8830 O   0  0  0  0  0  0  0  0  0  0  0  0
   -2.2570   19.1020  -33.6180 C   0  0  0  0  0  0  0  0  0  0  0  0
   -2.2610   17.8920  -34.3220 C   0  0  0  0  0  0  0  0  0  0  0  0
   -1.2340   16.9630  -34.1460 C   0  0  0  0  0  0  0  0  0  0  0  0
   -0.1940   17.2310  -33.2540 C   0  0  0  0  0  0  0  0  0  0  0  0
    1.1000   16.0660  -33.0410 Cl  0  0  0  0  0  0  0  0  0  0  0  0
   -0.1930   18.4200  -32.5190 C   0  0  0  0  0  0  0  0  0  0  0  0
   -1.2330   19.3550  -32.6690 C   0  0  0  0  0  0  0  0  0  0  0  0
   -1.2260   20.5620  -31.8150 C   0  0  0  0  0  0  0  0  0  0  0  0
   -0.1220   21.0060  -31.3980 O   0  0  0  0  0  0  0  0  0  0  0  0
   -2.4560   21.2240  -31.4700 N   0  0  0  0  0  0  0  0  0  0  0  0
   -2.5280   22.4850  -30.7830 C   0  0  0  0  0  0  0  0  0  0  0  0
   -1.6110   22.8320  -29.7770 C   0  0  0  0  0  0  0  0  0  0  0  0
   -1.7250   24.0680  -29.1370 C   0  0  0  0  0  0  0  0  0  0  0  0
   -2.7270   24.9220  -29.4750 N   0  0  0  0  0  0  0  0  0  0  0  0
   -3.6430   24.6040  -30.4260 C   0  0  0  0  0  0  0  0  0  0  0  0
   -4.5610   25.4180  -30.7080 O   0  0  0  0  0  0  0  0  0  0  0  0
   -3.5680   23.3750  -31.0880 C   0  0  0  0  0  0  0  0  0  0  0  0
   -5.2640   18.6730  -33.2980 C   0  0  0  0  0  0  0  0  0  0  0  0
   -6.5900   18.6190  -32.8610 C   0  0  0  0  0  0  0  0  0  0  0  0
   -9.4111   21.3030  -30.2483 H   0  0  0  0  0  0  0  0  0  0  0  0
   -8.7082   22.0875  -31.7033 H   0  0  0  0  0  0  0  0  0  0  0  0
  -10.4293   21.5733  -31.7033 H   0  0  0  0  0  0  0  0  0  0  0  0
   -7.1188   21.9504  -32.3010 H   0  0  0  0  0  0  0  0  0  0  0  0
   -4.7484   22.0446  -33.0641 H   0  0  0  0  0  0  0  0  0  0  0  0
   -3.0814   17.6711  -35.0207 H   0  0  0  0  0  0  0  0  0  0  0  0
   -1.2442   16.0190  -34.7106 H   0  0  0  0  0  0  0  0  0  0  0  0
    0.6284   18.6263  -31.8171 H   0  0  0  0  0  0  0  0  0  0  0  0
   -3.3480   20.8320  -31.8500 H   0  0  0  0  0  0  0  0  0  0  0  0
   -0.8083   22.1347  -29.4952 H   0  0  0  0  0  0  0  0  0  0  0  0
   -1.0023   24.3511  -28.3576 H   0  0  0  0  0  0  0  0  0  0  0  0
   -4.3208   23.1075  -31.8441 H   0  0  0  0  0  0  0  0  0  0  0  0
   -4.7333   17.7443  -33.5546 H   0  0  0  0  0  0  0  0  0  0  0  0
   -7.1027   17.6489  -32.7836 H   0  0  0  0  0  0  0  0  0  0  0  0
  1  2  1  0
  2  3  2  0
  2  4  2  0
  2  5  1  0
  5  6  2  0
  6  7  1  0
  7  8  2  0
  8  9  1  0
  9 10  1  0
 10 11  2  0
 11 12  1  0
 12 13  2  0
 13 14  1  0
 13 15  1  0
 15 16  2  0
 16 17  1  0
 17 18  2  0
 17 19  1  0
 19 20  1  0
 20 21  1  0
 21 22  2  0
 22 23  1  0
 23 24  1  0
 24 25  2  0
 24 26  1  0
  8 27  1  0
 27 28  2  0
 28  5  1  0
 16 10  1  0
 26 20  2  0
  1 29  1  0
  1 30  1  0
  1 31  1  0
  6 32  1  0
  7 33  1  0
 11 34  1  0
 12 35  1  0
 15 36  1  0
 19 37  1  0
 21 38  1  0
 22 39  1  0
 26 40  1  0
 27 41  1  0
 28 42  1  0
M  CHG  1  23  -1
M  END
>  <UniqueID>  (39) 
38

>  <SMILES>  (39) 
CS(=O)(=O)c1ccc(Oc2ccc(Cl)cc2C(=O)Nc2cc[n-]c(=O)c2)cc1

>  <Energy>  (39) 
56.96534157273729

>  <Genealogy>  (39) 
CS(=O)(=O)c1ccc(Oc2ccc(Cl)cc2C(=O)Nc2cc[n-]c(=O)c2)cc1 (protonated)
CS(=O)(=O)c1ccc(Oc2ccc(Cl)cc2C(=O)Nc2cc[n-]c(=O)c2)cc1 (3D coordinates assigned)
CS(=O)(=O)c1ccc(Oc2ccc(Cl)cc2C(=O)Nc2cc[n-]c(=O)c2)cc1 (optimized conformer: 56.96534157273729 kcal/mol)

>  <smiles>  (39) 
CS(=O)(=O)c1ccc(Oc2ccc(Cl)cc2C(=O)Nc2cc[nH]c(=O)c2)cc1

>  <score_type>  (39) 
oracle

>  <origin>  (39) 
adgpu

>  <m_score__min__energy>  (39) 
-10.09

>  <m_primary>  (39) 
energy

$$$$
39:0
     RDKit          3D

 49 51  0  0  0  0  0  0  0  0999 V2000
   -7.9220   21.9170  -31.9500 C   0  0  0  0  0  0  0  0  0  0  0  0
   -9.0990   21.0030  -31.6310 C   0  0  0  0  0  0  0  0  0  0  0  0
   -9.1760   19.9090  -32.5940 N   0  0  0  0  0  0  0  0  0  0  0  0
   -8.6750   18.5920  -32.3420 C   0  0  0  0  0  0  0  0  0  0  0  0
   -9.3250   17.7970  -31.6110 O   0  0  0  0  0  0  0  0  0  0  0  0
   -7.3980   18.1720  -32.9470 C   0  0  0  0  0  0  0  0  0  0  0  0
   -6.2870   19.0320  -32.9780 C   0  0  0  0  0  0  0  0  0  0  0  0
   -5.0910   18.6000  -33.5760 C   0  0  0  0  0  0  0  0  0  0  0  0
   -3.9480   19.4130  -33.6250 O   0  0  0  0  0  0  0  0  0  0  0  0
   -3.5810   20.3610  -32.6570 C   0  0  0  0  0  0  0  0  0  0  0  0
   -4.3170   21.5420  -32.4550 C   0  0  0  0  0  0  0  0  0  0  0  0
   -3.9150   22.4670  -31.4870 C   0  0  0  0  0  0  0  0  0  0  0  0
   -2.7700   22.2260  -30.7070 C   0  0  0  0  0  0  0  0  0  0  0  0
   -2.3250   23.1710  -29.7170 N   0  0  0  0  0  0  0  0  0  0  0  0
   -2.6670   24.5630  -29.7250 C   0  0  0  0  0  0  0  0  0  0  0  0
   -3.5920   24.9880  -30.4690 O   0  0  0  0  0  0  0  0  0  0  0  0
   -2.0120   25.4460  -28.8060 N   0  0  0  0  0  0  0  0  0  0  0  0
   -1.1840   25.0630  -27.6980 C   0  0  0  0  0  0  0  0  0  0  0  0
   -1.4180   25.5450  -26.3950 C   0  0  0  0  0  0  0  0  0  0  0  0
   -0.5830   25.1590  -25.3340 C   0  0  0  0  0  0  0  0  0  0  0  0
   -0.8150   25.6970  -23.9520 C   0  0  0  0  0  0  0  0  0  0  0  0
    0.5150   24.3250  -25.5880 C   0  0  0  0  0  0  0  0  0  0  0  0
    0.7650   23.8670  -26.8840 C   0  0  0  0  0  0  0  0  0  0  0  0
   -0.0780   24.2370  -27.9350 C   0  0  0  0  0  0  0  0  0  0  0  0
    0.1810   23.7860  -29.1890 F   0  0  0  0  0  0  0  0  0  0  0  0
   -2.0140   21.0690  -30.9430 C   0  0  0  0  0  0  0  0  0  0  0  0
   -2.4180   20.1440  -31.9100 C   0  0  0  0  0  0  0  0  0  0  0  0
   -5.0180   17.3070  -34.0980 C   0  0  0  0  0  0  0  0  0  0  0  0
   -6.1400   16.4790  -34.0510 C   0  0  0  0  0  0  0  0  0  0  0  0
   -7.2930   16.9250  -33.4850 N   0  0  0  0  0  0  0  0  0  0  0  0
   -7.4674   22.2701  -31.0126 H   0  0  0  0  0  0  0  0  0  0  0  0
   -7.1737   21.3610  -32.5338 H   0  0  0  0  0  0  0  0  0  0  0  0
   -8.2754   22.7797  -32.5338 H   0  0  0  0  0  0  0  0  0  0  0  0
   -8.9702   20.5870  -30.6209 H   0  0  0  0  0  0  0  0  0  0  0  0
  -10.0281   21.5893  -31.6856 H   0  0  0  0  0  0  0  0  0  0  0  0
   -6.3532   20.0374  -32.5367 H   0  0  0  0  0  0  0  0  0  0  0  0
   -5.2133   21.7389  -33.0615 H   0  0  0  0  0  0  0  0  0  0  0  0
   -4.4971   23.3878  -31.3347 H   0  0  0  0  0  0  0  0  0  0  0  0
   -1.7840   22.8110  -28.8980 H   0  0  0  0  0  0  0  0  0  0  0  0
   -2.2598   26.2278  -26.2076 H   0  0  0  0  0  0  0  0  0  0  0  0
   -0.4936   24.9516  -23.2096 H   0  0  0  0  0  0  0  0  0  0  0  0
   -0.2360   26.6225  -23.8168 H   0  0  0  0  0  0  0  0  0  0  0  0
   -1.8854   25.9112  -23.8168 H   0  0  0  0  0  0  0  0  0  0  0  0
    1.1818   24.0303  -24.7642 H   0  0  0  0  0  0  0  0  0  0  0  0
    1.6281   23.2131  -27.0775 H   0  0  0  0  0  0  0  0  0  0  0  0
   -1.0968   20.8880  -30.3633 H   0  0  0  0  0  0  0  0  0  0  0  0
   -1.8174   19.2392  -32.0849 H   0  0  0  0  0  0  0  0  0  0  0  0
   -4.0807   16.9430  -34.5440 H   0  0  0  0  0  0  0  0  0  0  0  0
   -6.0917   15.4641  -34.4724 H   0  0  0  0  0  0  0  0  0  0  0  0
  1  2  1  0
  2  3  1  0
  3  4  1  0
  4  5  2  0
  4  6  1  0
  6  7  2  0
  7  8  1  0
  8  9  1  0
  9 10  1  0
 10 11  2  0
 11 12  1  0
 12 13  2  0
 13 14  1  0
 14 15  1  0
 15 16  2  0
 15 17  1  0
 17 18  1  0
 18 19  2  0
 19 20  1  0
 20 21  1  0
 20 22  2  0
 22 23  1  0
 23 24  2  0
 24 25  1  0
 13 26  1  0
 26 27  2  0
  8 28  2  0
 28 29  1  0
 29 30  2  0
 30  6  1  0
 27 10  1  0
 24 18  1  0
  1 31  1  0
  1 32  1  0
  1 33  1  0
  2 34  1  0
  2 35  1  0
  7 36  1  0
 11 37  1  0
 12 38  1  0
 14 39  1  0
 19 40  1  0
 21 41  1  0
 21 42  1  0
 21 43  1  0
 22 44  1  0
 23 45  1  0
 26 46  1  0
 27 47  1  0
 28 48  1  0
 29 49  1  0
M  CHG  2   3  -1  17  -1
M  END
>  <UniqueID>  (40) 
39

>  <SMILES>  (40) 
CC[N-]C(=O)c1cc(Oc2ccc(NC(=O)[N-]c3cc(C)ccc3F)cc2)ccn1

>  <Energy>  (40) 
59.611479572943104

>  <Genealogy>  (40) 
CC[N-]C(=O)c1cc(Oc2ccc(NC(=O)[N-]c3cc(C)ccc3F)cc2)ccn1 (protonated)
CC[N-]C(=O)c1cc(Oc2ccc(NC(=O)[N-]c3cc(C)ccc3F)cc2)ccn1 (3D coordinates assigned)
CC[N-]C(=O)c1cc(Oc2ccc(NC(=O)[N-]c3cc(C)ccc3F)cc2)ccn1 (optimized conformer: 59.611479572943104 kcal/mol)

>  <smiles>  (40) 
CCNC(=O)c1cc(Oc2ccc(NC(=O)Nc3cc(C)ccc3F)cc2)ccn1

>  <score_type>  (40) 
oracle

>  <origin>  (40) 
adgpu

>  <m_score__min__energy>  (40) 
-10.51

>  <m_primary>  (40) 
energy

$$$$
40:0
     RDKit          3D

 39 41  0  0  0  0  0  0  0  0999 V2000
   -1.8410   25.3090  -27.7130 C   0  0  0  0  0  0  0  0  0  0  0  0
   -2.1550   25.3210  -29.1020 O   0  0  0  0  0  0  0  0  0  0  0  0
   -3.1560   24.5380  -29.6950 C   0  0  0  0  0  0  0  0  0  0  0  0
   -2.7880   23.3240  -30.2870 C   0  0  0  0  0  0  0  0  0  0  0  0
   -3.7490   22.5080  -30.8910 C   0  0  0  0  0  0  0  0  0  0  0  0
   -5.0980   22.8970  -30.9160 C   0  0  0  0  0  0  0  0  0  0  0  0
   -6.0890   22.0500  -31.5270 N   0  0  0  0  0  0  0  0  0  0  0  0
   -7.2330   21.5830  -30.7310 C   0  0  0  0  0  0  0  0  0  0  0  0
   -8.1180   20.6060  -31.5190 C   0  0  0  0  0  0  0  0  0  0  0  0
   -7.3000   19.6190  -32.2460 N   0  0  0  0  0  0  0  0  0  0  0  0
   -7.8350   18.2970  -32.4740 C   0  0  0  0  0  0  0  0  0  0  0  0
   -9.0740   18.0950  -32.3390 O   0  0  0  0  0  0  0  0  0  0  0  0
   -6.9780   17.1560  -32.8580 C   0  0  0  0  0  0  0  0  0  0  0  0
   -5.8240   16.7640  -32.2040 C   0  0  0  0  0  0  0  0  0  0  0  0
   -5.3470   15.6760  -32.9020 C   0  0  0  0  0  0  0  0  0  0  0  0
   -6.2340   15.4690  -33.9380 C   0  0  0  0  0  0  0  0  0  0  0  0
   -7.1920   16.3660  -33.8850 O   0  0  0  0  0  0  0  0  0  0  0  0
   -6.0730   20.0540  -32.9370 C   0  0  0  0  0  0  0  0  0  0  0  0
   -5.9180   21.5740  -32.9040 C   0  0  0  0  0  0  0  0  0  0  0  0
   -5.4700   24.1110  -30.3180 C   0  0  0  0  0  0  0  0  0  0  0  0
   -4.5090   24.9280  -29.7150 C   0  0  0  0  0  0  0  0  0  0  0  0
   -2.7709   25.3445  -27.1265 H   0  0  0  0  0  0  0  0  0  0  0  0
   -1.2891   24.3891  -27.4698 H   0  0  0  0  0  0  0  0  0  0  0  0
   -1.2205   26.1841  -27.4698 H   0  0  0  0  0  0  0  0  0  0  0  0
   -1.7339   23.0096  -30.2768 H   0  0  0  0  0  0  0  0  0  0  0  0
   -3.4465   21.5550  -31.3496 H   0  0  0  0  0  0  0  0  0  0  0  0
   -6.8563   21.0750  -29.8310 H   0  0  0  0  0  0  0  0  0  0  0  0
   -7.8439   22.4585  -30.4657 H   0  0  0  0  0  0  0  0  0  0  0  0
   -8.7814   20.0772  -30.8188 H   0  0  0  0  0  0  0  0  0  0  0  0
   -8.7067   21.1792  -32.2504 H   0  0  0  0  0  0  0  0  0  0  0  0
   -5.3787   17.2258  -31.3105 H   0  0  0  0  0  0  0  0  0  0  0  0
   -4.4425   15.0912  -32.6785 H   0  0  0  0  0  0  0  0  0  0  0  0
   -6.1515   14.6738  -34.6935 H   0  0  0  0  0  0  0  0  0  0  0  0
   -5.2035   19.5956  -32.4432 H   0  0  0  0  0  0  0  0  0  0  0  0
   -6.1394   19.7375  -33.9884 H   0  0  0  0  0  0  0  0  0  0  0  0
   -4.9163   21.8490  -33.2659 H   0  0  0  0  0  0  0  0  0  0  0  0
   -6.6791   22.0357  -33.5502 H   0  0  0  0  0  0  0  0  0  0  0  0
   -6.5251   24.4219  -30.3238 H   0  0  0  0  0  0  0  0  0  0  0  0
   -4.8112   25.8799  -29.2540 H   0  0  0  0  0  0  0  0  0  0  0  0
  1  2  1  0
  2  3  1  0
  3  4  2  0
  4  5  1  0
  5  6  2  0
  6  7  1  0
  7  8  1  0
  8  9  1  0
  9 10  1  0
 10 11  1  0
 11 12  2  0
 11 13  1  0
 13 14  2  0
 14 15  1  0
 15 16  2  0
 16 17  1  0
 10 18  1  0
 18 19  1  0
  6 20  1  0
 20 21  2  0
 21  3  1  0
 19  7  1  0
 17 13  1  0
  1 22  1  0
  1 23  1  0
  1 24  1  0
  4 25  1  0
  5 26  1  0
  8 27  1  0
  8 28  1  0
  9 29  1  0
  9 30  1  0
 14 31  1  0
 15 32  1  0
 16 33  1  0
 18 34  1  0
 18 35  1  0
 19 36  1  0
 19 37  1  0
 20 38  1  0
 21 39  1  0
M  END
>  <UniqueID>  (41) 
40

>  <SMILES>  (41) 
COc1ccc(N2CCN(C(=O)c3ccco3)CC2)cc1

>  <Energy>  (41) 
71.56343660340407

>  <Genealogy>  (41) 
COc1ccc(N2CCN(C(=O)c3ccco3)CC2)cc1 (3D coordinates assigned)
COc1ccc(N2CCN(C(=O)c3ccco3)CC2)cc1 (nonaromatic ring conformer: 71.56343660340407 kcal/mol)

>  <smiles>  (41) 
COc1ccc(N2CCN(C(=O)c3ccco3)CC2)cc1

>  <score_type>  (41) 
oracle

>  <origin>  (41) 
adgpu

>  <m_score__min__energy>  (41) 
-7.1500000000000004

>  <m_primary>  (41) 
energy

$$$$
41:0
     RDKit          3D

 44 46  0  0  0  0  0  0  0  0999 V2000
   -1.9010   25.2710  -28.0190 C   0  0  0  0  0  0  0  0  0  0  0  0
   -2.4340   25.2970  -29.3390 O   0  0  0  0  0  0  0  0  0  0  0  0
   -3.5030   24.5030  -29.7830 C   0  0  0  0  0  0  0  0  0  0  0  0
   -4.7610   25.0570  -30.0960 C   0  0  0  0  0  0  0  0  0  0  0  0
   -5.8100   24.2370  -30.5190 C   0  0  0  0  0  0  0  0  0  0  0  0
   -5.6210   22.8600  -30.6310 C   0  0  0  0  0  0  0  0  0  0  0  0
   -4.3810   22.2960  -30.3260 C   0  0  0  0  0  0  0  0  0  0  0  0
   -3.3120   23.1110  -29.9150 C   0  0  0  0  0  0  0  0  0  0  0  0
   -1.9870   22.4810  -29.5590 C   0  0  0  0  0  0  0  0  0  0  0  0
   -1.2380   22.1290  -30.7690 N   0  0  0  0  0  0  0  0  0  0  0  0
   -1.3620   20.8530  -31.4320 C   0  0  0  0  0  0  0  0  0  0  0  0
   -0.5390   19.7690  -31.0880 C   0  0  0  0  0  0  0  0  0  0  0  0
   -0.6860   18.5480  -31.7350 C   0  0  0  0  0  0  0  0  0  0  0  0
   -1.6450   18.4080  -32.7330 C   0  0  0  0  0  0  0  0  0  0  0  0
   -2.4400   19.4610  -33.0940 N   0  0  0  0  0  0  0  0  0  0  0  0
   -3.4340   19.2740  -34.1690 C   0  0  0  0  0  0  0  0  0  0  0  0
   -4.8360   19.1760  -33.6080 C   0  0  0  0  0  0  0  0  0  0  0  0
   -5.5830   20.3530  -33.4130 C   0  0  0  0  0  0  0  0  0  0  0  0
   -6.8880   20.2950  -32.9200 C   0  0  0  0  0  0  0  0  0  0  0  0
   -7.4670   19.0620  -32.6120 C   0  0  0  0  0  0  0  0  0  0  0  0
   -9.1070   18.9910  -31.9920 Cl  0  0  0  0  0  0  0  0  0  0  0  0
   -6.7350   17.8850  -32.7900 C   0  0  0  0  0  0  0  0  0  0  0  0
   -5.4250   17.9320  -33.2840 C   0  0  0  0  0  0  0  0  0  0  0  0
   -4.5550   16.4120  -33.4520 Cl  0  0  0  0  0  0  0  0  0  0  0  0
   -2.3250   20.6700  -32.4480 C   0  0  0  0  0  0  0  0  0  0  0  0
   -3.0880   21.6270  -32.7530 O   0  0  0  0  0  0  0  0  0  0  0  0
   -2.7241   25.3112  -27.2904 H   0  0  0  0  0  0  0  0  0  0  0  0
   -1.3273   24.3438  -27.8734 H   0  0  0  0  0  0  0  0  0  0  0  0
   -1.2398   26.1380  -27.8734 H   0  0  0  0  0  0  0  0  0  0  0  0
   -4.9177   26.1421  -30.0066 H   0  0  0  0  0  0  0  0  0  0  0  0
   -6.7872   24.6786  -30.7642 H   0  0  0  0  0  0  0  0  0  0  0  0
   -6.4505   22.2170  -30.9603 H   0  0  0  0  0  0  0  0  0  0  0  0
   -4.2397   21.2082  -30.4077 H   0  0  0  0  0  0  0  0  0  0  0  0
   -1.3970   23.1934  -28.9637 H   0  0  0  0  0  0  0  0  0  0  0  0
   -2.1756   21.5643  -28.9810 H   0  0  0  0  0  0  0  0  0  0  0  0
   -0.5840   22.8400  -31.1670 H   0  0  0  0  0  0  0  0  0  0  0  0
    0.2241   19.8864  -30.3044 H   0  0  0  0  0  0  0  0  0  0  0  0
   -0.0470   17.6961  -31.4593 H   0  0  0  0  0  0  0  0  0  0  0  0
   -1.7655   17.4383  -33.2382 H   0  0  0  0  0  0  0  0  0  0  0  0
   -3.3824   20.1299  -34.8580 H   0  0  0  0  0  0  0  0  0  0  0  0
   -3.2039   18.3365  -34.6965 H   0  0  0  0  0  0  0  0  0  0  0  0
   -5.1340   21.3285  -33.6515 H   0  0  0  0  0  0  0  0  0  0  0  0
   -7.4613   21.2224  -32.7739 H   0  0  0  0  0  0  0  0  0  0  0  0
   -7.1904   16.9153  -32.5406 H   0  0  0  0  0  0  0  0  0  0  0  0
  1  2  1  0
  2  3  1  0
  3  4  2  0
  4  5  1  0
  5  6  2  0
  6  7  1  0
  7  8  2  0
  8  9  1  0
  9 10  1  0
 10 11  1  0
 11 12  2  0
 12 13  1  0
 13 14  2  0
 14 15  1  0
 15 16  1  0
 16 17  1  0
 17 18  2  0
 18 19  1  0
 19 20  2  0
 20 21  1  0
 20 22  1  0
 22 23  2  0
 23 24  1  0
 15 25  1  0
 25 26  2  0
  8  3  1  0
 25 11  1  0
 23 17  1  0
  1 27  1  0
  1 28  1  0
  1 29  1  0
  4 30  1  0
  5 31  1  0
  6 32  1  0
  7 33  1  0
  9 34  1  0
  9 35  1  0
 10 36  1  0
 12 37  1  0
 13 38  1  0
 14 39  1  0
 16 40  1  0
 16 41  1  0
 18 42  1  0
 19 43  1  0
 22 44  1  0
M  END
>  <UniqueID>  (42) 
41

>  <SMILES>  (42) 
COc1ccccc1CNc1cccn(Cc2ccc(Cl)cc2Cl)c1=O

>  <Energy>  (42) 
50.529377459396386

>  <Genealogy>  (42) 
COc1ccccc1CNc1cccn(Cc2ccc(Cl)cc2Cl)c1=O (3D coordinates assigned)
COc1ccccc1CNc1cccn(Cc2ccc(Cl)cc2Cl)c1=O (optimized conformer: 50.529377459396386 kcal/mol)

>  <smiles>  (42) 
COc1ccccc1CNc1cccn(Cc2ccc(Cl)cc2Cl)c1=O

>  <score_type>  (42) 
oracle

>  <origin>  (42) 
adgpu

>  <m_score__min__energy>  (42) 
-9.5700000000000003

>  <m_primary>  (42) 
energy

$$$$
42:0
     RDKit          3D

 29 30  0  0  0  0  0  0  0  0999 V2000
   -4.4500   21.0340  -33.4770 N   0  0  0  0  0  0  0  0  0  0  0  0
   -5.5010   20.0800  -33.3240 C   0  0  0  0  0  0  0  0  0  0  0  0
   -5.2910   18.7350  -33.6480 C   0  0  0  0  0  0  0  0  0  0  0  0
   -6.3470   17.8380  -33.4790 C   0  0  0  0  0  0  0  0  0  0  0  0
   -6.1950   16.6200  -33.7590 O   0  0  0  0  0  0  0  0  0  0  0  0
   -7.5440   18.2810  -33.0150 N   0  0  0  0  0  0  0  0  0  0  0  0
   -7.7340   19.5920  -32.7150 C   0  0  0  0  0  0  0  0  0  0  0  0
   -9.3370   20.1530  -32.1430 S   0  0  0  0  0  0  0  0  0  0  0  0
   -8.6720   21.2610  -30.8510 C   0  0  0  0  0  0  0  0  0  0  0  0
   -8.4000   22.6350  -31.4050 C   0  0  0  0  0  0  0  0  0  0  0  0
   -9.2650   23.1460  -32.1670 O   0  0  0  0  0  0  0  0  0  0  0  0
   -7.1250   23.3650  -31.1660 C   0  0  0  0  0  0  0  0  0  0  0  0
   -7.0860   24.5960  -30.4780 C   0  0  0  0  0  0  0  0  0  0  0  0
   -5.8670   25.2310  -30.2310 C   0  0  0  0  0  0  0  0  0  0  0  0
   -4.6720   24.6580  -30.6680 C   0  0  0  0  0  0  0  0  0  0  0  0
   -3.4640   25.2960  -30.4100 O   0  0  0  0  0  0  0  0  0  0  0  0
   -4.6920   23.4470  -31.3660 C   0  0  0  0  0  0  0  0  0  0  0  0
   -3.4950   22.8800  -31.8020 O   0  0  0  0  0  0  0  0  0  0  0  0
   -5.9140   22.8070  -31.6180 C   0  0  0  0  0  0  0  0  0  0  0  0
   -6.7150   20.4790  -32.8630 N   0  0  0  0  0  0  0  0  0  0  0  0
   -4.5250   21.8080  -34.1730 H   0  0  0  0  0  0  0  0  0  0  0  0
   -3.5910   20.9680  -32.8870 H   0  0  0  0  0  0  0  0  0  0  0  0
   -4.3167   18.3927  -34.0269 H   0  0  0  0  0  0  0  0  0  0  0  0
   -9.4044   21.3411  -30.0342 H   0  0  0  0  0  0  0  0  0  0  0  0
   -7.7260   20.8391  -30.4808 H   0  0  0  0  0  0  0  0  0  0  0  0
   -8.0225   25.0590  -30.1336 H   0  0  0  0  0  0  0  0  0  0  0  0
   -5.8487   26.1880  -29.6890 H   0  0  0  0  0  0  0  0  0  0  0  0
   -2.5970   23.2650  -31.5320 H   0  0  0  0  0  0  0  0  0  0  0  0
   -5.9266   21.8585  -32.1750 H   0  0  0  0  0  0  0  0  0  0  0  0
  1  2  1  0
  2  3  2  0
  3  4  1  0
  4  5  2  0
  4  6  1  0
  6  7  1  0
  7  8  1  0
  8  9  1  0
  9 10  1  0
 10 11  2  0
 10 12  1  0
 12 13  2  0
 13 14  1  0
 14 15  2  0
 15 16  1  0
 15 17  1  0
 17 18  1  0
 17 19  2  0
  7 20  2  0
 20  2  1  0
 19 12  1  0
  1 21  1  0
  1 22  1  0
  3 23  1  0
  9 24  1  0
  9 25  1  0
 13 26  1  0
 14 27  1  0
 18 28  1  0
 19 29  1  0
M  CHG  2   6  -1  16  -1
M  END
>  <UniqueID>  (43) 
42

>  <SMILES>  (43) 
Nc1cc(=O)[n-]c(SCC(=O)c2ccc([O-])c(O)c2)n1

>  <Energy>  (43) 
26.15596949157005

>  <Genealogy>  (43) 
Nc1cc(=O)[n-]c(SCC(=O)c2ccc([O-])c(O)c2)n1 (protonated)
Nc1cc(=O)[n-]c(SCC(=O)c2ccc([O-])c(O)c2)n1 (3D coordinates assigned)
Nc1cc(=O)[n-]c(SCC(=O)c2ccc([O-])c(O)c2)n1 (optimized conformer: 26.15596949157005 kcal/mol)

>  <smiles>  (43) 
Nc1cc(=O)[nH]c(SCC(=O)c2ccc(O)c(O)c2)n1

>  <score_type>  (43) 
oracle

>  <origin>  (43) 
adgpu

>  <m_score__min__energy>  (43) 
-10

>  <m_primary>  (43) 
energy

$$$$
43:0
     RDKit          3D

 44 46  0  0  0  0  0  0  0  0999 V2000
   -1.0260   21.7210  -29.0750 C   0  0  0  0  0  0  0  0  0  0  0  0
   -1.6950   22.3660  -30.1530 O   0  0  0  0  0  0  0  0  0  0  0  0
   -2.5800   21.7230  -31.0330 C   0  0  0  0  0  0  0  0  0  0  0  0
   -3.5550   20.8770  -30.4950 C   0  0  0  0  0  0  0  0  0  0  0  0
   -4.4600   20.2160  -31.3290 C   0  0  0  0  0  0  0  0  0  0  0  0
   -4.3990   20.3900  -32.7200 C   0  0  0  0  0  0  0  0  0  0  0  0
   -5.4080   19.7210  -33.6170 C   0  0  0  0  0  0  0  0  0  0  0  0
   -6.7970   20.3490  -33.4690 C   0  0  0  0  0  0  0  0  0  0  0  0
   -6.7220   21.6040  -32.7200 N   0  0  0  0  0  0  0  0  0  0  0  0
   -7.6390   21.9380  -31.6690 C   0  0  0  0  0  0  0  0  0  0  0  0
   -8.4610   21.0830  -31.2400 O   0  0  0  0  0  0  0  0  0  0  0  0
   -7.6040   23.3010  -31.0520 C   0  0  0  0  0  0  0  0  0  0  0  0
   -6.2230   23.7010  -30.8180 N   0  0  0  0  0  0  0  0  0  0  0  0
   -5.3840   24.0750  -31.7690 N   0  0  0  0  0  0  0  0  0  0  0  0
   -4.2380   24.4300  -31.2120 N   0  0  0  0  0  0  0  0  0  0  0  0
   -4.4310   24.2630  -29.8880 C   0  0  0  0  0  0  0  0  0  0  0  0
   -3.4160   24.5450  -28.8690 C   0  0  0  0  0  0  0  0  0  0  0  0
   -3.4240   24.0810  -27.5670 C   0  0  0  0  0  0  0  0  0  0  0  0
   -2.2870   24.5940  -26.9810 C   0  0  0  0  0  0  0  0  0  0  0  0
   -1.6640   25.3400  -27.9620 C   0  0  0  0  0  0  0  0  0  0  0  0
   -0.3770   26.0780  -27.8080 C   0  0  0  0  0  0  0  0  0  0  0  0
   -2.3560   25.2910  -29.0780 O   0  0  0  0  0  0  0  0  0  0  0  0
   -5.6720   23.8120  -29.6220 N   0  0  0  0  0  0  0  0  0  0  0  0
   -3.4280   21.2450  -33.2630 C   0  0  0  0  0  0  0  0  0  0  0  0
   -2.5220   21.9040  -32.4290 C   0  0  0  0  0  0  0  0  0  0  0  0
   -1.4191   22.1000  -28.1201 H   0  0  0  0  0  0  0  0  0  0  0  0
   -1.1943   20.6357  -29.1359 H   0  0  0  0  0  0  0  0  0  0  0  0
    0.0525   21.9288  -29.1359 H   0  0  0  0  0  0  0  0  0  0  0  0
   -3.6097   20.7309  -29.4061 H   0  0  0  0  0  0  0  0  0  0  0  0
   -5.2243   19.5558  -30.8931 H   0  0  0  0  0  0  0  0  0  0  0  0
   -5.0797   19.8226  -34.6619 H   0  0  0  0  0  0  0  0  0  0  0  0
   -5.4765   18.6618  -33.3283 H   0  0  0  0  0  0  0  0  0  0  0  0
   -7.2106   20.5495  -34.4684 H   0  0  0  0  0  0  0  0  0  0  0  0
   -7.4442   19.6488  -32.9205 H   0  0  0  0  0  0  0  0  0  0  0  0
   -6.0550   22.3360  -33.0570 H   0  0  0  0  0  0  0  0  0  0  0  0
   -8.0830   24.0217  -31.7311 H   0  0  0  0  0  0  0  0  0  0  0  0
   -8.1436   23.2800  -30.0937 H   0  0  0  0  0  0  0  0  0  0  0  0
   -4.1807   23.4362  -27.0963 H   0  0  0  0  0  0  0  0  0  0  0  0
   -1.9464   24.4410  -25.9463 H   0  0  0  0  0  0  0  0  0  0  0  0
   -0.1535   26.2062  -26.7386 H   0  0  0  0  0  0  0  0  0  0  0  0
    0.4326   25.5069  -28.2859 H   0  0  0  0  0  0  0  0  0  0  0  0
   -0.4609   27.0652  -28.2859 H   0  0  0  0  0  0  0  0  0  0  0  0
   -3.3801   21.3971  -34.3514 H   0  0  0  0  0  0  0  0  0  0  0  0
   -1.7598   22.5672  -32.8640 H   0  0  0  0  0  0  0  0  0  0  0  0
  1  2  1  0
  2  3  1  0
  3  4  2  0
  4  5  1  0
  5  6  2  0
  6  7  1  0
  7  8  1  0
  8  9  1  0
  9 10  1  0
 10 11  2  0
 10 12  1  0
 12 13  1  0
 13 14  1  0
 14 15  2  0
 15 16  1  0
 16 17  1  0
 17 18  2  0
 18 19  1  0
 19 20  2  0
 20 21  1  0
 20 22  1  0
 16 23  2  0
  6 24  1  0
 24 25  2  0
 25  3  1  0
 23 13  1  0
 22 17  1  0
  1 26  1  0
  1 27  1  0
  1 28  1  0
  4 29  1  0
  5 30  1  0
  7 31  1  0
  7 32  1  0
  8 33  1  0
  8 34  1  0
  9 35  1  0
 12 36  1  0
 12 37  1  0
 18 38  1  0
 19 39  1  0
 21 40  1  0
 21 41  1  0
 21 42  1  0
 24 43  1  0
 25 44  1  0
M  END
>  <UniqueID>  (44) 
43

>  <SMILES>  (44) 
COc1ccc(CCNC(=O)Cn2nnc(-c3ccc(C)o3)n2)cc1

>  <Energy>  (44) 
99.63141711360437

>  <Genealogy>  (44) 
COc1ccc(CCNC(=O)Cn2nnc(-c3ccc(C)o3)n2)cc1 (3D coordinates assigned)
COc1ccc(CCNC(=O)Cn2nnc(-c3ccc(C)o3)n2)cc1 (optimized conformer: 99.63141711360437 kcal/mol)

>  <smiles>  (44) 
COc1ccc(CCNC(=O)Cn2nnc(-c3ccc(C)o3)n2)cc1

>  <score_type>  (44) 
oracle

>  <origin>  (44) 
adgpu

>  <m_score__min__energy>  (44) 
-8.5299999999999994

>  <m_primary>  (44) 
energy

$$$$
44:0
     RDKit          3D

 57 60  0  0  0  0  0  0  0  0999 V2000
    1.4350   19.7120  -37.1610 C   0  0  0  0  0  0  0  0  0  0  0  0
    1.4080   20.4880  -35.9190 N   0  0  0  0  0  0  0  0  0  0  0  0
    1.5580   21.9200  -35.9540 C   0  0  0  0  0  0  0  0  0  0  0  0
    2.8330   22.5060  -35.8590 C   0  0  0  0  0  0  0  0  0  0  0  0
    2.9750   23.8960  -35.8920 C   0  0  0  0  0  0  0  0  0  0  0  0
    1.8490   24.7140  -36.0160 C   0  0  0  0  0  0  0  0  0  0  0  0
    0.5790   24.1420  -36.1050 C   0  0  0  0  0  0  0  0  0  0  0  0
    0.4300   22.7520  -36.0710 C   0  0  0  0  0  0  0  0  0  0  0  0
    1.2460   19.6550  -34.3980 S   0  0  0  0  0  0  0  0  0  0  0  0
    1.4590   18.1820  -34.6090 O   0  0  0  0  0  0  0  0  0  0  0  0
    2.2700   20.1590  -33.4190 O   0  0  0  0  0  0  0  0  0  0  0  0
   -0.3550   19.9580  -33.7240 C   0  0  0  0  0  0  0  0  0  0  0  0
   -1.3480   18.9790  -33.8260 C   0  0  0  0  0  0  0  0  0  0  0  0
   -2.6170   19.2020  -33.2860 C   0  0  0  0  0  0  0  0  0  0  0  0
   -2.9090   20.4070  -32.6210 C   0  0  0  0  0  0  0  0  0  0  0  0
   -4.2640   20.6400  -32.0630 C   0  0  0  0  0  0  0  0  0  0  0  0
   -4.5170   20.2940  -30.8760 O   0  0  0  0  0  0  0  0  0  0  0  0
   -5.2860   21.2780  -32.8440 N   0  0  0  0  0  0  0  0  0  0  0  0
   -6.6740   21.2160  -32.4830 C   0  0  0  0  0  0  0  0  0  0  0  0
   -7.4660   20.1860  -33.0130 C   0  0  0  0  0  0  0  0  0  0  0  0
   -8.8300   20.1200  -32.7180 C   0  0  0  0  0  0  0  0  0  0  0  0
   -9.4120   21.0730  -31.8810 C   0  0  0  0  0  0  0  0  0  0  0  0
   -8.6300   22.0880  -31.3260 C   0  0  0  0  0  0  0  0  0  0  0  0
   -7.2560   22.1680  -31.6110 C   0  0  0  0  0  0  0  0  0  0  0  0
   -6.4600   23.1680  -30.9500 N   0  0  0  0  0  0  0  0  0  0  0  0
   -6.4830   24.5510  -31.4390 C   0  0  0  0  0  0  0  0  0  0  0  0
   -5.3420   25.3500  -30.8170 C   0  0  0  0  0  0  0  0  0  0  0  0
   -4.1680   24.5710  -30.8500 O   0  0  0  0  0  0  0  0  0  0  0  0
   -4.2310   23.5440  -29.8750 C   0  0  0  0  0  0  0  0  0  0  0  0
   -5.5820   22.7870  -29.8330 C   0  0  0  0  0  0  0  0  0  0  0  0
   -1.9040   21.3870  -32.5210 C   0  0  0  0  0  0  0  0  0  0  0  0
   -0.6360   21.1620  -33.0670 C   0  0  0  0  0  0  0  0  0  0  0  0
    1.4723   18.6389  -36.9221 H   0  0  0  0  0  0  0  0  0  0  0  0
    0.5289   19.9259  -37.7468 H   0  0  0  0  0  0  0  0  0  0  0  0
    2.3241   19.9884  -37.7468 H   0  0  0  0  0  0  0  0  0  0  0  0
    3.7228   21.8672  -35.7582 H   0  0  0  0  0  0  0  0  0  0  0  0
    3.9757   24.3471  -35.8202 H   0  0  0  0  0  0  0  0  0  0  0  0
    1.9634   25.8077  -36.0434 H   0  0  0  0  0  0  0  0  0  0  0  0
   -0.3072   24.7864  -36.2022 H   0  0  0  0  0  0  0  0  0  0  0  0
   -0.5740   22.3072  -36.1361 H   0  0  0  0  0  0  0  0  0  0  0  0
   -1.1289   18.0283  -34.3341 H   0  0  0  0  0  0  0  0  0  0  0  0
   -3.3941   18.4293  -33.3815 H   0  0  0  0  0  0  0  0  0  0  0  0
   -5.0000   21.9720  -33.5740 H   0  0  0  0  0  0  0  0  0  0  0  0
   -7.0102   19.4260  -33.6646 H   0  0  0  0  0  0  0  0  0  0  0  0
   -9.4461   19.3156  -33.1461 H   0  0  0  0  0  0  0  0  0  0  0  0
  -10.4881   21.0245  -31.6582 H   0  0  0  0  0  0  0  0  0  0  0  0
   -9.0931   22.8311  -30.6602 H   0  0  0  0  0  0  0  0  0  0  0  0
   -6.3720   24.5511  -32.5334 H   0  0  0  0  0  0  0  0  0  0  0  0
   -7.4401   25.0147  -31.1580 H   0  0  0  0  0  0  0  0  0  0  0  0
   -5.1861   26.2771  -31.3882 H   0  0  0  0  0  0  0  0  0  0  0  0
   -5.5903   25.6059  -29.7764 H   0  0  0  0  0  0  0  0  0  0  0  0
   -3.4347   22.8160  -30.0894 H   0  0  0  0  0  0  0  0  0  0  0  0
   -4.1123   24.0313  -28.8960 H   0  0  0  0  0  0  0  0  0  0  0  0
   -5.3857   21.7061  -29.8879 H   0  0  0  0  0  0  0  0  0  0  0  0
   -6.0912   23.0508  -28.8943 H   0  0  0  0  0  0  0  0  0  0  0  0
   -2.1172   22.3372  -32.0095 H   0  0  0  0  0  0  0  0  0  0  0  0
    0.1431   21.9337  -32.9799 H   0  0  0  0  0  0  0  0  0  0  0  0
  1  2  1  0
  2  3  1  0
  3  4  2  0
  4  5  1  0
  5  6  2  0
  6  7  1  0
  7  8  2  0
  2  9  1  0
  9 10  2  0
  9 11  2  0
  9 12  1  0
 12 13  2  0
 13 14  1  0
 14 15  2  0
 15 16  1  0
 16 17  2  0
 16 18  1  0
 18 19  1  0
 19 20  2  0
 20 21  1  0
 21 22  2  0
 22 23  1  0
 23 24  2  0
 24 25  1  0
 25 26  1  0
 26 27  1  0
 27 28  1  0
 28 29  1  0
 29 30  1  0
 15 31  1  0
 31 32  2  0
  8  3  1  0
 32 12  1  0
 24 19  1  0
 30 25  1  0
  1 33  1  0
  1 34  1  0
  1 35  1  0
  4 36  1  0
  5 37  1  0
  6 38  1  0
  7 39  1  0
  8 40  1  0
 13 41  1  0
 14 42  1  0
 18 43  1  0
 20 44  1  0
 21 45  1  0
 22 46  1  0
 23 47  1  0
 26 48  1  0
 26 49  1  0
 27 50  1  0
 27 51  1  0
 29 52  1  0
 29 53  1  0
 30 54  1  0
 30 55  1  0
 31 56  1  0
 32 57  1  0
M  END
>  <UniqueID>  (45) 
44

>  <SMILES>  (45) 
CN(c1ccccc1)S(=O)(=O)c1ccc(C(=O)Nc2ccccc2N2CCOCC2)cc1

>  <Energy>  (45) 
83.05188931092486

>  <Genealogy>  (45) 
CN(c1ccccc1)S(=O)(=O)c1ccc(C(=O)Nc2ccccc2N2CCOCC2)cc1 (3D coordinates assigned)
CN(c1ccccc1)S(=O)(=O)c1ccc(C(=O)Nc2ccccc2N2CCOCC2)cc1 (nonaromatic ring conformer: 83.05188931092486 kcal/mol)

>  <smiles>  (45) 
CN(c1ccccc1)S(=O)(=O)c1ccc(C(=O)Nc2ccccc2N2CCOCC2)cc1

>  <score_type>  (45) 
oracle

>  <origin>  (45) 
adgpu

>  <m_score__min__energy>  (45) 
-9.8399999999999999

>  <m_primary>  (45) 
energy

$$$$
45:0
     RDKit          3D

 60 63  0  0  0  0  0  0  0  0999 V2000
   -8.9690   18.5790  -31.6050 C   0  0  0  0  0  0  0  0  0  0  0  0
   -7.5460   18.5380  -32.0690 C   0  0  0  0  0  0  0  0  0  0  0  0
   -6.9780   17.3650  -32.4610 N   0  0  0  0  0  0  0  0  0  0  0  0
   -5.7020   17.5300  -32.8780 C   0  0  0  0  0  0  0  0  0  0  0  0
   -4.8790   16.4460  -33.3480 N   0  0  0  0  0  0  0  0  0  0  0  0
   -4.8090   15.1960  -32.5890 C   0  0  0  0  0  0  0  0  0  0  0  0
   -4.1220   16.6090  -34.5910 C   0  0  0  0  0  0  0  0  0  0  0  0
   -5.2240   19.1410  -32.7800 S   0  0  0  0  0  0  0  0  0  0  0  0
   -6.7030   19.6570  -32.1600 C   0  0  0  0  0  0  0  0  0  0  0  0
   -7.0130   21.0570  -31.8020 C   0  0  0  0  0  0  0  0  0  0  0  0
   -8.1400   21.7030  -32.3330 C   0  0  0  0  0  0  0  0  0  0  0  0
   -8.4470   23.0120  -31.9550 C   0  0  0  0  0  0  0  0  0  0  0  0
   -9.5500   23.6200  -32.4580 F   0  0  0  0  0  0  0  0  0  0  0  0
   -7.6310   23.6900  -31.0460 C   0  0  0  0  0  0  0  0  0  0  0  0
   -6.4970   23.0640  -30.5070 C   0  0  0  0  0  0  0  0  0  0  0  0
   -5.6840   23.7700  -29.5550 N   0  0  0  0  0  0  0  0  0  0  0  0
   -4.3170   24.1400  -29.8020 C   0  0  0  0  0  0  0  0  0  0  0  0
   -3.8920   24.2060  -30.9880 O   0  0  0  0  0  0  0  0  0  0  0  0
   -3.4110   24.4890  -28.6830 C   0  0  0  0  0  0  0  0  0  0  0  0
   -3.8820   24.5310  -27.3580 C   0  0  0  0  0  0  0  0  0  0  0  0
   -3.0150   24.8390  -26.3060 C   0  0  0  0  0  0  0  0  0  0  0  0
   -1.6610   25.1200  -26.5550 C   0  0  0  0  0  0  0  0  0  0  0  0
   -0.7600   25.4090  -25.4670 N   0  0  0  0  0  0  0  0  0  0  0  0
   -1.2370   26.1390  -24.2880 C   0  0  0  0  0  0  0  0  0  0  0  0
   -0.0650   26.8060  -23.5470 C   0  0  0  0  0  0  0  0  0  0  0  0
    0.9460   27.3410  -24.4860 N   0  0  0  0  0  0  0  0  0  0  0  0
    0.4260   28.4830  -25.2580 C   0  0  0  0  0  0  0  0  0  0  0  0
    1.5410   26.2980  -25.3670 C   0  0  0  0  0  0  0  0  0  0  0  0
    0.6600   25.0440  -25.5320 C   0  0  0  0  0  0  0  0  0  0  0  0
   -1.1870   25.0650  -27.8740 C   0  0  0  0  0  0  0  0  0  0  0  0
   -2.0510   24.7520  -28.9270 C   0  0  0  0  0  0  0  0  0  0  0  0
   -6.2070   21.7360  -30.8720 C   0  0  0  0  0  0  0  0  0  0  0  0
   -8.9962   18.5798  -30.5053 H   0  0  0  0  0  0  0  0  0  0  0  0
   -9.4522   19.4914  -31.9844 H   0  0  0  0  0  0  0  0  0  0  0  0
   -9.5040   17.6959  -31.9844 H   0  0  0  0  0  0  0  0  0  0  0  0
   -4.8215   15.4198  -31.5121 H   0  0  0  0  0  0  0  0  0  0  0  0
   -5.6732   14.5643  -32.8423 H   0  0  0  0  0  0  0  0  0  0  0  0
   -3.8797   14.6648  -32.8423 H   0  0  0  0  0  0  0  0  0  0  0  0
   -3.0719   16.8351  -34.3538 H   0  0  0  0  0  0  0  0  0  0  0  0
   -4.1737   15.6791  -35.1764 H   0  0  0  0  0  0  0  0  0  0  0  0
   -4.5518   17.4352  -35.1764 H   0  0  0  0  0  0  0  0  0  0  0  0
   -8.7852   21.1754  -33.0509 H   0  0  0  0  0  0  0  0  0  0  0  0
   -7.8790   24.7204  -30.7513 H   0  0  0  0  0  0  0  0  0  0  0  0
   -6.1490   24.1470  -28.6990 H   0  0  0  0  0  0  0  0  0  0  0  0
   -4.9410   24.3198  -27.1483 H   0  0  0  0  0  0  0  0  0  0  0  0
   -3.3959   24.8616  -25.2743 H   0  0  0  0  0  0  0  0  0  0  0  0
   -1.9494   26.9139  -24.6075 H   0  0  0  0  0  0  0  0  0  0  0  0
   -1.7256   25.4271  -23.6064 H   0  0  0  0  0  0  0  0  0  0  0  0
   -0.4550   27.6326  -22.9349 H   0  0  0  0  0  0  0  0  0  0  0  0
    0.4206   26.0441  -22.9195 H   0  0  0  0  0  0  0  0  0  0  0  0
    0.0714   29.2618  -24.5668 H   0  0  0  0  0  0  0  0  0  0  0  0
    1.2266   28.8921  -25.8918 H   0  0  0  0  0  0  0  0  0  0  0  0
   -0.4082   28.1477  -25.8918 H   0  0  0  0  0  0  0  0  0  0  0  0
    1.7072   26.7380  -26.3614 H   0  0  0  0  0  0  0  0  0  0  0  0
    2.4760   25.9710  -24.8887 H   0  0  0  0  0  0  0  0  0  0  0  0
    0.8709   24.5775  -26.5056 H   0  0  0  0  0  0  0  0  0  0  0  0
    0.8861   24.3375  -24.7197 H   0  0  0  0  0  0  0  0  0  0  0  0
   -0.1263   25.2699  -28.0814 H   0  0  0  0  0  0  0  0  0  0  0  0
   -1.6639   24.7110  -29.9558 H   0  0  0  0  0  0  0  0  0  0  0  0
   -5.3415   21.2247  -30.4253 H   0  0  0  0  0  0  0  0  0  0  0  0
  1  2  1  0
  2  3  1  0
  3  4  2  0
  4  5  1  0
  5  6  1  0
  5  7  1  0
  4  8  1  0
  8  9  1  0
  9 10  1  0
 10 11  2  0
 11 12  1  0
 12 13  1  0
 12 14  2  0
 14 15  1  0
 15 16  1  0
 16 17  1  0
 17 18  2  0
 17 19  1  0
 19 20  2  0
 20 21  1  0
 21 22  2  0
 22 23  1  0
 23 24  1  0
 24 25  1  0
 25 26  1  0
 26 27  1  0
 26 28  1  0
 28 29  1  0
 22 30  1  0
 30 31  2  0
 15 32  2  0
  9  2  2  0
 32 10  1  0
 31 19  1  0
 29 23  1  0
  1 33  1  0
  1 34  1  0
  1 35  1  0
  6 36  1  0
  6 37  1  0
  6 38  1  0
  7 39  1  0
  7 40  1  0
  7 41  1  0
 11 42  1  0
 14 43  1  0
 16 44  1  0
 20 45  1  0
 21 46  1  0
 24 47  1  0
 24 48  1  0
 25 49  1  0
 25 50  1  0
 27 51  1  0
 27 52  1  0
 27 53  1  0
 28 54  1  0
 28 55  1  0
 29 56  1  0
 29 57  1  0
 30 58  1  0
 31 59  1  0
 32 60  1  0
M  END
>  <UniqueID>  (46) 
45

>  <SMILES>  (46) 
Cc1nc(N(C)C)sc1-c1cc(F)cc(NC(=O)c2ccc(N3CCN(C)CC3)cc2)c1

>  <Energy>  (46) 
110.42740236715962

>  <Genealogy>  (46) 
Cc1nc(N(C)C)sc1-c1cc(F)cc(NC(=O)c2ccc(N3CCN(C)CC3)cc2)c1 (3D coordinates assigned)
Cc1nc(N(C)C)sc1-c1cc(F)cc(NC(=O)c2ccc(N3CCN(C)CC3)cc2)c1 (nonaromatic ring conformer: 110.42740236715962 kcal/mol)

>  <smiles>  (46) 
Cc1nc(N(C)C)sc1-c1cc(F)cc(NC(=O)c2ccc(N3CCN(C)CC3)cc2)c1

>  <score_type>  (46) 
oracle

>  <origin>  (46) 
adgpu

>  <m_score__min__energy>  (46) 
-9.9399999999999995

>  <m_primary>  (46) 
energy

$$$$
46:0
     RDKit          3D

 39 41  0  0  0  0  0  0  0  0999 V2000
   -6.2620   16.2920  -33.8530 C   0  0  0  0  0  0  0  0  0  0  0  0
   -7.2310   16.8150  -32.9490 O   0  0  0  0  0  0  0  0  0  0  0  0
   -7.4060   18.1800  -32.6800 C   0  0  0  0  0  0  0  0  0  0  0  0
   -8.3320   18.6510  -31.7290 C   0  0  0  0  0  0  0  0  0  0  0  0
   -8.4680   20.0220  -31.4970 C   0  0  0  0  0  0  0  0  0  0  0  0
   -7.6790   20.9440  -32.2040 C   0  0  0  0  0  0  0  0  0  0  0  0
   -7.8190   22.4230  -31.9560 C   0  0  0  0  0  0  0  0  0  0  0  0
   -6.6250   23.1330  -32.4120 N   0  0  0  0  0  0  0  0  0  0  0  0
   -5.4950   23.3840  -31.5640 C   0  0  0  0  0  0  0  0  0  0  0  0
   -4.9940   24.6170  -31.1850 C   0  0  0  0  0  0  0  0  0  0  0  0
   -3.9070   24.3340  -30.3800 C   0  0  0  0  0  0  0  0  0  0  0  0
   -3.1190   25.2960  -29.7570 O   0  0  0  0  0  0  0  0  0  0  0  0
   -3.7200   23.0010  -30.2520 N   0  0  0  0  0  0  0  0  0  0  0  0
   -2.6920   22.3360  -29.4950 C   0  0  0  0  0  0  0  0  0  0  0  0
   -1.3430   22.6950  -29.6580 C   0  0  0  0  0  0  0  0  0  0  0  0
   -0.3460   22.0470  -28.9230 C   0  0  0  0  0  0  0  0  0  0  0  0
   -0.6850   21.0390  -28.0180 C   0  0  0  0  0  0  0  0  0  0  0  0
   -2.0240   20.6740  -27.8470 C   0  0  0  0  0  0  0  0  0  0  0  0
   -2.4500   19.4130  -26.7040 Cl  0  0  0  0  0  0  0  0  0  0  0  0
   -3.0250   21.3210  -28.5810 C   0  0  0  0  0  0  0  0  0  0  0  0
   -4.6970   22.4220  -30.9830 C   0  0  0  0  0  0  0  0  0  0  0  0
   -4.8510   21.0490  -31.1400 O   0  0  0  0  0  0  0  0  0  0  0  0
   -6.7640   20.4750  -33.1560 C   0  0  0  0  0  0  0  0  0  0  0  0
   -6.6280   19.1030  -33.3890 C   0  0  0  0  0  0  0  0  0  0  0  0
   -5.4335   15.8448  -33.2841 H   0  0  0  0  0  0  0  0  0  0  0  0
   -6.7287   15.5233  -34.4864 H   0  0  0  0  0  0  0  0  0  0  0  0
   -5.8756   17.1040  -34.4864 H   0  0  0  0  0  0  0  0  0  0  0  0
   -8.9508   17.9364  -31.1665 H   0  0  0  0  0  0  0  0  0  0  0  0
   -9.1974   20.3814  -30.7562 H   0  0  0  0  0  0  0  0  0  0  0  0
   -8.6957   22.8005  -32.5027 H   0  0  0  0  0  0  0  0  0  0  0  0
   -7.9438   22.5929  -30.8764 H   0  0  0  0  0  0  0  0  0  0  0  0
   -6.5900   23.4570  -33.4050 H   0  0  0  0  0  0  0  0  0  0  0  0
   -5.3784   25.6091  -31.4644 H   0  0  0  0  0  0  0  0  0  0  0  0
   -1.0703   23.4900  -30.3676 H   0  0  0  0  0  0  0  0  0  0  0  0
    0.7079   22.3318  -29.0578 H   0  0  0  0  0  0  0  0  0  0  0  0
    0.1014   20.5320  -27.4396 H   0  0  0  0  0  0  0  0  0  0  0  0
   -4.0777   21.0338  -28.4419 H   0  0  0  0  0  0  0  0  0  0  0  0
   -6.1495   21.1898  -33.7230 H   0  0  0  0  0  0  0  0  0  0  0  0
   -5.9035   18.7459  -34.1357 H   0  0  0  0  0  0  0  0  0  0  0  0
  1  2  1  0
  2  3  1  0
  3  4  2  0
  4  5  1  0
  5  6  2  0
  6  7  1  0
  7  8  1  0
  8  9  1  0
  9 10  1  0
 10 11  2  0
 11 12  1  0
 11 13  1  0
 13 14  1  0
 14 15  2  0
 15 16  1  0
 16 17  2  0
 17 18  1  0
 18 19  1  0
 18 20  2  0
 13 21  1  0
 21 22  1  0
  6 23  1  0
 23 24  2  0
 24  3  1  0
 21  9  2  0
 20 14  1  0
  1 25  1  0
  1 26  1  0
  1 27  1  0
  4 28  1  0
  5 29  1  0
  7 30  1  0
  7 31  1  0
  8 32  1  0
 10 33  1  0
 15 34  1  0
 16 35  1  0
 17 36  1  0
 20 37  1  0
 23 38  1  0
 24 39  1  0
M  CHG  2  12  -1  22  -1
M  END
>  <UniqueID>  (47) 
46

>  <SMILES>  (47) 
COc1ccc(CNc2cc([O-])n(-c3cccc(Cl)c3)c2[O-])cc1

>  <Energy>  (47) 
73.04587493037856

>  <Genealogy>  (47) 
COc1ccc(CNc2cc([O-])n(-c3cccc(Cl)c3)c2[O-])cc1 (protonated)
COc1ccc(CNc2cc([O-])n(-c3cccc(Cl)c3)c2[O-])cc1 (3D coordinates assigned)
COc1ccc(CNc2cc([O-])n(-c3cccc(Cl)c3)c2[O-])cc1 (optimized conformer: 73.04587493037856 kcal/mol)

>  <smiles>  (47) 
COc1ccc(CNc2cc(O)n(-c3cccc(Cl)c3)c2O)cc1

>  <score_type>  (47) 
oracle

>  <origin>  (47) 
adgpu

>  <m_score__min__energy>  (47) 
-10.880000000000001

>  <m_primary>  (47) 
energy

$$$$
47:0
     RDKit          3D

 47 48  0  0  0  0  0  0  0  0999 V2000
   -3.0290   19.9530  -27.1950 C   0  0  0  0  0  0  0  0  0  0  0  0
   -1.9080   20.7150  -27.7430 N   0  0  0  0  0  0  0  0  0  0  0  0
   -1.9680   22.1530  -27.7900 C   0  0  0  0  0  0  0  0  0  0  0  0
   -1.4540   22.9210  -26.7320 C   0  0  0  0  0  0  0  0  0  0  0  0
   -1.4890   24.3160  -26.7910 C   0  0  0  0  0  0  0  0  0  0  0  0
   -2.0420   24.9580  -27.9010 C   0  0  0  0  0  0  0  0  0  0  0  0
   -2.5740   24.2110  -28.9580 C   0  0  0  0  0  0  0  0  0  0  0  0
   -3.1110   24.9090  -30.0910 N   0  0  0  0  0  0  0  0  0  0  0  0
   -4.4820   24.9250  -30.5130 C   0  0  0  0  0  0  0  0  0  0  0  0
   -5.1460   25.9970  -30.4630 O   0  0  0  0  0  0  0  0  0  0  0  0
   -5.1060   23.6960  -31.0560 C   0  0  0  0  0  0  0  0  0  0  0  0
   -4.3110   22.6750  -31.6090 C   0  0  0  0  0  0  0  0  0  0  0  0
   -4.9000   21.5170  -32.1240 C   0  0  0  0  0  0  0  0  0  0  0  0
   -6.2910   21.3600  -32.0950 C   0  0  0  0  0  0  0  0  0  0  0  0
   -7.0500   19.9090  -32.7460 S   0  0  0  0  0  0  0  0  0  0  0  0
   -7.2140   20.0840  -34.2300 O   0  0  0  0  0  0  0  0  0  0  0  0
   -8.4050   19.7110  -32.1240 O   0  0  0  0  0  0  0  0  0  0  0  0
   -6.0420   18.5200  -32.4200 N   0  0  0  0  0  0  0  0  0  0  0  0
   -6.6110   17.7530  -31.3040 C   0  0  0  0  0  0  0  0  0  0  0  0
   -5.9690   17.6800  -33.6210 C   0  0  0  0  0  0  0  0  0  0  0  0
   -7.0890   22.3690  -31.5440 C   0  0  0  0  0  0  0  0  0  0  0  0
   -6.5030   23.5290  -31.0290 C   0  0  0  0  0  0  0  0  0  0  0  0
   -2.5120   22.8070  -28.9080 C   0  0  0  0  0  0  0  0  0  0  0  0
   -0.4720   19.8730  -28.2520 S   0  0  0  0  0  0  0  0  0  0  0  0
   -0.4240   19.7590  -30.0280 C   0  0  0  0  0  0  0  0  0  0  0  0
   -0.4570   18.4950  -27.6530 O   0  0  0  0  0  0  0  0  0  0  0  0
    0.7500   20.6230  -27.8030 O   0  0  0  0  0  0  0  0  0  0  0  0
   -2.9887   19.9804  -26.0961 H   0  0  0  0  0  0  0  0  0  0  0  0
   -3.9758   20.3954  -27.5383 H   0  0  0  0  0  0  0  0  0  0  0  0
   -2.9660   18.9098  -27.5383 H   0  0  0  0  0  0  0  0  0  0  0  0
   -1.0218   22.4212  -25.8526 H   0  0  0  0  0  0  0  0  0  0  0  0
   -1.0799   24.9106  -25.9609 H   0  0  0  0  0  0  0  0  0  0  0  0
   -2.0595   26.0570  -27.9447 H   0  0  0  0  0  0  0  0  0  0  0  0
   -3.2173   22.7893  -31.6361 H   0  0  0  0  0  0  0  0  0  0  0  0
   -4.2683   20.7257  -32.5539 H   0  0  0  0  0  0  0  0  0  0  0  0
   -6.2836   18.1944  -30.3511 H   0  0  0  0  0  0  0  0  0  0  0  0
   -7.7091   17.7802  -31.3626 H   0  0  0  0  0  0  0  0  0  0  0  0
   -6.2664   16.7100  -31.3626 H   0  0  0  0  0  0  0  0  0  0  0  0
   -5.8773   16.6245  -33.3252 H   0  0  0  0  0  0  0  0  0  0  0  0
   -6.8823   17.8152  -34.2190 H   0  0  0  0  0  0  0  0  0  0  0  0
   -5.0927   17.9707  -34.2190 H   0  0  0  0  0  0  0  0  0  0  0  0
   -8.1821   22.2488  -31.5160 H   0  0  0  0  0  0  0  0  0  0  0  0
   -7.1387   24.3172  -30.5994 H   0  0  0  0  0  0  0  0  0  0  0  0
   -2.8934   22.2148  -29.7529 H   0  0  0  0  0  0  0  0  0  0  0  0
   -0.0126   18.7820  -30.3217 H   0  0  0  0  0  0  0  0  0  0  0  0
   -1.4426   19.8637  -30.4298 H   0  0  0  0  0  0  0  0  0  0  0  0
    0.2129   20.5608  -30.4298 H   0  0  0  0  0  0  0  0  0  0  0  0
  1  2  1  0
  2  3  1  0
  3  4  2  0
  4  5  1  0
  5  6  2  0
  6  7  1  0
  7  8  1  0
  8  9  1  0
  9 10  2  0
  9 11  1  0
 11 12  2  0
 12 13  1  0
 13 14  2  0
 14 15  1  0
 15 16  2  0
 15 17  2  0
 15 18  1  0
 18 19  1  0
 18 20  1  0
 14 21  1  0
 21 22  2  0
  7 23  2  0
  2 24  1  0
 24 25  1  0
 24 26  2  0
 24 27  2  0
 23  3  1  0
 22 11  1  0
  1 28  1  0
  1 29  1  0
  1 30  1  0
  4 31  1  0
  5 32  1  0
  6 33  1  0
 12 34  1  0
 13 35  1  0
 19 36  1  0
 19 37  1  0
 19 38  1  0
 20 39  1  0
 20 40  1  0
 20 41  1  0
 21 42  1  0
 22 43  1  0
 23 44  1  0
 25 45  1  0
 25 46  1  0
 25 47  1  0
M  CHG  1   8  -1
M  END
>  <UniqueID>  (48) 
47

>  <SMILES>  (48) 
CN(c1cccc([N-]C(=O)c2ccc(S(=O)(=O)N(C)C)cc2)c1)S(C)(=O)=O

>  <Energy>  (48) 
49.1251986546981

>  <Genealogy>  (48) 
CN(c1cccc([N-]C(=O)c2ccc(S(=O)(=O)N(C)C)cc2)c1)S(C)(=O)=O (protonated)
CN(c1cccc([N-]C(=O)c2ccc(S(=O)(=O)N(C)C)cc2)c1)S(C)(=O)=O (3D coordinates assigned)
CN(c1cccc([N-]C(=O)c2ccc(S(=O)(=O)N(C)C)cc2)c1)S(C)(=O)=O (optimized conformer: 49.1251986546981 kcal/mol)

>  <smiles>  (48) 
CN(c1cccc(NC(=O)c2ccc(S(=O)(=O)N(C)C)cc2)c1)S(C)(=O)=O

>  <score_type>  (48) 
oracle

>  <origin>  (48) 
adgpu

>  <m_score__min__energy>  (48) 
-10.869999999999999

>  <m_primary>  (48) 
energy

$$$$
