0:0
     RDKit          3D

 42 44  0  0  0  0  0  0  0  0999 V2000
   -1.4620   21.6870  -26.6260 C   0  0  0  0  0  0  0  0  0  0  0  0
   -2.0430   22.6600  -27.6210 C   0  0  0  0  0  0  0  0  0  0  0  0
   -3.1970   22.2830  -28.3250 C   0  0  0  0  0  0  0  0  0  0  0  0
   -3.7770   23.1430  -29.2540 C   0  0  0  0  0  0  0  0  0  0  0  0
   -3.2140   24.3920  -29.5100 C   0  0  0  0  0  0  0  0  0  0  0  0
   -3.8540   25.2490  -30.4660 N   0  0  0  0  0  0  0  0  0  0  0  0
   -5.1670   25.0490  -30.9960 C   0  0  0  0  0  0  0  0  0  0  0  0
   -6.1350   25.6650  -30.4770 O   0  0  0  0  0  0  0  0  0  0  0  0
   -5.3730   24.1630  -32.1050 N   0  0  0  0  0  0  0  0  0  0  0  0
   -6.1360   22.9470  -32.1070 C   0  0  0  0  0  0  0  0  0  0  0  0
   -5.5390   21.6900  -32.3000 C   0  0  0  0  0  0  0  0  0  0  0  0
   -6.3240   20.5330  -32.3170 C   0  0  0  0  0  0  0  0  0  0  0  0
   -7.7190   20.6140  -32.1740 C   0  0  0  0  0  0  0  0  0  0  0  0
   -8.5570   19.3610  -32.1430 C   0  0  0  0  0  0  0  0  0  0  0  0
   -8.5070   18.8110  -30.8750 F   0  0  0  0  0  0  0  0  0  0  0  0
   -9.8750   19.6440  -32.4600 F   0  0  0  0  0  0  0  0  0  0  0  0
   -8.0830   18.4340  -33.0560 F   0  0  0  0  0  0  0  0  0  0  0  0
   -8.3110   21.8730  -31.9790 C   0  0  0  0  0  0  0  0  0  0  0  0
   -7.5250   23.0300  -31.9640 C   0  0  0  0  0  0  0  0  0  0  0  0
   -2.0770   24.8050  -28.7880 C   0  0  0  0  0  0  0  0  0  0  0  0
   -1.5980   26.1010  -28.9530 O   0  0  0  0  0  0  0  0  0  0  0  0
   -1.4540   23.9270  -27.8720 C   0  0  0  0  0  0  0  0  0  0  0  0
    0.0200   24.4460  -27.0120 S   0  0  0  0  0  0  0  0  0  0  0  0
    0.9130   23.2570  -26.7980 O   0  0  0  0  0  0  0  0  0  0  0  0
    0.7880   25.4370  -27.8420 O   0  0  0  0  0  0  0  0  0  0  0  0
   -0.3300   25.1900  -25.4150 C   0  0  0  0  0  0  0  0  0  0  0  0
   -0.4840   26.7020  -25.4670 C   0  0  0  0  0  0  0  0  0  0  0  0
   -1.7020   25.8250  -25.2330 C   0  0  0  0  0  0  0  0  0  0  0  0
   -1.6715   22.0379  -25.6048 H   0  0  0  0  0  0  0  0  0  0  0  0
   -1.9165   20.6962  -26.7737 H   0  0  0  0  0  0  0  0  0  0  0  0
   -0.3742   21.6171  -26.7737 H   0  0  0  0  0  0  0  0  0  0  0  0
   -3.6485   21.2970  -28.1409 H   0  0  0  0  0  0  0  0  0  0  0  0
   -4.6866   22.8342  -29.7900 H   0  0  0  0  0  0  0  0  0  0  0  0
   -4.4502   21.6157  -32.4382 H   0  0  0  0  0  0  0  0  0  0  0  0
   -5.8450   19.5509  -32.4435 H   0  0  0  0  0  0  0  0  0  0  0  0
   -9.3991   21.9494  -31.8373 H   0  0  0  0  0  0  0  0  0  0  0  0
   -8.0029   24.0128  -31.8388 H   0  0  0  0  0  0  0  0  0  0  0  0
    0.2566   24.4656  -24.8310 H   0  0  0  0  0  0  0  0  0  0  0  0
   -0.0888   27.3232  -24.6497 H   0  0  0  0  0  0  0  0  0  0  0  0
   -0.2184   27.4857  -26.1918 H   0  0  0  0  0  0  0  0  0  0  0  0
   -2.1882   25.8108  -24.2464 H   0  0  0  0  0  0  0  0  0  0  0  0
   -2.6827   25.7104  -25.7179 H   0  0  0  0  0  0  0  0  0  0  0  0
  1  2  1  0
  2  3  2  0
  3  4  1  0
  4  5  2  0
  5  6  1  0
  6  7  1  0
  7  8  2  0
  7  9  1  0
  9 10  1  0
 10 11  2  0
 11 12  1  0
 12 13  2  0
 13 14  1  0
 14 15  1  0
 14 16  1  0
 14 17  1  0
 13 18  1  0
 18 19  2  0
  5 20  1  0
 20 21  1  0
 20 22  2  0
 22 23  1  0
 23 24  2  0
 23 25  2  0
 23 26  1  0
 26 27  1  0
 27 28  1  0
 22  2  1  0
 28 26  1  0
 19 10  1  0
  1 29  1  0
  1 30  1  0
  1 31  1  0
  3 32  1  0
  4 33  1  0
 11 34  1  0
 12 35  1  0
 18 36  1  0
 19 37  1  0
 26 38  1  0
 27 39  1  0
 27 40  1  0
 28 41  1  0
 28 42  1  0
M  CHG  3   6  -1   9  -1  21  -1
M  END
>  <UniqueID>  (1) 
1

>  <SMILES>  (1) 
Cc1ccc([N-]C(=O)[N-]c2ccc(C(F)(F)F)cc2)c([O-])c1S(=O)(=O)C1CC1

>  <Energy>  (1) 
319.154457827334

>  <Genealogy>  (1) 
Cc1ccc([N-]C(=O)[N-]c2ccc(C(F)(F)F)cc2)c([O-])c1S(=O)(=O)C1CC1 (protonated)
Cc1ccc([N-]C(=O)[N-]c2ccc(C(F)(F)F)cc2)c([O-])c1S(=O)(=O)C1CC1 (3D coordinates assigned)
Cc1ccc([N-]C(=O)[N-]c2ccc(C(F)(F)F)cc2)c([O-])c1S(=O)(=O)C1CC1 (nonaromatic ring conformer: 319.154457827334 kcal/mol)

>  <smiles>  (1) 
Cc1ccc(NC(=O)Nc2ccc(C(F)(F)F)cc2)c(O)c1S(=O)(=O)C1CC1

>  <score_type>  (1) 
oracle

>  <origin>  (1) 
adgpu

>  <m_score__min__energy>  (1) 
-14.66

>  <m_primary>  (1) 
energy

$$$$
1:0
     RDKit          3D

 44 46  0  0  0  0  0  0  0  0999 V2000
   -3.1150   25.6550  -29.9200 H   0  0  0  0  0  0  0  0  0  0  0  0
   -3.5210   25.3410  -30.7930 O   0  0  0  0  0  0  0  0  0  0  0  0
   -4.4580   24.3110  -30.8170 C   0  0  0  0  0  0  0  0  0  0  0  0
   -5.7690   24.6010  -30.9960 N   0  0  0  0  0  0  0  0  0  0  0  0
   -6.7110   23.6280  -31.0690 C   0  0  0  0  0  0  0  0  0  0  0  0
   -7.9150   23.9620  -31.2380 O   0  0  0  0  0  0  0  0  0  0  0  0
   -6.3530   22.3060  -30.9740 N   0  0  0  0  0  0  0  0  0  0  0  0
   -7.3700   21.2420  -31.1040 C   0  0  0  0  0  0  0  0  0  0  0  0
   -7.5498   20.7934  -30.1159 H   0  0  0  0  0  0  0  0  0  0  0  0
   -8.2951   21.6873  -31.4987 H   0  0  0  0  0  0  0  0  0  0  0  0
   -6.9090   20.1690  -32.0560 C   0  0  0  0  0  0  0  0  0  0  0  0
   -6.9570   18.8160  -31.6760 C   0  0  0  0  0  0  0  0  0  0  0  0
   -7.3144   18.5409  -30.6727 H   0  0  0  0  0  0  0  0  0  0  0  0
   -6.5520   17.8190  -32.5690 C   0  0  0  0  0  0  0  0  0  0  0  0
   -6.5948   16.7618  -32.2682 H   0  0  0  0  0  0  0  0  0  0  0  0
   -6.0930   18.1640  -33.8430 C   0  0  0  0  0  0  0  0  0  0  0  0
   -5.7789   17.3782  -34.5458 H   0  0  0  0  0  0  0  0  0  0  0  0
   -6.0330   19.5060  -34.2240 C   0  0  0  0  0  0  0  0  0  0  0  0
   -5.6695   19.7762  -35.2264 H   0  0  0  0  0  0  0  0  0  0  0  0
   -6.4340   20.5070  -33.3340 C   0  0  0  0  0  0  0  0  0  0  0  0
   -6.3773   21.5633  -33.6358 H   0  0  0  0  0  0  0  0  0  0  0  0
   -5.0360   21.9760  -30.7600 C   0  0  0  0  0  0  0  0  0  0  0  0
   -4.6930   20.7660  -30.6390 O   0  0  0  0  0  0  0  0  0  0  0  0
   -4.0560   22.9800  -30.6730 C   0  0  0  0  0  0  0  0  0  0  0  0
   -2.6250   22.6380  -30.4890 C   0  0  0  0  0  0  0  0  0  0  0  0
   -2.0170   22.7800  -29.3450 N   0  0  0  0  0  0  0  0  0  0  0  0
   -2.6000   23.3000  -28.1060 C   0  0  0  0  0  0  0  0  0  0  0  0
   -3.5280   23.8399  -28.3451 H   0  0  0  0  0  0  0  0  0  0  0  0
   -2.8060   22.4526  -27.4356 H   0  0  0  0  0  0  0  0  0  0  0  0
   -1.6500   24.2400  -27.4090 C   0  0  0  0  0  0  0  0  0  0  0  0
   -1.2320   23.9710  -26.0940 C   0  0  0  0  0  0  0  0  0  0  0  0
   -1.5807   23.0606  -25.5844 H   0  0  0  0  0  0  0  0  0  0  0  0
   -0.3760   24.8540  -25.4310 C   0  0  0  0  0  0  0  0  0  0  0  0
   -0.0539   24.6383  -24.4016 H   0  0  0  0  0  0  0  0  0  0  0  0
    0.0710   26.0100  -26.0740 C   0  0  0  0  0  0  0  0  0  0  0  0
    0.7388   26.7077  -25.5475 H   0  0  0  0  0  0  0  0  0  0  0  0
   -0.3280   26.2820  -27.3840 C   0  0  0  0  0  0  0  0  0  0  0  0
    0.0349   27.1880  -27.8914 H   0  0  0  0  0  0  0  0  0  0  0  0
   -1.1890   25.4040  -28.0530 C   0  0  0  0  0  0  0  0  0  0  0  0
   -1.5850   25.6990  -29.3540 O   0  0  0  0  0  0  0  0  0  0  0  0
   -1.8770   22.0090  -31.6230 C   0  0  0  0  0  0  0  0  0  0  0  0
   -1.0925   21.3493  -31.2237 H   0  0  0  0  0  0  0  0  0  0  0  0
   -2.5725   21.4203  -32.2393 H   0  0  0  0  0  0  0  0  0  0  0  0
   -1.4164   22.7952  -32.2393 H   0  0  0  0  0  0  0  0  0  0  0  0
  1  2  1  0
  2  3  1  0
  3  4  1  0
  4  5  1  0
  5  6  2  0
  5  7  1  0
  7  8  1  0
  8  9  1  0
  8 10  1  0
  8 11  1  0
 11 12  2  0
 12 13  1  0
 12 14  1  0
 14 15  1  0
 14 16  2  0
 16 17  1  0
 16 18  1  0
 18 19  1  0
 18 20  2  0
 20 21  1  0
  7 22  1  0
 22 23  2  0
 22 24  1  0
 24 25  1  0
 25 26  2  0
 26 27  1  0
 27 28  1  0
 27 29  1  0
 27 30  1  0
 30 31  2  0
 31 32  1  0
 31 33  1  0
 33 34  1  0
 33 35  2  0
 35 36  1  0
 35 37  1  0
 37 38  1  0
 37 39  2  0
 39 40  1  0
 25 41  1  0
 41 42  1  0
 41 43  1  0
 41 44  1  0
 24  3  2  0
 39 30  1  0
 20 11  1  0
M  CHG  2   4  -1  40  -1
M  END
>  <UniqueID>  (2) 
2

>  <SMILES>  (2) 
C/C(=N/Cc1ccccc1[O-])c1c(O)[n-]c(=O)n(Cc2ccccc2)c1=O

>  <Energy>  (2) 
51.688644103007704

>  <Genealogy>  (2) 
CC(=NCc1ccccc1[O-])c1c(O)[n-]c(=O)n(Cc2ccccc2)c1=O (protonated)
C/C(=N/Cc1ccccc1[O-])c1c(O)[n-]c(=O)n(Cc2ccccc2)c1=O (cis-trans isomerization)
C/C(=N/Cc1ccccc1[O-])c1c(O)[n-]c(=O)n(Cc2ccccc2)c1=O (3D coordinates assigned)
C/C(=N/Cc1ccccc1[O-])c1c(O)[n-]c(=O)n(Cc2ccccc2)c1=O (optimized conformer: 51.688644103007704 kcal/mol)

>  <smiles>  (2) 
CC(=NCc1ccccc1O)c1c(O)[nH]c(=O)n(Cc2ccccc2)c1=O

>  <score_type>  (2) 
oracle

>  <origin>  (2) 
adgpu

>  <m_score__min__energy>  (2) 
-12.699999999999999

>  <m_primary>  (2) 
energy

$$$$
2:0
     RDKit          3D

 53 56  0  0  0  0  0  0  0  0999 V2000
   -3.8710   25.6710  -30.7960 O   0  0  0  0  0  0  0  0  0  0  0  0
   -4.7280   24.7620  -30.6460 C   0  0  0  0  0  0  0  0  0  0  0  0
   -5.2900   24.5000  -29.2760 C   0  0  0  0  0  0  0  0  0  0  0  0
   -4.6790   22.9060  -28.6340 S   0  0  0  0  0  0  0  0  0  0  0  0
   -2.9860   23.4790  -28.4770 C   0  0  0  0  0  0  0  0  0  0  0  0
   -1.9540   22.8130  -29.1560 C   0  0  0  0  0  0  0  0  0  0  0  0
   -0.6330   23.2590  -29.0390 C   0  0  0  0  0  0  0  0  0  0  0  0
   -0.3440   24.3700  -28.2400 C   0  0  0  0  0  0  0  0  0  0  0  0
   -1.3790   25.0550  -27.5820 C   0  0  0  0  0  0  0  0  0  0  0  0
   -2.6980   24.6030  -27.6880 C   0  0  0  0  0  0  0  0  0  0  0  0
   -1.0730   26.1880  -26.8190 O   0  0  0  0  0  0  0  0  0  0  0  0
    0.2050   26.8220  -26.9270 C   0  0  0  0  0  0  0  0  0  0  0  0
    1.3140   25.7690  -27.0720 C   0  0  0  0  0  0  0  0  0  0  0  0
    0.9710   24.8170  -28.0850 O   0  0  0  0  0  0  0  0  0  0  0  0
   -5.1650   24.0280  -31.7990 N   0  0  0  0  0  0  0  0  0  0  0  0
   -4.9550   22.6330  -32.0520 C   0  0  0  0  0  0  0  0  0  0  0  0
   -3.6470   22.1360  -32.0600 C   0  0  0  0  0  0  0  0  0  0  0  0
   -3.4080   20.7790  -32.2890 C   0  0  0  0  0  0  0  0  0  0  0  0
   -4.4780   19.9020  -32.4880 C   0  0  0  0  0  0  0  0  0  0  0  0
   -5.7960   20.3770  -32.4420 C   0  0  0  0  0  0  0  0  0  0  0  0
   -7.1510   19.2680  -32.6560 S   0  0  0  0  0  0  0  0  0  0  0  0
   -8.3600   20.0500  -33.0930 O   0  0  0  0  0  0  0  0  0  0  0  0
   -7.4740   18.6190  -31.3380 O   0  0  0  0  0  0  0  0  0  0  0  0
   -6.8010   18.0210  -33.8340 N   0  0  0  0  0  0  0  0  0  0  0  0
   -5.8360   18.4780  -34.8610 C   0  0  0  0  0  0  0  0  0  0  0  0
   -4.8030   17.4120  -35.2430 C   0  0  0  0  0  0  0  0  0  0  0  0
   -4.0660   16.9420  -33.9890 C   0  0  0  0  0  0  0  0  0  0  0  0
   -5.0310   16.4810  -32.8780 C   0  0  0  0  0  0  0  0  0  0  0  0
   -6.5220   16.7110  -33.2060 C   0  0  0  0  0  0  0  0  0  0  0  0
   -6.0320   21.7430  -32.2170 C   0  0  0  0  0  0  0  0  0  0  0  0
   -4.9801   25.3075  -28.5964 H   0  0  0  0  0  0  0  0  0  0  0  0
   -6.3874   24.4620  -29.3412 H   0  0  0  0  0  0  0  0  0  0  0  0
   -2.1843   21.9381  -29.7818 H   0  0  0  0  0  0  0  0  0  0  0  0
    0.1751   22.7379  -29.5733 H   0  0  0  0  0  0  0  0  0  0  0  0
   -3.5059   25.1261  -27.1554 H   0  0  0  0  0  0  0  0  0  0  0  0
    0.2106   27.4784  -27.8097 H   0  0  0  0  0  0  0  0  0  0  0  0
    0.3892   27.4115  -26.0167 H   0  0  0  0  0  0  0  0  0  0  0  0
    2.2541   26.2688  -27.3482 H   0  0  0  0  0  0  0  0  0  0  0  0
    1.4325   25.2422  -26.1136 H   0  0  0  0  0  0  0  0  0  0  0  0
   -2.8019   22.8180  -31.8849 H   0  0  0  0  0  0  0  0  0  0  0  0
   -2.3757   20.3998  -32.3128 H   0  0  0  0  0  0  0  0  0  0  0  0
   -4.2853   18.8364  -32.6812 H   0  0  0  0  0  0  0  0  0  0  0  0
   -6.3961   18.7603  -35.7646 H   0  0  0  0  0  0  0  0  0  0  0  0
   -5.2832   19.3269  -34.4322 H   0  0  0  0  0  0  0  0  0  0  0  0
   -5.3142   16.5570  -35.7096 H   0  0  0  0  0  0  0  0  0  0  0  0
   -4.0805   17.8404  -35.9533 H   0  0  0  0  0  0  0  0  0  0  0  0
   -3.4105   16.1009  -34.2589 H   0  0  0  0  0  0  0  0  0  0  0  0
   -3.4891   17.7940  -33.5999 H   0  0  0  0  0  0  0  0  0  0  0  0
   -4.8759   15.4051  -32.7096 H   0  0  0  0  0  0  0  0  0  0  0  0
   -4.8039   17.0862  -31.9879 H   0  0  0  0  0  0  0  0  0  0  0  0
   -6.8515   15.9192  -33.8948 H   0  0  0  0  0  0  0  0  0  0  0  0
   -7.0664   16.6919  -32.2504 H   0  0  0  0  0  0  0  0  0  0  0  0
   -7.0646   22.1191  -32.1695 H   0  0  0  0  0  0  0  0  0  0  0  0
  1  2  2  0
  2  3  1  0
  3  4  1  0
  4  5  1  0
  5  6  2  0
  6  7  1  0
  7  8  2  0
  8  9  1  0
  9 10  2  0
  9 11  1  0
 11 12  1  0
 12 13  1  0
 13 14  1  0
  2 15  1  0
 15 16  1  0
 16 17  2  0
 17 18  1  0
 18 19  2  0
 19 20  1  0
 20 21  1  0
 21 22  2  0
 21 23  2  0
 21 24  1  0
 24 25  1  0
 25 26  1  0
 26 27  1  0
 27 28  1  0
 28 29  1  0
 20 30  2  0
 10  5  1  0
 30 16  1  0
 14  8  1  0
 29 24  1  0
  3 31  1  0
  3 32  1  0
  6 33  1  0
  7 34  1  0
 10 35  1  0
 12 36  1  0
 12 37  1  0
 13 38  1  0
 13 39  1  0
 17 40  1  0
 18 41  1  0
 19 42  1  0
 25 43  1  0
 25 44  1  0
 26 45  1  0
 26 46  1  0
 27 47  1  0
 27 48  1  0
 28 49  1  0
 28 50  1  0
 29 51  1  0
 29 52  1  0
 30 53  1  0
M  CHG  1  15  -1
M  END
>  <UniqueID>  (3) 
3

>  <SMILES>  (3) 
O=C(CSc1ccc2c(c1)OCCO2)[N-]c1cccc(S(=O)(=O)N2CCCCC2)c1

>  <Energy>  (3) 
63.165338606761765

>  <Genealogy>  (3) 
O=C(CSc1ccc2c(c1)OCCO2)[N-]c1cccc(S(=O)(=O)N2CCCCC2)c1 (protonated)
O=C(CSc1ccc2c(c1)OCCO2)[N-]c1cccc(S(=O)(=O)N2CCCCC2)c1 (3D coordinates assigned)
O=C(CSc1ccc2c(c1)OCCO2)[N-]c1cccc(S(=O)(=O)N2CCCCC2)c1 (nonaromatic ring conformer: 63.165338606761765 kcal/mol)

>  <smiles>  (3) 
O=C(CSc1ccc2c(c1)OCCO2)Nc1cccc(S(=O)(=O)N2CCCCC2)c1

>  <score_type>  (3) 
oracle

>  <origin>  (3) 
adgpu

>  <m_score__min__energy>  (3) 
-11.81

>  <m_primary>  (3) 
energy

$$$$
3:0
     RDKit          3D

 44 46  0  0  0  0  0  0  0  0999 V2000
   -4.0990   21.5300  -29.4510 H   0  0  0  0  0  0  0  0  0  0  0  0
   -4.8870   22.1130  -29.8050 N   0  0  0  0  0  0  0  0  0  0  0  0
   -4.7390   23.3540  -30.1540 C   0  0  0  0  0  0  0  0  0  0  0  0
   -5.7420   24.1730  -30.6200 C   0  0  0  0  0  0  0  0  0  0  0  0
   -7.1960   23.8620  -30.7610 C   0  0  0  0  0  0  0  0  0  0  0  0
   -7.6487   23.7652  -29.7632 H   0  0  0  0  0  0  0  0  0  0  0  0
   -7.6929   24.6742  -31.3118 H   0  0  0  0  0  0  0  0  0  0  0  0
   -7.3172   22.9176  -31.3118 H   0  0  0  0  0  0  0  0  0  0  0  0
   -5.1260   25.3970  -30.8060 C   0  0  0  0  0  0  0  0  0  0  0  0
   -5.6238   26.3111  -31.1618 H   0  0  0  0  0  0  0  0  0  0  0  0
   -3.8180   25.2960  -30.4830 N   0  0  0  0  0  0  0  0  0  0  0  0
   -3.5830   24.0500  -30.0970 N   0  0  0  0  0  0  0  0  0  0  0  0
   -2.2810   23.5940  -29.6120 C   0  0  0  0  0  0  0  0  0  0  0  0
   -1.5696   24.4326  -29.6391 H   0  0  0  0  0  0  0  0  0  0  0  0
   -2.3916   23.2270  -28.5809 H   0  0  0  0  0  0  0  0  0  0  0  0
   -1.7640   22.4760  -30.4770 C   0  0  0  0  0  0  0  0  0  0  0  0
   -0.5330   21.8710  -30.1790 C   0  0  0  0  0  0  0  0  0  0  0  0
    0.0625   22.2300  -29.3267 H   0  0  0  0  0  0  0  0  0  0  0  0
   -0.0620   20.8140  -30.9620 C   0  0  0  0  0  0  0  0  0  0  0  0
    0.8996   20.3383  -30.7189 H   0  0  0  0  0  0  0  0  0  0  0  0
   -0.8070   20.3590  -32.0520 C   0  0  0  0  0  0  0  0  0  0  0  0
   -0.4362   19.5187  -32.6573 H   0  0  0  0  0  0  0  0  0  0  0  0
   -2.0300   20.9720  -32.3780 C   0  0  0  0  0  0  0  0  0  0  0  0
   -2.8380   20.5230  -33.4750 N   0  0  0  0  0  0  0  0  0  0  0  0
   -4.1360   19.9210  -33.3910 C   0  0  0  0  0  0  0  0  0  0  0  0
   -4.4890   19.0440  -34.2250 O   0  0  0  0  0  0  0  0  0  0  0  0
   -5.0310   20.3370  -32.3500 N   0  0  0  0  0  0  0  0  0  0  0  0
   -4.6210   20.8710  -31.5510 H   0  0  0  0  0  0  0  0  0  0  0  0
   -6.4160   19.9580  -32.2730 C   0  0  0  0  0  0  0  0  0  0  0  0
   -6.7560   18.5970  -32.2630 C   0  0  0  0  0  0  0  0  0  0  0  0
   -5.9656   17.8356  -32.3376 H   0  0  0  0  0  0  0  0  0  0  0  0
   -8.0910   18.2030  -32.1590 C   0  0  0  0  0  0  0  0  0  0  0  0
   -8.3485   17.1336  -32.1597 H   0  0  0  0  0  0  0  0  0  0  0  0
   -9.1010   19.1620  -32.0540 C   0  0  0  0  0  0  0  0  0  0  0  0
  -10.1512   18.8456  -31.9703 H   0  0  0  0  0  0  0  0  0  0  0  0
   -8.7800   20.5270  -32.0550 C   0  0  0  0  0  0  0  0  0  0  0  0
   -9.8570   21.5570  -31.8810 C   0  0  0  0  0  0  0  0  0  0  0  0
  -10.0333   21.7256  -30.8084 H   0  0  0  0  0  0  0  0  0  0  0  0
   -9.5429   22.4994  -32.3535 H   0  0  0  0  0  0  0  0  0  0  0  0
  -10.7844   21.2012  -32.3535 H   0  0  0  0  0  0  0  0  0  0  0  0
   -7.4340   20.9210  -32.1420 C   0  0  0  0  0  0  0  0  0  0  0  0
   -7.1742   21.9893  -32.1075 H   0  0  0  0  0  0  0  0  0  0  0  0
   -2.5100   22.0150  -31.5750 C   0  0  0  0  0  0  0  0  0  0  0  0
   -3.4807   22.4777  -31.8064 H   0  0  0  0  0  0  0  0  0  0  0  0
  1  2  1  0
  2  3  2  0
  3  4  1  0
  4  5  1  0
  5  6  1  0
  5  7  1  0
  5  8  1  0
  4  9  2  0
  9 10  1  0
  9 11  1  0
 11 12  1  0
 12 13  1  0
 13 14  1  0
 13 15  1  0
 13 16  1  0
 16 17  2  0
 17 18  1  0
 17 19  1  0
 19 20  1  0
 19 21  2  0
 21 22  1  0
 21 23  1  0
 23 24  1  0
 24 25  1  0
 25 26  2  0
 25 27  1  0
 27 28  1  0
 27 29  1  0
 29 30  2  0
 30 31  1  0
 30 32  1  0
 32 33  1  0
 32 34  2  0
 34 35  1  0
 34 36  1  0
 36 37  1  0
 37 38  1  0
 37 39  1  0
 37 40  1  0
 36 41  2  0
 41 42  1  0
 23 43  2  0
 43 44  1  0
 12  3  1  0
 43 16  1  0
 41 29  1  0
M  CHG  2  11  -1  24  -1
M  END
>  <UniqueID>  (4) 
4

>  <SMILES>  (4) 
[H]/N=c1/c(C)c[n-]n1Cc1cccc([N-]C(=O)Nc2cccc(C)c2)c1

>  <Energy>  (4) 
82.43278833197922

>  <Genealogy>  (4) 
Cc1cccc(NC(=O)[N-]c2cccc(Cn3[n-]cc(C)c3=N)c2)c1 (protonated)
[H]/N=c1/c(C)c[n-]n1Cc1cccc([N-]C(=O)Nc2cccc(C)c2)c1 (cis-trans isomerization)
[H]/N=c1/c(C)c[n-]n1Cc1cccc([N-]C(=O)Nc2cccc(C)c2)c1 (3D coordinates assigned)
[H]/N=c1/c(C)c[n-]n1Cc1cccc([N-]C(=O)Nc2cccc(C)c2)c1 (optimized conformer: 82.43278833197922 kcal/mol)

>  <smiles>  (4) 
Cc1cccc(NC(=O)Nc2cccc(Cn3[nH]cc(C)c3=N)c2)c1

>  <score_type>  (4) 
oracle

>  <origin>  (4) 
adgpu

>  <m_score__min__energy>  (4) 
-10

>  <m_primary>  (4) 
energy

$$$$
4:0
     RDKit          3D

 47 50  0  0  0  0  0  0  0  0999 V2000
   -0.8170   23.4770  -29.0410 C   0  0  0  0  0  0  0  0  0  0  0  0
   -2.1230   23.3640  -29.7630 C   0  0  0  0  0  0  0  0  0  0  0  0
   -2.2800   22.4320  -30.7920 C   0  0  0  0  0  0  0  0  0  0  0  0
   -3.5130   22.3060  -31.4490 C   0  0  0  0  0  0  0  0  0  0  0  0
   -3.6540   21.2640  -32.4920 C   0  0  0  0  0  0  0  0  0  0  0  0
   -3.4590   21.5670  -33.6990 O   0  0  0  0  0  0  0  0  0  0  0  0
   -4.0640   19.9310  -32.1400 N   0  0  0  0  0  0  0  0  0  0  0  0
   -4.0130   18.8300  -33.0640 C   0  0  0  0  0  0  0  0  0  0  0  0
   -2.9860   17.8750  -32.9570 C   0  0  0  0  0  0  0  0  0  0  0  0
   -2.9270   16.7940  -33.8380 C   0  0  0  0  0  0  0  0  0  0  0  0
   -3.8940   16.6470  -34.8300 C   0  0  0  0  0  0  0  0  0  0  0  0
   -4.9270   17.5780  -34.9430 C   0  0  0  0  0  0  0  0  0  0  0  0
   -5.0070   18.6730  -34.0630 C   0  0  0  0  0  0  0  0  0  0  0  0
   -6.1250   19.6770  -34.2370 C   0  0  0  0  0  0  0  0  0  0  0  0
   -7.1560   19.5560  -33.1410 C   0  0  0  0  0  0  0  0  0  0  0  0
   -7.5110   18.2920  -32.6400 C   0  0  0  0  0  0  0  0  0  0  0  0
   -8.4620   18.1770  -31.6210 C   0  0  0  0  0  0  0  0  0  0  0  0
   -9.0790   19.3220  -31.1090 C   0  0  0  0  0  0  0  0  0  0  0  0
   -8.7500   20.5810  -31.6180 C   0  0  0  0  0  0  0  0  0  0  0  0
   -7.7980   20.6990  -32.6350 C   0  0  0  0  0  0  0  0  0  0  0  0
   -4.5860   23.1470  -31.0630 C   0  0  0  0  0  0  0  0  0  0  0  0
   -5.8410   23.1290  -31.7080 C   0  0  0  0  0  0  0  0  0  0  0  0
   -6.8670   23.9800  -31.2860 C   0  0  0  0  0  0  0  0  0  0  0  0
   -6.6570   24.8640  -30.2280 C   0  0  0  0  0  0  0  0  0  0  0  0
   -5.4160   24.9130  -29.5910 C   0  0  0  0  0  0  0  0  0  0  0  0
   -4.3790   24.0690  -30.0050 C   0  0  0  0  0  0  0  0  0  0  0  0
   -3.1690   24.1460  -29.3920 N   0  0  0  0  0  0  0  0  0  0  0  0
   -0.9955   23.4616  -27.9557 H   0  0  0  0  0  0  0  0  0  0  0  0
   -0.1704   22.6314  -29.3183 H   0  0  0  0  0  0  0  0  0  0  0  0
   -0.3252   24.4211  -29.3183 H   0  0  0  0  0  0  0  0  0  0  0  0
   -1.4337   21.7947  -31.0880 H   0  0  0  0  0  0  0  0  0  0  0  0
   -4.4120   19.7550  -31.1720 H   0  0  0  0  0  0  0  0  0  0  0  0
   -2.2226   17.9810  -32.1721 H   0  0  0  0  0  0  0  0  0  0  0  0
   -2.1155   16.0568  -33.7489 H   0  0  0  0  0  0  0  0  0  0  0  0
   -3.8431   15.7959  -35.5250 H   0  0  0  0  0  0  0  0  0  0  0  0
   -5.6871   17.4546  -35.7285 H   0  0  0  0  0  0  0  0  0  0  0  0
   -5.7001   20.6914  -34.2170 H   0  0  0  0  0  0  0  0  0  0  0  0
   -6.6202   19.4774  -35.1988 H   0  0  0  0  0  0  0  0  0  0  0  0
   -7.0383   17.3880  -33.0516 H   0  0  0  0  0  0  0  0  0  0  0  0
   -8.7243   17.1858  -31.2226 H   0  0  0  0  0  0  0  0  0  0  0  0
   -9.8241   19.2319  -30.3048 H   0  0  0  0  0  0  0  0  0  0  0  0
   -9.2407   21.4805  -31.2180 H   0  0  0  0  0  0  0  0  0  0  0  0
   -7.5504   21.6909  -33.0409 H   0  0  0  0  0  0  0  0  0  0  0  0
   -6.0133   22.4407  -32.5486 H   0  0  0  0  0  0  0  0  0  0  0  0
   -7.8440   23.9521  -31.7907 H   0  0  0  0  0  0  0  0  0  0  0  0
   -7.4713   25.5242  -29.8947 H   0  0  0  0  0  0  0  0  0  0  0  0
   -5.2525   25.6167  -28.7615 H   0  0  0  0  0  0  0  0  0  0  0  0
  1  2  1  0
  2  3  2  0
  3  4  1  0
  4  5  1  0
  5  6  2  0
  5  7  1  0
  7  8  1  0
  8  9  2  0
  9 10  1  0
 10 11  2  0
 11 12  1  0
 12 13  2  0
 13 14  1  0
 14 15  1  0
 15 16  2  0
 16 17  1  0
 17 18  2  0
 18 19  1  0
 19 20  2  0
  4 21  2  0
 21 22  1  0
 22 23  2  0
 23 24  1  0
 24 25  2  0
 25 26  1  0
 26 27  2  0
 27  2  1  0
 13  8  1  0
 20 15  1  0
 26 21  1  0
  1 28  1  0
  1 29  1  0
  1 30  1  0
  3 31  1  0
  7 32  1  0
  9 33  1  0
 10 34  1  0
 11 35  1  0
 12 36  1  0
 14 37  1  0
 14 38  1  0
 16 39  1  0
 17 40  1  0
 18 41  1  0
 19 42  1  0
 20 43  1  0
 22 44  1  0
 23 45  1  0
 24 46  1  0
 25 47  1  0
M  END
>  <UniqueID>  (5) 
5

>  <SMILES>  (5) 
Cc1cc(C(=O)Nc2ccccc2Cc2ccccc2)c2ccccc2n1

>  <Energy>  (5) 
63.37864211363122

>  <Genealogy>  (5) 
Cc1cc(C(=O)Nc2ccccc2Cc2ccccc2)c2ccccc2n1 (3D coordinates assigned)
Cc1cc(C(=O)Nc2ccccc2Cc2ccccc2)c2ccccc2n1 (optimized conformer: 63.37864211363122 kcal/mol)

>  <smiles>  (5) 
Cc1cc(C(=O)Nc2ccccc2Cc2ccccc2)c2ccccc2n1

>  <score_type>  (5) 
oracle

>  <origin>  (5) 
adgpu

>  <m_score__min__energy>  (5) 
-9.2300000000000004

>  <m_primary>  (5) 
energy

$$$$
5:0
     RDKit          3D

 68 72  0  0  0  0  0  0  0  0999 V2000
   -9.4540   21.5630  -30.6460 C   0  0  0  0  0  0  0  0  0  0  0  0
   -8.1690   21.3080  -31.2920 N   0  0  0  0  0  0  0  0  0  0  0  0
   -7.2060   22.2130  -31.6070 C   0  0  0  0  0  0  0  0  0  0  0  0
   -7.3190   23.9640  -31.2220 S   0  0  0  0  0  0  0  0  0  0  0  0
   -5.8810   23.9860  -30.0960 C   0  0  0  0  0  0  0  0  0  0  0  0
   -5.0080   25.1700  -30.4040 C   0  0  0  0  0  0  0  0  0  0  0  0
   -5.5460   26.2840  -30.6400 O   0  0  0  0  0  0  0  0  0  0  0  0
   -3.5810   25.0680  -30.4730 N   0  0  0  0  0  0  0  0  0  0  0  0
   -2.7490   24.0860  -29.8390 C   0  0  0  0  0  0  0  0  0  0  0  0
   -2.9030   22.7100  -30.0810 C   0  0  0  0  0  0  0  0  0  0  0  0
   -2.1060   21.7840  -29.4050 C   0  0  0  0  0  0  0  0  0  0  0  0
   -1.1730   22.2180  -28.4600 C   0  0  0  0  0  0  0  0  0  0  0  0
   -1.0390   23.5850  -28.1820 C   0  0  0  0  0  0  0  0  0  0  0  0
    0.1050   24.1490  -26.9660 S   0  0  0  0  0  0  0  0  0  0  0  0
    0.9620   22.9890  -26.5390 O   0  0  0  0  0  0  0  0  0  0  0  0
    0.9950   25.2130  -27.5460 O   0  0  0  0  0  0  0  0  0  0  0  0
   -0.7700   24.7820  -25.5930 N   0  0  0  0  0  0  0  0  0  0  0  0
   -1.6960   25.8660  -26.0060 C   0  0  0  0  0  0  0  0  0  0  0  0
   -1.1520   27.2710  -25.7030 C   0  0  0  0  0  0  0  0  0  0  0  0
   -0.8510   27.4440  -24.2030 C   0  0  0  0  0  0  0  0  0  0  0  0
   -0.4550   26.1240  -23.5200 C   0  0  0  0  0  0  0  0  0  0  0  0
    0.1810   25.1580  -24.5230 C   0  0  0  0  0  0  0  0  0  0  0  0
   -1.8240   24.5130  -28.8770 C   0  0  0  0  0  0  0  0  0  0  0  0
   -6.1810   21.6870  -32.3270 N   0  0  0  0  0  0  0  0  0  0  0  0
   -6.5460   20.3990  -32.4700 C   0  0  0  0  0  0  0  0  0  0  0  0
   -5.8760   19.4020  -33.1750 C   0  0  0  0  0  0  0  0  0  0  0  0
   -6.4920   18.1350  -33.2810 C   0  0  0  0  0  0  0  0  0  0  0  0
   -5.6980   16.8390  -34.1830 S   0  0  0  0  0  0  0  0  0  0  0  0
   -6.7340   15.8230  -34.5830 O   0  0  0  0  0  0  0  0  0  0  0  0
   -5.1040   17.4110  -35.4410 O   0  0  0  0  0  0  0  0  0  0  0  0
   -4.4220   16.0480  -33.2840 N   0  0  0  0  0  0  0  0  0  0  0  0
   -4.9320   15.0200  -32.3770 C   0  0  0  0  0  0  0  0  0  0  0  0
   -3.7790   14.0630  -32.1460 C   0  0  0  0  0  0  0  0  0  0  0  0
   -2.9340   14.1620  -33.4030 C   0  0  0  0  0  0  0  0  0  0  0  0
   -3.4550   15.3800  -34.1560 C   0  0  0  0  0  0  0  0  0  0  0  0
   -7.7570   17.9150  -32.6800 C   0  0  0  0  0  0  0  0  0  0  0  0
   -8.3960   18.9380  -31.9570 C   0  0  0  0  0  0  0  0  0  0  0  0
   -7.7490   20.1710  -31.8690 C   0  0  0  0  0  0  0  0  0  0  0  0
   -9.3267   21.5377  -29.5537 H   0  0  0  0  0  0  0  0  0  0  0  0
   -9.8267   22.5526  -30.9489 H   0  0  0  0  0  0  0  0  0  0  0  0
  -10.1763   20.7907  -30.9489 H   0  0  0  0  0  0  0  0  0  0  0  0
   -6.2331   24.0532  -29.0560 H   0  0  0  0  0  0  0  0  0  0  0  0
   -5.2998   23.0622  -30.2329 H   0  0  0  0  0  0  0  0  0  0  0  0
   -3.6539   22.3615  -30.8054 H   0  0  0  0  0  0  0  0  0  0  0  0
   -2.2130   20.7100  -29.6171 H   0  0  0  0  0  0  0  0  0  0  0  0
   -0.5429   21.4859  -27.9336 H   0  0  0  0  0  0  0  0  0  0  0  0
   -1.8702   25.7840  -27.0890 H   0  0  0  0  0  0  0  0  0  0  0  0
   -2.6244   25.7421  -25.4292 H   0  0  0  0  0  0  0  0  0  0  0  0
   -0.2252   27.4272  -26.2746 H   0  0  0  0  0  0  0  0  0  0  0  0
   -1.9161   28.0082  -25.9906 H   0  0  0  0  0  0  0  0  0  0  0  0
   -0.0237   28.1602  -24.0906 H   0  0  0  0  0  0  0  0  0  0  0  0
   -1.7707   27.8050  -23.7195 H   0  0  0  0  0  0  0  0  0  0  0  0
    0.2667   26.3363  -22.7175 H   0  0  0  0  0  0  0  0  0  0  0  0
   -1.3614   25.6561  -23.1084 H   0  0  0  0  0  0  0  0  0  0  0  0
    1.0579   25.6417  -24.9781 H   0  0  0  0  0  0  0  0  0  0  0  0
    0.4728   24.2444  -23.9843 H   0  0  0  0  0  0  0  0  0  0  0  0
   -1.7136   25.5869  -28.6659 H   0  0  0  0  0  0  0  0  0  0  0  0
   -4.8960   19.5954  -33.6357 H   0  0  0  0  0  0  0  0  0  0  0  0
   -5.2507   15.4721  -31.4262 H   0  0  0  0  0  0  0  0  0  0  0  0
   -5.8068   14.5048  -32.8004 H   0  0  0  0  0  0  0  0  0  0  0  0
   -3.1965   14.3644  -31.2629 H   0  0  0  0  0  0  0  0  0  0  0  0
   -4.1239   13.0356  -31.9578 H   0  0  0  0  0  0  0  0  0  0  0  0
   -1.8738   14.2968  -33.1427 H   0  0  0  0  0  0  0  0  0  0  0  0
   -3.0036   13.2484  -34.0116 H   0  0  0  0  0  0  0  0  0  0  0  0
   -2.6243   16.0622  -34.3896 H   0  0  0  0  0  0  0  0  0  0  0  0
   -3.9262   15.0805  -35.1038 H   0  0  0  0  0  0  0  0  0  0  0  0
   -8.2438   16.9337  -32.7803 H   0  0  0  0  0  0  0  0  0  0  0  0
   -9.3720   18.7719  -31.4775 H   0  0  0  0  0  0  0  0  0  0  0  0
  1  2  1  0
  2  3  1  0
  3  4  1  0
  4  5  1  0
  5  6  1  0
  6  7  2  0
  6  8  1  0
  8  9  1  0
  9 10  2  0
 10 11  1  0
 11 12  2  0
 12 13  1  0
 13 14  1  0
 14 15  2  0
 14 16  2  0
 14 17  1  0
 17 18  1  0
 18 19  1  0
 19 20  1  0
 20 21  1  0
 21 22  1  0
 13 23  2  0
  3 24  2  0
 24 25  1  0
 25 26  2  0
 26 27  1  0
 27 28  1  0
 28 29  2  0
 28 30  2  0
 28 31  1  0
 31 32  1  0
 32 33  1  0
 33 34  1  0
 34 35  1  0
 27 36  2  0
 36 37  1  0
 37 38  2  0
 38  2  1  0
 23  9  1  0
 38 25  1  0
 22 17  1  0
 35 31  1  0
  1 39  1  0
  1 40  1  0
  1 41  1  0
  5 42  1  0
  5 43  1  0
 10 44  1  0
 11 45  1  0
 12 46  1  0
 18 47  1  0
 18 48  1  0
 19 49  1  0
 19 50  1  0
 20 51  1  0
 20 52  1  0
 21 53  1  0
 21 54  1  0
 22 55  1  0
 22 56  1  0
 23 57  1  0
 26 58  1  0
 32 59  1  0
 32 60  1  0
 33 61  1  0
 33 62  1  0
 34 63  1  0
 34 64  1  0
 35 65  1  0
 35 66  1  0
 36 67  1  0
 37 68  1  0
M  CHG  1   8  -1
M  END
>  <UniqueID>  (6) 
6

>  <SMILES>  (6) 
Cn1c(SCC(=O)[N-]c2cccc(S(=O)(=O)N3CCCCC3)c2)nc2cc(S(=O)(=O)N3CCCC3)ccc21

>  <Energy>  (6) 
114.87226834417322

>  <Genealogy>  (6) 
Cn1c(SCC(=O)[N-]c2cccc(S(=O)(=O)N3CCCCC3)c2)nc2cc(S(=O)(=O)N3CCCC3)ccc21 (protonated)
Cn1c(SCC(=O)[N-]c2cccc(S(=O)(=O)N3CCCCC3)c2)nc2cc(S(=O)(=O)N3CCCC3)ccc21 (3D coordinates assigned)
Cn1c(SCC(=O)[N-]c2cccc(S(=O)(=O)N3CCCCC3)c2)nc2cc(S(=O)(=O)N3CCCC3)ccc21 (nonaromatic ring conformer: 114.87226834417322 kcal/mol)

>  <smiles>  (6) 
Cn1c(SCC(=O)Nc2cccc(S(=O)(=O)N3CCCCC3)c2)nc2cc(S(=O)(=O)N3CCCC3)ccc21

>  <score_type>  (6) 
oracle

>  <origin>  (6) 
adgpu

>  <m_score__min__energy>  (6) 
-13.73

>  <m_primary>  (6) 
energy

$$$$
6:0
     RDKit          3D

 68 71  0  0  0  0  0  0  0  0999 V2000
    3.3910   15.8140  -25.9820 C   0  0  0  0  0  0  0  0  0  0  0  0
    3.5920   16.5430  -27.1880 O   0  0  0  0  0  0  0  0  0  0  0  0
    2.6080   17.3240  -27.8160 C   0  0  0  0  0  0  0  0  0  0  0  0
    1.3370   16.7670  -28.0100 C   0  0  0  0  0  0  0  0  0  0  0  0
    0.3150   17.5130  -28.6010 C   0  0  0  0  0  0  0  0  0  0  0  0
    0.5550   18.8340  -29.0080 C   0  0  0  0  0  0  0  0  0  0  0  0
   -0.5190   19.6260  -29.5480 N   0  0  0  0  0  0  0  0  0  0  0  0
   -1.6430   20.0370  -28.6930 C   0  0  0  0  0  0  0  0  0  0  0  0
   -1.7760   21.5410  -28.6570 C   0  0  0  0  0  0  0  0  0  0  0  0
   -0.6710   22.3420  -28.3290 C   0  0  0  0  0  0  0  0  0  0  0  0
   -0.7590   23.7340  -28.4090 C   0  0  0  0  0  0  0  0  0  0  0  0
   -1.9360   24.3410  -28.8490 C   0  0  0  0  0  0  0  0  0  0  0  0
   -1.9860   25.7240  -28.9600 O   0  0  0  0  0  0  0  0  0  0  0  0
   -3.0560   23.5560  -29.1830 C   0  0  0  0  0  0  0  0  0  0  0  0
   -4.5350   24.2940  -29.8080 S   0  0  0  0  0  0  0  0  0  0  0  0
   -5.2700   24.9780  -28.6830 O   0  0  0  0  0  0  0  0  0  0  0  0
   -4.1560   25.3170  -30.8490 O   0  0  0  0  0  0  0  0  0  0  0  0
   -5.5330   23.0430  -30.5190 N   0  0  0  0  0  0  0  0  0  0  0  0
   -5.4390   23.0380  -31.9850 C   0  0  0  0  0  0  0  0  0  0  0  0
   -6.5020   22.0900  -32.5870 C   0  0  0  0  0  0  0  0  0  0  0  0
   -7.0180   21.2090  -31.6080 O   0  0  0  0  0  0  0  0  0  0  0  0
   -7.7110   21.9250  -30.6000 C   0  0  0  0  0  0  0  0  0  0  0  0
   -6.9370   23.1700  -30.1070 C   0  0  0  0  0  0  0  0  0  0  0  0
   -2.9710   22.1570  -29.0670 C   0  0  0  0  0  0  0  0  0  0  0  0
   -0.3270   20.3250  -31.1240 S   0  0  0  0  0  0  0  0  0  0  0  0
    0.9490   19.8210  -31.7360 O   0  0  0  0  0  0  0  0  0  0  0  0
   -0.2270   21.8230  -31.0140 O   0  0  0  0  0  0  0  0  0  0  0  0
   -1.7020   19.9050  -32.1390 C   0  0  0  0  0  0  0  0  0  0  0  0
   -2.6530   20.8820  -32.4460 C   0  0  0  0  0  0  0  0  0  0  0  0
   -3.7440   20.5780  -33.2550 C   0  0  0  0  0  0  0  0  0  0  0  0
   -3.8990   19.2830  -33.7840 C   0  0  0  0  0  0  0  0  0  0  0  0
   -5.0010   18.9540  -34.5830 O   0  0  0  0  0  0  0  0  0  0  0  0
   -6.1380   18.2620  -34.0840 C   0  0  0  0  0  0  0  0  0  0  0  0
   -2.9380   18.2950  -33.4930 C   0  0  0  0  0  0  0  0  0  0  0  0
   -3.1060   17.0210  -34.0610 O   0  0  0  0  0  0  0  0  0  0  0  0
   -3.6000   15.8830  -33.3610 C   0  0  0  0  0  0  0  0  0  0  0  0
   -1.8420   18.6130  -32.6660 C   0  0  0  0  0  0  0  0  0  0  0  0
    1.8290   19.3900  -28.8370 C   0  0  0  0  0  0  0  0  0  0  0  0
    2.8490   18.6460  -28.2400 C   0  0  0  0  0  0  0  0  0  0  0  0
    3.5728   16.4733  -25.1204 H   0  0  0  0  0  0  0  0  0  0  0  0
    2.3566   15.4414  -25.9468 H   0  0  0  0  0  0  0  0  0  0  0  0
    4.0883   14.9640  -25.9468 H   0  0  0  0  0  0  0  0  0  0  0  0
    1.1422   15.7317  -27.6936 H   0  0  0  0  0  0  0  0  0  0  0  0
   -0.6787   17.0646  -28.7475 H   0  0  0  0  0  0  0  0  0  0  0  0
   -2.5731   19.6033  -29.0890 H   0  0  0  0  0  0  0  0  0  0  0  0
   -1.4542   19.6780  -27.6705 H   0  0  0  0  0  0  0  0  0  0  0  0
    0.2695   21.8711  -28.0072 H   0  0  0  0  0  0  0  0  0  0  0  0
    0.1034   24.3544  -28.1238 H   0  0  0  0  0  0  0  0  0  0  0  0
   -5.6061   24.0574  -32.3629 H   0  0  0  0  0  0  0  0  0  0  0  0
   -4.4387   22.6869  -32.2785 H   0  0  0  0  0  0  0  0  0  0  0  0
   -7.3263   22.6910  -32.9984 H   0  0  0  0  0  0  0  0  0  0  0  0
   -6.0255   21.4908  -33.3769 H   0  0  0  0  0  0  0  0  0  0  0  0
   -8.6803   22.2516  -31.0047 H   0  0  0  0  0  0  0  0  0  0  0  0
   -7.8334   21.2501  -29.7401 H   0  0  0  0  0  0  0  0  0  0  0  0
   -7.3728   24.0771  -30.5511 H   0  0  0  0  0  0  0  0  0  0  0  0
   -7.0018   23.2430  -29.0113 H   0  0  0  0  0  0  0  0  0  0  0  0
   -3.8498   21.5377  -29.2998 H   0  0  0  0  0  0  0  0  0  0  0  0
   -2.5383   21.8998  -32.0449 H   0  0  0  0  0  0  0  0  0  0  0  0
   -4.4894   21.3543  -33.4822 H   0  0  0  0  0  0  0  0  0  0  0  0
   -6.1203   18.2728  -32.9842 H   0  0  0  0  0  0  0  0  0  0  0  0
   -7.0537   18.7561  -34.4408 H   0  0  0  0  0  0  0  0  0  0  0  0
   -6.1198   17.2216  -34.4408 H   0  0  0  0  0  0  0  0  0  0  0  0
   -3.5242   16.0576  -32.2776 H   0  0  0  0  0  0  0  0  0  0  0  0
   -4.6525   15.7140  -33.6324 H   0  0  0  0  0  0  0  0  0  0  0  0
   -3.0048   14.9987  -33.6324 H   0  0  0  0  0  0  0  0  0  0  0  0
   -1.0918   17.8431  -32.4325 H   0  0  0  0  0  0  0  0  0  0  0  0
    2.0272   20.4180  -29.1746 H   0  0  0  0  0  0  0  0  0  0  0  0
    3.8441   19.0936  -28.1003 H   0  0  0  0  0  0  0  0  0  0  0  0
  1  2  1  0
  2  3  1  0
  3  4  2  0
  4  5  1  0
  5  6  2  0
  6  7  1  0
  7  8  1  0
  8  9  1  0
  9 10  2  0
 10 11  1  0
 11 12  2  0
 12 13  1  0
 12 14  1  0
 14 15  1  0
 15 16  2  0
 15 17  2  0
 15 18  1  0
 18 19  1  0
 19 20  1  0
 20 21  1  0
 21 22  1  0
 22 23  1  0
 14 24  2  0
  7 25  1  0
 25 26  2  0
 25 27  2  0
 25 28  1  0
 28 29  2  0
 29 30  1  0
 30 31  2  0
 31 32  1  0
 32 33  1  0
 31 34  1  0
 34 35  1  0
 35 36  1  0
 34 37  2  0
  6 38  1  0
 38 39  2  0
 39  3  1  0
 24  9  1  0
 37 28  1  0
 23 18  1  0
  1 40  1  0
  1 41  1  0
  1 42  1  0
  4 43  1  0
  5 44  1  0
  8 45  1  0
  8 46  1  0
 10 47  1  0
 11 48  1  0
 19 49  1  0
 19 50  1  0
 20 51  1  0
 20 52  1  0
 22 53  1  0
 22 54  1  0
 23 55  1  0
 23 56  1  0
 24 57  1  0
 29 58  1  0
 30 59  1  0
 33 60  1  0
 33 61  1  0
 33 62  1  0
 36 63  1  0
 36 64  1  0
 36 65  1  0
 37 66  1  0
 38 67  1  0
 39 68  1  0
M  CHG  1  13  -1
M  END
>  <UniqueID>  (7) 
7

>  <SMILES>  (7) 
COc1ccc(N(Cc2ccc([O-])c(S(=O)(=O)N3CCOCC3)c2)S(=O)(=O)c2ccc(OC)c(OC)c2)cc1

>  <Energy>  (7) 
86.84166705436631

>  <Genealogy>  (7) 
COc1ccc(N(Cc2ccc([O-])c(S(=O)(=O)N3CCOCC3)c2)S(=O)(=O)c2ccc(OC)c(OC)c2)cc1 (protonated)
COc1ccc(N(Cc2ccc([O-])c(S(=O)(=O)N3CCOCC3)c2)S(=O)(=O)c2ccc(OC)c(OC)c2)cc1 (3D coordinates assigned)
COc1ccc(N(Cc2ccc([O-])c(S(=O)(=O)N3CCOCC3)c2)S(=O)(=O)c2ccc(OC)c(OC)c2)cc1 (nonaromatic ring conformer: 86.84166705436631 kcal/mol)

>  <smiles>  (7) 
COc1ccc(N(Cc2ccc(O)c(S(=O)(=O)N3CCOCC3)c2)S(=O)(=O)c2ccc(OC)c(OC)c2)cc1

>  <score_type>  (7) 
oracle

>  <origin>  (7) 
adgpu

>  <m_score__min__energy>  (7) 
-11.609999999999999

>  <m_primary>  (7) 
energy

$$$$
7:0
     RDKit          3D

 70 74  0  0  0  0  0  0  0  0999 V2000
   -1.7750   25.6540  -25.1400 C   0  0  0  0  0  0  0  0  0  0  0  0
   -0.9650   25.1800  -26.3110 C   0  0  0  0  0  0  0  0  0  0  0  0
   -0.6430   23.8710  -26.6440 C   0  0  0  0  0  0  0  0  0  0  0  0
   -0.9890   22.5920  -25.9260 C   0  0  0  0  0  0  0  0  0  0  0  0
   -1.5670   21.5560  -26.8100 N   0  0  0  0  0  0  0  0  0  0  0  0
   -1.6050   20.2140  -26.1940 C   0  0  0  0  0  0  0  0  0  0  0  0
   -1.6410   19.1160  -27.2610 C   0  0  0  0  0  0  0  0  0  0  0  0
   -1.1600   19.5420  -28.6370 C   0  0  0  0  0  0  0  0  0  0  0  0
   -0.0230   18.8810  -29.1410 C   0  0  0  0  0  0  0  0  0  0  0  0
    0.5370   19.2380  -30.3650 C   0  0  0  0  0  0  0  0  0  0  0  0
   -0.0250   20.2690  -31.1260 C   0  0  0  0  0  0  0  0  0  0  0  0
    0.5320   20.6490  -32.3950 N   0  0  0  0  0  0  0  0  0  0  0  0
   -0.3960   20.6260  -33.8600 S   0  0  0  0  0  0  0  0  0  0  0  0
   -0.3840   21.9960  -34.4800 O   0  0  0  0  0  0  0  0  0  0  0  0
    0.2380   19.6600  -34.8230 O   0  0  0  0  0  0  0  0  0  0  0  0
   -2.0630   20.1640  -33.5320 C   0  0  0  0  0  0  0  0  0  0  0  0
   -3.0220   21.1510  -33.2650 C   0  0  0  0  0  0  0  0  0  0  0  0
   -4.3460   20.7880  -33.0010 C   0  0  0  0  0  0  0  0  0  0  0  0
   -4.7200   19.4360  -32.9900 C   0  0  0  0  0  0  0  0  0  0  0  0
   -6.3990   18.9790  -32.7090 S   0  0  0  0  0  0  0  0  0  0  0  0
   -6.8450   18.0280  -33.7880 O   0  0  0  0  0  0  0  0  0  0  0  0
   -6.5070   18.2830  -31.3780 O   0  0  0  0  0  0  0  0  0  0  0  0
   -7.4010   20.4120  -32.7010 N   0  0  0  0  0  0  0  0  0  0  0  0
   -8.8150   20.0580  -32.5990 C   0  0  0  0  0  0  0  0  0  0  0  0
   -9.5030   21.2460  -31.9500 C   0  0  0  0  0  0  0  0  0  0  0  0
   -8.4330   21.8840  -31.0870 C   0  0  0  0  0  0  0  0  0  0  0  0
   -7.1110   21.2730  -31.5480 C   0  0  0  0  0  0  0  0  0  0  0  0
   -3.7610   18.4510  -33.2560 C   0  0  0  0  0  0  0  0  0  0  0  0
   -2.4400   18.8130  -33.5290 C   0  0  0  0  0  0  0  0  0  0  0  0
   -1.1580   20.9370  -30.6420 C   0  0  0  0  0  0  0  0  0  0  0  0
   -1.7150   20.6210  -29.3860 C   0  0  0  0  0  0  0  0  0  0  0  0
   -2.9300   21.4150  -28.9430 C   0  0  0  0  0  0  0  0  0  0  0  0
   -2.8030   21.9740  -27.5130 C   0  0  0  0  0  0  0  0  0  0  0  0
    0.1230   23.9800  -27.7930 C   0  0  0  0  0  0  0  0  0  0  0  0
    0.2470   25.2790  -28.1340 N   0  0  0  0  0  0  0  0  0  0  0  0
   -0.4250   25.9960  -27.2450 N   0  0  0  0  0  0  0  0  0  0  0  0
   -0.4620   27.4550  -27.2560 C   0  0  0  0  0  0  0  0  0  0  0  0
   -1.2745   25.3611  -24.2053 H   0  0  0  0  0  0  0  0  0  0  0  0
   -1.8685   26.7494  -25.1782 H   0  0  0  0  0  0  0  0  0  0  0  0
   -2.7758   25.1990  -25.1782 H   0  0  0  0  0  0  0  0  0  0  0  0
   -0.0720   22.1892  -25.4710 H   0  0  0  0  0  0  0  0  0  0  0  0
   -1.7537   22.8395  -25.1751 H   0  0  0  0  0  0  0  0  0  0  0  0
   -0.7085   20.0796  -25.5709 H   0  0  0  0  0  0  0  0  0  0  0  0
   -2.5167   20.1366  -25.5834 H   0  0  0  0  0  0  0  0  0  0  0  0
   -1.0046   18.2866  -26.9187 H   0  0  0  0  0  0  0  0  0  0  0  0
   -2.6982   18.8358  -27.3781 H   0  0  0  0  0  0  0  0  0  0  0  0
    0.4313   18.0673  -28.5567 H   0  0  0  0  0  0  0  0  0  0  0  0
    1.4260   18.7066  -30.7356 H   0  0  0  0  0  0  0  0  0  0  0  0
    1.5700   20.7150  -32.4910 H   0  0  0  0  0  0  0  0  0  0  0  0
   -2.7324   22.2122  -33.2632 H   0  0  0  0  0  0  0  0  0  0  0  0
   -5.0977   21.5658  -32.8011 H   0  0  0  0  0  0  0  0  0  0  0  0
   -9.2350   19.8734  -33.5988 H   0  0  0  0  0  0  0  0  0  0  0  0
   -8.9572   19.1407  -32.0088 H   0  0  0  0  0  0  0  0  0  0  0  0
   -9.8587   21.9534  -32.7136 H   0  0  0  0  0  0  0  0  0  0  0  0
  -10.3865   20.9482  -31.3663 H   0  0  0  0  0  0  0  0  0  0  0  0
   -8.4228   22.9743  -31.2322 H   0  0  0  0  0  0  0  0  0  0  0  0
   -8.6128   21.7025  -30.0171 H   0  0  0  0  0  0  0  0  0  0  0  0
   -6.4110   22.0695  -31.8407 H   0  0  0  0  0  0  0  0  0  0  0  0
   -6.6493   20.6913  -30.7366 H   0  0  0  0  0  0  0  0  0  0  0  0
   -4.0488   17.3893  -33.2499 H   0  0  0  0  0  0  0  0  0  0  0  0
   -1.6920   18.0352  -33.7426 H   0  0  0  0  0  0  0  0  0  0  0  0
   -1.6222   21.7239  -31.2546 H   0  0  0  0  0  0  0  0  0  0  0  0
   -3.0686   22.2576  -29.6364 H   0  0  0  0  0  0  0  0  0  0  0  0
   -3.7890   20.7279  -28.9497 H   0  0  0  0  0  0  0  0  0  0  0  0
   -2.8146   23.0725  -27.5687 H   0  0  0  0  0  0  0  0  0  0  0  0
   -3.6488   21.5702  -26.9371 H   0  0  0  0  0  0  0  0  0  0  0  0
    0.5632   23.1355  -28.3436 H   0  0  0  0  0  0  0  0  0  0  0  0
   -0.4715   27.8293  -26.2217 H   0  0  0  0  0  0  0  0  0  0  0  0
    0.4267   27.8404  -27.7773 H   0  0  0  0  0  0  0  0  0  0  0  0
   -1.3691   27.7949  -27.7773 H   0  0  0  0  0  0  0  0  0  0  0  0
  1  2  1  0
  2  3  2  0
  3  4  1  0
  4  5  1  0
  5  6  1  0
  6  7  1  0
  7  8  1  0
  8  9  2  0
  9 10  1  0
 10 11  2  0
 11 12  1  0
 12 13  1  0
 13 14  2  0
 13 15  2  0
 13 16  1  0
 16 17  2  0
 17 18  1  0
 18 19  2  0
 19 20  1  0
 20 21  2  0
 20 22  2  0
 20 23  1  0
 23 24  1  0
 24 25  1  0
 25 26  1  0
 26 27  1  0
 19 28  1  0
 28 29  2  0
 11 30  1  0
 30 31  2  0
 31 32  1  0
 32 33  1  0
  3 34  1  0
 34 35  2  0
 35 36  1  0
 36 37  1  0
 36  2  1  0
 33  5  1  0
 31  8  1  0
 29 16  1  0
 27 23  1  0
  1 38  1  0
  1 39  1  0
  1 40  1  0
  4 41  1  0
  4 42  1  0
  6 43  1  0
  6 44  1  0
  7 45  1  0
  7 46  1  0
  9 47  1  0
 10 48  1  0
 12 49  1  0
 17 50  1  0
 18 51  1  0
 24 52  1  0
 24 53  1  0
 25 54  1  0
 25 55  1  0
 26 56  1  0
 26 57  1  0
 27 58  1  0
 27 59  1  0
 28 60  1  0
 29 61  1  0
 30 62  1  0
 32 63  1  0
 32 64  1  0
 33 65  1  0
 33 66  1  0
 34 67  1  0
 37 68  1  0
 37 69  1  0
 37 70  1  0
M  END
>  <UniqueID>  (8) 
8

>  <SMILES>  (8) 
Cc1c(CN2CCc3ccc(NS(=O)(=O)c4ccc(S(=O)(=O)N5CCCC5)cc4)cc3CC2)cnn1C

>  <Energy>  (8) 
122.10594763001484

>  <Genealogy>  (8) 
Cc1c(CN2CCc3ccc(NS(=O)(=O)c4ccc(S(=O)(=O)N5CCCC5)cc4)cc3CC2)cnn1C (3D coordinates assigned)
Cc1c(CN2CCc3ccc(NS(=O)(=O)c4ccc(S(=O)(=O)N5CCCC5)cc4)cc3CC2)cnn1C (nonaromatic ring conformer: 122.10594763001484 kcal/mol)

>  <smiles>  (8) 
Cc1c(CN2CCc3ccc(NS(=O)(=O)c4ccc(S(=O)(=O)N5CCCC5)cc4)cc3CC2)cnn1C

>  <score_type>  (8) 
oracle

>  <origin>  (8) 
adgpu

>  <m_score__min__energy>  (8) 
-10.66

>  <m_primary>  (8) 
energy

$$$$
8:0
     RDKit          3D

 46 48  0  0  0  0  0  0  0  0999 V2000
   -5.3760   15.6620  -32.7750 C   0  0  0  0  0  0  0  0  0  0  0  0
   -6.3440   16.6770  -33.3020 C   0  0  0  0  0  0  0  0  0  0  0  0
   -7.2540   16.2870  -34.0820 O   0  0  0  0  0  0  0  0  0  0  0  0
   -6.2580   18.1160  -32.9420 C   0  0  0  0  0  0  0  0  0  0  0  0
   -7.4180   18.7720  -32.4940 C   0  0  0  0  0  0  0  0  0  0  0  0
   -7.3980   20.1350  -32.1790 C   0  0  0  0  0  0  0  0  0  0  0  0
   -8.6410   20.8130  -31.6810 C   0  0  0  0  0  0  0  0  0  0  0  0
   -6.2000   20.8500  -32.2810 C   0  0  0  0  0  0  0  0  0  0  0  0
   -5.0240   20.2180  -32.7120 C   0  0  0  0  0  0  0  0  0  0  0  0
   -3.7640   21.0380  -32.8590 C   0  0  0  0  0  0  0  0  0  0  0  0
   -3.6490   22.0150  -31.7260 C   0  0  0  0  0  0  0  0  0  0  0  0
   -3.8750   23.3370  -31.8780 N   0  0  0  0  0  0  0  0  0  0  0  0
   -3.5780   23.8940  -30.6890 C   0  0  0  0  0  0  0  0  0  0  0  0
   -3.6770   25.2630  -30.4550 O   0  0  0  0  0  0  0  0  0  0  0  0
   -3.1430   22.9470  -29.7780 C   0  0  0  0  0  0  0  0  0  0  0  0
   -2.7000   23.1930  -28.3950 C   0  0  0  0  0  0  0  0  0  0  0  0
   -3.4750   22.9100  -27.4440 O   0  0  0  0  0  0  0  0  0  0  0  0
   -1.3730   23.7700  -28.1030 C   0  0  0  0  0  0  0  0  0  0  0  0
   -0.9420   25.0550  -28.3780 C   0  0  0  0  0  0  0  0  0  0  0  0
   -1.7170   26.0470  -28.9640 O   0  0  0  0  0  0  0  0  0  0  0  0
    0.3400   25.2500  -28.0060 N   0  0  0  0  0  0  0  0  0  0  0  0
    0.7380   24.0710  -27.4810 C   0  0  0  0  0  0  0  0  0  0  0  0
    2.1260   23.8090  -26.9950 C   0  0  0  0  0  0  0  0  0  0  0  0
   -0.2780   23.1420  -27.5460 C   0  0  0  0  0  0  0  0  0  0  0  0
   -0.1940   21.8110  -27.1540 O   0  0  0  0  0  0  0  0  0  0  0  0
   -3.2070   21.7320  -30.4390 C   0  0  0  0  0  0  0  0  0  0  0  0
   -2.8480   20.3830  -29.8910 C   0  0  0  0  0  0  0  0  0  0  0  0
   -5.0490   18.8440  -33.0300 C   0  0  0  0  0  0  0  0  0  0  0  0
   -3.8700   18.2040  -33.4010 O   0  0  0  0  0  0  0  0  0  0  0  0
   -5.3909   15.6776  -31.6752 H   0  0  0  0  0  0  0  0  0  0  0  0
   -5.6632   14.6618  -33.1314 H   0  0  0  0  0  0  0  0  0  0  0  0
   -4.3633   15.9015  -33.1314 H   0  0  0  0  0  0  0  0  0  0  0  0
   -8.3550   18.2053  -32.3896 H   0  0  0  0  0  0  0  0  0  0  0  0
   -8.6426   20.8139  -30.5810 H   0  0  0  0  0  0  0  0  0  0  0  0
   -8.6656   21.8495  -32.0485 H   0  0  0  0  0  0  0  0  0  0  0  0
   -9.5258   20.2725  -32.0485 H   0  0  0  0  0  0  0  0  0  0  0  0
   -6.1798   21.9186  -32.0206 H   0  0  0  0  0  0  0  0  0  0  0  0
   -2.8913   20.3684  -32.8519 H   0  0  0  0  0  0  0  0  0  0  0  0
   -3.8036   21.5915  -33.8088 H   0  0  0  0  0  0  0  0  0  0  0  0
   -3.1180   25.7230  -29.7480 H   0  0  0  0  0  0  0  0  0  0  0  0
    2.1351   23.8073  -25.8950 H   0  0  0  0  0  0  0  0  0  0  0  0
    2.4659   22.8308  -27.3660 H   0  0  0  0  0  0  0  0  0  0  0  0
    2.7991   24.5960  -27.3660 H   0  0  0  0  0  0  0  0  0  0  0  0
   -2.8577   20.4194  -28.7916 H   0  0  0  0  0  0  0  0  0  0  0  0
   -3.5794   19.6391  -30.2397 H   0  0  0  0  0  0  0  0  0  0  0  0
   -1.8436   20.1010  -30.2397 H   0  0  0  0  0  0  0  0  0  0  0  0
  1  2  1  0
  2  3  2  0
  2  4  1  0
  4  5  2  0
  5  6  1  0
  6  7  1  0
  6  8  2  0
  8  9  1  0
  9 10  1  0
 10 11  1  0
 11 12  1  0
 12 13  1  0
 13 14  1  0
 13 15  2  0
 15 16  1  0
 16 17  2  0
 16 18  1  0
 18 19  2  0
 19 20  1  0
 19 21  1  0
 21 22  1  0
 22 23  1  0
 22 24  2  0
 24 25  1  0
 15 26  1  0
 26 27  1  0
  9 28  2  0
 28 29  1  0
 28  4  1  0
 26 11  2  0
 24 18  1  0
  1 30  1  0
  1 31  1  0
  1 32  1  0
  5 33  1  0
  7 34  1  0
  7 35  1  0
  7 36  1  0
  8 37  1  0
 10 38  1  0
 10 39  1  0
 14 40  1  0
 23 41  1  0
 23 42  1  0
 23 43  1  0
 27 44  1  0
 27 45  1  0
 27 46  1  0
M  CHG  5  12  -1  20  -1  21  -1  25  -1  29  -1
M  END
>  <UniqueID>  (9) 
9

>  <SMILES>  (9) 
CC(=O)c1cc(C)cc(Cc2[n-]c(O)c(C(=O)c3c([O-])[n-]c(C)c3[O-])c2C)c1[O-]

>  <Energy>  (9) 
105.76864307333396

>  <Genealogy>  (9) 
CC(=O)c1cc(C)cc(Cc2[n-]c(O)c(C(=O)c3c([O-])[n-]c(C)c3[O-])c2C)c1[O-] (protonated)
CC(=O)c1cc(C)cc(Cc2[n-]c(O)c(C(=O)c3c([O-])[n-]c(C)c3[O-])c2C)c1[O-] (3D coordinates assigned)
CC(=O)c1cc(C)cc(Cc2[n-]c(O)c(C(=O)c3c([O-])[n-]c(C)c3[O-])c2C)c1[O-] (optimized conformer: 105.76864307333396 kcal/mol)

>  <smiles>  (9) 
CC(=O)c1cc(C)cc(Cc2[nH]c(O)c(C(=O)c3c(O)[nH]c(C)c3O)c2C)c1O

>  <score_type>  (9) 
oracle

>  <origin>  (9) 
adgpu

>  <m_score__min__energy>  (9) 
-13.75

>  <m_primary>  (9) 
energy

$$$$
9:0
     RDKit          3D

 53 56  0  0  0  0  0  0  0  0999 V2000
   -0.0860   18.4210  -29.7210 C   0  0  0  0  0  0  0  0  0  0  0  0
   -0.0440   17.9870  -28.3140 N   0  0  0  0  0  0  0  0  0  0  0  0
    1.3200   18.1130  -27.7780 C   0  0  0  0  0  0  0  0  0  0  0  0
   -0.9630   18.7620  -27.5050 C   0  0  0  0  0  0  0  0  0  0  0  0
   -1.7160   18.1710  -26.6800 O   0  0  0  0  0  0  0  0  0  0  0  0
   -1.0830   20.2400  -27.6500 C   0  0  0  0  0  0  0  0  0  0  0  0
   -2.2690   20.9230  -27.3150 C   0  0  0  0  0  0  0  0  0  0  0  0
   -2.3440   22.3160  -27.4290 C   0  0  0  0  0  0  0  0  0  0  0  0
   -1.2390   23.0480  -27.8760 C   0  0  0  0  0  0  0  0  0  0  0  0
   -1.3010   24.8080  -27.9500 S   0  0  0  0  0  0  0  0  0  0  0  0
   -1.8790   25.3290  -26.6650 O   0  0  0  0  0  0  0  0  0  0  0  0
    0.0740   25.3810  -28.1440 O   0  0  0  0  0  0  0  0  0  0  0  0
   -2.3100   25.2990  -29.2710 N   0  0  0  0  0  0  0  0  0  0  0  0
   -3.2430   24.4390  -29.9350 C   0  0  0  0  0  0  0  0  0  0  0  0
   -2.7750   23.2140  -30.4660 C   0  0  0  0  0  0  0  0  0  0  0  0
   -3.6260   22.3850  -31.2180 C   0  0  0  0  0  0  0  0  0  0  0  0
   -4.9460   22.8030  -31.3970 C   0  0  0  0  0  0  0  0  0  0  0  0
   -5.4150   23.9620  -30.8560 C   0  0  0  0  0  0  0  0  0  0  0  0
   -4.5980   24.8130  -30.1160 C   0  0  0  0  0  0  0  0  0  0  0  0
   -6.6990   24.1630  -31.2090 N   0  0  0  0  0  0  0  0  0  0  0  0
   -6.9770   23.0830  -31.9830 C   0  0  0  0  0  0  0  0  0  0  0  0
   -5.9260   22.2340  -32.1140 N   0  0  0  0  0  0  0  0  0  0  0  0
   -5.8350   21.0890  -33.0190 C   0  0  0  0  0  0  0  0  0  0  0  0
   -6.8570   20.0510  -32.6350 C   0  0  0  0  0  0  0  0  0  0  0  0
   -8.2320   20.3380  -32.6990 C   0  0  0  0  0  0  0  0  0  0  0  0
   -9.1710   19.3840  -32.2960 C   0  0  0  0  0  0  0  0  0  0  0  0
   -8.7470   18.1400  -31.8220 C   0  0  0  0  0  0  0  0  0  0  0  0
   -7.3820   17.8470  -31.7550 C   0  0  0  0  0  0  0  0  0  0  0  0
   -6.4390   18.7960  -32.1610 C   0  0  0  0  0  0  0  0  0  0  0  0
   -0.0630   22.3770  -28.2230 C   0  0  0  0  0  0  0  0  0  0  0  0
    0.0190   20.9880  -28.1030 C   0  0  0  0  0  0  0  0  0  0  0  0
   -0.1919   19.5150  -29.7642 H   0  0  0  0  0  0  0  0  0  0  0  0
    0.8452   18.1225  -30.2247 H   0  0  0  0  0  0  0  0  0  0  0  0
   -0.9427   17.9495  -30.2247 H   0  0  0  0  0  0  0  0  0  0  0  0
   -0.3190   16.9770  -28.3050 H   0  0  0  0  0  0  0  0  0  0  0  0
    1.2837   18.1096  -26.6786 H   0  0  0  0  0  0  0  0  0  0  0  0
    1.9308   17.2675  -28.1273 H   0  0  0  0  0  0  0  0  0  0  0  0
    1.7655   19.0561  -28.1273 H   0  0  0  0  0  0  0  0  0  0  0  0
   -3.1431   20.3568  -26.9610 H   0  0  0  0  0  0  0  0  0  0  0  0
   -3.2761   22.8375  -27.1659 H   0  0  0  0  0  0  0  0  0  0  0  0
   -1.7338   22.9067  -30.2886 H   0  0  0  0  0  0  0  0  0  0  0  0
   -3.2644   21.4403  -31.6501 H   0  0  0  0  0  0  0  0  0  0  0  0
   -4.9917   25.7456  -29.6857 H   0  0  0  0  0  0  0  0  0  0  0  0
   -7.9553   22.9130  -32.4563 H   0  0  0  0  0  0  0  0  0  0  0  0
   -6.0235   21.4228  -34.0500 H   0  0  0  0  0  0  0  0  0  0  0  0
   -4.8286   20.6504  -32.9489 H   0  0  0  0  0  0  0  0  0  0  0  0
   -8.5703   21.3175  -33.0678 H   0  0  0  0  0  0  0  0  0  0  0  0
  -10.2454   19.6131  -32.3522 H   0  0  0  0  0  0  0  0  0  0  0  0
   -9.4869   17.3917  -31.5018 H   0  0  0  0  0  0  0  0  0  0  0  0
   -7.0488   16.8673  -31.3819 H   0  0  0  0  0  0  0  0  0  0  0  0
   -5.3660   18.5593  -32.1092 H   0  0  0  0  0  0  0  0  0  0  0  0
    0.8027   22.9461  -28.5927 H   0  0  0  0  0  0  0  0  0  0  0  0
    0.9551   20.4734  -28.3655 H   0  0  0  0  0  0  0  0  0  0  0  0
  1  2  1  0
  2  3  1  0
  2  4  1  0
  4  5  2  0
  4  6  1  0
  6  7  2  0
  7  8  1  0
  8  9  2  0
  9 10  1  0
 10 11  2  0
 10 12  2  0
 10 13  1  0
 13 14  1  0
 14 15  2  0
 15 16  1  0
 16 17  2  0
 17 18  1  0
 18 19  2  0
 18 20  1  0
 20 21  2  0
 21 22  1  0
 22 23  1  0
 23 24  1  0
 24 25  2  0
 25 26  1  0
 26 27  2  0
 27 28  1  0
 28 29  2  0
  9 30  1  0
 30 31  2  0
 31  6  1  0
 19 14  1  0
 29 24  1  0
 22 17  1  0
  1 32  1  0
  1 33  1  0
  1 34  1  0
  2 35  1  0
  3 36  1  0
  3 37  1  0
  3 38  1  0
  7 39  1  0
  8 40  1  0
 15 41  1  0
 16 42  1  0
 19 43  1  0
 21 44  1  0
 23 45  1  0
 23 46  1  0
 25 47  1  0
 26 48  1  0
 27 49  1  0
 28 50  1  0
 29 51  1  0
 30 52  1  0
 31 53  1  0
M  CHG  2   2   1  13  -1
M  END
>  <UniqueID>  (10) 
10

>  <SMILES>  (10) 
C[NH+](C)C(=O)c1ccc(S(=O)(=O)[N-]c2ccc3c(c2)ncn3Cc2ccccc2)cc1

>  <Energy>  (10) 
100.15997267975524

>  <Genealogy>  (10) 
C[NH+](C)C(=O)c1ccc(S(=O)(=O)[N-]c2ccc3c(c2)ncn3Cc2ccccc2)cc1 (protonated)
C[NH+](C)C(=O)c1ccc(S(=O)(=O)[N-]c2ccc3c(c2)ncn3Cc2ccccc2)cc1 (3D coordinates assigned)
C[NH+](C)C(=O)c1ccc(S(=O)(=O)[N-]c2ccc3c(c2)ncn3Cc2ccccc2)cc1 (optimized conformer: 100.15997267975524 kcal/mol)

>  <smiles>  (10) 
CN(C)C(=O)c1ccc(S(=O)(=O)Nc2ccc3c(c2)ncn3Cc2ccccc2)cc1

>  <score_type>  (10) 
oracle

>  <origin>  (10) 
adgpu

>  <m_score__min__energy>  (10) 
-11.34

>  <m_primary>  (10) 
energy

$$$$
10:0
     RDKit          3D

 50 52  0  0  0  0  0  0  0  0999 V2000
   -9.3090   22.8970  -32.2380 O   0  0  0  0  0  0  0  0  0  0  0  0
   -8.3560   22.0740  -31.4180 S   0  0  0  0  0  0  0  0  0  0  0  0
   -9.0510   21.6740  -30.1460 O   0  0  0  0  0  0  0  0  0  0  0  0
   -7.9130   20.6490  -32.3120 N   0  0  0  0  0  0  0  0  0  0  0  0
   -8.5310   19.4670  -31.7060 C   0  0  0  0  0  0  0  0  0  0  0  0
   -7.8620   18.1890  -32.2120 C   0  0  0  0  0  0  0  0  0  0  0  0
   -6.0810   18.0980  -31.7750 S   0  0  0  0  0  0  0  0  0  0  0  0
   -5.3670   18.4400  -33.4280 C   0  0  0  0  0  0  0  0  0  0  0  0
   -4.5410   19.6870  -33.4200 C   0  0  0  0  0  0  0  0  0  0  0  0
   -3.1650   19.7460  -33.5220 C   0  0  0  0  0  0  0  0  0  0  0  0
   -2.8470   21.0860  -33.4580 C   0  0  0  0  0  0  0  0  0  0  0  0
   -4.0470   21.7590  -33.3220 C   0  0  0  0  0  0  0  0  0  0  0  0
   -5.0390   20.8980  -33.3030 O   0  0  0  0  0  0  0  0  0  0  0  0
   -6.9290   23.0360  -31.0350 C   0  0  0  0  0  0  0  0  0  0  0  0
   -6.9270   24.4180  -31.2550 C   0  0  0  0  0  0  0  0  0  0  0  0
   -5.7680   25.1620  -31.0240 C   0  0  0  0  0  0  0  0  0  0  0  0
   -4.5930   24.5280  -30.6040 C   0  0  0  0  0  0  0  0  0  0  0  0
   -3.4500   25.2920  -30.3990 O   0  0  0  0  0  0  0  0  0  0  0  0
   -4.5800   23.1330  -30.4020 C   0  0  0  0  0  0  0  0  0  0  0  0
   -3.0930   22.2640  -29.9870 S   0  0  0  0  0  0  0  0  0  0  0  0
   -3.3050   20.7840  -30.1400 O   0  0  0  0  0  0  0  0  0  0  0  0
   -2.0050   22.6730  -30.9400 O   0  0  0  0  0  0  0  0  0  0  0  0
   -2.5820   22.6050  -28.3460 N   0  0  0  0  0  0  0  0  0  0  0  0
   -1.4960   23.6050  -28.3290 C   0  0  0  0  0  0  0  0  0  0  0  0
   -1.4300   24.3210  -26.9690 C   0  0  0  0  0  0  0  0  0  0  0  0
   -2.6190   25.0240  -26.6320 O   0  0  0  0  0  0  0  0  0  0  0  0
   -3.7920   24.4940  -27.2370 C   0  0  0  0  0  0  0  0  0  0  0  0
   -3.7240   22.9750  -27.4830 C   0  0  0  0  0  0  0  0  0  0  0  0
   -5.7630   22.4050  -30.5860 C   0  0  0  0  0  0  0  0  0  0  0  0
   -6.8740   20.5480  -32.2340 H   0  0  0  0  0  0  0  0  0  0  0  0
   -8.4225   19.5230  -30.6128 H   0  0  0  0  0  0  0  0  0  0  0  0
   -9.5953   19.4428  -31.9828 H   0  0  0  0  0  0  0  0  0  0  0  0
   -8.3772   17.3236  -31.7696 H   0  0  0  0  0  0  0  0  0  0  0  0
   -7.9343   18.1893  -33.3096 H   0  0  0  0  0  0  0  0  0  0  0  0
   -4.7321   17.5924  -33.7256 H   0  0  0  0  0  0  0  0  0  0  0  0
   -6.1942   18.5780  -34.1399 H   0  0  0  0  0  0  0  0  0  0  0  0
   -2.4689   18.9013  -33.6313 H   0  0  0  0  0  0  0  0  0  0  0  0
   -1.8417   21.5299  -33.5055 H   0  0  0  0  0  0  0  0  0  0  0  0
   -4.1549   22.8508  -33.2418 H   0  0  0  0  0  0  0  0  0  0  0  0
   -7.8396   24.9189  -31.6104 H   0  0  0  0  0  0  0  0  0  0  0  0
   -5.7786   26.2518  -31.1729 H   0  0  0  0  0  0  0  0  0  0  0  0
   -0.5375   23.0989  -28.5164 H   0  0  0  0  0  0  0  0  0  0  0  0
   -1.6949   24.3530  -29.1106 H   0  0  0  0  0  0  0  0  0  0  0  0
   -1.2395   23.5683  -26.1898 H   0  0  0  0  0  0  0  0  0  0  0  0
   -0.6254   25.0678  -27.0390 H   0  0  0  0  0  0  0  0  0  0  0  0
   -4.6479   24.7020  -26.5781 H   0  0  0  0  0  0  0  0  0  0  0  0
   -3.8952   24.9766  -28.2201 H   0  0  0  0  0  0  0  0  0  0  0  0
   -3.6186   22.4627  -26.5153 H   0  0  0  0  0  0  0  0  0  0  0  0
   -4.6493   22.6716  -27.9947 H   0  0  0  0  0  0  0  0  0  0  0  0
   -5.7756   21.3255  -30.3752 H   0  0  0  0  0  0  0  0  0  0  0  0
  1  2  2  0
  2  3  2  0
  2  4  1  0
  4  5  1  0
  5  6  1  0
  6  7  1  0
  7  8  1  0
  8  9  1  0
  9 10  2  0
 10 11  1  0
 11 12  2  0
 12 13  1  0
  2 14  1  0
 14 15  2  0
 15 16  1  0
 16 17  2  0
 17 18  1  0
 17 19  1  0
 19 20  1  0
 20 21  2  0
 20 22  2  0
 20 23  1  0
 23 24  1  0
 24 25  1  0
 25 26  1  0
 26 27  1  0
 27 28  1  0
 19 29  2  0
 13  9  1  0
 29 14  1  0
 28 23  1  0
  4 30  1  0
  5 31  1  0
  5 32  1  0
  6 33  1  0
  6 34  1  0
  8 35  1  0
  8 36  1  0
 10 37  1  0
 11 38  1  0
 12 39  1  0
 15 40  1  0
 16 41  1  0
 24 42  1  0
 24 43  1  0
 25 44  1  0
 25 45  1  0
 27 46  1  0
 27 47  1  0
 28 48  1  0
 28 49  1  0
 29 50  1  0
M  CHG  1  18  -1
M  END
>  <UniqueID>  (11) 
11

>  <SMILES>  (11) 
O=S(=O)(NCCSCc1ccco1)c1ccc([O-])c(S(=O)(=O)N2CCOCC2)c1

>  <Energy>  (11) 
78.95194319364009

>  <Genealogy>  (11) 
O=S(=O)(NCCSCc1ccco1)c1ccc([O-])c(S(=O)(=O)N2CCOCC2)c1 (protonated)
O=S(=O)(NCCSCc1ccco1)c1ccc([O-])c(S(=O)(=O)N2CCOCC2)c1 (3D coordinates assigned)
O=S(=O)(NCCSCc1ccco1)c1ccc([O-])c(S(=O)(=O)N2CCOCC2)c1 (nonaromatic ring conformer: 78.95194319364009 kcal/mol)

>  <smiles>  (11) 
O=S(=O)(NCCSCc1ccco1)c1ccc(O)c(S(=O)(=O)N2CCOCC2)c1

>  <score_type>  (11) 
oracle

>  <origin>  (11) 
adgpu

>  <m_score__min__energy>  (11) 
-11.73

>  <m_primary>  (11) 
energy

$$$$
11:0
     RDKit          3D

 35 37  0  0  0  0  0  0  0  0999 V2000
   -5.0190   20.4740  -32.6280 C   0  0  0  0  0  0  0  0  0  0  0  0
   -5.7280   21.2110  -31.4890 C   0  0  2  0  0  0  0  0  0  0  0  0
   -7.0420   21.7890  -31.9920 C   0  0  0  0  0  0  0  0  0  0  0  0
   -7.2510   23.1090  -32.1980 C   0  0  0  0  0  0  0  0  0  0  0  0
   -6.2060   24.1770  -31.9380 C   0  0  0  0  0  0  0  0  0  0  0  0
   -5.0580   23.6300  -31.1510 C   0  0  0  0  0  0  0  0  0  0  0  0
   -4.8460   22.2920  -30.9380 C   0  0  0  0  0  0  0  0  0  0  0  0
   -3.6830   22.1920  -30.1990 C   0  0  0  0  0  0  0  0  0  0  0  0
   -3.0940   21.0000  -29.7910 O   0  0  0  0  0  0  0  0  0  0  0  0
   -3.1730   23.4210  -29.9510 N   0  0  0  0  0  0  0  0  0  0  0  0
   -1.9720   23.7300  -29.2190 C   0  0  0  0  0  0  0  0  0  0  0  0
   -1.8710   24.9240  -28.4860 C   0  0  0  0  0  0  0  0  0  0  0  0
   -0.7040   25.2230  -27.7760 C   0  0  0  0  0  0  0  0  0  0  0  0
    0.3780   24.3340  -27.7930 C   0  0  0  0  0  0  0  0  0  0  0  0
    1.8400   24.7050  -26.8850 S   0  0  0  0  0  0  0  0  0  0  0  0
    3.0020   23.4490  -27.1240 N   0  0  0  0  0  0  0  0  0  0  0  0
    1.5150   24.8190  -25.4220 O   0  0  0  0  0  0  0  0  0  0  0  0
    2.4140   26.0120  -27.3540 O   0  0  0  0  0  0  0  0  0  0  0  0
    0.2790   23.1380  -28.5150 C   0  0  0  0  0  0  0  0  0  0  0  0
   -0.8860   22.8390  -29.2270 C   0  0  0  0  0  0  0  0  0  0  0  0
   -4.0170   24.2990  -30.5410 C   0  0  0  0  0  0  0  0  0  0  0  0
   -3.8640   25.6810  -30.5100 O   0  0  0  0  0  0  0  0  0  0  0  0
   -4.3142   19.7413  -32.2080 H   0  0  0  0  0  0  0  0  0  0  0  0
   -5.7639   19.9529  -33.2473 H   0  0  0  0  0  0  0  0  0  0  0  0
   -4.4694   21.1982  -33.2473 H   0  0  0  0  0  0  0  0  0  0  0  0
   -5.9429   20.5005  -30.6772 H   0  0  0  0  0  0  0  0  0  0  0  0
   -7.8689   21.0940  -32.1999 H   0  0  0  0  0  0  0  0  0  0  0  0
   -8.2344   23.4261  -32.5754 H   0  0  0  0  0  0  0  0  0  0  0  0
   -5.8328   24.5558  -32.9009 H   0  0  0  0  0  0  0  0  0  0  0  0
   -6.6722   24.9865  -31.3572 H   0  0  0  0  0  0  0  0  0  0  0  0
   -2.7156   25.6286  -28.4704 H   0  0  0  0  0  0  0  0  0  0  0  0
   -0.6356   26.1592  -27.2025 H   0  0  0  0  0  0  0  0  0  0  0  0
    3.8430   23.8910  -27.5590 H   0  0  0  0  0  0  0  0  0  0  0  0
    1.1217   22.4310  -28.5217 H   0  0  0  0  0  0  0  0  0  0  0  0
   -0.9529   21.9005  -29.7969 H   0  0  0  0  0  0  0  0  0  0  0  0
  1  2  1  0
  2  3  1  0
  3  4  2  0
  4  5  1  0
  5  6  1  0
  6  7  1  0
  7  8  2  0
  8  9  1  0
  8 10  1  0
 10 11  1  0
 11 12  2  0
 12 13  1  0
 13 14  2  0
 14 15  1  0
 15 16  1  0
 15 17  2  0
 15 18  2  0
 14 19  1  0
 19 20  2  0
 10 21  1  0
 21 22  1  0
  7  2  1  0
 20 11  1  0
 21  6  2  0
  1 23  1  0
  1 24  1  0
  1 25  1  0
  2 26  1  1
  3 27  1  0
  4 28  1  0
  5 29  1  0
  5 30  1  0
 12 31  1  0
 13 32  1  0
 16 33  1  0
 19 34  1  0
 20 35  1  0
M  CHG  3   9  -1  16  -1  22  -1
M  END
>  <UniqueID>  (12) 
12

>  <SMILES>  (12) 
C[C@@H]1C=CCc2c1c([O-])n(-c1ccc(S([NH-])(=O)=O)cc1)c2[O-]

>  <Energy>  (12) 
72.54406292070372

>  <Genealogy>  (12) 
CC1C=CCc2c1c([O-])n(-c1ccc(S([NH-])(=O)=O)cc1)c2[O-] (protonated)
C[C@@H]1C=CCc2c1c([O-])n(-c1ccc(S([NH-])(=O)=O)cc1)c2[O-] (chirality)
C[C@@H]1C=CCc2c1c([O-])n(-c1ccc(S([NH-])(=O)=O)cc1)c2[O-] (3D coordinates assigned)
C[C@@H]1C=CCc2c1c([O-])n(-c1ccc(S([NH-])(=O)=O)cc1)c2[O-] (nonaromatic ring conformer: 72.54406292070372 kcal/mol)

>  <smiles>  (12) 
CC1C=CCc2c1c(O)n(-c1ccc(S(N)(=O)=O)cc1)c2O

>  <score_type>  (12) 
oracle

>  <origin>  (12) 
adgpu

>  <m_score__min__energy>  (12) 
-10.02

>  <m_primary>  (12) 
energy

$$$$
12:0
     RDKit          3D

 43 45  0  0  0  0  0  0  0  0999 V2000
   -7.6021   23.5005  -29.1980 H   0  0  0  0  0  0  0  0  0  0  0  0
   -6.7110   23.5360  -29.8420 C   0  0  0  0  0  0  0  0  0  0  0  0
   -5.4910   23.9220  -29.3850 N   0  0  0  0  0  0  0  0  0  0  0  0
   -4.5590   23.8800  -30.3640 C   0  0  0  0  0  0  0  0  0  0  0  0
   -3.3180   24.2300  -30.2110 N   0  0  0  0  0  0  0  0  0  0  0  0
   -2.6750   24.6050  -28.9830 C   0  0  0  0  0  0  0  0  0  0  0  0
   -1.9470   25.6330  -28.9760 O   0  0  0  0  0  0  0  0  0  0  0  0
   -2.7830   23.7800  -27.7230 C   0  0  0  0  0  0  0  0  0  0  0  0
   -2.8917   24.4577  -26.8634 H   0  0  0  0  0  0  0  0  0  0  0  0
   -3.6574   23.1202  -27.8236 H   0  0  0  0  0  0  0  0  0  0  0  0
   -1.5450   22.8960  -27.5040 C   0  0  0  0  0  0  0  0  0  0  0  0
   -1.7294   22.2350  -26.6443 H   0  0  0  0  0  0  0  0  0  0  0  0
   -1.3757   22.3181  -28.4245 H   0  0  0  0  0  0  0  0  0  0  0  0
   -0.0720   23.8620  -27.1830 S   0  0  0  0  0  0  0  0  0  0  0  0
    0.9880   22.9680  -26.6020 O   0  0  0  0  0  0  0  0  0  0  0  0
    0.4360   24.4230  -28.4820 O   0  0  0  0  0  0  0  0  0  0  0  0
   -0.3990   25.1700  -26.0490 C   0  0  0  0  0  0  0  0  0  0  0  0
   -0.4360   24.9280  -24.6670 C   0  0  0  0  0  0  0  0  0  0  0  0
   -0.2838   23.9081  -24.2840 H   0  0  0  0  0  0  0  0  0  0  0  0
   -0.6660   25.9810  -23.7760 C   0  0  0  0  0  0  0  0  0  0  0  0
   -0.6935   25.7886  -22.6933 H   0  0  0  0  0  0  0  0  0  0  0  0
   -0.8610   27.2780  -24.2600 C   0  0  0  0  0  0  0  0  0  0  0  0
   -1.0404   28.1058  -23.5581 H   0  0  0  0  0  0  0  0  0  0  0  0
   -0.8280   27.5230  -25.6360 C   0  0  0  0  0  0  0  0  0  0  0  0
   -0.9829   28.5433  -26.0166 H   0  0  0  0  0  0  0  0  0  0  0  0
   -0.5980   26.4710  -26.5290 C   0  0  0  0  0  0  0  0  0  0  0  0
   -0.5733   26.6659  -27.6113 H   0  0  0  0  0  0  0  0  0  0  0  0
   -5.2040   23.3970  -31.8380 S   0  0  0  0  0  0  0  0  0  0  0  0
   -6.7440   23.1890  -31.1900 C   0  0  0  0  0  0  0  0  0  0  0  0
   -7.9640   22.8080  -31.9670 C   0  0  0  0  0  0  0  0  0  0  0  0
   -8.8611   23.1114  -31.4074 H   0  0  0  0  0  0  0  0  0  0  0  0
   -7.9420   23.3152  -32.9429 H   0  0  0  0  0  0  0  0  0  0  0  0
   -7.9940   21.3220  -32.1860 C   0  0  0  0  0  0  0  0  0  0  0  0
   -6.8880   20.6670  -32.7550 C   0  0  0  0  0  0  0  0  0  0  0  0
   -6.0074   21.2482  -33.0661 H   0  0  0  0  0  0  0  0  0  0  0  0
   -6.9030   19.2800  -32.9270 C   0  0  0  0  0  0  0  0  0  0  0  0
   -6.0386   18.7736  -33.3812 H   0  0  0  0  0  0  0  0  0  0  0  0
   -8.0140   18.5360  -32.5230 C   0  0  0  0  0  0  0  0  0  0  0  0
   -8.0241   17.4446  -32.6602 H   0  0  0  0  0  0  0  0  0  0  0  0
   -9.1140   19.1780  -31.9440 C   0  0  0  0  0  0  0  0  0  0  0  0
   -9.9876   18.5911  -31.6241 H   0  0  0  0  0  0  0  0  0  0  0  0
   -9.1030   20.5650  -31.7720 C   0  0  0  0  0  0  0  0  0  0  0  0
   -9.9665   21.0663  -31.3104 H   0  0  0  0  0  0  0  0  0  0  0  0
  1  2  1  0
  2  3  1  0
  3  4  1  0
  4  5  2  0
  5  6  1  0
  6  7  2  0
  6  8  1  0
  8  9  1  0
  8 10  1  0
  8 11  1  0
 11 12  1  0
 11 13  1  0
 11 14  1  0
 14 15  2  0
 14 16  2  0
 14 17  1  0
 17 18  2  0
 18 19  1  0
 18 20  1  0
 20 21  1  0
 20 22  2  0
 22 23  1  0
 22 24  1  0
 24 25  1  0
 24 26  2  0
 26 27  1  0
  4 28  1  0
 28 29  1  0
 29 30  1  0
 30 31  1  0
 30 32  1  0
 30 33  1  0
 33 34  2  0
 34 35  1  0
 34 36  1  0
 36 37  1  0
 36 38  2  0
 38 39  1  0
 38 40  1  0
 40 41  1  0
 40 42  2  0
 42 43  1  0
 29  2  2  0
 42 33  1  0
 26 17  1  0
M  CHG  1   3  -1
M  END
>  <UniqueID>  (13) 
13

>  <SMILES>  (13) 
O=C(CCS(=O)(=O)c1ccccc1)/N=c1\[n-]cc(Cc2ccccc2)s1

>  <Energy>  (13) 
72.34926072308724

>  <Genealogy>  (13) 
O=C(CCS(=O)(=O)c1ccccc1)N=c1[n-]cc(Cc2ccccc2)s1 (protonated)
O=C(CCS(=O)(=O)c1ccccc1)/N=c1\[n-]cc(Cc2ccccc2)s1 (cis-trans isomerization)
O=C(CCS(=O)(=O)c1ccccc1)/N=c1\[n-]cc(Cc2ccccc2)s1 (3D coordinates assigned)
O=C(CCS(=O)(=O)c1ccccc1)/N=c1\[n-]cc(Cc2ccccc2)s1 (optimized conformer: 72.34926072308724 kcal/mol)

>  <smiles>  (13) 
O=C(CCS(=O)(=O)c1ccccc1)N=c1[nH]cc(Cc2ccccc2)s1

>  <score_type>  (13) 
oracle

>  <origin>  (13) 
adgpu

>  <m_score__min__energy>  (13) 
-11.16

>  <m_primary>  (13) 
energy

$$$$
13:0
     RDKit          3D

 49 51  0  0  0  0  0  0  0  0999 V2000
   -2.8530   24.1350  -27.8110 C   0  0  0  0  0  0  0  0  0  0  0  0
   -2.5320   24.9260  -29.0450 C   0  0  0  0  0  0  0  0  0  0  0  0
   -1.3790   25.4150  -29.1720 O   0  0  0  0  0  0  0  0  0  0  0  0
   -3.5070   25.1760  -30.0700 N   0  0  0  0  0  0  0  0  0  0  0  0
   -4.6280   24.3470  -30.4050 C   0  0  0  0  0  0  0  0  0  0  0  0
   -5.6720   24.8940  -31.1620 C   0  0  0  0  0  0  0  0  0  0  0  0
   -6.7590   24.1030  -31.5440 C   0  0  0  0  0  0  0  0  0  0  0  0
   -6.8030   22.7470  -31.1910 C   0  0  0  0  0  0  0  0  0  0  0  0
   -8.1660   21.7450  -31.6810 S   0  0  0  0  0  0  0  0  0  0  0  0
   -9.3120   22.6100  -32.1270 O   0  0  0  0  0  0  0  0  0  0  0  0
   -8.6270   20.9170  -30.5150 O   0  0  0  0  0  0  0  0  0  0  0  0
   -7.6870   20.6920  -32.9690 N   0  0  0  0  0  0  0  0  0  0  0  0
   -6.7180   19.6530  -32.8020 C   0  0  0  0  0  0  0  0  0  0  0  0
   -7.0970   18.4730  -32.5730 O   0  0  0  0  0  0  0  0  0  0  0  0
   -5.2720   19.9630  -32.8920 C   0  0  0  0  0  0  0  0  0  0  0  0
   -4.8360   21.2670  -33.1900 C   0  0  0  0  0  0  0  0  0  0  0  0
   -3.4720   21.5580  -33.2720 C   0  0  0  0  0  0  0  0  0  0  0  0
   -2.5210   20.5500  -33.0570 C   0  0  0  0  0  0  0  0  0  0  0  0
   -0.7970   20.9070  -33.1380 S   0  0  0  0  0  0  0  0  0  0  0  0
   -0.0650   19.6350  -33.4700 O   0  0  0  0  0  0  0  0  0  0  0  0
   -0.5310   21.9110  -34.2260 O   0  0  0  0  0  0  0  0  0  0  0  0
   -0.2460   21.5210  -31.5920 N   0  0  0  0  0  0  0  0  0  0  0  0
    0.2700   20.4280  -30.7590 C   0  0  0  0  0  0  0  0  0  0  0  0
   -0.8780   19.9010  -29.9110 C   0  0  0  0  0  0  0  0  0  0  0  0
   -1.9340   20.9920  -29.9390 C   0  0  0  0  0  0  0  0  0  0  0  0
   -1.3700   22.0850  -30.8390 C   0  0  0  0  0  0  0  0  0  0  0  0
   -2.9470   19.2510  -32.7560 C   0  0  0  0  0  0  0  0  0  0  0  0
   -4.3110   18.9570  -32.6780 C   0  0  0  0  0  0  0  0  0  0  0  0
   -5.7510   22.1910  -30.4500 C   0  0  0  0  0  0  0  0  0  0  0  0
   -4.6640   22.9820  -30.0670 C   0  0  0  0  0  0  0  0  0  0  0  0
   -2.6107   24.7320  -26.9194 H   0  0  0  0  0  0  0  0  0  0  0  0
   -3.9240   23.8843  -27.8045 H   0  0  0  0  0  0  0  0  0  0  0  0
   -2.2596   23.2088  -27.8045 H   0  0  0  0  0  0  0  0  0  0  0  0
   -5.6360   25.9529  -31.4577 H   0  0  0  0  0  0  0  0  0  0  0  0
   -7.5826   24.5458  -32.1234 H   0  0  0  0  0  0  0  0  0  0  0  0
   -5.5750   22.0639  -33.3598 H   0  0  0  0  0  0  0  0  0  0  0  0
   -3.1429   22.5812  -33.5060 H   0  0  0  0  0  0  0  0  0  0  0  0
    0.6612   19.6235  -31.3991 H   0  0  0  0  0  0  0  0  0  0  0  0
    1.0855   20.7900  -30.1157 H   0  0  0  0  0  0  0  0  0  0  0  0
   -1.2761   18.9690  -30.3387 H   0  0  0  0  0  0  0  0  0  0  0  0
   -0.5560   19.6696  -28.8850 H   0  0  0  0  0  0  0  0  0  0  0  0
   -2.8768   20.6034  -30.3515 H   0  0  0  0  0  0  0  0  0  0  0  0
   -2.1560   21.3697  -28.9300 H   0  0  0  0  0  0  0  0  0  0  0  0
   -2.1476   22.4330  -31.5349 H   0  0  0  0  0  0  0  0  0  0  0  0
   -1.0326   22.9397  -30.2343 H   0  0  0  0  0  0  0  0  0  0  0  0
   -2.2050   18.4583  -32.5801 H   0  0  0  0  0  0  0  0  0  0  0  0
   -4.6361   17.9317  -32.4476 H   0  0  0  0  0  0  0  0  0  0  0  0
   -5.7810   21.1280  -30.1688 H   0  0  0  0  0  0  0  0  0  0  0  0
   -3.8341   22.5356  -29.4995 H   0  0  0  0  0  0  0  0  0  0  0  0
  1  2  1  0
  2  3  2  0
  2  4  1  0
  4  5  1  0
  5  6  2  0
  6  7  1  0
  7  8  2  0
  8  9  1  0
  9 10  2  0
  9 11  2  0
  9 12  1  0
 12 13  1  0
 13 14  2  0
 13 15  1  0
 15 16  2  0
 16 17  1  0
 17 18  2  0
 18 19  1  0
 19 20  2  0
 19 21  2  0
 19 22  1  0
 22 23  1  0
 23 24  1  0
 24 25  1  0
 25 26  1  0
 18 27  1  0
 27 28  2  0
  8 29  1  0
 29 30  2  0
 30  5  1  0
 28 15  1  0
 26 22  1  0
  1 31  1  0
  1 32  1  0
  1 33  1  0
  6 34  1  0
  7 35  1  0
 16 36  1  0
 17 37  1  0
 23 38  1  0
 23 39  1  0
 24 40  1  0
 24 41  1  0
 25 42  1  0
 25 43  1  0
 26 44  1  0
 26 45  1  0
 27 46  1  0
 28 47  1  0
 29 48  1  0
 30 49  1  0
M  CHG  2   4  -1  12  -1
M  END
>  <UniqueID>  (14) 
14

>  <SMILES>  (14) 
CC(=O)[N-]c1ccc(S(=O)(=O)[N-]C(=O)c2ccc(S(=O)(=O)N3CCCC3)cc2)cc1

>  <Energy>  (14) 
57.533571805088

>  <Genealogy>  (14) 
CC(=O)[N-]c1ccc(S(=O)(=O)[N-]C(=O)c2ccc(S(=O)(=O)N3CCCC3)cc2)cc1 (protonated)
CC(=O)[N-]c1ccc(S(=O)(=O)[N-]C(=O)c2ccc(S(=O)(=O)N3CCCC3)cc2)cc1 (3D coordinates assigned)
CC(=O)[N-]c1ccc(S(=O)(=O)[N-]C(=O)c2ccc(S(=O)(=O)N3CCCC3)cc2)cc1 (nonaromatic ring conformer: 57.533571805088 kcal/mol)

>  <smiles>  (14) 
CC(=O)Nc1ccc(S(=O)(=O)NC(=O)c2ccc(S(=O)(=O)N3CCCC3)cc2)cc1

>  <score_type>  (14) 
oracle

>  <origin>  (14) 
adgpu

>  <m_score__min__energy>  (14) 
-11.43

>  <m_primary>  (14) 
energy

$$$$
14:0
     RDKit          3D

 61 64  0  0  0  0  0  0  0  0999 V2000
   -1.4320   21.1900  -29.0900 O   0  0  0  0  0  0  0  0  0  0  0  0
   -2.1540   22.1100  -30.0330 S   0  0  0  0  0  0  0  0  0  0  0  0
   -1.4060   23.4090  -30.0970 O   0  0  0  0  0  0  0  0  0  0  0  0
   -3.7480   22.4170  -29.4160 N   0  0  0  0  0  0  0  0  0  0  0  0
   -4.8060   23.0000  -30.1840 C   0  0  0  0  0  0  0  0  0  0  0  0
   -5.9730   22.2760  -30.4720 C   0  0  0  0  0  0  0  0  0  0  0  0
   -7.0090   22.8610  -31.2090 C   0  0  0  0  0  0  0  0  0  0  0  0
   -8.4810   21.9470  -31.5290 S   0  0  0  0  0  0  0  0  0  0  0  0
   -9.5450   22.8670  -32.0650 O   0  0  0  0  0  0  0  0  0  0  0  0
   -8.9680   21.3540  -30.2360 O   0  0  0  0  0  0  0  0  0  0  0  0
   -8.1530   20.6730  -32.6800 N   0  0  0  0  0  0  0  0  0  0  0  0
   -8.9700   19.4660  -32.3900 C   0  0  0  0  0  0  0  0  0  0  0  0
   -8.1780   18.3600  -31.6810 C   0  0  0  0  0  0  0  0  0  0  0  0
   -6.9670   17.9200  -32.5190 C   0  0  0  0  0  0  0  0  0  0  0  0
   -6.3840   19.0620  -33.3690 C   0  0  0  0  0  0  0  0  0  0  0  0
   -6.6950   20.4270  -32.7490 C   0  0  0  0  0  0  0  0  0  0  0  0
   -6.8560   24.1630  -31.7020 C   0  0  0  0  0  0  0  0  0  0  0  0
   -5.6750   24.8690  -31.4630 C   0  0  0  0  0  0  0  0  0  0  0  0
   -4.6470   24.2910  -30.7060 C   0  0  0  0  0  0  0  0  0  0  0  0
   -3.4700   24.9970  -30.4610 O   0  0  0  0  0  0  0  0  0  0  0  0
   -2.1800   21.3860  -31.6390 C   0  0  0  0  0  0  0  0  0  0  0  0
   -3.3420   20.7510  -32.1020 C   0  0  0  0  0  0  0  0  0  0  0  0
   -3.3740   20.1930  -33.3830 C   0  0  0  0  0  0  0  0  0  0  0  0
   -2.2450   20.2570  -34.2050 C   0  0  0  0  0  0  0  0  0  0  0  0
   -1.0730   20.8800  -33.7460 C   0  0  0  0  0  0  0  0  0  0  0  0
    0.3470   20.9750  -34.7870 S   0  0  0  0  0  0  0  0  0  0  0  0
   -0.0980   20.9350  -36.2230 O   0  0  0  0  0  0  0  0  0  0  0  0
    1.0290   22.2950  -34.5590 O   0  0  0  0  0  0  0  0  0  0  0  0
    1.4910   19.6790  -34.5080 N   0  0  0  0  0  0  0  0  0  0  0  0
    2.1120   19.7160  -33.1700 C   0  0  0  0  0  0  0  0  0  0  0  0
    1.3270   18.9000  -32.1350 C   0  0  0  0  0  0  0  0  0  0  0  0
    1.1230   17.5820  -32.5960 O   0  0  0  0  0  0  0  0  0  0  0  0
    0.2940   17.6130  -33.7380 C   0  0  0  0  0  0  0  0  0  0  0  0
    0.9800   18.3500  -34.8980 C   0  0  0  0  0  0  0  0  0  0  0  0
   -1.0510   21.4580  -32.4700 C   0  0  0  0  0  0  0  0  0  0  0  0
   -6.0744   21.2403  -30.1156 H   0  0  0  0  0  0  0  0  0  0  0  0
   -9.8131   19.7599  -31.7474 H   0  0  0  0  0  0  0  0  0  0  0  0
   -9.3095   19.0600  -33.3543 H   0  0  0  0  0  0  0  0  0  0  0  0
   -7.8246   18.7376  -30.7102 H   0  0  0  0  0  0  0  0  0  0  0  0
   -8.8394   17.4922  -31.5417 H   0  0  0  0  0  0  0  0  0  0  0  0
   -6.1840   17.5527  -31.8393 H   0  0  0  0  0  0  0  0  0  0  0  0
   -7.3094   17.1348  -33.2091 H   0  0  0  0  0  0  0  0  0  0  0  0
   -5.2930   18.9385  -33.4363 H   0  0  0  0  0  0  0  0  0  0  0  0
   -6.8410   19.0209  -34.3687 H   0  0  0  0  0  0  0  0  0  0  0  0
   -6.2785   20.4605  -31.7315 H   0  0  0  0  0  0  0  0  0  0  0  0
   -6.2439   21.2045  -33.3831 H   0  0  0  0  0  0  0  0  0  0  0  0
   -7.6678   24.6305  -32.2787 H   0  0  0  0  0  0  0  0  0  0  0  0
   -5.5511   25.8831  -31.8707 H   0  0  0  0  0  0  0  0  0  0  0  0
   -2.6170   24.5240  -30.1930 H   0  0  0  0  0  0  0  0  0  0  0  0
   -4.2300   20.6921  -31.4554 H   0  0  0  0  0  0  0  0  0  0  0  0
   -4.2895   19.7024  -33.7452 H   0  0  0  0  0  0  0  0  0  0  0  0
   -2.2747   19.8185  -35.2134 H   0  0  0  0  0  0  0  0  0  0  0  0
    3.1306   19.3072  -33.2425 H   0  0  0  0  0  0  0  0  0  0  0  0
    2.1194   20.7634  -32.8339 H   0  0  0  0  0  0  0  0  0  0  0  0
    1.8934   18.8702  -31.1925 H   0  0  0  0  0  0  0  0  0  0  0  0
    0.3484   19.3762  -31.9746 H   0  0  0  0  0  0  0  0  0  0  0  0
    0.0716   16.5815  -34.0489 H   0  0  0  0  0  0  0  0  0  0  0  0
   -0.6329   18.1477  -33.4831 H   0  0  0  0  0  0  0  0  0  0  0  0
    1.8233   17.7393  -35.2528 H   0  0  0  0  0  0  0  0  0  0  0  0
    0.2272   18.5023  -35.6854 H   0  0  0  0  0  0  0  0  0  0  0  0
   -0.1441   21.9710  -32.1174 H   0  0  0  0  0  0  0  0  0  0  0  0
  1  2  2  0
  2  3  2  0
  2  4  1  0
  4  5  1  0
  5  6  2  0
  6  7  1  0
  7  8  1  0
  8  9  2  0
  8 10  2  0
  8 11  1  0
 11 12  1  0
 12 13  1  0
 13 14  1  0
 14 15  1  0
 15 16  1  0
  7 17  2  0
 17 18  1  0
 18 19  2  0
 19 20  1  0
  2 21  1  0
 21 22  2  0
 22 23  1  0
 23 24  2  0
 24 25  1  0
 25 26  1  0
 26 27  2  0
 26 28  2  0
 26 29  1  0
 29 30  1  0
 30 31  1  0
 31 32  1  0
 32 33  1  0
 33 34  1  0
 25 35  2  0
 19  5  1  0
 35 21  1  0
 16 11  1  0
 34 29  1  0
  6 36  1  0
 12 37  1  0
 12 38  1  0
 13 39  1  0
 13 40  1  0
 14 41  1  0
 14 42  1  0
 15 43  1  0
 15 44  1  0
 16 45  1  0
 16 46  1  0
 17 47  1  0
 18 48  1  0
 20 49  1  0
 22 50  1  0
 23 51  1  0
 24 52  1  0
 30 53  1  0
 30 54  1  0
 31 55  1  0
 31 56  1  0
 33 57  1  0
 33 58  1  0
 34 59  1  0
 34 60  1  0
 35 61  1  0
M  CHG  1   4  -1
M  END
>  <UniqueID>  (15) 
15

>  <SMILES>  (15) 
O=S(=O)([N-]c1cc(S(=O)(=O)N2CCCCC2)ccc1O)c1cccc(S(=O)(=O)N2CCOCC2)c1

>  <Energy>  (15) 
80.35810566836629

>  <Genealogy>  (15) 
O=S(=O)([N-]c1cc(S(=O)(=O)N2CCCCC2)ccc1O)c1cccc(S(=O)(=O)N2CCOCC2)c1 (protonated)
O=S(=O)([N-]c1cc(S(=O)(=O)N2CCCCC2)ccc1O)c1cccc(S(=O)(=O)N2CCOCC2)c1 (3D coordinates assigned)
O=S(=O)([N-]c1cc(S(=O)(=O)N2CCCCC2)ccc1O)c1cccc(S(=O)(=O)N2CCOCC2)c1 (nonaromatic ring conformer: 80.35810566836629 kcal/mol)

>  <smiles>  (15) 
O=S(=O)(Nc1cc(S(=O)(=O)N2CCCCC2)ccc1O)c1cccc(S(=O)(=O)N2CCOCC2)c1

>  <score_type>  (15) 
oracle

>  <origin>  (15) 
adgpu

>  <m_score__min__energy>  (15) 
-13.15

>  <m_primary>  (15) 
energy

$$$$
15:0
     RDKit          3D

 45 48  0  0  0  0  0  0  0  0999 V2000
   -3.8680   25.6730  -30.5370 O   0  0  0  0  0  0  0  0  0  0  0  0
   -4.7070   24.5800  -30.7190 C   0  0  0  0  0  0  0  0  0  0  0  0
   -6.0640   24.7770  -30.9900 C   0  0  0  0  0  0  0  0  0  0  0  0
   -6.9090   23.6790  -31.1740 C   0  0  0  0  0  0  0  0  0  0  0  0
   -6.4010   22.3700  -31.0880 C   0  0  0  0  0  0  0  0  0  0  0  0
   -7.2870   21.2050  -31.2810 C   0  0  0  0  0  0  0  0  0  0  0  0
   -6.9340   20.0830  -31.9410 N   0  0  0  0  0  0  0  0  0  0  0  0
   -8.0600   19.3480  -31.8370 C   0  0  0  0  0  0  0  0  0  0  0  0
   -8.2050   17.9600  -32.4000 C   0  0  0  0  0  0  0  0  0  0  0  0
   -6.9330   17.3900  -32.8920 N   0  0  0  0  0  0  0  0  0  0  0  0
   -5.8990   17.2820  -31.8470 C   0  0  0  0  0  0  0  0  0  0  0  0
   -4.8060   16.3220  -32.3280 C   0  0  0  0  0  0  0  0  0  0  0  0
   -4.5340   16.5170  -33.7590 N   0  0  0  0  0  0  0  0  0  0  0  0
   -3.8250   15.5060  -34.5040 C   0  0  0  0  0  0  0  0  0  0  0  0
   -3.8550   14.1630  -34.0920 C   0  0  0  0  0  0  0  0  0  0  0  0
   -3.1760   13.1830  -34.8220 C   0  0  0  0  0  0  0  0  0  0  0  0
   -2.4660   13.5300  -35.9750 C   0  0  0  0  0  0  0  0  0  0  0  0
   -1.7940   12.5430  -36.6930 O   0  0  0  0  0  0  0  0  0  0  0  0
   -2.4390   14.8650  -36.3990 C   0  0  0  0  0  0  0  0  0  0  0  0
   -3.1170   15.8470  -35.6700 C   0  0  0  0  0  0  0  0  0  0  0  0
   -4.9520   17.7710  -34.3990 C   0  0  0  0  0  0  0  0  0  0  0  0
   -6.4410   18.0600  -34.1200 C   0  0  0  0  0  0  0  0  0  0  0  0
   -9.0330   19.9830  -31.1560 N   0  0  0  0  0  0  0  0  0  0  0  0
   -8.5150   21.1280  -30.8310 O   0  0  0  0  0  0  0  0  0  0  0  0
   -5.0360   22.1810  -30.8160 C   0  0  0  0  0  0  0  0  0  0  0  0
   -4.1930   23.2830  -30.6330 C   0  0  0  0  0  0  0  0  0  0  0  0
   -6.4676   25.7980  -31.0586 H   0  0  0  0  0  0  0  0  0  0  0  0
   -7.9762   23.8392  -31.3870 H   0  0  0  0  0  0  0  0  0  0  0  0
   -8.5992   17.3030  -31.6107 H   0  0  0  0  0  0  0  0  0  0  0  0
   -8.8849   18.0287  -33.2620 H   0  0  0  0  0  0  0  0  0  0  0  0
   -5.4620   18.2732  -31.6560 H   0  0  0  0  0  0  0  0  0  0  0  0
   -6.3469   16.9012  -30.9173 H   0  0  0  0  0  0  0  0  0  0  0  0
   -3.8847   16.5090  -31.7569 H   0  0  0  0  0  0  0  0  0  0  0  0
   -5.1499   15.2889  -32.1717 H   0  0  0  0  0  0  0  0  0  0  0  0
   -4.4164   13.8809  -33.1891 H   0  0  0  0  0  0  0  0  0  0  0  0
   -3.2005   12.1352  -34.4879 H   0  0  0  0  0  0  0  0  0  0  0  0
   -2.2500   12.0240  -37.4350 H   0  0  0  0  0  0  0  0  0  0  0  0
   -1.8833   15.1413  -37.3072 H   0  0  0  0  0  0  0  0  0  0  0  0
   -3.0963   16.8927  -36.0108 H   0  0  0  0  0  0  0  0  0  0  0  0
   -4.3441   18.5978  -34.0030 H   0  0  0  0  0  0  0  0  0  0  0  0
   -4.8094   17.6762  -35.4856 H   0  0  0  0  0  0  0  0  0  0  0  0
   -6.5734   19.1460  -34.0056 H   0  0  0  0  0  0  0  0  0  0  0  0
   -7.0207   17.6670  -34.9682 H   0  0  0  0  0  0  0  0  0  0  0  0
   -4.6277   21.1620  -30.7465 H   0  0  0  0  0  0  0  0  0  0  0  0
   -3.1247   23.1283  -30.4212 H   0  0  0  0  0  0  0  0  0  0  0  0
  1  2  1  0
  2  3  2  0
  3  4  1  0
  4  5  2  0
  5  6  1  0
  6  7  2  0
  7  8  1  0
  8  9  1  0
  9 10  1  0
 10 11  1  0
 11 12  1  0
 12 13  1  0
 13 14  1  0
 14 15  2  0
 15 16  1  0
 16 17  2  0
 17 18  1  0
 17 19  1  0
 19 20  2  0
 13 21  1  0
 21 22  1  0
  8 23  2  0
 23 24  1  0
  5 25  1  0
 25 26  2  0
 26  2  1  0
 24  6  1  0
 22 10  1  0
 20 14  1  0
  3 27  1  0
  4 28  1  0
  9 29  1  0
  9 30  1  0
 11 31  1  0
 11 32  1  0
 12 33  1  0
 12 34  1  0
 15 35  1  0
 16 36  1  0
 18 37  1  0
 19 38  1  0
 20 39  1  0
 21 40  1  0
 21 41  1  0
 22 42  1  0
 22 43  1  0
 25 44  1  0
 26 45  1  0
M  CHG  1   1  -1
M  END
>  <UniqueID>  (16) 
16

>  <SMILES>  (16) 
[O-]c1ccc(-c2nc(CN3CCN(c4ccc(O)cc4)CC3)no2)cc1

>  <Energy>  (16) 
92.69429255499236

>  <Genealogy>  (16) 
[O-]c1ccc(-c2nc(CN3CCN(c4ccc(O)cc4)CC3)no2)cc1 (protonated)
[O-]c1ccc(-c2nc(CN3CCN(c4ccc(O)cc4)CC3)no2)cc1 (3D coordinates assigned)
[O-]c1ccc(-c2nc(CN3CCN(c4ccc(O)cc4)CC3)no2)cc1 (nonaromatic ring conformer: 92.69429255499236 kcal/mol)

>  <smiles>  (16) 
Oc1ccc(-c2nc(CN3CCN(c4ccc(O)cc4)CC3)no2)cc1

>  <score_type>  (16) 
oracle

>  <origin>  (16) 
adgpu

>  <m_score__min__energy>  (16) 
-10.470000000000001

>  <m_primary>  (16) 
energy

$$$$
16:0
     RDKit          3D

 64 67  0  0  0  0  0  0  0  0999 V2000
   -1.3240   26.4680  -28.4870 N   0  0  0  0  0  0  0  0  0  0  0  0
   -1.3780   25.0500  -28.2930 C   0  0  0  0  0  0  0  0  0  0  0  0
   -0.5010   24.4430  -27.3850 C   0  0  0  0  0  0  0  0  0  0  0  0
   -0.5600   23.0670  -27.1550 C   0  0  0  0  0  0  0  0  0  0  0  0
   -1.4890   22.2770  -27.8430 C   0  0  0  0  0  0  0  0  0  0  0  0
   -1.5980   20.5440  -27.5170 S   0  0  0  0  0  0  0  0  0  0  0  0
   -1.6460   20.3260  -26.0300 O   0  0  0  0  0  0  0  0  0  0  0  0
   -2.8760   20.0150  -28.1060 O   0  0  0  0  0  0  0  0  0  0  0  0
   -0.2490   19.6490  -28.1750 N   0  0  0  0  0  0  0  0  0  0  0  0
   -0.3180   19.5230  -29.6310 C   0  0  0  0  0  0  0  0  0  0  0  0
    0.4370   18.2510  -29.9940 C   0  0  0  0  0  0  0  0  0  0  0  0
    0.5830   17.4790  -28.6910 C   0  0  0  0  0  0  0  0  0  0  0  0
   -0.2050   18.2800  -27.6690 C   0  0  0  0  0  0  0  0  0  0  0  0
   -2.3350   22.8700  -28.7890 C   0  0  0  0  0  0  0  0  0  0  0  0
   -2.2940   24.2530  -29.0080 C   0  0  0  0  0  0  0  0  0  0  0  0
   -3.1790   24.8340  -29.9700 N   0  0  0  0  0  0  0  0  0  0  0  0
   -4.5910   24.6060  -29.9630 C   0  0  0  0  0  0  0  0  0  0  0  0
   -5.3430   25.4070  -29.3490 O   0  0  0  0  0  0  0  0  0  0  0  0
   -5.1840   23.4560  -30.6680 C   0  0  0  0  0  0  0  0  0  0  0  0
   -4.3390   22.5350  -31.3020 C   0  0  0  0  0  0  0  0  0  0  0  0
   -4.8710   21.4210  -31.9640 C   0  0  0  0  0  0  0  0  0  0  0  0
   -3.7960   20.2610  -32.7430 S   0  0  0  0  0  0  0  0  0  0  0  0
   -2.6830   19.9050  -31.7950 O   0  0  0  0  0  0  0  0  0  0  0  0
   -3.1780   20.9160  -33.9470 O   0  0  0  0  0  0  0  0  0  0  0  0
   -4.6260   18.8160  -33.2690 N   0  0  0  0  0  0  0  0  0  0  0  0
   -5.3180   18.0160  -32.2480 C   0  0  0  0  0  0  0  0  0  0  0  0
   -6.6830   17.4700  -32.6900 C   0  0  0  0  0  0  0  0  0  0  0  0
   -6.6590   16.7530  -34.0440 C   0  0  0  0  0  0  0  0  0  0  0  0
   -5.4220   15.8620  -34.1990 C   0  0  0  0  0  0  0  0  0  0  0  0
   -4.0730   16.5960  -34.3400 C   0  0  0  0  0  0  0  0  0  0  0  0
   -4.1210   18.1270  -34.4650 C   0  0  0  0  0  0  0  0  0  0  0  0
   -6.2550   21.2200  -31.9750 C   0  0  0  0  0  0  0  0  0  0  0  0
   -7.1040   22.1350  -31.3490 C   0  0  0  0  0  0  0  0  0  0  0  0
   -6.5810   23.2500  -30.6860 C   0  0  0  0  0  0  0  0  0  0  0  0
   -7.4640   24.1180  -30.0420 O   0  0  0  0  0  0  0  0  0  0  0  0
   -2.0730   26.9810  -29.0030 H   0  0  0  0  0  0  0  0  0  0  0  0
   -0.5290   27.0260  -28.1020 H   0  0  0  0  0  0  0  0  0  0  0  0
    0.2397   25.0548  -26.8492 H   0  0  0  0  0  0  0  0  0  0  0  0
    0.1255   22.6022  -26.4311 H   0  0  0  0  0  0  0  0  0  0  0  0
   -1.3662   19.4481  -29.9562 H   0  0  0  0  0  0  0  0  0  0  0  0
    0.1225   20.4008  -30.1264 H   0  0  0  0  0  0  0  0  0  0  0  0
   -0.1326   17.6621  -30.7280 H   0  0  0  0  0  0  0  0  0  0  0  0
    1.4138   18.4720  -30.4490 H   0  0  0  0  0  0  0  0  0  0  0  0
    0.1663   16.4661  -28.7930 H   0  0  0  0  0  0  0  0  0  0  0  0
    1.6364   17.3582  -28.3981 H   0  0  0  0  0  0  0  0  0  0  0  0
   -1.2235   17.8764  -27.5704 H   0  0  0  0  0  0  0  0  0  0  0  0
    0.2627   18.2337  -26.6745 H   0  0  0  0  0  0  0  0  0  0  0  0
   -3.0356   22.2460  -29.3632 H   0  0  0  0  0  0  0  0  0  0  0  0
   -3.2499   22.6881  -31.2796 H   0  0  0  0  0  0  0  0  0  0  0  0
   -4.6750   17.1633  -31.9845 H   0  0  0  0  0  0  0  0  0  0  0  0
   -5.5081   18.6875  -31.3977 H   0  0  0  0  0  0  0  0  0  0  0  0
   -7.0341   16.7585  -31.9281 H   0  0  0  0  0  0  0  0  0  0  0  0
   -7.3515   18.3365  -32.8007 H   0  0  0  0  0  0  0  0  0  0  0  0
   -7.5601   16.1282  -34.1312 H   0  0  0  0  0  0  0  0  0  0  0  0
   -6.6280   17.5183  -34.8336 H   0  0  0  0  0  0  0  0  0  0  0  0
   -5.3612   15.2136  -33.3125 H   0  0  0  0  0  0  0  0  0  0  0  0
   -5.5644   15.3192  -35.1451 H   0  0  0  0  0  0  0  0  0  0  0  0
   -3.4695   16.3543  -33.4527 H   0  0  0  0  0  0  0  0  0  0  0  0
   -3.6552   16.2446  -35.2950 H   0  0  0  0  0  0  0  0  0  0  0  0
   -3.1017   18.4883  -34.6661 H   0  0  0  0  0  0  0  0  0  0  0  0
   -4.8239   18.3546  -35.2800 H   0  0  0  0  0  0  0  0  0  0  0  0
   -6.6764   20.3376  -32.4788 H   0  0  0  0  0  0  0  0  0  0  0  0
   -8.1923   21.9777  -31.3775 H   0  0  0  0  0  0  0  0  0  0  0  0
   -7.2000   24.6660  -29.2340 H   0  0  0  0  0  0  0  0  0  0  0  0
  1  2  1  0
  2  3  2  0
  3  4  1  0
  4  5  2  0
  5  6  1  0
  6  7  2  0
  6  8  2  0
  6  9  1  0
  9 10  1  0
 10 11  1  0
 11 12  1  0
 12 13  1  0
  5 14  1  0
 14 15  2  0
 15 16  1  0
 16 17  1  0
 17 18  2  0
 17 19  1  0
 19 20  2  0
 20 21  1  0
 21 22  1  0
 22 23  2  0
 22 24  2  0
 22 25  1  0
 25 26  1  0
 26 27  1  0
 27 28  1  0
 28 29  1  0
 29 30  1  0
 30 31  1  0
 21 32  2  0
 32 33  1  0
 33 34  2  0
 34 35  1  0
 15  2  1  0
 34 19  1  0
 13  9  1  0
 31 25  1  0
  1 36  1  0
  1 37  1  0
  3 38  1  0
  4 39  1  0
 10 40  1  0
 10 41  1  0
 11 42  1  0
 11 43  1  0
 12 44  1  0
 12 45  1  0
 13 46  1  0
 13 47  1  0
 14 48  1  0
 20 49  1  0
 26 50  1  0
 26 51  1  0
 27 52  1  0
 27 53  1  0
 28 54  1  0
 28 55  1  0
 29 56  1  0
 29 57  1  0
 30 58  1  0
 30 59  1  0
 31 60  1  0
 31 61  1  0
 32 62  1  0
 33 63  1  0
 35 64  1  0
M  CHG  1  16  -1
M  END
>  <UniqueID>  (17) 
17

>  <SMILES>  (17) 
Nc1ccc(S(=O)(=O)N2CCCC2)cc1[N-]C(=O)c1cc(S(=O)(=O)N2CCCCCC2)ccc1O

>  <Energy>  (17) 
86.34399502490592

>  <Genealogy>  (17) 
Nc1ccc(S(=O)(=O)N2CCCC2)cc1[N-]C(=O)c1cc(S(=O)(=O)N2CCCCCC2)ccc1O (protonated)
Nc1ccc(S(=O)(=O)N2CCCC2)cc1[N-]C(=O)c1cc(S(=O)(=O)N2CCCCCC2)ccc1O (3D coordinates assigned)
Nc1ccc(S(=O)(=O)N2CCCC2)cc1[N-]C(=O)c1cc(S(=O)(=O)N2CCCCCC2)ccc1O (nonaromatic ring conformer: 86.34399502490592 kcal/mol)

>  <smiles>  (17) 
Nc1ccc(S(=O)(=O)N2CCCC2)cc1NC(=O)c1cc(S(=O)(=O)N2CCCCCC2)ccc1O

>  <score_type>  (17) 
oracle

>  <origin>  (17) 
adgpu

>  <m_score__min__energy>  (17) 
-10.93

>  <m_primary>  (17) 
energy

$$$$
17:0
     RDKit          3D

 38 41  0  0  0  0  0  0  0  0999 V2000
   -0.3430   23.8980  -29.0080 O   0  0  0  0  0  0  0  0  0  0  0  0
   -1.7400   23.3520  -28.9160 S   0  0  0  0  0  0  0  0  0  0  0  0
   -2.5790   24.2890  -28.0930 O   0  0  0  0  0  0  0  0  0  0  0  0
   -2.4170   23.2360  -30.5100 N   0  0  0  0  0  0  0  0  0  0  0  0
   -3.8320   23.2580  -30.7780 C   0  0  0  0  0  0  0  0  0  0  0  0
   -4.5420   22.0690  -31.0640 C   0  0  0  0  0  0  0  0  0  0  0  0
   -5.9060   22.1520  -31.3360 C   0  0  0  0  0  0  0  0  0  0  0  0
   -6.5810   23.3550  -31.3180 C   0  0  0  0  0  0  0  0  0  0  0  0
   -5.9120   24.5410  -31.0230 C   0  0  0  0  0  0  0  0  0  0  0  0
   -4.5330   24.4930  -30.7530 C   0  0  0  0  0  0  0  0  0  0  0  0
   -3.8620   25.6770  -30.4690 O   0  0  0  0  0  0  0  0  0  0  0  0
   -8.0360   23.1770  -31.6420 C   0  0  0  0  0  0  0  0  0  0  0  0
   -8.0900   21.6910  -31.8510 C   0  0  0  0  0  0  0  0  0  0  0  0
   -9.1990   20.9160  -32.1910 C   0  0  0  0  0  0  0  0  0  0  0  0
   -9.0290   19.5300  -32.3480 C   0  0  0  0  0  0  0  0  0  0  0  0
   -7.7610   18.9420  -32.1650 C   0  0  0  0  0  0  0  0  0  0  0  0
   -6.6540   19.7350  -31.8220 C   0  0  0  0  0  0  0  0  0  0  0  0
   -6.8490   21.1080  -31.6710 C   0  0  0  0  0  0  0  0  0  0  0  0
   -1.6740   21.7560  -28.1750 C   0  0  0  0  0  0  0  0  0  0  0  0
   -2.8490   21.1620  -27.6950 C   0  0  0  0  0  0  0  0  0  0  0  0
   -2.8010   19.9070  -27.0800 C   0  0  0  0  0  0  0  0  0  0  0  0
   -1.5800   19.2390  -26.9440 C   0  0  0  0  0  0  0  0  0  0  0  0
   -0.4060   19.8260  -27.4250 C   0  0  0  0  0  0  0  0  0  0  0  0
   -0.4510   21.0810  -28.0390 C   0  0  0  0  0  0  0  0  0  0  0  0
   -1.7490   23.0500  -31.2900 H   0  0  0  0  0  0  0  0  0  0  0  0
   -4.0272   21.0969  -31.0716 H   0  0  0  0  0  0  0  0  0  0  0  0
   -6.4533   25.4983  -31.0017 H   0  0  0  0  0  0  0  0  0  0  0  0
   -8.6795   23.4934  -30.8078 H   0  0  0  0  0  0  0  0  0  0  0  0
   -8.3919   23.7731  -32.4952 H   0  0  0  0  0  0  0  0  0  0  0  0
  -10.1860   21.3802  -32.3332 H   0  0  0  0  0  0  0  0  0  0  0  0
   -9.8904   18.9002  -32.6152 H   0  0  0  0  0  0  0  0  0  0  0  0
   -7.6380   17.8562  -32.2915 H   0  0  0  0  0  0  0  0  0  0  0  0
   -5.6605   19.2859  -31.6764 H   0  0  0  0  0  0  0  0  0  0  0  0
   -3.8112   21.6841  -27.8022 H   0  0  0  0  0  0  0  0  0  0  0  0
   -3.7250   19.4446  -26.7027 H   0  0  0  0  0  0  0  0  0  0  0  0
   -1.5434   18.2524  -26.4589 H   0  0  0  0  0  0  0  0  0  0  0  0
    0.5543   19.2998  -27.3202 H   0  0  0  0  0  0  0  0  0  0  0  0
    0.4743   21.5406  -28.4165 H   0  0  0  0  0  0  0  0  0  0  0  0
  1  2  2  0
  2  3  2  0
  2  4  1  0
  4  5  1  0
  5  6  2  0
  6  7  1  0
  7  8  2  0
  8  9  1  0
  9 10  2  0
 10 11  1  0
  8 12  1  0
 12 13  1  0
 13 14  2  0
 14 15  1  0
 15 16  2  0
 16 17  1  0
 17 18  2  0
  2 19  1  0
 19 20  2  0
 20 21  1  0
 21 22  2  0
 22 23  1  0
 23 24  2  0
 10  5  1  0
 18 13  1  0
 24 19  1  0
 18  7  1  0
  4 25  1  0
  6 26  1  0
  9 27  1  0
 12 28  1  0
 12 29  1  0
 14 30  1  0
 15 31  1  0
 16 32  1  0
 17 33  1  0
 20 34  1  0
 21 35  1  0
 22 36  1  0
 23 37  1  0
 24 38  1  0
M  CHG  1  11  -1
M  END
>  <UniqueID>  (18) 
18

>  <SMILES>  (18) 
O=S(=O)(Nc1cc2c(cc1[O-])Cc1ccccc1-2)c1ccccc1

>  <Energy>  (18) 
67.5786459822906

>  <Genealogy>  (18) 
O=S(=O)(Nc1cc2c(cc1[O-])Cc1ccccc1-2)c1ccccc1 (protonated)
O=S(=O)(Nc1cc2c(cc1[O-])Cc1ccccc1-2)c1ccccc1 (3D coordinates assigned)
O=S(=O)(Nc1cc2c(cc1[O-])Cc1ccccc1-2)c1ccccc1 (nonaromatic ring conformer: 67.5786459822906 kcal/mol)

>  <smiles>  (18) 
O=S(=O)(Nc1cc2c(cc1O)Cc1ccccc1-2)c1ccccc1

>  <score_type>  (18) 
oracle

>  <origin>  (18) 
adgpu

>  <m_score__min__energy>  (18) 
-12.9

>  <m_primary>  (18) 
energy

$$$$
18:0
     RDKit          3D

 62 65  0  0  0  0  0  0  0  0999 V2000
   -6.3470   18.4300  -33.6800 C   0  0  0  0  0  0  0  0  0  0  0  0
   -5.0350   19.2090  -33.5800 C   0  0  0  0  0  0  0  0  0  0  0  0
   -5.1080   20.2900  -32.5670 N   0  0  0  0  0  0  0  0  0  0  0  0
   -6.2990   21.1630  -32.7100 C   0  0  0  0  0  0  0  0  0  0  0  0
   -7.3960   20.9090  -31.6680 C   0  0  0  0  0  0  0  0  0  0  0  0
   -3.8470   21.0670  -32.5030 C   0  0  0  0  0  0  0  0  0  0  0  0
   -4.0530   22.4220  -31.8020 C   0  0  0  0  0  0  0  0  0  0  0  0
   -4.0190   22.3430  -30.2630 C   0  0  0  0  0  0  0  0  0  0  0  0
   -2.9290   23.1380  -29.6780 N   0  0  0  0  0  0  0  0  0  0  0  0
   -2.7870   24.4770  -29.7790 C   0  0  0  0  0  0  0  0  0  0  0  0
   -3.6170   25.3020  -30.5290 O   0  0  0  0  0  0  0  0  0  0  0  0
   -1.7350   24.9150  -29.0170 C   0  0  0  0  0  0  0  0  0  0  0  0
   -1.3020   26.2360  -28.9250 O   0  0  0  0  0  0  0  0  0  0  0  0
   -1.2070   23.8080  -28.3770 C   0  0  0  0  0  0  0  0  0  0  0  0
   -0.0950   23.7960  -27.3990 C   0  0  0  0  0  0  0  0  0  0  0  0
    0.8170   22.9340  -27.5140 O   0  0  0  0  0  0  0  0  0  0  0  0
   -0.0120   24.7940  -26.3090 C   0  0  0  0  0  0  0  0  0  0  0  0
   -1.1710   25.1720  -25.6070 C   0  0  0  0  0  0  0  0  0  0  0  0
   -1.0890   26.0680  -24.5350 C   0  0  0  0  0  0  0  0  0  0  0  0
    0.1490   26.5970  -24.1640 C   0  0  0  0  0  0  0  0  0  0  0  0
    1.3080   26.2250  -24.8560 C   0  0  0  0  0  0  0  0  0  0  0  0
    1.2260   25.3520  -25.9420 C   0  0  0  0  0  0  0  0  0  0  0  0
    2.5420   26.7310  -24.4380 O   0  0  0  0  0  0  0  0  0  0  0  0
    2.6820   27.3740  -23.1700 C   0  0  0  0  0  0  0  0  0  0  0  0
    1.4530   28.2460  -22.8790 C   0  0  0  0  0  0  0  0  0  0  0  0
    0.2530   27.5010  -23.1020 O   0  0  0  0  0  0  0  0  0  0  0  0
   -1.9850   22.7220  -28.7920 C   0  0  0  0  0  0  0  0  0  0  0  0
   -1.9250   21.3660  -28.1950 C   0  0  0  0  0  0  0  0  0  0  0  0
   -3.0260   20.8680  -27.4790 C   0  0  0  0  0  0  0  0  0  0  0  0
   -2.9530   19.6230  -26.8480 C   0  0  0  0  0  0  0  0  0  0  0  0
   -1.7810   18.8650  -26.9270 C   0  0  0  0  0  0  0  0  0  0  0  0
   -0.6840   19.3500  -27.6430 C   0  0  0  0  0  0  0  0  0  0  0  0
   -0.7550   20.5940  -28.2760 C   0  0  0  0  0  0  0  0  0  0  0  0
   -6.7199   18.2086  -32.6691 H   0  0  0  0  0  0  0  0  0  0  0  0
   -7.0910   19.0328  -34.2214 H   0  0  0  0  0  0  0  0  0  0  0  0
   -6.1739   17.4882  -34.2214 H   0  0  0  0  0  0  0  0  0  0  0  0
   -4.2294   18.5140  -33.3007 H   0  0  0  0  0  0  0  0  0  0  0  0
   -4.8387   19.6720  -34.5583 H   0  0  0  0  0  0  0  0  0  0  0  0
   -5.9723   22.2094  -32.6184 H   0  0  0  0  0  0  0  0  0  0  0  0
   -6.7391   20.9374  -33.6925 H   0  0  0  0  0  0  0  0  0  0  0  0
   -6.9719   21.0072  -30.6578 H   0  0  0  0  0  0  0  0  0  0  0  0
   -8.2039   21.6438  -31.7996 H   0  0  0  0  0  0  0  0  0  0  0  0
   -7.7987   19.8939  -31.7996 H   0  0  0  0  0  0  0  0  0  0  0  0
   -3.0976   20.4864  -31.9451 H   0  0  0  0  0  0  0  0  0  0  0  0
   -3.5079   21.2591  -33.5316 H   0  0  0  0  0  0  0  0  0  0  0  0
   -3.2570   23.1062  -32.1309 H   0  0  0  0  0  0  0  0  0  0  0  0
   -5.0568   22.7752  -32.0805 H   0  0  0  0  0  0  0  0  0  0  0  0
   -4.9765   22.7158  -29.8702 H   0  0  0  0  0  0  0  0  0  0  0  0
   -3.8482   21.2917  -29.9879 H   0  0  0  0  0  0  0  0  0  0  0  0
   -1.2480   26.8380  -29.7370 H   0  0  0  0  0  0  0  0  0  0  0  0
   -2.1476   24.7609  -25.9024 H   0  0  0  0  0  0  0  0  0  0  0  0
   -1.9979   26.3550  -23.9858 H   0  0  0  0  0  0  0  0  0  0  0  0
    2.1320   25.0996  -26.5125 H   0  0  0  0  0  0  0  0  0  0  0  0
    2.7799   26.6104  -22.3843 H   0  0  0  0  0  0  0  0  0  0  0  0
    3.5782   28.0116  -23.1880 H   0  0  0  0  0  0  0  0  0  0  0  0
    1.4841   28.5791  -21.8311 H   0  0  0  0  0  0  0  0  0  0  0  0
    1.4642   29.1167  -23.5512 H   0  0  0  0  0  0  0  0  0  0  0  0
   -3.9503   21.4608  -27.4145 H   0  0  0  0  0  0  0  0  0  0  0  0
   -3.8188   19.2391  -26.2885 H   0  0  0  0  0  0  0  0  0  0  0  0
   -1.7227   17.8876  -26.4258 H   0  0  0  0  0  0  0  0  0  0  0  0
    0.2369   18.7520  -27.7087 H   0  0  0  0  0  0  0  0  0  0  0  0
    0.1106   20.9704  -28.8408 H   0  0  0  0  0  0  0  0  0  0  0  0
  1  2  1  0
  2  3  1  0
  3  4  1  0
  4  5  1  0
  3  6  1  0
  6  7  1  0
  7  8  1  0
  8  9  1  0
  9 10  1  0
 10 11  1  0
 10 12  2  0
 12 13  1  0
 12 14  1  0
 14 15  1  0
 15 16  2  0
 15 17  1  0
 17 18  2  0
 18 19  1  0
 19 20  2  0
 20 21  1  0
 21 22  2  0
 21 23  1  0
 23 24  1  0
 24 25  1  0
 25 26  1  0
 14 27  2  0
 27 28  1  0
 28 29  2  0
 29 30  1  0
 30 31  2  0
 31 32  1  0
 32 33  2  0
 27  9  1  0
 33 28  1  0
 22 17  1  0
 26 20  1  0
  1 34  1  0
  1 35  1  0
  1 36  1  0
  2 37  1  0
  2 38  1  0
  4 39  1  0
  4 40  1  0
  5 41  1  0
  5 42  1  0
  5 43  1  0
  6 44  1  0
  6 45  1  0
  7 46  1  0
  7 47  1  0
  8 48  1  0
  8 49  1  0
 13 50  1  0
 18 51  1  0
 19 52  1  0
 22 53  1  0
 24 54  1  0
 24 55  1  0
 25 56  1  0
 25 57  1  0
 29 58  1  0
 30 59  1  0
 31 60  1  0
 32 61  1  0
 33 62  1  0
M  CHG  1  11  -1
M  END
>  <UniqueID>  (19) 
19

>  <SMILES>  (19) 
CCN(CC)CCCn1c([O-])c(O)c(C(=O)c2ccc3c(c2)OCCO3)c1-c1ccccc1

>  <Energy>  (19) 
100.76618095501692

>  <Genealogy>  (19) 
CCN(CC)CCCn1c([O-])c(O)c(C(=O)c2ccc3c(c2)OCCO3)c1-c1ccccc1 (protonated)
CCN(CC)CCCn1c([O-])c(O)c(C(=O)c2ccc3c(c2)OCCO3)c1-c1ccccc1 (3D coordinates assigned)
CCN(CC)CCCn1c([O-])c(O)c(C(=O)c2ccc3c(c2)OCCO3)c1-c1ccccc1 (nonaromatic ring conformer: 100.76618095501692 kcal/mol)

>  <smiles>  (19) 
CCN(CC)CCCn1c(O)c(O)c(C(=O)c2ccc3c(c2)OCCO3)c1-c1ccccc1

>  <score_type>  (19) 
oracle

>  <origin>  (19) 
adgpu

>  <m_score__min__energy>  (19) 
-11.92

>  <m_primary>  (19) 
energy

$$$$
19:0
     RDKit          3D

 45 47  0  0  0  0  0  0  0  0999 V2000
   -9.4420   19.6040  -32.6140 C   0  0  0  0  0  0  0  0  0  0  0  0
   -8.8630   19.9590  -31.3210 N   0  0  0  0  0  0  0  0  0  0  0  0
   -7.7940   21.3150  -31.4930 S   0  0  0  0  0  0  0  0  0  0  0  0
   -7.5370   21.9140  -30.1380 O   0  0  0  0  0  0  0  0  0  0  0  0
   -8.4450   22.3700  -32.3450 O   0  0  0  0  0  0  0  0  0  0  0  0
   -6.2700   20.8060  -32.2420 C   0  0  0  0  0  0  0  0  0  0  0  0
   -6.2400   19.5690  -32.9070 C   0  0  0  0  0  0  0  0  0  0  0  0
   -5.0690   19.1140  -33.5160 C   0  0  0  0  0  0  0  0  0  0  0  0
   -3.9120   19.8910  -33.4700 C   0  0  0  0  0  0  0  0  0  0  0  0
   -3.9230   21.1220  -32.8140 C   0  0  0  0  0  0  0  0  0  0  0  0
   -5.0910   21.5900  -32.1910 C   0  0  0  0  0  0  0  0  0  0  0  0
   -5.0410   22.9090  -31.5320 C   0  0  0  0  0  0  0  0  0  0  0  0
   -6.0240   23.8680  -31.8130 C   0  0  0  0  0  0  0  0  0  0  0  0
   -5.9340   25.1150  -31.2800 N   0  0  0  0  0  0  0  0  0  0  0  0
   -4.9040   25.4730  -30.4690 C   0  0  0  0  0  0  0  0  0  0  0  0
   -3.9040   24.5500  -30.1490 C   0  0  0  0  0  0  0  0  0  0  0  0
   -2.7950   24.9720  -29.3440 N   0  0  0  0  0  0  0  0  0  0  0  0
   -1.5540   24.2700  -29.2100 C   0  0  0  0  0  0  0  0  0  0  0  0
   -0.5050   24.9340  -28.9970 O   0  0  0  0  0  0  0  0  0  0  0  0
   -1.4890   22.7880  -29.2410 C   0  0  0  0  0  0  0  0  0  0  0  0
   -1.0230   22.1280  -30.3900 C   0  0  0  0  0  0  0  0  0  0  0  0
   -0.9030   20.7370  -30.4060 C   0  0  0  0  0  0  0  0  0  0  0  0
   -1.2480   19.9880  -29.2790 C   0  0  0  0  0  0  0  0  0  0  0  0
   -1.7370   20.6250  -28.1260 C   0  0  0  0  0  0  0  0  0  0  0  0
   -2.0750   19.8090  -26.9040 C   0  0  0  0  0  0  0  0  0  0  0  0
   -3.4420   19.6240  -26.7890 F   0  0  0  0  0  0  0  0  0  0  0  0
   -1.6150   20.4640  -25.7770 F   0  0  0  0  0  0  0  0  0  0  0  0
   -1.4750   18.5630  -26.9800 F   0  0  0  0  0  0  0  0  0  0  0  0
   -1.8300   22.0280  -28.1060 C   0  0  0  0  0  0  0  0  0  0  0  0
   -3.9730   23.2580  -30.6940 C   0  0  0  0  0  0  0  0  0  0  0  0
  -10.3701   19.0350  -32.4563 H   0  0  0  0  0  0  0  0  0  0  0  0
   -9.6655   20.5205  -33.1797 H   0  0  0  0  0  0  0  0  0  0  0  0
   -8.7265   18.9891  -33.1797 H   0  0  0  0  0  0  0  0  0  0  0  0
   -8.2850   19.1490  -31.0040 H   0  0  0  0  0  0  0  0  0  0  0  0
   -7.1496   18.9518  -32.9484 H   0  0  0  0  0  0  0  0  0  0  0  0
   -5.0591   18.1426  -34.0321 H   0  0  0  0  0  0  0  0  0  0  0  0
   -2.9900   19.5329  -33.9514 H   0  0  0  0  0  0  0  0  0  0  0  0
   -3.0080   21.7318  -32.7845 H   0  0  0  0  0  0  0  0  0  0  0  0
   -6.8705   23.6106  -32.4666 H   0  0  0  0  0  0  0  0  0  0  0  0
   -4.8569   26.4940  -30.0624 H   0  0  0  0  0  0  0  0  0  0  0  0
   -0.7510   22.7105  -31.2826 H   0  0  0  0  0  0  0  0  0  0  0  0
   -0.5353   20.2292  -31.3098 H   0  0  0  0  0  0  0  0  0  0  0  0
   -1.1364   18.8938  -29.2940 H   0  0  0  0  0  0  0  0  0  0  0  0
   -2.1730   22.5374  -27.1934 H   0  0  0  0  0  0  0  0  0  0  0  0
   -3.1900   22.5206  -30.4637 H   0  0  0  0  0  0  0  0  0  0  0  0
  1  2  1  0
  2  3  1  0
  3  4  2  0
  3  5  2  0
  3  6  1  0
  6  7  2  0
  7  8  1  0
  8  9  2  0
  9 10  1  0
 10 11  2  0
 11 12  1  0
 12 13  2  0
 13 14  1  0
 14 15  2  0
 15 16  1  0
 16 17  1  0
 17 18  1  0
 18 19  2  0
 18 20  1  0
 20 21  2  0
 21 22  1  0
 22 23  2  0
 23 24  1  0
 24 25  1  0
 25 26  1  0
 25 27  1  0
 25 28  1  0
 24 29  2  0
 16 30  2  0
 11  6  1  0
 30 12  1  0
 29 20  1  0
  1 31  1  0
  1 32  1  0
  1 33  1  0
  2 34  1  0
  7 35  1  0
  8 36  1  0
  9 37  1  0
 10 38  1  0
 13 39  1  0
 15 40  1  0
 21 41  1  0
 22 42  1  0
 23 43  1  0
 29 44  1  0
 30 45  1  0
M  CHG  1  17  -1
M  END
>  <UniqueID>  (20) 
20

>  <SMILES>  (20) 
CNS(=O)(=O)c1ccccc1-c1cncc([N-]C(=O)c2cccc(C(F)(F)F)c2)c1

>  <Energy>  (20) 
58.9298095816151

>  <Genealogy>  (20) 
CNS(=O)(=O)c1ccccc1-c1cncc([N-]C(=O)c2cccc(C(F)(F)F)c2)c1 (protonated)
CNS(=O)(=O)c1ccccc1-c1cncc([N-]C(=O)c2cccc(C(F)(F)F)c2)c1 (3D coordinates assigned)
CNS(=O)(=O)c1ccccc1-c1cncc([N-]C(=O)c2cccc(C(F)(F)F)c2)c1 (optimized conformer: 58.9298095816151 kcal/mol)

>  <smiles>  (20) 
CNS(=O)(=O)c1ccccc1-c1cncc(NC(=O)c2cccc(C(F)(F)F)c2)c1

>  <score_type>  (20) 
oracle

>  <origin>  (20) 
adgpu

>  <m_score__min__energy>  (20) 
-10.44

>  <m_primary>  (20) 
energy

$$$$
20:0
     RDKit          3D

 73 78  0  0  0  0  0  0  0  0999 V2000
   -0.7880   14.6030  -31.6320 C   0  0  0  0  0  0  0  0  0  0  0  0
   -1.0970   13.4070  -32.4500 N   0  0  0  0  0  0  0  0  0  0  0  0
    0.0520   12.6590  -32.4590 O   0  0  0  0  0  0  0  0  0  0  0  0
   -2.1980   12.6100  -31.8050 C   0  0  0  0  0  0  0  0  0  0  0  0
   -3.5090   12.5790  -32.6080 C   0  0  0  0  0  0  0  0  0  0  0  0
   -3.7890   13.8960  -33.1890 N   0  0  0  0  0  0  0  0  0  0  0  0
   -5.1510   14.3540  -33.2910 C   0  0  0  0  0  0  0  0  0  0  0  0
   -6.0780   13.5150  -33.4590 O   0  0  0  0  0  0  0  0  0  0  0  0
   -5.4880   15.7930  -33.2190 C   0  0  0  0  0  0  0  0  0  0  0  0
   -5.7220   16.4160  -31.9820 C   0  0  0  0  0  0  0  0  0  0  0  0
   -6.0150   17.7800  -31.9220 C   0  0  0  0  0  0  0  0  0  0  0  0
   -6.1050   18.5390  -33.0960 C   0  0  0  0  0  0  0  0  0  0  0  0
   -6.3540   19.9530  -33.0220 N   0  0  0  0  0  0  0  0  0  0  0  0
   -7.4730   20.5490  -32.3560 C   0  0  0  0  0  0  0  0  0  0  0  0
   -8.5270   19.9290  -32.0490 O   0  0  0  0  0  0  0  0  0  0  0  0
   -7.1610   21.9200  -31.9660 C   0  0  0  0  0  0  0  0  0  0  0  0
   -7.8640   22.8150  -31.1610 C   0  0  0  0  0  0  0  0  0  0  0  0
   -7.2140   23.9950  -30.7550 C   0  0  0  0  0  0  0  0  0  0  0  0
   -5.8720   24.2490  -31.1380 C   0  0  0  0  0  0  0  0  0  0  0  0
   -5.1350   25.3910  -30.5440 C   0  0  0  0  0  0  0  0  0  0  0  0
   -5.7270   26.4890  -30.3730 O   0  0  0  0  0  0  0  0  0  0  0  0
   -3.7540   25.2800  -30.1590 N   0  0  0  0  0  0  0  0  0  0  0  0
   -3.2000   24.1850  -29.4160 C   0  0  0  0  0  0  0  0  0  0  0  0
   -1.9010   23.7500  -29.7010 C   0  0  0  0  0  0  0  0  0  0  0  0
   -1.4140   22.5690  -29.1330 C   0  0  0  0  0  0  0  0  0  0  0  0
   -2.2170   21.8140  -28.2610 C   0  0  0  0  0  0  0  0  0  0  0  0
   -1.7520   20.5400  -27.7700 N   0  0  0  0  0  0  0  0  0  0  0  0
   -0.4320   20.0360  -28.1590 C   0  0  0  0  0  0  0  0  0  0  0  0
   -0.4050   18.5090  -28.0340 C   0  0  0  0  0  0  0  0  0  0  0  0
   -0.8280   18.1040  -26.7450 O   0  0  0  0  0  0  0  0  0  0  0  0
   -2.1880   18.4490  -26.5610 C   0  0  0  0  0  0  0  0  0  0  0  0
   -2.3680   19.9690  -26.5680 C   0  0  0  0  0  0  0  0  0  0  0  0
   -3.4860   22.3050  -27.9030 C   0  0  0  0  0  0  0  0  0  0  0  0
   -3.9710   23.4840  -28.4720 C   0  0  0  0  0  0  0  0  0  0  0  0
   -5.2140   23.3490  -32.0050 C   0  0  0  0  0  0  0  0  0  0  0  0
   -5.8760   22.1850  -32.3790 C   0  0  0  0  0  0  0  0  0  0  0  0
   -5.3650   20.9880  -33.0340 C   0  0  0  0  0  0  0  0  0  0  0  0
   -4.2060   20.8570  -33.5080 O   0  0  0  0  0  0  0  0  0  0  0  0
   -5.9050   17.9110  -34.3370 C   0  0  0  0  0  0  0  0  0  0  0  0
   -5.6020   16.5490  -34.3980 C   0  0  0  0  0  0  0  0  0  0  0  0
   -2.7380   14.5670  -33.9640 C   0  0  0  0  0  0  0  0  0  0  0  0
   -1.4000   13.8160  -33.8510 C   0  0  0  0  0  0  0  0  0  0  0  0
   -0.8548   14.3446  -30.5649 H   0  0  0  0  0  0  0  0  0  0  0  0
    0.2297   14.9515  -31.8619 H   0  0  0  0  0  0  0  0  0  0  0  0
   -1.5095   15.4009  -31.8619 H   0  0  0  0  0  0  0  0  0  0  0  0
    0.7620   13.1790  -32.9260 H   0  0  0  0  0  0  0  0  0  0  0  0
   -1.8463   11.5754  -31.6791 H   0  0  0  0  0  0  0  0  0  0  0  0
   -2.4255   13.1029  -30.8483 H   0  0  0  0  0  0  0  0  0  0  0  0
   -3.4204   11.8385  -33.4166 H   0  0  0  0  0  0  0  0  0  0  0  0
   -4.3329   12.3070  -31.9319 H   0  0  0  0  0  0  0  0  0  0  0  0
   -5.6742   15.8258  -31.0550 H   0  0  0  0  0  0  0  0  0  0  0  0
   -6.1762   18.2617  -30.9463 H   0  0  0  0  0  0  0  0  0  0  0  0
   -8.8984   22.6045  -30.8517 H   0  0  0  0  0  0  0  0  0  0  0  0
   -7.7515   24.7274  -30.1348 H   0  0  0  0  0  0  0  0  0  0  0  0
   -1.2609   24.3392  -30.3742 H   0  0  0  0  0  0  0  0  0  0  0  0
   -0.3953   22.2284  -29.3702 H   0  0  0  0  0  0  0  0  0  0  0  0
   -0.2241   20.3214  -29.2008 H   0  0  0  0  0  0  0  0  0  0  0  0
    0.3328   20.4693  -27.4977 H   0  0  0  0  0  0  0  0  0  0  0  0
   -1.0771   18.0732  -28.7879 H   0  0  0  0  0  0  0  0  0  0  0  0
    0.6258   18.1597  -28.1935 H   0  0  0  0  0  0  0  0  0  0  0  0
   -2.7846   18.0113  -27.3750 H   0  0  0  0  0  0  0  0  0  0  0  0
   -2.5228   18.0584  -25.5887 H   0  0  0  0  0  0  0  0  0  0  0  0
   -3.4415   20.2090  -26.5594 H   0  0  0  0  0  0  0  0  0  0  0  0
   -1.8841   20.3946  -25.6765 H   0  0  0  0  0  0  0  0  0  0  0  0
   -4.0986   21.7575  -27.1716 H   0  0  0  0  0  0  0  0  0  0  0  0
   -4.9605   23.8661  -28.1806 H   0  0  0  0  0  0  0  0  0  0  0  0
   -4.2010   23.5640  -32.3759 H   0  0  0  0  0  0  0  0  0  0  0  0
   -5.9875   18.4952  -35.2654 H   0  0  0  0  0  0  0  0  0  0  0  0
   -5.4517   16.0654  -35.3745 H   0  0  0  0  0  0  0  0  0  0  0  0
   -3.0402   14.6051  -35.0210 H   0  0  0  0  0  0  0  0  0  0  0  0
   -2.6032   15.5824  -33.5630 H   0  0  0  0  0  0  0  0  0  0  0  0
   -1.4459   12.9150  -34.4804 H   0  0  0  0  0  0  0  0  0  0  0  0
   -0.6027   14.4976  -34.1823 H   0  0  0  0  0  0  0  0  0  0  0  0
  1  2  1  0
  2  3  1  0
  2  4  1  0
  4  5  1  0
  5  6  1  0
  6  7  1  0
  7  8  2  0
  7  9  1  0
  9 10  2  0
 10 11  1  0
 11 12  2  0
 12 13  1  0
 13 14  1  0
 14 15  2  0
 14 16  1  0
 16 17  2  0
 17 18  1  0
 18 19  2  0
 19 20  1  0
 20 21  2  0
 20 22  1  0
 22 23  1  0
 23 24  2  0
 24 25  1  0
 25 26  2  0
 26 27  1  0
 27 28  1  0
 28 29  1  0
 29 30  1  0
 30 31  1  0
 31 32  1  0
 26 33  1  0
 33 34  2  0
 19 35  1  0
 35 36  2  0
 36 37  1  0
 37 38  2  0
 12 39  1  0
 39 40  2  0
  6 41  1  0
 41 42  1  0
 42  2  1  0
 40  9  1  0
 37 13  1  0
 36 16  1  0
 34 23  1  0
 32 27  1  0
  1 43  1  0
  1 44  1  0
  1 45  1  0
  3 46  1  0
  4 47  1  0
  4 48  1  0
  5 49  1  0
  5 50  1  0
 10 51  1  0
 11 52  1  0
 17 53  1  0
 18 54  1  0
 24 55  1  0
 25 56  1  0
 28 57  1  0
 28 58  1  0
 29 59  1  0
 29 60  1  0
 31 61  1  0
 31 62  1  0
 32 63  1  0
 32 64  1  0
 33 65  1  0
 34 66  1  0
 35 67  1  0
 39 68  1  0
 40 69  1  0
 41 70  1  0
 41 71  1  0
 42 72  1  0
 42 73  1  0
M  CHG  2   2   1  22  -1
M  END
>  <UniqueID>  (21) 
21

>  <SMILES>  (21) 
C[N+]1(O)CCN(C(=O)c2ccc(N3C(=O)c4ccc(C(=O)[N-]c5ccc(N6CCOCC6)cc5)cc4C3=O)cc2)CC1

>  <Energy>  (21) 
147.95186692178882

>  <Genealogy>  (21) 
C[N+]1(O)CCN(C(=O)c2ccc(N3C(=O)c4ccc(C(=O)[N-]c5ccc(N6CCOCC6)cc5)cc4C3=O)cc2)CC1 (protonated)
C[N+]1(O)CCN(C(=O)c2ccc(N3C(=O)c4ccc(C(=O)[N-]c5ccc(N6CCOCC6)cc5)cc4C3=O)cc2)CC1 (3D coordinates assigned)
C[N+]1(O)CCN(C(=O)c2ccc(N3C(=O)c4ccc(C(=O)[N-]c5ccc(N6CCOCC6)cc5)cc4C3=O)cc2)CC1 (nonaromatic ring conformer: 147.95186692178882 kcal/mol)

>  <smiles>  (21) 
C[N+]1([O-])CCN(C(=O)c2ccc(N3C(=O)c4ccc(C(=O)Nc5ccc(N6CCOCC6)cc5)cc4C3=O)cc2)CC1

>  <score_type>  (21) 
oracle

>  <origin>  (21) 
adgpu

>  <m_score__min__energy>  (21) 
-12.74

>  <m_primary>  (21) 
energy

$$$$
21:0
     RDKit          3D

 39 40  0  0  0  0  0  0  0  0999 V2000
   -4.2380   24.1760  -28.3500 C   0  0  0  0  0  0  0  0  0  0  0  0
   -5.0450   24.6520  -29.8610 S   0  0  0  0  0  0  0  0  0  0  0  0
   -6.0310   25.7500  -29.5810 O   0  0  0  0  0  0  0  0  0  0  0  0
   -4.0220   25.1600  -30.8390 O   0  0  0  0  0  0  0  0  0  0  0  0
   -5.8790   23.2590  -30.5410 C   0  0  0  0  0  0  0  0  0  0  0  0
   -7.2780   23.1810  -30.4900 C   0  0  0  0  0  0  0  0  0  0  0  0
   -7.9390   22.0670  -31.0150 C   0  0  0  0  0  0  0  0  0  0  0  0
   -7.2080   21.0230  -31.5960 C   0  0  0  0  0  0  0  0  0  0  0  0
   -8.0400   19.6080  -32.2290 S   0  0  0  0  0  0  0  0  0  0  0  0
   -9.1250   20.0320  -33.1800 O   0  0  0  0  0  0  0  0  0  0  0  0
   -8.6780   18.8410  -31.1050 O   0  0  0  0  0  0  0  0  0  0  0  0
   -6.8750   18.5880  -33.0670 C   0  0  0  0  0  0  0  0  0  0  0  0
   -6.1200   19.1070  -34.1260 C   0  0  0  0  0  0  0  0  0  0  0  0
   -5.1790   18.3040  -34.7770 C   0  0  0  0  0  0  0  0  0  0  0  0
   -4.9670   16.9770  -34.3620 C   0  0  0  0  0  0  0  0  0  0  0  0
   -4.0240   16.1240  -35.0340 N   0  0  0  0  0  0  0  0  0  0  0  0
   -2.5990   16.1820  -34.8520 C   0  0  0  0  0  0  0  0  0  0  0  0
   -1.7440   15.7970  -35.9310 N   0  0  0  0  0  0  0  0  0  0  0  0
   -2.0850   16.5060  -33.7040 N   0  0  0  0  0  0  0  0  0  0  0  0
   -5.7370   16.4600  -33.3100 C   0  0  0  0  0  0  0  0  0  0  0  0
   -6.6770   17.2630  -32.6590 C   0  0  0  0  0  0  0  0  0  0  0  0
   -5.8100   21.0930  -31.6330 C   0  0  0  0  0  0  0  0  0  0  0  0
   -5.1480   22.2060  -31.1080 C   0  0  0  0  0  0  0  0  0  0  0  0
   -4.8307   24.5256  -27.4919 H   0  0  0  0  0  0  0  0  0  0  0  0
   -4.1483   23.0803  -28.3116 H   0  0  0  0  0  0  0  0  0  0  0  0
   -3.2357   24.6275  -28.3116 H   0  0  0  0  0  0  0  0  0  0  0  0
   -7.8568   23.9986  -30.0356 H   0  0  0  0  0  0  0  0  0  0  0  0
   -9.0367   22.0100  -30.9718 H   0  0  0  0  0  0  0  0  0  0  0  0
   -6.2677   20.1489  -34.4463 H   0  0  0  0  0  0  0  0  0  0  0  0
   -4.6008   18.7125  -35.6190 H   0  0  0  0  0  0  0  0  0  0  0  0
   -4.3950   15.4220  -35.7140 H   0  0  0  0  0  0  0  0  0  0  0  0
   -0.7050   15.7990  -35.8220 H   0  0  0  0  0  0  0  0  0  0  0  0
   -2.1500   15.5150  -36.8510 H   0  0  0  0  0  0  0  0  0  0  0  0
   -2.6860   16.7210  -32.8780 H   0  0  0  0  0  0  0  0  0  0  0  0
   -1.0490   16.5270  -33.5690 H   0  0  0  0  0  0  0  0  0  0  0  0
   -5.5999   15.4150  -32.9952 H   0  0  0  0  0  0  0  0  0  0  0  0
   -7.2634   16.8532  -31.8234 H   0  0  0  0  0  0  0  0  0  0  0  0
   -5.2312   20.2695  -32.0766 H   0  0  0  0  0  0  0  0  0  0  0  0
   -4.0496   22.2559  -31.1398 H   0  0  0  0  0  0  0  0  0  0  0  0
  1  2  1  0
  2  3  2  0
  2  4  2  0
  2  5  1  0
  5  6  2  0
  6  7  1  0
  7  8  2  0
  8  9  1  0
  9 10  2  0
  9 11  2  0
  9 12  1  0
 12 13  2  0
 13 14  1  0
 14 15  2  0
 15 16  1  0
 16 17  1  0
 17 18  1  0
 17 19  2  0
 15 20  1  0
 20 21  2  0
  8 22  1  0
 22 23  2  0
 23  5  1  0
 21 12  1  0
  1 24  1  0
  1 25  1  0
  1 26  1  0
  6 27  1  0
  7 28  1  0
 13 29  1  0
 14 30  1  0
 16 31  1  0
 18 32  1  0
 18 33  1  0
 19 34  1  0
 19 35  1  0
 20 36  1  0
 21 37  1  0
 22 38  1  0
 23 39  1  0
M  CHG  1  19   1
M  END
>  <UniqueID>  (22) 
22

>  <SMILES>  (22) 
CS(=O)(=O)c1ccc(S(=O)(=O)c2ccc(NC(N)=[NH2+])cc2)cc1

>  <Energy>  (22) 
40.86024303075577

>  <Genealogy>  (22) 
CS(=O)(=O)c1ccc(S(=O)(=O)c2ccc(NC(N)=[NH2+])cc2)cc1 (protonated)
CS(=O)(=O)c1ccc(S(=O)(=O)c2ccc(NC(N)=[NH2+])cc2)cc1 (3D coordinates assigned)
CS(=O)(=O)c1ccc(S(=O)(=O)c2ccc(NC(N)=[NH2+])cc2)cc1 (optimized conformer: 40.86024303075577 kcal/mol)

>  <smiles>  (22) 
CS(=O)(=O)c1ccc(S(=O)(=O)c2ccc(NC(=N)N)cc2)cc1

>  <score_type>  (22) 
oracle

>  <origin>  (22) 
adgpu

>  <m_score__min__energy>  (22) 
-8.75

>  <m_primary>  (22) 
energy

$$$$
22:0
     RDKit          3D

 50 53  0  0  0  0  0  0  0  0999 V2000
   -1.2830   20.0990  -26.7580 C   0  0  0  0  0  0  0  0  0  0  0  0
   -1.2270   21.4460  -26.0420 C   0  0  0  0  0  0  0  0  0  0  0  0
   -1.0440   22.5480  -27.0130 N   0  0  0  0  0  0  0  0  0  0  0  0
    0.1990   23.1300  -27.1290 C   0  0  0  0  0  0  0  0  0  0  0  0
    1.1730   22.7160  -26.4390 O   0  0  0  0  0  0  0  0  0  0  0  0
    0.4030   24.1910  -28.0170 C   0  0  0  0  0  0  0  0  0  0  0  0
    1.5330   24.7380  -28.1170 O   0  0  0  0  0  0  0  0  0  0  0  0
   -0.6230   24.6360  -28.7790 N   0  0  0  0  0  0  0  0  0  0  0  0
   -1.8490   24.0670  -28.7120 C   0  0  0  0  0  0  0  0  0  0  0  0
   -2.8740   24.5510  -29.5310 C   0  0  0  0  0  0  0  0  0  0  0  0
   -4.1480   23.9740  -29.4890 C   0  0  0  0  0  0  0  0  0  0  0  0
   -5.4500   24.6150  -30.4930 S   0  0  0  0  0  0  0  0  0  0  0  0
   -5.1500   26.0470  -30.8440 O   0  0  0  0  0  0  0  0  0  0  0  0
   -6.7360   24.5870  -29.7150 O   0  0  0  0  0  0  0  0  0  0  0  0
   -5.6420   23.6820  -31.9610 N   0  0  0  0  0  0  0  0  0  0  0  0
   -6.9930   23.0770  -32.0450 C   0  0  0  0  0  0  0  0  0  0  0  0
   -7.0080   21.5770  -31.7130 C   0  0  0  0  0  0  0  0  0  0  0  0
   -6.0470   20.8600  -32.5610 N   0  0  0  0  0  0  0  0  0  0  0  0
   -6.2430   19.4630  -32.8730 C   0  0  0  0  0  0  0  0  0  0  0  0
   -7.3870   18.7800  -32.4170 C   0  0  0  0  0  0  0  0  0  0  0  0
   -7.5720   17.4270  -32.7200 C   0  0  0  0  0  0  0  0  0  0  0  0
   -6.6210   16.7410  -33.4780 C   0  0  0  0  0  0  0  0  0  0  0  0
   -5.4810   17.4060  -33.9370 C   0  0  0  0  0  0  0  0  0  0  0  0
   -4.2900   16.5440  -34.8940 Cl  0  0  0  0  0  0  0  0  0  0  0  0
   -5.2910   18.7600  -33.6370 C   0  0  0  0  0  0  0  0  0  0  0  0
   -4.8670   21.5780  -33.0610 C   0  0  0  0  0  0  0  0  0  0  0  0
   -4.5190   22.7320  -32.1150 C   0  0  0  0  0  0  0  0  0  0  0  0
   -4.3810   22.8870  -28.6390 C   0  0  0  0  0  0  0  0  0  0  0  0
   -3.3640   22.3960  -27.8170 C   0  0  0  0  0  0  0  0  0  0  0  0
   -2.0790   22.9860  -27.8240 C   0  0  0  0  0  0  0  0  0  0  0  0
   -1.3167   19.2894  -26.0141 H   0  0  0  0  0  0  0  0  0  0  0  0
   -2.1837   20.0558  -27.3879 H   0  0  0  0  0  0  0  0  0  0  0  0
   -0.3890   19.9812  -27.3879 H   0  0  0  0  0  0  0  0  0  0  0  0
   -2.1668   21.6018  -25.4920 H   0  0  0  0  0  0  0  0  0  0  0  0
   -0.3741   21.4418  -25.3473 H   0  0  0  0  0  0  0  0  0  0  0  0
   -2.6773   25.3913  -30.2131 H   0  0  0  0  0  0  0  0  0  0  0  0
   -7.6537   23.5982  -31.3366 H   0  0  0  0  0  0  0  0  0  0  0  0
   -7.3343   23.1842  -33.0852 H   0  0  0  0  0  0  0  0  0  0  0  0
   -6.7361   21.4360  -30.6565 H   0  0  0  0  0  0  0  0  0  0  0  0
   -8.0166   21.1787  -31.8977 H   0  0  0  0  0  0  0  0  0  0  0  0
   -8.1400   19.3139  -31.8187 H   0  0  0  0  0  0  0  0  0  0  0  0
   -8.4692   16.9020  -32.3601 H   0  0  0  0  0  0  0  0  0  0  0  0
   -6.7692   15.6769  -33.7139 H   0  0  0  0  0  0  0  0  0  0  0  0
   -4.3917   19.2788  -34.0005 H   0  0  0  0  0  0  0  0  0  0  0  0
   -4.0153   20.8843  -33.1188 H   0  0  0  0  0  0  0  0  0  0  0  0
   -5.0857   21.9824  -34.0603 H   0  0  0  0  0  0  0  0  0  0  0  0
   -4.2667   22.3177  -31.1277 H   0  0  0  0  0  0  0  0  0  0  0  0
   -3.6683   23.2797  -32.5468 H   0  0  0  0  0  0  0  0  0  0  0  0
   -5.3743   22.4148  -28.6180 H   0  0  0  0  0  0  0  0  0  0  0  0
   -3.5652   21.5399  -27.1562 H   0  0  0  0  0  0  0  0  0  0  0  0
  1  2  1  0
  2  3  1  0
  3  4  1  0
  4  5  2  0
  4  6  1  0
  6  7  2  0
  6  8  1  0
  8  9  1  0
  9 10  2  0
 10 11  1  0
 11 12  1  0
 12 13  2  0
 12 14  2  0
 12 15  1  0
 15 16  1  0
 16 17  1  0
 17 18  1  0
 18 19  1  0
 19 20  2  0
 20 21  1  0
 21 22  2  0
 22 23  1  0
 23 24  1  0
 23 25  2  0
 18 26  1  0
 26 27  1  0
 11 28  2  0
 28 29  1  0
 29 30  2  0
 30  3  1  0
 30  9  1  0
 27 15  1  0
 25 19  1  0
  1 31  1  0
  1 32  1  0
  1 33  1  0
  2 34  1  0
  2 35  1  0
 10 36  1  0
 16 37  1  0
 16 38  1  0
 17 39  1  0
 17 40  1  0
 20 41  1  0
 21 42  1  0
 22 43  1  0
 25 44  1  0
 26 45  1  0
 26 46  1  0
 27 47  1  0
 27 48  1  0
 28 49  1  0
 29 50  1  0
M  CHG  1   8  -1
M  END
>  <UniqueID>  (23) 
23

>  <SMILES>  (23) 
CCn1c(=O)c(=O)[n-]c2cc(S(=O)(=O)N3CCN(c4cccc(Cl)c4)CC3)ccc21

>  <Energy>  (23) 
69.50982790252836

>  <Genealogy>  (23) 
CCn1c(=O)c(=O)[n-]c2cc(S(=O)(=O)N3CCN(c4cccc(Cl)c4)CC3)ccc21 (protonated)
CCn1c(=O)c(=O)[n-]c2cc(S(=O)(=O)N3CCN(c4cccc(Cl)c4)CC3)ccc21 (3D coordinates assigned)
CCn1c(=O)c(=O)[n-]c2cc(S(=O)(=O)N3CCN(c4cccc(Cl)c4)CC3)ccc21 (nonaromatic ring conformer: 69.50982790252836 kcal/mol)

>  <smiles>  (23) 
CCn1c(=O)c(=O)[nH]c2cc(S(=O)(=O)N3CCN(c4cccc(Cl)c4)CC3)ccc21

>  <score_type>  (23) 
oracle

>  <origin>  (23) 
adgpu

>  <m_score__min__energy>  (23) 
-11.119999999999999

>  <m_primary>  (23) 
energy

$$$$
23:0
     RDKit          3D

 48 51  0  0  0  0  0  0  0  0999 V2000
   -4.8070   22.4350  -29.9160 O   0  0  0  0  0  0  0  0  0  0  0  0
   -4.0050   23.0190  -30.6900 C   0  0  0  0  0  0  0  0  0  0  0  0
   -3.6430   22.3640  -32.0020 C   0  0  0  0  0  0  0  0  0  0  0  0
   -4.8070   22.3040  -32.9090 N   0  0  0  0  0  0  0  0  0  0  0  0
   -5.9510   22.9890  -32.3500 C   0  0  0  0  0  0  0  0  0  0  0  0
   -5.9960   24.2360  -32.1750 O   0  0  0  0  0  0  0  0  0  0  0  0
   -7.0550   22.0860  -32.0640 C   0  0  0  0  0  0  0  0  0  0  0  0
   -8.3160   22.3240  -31.5180 C   0  0  0  0  0  0  0  0  0  0  0  0
   -9.1880   21.2300  -31.3730 C   0  0  0  0  0  0  0  0  0  0  0  0
   -8.7850   19.9380  -31.7750 C   0  0  0  0  0  0  0  0  0  0  0  0
   -7.5060   19.7330  -32.3260 C   0  0  0  0  0  0  0  0  0  0  0  0
   -6.6650   20.8370  -32.4530 C   0  0  0  0  0  0  0  0  0  0  0  0
   -5.3140   20.9540  -32.9830 C   0  0  0  0  0  0  0  0  0  0  0  0
   -4.6660   19.9970  -33.4840 O   0  0  0  0  0  0  0  0  0  0  0  0
   -3.3990   24.2450  -30.2630 N   0  0  0  0  0  0  0  0  0  0  0  0
   -2.7630   24.4800  -28.9990 C   0  0  0  0  0  0  0  0  0  0  0  0
   -3.4750   24.3850  -27.7910 C   0  0  0  0  0  0  0  0  0  0  0  0
   -2.8210   24.5880  -26.5720 C   0  0  0  0  0  0  0  0  0  0  0  0
   -1.4470   24.8610  -26.5440 C   0  0  0  0  0  0  0  0  0  0  0  0
   -0.6170   25.0970  -25.0040 S   0  0  0  0  0  0  0  0  0  0  0  0
    0.8630   25.1970  -25.2520 O   0  0  0  0  0  0  0  0  0  0  0  0
   -0.8570   23.8990  -24.1270 O   0  0  0  0  0  0  0  0  0  0  0  0
   -1.1630   26.5400  -24.1760 N   0  0  0  0  0  0  0  0  0  0  0  0
   -1.0490   27.7200  -25.0370 C   0  0  0  0  0  0  0  0  0  0  0  0
    0.2370   28.4510  -24.6800 C   0  0  0  0  0  0  0  0  0  0  0  0
    0.6930   27.8660  -23.3580 C   0  0  0  0  0  0  0  0  0  0  0  0
   -0.3430   26.8140  -22.9910 C   0  0  0  0  0  0  0  0  0  0  0  0
   -0.7340   24.9360  -27.7490 C   0  0  0  0  0  0  0  0  0  0  0  0
   -1.3880   24.7340  -28.9680 C   0  0  0  0  0  0  0  0  0  0  0  0
   -2.8424   22.9445  -32.4838 H   0  0  0  0  0  0  0  0  0  0  0  0
   -3.3081   21.3364  -31.7972 H   0  0  0  0  0  0  0  0  0  0  0  0
   -4.5920   22.6570  -33.8700 H   0  0  0  0  0  0  0  0  0  0  0  0
   -8.6192   23.3357  -31.2104 H   0  0  0  0  0  0  0  0  0  0  0  0
  -10.1895   21.3819  -30.9440 H   0  0  0  0  0  0  0  0  0  0  0  0
   -9.4733   19.0881  -31.6571 H   0  0  0  0  0  0  0  0  0  0  0  0
   -7.1804   18.7323  -32.6464 H   0  0  0  0  0  0  0  0  0  0  0  0
   -4.5496   24.1503  -27.8046 H   0  0  0  0  0  0  0  0  0  0  0  0
   -3.3877   24.5331  -25.6308 H   0  0  0  0  0  0  0  0  0  0  0  0
   -1.0194   27.4091  -26.0917 H   0  0  0  0  0  0  0  0  0  0  0  0
   -1.9146   28.3822  -24.8881 H   0  0  0  0  0  0  0  0  0  0  0  0
    0.9995   28.2851  -25.4553 H   0  0  0  0  0  0  0  0  0  0  0  0
    0.0780   29.5371  -24.6081 H   0  0  0  0  0  0  0  0  0  0  0  0
    1.6859   27.4048  -23.4653 H   0  0  0  0  0  0  0  0  0  0  0  0
    0.7775   28.6396  -22.5805 H   0  0  0  0  0  0  0  0  0  0  0  0
    0.1621   25.8920  -22.6672 H   0  0  0  0  0  0  0  0  0  0  0  0
   -0.9764   27.1775  -22.1684 H   0  0  0  0  0  0  0  0  0  0  0  0
    0.3440   25.1546  -27.7351 H   0  0  0  0  0  0  0  0  0  0  0  0
   -0.8180   24.7751  -29.9079 H   0  0  0  0  0  0  0  0  0  0  0  0
  1  2  2  0
  2  3  1  0
  3  4  1  0
  4  5  1  0
  5  6  2  0
  5  7  1  0
  7  8  2  0
  8  9  1  0
  9 10  2  0
 10 11  1  0
 11 12  2  0
 12 13  1  0
 13 14  2  0
  2 15  1  0
 15 16  1  0
 16 17  2  0
 17 18  1  0
 18 19  2  0
 19 20  1  0
 20 21  2  0
 20 22  2  0
 20 23  1  0
 23 24  1  0
 24 25  1  0
 25 26  1  0
 26 27  1  0
 19 28  1  0
 28 29  2  0
 13  4  1  0
 29 16  1  0
 12  7  1  0
 27 23  1  0
  3 30  1  0
  3 31  1  0
  4 32  1  0
  8 33  1  0
  9 34  1  0
 10 35  1  0
 11 36  1  0
 17 37  1  0
 18 38  1  0
 24 39  1  0
 24 40  1  0
 25 41  1  0
 25 42  1  0
 26 43  1  0
 26 44  1  0
 27 45  1  0
 27 46  1  0
 28 47  1  0
 29 48  1  0
M  CHG  2   4   1  15  -1
M  END
>  <UniqueID>  (24) 
24

>  <SMILES>  (24) 
O=C(C[NH+]1C(=O)c2ccccc2C1=O)[N-]c1ccc(S(=O)(=O)N2CCCC2)cc1

>  <Energy>  (24) 
81.56845924545308

>  <Genealogy>  (24) 
O=C(C[NH+]1C(=O)c2ccccc2C1=O)[N-]c1ccc(S(=O)(=O)N2CCCC2)cc1 (protonated)
O=C(C[NH+]1C(=O)c2ccccc2C1=O)[N-]c1ccc(S(=O)(=O)N2CCCC2)cc1 (3D coordinates assigned)
O=C(C[NH+]1C(=O)c2ccccc2C1=O)[N-]c1ccc(S(=O)(=O)N2CCCC2)cc1 (nonaromatic ring conformer: 81.56845924545308 kcal/mol)

>  <smiles>  (24) 
O=C(CN1C(=O)c2ccccc2C1=O)Nc1ccc(S(=O)(=O)N2CCCC2)cc1

>  <score_type>  (24) 
oracle

>  <origin>  (24) 
adgpu

>  <m_score__min__energy>  (24) 
-11.32

>  <m_primary>  (24) 
energy

$$$$
24:0
     RDKit          3D

 40 42  0  0  0  0  0  0  0  0999 V2000
   -3.6210   20.8520  -33.7760 N   0  0  0  0  0  0  0  0  0  0  0  0
   -3.9020   21.4170  -32.1650 S   0  0  0  0  0  0  0  0  0  0  0  0
   -3.4100   20.3860  -31.1890 O   0  0  0  0  0  0  0  0  0  0  0  0
   -3.1310   22.6920  -31.9800 O   0  0  0  0  0  0  0  0  0  0  0  0
   -5.6300   21.7130  -31.9180 C   0  0  0  0  0  0  0  0  0  0  0  0
   -6.4860   20.6120  -31.7500 C   0  0  0  0  0  0  0  0  0  0  0  0
   -7.8690   20.7940  -31.6640 C   0  0  0  0  0  0  0  0  0  0  0  0
   -8.4130   22.0730  -31.7660 C   0  0  0  0  0  0  0  0  0  0  0  0
   -7.5750   23.1780  -31.9230 C   0  0  0  0  0  0  0  0  0  0  0  0
   -6.1830   23.0160  -31.9510 C   0  0  0  0  0  0  0  0  0  0  0  0
   -5.3650   24.1920  -31.9990 N   0  0  0  0  0  0  0  0  0  0  0  0
   -5.1430   25.0910  -30.9010 C   0  0  0  0  0  0  0  0  0  0  0  0
   -6.1220   25.7140  -30.4170 O   0  0  0  0  0  0  0  0  0  0  0  0
   -3.8360   25.3180  -30.3530 N   0  0  0  0  0  0  0  0  0  0  0  0
   -3.1640   24.4650  -29.4180 C   0  0  0  0  0  0  0  0  0  0  0  0
   -3.7150   23.2130  -29.1340 C   0  0  0  0  0  0  0  0  0  0  0  0
   -3.1160   22.3780  -28.1930 C   0  0  0  0  0  0  0  0  0  0  0  0
   -1.9560   22.7800  -27.5250 C   0  0  0  0  0  0  0  0  0  0  0  0
   -1.2490   21.6520  -26.3720 Cl  0  0  0  0  0  0  0  0  0  0  0  0
   -1.3700   24.0330  -27.8140 C   0  0  0  0  0  0  0  0  0  0  0  0
    0.0980   24.5670  -26.9610 S   0  0  0  0  0  0  0  0  0  0  0  0
    0.8450   25.5370  -27.8320 O   0  0  0  0  0  0  0  0  0  0  0  0
    1.0070   23.3980  -26.7090 O   0  0  0  0  0  0  0  0  0  0  0  0
   -0.2490   25.3590  -25.3870 C   0  0  0  0  0  0  0  0  0  0  0  0
   -0.5780   26.8450  -25.4120 C   0  0  0  0  0  0  0  0  0  0  0  0
   -1.6890   25.8240  -25.2450 C   0  0  0  0  0  0  0  0  0  0  0  0
   -1.9620   24.8540  -28.7990 C   0  0  0  0  0  0  0  0  0  0  0  0
   -1.3580   26.0500  -29.1770 O   0  0  0  0  0  0  0  0  0  0  0  0
   -3.0520   21.5790  -34.2660 H   0  0  0  0  0  0  0  0  0  0  0  0
   -6.0643   19.5981  -31.6856 H   0  0  0  0  0  0  0  0  0  0  0  0
   -8.5290   19.9266  -31.5156 H   0  0  0  0  0  0  0  0  0  0  0  0
   -9.5034   22.2117  -31.7228 H   0  0  0  0  0  0  0  0  0  0  0  0
   -8.0100   24.1831  -32.0255 H   0  0  0  0  0  0  0  0  0  0  0  0
   -4.6261   22.8848  -29.6558 H   0  0  0  0  0  0  0  0  0  0  0  0
   -3.5593   21.3953  -27.9743 H   0  0  0  0  0  0  0  0  0  0  0  0
    0.4566   24.7473  -24.8057 H   0  0  0  0  0  0  0  0  0  0  0  0
   -0.2890   27.4866  -24.5666 H   0  0  0  0  0  0  0  0  0  0  0  0
   -0.3813   27.6737  -26.1081 H   0  0  0  0  0  0  0  0  0  0  0  0
   -2.2052   25.7266  -24.2786 H   0  0  0  0  0  0  0  0  0  0  0  0
   -2.6308   25.6076  -25.7705 H   0  0  0  0  0  0  0  0  0  0  0  0
  1  2  1  0
  2  3  2  0
  2  4  2  0
  2  5  1  0
  5  6  2  0
  6  7  1  0
  7  8  2  0
  8  9  1  0
  9 10  2  0
 10 11  1  0
 11 12  1  0
 12 13  2  0
 12 14  1  0
 14 15  1  0
 15 16  2  0
 16 17  1  0
 17 18  2  0
 18 19  1  0
 18 20  1  0
 20 21  1  0
 21 22  2  0
 21 23  2  0
 21 24  1  0
 24 25  1  0
 25 26  1  0
 20 27  2  0
 27 28  1  0
 10  5  1  0
 27 15  1  0
 26 24  1  0
  1 29  1  0
  6 30  1  0
  7 31  1  0
  8 32  1  0
  9 33  1  0
 16 34  1  0
 17 35  1  0
 24 36  1  0
 25 37  1  0
 25 38  1  0
 26 39  1  0
 26 40  1  0
M  CHG  4   1  -1  11  -1  14  -1  28  -1
M  END
>  <UniqueID>  (25) 
25

>  <SMILES>  (25) 
[NH-]S(=O)(=O)c1ccccc1[N-]C(=O)[N-]c1ccc(Cl)c(S(=O)(=O)C2CC2)c1[O-]

>  <Energy>  (25) 
319.84752459569427

>  <Genealogy>  (25) 
[NH-]S(=O)(=O)c1ccccc1[N-]C(=O)[N-]c1ccc(Cl)c(S(=O)(=O)C2CC2)c1[O-] (protonated)
[NH-]S(=O)(=O)c1ccccc1[N-]C(=O)[N-]c1ccc(Cl)c(S(=O)(=O)C2CC2)c1[O-] (3D coordinates assigned)
[NH-]S(=O)(=O)c1ccccc1[N-]C(=O)[N-]c1ccc(Cl)c(S(=O)(=O)C2CC2)c1[O-] (nonaromatic ring conformer: 319.84752459569427 kcal/mol)

>  <smiles>  (25) 
NS(=O)(=O)c1ccccc1NC(=O)Nc1ccc(Cl)c(S(=O)(=O)C2CC2)c1O

>  <score_type>  (25) 
oracle

>  <origin>  (25) 
adgpu

>  <m_score__min__energy>  (25) 
-14.949999999999999

>  <m_primary>  (25) 
energy

$$$$
25:0
     RDKit          3D

 65 69  0  0  0  0  0  0  0  0999 V2000
   -9.4880   21.3940  -31.6780 C   0  0  0  0  0  0  0  0  0  0  0  0
   -8.5360   20.2730  -31.9760 C   0  0  0  0  0  0  0  0  0  0  0  0
   -8.8950   18.9460  -31.7030 C   0  0  0  0  0  0  0  0  0  0  0  0
   -7.9950   17.9100  -31.9570 C   0  0  0  0  0  0  0  0  0  0  0  0
   -6.7250   18.1880  -32.4640 C   0  0  0  0  0  0  0  0  0  0  0  0
   -6.3400   19.5130  -32.7370 C   0  0  0  0  0  0  0  0  0  0  0  0
   -5.0330   19.8030  -33.2810 N   0  0  0  0  0  0  0  0  0  0  0  0
   -4.3950   18.8660  -34.2100 C   0  0  0  0  0  0  0  0  0  0  0  0
   -2.8990   18.8010  -33.9290 C   0  0  0  0  0  0  0  0  0  0  0  0
   -2.2700   20.1320  -33.9890 N   0  0  0  0  0  0  0  0  0  0  0  0
   -0.7060   20.2070  -33.2070 S   0  0  0  0  0  0  0  0  0  0  0  0
    0.0200   18.9230  -33.4950 O   0  0  0  0  0  0  0  0  0  0  0  0
    0.0610   21.3410  -33.8250 O   0  0  0  0  0  0  0  0  0  0  0  0
   -0.7350   20.4400  -31.4420 C   0  0  0  0  0  0  0  0  0  0  0  0
   -1.4050   21.5410  -30.8840 C   0  0  0  0  0  0  0  0  0  0  0  0
   -1.4360   21.7540  -29.4980 C   0  0  0  0  0  0  0  0  0  0  0  0
   -2.1220   22.8980  -28.9490 N   0  0  0  0  0  0  0  0  0  0  0  0
   -2.1260   23.3140  -27.6690 C   0  0  0  0  0  0  0  0  0  0  0  0
   -1.4300   22.6850  -26.6370 O   0  0  0  0  0  0  0  0  0  0  0  0
   -2.8910   24.4620  -27.5740 C   0  0  0  0  0  0  0  0  0  0  0  0
   -3.1030   25.3120  -26.3580 C   0  0  0  0  0  0  0  0  0  0  0  0
   -1.8420   26.0590  -26.0230 C   0  0  0  0  0  0  0  0  0  0  0  0
   -0.9570   26.4560  -27.0400 C   0  0  0  0  0  0  0  0  0  0  0  0
    0.1900   27.1930  -26.7290 C   0  0  0  0  0  0  0  0  0  0  0  0
    0.4600   27.5430  -25.4030 C   0  0  0  0  0  0  0  0  0  0  0  0
   -0.4170   27.1560  -24.3860 C   0  0  0  0  0  0  0  0  0  0  0  0
   -1.5660   26.4200  -24.6940 C   0  0  0  0  0  0  0  0  0  0  0  0
   -3.3580   24.7900  -28.7970 N   0  0  0  0  0  0  0  0  0  0  0  0
   -2.8740   23.8160  -29.5980 C   0  0  0  0  0  0  0  0  0  0  0  0
   -3.1150   23.7730  -30.8320 O   0  0  0  0  0  0  0  0  0  0  0  0
   -0.7920   20.8410  -28.6550 C   0  0  0  0  0  0  0  0  0  0  0  0
   -0.1300   19.7360  -29.1860 C   0  0  0  0  0  0  0  0  0  0  0  0
   -0.0990   19.5160  -30.5730 C   0  0  0  0  0  0  0  0  0  0  0  0
    0.5660   18.3430  -31.0620 N   0  0  0  0  0  0  0  0  0  0  0  0
   -3.1170   21.3350  -33.8270 C   0  0  0  0  0  0  0  0  0  0  0  0
   -4.4190   21.1150  -33.0330 C   0  0  0  0  0  0  0  0  0  0  0  0
   -7.2550   20.5530  -32.4780 C   0  0  0  0  0  0  0  0  0  0  0  0
   -9.5873   21.5109  -30.5887 H   0  0  0  0  0  0  0  0  0  0  0  0
   -9.1027   22.3278  -32.1134 H   0  0  0  0  0  0  0  0  0  0  0  0
  -10.4719   21.1650  -32.1134 H   0  0  0  0  0  0  0  0  0  0  0  0
   -9.8883   18.7206  -31.2876 H   0  0  0  0  0  0  0  0  0  0  0  0
   -8.2883   16.8689  -31.7565 H   0  0  0  0  0  0  0  0  0  0  0  0
   -6.0198   17.3649  -32.6515 H   0  0  0  0  0  0  0  0  0  0  0  0
   -4.8350   17.8662  -34.0803 H   0  0  0  0  0  0  0  0  0  0  0  0
   -4.5567   19.2102  -35.2422 H   0  0  0  0  0  0  0  0  0  0  0  0
   -2.7438   18.3793  -32.9249 H   0  0  0  0  0  0  0  0  0  0  0  0
   -2.4345   18.1695  -34.7007 H   0  0  0  0  0  0  0  0  0  0  0  0
   -1.9169   22.2523  -31.5489 H   0  0  0  0  0  0  0  0  0  0  0  0
   -1.1930   23.1680  -25.7820 H   0  0  0  0  0  0  0  0  0  0  0  0
   -3.9112   26.0321  -26.5539 H   0  0  0  0  0  0  0  0  0  0  0  0
   -3.3745   24.6659  -25.5102 H   0  0  0  0  0  0  0  0  0  0  0  0
   -1.1675   26.1858  -28.0853 H   0  0  0  0  0  0  0  0  0  0  0  0
    0.8807   27.4977  -27.5290 H   0  0  0  0  0  0  0  0  0  0  0  0
    1.3626   28.1229  -25.1600 H   0  0  0  0  0  0  0  0  0  0  0  0
   -0.2035   27.4304  -23.3424 H   0  0  0  0  0  0  0  0  0  0  0  0
   -2.2568   26.1225  -23.8914 H   0  0  0  0  0  0  0  0  0  0  0  0
   -0.8086   20.9969  -27.5662 H   0  0  0  0  0  0  0  0  0  0  0  0
    0.3740   19.0280  -28.5116 H   0  0  0  0  0  0  0  0  0  0  0  0
    0.0770   17.6950  -31.7190 H   0  0  0  0  0  0  0  0  0  0  0  0
    1.5620   18.1290  -30.8500 H   0  0  0  0  0  0  0  0  0  0  0  0
   -2.5248   22.1011  -33.3051 H   0  0  0  0  0  0  0  0  0  0  0  0
   -3.4228   21.6333  -34.8406 H   0  0  0  0  0  0  0  0  0  0  0  0
   -4.1924   21.1978  -31.9598 H   0  0  0  0  0  0  0  0  0  0  0  0
   -5.1370   21.8800  -33.3636 H   0  0  0  0  0  0  0  0  0  0  0  0
   -6.9624   21.5956  -32.6712 H   0  0  0  0  0  0  0  0  0  0  0  0
  1  2  1  0
  2  3  2  0
  3  4  1  0
  4  5  2  0
  5  6  1  0
  6  7  1  0
  7  8  1  0
  8  9  1  0
  9 10  1  0
 10 11  1  0
 11 12  2  0
 11 13  2  0
 11 14  1  0
 14 15  2  0
 15 16  1  0
 16 17  1  0
 17 18  1  0
 18 19  1  0
 18 20  2  0
 20 21  1  0
 21 22  1  0
 22 23  2  0
 23 24  1  0
 24 25  2  0
 25 26  1  0
 26 27  2  0
 20 28  1  0
 28 29  1  0
 29 30  2  0
 16 31  2  0
 31 32  1  0
 32 33  2  0
 33 34  1  0
 10 35  1  0
 35 36  1  0
  6 37  2  0
 37  2  1  0
 36  7  1  0
 33 14  1  0
 29 17  1  0
 27 22  1  0
  1 38  1  0
  1 39  1  0
  1 40  1  0
  3 41  1  0
  4 42  1  0
  5 43  1  0
  8 44  1  0
  8 45  1  0
  9 46  1  0
  9 47  1  0
 15 48  1  0
 19 49  1  0
 21 50  1  0
 21 51  1  0
 23 52  1  0
 24 53  1  0
 25 54  1  0
 26 55  1  0
 27 56  1  0
 31 57  1  0
 32 58  1  0
 34 59  1  0
 34 60  1  0
 35 61  1  0
 35 62  1  0
 36 63  1  0
 36 64  1  0
 37 65  1  0
M  CHG  1  28  -1
M  END
>  <UniqueID>  (26) 
26

>  <SMILES>  (26) 
Cc1cccc(N2CCN(S(=O)(=O)c3cc(-n4c(O)c(Cc5ccccc5)[n-]c4=O)ccc3N)CC2)c1

>  <Energy>  (26) 
119.22026917257935

>  <Genealogy>  (26) 
Cc1cccc(N2CCN(S(=O)(=O)c3cc(-n4c(O)c(Cc5ccccc5)[n-]c4=O)ccc3N)CC2)c1 (protonated)
Cc1cccc(N2CCN(S(=O)(=O)c3cc(-n4c(O)c(Cc5ccccc5)[n-]c4=O)ccc3N)CC2)c1 (3D coordinates assigned)
Cc1cccc(N2CCN(S(=O)(=O)c3cc(-n4c(O)c(Cc5ccccc5)[n-]c4=O)ccc3N)CC2)c1 (nonaromatic ring conformer: 119.22026917257935 kcal/mol)

>  <smiles>  (26) 
Cc1cccc(N2CCN(S(=O)(=O)c3cc(-n4c(O)c(Cc5ccccc5)[nH]c4=O)ccc3N)CC2)c1

>  <score_type>  (26) 
oracle

>  <origin>  (26) 
adgpu

>  <m_score__min__energy>  (26) 
-11.06

>  <m_primary>  (26) 
energy

$$$$
26:0
     RDKit          3D

 46 49  0  0  0  0  0  0  0  0999 V2000
   -3.8630   25.5610  -30.4590 O   0  0  0  0  0  0  0  0  0  0  0  0
   -4.6520   24.4680  -30.8120 C   0  0  0  0  0  0  0  0  0  0  0  0
   -6.0430   24.5950  -30.9120 C   0  0  0  0  0  0  0  0  0  0  0  0
   -6.8260   23.4920  -31.2680 C   0  0  0  0  0  0  0  0  0  0  0  0
   -6.2260   22.2490  -31.5270 C   0  0  0  0  0  0  0  0  0  0  0  0
   -7.0530   21.0880  -31.9110 C   0  0  0  0  0  0  0  0  0  0  0  0
   -6.5850   19.8230  -31.9760 N   0  0  0  0  0  0  0  0  0  0  0  0
   -7.6620   19.1170  -32.3690 C   0  0  0  0  0  0  0  0  0  0  0  0
   -7.6510   17.6380  -32.6530 C   0  0  0  0  0  0  0  0  0  0  0  0
   -6.4400   17.1990  -33.3780 N   0  0  0  0  0  0  0  0  0  0  0  0
   -5.3390   16.7510  -32.4820 C   0  0  0  0  0  0  0  0  0  0  0  0
   -4.0070   17.4650  -32.7480 C   0  0  0  0  0  0  0  0  0  0  0  0
   -3.7090   17.4290  -34.1810 N   0  0  0  0  0  0  0  0  0  0  0  0
   -2.3540   17.2970  -34.6280 C   0  0  0  0  0  0  0  0  0  0  0  0
   -1.9240   16.0890  -35.1980 C   0  0  0  0  0  0  0  0  0  0  0  0
   -0.6080   15.9530  -35.6460 C   0  0  0  0  0  0  0  0  0  0  0  0
    0.2870   17.0190  -35.5280 C   0  0  0  0  0  0  0  0  0  0  0  0
   -0.1320   18.2230  -34.9570 C   0  0  0  0  0  0  0  0  0  0  0  0
   -1.4490   18.3680  -34.5050 C   0  0  0  0  0  0  0  0  0  0  0  0
   -1.9350   19.8870  -33.7640 Cl  0  0  0  0  0  0  0  0  0  0  0  0
   -4.7760   17.6620  -35.1580 C   0  0  0  0  0  0  0  0  0  0  0  0
   -6.0530   18.1340  -34.4570 C   0  0  0  0  0  0  0  0  0  0  0  0
   -8.7350   19.9650  -32.5300 C   0  0  0  0  0  0  0  0  0  0  0  0
   -8.3250   21.1750  -32.2360 O   0  0  0  0  0  0  0  0  0  0  0  0
   -4.8270   22.1300  -31.4250 C   0  0  0  0  0  0  0  0  0  0  0  0
   -4.0480   23.2350  -31.0700 C   0  0  0  0  0  0  0  0  0  0  0  0
   -2.9220   25.6740  -30.8200 H   0  0  0  0  0  0  0  0  0  0  0  0
   -6.5212   25.5648  -30.7100 H   0  0  0  0  0  0  0  0  0  0  0  0
   -7.9181   23.5988  -31.3455 H   0  0  0  0  0  0  0  0  0  0  0  0
   -7.7027   17.0969  -31.6967 H   0  0  0  0  0  0  0  0  0  0  0  0
   -8.5169   17.4194  -33.2953 H   0  0  0  0  0  0  0  0  0  0  0  0
   -5.6364   16.9446  -31.4408 H   0  0  0  0  0  0  0  0  0  0  0  0
   -5.1777   15.6804  -32.6766 H   0  0  0  0  0  0  0  0  0  0  0  0
   -4.0793   18.5109  -32.4151 H   0  0  0  0  0  0  0  0  0  0  0  0
   -3.2032   16.9575  -32.1945 H   0  0  0  0  0  0  0  0  0  0  0  0
   -2.6253   15.2468  -35.2923 H   0  0  0  0  0  0  0  0  0  0  0  0
   -0.2757   15.0043  -36.0927 H   0  0  0  0  0  0  0  0  0  0  0  0
    1.3218   16.9103  -35.8848 H   0  0  0  0  0  0  0  0  0  0  0  0
    0.5753   19.0601  -34.8622 H   0  0  0  0  0  0  0  0  0  0  0  0
   -4.4501   18.4318  -35.8729 H   0  0  0  0  0  0  0  0  0  0  0  0
   -4.9874   16.7197  -35.6847 H   0  0  0  0  0  0  0  0  0  0  0  0
   -5.8791   19.1305  -34.0248 H   0  0  0  0  0  0  0  0  0  0  0  0
   -6.8661   18.1723  -35.1969 H   0  0  0  0  0  0  0  0  0  0  0  0
   -9.7490   19.6797  -32.8468 H   0  0  0  0  0  0  0  0  0  0  0  0
   -4.3442   21.1622  -31.6257 H   0  0  0  0  0  0  0  0  0  0  0  0
   -2.9554   23.1333  -30.9935 H   0  0  0  0  0  0  0  0  0  0  0  0
  1  2  1  0
  2  3  2  0
  3  4  1  0
  4  5  2  0
  5  6  1  0
  6  7  2  0
  7  8  1  0
  8  9  1  0
  9 10  1  0
 10 11  1  0
 11 12  1  0
 12 13  1  0
 13 14  1  0
 14 15  2  0
 15 16  1  0
 16 17  2  0
 17 18  1  0
 18 19  2  0
 19 20  1  0
 13 21  1  0
 21 22  1  0
  8 23  2  0
 23 24  1  0
  5 25  1  0
 25 26  2  0
 26  2  1  0
 24  6  1  0
 22 10  1  0
 19 14  1  0
  1 27  1  0
  3 28  1  0
  4 29  1  0
  9 30  1  0
  9 31  1  0
 11 32  1  0
 11 33  1  0
 12 34  1  0
 12 35  1  0
 15 36  1  0
 16 37  1  0
 17 38  1  0
 18 39  1  0
 21 40  1  0
 21 41  1  0
 22 42  1  0
 22 43  1  0
 23 44  1  0
 25 45  1  0
 26 46  1  0
M  END
>  <UniqueID>  (27) 
27

>  <SMILES>  (27) 
Oc1ccc(-c2nc(CN3CCN(c4ccccc4Cl)CC3)co2)cc1

>  <Energy>  (27) 
92.13800238889421

>  <Genealogy>  (27) 
Oc1ccc(-c2nc(CN3CCN(c4ccccc4Cl)CC3)co2)cc1 (3D coordinates assigned)
Oc1ccc(-c2nc(CN3CCN(c4ccccc4Cl)CC3)co2)cc1 (nonaromatic ring conformer: 92.13800238889421 kcal/mol)

>  <smiles>  (27) 
Oc1ccc(-c2nc(CN3CCN(c4ccccc4Cl)CC3)co2)cc1

>  <score_type>  (27) 
oracle

>  <origin>  (27) 
adgpu

>  <m_score__min__energy>  (27) 
-9.0999999999999996

>  <m_primary>  (27) 
energy

$$$$
27:0
     RDKit          3D

 53 56  0  0  0  0  0  0  0  0999 V2000
   -5.7400   26.4080  -31.2220 O   0  0  0  0  0  0  0  0  0  0  0  0
   -5.3720   25.1540  -30.4790 S   0  0  0  0  0  0  0  0  0  0  0  0
   -5.8570   25.2800  -29.0620 O   0  0  0  0  0  0  0  0  0  0  0  0
   -3.6480   24.9620  -30.4720 N   0  0  0  0  0  0  0  0  0  0  0  0
   -2.8990   24.2000  -29.5130 C   0  0  0  0  0  0  0  0  0  0  0  0
   -3.2840   22.9000  -29.1360 C   0  0  0  0  0  0  0  0  0  0  0  0
   -2.5350   22.1720  -28.2000 C   0  0  0  0  0  0  0  0  0  0  0  0
   -1.4010   22.7720  -27.5960 C   0  0  0  0  0  0  0  0  0  0  0  0
   -1.0060   24.0570  -27.9950 C   0  0  0  0  0  0  0  0  0  0  0  0
   -1.7470   24.7630  -28.9480 C   0  0  0  0  0  0  0  0  0  0  0  0
   -1.3300   26.0290  -29.3330 O   0  0  0  0  0  0  0  0  0  0  0  0
   -0.5320   22.0180  -26.6130 C   0  0  0  0  0  0  0  0  0  0  0  0
   -1.2270   20.7810  -26.0300 C   0  0  0  0  0  0  0  0  0  0  0  0
   -1.8950   19.9690  -27.1430 C   0  0  0  0  0  0  0  0  0  0  0  0
   -3.0020   20.7900  -27.8090 C   0  0  0  0  0  0  0  0  0  0  0  0
   -6.1270   23.7400  -31.2130 C   0  0  0  0  0  0  0  0  0  0  0  0
   -7.5180   23.6310  -31.2890 C   0  0  0  0  0  0  0  0  0  0  0  0
   -8.0990   22.5330  -31.9180 C   0  0  0  0  0  0  0  0  0  0  0  0
   -7.3090   21.5130  -32.4620 C   0  0  0  0  0  0  0  0  0  0  0  0
   -7.9770   20.4760  -33.1120 O   0  0  0  0  0  0  0  0  0  0  0  0
   -5.8940   21.5830  -32.3380 C   0  0  0  0  0  0  0  0  0  0  0  0
   -4.7860   20.2760  -32.8310 S   0  0  0  0  0  0  0  0  0  0  0  0
   -5.3690   19.5890  -34.0350 O   0  0  0  0  0  0  0  0  0  0  0  0
   -4.6540   19.2340  -31.7570 O   0  0  0  0  0  0  0  0  0  0  0  0
   -3.2020   20.8900  -33.2630 N   0  0  0  0  0  0  0  0  0  0  0  0
   -2.3760   19.8820  -33.9610 C   0  0  0  0  0  0  0  0  0  0  0  0
   -1.3070   19.2790  -33.0360 C   0  0  0  0  0  0  0  0  0  0  0  0
   -0.4000   20.2500  -32.5340 O   0  0  0  0  0  0  0  0  0  0  0  0
   -1.0020   21.5170  -32.2760 C   0  0  0  0  0  0  0  0  0  0  0  0
   -2.5310   21.4710  -32.0790 C   0  0  0  0  0  0  0  0  0  0  0  0
   -5.3240   22.7210  -31.7350 C   0  0  0  0  0  0  0  0  0  0  0  0
   -4.1834   22.4493  -29.5809 H   0  0  0  0  0  0  0  0  0  0  0  0
   -0.1068   24.5130  -27.5552 H   0  0  0  0  0  0  0  0  0  0  0  0
    0.3840   21.6954  -27.1296 H   0  0  0  0  0  0  0  0  0  0  0  0
   -0.3119   22.6982  -25.7770 H   0  0  0  0  0  0  0  0  0  0  0  0
   -0.4814   20.1528  -25.5208 H   0  0  0  0  0  0  0  0  0  0  0  0
   -1.9972   21.1081  -25.3160 H   0  0  0  0  0  0  0  0  0  0  0  0
   -1.1411   19.6978  -27.8967 H   0  0  0  0  0  0  0  0  0  0  0  0
   -2.3364   19.0605  -26.7073 H   0  0  0  0  0  0  0  0  0  0  0  0
   -3.3390   20.2616  -28.7130 H   0  0  0  0  0  0  0  0  0  0  0  0
   -3.8195   20.9044  -27.0820 H   0  0  0  0  0  0  0  0  0  0  0  0
   -8.1550   24.4137  -30.8513 H   0  0  0  0  0  0  0  0  0  0  0  0
   -9.1947   22.4659  -31.9886 H   0  0  0  0  0  0  0  0  0  0  0  0
   -7.5600   19.8630  -33.7900 H   0  0  0  0  0  0  0  0  0  0  0  0
   -3.0299   19.0748  -34.3228 H   0  0  0  0  0  0  0  0  0  0  0  0
   -1.8628   20.3803  -34.7966 H   0  0  0  0  0  0  0  0  0  0  0  0
   -1.8105   18.7960  -32.1856 H   0  0  0  0  0  0  0  0  0  0  0  0
   -0.7248   18.5586  -33.6294 H   0  0  0  0  0  0  0  0  0  0  0  0
   -0.5504   21.9323  -31.3630 H   0  0  0  0  0  0  0  0  0  0  0  0
   -0.8200   22.1367  -33.1665 H   0  0  0  0  0  0  0  0  0  0  0  0
   -2.7615   20.8554  -31.1970 H   0  0  0  0  0  0  0  0  0  0  0  0
   -2.8969   22.4988  -31.9386 H   0  0  0  0  0  0  0  0  0  0  0  0
   -4.2293   22.8097  -31.6736 H   0  0  0  0  0  0  0  0  0  0  0  0
  1  2  2  0
  2  3  2  0
  2  4  1  0
  4  5  1  0
  5  6  2  0
  6  7  1  0
  7  8  2  0
  8  9  1  0
  9 10  2  0
 10 11  1  0
  8 12  1  0
 12 13  1  0
 13 14  1  0
 14 15  1  0
  2 16  1  0
 16 17  2  0
 17 18  1  0
 18 19  2  0
 19 20  1  0
 19 21  1  0
 21 22  1  0
 22 23  2  0
 22 24  2  0
 22 25  1  0
 25 26  1  0
 26 27  1  0
 27 28  1  0
 28 29  1  0
 29 30  1  0
 21 31  2  0
 10  5  1  0
 31 16  1  0
 15  7  1  0
 30 25  1  0
  6 32  1  0
  9 33  1  0
 12 34  1  0
 12 35  1  0
 13 36  1  0
 13 37  1  0
 14 38  1  0
 14 39  1  0
 15 40  1  0
 15 41  1  0
 17 42  1  0
 18 43  1  0
 20 44  1  0
 26 45  1  0
 26 46  1  0
 27 47  1  0
 27 48  1  0
 29 49  1  0
 29 50  1  0
 30 51  1  0
 30 52  1  0
 31 53  1  0
M  CHG  2   4  -1  11  -1
M  END
>  <UniqueID>  (28) 
28

>  <SMILES>  (28) 
O=S(=O)([N-]c1cc2c(cc1[O-])CCCC2)c1ccc(O)c(S(=O)(=O)N2CCOCC2)c1

>  <Energy>  (28) 
75.34864918792407

>  <Genealogy>  (28) 
O=S(=O)([N-]c1cc2c(cc1[O-])CCCC2)c1ccc(O)c(S(=O)(=O)N2CCOCC2)c1 (protonated)
O=S(=O)([N-]c1cc2c(cc1[O-])CCCC2)c1ccc(O)c(S(=O)(=O)N2CCOCC2)c1 (3D coordinates assigned)
O=S(=O)([N-]c1cc2c(cc1[O-])CCCC2)c1ccc(O)c(S(=O)(=O)N2CCOCC2)c1 (nonaromatic ring conformer: 75.34864918792407 kcal/mol)

>  <smiles>  (28) 
O=S(=O)(Nc1cc2c(cc1O)CCCC2)c1ccc(O)c(S(=O)(=O)N2CCOCC2)c1

>  <score_type>  (28) 
oracle

>  <origin>  (28) 
adgpu

>  <m_score__min__energy>  (28) 
-14.73

>  <m_primary>  (28) 
energy

$$$$
28:0
     RDKit          3D

 51 54  0  0  0  0  0  0  0  0999 V2000
   -4.8180   18.1800  -34.1570 C   0  0  0  0  0  0  0  0  0  0  0  0
   -5.6160   19.0660  -33.2900 N   0  0  0  0  0  0  0  0  0  0  0  0
   -5.0760   20.2380  -32.8360 C   0  0  0  0  0  0  0  0  0  0  0  0
   -3.8910   20.5510  -33.1450 O   0  0  0  0  0  0  0  0  0  0  0  0
   -5.8320   21.0970  -32.0270 C   0  0  0  0  0  0  0  0  0  0  0  0
   -5.2850   22.2970  -31.5300 C   0  0  0  0  0  0  0  0  0  0  0  0
   -6.0460   23.1430  -30.7180 C   0  0  0  0  0  0  0  0  0  0  0  0
   -5.3490   24.6370  -30.0840 S   0  0  0  0  0  0  0  0  0  0  0  0
   -6.3700   25.3290  -29.2230 O   0  0  0  0  0  0  0  0  0  0  0  0
   -5.0070   25.5530  -31.2260 O   0  0  0  0  0  0  0  0  0  0  0  0
   -3.9140   24.3260  -29.1380 N   0  0  0  0  0  0  0  0  0  0  0  0
   -4.2100   23.3960  -28.0430 C   0  0  0  0  0  0  0  0  0  0  0  0
   -3.0000   23.2960  -27.0910 C   0  0  0  0  0  0  0  0  0  0  0  0
   -1.7000   23.5860  -27.7570 N   0  0  0  0  0  0  0  0  0  0  0  0
   -1.3000   24.9790  -27.6390 C   0  0  0  0  0  0  0  0  0  0  0  0
   -1.0810   25.6740  -28.6690 O   0  0  0  0  0  0  0  0  0  0  0  0
   -1.0900   25.6080  -26.3190 C   0  0  0  0  0  0  0  0  0  0  0  0
   -1.2270   26.9480  -26.0050 C   0  0  0  0  0  0  0  0  0  0  0  0
   -0.9340   27.0470  -24.6610 C   0  0  0  0  0  0  0  0  0  0  0  0
   -0.6380   25.7680  -24.2380 C   0  0  0  0  0  0  0  0  0  0  0  0
   -0.7400   24.9340  -25.2460 O   0  0  0  0  0  0  0  0  0  0  0  0
   -1.6970   23.1560  -29.1720 C   0  0  0  0  0  0  0  0  0  0  0  0
   -2.8330   23.8080  -29.9960 C   0  0  0  0  0  0  0  0  0  0  0  0
   -7.3600   22.7960  -30.4040 C   0  0  0  0  0  0  0  0  0  0  0  0
   -7.9160   21.6130  -30.8920 C   0  0  0  0  0  0  0  0  0  0  0  0
   -7.1620   20.7390  -31.7130 C   0  0  0  0  0  0  0  0  0  0  0  0
   -7.6910   19.5680  -32.2140 N   0  0  0  0  0  0  0  0  0  0  0  0
   -9.0870   19.1900  -31.9070 C   0  0  0  0  0  0  0  0  0  0  0  0
   -6.9200   18.7500  -33.0070 C   0  0  0  0  0  0  0  0  0  0  0  0
   -7.4160   17.6900  -33.4870 O   0  0  0  0  0  0  0  0  0  0  0  0
   -4.2114   17.5065  -33.5338 H   0  0  0  0  0  0  0  0  0  0  0  0
   -5.4910   17.5852  -34.7920 H   0  0  0  0  0  0  0  0  0  0  0  0
   -4.1563   18.7873  -34.7920 H   0  0  0  0  0  0  0  0  0  0  0  0
   -4.2500   22.5703  -31.7833 H   0  0  0  0  0  0  0  0  0  0  0  0
   -5.0844   23.7595  -27.4832 H   0  0  0  0  0  0  0  0  0  0  0  0
   -4.4214   22.4013  -28.4625 H   0  0  0  0  0  0  0  0  0  0  0  0
   -3.1404   24.0160  -26.2713 H   0  0  0  0  0  0  0  0  0  0  0  0
   -2.9558   22.2583  -26.7288 H   0  0  0  0  0  0  0  0  0  0  0  0
   -0.9830   23.0120  -27.2550 H   0  0  0  0  0  0  0  0  0  0  0  0
   -1.5105   27.7645  -26.6854 H   0  0  0  0  0  0  0  0  0  0  0  0
   -0.9360   27.9615  -24.0497 H   0  0  0  0  0  0  0  0  0  0  0  0
   -0.3587   25.4893  -23.2112 H   0  0  0  0  0  0  0  0  0  0  0  0
   -0.7322   23.4328  -29.6220 H   0  0  0  0  0  0  0  0  0  0  0  0
   -1.8562   22.0677  -29.1892 H   0  0  0  0  0  0  0  0  0  0  0  0
   -2.4143   24.6406  -30.5804 H   0  0  0  0  0  0  0  0  0  0  0  0
   -3.2618   23.0358  -30.6517 H   0  0  0  0  0  0  0  0  0  0  0  0
   -7.9625   23.4601  -29.7668 H   0  0  0  0  0  0  0  0  0  0  0  0
   -8.9543   21.3555  -30.6356 H   0  0  0  0  0  0  0  0  0  0  0  0
   -9.2253   19.1525  -30.8164 H   0  0  0  0  0  0  0  0  0  0  0  0
   -9.7719   19.9350  -32.3381 H   0  0  0  0  0  0  0  0  0  0  0  0
   -9.3024   18.2012  -32.3381 H   0  0  0  0  0  0  0  0  0  0  0  0
  1  2  1  0
  2  3  1  0
  3  4  2  0
  3  5  1  0
  5  6  2  0
  6  7  1  0
  7  8  1  0
  8  9  2  0
  8 10  2  0
  8 11  1  0
 11 12  1  0
 12 13  1  0
 13 14  1  0
 14 15  1  0
 15 16  2  0
 15 17  1  0
 17 18  2  0
 18 19  1  0
 19 20  2  0
 20 21  1  0
 14 22  1  0
 22 23  1  0
  7 24  2  0
 24 25  1  0
 25 26  2  0
 26 27  1  0
 27 28  1  0
 27 29  1  0
 29 30  2  0
 29  2  1  0
 26  5  1  0
 23 11  1  0
 21 17  1  0
  1 31  1  0
  1 32  1  0
  1 33  1  0
  6 34  1  0
 12 35  1  0
 12 36  1  0
 13 37  1  0
 13 38  1  0
 14 39  1  0
 18 40  1  0
 19 41  1  0
 20 42  1  0
 22 43  1  0
 22 44  1  0
 23 45  1  0
 23 46  1  0
 24 47  1  0
 25 48  1  0
 28 49  1  0
 28 50  1  0
 28 51  1  0
M  CHG  1  14   1
M  END
>  <UniqueID>  (29) 
29

>  <SMILES>  (29) 
Cn1c(=O)c2cc(S(=O)(=O)N3CC[NH+](C(=O)c4ccco4)CC3)ccc2n(C)c1=O

>  <Energy>  (29) 
105.68615455692922

>  <Genealogy>  (29) 
Cn1c(=O)c2cc(S(=O)(=O)N3CC[NH+](C(=O)c4ccco4)CC3)ccc2n(C)c1=O (protonated)
Cn1c(=O)c2cc(S(=O)(=O)N3CC[NH+](C(=O)c4ccco4)CC3)ccc2n(C)c1=O (3D coordinates assigned)
Cn1c(=O)c2cc(S(=O)(=O)N3CC[NH+](C(=O)c4ccco4)CC3)ccc2n(C)c1=O (nonaromatic ring conformer: 105.68615455692922 kcal/mol)

>  <smiles>  (29) 
Cn1c(=O)c2cc(S(=O)(=O)N3CCN(C(=O)c4ccco4)CC3)ccc2n(C)c1=O

>  <score_type>  (29) 
oracle

>  <origin>  (29) 
adgpu

>  <m_score__min__energy>  (29) 
-9.4900000000000002

>  <m_primary>  (29) 
energy

$$$$
29:0
     RDKit          3D

 35 36  0  0  0  0  0  0  0  0999 V2000
   -8.0210   19.7030  -33.8210 H   0  0  0  0  0  0  0  0  0  0  0  0
   -7.7970   20.4070  -33.0850 N   0  0  0  0  0  0  0  0  0  0  0  0
   -6.5920   20.6960  -32.6870 C   0  0  0  0  0  0  0  0  0  0  0  0
   -5.4550   20.0590  -33.2370 C   0  0  0  0  0  0  0  0  0  0  0  0
   -5.6020   19.0330  -34.2510 C   0  0  0  0  0  0  0  0  0  0  0  0
   -5.7170   18.2130  -35.0600 N   0  0  0  0  0  0  0  0  0  0  0  0
   -4.1710   20.4080  -32.7620 C   0  0  0  0  0  0  0  0  0  0  0  0
   -2.9630   19.7500  -33.3190 C   0  0  0  0  0  0  0  0  0  0  0  0
   -2.7760   18.4140  -33.1290 N   0  0  0  0  0  0  0  0  0  0  0  0
   -1.6800   17.7670  -33.6100 C   0  0  0  0  0  0  0  0  0  0  0  0
   -1.5608   16.6868  -33.4396 H   0  0  0  0  0  0  0  0  0  0  0  0
   -0.7060   18.4730  -34.3200 C   0  0  0  0  0  0  0  0  0  0  0  0
    0.1801   17.9543  -34.7146 H   0  0  0  0  0  0  0  0  0  0  0  0
   -0.8700   19.8440  -34.5230 C   0  0  0  0  0  0  0  0  0  0  0  0
   -0.1101   20.4130  -35.0786 H   0  0  0  0  0  0  0  0  0  0  0  0
   -2.0000   20.4930  -34.0200 C   0  0  0  0  0  0  0  0  0  0  0  0
   -2.1338   21.5743  -34.1715 H   0  0  0  0  0  0  0  0  0  0  0  0
   -4.0520   21.3950  -31.7590 C   0  0  0  0  0  0  0  0  0  0  0  0
   -2.7540   21.7960  -31.2580 C   0  0  0  0  0  0  0  0  0  0  0  0
   -1.7180   22.1190  -30.8560 N   0  0  0  0  0  0  0  0  0  0  0  0
   -5.2110   22.0030  -31.2480 C   0  0  0  0  0  0  0  0  0  0  0  0
   -5.1180   23.0100  -30.2290 N   0  0  0  0  0  0  0  0  0  0  0  0
   -4.5760   22.6680  -28.9170 C   0  0  0  0  0  0  0  0  0  0  0  0
   -5.2280   23.0794  -28.1324 H   0  0  0  0  0  0  0  0  0  0  0  0
   -4.5251   21.5739  -28.8151 H   0  0  0  0  0  0  0  0  0  0  0  0
   -3.5666   23.0930  -28.8151 H   0  0  0  0  0  0  0  0  0  0  0  0
   -5.2740   24.6820  -30.6640 S   0  0  0  0  0  0  0  0  0  0  0  0
   -6.0090   24.7910  -31.9710 O   0  0  0  0  0  0  0  0  0  0  0  0
   -3.9100   25.2950  -30.8220 O   0  0  0  0  0  0  0  0  0  0  0  0
   -6.1640   25.5610  -29.3990 C   0  0  0  0  0  0  0  0  0  0  0  0
   -5.8228   25.2240  -28.4091 H   0  0  0  0  0  0  0  0  0  0  0  0
   -5.9786   26.6403  -29.5029 H   0  0  0  0  0  0  0  0  0  0  0  0
   -7.2409   25.3622  -29.5029 H   0  0  0  0  0  0  0  0  0  0  0  0
   -6.4350   21.6380  -31.7160 N   0  0  0  0  0  0  0  0  0  0  0  0
   -7.2830   22.1060  -31.3230 H   0  0  0  0  0  0  0  0  0  0  0  0
  1  2  1  0
  2  3  2  0
  3  4  1  0
  4  5  1  0
  5  6  3  0
  4  7  2  0
  7  8  1  0
  8  9  2  0
  9 10  1  0
 10 11  1  0
 10 12  2  0
 12 13  1  0
 12 14  1  0
 14 15  1  0
 14 16  2  0
 16 17  1  0
  7 18  1  0
 18 19  1  0
 19 20  3  0
 18 21  2  0
 21 22  1  0
 22 23  1  0
 23 24  1  0
 23 25  1  0
 23 26  1  0
 22 27  1  0
 27 28  2  0
 27 29  2  0
 27 30  1  0
 30 31  1  0
 30 32  1  0
 30 33  1  0
 21 34  1  0
 34 35  1  0
 34  3  1  0
 16  8  1  0
M  END
>  <UniqueID>  (30) 
30

>  <SMILES>  (30) 
[H]/N=c1/[nH]c(N(C)S(C)(=O)=O)c(C#N)c(-c2ccccn2)c1C#N

>  <Energy>  (30) 
49.21185191616462

>  <Genealogy>  (30) 
[H]/N=c1/[nH]c(N(C)S(C)(=O)=O)c(C#N)c(-c2ccccn2)c1C#N (cis-trans isomerization)
[H]/N=c1/[nH]c(N(C)S(C)(=O)=O)c(C#N)c(-c2ccccn2)c1C#N (3D coordinates assigned)
[H]/N=c1/[nH]c(N(C)S(C)(=O)=O)c(C#N)c(-c2ccccn2)c1C#N (optimized conformer: 49.21185191616462 kcal/mol)

>  <smiles>  (30) 
CN(c1[nH]c(=N)c(C#N)c(-c2ccccn2)c1C#N)S(C)(=O)=O

>  <score_type>  (30) 
oracle

>  <origin>  (30) 
adgpu

>  <m_score__min__energy>  (30) 
-8.3000000000000007

>  <m_primary>  (30) 
energy

$$$$
30:0
     RDKit          3D

 49 52  0  0  0  0  0  0  0  0999 V2000
   -1.9147   22.0529  -30.0446 H   0  0  0  0  0  0  0  0  0  0  0  0
   -2.5630   22.9330  -29.9220 C   0  0  0  0  0  0  0  0  0  0  0  0
   -3.7220   22.9780  -30.5940 C   0  0  0  0  0  0  0  0  0  0  0  0
   -4.3652   23.8604  -30.4609 H   0  0  0  0  0  0  0  0  0  0  0  0
   -4.1860   21.9050  -31.5070 C   0  0  0  0  0  0  0  0  0  0  0  0
   -3.3370   20.8730  -31.9560 C   0  0  0  0  0  0  0  0  0  0  0  0
   -2.2843   20.8535  -31.6373 H   0  0  0  0  0  0  0  0  0  0  0  0
   -3.8250   19.8740  -32.8040 C   0  0  0  0  0  0  0  0  0  0  0  0
   -3.1519   19.0782  -33.1557 H   0  0  0  0  0  0  0  0  0  0  0  0
   -5.1660   19.8810  -33.2080 C   0  0  0  0  0  0  0  0  0  0  0  0
   -5.7840   18.6390  -34.2940 S   0  0  0  0  0  0  0  0  0  0  0  0
   -6.4130   19.2870  -35.4950 O   0  0  0  0  0  0  0  0  0  0  0  0
   -4.6260   17.8040  -34.7640 O   0  0  0  0  0  0  0  0  0  0  0  0
   -6.9390   17.6130  -33.4630 N   0  0  0  0  0  0  0  0  0  0  0  0
   -7.8800   17.8790  -33.8390 H   0  0  0  0  0  0  0  0  0  0  0  0
   -6.9420   17.8680  -32.0020 C   0  0  0  0  0  0  0  0  0  0  0  0
   -6.5404   18.8758  -31.8200 H   0  0  0  0  0  0  0  0  0  0  0  0
   -7.9802   17.7737  -31.6509 H   0  0  0  0  0  0  0  0  0  0  0  0
   -6.0920   16.8500  -31.2180 C   0  0  0  0  0  0  0  0  0  0  0  0
   -5.7105   17.3255  -30.3024 H   0  0  0  0  0  0  0  0  0  0  0  0
   -6.7200   15.9841  -30.9615 H   0  0  0  0  0  0  0  0  0  0  0  0
   -5.0050   16.4100  -32.0000 O   0  0  0  0  0  0  0  0  0  0  0  0
   -5.4660   15.6160  -33.0800 C   0  0  0  0  0  0  0  0  0  0  0  0
   -4.6615   15.5434  -33.8267 H   0  0  0  0  0  0  0  0  0  0  0  0
   -5.7410   14.6350  -32.6652 H   0  0  0  0  0  0  0  0  0  0  0  0
   -6.7270   16.1860  -33.7730 C   0  0  0  0  0  0  0  0  0  0  0  0
   -6.6141   16.0733  -34.8614 H   0  0  0  0  0  0  0  0  0  0  0  0
   -7.5980   15.6273  -33.3998 H   0  0  0  0  0  0  0  0  0  0  0  0
   -6.0160   20.8980  -32.7570 C   0  0  0  0  0  0  0  0  0  0  0  0
   -7.0696   20.9111  -33.0729 H   0  0  0  0  0  0  0  0  0  0  0  0
   -5.5320   21.8970  -31.9070 C   0  0  0  0  0  0  0  0  0  0  0  0
   -6.2118   22.6839  -31.5483 H   0  0  0  0  0  0  0  0  0  0  0  0
   -2.1240   24.0160  -29.0260 C   0  0  0  0  0  0  0  0  0  0  0  0
   -1.1050   24.8500  -29.3390 N   0  0  0  0  0  0  0  0  0  0  0  0
   -0.8530   25.7580  -28.3970 N   0  0  0  0  0  0  0  0  0  0  0  0
   -1.6780   25.6570  -27.3310 C   0  0  0  0  0  0  0  0  0  0  0  0
   -1.6040   26.4010  -26.2680 N   0  0  0  0  0  0  0  0  0  0  0  0
   -0.7200   27.5150  -26.0610 C   0  0  0  0  0  0  0  0  0  0  0  0
   -0.1430   27.6870  -24.7950 C   0  0  0  0  0  0  0  0  0  0  0  0
   -0.3556   26.9629  -23.9947 H   0  0  0  0  0  0  0  0  0  0  0  0
    0.7010   28.7730  -24.5430 C   0  0  0  0  0  0  0  0  0  0  0  0
    1.1635   28.8903  -23.5519 H   0  0  0  0  0  0  0  0  0  0  0  0
    0.9580   29.7090  -25.5470 C   0  0  0  0  0  0  0  0  0  0  0  0
    1.7980   30.7870  -25.2950 O   0  0  0  0  0  0  0  0  0  0  0  0
    0.3650   29.5640  -26.8040 C   0  0  0  0  0  0  0  0  0  0  0  0
    0.5621   30.3049  -27.5928 H   0  0  0  0  0  0  0  0  0  0  0  0
   -0.4790   28.4780  -27.0610 C   0  0  0  0  0  0  0  0  0  0  0  0
   -0.9559   28.3757  -28.0469 H   0  0  0  0  0  0  0  0  0  0  0  0
   -2.7690   24.3910  -27.5070 S   0  0  0  0  0  0  0  0  0  0  0  0
  1  2  1  0
  2  3  2  0
  3  4  1  0
  3  5  1  0
  5  6  2  0
  6  7  1  0
  6  8  1  0
  8  9  1  0
  8 10  2  0
 10 11  1  0
 11 12  2  0
 11 13  2  0
 11 14  1  0
 14 15  1  0
 14 16  1  0
 16 17  1  0
 16 18  1  0
 16 19  1  0
 19 20  1  0
 19 21  1  0
 19 22  1  0
 22 23  1  0
 23 24  1  0
 23 25  1  0
 23 26  1  0
 26 27  1  0
 26 28  1  0
 10 29  1  0
 29 30  1  0
 29 31  2  0
 31 32  1  0
  2 33  1  0
 33 34  2  0
 34 35  1  0
 35 36  1  0
 36 37  2  3
 37 38  1  0
 38 39  2  0
 39 40  1  0
 39 41  1  0
 41 42  1  0
 41 43  2  0
 43 44  1  0
 43 45  1  0
 45 46  1  0
 45 47  2  0
 47 48  1  0
 36 49  1  0
 31  5  1  0
 49 33  1  0
 26 14  1  0
 47 38  1  0
M  CHG  3  14   1  35  -1  44  -1
M  END
>  <UniqueID>  (31) 
31

>  <SMILES>  (31) 
O=S(=O)(c1ccc(/C=C/c2n[n-]c(=Nc3ccc([O-])cc3)s2)cc1)[NH+]1CCOCC1

>  <Energy>  (31) 
104.95679571349731

>  <Genealogy>  (31) 
O=S(=O)(c1ccc(C=Cc2n[n-]c(=Nc3ccc([O-])cc3)s2)cc1)[NH+]1CCOCC1 (protonated)
O=S(=O)(c1ccc(/C=C/c2n[n-]c(=Nc3ccc([O-])cc3)s2)cc1)[NH+]1CCOCC1 (cis-trans isomerization)
O=S(=O)(c1ccc(/C=C/c2n[n-]c(=Nc3ccc([O-])cc3)s2)cc1)[NH+]1CCOCC1 (3D coordinates assigned)
O=S(=O)(c1ccc(/C=C/c2n[n-]c(=Nc3ccc([O-])cc3)s2)cc1)[NH+]1CCOCC1 (nonaromatic ring conformer: 104.95679571349731 kcal/mol)

>  <smiles>  (31) 
O=S(=O)(c1ccc(C=Cc2n[nH]c(=Nc3ccc(O)cc3)s2)cc1)N1CCOCC1

>  <score_type>  (31) 
oracle

>  <origin>  (31) 
adgpu

>  <m_score__min__energy>  (31) 
-8.6500000000000004

>  <m_primary>  (31) 
energy

$$$$
31:0
     RDKit          3D

 41 43  0  0  1  0  0  0  0  0999 V2000
   -4.6740   25.2640  -30.7970 N   0  0  0  0  0  0  0  0  0  0  0  0
   -5.7840   25.0240  -30.1870 C   0  0  0  0  0  0  0  0  0  0  0  0
   -6.1220   25.8860  -29.1060 N   0  0  0  0  0  0  0  0  0  0  0  0
   -6.6260   23.9110  -30.6130 C   0  0  0  0  0  0  0  0  0  0  0  0
   -6.9490   23.8090  -31.9670 C   0  0  0  0  0  0  0  0  0  0  0  0
   -7.7460   22.7600  -32.3830 C   0  0  0  0  0  0  0  0  0  0  0  0
   -8.2400   21.8050  -31.5180 C   0  0  0  0  0  0  0  0  0  0  0  0
   -9.1050   20.6730  -31.9880 C   0  0  0  0  0  0  0  0  0  0  0  0
   -8.4810   19.3860  -31.8170 N   0  0  0  0  0  0  0  0  0  0  0  0
   -7.4720   19.0830  -32.5610 C   0  0  0  0  0  0  0  0  0  0  0  0
   -6.8290   17.8480  -32.4370 C   0  0  0  0  0  0  0  0  0  0  0  0
   -5.7500   17.4910  -33.2120 C   0  0  0  0  0  0  0  0  0  0  0  0
   -5.0500   16.2210  -33.1210 C   0  0  0  0  0  0  0  0  0  0  0  0
   -5.1540   15.4670  -31.9620 C   0  0  0  0  0  0  0  0  0  0  0  0
   -4.4990   14.2360  -31.8260 C   0  0  0  0  0  0  0  0  0  0  0  0
   -3.7220   13.7150  -32.8320 C   0  0  0  0  0  0  0  0  0  0  0  0
   -3.6140   14.4570  -33.9840 C   0  0  0  0  0  0  0  0  0  0  0  0
   -4.2710   15.6890  -34.1180 C   0  0  0  0  0  0  0  0  0  0  0  0
   -4.0670   16.3180  -35.3340 O   0  0  0  0  0  0  0  0  0  0  0  0
   -5.3480   18.4170  -34.1110 N   0  0  0  0  0  0  0  0  0  0  0  0
   -5.9840   19.6250  -34.2260 C   0  0  0  0  0  0  0  0  0  0  0  0
   -7.0340   19.9520  -33.4590 N   0  0  0  0  0  0  0  0  0  0  0  0
   -7.9100   21.9250  -30.1760 C   0  0  0  0  0  0  0  0  0  0  0  0
   -7.1090   22.9670  -29.7150 C   0  0  0  0  0  0  0  0  0  0  0  0
   -4.3020   24.7240  -31.5980 H   0  0  0  0  0  0  0  0  0  0  0  0
   -5.4660   25.9860  -28.2860 H   0  0  0  0  0  0  0  0  0  0  0  0
   -7.0140   26.4430  -29.0840 H   0  0  0  0  0  0  0  0  0  0  0  0
   -6.5760   24.5500  -32.6894 H   0  0  0  0  0  0  0  0  0  0  0  0
   -7.9979   22.6826  -33.4510 H   0  0  0  0  0  0  0  0  0  0  0  0
  -10.0442   20.6871  -31.4156 H   0  0  0  0  0  0  0  0  0  0  0  0
   -9.2813   20.8154  -33.0644 H   0  0  0  0  0  0  0  0  0  0  0  0
   -7.2011   17.1323  -31.6891 H   0  0  0  0  0  0  0  0  0  0  0  0
   -5.7655   15.8445  -31.1292 H   0  0  0  0  0  0  0  0  0  0  0  0
   -4.6099   13.6715  -30.8884 H   0  0  0  0  0  0  0  0  0  0  0  0
   -3.2096   12.7480  -32.7207 H   0  0  0  0  0  0  0  0  0  0  0  0
   -3.0016   14.0780  -34.8154 H   0  0  0  0  0  0  0  0  0  0  0  0
   -3.4560   15.9270  -36.0400 H   0  0  0  0  0  0  0  0  0  0  0  0
   -4.5560   18.3010  -34.7650 H   0  0  0  0  0  0  0  0  0  0  0  0
   -5.6220   20.3491  -34.9707 H   0  0  0  0  0  0  0  0  0  0  0  0
   -8.2893   21.1809  -29.4602 H   0  0  0  0  0  0  0  0  0  0  0  0
   -6.8602   23.0422  -28.6462 H   0  0  0  0  0  0  0  0  0  0  0  0
  1  2  2  3
  2  3  1  0
  2  4  1  0
  4  5  2  0
  5  6  1  0
  6  7  2  0
  7  8  1  0
  8  9  1  0
  9 10  2  0
 10 11  1  0
 11 12  2  0
 12 13  1  0
 13 14  2  0
 14 15  1  0
 15 16  2  0
 16 17  1  0
 17 18  2  0
 18 19  1  0
 12 20  1  0
 20 21  1  0
 21 22  2  0
  7 23  1  0
 23 24  2  0
 24  4  1  0
 22 10  1  0
 18 13  1  0
  1 25  1  0
  3 26  1  0
  3 27  1  0
  5 28  1  0
  6 29  1  0
  8 30  1  0
  8 31  1  0
 11 32  1  0
 14 33  1  0
 15 34  1  0
 16 35  1  0
 17 36  1  0
 19 37  1  0
 20 38  1  0
 21 39  1  0
 23 40  1  0
 24 41  1  0
M  END
>  <smiles>  (32) 
N=C(N)c1ccc(CN=c2cc(-c3ccccc3O)[nH]cn2)cc1

>  <score_type>  (32) 
oracle

>  <origin>  (32) 
adgpu

>  <m_score__min__energy>  (32) 
-8.3800000000000008

>  <m_primary>  (32) 
energy

$$$$
32:0
     RDKit          3D

 54 57  0  0  0  0  0  0  0  0999 V2000
   -6.7820   17.8240  -33.1570 C   0  0  0  0  0  0  0  0  0  0  0  0
   -5.8050   18.6130  -33.9700 C   0  0  0  0  0  0  0  0  0  0  0  0
   -5.7960   18.4660  -35.2210 O   0  0  0  0  0  0  0  0  0  0  0  0
   -4.8550   19.4860  -33.3290 N   0  0  0  0  0  0  0  0  0  0  0  0
   -3.4010   19.3370  -33.4460 C   0  0  0  0  0  0  0  0  0  0  0  0
   -2.7810   20.5720  -32.7530 C   0  0  0  0  0  0  0  0  0  0  0  0
   -3.9660   21.3200  -32.2580 C   0  0  0  0  0  0  0  0  0  0  0  0
   -3.9780   22.5140  -31.5370 C   0  0  0  0  0  0  0  0  0  0  0  0
   -5.2140   23.0600  -31.1540 C   0  0  0  0  0  0  0  0  0  0  0  0
   -5.2610   24.6040  -30.3080 S   0  0  0  0  0  0  0  0  0  0  0  0
   -6.6960   25.0020  -30.1090 O   0  0  0  0  0  0  0  0  0  0  0  0
   -4.5610   25.6700  -31.1040 O   0  0  0  0  0  0  0  0  0  0  0  0
   -4.4860   24.4520  -28.7620 N   0  0  0  0  0  0  0  0  0  0  0  0
   -3.2520   23.7370  -28.5540 C   0  0  0  0  0  0  0  0  0  0  0  0
   -3.2430   22.4180  -28.0610 C   0  0  0  0  0  0  0  0  0  0  0  0
   -2.0360   21.7450  -27.8360 C   0  0  0  0  0  0  0  0  0  0  0  0
   -2.0500   20.1050  -27.1820 S   0  0  0  0  0  0  0  0  0  0  0  0
   -1.4120   20.1070  -25.8200 O   0  0  0  0  0  0  0  0  0  0  0  0
   -3.4750   19.6520  -27.0280 O   0  0  0  0  0  0  0  0  0  0  0  0
   -1.1960   18.9860  -28.2170 N   0  0  0  0  0  0  0  0  0  0  0  0
   -0.7180   19.6630  -29.4300 C   0  0  0  0  0  0  0  0  0  0  0  0
   -0.0140   18.6450  -30.3520 C   0  0  0  0  0  0  0  0  0  0  0  0
    0.2180   17.4020  -29.7100 O   0  0  0  0  0  0  0  0  0  0  0  0
    0.8570   17.6130  -28.4660 C   0  0  0  0  0  0  0  0  0  0  0  0
   -0.0670   18.3740  -27.4940 C   0  0  0  0  0  0  0  0  0  0  0  0
   -0.8240   22.3820  -28.1280 C   0  0  0  0  0  0  0  0  0  0  0  0
   -0.8190   23.6810  -28.6350 C   0  0  0  0  0  0  0  0  0  0  0  0
   -2.0230   24.3610  -28.8470 C   0  0  0  0  0  0  0  0  0  0  0  0
   -1.9900   25.6600  -29.3430 O   0  0  0  0  0  0  0  0  0  0  0  0
   -6.4100   22.3870  -31.4830 C   0  0  0  0  0  0  0  0  0  0  0  0
   -6.3720   21.1840  -32.2060 C   0  0  0  0  0  0  0  0  0  0  0  0
   -5.1260   20.6770  -32.5980 C   0  0  0  0  0  0  0  0  0  0  0  0
   -6.5830   17.9847  -32.0872 H   0  0  0  0  0  0  0  0  0  0  0  0
   -7.8050   18.1523  -33.3930 H   0  0  0  0  0  0  0  0  0  0  0  0
   -6.6764   16.7548  -33.3930 H   0  0  0  0  0  0  0  0  0  0  0  0
   -3.0713   18.4143  -32.9462 H   0  0  0  0  0  0  0  0  0  0  0  0
   -3.0894   19.2709  -34.4989 H   0  0  0  0  0  0  0  0  0  0  0  0
   -2.1297   20.2701  -31.9195 H   0  0  0  0  0  0  0  0  0  0  0  0
   -2.1466   21.1684  -33.4252 H   0  0  0  0  0  0  0  0  0  0  0  0
   -3.0368   23.0186  -31.2733 H   0  0  0  0  0  0  0  0  0  0  0  0
   -5.0040   24.8340  -27.9390 H   0  0  0  0  0  0  0  0  0  0  0  0
   -4.1957   21.9102  -27.8501 H   0  0  0  0  0  0  0  0  0  0  0  0
   -1.5725   20.1074  -29.9613 H   0  0  0  0  0  0  0  0  0  0  0  0
   -0.0058   20.4528  -29.1492 H   0  0  0  0  0  0  0  0  0  0  0  0
   -0.6460   18.4732  -31.2358 H   0  0  0  0  0  0  0  0  0  0  0  0
    0.9636   19.0656  -30.6301 H   0  0  0  0  0  0  0  0  0  0  0  0
    1.1188   16.6394  -28.0260 H   0  0  0  0  0  0  0  0  0  0  0  0
    1.7622   18.2150  -28.6339 H   0  0  0  0  0  0  0  0  0  0  0  0
   -0.4578   17.6715  -26.7432 H   0  0  0  0  0  0  0  0  0  0  0  0
    0.5135   19.1711  -27.0066 H   0  0  0  0  0  0  0  0  0  0  0  0
    0.1270   21.8563  -27.9570 H   0  0  0  0  0  0  0  0  0  0  0  0
    0.1363   24.1734  -28.8694 H   0  0  0  0  0  0  0  0  0  0  0  0
   -7.3775   22.8073  -31.1712 H   0  0  0  0  0  0  0  0  0  0  0  0
   -7.3004   20.6511  -32.4592 H   0  0  0  0  0  0  0  0  0  0  0  0
  1  2  1  0
  2  3  2  0
  2  4  1  0
  4  5  1  0
  5  6  1  0
  6  7  1  0
  7  8  2  0
  8  9  1  0
  9 10  1  0
 10 11  2  0
 10 12  2  0
 10 13  1  0
 13 14  1  0
 14 15  2  0
 15 16  1  0
 16 17  1  0
 17 18  2  0
 17 19  2  0
 17 20  1  0
 20 21  1  0
 21 22  1  0
 22 23  1  0
 23 24  1  0
 24 25  1  0
 16 26  2  0
 26 27  1  0
 27 28  2  0
 28 29  1  0
  9 30  2  0
 30 31  1  0
 31 32  2  0
 32  4  1  0
 32  7  1  0
 28 14  1  0
 25 20  1  0
  1 33  1  0
  1 34  1  0
  1 35  1  0
  5 36  1  0
  5 37  1  0
  6 38  1  0
  6 39  1  0
  8 40  1  0
 13 41  1  0
 15 42  1  0
 21 43  1  0
 21 44  1  0
 22 45  1  0
 22 46  1  0
 24 47  1  0
 24 48  1  0
 25 49  1  0
 25 50  1  0
 26 51  1  0
 27 52  1  0
 30 53  1  0
 31 54  1  0
M  CHG  1  29  -1
M  END
>  <UniqueID>  (33) 
32

>  <SMILES>  (33) 
CC(=O)N1CCc2cc(S(=O)(=O)Nc3cc(S(=O)(=O)N4CCOCC4)ccc3[O-])ccc21

>  <Energy>  (33) 
80.54388327879514

>  <Genealogy>  (33) 
CC(=O)N1CCc2cc(S(=O)(=O)Nc3cc(S(=O)(=O)N4CCOCC4)ccc3[O-])ccc21 (protonated)
CC(=O)N1CCc2cc(S(=O)(=O)Nc3cc(S(=O)(=O)N4CCOCC4)ccc3[O-])ccc21 (3D coordinates assigned)
CC(=O)N1CCc2cc(S(=O)(=O)Nc3cc(S(=O)(=O)N4CCOCC4)ccc3[O-])ccc21 (nonaromatic ring conformer: 80.54388327879514 kcal/mol)

>  <smiles>  (33) 
CC(=O)N1CCc2cc(S(=O)(=O)Nc3cc(S(=O)(=O)N4CCOCC4)ccc3O)ccc21

>  <score_type>  (33) 
oracle

>  <origin>  (33) 
adgpu

>  <m_score__min__energy>  (33) 
-14.699999999999999

>  <m_primary>  (33) 
energy

$$$$
33:0
     RDKit          3D

 94 99  0  0  0  0  0  0  0  0999 V2000
   -1.2830   15.5050  -36.1420 C   0  0  0  0  0  0  0  0  0  0  0  0
   -1.1510   16.2850  -34.8580 C   0  0  0  0  0  0  0  0  0  0  0  0
   -1.0970   15.6100  -33.6290 C   0  0  0  0  0  0  0  0  0  0  0  0
   -0.9290   16.3210  -32.4300 C   0  0  0  0  0  0  0  0  0  0  0  0
   -0.8190   17.7160  -32.4600 C   0  0  0  0  0  0  0  0  0  0  0  0
   -0.8910   18.4010  -33.6730 C   0  0  0  0  0  0  0  0  0  0  0  0
   -0.7960   19.7970  -33.6880 O   0  0  0  0  0  0  0  0  0  0  0  0
   -1.6240   20.6340  -32.9310 C   0  0  0  0  0  0  0  0  0  0  0  0
   -1.1680   21.2370  -31.7470 C   0  0  0  0  0  0  0  0  0  0  0  0
   -1.9980   22.1000  -31.0330 C   0  0  0  0  0  0  0  0  0  0  0  0
   -3.2860   22.3750  -31.4980 C   0  0  0  0  0  0  0  0  0  0  0  0
   -4.1180   23.3040  -30.7240 C   0  0  0  0  0  0  0  0  0  0  0  0
   -4.7920   24.1820  -31.3260 O   0  0  0  0  0  0  0  0  0  0  0  0
   -4.2290   23.1470  -29.3090 N   0  0  0  0  0  0  0  0  0  0  0  0
   -3.5220   23.9730  -28.3650 C   0  0  0  0  0  0  0  0  0  0  0  0
   -2.1460   24.1890  -28.5350 C   0  0  0  0  0  0  0  0  0  0  0  0
   -1.4230   24.9320  -27.5900 C   0  0  0  0  0  0  0  0  0  0  0  0
   -2.0740   25.4740  -26.4640 C   0  0  0  0  0  0  0  0  0  0  0  0
   -1.3100   26.2320  -25.4580 C   0  0  0  0  0  0  0  0  0  0  0  0
   -1.1340   25.6990  -24.3260 O   0  0  0  0  0  0  0  0  0  0  0  0
   -0.7720   27.5460  -25.7320 N   0  0  0  0  0  0  0  0  0  0  0  0
   -0.4930   27.9440  -27.1240 C   0  0  0  0  0  0  0  0  0  0  0  0
   -0.3700   29.4710  -27.2610 C   0  0  0  0  0  0  0  0  0  0  0  0
    0.5120   30.0690  -26.2440 N   0  0  0  0  0  0  0  0  0  0  0  0
    1.9330   29.7450  -26.4590 C   0  0  0  0  0  0  0  0  0  0  0  0
    0.0510   29.7340  -24.8880 C   0  0  0  0  0  0  0  0  0  0  0  0
   -0.0500   28.2220  -24.6470 C   0  0  0  0  0  0  0  0  0  0  0  0
   -3.4430   25.2410  -26.2800 C   0  0  0  0  0  0  0  0  0  0  0  0
   -4.1590   24.4900  -27.2220 C   0  0  0  0  0  0  0  0  0  0  0  0
   -3.7620   21.7710  -32.6770 C   0  0  0  0  0  0  0  0  0  0  0  0
   -5.0990   21.9350  -33.0680 O   0  0  0  0  0  0  0  0  0  0  0  0
   -6.1760   21.1490  -32.6190 C   0  0  0  0  0  0  0  0  0  0  0  0
   -7.2400   21.7870  -32.0560 N   0  0  0  0  0  0  0  0  0  0  0  0
   -8.3080   21.1310  -31.5370 C   0  0  0  0  0  0  0  0  0  0  0  0
   -9.4530   21.9050  -30.9630 C   0  0  0  0  0  0  0  0  0  0  0  0
   -8.3390   19.7420  -31.5770 C   0  0  0  0  0  0  0  0  0  0  0  0
   -7.2450   19.0460  -32.1030 C   0  0  0  0  0  0  0  0  0  0  0  0
   -6.1460   19.7360  -32.6350 C   0  0  0  0  0  0  0  0  0  0  0  0
   -5.0180   19.0630  -33.1460 O   0  0  0  0  0  0  0  0  0  0  0  0
   -4.9560   18.4700  -34.4430 C   0  0  0  0  0  0  0  0  0  0  0  0
   -5.9870   17.3410  -34.5890 C   0  0  0  0  0  0  0  0  0  0  0  0
   -5.8150   16.2910  -33.4750 C   0  0  0  0  0  0  0  0  0  0  0  0
   -4.4700   15.6660  -33.5250 N   0  0  0  0  0  0  0  0  0  0  0  0
   -4.1830   14.8550  -32.3200 C   0  0  0  0  0  0  0  0  0  0  0  0
   -4.9300   13.5120  -32.3600 C   0  0  0  0  0  0  0  0  0  0  0  0
   -4.5680   12.7730  -33.5030 O   0  0  0  0  0  0  0  0  0  0  0  0
   -4.9410   13.4790  -34.6690 C   0  0  0  0  0  0  0  0  0  0  0  0
   -4.2490   14.8580  -34.7470 C   0  0  0  0  0  0  0  0  0  0  0  0
   -2.9220   20.8920  -33.3840 C   0  0  0  0  0  0  0  0  0  0  0  0
   -1.0530   17.6870  -34.8740 C   0  0  0  0  0  0  0  0  0  0  0  0
   -1.4624   14.4448  -35.9102 H   0  0  0  0  0  0  0  0  0  0  0  0
   -2.1270   15.9005  -36.7262 H   0  0  0  0  0  0  0  0  0  0  0  0
   -0.3559   15.6008  -36.7262 H   0  0  0  0  0  0  0  0  0  0  0  0
   -1.1871   14.5140  -33.6047 H   0  0  0  0  0  0  0  0  0  0  0  0
   -0.8840   15.7839  -31.4711 H   0  0  0  0  0  0  0  0  0  0  0  0
   -0.6752   18.2744  -31.5233 H   0  0  0  0  0  0  0  0  0  0  0  0
   -0.1518   21.0274  -31.3817 H   0  0  0  0  0  0  0  0  0  0  0  0
   -1.6384   22.5646  -30.1030 H   0  0  0  0  0  0  0  0  0  0  0  0
   -1.6315   23.7735  -29.4140 H   0  0  0  0  0  0  0  0  0  0  0  0
   -0.3436   25.0921  -27.7285 H   0  0  0  0  0  0  0  0  0  0  0  0
    0.4505   27.4793  -27.4461 H   0  0  0  0  0  0  0  0  0  0  0  0
   -1.3305   27.6079  -27.7530 H   0  0  0  0  0  0  0  0  0  0  0  0
    0.0355   29.7024  -28.2570 H   0  0  0  0  0  0  0  0  0  0  0  0
   -1.3741   29.8970  -27.1185 H   0  0  0  0  0  0  0  0  0  0  0  0
    2.4342   29.6307  -25.4865 H   0  0  0  0  0  0  0  0  0  0  0  0
    2.0132   28.8055  -27.0255 H   0  0  0  0  0  0  0  0  0  0  0  0
    2.4125   30.5569  -27.0255 H   0  0  0  0  0  0  0  0  0  0  0  0
    0.7598   30.1584  -24.1617 H   0  0  0  0  0  0  0  0  0  0  0  0
   -0.9584   30.1548  -24.7697 H   0  0  0  0  0  0  0  0  0  0  0  0
    0.9649   27.8033  -24.5792 H   0  0  0  0  0  0  0  0  0  0  0  0
   -0.6065   28.0603  -23.7121 H   0  0  0  0  0  0  0  0  0  0  0  0
   -3.9561   25.6476  -25.3960 H   0  0  0  0  0  0  0  0  0  0  0  0
   -5.2316   24.3025  -27.0659 H   0  0  0  0  0  0  0  0  0  0  0  0
   -9.4040   21.8719  -29.8646 H   0  0  0  0  0  0  0  0  0  0  0  0
   -9.3953   22.9501  -31.3012 H   0  0  0  0  0  0  0  0  0  0  0  0
  -10.4013   21.4619  -31.3012 H   0  0  0  0  0  0  0  0  0  0  0  0
   -9.2152   19.1951  -31.1987 H   0  0  0  0  0  0  0  0  0  0  0  0
   -7.2470   17.9460  -32.0992 H   0  0  0  0  0  0  0  0  0  0  0  0
   -5.1596   19.2416  -35.2001 H   0  0  0  0  0  0  0  0  0  0  0  0
   -3.9516   18.0438  -34.5828 H   0  0  0  0  0  0  0  0  0  0  0  0
   -6.9991   17.7676  -34.5284 H   0  0  0  0  0  0  0  0  0  0  0  0
   -5.8343   16.8496  -35.5612 H   0  0  0  0  0  0  0  0  0  0  0  0
   -5.9466   16.7800  -32.4985 H   0  0  0  0  0  0  0  0  0  0  0  0
   -6.5690   15.5035  -33.6212 H   0  0  0  0  0  0  0  0  0  0  0  0
   -3.1014   14.6620  -32.2672 H   0  0  0  0  0  0  0  0  0  0  0  0
   -4.5219   15.4147  -31.4358 H   0  0  0  0  0  0  0  0  0  0  0  0
   -4.6774   12.9317  -31.4603 H   0  0  0  0  0  0  0  0  0  0  0  0
   -6.0113   13.7106  -32.3960 H   0  0  0  0  0  0  0  0  0  0  0  0
   -4.6561   12.8866  -35.5510 H   0  0  0  0  0  0  0  0  0  0  0  0
   -6.0284   13.6419  -34.6385 H   0  0  0  0  0  0  0  0  0  0  0  0
   -3.1678   14.7046  -34.8793 H   0  0  0  0  0  0  0  0  0  0  0  0
   -4.6831   15.4056  -35.5965 H   0  0  0  0  0  0  0  0  0  0  0  0
   -3.2882   20.4041  -34.2993 H   0  0  0  0  0  0  0  0  0  0  0  0
   -1.1032   18.2284  -35.8302 H   0  0  0  0  0  0  0  0  0  0  0  0
  1  2  1  0
  2  3  2  0
  3  4  1  0
  4  5  2  0
  5  6  1  0
  6  7  1  0
  7  8  1  0
  8  9  2  0
  9 10  1  0
 10 11  2  0
 11 12  1  0
 12 13  2  0
 12 14  1  0
 14 15  1  0
 15 16  2  0
 16 17  1  0
 17 18  2  0
 18 19  1  0
 19 20  2  0
 19 21  1  0
 21 22  1  0
 22 23  1  0
 23 24  1  0
 24 25  1  0
 24 26  1  0
 26 27  1  0
 18 28  1  0
 28 29  2  0
 11 30  1  0
 30 31  1  0
 31 32  1  0
 32 33  2  0
 33 34  1  0
 34 35  1  0
 34 36  2  0
 36 37  1  0
 37 38  2  0
 38 39  1  0
 39 40  1  0
 40 41  1  0
 41 42  1  0
 42 43  1  0
 43 44  1  0
 44 45  1  0
 45 46  1  0
 46 47  1  0
 47 48  1  0
 30 49  2  0
  6 50  2  0
 50  2  1  0
 49  8  1  0
 29 15  1  0
 38 32  1  0
 48 43  1  0
 27 21  1  0
  1 51  1  0
  1 52  1  0
  1 53  1  0
  3 54  1  0
  4 55  1  0
  5 56  1  0
  9 57  1  0
 10 58  1  0
 16 59  1  0
 17 60  1  0
 22 61  1  0
 22 62  1  0
 23 63  1  0
 23 64  1  0
 25 65  1  0
 25 66  1  0
 25 67  1  0
 26 68  1  0
 26 69  1  0
 27 70  1  0
 27 71  1  0
 28 72  1  0
 29 73  1  0
 35 74  1  0
 35 75  1  0
 35 76  1  0
 36 77  1  0
 37 78  1  0
 40 79  1  0
 40 80  1  0
 41 81  1  0
 41 82  1  0
 42 83  1  0
 42 84  1  0
 44 85  1  0
 44 86  1  0
 45 87  1  0
 45 88  1  0
 47 89  1  0
 47 90  1  0
 48 91  1  0
 48 92  1  0
 49 93  1  0
 50 94  1  0
M  CHG  1  14  -1
M  END
>  <UniqueID>  (34) 
33

>  <SMILES>  (34) 
Cc1cccc(Oc2ccc(C(=O)[N-]c3ccc(C(=O)N4CCN(C)CC4)cc3)c(Oc3nc(C)ccc3OCCCN3CCOCC3)c2)c1

>  <Energy>  (34) 
150.26440728748008

>  <Genealogy>  (34) 
Cc1cccc(Oc2ccc(C(=O)[N-]c3ccc(C(=O)N4CCN(C)CC4)cc3)c(Oc3nc(C)ccc3OCCCN3CCOCC3)c2)c1 (protonated)
Cc1cccc(Oc2ccc(C(=O)[N-]c3ccc(C(=O)N4CCN(C)CC4)cc3)c(Oc3nc(C)ccc3OCCCN3CCOCC3)c2)c1 (3D coordinates assigned)
Cc1cccc(Oc2ccc(C(=O)[N-]c3ccc(C(=O)N4CCN(C)CC4)cc3)c(Oc3nc(C)ccc3OCCCN3CCOCC3)c2)c1 (nonaromatic ring conformer: 150.26440728748008 kcal/mol)

>  <smiles>  (34) 
Cc1cccc(Oc2ccc(C(=O)Nc3ccc(C(=O)N4CCN(C)CC4)cc3)c(Oc3nc(C)ccc3OCCCN3CCOCC3)c2)c1

>  <score_type>  (34) 
oracle

>  <origin>  (34) 
adgpu

>  <m_score__min__energy>  (34) 
-11.48

>  <m_primary>  (34) 
energy

$$$$
34:0
     RDKit          3D

 44 47  0  0  0  0  0  0  0  0999 V2000
   -2.1370   19.7410  -27.2150 C   0  0  0  0  0  0  0  0  0  0  0  0
   -1.9740   21.2220  -27.2950 C   0  0  0  0  0  0  0  0  0  0  0  0
   -2.1410   21.9910  -28.4290 C   0  0  0  0  0  0  0  0  0  0  0  0
   -1.7980   23.2690  -28.0270 C   0  0  0  0  0  0  0  0  0  0  0  0
   -1.6900   24.4380  -28.9270 C   0  0  0  0  0  0  0  0  0  0  0  0
   -0.5670   24.9760  -29.1120 O   0  0  0  0  0  0  0  0  0  0  0  0
   -2.8160   24.9220  -29.6700 N   0  0  0  0  0  0  0  0  0  0  0  0
   -3.9510   24.1460  -30.0810 C   0  0  0  0  0  0  0  0  0  0  0  0
   -3.7770   23.1230  -31.0160 C   0  0  0  0  0  0  0  0  0  0  0  0
   -4.8700   22.3680  -31.4430 C   0  0  0  0  0  0  0  0  0  0  0  0
   -6.1490   22.6570  -30.9400 C   0  0  0  0  0  0  0  0  0  0  0  0
   -7.2940   21.8960  -31.3580 N   0  0  0  0  0  0  0  0  0  0  0  0
   -7.3200   20.5690  -31.5900 C   0  0  0  0  0  0  0  0  0  0  0  0
   -8.6000   20.2300  -31.9710 C   0  0  0  0  0  0  0  0  0  0  0  0
   -9.0900   18.8850  -32.4000 C   0  0  0  0  0  0  0  0  0  0  0  0
   -8.0850   18.2220  -33.0770 F   0  0  0  0  0  0  0  0  0  0  0  0
   -9.4620   18.1450  -31.2910 F   0  0  0  0  0  0  0  0  0  0  0  0
   -9.3090   21.4160  -31.9700 C   0  0  0  0  0  0  0  0  0  0  0  0
   -8.4930   22.4160  -31.5880 N   0  0  0  0  0  0  0  0  0  0  0  0
   -6.2990   23.6780  -30.0500 N   0  0  0  0  0  0  0  0  0  0  0  0
   -5.2480   24.4240  -29.6190 C   0  0  0  0  0  0  0  0  0  0  0  0
   -1.4410   23.2310  -26.7210 N   0  0  0  0  0  0  0  0  0  0  0  0
   -1.0550   24.3280  -25.8770 C   0  0  0  0  0  0  0  0  0  0  0  0
   -1.9740   25.3510  -25.5960 C   0  0  0  0  0  0  0  0  0  0  0  0
   -1.5990   26.4380  -24.7990 C   0  0  0  0  0  0  0  0  0  0  0  0
   -0.3020   26.5170  -24.2890 C   0  0  0  0  0  0  0  0  0  0  0  0
    0.6270   25.5150  -24.5820 C   0  0  0  0  0  0  0  0  0  0  0  0
    1.8920   25.6000  -24.1000 F   0  0  0  0  0  0  0  0  0  0  0  0
    0.2560   24.4260  -25.3790 C   0  0  0  0  0  0  0  0  0  0  0  0
   -1.5370   21.9860  -26.2770 N   0  0  0  0  0  0  0  0  0  0  0  0
   -2.1710   19.4323  -26.1597 H   0  0  0  0  0  0  0  0  0  0  0  0
   -3.0729   19.4477  -27.7131 H   0  0  0  0  0  0  0  0  0  0  0  0
   -1.2873   19.2512  -27.7131 H   0  0  0  0  0  0  0  0  0  0  0  0
   -2.4716   21.6623  -29.4253 H   0  0  0  0  0  0  0  0  0  0  0  0
   -2.7748   22.9118  -31.4171 H   0  0  0  0  0  0  0  0  0  0  0  0
   -4.7309   21.5526  -32.1681 H   0  0  0  0  0  0  0  0  0  0  0  0
   -6.4695   19.8782  -31.4925 H   0  0  0  0  0  0  0  0  0  0  0  0
   -9.9598   19.0117  -33.0613 H   0  0  0  0  0  0  0  0  0  0  0  0
  -10.3701   21.5254  -32.2384 H   0  0  0  0  0  0  0  0  0  0  0  0
   -5.4132   25.2465  -28.9075 H   0  0  0  0  0  0  0  0  0  0  0  0
   -2.9940   25.2978  -26.0044 H   0  0  0  0  0  0  0  0  0  0  0  0
   -2.3271   27.2313  -24.5740 H   0  0  0  0  0  0  0  0  0  0  0  0
   -0.0111   27.3684  -23.6562 H   0  0  0  0  0  0  0  0  0  0  0  0
    0.9926   23.6443  -25.6165 H   0  0  0  0  0  0  0  0  0  0  0  0
  1  2  1  0
  2  3  1  0
  3  4  2  0
  4  5  1  0
  5  6  2  0
  5  7  1  0
  7  8  1  0
  8  9  2  0
  9 10  1  0
 10 11  2  0
 11 12  1  0
 12 13  1  0
 13 14  2  0
 14 15  1  0
 15 16  1  0
 15 17  1  0
 14 18  1  0
 18 19  2  0
 11 20  1  0
 20 21  2  0
  4 22  1  0
 22 23  1  0
 23 24  2  0
 24 25  1  0
 25 26  2  0
 26 27  1  0
 27 28  1  0
 27 29  2  0
 22 30  1  0
 30  2  2  0
 21  8  1  0
 29 23  1  0
 19 12  1  0
  1 31  1  0
  1 32  1  0
  1 33  1  0
  3 34  1  0
  9 35  1  0
 10 36  1  0
 13 37  1  0
 15 38  1  0
 18 39  1  0
 21 40  1  0
 24 41  1  0
 25 42  1  0
 26 43  1  0
 29 44  1  0
M  CHG  1   7  -1
M  END
>  <UniqueID>  (35) 
34

>  <SMILES>  (35) 
Cc1cc(C(=O)[N-]c2ccc(-n3cc(C(F)F)cn3)nc2)n(-c2cccc(F)c2)n1

>  <Energy>  (35) 
118.56440805534106

>  <Genealogy>  (35) 
Cc1cc(C(=O)[N-]c2ccc(-n3cc(C(F)F)cn3)nc2)n(-c2cccc(F)c2)n1 (protonated)
Cc1cc(C(=O)[N-]c2ccc(-n3cc(C(F)F)cn3)nc2)n(-c2cccc(F)c2)n1 (3D coordinates assigned)
Cc1cc(C(=O)[N-]c2ccc(-n3cc(C(F)F)cn3)nc2)n(-c2cccc(F)c2)n1 (optimized conformer: 118.56440805534106 kcal/mol)

>  <smiles>  (35) 
Cc1cc(C(=O)Nc2ccc(-n3cc(C(F)F)cn3)nc2)n(-c2cccc(F)c2)n1

>  <score_type>  (35) 
oracle

>  <origin>  (35) 
adgpu

>  <m_score__min__energy>  (35) 
-9.7400000000000002

>  <m_primary>  (35) 
energy

$$$$
35:0
     RDKit          3D

 47 49  0  0  0  0  0  0  0  0999 V2000
   -4.9600   24.4940  -28.5700 N   0  0  0  0  0  0  0  0  0  0  0  0
   -4.9160   24.4120  -30.2980 S   0  0  0  0  0  0  0  0  0  0  0  0
   -6.3190   24.4530  -30.8390 O   0  0  0  0  0  0  0  0  0  0  0  0
   -4.1520   25.5880  -30.8400 O   0  0  0  0  0  0  0  0  0  0  0  0
   -4.1210   22.9190  -30.7900 C   0  0  0  0  0  0  0  0  0  0  0  0
   -3.8890   22.6710  -32.1490 C   0  0  0  0  0  0  0  0  0  0  0  0
   -3.2390   21.5000  -32.5500 C   0  0  0  0  0  0  0  0  0  0  0  0
   -2.8140   20.5630  -31.5940 C   0  0  0  0  0  0  0  0  0  0  0  0
   -2.0430   19.3420  -32.0150 C   0  0  0  0  0  0  0  0  0  0  0  0
   -2.6390   18.7600  -33.2170 N   0  0  0  0  0  0  0  0  0  0  0  0
   -3.3440   17.5060  -33.2060 C   0  0  0  0  0  0  0  0  0  0  0  0
   -2.6920   16.3420  -32.7670 C   0  0  0  0  0  0  0  0  0  0  0  0
   -3.3500   15.1130  -32.7710 C   0  0  0  0  0  0  0  0  0  0  0  0
   -4.6730   15.0140  -33.2260 C   0  0  0  0  0  0  0  0  0  0  0  0
   -5.3520   13.7430  -33.2420 N   0  0  0  0  0  0  0  0  0  0  0  0
   -5.1890   12.9240  -32.3140 O   0  0  0  0  0  0  0  0  0  0  0  0
   -6.1850   13.4080  -34.2850 O   0  0  0  0  0  0  0  0  0  0  0  0
   -5.3280   16.1740  -33.6680 C   0  0  0  0  0  0  0  0  0  0  0  0
   -4.6820   17.4230  -33.6530 C   0  0  0  0  0  0  0  0  0  0  0  0
   -5.5740   18.8620  -34.1710 S   0  0  0  0  0  0  0  0  0  0  0  0
   -6.1220   18.6340  -35.5530 O   0  0  0  0  0  0  0  0  0  0  0  0
   -4.6630   20.0570  -34.2020 O   0  0  0  0  0  0  0  0  0  0  0  0
   -6.8910   19.2250  -33.0570 C   0  0  0  0  0  0  0  0  0  0  0  0
   -7.1560   20.5560  -32.7000 C   0  0  0  0  0  0  0  0  0  0  0  0
   -8.1890   20.8510  -31.8030 C   0  0  0  0  0  0  0  0  0  0  0  0
   -8.9570   19.8180  -31.2560 C   0  0  0  0  0  0  0  0  0  0  0  0
   -8.6900   18.4900  -31.6040 C   0  0  0  0  0  0  0  0  0  0  0  0
   -7.6590   18.1920  -32.5000 C   0  0  0  0  0  0  0  0  0  0  0  0
   -3.0410   20.8180  -30.2330 C   0  0  0  0  0  0  0  0  0  0  0  0
   -3.6900   21.9900  -29.8330 C   0  0  0  0  0  0  0  0  0  0  0  0
   -4.7750   25.4870  -28.3050 H   0  0  0  0  0  0  0  0  0  0  0  0
   -5.9410   24.2820  -28.2800 H   0  0  0  0  0  0  0  0  0  0  0  0
   -4.2194   23.4002  -32.9034 H   0  0  0  0  0  0  0  0  0  0  0  0
   -3.0597   21.3117  -33.6188 H   0  0  0  0  0  0  0  0  0  0  0  0
   -1.0011   19.6247  -32.2260 H   0  0  0  0  0  0  0  0  0  0  0  0
   -2.0729   18.6002  -31.2034 H   0  0  0  0  0  0  0  0  0  0  0  0
   -2.6350   19.3330  -34.0890 H   0  0  0  0  0  0  0  0  0  0  0  0
   -1.6511   16.4008  -32.4163 H   0  0  0  0  0  0  0  0  0  0  0  0
   -2.8272   14.2133  -32.4143 H   0  0  0  0  0  0  0  0  0  0  0  0
   -6.3637   16.1050  -34.0321 H   0  0  0  0  0  0  0  0  0  0  0  0
   -6.5504   21.3694  -33.1262 H   0  0  0  0  0  0  0  0  0  0  0  0
   -8.3969   21.8956  -31.5281 H   0  0  0  0  0  0  0  0  0  0  0  0
   -9.7704   20.0499  -30.5527 H   0  0  0  0  0  0  0  0  0  0  0  0
   -9.2928   17.6778  -31.1716 H   0  0  0  0  0  0  0  0  0  0  0  0
   -7.4499   17.1460  -32.7685 H   0  0  0  0  0  0  0  0  0  0  0  0
   -2.7067   20.0922  -29.4770 H   0  0  0  0  0  0  0  0  0  0  0  0
   -3.8629   22.1836  -28.7641 H   0  0  0  0  0  0  0  0  0  0  0  0
  1  2  1  0
  2  3  2  0
  2  4  2  0
  2  5  1  0
  5  6  2  0
  6  7  1  0
  7  8  2  0
  8  9  1  0
  9 10  1  0
 10 11  1  0
 11 12  2  0
 12 13  1  0
 13 14  2  0
 14 15  1  0
 15 16  2  0
 15 17  1  0
 14 18  1  0
 18 19  2  0
 19 20  1  0
 20 21  2  0
 20 22  2  0
 20 23  1  0
 23 24  2  0
 24 25  1  0
 25 26  2  0
 26 27  1  0
 27 28  2  0
  8 29  1  0
 29 30  2  0
 30  5  1  0
 19 11  1  0
 28 23  1  0
  1 31  1  0
  1 32  1  0
  6 33  1  0
  7 34  1  0
  9 35  1  0
  9 36  1  0
 10 37  1  0
 12 38  1  0
 13 39  1  0
 18 40  1  0
 24 41  1  0
 25 42  1  0
 26 43  1  0
 27 44  1  0
 28 45  1  0
 29 46  1  0
 30 47  1  0
M  CHG  2  15   1  17  -1
M  END
>  <UniqueID>  (36) 
35

>  <SMILES>  (36) 
NS(=O)(=O)c1ccc(CNc2ccc([N+](=O)[O-])cc2S(=O)(=O)c2ccccc2)cc1

>  <Energy>  (36) 
52.851325660119635

>  <Genealogy>  (36) 
NS(=O)(=O)c1ccc(CNc2ccc([N+](=O)[O-])cc2S(=O)(=O)c2ccccc2)cc1 (3D coordinates assigned)
NS(=O)(=O)c1ccc(CNc2ccc([N+](=O)[O-])cc2S(=O)(=O)c2ccccc2)cc1 (optimized conformer: 52.851325660119635 kcal/mol)

>  <smiles>  (36) 
NS(=O)(=O)c1ccc(CNc2ccc([N+](=O)[O-])cc2S(=O)(=O)c2ccccc2)cc1

>  <score_type>  (36) 
oracle

>  <origin>  (36) 
adgpu

>  <m_score__min__energy>  (36) 
-10.529999999999999

>  <m_primary>  (36) 
energy

$$$$
36:0
     RDKit          3D

 44 46  0  0  0  0  0  0  0  0999 V2000
    0.3400   22.8840  -35.2970 N   0  0  0  0  0  0  0  0  0  0  0  0
    0.4410   21.2420  -34.7640 S   0  0  0  0  0  0  0  0  0  0  0  0
    0.5910   20.3540  -35.9670 O   0  0  0  0  0  0  0  0  0  0  0  0
    1.6380   21.0780  -33.8720 O   0  0  0  0  0  0  0  0  0  0  0  0
   -1.0150   20.8120  -33.8740 C   0  0  0  0  0  0  0  0  0  0  0  0
   -1.9570   19.9400  -34.4380 C   0  0  0  0  0  0  0  0  0  0  0  0
   -3.1140   19.6050  -33.7300 C   0  0  0  0  0  0  0  0  0  0  0  0
   -3.3290   20.1240  -32.4490 C   0  0  0  0  0  0  0  0  0  0  0  0
   -2.3750   20.9740  -31.8620 C   0  0  0  0  0  0  0  0  0  0  0  0
   -2.5650   21.5450  -30.5590 N   0  0  0  0  0  0  0  0  0  0  0  0
   -3.0210   22.8720  -30.2630 C   0  0  0  0  0  0  0  0  0  0  0  0
   -2.2170   23.7150  -29.7780 O   0  0  0  0  0  0  0  0  0  0  0  0
   -4.4160   23.2840  -30.5810 C   0  0  0  0  0  0  0  0  0  0  0  0
   -5.3990   22.2960  -30.7880 C   0  0  0  0  0  0  0  0  0  0  0  0
   -6.7230   22.6480  -31.0830 C   0  0  0  0  0  0  0  0  0  0  0  0
   -7.9500   21.4090  -31.3340 S   0  0  0  0  0  0  0  0  0  0  0  0
   -8.8190   21.7730  -32.5070 O   0  0  0  0  0  0  0  0  0  0  0  0
   -8.8040   21.3150  -30.1010 O   0  0  0  0  0  0  0  0  0  0  0  0
   -7.1700   19.8740  -31.6230 N   0  0  0  0  0  0  0  0  0  0  0  0
   -6.5470   19.8340  -32.9460 C   0  0  0  0  0  0  0  0  0  0  0  0
   -6.5340   18.3750  -33.3780 C   0  0  0  0  0  0  0  0  0  0  0  0
   -7.5540   17.6800  -32.4890 C   0  0  0  0  0  0  0  0  0  0  0  0
   -8.1360   18.7760  -31.6130 C   0  0  0  0  0  0  0  0  0  0  0  0
   -7.0750   23.9970  -31.1840 C   0  0  0  0  0  0  0  0  0  0  0  0
   -6.1150   24.9880  -30.9850 C   0  0  0  0  0  0  0  0  0  0  0  0
   -4.7920   24.6450  -30.6860 C   0  0  0  0  0  0  0  0  0  0  0  0
   -3.8680   25.6690  -30.5060 O   0  0  0  0  0  0  0  0  0  0  0  0
   -1.2300   21.3260  -32.5890 C   0  0  0  0  0  0  0  0  0  0  0  0
   -0.6100   23.0130  -35.7120 H   0  0  0  0  0  0  0  0  0  0  0  0
   -1.7849   19.5189  -35.4395 H   0  0  0  0  0  0  0  0  0  0  0  0
   -3.8576   18.9315  -34.1811 H   0  0  0  0  0  0  0  0  0  0  0  0
   -4.2465   19.8666  -31.8995 H   0  0  0  0  0  0  0  0  0  0  0  0
   -5.1233   21.2335  -30.7171 H   0  0  0  0  0  0  0  0  0  0  0  0
   -7.1307   20.4353  -33.6585 H   0  0  0  0  0  0  0  0  0  0  0  0
   -5.5281   20.2476  -32.9167 H   0  0  0  0  0  0  0  0  0  0  0  0
   -6.8210   18.2846  -34.4360 H   0  0  0  0  0  0  0  0  0  0  0  0
   -5.5337   17.9284  -33.2785 H   0  0  0  0  0  0  0  0  0  0  0  0
   -8.3426   17.2146  -33.0986 H   0  0  0  0  0  0  0  0  0  0  0  0
   -7.0975   16.8770  -31.8917 H   0  0  0  0  0  0  0  0  0  0  0  0
   -9.1004   19.1149  -32.0192 H   0  0  0  0  0  0  0  0  0  0  0  0
   -8.3152   18.4138  -30.5899 H   0  0  0  0  0  0  0  0  0  0  0  0
   -8.1119   24.2772  -31.4211 H   0  0  0  0  0  0  0  0  0  0  0  0
   -6.3998   26.0476  -31.0636 H   0  0  0  0  0  0  0  0  0  0  0  0
   -0.4932   22.0124  -32.1464 H   0  0  0  0  0  0  0  0  0  0  0  0
  1  2  1  0
  2  3  2  0
  2  4  2  0
  2  5  1  0
  5  6  2  0
  6  7  1  0
  7  8  2  0
  8  9  1  0
  9 10  1  0
 10 11  1  0
 11 12  2  0
 11 13  1  0
 13 14  2  0
 14 15  1  0
 15 16  1  0
 16 17  2  0
 16 18  2  0
 16 19  1  0
 19 20  1  0
 20 21  1  0
 21 22  1  0
 22 23  1  0
 15 24  2  0
 24 25  1  0
 25 26  2  0
 26 27  1  0
  9 28  2  0
 28  5  1  0
 26 13  1  0
 23 19  1  0
  1 29  1  0
  6 30  1  0
  7 31  1  0
  8 32  1  0
 14 33  1  0
 20 34  1  0
 20 35  1  0
 21 36  1  0
 21 37  1  0
 22 38  1  0
 22 39  1  0
 23 40  1  0
 23 41  1  0
 24 42  1  0
 25 43  1  0
 28 44  1  0
M  CHG  3   1  -1  10  -1  27  -1
M  END
>  <UniqueID>  (37) 
36

>  <SMILES>  (37) 
[NH-]S(=O)(=O)c1cccc([N-]C(=O)c2cc(S(=O)(=O)N3CCCC3)ccc2[O-])c1

>  <Energy>  (37) 
52.203947199159124

>  <Genealogy>  (37) 
[NH-]S(=O)(=O)c1cccc([N-]C(=O)c2cc(S(=O)(=O)N3CCCC3)ccc2[O-])c1 (protonated)
[NH-]S(=O)(=O)c1cccc([N-]C(=O)c2cc(S(=O)(=O)N3CCCC3)ccc2[O-])c1 (3D coordinates assigned)
[NH-]S(=O)(=O)c1cccc([N-]C(=O)c2cc(S(=O)(=O)N3CCCC3)ccc2[O-])c1 (nonaromatic ring conformer: 52.203947199159124 kcal/mol)

>  <smiles>  (37) 
NS(=O)(=O)c1cccc(NC(=O)c2cc(S(=O)(=O)N3CCCC3)ccc2O)c1

>  <score_type>  (37) 
oracle

>  <origin>  (37) 
adgpu

>  <m_score__min__energy>  (37) 
-15.15

>  <m_primary>  (37) 
energy

$$$$
37:0
     RDKit          3D

 52 54  0  0  0  0  0  0  0  0999 V2000
   -4.6510   17.2710  -35.3390 C   0  0  0  0  0  0  0  0  0  0  0  0
   -5.7390   18.2540  -34.9200 C   0  0  0  0  0  0  0  0  0  0  0  0
   -5.4400   18.8250  -33.6020 N   0  0  0  0  0  0  0  0  0  0  0  0
   -4.2490   19.6020  -33.3910 C   0  0  0  0  0  0  0  0  0  0  0  0
   -3.0140   18.9600  -33.2010 C   0  0  0  0  0  0  0  0  0  0  0  0
   -1.8510   19.7140  -33.0120 C   0  0  0  0  0  0  0  0  0  0  0  0
   -1.9130   21.1120  -33.0100 C   0  0  0  0  0  0  0  0  0  0  0  0
   -3.1400   21.7570  -33.1950 C   0  0  0  0  0  0  0  0  0  0  0  0
   -4.3050   21.0060  -33.3820 C   0  0  0  0  0  0  0  0  0  0  0  0
   -6.5580   18.5830  -32.2930 S   0  0  0  0  0  0  0  0  0  0  0  0
   -5.8130   18.3140  -31.0140 O   0  0  0  0  0  0  0  0  0  0  0  0
   -7.4320   17.4010  -32.6030 O   0  0  0  0  0  0  0  0  0  0  0  0
   -7.5210   20.0410  -32.0800 C   0  0  0  0  0  0  0  0  0  0  0  0
   -8.9040   19.9900  -32.2960 C   0  0  0  0  0  0  0  0  0  0  0  0
   -9.6900   21.1230  -32.0830 C   0  0  0  0  0  0  0  0  0  0  0  0
   -9.1000   22.3150  -31.6530 C   0  0  0  0  0  0  0  0  0  0  0  0
   -7.7120   22.3880  -31.4480 C   0  0  0  0  0  0  0  0  0  0  0  0
   -7.1320   23.6200  -30.9870 N   0  0  0  0  0  0  0  0  0  0  0  0
   -5.8390   24.0990  -31.3940 C   0  0  0  0  0  0  0  0  0  0  0  0
   -5.2800   23.6030  -32.4100 O   0  0  0  0  0  0  0  0  0  0  0  0
   -5.1860   25.1940  -30.6370 C   0  0  0  0  0  0  0  0  0  0  0  0
   -5.9090   26.0760  -30.1020 O   0  0  0  0  0  0  0  0  0  0  0  0
   -3.7630   25.2980  -30.4740 N   0  0  0  0  0  0  0  0  0  0  0  0
   -2.9830   24.7990  -29.3480 C   0  0  0  0  0  0  0  0  0  0  0  0
   -2.6430   23.3540  -29.5800 C   0  0  0  0  0  0  0  0  0  0  0  0
   -3.6530   22.3810  -29.6350 C   0  0  0  0  0  0  0  0  0  0  0  0
   -3.3070   21.0400  -29.8290 C   0  0  0  0  0  0  0  0  0  0  0  0
   -2.0010   20.6850  -29.9570 N   0  0  0  0  0  0  0  0  0  0  0  0
   -1.0000   21.6060  -29.8970 C   0  0  0  0  0  0  0  0  0  0  0  0
   -1.3020   22.9570  -29.7060 C   0  0  0  0  0  0  0  0  0  0  0  0
   -6.9280   21.2380  -31.6490 C   0  0  0  0  0  0  0  0  0  0  0  0
   -4.1780   16.8436  -34.4426 H   0  0  0  0  0  0  0  0  0  0  0  0
   -5.0972   16.4637  -35.9383 H   0  0  0  0  0  0  0  0  0  0  0  0
   -3.8930   17.7966  -35.9383 H   0  0  0  0  0  0  0  0  0  0  0  0
   -5.7977   19.0653  -35.6605 H   0  0  0  0  0  0  0  0  0  0  0  0
   -6.6983   17.7186  -34.8649 H   0  0  0  0  0  0  0  0  0  0  0  0
   -2.9613   17.8613  -33.2008 H   0  0  0  0  0  0  0  0  0  0  0  0
   -0.8860   19.2071  -32.8647 H   0  0  0  0  0  0  0  0  0  0  0  0
   -0.9971   21.7033  -32.8630 H   0  0  0  0  0  0  0  0  0  0  0  0
   -3.1889   22.8559  -33.1934 H   0  0  0  0  0  0  0  0  0  0  0  0
   -5.2691   21.5166  -33.5226 H   0  0  0  0  0  0  0  0  0  0  0  0
   -9.3719   19.0538  -32.6346 H   0  0  0  0  0  0  0  0  0  0  0  0
  -10.7757   21.0781  -32.2537 H   0  0  0  0  0  0  0  0  0  0  0  0
   -9.7263   23.2014  -31.4740 H   0  0  0  0  0  0  0  0  0  0  0  0
   -7.7250   24.2450  -30.3940 H   0  0  0  0  0  0  0  0  0  0  0  0
   -2.0562   25.3841  -29.2552 H   0  0  0  0  0  0  0  0  0  0  0  0
   -3.5695   24.8952  -28.4224 H   0  0  0  0  0  0  0  0  0  0  0  0
   -4.7085   22.6710  -29.5264 H   0  0  0  0  0  0  0  0  0  0  0  0
   -4.0925   20.2715  -29.8781 H   0  0  0  0  0  0  0  0  0  0  0  0
    0.0476   21.2863  -29.9990 H   0  0  0  0  0  0  0  0  0  0  0  0
   -0.4957   23.7035  -29.6548 H   0  0  0  0  0  0  0  0  0  0  0  0
   -5.8438   21.2767  -31.4674 H   0  0  0  0  0  0  0  0  0  0  0  0
  1  2  1  0
  2  3  1  0
  3  4  1  0
  4  5  2  0
  5  6  1  0
  6  7  2  0
  7  8  1  0
  8  9  2  0
  3 10  1  0
 10 11  2  0
 10 12  2  0
 10 13  1  0
 13 14  2  0
 14 15  1  0
 15 16  2  0
 16 17  1  0
 17 18  1  0
 18 19  1  0
 19 20  2  0
 19 21  1  0
 21 22  2  0
 21 23  1  0
 23 24  1  0
 24 25  1  0
 25 26  2  0
 26 27  1  0
 27 28  2  0
 28 29  1  0
 29 30  2  0
 17 31  2  0
  9  4  1  0
 31 13  1  0
 30 25  1  0
  1 32  1  0
  1 33  1  0
  1 34  1  0
  2 35  1  0
  2 36  1  0
  5 37  1  0
  6 38  1  0
  7 39  1  0
  8 40  1  0
  9 41  1  0
 14 42  1  0
 15 43  1  0
 16 44  1  0
 18 45  1  0
 24 46  1  0
 24 47  1  0
 26 48  1  0
 27 49  1  0
 29 50  1  0
 30 51  1  0
 31 52  1  0
M  CHG  1  23  -1
M  END
>  <UniqueID>  (38) 
37

>  <SMILES>  (38) 
CCN(c1ccccc1)S(=O)(=O)c1cccc(NC(=O)C(=O)[N-]Cc2ccncc2)c1

>  <Energy>  (38) 
60.068186993599554

>  <Genealogy>  (38) 
CCN(c1ccccc1)S(=O)(=O)c1cccc(NC(=O)C(=O)[N-]Cc2ccncc2)c1 (protonated)
CCN(c1ccccc1)S(=O)(=O)c1cccc(NC(=O)C(=O)[N-]Cc2ccncc2)c1 (3D coordinates assigned)
CCN(c1ccccc1)S(=O)(=O)c1cccc(NC(=O)C(=O)[N-]Cc2ccncc2)c1 (optimized conformer: 60.068186993599554 kcal/mol)

>  <smiles>  (38) 
CCN(c1ccccc1)S(=O)(=O)c1cccc(NC(=O)C(=O)NCc2ccncc2)c1

>  <score_type>  (38) 
oracle

>  <origin>  (38) 
adgpu

>  <m_score__min__energy>  (38) 
-10.960000000000001

>  <m_primary>  (38) 
energy

$$$$
38:0
     RDKit          3D

 35 35  0  0  0  0  0  0  0  0999 V2000
   -1.0540   25.9720  -25.4380 C   0  0  0  0  0  0  0  0  0  0  0  0
   -1.5360   26.2690  -26.6470 C   0  0  0  0  0  0  0  0  0  0  0  0
   -0.6910   26.1460  -27.8790 C   0  0  0  0  0  0  0  0  0  0  0  0
   -1.5000   25.6200  -28.9750 N   0  0  0  0  0  0  0  0  0  0  0  0
   -2.1990   24.0980  -28.5140 S   0  0  0  0  0  0  0  0  0  0  0  0
   -3.6020   24.3490  -28.0340 O   0  0  0  0  0  0  0  0  0  0  0  0
   -1.4130   23.4690  -27.3970 O   0  0  0  0  0  0  0  0  0  0  0  0
   -2.2280   22.9960  -29.9040 C   0  0  0  0  0  0  0  0  0  0  0  0
   -1.1440   22.1190  -30.0660 C   0  0  0  0  0  0  0  0  0  0  0  0
   -1.0980   21.2100  -31.1260 C   0  0  0  0  0  0  0  0  0  0  0  0
    0.3030   20.1520  -31.2570 S   0  0  0  0  0  0  0  0  0  0  0  0
    0.9210   20.1430  -32.8190 O   0  0  0  0  0  0  0  0  0  0  0  0
   -0.0500   18.5970  -30.7320 O   0  0  0  0  0  0  0  0  0  0  0  0
   -2.1560   21.1590  -32.0510 C   0  0  0  0  0  0  0  0  0  0  0  0
   -2.1470   20.0130  -33.4020 S   0  0  0  0  0  0  0  0  0  0  0  0
   -1.5230   18.4770  -32.9100 N   0  0  0  0  0  0  0  0  0  0  0  0
   -3.5510   19.8240  -33.9030 O   0  0  0  0  0  0  0  0  0  0  0  0
   -1.2850   20.5500  -34.5110 O   0  0  0  0  0  0  0  0  0  0  0  0
   -3.2340   22.0430  -31.9040 C   0  0  0  0  0  0  0  0  0  0  0  0
   -3.2820   22.9720  -30.8530 C   0  0  0  0  0  0  0  0  0  0  0  0
   -4.6940   24.0450  -30.7660 S   0  0  0  0  0  0  0  0  0  0  0  0
   -4.1880   25.6820  -30.5230 N   0  0  0  0  0  0  0  0  0  0  0  0
   -5.5870   23.6660  -29.6190 O   0  0  0  0  0  0  0  0  0  0  0  0
   -5.4630   23.9680  -32.0540 O   0  0  0  0  0  0  0  0  0  0  0  0
   -1.6960   26.0712  -24.5503 H   0  0  0  0  0  0  0  0  0  0  0  0
   -0.0148   25.6281  -25.3295 H   0  0  0  0  0  0  0  0  0  0  0  0
   -2.5770   26.6118  -26.7413 H   0  0  0  0  0  0  0  0  0  0  0  0
   -0.2993   27.1361  -28.1551 H   0  0  0  0  0  0  0  0  0  0  0  0
    0.1471   25.4616  -27.6813 H   0  0  0  0  0  0  0  0  0  0  0  0
   -0.3144   22.1480  -29.3442 H   0  0  0  0  0  0  0  0  0  0  0  0
    0.2660   19.6160  -33.3410 H   0  0  0  0  0  0  0  0  0  0  0  0
   -0.4930   18.1690  -31.5070 H   0  0  0  0  0  0  0  0  0  0  0  0
   -0.4870   18.5830  -32.8160 H   0  0  0  0  0  0  0  0  0  0  0  0
   -4.0608   22.0078  -32.6286 H   0  0  0  0  0  0  0  0  0  0  0  0
   -3.4910   25.6740  -29.7470 H   0  0  0  0  0  0  0  0  0  0  0  0
  1  2  2  0
  2  3  1  0
  3  4  1  0
  4  5  1  0
  5  6  2  0
  5  7  2  0
  5  8  1  0
  8  9  2  0
  9 10  1  0
 10 11  1  0
 11 12  1  0
 11 13  1  0
 10 14  2  0
 14 15  1  0
 15 16  1  0
 15 17  2  0
 15 18  2  0
 14 19  1  0
 19 20  2  0
 20 21  1  0
 21 22  1  0
 21 23  2  0
 21 24  2  0
 20  8  1  0
  1 25  1  0
  1 26  1  0
  2 27  1  0
  3 28  1  0
  3 29  1  0
  9 30  1  0
 12 31  1  0
 13 32  1  0
 16 33  1  0
 19 34  1  0
 22 35  1  0
M  CHG  4   4  -1  11   1  16  -1  22  -1
M  END
>  <UniqueID>  (39) 
38

>  <SMILES>  (39) 
C=CC[N-]S(=O)(=O)c1cc([S+](O)O)c(S([NH-])(=O)=O)cc1S([NH-])(=O)=O

>  <Energy>  (39) 
32.420421368462854

>  <Genealogy>  (39) 
C=CC[N-]S(=O)(=O)c1cc([S+](O)O)c(S([NH-])(=O)=O)cc1S([NH-])(=O)=O (protonated)
C=CC[N-]S(=O)(=O)c1cc([S+](O)O)c(S([NH-])(=O)=O)cc1S([NH-])(=O)=O (3D coordinates assigned)
C=CC[N-]S(=O)(=O)c1cc([S+](O)O)c(S([NH-])(=O)=O)cc1S([NH-])(=O)=O (optimized conformer: 32.420421368462854 kcal/mol)

>  <smiles>  (39) 
C=CCNS(=O)(=O)c1cc([S+]([O-])[O-])c(S(N)(=O)=O)cc1S(N)(=O)=O

>  <score_type>  (39) 
oracle

>  <origin>  (39) 
adgpu

>  <m_score__min__energy>  (39) 
-9.1500000000000004

>  <m_primary>  (39) 
energy

$$$$
39:0
     RDKit          3D

 72 76  0  0  0  0  0  0  0  0999 V2000
    0.6380   20.1010  -31.1180 C   0  0  0  0  0  0  0  0  0  0  0  0
   -0.7100   19.9490  -31.6930 N   0  0  2  0  0  0  0  0  0  0  0  0
   -0.8030   18.6710  -32.4260 C   0  0  0  0  0  0  0  0  0  0  0  0
   -2.2330   18.4500  -32.9200 C   0  0  0  0  0  0  0  0  0  0  0  0
   -2.6930   19.5870  -33.8650 C   0  0  1  0  0  0  0  0  0  0  0  0
   -4.1120   19.9890  -33.6730 N   0  0  0  0  0  0  0  0  0  0  0  0
   -4.4690   20.5450  -32.3410 C   0  0  0  0  0  0  0  0  0  0  0  0
   -5.5060   19.6900  -31.5870 C   0  0  0  0  0  0  0  0  0  0  0  0
   -6.7160   19.4000  -32.3900 N   0  0  0  0  0  0  0  0  0  0  0  0
   -8.0730   20.4150  -31.9460 S   0  0  0  0  0  0  0  0  0  0  0  0
   -9.0550   20.5380  -33.0780 O   0  0  0  0  0  0  0  0  0  0  0  0
   -8.7920   19.8440  -30.7540 O   0  0  0  0  0  0  0  0  0  0  0  0
   -7.4440   22.0050  -31.5300 C   0  0  0  0  0  0  0  0  0  0  0  0
   -6.8950   22.8240  -32.5250 C   0  0  0  0  0  0  0  0  0  0  0  0
   -6.2530   24.0180  -32.1800 C   0  0  0  0  0  0  0  0  0  0  0  0
   -6.1740   24.4160  -30.8380 C   0  0  0  0  0  0  0  0  0  0  0  0
   -5.2950   25.5710  -30.4420 C   0  0  0  0  0  0  0  0  0  0  0  0
   -3.9000   25.2350  -30.7060 N   0  0  0  0  0  0  0  0  0  0  0  0
   -3.4000   23.9150  -30.4740 C   0  0  0  0  0  0  0  0  0  0  0  0
   -3.4700   23.0550  -31.3930 O   0  0  0  0  0  0  0  0  0  0  0  0
   -2.7440   23.5980  -29.1940 C   0  0  0  0  0  0  0  0  0  0  0  0
   -2.5710   24.5750  -28.2030 C   0  0  0  0  0  0  0  0  0  0  0  0
   -2.0230   24.2120  -26.9730 C   0  0  0  0  0  0  0  0  0  0  0  0
   -1.6320   22.8920  -26.7440 C   0  0  0  0  0  0  0  0  0  0  0  0
   -1.7860   21.9360  -27.7640 C   0  0  0  0  0  0  0  0  0  0  0  0
   -1.3580   20.5240  -27.5860 C   0  0  0  0  0  0  0  0  0  0  0  0
   -0.0760   20.1190  -27.9960 C   0  0  0  0  0  0  0  0  0  0  0  0
    0.3310   18.7940  -27.8320 C   0  0  0  0  0  0  0  0  0  0  0  0
   -0.5380   17.8810  -27.2380 C   0  0  0  0  0  0  0  0  0  0  0  0
   -1.7640   18.2850  -26.8180 N   0  0  0  0  0  0  0  0  0  0  0  0
   -2.1930   19.5660  -26.9780 C   0  0  0  0  0  0  0  0  0  0  0  0
   -2.3520   22.3180  -28.9440 N   0  0  0  0  0  0  0  0  0  0  0  0
   -6.7670   23.6180  -29.8480 C   0  0  0  0  0  0  0  0  0  0  0  0
   -7.3930   22.4170  -30.1900 C   0  0  0  0  0  0  0  0  0  0  0  0
   -6.4920   19.3980  -33.8490 C   0  0  0  0  0  0  0  0  0  0  0  0
   -5.0600   18.9790  -34.1840 C   0  0  0  0  0  0  0  0  0  0  0  0
   -1.7510   20.8170  -33.8690 C   0  0  0  0  0  0  0  0  0  0  0  0
   -1.0730   21.1390  -32.5170 C   0  0  0  0  0  0  0  0  0  0  0  0
    0.5713   20.0935  -30.0201 H   0  0  0  0  0  0  0  0  0  0  0  0
    1.2752   19.2690  -31.4523 H   0  0  0  0  0  0  0  0  0  0  0  0
    1.0739   21.0540  -31.4523 H   0  0  0  0  0  0  0  0  0  0  0  0
   -1.3740   19.9000  -30.8830 H   0  0  0  0  0  0  0  0  0  0  0  0
   -0.1203   18.6958  -33.2881 H   0  0  0  0  0  0  0  0  0  0  0  0
   -0.5247   17.8483  -31.7509 H   0  0  0  0  0  0  0  0  0  0  0  0
   -2.2793   17.4944  -33.4628 H   0  0  0  0  0  0  0  0  0  0  0  0
   -2.9006   18.4387  -32.0458 H   0  0  0  0  0  0  0  0  0  0  0  0
   -2.6264   19.1384  -34.8671 H   0  0  0  0  0  0  0  0  0  0  0  0
   -3.5557   20.6061  -31.7310 H   0  0  0  0  0  0  0  0  0  0  0  0
   -4.9194   21.5344  -32.5087 H   0  0  0  0  0  0  0  0  0  0  0  0
   -5.0354   18.7361  -31.3064 H   0  0  0  0  0  0  0  0  0  0  0  0
   -5.8275   20.2661  -30.7068 H   0  0  0  0  0  0  0  0  0  0  0  0
   -6.9690   22.5271  -33.5816 H   0  0  0  0  0  0  0  0  0  0  0  0
   -5.8083   24.6473  -32.9650 H   0  0  0  0  0  0  0  0  0  0  0  0
   -5.5743   26.4608  -31.0253 H   0  0  0  0  0  0  0  0  0  0  0  0
   -5.4249   25.7791  -29.3697 H   0  0  0  0  0  0  0  0  0  0  0  0
   -2.8647   25.6177  -28.3940 H   0  0  0  0  0  0  0  0  0  0  0  0
   -1.8988   24.9668  -26.1826 H   0  0  0  0  0  0  0  0  0  0  0  0
   -1.2062   22.6013  -25.7723 H   0  0  0  0  0  0  0  0  0  0  0  0
    0.6101   20.8501  -28.4485 H   0  0  0  0  0  0  0  0  0  0  0  0
    1.3281   18.4736  -28.1684 H   0  0  0  0  0  0  0  0  0  0  0  0
   -0.2305   16.8327  -27.1094 H   0  0  0  0  0  0  0  0  0  0  0  0
   -3.1961   19.8550  -26.6312 H   0  0  0  0  0  0  0  0  0  0  0  0
   -6.7388   23.9399  -28.7965 H   0  0  0  0  0  0  0  0  0  0  0  0
   -7.8472   21.7926  -29.4065 H   0  0  0  0  0  0  0  0  0  0  0  0
   -7.1925   18.6922  -34.3193 H   0  0  0  0  0  0  0  0  0  0  0  0
   -6.6568   20.4167  -34.2298 H   0  0  0  0  0  0  0  0  0  0  0  0
   -4.8450   18.0067  -33.7167 H   0  0  0  0  0  0  0  0  0  0  0  0
   -4.9509   18.8973  -35.2755 H   0  0  0  0  0  0  0  0  0  0  0  0
   -0.9592   20.6354  -34.6107 H   0  0  0  0  0  0  0  0  0  0  0  0
   -2.3863   21.6840  -34.1030 H   0  0  0  0  0  0  0  0  0  0  0  0
   -0.1524   21.7046  -32.7233 H   0  0  0  0  0  0  0  0  0  0  0  0
   -1.8117   21.7048  -31.9303 H   0  0  0  0  0  0  0  0  0  0  0  0
  1  2  1  0
  2  3  1  0
  3  4  1  0
  4  5  1  0
  5  6  1  0
  6  7  1  0
  7  8  1  0
  8  9  1  0
  9 10  1  0
 10 11  2  0
 10 12  2  0
 10 13  1  0
 13 14  2  0
 14 15  1  0
 15 16  2  0
 16 17  1  0
 17 18  1  0
 18 19  1  0
 19 20  2  0
 19 21  1  0
 21 22  2  0
 22 23  1  0
 23 24  2  0
 24 25  1  0
 25 26  1  0
 26 27  2  0
 27 28  1  0
 28 29  2  0
 29 30  1  0
 30 31  2  0
 25 32  2  0
 16 33  1  0
 33 34  2  0
  9 35  1  0
 35 36  1  0
  5 37  1  0
 37 38  1  0
 38  2  1  0
 36  6  1  0
 34 13  1  0
 32 21  1  0
 31 26  1  0
  1 39  1  0
  1 40  1  0
  1 41  1  0
  2 42  1  1
  3 43  1  0
  3 44  1  0
  4 45  1  0
  4 46  1  0
  5 47  1  6
  7 48  1  0
  7 49  1  0
  8 50  1  0
  8 51  1  0
 14 52  1  0
 15 53  1  0
 17 54  1  0
 17 55  1  0
 22 56  1  0
 23 57  1  0
 24 58  1  0
 27 59  1  0
 28 60  1  0
 29 61  1  0
 31 62  1  0
 33 63  1  0
 34 64  1  0
 35 65  1  0
 35 66  1  0
 36 67  1  0
 36 68  1  0
 37 69  1  0
 37 70  1  0
 38 71  1  0
 38 72  1  0
M  CHG  2   2   1  18  -1
M  END
>  <UniqueID>  (40) 
39

>  <SMILES>  (40) 
C[NH+]1CCC(N2CCN(S(=O)(=O)c3ccc(C[N-]C(=O)c4cccc(-c5cccnc5)n4)cc3)CC2)CC1

>  <Energy>  (40) 
106.99606432757076

>  <Genealogy>  (40) 
C[NH+]1CCC(N2CCN(S(=O)(=O)c3ccc(C[N-]C(=O)c4cccc(-c5cccnc5)n4)cc3)CC2)CC1 (protonated)
C[NH+]1CCC(N2CCN(S(=O)(=O)c3ccc(C[N-]C(=O)c4cccc(-c5cccnc5)n4)cc3)CC2)CC1 (3D coordinates assigned)
C[NH+]1CCC(N2CCN(S(=O)(=O)c3ccc(C[N-]C(=O)c4cccc(-c5cccnc5)n4)cc3)CC2)CC1 (nonaromatic ring conformer: 106.99606432757076 kcal/mol)

>  <smiles>  (40) 
CN1CCC(N2CCN(S(=O)(=O)c3ccc(CNC(=O)c4cccc(-c5cccnc5)n4)cc3)CC2)CC1

>  <score_type>  (40) 
oracle

>  <origin>  (40) 
adgpu

>  <m_score__min__energy>  (40) 
-12.949999999999999

>  <m_primary>  (40) 
energy

$$$$
40:0
     RDKit          3D

 45 47  0  0  0  0  0  0  0  0999 V2000
   -8.9550   22.5050  -32.3260 O   0  0  0  0  0  0  0  0  0  0  0  0
   -8.1760   21.8890  -31.1980 S   0  0  0  0  0  0  0  0  0  0  0  0
   -9.0560   21.8780  -29.9790 O   0  0  0  0  0  0  0  0  0  0  0  0
   -6.7450   22.8700  -30.8700 C   0  0  0  0  0  0  0  0  0  0  0  0
   -6.8850   24.2110  -30.4990 C   0  0  0  0  0  0  0  0  0  0  0  0
   -5.7570   24.9860  -30.2310 C   0  0  0  0  0  0  0  0  0  0  0  0
   -4.4740   24.4370  -30.3330 C   0  0  0  0  0  0  0  0  0  0  0  0
   -3.3840   25.2790  -30.1010 O   0  0  0  0  0  0  0  0  0  0  0  0
   -4.3180   23.0760  -30.6880 C   0  0  0  0  0  0  0  0  0  0  0  0
   -3.0110   22.4710  -30.7280 N   0  0  0  0  0  0  0  0  0  0  0  0
   -2.8130   21.0240  -30.8290 C   0  0  0  0  0  0  0  0  0  0  0  0
   -2.1200   20.6760  -32.1140 C   0  0  0  0  0  0  0  0  0  0  0  0
   -2.5120   19.5510  -32.8540 C   0  0  0  0  0  0  0  0  0  0  0  0
   -1.8730   19.2690  -34.0630 C   0  0  0  0  0  0  0  0  0  0  0  0
   -0.8600   20.1110  -34.5250 C   0  0  0  0  0  0  0  0  0  0  0  0
   -0.5040   21.2300  -33.7690 C   0  0  0  0  0  0  0  0  0  0  0  0
   -1.1380   21.4880  -32.5940 N   0  0  0  0  0  0  0  0  0  0  0  0
   -5.4660   22.3080  -30.9640 C   0  0  0  0  0  0  0  0  0  0  0  0
   -7.7490   20.2470  -31.6140 N   0  0  0  0  0  0  0  0  0  0  0  0
   -7.3060   20.1720  -33.0160 C   0  0  0  0  0  0  0  0  0  0  0  0
   -6.6970   18.7890  -33.3120 C   0  0  0  0  0  0  0  0  0  0  0  0
   -7.2080   17.7030  -32.3490 C   0  0  0  0  0  0  0  0  0  0  0  0
   -8.6750   17.9400  -31.9800 C   0  0  0  0  0  0  0  0  0  0  0  0
   -8.8940   19.3450  -31.3730 C   0  0  0  0  0  0  0  0  0  0  0  0
   -7.8878   24.6559  -30.4183 H   0  0  0  0  0  0  0  0  0  0  0  0
   -5.8770   26.0390  -29.9366 H   0  0  0  0  0  0  0  0  0  0  0  0
   -2.8260   25.6840  -30.8400 H   0  0  0  0  0  0  0  0  0  0  0  0
   -2.1670   23.0760  -30.6130 H   0  0  0  0  0  0  0  0  0  0  0  0
   -2.1987   20.6829  -29.9827 H   0  0  0  0  0  0  0  0  0  0  0  0
   -3.7949   20.5286  -30.8092 H   0  0  0  0  0  0  0  0  0  0  0  0
   -3.3157   18.8967  -32.4852 H   0  0  0  0  0  0  0  0  0  0  0  0
   -2.1669   18.3861  -34.6496 H   0  0  0  0  0  0  0  0  0  0  0  0
   -0.3477   19.8955  -35.4743 H   0  0  0  0  0  0  0  0  0  0  0  0
    0.2900   21.9033  -34.1244 H   0  0  0  0  0  0  0  0  0  0  0  0
   -5.3564   21.2534  -31.2571 H   0  0  0  0  0  0  0  0  0  0  0  0
   -8.1685   20.3377  -33.6782 H   0  0  0  0  0  0  0  0  0  0  0  0
   -6.5420   20.9438  -33.1911 H   0  0  0  0  0  0  0  0  0  0  0  0
   -6.9595   18.5006  -34.3406 H   0  0  0  0  0  0  0  0  0  0  0  0
   -5.6078   18.8677  -33.1801 H   0  0  0  0  0  0  0  0  0  0  0  0
   -7.1136   16.7199  -32.8334 H   0  0  0  0  0  0  0  0  0  0  0  0
   -6.6058   17.7400  -31.4292 H   0  0  0  0  0  0  0  0  0  0  0  0
   -9.2903   17.8439  -32.8867 H   0  0  0  0  0  0  0  0  0  0  0  0
   -8.9632   17.1928  -31.2259 H   0  0  0  0  0  0  0  0  0  0  0  0
   -9.7941   19.7883  -31.8240 H   0  0  0  0  0  0  0  0  0  0  0  0
   -9.0049   19.2269  -30.2850 H   0  0  0  0  0  0  0  0  0  0  0  0
  1  2  2  0
  2  3  2  0
  2  4  1  0
  4  5  2  0
  5  6  1  0
  6  7  2  0
  7  8  1  0
  7  9  1  0
  9 10  1  0
 10 11  1  0
 11 12  1  0
 12 13  2  0
 13 14  1  0
 14 15  2  0
 15 16  1  0
 16 17  2  0
  9 18  2  0
  2 19  1  0
 19 20  1  0
 20 21  1  0
 21 22  1  0
 22 23  1  0
 23 24  1  0
 18  4  1  0
 24 19  1  0
 17 12  1  0
  5 25  1  0
  6 26  1  0
  8 27  1  0
 10 28  1  0
 11 29  1  0
 11 30  1  0
 13 31  1  0
 14 32  1  0
 15 33  1  0
 16 34  1  0
 18 35  1  0
 20 36  1  0
 20 37  1  0
 21 38  1  0
 21 39  1  0
 22 40  1  0
 22 41  1  0
 23 42  1  0
 23 43  1  0
 24 44  1  0
 24 45  1  0
M  END
>  <UniqueID>  (41) 
40

>  <SMILES>  (41) 
O=S(=O)(c1ccc(O)c(NCc2ccccn2)c1)N1CCCCC1

>  <Energy>  (41) 
51.25859628781101

>  <Genealogy>  (41) 
O=S(=O)(c1ccc(O)c(NCc2ccccn2)c1)N1CCCCC1 (3D coordinates assigned)
O=S(=O)(c1ccc(O)c(NCc2ccccn2)c1)N1CCCCC1 (nonaromatic ring conformer: 51.25859628781101 kcal/mol)

>  <smiles>  (41) 
O=S(=O)(c1ccc(O)c(NCc2ccccn2)c1)N1CCCCC1

>  <score_type>  (41) 
oracle

>  <origin>  (41) 
adgpu

>  <m_score__min__energy>  (41) 
-9.7799999999999994

>  <m_primary>  (41) 
energy

$$$$
41:0
     RDKit          3D

 64 67  0  0  0  0  0  0  0  0999 V2000
   -4.4040   24.5520  -27.4840 C   0  0  0  0  0  0  0  0  0  0  0  0
   -3.2230   23.6280  -27.5010 C   0  0  0  0  0  0  0  0  0  0  0  0
   -1.9190   24.1460  -27.4830 C   0  0  0  0  0  0  0  0  0  0  0  0
   -0.8190   23.2870  -27.5350 C   0  0  0  0  0  0  0  0  0  0  0  0
   -1.0060   21.9000  -27.6170 C   0  0  0  0  0  0  0  0  0  0  0  0
    0.1270   21.0210  -27.6630 N   0  0  0  0  0  0  0  0  0  0  0  0
    1.4680   21.5410  -27.4090 C   0  0  0  0  0  0  0  0  0  0  0  0
   -0.0760   19.3790  -28.1940 S   0  0  0  0  0  0  0  0  0  0  0  0
   -1.2040   18.7190  -27.4530 O   0  0  0  0  0  0  0  0  0  0  0  0
    1.1830   18.6030  -27.9220 O   0  0  0  0  0  0  0  0  0  0  0  0
   -0.4360   19.3850  -29.9140 C   0  0  0  0  0  0  0  0  0  0  0  0
   -0.0480   18.3140  -30.7280 C   0  0  0  0  0  0  0  0  0  0  0  0
   -0.3120   18.3440  -32.0990 C   0  0  0  0  0  0  0  0  0  0  0  0
   -0.9640   19.4430  -32.6650 C   0  0  0  0  0  0  0  0  0  0  0  0
   -1.3660   20.5230  -31.8590 C   0  0  0  0  0  0  0  0  0  0  0  0
   -2.0510   21.6990  -32.4500 C   0  0  0  0  0  0  0  0  0  0  0  0
   -2.2260   21.7510  -33.6970 O   0  0  0  0  0  0  0  0  0  0  0  0
   -2.5630   22.7650  -31.6400 N   0  0  0  0  0  0  0  0  0  0  0  0
   -3.9500   23.0000  -31.3510 C   0  0  0  0  0  0  0  0  0  0  0  0
   -4.8820   22.0120  -31.6870 C   0  0  0  0  0  0  0  0  0  0  0  0
   -6.2400   22.1860  -31.3940 C   0  0  0  0  0  0  0  0  0  0  0  0
   -7.3780   20.8840  -31.7330 S   0  0  0  0  0  0  0  0  0  0  0  0
   -7.6110   20.8330  -33.2180 O   0  0  0  0  0  0  0  0  0  0  0  0
   -8.6920   21.1610  -31.0560 O   0  0  0  0  0  0  0  0  0  0  0  0
   -6.7270   19.3490  -31.1980 N   0  0  0  0  0  0  0  0  0  0  0  0
   -7.6390   18.2250  -31.4910 C   0  0  0  0  0  0  0  0  0  0  0  0
   -7.6700   17.8550  -32.9850 C   0  0  0  0  0  0  0  0  0  0  0  0
   -6.2820   17.9070  -33.6480 C   0  0  0  0  0  0  0  0  0  0  0  0
   -5.1550   17.9490  -32.6170 C   0  0  0  0  0  0  0  0  0  0  0  0
   -5.3320   19.1470  -31.6660 C   0  0  0  0  0  0  0  0  0  0  0  0
   -6.6720   23.3690  -30.7780 C   0  0  0  0  0  0  0  0  0  0  0  0
   -5.7510   24.3740  -30.4720 C   0  0  0  0  0  0  0  0  0  0  0  0
   -4.3940   24.2010  -30.7620 C   0  0  0  0  0  0  0  0  0  0  0  0
   -3.5050   25.2330  -30.4820 O   0  0  0  0  0  0  0  0  0  0  0  0
   -1.0820   20.4920  -30.4840 C   0  0  0  0  0  0  0  0  0  0  0  0
   -2.3100   21.3820  -27.6570 C   0  0  0  0  0  0  0  0  0  0  0  0
   -3.4110   22.2410  -27.6050 C   0  0  0  0  0  0  0  0  0  0  0  0
   -4.6835   24.7707  -26.4428 H   0  0  0  0  0  0  0  0  0  0  0  0
   -4.1440   25.4889  -27.9984 H   0  0  0  0  0  0  0  0  0  0  0  0
   -5.2508   24.0742  -27.9984 H   0  0  0  0  0  0  0  0  0  0  0  0
   -1.7625   25.2334  -27.4277 H   0  0  0  0  0  0  0  0  0  0  0  0
    0.1998   23.7010  -27.5115 H   0  0  0  0  0  0  0  0  0  0  0  0
    1.6365   21.6063  -26.3239 H   0  0  0  0  0  0  0  0  0  0  0  0
    2.2135   20.8668  -27.8559 H   0  0  0  0  0  0  0  0  0  0  0  0
    1.5640   22.5415  -27.8559 H   0  0  0  0  0  0  0  0  0  0  0  0
    0.4658   17.4472  -30.2868 H   0  0  0  0  0  0  0  0  0  0  0  0
   -0.0060   17.5004  -32.7351 H   0  0  0  0  0  0  0  0  0  0  0  0
   -1.1638   19.4633  -33.7465 H   0  0  0  0  0  0  0  0  0  0  0  0
   -4.5451   21.0911  -32.1854 H   0  0  0  0  0  0  0  0  0  0  0  0
   -7.3086   17.3460  -30.9181 H   0  0  0  0  0  0  0  0  0  0  0  0
   -8.6540   18.5397  -31.2069 H   0  0  0  0  0  0  0  0  0  0  0  0
   -8.0678   16.8343  -33.0849 H   0  0  0  0  0  0  0  0  0  0  0  0
   -8.3047   18.5956  -33.4936 H   0  0  0  0  0  0  0  0  0  0  0  0
   -6.1551   17.0131  -34.2763 H   0  0  0  0  0  0  0  0  0  0  0  0
   -6.2271   18.8271  -34.2483 H   0  0  0  0  0  0  0  0  0  0  0  0
   -5.1666   17.0181  -32.0311 H   0  0  0  0  0  0  0  0  0  0  0  0
   -4.1961   18.0554  -33.1453 H   0  0  0  0  0  0  0  0  0  0  0  0
   -4.6921   18.9867  -30.7857 H   0  0  0  0  0  0  0  0  0  0  0  0
   -5.0548   20.0469  -32.2346 H   0  0  0  0  0  0  0  0  0  0  0  0
   -7.7362   23.5059  -30.5356 H   0  0  0  0  0  0  0  0  0  0  0  0
   -6.0951   25.3063  -30.0004 H   0  0  0  0  0  0  0  0  0  0  0  0
   -1.3686   21.3430  -29.8486 H   0  0  0  0  0  0  0  0  0  0  0  0
   -2.4658   20.2955  -27.7296 H   0  0  0  0  0  0  0  0  0  0  0  0
   -4.4298   21.8282  -27.6458 H   0  0  0  0  0  0  0  0  0  0  0  0
  1  2  1  0
  2  3  2  0
  3  4  1  0
  4  5  2  0
  5  6  1  0
  6  7  1  0
  6  8  1  0
  8  9  2  0
  8 10  2  0
  8 11  1  0
 11 12  2  0
 12 13  1  0
 13 14  2  0
 14 15  1  0
 15 16  1  0
 16 17  2  0
 16 18  1  0
 18 19  1  0
 19 20  2  0
 20 21  1  0
 21 22  1  0
 22 23  2  0
 22 24  2  0
 22 25  1  0
 25 26  1  0
 26 27  1  0
 27 28  1  0
 28 29  1  0
 29 30  1  0
 21 31  2  0
 31 32  1  0
 32 33  2  0
 33 34  1  0
 15 35  2  0
  5 36  1  0
 36 37  2  0
 37  2  1  0
 35 11  1  0
 33 19  1  0
 30 25  1  0
  1 38  1  0
  1 39  1  0
  1 40  1  0
  3 41  1  0
  4 42  1  0
  7 43  1  0
  7 44  1  0
  7 45  1  0
 12 46  1  0
 13 47  1  0
 14 48  1  0
 20 49  1  0
 26 50  1  0
 26 51  1  0
 27 52  1  0
 27 53  1  0
 28 54  1  0
 28 55  1  0
 29 56  1  0
 29 57  1  0
 30 58  1  0
 30 59  1  0
 31 60  1  0
 32 61  1  0
 35 62  1  0
 36 63  1  0
 37 64  1  0
M  CHG  2  18  -1  34  -1
M  END
>  <UniqueID>  (42) 
41

>  <SMILES>  (42) 
Cc1ccc(N(C)S(=O)(=O)c2cccc(C(=O)[N-]c3cc(S(=O)(=O)N4CCCCC4)ccc3[O-])c2)cc1

>  <Energy>  (42) 
86.78022610554774

>  <Genealogy>  (42) 
Cc1ccc(N(C)S(=O)(=O)c2cccc(C(=O)[N-]c3cc(S(=O)(=O)N4CCCCC4)ccc3[O-])c2)cc1 (protonated)
Cc1ccc(N(C)S(=O)(=O)c2cccc(C(=O)[N-]c3cc(S(=O)(=O)N4CCCCC4)ccc3[O-])c2)cc1 (3D coordinates assigned)
Cc1ccc(N(C)S(=O)(=O)c2cccc(C(=O)[N-]c3cc(S(=O)(=O)N4CCCCC4)ccc3[O-])c2)cc1 (nonaromatic ring conformer: 86.78022610554774 kcal/mol)

>  <smiles>  (42) 
Cc1ccc(N(C)S(=O)(=O)c2cccc(C(=O)Nc3cc(S(=O)(=O)N4CCCCC4)ccc3O)c2)cc1

>  <score_type>  (42) 
oracle

>  <origin>  (42) 
adgpu

>  <m_score__min__energy>  (42) 
-15.34

>  <m_primary>  (42) 
energy

$$$$
42:0
     RDKit          3D

 43 45  0  0  0  0  0  0  0  0999 V2000
   -8.0620   18.7180  -31.4090 O   0  0  0  0  0  0  0  0  0  0  0  0
   -7.3840   18.7910  -32.4670 C   0  0  0  0  0  0  0  0  0  0  0  0
   -6.7420   17.6170  -32.9720 N   0  0  0  0  0  0  0  0  0  0  0  0
   -5.6210   17.6510  -34.2950 S   0  0  0  0  0  0  0  0  0  0  0  0
   -5.5440   16.2880  -34.9220 O   0  0  0  0  0  0  0  0  0  0  0  0
   -6.1050   18.6360  -35.3230 O   0  0  0  0  0  0  0  0  0  0  0  0
   -4.0200   18.0990  -33.7060 C   0  0  0  0  0  0  0  0  0  0  0  0
   -3.1370   17.1200  -33.2230 C   0  0  0  0  0  0  0  0  0  0  0  0
   -1.8350   17.4720  -32.8500 C   0  0  0  0  0  0  0  0  0  0  0  0
   -1.4100   18.7980  -32.9580 C   0  0  0  0  0  0  0  0  0  0  0  0
   -2.2870   19.7760  -33.4330 C   0  0  0  0  0  0  0  0  0  0  0  0
   -3.5910   19.4300  -33.8010 C   0  0  0  0  0  0  0  0  0  0  0  0
   -7.2660   20.0420  -33.1560 N   0  0  0  0  0  0  0  0  0  0  0  0
   -6.8200   21.2590  -32.5320 C   0  0  0  0  0  0  0  0  0  0  0  0
   -5.4420   21.4920  -32.3910 C   0  0  0  0  0  0  0  0  0  0  0  0
   -4.9770   22.6380  -31.7410 C   0  0  0  0  0  0  0  0  0  0  0  0
   -5.8840   23.5640  -31.2100 C   0  0  0  0  0  0  0  0  0  0  0  0
   -5.3020   25.0200  -30.4100 S   0  0  0  0  0  0  0  0  0  0  0  0
   -5.7090   26.2260  -31.2120 O   0  0  0  0  0  0  0  0  0  0  0  0
   -5.9030   25.1110  -29.0340 O   0  0  0  0  0  0  0  0  0  0  0  0
   -3.5690   24.9330  -30.2970 N   0  0  0  0  0  0  0  0  0  0  0  0
   -2.8810   24.2620  -29.4180 C   0  0  0  0  0  0  0  0  0  0  0  0
   -3.4910   23.4890  -28.4050 C   0  0  0  0  0  0  0  0  0  0  0  0
   -2.6880   22.7960  -27.4950 C   0  0  0  0  0  0  0  0  0  0  0  0
   -1.2960   22.8710  -27.5920 C   0  0  0  0  0  0  0  0  0  0  0  0
   -0.7240   23.6420  -28.6060 C   0  0  0  0  0  0  0  0  0  0  0  0
   -1.5210   24.3110  -29.4830 N   0  0  0  0  0  0  0  0  0  0  0  0
   -7.2600   23.3380  -31.3440 C   0  0  0  0  0  0  0  0  0  0  0  0
   -7.7280   22.1930  -31.9950 C   0  0  0  0  0  0  0  0  0  0  0  0
   -3.4692   16.0748  -33.1377 H   0  0  0  0  0  0  0  0  0  0  0  0
   -1.1454   16.7033  -32.4712 H   0  0  0  0  0  0  0  0  0  0  0  0
   -0.3847   19.0722  -32.6690 H   0  0  0  0  0  0  0  0  0  0  0  0
   -1.9513   20.8201  -33.5177 H   0  0  0  0  0  0  0  0  0  0  0  0
   -4.2818   20.2043  -34.1659 H   0  0  0  0  0  0  0  0  0  0  0  0
   -7.3910   20.0320  -34.1930 H   0  0  0  0  0  0  0  0  0  0  0  0
   -4.7223   20.7654  -32.7961 H   0  0  0  0  0  0  0  0  0  0  0  0
   -3.8953   22.8136  -31.6459 H   0  0  0  0  0  0  0  0  0  0  0  0
   -4.5872   23.4331  -28.3332 H   0  0  0  0  0  0  0  0  0  0  0  0
   -3.1520   22.1912  -26.7020 H   0  0  0  0  0  0  0  0  0  0  0  0
   -0.6584   22.3291  -26.8780 H   0  0  0  0  0  0  0  0  0  0  0  0
    0.3703   23.7086  -28.6959 H   0  0  0  0  0  0  0  0  0  0  0  0
   -7.9762   24.0657  -30.9346 H   0  0  0  0  0  0  0  0  0  0  0  0
   -8.8103   22.0203  -32.0885 H   0  0  0  0  0  0  0  0  0  0  0  0
  1  2  2  0
  2  3  1  0
  3  4  1  0
  4  5  2  0
  4  6  2  0
  4  7  1  0
  7  8  2  0
  8  9  1  0
  9 10  2  0
 10 11  1  0
 11 12  2  0
  2 13  1  0
 13 14  1  0
 14 15  2  0
 15 16  1  0
 16 17  2  0
 17 18  1  0
 18 19  2  0
 18 20  2  0
 18 21  1  0
 21 22  2  3
 22 23  1  0
 23 24  2  0
 24 25  1  0
 25 26  2  0
 26 27  1  0
 17 28  1  0
 28 29  2  0
 12  7  1  0
 29 14  1  0
 27 22  1  0
  8 30  1  0
  9 31  1  0
 10 32  1  0
 11 33  1  0
 12 34  1  0
 13 35  1  0
 15 36  1  0
 16 37  1  0
 23 38  1  0
 24 39  1  0
 25 40  1  0
 26 41  1  0
 28 42  1  0
 29 43  1  0
M  CHG  2   3  -1  27  -1
M  END
>  <UniqueID>  (43) 
42

>  <SMILES>  (43) 
O=C([N-]S(=O)(=O)c1ccccc1)Nc1ccc(S(=O)(=O)N=c2cccc[n-]2)cc1

>  <Energy>  (43) 
57.112746688265005

>  <Genealogy>  (43) 
O=C([N-]S(=O)(=O)c1ccccc1)Nc1ccc(S(=O)(=O)N=c2cccc[n-]2)cc1 (protonated)
O=C([N-]S(=O)(=O)c1ccccc1)Nc1ccc(S(=O)(=O)N=c2cccc[n-]2)cc1 (3D coordinates assigned)
O=C([N-]S(=O)(=O)c1ccccc1)Nc1ccc(S(=O)(=O)N=c2cccc[n-]2)cc1 (optimized conformer: 57.112746688265005 kcal/mol)

>  <smiles>  (43) 
O=C(Nc1ccc(S(=O)(=O)N=c2cccc[nH]2)cc1)NS(=O)(=O)c1ccccc1

>  <score_type>  (43) 
oracle

>  <origin>  (43) 
adgpu

>  <m_score__min__energy>  (43) 
-11.26

>  <m_primary>  (43) 
energy

$$$$
43:0
     RDKit          3D

 49 52  0  0  0  0  0  0  0  0999 V2000
   -3.7850   21.5600  -33.4340 O   0  0  0  0  0  0  0  0  0  0  0  0
   -3.9590   20.5820  -32.6570 C   0  0  0  0  0  0  0  0  0  0  0  0
   -3.1540   20.4540  -31.4760 N   0  0  0  0  0  0  0  0  0  0  0  0
   -2.6340   21.5690  -30.7300 C   0  0  0  0  0  0  0  0  0  0  0  0
   -3.4520   22.6510  -30.3550 C   0  0  0  0  0  0  0  0  0  0  0  0
   -2.9270   23.7050  -29.6020 C   0  0  0  0  0  0  0  0  0  0  0  0
   -1.5860   23.6860  -29.2000 C   0  0  0  0  0  0  0  0  0  0  0  0
   -0.9320   25.0330  -28.2700 S   0  0  0  0  0  0  0  0  0  0  0  0
    0.5600   24.8740  -28.1930 O   0  0  0  0  0  0  0  0  0  0  0  0
   -1.2340   26.3290  -28.9700 O   0  0  0  0  0  0  0  0  0  0  0  0
   -1.5980   25.0420  -26.6510 N   0  0  0  0  0  0  0  0  0  0  0  0
   -1.6080   26.3940  -26.0620 C   0  0  0  0  0  0  0  0  0  0  0  0
   -0.2070   26.8520  -25.6030 C   0  0  0  0  0  0  0  0  0  0  0  0
    0.6190   25.7690  -25.0380 N   0  0  0  0  0  0  0  0  0  0  0  0
   -0.1770   24.6180  -24.6040 C   0  0  0  0  0  0  0  0  0  0  0  0
   -0.9630   24.0190  -25.7840 C   0  0  0  0  0  0  0  0  0  0  0  0
   -0.7710   22.6050  -29.5610 C   0  0  0  0  0  0  0  0  0  0  0  0
   -1.2940   21.5500  -30.3130 C   0  0  0  0  0  0  0  0  0  0  0  0
   -4.9460   19.5420  -33.0160 C   0  0  0  0  0  0  0  0  0  0  0  0
   -4.6330   18.2770  -33.4730 C   0  0  0  0  0  0  0  0  0  0  0  0
   -5.8570   17.6530  -33.6100 C   0  0  0  0  0  0  0  0  0  0  0  0
   -6.1320   15.8570  -34.1890 Br  0  0  0  0  0  0  0  0  0  0  0  0
   -6.8490   18.4950  -33.2680 N   0  0  0  0  0  0  0  0  0  0  0  0
   -6.2930   19.6440  -32.9200 N   0  0  0  0  0  0  0  0  0  0  0  0
   -7.0630   20.7880  -32.5330 C   0  0  0  0  0  0  0  0  0  0  0  0
   -6.5280   22.0310  -32.6900 N   0  0  0  0  0  0  0  0  0  0  0  0
   -7.2150   23.1570  -32.3590 C   0  0  0  0  0  0  0  0  0  0  0  0
   -8.5060   23.0600  -31.8370 C   0  0  0  0  0  0  0  0  0  0  0  0
   -9.0720   21.7990  -31.6450 C   0  0  0  0  0  0  0  0  0  0  0  0
   -8.3510   20.6500  -31.9830 C   0  0  0  0  0  0  0  0  0  0  0  0
   -9.0560   19.0720  -31.6570 Cl  0  0  0  0  0  0  0  0  0  0  0  0
   -2.8880   19.4900  -31.1720 H   0  0  0  0  0  0  0  0  0  0  0  0
   -4.5099   22.6673  -30.6560 H   0  0  0  0  0  0  0  0  0  0  0  0
   -3.5701   24.5530  -29.3240 H   0  0  0  0  0  0  0  0  0  0  0  0
   -1.9815   27.1036  -26.8150 H   0  0  0  0  0  0  0  0  0  0  0  0
   -2.2568   26.3658  -25.1741 H   0  0  0  0  0  0  0  0  0  0  0  0
    0.3212   27.2741  -26.4707 H   0  0  0  0  0  0  0  0  0  0  0  0
   -0.3584   27.5901  -24.8016 H   0  0  0  0  0  0  0  0  0  0  0  0
    1.3050   25.4440  -25.7580 H   0  0  0  0  0  0  0  0  0  0  0  0
    0.4944   23.8505  -24.1916 H   0  0  0  0  0  0  0  0  0  0  0  0
   -0.8924   24.9533  -23.8386 H   0  0  0  0  0  0  0  0  0  0  0  0
   -0.2706   23.4237  -26.3974 H   0  0  0  0  0  0  0  0  0  0  0  0
   -1.7723   23.4082  -25.3575 H   0  0  0  0  0  0  0  0  0  0  0  0
    0.2843   22.5869  -29.2513 H   0  0  0  0  0  0  0  0  0  0  0  0
   -0.6510   20.6984  -30.5801 H   0  0  0  0  0  0  0  0  0  0  0  0
   -3.6359   17.8613  -33.6805 H   0  0  0  0  0  0  0  0  0  0  0  0
   -6.7530   24.1449  -32.5027 H   0  0  0  0  0  0  0  0  0  0  0  0
   -9.0712   23.9680  -31.5797 H   0  0  0  0  0  0  0  0  0  0  0  0
  -10.0857   21.7091  -31.2276 H   0  0  0  0  0  0  0  0  0  0  0  0
  1  2  2  0
  2  3  1  0
  3  4  1  0
  4  5  2  0
  5  6  1  0
  6  7  2  0
  7  8  1  0
  8  9  2  0
  8 10  2  0
  8 11  1  0
 11 12  1  0
 12 13  1  0
 13 14  1  0
 14 15  1  0
 15 16  1  0
  7 17  1  0
 17 18  2  0
  2 19  1  0
 19 20  2  0
 20 21  1  0
 21 22  1  0
 21 23  2  0
 23 24  1  0
 24 25  1  0
 25 26  2  0
 26 27  1  0
 27 28  2  0
 28 29  1  0
 29 30  2  0
 30 31  1  0
 18  4  1  0
 24 19  1  0
 30 25  1  0
 16 11  1  0
  3 32  1  0
  5 33  1  0
  6 34  1  0
 12 35  1  0
 12 36  1  0
 13 37  1  0
 13 38  1  0
 14 39  1  0
 15 40  1  0
 15 41  1  0
 16 42  1  0
 16 43  1  0
 17 44  1  0
 18 45  1  0
 20 46  1  0
 27 47  1  0
 28 48  1  0
 29 49  1  0
M  END
>  <UniqueID>  (44) 
43

>  <SMILES>  (44) 
O=C(Nc1ccc(S(=O)(=O)N2CCNCC2)cc1)c1cc(Br)nn1-c1ncccc1Cl

>  <Energy>  (44) 
103.912894753039

>  <Genealogy>  (44) 
O=C(Nc1ccc(S(=O)(=O)N2CCNCC2)cc1)c1cc(Br)nn1-c1ncccc1Cl (3D coordinates assigned)
O=C(Nc1ccc(S(=O)(=O)N2CCNCC2)cc1)c1cc(Br)nn1-c1ncccc1Cl (nonaromatic ring conformer: 103.912894753039 kcal/mol)

>  <smiles>  (44) 
O=C(Nc1ccc(S(=O)(=O)N2CCNCC2)cc1)c1cc(Br)nn1-c1ncccc1Cl

>  <score_type>  (44) 
oracle

>  <origin>  (44) 
adgpu

>  <m_score__min__energy>  (44) 
-10.25

>  <m_primary>  (44) 
energy

$$$$
44:0
     RDKit          3D

 58 61  0  0  0  0  0  0  0  0999 V2000
    0.5140   23.5960  -25.4070 C   0  0  0  0  0  0  0  0  0  0  0  0
   -0.4030   23.8030  -26.5840 C   0  0  0  0  0  0  0  0  0  0  0  0
   -1.0880   22.6890  -27.0960 C   0  0  0  0  0  0  0  0  0  0  0  0
   -1.9470   22.8190  -28.1830 C   0  0  0  0  0  0  0  0  0  0  0  0
   -2.1520   24.0650  -28.7790 C   0  0  0  0  0  0  0  0  0  0  0  0
   -3.0310   24.1580  -29.9120 N   0  0  0  0  0  0  0  0  0  0  0  0
   -3.6790   23.0230  -30.5020 C   0  0  0  0  0  0  0  0  0  0  0  0
   -3.4160   21.8590  -30.0950 O   0  0  0  0  0  0  0  0  0  0  0  0
   -4.6390   23.2320  -31.5450 N   0  0  0  0  0  0  0  0  0  0  0  0
   -5.9180   22.5930  -31.6680 C   0  0  0  0  0  0  0  0  0  0  0  0
   -7.0520   23.3940  -31.8500 C   0  0  0  0  0  0  0  0  0  0  0  0
   -8.3150   22.8110  -31.9920 C   0  0  0  0  0  0  0  0  0  0  0  0
   -8.4520   21.4220  -31.9670 C   0  0  0  0  0  0  0  0  0  0  0  0
   -7.3230   20.6070  -31.8080 C   0  0  0  0  0  0  0  0  0  0  0  0
   -7.4730   18.8520  -31.8180 S   0  0  0  0  0  0  0  0  0  0  0  0
   -8.8510   18.4460  -31.3740 O   0  0  0  0  0  0  0  0  0  0  0  0
   -6.4690   18.2790  -30.8560 O   0  0  0  0  0  0  0  0  0  0  0  0
   -7.1660   18.2480  -33.4290 N   0  0  0  0  0  0  0  0  0  0  0  0
   -7.0640   16.7670  -33.4340 C   0  0  0  0  0  0  0  0  0  0  0  0
   -5.6140   16.2660  -33.4870 C   0  0  0  0  0  0  0  0  0  0  0  0
   -4.8890   16.7900  -34.7380 C   0  0  0  0  0  0  0  0  0  0  0  0
   -5.4050   18.1680  -35.1900 C   0  0  0  0  0  0  0  0  0  0  0  0
   -5.9970   18.9470  -34.0100 C   0  0  0  0  0  0  0  0  0  0  0  0
   -6.0570   21.1930  -31.6710 C   0  0  0  0  0  0  0  0  0  0  0  0
   -1.4570   25.1890  -28.2970 C   0  0  0  0  0  0  0  0  0  0  0  0
   -1.5850   26.4040  -28.9630 O   0  0  0  0  0  0  0  0  0  0  0  0
   -0.6100   25.0790  -27.1700 C   0  0  0  0  0  0  0  0  0  0  0  0
    0.2150   26.5300  -26.5390 S   0  0  0  0  0  0  0  0  0  0  0  0
    0.1620   27.6200  -27.5720 O   0  0  0  0  0  0  0  0  0  0  0  0
    1.6650   26.2330  -26.2790 O   0  0  0  0  0  0  0  0  0  0  0  0
   -0.5160   27.1510  -25.0200 C   0  0  0  0  0  0  0  0  0  0  0  0
   -1.7580   26.4390  -24.5050 C   0  0  0  0  0  0  0  0  0  0  0  0
   -0.4110   26.1820  -23.8520 C   0  0  0  0  0  0  0  0  0  0  0  0
   -0.0532   23.7240  -24.4733 H   0  0  0  0  0  0  0  0  0  0  0  0
    0.9347   22.5803  -25.4441 H   0  0  0  0  0  0  0  0  0  0  0  0
    1.3302   24.3325  -25.4441 H   0  0  0  0  0  0  0  0  0  0  0  0
   -0.9438   21.7020  -26.6323 H   0  0  0  0  0  0  0  0  0  0  0  0
   -2.4684   21.9336  -28.5757 H   0  0  0  0  0  0  0  0  0  0  0  0
   -3.0790   25.0650  -30.4280 H   0  0  0  0  0  0  0  0  0  0  0  0
   -6.9486   24.4887  -31.8815 H   0  0  0  0  0  0  0  0  0  0  0  0
   -9.2021   23.4480  -32.1236 H   0  0  0  0  0  0  0  0  0  0  0  0
   -9.4477   20.9664  -32.0723 H   0  0  0  0  0  0  0  0  0  0  0  0
   -7.5353   16.3801  -32.5185 H   0  0  0  0  0  0  0  0  0  0  0  0
   -7.5705   16.4053  -34.3410 H   0  0  0  0  0  0  0  0  0  0  0  0
   -5.0808   16.6156  -32.5906 H   0  0  0  0  0  0  0  0  0  0  0  0
   -5.6269   15.1668  -33.5271 H   0  0  0  0  0  0  0  0  0  0  0  0
   -3.8152   16.8725  -34.5138 H   0  0  0  0  0  0  0  0  0  0  0  0
   -5.0804   16.0791  -35.5553 H   0  0  0  0  0  0  0  0  0  0  0  0
   -4.5699   18.7423  -35.6175 H   0  0  0  0  0  0  0  0  0  0  0  0
   -6.1939   18.0175  -35.9417 H   0  0  0  0  0  0  0  0  0  0  0  0
   -5.2260   19.0598  -33.2336 H   0  0  0  0  0  0  0  0  0  0  0  0
   -6.3300   19.9289  -34.3774 H   0  0  0  0  0  0  0  0  0  0  0  0
   -5.1674   20.5548  -31.5653 H   0  0  0  0  0  0  0  0  0  0  0  0
   -0.2685   28.2059  -25.2096 H   0  0  0  0  0  0  0  0  0  0  0  0
   -2.5319   27.0044  -23.9651 H   0  0  0  0  0  0  0  0  0  0  0  0
   -2.5358   25.8066  -24.9580 H   0  0  0  0  0  0  0  0  0  0  0  0
   -0.2096   26.5613  -22.8393 H   0  0  0  0  0  0  0  0  0  0  0  0
    0.1903   25.2865  -23.6364 H   0  0  0  0  0  0  0  0  0  0  0  0
  1  2  1  0
  2  3  2  0
  3  4  1  0
  4  5  2  0
  5  6  1  0
  6  7  1  0
  7  8  2  0
  7  9  1  0
  9 10  1  0
 10 11  2  0
 11 12  1  0
 12 13  2  0
 13 14  1  0
 14 15  1  0
 15 16  2  0
 15 17  2  0
 15 18  1  0
 18 19  1  0
 19 20  1  0
 20 21  1  0
 21 22  1  0
 22 23  1  0
 14 24  2  0
  5 25  1  0
 25 26  1  0
 25 27  2  0
 27 28  1  0
 28 29  2  0
 28 30  2  0
 28 31  1  0
 31 32  1  0
 32 33  1  0
 27  2  1  0
 33 31  1  0
 24 10  1  0
 23 18  1  0
  1 34  1  0
  1 35  1  0
  1 36  1  0
  3 37  1  0
  4 38  1  0
  6 39  1  0
 11 40  1  0
 12 41  1  0
 13 42  1  0
 19 43  1  0
 19 44  1  0
 20 45  1  0
 20 46  1  0
 21 47  1  0
 21 48  1  0
 22 49  1  0
 22 50  1  0
 23 51  1  0
 23 52  1  0
 24 53  1  0
 31 54  1  0
 32 55  1  0
 32 56  1  0
 33 57  1  0
 33 58  1  0
M  CHG  2   9  -1  26  -1
M  END
>  <UniqueID>  (45) 
44

>  <SMILES>  (45) 
Cc1ccc(NC(=O)[N-]c2cccc(S(=O)(=O)N3CCCCC3)c2)c([O-])c1S(=O)(=O)C1CC1

>  <Energy>  (45) 
339.91767154853375

>  <Genealogy>  (45) 
Cc1ccc(NC(=O)[N-]c2cccc(S(=O)(=O)N3CCCCC3)c2)c([O-])c1S(=O)(=O)C1CC1 (protonated)
Cc1ccc(NC(=O)[N-]c2cccc(S(=O)(=O)N3CCCCC3)c2)c([O-])c1S(=O)(=O)C1CC1 (3D coordinates assigned)
Cc1ccc(NC(=O)[N-]c2cccc(S(=O)(=O)N3CCCCC3)c2)c([O-])c1S(=O)(=O)C1CC1 (nonaromatic ring conformer: 339.91767154853375 kcal/mol)

>  <smiles>  (45) 
Cc1ccc(NC(=O)Nc2cccc(S(=O)(=O)N3CCCCC3)c2)c(O)c1S(=O)(=O)C1CC1

>  <score_type>  (45) 
oracle

>  <origin>  (45) 
adgpu

>  <m_score__min__energy>  (45) 
-14.9

>  <m_primary>  (45) 
energy

$$$$
45:0
     RDKit          3D

 76 80  0  0  1  0  0  0  0  0999 V2000
   -9.0770   19.7950  -31.2430 C   0  0  0  0  0  0  0  0  0  0  0  0
   -9.4880   21.0730  -31.9100 C   0  0  0  0  0  0  0  0  0  0  0  0
   -8.3640   21.8580  -32.2590 O   0  0  0  0  0  0  0  0  0  0  0  0
   -7.1380   21.2570  -32.4830 C   0  0  0  0  0  0  0  0  0  0  0  0
   -7.0750   20.3110  -33.4790 C   0  0  0  0  0  0  0  0  0  0  0  0
   -5.8640   19.7140  -33.7030 C   0  0  0  0  0  0  0  0  0  0  0  0
   -5.8020   18.7920  -34.6770 N   0  0  0  0  0  0  0  0  0  0  0  0
   -4.6390   18.1770  -34.9380 C   0  0  0  0  0  0  0  0  0  0  0  0
   -3.5800   18.5230  -34.1990 N   0  0  0  0  0  0  0  0  0  0  0  0
   -3.6070   19.4500  -33.2070 C   0  0  0  0  0  0  0  0  0  0  0  0
   -2.5720   19.6860  -32.5880 N   0  0  0  0  0  0  0  0  0  0  0  0
   -2.2630   20.5300  -31.5670 C   0  0  0  0  0  0  0  0  0  0  0  0
   -1.6970   21.8000  -31.8400 C   0  0  0  0  0  0  0  0  0  0  0  0
   -1.2730   22.6180  -30.8140 C   0  0  0  0  0  0  0  0  0  0  0  0
   -1.4050   22.1880  -29.5130 C   0  0  0  0  0  0  0  0  0  0  0  0
   -0.9740   23.0220  -28.4510 N   0  0  0  0  0  0  0  0  0  0  0  0
   -1.2470   24.4110  -28.3660 C   0  0  0  0  0  0  0  0  0  0  0  0
   -1.9230   24.9070  -29.3240 O   0  0  0  0  0  0  0  0  0  0  0  0
   -0.8080   25.2480  -27.2850 C   0  0  0  0  0  0  0  0  0  0  0  0
   -0.6880   24.7100  -26.0140 C   0  0  0  0  0  0  0  0  0  0  0  0
   -0.2590   25.5040  -24.9480 C   0  0  0  0  0  0  0  0  0  0  0  0
    0.0490   26.8500  -25.1720 C   0  0  0  0  0  0  0  0  0  0  0  0
    0.5860   27.9030  -23.8930 S   0  0  0  0  0  0  0  0  0  0  0  0
    0.1330   29.3010  -24.2860 O   0  0  0  0  0  0  0  0  0  0  0  0
   -0.1190   27.5440  -22.6340 O   0  0  0  0  0  0  0  0  0  0  0  0
    2.2440   27.8930  -23.6330 N   0  0  0  0  0  0  0  0  0  0  0  0
    2.7300   28.4470  -22.4150 C   0  0  0  0  0  0  0  0  0  0  0  0
    4.2550   28.3830  -22.4900 C   0  0  0  0  0  0  0  0  0  0  0  0
    4.6280   27.0560  -22.4050 O   0  0  0  0  0  0  0  0  0  0  0  0
    3.7520   26.1620  -22.9780 C   0  0  0  0  0  0  0  0  0  0  0  0
    2.9660   26.7730  -24.1210 C   0  0  0  0  0  0  0  0  0  0  0  0
   -0.0730   27.3730  -26.4290 C   0  0  0  0  0  0  0  0  0  0  0  0
   -0.4970   26.5780  -27.4700 C   0  0  0  0  0  0  0  0  0  0  0  0
   -1.9570   20.9450  -29.1960 C   0  0  0  0  0  0  0  0  0  0  0  0
   -2.0710   20.5500  -27.8700 O   0  0  0  0  0  0  0  0  0  0  0  0
   -2.3890   20.1080  -30.2270 C   0  0  0  0  0  0  0  0  0  0  0  0
   -4.7760   20.0850  -32.9290 C   0  0  0  0  0  0  0  0  0  0  0  0
   -4.8680   21.0260  -31.9460 C   0  0  0  0  0  0  0  0  0  0  0  0
   -6.1050   21.6480  -31.7040 C   0  0  0  0  0  0  0  0  0  0  0  0
   -6.2890   22.6270  -30.7100 N   0  0  0  0  0  0  0  0  0  0  0  0
   -5.2980   23.6300  -30.4960 C   0  0  0  0  0  0  0  0  0  0  0  0
   -4.2440   23.6340  -31.2170 O   0  0  0  0  0  0  0  0  0  0  0  0
   -5.4330   24.6800  -29.4680 C   0  0  0  0  0  0  0  0  0  0  0  0
   -6.7830   25.3710  -29.6770 C   0  0  0  0  0  0  0  0  0  0  0  0
   -9.1177   19.9217  -30.1511 H   0  0  0  0  0  0  0  0  0  0  0  0
   -9.7608   18.9878  -31.5442 H   0  0  0  0  0  0  0  0  0  0  0  0
   -8.0508   19.5377  -31.5442 H   0  0  0  0  0  0  0  0  0  0  0  0
  -10.0550   20.8345  -32.8219 H   0  0  0  0  0  0  0  0  0  0  0  0
  -10.1063   21.6480  -31.2050 H   0  0  0  0  0  0  0  0  0  0  0  0
   -7.9624   20.0447  -34.0720 H   0  0  0  0  0  0  0  0  0  0  0  0
   -6.6550   18.5500  -35.2320 H   0  0  0  0  0  0  0  0  0  0  0  0
   -4.5596   17.4173  -35.7295 H   0  0  0  0  0  0  0  0  0  0  0  0
   -1.5947   22.1372  -32.8820 H   0  0  0  0  0  0  0  0  0  0  0  0
   -0.8344   23.6028  -31.0327 H   0  0  0  0  0  0  0  0  0  0  0  0
   -0.4140   22.5410  -27.6910 H   0  0  0  0  0  0  0  0  0  0  0  0
   -0.9321   23.6511  -25.8433 H   0  0  0  0  0  0  0  0  0  0  0  0
   -0.1641   25.0741  -23.9399 H   0  0  0  0  0  0  0  0  0  0  0  0
    2.3976   29.4906  -22.3124 H   0  0  0  0  0  0  0  0  0  0  0  0
    2.3499   27.8918  -21.5448 H   0  0  0  0  0  0  0  0  0  0  0  0
    4.6006   28.8082  -23.4438 H   0  0  0  0  0  0  0  0  0  0  0  0
    4.7040   28.9610  -21.6688 H   0  0  0  0  0  0  0  0  0  0  0  0
    4.3237   25.3041  -23.3616 H   0  0  0  0  0  0  0  0  0  0  0  0
    3.0333   25.8547  -22.2041 H   0  0  0  0  0  0  0  0  0  0  0  0
    3.6569   27.0956  -24.9138 H   0  0  0  0  0  0  0  0  0  0  0  0
    2.2681   26.0297  -24.5337 H   0  0  0  0  0  0  0  0  0  0  0  0
    0.1680   28.4310  -26.6092 H   0  0  0  0  0  0  0  0  0  0  0  0
   -0.5899   27.0154  -28.4750 H   0  0  0  0  0  0  0  0  0  0  0  0
   -2.2600   19.6060  -27.6160 H   0  0  0  0  0  0  0  0  0  0  0  0
   -2.8251   19.1251  -29.9954 H   0  0  0  0  0  0  0  0  0  0  0  0
   -3.9840   21.2951  -31.3493 H   0  0  0  0  0  0  0  0  0  0  0  0
   -7.1260   22.6580  -30.1100 H   0  0  0  0  0  0  0  0  0  0  0  0
   -5.3951   24.2288  -28.4655 H   0  0  0  0  0  0  0  0  0  0  0  0
   -4.6124   25.4077  -29.5529 H   0  0  0  0  0  0  0  0  0  0  0  0
   -7.2324   25.6010  -28.6997 H   0  0  0  0  0  0  0  0  0  0  0  0
   -6.6341   26.3037  -30.2407 H   0  0  0  0  0  0  0  0  0  0  0  0
   -7.4525   24.7047  -30.2407 H   0  0  0  0  0  0  0  0  0  0  0  0
  1  2  1  0
  2  3  1  0
  3  4  1  0
  4  5  2  0
  5  6  1  0
  6  7  1  0
  7  8  1  0
  8  9  2  0
  9 10  1  0
 10 11  2  0
 11 12  1  0
 12 13  2  0
 13 14  1  0
 14 15  2  0
 15 16  1  0
 16 17  1  0
 17 18  2  0
 17 19  1  0
 19 20  2  0
 20 21  1  0
 21 22  2  0
 22 23  1  0
 23 24  2  0
 23 25  2  0
 23 26  1  0
 26 27  1  0
 27 28  1  0
 28 29  1  0
 29 30  1  0
 30 31  1  0
 22 32  1  0
 32 33  2  0
 15 34  1  0
 34 35  1  0
 34 36  2  0
 10 37  1  0
 37 38  1  0
 38 39  2  0
 39 40  1  0
 40 41  1  0
 41 42  2  0
 41 43  1  0
 43 44  1  0
 39  4  1  0
 37  6  2  0
 36 12  1  0
 33 19  1  0
 31 26  1  0
  1 45  1  0
  1 46  1  0
  1 47  1  0
  2 48  1  0
  2 49  1  0
  5 50  1  0
  7 51  1  0
  8 52  1  0
 13 53  1  0
 14 54  1  0
 16 55  1  0
 20 56  1  0
 21 57  1  0
 27 58  1  0
 27 59  1  0
 28 60  1  0
 28 61  1  0
 30 62  1  0
 30 63  1  0
 31 64  1  0
 31 65  1  0
 32 66  1  0
 33 67  1  0
 35 68  1  0
 36 69  1  0
 38 70  1  0
 40 71  1  0
 43 72  1  0
 43 73  1  0
 44 74  1  0
 44 75  1  0
 44 76  1  0
M  END
>  <smiles>  (46) 
CCOc1cc2[nH]cnc(=Nc3ccc(NC(=O)c4ccc(S(=O)(=O)N5CCOCC5)cc4)c(O)c3)c2cc1NC(=O)CC

>  <score_type>  (46) 
oracle

>  <origin>  (46) 
adgpu

>  <m_score__min__energy>  (46) 
-10.390000000000001

>  <m_primary>  (46) 
energy

$$$$
46:0
     RDKit          3D

 50 52  0  0  0  0  0  0  0  0999 V2000
   -3.1870   18.5620  -25.7880 C   0  0  0  0  0  0  0  0  0  0  0  0
   -2.4870   19.4760  -26.7500 C   0  0  0  0  0  0  0  0  0  0  0  0
   -1.2120   19.1510  -27.2360 C   0  0  0  0  0  0  0  0  0  0  0  0
   -0.5750   19.9840  -28.1600 C   0  0  0  0  0  0  0  0  0  0  0  0
   -1.2150   21.1420  -28.6290 C   0  0  0  0  0  0  0  0  0  0  0  0
   -0.5120   22.0600  -29.5960 C   0  0  0  0  0  0  0  0  0  0  0  0
   -1.4060   23.1570  -30.0040 N   0  0  0  0  0  0  0  0  0  0  0  0
   -2.4170   22.7130  -30.9780 C   0  0  0  0  0  0  0  0  0  0  0  0
   -3.7860   23.2770  -30.6700 C   0  0  0  0  0  0  0  0  0  0  0  0
   -4.9370   22.5480  -31.0130 C   0  0  0  0  0  0  0  0  0  0  0  0
   -6.2130   23.0670  -30.7550 C   0  0  0  0  0  0  0  0  0  0  0  0
   -7.6510   22.1380  -31.1890 S   0  0  0  0  0  0  0  0  0  0  0  0
   -8.5810   22.0860  -30.0090 O   0  0  0  0  0  0  0  0  0  0  0  0
   -8.3650   22.8370  -32.3130 O   0  0  0  0  0  0  0  0  0  0  0  0
   -7.2500   20.5120  -31.6820 N   0  0  0  0  0  0  0  0  0  0  0  0
   -6.6050   20.5190  -33.0060 C   0  0  0  0  0  0  0  0  0  0  0  0
   -6.4670   19.0840  -33.5530 C   0  0  0  0  0  0  0  0  0  0  0  0
   -6.7270   18.1260  -32.5440 O   0  0  0  0  0  0  0  0  0  0  0  0
   -8.0750   18.2300  -32.1190 C   0  0  0  0  0  0  0  0  0  0  0  0
   -8.4530   19.6690  -31.7090 C   0  0  0  0  0  0  0  0  0  0  0  0
   -6.3400   24.3250  -30.1530 C   0  0  0  0  0  0  0  0  0  0  0  0
   -5.2010   25.0590  -29.8120 C   0  0  0  0  0  0  0  0  0  0  0  0
   -3.9270   24.5420  -30.0680 C   0  0  0  0  0  0  0  0  0  0  0  0
   -2.8080   25.2920  -29.7220 O   0  0  0  0  0  0  0  0  0  0  0  0
   -2.4920   21.4660  -28.1450 C   0  0  0  0  0  0  0  0  0  0  0  0
   -3.1290   20.6320  -27.2210 C   0  0  0  0  0  0  0  0  0  0  0  0
   -2.9537   18.8666  -24.7571 H   0  0  0  0  0  0  0  0  0  0  0  0
   -4.2733   18.6207  -25.9508 H   0  0  0  0  0  0  0  0  0  0  0  0
   -2.8472   17.5285  -25.9508 H   0  0  0  0  0  0  0  0  0  0  0  0
   -0.7108   18.2357  -26.8881 H   0  0  0  0  0  0  0  0  0  0  0  0
    0.4326   19.7310  -28.5214 H   0  0  0  0  0  0  0  0  0  0  0  0
    0.3813   22.4814  -29.1117 H   0  0  0  0  0  0  0  0  0  0  0  0
   -0.2224   21.4850  -30.4879 H   0  0  0  0  0  0  0  0  0  0  0  0
   -0.8420   23.9430  -30.4080 H   0  0  0  0  0  0  0  0  0  0  0  0
   -1.9070   23.5150  -29.1580 H   0  0  0  0  0  0  0  0  0  0  0  0
   -2.1134   23.0455  -31.9816 H   0  0  0  0  0  0  0  0  0  0  0  0
   -2.4814   21.6162  -30.9250 H   0  0  0  0  0  0  0  0  0  0  0  0
   -4.8357   21.5611  -31.4883 H   0  0  0  0  0  0  0  0  0  0  0  0
   -7.2153   21.1134  -33.7018 H   0  0  0  0  0  0  0  0  0  0  0  0
   -5.6012   20.9580  -32.9079 H   0  0  0  0  0  0  0  0  0  0  0  0
   -7.1836   18.9428  -34.3755 H   0  0  0  0  0  0  0  0  0  0  0  0
   -5.4359   18.9441  -33.9097 H   0  0  0  0  0  0  0  0  0  0  0  0
   -8.7308   17.9138  -32.9436 H   0  0  0  0  0  0  0  0  0  0  0  0
   -8.1990   17.5860  -31.2359 H   0  0  0  0  0  0  0  0  0  0  0  0
   -9.1699   20.0792  -32.4355 H   0  0  0  0  0  0  0  0  0  0  0  0
   -8.9076   19.6533  -30.7074 H   0  0  0  0  0  0  0  0  0  0  0  0
   -7.3393   24.7365  -29.9480 H   0  0  0  0  0  0  0  0  0  0  0  0
   -5.3068   26.0472  -29.3404 H   0  0  0  0  0  0  0  0  0  0  0  0
   -2.9940   22.3803  -28.4942 H   0  0  0  0  0  0  0  0  0  0  0  0
   -4.1379   20.8829  -26.8615 H   0  0  0  0  0  0  0  0  0  0  0  0
  1  2  1  0
  2  3  2  0
  3  4  1  0
  4  5  2  0
  5  6  1  0
  6  7  1  0
  7  8  1  0
  8  9  1  0
  9 10  2  0
 10 11  1  0
 11 12  1  0
 12 13  2  0
 12 14  2  0
 12 15  1  0
 15 16  1  0
 16 17  1  0
 17 18  1  0
 18 19  1  0
 19 20  1  0
 11 21  2  0
 21 22  1  0
 22 23  2  0
 23 24  1  0
  5 25  1  0
 25 26  2  0
 26  2  1  0
 23  9  1  0
 20 15  1  0
  1 27  1  0
  1 28  1  0
  1 29  1  0
  3 30  1  0
  4 31  1  0
  6 32  1  0
  6 33  1  0
  7 34  1  0
  7 35  1  0
  8 36  1  0
  8 37  1  0
 10 38  1  0
 16 39  1  0
 16 40  1  0
 17 41  1  0
 17 42  1  0
 19 43  1  0
 19 44  1  0
 20 45  1  0
 20 46  1  0
 21 47  1  0
 22 48  1  0
 25 49  1  0
 26 50  1  0
M  CHG  2   7   1  24  -1
M  END
>  <UniqueID>  (47) 
45

>  <SMILES>  (47) 
Cc1ccc(C[NH2+]Cc2cc(S(=O)(=O)N3CCOCC3)ccc2[O-])cc1

>  <Energy>  (47) 
56.653202784974184

>  <Genealogy>  (47) 
Cc1ccc(C[NH2+]Cc2cc(S(=O)(=O)N3CCOCC3)ccc2[O-])cc1 (protonated)
Cc1ccc(C[NH2+]Cc2cc(S(=O)(=O)N3CCOCC3)ccc2[O-])cc1 (3D coordinates assigned)
Cc1ccc(C[NH2+]Cc2cc(S(=O)(=O)N3CCOCC3)ccc2[O-])cc1 (nonaromatic ring conformer: 56.653202784974184 kcal/mol)

>  <smiles>  (47) 
Cc1ccc(CNCc2cc(S(=O)(=O)N3CCOCC3)ccc2O)cc1

>  <score_type>  (47) 
oracle

>  <origin>  (47) 
adgpu

>  <m_score__min__energy>  (47) 
-11.02

>  <m_primary>  (47) 
energy

$$$$
47:0
     RDKit          3D

 62 66  0  0  0  0  0  0  0  0999 V2000
   -2.8430   25.2980  -30.8050 H   0  0  0  0  0  0  0  0  0  0  0  0
   -3.8870   25.3040  -30.8150 N   0  0  0  0  0  0  0  0  0  0  0  0
   -4.6380   24.5860  -29.8390 C   0  0  0  0  0  0  0  0  0  0  0  0
   -4.5370   24.8980  -28.6230 O   0  0  0  0  0  0  0  0  0  0  0  0
   -5.5850   23.5290  -30.2560 C   0  0  0  0  0  0  0  0  0  0  0  0
   -6.9500   23.8480  -30.2060 C   0  0  0  0  0  0  0  0  0  0  0  0
   -7.2770   24.7520  -29.6714 H   0  0  0  0  0  0  0  0  0  0  0  0
   -7.8700   23.0580  -30.8070 N   0  0  0  0  0  0  0  0  0  0  0  0
   -7.5240   21.9330  -31.4790 C   0  0  0  0  0  0  0  0  0  0  0  0
   -8.5150   21.1730  -32.1050 C   0  0  0  0  0  0  0  0  0  0  0  0
   -9.5664   21.4911  -32.0479 H   0  0  0  0  0  0  0  0  0  0  0  0
   -8.1780   20.0130  -32.8020 C   0  0  0  0  0  0  0  0  0  0  0  0
   -8.9660   19.4214  -33.2910 H   0  0  0  0  0  0  0  0  0  0  0  0
   -6.8410   19.5950  -32.8840 C   0  0  0  0  0  0  0  0  0  0  0  0
   -6.4970   18.3890  -33.5930 N   0  0  0  0  0  0  0  0  0  0  0  0
   -5.7360   18.4570  -34.8460 C   0  0  0  0  0  0  0  0  0  0  0  0
   -4.9842   19.2563  -34.7690 H   0  0  0  0  0  0  0  0  0  0  0  0
   -6.4321   18.6661  -35.6717 H   0  0  0  0  0  0  0  0  0  0  0  0
   -5.0260   17.1210  -35.1240 C   0  0  0  0  0  0  0  0  0  0  0  0
   -4.1631   17.3072  -35.7803 H   0  0  0  0  0  0  0  0  0  0  0  0
   -5.7501   16.4443  -35.6012 H   0  0  0  0  0  0  0  0  0  0  0  0
   -4.5490   16.4760  -33.8780 N   0  0  0  0  0  0  0  0  0  0  0  0
   -4.1030   15.5700  -34.1570 H   0  0  0  0  0  0  0  0  0  0  0  0
   -3.4920   17.2760  -33.2250 C   0  0  0  0  0  0  0  0  0  0  0  0
   -3.5952   17.1979  -32.1326 H   0  0  0  0  0  0  0  0  0  0  0  0
   -2.5050   16.8966  -33.5281 H   0  0  0  0  0  0  0  0  0  0  0  0
   -3.5890   18.3289  -33.5281 H   0  0  0  0  0  0  0  0  0  0  0  0
   -5.6560   16.1600  -32.9330 C   0  0  0  0  0  0  0  0  0  0  0  0
   -5.2752   16.2649  -31.9064 H   0  0  0  0  0  0  0  0  0  0  0  0
   -5.9855   15.1352  -33.1593 H   0  0  0  0  0  0  0  0  0  0  0  0
   -6.8910   17.0710  -33.0880 C   0  0  0  0  0  0  0  0  0  0  0  0
   -7.3785   17.1894  -32.1091 H   0  0  0  0  0  0  0  0  0  0  0  0
   -7.5860   16.6089  -33.8046 H   0  0  0  0  0  0  0  0  0  0  0  0
   -5.8450   20.3470  -32.2390 C   0  0  0  0  0  0  0  0  0  0  0  0
   -4.7984   20.0110  -32.2811 H   0  0  0  0  0  0  0  0  0  0  0  0
   -6.1700   21.5290  -31.5370 C   0  0  0  0  0  0  0  0  0  0  0  0
   -5.1880   22.2960  -30.8610 C   0  0  0  0  0  0  0  0  0  0  0  0
   -3.9700   21.8150  -30.7970 N   0  0  0  0  0  0  0  0  0  0  0  0
   -2.8670   22.2150  -29.9720 C   0  0  0  0  0  0  0  0  0  0  0  0
   -1.6860   22.7220  -30.5370 C   0  0  0  0  0  0  0  0  0  0  0  0
   -1.5922   22.8036  -31.6300 H   0  0  0  0  0  0  0  0  0  0  0  0
   -0.6300   23.1230  -29.7160 C   0  0  0  0  0  0  0  0  0  0  0  0
    0.3061   23.4864  -30.1650 H   0  0  0  0  0  0  0  0  0  0  0  0
   -0.7590   23.0640  -28.3230 C   0  0  0  0  0  0  0  0  0  0  0  0
    0.6090   23.4880  -27.2970 S   0  0  0  0  0  0  0  0  0  0  0  0
    1.4700   22.2730  -27.1050 O   0  0  0  0  0  0  0  0  0  0  0  0
    1.4390   24.5670  -27.9350 O   0  0  0  0  0  0  0  0  0  0  0  0
    0.0350   24.0320  -25.7530 N   0  0  0  0  0  0  0  0  0  0  0  0
   -0.2640   25.2660  -25.4860 C   0  0  0  0  0  0  0  0  0  0  0  0
   -0.1310   26.2390  -26.4330 N   0  0  0  0  0  0  0  0  0  0  0  0
   -0.4520   27.5360  -26.1820 C   0  0  0  0  0  0  0  0  0  0  0  0
   -0.3340   28.2940  -26.9703 H   0  0  0  0  0  0  0  0  0  0  0  0
   -0.9310   27.9060  -24.9250 C   0  0  0  0  0  0  0  0  0  0  0  0
   -1.1963   28.9531  -24.7172 H   0  0  0  0  0  0  0  0  0  0  0  0
   -1.0700   26.9320  -23.9330 C   0  0  0  0  0  0  0  0  0  0  0  0
   -1.4428   27.2095  -22.9360 H   0  0  0  0  0  0  0  0  0  0  0  0
   -0.7340   25.6040  -24.2110 C   0  0  0  0  0  0  0  0  0  0  0  0
   -0.8379   24.8313  -23.4351 H   0  0  0  0  0  0  0  0  0  0  0  0
   -1.9600   22.6110  -27.7570 C   0  0  0  0  0  0  0  0  0  0  0  0
   -2.0720   22.5751  -26.6633 H   0  0  0  0  0  0  0  0  0  0  0  0
   -3.0150   22.2050  -28.5800 C   0  0  0  0  0  0  0  0  0  0  0  0
   -3.9645   21.8766  -28.1321 H   0  0  0  0  0  0  0  0  0  0  0  0
  1  2  1  0
  2  3  1  0
  3  4  2  0
  3  5  1  0
  5  6  2  0
  6  7  1  0
  6  8  1  0
  8  9  1  0
  9 10  2  0
 10 11  1  0
 10 12  1  0
 12 13  1  0
 12 14  2  0
 14 15  1  0
 15 16  1  0
 16 17  1  0
 16 18  1  0
 16 19  1  0
 19 20  1  0
 19 21  1  0
 19 22  1  0
 22 23  1  0
 22 24  1  0
 24 25  1  0
 24 26  1  0
 24 27  1  0
 22 28  1  0
 28 29  1  0
 28 30  1  0
 28 31  1  0
 31 32  1  0
 31 33  1  0
 14 34  1  0
 34 35  1  0
 34 36  2  0
 36 37  1  0
 37 38  2  0
 38 39  1  0
 39 40  2  0
 40 41  1  0
 40 42  1  0
 42 43  1  0
 42 44  2  0
 44 45  1  0
 45 46  2  0
 45 47  2  0
 45 48  1  0
 48 49  2  0
 49 50  1  0
 50 51  1  0
 51 52  1  0
 51 53  2  0
 53 54  1  0
 53 55  1  0
 55 56  1  0
 55 57  2  0
 57 58  1  0
 44 59  1  0
 59 60  1  0
 59 61  2  0
 61 62  1  0
 37  5  1  0
 61 39  1  0
 36  9  1  0
 57 49  1  0
 31 15  1  0
M  CHG  4   2  -1   8  -1  22   1  50  -1
M  END
>  <UniqueID>  (48) 
46

>  <SMILES>  (48) 
C[NH+]1CCN(c2ccc3[n-]cc(C([NH-])=O)/c(=N\c4ccc(S(=O)(=O)/N=c5/cccc[n-]5)cc4)c3c2)CC1

>  <Energy>  (48) 
107.96983281309888

>  <Genealogy>  (48) 
C[NH+]1CCN(c2ccc3[n-]cc(C([NH-])=O)c(=Nc4ccc(S(=O)(=O)N=c5cccc[n-]5)cc4)c3c2)CC1 (protonated)
C[NH+]1CCN(c2ccc3[n-]cc(C([NH-])=O)/c(=N\c4ccc(S(=O)(=O)/N=c5/cccc[n-]5)cc4)c3c2)CC1 (cis-trans isomerization)
C[NH+]1CCN(c2ccc3[n-]cc(C([NH-])=O)/c(=N\c4ccc(S(=O)(=O)/N=c5/cccc[n-]5)cc4)c3c2)CC1 (3D coordinates assigned)
C[NH+]1CCN(c2ccc3[n-]cc(C([NH-])=O)/c(=N\c4ccc(S(=O)(=O)/N=c5/cccc[n-]5)cc4)c3c2)CC1 (nonaromatic ring conformer: 107.96983281309888 kcal/mol)

>  <smiles>  (48) 
CN1CCN(c2ccc3[nH]cc(C(N)=O)c(=Nc4ccc(S(=O)(=O)N=c5cccc[nH]5)cc4)c3c2)CC1

>  <score_type>  (48) 
oracle

>  <origin>  (48) 
adgpu

>  <m_score__min__energy>  (48) 
-12.6

>  <m_primary>  (48) 
energy

$$$$
48:0
     RDKit          3D

 36 37  0  0  0  0  0  0  0  0999 V2000
   -2.1510   15.6910  -35.2510 C   0  0  0  0  0  0  0  0  0  0  0  0
   -3.3280   16.1020  -34.4290 C   0  0  0  0  0  0  0  0  0  0  0  0
   -3.4170   15.7120  -33.2330 O   0  0  0  0  0  0  0  0  0  0  0  0
   -4.3590   16.9120  -35.0150 N   0  0  0  0  0  0  0  0  0  0  0  0
   -5.4190   17.5330  -34.2690 C   0  0  0  0  0  0  0  0  0  0  0  0
   -5.5680   18.9270  -34.3150 C   0  0  0  0  0  0  0  0  0  0  0  0
   -6.5770   19.5580  -33.5820 C   0  0  0  0  0  0  0  0  0  0  0  0
   -7.4450   18.8030  -32.7780 C   0  0  0  0  0  0  0  0  0  0  0  0
   -8.5520   19.4720  -32.0070 C   0  0  0  0  0  0  0  0  0  0  0  0
   -8.6140   20.8970  -32.3300 N   0  0  0  0  0  0  0  0  0  0  0  0
   -7.8780   21.8170  -31.7760 C   0  0  0  0  0  0  0  0  0  0  0  0
   -8.0200   23.1490  -32.1790 C   0  0  0  0  0  0  0  0  0  0  0  0
   -7.2270   24.1340  -31.5880 C   0  0  0  0  0  0  0  0  0  0  0  0
   -6.2940   23.7840  -30.6050 C   0  0  0  0  0  0  0  0  0  0  0  0
   -5.2800   25.0070  -29.8460 S   0  0  0  0  0  0  0  0  0  0  0  0
   -3.8690   25.2690  -30.8090 N   0  0  0  0  0  0  0  0  0  0  0  0
   -6.0500   26.2920  -29.7220 O   0  0  0  0  0  0  0  0  0  0  0  0
   -4.8690   24.5550  -28.4730 O   0  0  0  0  0  0  0  0  0  0  0  0
   -6.1910   22.4440  -30.2160 C   0  0  0  0  0  0  0  0  0  0  0  0
   -6.9730   21.5010  -30.8050 N   0  0  0  0  0  0  0  0  0  0  0  0
   -7.2850   17.4100  -32.7130 C   0  0  0  0  0  0  0  0  0  0  0  0
   -6.2760   16.7800  -33.4450 C   0  0  0  0  0  0  0  0  0  0  0  0
   -1.3230   15.4019  -34.5870 H   0  0  0  0  0  0  0  0  0  0  0  0
   -2.4276   14.8362  -35.8857 H   0  0  0  0  0  0  0  0  0  0  0  0
   -1.8354   16.5321  -35.8857 H   0  0  0  0  0  0  0  0  0  0  0  0
   -4.3860   16.9820  -36.0580 H   0  0  0  0  0  0  0  0  0  0  0  0
   -4.8852   19.5285  -34.9330 H   0  0  0  0  0  0  0  0  0  0  0  0
   -6.6913   20.6507  -33.6355 H   0  0  0  0  0  0  0  0  0  0  0  0
   -9.5108   18.9999  -32.2675 H   0  0  0  0  0  0  0  0  0  0  0  0
   -8.3535   19.3600  -30.9309 H   0  0  0  0  0  0  0  0  0  0  0  0
   -8.7510   23.4181  -32.9557 H   0  0  0  0  0  0  0  0  0  0  0  0
   -7.3352   25.1848  -31.8946 H   0  0  0  0  0  0  0  0  0  0  0  0
   -3.9500   26.2290  -31.2140 H   0  0  0  0  0  0  0  0  0  0  0  0
   -5.4760   22.1531  -29.4323 H   0  0  0  0  0  0  0  0  0  0  0  0
   -7.9581   16.8111  -32.0820 H   0  0  0  0  0  0  0  0  0  0  0  0
   -6.1505   15.6893  -33.3770 H   0  0  0  0  0  0  0  0  0  0  0  0
  1  2  1  0
  2  3  2  0
  2  4  1  0
  4  5  1  0
  5  6  2  0
  6  7  1  0
  7  8  2  0
  8  9  1  0
  9 10  1  0
 10 11  2  3
 11 12  1  0
 12 13  2  0
 13 14  1  0
 14 15  1  0
 15 16  1  0
 15 17  2  0
 15 18  2  0
 14 19  2  0
 19 20  1  0
  8 21  1  0
 21 22  2  0
 22  5  1  0
 20 11  1  0
  1 23  1  0
  1 24  1  0
  1 25  1  0
  4 26  1  0
  6 27  1  0
  7 28  1  0
  9 29  1  0
  9 30  1  0
 12 31  1  0
 13 32  1  0
 16 33  1  0
 19 34  1  0
 21 35  1  0
 22 36  1  0
M  CHG  2  16  -1  20  -1
M  END
>  <UniqueID>  (49) 
47

>  <SMILES>  (49) 
CC(=O)Nc1ccc(CN=c2ccc(S([NH-])(=O)=O)c[n-]2)cc1

>  <Energy>  (49) 
37.608741409110415

>  <Genealogy>  (49) 
CC(=O)Nc1ccc(CN=c2ccc(S([NH-])(=O)=O)c[n-]2)cc1 (protonated)
CC(=O)Nc1ccc(CN=c2ccc(S([NH-])(=O)=O)c[n-]2)cc1 (3D coordinates assigned)
CC(=O)Nc1ccc(CN=c2ccc(S([NH-])(=O)=O)c[n-]2)cc1 (optimized conformer: 37.608741409110415 kcal/mol)

>  <smiles>  (49) 
CC(=O)Nc1ccc(CN=c2ccc(S(N)(=O)=O)c[nH]2)cc1

>  <score_type>  (49) 
oracle

>  <origin>  (49) 
adgpu

>  <m_score__min__energy>  (49) 
-10.119999999999999

>  <m_primary>  (49) 
energy

$$$$
49:0
     RDKit          3D

 43 46  0  0  0  0  0  0  0  0999 V2000
   -6.4081   24.2863  -32.9159 H   0  0  0  0  0  0  0  0  0  0  0  0
   -5.7630   23.7810  -32.1820 C   0  0  0  0  0  0  0  0  0  0  0  0
   -5.0680   24.5140  -31.2770 N   0  0  0  0  0  0  0  0  0  0  0  0
   -4.2650   23.9330  -30.3490 C   0  0  0  0  0  0  0  0  0  0  0  0
   -3.5760   24.7350  -29.4330 C   0  0  0  0  0  0  0  0  0  0  0  0
   -3.6901   25.8284  -29.4727 H   0  0  0  0  0  0  0  0  0  0  0  0
   -2.7390   24.1570  -28.4620 C   0  0  0  0  0  0  0  0  0  0  0  0
   -2.0100   25.0130  -27.4910 C   0  0  0  0  0  0  0  0  0  0  0  0
   -0.7900   25.6170  -27.8450 C   0  0  0  0  0  0  0  0  0  0  0  0
   -0.3724   25.4558  -28.8498 H   0  0  0  0  0  0  0  0  0  0  0  0
   -0.1040   26.4210  -26.9290 C   0  0  0  0  0  0  0  0  0  0  0  0
    0.8514   26.8849  -27.2155 H   0  0  0  0  0  0  0  0  0  0  0  0
   -0.6280   26.6380  -25.6490 C   0  0  0  0  0  0  0  0  0  0  0  0
    0.2420   27.6370  -24.4900 S   0  0  0  0  0  0  0  0  0  0  0  0
    1.7210   27.5400  -24.7420 O   0  0  0  0  0  0  0  0  0  0  0  0
   -0.1800   29.0730  -24.6410 O   0  0  0  0  0  0  0  0  0  0  0  0
   -0.1070   27.0930  -22.8870 N   0  0  0  0  0  0  0  0  0  0  0  0
    0.7010   26.5070  -22.5810 H   0  0  0  0  0  0  0  0  0  0  0  0
   -0.1170   27.9390  -22.2730 H   0  0  0  0  0  0  0  0  0  0  0  0
   -1.8380   26.0320  -25.2870 C   0  0  0  0  0  0  0  0  0  0  0  0
   -2.2485   26.1896  -24.2787 H   0  0  0  0  0  0  0  0  0  0  0  0
   -2.5260   25.2290  -26.1990 C   0  0  0  0  0  0  0  0  0  0  0  0
   -3.4778   24.7619  -25.9059 H   0  0  0  0  0  0  0  0  0  0  0  0
   -2.6030   22.7600  -28.4250 C   0  0  0  0  0  0  0  0  0  0  0  0
   -1.9504   22.2971  -27.6701 H   0  0  0  0  0  0  0  0  0  0  0  0
   -3.2870   21.9510  -29.3360 C   0  0  0  0  0  0  0  0  0  0  0  0
   -3.1695   20.8582  -29.2915 H   0  0  0  0  0  0  0  0  0  0  0  0
   -4.1260   22.5250  -30.3110 C   0  0  0  0  0  0  0  0  0  0  0  0
   -4.8280   21.7390  -31.2560 C   0  0  0  0  0  0  0  0  0  0  0  0
   -4.7150   20.4370  -31.2200 N   0  0  0  0  0  0  0  0  0  0  0  0
   -5.2640   19.4790  -32.1400 C   0  0  0  0  0  0  0  0  0  0  0  0
   -6.4830   18.8330  -31.8690 C   0  0  0  0  0  0  0  0  0  0  0  0
   -7.0054   19.0241  -30.9200 H   0  0  0  0  0  0  0  0  0  0  0  0
   -7.0340   17.9480  -32.8020 C   0  0  0  0  0  0  0  0  0  0  0  0
   -7.9783   17.4302  -32.5781 H   0  0  0  0  0  0  0  0  0  0  0  0
   -6.3840   17.7220  -34.0190 C   0  0  0  0  0  0  0  0  0  0  0  0
   -6.8125   17.0192  -34.7487 H   0  0  0  0  0  0  0  0  0  0  0  0
   -5.1910   18.3880  -34.3090 C   0  0  0  0  0  0  0  0  0  0  0  0
   -4.6871   18.2165  -35.2716 H   0  0  0  0  0  0  0  0  0  0  0  0
   -4.6350   19.2730  -33.3780 C   0  0  0  0  0  0  0  0  0  0  0  0
   -3.4560   19.9420  -33.6830 O   0  0  0  0  0  0  0  0  0  0  0  0
   -5.6640   22.3890  -32.1870 C   0  0  0  0  0  0  0  0  0  0  0  0
   -6.2379   21.7991  -32.9169 H   0  0  0  0  0  0  0  0  0  0  0  0
  1  2  1  0
  2  3  1  0
  3  4  1  0
  4  5  2  0
  5  6  1  0
  5  7  1  0
  7  8  1  0
  8  9  2  0
  9 10  1  0
  9 11  1  0
 11 12  1  0
 11 13  2  0
 13 14  1  0
 14 15  2  0
 14 16  2  0
 14 17  1  0
 17 18  1  0
 17 19  1  0
 13 20  1  0
 20 21  1  0
 20 22  2  0
 22 23  1  0
  7 24  2  0
 24 25  1  0
 24 26  1  0
 26 27  1  0
 26 28  2  0
 28 29  1  0
 29 30  2  0
 30 31  1  0
 31 32  2  0
 32 33  1  0
 32 34  1  0
 34 35  1  0
 34 36  2  0
 36 37  1  0
 36 38  1  0
 38 39  1  0
 38 40  2  0
 40 41  1  0
 29 42  1  0
 42 43  1  0
 42  2  2  0
 28  4  1  0
 40 31  1  0
 22  8  1  0
M  CHG  2   3  -1  41  -1
M  END
>  <UniqueID>  (50) 
48

>  <SMILES>  (50) 
NS(=O)(=O)c1ccc(-c2ccc3/c(=N/c4ccccc4[O-])cc[n-]c3c2)cc1

>  <Energy>  (50) 
67.01466417256086

>  <Genealogy>  (50) 
NS(=O)(=O)c1ccc(-c2ccc3c(=Nc4ccccc4[O-])cc[n-]c3c2)cc1 (protonated)
NS(=O)(=O)c1ccc(-c2ccc3/c(=N/c4ccccc4[O-])cc[n-]c3c2)cc1 (cis-trans isomerization)
NS(=O)(=O)c1ccc(-c2ccc3/c(=N/c4ccccc4[O-])cc[n-]c3c2)cc1 (3D coordinates assigned)
NS(=O)(=O)c1ccc(-c2ccc3/c(=N/c4ccccc4[O-])cc[n-]c3c2)cc1 (optimized conformer: 67.01466417256086 kcal/mol)

>  <smiles>  (50) 
NS(=O)(=O)c1ccc(-c2ccc3c(=Nc4ccccc4O)cc[nH]c3c2)cc1

>  <score_type>  (50) 
oracle

>  <origin>  (50) 
adgpu

>  <m_score__min__energy>  (50) 
-10.109999999999999

>  <m_primary>  (50) 
energy

$$$$
