0:0
     RDKit          3D

 42 44  0  0  0  0  0  0  0  0999 V2000
   -5.7520   26.0600  -30.1380 C   0  0  0  0  0  0  0  0  0  0  0  0
   -5.3760   24.7480  -30.7630 C   0  0  0  0  0  0  0  0  0  0  0  0
   -6.2780   24.1770  -31.6480 C   0  0  0  0  0  0  0  0  0  0  0  0
   -6.1790   22.9780  -32.3320 C   0  0  0  0  0  0  0  0  0  0  0  0
   -5.1630   22.0130  -32.3170 C   0  0  0  0  0  0  0  0  0  0  0  0
   -5.4200   20.7900  -33.1910 C   0  0  0  0  0  0  0  0  0  0  0  0
   -6.5630   19.9730  -32.6460 C   0  0  0  0  0  0  0  0  0  0  0  0
   -7.8790   20.4640  -32.7140 C   0  0  0  0  0  0  0  0  0  0  0  0
   -8.9440   19.6970  -32.2310 C   0  0  0  0  0  0  0  0  0  0  0  0
   -8.7050   18.4350  -31.6810 C   0  0  0  0  0  0  0  0  0  0  0  0
   -7.4000   17.9380  -31.6120 C   0  0  0  0  0  0  0  0  0  0  0  0
   -6.3330   18.7020  -32.0930 C   0  0  0  0  0  0  0  0  0  0  0  0
   -3.9320   22.0880  -31.6250 C   0  0  0  0  0  0  0  0  0  0  0  0
   -3.1450   21.1100  -31.7720 O   0  0  0  0  0  0  0  0  0  0  0  0
   -3.4760   23.1310  -30.7880 C   0  0  0  0  0  0  0  0  0  0  0  0
   -2.1150   23.0070  -30.1360 C   0  0  0  0  0  0  0  0  0  0  0  0
   -2.0270   23.8980  -28.9240 C   0  0  0  0  0  0  0  0  0  0  0  0
   -1.0830   24.9380  -28.8820 C   0  0  0  0  0  0  0  0  0  0  0  0
   -1.0150   25.7830  -27.7700 C   0  0  0  0  0  0  0  0  0  0  0  0
   -1.8890   25.5980  -26.6950 C   0  0  0  0  0  0  0  0  0  0  0  0
   -2.8340   24.5690  -26.7320 C   0  0  0  0  0  0  0  0  0  0  0  0
   -2.9060   23.7220  -27.8420 C   0  0  0  0  0  0  0  0  0  0  0  0
   -4.1660   24.2440  -30.4450 N   0  0  0  0  0  0  0  0  0  0  0  0
   -5.7249   25.9654  -29.0424 H   0  0  0  0  0  0  0  0  0  0  0  0
   -5.0399   26.8355  -30.4568 H   0  0  0  0  0  0  0  0  0  0  0  0
   -6.7667   26.3406  -30.4568 H   0  0  0  0  0  0  0  0  0  0  0  0
   -7.1959   24.7549  -31.8310 H   0  0  0  0  0  0  0  0  0  0  0  0
   -7.0299   22.7466  -32.9895 H   0  0  0  0  0  0  0  0  0  0  0  0
   -5.6673   21.1209  -34.2105 H   0  0  0  0  0  0  0  0  0  0  0  0
   -4.5139   20.1664  -33.1999 H   0  0  0  0  0  0  0  0  0  0  0  0
   -8.0716   21.4558  -33.1490 H   0  0  0  0  0  0  0  0  0  0  0  0
   -9.9709   20.0877  -32.2841 H   0  0  0  0  0  0  0  0  0  0  0  0
   -9.5437   17.8324  -31.3022 H   0  0  0  0  0  0  0  0  0  0  0  0
   -7.2128   16.9445  -31.1786 H   0  0  0  0  0  0  0  0  0  0  0  0
   -5.3081   18.3063  -32.0383 H   0  0  0  0  0  0  0  0  0  0  0  0
   -1.9541   21.9627  -29.8300 H   0  0  0  0  0  0  0  0  0  0  0  0
   -1.3449   23.3133  -30.8593 H   0  0  0  0  0  0  0  0  0  0  0  0
   -0.3950   25.0879  -29.7270 H   0  0  0  0  0  0  0  0  0  0  0  0
   -0.2728   26.5943  -27.7412 H   0  0  0  0  0  0  0  0  0  0  0  0
   -1.8330   26.2622  -25.8200 H   0  0  0  0  0  0  0  0  0  0  0  0
   -3.5224   24.4252  -25.8862 H   0  0  0  0  0  0  0  0  0  0  0  0
   -3.6532   22.9152  -27.8684 H   0  0  0  0  0  0  0  0  0  0  0  0
  1  2  1  0
  2  3  2  0
  3  4  1  0
  4  5  2  0
  5  6  1  0
  6  7  1  0
  7  8  2  0
  8  9  1  0
  9 10  2  0
 10 11  1  0
 11 12  2  0
  5 13  1  0
 13 14  2  0
 13 15  1  0
 15 16  1  0
 16 17  1  0
 17 18  2  0
 18 19  1  0
 19 20  2  0
 20 21  1  0
 21 22  2  0
 15 23  2  0
 23  2  1  0
 12  7  1  0
 22 17  1  0
  1 24  1  0
  1 25  1  0
  1 26  1  0
  3 27  1  0
  4 28  1  0
  6 29  1  0
  6 30  1  0
  8 31  1  0
  9 32  1  0
 10 33  1  0
 11 34  1  0
 12 35  1  0
 16 36  1  0
 16 37  1  0
 18 38  1  0
 19 39  1  0
 20 40  1  0
 21 41  1  0
 22 42  1  0
M  END
>  <UniqueID>  (1) 
1

>  <SMILES>  (1) 
Cc1ccc(Cc2ccccc2)c(=O)c(Cc2ccccc2)n1

>  <Energy>  (1) 
66.74619217088339

>  <Genealogy>  (1) 
Cc1ccc(Cc2ccccc2)c(=O)c(Cc2ccccc2)n1 (3D coordinates assigned)
Cc1ccc(Cc2ccccc2)c(=O)c(Cc2ccccc2)n1 (optimized conformer: 66.74619217088339 kcal/mol)

>  <smiles>  (1) 
Cc1ccc(Cc2ccccc2)c(=O)c(Cc2ccccc2)n1

>  <score_type>  (1) 
oracle

>  <origin>  (1) 
adgpu

>  <m_score__min__energy>  (1) 
-8.8599999999999994

>  <m_primary>  (1) 
energy

$$$$
1:0
     RDKit          3D

 22 24  0  0  0  0  0  0  0  0999 V2000
   -8.7490   21.9760  -30.6440 O   0  0  0  0  0  0  0  0  0  0  0  0
   -7.5950   22.0130  -31.1530 C   0  0  0  0  0  0  0  0  0  0  0  0
   -7.1240   20.9010  -32.0130 C   0  0  0  0  0  0  0  0  0  0  0  0
   -7.9490   19.7940  -32.2750 C   0  0  0  0  0  0  0  0  0  0  0  0
   -7.4810   18.7620  -33.0880 C   0  0  0  0  0  0  0  0  0  0  0  0
   -6.2340   18.8260  -33.6230 N   0  0  0  0  0  0  0  0  0  0  0  0
   -5.4100   19.8820  -33.3910 C   0  0  0  0  0  0  0  0  0  0  0  0
   -5.8340   20.9470  -32.5790 C   0  0  0  0  0  0  0  0  0  0  0  0
   -4.9480   22.1050  -32.3150 C   0  0  0  0  0  0  0  0  0  0  0  0
   -3.7930   22.1550  -32.8180 O   0  0  0  0  0  0  0  0  0  0  0  0
   -5.4190   23.2100  -31.4600 C   0  0  0  0  0  0  0  0  0  0  0  0
   -4.6040   24.2750  -31.2170 N   0  0  0  0  0  0  0  0  0  0  0  0
   -4.9940   25.3150  -30.4360 C   0  0  0  0  0  0  0  0  0  0  0  0
   -6.2610   25.3160  -29.8540 C   0  0  0  0  0  0  0  0  0  0  0  0
   -7.1200   24.2410  -30.0820 C   0  0  0  0  0  0  0  0  0  0  0  0
   -6.7070   23.1700  -30.8910 C   0  0  0  0  0  0  0  0  0  0  0  0
   -8.9585   19.7417  -31.8412 H   0  0  0  0  0  0  0  0  0  0  0  0
   -8.1234   17.8938  -33.2966 H   0  0  0  0  0  0  0  0  0  0  0  0
   -4.4066   19.9026  -33.8412 H   0  0  0  0  0  0  0  0  0  0  0  0
   -4.3092   26.1581  -30.2622 H   0  0  0  0  0  0  0  0  0  0  0  0
   -6.5802   26.1569  -29.2208 H   0  0  0  0  0  0  0  0  0  0  0  0
   -8.1218   24.2321  -29.6277 H   0  0  0  0  0  0  0  0  0  0  0  0
  1  2  2  0
  2  3  1  0
  3  4  2  0
  4  5  1  0
  5  6  2  0
  6  7  1  0
  7  8  2  0
  8  9  1  0
  9 10  2  0
  9 11  1  0
 11 12  2  0
 12 13  1  0
 13 14  2  0
 14 15  1  0
 15 16  2  0
 16  2  1  0
  8  3  1  0
 16 11  1  0
  4 17  1  0
  5 18  1  0
  7 19  1  0
 13 20  1  0
 14 21  1  0
 15 22  1  0
M  END
>  <UniqueID>  (2) 
2

>  <SMILES>  (2) 
O=C1c2ccncc2C(=O)c2ncccc21

>  <Energy>  (2) 
30.221218500037253

>  <Genealogy>  (2) 
O=C1c2ccncc2C(=O)c2ncccc21 (3D coordinates assigned)
O=C1c2ccncc2C(=O)c2ncccc21 (nonaromatic ring conformer: 30.221218500037253 kcal/mol)

>  <smiles>  (2) 
O=C1c2ccncc2C(=O)c2ncccc21

>  <score_type>  (2) 
oracle

>  <origin>  (2) 
adgpu

>  <m_score__min__energy>  (2) 
-7.0899999999999999

>  <m_primary>  (2) 
energy

$$$$
2:0
     RDKit          3D

 27 28  0  0  0  0  0  0  0  0999 V2000
   -9.4600   21.5680  -31.3240 C   0  0  0  0  0  0  0  0  0  0  0  0
   -8.4140   20.6510  -31.7940 C   0  0  0  0  0  0  0  0  0  0  0  0
   -8.6980   19.2780  -31.6670 C   0  0  0  0  0  0  0  0  0  0  0  0
   -7.7990   18.3070  -32.0220 C   0  0  0  0  0  0  0  0  0  0  0  0
   -6.5770   18.7510  -32.5200 C   0  0  0  0  0  0  0  0  0  0  0  0
   -6.3030   20.0830  -32.6440 C   0  0  0  0  0  0  0  0  0  0  0  0
   -7.2140   21.0920  -32.2850 C   0  0  0  0  0  0  0  0  0  0  0  0
   -6.7850   22.4040  -32.4410 N   0  0  0  0  0  0  0  0  0  0  0  0
   -6.5160   23.4000  -31.5060 C   0  0  0  0  0  0  0  0  0  0  0  0
   -5.1460   23.7260  -31.3590 C   0  0  0  0  0  0  0  0  0  0  0  0
   -4.7160   24.6870  -30.4880 C   0  0  0  0  0  0  0  0  0  0  0  0
   -3.4500   24.9420  -30.3910 N   0  0  0  0  0  0  0  0  0  0  0  0
   -5.6230   25.3680  -29.7270 N   0  0  0  0  0  0  0  0  0  0  0  0
   -6.9440   25.0630  -29.8570 C   0  0  0  0  0  0  0  0  0  0  0  0
   -7.3440   24.0940  -30.7380 N   0  0  0  0  0  0  0  0  0  0  0  0
   -9.4716   21.5782  -30.2241 H   0  0  0  0  0  0  0  0  0  0  0  0
   -9.2540   22.5818  -31.6979 H   0  0  0  0  0  0  0  0  0  0  0  0
  -10.4381   21.2311  -31.6979 H   0  0  0  0  0  0  0  0  0  0  0  0
   -9.6771   18.9738  -31.2683 H   0  0  0  0  0  0  0  0  0  0  0  0
   -8.0298   17.2364  -31.9193 H   0  0  0  0  0  0  0  0  0  0  0  0
   -5.8172   18.0142  -32.8195 H   0  0  0  0  0  0  0  0  0  0  0  0
   -5.3225   20.3809  -33.0439 H   0  0  0  0  0  0  0  0  0  0  0  0
   -6.6290   22.7090  -33.4750 H   0  0  0  0  0  0  0  0  0  0  0  0
   -4.4032   23.1878  -31.9661 H   0  0  0  0  0  0  0  0  0  0  0  0
   -3.1000   25.6740  -29.7310 H   0  0  0  0  0  0  0  0  0  0  0  0
   -7.6920   25.5968  -29.2524 H   0  0  0  0  0  0  0  0  0  0  0  0
   -8.3590   23.9270  -30.7540 H   0  0  0  0  0  0  0  0  0  0  0  0
  1  2  1  0
  2  3  2  0
  3  4  1  0
  4  5  2  0
  5  6  1  0
  6  7  2  0
  7  8  1  0
  8  9  1  0
  9 10  2  0
 10 11  1  0
 11 12  2  3
 11 13  1  0
 13 14  2  0
 14 15  1  0
  7  2  1  0
 15  9  1  0
  1 16  1  0
  1 17  1  0
  1 18  1  0
  3 19  1  0
  4 20  1  0
  5 21  1  0
  6 22  1  0
  8 23  1  0
 10 24  1  0
 12 25  1  0
 14 26  1  0
 15 27  1  0
M  END
>  <smiles>  (3) 
Cc1ccccc1Nc1cc(=N)nc[nH]1

>  <score_type>  (3) 
oracle

>  <origin>  (3) 
adgpu

>  <m_score__min__energy>  (3) 
-7.1399999999999997

>  <m_primary>  (3) 
energy

$$$$
3:0
     RDKit          3D

 36 38  0  0  0  0  0  0  0  0999 V2000
    0.4176   24.1446  -28.6588 H   0  0  0  0  0  0  0  0  0  0  0  0
   -0.6710   24.1350  -28.5010 C   0  0  0  0  0  0  0  0  0  0  0  0
   -1.5050   24.5360  -29.4960 N   0  0  0  0  0  0  0  0  0  0  0  0
   -2.8580   24.5440  -29.3540 C   0  0  0  0  0  0  0  0  0  0  0  0
   -3.5850   24.9370  -30.3600 N   0  0  0  0  0  0  0  0  0  0  0  0
   -5.3200   25.0180  -30.4160 S   0  0  0  0  0  0  0  0  0  0  0  0
   -5.8520   25.1580  -29.0170 O   0  0  0  0  0  0  0  0  0  0  0  0
   -5.7280   26.2240  -31.2150 O   0  0  0  0  0  0  0  0  0  0  0  0
   -5.9740   23.5780  -31.1910 C   0  0  0  0  0  0  0  0  0  0  0  0
   -5.1150   22.6800  -31.8390 C   0  0  0  0  0  0  0  0  0  0  0  0
   -4.0344   22.8825  -31.8738 H   0  0  0  0  0  0  0  0  0  0  0  0
   -5.6280   21.5280  -32.4410 C   0  0  0  0  0  0  0  0  0  0  0  0
   -4.9501   20.8306  -32.9549 H   0  0  0  0  0  0  0  0  0  0  0  0
   -7.0070   21.2560  -32.3930 C   0  0  0  0  0  0  0  0  0  0  0  0
   -7.5600   20.1160  -32.9940 O   0  0  0  0  0  0  0  0  0  0  0  0
   -6.8480   18.9640  -33.3600 C   0  0  0  0  0  0  0  0  0  0  0  0
   -6.1070   18.8950  -34.5550 C   0  0  0  0  0  0  0  0  0  0  0  0
   -6.0865   19.7569  -35.2382 H   0  0  0  0  0  0  0  0  0  0  0  0
   -5.3970   17.7340  -34.8760 C   0  0  0  0  0  0  0  0  0  0  0  0
   -4.8267   17.6808  -35.8151 H   0  0  0  0  0  0  0  0  0  0  0  0
   -5.4110   16.6410  -34.0050 C   0  0  0  0  0  0  0  0  0  0  0  0
   -4.8571   15.7259  -34.2616 H   0  0  0  0  0  0  0  0  0  0  0  0
   -6.1290   16.7110  -32.8080 C   0  0  0  0  0  0  0  0  0  0  0  0
   -6.1358   15.8526  -32.1202 H   0  0  0  0  0  0  0  0  0  0  0  0
   -6.8390   17.8720  -32.4840 C   0  0  0  0  0  0  0  0  0  0  0  0
   -7.3934   17.9272  -31.5355 H   0  0  0  0  0  0  0  0  0  0  0  0
   -7.8640   22.1710  -31.7690 C   0  0  0  0  0  0  0  0  0  0  0  0
   -8.9475   21.9819  -31.7540 H   0  0  0  0  0  0  0  0  0  0  0  0
   -7.3520   23.3230  -31.1650 C   0  0  0  0  0  0  0  0  0  0  0  0
   -8.0319   24.0308  -30.6683 H   0  0  0  0  0  0  0  0  0  0  0  0
   -3.4200   24.1230  -28.1290 C   0  0  0  0  0  0  0  0  0  0  0  0
   -4.5112   24.1228  -27.9899 H   0  0  0  0  0  0  0  0  0  0  0  0
   -2.5780   23.7070  -27.0960 C   0  0  0  0  0  0  0  0  0  0  0  0
   -3.0051   23.3761  -26.1378 H   0  0  0  0  0  0  0  0  0  0  0  0
   -1.1950   23.7110  -27.2790 C   0  0  0  0  0  0  0  0  0  0  0  0
   -0.5255   23.3839  -26.4698 H   0  0  0  0  0  0  0  0  0  0  0  0
  1  2  1  0
  2  3  1  0
  3  4  1  0
  4  5  2  0
  5  6  1  0
  6  7  2  0
  6  8  2  0
  6  9  1  0
  9 10  2  0
 10 11  1  0
 10 12  1  0
 12 13  1  0
 12 14  2  0
 14 15  1  0
 15 16  1  0
 16 17  2  0
 17 18  1  0
 17 19  1  0
 19 20  1  0
 19 21  2  0
 21 22  1  0
 21 23  1  0
 23 24  1  0
 23 25  2  0
 25 26  1  0
 14 27  1  0
 27 28  1  0
 27 29  2  0
 29 30  1  0
  4 31  1  0
 31 32  1  0
 31 33  2  0
 33 34  1  0
 33 35  1  0
 35 36  1  0
 35  2  2  0
 29  9  1  0
 25 16  1  0
M  CHG  1   3  -1
M  END
>  <UniqueID>  (4) 
3

>  <SMILES>  (4) 
O=S(=O)(/N=c1\cccc[n-]1)c1ccc(Oc2ccccc2)cc1

>  <Energy>  (4) 
51.293709674079665

>  <Genealogy>  (4) 
O=S(=O)(N=c1cccc[n-]1)c1ccc(Oc2ccccc2)cc1 (protonated)
O=S(=O)(/N=c1\cccc[n-]1)c1ccc(Oc2ccccc2)cc1 (cis-trans isomerization)
O=S(=O)(/N=c1\cccc[n-]1)c1ccc(Oc2ccccc2)cc1 (3D coordinates assigned)
O=S(=O)(/N=c1\cccc[n-]1)c1ccc(Oc2ccccc2)cc1 (optimized conformer: 51.293709674079665 kcal/mol)

>  <smiles>  (4) 
O=S(=O)(N=c1cccc[nH]1)c1ccc(Oc2ccccc2)cc1

>  <score_type>  (4) 
oracle

>  <origin>  (4) 
adgpu

>  <m_score__min__energy>  (4) 
-9.8800000000000008

>  <m_primary>  (4) 
energy

$$$$
4:0
     RDKit          3D

 33 34  0  0  0  0  0  0  0  0999 V2000
   -8.3520   22.0360  -31.8540 C   0  0  0  0  0  0  0  0  0  0  0  0
   -7.1030   22.7870  -31.4710 C   0  0  0  0  0  0  0  0  0  0  0  0
   -7.2390   24.0310  -30.8320 C   0  0  0  0  0  0  0  0  0  0  0  0
   -6.1170   24.7710  -30.4610 C   0  0  0  0  0  0  0  0  0  0  0  0
   -4.8290   24.2800  -30.7120 C   0  0  0  0  0  0  0  0  0  0  0  0
   -3.6570   25.0310  -30.3500 N   0  0  0  0  0  0  0  0  0  0  0  0
   -2.6200   24.5410  -29.4890 C   0  0  0  0  0  0  0  0  0  0  0  0
   -2.5620   23.3180  -29.1920 O   0  0  0  0  0  0  0  0  0  0  0  0
   -1.5970   25.4430  -29.0490 N   0  0  0  0  0  0  0  0  0  0  0  0
   -1.3270   25.8310  -27.6940 C   0  0  0  0  0  0  0  0  0  0  0  0
   -1.9180   25.0990  -26.6560 C   0  0  0  0  0  0  0  0  0  0  0  0
   -1.6640   25.4310  -25.3210 C   0  0  0  0  0  0  0  0  0  0  0  0
   -0.8030   26.4890  -25.0140 C   0  0  0  0  0  0  0  0  0  0  0  0
   -0.4830   26.9020  -23.3390 Cl  0  0  0  0  0  0  0  0  0  0  0  0
   -0.1900   27.2100  -26.0420 C   0  0  0  0  0  0  0  0  0  0  0  0
   -0.4430   26.8800  -27.3780 C   0  0  0  0  0  0  0  0  0  0  0  0
   -4.6820   23.0590  -31.3850 C   0  0  0  0  0  0  0  0  0  0  0  0
   -5.8040   22.3040  -31.7850 C   0  0  0  0  0  0  0  0  0  0  0  0
   -5.5990   20.9760  -32.4920 C   0  0  0  0  0  0  0  0  0  0  0  0
   -6.5520   20.8290  -33.4840 F   0  0  0  0  0  0  0  0  0  0  0  0
   -5.7140   19.9080  -31.6190 F   0  0  0  0  0  0  0  0  0  0  0  0
   -4.3380   20.9240  -33.0570 F   0  0  0  0  0  0  0  0  0  0  0  0
   -8.8818   21.7174  -30.9442 H   0  0  0  0  0  0  0  0  0  0  0  0
   -9.0058   22.6909  -32.4487 H   0  0  0  0  0  0  0  0  0  0  0  0
   -8.0802   21.1515  -32.4487 H   0  0  0  0  0  0  0  0  0  0  0  0
   -8.2438   24.4262  -30.6217 H   0  0  0  0  0  0  0  0  0  0  0  0
   -6.2438   25.7462  -29.9682 H   0  0  0  0  0  0  0  0  0  0  0  0
   -3.5080   25.9620  -30.8000 H   0  0  0  0  0  0  0  0  0  0  0  0
   -2.5861   24.2577  -26.8922 H   0  0  0  0  0  0  0  0  0  0  0  0
   -2.1421   24.8592  -24.5120 H   0  0  0  0  0  0  0  0  0  0  0  0
    0.4925   28.0382  -25.8006 H   0  0  0  0  0  0  0  0  0  0  0  0
    0.0507   27.4423  -28.1843 H   0  0  0  0  0  0  0  0  0  0  0  0
   -3.6721   22.6826  -31.6053 H   0  0  0  0  0  0  0  0  0  0  0  0
  1  2  1  0
  2  3  2  0
  3  4  1  0
  4  5  2  0
  5  6  1  0
  6  7  1  0
  7  8  2  0
  7  9  1  0
  9 10  1  0
 10 11  2  0
 11 12  1  0
 12 13  2  0
 13 14  1  0
 13 15  1  0
 15 16  2  0
  5 17  1  0
 17 18  2  0
 18 19  1  0
 19 20  1  0
 19 21  1  0
 19 22  1  0
 18  2  1  0
 16 10  1  0
  1 23  1  0
  1 24  1  0
  1 25  1  0
  3 26  1  0
  4 27  1  0
  6 28  1  0
 11 29  1  0
 12 30  1  0
 15 31  1  0
 16 32  1  0
 17 33  1  0
M  CHG  1   9  -1
M  END
>  <UniqueID>  (5) 
4

>  <SMILES>  (5) 
Cc1ccc(NC(=O)[N-]c2ccc(Cl)cc2)cc1C(F)(F)F

>  <Energy>  (5) 
42.69574677824119

>  <Genealogy>  (5) 
Cc1ccc(NC(=O)[N-]c2ccc(Cl)cc2)cc1C(F)(F)F (protonated)
Cc1ccc(NC(=O)[N-]c2ccc(Cl)cc2)cc1C(F)(F)F (3D coordinates assigned)
Cc1ccc(NC(=O)[N-]c2ccc(Cl)cc2)cc1C(F)(F)F (optimized conformer: 42.69574677824119 kcal/mol)

>  <smiles>  (5) 
Cc1ccc(NC(=O)Nc2ccc(Cl)cc2)cc1C(F)(F)F

>  <score_type>  (5) 
oracle

>  <origin>  (5) 
adgpu

>  <m_score__min__energy>  (5) 
-8.8599999999999994

>  <m_primary>  (5) 
energy

$$$$
5:0
     RDKit          3D

 46 49  0  0  0  0  0  0  0  0999 V2000
   -9.1650   21.2880  -31.6150 C   0  0  0  0  0  0  0  0  0  0  0  0
   -8.5840   19.9320  -31.8450 C   0  0  0  0  0  0  0  0  0  0  0  0
   -9.0970   18.7970  -31.3290 N   0  0  0  0  0  0  0  0  0  0  0  0
   -8.3700   17.8130  -31.7740 O   0  0  0  0  0  0  0  0  0  0  0  0
   -7.4080   18.2470  -32.5550 C   0  0  0  0  0  0  0  0  0  0  0  0
   -6.4330   17.3600  -33.2580 C   0  0  0  0  0  0  0  0  0  0  0  0
   -7.4920   19.6240  -32.6340 C   0  0  0  0  0  0  0  0  0  0  0  0
   -6.6730   20.5530  -33.4830 C   0  0  0  0  0  0  0  0  0  0  0  0
   -6.0430   21.5680  -32.6460 N   0  0  0  0  0  0  0  0  0  0  0  0
   -4.8720   21.4380  -31.9940 C   0  0  0  0  0  0  0  0  0  0  0  0
   -4.6040   22.6420  -31.3740 C   0  0  0  0  0  0  0  0  0  0  0  0
   -3.4540   22.9680  -30.5690 N   0  0  0  0  0  0  0  0  0  0  0  0
   -3.1270   24.1670  -30.0360 C   0  0  0  0  0  0  0  0  0  0  0  0
   -3.8620   25.3380  -30.1990 O   0  0  0  0  0  0  0  0  0  0  0  0
   -1.9510   24.0570  -29.3210 C   0  0  0  0  0  0  0  0  0  0  0  0
   -1.5320   22.7790  -29.4140 N   0  0  0  0  0  0  0  0  0  0  0  0
   -0.3660   22.1930  -28.7560 C   0  0  0  0  0  0  0  0  0  0  0  0
   -0.7630   20.9380  -28.0250 C   0  0  0  0  0  0  0  0  0  0  0  0
   -0.0950   19.7300  -28.2890 C   0  0  0  0  0  0  0  0  0  0  0  0
   -0.4870   18.5510  -27.6460 C   0  0  0  0  0  0  0  0  0  0  0  0
   -1.5520   18.5680  -26.7420 C   0  0  0  0  0  0  0  0  0  0  0  0
   -2.2290   19.7620  -26.4820 C   0  0  0  0  0  0  0  0  0  0  0  0
   -1.8410   20.9440  -27.1220 C   0  0  0  0  0  0  0  0  0  0  0  0
   -2.5190   22.0920  -26.8620 F   0  0  0  0  0  0  0  0  0  0  0  0
   -2.4590   22.1460  -30.1640 C   0  0  0  0  0  0  0  0  0  0  0  0
   -2.4070   20.9160  -30.4370 O   0  0  0  0  0  0  0  0  0  0  0  0
   -5.6660   23.4700  -31.6970 C   0  0  0  0  0  0  0  0  0  0  0  0
   -6.5280   22.7890  -32.4770 N   0  0  0  0  0  0  0  0  0  0  0  0
   -9.2448   21.4742  -30.5338 H   0  0  0  0  0  0  0  0  0  0  0  0
   -8.5136   22.0482  -32.0709 H   0  0  0  0  0  0  0  0  0  0  0  0
  -10.1647   21.3407  -32.0709 H   0  0  0  0  0  0  0  0  0  0  0  0
   -5.8327   16.8139  -32.5155 H   0  0  0  0  0  0  0  0  0  0  0  0
   -6.9786   16.6421  -33.8881 H   0  0  0  0  0  0  0  0  0  0  0  0
   -5.7698   17.9709  -33.8881 H   0  0  0  0  0  0  0  0  0  0  0  0
   -5.8949   19.9778  -34.0062 H   0  0  0  0  0  0  0  0  0  0  0  0
   -7.3289   21.0454  -34.2160 H   0  0  0  0  0  0  0  0  0  0  0  0
   -4.2431   20.5361  -31.9613 H   0  0  0  0  0  0  0  0  0  0  0  0
   -4.4770   25.6700  -29.4660 H   0  0  0  0  0  0  0  0  0  0  0  0
   -1.4465   24.8669  -28.7737 H   0  0  0  0  0  0  0  0  0  0  0  0
    0.3945   21.9488  -29.5123 H   0  0  0  0  0  0  0  0  0  0  0  0
    0.0430   22.9163  -28.0352 H   0  0  0  0  0  0  0  0  0  0  0  0
    0.7401   19.7115  -29.0047 H   0  0  0  0  0  0  0  0  0  0  0  0
    0.0437   17.6099  -27.8524 H   0  0  0  0  0  0  0  0  0  0  0  0
   -1.8576   17.6410  -26.2348 H   0  0  0  0  0  0  0  0  0  0  0  0
   -3.0693   19.7728  -25.7722 H   0  0  0  0  0  0  0  0  0  0  0  0
   -5.7862   24.5134  -31.3701 H   0  0  0  0  0  0  0  0  0  0  0  0
  1  2  1  0
  2  3  2  0
  3  4  1  0
  4  5  1  0
  5  6  1  0
  5  7  2  0
  7  8  1  0
  8  9  1  0
  9 10  1  0
 10 11  2  0
 11 12  1  0
 12 13  1  0
 13 14  1  0
 13 15  2  0
 15 16  1  0
 16 17  1  0
 17 18  1  0
 18 19  2  0
 19 20  1  0
 20 21  2  0
 21 22  1  0
 22 23  2  0
 23 24  1  0
 16 25  1  0
 25 26  2  0
 11 27  1  0
 27 28  2  0
  7  2  1  0
 28  9  1  0
 25 12  1  0
 23 18  1  0
  1 29  1  0
  1 30  1  0
  1 31  1  0
  6 32  1  0
  6 33  1  0
  6 34  1  0
  8 35  1  0
  8 36  1  0
 10 37  1  0
 14 38  1  0
 15 39  1  0
 17 40  1  0
 17 41  1  0
 19 42  1  0
 20 43  1  0
 21 44  1  0
 22 45  1  0
 27 46  1  0
M  END
>  <UniqueID>  (6) 
5

>  <SMILES>  (6) 
Cc1noc(C)c1Cn1cc(-n2c(O)cn(Cc3ccccc3F)c2=O)cn1

>  <Energy>  (6) 
142.02790835940547

>  <Genealogy>  (6) 
Cc1noc(C)c1Cn1cc(-n2c(O)cn(Cc3ccccc3F)c2=O)cn1 (3D coordinates assigned)
Cc1noc(C)c1Cn1cc(-n2c(O)cn(Cc3ccccc3F)c2=O)cn1 (optimized conformer: 142.02790835940547 kcal/mol)

>  <smiles>  (6) 
Cc1noc(C)c1Cn1cc(-n2c(O)cn(Cc3ccccc3F)c2=O)cn1

>  <score_type>  (6) 
oracle

>  <origin>  (6) 
adgpu

>  <m_score__min__energy>  (6) 
-9.3000000000000007

>  <m_primary>  (6) 
energy

$$$$
6:0
     RDKit          3D

 31 33  0  0  0  0  0  0  0  0999 V2000
   -1.2378   23.7211  -26.1263 H   0  0  0  0  0  0  0  0  0  0  0  0
   -1.7880   23.9280  -27.0560 C   0  0  0  0  0  0  0  0  0  0  0  0
   -2.7770   23.0930  -27.4650 N   0  0  0  0  0  0  0  0  0  0  0  0
   -3.4850   23.3290  -28.5990 C   0  0  0  0  0  0  0  0  0  0  0  0
   -4.2744   22.6315  -28.9156 H   0  0  0  0  0  0  0  0  0  0  0  0
   -3.2000   24.4740  -29.3660 C   0  0  0  0  0  0  0  0  0  0  0  0
   -3.8310   24.7640  -30.4700 N   0  0  0  0  0  0  0  0  0  0  0  0
   -4.9710   24.0940  -31.0280 C   0  0  0  0  0  0  0  0  0  0  0  0
   -6.2580   24.5170  -30.6670 C   0  0  0  0  0  0  0  0  0  0  0  0
   -6.3828   25.3811  -29.9979 H   0  0  0  0  0  0  0  0  0  0  0  0
   -7.3840   23.8450  -31.1540 C   0  0  0  0  0  0  0  0  0  0  0  0
   -8.3916   24.1936  -30.8835 H   0  0  0  0  0  0  0  0  0  0  0  0
   -7.2300   22.7310  -31.9840 C   0  0  0  0  0  0  0  0  0  0  0  0
   -8.1165   22.2082  -32.3722 H   0  0  0  0  0  0  0  0  0  0  0  0
   -5.9510   22.2810  -32.3210 C   0  0  0  0  0  0  0  0  0  0  0  0
   -5.8308   21.3999  -32.9685 H   0  0  0  0  0  0  0  0  0  0  0  0
   -4.8230   22.9510  -31.8350 C   0  0  0  0  0  0  0  0  0  0  0  0
   -3.8169   22.5829  -32.0847 H   0  0  0  0  0  0  0  0  0  0  0  0
   -2.1940   25.2920  -28.9590 N   0  0  0  0  0  0  0  0  0  0  0  0
   -1.4720   25.0580  -27.8280 C   0  0  0  0  0  0  0  0  0  0  0  0
   -0.3960   26.0040  -27.4380 C   0  0  0  0  0  0  0  0  0  0  0  0
    0.9230   25.5380  -27.2780 C   0  0  0  0  0  0  0  0  0  0  0  0
    1.1497   24.4751  -27.4482 H   0  0  0  0  0  0  0  0  0  0  0  0
    1.9470   26.4130  -26.9050 C   0  0  0  0  0  0  0  0  0  0  0  0
    2.9747   26.0381  -26.7901 H   0  0  0  0  0  0  0  0  0  0  0  0
    1.6680   27.7620  -26.6780 C   0  0  0  0  0  0  0  0  0  0  0  0
    2.4755   28.4498  -26.3868 H   0  0  0  0  0  0  0  0  0  0  0  0
    0.3630   28.2370  -26.8210 C   0  0  0  0  0  0  0  0  0  0  0  0
    0.1431   29.2993  -26.6388 H   0  0  0  0  0  0  0  0  0  0  0  0
   -0.6650   27.3670  -27.1950 C   0  0  0  0  0  0  0  0  0  0  0  0
   -1.6914   27.7482  -27.3006 H   0  0  0  0  0  0  0  0  0  0  0  0
  1  2  1  0
  2  3  1  0
  3  4  2  0
  4  5  1  0
  4  6  1  0
  6  7  2  0
  7  8  1  0
  8  9  2  0
  9 10  1  0
  9 11  1  0
 11 12  1  0
 11 13  2  0
 13 14  1  0
 13 15  1  0
 15 16  1  0
 15 17  2  0
 17 18  1  0
  6 19  1  0
 19 20  1  0
 20 21  1  0
 21 22  2  0
 22 23  1  0
 22 24  1  0
 24 25  1  0
 24 26  2  0
 26 27  1  0
 26 28  1  0
 28 29  1  0
 28 30  2  0
 30 31  1  0
 20  2  2  0
 30 21  1  0
 17  8  1  0
M  CHG  1  19  -1
M  END
>  <UniqueID>  (7) 
6

>  <SMILES>  (7) 
c1ccc(/N=c2\cncc(-c3ccccc3)[n-]2)cc1

>  <Energy>  (7) 
49.286583760001015

>  <Genealogy>  (7) 
c1ccc(N=c2cncc(-c3ccccc3)[n-]2)cc1 (protonated)
c1ccc(/N=c2\cncc(-c3ccccc3)[n-]2)cc1 (cis-trans isomerization)
c1ccc(/N=c2\cncc(-c3ccccc3)[n-]2)cc1 (3D coordinates assigned)
c1ccc(/N=c2\cncc(-c3ccccc3)[n-]2)cc1 (optimized conformer: 49.286583760001015 kcal/mol)

>  <smiles>  (7) 
c1ccc(N=c2cncc(-c3ccccc3)[nH]2)cc1

>  <score_type>  (7) 
oracle

>  <origin>  (7) 
adgpu

>  <m_score__min__energy>  (7) 
-8.0099999999999998

>  <m_primary>  (7) 
energy

$$$$
7:0
     RDKit          3D

 31 32  0  0  0  0  0  0  0  0999 V2000
   -2.8830   24.0100  -27.8770 C   0  0  0  0  0  0  0  0  0  0  0  0
   -2.6170   24.9210  -29.0360 C   0  0  0  0  0  0  0  0  0  0  0  0
   -1.6010   25.6650  -29.0060 O   0  0  0  0  0  0  0  0  0  0  0  0
   -3.5030   25.0030  -30.1610 N   0  0  0  0  0  0  0  0  0  0  0  0
   -4.4680   24.0210  -30.5640 C   0  0  0  0  0  0  0  0  0  0  0  0
   -5.7470   23.9670  -29.9920 C   0  0  0  0  0  0  0  0  0  0  0  0
   -6.6480   22.9750  -30.3780 C   0  0  0  0  0  0  0  0  0  0  0  0
   -6.2870   22.0080  -31.3280 C   0  0  0  0  0  0  0  0  0  0  0  0
   -7.2710   20.9590  -31.6820 C   0  0  0  0  0  0  0  0  0  0  0  0
   -6.9150   19.6010  -31.6380 C   0  0  0  0  0  0  0  0  0  0  0  0
   -7.8540   18.6170  -31.9620 C   0  0  0  0  0  0  0  0  0  0  0  0
   -9.1540   18.9800  -32.3240 C   0  0  0  0  0  0  0  0  0  0  0  0
   -9.5190   20.3280  -32.3580 C   0  0  0  0  0  0  0  0  0  0  0  0
   -8.5840   21.3160  -32.0340 C   0  0  0  0  0  0  0  0  0  0  0  0
   -4.9970   22.0570  -31.9130 C   0  0  0  0  0  0  0  0  0  0  0  0
   -4.5560   21.0620  -32.9540 C   0  0  0  0  0  0  0  0  0  0  0  0
   -4.0930   23.0500  -31.4980 C   0  0  0  0  0  0  0  0  0  0  0  0
   -2.7232   24.5573  -26.9363 H   0  0  0  0  0  0  0  0  0  0  0  0
   -3.9227   23.6536  -27.9218 H   0  0  0  0  0  0  0  0  0  0  0  0
   -2.1984   23.1502  -27.9218 H   0  0  0  0  0  0  0  0  0  0  0  0
   -6.0409   24.7099  -29.2359 H   0  0  0  0  0  0  0  0  0  0  0  0
   -7.6534   22.9505  -29.9324 H   0  0  0  0  0  0  0  0  0  0  0  0
   -5.8944   19.3108  -31.3478 H   0  0  0  0  0  0  0  0  0  0  0  0
   -7.5689   17.5550  -31.9319 H   0  0  0  0  0  0  0  0  0  0  0  0
   -9.8899   18.2043  -32.5822 H   0  0  0  0  0  0  0  0  0  0  0  0
  -10.5434   20.6127  -32.6401 H   0  0  0  0  0  0  0  0  0  0  0  0
   -8.8771   22.3760  -32.0547 H   0  0  0  0  0  0  0  0  0  0  0  0
   -4.1582   20.1644  -32.4580 H   0  0  0  0  0  0  0  0  0  0  0  0
   -5.4150   20.7835  -33.5822 H   0  0  0  0  0  0  0  0  0  0  0  0
   -3.7728   21.5114  -33.5822 H   0  0  0  0  0  0  0  0  0  0  0  0
   -3.0749   23.0636  -31.9143 H   0  0  0  0  0  0  0  0  0  0  0  0
  1  2  1  0
  2  3  2  0
  2  4  1  0
  4  5  1  0
  5  6  2  0
  6  7  1  0
  7  8  2  0
  8  9  1  0
  9 10  2  0
 10 11  1  0
 11 12  2  0
 12 13  1  0
 13 14  2  0
  8 15  1  0
 15 16  1  0
 15 17  2  0
 17  5  1  0
 14  9  1  0
  1 18  1  0
  1 19  1  0
  1 20  1  0
  6 21  1  0
  7 22  1  0
 10 23  1  0
 11 24  1  0
 12 25  1  0
 13 26  1  0
 14 27  1  0
 16 28  1  0
 16 29  1  0
 16 30  1  0
 17 31  1  0
M  CHG  1   4  -1
M  END
>  <UniqueID>  (8) 
7

>  <SMILES>  (8) 
CC(=O)[N-]c1ccc(-c2ccccc2)c(C)c1

>  <Energy>  (8) 
41.95189001109957

>  <Genealogy>  (8) 
CC(=O)[N-]c1ccc(-c2ccccc2)c(C)c1 (protonated)
CC(=O)[N-]c1ccc(-c2ccccc2)c(C)c1 (3D coordinates assigned)
CC(=O)[N-]c1ccc(-c2ccccc2)c(C)c1 (optimized conformer: 41.95189001109957 kcal/mol)

>  <smiles>  (8) 
CC(=O)Nc1ccc(-c2ccccc2)c(C)c1

>  <score_type>  (8) 
oracle

>  <origin>  (8) 
adgpu

>  <m_score__min__energy>  (8) 
-9.4800000000000004

>  <m_primary>  (8) 
energy

$$$$
8:0
     RDKit          3D

 30 31  0  0  0  0  0  0  0  0999 V2000
   -5.8080   20.8040  -32.9770 C   0  0  0  0  0  0  0  0  0  0  0  0
   -5.9650   22.0640  -32.1790 C   0  0  0  0  0  0  0  0  0  0  0  0
   -7.2430   22.5930  -31.9370 C   0  0  0  0  0  0  0  0  0  0  0  0
   -7.3840   23.7950  -31.2400 C   0  0  0  0  0  0  0  0  0  0  0  0
   -6.2550   24.4790  -30.7830 C   0  0  0  0  0  0  0  0  0  0  0  0
   -4.9750   23.9600  -31.0080 C   0  0  0  0  0  0  0  0  0  0  0  0
   -3.8340   24.7060  -30.5620 N   0  0  0  0  0  0  0  0  0  0  0  0
   -3.1910   24.5730  -29.2890 C   0  0  0  0  0  0  0  0  0  0  0  0
   -3.6890   23.7870  -28.4400 O   0  0  0  0  0  0  0  0  0  0  0  0
   -1.9830   25.2990  -28.9940 N   0  0  0  0  0  0  0  0  0  0  0  0
   -1.3100   25.2600  -27.7250 C   0  0  0  0  0  0  0  0  0  0  0  0
    0.0330   24.8540  -27.6160 C   0  0  0  0  0  0  0  0  0  0  0  0
    0.6690   24.8520  -26.3710 C   0  0  0  0  0  0  0  0  0  0  0  0
   -0.0220   25.2670  -25.2290 C   0  0  0  0  0  0  0  0  0  0  0  0
   -1.3480   25.6950  -25.3330 C   0  0  0  0  0  0  0  0  0  0  0  0
   -1.9870   25.7000  -26.5770 C   0  0  0  0  0  0  0  0  0  0  0  0
   -4.8320   22.7650  -31.7360 C   0  0  0  0  0  0  0  0  0  0  0  0
   -5.7014   19.9483  -32.2940 H   0  0  0  0  0  0  0  0  0  0  0  0
   -6.6950   20.6587  -33.6111 H   0  0  0  0  0  0  0  0  0  0  0  0
   -4.9125   20.8808  -33.6111 H   0  0  0  0  0  0  0  0  0  0  0  0
   -8.1350   22.0595  -32.2972 H   0  0  0  0  0  0  0  0  0  0  0  0
   -8.3872   24.2044  -31.0503 H   0  0  0  0  0  0  0  0  0  0  0  0
   -6.3727   25.4304  -30.2435 H   0  0  0  0  0  0  0  0  0  0  0  0
   -1.6080   25.9550  -29.7140 H   0  0  0  0  0  0  0  0  0  0  0  0
    0.5843   24.5371  -28.5136 H   0  0  0  0  0  0  0  0  0  0  0  0
    1.7155   24.5231  -26.2899 H   0  0  0  0  0  0  0  0  0  0  0  0
    0.4778   25.2566  -24.2491 H   0  0  0  0  0  0  0  0  0  0  0  0
   -1.8898   26.0283  -24.4356 H   0  0  0  0  0  0  0  0  0  0  0  0
   -3.0265   26.0509  -26.6562 H   0  0  0  0  0  0  0  0  0  0  0  0
   -3.8270   22.3775  -31.9595 H   0  0  0  0  0  0  0  0  0  0  0  0
  1  2  1  0
  2  3  2  0
  3  4  1  0
  4  5  2  0
  5  6  1  0
  6  7  1  0
  7  8  1  0
  8  9  2  0
  8 10  1  0
 10 11  1  0
 11 12  2  0
 12 13  1  0
 13 14  2  0
 14 15  1  0
 15 16  2  0
  6 17  2  0
 17  2  1  0
 16 11  1  0
  1 18  1  0
  1 19  1  0
  1 20  1  0
  3 21  1  0
  4 22  1  0
  5 23  1  0
 10 24  1  0
 12 25  1  0
 13 26  1  0
 14 27  1  0
 15 28  1  0
 16 29  1  0
 17 30  1  0
M  CHG  1   7  -1
M  END
>  <UniqueID>  (9) 
8

>  <SMILES>  (9) 
Cc1cccc([N-]C(=O)Nc2ccccc2)c1

>  <Energy>  (9) 
37.87356334520639

>  <Genealogy>  (9) 
Cc1cccc([N-]C(=O)Nc2ccccc2)c1 (protonated)
Cc1cccc([N-]C(=O)Nc2ccccc2)c1 (3D coordinates assigned)
Cc1cccc([N-]C(=O)Nc2ccccc2)c1 (optimized conformer: 37.87356334520639 kcal/mol)

>  <smiles>  (9) 
Cc1cccc(NC(=O)Nc2ccccc2)c1

>  <score_type>  (9) 
oracle

>  <origin>  (9) 
adgpu

>  <m_score__min__energy>  (9) 
-8.1699999999999999

>  <m_primary>  (9) 
energy

$$$$
9:0
     RDKit          3D

 17 17  0  0  0  0  0  0  0  0999 V2000
   -4.8320   24.5480  -28.3680 N   0  0  0  0  0  0  0  0  0  0  0  0
   -5.2200   24.8890  -30.0180 S   0  0  0  0  0  0  0  0  0  0  0  0
   -3.9580   25.1380  -30.7940 O   0  0  0  0  0  0  0  0  0  0  0  0
   -6.0780   26.1220  -30.0850 O   0  0  0  0  0  0  0  0  0  0  0  0
   -6.0850   23.5220  -30.7100 C   0  0  0  0  0  0  0  0  0  0  0  0
   -5.6110   22.9010  -31.8750 C   0  0  0  0  0  0  0  0  0  0  0  0
   -6.3070   21.8230  -32.4290 C   0  0  0  0  0  0  0  0  0  0  0  0
   -7.4830   21.3630  -31.8270 C   0  0  0  0  0  0  0  0  0  0  0  0
   -8.3570   20.0100  -32.5240 Cl  0  0  0  0  0  0  0  0  0  0  0  0
   -7.9640   21.9850  -30.6690 C   0  0  0  0  0  0  0  0  0  0  0  0
   -7.2680   23.0630  -30.1140 C   0  0  0  0  0  0  0  0  0  0  0  0
   -4.6110   25.4620  -27.9120 H   0  0  0  0  0  0  0  0  0  0  0  0
   -5.7020   24.1890  -27.9170 H   0  0  0  0  0  0  0  0  0  0  0  0
   -4.6893   23.2633  -32.3537 H   0  0  0  0  0  0  0  0  0  0  0  0
   -5.9294   21.3355  -33.3399 H   0  0  0  0  0  0  0  0  0  0  0  0
   -8.8896   21.6256  -30.1956 H   0  0  0  0  0  0  0  0  0  0  0  0
   -7.6501   23.5529  -29.2062 H   0  0  0  0  0  0  0  0  0  0  0  0
  1  2  1  0
  2  3  2  0
  2  4  2  0
  2  5  1  0
  5  6  2  0
  6  7  1  0
  7  8  2  0
  8  9  1  0
  8 10  1  0
 10 11  2  0
 11  5  1  0
  1 12  1  0
  1 13  1  0
  6 14  1  0
  7 15  1  0
 10 16  1  0
 11 17  1  0
M  END
>  <UniqueID>  (10) 
9

>  <SMILES>  (10) 
NS(=O)(=O)c1ccc(Cl)cc1

>  <Energy>  (10) 
14.110419479598862

>  <Genealogy>  (10) 
NS(=O)(=O)c1ccc(Cl)cc1 (3D coordinates assigned)
NS(=O)(=O)c1ccc(Cl)cc1 (optimized conformer: 14.110419479598862 kcal/mol)

>  <smiles>  (10) 
NS(=O)(=O)c1ccc(Cl)cc1

>  <score_type>  (10) 
oracle

>  <origin>  (10) 
adgpu

>  <m_score__min__energy>  (10) 
-6.8399999999999999

>  <m_primary>  (10) 
energy

$$$$
10:0
     RDKit          3D

 33 34  0  0  0  0  0  0  0  0999 V2000
   -9.1000   18.5980  -31.9690 C   0  0  0  0  0  0  0  0  0  0  0  0
   -9.2320   20.1170  -31.9900 C   0  0  0  0  0  0  0  0  0  0  0  0
   -7.8770   20.7700  -31.9980 C   0  0  0  0  0  0  0  0  0  0  0  0
   -6.7730   20.1050  -32.5520 C   0  0  0  0  0  0  0  0  0  0  0  0
   -5.5200   20.7240  -32.5870 C   0  0  0  0  0  0  0  0  0  0  0  0
   -5.3550   22.0220  -32.0790 C   0  0  0  0  0  0  0  0  0  0  0  0
   -3.9970   22.6750  -32.0860 C   0  0  0  0  0  0  0  0  0  0  0  0
   -3.6420   23.1420  -30.7300 N   0  0  0  0  0  0  0  0  0  0  0  0
   -3.1750   22.2540  -29.7910 C   0  0  0  0  0  0  0  0  0  0  0  0
   -3.0120   21.0360  -30.0780 O   0  0  0  0  0  0  0  0  0  0  0  0
   -2.8700   22.6870  -28.5010 C   0  0  0  0  0  0  0  0  0  0  0  0
   -3.0480   24.0310  -28.1820 C   0  0  0  0  0  0  0  0  0  0  0  0
   -2.7400   24.5320  -26.8060 C   0  0  0  0  0  0  0  0  0  0  0  0
   -3.5170   24.8840  -29.1260 N   0  0  0  0  0  0  0  0  0  0  0  0
   -3.8130   24.4610  -30.3810 C   0  0  0  0  0  0  0  0  0  0  0  0
   -4.2450   25.3000  -31.2180 O   0  0  0  0  0  0  0  0  0  0  0  0
   -6.4630   22.6900  -31.5340 C   0  0  0  0  0  0  0  0  0  0  0  0
   -7.7160   22.0720  -31.4990 C   0  0  0  0  0  0  0  0  0  0  0  0
   -9.0695   18.2470  -30.9270 H   0  0  0  0  0  0  0  0  0  0  0  0
   -9.9624   18.1479  -32.4824 H   0  0  0  0  0  0  0  0  0  0  0  0
   -8.1729   18.3034  -32.4824 H   0  0  0  0  0  0  0  0  0  0  0  0
   -9.7833   20.4188  -32.8928 H   0  0  0  0  0  0  0  0  0  0  0  0
   -9.7726   20.4368  -31.0870 H   0  0  0  0  0  0  0  0  0  0  0  0
   -6.8939   19.0911  -32.9611 H   0  0  0  0  0  0  0  0  0  0  0  0
   -4.6584   20.1907  -33.0151 H   0  0  0  0  0  0  0  0  0  0  0  0
   -3.2464   21.9464  -32.4263 H   0  0  0  0  0  0  0  0  0  0  0  0
   -4.0207   23.5395  -32.7658 H   0  0  0  0  0  0  0  0  0  0  0  0
   -2.4949   21.9786  -27.7477 H   0  0  0  0  0  0  0  0  0  0  0  0
   -3.1640   23.8424  -26.0613 H   0  0  0  0  0  0  0  0  0  0  0  0
   -1.6497   24.5906  -26.6726 H   0  0  0  0  0  0  0  0  0  0  0  0
   -3.1799   25.5313  -26.6726 H   0  0  0  0  0  0  0  0  0  0  0  0
   -6.3441   23.7069  -31.1317 H   0  0  0  0  0  0  0  0  0  0  0  0
   -8.5796   22.6082  -31.0787 H   0  0  0  0  0  0  0  0  0  0  0  0
  1  2  1  0
  2  3  1  0
  3  4  2  0
  4  5  1  0
  5  6  2  0
  6  7  1  0
  7  8  1  0
  8  9  1  0
  9 10  2  0
  9 11  1  0
 11 12  2  0
 12 13  1  0
 12 14  1  0
 14 15  1  0
 15 16  2  0
  6 17  1  0
 17 18  2  0
 18  3  1  0
 15  8  1  0
  1 19  1  0
  1 20  1  0
  1 21  1  0
  2 22  1  0
  2 23  1  0
  4 24  1  0
  5 25  1  0
  7 26  1  0
  7 27  1  0
 11 28  1  0
 13 29  1  0
 13 30  1  0
 13 31  1  0
 17 32  1  0
 18 33  1  0
M  CHG  1  14  -1
M  END
>  <UniqueID>  (11) 
10

>  <SMILES>  (11) 
CCc1ccc(Cn2c(=O)cc(C)[n-]c2=O)cc1

>  <Energy>  (11) 
32.38308068514309

>  <Genealogy>  (11) 
CCc1ccc(Cn2c(=O)cc(C)[n-]c2=O)cc1 (protonated)
CCc1ccc(Cn2c(=O)cc(C)[n-]c2=O)cc1 (3D coordinates assigned)
CCc1ccc(Cn2c(=O)cc(C)[n-]c2=O)cc1 (optimized conformer: 32.38308068514309 kcal/mol)

>  <smiles>  (11) 
CCc1ccc(Cn2c(=O)cc(C)[nH]c2=O)cc1

>  <score_type>  (11) 
oracle

>  <origin>  (11) 
adgpu

>  <m_score__min__energy>  (11) 
-7.8499999999999996

>  <m_primary>  (11) 
energy

$$$$
11:0
     RDKit          3D

 38 40  0  0  0  0  0  0  0  0999 V2000
   -4.3630   26.4190  -30.1400 H   0  0  0  0  0  0  0  0  0  0  0  0
   -4.3880   25.4470  -30.5210 N   0  0  0  0  0  0  0  0  0  0  0  0
   -3.4930   24.5680  -30.2060 C   0  0  0  0  0  0  0  0  0  0  0  0
   -2.4980   24.9220  -29.3480 N   0  0  0  0  0  0  0  0  0  0  0  0
   -1.5320   24.0520  -28.9650 C   0  0  0  0  0  0  0  0  0  0  0  0
   -0.7410   24.3729  -28.2712 H   0  0  0  0  0  0  0  0  0  0  0  0
   -1.5480   22.7410  -29.4590 C   0  0  0  0  0  0  0  0  0  0  0  0
   -0.5230   21.7370  -29.0700 C   0  0  0  0  0  0  0  0  0  0  0  0
    0.2630   21.9510  -27.9230 C   0  0  0  0  0  0  0  0  0  0  0  0
    0.1179   22.8630  -27.3254 H   0  0  0  0  0  0  0  0  0  0  0  0
    1.2260   21.0160  -27.5360 C   0  0  0  0  0  0  0  0  0  0  0  0
    1.8311   21.1954  -26.6351 H   0  0  0  0  0  0  0  0  0  0  0  0
    1.4260   19.8500  -28.2890 C   0  0  0  0  0  0  0  0  0  0  0  0
    2.4420   18.8320  -27.8560 C   0  0  0  0  0  0  0  0  0  0  0  0
    2.4788   18.7951  -26.7572 H   0  0  0  0  0  0  0  0  0  0  0  0
    2.1599   17.8432  -28.2468 H   0  0  0  0  0  0  0  0  0  0  0  0
    3.4313   19.1121  -28.2468 H   0  0  0  0  0  0  0  0  0  0  0  0
    0.6270   19.6160  -29.4190 C   0  0  0  0  0  0  0  0  0  0  0  0
    0.7750   18.4770  -30.1430 F   0  0  0  0  0  0  0  0  0  0  0  0
   -0.3370   20.5520  -29.8080 C   0  0  0  0  0  0  0  0  0  0  0  0
   -0.9549   20.3609  -30.6977 H   0  0  0  0  0  0  0  0  0  0  0  0
   -2.5470   22.3830  -30.3090 N   0  0  0  0  0  0  0  0  0  0  0  0
   -3.5220   23.2410  -30.7130 C   0  0  0  0  0  0  0  0  0  0  0  0
   -4.4220   22.7820  -31.5420 N   0  0  0  0  0  0  0  0  0  0  0  0
   -5.5600   23.4540  -32.1730 C   0  0  0  0  0  0  0  0  0  0  0  0
   -5.8268   24.3402  -31.5785 H   0  0  0  0  0  0  0  0  0  0  0  0
   -5.2692   23.7418  -33.1941 H   0  0  0  0  0  0  0  0  0  0  0  0
   -6.7580   22.5430  -32.2600 C   0  0  0  0  0  0  0  0  0  0  0  0
   -6.6080   21.2010  -32.6540 C   0  0  0  0  0  0  0  0  0  0  0  0
   -5.6129   20.8180  -32.9242 H   0  0  0  0  0  0  0  0  0  0  0  0
   -7.7180   20.3510  -32.7040 C   0  0  0  0  0  0  0  0  0  0  0  0
   -7.5961   19.3060  -33.0252 H   0  0  0  0  0  0  0  0  0  0  0  0
   -8.9820   20.8290  -32.3460 C   0  0  0  0  0  0  0  0  0  0  0  0
  -10.0560   20.0030  -32.3930 F   0  0  0  0  0  0  0  0  0  0  0  0
   -9.1370   22.1540  -31.9310 C   0  0  0  0  0  0  0  0  0  0  0  0
  -10.1315   22.5269  -31.6447 H   0  0  0  0  0  0  0  0  0  0  0  0
   -8.0300   23.0070  -31.8790 C   0  0  0  0  0  0  0  0  0  0  0  0
   -8.1546   24.0456  -31.5386 H   0  0  0  0  0  0  0  0  0  0  0  0
  1  2  1  0
  2  3  2  0
  3  4  1  0
  4  5  1  0
  5  6  1  0
  5  7  2  0
  7  8  1  0
  8  9  2  0
  9 10  1  0
  9 11  1  0
 11 12  1  0
 11 13  2  0
 13 14  1  0
 14 15  1  0
 14 16  1  0
 14 17  1  0
 13 18  1  0
 18 19  1  0
 18 20  2  0
 20 21  1  0
  7 22  1  0
 22 23  1  0
 23 24  2  0
 24 25  1  0
 25 26  1  0
 25 27  1  0
 25 28  1  0
 28 29  2  0
 29 30  1  0
 29 31  1  0
 31 32  1  0
 31 33  2  0
 33 34  1  0
 33 35  1  0
 35 36  1  0
 35 37  2  0
 37 38  1  0
 23  3  1  0
 37 28  1  0
 20  8  1  0
M  CHG  2   4  -1  22  -1
M  END
>  <UniqueID>  (12) 
11

>  <SMILES>  (12) 
[H]/N=c1\[n-]cc(-c2ccc(C)c(F)c2)[n-]\c1=N\Cc1ccc(F)cc1

>  <Energy>  (12) 
52.64695065558008

>  <Genealogy>  (12) 
Cc1ccc(-c2c[n-]c(=N)c(=NCc3ccc(F)cc3)[n-]2)cc1F (protonated)
[H]/N=c1\[n-]cc(-c2ccc(C)c(F)c2)[n-]\c1=N\Cc1ccc(F)cc1 (cis-trans isomerization)
[H]/N=c1\[n-]cc(-c2ccc(C)c(F)c2)[n-]\c1=N\Cc1ccc(F)cc1 (3D coordinates assigned)
[H]/N=c1\[n-]cc(-c2ccc(C)c(F)c2)[n-]\c1=N\Cc1ccc(F)cc1 (optimized conformer: 52.64695065558008 kcal/mol)

>  <smiles>  (12) 
Cc1ccc(-c2c[nH]c(=N)c(=NCc3ccc(F)cc3)[nH]2)cc1F

>  <score_type>  (12) 
oracle

>  <origin>  (12) 
adgpu

>  <m_score__min__energy>  (12) 
-10.08

>  <m_primary>  (12) 
energy

$$$$
12:0
     RDKit          3D

 40 43  0  0  0  0  0  0  0  0999 V2000
   -1.6010   19.7200  -26.4460 C   0  0  0  0  0  0  0  0  0  0  0  0
   -1.7420   20.1180  -27.8850 C   0  0  0  0  0  0  0  0  0  0  0  0
   -0.7880   19.7070  -28.8290 C   0  0  0  0  0  0  0  0  0  0  0  0
   -0.8980   20.1080  -30.1630 C   0  0  0  0  0  0  0  0  0  0  0  0
   -1.9580   20.9300  -30.5640 C   0  0  0  0  0  0  0  0  0  0  0  0
   -2.1090   21.4340  -32.2780 S   0  0  0  0  0  0  0  0  0  0  0  0
   -3.7090   22.1910  -31.9990 C   0  0  0  0  0  0  0  0  0  0  0  0
   -3.8430   23.4160  -31.5460 O   0  0  0  0  0  0  0  0  0  0  0  0
   -5.1220   23.6690  -31.4000 C   0  0  0  0  0  0  0  0  0  0  0  0
   -5.6630   24.9550  -30.8710 C   0  0  0  0  0  0  0  0  0  0  0  0
   -4.6400   25.9090  -30.8390 O   0  0  0  0  0  0  0  0  0  0  0  0
   -5.8730   22.5670  -31.7600 C   0  0  0  0  0  0  0  0  0  0  0  0
   -4.9610   21.6120  -32.1650 C   0  0  0  0  0  0  0  0  0  0  0  0
   -5.3160   20.2590  -32.6290 C   0  0  0  0  0  0  0  0  0  0  0  0
   -6.4880   19.5550  -32.3500 C   0  0  0  0  0  0  0  0  0  0  0  0
   -6.3300   18.3550  -33.0010 C   0  0  0  0  0  0  0  0  0  0  0  0
   -7.1680   17.2450  -33.0860 C   0  0  0  0  0  0  0  0  0  0  0  0
   -6.7200   16.1430  -33.8370 C   0  0  0  0  0  0  0  0  0  0  0  0
   -5.4580   16.1770  -34.4740 C   0  0  0  0  0  0  0  0  0  0  0  0
   -4.6350   17.3140  -34.3640 C   0  0  0  0  0  0  0  0  0  0  0  0
   -5.1080   18.3880  -33.6150 C   0  0  0  0  0  0  0  0  0  0  0  0
   -4.5100   19.5290  -33.3820 O   0  0  0  0  0  0  0  0  0  0  0  0
   -2.8990   21.3620  -29.6220 C   0  0  0  0  0  0  0  0  0  0  0  0
   -2.7890   20.9620  -28.2870 C   0  0  0  0  0  0  0  0  0  0  0  0
   -1.8988   20.5607  -25.8022 H   0  0  0  0  0  0  0  0  0  0  0  0
   -2.2470   18.8538  -26.2402 H   0  0  0  0  0  0  0  0  0  0  0  0
   -0.5538   19.4536  -26.2402 H   0  0  0  0  0  0  0  0  0  0  0  0
    0.0500   19.0663  -28.5172 H   0  0  0  0  0  0  0  0  0  0  0  0
   -0.1506   19.7773  -30.8992 H   0  0  0  0  0  0  0  0  0  0  0  0
   -6.4746   25.3084  -31.5239 H   0  0  0  0  0  0  0  0  0  0  0  0
   -6.0539   24.7998  -29.8546 H   0  0  0  0  0  0  0  0  0  0  0  0
   -4.0250   25.6780  -31.5820 H   0  0  0  0  0  0  0  0  0  0  0  0
   -6.9683   22.4702  -31.7303 H   0  0  0  0  0  0  0  0  0  0  0  0
   -7.3452   19.8859  -31.7453 H   0  0  0  0  0  0  0  0  0  0  0  0
   -8.1462   17.2309  -32.5832 H   0  0  0  0  0  0  0  0  0  0  0  0
   -7.3551   15.2496  -33.9292 H   0  0  0  0  0  0  0  0  0  0  0  0
   -5.1173   15.3100  -35.0589 H   0  0  0  0  0  0  0  0  0  0  0  0
   -3.6508   17.3525  -34.8537 H   0  0  0  0  0  0  0  0  0  0  0  0
   -3.7262   22.0172  -29.9327 H   0  0  0  0  0  0  0  0  0  0  0  0
   -3.5261   21.3102  -27.5485 H   0  0  0  0  0  0  0  0  0  0  0  0
  1  2  1  0
  2  3  2  0
  3  4  1  0
  4  5  2  0
  5  6  1  0
  6  7  1  0
  7  8  1  0
  8  9  1  0
  9 10  1  0
 10 11  1  0
  9 12  2  0
 12 13  1  0
 13 14  1  0
 14 15  2  0
 15 16  1  0
 16 17  2  0
 17 18  1  0
 18 19  2  0
 19 20  1  0
 20 21  2  0
 21 22  1  0
  5 23  1  0
 23 24  2  0
 24  2  1  0
 13  7  2  0
 22 14  1  0
 21 16  1  0
  1 25  1  0
  1 26  1  0
  1 27  1  0
  3 28  1  0
  4 29  1  0
 10 30  1  0
 10 31  1  0
 11 32  1  0
 12 33  1  0
 15 34  1  0
 17 35  1  0
 18 36  1  0
 19 37  1  0
 20 38  1  0
 23 39  1  0
 24 40  1  0
M  END
>  <UniqueID>  (13) 
12

>  <SMILES>  (13) 
Cc1ccc(Sc2oc(CO)cc2-c2cc3ccccc3o2)cc1

>  <Energy>  (13) 
98.66503946205617

>  <Genealogy>  (13) 
Cc1ccc(Sc2oc(CO)cc2-c2cc3ccccc3o2)cc1 (3D coordinates assigned)
Cc1ccc(Sc2oc(CO)cc2-c2cc3ccccc3o2)cc1 (optimized conformer: 98.66503946205617 kcal/mol)

>  <smiles>  (13) 
Cc1ccc(Sc2oc(CO)cc2-c2cc3ccccc3o2)cc1

>  <score_type>  (13) 
oracle

>  <origin>  (13) 
adgpu

>  <m_score__min__energy>  (13) 
-8.3300000000000001

>  <m_primary>  (13) 
energy

$$$$
13:0
     RDKit          3D

 36 38  0  0  0  0  0  0  0  0999 V2000
   -3.8870   25.6260  -30.5960 O   0  0  0  0  0  0  0  0  0  0  0  0
   -4.0330   24.2440  -30.7050 C   0  0  0  0  0  0  0  0  0  0  0  0
   -2.9390   23.3940  -30.5040 C   0  0  0  0  0  0  0  0  0  0  0  0
   -3.1000   22.0110  -30.6130 C   0  0  0  0  0  0  0  0  0  0  0  0
   -4.3510   21.4710  -30.9220 C   0  0  0  0  0  0  0  0  0  0  0  0
   -5.4600   22.3120  -31.1270 C   0  0  0  0  0  0  0  0  0  0  0  0
   -6.7900   21.7420  -31.4560 C   0  0  0  0  0  0  0  0  0  0  0  0
   -7.9310   22.5640  -31.4970 C   0  0  0  0  0  0  0  0  0  0  0  0
   -9.1790   22.0270  -31.8210 C   0  0  0  0  0  0  0  0  0  0  0  0
   -9.3070   20.6670  -32.1050 C   0  0  0  0  0  0  0  0  0  0  0  0
   -8.1850   19.8260  -32.0560 C   0  0  0  0  0  0  0  0  0  0  0  0
   -8.3140   18.3670  -32.4000 C   0  0  0  0  0  0  0  0  0  0  0  0
   -6.9880   17.8230  -32.8560 C   0  0  0  0  0  0  0  0  0  0  0  0
   -6.4600   18.1980  -34.1030 C   0  0  0  0  0  0  0  0  0  0  0  0
   -5.2100   17.7200  -34.5100 C   0  0  0  0  0  0  0  0  0  0  0  0
   -4.4760   16.8760  -33.6730 C   0  0  0  0  0  0  0  0  0  0  0  0
   -4.9900   16.5070  -32.4260 C   0  0  0  0  0  0  0  0  0  0  0  0
   -6.2390   16.9820  -32.0150 C   0  0  0  0  0  0  0  0  0  0  0  0
   -6.9280   20.3700  -31.7410 C   0  0  0  0  0  0  0  0  0  0  0  0
   -5.2870   23.7060  -31.0160 C   0  0  0  0  0  0  0  0  0  0  0  0
   -3.4980   26.0530  -29.7630 H   0  0  0  0  0  0  0  0  0  0  0  0
   -1.9526   23.8154  -30.2602 H   0  0  0  0  0  0  0  0  0  0  0  0
   -2.2391   21.3447  -30.4551 H   0  0  0  0  0  0  0  0  0  0  0  0
   -4.4696   20.3806  -31.0056 H   0  0  0  0  0  0  0  0  0  0  0  0
   -7.8396   23.6369  -31.2724 H   0  0  0  0  0  0  0  0  0  0  0  0
  -10.0645   22.6789  -31.8524 H   0  0  0  0  0  0  0  0  0  0  0  0
  -10.2913   20.2525  -32.3683 H   0  0  0  0  0  0  0  0  0  0  0  0
   -8.6484   17.8120  -31.5111 H   0  0  0  0  0  0  0  0  0  0  0  0
   -9.0478   18.2525  -33.2114 H   0  0  0  0  0  0  0  0  0  0  0  0
   -7.0313   18.8693  -34.7610 H   0  0  0  0  0  0  0  0  0  0  0  0
   -4.8043   18.0091  -35.4907 H   0  0  0  0  0  0  0  0  0  0  0  0
   -3.4931   16.5015  -33.9951 H   0  0  0  0  0  0  0  0  0  0  0  0
   -4.4111   15.8424  -31.7678 H   0  0  0  0  0  0  0  0  0  0  0  0
   -6.6369   16.6966  -31.0300 H   0  0  0  0  0  0  0  0  0  0  0  0
   -6.0429   19.7173  -31.7169 H   0  0  0  0  0  0  0  0  0  0  0  0
   -6.1443   24.3766  -31.1750 H   0  0  0  0  0  0  0  0  0  0  0  0
  1  2  1  0
  2  3  2  0
  3  4  1  0
  4  5  2  0
  5  6  1  0
  6  7  1  0
  7  8  2  0
  8  9  1  0
  9 10  2  0
 10 11  1  0
 11 12  1  0
 12 13  1  0
 13 14  2  0
 14 15  1  0
 15 16  2  0
 16 17  1  0
 17 18  2  0
 11 19  2  0
  6 20  2  0
 20  2  1  0
 19  7  1  0
 18 13  1  0
  1 21  1  0
  3 22  1  0
  4 23  1  0
  5 24  1  0
  8 25  1  0
  9 26  1  0
 10 27  1  0
 12 28  1  0
 12 29  1  0
 14 30  1  0
 15 31  1  0
 16 32  1  0
 17 33  1  0
 18 34  1  0
 19 35  1  0
 20 36  1  0
M  END
>  <UniqueID>  (14) 
13

>  <SMILES>  (14) 
Oc1cccc(-c2cccc(Cc3ccccc3)c2)c1

>  <Energy>  (14) 
41.94880148191687

>  <Genealogy>  (14) 
Oc1cccc(-c2cccc(Cc3ccccc3)c2)c1 (3D coordinates assigned)
Oc1cccc(-c2cccc(Cc3ccccc3)c2)c1 (optimized conformer: 41.94880148191687 kcal/mol)

>  <smiles>  (14) 
Oc1cccc(-c2cccc(Cc3ccccc3)c2)c1

>  <score_type>  (14) 
oracle

>  <origin>  (14) 
adgpu

>  <m_score__min__energy>  (14) 
-9.3399999999999999

>  <m_primary>  (14) 
energy

$$$$
14:0
     RDKit          3D

 31 33  0  0  0  0  0  0  0  0999 V2000
   -3.9180   25.3040  -30.2240 N   0  0  0  0  0  0  0  0  0  0  0  0
   -4.1310   24.1640  -30.7960 C   0  0  0  0  0  0  0  0  0  0  0  0
   -5.3970   23.7130  -30.9730 N   0  0  0  0  0  0  0  0  0  0  0  0
   -5.6600   22.5190  -31.5700 C   0  0  0  0  0  0  0  0  0  0  0  0
   -7.0910   22.0960  -31.7270 C   0  0  0  0  0  0  0  0  0  0  0  0
   -7.4020   20.7200  -31.8020 C   0  0  0  0  0  0  0  0  0  0  0  0
   -8.7240   20.2880  -31.9490 C   0  0  0  0  0  0  0  0  0  0  0  0
   -9.7610   21.2150  -32.0230 C   0  0  0  0  0  0  0  0  0  0  0  0
   -9.4780   22.5790  -31.9510 C   0  0  0  0  0  0  0  0  0  0  0  0
   -8.1590   23.0210  -31.8040 C   0  0  0  0  0  0  0  0  0  0  0  0
   -4.5720   21.7380  -32.0120 C   0  0  0  0  0  0  0  0  0  0  0  0
   -3.2560   22.2100  -31.8260 C   0  0  0  0  0  0  0  0  0  0  0  0
   -2.0410   21.4480  -32.2630 C   0  0  0  0  0  0  0  0  0  0  0  0
   -0.9450   21.1940  -31.4040 C   0  0  0  0  0  0  0  0  0  0  0  0
    0.1680   20.4780  -31.8570 C   0  0  0  0  0  0  0  0  0  0  0  0
    0.2130   20.0020  -33.1670 C   0  0  0  0  0  0  0  0  0  0  0  0
   -0.8560   20.2400  -34.0300 C   0  0  0  0  0  0  0  0  0  0  0  0
   -1.9710   20.9540  -33.5860 C   0  0  0  0  0  0  0  0  0  0  0  0
   -3.0840   23.4170  -31.2180 N   0  0  0  0  0  0  0  0  0  0  0  0
   -4.7060   25.9020  -29.8880 H   0  0  0  0  0  0  0  0  0  0  0  0
   -6.5925   19.9775  -31.7439 H   0  0  0  0  0  0  0  0  0  0  0  0
   -8.9457   19.2121  -32.0064 H   0  0  0  0  0  0  0  0  0  0  0  0
  -10.8000   20.8725  -32.1379 H   0  0  0  0  0  0  0  0  0  0  0  0
  -10.2967   23.3112  -32.0102 H   0  0  0  0  0  0  0  0  0  0  0  0
   -7.9498   24.0994  -31.7477 H   0  0  0  0  0  0  0  0  0  0  0  0
   -4.7486   20.7674  -32.4985 H   0  0  0  0  0  0  0  0  0  0  0  0
   -0.9688   21.5639  -30.3683 H   0  0  0  0  0  0  0  0  0  0  0  0
    1.0117   20.2895  -31.1768 H   0  0  0  0  0  0  0  0  0  0  0  0
    1.0904   19.4397  -33.5189 H   0  0  0  0  0  0  0  0  0  0  0  0
   -0.8210   19.8644  -35.0633 H   0  0  0  0  0  0  0  0  0  0  0  0
   -2.8080   21.1350  -34.2764 H   0  0  0  0  0  0  0  0  0  0  0  0
  1  2  2  3
  2  3  1  0
  3  4  2  0
  4  5  1  0
  5  6  2  0
  6  7  1  0
  7  8  2  0
  8  9  1  0
  9 10  2  0
  4 11  1  0
 11 12  2  0
 12 13  1  0
 13 14  2  0
 14 15  1  0
 15 16  2  0
 16 17  1  0
 17 18  2  0
 12 19  1  0
 19  2  1  0
 10  5  1  0
 18 13  1  0
  1 20  1  0
  6 21  1  0
  7 22  1  0
  8 23  1  0
  9 24  1  0
 10 25  1  0
 11 26  1  0
 14 27  1  0
 15 28  1  0
 16 29  1  0
 17 30  1  0
 18 31  1  0
M  CHG  1  19  -1
M  END
>  <UniqueID>  (15) 
14

>  <SMILES>  (15) 
N=c1nc(-c2ccccc2)cc(-c2ccccc2)[n-]1

>  <Energy>  (15) 
44.4122032203504

>  <Genealogy>  (15) 
N=c1nc(-c2ccccc2)cc(-c2ccccc2)[n-]1 (protonated)
N=c1nc(-c2ccccc2)cc(-c2ccccc2)[n-]1 (3D coordinates assigned)
N=c1nc(-c2ccccc2)cc(-c2ccccc2)[n-]1 (optimized conformer: 44.4122032203504 kcal/mol)

>  <smiles>  (15) 
N=c1nc(-c2ccccc2)cc(-c2ccccc2)[nH]1

>  <score_type>  (15) 
oracle

>  <origin>  (15) 
adgpu

>  <m_score__min__energy>  (15) 
-8.7100000000000009

>  <m_primary>  (15) 
energy

$$$$
15:0
     RDKit          3D

 40 42  0  0  1  0  0  0  0  0999 V2000
   -2.0750   24.5530  -28.2590 C   0  0  0  0  0  0  0  0  0  0  0  0
   -2.7430   25.1420  -29.3560 O   0  0  0  0  0  0  0  0  0  0  0  0
   -3.9590   24.6640  -29.7750 C   0  0  0  0  0  0  0  0  0  0  0  0
   -4.4940   23.5380  -29.1470 C   0  0  0  0  0  0  0  0  0  0  0  0
   -5.7300   23.0350  -29.5580 C   0  0  0  0  0  0  0  0  0  0  0  0
   -6.4270   23.6600  -30.5980 C   0  0  0  0  0  0  0  0  0  0  0  0
   -7.6770   23.0730  -30.9440 N   0  0  0  0  0  0  0  0  0  0  0  0
   -7.6300   21.9810  -31.6300 C   0  0  0  0  0  0  0  0  0  0  0  0
   -8.8030   21.3910  -31.9790 C   0  0  0  0  0  0  0  0  0  0  0  0
   -8.7720   20.2210  -32.7150 C   0  0  0  0  0  0  0  0  0  0  0  0
   -7.5860   19.6760  -33.0780 N   0  0  0  0  0  0  0  0  0  0  0  0
   -6.4270   20.2610  -32.7310 C   0  0  0  0  0  0  0  0  0  0  0  0
   -5.2850   19.7510  -33.0720 N   0  0  0  0  0  0  0  0  0  0  0  0
   -4.0580   20.3720  -32.7040 C   0  0  0  0  0  0  0  0  0  0  0  0
   -3.8090   20.8560  -31.4340 C   0  0  0  0  0  0  0  0  0  0  0  0
   -2.5770   21.4390  -31.2000 C   0  0  0  0  0  0  0  0  0  0  0  0
   -1.6060   21.5510  -32.1790 C   0  0  0  0  0  0  0  0  0  0  0  0
   -1.8760   21.0620  -33.4380 C   0  0  0  0  0  0  0  0  0  0  0  0
   -0.8780   21.1730  -34.4560 N   0  0  0  0  0  0  0  0  0  0  0  0
   -0.6860   20.2220  -35.2410 O   0  0  0  0  0  0  0  0  0  0  0  0
   -0.1030   22.2950  -34.6200 O   0  0  0  0  0  0  0  0  0  0  0  0
   -3.0970   20.4780  -33.6890 C   0  0  0  0  0  0  0  0  0  0  0  0
   -6.4790   21.3980  -32.0160 N   0  0  0  0  0  0  0  0  0  0  0  0
   -5.8880   24.7520  -31.1950 C   0  0  0  0  0  0  0  0  0  0  0  0
   -4.6620   25.2590  -30.7920 C   0  0  0  0  0  0  0  0  0  0  0  0
   -2.5056   24.9327  -27.3207 H   0  0  0  0  0  0  0  0  0  0  0  0
   -2.1937   23.4602  -28.3012 H   0  0  0  0  0  0  0  0  0  0  0  0
   -1.0057   24.8076  -28.3012 H   0  0  0  0  0  0  0  0  0  0  0  0
   -3.9433   23.0482  -28.3304 H   0  0  0  0  0  0  0  0  0  0  0  0
   -6.1553   22.1485  -29.0648 H   0  0  0  0  0  0  0  0  0  0  0  0
   -9.7630   21.8375  -31.6805 H   0  0  0  0  0  0  0  0  0  0  0  0
   -9.7128   19.7313  -33.0066 H   0  0  0  0  0  0  0  0  0  0  0  0
   -7.5920   18.8090  -33.6220 H   0  0  0  0  0  0  0  0  0  0  0  0
   -4.5638   20.7803  -30.6374 H   0  0  0  0  0  0  0  0  0  0  0  0
   -2.3603   21.8295  -30.1947 H   0  0  0  0  0  0  0  0  0  0  0  0
   -0.6370   22.0215  -31.9563 H   0  0  0  0  0  0  0  0  0  0  0  0
   -3.3111   20.0879  -34.6950 H   0  0  0  0  0  0  0  0  0  0  0  0
   -5.5680   21.8380  -31.7570 H   0  0  0  0  0  0  0  0  0  0  0  0
   -6.4333   25.2443  -32.0137 H   0  0  0  0  0  0  0  0  0  0  0  0
   -4.2489   26.1471  -31.2926 H   0  0  0  0  0  0  0  0  0  0  0  0
  1  2  1  0
  2  3  1  0
  3  4  2  0
  4  5  1  0
  5  6  2  0
  6  7  1  0
  7  8  2  0
  8  9  1  0
  9 10  2  0
 10 11  1  0
 11 12  1  0
 12 13  2  0
 13 14  1  0
 14 15  2  0
 15 16  1  0
 16 17  2  0
 17 18  1  0
 18 19  1  0
 19 20  2  0
 19 21  1  0
 18 22  2  0
 12 23  1  0
  6 24  1  0
 24 25  2  0
 25  3  1  0
 23  8  1  0
 22 14  1  0
  1 26  1  0
  1 27  1  0
  1 28  1  0
  4 29  1  0
  5 30  1  0
  9 31  1  0
 10 32  1  0
 11 33  1  0
 15 34  1  0
 16 35  1  0
 17 36  1  0
 22 37  1  0
 23 38  1  0
 24 39  1  0
 25 40  1  0
M  CHG  2  19   1  21  -1
M  END
>  <smiles>  (16) 
COc1ccc(N=c2cc[nH]c(=Nc3cccc([N+](=O)[O-])c3)[nH]2)cc1

>  <score_type>  (16) 
oracle

>  <origin>  (16) 
adgpu

>  <m_score__min__energy>  (16) 
-8.5899999999999999

>  <m_primary>  (16) 
energy

$$$$
16:0
     RDKit          3D

 18 18  0  0  0  0  0  0  0  0999 V2000
   -9.0620   18.5470  -31.6140 C   0  0  0  0  0  0  0  0  0  0  0  0
   -9.1110   19.6350  -32.6830 C   0  0  0  0  0  0  0  0  0  0  0  0
   -8.2240   20.7960  -32.3090 C   0  0  0  0  0  0  0  0  0  0  0  0
   -8.7770   21.8860  -31.6140 C   0  0  0  0  0  0  0  0  0  0  0  0
   -7.9870   22.9890  -31.2770 C   0  0  0  0  0  0  0  0  0  0  0  0
   -6.6390   23.0220  -31.6390 C   0  0  0  0  0  0  0  0  0  0  0  0
   -5.6510   24.4080  -31.2160 Cl  0  0  0  0  0  0  0  0  0  0  0  0
   -6.0790   21.9520  -32.3420 C   0  0  0  0  0  0  0  0  0  0  0  0
   -6.8620   20.8420  -32.6850 C   0  0  0  0  0  0  0  0  0  0  0  0
   -6.1020   19.5350  -33.5890 Cl  0  0  0  0  0  0  0  0  0  0  0  0
   -9.0829   19.0113  -30.6170 H   0  0  0  0  0  0  0  0  0  0  0  0
   -9.9311   17.8823  -31.7272 H   0  0  0  0  0  0  0  0  0  0  0  0
   -8.1366   17.9631  -31.7272 H   0  0  0  0  0  0  0  0  0  0  0  0
   -8.7699   19.2148  -33.6407 H   0  0  0  0  0  0  0  0  0  0  0  0
  -10.1462   19.9967  -32.7697 H   0  0  0  0  0  0  0  0  0  0  0  0
   -9.8404   21.8707  -31.3330 H   0  0  0  0  0  0  0  0  0  0  0  0
   -8.4282   23.8324  -30.7256 H   0  0  0  0  0  0  0  0  0  0  0  0
   -5.0172   21.9814  -32.6278 H   0  0  0  0  0  0  0  0  0  0  0  0
  1  2  1  0
  2  3  1  0
  3  4  2  0
  4  5  1  0
  5  6  2  0
  6  7  1  0
  6  8  1  0
  8  9  2  0
  9 10  1  0
  9  3  1  0
  1 11  1  0
  1 12  1  0
  1 13  1  0
  2 14  1  0
  2 15  1  0
  4 16  1  0
  5 17  1  0
  8 18  1  0
M  END
>  <UniqueID>  (17) 
15

>  <SMILES>  (17) 
CCc1ccc(Cl)cc1Cl

>  <Energy>  (17) 
14.240199365876228

>  <Genealogy>  (17) 
CCc1ccc(Cl)cc1Cl (3D coordinates assigned)
CCc1ccc(Cl)cc1Cl (optimized conformer: 14.240199365876228 kcal/mol)

>  <smiles>  (17) 
CCc1ccc(Cl)cc1Cl

>  <score_type>  (17) 
oracle

>  <origin>  (17) 
adgpu

>  <m_score__min__energy>  (17) 
-5.5599999999999996

>  <m_primary>  (17) 
energy

$$$$
17:0
     RDKit          3D

 25 26  0  0  0  0  0  0  0  0999 V2000
   -5.7390   26.0450  -30.6930 O   0  0  0  0  0  0  0  0  0  0  0  0
   -4.9830   25.0430  -30.7970 C   0  0  0  0  0  0  0  0  0  0  0  0
   -3.5980   25.1890  -30.4520 N   0  0  0  0  0  0  0  0  0  0  0  0
   -2.9200   24.5280  -29.3750 C   0  0  0  0  0  0  0  0  0  0  0  0
   -3.5410   23.4380  -28.7520 C   0  0  0  0  0  0  0  0  0  0  0  0
   -2.9010   22.7610  -27.7080 C   0  0  0  0  0  0  0  0  0  0  0  0
   -1.6290   23.1630  -27.2880 C   0  0  0  0  0  0  0  0  0  0  0  0
   -0.8270   22.3140  -25.9790 Cl  0  0  0  0  0  0  0  0  0  0  0  0
   -0.9930   24.2360  -27.9200 C   0  0  0  0  0  0  0  0  0  0  0  0
   -1.6310   24.9130  -28.9650 C   0  0  0  0  0  0  0  0  0  0  0  0
   -5.5340   23.7700  -31.3210 C   0  0  0  0  0  0  0  0  0  0  0  0
   -4.6960   22.8200  -31.9340 C   0  0  0  0  0  0  0  0  0  0  0  0
   -5.2250   21.6240  -32.4270 C   0  0  0  0  0  0  0  0  0  0  0  0
   -6.5950   21.3680  -32.3240 C   0  0  0  0  0  0  0  0  0  0  0  0
   -7.4400   22.3100  -31.7310 C   0  0  0  0  0  0  0  0  0  0  0  0
   -9.1600   21.9900  -31.6060 Cl  0  0  0  0  0  0  0  0  0  0  0  0
   -6.9130   23.5090  -31.2350 C   0  0  0  0  0  0  0  0  0  0  0  0
   -4.5374   23.1124  -29.0853 H   0  0  0  0  0  0  0  0  0  0  0  0
   -3.3988   21.9118  -27.2171 H   0  0  0  0  0  0  0  0  0  0  0  0
    0.0104   24.5483  -27.5951 H   0  0  0  0  0  0  0  0  0  0  0  0
   -1.1228   25.7491  -29.4676 H   0  0  0  0  0  0  0  0  0  0  0  0
   -3.6182   23.0200  -32.0257 H   0  0  0  0  0  0  0  0  0  0  0  0
   -4.5618   20.8828  -32.8969 H   0  0  0  0  0  0  0  0  0  0  0  0
   -7.0085   20.4245  -32.7099 H   0  0  0  0  0  0  0  0  0  0  0  0
   -7.5821   24.2513  -30.7752 H   0  0  0  0  0  0  0  0  0  0  0  0
  1  2  2  0
  2  3  1  0
  3  4  1  0
  4  5  2  0
  5  6  1  0
  6  7  2  0
  7  8  1  0
  7  9  1  0
  9 10  2  0
  2 11  1  0
 11 12  2  0
 12 13  1  0
 13 14  2  0
 14 15  1  0
 15 16  1  0
 15 17  2  0
 10  4  1  0
 17 11  1  0
  5 18  1  0
  6 19  1  0
  9 20  1  0
 10 21  1  0
 12 22  1  0
 13 23  1  0
 14 24  1  0
 17 25  1  0
M  CHG  1   3  -1
M  END
>  <UniqueID>  (18) 
16

>  <SMILES>  (18) 
O=C([N-]c1ccc(Cl)cc1)c1cccc(Cl)c1

>  <Energy>  (18) 
32.556210367747646

>  <Genealogy>  (18) 
O=C([N-]c1ccc(Cl)cc1)c1cccc(Cl)c1 (protonated)
O=C([N-]c1ccc(Cl)cc1)c1cccc(Cl)c1 (3D coordinates assigned)
O=C([N-]c1ccc(Cl)cc1)c1cccc(Cl)c1 (optimized conformer: 32.556210367747646 kcal/mol)

>  <smiles>  (18) 
O=C(Nc1ccc(Cl)cc1)c1cccc(Cl)c1

>  <score_type>  (18) 
oracle

>  <origin>  (18) 
adgpu

>  <m_score__min__energy>  (18) 
-8.7899999999999991

>  <m_primary>  (18) 
energy

$$$$
18:0
     RDKit          3D

 19 20  0  0  0  0  0  0  0  0999 V2000
   -3.3190   22.4000  -30.8710 S   0  0  0  0  0  0  0  0  0  0  0  0
   -4.3120   23.7030  -30.8260 C   0  0  0  0  0  0  0  0  0  0  0  0
   -3.8730   24.9280  -30.4710 N   0  0  0  0  0  0  0  0  0  0  0  0
   -4.9880   25.6870  -30.4620 C   0  0  0  0  0  0  0  0  0  0  0  0
   -6.0770   24.9150  -30.7970 C   0  0  0  0  0  0  0  0  0  0  0  0
   -5.6500   23.6610  -31.0340 N   0  0  0  0  0  0  0  0  0  0  0  0
   -6.4770   22.5430  -31.4040 C   0  0  0  0  0  0  0  0  0  0  0  0
   -7.7570   22.3970  -30.8410 C   0  0  0  0  0  0  0  0  0  0  0  0
   -8.5720   21.3220  -31.2080 C   0  0  0  0  0  0  0  0  0  0  0  0
   -8.1200   20.3890  -32.1470 C   0  0  0  0  0  0  0  0  0  0  0  0
   -6.8560   20.5360  -32.7230 C   0  0  0  0  0  0  0  0  0  0  0  0
   -6.0390   21.6090  -32.3580 C   0  0  0  0  0  0  0  0  0  0  0  0
   -5.0218   26.7602  -30.2231 H   0  0  0  0  0  0  0  0  0  0  0  0
   -7.1184   25.2634  -30.8602 H   0  0  0  0  0  0  0  0  0  0  0  0
   -8.1192   23.1326  -30.1077 H   0  0  0  0  0  0  0  0  0  0  0  0
   -9.5694   21.2098  -30.7580 H   0  0  0  0  0  0  0  0  0  0  0  0
   -8.7593   19.5403  -32.4316 H   0  0  0  0  0  0  0  0  0  0  0  0
   -6.5030   19.8053  -33.4656 H   0  0  0  0  0  0  0  0  0  0  0  0
   -5.0473   21.7232  -32.8201 H   0  0  0  0  0  0  0  0  0  0  0  0
  1  2  2  0
  2  3  1  0
  3  4  1  0
  4  5  2  0
  5  6  1  0
  6  7  1  0
  7  8  2  0
  8  9  1  0
  9 10  2  0
 10 11  1  0
 11 12  2  0
  6  2  1  0
 12  7  1  0
  4 13  1  0
  5 14  1  0
  8 15  1  0
  9 16  1  0
 10 17  1  0
 11 18  1  0
 12 19  1  0
M  CHG  1   3  -1
M  END
>  <UniqueID>  (19) 
17

>  <SMILES>  (19) 
S=c1[n-]ccn1-c1ccccc1

>  <Energy>  (19) 
55.754249270778054

>  <Genealogy>  (19) 
S=c1[n-]ccn1-c1ccccc1 (protonated)
S=c1[n-]ccn1-c1ccccc1 (3D coordinates assigned)
S=c1[n-]ccn1-c1ccccc1 (optimized conformer: 55.754249270778054 kcal/mol)

>  <smiles>  (19) 
S=c1[nH]ccn1-c1ccccc1

>  <score_type>  (19) 
oracle

>  <origin>  (19) 
adgpu

>  <m_score__min__energy>  (19) 
-6.7199999999999998

>  <m_primary>  (19) 
energy

$$$$
19:0
     RDKit          3D

 15 15  0  0  0  0  0  0  0  0999 V2000
   -9.4880   21.5480  -30.9520 C   0  0  0  0  0  0  0  0  0  0  0  0
   -8.5520   20.6980  -31.7660 C   0  0  0  0  0  0  0  0  0  0  0  0
   -8.8340   19.3350  -31.9620 C   0  0  0  0  0  0  0  0  0  0  0  0
   -7.9720   18.5350  -32.7170 C   0  0  0  0  0  0  0  0  0  0  0  0
   -6.8200   19.0880  -33.2840 C   0  0  0  0  0  0  0  0  0  0  0  0
   -5.7390   18.0820  -34.2310 Cl  0  0  0  0  0  0  0  0  0  0  0  0
   -6.5290   20.4420  -33.0950 C   0  0  0  0  0  0  0  0  0  0  0  0
   -7.3880   21.2510  -32.3400 C   0  0  0  0  0  0  0  0  0  0  0  0
   -6.9780   22.9500  -32.1310 Cl  0  0  0  0  0  0  0  0  0  0  0  0
   -9.3006   21.3778  -29.8815 H   0  0  0  0  0  0  0  0  0  0  0  0
   -9.3202   22.6089  -31.1895 H   0  0  0  0  0  0  0  0  0  0  0  0
  -10.5278   21.2791  -31.1895 H   0  0  0  0  0  0  0  0  0  0  0  0
   -9.7392   18.8951  -31.5181 H   0  0  0  0  0  0  0  0  0  0  0  0
   -8.2002   17.4692  -32.8653 H   0  0  0  0  0  0  0  0  0  0  0  0
   -5.6212   20.8743  -33.5412 H   0  0  0  0  0  0  0  0  0  0  0  0
  1  2  1  0
  2  3  2  0
  3  4  1  0
  4  5  2  0
  5  6  1  0
  5  7  1  0
  7  8  2  0
  8  9  1  0
  8  2  1  0
  1 10  1  0
  1 11  1  0
  1 12  1  0
  3 13  1  0
  4 14  1  0
  7 15  1  0
M  END
>  <UniqueID>  (20) 
18

>  <SMILES>  (20) 
Cc1ccc(Cl)cc1Cl

>  <Energy>  (20) 
13.70751143965801

>  <Genealogy>  (20) 
Cc1ccc(Cl)cc1Cl (3D coordinates assigned)
Cc1ccc(Cl)cc1Cl (optimized conformer: 13.70751143965801 kcal/mol)

>  <smiles>  (20) 
Cc1ccc(Cl)cc1Cl

>  <score_type>  (20) 
oracle

>  <origin>  (20) 
adgpu

>  <m_score__min__energy>  (20) 
-5.25

>  <m_primary>  (20) 
energy

$$$$
20:0
     RDKit          3D

 31 33  0  0  0  0  0  0  0  0999 V2000
   -0.6955   25.1202  -23.3255 H   0  0  0  0  0  0  0  0  0  0  0  0
   -0.8780   25.2760  -24.3990 C   0  0  0  0  0  0  0  0  0  0  0  0
   -0.3970   24.2470  -25.6390 S   0  0  0  0  0  0  0  0  0  0  0  0
   -1.0280   25.1680  -26.8980 C   0  0  0  0  0  0  0  0  0  0  0  0
   -0.9620   24.8200  -28.3220 C   0  0  0  0  0  0  0  0  0  0  0  0
    0.0350   24.1920  -28.7650 O   0  0  0  0  0  0  0  0  0  0  0  0
   -1.9720   25.2900  -29.2190 N   0  0  0  0  0  0  0  0  0  0  0  0
   -3.1290   24.7670  -29.5220 C   0  0  0  0  0  0  0  0  0  0  0  0
   -3.8660   25.2920  -30.5350 N   0  0  0  0  0  0  0  0  0  0  0  0
   -4.9670   24.5250  -30.5480 C   0  0  0  0  0  0  0  0  0  0  0  0
   -6.0670   24.6420  -31.3940 C   0  0  0  0  0  0  0  0  0  0  0  0
   -6.0994   25.4099  -32.1809 H   0  0  0  0  0  0  0  0  0  0  0  0
   -7.1350   23.7460  -31.2090 C   0  0  0  0  0  0  0  0  0  0  0  0
   -8.0184   23.8053  -31.8617 H   0  0  0  0  0  0  0  0  0  0  0  0
   -7.0790   22.7710  -30.1900 C   0  0  0  0  0  0  0  0  0  0  0  0
   -7.9197   22.0749  -30.0536 H   0  0  0  0  0  0  0  0  0  0  0  0
   -5.9550   22.6830  -29.3470 C   0  0  0  0  0  0  0  0  0  0  0  0
   -5.9044   21.9337  -28.5432 H   0  0  0  0  0  0  0  0  0  0  0  0
   -4.9040   23.5810  -29.5660 C   0  0  0  0  0  0  0  0  0  0  0  0
   -3.7450   23.7150  -28.8870 N   0  0  0  0  0  0  0  0  0  0  0  0
   -3.3960   22.9740  -27.6670 C   0  0  0  0  0  0  0  0  0  0  0  0
   -4.3082   22.7990  -27.0777 H   0  0  0  0  0  0  0  0  0  0  0  0
   -2.6744   23.5682  -27.0872 H   0  0  0  0  0  0  0  0  0  0  0  0
   -2.7580   21.6300  -28.0140 C   0  0  0  0  0  0  0  0  0  0  0  0
   -2.5039   21.0946  -27.0873 H   0  0  0  0  0  0  0  0  0  0  0  0
   -3.4667   21.0287  -28.6023 H   0  0  0  0  0  0  0  0  0  0  0  0
   -1.8440   21.7990  -28.6023 H   0  0  0  0  0  0  0  0  0  0  0  0
   -1.6310   26.2980  -26.3590 C   0  0  0  0  0  0  0  0  0  0  0  0
   -2.1259   27.0690  -26.9678 H   0  0  0  0  0  0  0  0  0  0  0  0
   -1.5450   26.3560  -24.9620 C   0  0  0  0  0  0  0  0  0  0  0  0
   -1.9663   27.1797  -24.3669 H   0  0  0  0  0  0  0  0  0  0  0  0
  1  2  1  0
  2  3  1  0
  3  4  1  0
  4  5  1  0
  5  6  2  0
  5  7  1  0
  7  8  2  0
  8  9  1  0
  9 10  1  0
 10 11  2  0
 11 12  1  0
 11 13  1  0
 13 14  1  0
 13 15  2  0
 15 16  1  0
 15 17  1  0
 17 18  1  0
 17 19  2  0
 19 20  1  0
 20 21  1  0
 21 22  1  0
 21 23  1  0
 21 24  1  0
 24 25  1  0
 24 26  1  0
 24 27  1  0
  4 28  2  0
 28 29  1  0
 28 30  1  0
 30 31  1  0
 30  2  2  0
 20  8  1  0
 19 10  1  0
M  CHG  1   9  -1
M  END
>  <UniqueID>  (21) 
19

>  <SMILES>  (21) 
CCn1/c(=N\C(=O)c2cccs2)[n-]c2ccccc21

>  <Energy>  (21) 
107.63220083828168

>  <Genealogy>  (21) 
CCn1c(=NC(=O)c2cccs2)[n-]c2ccccc21 (protonated)
CCn1/c(=N\C(=O)c2cccs2)[n-]c2ccccc21 (cis-trans isomerization)
CCn1/c(=N\C(=O)c2cccs2)[n-]c2ccccc21 (3D coordinates assigned)
CCn1/c(=N\C(=O)c2cccs2)[n-]c2ccccc21 (optimized conformer: 107.63220083828168 kcal/mol)

>  <smiles>  (21) 
CCn1c(=NC(=O)c2cccs2)[nH]c2ccccc21

>  <score_type>  (21) 
oracle

>  <origin>  (21) 
adgpu

>  <m_score__min__energy>  (21) 
-8.4100000000000001

>  <m_primary>  (21) 
energy

$$$$
21:0
     RDKit          3D

 23 24  0  0  0  0  0  0  0  0999 V2000
   -1.7810   25.4280  -28.9690 O   0  0  0  0  0  0  0  0  0  0  0  0
   -2.5220   24.5510  -29.4880 C   0  0  0  0  0  0  0  0  0  0  0  0
   -3.4990   24.9620  -30.4540 N   0  0  0  0  0  0  0  0  0  0  0  0
   -4.7440   24.3030  -30.7310 C   0  0  0  0  0  0  0  0  0  0  0  0
   -4.7290   23.1090  -31.4640 C   0  0  0  0  0  0  0  0  0  0  0  0
   -5.9230   22.4340  -31.7380 C   0  0  0  0  0  0  0  0  0  0  0  0
   -7.1390   22.9400  -31.2690 C   0  0  0  0  0  0  0  0  0  0  0  0
   -8.6350   22.0920  -31.6130 Cl  0  0  0  0  0  0  0  0  0  0  0  0
   -7.1590   24.1200  -30.5180 C   0  0  0  0  0  0  0  0  0  0  0  0
   -5.9670   24.7970  -30.2420 C   0  0  0  0  0  0  0  0  0  0  0  0
   -2.3860   23.1470  -29.0480 C   0  0  0  0  0  0  0  0  0  0  0  0
   -3.2900   22.5680  -28.1440 C   0  0  0  0  0  0  0  0  0  0  0  0
   -3.0960   21.2430  -27.7600 C   0  0  0  0  0  0  0  0  0  0  0  0
   -2.0410   20.5420  -28.2510 N   0  0  0  0  0  0  0  0  0  0  0  0
   -1.1630   21.1170  -29.1130 C   0  0  0  0  0  0  0  0  0  0  0  0
   -1.3380   22.4070  -29.5000 N   0  0  0  0  0  0  0  0  0  0  0  0
   -3.7738   22.7006  -31.8256 H   0  0  0  0  0  0  0  0  0  0  0  0
   -5.9052   21.5031  -32.3237 H   0  0  0  0  0  0  0  0  0  0  0  0
   -8.1145   24.5162  -30.1437 H   0  0  0  0  0  0  0  0  0  0  0  0
   -5.9857   25.7181  -29.6410 H   0  0  0  0  0  0  0  0  0  0  0  0
   -4.1352   23.1491  -27.7464 H   0  0  0  0  0  0  0  0  0  0  0  0
   -3.7966   20.7647  -27.0597 H   0  0  0  0  0  0  0  0  0  0  0  0
   -0.3104   20.5381  -29.4976 H   0  0  0  0  0  0  0  0  0  0  0  0
  1  2  2  0
  2  3  1  0
  3  4  1  0
  4  5  2  0
  5  6  1  0
  6  7  2  0
  7  8  1  0
  7  9  1  0
  9 10  2  0
  2 11  1  0
 11 12  2  0
 12 13  1  0
 13 14  2  0
 14 15  1  0
 15 16  2  0
 10  4  1  0
 16 11  1  0
  5 17  1  0
  6 18  1  0
  9 19  1  0
 10 20  1  0
 12 21  1  0
 13 22  1  0
 15 23  1  0
M  CHG  1   3  -1
M  END
>  <UniqueID>  (22) 
20

>  <SMILES>  (22) 
O=C([N-]c1ccc(Cl)cc1)c1ccncn1

>  <Energy>  (22) 
31.307759944645575

>  <Genealogy>  (22) 
O=C([N-]c1ccc(Cl)cc1)c1ccncn1 (protonated)
O=C([N-]c1ccc(Cl)cc1)c1ccncn1 (3D coordinates assigned)
O=C([N-]c1ccc(Cl)cc1)c1ccncn1 (optimized conformer: 31.307759944645575 kcal/mol)

>  <smiles>  (22) 
O=C(Nc1ccc(Cl)cc1)c1ccncn1

>  <score_type>  (22) 
oracle

>  <origin>  (22) 
adgpu

>  <m_score__min__energy>  (22) 
-7.6500000000000004

>  <m_primary>  (22) 
energy

$$$$
22:0
     RDKit          3D

 31 32  0  0  0  0  0  0  0  0999 V2000
   -2.2970   24.5350  -28.1680 C   0  0  0  0  0  0  0  0  0  0  0  0
   -2.7980   25.1410  -29.3550 O   0  0  0  0  0  0  0  0  0  0  0  0
   -3.8820   24.6500  -30.0990 C   0  0  0  0  0  0  0  0  0  0  0  0
   -3.7150   23.4570  -30.8090 C   0  0  0  0  0  0  0  0  0  0  0  0
   -4.7660   22.9270  -31.5640 C   0  0  0  0  0  0  0  0  0  0  0  0
   -6.0060   23.5800  -31.6190 C   0  0  0  0  0  0  0  0  0  0  0  0
   -7.0680   23.0030  -32.4000 N   0  0  0  0  0  0  0  0  0  0  0  0
   -8.1980   21.8350  -31.7910 S   0  0  0  0  0  0  0  0  0  0  0  0
   -8.2440   21.9330  -30.2920 O   0  0  0  0  0  0  0  0  0  0  0  0
   -9.5640   22.1330  -32.3430 O   0  0  0  0  0  0  0  0  0  0  0  0
   -7.7250   20.2160  -32.2960 C   0  0  0  0  0  0  0  0  0  0  0  0
   -8.3300   19.0950  -31.7110 C   0  0  0  0  0  0  0  0  0  0  0  0
   -7.9650   17.8080  -32.1160 C   0  0  0  0  0  0  0  0  0  0  0  0
   -6.9920   17.6340  -33.1040 C   0  0  0  0  0  0  0  0  0  0  0  0
   -6.6380   16.3850  -33.4960 F   0  0  0  0  0  0  0  0  0  0  0  0
   -6.3820   18.7490  -33.6870 C   0  0  0  0  0  0  0  0  0  0  0  0
   -6.7450   20.0380  -33.2840 C   0  0  0  0  0  0  0  0  0  0  0  0
   -6.1720   24.7860  -30.9110 C   0  0  0  0  0  0  0  0  0  0  0  0
   -5.1210   25.3140  -30.1550 C   0  0  0  0  0  0  0  0  0  0  0  0
   -2.7189   25.0453  -27.2896 H   0  0  0  0  0  0  0  0  0  0  0  0
   -2.5847   23.4735  -28.1487 H   0  0  0  0  0  0  0  0  0  0  0  0
   -1.2003   24.6180  -28.1487 H   0  0  0  0  0  0  0  0  0  0  0  0
   -2.7494   22.9313  -30.7734 H   0  0  0  0  0  0  0  0  0  0  0  0
   -4.6188   21.9893  -32.1199 H   0  0  0  0  0  0  0  0  0  0  0  0
   -7.1350   23.2390  -33.4150 H   0  0  0  0  0  0  0  0  0  0  0  0
   -9.0941   19.2285  -30.9311 H   0  0  0  0  0  0  0  0  0  0  0  0
   -8.4442   16.9310  -31.6565 H   0  0  0  0  0  0  0  0  0  0  0  0
   -5.6154   18.6120  -34.4639 H   0  0  0  0  0  0  0  0  0  0  0  0
   -6.2616   20.9134  -33.7422 H   0  0  0  0  0  0  0  0  0  0  0  0
   -7.1349   25.3161  -30.9530 H   0  0  0  0  0  0  0  0  0  0  0  0
   -5.2637   26.2536  -29.6011 H   0  0  0  0  0  0  0  0  0  0  0  0
  1  2  1  0
  2  3  1  0
  3  4  2  0
  4  5  1  0
  5  6  2  0
  6  7  1  0
  7  8  1  0
  8  9  2  0
  8 10  2  0
  8 11  1  0
 11 12  2  0
 12 13  1  0
 13 14  2  0
 14 15  1  0
 14 16  1  0
 16 17  2  0
  6 18  1  0
 18 19  2  0
 19  3  1  0
 17 11  1  0
  1 20  1  0
  1 21  1  0
  1 22  1  0
  4 23  1  0
  5 24  1  0
  7 25  1  0
 12 26  1  0
 13 27  1  0
 16 28  1  0
 17 29  1  0
 18 30  1  0
 19 31  1  0
M  END
>  <UniqueID>  (23) 
21

>  <SMILES>  (23) 
COc1ccc(NS(=O)(=O)c2ccc(F)cc2)cc1

>  <Energy>  (23) 
33.57058051567715

>  <Genealogy>  (23) 
COc1ccc(NS(=O)(=O)c2ccc(F)cc2)cc1 (3D coordinates assigned)
COc1ccc(NS(=O)(=O)c2ccc(F)cc2)cc1 (optimized conformer: 33.57058051567715 kcal/mol)

>  <smiles>  (23) 
COc1ccc(NS(=O)(=O)c2ccc(F)cc2)cc1

>  <score_type>  (23) 
oracle

>  <origin>  (23) 
adgpu

>  <m_score__min__energy>  (23) 
-8.0700000000000003

>  <m_primary>  (23) 
energy

$$$$
23:0
     RDKit          3D

 38 40  0  0  0  0  0  0  0  0999 V2000
   -4.6100   13.4270  -32.0580 C   0  0  0  0  0  0  0  0  0  0  0  0
   -5.1670   13.6920  -33.4510 C   0  0  0  0  0  0  0  0  0  0  0  0
   -5.6190   15.0750  -33.5600 N   0  0  0  0  0  0  0  0  0  0  0  0
   -5.0530   16.1400  -32.9630 C   0  0  0  0  0  0  0  0  0  0  0  0
   -5.8110   17.2590  -33.2640 C   0  0  0  0  0  0  0  0  0  0  0  0
   -5.5790   18.6590  -32.8280 C   0  0  0  0  0  0  0  0  0  0  0  0
   -6.6190   19.4280  -32.2790 C   0  0  0  0  0  0  0  0  0  0  0  0
   -6.3860   20.7430  -31.8720 C   0  0  0  0  0  0  0  0  0  0  0  0
   -5.1060   21.2940  -32.0060 C   0  0  0  0  0  0  0  0  0  0  0  0
   -4.8370   22.6500  -31.6070 N   0  0  0  0  0  0  0  0  0  0  0  0
   -5.7630   23.7140  -32.0100 C   0  0  0  0  0  0  0  0  0  0  0  0
   -5.7460   24.8470  -30.9760 C   0  0  0  0  0  0  0  0  0  0  0  0
   -4.3760   25.3040  -30.7070 N   0  0  0  0  0  0  0  0  0  0  0  0
   -3.5470   24.2010  -30.2020 C   0  0  0  0  0  0  0  0  0  0  0  0
   -3.4810   23.0490  -31.2110 C   0  0  0  0  0  0  0  0  0  0  0  0
   -4.1130   20.5390  -32.5520 N   0  0  0  0  0  0  0  0  0  0  0  0
   -4.3130   19.2570  -32.9570 C   0  0  0  0  0  0  0  0  0  0  0  0
   -6.8460   16.7760  -34.0550 C   0  0  0  0  0  0  0  0  0  0  0  0
   -6.7080   15.4450  -34.2130 N   0  0  0  0  0  0  0  0  0  0  0  0
   -5.3323   13.7706  -31.3028 H   0  0  0  0  0  0  0  0  0  0  0  0
   -4.4336   12.3485  -31.9327 H   0  0  0  0  0  0  0  0  0  0  0  0
   -3.6619   13.9706  -31.9327 H   0  0  0  0  0  0  0  0  0  0  0  0
   -4.3806   13.5071  -34.1976 H   0  0  0  0  0  0  0  0  0  0  0  0
   -6.0204   13.0211  -33.6292 H   0  0  0  0  0  0  0  0  0  0  0  0
   -4.1447   16.1243  -32.3428 H   0  0  0  0  0  0  0  0  0  0  0  0
   -7.6226   18.9914  -32.1692 H   0  0  0  0  0  0  0  0  0  0  0  0
   -7.2044   21.3434  -31.4480 H   0  0  0  0  0  0  0  0  0  0  0  0
   -5.4574   24.1106  -32.9894 H   0  0  0  0  0  0  0  0  0  0  0  0
   -6.7803   23.3006  -32.0745 H   0  0  0  0  0  0  0  0  0  0  0  0
   -6.3365   25.6917  -31.3604 H   0  0  0  0  0  0  0  0  0  0  0  0
   -6.1756   24.4668  -30.0374 H   0  0  0  0  0  0  0  0  0  0  0  0
   -3.9570   25.6670  -31.5960 H   0  0  0  0  0  0  0  0  0  0  0  0
   -2.5289   24.5736  -30.0160 H   0  0  0  0  0  0  0  0  0  0  0  0
   -3.9983   23.8239  -29.2724 H   0  0  0  0  0  0  0  0  0  0  0  0
   -2.9230   23.3757  -32.1009 H   0  0  0  0  0  0  0  0  0  0  0  0
   -2.9733   22.1908  -30.7465 H   0  0  0  0  0  0  0  0  0  0  0  0
   -3.4792   18.6837  -33.3884 H   0  0  0  0  0  0  0  0  0  0  0  0
   -7.6536   17.3861  -34.4858 H   0  0  0  0  0  0  0  0  0  0  0  0
  1  2  1  0
  2  3  1  0
  3  4  1  0
  4  5  2  0
  5  6  1  0
  6  7  2  0
  7  8  1  0
  8  9  2  0
  9 10  1  0
 10 11  1  0
 11 12  1  0
 12 13  1  0
 13 14  1  0
 14 15  1  0
  9 16  1  0
 16 17  2  0
  5 18  1  0
 18 19  2  0
 19  3  1  0
 17  6  1  0
 15 10  1  0
  1 20  1  0
  1 21  1  0
  1 22  1  0
  2 23  1  0
  2 24  1  0
  4 25  1  0
  7 26  1  0
  8 27  1  0
 11 28  1  0
 11 29  1  0
 12 30  1  0
 12 31  1  0
 13 32  1  0
 14 33  1  0
 14 34  1  0
 15 35  1  0
 15 36  1  0
 17 37  1  0
 18 38  1  0
M  END
>  <UniqueID>  (24) 
22

>  <SMILES>  (24) 
CCn1cc(-c2ccc(N3CCNCC3)nc2)cn1

>  <Energy>  (24) 
69.8124298605792

>  <Genealogy>  (24) 
CCn1cc(-c2ccc(N3CCNCC3)nc2)cn1 (3D coordinates assigned)
CCn1cc(-c2ccc(N3CCNCC3)nc2)cn1 (nonaromatic ring conformer: 69.8124298605792 kcal/mol)

>  <smiles>  (24) 
CCn1cc(-c2ccc(N3CCNCC3)nc2)cn1

>  <score_type>  (24) 
oracle

>  <origin>  (24) 
adgpu

>  <m_score__min__energy>  (24) 
-6.7300000000000004

>  <m_primary>  (24) 
energy

$$$$
24:0
     RDKit          3D

 37 38  0  0  0  0  0  0  0  0999 V2000
   -7.0300   18.1320  -31.9580 C   0  0  0  0  0  0  0  0  0  0  0  0
   -8.4500   18.6510  -31.7280 C   0  0  0  0  0  0  0  0  0  0  0  0
   -8.8310   19.7850  -32.6920 C   0  0  0  0  0  0  0  0  0  0  0  0
   -9.0740   21.1150  -31.9690 C   0  0  0  0  0  0  0  0  0  0  0  0
   -7.8050   21.9020  -31.8850 C   0  0  0  0  0  0  0  0  0  0  0  0
   -6.5980   21.4070  -32.2350 N   0  0  0  0  0  0  0  0  0  0  0  0
   -5.5870   22.2900  -32.0020 C   0  0  0  0  0  0  0  0  0  0  0  0
   -4.1790   21.9050  -32.2520 C   0  0  0  0  0  0  0  0  0  0  0  0
   -3.8120   21.1500  -33.3780 C   0  0  0  0  0  0  0  0  0  0  0  0
   -2.4780   20.7870  -33.5850 C   0  0  0  0  0  0  0  0  0  0  0  0
   -1.4900   21.1600  -32.6610 C   0  0  0  0  0  0  0  0  0  0  0  0
   -0.0540   20.7860  -32.8880 C   0  0  0  0  0  0  0  0  0  0  0  0
   -1.8540   21.9050  -31.5290 C   0  0  0  0  0  0  0  0  0  0  0  0
   -0.9170   22.2840  -30.6230 F   0  0  0  0  0  0  0  0  0  0  0  0
   -3.1890   22.2670  -31.3230 C   0  0  0  0  0  0  0  0  0  0  0  0
   -6.0070   23.4990  -31.4330 C   0  0  0  0  0  0  0  0  0  0  0  0
   -4.9800   24.8480  -30.8410 S   0  0  0  0  0  0  0  0  0  0  0  0
   -6.2400   25.4690  -29.6840 C   0  0  0  0  0  0  0  0  0  0  0  0
   -7.6730   23.4370  -31.2160 S   0  0  0  0  0  0  0  0  0  0  0  0
   -6.5430   17.9540  -30.9879 H   0  0  0  0  0  0  0  0  0  0  0  0
   -7.0711   17.1908  -32.5258 H   0  0  0  0  0  0  0  0  0  0  0  0
   -6.4545   18.8779  -32.5258 H   0  0  0  0  0  0  0  0  0  0  0  0
   -9.1556   17.8187  -31.8675 H   0  0  0  0  0  0  0  0  0  0  0  0
   -8.4942   19.0553  -30.7059 H   0  0  0  0  0  0  0  0  0  0  0  0
   -8.0143   19.9215  -33.4161 H   0  0  0  0  0  0  0  0  0  0  0  0
   -9.7696   19.4991  -33.1892 H   0  0  0  0  0  0  0  0  0  0  0  0
   -9.8253   21.6968  -32.5231 H   0  0  0  0  0  0  0  0  0  0  0  0
   -9.4331   20.9070  -30.9503 H   0  0  0  0  0  0  0  0  0  0  0  0
   -4.5802   20.8419  -34.1026 H   0  0  0  0  0  0  0  0  0  0  0  0
   -2.2013   20.2058  -34.4770 H   0  0  0  0  0  0  0  0  0  0  0  0
    0.4485   20.6551  -31.9183 H   0  0  0  0  0  0  0  0  0  0  0  0
   -0.0055   19.8453  -33.4560 H   0  0  0  0  0  0  0  0  0  0  0  0
    0.4472   21.5836  -33.4560 H   0  0  0  0  0  0  0  0  0  0  0  0
   -3.4664   22.8401  -30.4260 H   0  0  0  0  0  0  0  0  0  0  0  0
   -5.9024   25.3026  -28.6504 H   0  0  0  0  0  0  0  0  0  0  0  0
   -6.3925   26.5455  -29.8511 H   0  0  0  0  0  0  0  0  0  0  0  0
   -7.1866   24.9342  -29.8511 H   0  0  0  0  0  0  0  0  0  0  0  0
  1  2  1  0
  2  3  1  0
  3  4  1  0
  4  5  1  0
  5  6  2  0
  6  7  1  0
  7  8  1  0
  8  9  2  0
  9 10  1  0
 10 11  2  0
 11 12  1  0
 11 13  1  0
 13 14  1  0
 13 15  2  0
  7 16  2  0
 16 17  1  0
 17 18  1  0
 16 19  1  0
 19  5  1  0
 15  8  1  0
  1 20  1  0
  1 21  1  0
  1 22  1  0
  2 23  1  0
  2 24  1  0
  3 25  1  0
  3 26  1  0
  4 27  1  0
  4 28  1  0
  9 29  1  0
 10 30  1  0
 12 31  1  0
 12 32  1  0
 12 33  1  0
 15 34  1  0
 18 35  1  0
 18 36  1  0
 18 37  1  0
M  END
>  <UniqueID>  (25) 
23

>  <SMILES>  (25) 
CCCCc1nc(-c2ccc(C)c(F)c2)c(SC)s1

>  <Energy>  (25) 
60.49130474954349

>  <Genealogy>  (25) 
CCCCc1nc(-c2ccc(C)c(F)c2)c(SC)s1 (3D coordinates assigned)
CCCCc1nc(-c2ccc(C)c(F)c2)c(SC)s1 (optimized conformer: 60.49130474954349 kcal/mol)

>  <smiles>  (25) 
CCCCc1nc(-c2ccc(C)c(F)c2)c(SC)s1

>  <score_type>  (25) 
oracle

>  <origin>  (25) 
adgpu

>  <m_score__min__energy>  (25) 
-7.2599999999999998

>  <m_primary>  (25) 
energy

$$$$
25:0
     RDKit          3D

 27 29  0  0  0  0  0  0  0  0999 V2000
   -1.2500   26.0470  -29.3380 O   0  0  0  0  0  0  0  0  0  0  0  0
   -1.1580   24.9990  -28.4280 C   0  0  0  0  0  0  0  0  0  0  0  0
   -0.1180   25.0080  -27.4890 C   0  0  0  0  0  0  0  0  0  0  0  0
    0.0030   23.9710  -26.5630 C   0  0  0  0  0  0  0  0  0  0  0  0
   -0.9150   22.9200  -26.5670 C   0  0  0  0  0  0  0  0  0  0  0  0
   -1.9570   22.9020  -27.4990 C   0  0  0  0  0  0  0  0  0  0  0  0
   -2.0900   23.9390  -28.4400 C   0  0  0  0  0  0  0  0  0  0  0  0
   -3.2000   23.9030  -29.4200 C   0  0  0  0  0  0  0  0  0  0  0  0
   -3.5080   24.9140  -30.2580 N   0  0  0  0  0  0  0  0  0  0  0  0
   -4.5490   24.5090  -30.9690 N   0  0  0  0  0  0  0  0  0  0  0  0
   -4.8410   23.2650  -30.5390 C   0  0  0  0  0  0  0  0  0  0  0  0
   -5.9400   22.4340  -31.0670 C   0  0  0  0  0  0  0  0  0  0  0  0
   -5.6670   21.4020  -31.9810 C   0  0  0  0  0  0  0  0  0  0  0  0
   -6.7050   20.6110  -32.4840 C   0  0  0  0  0  0  0  0  0  0  0  0
   -8.0230   20.8430  -32.0780 C   0  0  0  0  0  0  0  0  0  0  0  0
   -9.3240   19.8490  -32.7090 Cl  0  0  0  0  0  0  0  0  0  0  0  0
   -8.3030   21.8670  -31.1690 C   0  0  0  0  0  0  0  0  0  0  0  0
   -7.2670   22.6600  -30.6640 C   0  0  0  0  0  0  0  0  0  0  0  0
   -4.0160   22.8900  -29.5910 O   0  0  0  0  0  0  0  0  0  0  0  0
    0.6061   25.8360  -27.4817 H   0  0  0  0  0  0  0  0  0  0  0  0
    0.8226   23.9821  -25.8294 H   0  0  0  0  0  0  0  0  0  0  0  0
   -0.8186   22.1042  -25.8355 H   0  0  0  0  0  0  0  0  0  0  0  0
   -2.6778   22.0711  -27.4964 H   0  0  0  0  0  0  0  0  0  0  0  0
   -4.6317   21.2154  -32.3024 H   0  0  0  0  0  0  0  0  0  0  0  0
   -6.4844   19.8054  -33.1998 H   0  0  0  0  0  0  0  0  0  0  0  0
   -9.3398   22.0498  -30.8501 H   0  0  0  0  0  0  0  0  0  0  0  0
   -7.4923   23.4642  -29.9481 H   0  0  0  0  0  0  0  0  0  0  0  0
  1  2  1  0
  2  3  2  0
  3  4  1  0
  4  5  2  0
  5  6  1  0
  6  7  2  0
  7  8  1  0
  8  9  2  0
  9 10  1  0
 10 11  2  0
 11 12  1  0
 12 13  2  0
 13 14  1  0
 14 15  2  0
 15 16  1  0
 15 17  1  0
 17 18  2  0
 11 19  1  0
  7  2  1  0
 19  8  1  0
 18 12  1  0
  3 20  1  0
  4 21  1  0
  5 22  1  0
  6 23  1  0
 13 24  1  0
 14 25  1  0
 17 26  1  0
 18 27  1  0
M  CHG  1   1  -1
M  END
>  <UniqueID>  (26) 
24

>  <SMILES>  (26) 
[O-]c1ccccc1-c1nnc(-c2ccc(Cl)cc2)o1

>  <Energy>  (26) 
65.9906620656933

>  <Genealogy>  (26) 
[O-]c1ccccc1-c1nnc(-c2ccc(Cl)cc2)o1 (protonated)
[O-]c1ccccc1-c1nnc(-c2ccc(Cl)cc2)o1 (3D coordinates assigned)
[O-]c1ccccc1-c1nnc(-c2ccc(Cl)cc2)o1 (optimized conformer: 65.9906620656933 kcal/mol)

>  <smiles>  (26) 
Oc1ccccc1-c1nnc(-c2ccc(Cl)cc2)o1

>  <score_type>  (26) 
oracle

>  <origin>  (26) 
adgpu

>  <m_score__min__energy>  (26) 
-10.98

>  <m_primary>  (26) 
energy

$$$$
26:0
     RDKit          3D

 41 42  0  0  0  0  0  0  0  0999 V2000
   -5.1110   21.2120  -32.5320 C   0  0  0  0  0  0  0  0  0  0  0  0
   -6.5820   21.4710  -32.3040 C   0  0  0  0  0  0  0  0  0  0  0  0
   -7.0410   22.7910  -32.0520 C   0  0  0  0  0  0  0  0  0  0  0  0
   -6.1190   23.8980  -32.0340 N   0  0  0  0  0  0  0  0  0  0  0  0
   -5.5110   24.6130  -30.5740 S   0  0  0  0  0  0  0  0  0  0  0  0
   -5.3090   23.3620  -29.3250 C   0  0  0  0  0  0  0  0  0  0  0  0
   -4.1980   25.2930  -30.8390 O   0  0  0  0  0  0  0  0  0  0  0  0
   -6.4950   25.6400  -30.0880 O   0  0  0  0  0  0  0  0  0  0  0  0
   -8.4150   23.0150  -31.8570 C   0  0  0  0  0  0  0  0  0  0  0  0
   -9.3240   21.9610  -31.9110 C   0  0  0  0  0  0  0  0  0  0  0  0
   -8.8800   20.6680  -32.1670 C   0  0  0  0  0  0  0  0  0  0  0  0
   -7.5180   20.4110  -32.3610 C   0  0  0  0  0  0  0  0  0  0  0  0
   -7.1000   19.0620  -32.6150 N   0  0  0  0  0  0  0  0  0  0  0  0
   -7.2440   18.0650  -31.5540 C   0  0  0  0  0  0  0  0  0  0  0  0
   -6.4510   18.7300  -33.8870 C   0  0  0  0  0  0  0  0  0  0  0  0
   -5.9820   17.3010  -33.8730 C   0  0  0  0  0  0  0  0  0  0  0  0
   -4.6800   16.9850  -33.4510 C   0  0  0  0  0  0  0  0  0  0  0  0
   -4.2630   15.6510  -33.3950 C   0  0  0  0  0  0  0  0  0  0  0  0
   -5.1430   14.6270  -33.7540 C   0  0  0  0  0  0  0  0  0  0  0  0
   -6.4430   14.9330  -34.1650 C   0  0  0  0  0  0  0  0  0  0  0  0
   -6.8640   16.2650  -34.2200 C   0  0  0  0  0  0  0  0  0  0  0  0
   -4.5999   21.1220  -31.5621 H   0  0  0  0  0  0  0  0  0  0  0  0
   -4.9868   20.2782  -33.0999 H   0  0  0  0  0  0  0  0  0  0  0  0
   -4.6753   22.0473  -33.0999 H   0  0  0  0  0  0  0  0  0  0  0  0
   -5.7160   24.2560  -32.9270 H   0  0  0  0  0  0  0  0  0  0  0  0
   -5.3834   23.8229  -28.3290 H   0  0  0  0  0  0  0  0  0  0  0  0
   -6.0960   22.6017  -29.4369 H   0  0  0  0  0  0  0  0  0  0  0  0
   -4.3227   22.8880  -29.4369 H   0  0  0  0  0  0  0  0  0  0  0  0
   -8.7766   24.0349  -31.6594 H   0  0  0  0  0  0  0  0  0  0  0  0
  -10.3954   22.1517  -31.7508 H   0  0  0  0  0  0  0  0  0  0  0  0
   -9.6043   19.8417  -32.2173 H   0  0  0  0  0  0  0  0  0  0  0  0
   -7.1726   18.5595  -30.5740 H   0  0  0  0  0  0  0  0  0  0  0  0
   -8.2228   17.5713  -31.6451 H   0  0  0  0  0  0  0  0  0  0  0  0
   -6.4449   17.3146  -31.6451 H   0  0  0  0  0  0  0  0  0  0  0  0
   -7.1692   18.8687  -34.7085 H   0  0  0  0  0  0  0  0  0  0  0  0
   -5.5837   19.3912  -34.0309 H   0  0  0  0  0  0  0  0  0  0  0  0
   -3.9863   17.7889  -33.1637 H   0  0  0  0  0  0  0  0  0  0  0  0
   -3.2412   15.4080  -33.0680 H   0  0  0  0  0  0  0  0  0  0  0  0
   -4.8121   13.5787  -33.7131 H   0  0  0  0  0  0  0  0  0  0  0  0
   -7.1354   14.1255  -34.4454 H   0  0  0  0  0  0  0  0  0  0  0  0
   -7.8904   16.5024  -34.5364 H   0  0  0  0  0  0  0  0  0  0  0  0
  1  2  1  0
  2  3  2  0
  3  4  1  0
  4  5  1  0
  5  6  1  0
  5  7  2  0
  5  8  2  0
  3  9  1  0
  9 10  2  0
 10 11  1  0
 11 12  2  0
 12 13  1  0
 13 14  1  0
 13 15  1  0
 15 16  1  0
 16 17  2  0
 17 18  1  0
 18 19  2  0
 19 20  1  0
 20 21  2  0
 12  2  1  0
 21 16  1  0
  1 22  1  0
  1 23  1  0
  1 24  1  0
  4 25  1  0
  6 26  1  0
  6 27  1  0
  6 28  1  0
  9 29  1  0
 10 30  1  0
 11 31  1  0
 14 32  1  0
 14 33  1  0
 14 34  1  0
 15 35  1  0
 15 36  1  0
 17 37  1  0
 18 38  1  0
 19 39  1  0
 20 40  1  0
 21 41  1  0
M  END
>  <UniqueID>  (27) 
25

>  <SMILES>  (27) 
Cc1c(NS(C)(=O)=O)cccc1N(C)Cc1ccccc1

>  <Energy>  (27) 
44.96816773518791

>  <Genealogy>  (27) 
Cc1c(NS(C)(=O)=O)cccc1N(C)Cc1ccccc1 (3D coordinates assigned)
Cc1c(NS(C)(=O)=O)cccc1N(C)Cc1ccccc1 (optimized conformer: 44.96816773518791 kcal/mol)

>  <smiles>  (27) 
Cc1c(NS(C)(=O)=O)cccc1N(C)Cc1ccccc1

>  <score_type>  (27) 
oracle

>  <origin>  (27) 
adgpu

>  <m_score__min__energy>  (27) 
-8.5399999999999991

>  <m_primary>  (27) 
energy

$$$$
27:0
     RDKit          3D

 42 44  0  0  1  0  0  0  0  0999 V2000
   -5.6320   25.6670  -30.2130 C   0  0  0  0  0  0  0  0  0  0  0  0
   -4.6350   24.5380  -30.1710 C   0  0  0  0  0  0  0  0  0  0  0  0
   -4.5400   23.7750  -31.3200 O   0  0  0  0  0  0  0  0  0  0  0  0
   -5.4490   22.8060  -31.6600 C   0  0  0  0  0  0  0  0  0  0  0  0
   -6.7790   23.0780  -31.4780 C   0  0  0  0  0  0  0  0  0  0  0  0
   -7.6790   22.1080  -31.8160 C   0  0  0  0  0  0  0  0  0  0  0  0
   -8.9820   22.3740  -31.6360 N   0  0  0  0  0  0  0  0  0  0  0  0
   -9.8910   21.4460  -31.9540 C   0  0  0  0  0  0  0  0  0  0  0  0
   -9.4920   20.2780  -32.4430 N   0  0  0  0  0  0  0  0  0  0  0  0
   -8.1870   19.9880  -32.6330 C   0  0  0  0  0  0  0  0  0  0  0  0
   -7.9000   18.8800  -33.0820 N   0  0  0  0  0  0  0  0  0  0  0  0
   -6.7470   18.2650  -33.3890 C   0  0  0  0  0  0  0  0  0  0  0  0
   -6.0530   18.6070  -34.5610 C   0  0  0  0  0  0  0  0  0  0  0  0
   -4.9460   17.9160  -34.9820 C   0  0  0  0  0  0  0  0  0  0  0  0
   -4.5190   16.8420  -34.1940 C   0  0  0  0  0  0  0  0  0  0  0  0
   -5.1780   16.4800  -33.0370 C   0  0  0  0  0  0  0  0  0  0  0  0
   -4.6130   15.1400  -32.0910 Cl  0  0  0  0  0  0  0  0  0  0  0  0
   -6.2950   17.1710  -32.6070 C   0  0  0  0  0  0  0  0  0  0  0  0
   -7.2110   20.9010  -32.3250 C   0  0  0  0  0  0  0  0  0  0  0  0
   -5.8760   20.6550  -32.4980 C   0  0  0  0  0  0  0  0  0  0  0  0
   -4.9400   21.6330  -32.1580 C   0  0  0  0  0  0  0  0  0  0  0  0
   -3.5910   21.5160  -32.2800 O   0  0  0  0  0  0  0  0  0  0  0  0
   -2.7620   21.1730  -33.3260 C   0  0  0  0  0  0  0  0  0  0  0  0
   -2.5630   19.6760  -33.3790 C   0  0  0  0  0  0  0  0  0  0  0  0
   -5.8937   25.9634  -29.1865 H   0  0  0  0  0  0  0  0  0  0  0  0
   -5.1918   26.5254  -30.7416 H   0  0  0  0  0  0  0  0  0  0  0  0
   -6.5383   25.3364  -30.7416 H   0  0  0  0  0  0  0  0  0  0  0  0
   -3.6437   24.9706  -29.9705 H   0  0  0  0  0  0  0  0  0  0  0  0
   -4.9920   23.8538  -29.3872 H   0  0  0  0  0  0  0  0  0  0  0  0
   -7.1111   24.0454  -31.0731 H   0  0  0  0  0  0  0  0  0  0  0  0
   -9.3200   23.2950  -31.2490 H   0  0  0  0  0  0  0  0  0  0  0  0
  -10.9626   21.6492  -31.8113 H   0  0  0  0  0  0  0  0  0  0  0  0
   -6.4092   19.4573  -35.1611 H   0  0  0  0  0  0  0  0  0  0  0  0
   -4.4144   18.1954  -35.9036 H   0  0  0  0  0  0  0  0  0  0  0  0
   -3.6327   16.2698  -34.5055 H   0  0  0  0  0  0  0  0  0  0  0  0
   -6.8189   16.8809  -31.6843 H   0  0  0  0  0  0  0  0  0  0  0  0
   -5.5414   19.6890  -32.9040 H   0  0  0  0  0  0  0  0  0  0  0  0
   -3.2131   21.5113  -34.2705 H   0  0  0  0  0  0  0  0  0  0  0  0
   -1.7847   21.6553  -33.1764 H   0  0  0  0  0  0  0  0  0  0  0  0
   -2.5099   19.2767  -32.3554 H   0  0  0  0  0  0  0  0  0  0  0  0
   -3.4074   19.2124  -33.9101 H   0  0  0  0  0  0  0  0  0  0  0  0
   -1.6268   19.4491  -33.9101 H   0  0  0  0  0  0  0  0  0  0  0  0
  1  2  1  0
  2  3  1  0
  3  4  1  0
  4  5  2  0
  5  6  1  0
  6  7  1  0
  7  8  1  0
  8  9  2  0
  9 10  1  0
 10 11  2  0
 11 12  1  0
 12 13  2  0
 13 14  1  0
 14 15  2  0
 15 16  1  0
 16 17  1  0
 16 18  2  0
 10 19  1  0
 19 20  1  0
 20 21  2  0
 21 22  1  0
 22 23  1  0
 23 24  1  0
 21  4  1  0
 19  6  2  0
 18 12  1  0
  1 25  1  0
  1 26  1  0
  1 27  1  0
  2 28  1  0
  2 29  1  0
  5 30  1  0
  7 31  1  0
  8 32  1  0
 13 33  1  0
 14 34  1  0
 15 35  1  0
 18 36  1  0
 20 37  1  0
 23 38  1  0
 23 39  1  0
 24 40  1  0
 24 41  1  0
 24 42  1  0
M  END
>  <smiles>  (28) 
CCOc1cc2[nH]cnc(=Nc3cccc(Cl)c3)c2cc1OCC

>  <score_type>  (28) 
oracle

>  <origin>  (28) 
adgpu

>  <m_score__min__energy>  (28) 
-7.8300000000000001

>  <m_primary>  (28) 
energy

$$$$
28:0
     RDKit          3D

 37 38  0  0  0  0  0  0  0  0999 V2000
   -1.6000   25.5970  -27.4890 C   0  0  0  0  0  0  0  0  0  0  0  0
   -1.9830   25.4840  -28.8560 O   0  0  0  0  0  0  0  0  0  0  0  0
   -2.1790   24.2670  -29.5280 C   0  0  0  0  0  0  0  0  0  0  0  0
   -1.3420   23.1540  -29.3190 C   0  0  0  0  0  0  0  0  0  0  0  0
   -1.5690   21.9600  -30.0050 C   0  0  0  0  0  0  0  0  0  0  0  0
   -2.6390   21.8520  -30.9020 C   0  0  0  0  0  0  0  0  0  0  0  0
   -2.8600   20.5740  -31.6670 C   0  0  0  0  0  0  0  0  0  0  0  0
   -3.4100   20.8700  -33.0640 C   0  0  0  0  0  0  0  0  0  0  0  0
   -4.8370   21.1770  -32.9980 N   0  0  0  0  0  0  0  0  0  0  0  0
   -5.7820   20.3120  -32.3470 C   0  0  0  0  0  0  0  0  0  0  0  0
   -5.3940   19.2200  -31.8480 O   0  0  0  0  0  0  0  0  0  0  0  0
   -7.2050   20.6820  -32.2570 C   0  0  0  0  0  0  0  0  0  0  0  0
   -8.2800   19.8380  -32.5170 C   0  0  0  0  0  0  0  0  0  0  0  0
   -9.5250   20.4570  -32.3480 C   0  0  0  0  0  0  0  0  0  0  0  0
   -9.4390   21.7850  -31.9530 C   0  0  0  0  0  0  0  0  0  0  0  0
   -7.8130   22.1890  -31.8150 S   0  0  0  0  0  0  0  0  0  0  0  0
   -3.4680   22.9620  -31.1240 C   0  0  0  0  0  0  0  0  0  0  0  0
   -3.2450   24.1710  -30.4370 C   0  0  0  0  0  0  0  0  0  0  0  0
   -4.0590   25.2990  -30.6300 O   0  0  0  0  0  0  0  0  0  0  0  0
   -5.4660   25.3250  -30.4170 C   0  0  0  0  0  0  0  0  0  0  0  0
   -2.4562   25.3444  -26.8462 H   0  0  0  0  0  0  0  0  0  0  0  0
   -0.7698   24.9055  -27.2824 H   0  0  0  0  0  0  0  0  0  0  0  0
   -1.2781   26.6284  -27.2824 H   0  0  0  0  0  0  0  0  0  0  0  0
   -0.5038   23.2262  -28.6104 H   0  0  0  0  0  0  0  0  0  0  0  0
   -0.9041   21.0993  -29.8403 H   0  0  0  0  0  0  0  0  0  0  0  0
   -1.9034   20.0391  -31.7611 H   0  0  0  0  0  0  0  0  0  0  0  0
   -3.5896   19.9567  -31.1224 H   0  0  0  0  0  0  0  0  0  0  0  0
   -2.8738   21.7313  -33.4891 H   0  0  0  0  0  0  0  0  0  0  0  0
   -3.2661   19.9828  -33.6982 H   0  0  0  0  0  0  0  0  0  0  0  0
   -5.1750   22.0330  -33.4920 H   0  0  0  0  0  0  0  0  0  0  0  0
   -8.1637   18.7884  -32.8248 H   0  0  0  0  0  0  0  0  0  0  0  0
  -10.4814   19.9393  -32.5129 H   0  0  0  0  0  0  0  0  0  0  0  0
  -10.2886   22.4573  -31.7630 H   0  0  0  0  0  0  0  0  0  0  0  0
   -4.2991   22.8873  -31.8407 H   0  0  0  0  0  0  0  0  0  0  0  0
   -5.6733   25.3288  -29.3367 H   0  0  0  0  0  0  0  0  0  0  0  0
   -5.8895   26.2311  -30.8748 H   0  0  0  0  0  0  0  0  0  0  0  0
   -5.9227   24.4351  -30.8748 H   0  0  0  0  0  0  0  0  0  0  0  0
  1  2  1  0
  2  3  1  0
  3  4  2  0
  4  5  1  0
  5  6  2  0
  6  7  1  0
  7  8  1  0
  8  9  1  0
  9 10  1  0
 10 11  2  0
 10 12  1  0
 12 13  2  0
 13 14  1  0
 14 15  2  0
 15 16  1  0
  6 17  1  0
 17 18  2  0
 18 19  1  0
 19 20  1  0
 18  3  1  0
 16 12  1  0
  1 21  1  0
  1 22  1  0
  1 23  1  0
  4 24  1  0
  5 25  1  0
  7 26  1  0
  7 27  1  0
  8 28  1  0
  8 29  1  0
  9 30  1  0
 13 31  1  0
 14 32  1  0
 15 33  1  0
 17 34  1  0
 20 35  1  0
 20 36  1  0
 20 37  1  0
M  END
>  <UniqueID>  (29) 
26

>  <SMILES>  (29) 
COc1ccc(CCNC(=O)c2cccs2)cc1OC

>  <Energy>  (29) 
56.61486137148929

>  <Genealogy>  (29) 
COc1ccc(CCNC(=O)c2cccs2)cc1OC (3D coordinates assigned)
COc1ccc(CCNC(=O)c2cccs2)cc1OC (optimized conformer: 56.61486137148929 kcal/mol)

>  <smiles>  (29) 
COc1ccc(CCNC(=O)c2cccs2)cc1OC

>  <score_type>  (29) 
oracle

>  <origin>  (29) 
adgpu

>  <m_score__min__energy>  (29) 
-7.54

>  <m_primary>  (29) 
energy

$$$$
29:0
     RDKit          3D

 36 38  0  0  1  0  0  0  0  0999 V2000
    0.6180   24.5480  -28.4340 O   0  0  0  0  0  0  0  0  0  0  0  0
   -0.3120   23.6200  -27.7010 S   0  0  0  0  0  0  0  0  0  0  0  0
    0.0930   22.2100  -27.9800 O   0  0  0  0  0  0  0  0  0  0  0  0
   -0.2130   23.9050  -26.0050 N   0  0  0  0  0  0  0  0  0  0  0  0
   -0.5240   25.0420  -25.4800 C   0  0  0  0  0  0  0  0  0  0  0  0
   -0.4080   25.1620  -24.1160 C   0  0  0  0  0  0  0  0  0  0  0  0
   -0.7390   26.3750  -23.5350 C   0  0  0  0  0  0  0  0  0  0  0  0
   -1.1610   27.3970  -24.3200 N   0  0  0  0  0  0  0  0  0  0  0  0
   -1.2570   27.2270  -25.6530 C   0  0  0  0  0  0  0  0  0  0  0  0
   -0.9490   26.0670  -26.2700 N   0  0  0  0  0  0  0  0  0  0  0  0
   -1.9880   23.8820  -28.1680 C   0  0  0  0  0  0  0  0  0  0  0  0
   -2.9020   23.9620  -27.1230 C   0  0  0  0  0  0  0  0  0  0  0  0
   -4.2410   24.1660  -27.3890 C   0  0  0  0  0  0  0  0  0  0  0  0
   -4.6400   24.2870  -28.7190 C   0  0  0  0  0  0  0  0  0  0  0  0
   -3.7130   24.2050  -29.7440 C   0  0  0  0  0  0  0  0  0  0  0  0
   -4.1970   24.3370  -31.0390 O   0  0  0  0  0  0  0  0  0  0  0  0
   -5.0460   23.3740  -31.5360 C   0  0  0  0  0  0  0  0  0  0  0  0
   -6.4370   23.5020  -31.4970 C   0  0  0  0  0  0  0  0  0  0  0  0
   -7.2150   22.4890  -32.0180 C   0  0  0  0  0  0  0  0  0  0  0  0
   -8.9640   22.6650  -31.9610 Cl  0  0  0  0  0  0  0  0  0  0  0  0
   -6.7040   21.3450  -32.5820 C   0  0  0  0  0  0  0  0  0  0  0  0
   -5.3160   21.2180  -32.6210 C   0  0  0  0  0  0  0  0  0  0  0  0
   -4.6010   19.7760  -33.3300 Cl  0  0  0  0  0  0  0  0  0  0  0  0
   -4.5400   22.2220  -32.1040 C   0  0  0  0  0  0  0  0  0  0  0  0
   -2.3750   24.0020  -29.4810 C   0  0  0  0  0  0  0  0  0  0  0  0
   -0.0616   24.3175  -23.5021 H   0  0  0  0  0  0  0  0  0  0  0  0
   -0.6602   26.5082  -22.4459 H   0  0  0  0  0  0  0  0  0  0  0  0
   -1.4070   28.3040  -23.8720 H   0  0  0  0  0  0  0  0  0  0  0  0
   -1.6022   28.0723  -26.2664 H   0  0  0  0  0  0  0  0  0  0  0  0
   -2.5575   23.8626  -26.0831 H   0  0  0  0  0  0  0  0  0  0  0  0
   -4.9746   24.2314  -26.5720 H   0  0  0  0  0  0  0  0  0  0  0  0
   -5.7017   24.4492  -28.9565 H   0  0  0  0  0  0  0  0  0  0  0  0
   -6.9040   24.3960  -31.0580 H   0  0  0  0  0  0  0  0  0  0  0  0
   -7.3625   20.5619  -32.9859 H   0  0  0  0  0  0  0  0  0  0  0  0
   -3.4472   22.1028  -32.1440 H   0  0  0  0  0  0  0  0  0  0  0  0
   -1.6400   23.9381  -30.2969 H   0  0  0  0  0  0  0  0  0  0  0  0
  1  2  2  0
  2  3  2  0
  2  4  1  0
  4  5  2  0
  5  6  1  0
  6  7  2  0
  7  8  1  0
  8  9  1  0
  9 10  2  0
  2 11  1  0
 11 12  2  0
 12 13  1  0
 13 14  2  0
 14 15  1  0
 15 16  1  0
 16 17  1  0
 17 18  2  0
 18 19  1  0
 19 20  1  0
 19 21  2  0
 21 22  1  0
 22 23  1  0
 22 24  2  0
 15 25  2  0
 10  5  1  0
 25 11  1  0
 24 17  1  0
  6 26  1  0
  7 27  1  0
  8 28  1  0
  9 29  1  0
 12 30  1  0
 13 31  1  0
 14 32  1  0
 18 33  1  0
 21 34  1  0
 24 35  1  0
 25 36  1  0
M  END
>  <smiles>  (30) 
O=S(=O)(N=c1cc[nH]cn1)c1cccc(Oc2cc(Cl)cc(Cl)c2)c1

>  <score_type>  (30) 
oracle

>  <origin>  (30) 
adgpu

>  <m_score__min__energy>  (30) 
-9.0500000000000007

>  <m_primary>  (30) 
energy

$$$$
30:0
     RDKit          3D

 36 37  0  0  0  0  0  0  0  0999 V2000
   -6.7611   17.3981  -35.7588 H   0  0  0  0  0  0  0  0  0  0  0  0
   -6.1060   17.4550  -34.8770 C   0  0  0  0  0  0  0  0  0  0  0  0
   -5.5780   18.6490  -34.5000 N   0  0  0  0  0  0  0  0  0  0  0  0
   -4.7540   18.7610  -33.4210 C   0  0  0  0  0  0  0  0  0  0  0  0
   -4.2300   20.1070  -33.0230 C   0  0  0  0  0  0  0  0  0  0  0  0
   -3.3108   20.3201  -33.5884 H   0  0  0  0  0  0  0  0  0  0  0  0
   -4.0168   20.1028  -31.9439 H   0  0  0  0  0  0  0  0  0  0  0  0
   -5.2210   21.1420  -33.3070 N   0  0  0  0  0  0  0  0  0  0  0  0
   -5.1390   21.6780  -34.1990 H   0  0  0  0  0  0  0  0  0  0  0  0
   -6.4780   21.1640  -32.6220 C   0  0  0  0  0  0  0  0  0  0  0  0
   -7.5290   20.3120  -33.0850 N   0  0  0  0  0  0  0  0  0  0  0  0
   -7.3770   19.7020  -33.9180 H   0  0  0  0  0  0  0  0  0  0  0  0
   -8.4560   20.2880  -32.6060 H   0  0  0  0  0  0  0  0  0  0  0  0
   -6.6650   21.9090  -31.5640 N   0  0  0  0  0  0  0  0  0  0  0  0
   -7.5640   21.8160  -31.0400 H   0  0  0  0  0  0  0  0  0  0  0  0
   -5.6810   22.7990  -31.0100 C   0  0  0  0  0  0  0  0  0  0  0  0
   -4.6610   22.2760  -30.2020 C   0  0  0  0  0  0  0  0  0  0  0  0
   -4.6246   21.1955  -29.9992 H   0  0  0  0  0  0  0  0  0  0  0  0
   -3.6910   23.1180  -29.6530 C   0  0  0  0  0  0  0  0  0  0  0  0
   -2.8869   22.6933  -29.0341 H   0  0  0  0  0  0  0  0  0  0  0  0
   -3.7340   24.4970  -29.8840 C   0  0  0  0  0  0  0  0  0  0  0  0
   -2.7230   25.2980  -29.3320 O   0  0  0  0  0  0  0  0  0  0  0  0
   -1.9550   24.9440  -28.1870 C   0  0  0  0  0  0  0  0  0  0  0  0
   -2.5148   25.2020  -27.2759 H   0  0  0  0  0  0  0  0  0  0  0  0
   -1.7543   23.8625  -28.2001 H   0  0  0  0  0  0  0  0  0  0  0  0
   -1.0024   25.4939  -28.2001 H   0  0  0  0  0  0  0  0  0  0  0  0
   -4.7810   25.0310  -30.6600 C   0  0  0  0  0  0  0  0  0  0  0  0
   -4.8345   26.1156  -30.8354 H   0  0  0  0  0  0  0  0  0  0  0  0
   -5.7520   24.1890  -31.2080 C   0  0  0  0  0  0  0  0  0  0  0  0
   -6.5766   24.6161  -31.7976 H   0  0  0  0  0  0  0  0  0  0  0  0
   -4.4490   17.6230  -32.6600 C   0  0  0  0  0  0  0  0  0  0  0  0
   -3.7942   17.7030  -31.7797 H   0  0  0  0  0  0  0  0  0  0  0  0
   -4.9840   16.3880  -33.0300 C   0  0  0  0  0  0  0  0  0  0  0  0
   -4.7491   15.4873  -32.4438 H   0  0  0  0  0  0  0  0  0  0  0  0
   -5.8180   16.2990  -34.1460 C   0  0  0  0  0  0  0  0  0  0  0  0
   -6.2436   15.3302  -34.4466 H   0  0  0  0  0  0  0  0  0  0  0  0
  1  2  1  0
  2  3  2  0
  3  4  1  0
  4  5  1  0
  5  6  1  0
  5  7  1  0
  5  8  1  0
  8  9  1  0
  8 10  1  0
 10 11  1  0
 11 12  1  0
 11 13  1  0
 10 14  2  0
 14 15  1  0
 14 16  1  0
 16 17  2  0
 17 18  1  0
 17 19  1  0
 19 20  1  0
 19 21  2  0
 21 22  1  0
 22 23  1  0
 23 24  1  0
 23 25  1  0
 23 26  1  0
 21 27  1  0
 27 28  1  0
 27 29  2  0
 29 30  1  0
  4 31  2  0
 31 32  1  0
 31 33  1  0
 33 34  1  0
 33 35  2  0
 35 36  1  0
 35  2  1  0
 29 16  1  0
M  CHG  1  14   1
M  END
>  <UniqueID>  (31) 
27

>  <SMILES>  (31) 
COc1ccc(/[NH+]=C(/N)NCc2ccccn2)cc1

>  <Energy>  (31) 
41.32274841789775

>  <Genealogy>  (31) 
COc1ccc([NH+]=C(N)NCc2ccccn2)cc1 (protonated)
COc1ccc(/[NH+]=C(/N)NCc2ccccn2)cc1 (cis-trans isomerization)
COc1ccc(/[NH+]=C(/N)NCc2ccccn2)cc1 (3D coordinates assigned)
COc1ccc(/[NH+]=C(/N)NCc2ccccn2)cc1 (optimized conformer: 41.32274841789775 kcal/mol)

>  <smiles>  (31) 
COc1ccc(N=C(N)NCc2ccccn2)cc1

>  <score_type>  (31) 
oracle

>  <origin>  (31) 
adgpu

>  <m_score__min__energy>  (31) 
-6.2300000000000004

>  <m_primary>  (31) 
energy

$$$$
31:0
     RDKit          3D

 24 25  0  0  0  0  0  0  0  0999 V2000
   -4.6070   20.0740  -33.4080 Cl  0  0  0  0  0  0  0  0  0  0  0  0
   -6.1990   19.8050  -32.7090 C   0  0  0  0  0  0  0  0  0  0  0  0
   -6.6140   18.4910  -32.4690 C   0  0  0  0  0  0  0  0  0  0  0  0
   -7.8920   18.2360  -31.9650 C   0  0  0  0  0  0  0  0  0  0  0  0
   -8.7650   19.2940  -31.7070 C   0  0  0  0  0  0  0  0  0  0  0  0
   -8.3630   20.6130  -31.9430 C   0  0  0  0  0  0  0  0  0  0  0  0
   -9.4840   21.9220  -31.5920 Cl  0  0  0  0  0  0  0  0  0  0  0  0
   -7.0700   20.8790  -32.4320 C   0  0  0  0  0  0  0  0  0  0  0  0
   -6.6660   22.2350  -32.6770 N   0  0  0  0  0  0  0  0  0  0  0  0
   -6.1020   23.0930  -31.6690 C   0  0  0  0  0  0  0  0  0  0  0  0
   -6.8720   24.0840  -31.0290 C   0  0  0  0  0  0  0  0  0  0  0  0
   -6.2930   24.9100  -30.0600 C   0  0  0  0  0  0  0  0  0  0  0  0
   -4.9450   24.7630  -29.7270 C   0  0  0  0  0  0  0  0  0  0  0  0
   -4.1710   23.7910  -30.3660 C   0  0  0  0  0  0  0  0  0  0  0  0
   -4.7440   22.9620  -31.3350 C   0  0  0  0  0  0  0  0  0  0  0  0
   -5.9310   17.6544  -32.6780 H   0  0  0  0  0  0  0  0  0  0  0  0
   -8.2102   17.2010  -31.7715 H   0  0  0  0  0  0  0  0  0  0  0  0
   -9.7729   19.0899  -31.3166 H   0  0  0  0  0  0  0  0  0  0  0  0
   -6.8750   22.6390  -33.6180 H   0  0  0  0  0  0  0  0  0  0  0  0
   -7.9327   24.2087  -31.2923 H   0  0  0  0  0  0  0  0  0  0  0  0
   -6.9013   25.6774  -29.5590 H   0  0  0  0  0  0  0  0  0  0  0  0
   -4.4929   25.4118  -28.9624 H   0  0  0  0  0  0  0  0  0  0  0  0
   -3.1082   23.6777  -30.1060 H   0  0  0  0  0  0  0  0  0  0  0  0
   -4.1278   22.2027  -31.8388 H   0  0  0  0  0  0  0  0  0  0  0  0
  1  2  1  0
  2  3  2  0
  3  4  1  0
  4  5  2  0
  5  6  1  0
  6  7  1  0
  6  8  2  0
  8  9  1  0
  9 10  1  0
 10 11  2  0
 11 12  1  0
 12 13  2  0
 13 14  1  0
 14 15  2  0
  8  2  1  0
 15 10  1  0
  3 16  1  0
  4 17  1  0
  5 18  1  0
  9 19  1  0
 11 20  1  0
 12 21  1  0
 13 22  1  0
 14 23  1  0
 15 24  1  0
M  END
>  <UniqueID>  (32) 
28

>  <SMILES>  (32) 
Clc1cccc(Cl)c1Nc1ccccc1

>  <Energy>  (32) 
32.71498478826344

>  <Genealogy>  (32) 
Clc1cccc(Cl)c1Nc1ccccc1 (3D coordinates assigned)
Clc1cccc(Cl)c1Nc1ccccc1 (optimized conformer: 32.71498478826344 kcal/mol)

>  <smiles>  (32) 
Clc1cccc(Cl)c1Nc1ccccc1

>  <score_type>  (32) 
oracle

>  <origin>  (32) 
adgpu

>  <m_score__min__energy>  (32) 
-7.0899999999999999

>  <m_primary>  (32) 
energy

$$$$
32:0
     RDKit          3D

 49 52  0  0  0  0  0  0  0  0999 V2000
  -10.5224   21.6053  -31.3685 H   0  0  0  0  0  0  0  0  0  0  0  0
   -9.4930   21.4680  -31.7310 C   0  0  0  0  0  0  0  0  0  0  0  0
   -9.0620   20.2070  -32.1520 C   0  0  0  0  0  0  0  0  0  0  0  0
   -9.7495   19.3493  -32.1114 H   0  0  0  0  0  0  0  0  0  0  0  0
   -7.7570   20.0350  -32.6250 C   0  0  0  0  0  0  0  0  0  0  0  0
   -7.4176   19.0373  -32.9404 H   0  0  0  0  0  0  0  0  0  0  0  0
   -6.8790   21.1240  -32.7000 C   0  0  0  0  0  0  0  0  0  0  0  0
   -5.5380   20.8970  -33.1660 N   0  0  0  0  0  0  0  0  0  0  0  0
   -4.4380   21.3310  -32.6220 C   0  0  0  0  0  0  0  0  0  0  0  0
   -4.4630   22.1590  -31.5460 N   0  0  0  0  0  0  0  0  0  0  0  0
   -3.3090   22.6280  -31.0020 C   0  0  0  0  0  0  0  0  0  0  0  0
   -3.3620   23.5050  -29.8570 N   0  0  0  0  0  0  0  0  0  0  0  0
   -2.3580   23.4360  -28.8290 C   0  0  0  0  0  0  0  0  0  0  0  0
   -2.2130   22.2670  -28.0640 C   0  0  0  0  0  0  0  0  0  0  0  0
   -2.8722   21.4061  -28.2490 H   0  0  0  0  0  0  0  0  0  0  0  0
   -1.2340   22.1930  -27.0680 C   0  0  0  0  0  0  0  0  0  0  0  0
   -1.1241   21.2745  -26.4728 H   0  0  0  0  0  0  0  0  0  0  0  0
   -0.3950   23.2850  -26.8280 C   0  0  0  0  0  0  0  0  0  0  0  0
    0.5530   23.2120  -25.8630 F   0  0  0  0  0  0  0  0  0  0  0  0
   -0.5330   24.4510  -27.5870 C   0  0  0  0  0  0  0  0  0  0  0  0
    0.1286   25.3093  -27.3983 H   0  0  0  0  0  0  0  0  0  0  0  0
   -1.5090   24.5300  -28.5850 C   0  0  0  0  0  0  0  0  0  0  0  0
   -1.6120   25.6590  -29.3310 F   0  0  0  0  0  0  0  0  0  0  0  0
   -4.5530   24.3290  -29.6350 C   0  0  0  0  0  0  0  0  0  0  0  0
   -4.7218   24.4458  -28.5543 H   0  0  0  0  0  0  0  0  0  0  0  0
   -4.4047   25.3185  -30.0920 H   0  0  0  0  0  0  0  0  0  0  0  0
   -5.4267   23.8413  -30.0920 H   0  0  0  0  0  0  0  0  0  0  0  0
   -2.1160   22.2780  -31.5640 N   0  0  0  0  0  0  0  0  0  0  0  0
   -1.2270   22.6870  -31.2000 H   0  0  0  0  0  0  0  0  0  0  0  0
   -2.0820   21.4410  -32.6380 C   0  0  0  0  0  0  0  0  0  0  0  0
   -0.8280   21.0610  -33.2320 N   0  0  0  0  0  0  0  0  0  0  0  0
   -0.4700   21.5530  -34.5680 C   0  0  0  0  0  0  0  0  0  0  0  0
   -1.3737   21.6039  -35.1931 H   0  0  0  0  0  0  0  0  0  0  0  0
   -0.0247   22.5550  -34.4798 H   0  0  0  0  0  0  0  0  0  0  0  0
    0.5430   20.6030  -35.2140 C   0  0  0  0  0  0  0  0  0  0  0  0
    0.0535   19.6397  -35.4198 H   0  0  0  0  0  0  0  0  0  0  0  0
    0.9048   21.0562  -36.1487 H   0  0  0  0  0  0  0  0  0  0  0  0
    1.6480   20.3880  -34.3570 O   0  0  0  0  0  0  0  0  0  0  0  0
    1.2210   19.7150  -33.1870 C   0  0  0  0  0  0  0  0  0  0  0  0
    0.7070   18.7856  -33.4734 H   0  0  0  0  0  0  0  0  0  0  0  0
    2.1028   19.4914  -32.5685 H   0  0  0  0  0  0  0  0  0  0  0  0
    0.2620   20.5880  -32.3740 C   0  0  0  0  0  0  0  0  0  0  0  0
   -0.1557   19.9975  -31.5453 H   0  0  0  0  0  0  0  0  0  0  0  0
    0.8102   21.4534  -31.9733 H   0  0  0  0  0  0  0  0  0  0  0  0
   -3.2470   20.9840  -33.1680 N   0  0  0  0  0  0  0  0  0  0  0  0
   -7.3100   22.3860  -32.2440 C   0  0  0  0  0  0  0  0  0  0  0  0
   -6.6180   23.2409  -32.2603 H   0  0  0  0  0  0  0  0  0  0  0  0
   -8.6150   22.5540  -31.7710 C   0  0  0  0  0  0  0  0  0  0  0  0
   -8.9513   23.5440  -31.4294 H   0  0  0  0  0  0  0  0  0  0  0  0
  1  2  1  0
  2  3  2  0
  3  4  1  0
  3  5  1  0
  5  6  1  0
  5  7  2  0
  7  8  1  0
  8  9  2  0
  9 10  1  0
 10 11  2  0
 11 12  1  0
 12 13  1  0
 13 14  2  0
 14 15  1  0
 14 16  1  0
 16 17  1  0
 16 18  2  0
 18 19  1  0
 18 20  1  0
 20 21  1  0
 20 22  2  0
 22 23  1  0
 12 24  1  0
 24 25  1  0
 24 26  1  0
 24 27  1  0
 11 28  1  0
 28 29  1  0
 28 30  1  0
 30 31  1  0
 31 32  1  0
 32 33  1  0
 32 34  1  0
 32 35  1  0
 35 36  1  0
 35 37  1  0
 35 38  1  0
 38 39  1  0
 39 40  1  0
 39 41  1  0
 39 42  1  0
 42 43  1  0
 42 44  1  0
 30 45  2  0
  7 46  1  0
 46 47  1  0
 46 48  2  0
 48 49  1  0
 48  2  1  0
 45  9  1  0
 22 13  1  0
 42 31  1  0
M  END
>  <UniqueID>  (33) 
29

>  <SMILES>  (33) 
CN(c1n/c(=N\c2ccccc2)nc(N2CCOCC2)[nH]1)c1ccc(F)cc1F

>  <Energy>  (33) 
68.98889711707443

>  <Genealogy>  (33) 
CN(c1n/c(=N\c2ccccc2)nc(N2CCOCC2)[nH]1)c1ccc(F)cc1F (cis-trans isomerization)
CN(c1n/c(=N\c2ccccc2)nc(N2CCOCC2)[nH]1)c1ccc(F)cc1F (3D coordinates assigned)
CN(c1n/c(=N\c2ccccc2)nc(N2CCOCC2)[nH]1)c1ccc(F)cc1F (nonaromatic ring conformer: 68.98889711707443 kcal/mol)

>  <smiles>  (33) 
CN(c1nc(=Nc2ccccc2)nc(N2CCOCC2)[nH]1)c1ccc(F)cc1F

>  <score_type>  (33) 
oracle

>  <origin>  (33) 
adgpu

>  <m_score__min__energy>  (33) 
-8.1500000000000004

>  <m_primary>  (33) 
energy

$$$$
33:0
     RDKit          3D

 22 24  0  0  0  0  0  0  0  0999 V2000
   -6.8590   17.0620  -33.4650 Cl  0  0  0  0  0  0  0  0  0  0  0  0
   -7.1200   18.6660  -32.8060 C   0  0  0  0  0  0  0  0  0  0  0  0
   -8.4250   19.1290  -32.5890 C   0  0  0  0  0  0  0  0  0  0  0  0
   -8.6410   20.4070  -32.0640 C   0  0  0  0  0  0  0  0  0  0  0  0
   -7.5500   21.2260  -31.7520 C   0  0  0  0  0  0  0  0  0  0  0  0
   -7.7430   22.4710  -31.2410 N   0  0  0  0  0  0  0  0  0  0  0  0
   -6.6900   23.2750  -30.9350 C   0  0  0  0  0  0  0  0  0  0  0  0
   -6.9000   24.5550  -30.4090 C   0  0  0  0  0  0  0  0  0  0  0  0
   -5.8040   25.3690  -30.1000 C   0  0  0  0  0  0  0  0  0  0  0  0
   -4.5000   24.9070  -30.3170 C   0  0  0  0  0  0  0  0  0  0  0  0
   -4.2840   23.6290  -30.8420 C   0  0  0  0  0  0  0  0  0  0  0  0
   -5.3740   22.8100  -31.1540 C   0  0  0  0  0  0  0  0  0  0  0  0
   -5.1810   21.5650  -31.6650 N   0  0  0  0  0  0  0  0  0  0  0  0
   -6.2340   20.7610  -31.9700 C   0  0  0  0  0  0  0  0  0  0  0  0
   -6.0240   19.4820  -32.4970 C   0  0  0  0  0  0  0  0  0  0  0  0
   -9.2826   18.4846  -32.8326 H   0  0  0  0  0  0  0  0  0  0  0  0
   -9.6666   20.7678  -31.8966 H   0  0  0  0  0  0  0  0  0  0  0  0
   -7.9236   24.9202  -30.2389 H   0  0  0  0  0  0  0  0  0  0  0  0
   -5.9675   26.3747  -29.6854 H   0  0  0  0  0  0  0  0  0  0  0  0
   -3.6426   25.5516  -30.0736 H   0  0  0  0  0  0  0  0  0  0  0  0
   -3.2584   23.2684  -31.0093 H   0  0  0  0  0  0  0  0  0  0  0  0
   -5.0003   19.1179  -32.6684 H   0  0  0  0  0  0  0  0  0  0  0  0
  1  2  1  0
  2  3  2  0
  3  4  1  0
  4  5  2  0
  5  6  1  0
  6  7  2  0
  7  8  1  0
  8  9  2  0
  9 10  1  0
 10 11  2  0
 11 12  1  0
 12 13  2  0
 13 14  1  0
 14 15  2  0
 15  2  1  0
 14  5  1  0
 12  7  1  0
  3 16  1  0
  4 17  1  0
  8 18  1  0
  9 19  1  0
 10 20  1  0
 11 21  1  0
 15 22  1  0
M  END
>  <UniqueID>  (34) 
30

>  <SMILES>  (34) 
Clc1ccc2nc3ccccc3nc2c1

>  <Energy>  (34) 
30.64163342242187

>  <Genealogy>  (34) 
Clc1ccc2nc3ccccc3nc2c1 (3D coordinates assigned)
Clc1ccc2nc3ccccc3nc2c1 (optimized conformer: 30.64163342242187 kcal/mol)

>  <smiles>  (34) 
Clc1ccc2nc3ccccc3nc2c1

>  <score_type>  (34) 
oracle

>  <origin>  (34) 
adgpu

>  <m_score__min__energy>  (34) 
-6.7300000000000004

>  <m_primary>  (34) 
energy

$$$$
34:0
     RDKit          3D

 36 37  0  0  0  0  0  0  0  0999 V2000
   -8.8360   18.8200  -31.6950 C   0  0  0  0  0  0  0  0  0  0  0  0
   -9.2340   19.9310  -32.6660 C   0  0  0  0  0  0  0  0  0  0  0  0
   -9.8390   21.1520  -31.9560 C   0  0  0  0  0  0  0  0  0  0  0  0
   -8.8970   22.3670  -31.9640 C   0  0  0  0  0  0  0  0  0  0  0  0
   -7.9450   22.3310  -30.7580 C   0  0  0  0  0  0  0  0  0  0  0  0
   -6.4960   22.7130  -31.0400 C   0  0  0  0  0  0  0  0  0  0  0  0
   -5.9360   23.9160  -30.5620 C   0  0  0  0  0  0  0  0  0  0  0  0
   -4.6030   24.2220  -30.8460 C   0  0  0  0  0  0  0  0  0  0  0  0
   -4.1020   25.2950  -30.4190 O   0  0  0  0  0  0  0  0  0  0  0  0
   -3.8580   23.3930  -31.5630 O   0  0  0  0  0  0  0  0  0  0  0  0
   -4.3220   22.2460  -32.0450 C   0  0  0  0  0  0  0  0  0  0  0  0
   -3.4700   21.4270  -32.7940 C   0  0  0  0  0  0  0  0  0  0  0  0
   -3.9300   20.2080  -33.3190 C   0  0  0  0  0  0  0  0  0  0  0  0
   -3.1110   19.3560  -34.0750 O   0  0  0  0  0  0  0  0  0  0  0  0
   -3.3360   17.9600  -34.2380 C   0  0  0  0  0  0  0  0  0  0  0  0
   -5.2530   19.8210  -33.0850 C   0  0  0  0  0  0  0  0  0  0  0  0
   -6.1140   20.6290  -32.3390 C   0  0  0  0  0  0  0  0  0  0  0  0
   -5.6630   21.8540  -31.8060 C   0  0  0  0  0  0  0  0  0  0  0  0
   -8.9627   19.1738  -30.6612 H   0  0  0  0  0  0  0  0  0  0  0  0
   -9.4749   17.9404  -31.8625 H   0  0  0  0  0  0  0  0  0  0  0  0
   -7.7839   18.5462  -31.8625 H   0  0  0  0  0  0  0  0  0  0  0  0
   -8.3387   20.2530  -33.2181 H   0  0  0  0  0  0  0  0  0  0  0  0
  -10.0030   19.5238  -33.3389 H   0  0  0  0  0  0  0  0  0  0  0  0
  -10.7743   21.4279  -32.4650 H   0  0  0  0  0  0  0  0  0  0  0  0
  -10.0152   20.8738  -30.9065 H   0  0  0  0  0  0  0  0  0  0  0  0
   -8.3046   22.3573  -32.8908 H   0  0  0  0  0  0  0  0  0  0  0  0
   -9.5039   23.2826  -31.9054 H   0  0  0  0  0  0  0  0  0  0  0  0
   -8.3352   23.0262  -30.0001 H   0  0  0  0  0  0  0  0  0  0  0  0
   -7.9174   21.2806  -30.4326 H   0  0  0  0  0  0  0  0  0  0  0  0
   -6.5470   24.6111  -29.9674 H   0  0  0  0  0  0  0  0  0  0  0  0
   -2.4309   21.7404  -32.9733 H   0  0  0  0  0  0  0  0  0  0  0  0
   -3.4129   17.4831  -33.2497 H   0  0  0  0  0  0  0  0  0  0  0  0
   -4.2712   17.8019  -34.7951 H   0  0  0  0  0  0  0  0  0  0  0  0
   -2.4978   17.5161  -34.7951 H   0  0  0  0  0  0  0  0  0  0  0  0
   -5.6204   18.8681  -33.4936 H   0  0  0  0  0  0  0  0  0  0  0  0
   -7.1516   20.3073  -32.1660 H   0  0  0  0  0  0  0  0  0  0  0  0
  1  2  1  0
  2  3  1  0
  3  4  1  0
  4  5  1  0
  5  6  1  0
  6  7  2  0
  7  8  1  0
  8  9  2  0
  8 10  1  0
 10 11  1  0
 11 12  2  0
 12 13  1  0
 13 14  1  0
 14 15  1  0
 13 16  2  0
 16 17  1  0
 17 18  2  0
 18  6  1  0
 18 11  1  0
  1 19  1  0
  1 20  1  0
  1 21  1  0
  2 22  1  0
  2 23  1  0
  3 24  1  0
  3 25  1  0
  4 26  1  0
  4 27  1  0
  5 28  1  0
  5 29  1  0
  7 30  1  0
 12 31  1  0
 15 32  1  0
 15 33  1  0
 15 34  1  0
 16 35  1  0
 17 36  1  0
M  END
>  <UniqueID>  (35) 
31

>  <SMILES>  (35) 
CCCCCc1cc(=O)oc2cc(OC)ccc12

>  <Energy>  (35) 
37.088830004747464

>  <Genealogy>  (35) 
CCCCCc1cc(=O)oc2cc(OC)ccc12 (3D coordinates assigned)
CCCCCc1cc(=O)oc2cc(OC)ccc12 (optimized conformer: 37.088830004747464 kcal/mol)

>  <smiles>  (35) 
CCCCCc1cc(=O)oc2cc(OC)ccc12

>  <score_type>  (35) 
oracle

>  <origin>  (35) 
adgpu

>  <m_score__min__energy>  (35) 
-7.3099999999999996

>  <m_primary>  (35) 
energy

$$$$
35:0
     RDKit          3D

 28 30  0  0  0  0  0  0  0  0999 V2000
   -7.9900   17.8420  -31.2190 F   0  0  0  0  0  0  0  0  0  0  0  0
   -7.2130   18.1370  -32.2930 C   0  0  0  0  0  0  0  0  0  0  0  0
   -6.4070   17.1340  -32.8430 C   0  0  0  0  0  0  0  0  0  0  0  0
   -5.6390   17.3950  -33.9800 C   0  0  0  0  0  0  0  0  0  0  0  0
   -5.6830   18.6570  -34.5790 C   0  0  0  0  0  0  0  0  0  0  0  0
   -6.4870   19.6630  -34.0330 C   0  0  0  0  0  0  0  0  0  0  0  0
   -7.2430   19.4170  -32.8760 C   0  0  0  0  0  0  0  0  0  0  0  0
   -8.0850   20.4950  -32.3170 C   0  0  0  0  0  0  0  0  0  0  0  0
   -9.4340   20.4540  -32.3750 N   0  0  0  0  0  0  0  0  0  0  0  0
   -9.8310   21.5630  -31.7200 C   0  0  0  0  0  0  0  0  0  0  0  0
   -8.7300   22.2600  -31.2800 C   0  0  0  0  0  0  0  0  0  0  0  0
   -7.6270   21.5920  -31.6640 N   0  0  0  0  0  0  0  0  0  0  0  0
   -6.2720   22.0500  -31.4990 C   0  0  0  0  0  0  0  0  0  0  0  0
   -5.2000   21.1460  -31.4670 C   0  0  0  0  0  0  0  0  0  0  0  0
   -3.8940   21.6140  -31.3120 C   0  0  0  0  0  0  0  0  0  0  0  0
   -3.6680   22.9860  -31.2030 C   0  0  0  0  0  0  0  0  0  0  0  0
   -4.7140   23.8540  -31.2510 N   0  0  0  0  0  0  0  0  0  0  0  0
   -5.9950   23.4230  -31.3990 C   0  0  0  0  0  0  0  0  0  0  0  0
   -6.3782   16.1373  -32.3786 H   0  0  0  0  0  0  0  0  0  0  0  0
   -4.9993   16.6071  -34.4042 H   0  0  0  0  0  0  0  0  0  0  0  0
   -5.0852   18.8592  -35.4800 H   0  0  0  0  0  0  0  0  0  0  0  0
   -6.5271   20.6521  -34.5127 H   0  0  0  0  0  0  0  0  0  0  0  0
  -10.8768   21.8648  -31.5614 H   0  0  0  0  0  0  0  0  0  0  0  0
   -8.7481   23.2017  -30.7118 H   0  0  0  0  0  0  0  0  0  0  0  0
   -5.3887   20.0667  -31.5642 H   0  0  0  0  0  0  0  0  0  0  0  0
   -3.0515   20.9077  -31.2762 H   0  0  0  0  0  0  0  0  0  0  0  0
   -2.6434   23.3662  -31.0782 H   0  0  0  0  0  0  0  0  0  0  0  0
   -6.8173   24.1524  -31.4406 H   0  0  0  0  0  0  0  0  0  0  0  0
  1  2  1  0
  2  3  2  0
  3  4  1  0
  4  5  2  0
  5  6  1  0
  6  7  2  0
  7  8  1  0
  8  9  2  0
  9 10  1  0
 10 11  2  0
 11 12  1  0
 12 13  1  0
 13 14  2  0
 14 15  1  0
 15 16  2  0
 16 17  1  0
 17 18  2  0
  7  2  1  0
 12  8  1  0
 18 13  1  0
  3 19  1  0
  4 20  1  0
  5 21  1  0
  6 22  1  0
 10 23  1  0
 11 24  1  0
 14 25  1  0
 15 26  1  0
 16 27  1  0
 18 28  1  0
M  END
>  <UniqueID>  (36) 
32

>  <SMILES>  (36) 
Fc1ccccc1-c1nccn1-c1cccnc1

>  <Energy>  (36) 
71.12872234189808

>  <Genealogy>  (36) 
Fc1ccccc1-c1nccn1-c1cccnc1 (3D coordinates assigned)
Fc1ccccc1-c1nccn1-c1cccnc1 (optimized conformer: 71.12872234189808 kcal/mol)

>  <smiles>  (36) 
Fc1ccccc1-c1nccn1-c1cccnc1

>  <score_type>  (36) 
oracle

>  <origin>  (36) 
adgpu

>  <m_score__min__energy>  (36) 
-6.75

>  <m_primary>  (36) 
energy

$$$$
36:0
     RDKit          3D

 31 32  0  0  0  0  0  0  0  0999 V2000
   -6.4830   17.5520  -31.6120 C   0  0  0  0  0  0  0  0  0  0  0  0
   -6.8970   18.3020  -32.8730 C   0  0  0  0  0  0  0  0  0  0  0  0
   -7.5740   19.6040  -32.5240 C   0  0  0  0  0  0  0  0  0  0  0  0
   -8.8550   19.5880  -31.9610 C   0  0  0  0  0  0  0  0  0  0  0  0
   -9.4800   20.7820  -31.6140 C   0  0  0  0  0  0  0  0  0  0  0  0
   -8.8170   21.9890  -31.8190 C   0  0  0  0  0  0  0  0  0  0  0  0
   -7.5540   22.0140  -32.3460 N   0  0  0  0  0  0  0  0  0  0  0  0
   -6.9030   23.3170  -32.5640 C   0  0  0  0  0  0  0  0  0  0  0  0
   -6.0670   23.6900  -31.3690 C   0  0  0  0  0  0  0  0  0  0  0  0
   -4.8020   23.1110  -31.1730 C   0  0  0  0  0  0  0  0  0  0  0  0
   -4.0170   23.4860  -30.0790 C   0  0  0  0  0  0  0  0  0  0  0  0
   -4.4840   24.4450  -29.1760 C   0  0  0  0  0  0  0  0  0  0  0  0
   -5.7380   25.0310  -29.3670 C   0  0  0  0  0  0  0  0  0  0  0  0
   -6.5270   24.6590  -30.4610 C   0  0  0  0  0  0  0  0  0  0  0  0
   -6.9260   20.8440  -32.7020 C   0  0  0  0  0  0  0  0  0  0  0  0
   -5.7620   20.8710  -33.1900 O   0  0  0  0  0  0  0  0  0  0  0  0
   -6.7980   18.1226  -30.7259 H   0  0  0  0  0  0  0  0  0  0  0  0
   -6.9624   16.5621  -31.6001 H   0  0  0  0  0  0  0  0  0  0  0  0
   -5.3898   17.4301  -31.6001 H   0  0  0  0  0  0  0  0  0  0  0  0
   -6.0025   18.5115  -33.4780 H   0  0  0  0  0  0  0  0  0  0  0  0
   -7.6042   17.6774  -33.4385 H   0  0  0  0  0  0  0  0  0  0  0  0
   -9.3688   18.6301  -31.7924 H   0  0  0  0  0  0  0  0  0  0  0  0
  -10.4910   20.7722  -31.1807 H   0  0  0  0  0  0  0  0  0  0  0  0
   -9.3141   22.9339  -31.5543 H   0  0  0  0  0  0  0  0  0  0  0  0
   -6.2582   23.2562  -33.4532 H   0  0  0  0  0  0  0  0  0  0  0  0
   -7.6778   24.0837  -32.7119 H   0  0  0  0  0  0  0  0  0  0  0  0
   -4.4277   22.3593  -31.8836 H   0  0  0  0  0  0  0  0  0  0  0  0
   -3.0295   23.0253  -29.9285 H   0  0  0  0  0  0  0  0  0  0  0  0
   -3.8648   24.7383  -28.3155 H   0  0  0  0  0  0  0  0  0  0  0  0
   -6.1055   25.7859  -28.6563 H   0  0  0  0  0  0  0  0  0  0  0  0
   -7.5112   25.1268  -30.6109 H   0  0  0  0  0  0  0  0  0  0  0  0
  1  2  1  0
  2  3  1  0
  3  4  2  0
  4  5  1  0
  5  6  2  0
  6  7  1  0
  7  8  1  0
  8  9  1  0
  9 10  2  0
 10 11  1  0
 11 12  2  0
 12 13  1  0
 13 14  2  0
  7 15  1  0
 15 16  2  0
 15  3  1  0
 14  9  1  0
  1 17  1  0
  1 18  1  0
  1 19  1  0
  2 20  1  0
  2 21  1  0
  4 22  1  0
  5 23  1  0
  6 24  1  0
  8 25  1  0
  8 26  1  0
 10 27  1  0
 11 28  1  0
 12 29  1  0
 13 30  1  0
 14 31  1  0
M  END
>  <UniqueID>  (37) 
33

>  <SMILES>  (37) 
CCc1cccn(Cc2ccccc2)c1=O

>  <Energy>  (37) 
30.4402177817922

>  <Genealogy>  (37) 
CCc1cccn(Cc2ccccc2)c1=O (3D coordinates assigned)
CCc1cccn(Cc2ccccc2)c1=O (optimized conformer: 30.4402177817922 kcal/mol)

>  <smiles>  (37) 
CCc1cccn(Cc2ccccc2)c1=O

>  <score_type>  (37) 
oracle

>  <origin>  (37) 
adgpu

>  <m_score__min__energy>  (37) 
-6.4699999999999998

>  <m_primary>  (37) 
energy

$$$$
37:0
     RDKit          3D

 28 29  0  0  0  0  0  0  0  0999 V2000
   -4.4461   20.9424  -31.8120 H   0  0  0  0  0  0  0  0  0  0  0  0
   -5.4210   21.4520  -31.8110 C   0  0  0  0  0  0  0  0  0  0  0  0
   -6.4530   20.8600  -32.3340 N   0  0  0  0  0  0  0  0  0  0  0  0
   -6.4040   19.5630  -32.9460 C   0  0  0  0  0  0  0  0  0  0  0  0
   -5.3670   19.3000  -33.8510 C   0  0  0  0  0  0  0  0  0  0  0  0
   -4.6175   20.0771  -34.0615 H   0  0  0  0  0  0  0  0  0  0  0  0
   -5.2760   18.0610  -34.4880 C   0  0  0  0  0  0  0  0  0  0  0  0
   -4.4635   17.8701  -35.2045 H   0  0  0  0  0  0  0  0  0  0  0  0
   -6.2140   17.0650  -34.2170 C   0  0  0  0  0  0  0  0  0  0  0  0
   -6.1507   16.0954  -34.7326 H   0  0  0  0  0  0  0  0  0  0  0  0
   -7.2340   17.2980  -33.2910 C   0  0  0  0  0  0  0  0  0  0  0  0
   -7.9703   16.5082  -33.0810 H   0  0  0  0  0  0  0  0  0  0  0  0
   -7.3280   18.5330  -32.6250 C   0  0  0  0  0  0  0  0  0  0  0  0
   -8.4040   18.7170  -31.5900 C   0  0  0  0  0  0  0  0  0  0  0  0
   -7.9629   18.6416  -30.5851 H   0  0  0  0  0  0  0  0  0  0  0  0
   -8.8666   19.7073  -31.7140 H   0  0  0  0  0  0  0  0  0  0  0  0
   -9.1693   17.9367  -31.7140 H   0  0  0  0  0  0  0  0  0  0  0  0
   -5.5370   22.7970  -31.2160 C   0  0  0  0  0  0  0  0  0  0  0  0
   -6.7910   23.4070  -31.0170 C   0  0  0  0  0  0  0  0  0  0  0  0
   -7.7100   22.8767  -31.3072 H   0  0  0  0  0  0  0  0  0  0  0  0
   -6.8730   24.6840  -30.4520 C   0  0  0  0  0  0  0  0  0  0  0  0
   -7.8553   25.1543  -30.2972 H   0  0  0  0  0  0  0  0  0  0  0  0
   -5.7080   25.3630  -30.0840 C   0  0  0  0  0  0  0  0  0  0  0  0
   -5.7738   26.3676  -29.6408 H   0  0  0  0  0  0  0  0  0  0  0  0
   -4.4600   24.7660  -30.2790 C   0  0  0  0  0  0  0  0  0  0  0  0
   -3.5438   25.3013  -29.9892 H   0  0  0  0  0  0  0  0  0  0  0  0
   -4.3740   23.4890  -30.8420 C   0  0  0  0  0  0  0  0  0  0  0  0
   -3.3888   23.0235  -30.9929 H   0  0  0  0  0  0  0  0  0  0  0  0
  1  2  1  0
  2  3  2  0
  3  4  1  0
  4  5  2  0
  5  6  1  0
  5  7  1  0
  7  8  1  0
  7  9  2  0
  9 10  1  0
  9 11  1  0
 11 12  1  0
 11 13  2  0
 13 14  1  0
 14 15  1  0
 14 16  1  0
 14 17  1  0
  2 18  1  0
 18 19  2  0
 19 20  1  0
 19 21  1  0
 21 22  1  0
 21 23  2  0
 23 24  1  0
 23 25  1  0
 25 26  1  0
 25 27  2  0
 27 28  1  0
 13  4  1  0
 27 18  1  0
M  END
>  <UniqueID>  (38) 
34

>  <SMILES>  (38) 
Cc1ccccc1/N=C/c1ccccc1

>  <Energy>  (38) 
34.977986120188135

>  <Genealogy>  (38) 
Cc1ccccc1/N=C/c1ccccc1 (cis-trans isomerization)
Cc1ccccc1/N=C/c1ccccc1 (3D coordinates assigned)
Cc1ccccc1/N=C/c1ccccc1 (optimized conformer: 34.977986120188135 kcal/mol)

>  <smiles>  (38) 
Cc1ccccc1N=Cc1ccccc1

>  <score_type>  (38) 
oracle

>  <origin>  (38) 
adgpu

>  <m_score__min__energy>  (38) 
-6.46

>  <m_primary>  (38) 
energy

$$$$
38:0
     RDKit          3D

 37 38  0  0  0  0  0  0  0  0999 V2000
   -3.4800   24.9310  -31.3130 H   0  0  0  0  0  0  0  0  0  0  0  0
   -4.2610   25.2050  -30.7670 O   0  0  0  0  0  0  0  0  0  0  0  0
   -5.3420   24.3820  -31.1250 C   0  0  1  0  0  0  0  0  0  0  0  0
   -5.9648   24.9247  -31.8513 H   0  0  0  0  0  0  0  0  0  0  0  0
   -4.8510   23.0990  -31.8120 C   0  0  0  0  0  0  0  0  0  0  0  0
   -4.2946   22.4888  -31.0853 H   0  0  0  0  0  0  0  0  0  0  0  0
   -4.1983   23.3724  -32.6541 H   0  0  0  0  0  0  0  0  0  0  0  0
   -6.0490   22.2840  -32.3500 C   0  0  0  0  0  0  0  0  0  0  0  0
   -6.4169   22.7962  -33.2513 H   0  0  0  0  0  0  0  0  0  0  0  0
   -5.6080   20.8980  -32.7600 C   0  0  0  0  0  0  0  0  0  0  0  0
   -4.5309   20.6890  -32.8382 H   0  0  0  0  0  0  0  0  0  0  0  0
   -6.4740   19.9140  -33.0320 C   0  0  0  0  0  0  0  0  0  0  0  0
   -7.5488   20.1463  -33.0021 H   0  0  0  0  0  0  0  0  0  0  0  0
   -6.0680   18.5300  -33.3710 C   0  0  0  0  0  0  0  0  0  0  0  0
   -6.2300   17.5210  -32.4060 C   0  0  0  0  0  0  0  0  0  0  0  0
   -6.6942   17.7623  -31.4384 H   0  0  0  0  0  0  0  0  0  0  0  0
   -5.8070   16.2140  -32.6640 C   0  0  0  0  0  0  0  0  0  0  0  0
   -5.9549   15.4302  -31.9065 H   0  0  0  0  0  0  0  0  0  0  0  0
   -5.1950   15.8990  -33.8850 C   0  0  0  0  0  0  0  0  0  0  0  0
   -4.7590   14.4920  -34.1720 C   0  0  0  0  0  0  0  0  0  0  0  0
   -4.5938   13.9588  -33.2242 H   0  0  0  0  0  0  0  0  0  0  0  0
   -5.5397   13.9771  -34.7511 H   0  0  0  0  0  0  0  0  0  0  0  0
   -3.8239   14.5088  -34.7511 H   0  0  0  0  0  0  0  0  0  0  0  0
   -5.0400   16.8970  -34.8570 C   0  0  0  0  0  0  0  0  0  0  0  0
   -4.5829   16.6500  -35.8266 H   0  0  0  0  0  0  0  0  0  0  0  0
   -5.4630   18.2040  -34.6010 C   0  0  0  0  0  0  0  0  0  0  0  0
   -5.3228   18.9833  -35.3646 H   0  0  0  0  0  0  0  0  0  0  0  0
   -7.2650   22.2700  -31.3760 C   0  0  0  0  0  0  0  0  0  0  0  0
   -7.6884   21.2549  -31.3573 H   0  0  0  0  0  0  0  0  0  0  0  0
   -7.9918   23.0092  -31.7438 H   0  0  0  0  0  0  0  0  0  0  0  0
   -6.8840   22.6710  -29.9370 C   0  0  2  0  0  0  0  0  0  0  0  0
   -6.1558   21.9316  -29.5724 H   0  0  0  0  0  0  0  0  0  0  0  0
   -8.0200   22.6660  -29.1100 O   0  0  0  0  0  0  0  0  0  0  0  0
   -7.9500   23.4590  -28.5110 H   0  0  0  0  0  0  0  0  0  0  0  0
   -6.2290   24.0710  -29.8930 C   0  0  0  0  0  0  0  0  0  0  0  0
   -5.6039   24.1338  -28.9901 H   0  0  0  0  0  0  0  0  0  0  0  0
   -7.0454   24.8082  -29.8900 H   0  0  0  0  0  0  0  0  0  0  0  0
  1  2  1  0
  2  3  1  0
  3  4  1  6
  3  5  1  0
  5  6  1  0
  5  7  1  0
  5  8  1  0
  8  9  1  0
  8 10  1  0
 10 11  1  0
 10 12  2  0
 12 13  1  0
 12 14  1  0
 14 15  2  0
 15 16  1  0
 15 17  1  0
 17 18  1  0
 17 19  2  0
 19 20  1  0
 20 21  1  0
 20 22  1  0
 20 23  1  0
 19 24  1  0
 24 25  1  0
 24 26  2  0
 26 27  1  0
  8 28  1  0
 28 29  1  0
 28 30  1  0
 28 31  1  0
 31 32  1  1
 31 33  1  0
 33 34  1  0
 31 35  1  0
 35 36  1  0
 35 37  1  0
 35  3  1  0
 26 14  1  0
M  END
>  <UniqueID>  (39) 
35

>  <SMILES>  (39) 
Cc1ccc(/C=C/C2C[C@H](O)C[C@@H](O)C2)cc1

>  <Energy>  (39) 
40.9855821265191

>  <Genealogy>  (39) 
Cc1ccc(C=CC2C[C@H](O)C[C@@H](O)C2)cc1 (chirality)
Cc1ccc(/C=C/C2C[C@H](O)C[C@@H](O)C2)cc1 (cis-trans isomerization)
Cc1ccc(/C=C/C2C[C@H](O)C[C@@H](O)C2)cc1 (3D coordinates assigned)
Cc1ccc(/C=C/C2C[C@H](O)C[C@@H](O)C2)cc1 (nonaromatic ring conformer: 40.9855821265191 kcal/mol)

>  <smiles>  (39) 
Cc1ccc(C=CC2CC(O)CC(O)C2)cc1

>  <score_type>  (39) 
oracle

>  <origin>  (39) 
adgpu

>  <m_score__min__energy>  (39) 
-7.4400000000000004

>  <m_primary>  (39) 
energy

$$$$
39:0
     RDKit          3D

 44 47  0  0  0  0  0  0  0  0999 V2000
   -7.1700   23.3860  -32.1930 C   0  0  0  0  0  0  0  0  0  0  0  0
   -5.9940   23.2260  -31.2700 C   0  0  0  0  0  0  0  0  0  0  0  0
   -6.0550   23.7550  -29.9700 C   0  0  0  0  0  0  0  0  0  0  0  0
   -4.9760   23.6110  -29.0950 C   0  0  0  0  0  0  0  0  0  0  0  0
   -3.8220   22.9500  -29.5100 C   0  0  0  0  0  0  0  0  0  0  0  0
   -3.7410   22.4290  -30.8030 C   0  0  0  0  0  0  0  0  0  0  0  0
   -4.8260   22.5480  -31.6910 C   0  0  0  0  0  0  0  0  0  0  0  0
   -4.7370   22.0000  -33.0170 N   0  0  0  0  0  0  0  0  0  0  0  0
   -4.2110   20.6950  -33.3010 C   0  0  0  0  0  0  0  0  0  0  0  0
   -2.6420   20.4300  -33.8330 S   0  0  0  0  0  0  0  0  0  0  0  0
   -2.8170   18.7580  -33.8710 C   0  0  0  0  0  0  0  0  0  0  0  0
   -4.1210   18.4430  -33.4880 C   0  0  0  0  0  0  0  0  0  0  0  0
   -4.6090   17.0450  -33.4850 C   0  0  0  0  0  0  0  0  0  0  0  0
   -5.7620   16.6850  -34.2050 C   0  0  0  0  0  0  0  0  0  0  0  0
   -6.2140   15.3630  -34.1970 C   0  0  0  0  0  0  0  0  0  0  0  0
   -5.5150   14.3870  -33.4810 C   0  0  0  0  0  0  0  0  0  0  0  0
   -4.3590   14.7340  -32.7750 C   0  0  0  0  0  0  0  0  0  0  0  0
   -3.9040   16.0550  -32.7810 C   0  0  0  0  0  0  0  0  0  0  0  0
   -4.8990   19.5290  -33.1700 N   0  0  0  0  0  0  0  0  0  0  0  0
   -6.2770   19.4480  -32.7610 C   0  0  0  0  0  0  0  0  0  0  0  0
   -7.2680   20.1540  -33.4640 C   0  0  0  0  0  0  0  0  0  0  0  0
   -8.6090   20.0500  -33.0840 C   0  0  0  0  0  0  0  0  0  0  0  0
   -8.9680   19.2450  -31.9990 C   0  0  0  0  0  0  0  0  0  0  0  0
   -7.9870   18.5460  -31.2890 C   0  0  0  0  0  0  0  0  0  0  0  0
   -6.6450   18.6500  -31.6660 C   0  0  0  0  0  0  0  0  0  0  0  0
   -8.0877   23.5109  -31.5994 H   0  0  0  0  0  0  0  0  0  0  0  0
   -7.0203   24.2721  -32.8274 H   0  0  0  0  0  0  0  0  0  0  0  0
   -7.2625   22.4922  -32.8274 H   0  0  0  0  0  0  0  0  0  0  0  0
   -6.9593   24.2866  -29.6388 H   0  0  0  0  0  0  0  0  0  0  0  0
   -5.0375   24.0204  -28.0759 H   0  0  0  0  0  0  0  0  0  0  0  0
   -2.9739   22.8384  -28.8185 H   0  0  0  0  0  0  0  0  0  0  0  0
   -2.8215   21.9214  -31.1300 H   0  0  0  0  0  0  0  0  0  0  0  0
   -4.9520   22.6200  -33.8300 H   0  0  0  0  0  0  0  0  0  0  0  0
   -2.0361   18.0354  -34.1504 H   0  0  0  0  0  0  0  0  0  0  0  0
   -6.3106   17.4477  -34.7771 H   0  0  0  0  0  0  0  0  0  0  0  0
   -7.1216   15.0897  -34.7552 H   0  0  0  0  0  0  0  0  0  0  0  0
   -5.8739   13.3472  -33.4729 H   0  0  0  0  0  0  0  0  0  0  0  0
   -3.8069   13.9656  -32.2139 H   0  0  0  0  0  0  0  0  0  0  0  0
   -2.9889   16.3211  -32.2315 H   0  0  0  0  0  0  0  0  0  0  0  0
   -6.9874   20.7905  -34.3161 H   0  0  0  0  0  0  0  0  0  0  0  0
   -9.3821   20.6017  -33.6389 H   0  0  0  0  0  0  0  0  0  0  0  0
  -10.0242   19.1613  -31.7032 H   0  0  0  0  0  0  0  0  0  0  0  0
   -8.2712   17.9146  -30.4342 H   0  0  0  0  0  0  0  0  0  0  0  0
   -5.8739   18.1043  -31.1024 H   0  0  0  0  0  0  0  0  0  0  0  0
  1  2  1  0
  2  3  2  0
  3  4  1  0
  4  5  2  0
  5  6  1  0
  6  7  2  0
  7  8  1  0
  8  9  1  0
  9 10  1  0
 10 11  1  0
 11 12  2  0
 12 13  1  0
 13 14  2  0
 14 15  1  0
 15 16  2  0
 16 17  1  0
 17 18  2  0
 12 19  1  0
 19 20  1  0
 20 21  2  0
 21 22  1  0
 22 23  2  0
 23 24  1  0
 24 25  2  0
  7  2  1  0
 19  9  2  0
 25 20  1  0
 18 13  1  0
  1 26  1  0
  1 27  1  0
  1 28  1  0
  3 29  1  0
  4 30  1  0
  5 31  1  0
  6 32  1  0
  8 33  1  0
 11 34  1  0
 14 35  1  0
 15 36  1  0
 16 37  1  0
 17 38  1  0
 18 39  1  0
 21 40  1  0
 22 41  1  0
 23 42  1  0
 24 43  1  0
 25 44  1  0
M  CHG  1  19   1
M  END
>  <UniqueID>  (40) 
36

>  <SMILES>  (40) 
Cc1ccccc1Nc1scc(-c2ccccc2)[n+]1-c1ccccc1

>  <Energy>  (40) 
93.73962303906588

>  <Genealogy>  (40) 
Cc1ccccc1Nc1scc(-c2ccccc2)[n+]1-c1ccccc1 (3D coordinates assigned)
Cc1ccccc1Nc1scc(-c2ccccc2)[n+]1-c1ccccc1 (optimized conformer: 93.73962303906588 kcal/mol)

>  <smiles>  (40) 
Cc1ccccc1Nc1scc(-c2ccccc2)[n+]1-c1ccccc1

>  <score_type>  (40) 
oracle

>  <origin>  (40) 
adgpu

>  <m_score__min__energy>  (40) 
-8.4399999999999995

>  <m_primary>  (40) 
energy

$$$$
40:0
     RDKit          3D

 23 24  0  0  0  0  0  0  0  0999 V2000
   -8.2613   16.7733  -32.0458 H   0  0  0  0  0  0  0  0  0  0  0  0
   -7.9360   17.8140  -32.1910 C   0  0  0  0  0  0  0  0  0  0  0  0
   -8.8230   18.8640  -31.9420 C   0  0  0  0  0  0  0  0  0  0  0  0
   -9.8490   18.6477  -31.6095 H   0  0  0  0  0  0  0  0  0  0  0  0
   -8.4110   20.1890  -32.1140 C   0  0  0  0  0  0  0  0  0  0  0  0
   -9.5520   21.4870  -31.7900 Cl  0  0  0  0  0  0  0  0  0  0  0  0
   -7.0940   20.4730  -32.5200 C   0  0  0  0  0  0  0  0  0  0  0  0
   -6.6960   21.8400  -32.6950 N   0  0  0  0  0  0  0  0  0  0  0  0
   -6.5030   22.6690  -31.7140 C   0  0  0  0  0  0  0  0  0  0  0  0
   -6.6920   22.3870  -30.4450 O   0  0  0  0  0  0  0  0  0  0  0  0
   -6.4290   23.4320  -29.7190 N   0  0  0  0  0  0  0  0  0  0  0  0
   -6.5120   23.4760  -28.6790 H   0  0  0  0  0  0  0  0  0  0  0  0
   -6.0500   24.4270  -30.5450 C   0  0  0  0  0  0  0  0  0  0  0  0
   -5.7380   25.8190  -30.1030 C   0  0  0  0  0  0  0  0  0  0  0  0
   -5.7285   25.8613  -29.0039 H   0  0  0  0  0  0  0  0  0  0  0  0
   -4.7514   26.1141  -30.4898 H   0  0  0  0  0  0  0  0  0  0  0  0
   -6.5042   26.5070  -30.4898 H   0  0  0  0  0  0  0  0  0  0  0  0
   -6.0980   23.9790  -31.8520 C   0  0  0  0  0  0  0  0  0  0  0  0
   -5.8692   24.5321  -32.7749 H   0  0  0  0  0  0  0  0  0  0  0  0
   -6.2100   19.4060  -32.8000 C   0  0  0  0  0  0  0  0  0  0  0  0
   -4.5970   19.6860  -33.4430 Cl  0  0  0  0  0  0  0  0  0  0  0  0
   -6.6370   18.0850  -32.6240 C   0  0  0  0  0  0  0  0  0  0  0  0
   -5.9446   17.2550  -32.8282 H   0  0  0  0  0  0  0  0  0  0  0  0
  1  2  1  0
  2  3  2  0
  3  4  1  0
  3  5  1  0
  5  6  1  0
  5  7  2  0
  7  8  1  0
  8  9  2  0
  9 10  1  0
 10 11  1  0
 11 12  1  0
 11 13  1  0
 13 14  1  0
 14 15  1  0
 14 16  1  0
 14 17  1  0
 13 18  2  0
 18 19  1  0
  7 20  1  0
 20 21  1  0
 20 22  2  0
 22 23  1  0
 22  2  1  0
 18  9  1  0
M  END
>  <UniqueID>  (41) 
37

>  <SMILES>  (41) 
Cc1c/c(=N/c2c(Cl)cccc2Cl)o[nH]1

>  <Energy>  (41) 
62.33310401938824

>  <Genealogy>  (41) 
Cc1c/c(=N/c2c(Cl)cccc2Cl)o[nH]1 (cis-trans isomerization)
Cc1c/c(=N/c2c(Cl)cccc2Cl)o[nH]1 (3D coordinates assigned)
Cc1c/c(=N/c2c(Cl)cccc2Cl)o[nH]1 (optimized conformer: 62.33310401938824 kcal/mol)

>  <smiles>  (41) 
Cc1cc(=Nc2c(Cl)cccc2Cl)o[nH]1

>  <score_type>  (41) 
oracle

>  <origin>  (41) 
adgpu

>  <m_score__min__energy>  (41) 
-6.8600000000000003

>  <m_primary>  (41) 
energy

$$$$
41:0
     RDKit          3D

 27 28  0  0  0  0  0  0  0  0999 V2000
   -3.7050   25.2670  -30.0030 N   0  0  0  0  0  0  0  0  0  0  0  0
   -4.8330   24.4470  -30.3170 C   0  0  0  0  0  0  0  0  0  0  0  0
   -4.6980   23.0530  -30.3800 C   0  0  0  0  0  0  0  0  0  0  0  0
   -5.8010   22.2510  -30.6870 C   0  0  0  0  0  0  0  0  0  0  0  0
   -7.0520   22.8360  -30.9280 C   0  0  0  0  0  0  0  0  0  0  0  0
   -8.4340   21.8290  -31.3390 S   0  0  0  0  0  0  0  0  0  0  0  0
   -9.3310   22.5560  -32.3020 O   0  0  0  0  0  0  0  0  0  0  0  0
   -9.2310   21.5210  -30.1010 O   0  0  0  0  0  0  0  0  0  0  0  0
   -7.8590   20.3340  -32.0680 C   0  0  0  0  0  0  0  0  0  0  0  0
   -8.3290   19.0970  -31.6050 C   0  0  0  0  0  0  0  0  0  0  0  0
   -7.8570   17.9100  -32.1720 C   0  0  0  0  0  0  0  0  0  0  0  0
   -6.9090   17.9520  -33.1980 C   0  0  0  0  0  0  0  0  0  0  0  0
   -6.4300   19.1830  -33.6570 C   0  0  0  0  0  0  0  0  0  0  0  0
   -6.9020   20.3730  -33.0920 C   0  0  0  0  0  0  0  0  0  0  0  0
   -7.1870   24.2300  -30.8740 C   0  0  0  0  0  0  0  0  0  0  0  0
   -6.0830   25.0320  -30.5670 C   0  0  0  0  0  0  0  0  0  0  0  0
   -3.1160   25.6780  -30.7610 H   0  0  0  0  0  0  0  0  0  0  0  0
   -3.4510   25.4680  -29.0100 H   0  0  0  0  0  0  0  0  0  0  0  0
   -3.7198   22.5883  -30.1870 H   0  0  0  0  0  0  0  0  0  0  0  0
   -5.6871   21.1582  -30.7396 H   0  0  0  0  0  0  0  0  0  0  0  0
   -9.0709   19.0606  -30.7937 H   0  0  0  0  0  0  0  0  0  0  0  0
   -8.2322   16.9413  -31.8102 H   0  0  0  0  0  0  0  0  0  0  0  0
   -6.5397   17.0169  -33.6444 H   0  0  0  0  0  0  0  0  0  0  0  0
   -5.6818   19.2159  -34.4626 H   0  0  0  0  0  0  0  0  0  0  0  0
   -6.5217   21.3404  -33.4517 H   0  0  0  0  0  0  0  0  0  0  0  0
   -8.1639   24.6946  -31.0736 H   0  0  0  0  0  0  0  0  0  0  0  0
   -6.1955   26.1253  -30.5215 H   0  0  0  0  0  0  0  0  0  0  0  0
  1  2  1  0
  2  3  2  0
  3  4  1  0
  4  5  2  0
  5  6  1  0
  6  7  2  0
  6  8  2  0
  6  9  1  0
  9 10  2  0
 10 11  1  0
 11 12  2  0
 12 13  1  0
 13 14  2  0
  5 15  1  0
 15 16  2  0
 16  2  1  0
 14  9  1  0
  1 17  1  0
  1 18  1  0
  3 19  1  0
  4 20  1  0
 10 21  1  0
 11 22  1  0
 12 23  1  0
 13 24  1  0
 14 25  1  0
 15 26  1  0
 16 27  1  0
M  END
>  <UniqueID>  (42) 
38

>  <SMILES>  (42) 
Nc1ccc(S(=O)(=O)c2ccccc2)cc1

>  <Energy>  (42) 
28.62701201340894

>  <Genealogy>  (42) 
Nc1ccc(S(=O)(=O)c2ccccc2)cc1 (3D coordinates assigned)
Nc1ccc(S(=O)(=O)c2ccccc2)cc1 (optimized conformer: 28.62701201340894 kcal/mol)

>  <smiles>  (42) 
Nc1ccc(S(=O)(=O)c2ccccc2)cc1

>  <score_type>  (42) 
oracle

>  <origin>  (42) 
adgpu

>  <m_score__min__energy>  (42) 
-8.0600000000000005

>  <m_primary>  (42) 
energy

$$$$
42:0
     RDKit          3D

 24 24  0  0  0  0  0  0  0  0999 V2000
   -2.2360   22.7340  -31.1210 O   0  0  0  0  0  0  0  0  0  0  0  0
   -3.0090   22.9590  -30.1530 C   0  0  0  0  0  0  0  0  0  0  0  0
   -2.4880   22.8750  -28.8190 N   0  0  0  0  0  0  0  0  0  0  0  0
   -1.1170   23.1780  -28.4190 C   0  0  0  0  0  0  0  0  0  0  0  0
   -0.9340   24.6830  -28.2110 C   0  0  0  0  0  0  0  0  0  0  0  0
   -1.5620   25.3940  -29.2420 O   0  0  0  0  0  0  0  0  0  0  0  0
   -4.4190   23.3050  -30.4260 C   0  0  0  0  0  0  0  0  0  0  0  0
   -5.3790   22.2900  -30.5630 C   0  0  0  0  0  0  0  0  0  0  0  0
   -6.7230   22.6030  -30.8330 C   0  0  0  0  0  0  0  0  0  0  0  0
   -7.7030   21.5550  -30.9620 N   0  0  0  0  0  0  0  0  0  0  0  0
   -8.8280   21.6680  -30.4320 O   0  0  0  0  0  0  0  0  0  0  0  0
   -7.4150   20.4100  -31.6670 O   0  0  0  0  0  0  0  0  0  0  0  0
   -7.0930   23.9510  -30.9820 C   0  0  0  0  0  0  0  0  0  0  0  0
   -6.1370   24.9630  -30.8660 C   0  0  0  0  0  0  0  0  0  0  0  0
   -4.8040   24.6470  -30.5930 C   0  0  0  0  0  0  0  0  0  0  0  0
   -3.8710   25.6720  -30.4760 O   0  0  0  0  0  0  0  0  0  0  0  0
   -0.8909   22.6535  -27.4789 H   0  0  0  0  0  0  0  0  0  0  0  0
   -0.4348   22.8456  -29.2153 H   0  0  0  0  0  0  0  0  0  0  0  0
   -1.3775   24.9731  -27.2471 H   0  0  0  0  0  0  0  0  0  0  0  0
    0.1406   24.9179  -28.2160 H   0  0  0  0  0  0  0  0  0  0  0  0
   -1.9960   24.7200  -29.8280 H   0  0  0  0  0  0  0  0  0  0  0  0
   -5.0764   21.2377  -30.4579 H   0  0  0  0  0  0  0  0  0  0  0  0
   -8.1413   24.2104  -31.1911 H   0  0  0  0  0  0  0  0  0  0  0  0
   -6.4355   26.0144  -30.9903 H   0  0  0  0  0  0  0  0  0  0  0  0
  1  2  2  0
  2  3  1  0
  3  4  1  0
  4  5  1  0
  5  6  1  0
  2  7  1  0
  7  8  2  0
  8  9  1  0
  9 10  1  0
 10 11  2  0
 10 12  1  0
  9 13  2  0
 13 14  1  0
 14 15  2  0
 15 16  1  0
 15  7  1  0
  4 17  1  0
  4 18  1  0
  5 19  1  0
  5 20  1  0
  6 21  1  0
  8 22  1  0
 13 23  1  0
 14 24  1  0
M  CHG  4   3  -1  10   1  12  -1  16  -1
M  END
>  <UniqueID>  (43) 
39

>  <SMILES>  (43) 
O=C([N-]CCO)c1cc([N+](=O)[O-])ccc1[O-]

>  <Energy>  (43) 
26.001994850664296

>  <Genealogy>  (43) 
O=C([N-]CCO)c1cc([N+](=O)[O-])ccc1[O-] (protonated)
O=C([N-]CCO)c1cc([N+](=O)[O-])ccc1[O-] (3D coordinates assigned)
O=C([N-]CCO)c1cc([N+](=O)[O-])ccc1[O-] (optimized conformer: 26.001994850664296 kcal/mol)

>  <smiles>  (43) 
O=C(NCCO)c1cc([N+](=O)[O-])ccc1O

>  <score_type>  (43) 
oracle

>  <origin>  (43) 
adgpu

>  <m_score__min__energy>  (43) 
-9.5999999999999996

>  <m_primary>  (43) 
energy

$$$$
43:0
     RDKit          3D

 29 30  0  0  0  0  0  0  0  0999 V2000
   -9.0920   20.6210  -32.3290 C   0  0  0  0  0  0  0  0  0  0  0  0
   -8.0040   21.4640  -31.7340 C   0  0  0  0  0  0  0  0  0  0  0  0
   -6.7950   21.6450  -32.4200 C   0  0  0  0  0  0  0  0  0  0  0  0
   -5.7930   22.4590  -31.8840 C   0  0  0  0  0  0  0  0  0  0  0  0
   -5.9860   23.1160  -30.6550 C   0  0  0  0  0  0  0  0  0  0  0  0
   -4.9340   23.9880  -30.0810 C   0  0  0  0  0  0  0  0  0  0  0  0
   -4.2580   24.7300  -30.8450 O   0  0  0  0  0  0  0  0  0  0  0  0
   -4.7080   24.0340  -28.6620 N   0  0  0  0  0  0  0  0  0  0  0  0
   -3.4910   24.5170  -28.0650 C   0  0  0  0  0  0  0  0  0  0  0  0
   -2.2850   24.5460  -28.7910 C   0  0  0  0  0  0  0  0  0  0  0  0
   -1.1070   24.9970  -28.1870 C   0  0  0  0  0  0  0  0  0  0  0  0
   -1.1180   25.4130  -26.8540 C   0  0  0  0  0  0  0  0  0  0  0  0
   -2.3050   25.3710  -26.1190 C   0  0  0  0  0  0  0  0  0  0  0  0
   -3.4860   24.9200  -26.7170 C   0  0  0  0  0  0  0  0  0  0  0  0
   -4.6300   24.8900  -25.9870 F   0  0  0  0  0  0  0  0  0  0  0  0
   -7.2140   22.9540  -29.9860 C   0  0  0  0  0  0  0  0  0  0  0  0
   -8.2140   22.1380  -30.5230 C   0  0  0  0  0  0  0  0  0  0  0  0
   -9.6833   20.1628  -31.5225 H   0  0  0  0  0  0  0  0  0  0  0  0
   -9.7455   21.2509  -32.9505 H   0  0  0  0  0  0  0  0  0  0  0  0
   -8.6453   19.8309  -32.9505 H   0  0  0  0  0  0  0  0  0  0  0  0
   -6.6339   21.1436  -33.3857 H   0  0  0  0  0  0  0  0  0  0  0  0
   -4.8454   22.5870  -32.4278 H   0  0  0  0  0  0  0  0  0  0  0  0
   -5.5070   23.8040  -28.0310 H   0  0  0  0  0  0  0  0  0  0  0  0
   -2.2692   24.2121  -29.8390 H   0  0  0  0  0  0  0  0  0  0  0  0
   -0.1702   25.0241  -28.7629 H   0  0  0  0  0  0  0  0  0  0  0  0
   -0.1918   25.7738  -26.3828 H   0  0  0  0  0  0  0  0  0  0  0  0
   -2.3109   25.6934  -25.0673 H   0  0  0  0  0  0  0  0  0  0  0  0
   -7.3882   23.4740  -29.0325 H   0  0  0  0  0  0  0  0  0  0  0  0
   -9.1708   22.0242  -29.9924 H   0  0  0  0  0  0  0  0  0  0  0  0
  1  2  1  0
  2  3  2  0
  3  4  1  0
  4  5  2  0
  5  6  1  0
  6  7  2  0
  6  8  1  0
  8  9  1  0
  9 10  2  0
 10 11  1  0
 11 12  2  0
 12 13  1  0
 13 14  2  0
 14 15  1  0
  5 16  1  0
 16 17  2  0
 17  2  1  0
 14  9  1  0
  1 18  1  0
  1 19  1  0
  1 20  1  0
  3 21  1  0
  4 22  1  0
  8 23  1  0
 10 24  1  0
 11 25  1  0
 12 26  1  0
 13 27  1  0
 16 28  1  0
 17 29  1  0
M  END
>  <UniqueID>  (44) 
40

>  <SMILES>  (44) 
Cc1ccc(C(=O)Nc2ccccc2F)cc1

>  <Energy>  (44) 
34.79581467206208

>  <Genealogy>  (44) 
Cc1ccc(C(=O)Nc2ccccc2F)cc1 (3D coordinates assigned)
Cc1ccc(C(=O)Nc2ccccc2F)cc1 (optimized conformer: 34.79581467206208 kcal/mol)

>  <smiles>  (44) 
Cc1ccc(C(=O)Nc2ccccc2F)cc1

>  <score_type>  (44) 
oracle

>  <origin>  (44) 
adgpu

>  <m_score__min__energy>  (44) 
-7.1699999999999999

>  <m_primary>  (44) 
energy

$$$$
44:0
     RDKit          3D

 28 30  0  0  0  0  0  0  0  0999 V2000
   -2.5290   22.0530  -31.2290 H   0  0  0  0  0  0  0  0  0  0  0  0
   -2.6980   23.0330  -30.9200 N   0  0  0  0  0  0  0  0  0  0  0  0
   -3.8440   23.6410  -30.8900 C   0  0  0  0  0  0  0  0  0  0  0  0
   -3.8610   24.9310  -30.4550 N   0  0  0  0  0  0  0  0  0  0  0  0
   -4.9970   25.6680  -30.3850 C   0  0  0  0  0  0  0  0  0  0  0  0
   -4.9556   26.7071  -30.0264 H   0  0  0  0  0  0  0  0  0  0  0  0
   -6.2130   25.1140  -30.7650 C   0  0  0  0  0  0  0  0  0  0  0  0
   -7.1348   25.7116  -30.7094 H   0  0  0  0  0  0  0  0  0  0  0  0
   -6.2580   23.7910  -31.2190 C   0  0  0  0  0  0  0  0  0  0  0  0
   -7.4830   23.2290  -31.6020 C   0  0  0  0  0  0  0  0  0  0  0  0
   -8.4019   23.8309  -31.5446 H   0  0  0  0  0  0  0  0  0  0  0  0
   -7.5450   21.9130  -32.0550 C   0  0  0  0  0  0  0  0  0  0  0  0
   -8.5129   21.4837  -32.3531 H   0  0  0  0  0  0  0  0  0  0  0  0
   -6.3830   21.1310  -32.1340 C   0  0  0  0  0  0  0  0  0  0  0  0
   -6.4580   19.7280  -32.6190 C   0  0  0  0  0  0  0  0  0  0  0  0
   -5.8150   19.3480  -33.8120 C   0  0  0  0  0  0  0  0  0  0  0  0
   -5.2510   20.0943  -34.3908 H   0  0  0  0  0  0  0  0  0  0  0  0
   -5.8890   18.0270  -34.2660 C   0  0  0  0  0  0  0  0  0  0  0  0
   -5.3846   17.7387  -35.2000 H   0  0  0  0  0  0  0  0  0  0  0  0
   -6.6020   17.0730  -33.5360 C   0  0  0  0  0  0  0  0  0  0  0  0
   -6.6577   16.0345  -33.8942 H   0  0  0  0  0  0  0  0  0  0  0  0
   -7.2440   17.4390  -32.3510 C   0  0  0  0  0  0  0  0  0  0  0  0
   -7.8057   16.6873  -31.7770 H   0  0  0  0  0  0  0  0  0  0  0  0
   -7.1750   18.7580  -31.8920 C   0  0  0  0  0  0  0  0  0  0  0  0
   -7.6835   19.0395  -30.9581 H   0  0  0  0  0  0  0  0  0  0  0  0
   -5.1510   21.6880  -31.7490 C   0  0  0  0  0  0  0  0  0  0  0  0
   -4.2390   21.0755  -31.8057 H   0  0  0  0  0  0  0  0  0  0  0  0
   -5.0650   23.0230  -31.2900 C   0  0  0  0  0  0  0  0  0  0  0  0
  1  2  1  0
  2  3  2  0
  3  4  1  0
  4  5  1  0
  5  6  1  0
  5  7  2  0
  7  8  1  0
  7  9  1  0
  9 10  2  0
 10 11  1  0
 10 12  1  0
 12 13  1  0
 12 14  2  0
 14 15  1  0
 15 16  2  0
 16 17  1  0
 16 18  1  0
 18 19  1  0
 18 20  2  0
 20 21  1  0
 20 22  1  0
 22 23  1  0
 22 24  2  0
 24 25  1  0
 14 26  1  0
 26 27  1  0
 26 28  2  0
 28  3  1  0
 28  9  1  0
 24 15  1  0
M  CHG  1   4  -1
M  END
>  <UniqueID>  (45) 
41

>  <SMILES>  (45) 
[H]/N=c1/[n-]ccc2ccc(-c3ccccc3)cc12

>  <Energy>  (45) 
44.900747735967414

>  <Genealogy>  (45) 
N=c1[n-]ccc2ccc(-c3ccccc3)cc12 (protonated)
[H]/N=c1/[n-]ccc2ccc(-c3ccccc3)cc12 (cis-trans isomerization)
[H]/N=c1/[n-]ccc2ccc(-c3ccccc3)cc12 (3D coordinates assigned)
[H]/N=c1/[n-]ccc2ccc(-c3ccccc3)cc12 (optimized conformer: 44.900747735967414 kcal/mol)

>  <smiles>  (45) 
N=c1[nH]ccc2ccc(-c3ccccc3)cc12

>  <score_type>  (45) 
oracle

>  <origin>  (45) 
adgpu

>  <m_score__min__energy>  (45) 
-8.9600000000000009

>  <m_primary>  (45) 
energy

$$$$
45:0
     RDKit          3D

 32 34  0  0  0  0  0  0  0  0999 V2000
   -5.4426   25.0594  -29.7772 H   0  0  0  0  0  0  0  0  0  0  0  0
   -5.3220   23.9660  -29.7730 C   0  0  0  0  0  0  0  0  0  0  0  0
   -4.4760   23.4070  -28.9620 N   0  0  0  0  0  0  0  0  0  0  0  0
   -3.6350   24.0760  -28.0060 C   0  0  0  0  0  0  0  0  0  0  0  0
   -4.2400   24.6400  -26.8760 C   0  0  0  0  0  0  0  0  0  0  0  0
   -5.3284   24.5555  -26.7408 H   0  0  0  0  0  0  0  0  0  0  0  0
   -3.4730   25.3090  -25.9190 C   0  0  0  0  0  0  0  0  0  0  0  0
   -3.9597   25.7397  -25.0315 H   0  0  0  0  0  0  0  0  0  0  0  0
   -2.0910   25.4340  -26.0830 C   0  0  0  0  0  0  0  0  0  0  0  0
   -1.1590   26.2830  -24.8570 Cl  0  0  0  0  0  0  0  0  0  0  0  0
   -1.4730   24.8860  -27.2190 C   0  0  0  0  0  0  0  0  0  0  0  0
    0.2610   25.0350  -27.4720 Cl  0  0  0  0  0  0  0  0  0  0  0  0
   -2.2420   24.2150  -28.1780 C   0  0  0  0  0  0  0  0  0  0  0  0
   -1.7567   23.7938  -29.0708 H   0  0  0  0  0  0  0  0  0  0  0  0
   -6.1150   23.1360  -30.6820 C   0  0  0  0  0  0  0  0  0  0  0  0
   -5.8440   21.8820  -30.9640 O   0  0  0  0  0  0  0  0  0  0  0  0
   -6.7500   21.4360  -31.8060 C   0  0  0  0  0  0  0  0  0  0  0  0
   -6.7550   20.0540  -32.3430 C   0  0  0  0  0  0  0  0  0  0  0  0
   -7.7330   19.1460  -31.9070 C   0  0  0  0  0  0  0  0  0  0  0  0
   -8.4852   19.4663  -31.1710 H   0  0  0  0  0  0  0  0  0  0  0  0
   -7.7590   17.8390  -32.4000 C   0  0  0  0  0  0  0  0  0  0  0  0
   -8.5307   17.1373  -32.0506 H   0  0  0  0  0  0  0  0  0  0  0  0
   -6.8090   17.4190  -33.3350 C   0  0  0  0  0  0  0  0  0  0  0  0
   -6.8740   15.7660  -33.9310 Cl  0  0  0  0  0  0  0  0  0  0  0  0
   -5.8260   18.3170  -33.7810 C   0  0  0  0  0  0  0  0  0  0  0  0
   -4.6130   17.8290  -34.9570 Cl  0  0  0  0  0  0  0  0  0  0  0  0
   -5.8010   19.6270  -33.2860 C   0  0  0  0  0  0  0  0  0  0  0  0
   -5.0294   20.3280  -33.6370 H   0  0  0  0  0  0  0  0  0  0  0  0
   -7.6570   22.4470  -32.0890 C   0  0  0  0  0  0  0  0  0  0  0  0
   -8.5282   22.3866  -32.7579 H   0  0  0  0  0  0  0  0  0  0  0  0
   -7.2440   23.5430  -31.3610 C   0  0  0  0  0  0  0  0  0  0  0  0
   -7.7169   24.5356  -31.3287 H   0  0  0  0  0  0  0  0  0  0  0  0
  1  2  1  0
  2  3  2  0
  3  4  1  0
  4  5  2  0
  5  6  1  0
  5  7  1  0
  7  8  1  0
  7  9  2  0
  9 10  1  0
  9 11  1  0
 11 12  1  0
 11 13  2  0
 13 14  1  0
  2 15  1  0
 15 16  1  0
 16 17  1  0
 17 18  1  0
 18 19  2  0
 19 20  1  0
 19 21  1  0
 21 22  1  0
 21 23  2  0
 23 24  1  0
 23 25  1  0
 25 26  1  0
 25 27  2  0
 27 28  1  0
 17 29  2  0
 29 30  1  0
 29 31  1  0
 31 32  1  0
 13  4  1  0
 31 15  2  0
 27 18  1  0
M  END
>  <UniqueID>  (46) 
42

>  <SMILES>  (46) 
Clc1ccc(/N=C/c2ccc(-c3ccc(Cl)c(Cl)c3)o2)cc1Cl

>  <Energy>  (46) 
64.97105159848589

>  <Genealogy>  (46) 
Clc1ccc(/N=C/c2ccc(-c3ccc(Cl)c(Cl)c3)o2)cc1Cl (cis-trans isomerization)
Clc1ccc(/N=C/c2ccc(-c3ccc(Cl)c(Cl)c3)o2)cc1Cl (3D coordinates assigned)
Clc1ccc(/N=C/c2ccc(-c3ccc(Cl)c(Cl)c3)o2)cc1Cl (optimized conformer: 64.97105159848589 kcal/mol)

>  <smiles>  (46) 
Clc1ccc(N=Cc2ccc(-c3ccc(Cl)c(Cl)c3)o2)cc1Cl

>  <score_type>  (46) 
oracle

>  <origin>  (46) 
adgpu

>  <m_score__min__energy>  (46) 
-8.3300000000000001

>  <m_primary>  (46) 
energy

$$$$
46:0
     RDKit          3D

 25 26  0  0  0  0  0  0  0  0999 V2000
   -9.7397   22.7315  -31.9709 H   0  0  0  0  0  0  0  0  0  0  0  0
   -8.8260   22.1190  -31.9670 C   0  0  0  0  0  0  0  0  0  0  0  0
   -8.8980   20.9170  -32.4650 N   0  0  0  0  0  0  0  0  0  0  0  0
   -7.8090   20.0160  -32.7280 C   0  0  0  0  0  0  0  0  0  0  0  0
   -6.6850   20.4470  -33.4560 C   0  0  0  0  0  0  0  0  0  0  0  0
   -6.6245   21.4890  -33.8032 H   0  0  0  0  0  0  0  0  0  0  0  0
   -5.6460   19.5590  -33.7400 C   0  0  0  0  0  0  0  0  0  0  0  0
   -4.7618   19.9076  -34.2938 H   0  0  0  0  0  0  0  0  0  0  0  0
   -5.7270   18.2310  -33.3230 C   0  0  0  0  0  0  0  0  0  0  0  0
   -4.9029   17.5359  -33.5415 H   0  0  0  0  0  0  0  0  0  0  0  0
   -6.8530   17.7810  -32.6280 C   0  0  0  0  0  0  0  0  0  0  0  0
   -6.9154   16.7304  -32.3081 H   0  0  0  0  0  0  0  0  0  0  0  0
   -7.9060   18.6650  -32.3360 C   0  0  0  0  0  0  0  0  0  0  0  0
   -9.1130   18.1740  -31.5850 C   0  0  0  0  0  0  0  0  0  0  0  0
   -8.9276   18.2494  -30.5034 H   0  0  0  0  0  0  0  0  0  0  0  0
   -9.9855   18.7887  -31.8512 H   0  0  0  0  0  0  0  0  0  0  0  0
   -9.3087   17.1248  -31.8512 H   0  0  0  0  0  0  0  0  0  0  0  0
   -7.6010   22.7140  -31.3980 C   0  0  0  0  0  0  0  0  0  0  0  0
   -6.5450   23.6970  -32.2600 S   0  0  0  0  0  0  0  0  0  0  0  0
   -5.5290   24.0610  -30.9710 C   0  0  0  0  0  0  0  0  0  0  0  0
   -4.6276   24.6898  -31.0179 H   0  0  0  0  0  0  0  0  0  0  0  0
   -6.0240   23.4310  -29.8370 C   0  0  0  0  0  0  0  0  0  0  0  0
   -5.5456   23.5080  -28.8495 H   0  0  0  0  0  0  0  0  0  0  0  0
   -7.1880   22.6890  -30.0670 C   0  0  0  0  0  0  0  0  0  0  0  0
   -7.7230   22.1413  -29.2771 H   0  0  0  0  0  0  0  0  0  0  0  0
  1  2  1  0
  2  3  2  0
  3  4  1  0
  4  5  2  0
  5  6  1  0
  5  7  1  0
  7  8  1  0
  7  9  2  0
  9 10  1  0
  9 11  1  0
 11 12  1  0
 11 13  2  0
 13 14  1  0
 14 15  1  0
 14 16  1  0
 14 17  1  0
  2 18  1  0
 18 19  1  0
 19 20  1  0
 20 21  1  0
 20 22  2  0
 22 23  1  0
 22 24  1  0
 24 25  1  0
 13  4  1  0
 24 18  2  0
M  END
>  <UniqueID>  (47) 
43

>  <SMILES>  (47) 
Cc1ccccc1/N=C\c1cccs1

>  <Energy>  (47) 
61.0346068132862

>  <Genealogy>  (47) 
Cc1ccccc1/N=C\c1cccs1 (cis-trans isomerization)
Cc1ccccc1/N=C\c1cccs1 (3D coordinates assigned)
Cc1ccccc1/N=C\c1cccs1 (optimized conformer: 61.0346068132862 kcal/mol)

>  <smiles>  (47) 
Cc1ccccc1N=Cc1cccs1

>  <score_type>  (47) 
oracle

>  <origin>  (47) 
adgpu

>  <m_score__min__energy>  (47) 
-6.25

>  <m_primary>  (47) 
energy

$$$$
47:0
     RDKit          3D

 22 23  0  0  0  0  0  0  0  0999 V2000
   -9.1220   18.9220  -32.3460 C   0  0  0  0  0  0  0  0  0  0  0  0
   -8.3300   20.1610  -32.0480 C   0  0  0  0  0  0  0  0  0  0  0  0
   -8.8610   21.1560  -31.2160 C   0  0  0  0  0  0  0  0  0  0  0  0
   -8.1100   22.2940  -30.9080 C   0  0  0  0  0  0  0  0  0  0  0  0
   -6.8060   22.4510  -31.4150 C   0  0  0  0  0  0  0  0  0  0  0  0
   -6.0310   23.6240  -31.0980 N   0  0  0  0  0  0  0  0  0  0  0  0
   -6.4860   24.7980  -30.6170 C   0  0  0  0  0  0  0  0  0  0  0  0
   -5.4110   25.6420  -30.4590 C   0  0  0  0  0  0  0  0  0  0  0  0
   -4.2810   25.0090  -30.8330 N   0  0  0  0  0  0  0  0  0  0  0  0
   -4.6950   23.7840  -31.2180 C   0  0  0  0  0  0  0  0  0  0  0  0
   -6.2720   21.4390  -32.2350 C   0  0  0  0  0  0  0  0  0  0  0  0
   -7.0260   20.3020  -32.5420 C   0  0  0  0  0  0  0  0  0  0  0  0
   -9.4265   18.4457  -31.4024 H   0  0  0  0  0  0  0  0  0  0  0  0
  -10.0168   19.1897  -32.9270 H   0  0  0  0  0  0  0  0  0  0  0  0
   -8.5033   18.2223  -32.9270 H   0  0  0  0  0  0  0  0  0  0  0  0
   -9.8741   21.0408  -30.8032 H   0  0  0  0  0  0  0  0  0  0  0  0
   -8.5418   23.0740  -30.2636 H   0  0  0  0  0  0  0  0  0  0  0  0
   -7.5349   25.0395  -30.3901 H   0  0  0  0  0  0  0  0  0  0  0  0
   -5.4652   26.6750  -30.0848 H   0  0  0  0  0  0  0  0  0  0  0  0
   -4.0181   23.0005  -31.5893 H   0  0  0  0  0  0  0  0  0  0  0  0
   -5.2536   21.5434  -32.6374 H   0  0  0  0  0  0  0  0  0  0  0  0
   -6.5930   19.5135  -33.1751 H   0  0  0  0  0  0  0  0  0  0  0  0
  1  2  1  0
  2  3  2  0
  3  4  1  0
  4  5  2  0
  5  6  1  0
  6  7  1  0
  7  8  2  0
  8  9  1  0
  9 10  2  0
  5 11  1  0
 11 12  2  0
 12  2  1  0
 10  6  1  0
  1 13  1  0
  1 14  1  0
  1 15  1  0
  3 16  1  0
  4 17  1  0
  7 18  1  0
  8 19  1  0
 10 20  1  0
 11 21  1  0
 12 22  1  0
M  END
>  <UniqueID>  (48) 
44

>  <SMILES>  (48) 
Cc1ccc(-n2ccnc2)cc1

>  <Energy>  (48) 
54.18644144809228

>  <Genealogy>  (48) 
Cc1ccc(-n2ccnc2)cc1 (3D coordinates assigned)
Cc1ccc(-n2ccnc2)cc1 (optimized conformer: 54.18644144809228 kcal/mol)

>  <smiles>  (48) 
Cc1ccc(-n2ccnc2)cc1

>  <score_type>  (48) 
oracle

>  <origin>  (48) 
adgpu

>  <m_score__min__energy>  (48) 
-5.9199999999999999

>  <m_primary>  (48) 
energy

$$$$
48:0
     RDKit          3D

 31 32  0  0  0  0  0  0  0  0999 V2000
   -6.1230   25.6690  -29.7170 C   0  0  0  0  0  0  0  0  0  0  0  0
   -5.5040   24.6560  -30.6290 C   0  0  0  0  0  0  0  0  0  0  0  0
   -4.3010   24.8130  -30.9720 O   0  0  0  0  0  0  0  0  0  0  0  0
   -6.2500   23.4910  -31.1540 C   0  0  0  0  0  0  0  0  0  0  0  0
   -7.6310   23.4260  -31.2290 C   0  0  0  0  0  0  0  0  0  0  0  0
   -7.9420   22.1800  -31.7340 C   0  0  0  0  0  0  0  0  0  0  0  0
   -9.3370   21.6810  -31.9680 C   0  0  0  0  0  0  0  0  0  0  0  0
   -6.8140   21.4850  -31.9980 N   0  0  0  0  0  0  0  0  0  0  0  0
   -6.7420   20.1480  -32.5210 C   0  0  0  0  0  0  0  0  0  0  0  0
   -7.3070   19.0790  -31.8070 C   0  0  0  0  0  0  0  0  0  0  0  0
   -7.2410   17.7790  -32.3180 C   0  0  0  0  0  0  0  0  0  0  0  0
   -6.6130   17.5390  -33.5440 C   0  0  0  0  0  0  0  0  0  0  0  0
   -6.0480   18.5990  -34.2590 C   0  0  0  0  0  0  0  0  0  0  0  0
   -6.1120   19.9000  -33.7510 C   0  0  0  0  0  0  0  0  0  0  0  0
   -5.7700   22.2800  -31.6560 C   0  0  0  0  0  0  0  0  0  0  0  0
   -4.3270   21.9110  -31.8640 C   0  0  0  0  0  0  0  0  0  0  0  0
   -5.9452   25.3780  -28.6712 H   0  0  0  0  0  0  0  0  0  0  0  0
   -5.6729   26.6550  -29.9048 H   0  0  0  0  0  0  0  0  0  0  0  0
   -7.2057   25.7184  -29.9048 H   0  0  0  0  0  0  0  0  0  0  0  0
   -8.3422   24.2145  -30.9418 H   0  0  0  0  0  0  0  0  0  0  0  0
   -9.8304   21.5045  -31.0008 H   0  0  0  0  0  0  0  0  0  0  0  0
   -9.9043   22.4319  -32.5374 H   0  0  0  0  0  0  0  0  0  0  0  0
   -9.2993   20.7406  -32.5374 H   0  0  0  0  0  0  0  0  0  0  0  0
   -7.8030   19.2647  -30.8429 H   0  0  0  0  0  0  0  0  0  0  0  0
   -7.6837   16.9442  -31.7548 H   0  0  0  0  0  0  0  0  0  0  0  0
   -6.5636   16.5162  -33.9458 H   0  0  0  0  0  0  0  0  0  0  0  0
   -5.5524   18.4093  -35.2225 H   0  0  0  0  0  0  0  0  0  0  0  0
   -5.6673   20.7320  -34.3168 H   0  0  0  0  0  0  0  0  0  0  0  0
   -3.8362   21.7855  -30.8876 H   0  0  0  0  0  0  0  0  0  0  0  0
   -4.2672   20.9687  -32.4283 H   0  0  0  0  0  0  0  0  0  0  0  0
   -3.8221   22.7089  -32.4283 H   0  0  0  0  0  0  0  0  0  0  0  0
  1  2  1  0
  2  3  2  0
  2  4  1  0
  4  5  1  0
  5  6  2  0
  6  7  1  0
  6  8  1  0
  8  9  1  0
  9 10  2  0
 10 11  1  0
 11 12  2  0
 12 13  1  0
 13 14  2  0
  8 15  1  0
 15 16  1  0
 15  4  2  0
 14  9  1  0
  1 17  1  0
  1 18  1  0
  1 19  1  0
  5 20  1  0
  7 21  1  0
  7 22  1  0
  7 23  1  0
 10 24  1  0
 11 25  1  0
 12 26  1  0
 13 27  1  0
 14 28  1  0
 16 29  1  0
 16 30  1  0
 16 31  1  0
M  END
>  <UniqueID>  (49) 
45

>  <SMILES>  (49) 
CC(=O)c1cc(C)n(-c2ccccc2)c1C

>  <Energy>  (49) 
63.516541472868084

>  <Genealogy>  (49) 
CC(=O)c1cc(C)n(-c2ccccc2)c1C (3D coordinates assigned)
CC(=O)c1cc(C)n(-c2ccccc2)c1C (optimized conformer: 63.516541472868084 kcal/mol)

>  <smiles>  (49) 
CC(=O)c1cc(C)n(-c2ccccc2)c1C

>  <score_type>  (49) 
oracle

>  <origin>  (49) 
adgpu

>  <m_score__min__energy>  (49) 
-7.9800000000000004

>  <m_primary>  (49) 
energy

$$$$
49:0
     RDKit          3D

 31 32  0  0  0  0  0  0  0  0999 V2000
   -1.8960   24.9470  -28.1910 C   0  0  0  0  0  0  0  0  0  0  0  0
   -2.6670   25.2990  -29.3350 O   0  0  0  0  0  0  0  0  0  0  0  0
   -3.7060   24.5170  -29.8600 C   0  0  0  0  0  0  0  0  0  0  0  0
   -4.8030   25.0760  -30.5430 C   0  0  0  0  0  0  0  0  0  0  0  0
   -5.8120   24.2530  -31.0510 C   0  0  0  0  0  0  0  0  0  0  0  0
   -5.7330   22.8620  -30.8970 C   0  0  0  0  0  0  0  0  0  0  0  0
   -6.7990   21.9900  -31.4270 C   0  0  0  0  0  0  0  0  0  0  0  0
   -8.1110   22.1890  -30.9650 C   0  0  0  0  0  0  0  0  0  0  0  0
   -9.1600   21.4070  -31.4520 C   0  0  0  0  0  0  0  0  0  0  0  0
   -8.9100   20.4190  -32.4020 C   0  0  0  0  0  0  0  0  0  0  0  0
   -7.6090   20.1990  -32.8620 C   0  0  0  0  0  0  0  0  0  0  0  0
   -6.5400   20.9720  -32.3780 C   0  0  0  0  0  0  0  0  0  0  0  0
   -4.9010   20.6140  -32.9510 S   0  0  0  0  0  0  0  0  0  0  0  0
   -4.0950   22.0750  -33.4120 N   0  0  0  0  0  0  0  0  0  0  0  0
   -4.9640   19.6720  -34.1210 O   0  0  0  0  0  0  0  0  0  0  0  0
   -4.1080   19.9620  -31.8520 O   0  0  0  0  0  0  0  0  0  0  0  0
   -4.6510   22.3040  -30.2020 C   0  0  0  0  0  0  0  0  0  0  0  0
   -3.6430   23.1280  -29.6930 C   0  0  0  0  0  0  0  0  0  0  0  0
   -2.4555   25.2024  -27.2790 H   0  0  0  0  0  0  0  0  0  0  0  0
   -1.6914   23.8663  -28.2051 H   0  0  0  0  0  0  0  0  0  0  0  0
   -0.9454   25.5003  -28.2051 H   0  0  0  0  0  0  0  0  0  0  0  0
   -4.8663   26.1659  -30.6775 H   0  0  0  0  0  0  0  0  0  0  0  0
   -6.6713   24.6985  -31.5736 H   0  0  0  0  0  0  0  0  0  0  0  0
   -8.3131   22.9668  -30.2139 H   0  0  0  0  0  0  0  0  0  0  0  0
  -10.1841   21.5709  -31.0856 H   0  0  0  0  0  0  0  0  0  0  0  0
   -9.7394   19.8102  -32.7912 H   0  0  0  0  0  0  0  0  0  0  0  0
   -7.4201   19.4142  -33.6092 H   0  0  0  0  0  0  0  0  0  0  0  0
   -3.4820   21.8480  -34.2260 H   0  0  0  0  0  0  0  0  0  0  0  0
   -4.8220   22.7340  -33.7700 H   0  0  0  0  0  0  0  0  0  0  0  0
   -4.5950   21.2151  -30.0568 H   0  0  0  0  0  0  0  0  0  0  0  0
   -2.7928   22.6814  -29.1566 H   0  0  0  0  0  0  0  0  0  0  0  0
  1  2  1  0
  2  3  1  0
  3  4  2  0
  4  5  1  0
  5  6  2  0
  6  7  1  0
  7  8  2  0
  8  9  1  0
  9 10  2  0
 10 11  1  0
 11 12  2  0
 12 13  1  0
 13 14  1  0
 13 15  2  0
 13 16  2  0
  6 17  1  0
 17 18  2  0
 18  3  1  0
 12  7  1  0
  1 19  1  0
  1 20  1  0
  1 21  1  0
  4 22  1  0
  5 23  1  0
  8 24  1  0
  9 25  1  0
 10 26  1  0
 11 27  1  0
 14 28  1  0
 14 29  1  0
 17 30  1  0
 18 31  1  0
M  END
>  <UniqueID>  (50) 
46

>  <SMILES>  (50) 
COc1ccc(-c2ccccc2S(N)(=O)=O)cc1

>  <Energy>  (50) 
38.38613769783841

>  <Genealogy>  (50) 
COc1ccc(-c2ccccc2S(N)(=O)=O)cc1 (3D coordinates assigned)
COc1ccc(-c2ccccc2S(N)(=O)=O)cc1 (optimized conformer: 38.38613769783841 kcal/mol)

>  <smiles>  (50) 
COc1ccc(-c2ccccc2S(N)(=O)=O)cc1

>  <score_type>  (50) 
oracle

>  <origin>  (50) 
adgpu

>  <m_score__min__energy>  (50) 
-8.1300000000000008

>  <m_primary>  (50) 
energy

$$$$
