0:0
     RDKit          3D

 52 55  0  0  0  0  0  0  0  0999 V2000
   -5.6860   26.1300  -31.2160 O   0  0  0  0  0  0  0  0  0  0  0  0
   -5.2860   24.9430  -30.3840 S   0  0  0  0  0  0  0  0  0  0  0  0
   -5.7140   25.1910  -28.9650 O   0  0  0  0  0  0  0  0  0  0  0  0
   -3.5590   24.7820  -30.4310 N   0  0  0  0  0  0  0  0  0  0  0  0
   -2.8350   23.7590  -29.7390 C   0  0  0  0  0  0  0  0  0  0  0  0
   -2.1270   22.7750  -30.4450 C   0  0  0  0  0  0  0  0  0  0  0  0
   -1.4410   21.7560  -29.7710 C   0  0  0  0  0  0  0  0  0  0  0  0
   -1.4420   21.7340  -28.3570 C   0  0  0  0  0  0  0  0  0  0  0  0
   -2.1810   22.6980  -27.6550 C   0  0  0  0  0  0  0  0  0  0  0  0
   -2.8760   23.7020  -28.3340 C   0  0  0  0  0  0  0  0  0  0  0  0
   -3.5950   24.6420  -27.5920 O   0  0  0  0  0  0  0  0  0  0  0  0
   -0.7670   20.6250  -27.5840 C   0  0  0  0  0  0  0  0  0  0  0  0
    0.2790   19.8750  -28.4180 C   0  0  0  0  0  0  0  0  0  0  0  0
   -0.2980   19.5000  -29.7840 C   0  0  0  0  0  0  0  0  0  0  0  0
   -0.6430   20.7620  -30.5800 C   0  0  0  0  0  0  0  0  0  0  0  0
   -6.0880   23.4880  -30.9660 C   0  0  0  0  0  0  0  0  0  0  0  0
   -5.3730   22.2900  -31.1080 C   0  0  0  0  0  0  0  0  0  0  0  0
   -6.0320   21.1220  -31.5000 C   0  0  0  0  0  0  0  0  0  0  0  0
   -7.4130   21.1360  -31.7400 C   0  0  0  0  0  0  0  0  0  0  0  0
   -8.2470   19.6530  -32.2170 S   0  0  0  0  0  0  0  0  0  0  0  0
   -9.4340   20.0140  -33.0690 O   0  0  0  0  0  0  0  0  0  0  0  0
   -8.7550   18.9580  -30.9850 O   0  0  0  0  0  0  0  0  0  0  0  0
   -7.2230   18.5510  -33.1070 N   0  0  0  0  0  0  0  0  0  0  0  0
   -6.3900   17.7360  -32.2260 C   0  0  0  0  0  0  0  0  0  0  0  0
   -5.1950   17.2990  -33.0620 C   0  0  0  0  0  0  0  0  0  0  0  0
   -5.1240   18.2970  -34.2110 C   0  0  0  0  0  0  0  0  0  0  0  0
   -6.2870   19.2520  -33.9830 C   0  0  0  0  0  0  0  0  0  0  0  0
   -8.1230   22.3380  -31.6140 C   0  0  0  0  0  0  0  0  0  0  0  0
   -7.4630   23.5090  -31.2290 C   0  0  0  0  0  0  0  0  0  0  0  0
   -2.1101   22.8038  -31.5445 H   0  0  0  0  0  0  0  0  0  0  0  0
   -2.2137   22.6629  -26.5560 H   0  0  0  0  0  0  0  0  0  0  0  0
   -4.2290   25.3030  -28.0220 H   0  0  0  0  0  0  0  0  0  0  0  0
   -0.2698   21.0608  -26.7049 H   0  0  0  0  0  0  0  0  0  0  0  0
   -1.5431   19.9011  -27.2948 H   0  0  0  0  0  0  0  0  0  0  0  0
    1.1589   20.5195  -28.5607 H   0  0  0  0  0  0  0  0  0  0  0  0
    0.5664   18.9554  -27.8872 H   0  0  0  0  0  0  0  0  0  0  0  0
    0.4444   18.9106  -30.3421 H   0  0  0  0  0  0  0  0  0  0  0  0
   -1.2139   18.9091  -29.6355 H   0  0  0  0  0  0  0  0  0  0  0  0
    0.2925   21.2412  -30.9043 H   0  0  0  0  0  0  0  0  0  0  0  0
   -1.2601   20.4575  -31.4381 H   0  0  0  0  0  0  0  0  0  0  0  0
   -4.2911   22.2698  -30.9104 H   0  0  0  0  0  0  0  0  0  0  0  0
   -5.4646   20.1874  -31.6208 H   0  0  0  0  0  0  0  0  0  0  0  0
   -6.0553   18.3280  -31.3614 H   0  0  0  0  0  0  0  0  0  0  0  0
   -6.9450   16.8708  -31.8344 H   0  0  0  0  0  0  0  0  0  0  0  0
   -4.2726   17.3335  -32.4637 H   0  0  0  0  0  0  0  0  0  0  0  0
   -5.3015   16.2650  -33.4219 H   0  0  0  0  0  0  0  0  0  0  0  0
   -4.1683   18.8413  -34.1906 H   0  0  0  0  0  0  0  0  0  0  0  0
   -5.1857   17.8008  -35.1908 H   0  0  0  0  0  0  0  0  0  0  0  0
   -5.9333   20.1759  -33.5021 H   0  0  0  0  0  0  0  0  0  0  0  0
   -6.7633   19.5381  -34.9323 H   0  0  0  0  0  0  0  0  0  0  0  0
   -9.2035   22.3601  -31.8188 H   0  0  0  0  0  0  0  0  0  0  0  0
   -8.0256   24.4493  -31.1325 H   0  0  0  0  0  0  0  0  0  0  0  0
  1  2  2  0
  2  3  2  0
  2  4  1  0
  4  5  1  0
  5  6  2  0
  6  7  1  0
  7  8  2  0
  8  9  1  0
  9 10  2  0
 10 11  1  0
  8 12  1  0
 12 13  1  0
 13 14  1  0
 14 15  1  0
  2 16  1  0
 16 17  2  0
 17 18  1  0
 18 19  2  0
 19 20  1  0
 20 21  2  0
 20 22  2  0
 20 23  1  0
 23 24  1  0
 24 25  1  0
 25 26  1  0
 26 27  1  0
 19 28  1  0
 28 29  2  0
 10  5  1  0
 29 16  1  0
 15  7  1  0
 27 23  1  0
  6 30  1  0
  9 31  1  0
 11 32  1  0
 12 33  1  0
 12 34  1  0
 13 35  1  0
 13 36  1  0
 14 37  1  0
 14 38  1  0
 15 39  1  0
 15 40  1  0
 17 41  1  0
 18 42  1  0
 24 43  1  0
 24 44  1  0
 25 45  1  0
 25 46  1  0
 26 47  1  0
 26 48  1  0
 27 49  1  0
 27 50  1  0
 28 51  1  0
 29 52  1  0
M  CHG  1   4  -1
M  END
>  <UniqueID>  (1) 
1

>  <SMILES>  (1) 
O=S(=O)([N-]c1cc2c(cc1O)CCCC2)c1ccc(S(=O)(=O)N2CCCC2)cc1

>  <Energy>  (1) 
59.99941495920621

>  <Genealogy>  (1) 
O=S(=O)([N-]c1cc2c(cc1O)CCCC2)c1ccc(S(=O)(=O)N2CCCC2)cc1 (protonated)
O=S(=O)([N-]c1cc2c(cc1O)CCCC2)c1ccc(S(=O)(=O)N2CCCC2)cc1 (3D coordinates assigned)
O=S(=O)([N-]c1cc2c(cc1O)CCCC2)c1ccc(S(=O)(=O)N2CCCC2)cc1 (nonaromatic ring conformer: 59.99941495920621 kcal/mol)

>  <smiles>  (1) 
O=S(=O)(Nc1cc2c(cc1O)CCCC2)c1ccc(S(=O)(=O)N2CCCC2)cc1

>  <score_type>  (1) 
oracle

>  <origin>  (1) 
adgpu

>  <m_score__min__energy>  (1) 
-13.6

>  <m_primary>  (1) 
energy

$$$$
1:0
     RDKit          3D

 57 60  0  0  0  0  0  0  0  0999 V2000
   -6.0960   25.2850  -29.8420 C   0  0  0  0  0  0  0  0  0  0  0  0
   -5.6060   24.3000  -30.8550 C   0  0  0  0  0  0  0  0  0  0  0  0
   -4.3960   24.3370  -31.1980 O   0  0  0  0  0  0  0  0  0  0  0  0
   -6.4870   23.3530  -31.4830 N   0  0  0  0  0  0  0  0  0  0  0  0
   -7.9470   23.4320  -31.3750 C   0  0  0  0  0  0  0  0  0  0  0  0
   -8.4940   22.1070  -31.9560 C   0  0  0  0  0  0  0  0  0  0  0  0
   -7.2670   21.4000  -32.4140 C   0  0  0  0  0  0  0  0  0  0  0  0
   -7.1860   20.1660  -33.0590 C   0  0  0  0  0  0  0  0  0  0  0  0
   -5.9240   19.6940  -33.4530 C   0  0  0  0  0  0  0  0  0  0  0  0
   -4.7660   20.4790  -33.2330 C   0  0  0  0  0  0  0  0  0  0  0  0
   -3.4590   20.0400  -33.6350 N   0  0  0  0  0  0  0  0  0  0  0  0
   -2.2860   19.9710  -32.8170 C   0  0  0  0  0  0  0  0  0  0  0  0
   -1.8360   18.8570  -32.4320 O   0  0  0  0  0  0  0  0  0  0  0  0
   -1.5910   21.1790  -32.4870 N   0  0  0  0  0  0  0  0  0  0  0  0
   -0.4630   21.2100  -31.5600 C   0  0  0  0  0  0  0  0  0  0  0  0
   -0.9610   21.3520  -30.1480 C   0  0  0  0  0  0  0  0  0  0  0  0
   -0.9770   20.2460  -29.2830 C   0  0  0  0  0  0  0  0  0  0  0  0
   -1.4760   20.3780  -27.9830 C   0  0  0  0  0  0  0  0  0  0  0  0
   -1.9690   21.6090  -27.5420 C   0  0  0  0  0  0  0  0  0  0  0  0
   -1.9680   22.7150  -28.4010 C   0  0  0  0  0  0  0  0  0  0  0  0
   -2.5680   24.2790  -27.8480 S   0  0  0  0  0  0  0  0  0  0  0  0
   -4.0420   24.1860  -27.5670 O   0  0  0  0  0  0  0  0  0  0  0  0
   -2.3610   25.2820  -28.9500 O   0  0  0  0  0  0  0  0  0  0  0  0
   -1.6950   24.7990  -26.4200 N   0  0  0  0  0  0  0  0  0  0  0  0
   -1.3200   26.2220  -26.4880 C   0  0  0  0  0  0  0  0  0  0  0  0
   -0.1500   26.4770  -27.4670 C   0  0  0  0  0  0  0  0  0  0  0  0
    0.5870   25.3060  -27.7880 O   0  0  0  0  0  0  0  0  0  0  0  0
    0.8000   24.5320  -26.6290 C   0  0  0  0  0  0  0  0  0  0  0  0
   -0.5300   23.9270  -26.1410 C   0  0  0  0  0  0  0  0  0  0  0  0
   -1.4620   22.5830  -29.7020 C   0  0  0  0  0  0  0  0  0  0  0  0
   -4.8820   21.7110  -32.5610 C   0  0  0  0  0  0  0  0  0  0  0  0
   -6.1470   22.1360  -32.1380 C   0  0  0  0  0  0  0  0  0  0  0  0
   -5.9033   24.8975  -28.8307 H   0  0  0  0  0  0  0  0  0  0  0  0
   -5.5684   26.2410  -29.9751 H   0  0  0  0  0  0  0  0  0  0  0  0
   -7.1767   25.4410  -29.9751 H   0  0  0  0  0  0  0  0  0  0  0  0
   -8.2464   23.5392  -30.3220 H   0  0  0  0  0  0  0  0  0  0  0  0
   -8.3430   24.3023  -31.9188 H   0  0  0  0  0  0  0  0  0  0  0  0
   -9.0186   21.5253  -31.1838 H   0  0  0  0  0  0  0  0  0  0  0  0
   -9.2273   22.2610  -32.7613 H   0  0  0  0  0  0  0  0  0  0  0  0
   -8.0926   19.5746  -33.2550 H   0  0  0  0  0  0  0  0  0  0  0  0
   -5.8341   18.7094  -33.9351 H   0  0  0  0  0  0  0  0  0  0  0  0
   -1.9350   22.0830  -32.8860 H   0  0  0  0  0  0  0  0  0  0  0  0
    0.1098   20.2754  -31.6519 H   0  0  0  0  0  0  0  0  0  0  0  0
    0.1810   22.0679  -31.8036 H   0  0  0  0  0  0  0  0  0  0  0  0
   -0.5962   19.2736  -29.6285 H   0  0  0  0  0  0  0  0  0  0  0  0
   -1.4804   19.5109  -27.3062 H   0  0  0  0  0  0  0  0  0  0  0  0
   -2.3586   21.7094  -26.5182 H   0  0  0  0  0  0  0  0  0  0  0  0
   -2.1930   26.8019  -26.8221 H   0  0  0  0  0  0  0  0  0  0  0  0
   -0.9913   26.5307  -25.4847 H   0  0  0  0  0  0  0  0  0  0  0  0
   -0.5601   26.8961  -28.3977 H   0  0  0  0  0  0  0  0  0  0  0  0
    0.5442   27.1688  -26.9676 H   0  0  0  0  0  0  0  0  0  0  0  0
    1.5057   23.7201  -26.8589 H   0  0  0  0  0  0  0  0  0  0  0  0
    1.2127   25.1759  -25.8384 H   0  0  0  0  0  0  0  0  0  0  0  0
   -0.6839   22.9626  -26.6471 H   0  0  0  0  0  0  0  0  0  0  0  0
   -0.4590   23.8089  -25.0497 H   0  0  0  0  0  0  0  0  0  0  0  0
   -1.4581   23.4513  -30.3773 H   0  0  0  0  0  0  0  0  0  0  0  0
   -3.9925   22.3298  -32.3714 H   0  0  0  0  0  0  0  0  0  0  0  0
  1  2  1  0
  2  3  2  0
  2  4  1  0
  4  5  1  0
  5  6  1  0
  6  7  1  0
  7  8  2  0
  8  9  1  0
  9 10  2  0
 10 11  1  0
 11 12  1  0
 12 13  2  0
 12 14  1  0
 14 15  1  0
 15 16  1  0
 16 17  2  0
 17 18  1  0
 18 19  2  0
 19 20  1  0
 20 21  1  0
 21 22  2  0
 21 23  2  0
 21 24  1  0
 24 25  1  0
 25 26  1  0
 26 27  1  0
 27 28  1  0
 28 29  1  0
 20 30  2  0
 10 31  1  0
 31 32  2  0
 32  4  1  0
 32  7  1  0
 30 16  1  0
 29 24  1  0
  1 33  1  0
  1 34  1  0
  1 35  1  0
  5 36  1  0
  5 37  1  0
  6 38  1  0
  6 39  1  0
  8 40  1  0
  9 41  1  0
 14 42  1  0
 15 43  1  0
 15 44  1  0
 17 45  1  0
 18 46  1  0
 19 47  1  0
 25 48  1  0
 25 49  1  0
 26 50  1  0
 26 51  1  0
 28 52  1  0
 28 53  1  0
 29 54  1  0
 29 55  1  0
 30 56  1  0
 31 57  1  0
M  CHG  1  11  -1
M  END
>  <UniqueID>  (2) 
2

>  <SMILES>  (2) 
CC(=O)N1CCc2ccc([N-]C(=O)NCc3cccc(S(=O)(=O)N4CCOCC4)c3)cc21

>  <Energy>  (2) 
87.5135121883212

>  <Genealogy>  (2) 
CC(=O)N1CCc2ccc([N-]C(=O)NCc3cccc(S(=O)(=O)N4CCOCC4)c3)cc21 (protonated)
CC(=O)N1CCc2ccc([N-]C(=O)NCc3cccc(S(=O)(=O)N4CCOCC4)c3)cc21 (3D coordinates assigned)
CC(=O)N1CCc2ccc([N-]C(=O)NCc3cccc(S(=O)(=O)N4CCOCC4)c3)cc21 (nonaromatic ring conformer: 87.5135121883212 kcal/mol)

>  <smiles>  (2) 
CC(=O)N1CCc2ccc(NC(=O)NCc3cccc(S(=O)(=O)N4CCOCC4)c3)cc21

>  <score_type>  (2) 
oracle

>  <origin>  (2) 
adgpu

>  <m_score__min__energy>  (2) 
-11.56

>  <m_primary>  (2) 
energy

$$$$
2:0
     RDKit          3D

 70 74  0  0  0  0  0  0  0  0999 V2000
   -5.0710   25.6740  -31.2080 O   0  0  0  0  0  0  0  0  0  0  0  0
   -5.5130   24.5750  -30.2840 S   0  0  0  0  0  0  0  0  0  0  0  0
   -6.8850   24.8980  -29.7600 O   0  0  0  0  0  0  0  0  0  0  0  0
   -4.3680   24.4210  -28.9860 N   0  0  0  0  0  0  0  0  0  0  0  0
   -3.5350   23.2680  -28.7870 C   0  0  0  0  0  0  0  0  0  0  0  0
   -3.9110   22.2340  -27.9110 C   0  0  0  0  0  0  0  0  0  0  0  0
   -3.0920   21.1130  -27.7510 C   0  0  0  0  0  0  0  0  0  0  0  0
   -1.8780   21.0140  -28.4500 C   0  0  0  0  0  0  0  0  0  0  0  0
   -0.9970   19.8030  -28.2750 C   0  0  0  0  0  0  0  0  0  0  0  0
    0.4390   20.2030  -27.9400 C   0  0  0  0  0  0  0  0  0  0  0  0
    1.3820   19.3020  -28.6200 N   0  0  0  0  0  0  0  0  0  0  0  0
    0.7320   18.3220  -29.5060 C   0  0  0  0  0  0  0  0  0  0  0  0
    1.1370   18.4550  -30.9940 C   0  0  2  0  0  0  0  0  0  0  0  0
    2.4210   19.0180  -31.0990 O   0  0  0  0  0  0  0  0  0  0  0  0
    0.1240   19.2400  -31.8050 C   0  0  0  0  0  0  0  0  0  0  0  0
   -0.9670   18.6240  -32.4420 C   0  0  0  0  0  0  0  0  0  0  0  0
   -1.8620   19.3830  -33.1990 C   0  0  0  0  0  0  0  0  0  0  0  0
   -1.6650   20.7570  -33.3140 C   0  0  0  0  0  0  0  0  0  0  0  0
   -0.6260   21.3500  -32.6700 N   0  0  0  0  0  0  0  0  0  0  0  0
    0.2540   20.6360  -31.9200 C   0  0  0  0  0  0  0  0  0  0  0  0
   -1.4780   22.0710  -29.2830 C   0  0  0  0  0  0  0  0  0  0  0  0
   -2.3010   23.1890  -29.4470 C   0  0  0  0  0  0  0  0  0  0  0  0
   -5.5950   23.0380  -31.1340 C   0  0  0  0  0  0  0  0  0  0  0  0
   -4.5640   22.6240  -31.9850 C   0  0  0  0  0  0  0  0  0  0  0  0
   -4.6370   21.3830  -32.6260 C   0  0  0  0  0  0  0  0  0  0  0  0
   -5.7420   20.5340  -32.4290 C   0  0  0  0  0  0  0  0  0  0  0  0
   -5.7990   19.2020  -33.0840 C   0  0  0  0  0  0  0  0  0  0  0  0
   -6.0380   18.9520  -34.4410 C   0  0  0  0  0  0  0  0  0  0  0  0
   -6.0810   17.5930  -34.7640 C   0  0  0  0  0  0  0  0  0  0  0  0
   -5.8720   16.7640  -33.6690 C   0  0  0  0  0  0  0  0  0  0  0  0
   -5.8790   15.3280  -33.6930 N   0  0  0  0  0  0  0  0  0  0  0  0
   -6.8790   14.5380  -34.3890 C   0  0  0  0  0  0  0  0  0  0  0  0
   -6.6160   13.0930  -33.9850 C   0  0  0  0  0  0  0  0  0  0  0  0
   -5.1980   13.0790  -33.4190 C   0  0  0  0  0  0  0  0  0  0  0  0
   -4.9030   14.5130  -32.9940 C   0  0  0  0  0  0  0  0  0  0  0  0
   -5.6380   17.7100  -32.2980 S   0  0  0  0  0  0  0  0  0  0  0  0
   -6.7760   20.9660  -31.5760 C   0  0  0  0  0  0  0  0  0  0  0  0
   -6.6990   22.2050  -30.9340 C   0  0  0  0  0  0  0  0  0  0  0  0
   -4.1280   25.3010  -28.4780 H   0  0  0  0  0  0  0  0  0  0  0  0
   -4.8539   22.3079  -27.3493 H   0  0  0  0  0  0  0  0  0  0  0  0
   -3.4002   20.3032  -27.0733 H   0  0  0  0  0  0  0  0  0  0  0  0
   -1.3964   19.1848  -27.4575 H   0  0  0  0  0  0  0  0  0  0  0  0
   -0.9886   19.2411  -29.2206 H   0  0  0  0  0  0  0  0  0  0  0  0
    0.6169   21.2360  -28.2734 H   0  0  0  0  0  0  0  0  0  0  0  0
    0.5903   20.1315  -26.8528 H   0  0  0  0  0  0  0  0  0  0  0  0
    2.0950   19.8610  -29.1410 H   0  0  0  0  0  0  0  0  0  0  0  0
    1.0020   17.3124  -29.1627 H   0  0  0  0  0  0  0  0  0  0  0  0
   -0.3502   18.5117  -29.4519 H   0  0  0  0  0  0  0  0  0  0  0  0
    1.1569   17.4420  -31.4224 H   0  0  0  0  0  0  0  0  0  0  0  0
    2.8270   18.9780  -30.1950 H   0  0  0  0  0  0  0  0  0  0  0  0
   -1.1166   17.5387  -32.3438 H   0  0  0  0  0  0  0  0  0  0  0  0
   -2.7143   18.9004  -33.6996 H   0  0  0  0  0  0  0  0  0  0  0  0
   -2.3503   21.3618  -33.9260 H   0  0  0  0  0  0  0  0  0  0  0  0
    1.0735   21.1531  -31.3993 H   0  0  0  0  0  0  0  0  0  0  0  0
   -0.5131   22.0192  -29.8087 H   0  0  0  0  0  0  0  0  0  0  0  0
   -1.9775   24.0135  -30.0994 H   0  0  0  0  0  0  0  0  0  0  0  0
   -3.6939   23.2764  -32.1502 H   0  0  0  0  0  0  0  0  0  0  0  0
   -3.8208   21.0667  -33.2922 H   0  0  0  0  0  0  0  0  0  0  0  0
   -6.1788   19.7511  -35.1837 H   0  0  0  0  0  0  0  0  0  0  0  0
   -6.2620   17.2178  -35.7821 H   0  0  0  0  0  0  0  0  0  0  0  0
   -7.8905   14.8438  -34.0833 H   0  0  0  0  0  0  0  0  0  0  0  0
   -6.8170   14.6729  -35.4789 H   0  0  0  0  0  0  0  0  0  0  0  0
   -7.3382   12.7700  -33.2207 H   0  0  0  0  0  0  0  0  0  0  0  0
   -6.7220   12.4054  -34.8371 H   0  0  0  0  0  0  0  0  0  0  0  0
   -5.1385   12.4034  -32.5529 H   0  0  0  0  0  0  0  0  0  0  0  0
   -4.4704   12.7204  -34.1619 H   0  0  0  0  0  0  0  0  0  0  0  0
   -5.0174   14.6236  -31.9056 H   0  0  0  0  0  0  0  0  0  0  0  0
   -3.8719   14.8090  -33.2373 H   0  0  0  0  0  0  0  0  0  0  0  0
   -7.6528   20.3219  -31.4135 H   0  0  0  0  0  0  0  0  0  0  0  0
   -7.5125   22.5265  -30.2671 H   0  0  0  0  0  0  0  0  0  0  0  0
  1  2  2  0
  2  3  2  0
  2  4  1  0
  4  5  1  0
  5  6  2  0
  6  7  1  0
  7  8  2  0
  8  9  1  0
  9 10  1  0
 10 11  1  0
 11 12  1  0
 12 13  1  0
 13 14  1  0
 13 15  1  0
 15 16  2  0
 16 17  1  0
 17 18  2  0
 18 19  1  0
 19 20  2  0
  8 21  1  0
 21 22  2  0
  2 23  1  0
 23 24  2  0
 24 25  1  0
 25 26  2  0
 26 27  1  0
 27 28  2  0
 28 29  1  0
 29 30  2  0
 30 31  1  0
 31 32  1  0
 32 33  1  0
 33 34  1  0
 34 35  1  0
 30 36  1  0
 26 37  1  0
 37 38  2  0
 22  5  1  0
 38 23  1  0
 20 15  1  0
 36 27  1  0
 35 31  1  0
  4 39  1  0
  6 40  1  0
  7 41  1  0
  9 42  1  0
  9 43  1  0
 10 44  1  0
 10 45  1  0
 11 46  1  0
 12 47  1  0
 12 48  1  0
 13 49  1  6
 14 50  1  0
 16 51  1  0
 17 52  1  0
 18 53  1  0
 20 54  1  0
 21 55  1  0
 22 56  1  0
 24 57  1  0
 25 58  1  0
 28 59  1  0
 29 60  1  0
 32 61  1  0
 32 62  1  0
 33 63  1  0
 33 64  1  0
 34 65  1  0
 34 66  1  0
 35 67  1  0
 35 68  1  0
 37 69  1  0
 38 70  1  0
M  END
>  <UniqueID>  (3) 
3

>  <SMILES>  (3) 
O=S(=O)(Nc1ccc(CCNC[C@H](O)c2cccnc2)cc1)c1ccc(-c2ccc(N3CCCC3)s2)cc1

>  <Energy>  (3) 
110.13518526560335

>  <Genealogy>  (3) 
O=S(=O)(Nc1ccc(CCNC[C@H](O)c2cccnc2)cc1)c1ccc(-c2ccc(N3CCCC3)s2)cc1 (chirality)
O=S(=O)(Nc1ccc(CCNC[C@H](O)c2cccnc2)cc1)c1ccc(-c2ccc(N3CCCC3)s2)cc1 (3D coordinates assigned)
O=S(=O)(Nc1ccc(CCNC[C@H](O)c2cccnc2)cc1)c1ccc(-c2ccc(N3CCCC3)s2)cc1 (nonaromatic ring conformer: 110.13518526560335 kcal/mol)

>  <smiles>  (3) 
O=S(=O)(Nc1ccc(CCNCC(O)c2cccnc2)cc1)c1ccc(-c2ccc(N3CCCC3)s2)cc1

>  <score_type>  (3) 
oracle

>  <origin>  (3) 
adgpu

>  <m_score__min__energy>  (3) 
-10.619999999999999

>  <m_primary>  (3) 
energy

$$$$
3:0
     RDKit          3D

 53 57  0  0  0  0  0  0  0  0999 V2000
    1.5540   28.5340  -35.2930 C   0  0  0  0  0  0  0  0  0  0  0  0
    2.6190   27.7050  -35.7570 O   0  0  0  0  0  0  0  0  0  0  0  0
    2.5780   26.3020  -35.7650 C   0  0  0  0  0  0  0  0  0  0  0  0
    1.3760   25.6730  -36.1120 C   0  0  0  0  0  0  0  0  0  0  0  0
    1.2860   24.2780  -36.1350 C   0  0  0  0  0  0  0  0  0  0  0  0
    2.3920   23.4890  -35.7900 C   0  0  0  0  0  0  0  0  0  0  0  0
    2.2690   22.0920  -35.8240 O   0  0  0  0  0  0  0  0  0  0  0  0
    1.2690   21.3570  -35.1690 C   0  0  0  0  0  0  0  0  0  0  0  0
   -0.0850   21.4520  -35.5390 C   0  0  0  0  0  0  0  0  0  0  0  0
   -1.0460   20.6660  -34.8980 C   0  0  0  0  0  0  0  0  0  0  0  0
   -0.6630   19.7670  -33.8910 C   0  0  0  0  0  0  0  0  0  0  0  0
   -1.8750   18.7260  -33.1500 S   0  0  0  0  0  0  0  0  0  0  0  0
   -2.4830   17.8420  -34.2010 O   0  0  0  0  0  0  0  0  0  0  0  0
   -1.2110   17.8370  -32.1360 O   0  0  0  0  0  0  0  0  0  0  0  0
   -3.1130   19.6980  -32.3260 C   0  0  0  0  0  0  0  0  0  0  0  0
   -2.8070   20.7060  -31.3930 C   0  0  0  0  0  0  0  0  0  0  0  0
   -1.2130   21.3140  -30.9600 S   0  0  0  0  0  0  0  0  0  0  0  0
   -0.5750   21.9310  -32.1730 O   0  0  0  0  0  0  0  0  0  0  0  0
   -1.3560   22.3630  -29.8940 O   0  0  0  0  0  0  0  0  0  0  0  0
   -0.2330   20.0170  -30.3580 N   0  0  0  0  0  0  0  0  0  0  0  0
   -0.4250   19.4410  -29.2130 C   0  0  0  0  0  0  0  0  0  0  0  0
    0.3480   18.4450  -28.7380 N   0  0  0  0  0  0  0  0  0  0  0  0
   -0.0790   18.0070  -27.5150 C   0  0  0  0  0  0  0  0  0  0  0  0
   -1.1700   18.6240  -26.9790 N   0  0  0  0  0  0  0  0  0  0  0  0
   -1.6190   19.7690  -28.1010 S   0  0  0  0  0  0  0  0  0  0  0  0
   -4.2320   21.3820  -30.7970 S   0  0  0  0  0  0  0  0  0  0  0  0
   -5.2520   20.4310  -31.7220 C   0  0  0  0  0  0  0  0  0  0  0  0
   -6.6440   20.4740  -31.7560 C   0  0  0  0  0  0  0  0  0  0  0  0
   -7.3140   19.6220  -32.6440 C   0  0  0  0  0  0  0  0  0  0  0  0
   -9.0670   19.6410  -32.7220 Cl  0  0  0  0  0  0  0  0  0  0  0  0
   -6.5830   18.7640  -33.4860 C   0  0  0  0  0  0  0  0  0  0  0  0
   -5.1790   18.7410  -33.4370 C   0  0  0  0  0  0  0  0  0  0  0  0
   -4.5080   19.5740  -32.5250 C   0  0  0  0  0  0  0  0  0  0  0  0
    0.6800   19.6840  -33.5110 C   0  0  0  0  0  0  0  0  0  0  0  0
    1.6440   20.4650  -34.1560 C   0  0  0  0  0  0  0  0  0  0  0  0
    3.6050   24.1140  -35.4520 C   0  0  0  0  0  0  0  0  0  0  0  0
    3.6970   25.5110  -35.4410 C   0  0  0  0  0  0  0  0  0  0  0  0
    1.5465   28.5399  -34.1930 H   0  0  0  0  0  0  0  0  0  0  0  0
    1.6990   29.5593  -35.6642 H   0  0  0  0  0  0  0  0  0  0  0  0
    0.5957   28.1418  -35.6642 H   0  0  0  0  0  0  0  0  0  0  0  0
    0.4959   26.2811  -36.3684 H   0  0  0  0  0  0  0  0  0  0  0  0
    0.3408   23.7963  -36.4258 H   0  0  0  0  0  0  0  0  0  0  0  0
   -0.3881   22.1474  -36.3356 H   0  0  0  0  0  0  0  0  0  0  0  0
   -2.1049   20.7521  -35.1833 H   0  0  0  0  0  0  0  0  0  0  0  0
    1.1720   18.0470  -29.2440 H   0  0  0  0  0  0  0  0  0  0  0  0
    0.4360   17.1914  -26.9862 H   0  0  0  0  0  0  0  0  0  0  0  0
   -7.2031   21.1595  -31.1022 H   0  0  0  0  0  0  0  0  0  0  0  0
   -7.1151   18.1057  -34.1885 H   0  0  0  0  0  0  0  0  0  0  0  0
   -4.6106   18.0778  -34.1056 H   0  0  0  0  0  0  0  0  0  0  0  0
    0.9793   19.0018  -32.7017 H   0  0  0  0  0  0  0  0  0  0  0  0
    2.7017   20.3786  -33.8666 H   0  0  0  0  0  0  0  0  0  0  0  0
    4.4838   23.5041  -35.1956 H   0  0  0  0  0  0  0  0  0  0  0  0
    4.6496   25.9938  -35.1775 H   0  0  0  0  0  0  0  0  0  0  0  0
  1  2  1  0
  2  3  1  0
  3  4  2  0
  4  5  1  0
  5  6  2  0
  6  7  1  0
  7  8  1  0
  8  9  2  0
  9 10  1  0
 10 11  2  0
 11 12  1  0
 12 13  2  0
 12 14  2  0
 12 15  1  0
 15 16  2  0
 16 17  1  0
 17 18  2  0
 17 19  2  0
 17 20  1  0
 20 21  2  3
 21 22  1  0
 22 23  1  0
 23 24  2  0
 24 25  1  0
 16 26  1  0
 26 27  1  0
 27 28  2  0
 28 29  1  0
 29 30  1  0
 29 31  2  0
 31 32  1  0
 32 33  2  0
 11 34  1  0
 34 35  2  0
  6 36  1  0
 36 37  2  0
 37  3  1  0
 35  8  1  0
 33 15  1  0
 25 21  1  0
 33 27  1  0
  1 38  1  0
  1 39  1  0
  1 40  1  0
  4 41  1  0
  5 42  1  0
  9 43  1  0
 10 44  1  0
 22 45  1  0
 23 46  1  0
 28 47  1  0
 31 48  1  0
 32 49  1  0
 34 50  1  0
 35 51  1  0
 36 52  1  0
 37 53  1  0
M  END
>  <UniqueID>  (4) 
4

>  <SMILES>  (4) 
COc1ccc(Oc2ccc(S(=O)(=O)c3c(S(=O)(=O)N=c4[nH]cns4)sc4cc(Cl)ccc34)cc2)cc1

>  <Energy>  (4) 
143.01081658016457

>  <Genealogy>  (4) 
COc1ccc(Oc2ccc(S(=O)(=O)c3c(S(=O)(=O)N=c4[nH]cns4)sc4cc(Cl)ccc34)cc2)cc1 (3D coordinates assigned)
COc1ccc(Oc2ccc(S(=O)(=O)c3c(S(=O)(=O)N=c4[nH]cns4)sc4cc(Cl)ccc34)cc2)cc1 (optimized conformer: 143.01081658016457 kcal/mol)

>  <smiles>  (4) 
COc1ccc(Oc2ccc(S(=O)(=O)c3c(S(=O)(=O)N=c4[nH]cns4)sc4cc(Cl)ccc34)cc2)cc1

>  <score_type>  (4) 
oracle

>  <origin>  (4) 
adgpu

>  <m_score__min__energy>  (4) 
-9.9399999999999995

>  <m_primary>  (4) 
energy

$$$$
4:0
     RDKit          3D

 57 61  0  0  0  0  0  0  0  0999 V2000
   -2.2650   20.1710  -27.2150 O   0  0  0  0  0  0  0  0  0  0  0  0
   -1.4880   20.9860  -27.7860 C   0  0  0  0  0  0  0  0  0  0  0  0
   -1.5670   21.1530  -29.2540 C   0  0  0  0  0  0  0  0  0  0  0  0
   -0.4090   21.0800  -30.0410 C   0  0  0  0  0  0  0  0  0  0  0  0
   -0.4880   21.2260  -31.4260 C   0  0  0  0  0  0  0  0  0  0  0  0
   -1.7230   21.4450  -32.0440 C   0  0  0  0  0  0  0  0  0  0  0  0
   -1.7710   21.5780  -33.4270 O   0  0  0  0  0  0  0  0  0  0  0  0
   -2.8990   21.5330  -31.2730 C   0  0  0  0  0  0  0  0  0  0  0  0
   -4.1650   21.7500  -31.9260 N   0  0  0  0  0  0  0  0  0  0  0  0
   -5.4320   22.7510  -31.2890 S   0  0  0  0  0  0  0  0  0  0  0  0
   -5.4150   24.0940  -31.9640 O   0  0  0  0  0  0  0  0  0  0  0  0
   -5.2260   22.9310  -29.8090 O   0  0  0  0  0  0  0  0  0  0  0  0
   -6.9950   21.9800  -31.5850 C   0  0  0  0  0  0  0  0  0  0  0  0
   -8.1800   22.7140  -31.4170 C   0  0  0  0  0  0  0  0  0  0  0  0
   -9.4240   22.1220  -31.6520 C   0  0  0  0  0  0  0  0  0  0  0  0
   -9.5030   20.7880  -32.0550 C   0  0  0  0  0  0  0  0  0  0  0  0
   -8.3330   20.0360  -32.2280 C   0  0  0  0  0  0  0  0  0  0  0  0
   -8.3880   18.6970  -32.6310 C   0  0  0  0  0  0  0  0  0  0  0  0
   -7.2050   17.9720  -32.7970 C   0  0  0  0  0  0  0  0  0  0  0  0
   -5.9790   18.5930  -32.5560 C   0  0  0  0  0  0  0  0  0  0  0  0
   -5.9370   19.8940  -32.1660 N   0  0  0  0  0  0  0  0  0  0  0  0
   -7.0700   20.6320  -31.9940 C   0  0  0  0  0  0  0  0  0  0  0  0
   -2.8040   21.4000  -29.8730 C   0  0  0  0  0  0  0  0  0  0  0  0
   -0.5390   21.7250  -26.9960 N   0  0  0  0  0  0  0  0  0  0  0  0
    0.8680   21.8020  -27.4120 C   0  0  0  0  0  0  0  0  0  0  0  0
    1.4350   23.1940  -27.1100 C   0  0  0  0  0  0  0  0  0  0  0  0
    1.0440   23.6650  -25.7730 N   0  0  0  0  0  0  0  0  0  0  0  0
    1.6460   24.8660  -25.2570 C   0  0  0  0  0  0  0  0  0  0  0  0
    2.8650   25.0960  -25.4810 O   0  0  0  0  0  0  0  0  0  0  0  0
    0.8690   25.8530  -24.4900 C   0  0  0  0  0  0  0  0  0  0  0  0
    1.3740   26.8740  -23.7050 C   0  0  0  0  0  0  0  0  0  0  0  0
    0.2730   27.5270  -23.1910 C   0  0  0  0  0  0  0  0  0  0  0  0
   -0.8340   26.8610  -23.6810 C   0  0  0  0  0  0  0  0  0  0  0  0
   -0.4450   25.8660  -24.4480 O   0  0  0  0  0  0  0  0  0  0  0  0
    0.2540   22.7910  -24.8940 C   0  0  0  0  0  0  0  0  0  0  0  0
   -0.9360   22.2030  -25.6630 C   0  0  0  0  0  0  0  0  0  0  0  0
    0.5668   20.9067  -29.5638 H   0  0  0  0  0  0  0  0  0  0  0  0
    0.4261   21.1685  -32.0352 H   0  0  0  0  0  0  0  0  0  0  0  0
   -4.3600   21.2790  -32.8400 H   0  0  0  0  0  0  0  0  0  0  0  0
   -8.1288   23.7653  -31.0973 H   0  0  0  0  0  0  0  0  0  0  0  0
  -10.3443   22.7096  -31.5189 H   0  0  0  0  0  0  0  0  0  0  0  0
  -10.4847   20.3263  -32.2370 H   0  0  0  0  0  0  0  0  0  0  0  0
   -9.3599   18.2165  -32.8166 H   0  0  0  0  0  0  0  0  0  0  0  0
   -7.2400   16.9196  -33.1153 H   0  0  0  0  0  0  0  0  0  0  0  0
   -5.0438   18.0278  -32.6821 H   0  0  0  0  0  0  0  0  0  0  0  0
   -3.7106   21.4908  -29.2566 H   0  0  0  0  0  0  0  0  0  0  0  0
    1.4504   21.0461  -26.8648 H   0  0  0  0  0  0  0  0  0  0  0  0
    0.9326   21.6156  -28.4942 H   0  0  0  0  0  0  0  0  0  0  0  0
    2.5328   23.1509  -27.1653 H   0  0  0  0  0  0  0  0  0  0  0  0
    1.0288   23.8969  -27.8523 H   0  0  0  0  0  0  0  0  0  0  0  0
    2.4326   27.1149  -23.5277 H   0  0  0  0  0  0  0  0  0  0  0  0
    0.2758   28.4023  -22.5247 H   0  0  0  0  0  0  0  0  0  0  0  0
   -1.8799   27.1228  -23.4631 H   0  0  0  0  0  0  0  0  0  0  0  0
    0.8908   21.9720  -24.5282 H   0  0  0  0  0  0  0  0  0  0  0  0
   -0.1229   23.3810  -24.0456 H   0  0  0  0  0  0  0  0  0  0  0  0
   -1.3491   21.3596  -25.0902 H   0  0  0  0  0  0  0  0  0  0  0  0
   -1.6867   22.9965  -25.7926 H   0  0  0  0  0  0  0  0  0  0  0  0
  1  2  2  0
  2  3  1  0
  3  4  2  0
  4  5  1  0
  5  6  2  0
  6  7  1  0
  6  8  1  0
  8  9  1  0
  9 10  1  0
 10 11  2  0
 10 12  2  0
 10 13  1  0
 13 14  2  0
 14 15  1  0
 15 16  2  0
 16 17  1  0
 17 18  2  0
 18 19  1  0
 19 20  2  0
 20 21  1  0
 21 22  2  0
  8 23  2  0
  2 24  1  0
 24 25  1  0
 25 26  1  0
 26 27  1  0
 27 28  1  0
 28 29  2  0
 28 30  1  0
 30 31  2  0
 31 32  1  0
 32 33  2  0
 33 34  1  0
 27 35  1  0
 35 36  1  0
 23  3  1  0
 36 24  1  0
 22 13  1  0
 34 30  1  0
 22 17  1  0
  4 37  1  0
  5 38  1  0
  9 39  1  0
 14 40  1  0
 15 41  1  0
 16 42  1  0
 18 43  1  0
 19 44  1  0
 20 45  1  0
 23 46  1  0
 25 47  1  0
 25 48  1  0
 26 49  1  0
 26 50  1  0
 31 51  1  0
 32 52  1  0
 33 53  1  0
 35 54  1  0
 35 55  1  0
 36 56  1  0
 36 57  1  0
M  CHG  1   7  -1
M  END
>  <UniqueID>  (5) 
5

>  <SMILES>  (5) 
O=C(c1ccc([O-])c(NS(=O)(=O)c2cccc3cccnc23)c1)N1CCN(C(=O)c2ccco2)CC1

>  <Energy>  (5) 
105.47364076381653

>  <Genealogy>  (5) 
O=C(c1ccc([O-])c(NS(=O)(=O)c2cccc3cccnc23)c1)N1CCN(C(=O)c2ccco2)CC1 (protonated)
O=C(c1ccc([O-])c(NS(=O)(=O)c2cccc3cccnc23)c1)N1CCN(C(=O)c2ccco2)CC1 (3D coordinates assigned)
O=C(c1ccc([O-])c(NS(=O)(=O)c2cccc3cccnc23)c1)N1CCN(C(=O)c2ccco2)CC1 (nonaromatic ring conformer: 105.47364076381653 kcal/mol)

>  <smiles>  (5) 
O=C(c1ccc(O)c(NS(=O)(=O)c2cccc3cccnc23)c1)N1CCN(C(=O)c2ccco2)CC1

>  <score_type>  (5) 
oracle

>  <origin>  (5) 
adgpu

>  <m_score__min__energy>  (5) 
-13.57

>  <m_primary>  (5) 
energy

$$$$
5:0
     RDKit          3D

 46 48  0  0  0  0  0  0  0  0999 V2000
   -1.3520   20.7210  -30.7920 C   0  0  0  0  0  0  0  0  0  0  0  0
   -2.1040   22.2950  -31.3160 S   0  0  0  0  0  0  0  0  0  0  0  0
   -2.2210   22.9300  -29.6350 C   0  0  0  0  0  0  0  0  0  0  0  0
   -1.6350   22.2070  -28.5890 C   0  0  0  0  0  0  0  0  0  0  0  0
   -1.7360   22.6680  -27.2740 C   0  0  0  0  0  0  0  0  0  0  0  0
   -2.4190   23.8530  -27.0010 C   0  0  0  0  0  0  0  0  0  0  0  0
   -3.0000   24.5880  -28.0410 C   0  0  0  0  0  0  0  0  0  0  0  0
   -2.9180   24.1240  -29.3660 C   0  0  0  0  0  0  0  0  0  0  0  0
   -3.4870   24.8620  -30.4580 N   0  0  0  0  0  0  0  0  0  0  0  0
   -4.8850   25.0420  -30.7240 C   0  0  0  0  0  0  0  0  0  0  0  0
   -5.4260   26.1650  -30.5360 O   0  0  0  0  0  0  0  0  0  0  0  0
   -5.7010   23.8860  -31.1540 C   0  0  0  0  0  0  0  0  0  0  0  0
   -7.1040   23.9610  -31.1360 C   0  0  0  0  0  0  0  0  0  0  0  0
   -7.8760   22.8800  -31.5670 C   0  0  0  0  0  0  0  0  0  0  0  0
   -7.2620   21.7150  -32.0330 C   0  0  0  0  0  0  0  0  0  0  0  0
   -8.0400   20.6990  -32.4840 F   0  0  0  0  0  0  0  0  0  0  0  0
   -5.8590   21.6260  -32.0650 C   0  0  0  0  0  0  0  0  0  0  0  0
   -5.0360   20.2240  -32.7640 S   0  0  0  0  0  0  0  0  0  0  0  0
   -4.0830   20.7010  -33.8270 O   0  0  0  0  0  0  0  0  0  0  0  0
   -4.2450   19.4900  -31.7140 O   0  0  0  0  0  0  0  0  0  0  0  0
   -6.2210   19.1470  -33.4710 N   0  0  0  0  0  0  0  0  0  0  0  0
   -6.6370   18.1350  -32.4780 C   0  0  0  0  0  0  0  0  0  0  0  0
   -7.2320   16.8930  -33.1680 C   0  0  0  0  0  0  0  0  0  0  0  0
   -6.3580   16.2510  -34.0920 O   0  0  0  0  0  0  0  0  0  0  0  0
   -5.2950   17.0800  -34.5430 C   0  0  0  0  0  0  0  0  0  0  0  0
   -5.7130   18.5490  -34.7310 C   0  0  0  0  0  0  0  0  0  0  0  0
   -5.0880   22.7070  -31.6110 C   0  0  0  0  0  0  0  0  0  0  0  0
   -1.3292   20.6734  -29.6933 H   0  0  0  0  0  0  0  0  0  0  0  0
   -1.9467   19.8824  -31.1831 H   0  0  0  0  0  0  0  0  0  0  0  0
   -0.3259   20.6567  -31.1831 H   0  0  0  0  0  0  0  0  0  0  0  0
   -1.0937   21.2736  -28.8031 H   0  0  0  0  0  0  0  0  0  0  0  0
   -1.2769   22.0964  -26.4540 H   0  0  0  0  0  0  0  0  0  0  0  0
   -2.5014   24.2114  -25.9643 H   0  0  0  0  0  0  0  0  0  0  0  0
   -3.5221   25.5310  -27.8213 H   0  0  0  0  0  0  0  0  0  0  0  0
   -7.5976   24.8773  -30.7800 H   0  0  0  0  0  0  0  0  0  0  0  0
   -8.9737   22.9463  -31.5394 H   0  0  0  0  0  0  0  0  0  0  0  0
   -7.0560   19.7390  -33.7050 H   0  0  0  0  0  0  0  0  0  0  0  0
   -5.7612   17.8318  -31.8855 H   0  0  0  0  0  0  0  0  0  0  0  0
   -7.4078   18.5776  -31.8299 H   0  0  0  0  0  0  0  0  0  0  0  0
   -7.5027   16.1648  -32.3893 H   0  0  0  0  0  0  0  0  0  0  0  0
   -8.0967   17.2445  -33.7501 H   0  0  0  0  0  0  0  0  0  0  0  0
   -4.4815   17.0394  -33.8037 H   0  0  0  0  0  0  0  0  0  0  0  0
   -4.9778   16.7010  -35.5257 H   0  0  0  0  0  0  0  0  0  0  0  0
   -4.8406   19.1259  -35.0717 H   0  0  0  0  0  0  0  0  0  0  0  0
   -6.5241   18.5796  -35.4734 H   0  0  0  0  0  0  0  0  0  0  0  0
   -3.9907   22.6306  -31.6129 H   0  0  0  0  0  0  0  0  0  0  0  0
  1  2  1  0
  2  3  1  0
  3  4  2  0
  4  5  1  0
  5  6  2  0
  6  7  1  0
  7  8  2  0
  8  9  1  0
  9 10  1  0
 10 11  2  0
 10 12  1  0
 12 13  2  0
 13 14  1  0
 14 15  2  0
 15 16  1  0
 15 17  1  0
 17 18  1  0
 18 19  2  0
 18 20  2  0
 18 21  1  0
 21 22  1  0
 22 23  1  0
 23 24  1  0
 24 25  1  0
 25 26  1  0
 17 27  2  0
  8  3  1  0
 27 12  1  0
 26 21  1  0
  1 28  1  0
  1 29  1  0
  1 30  1  0
  4 31  1  0
  5 32  1  0
  6 33  1  0
  7 34  1  0
 13 35  1  0
 14 36  1  0
 21 37  1  0
 22 38  1  0
 22 39  1  0
 23 40  1  0
 23 41  1  0
 25 42  1  0
 25 43  1  0
 26 44  1  0
 26 45  1  0
 27 46  1  0
M  CHG  2   9  -1  21   1
M  END
>  <UniqueID>  (6) 
6

>  <SMILES>  (6) 
CSc1ccccc1[N-]C(=O)c1ccc(F)c(S(=O)(=O)[NH+]2CCOCC2)c1

>  <Energy>  (6) 
61.64601318602586

>  <Genealogy>  (6) 
CSc1ccccc1[N-]C(=O)c1ccc(F)c(S(=O)(=O)[NH+]2CCOCC2)c1 (protonated)
CSc1ccccc1[N-]C(=O)c1ccc(F)c(S(=O)(=O)[NH+]2CCOCC2)c1 (3D coordinates assigned)
CSc1ccccc1[N-]C(=O)c1ccc(F)c(S(=O)(=O)[NH+]2CCOCC2)c1 (nonaromatic ring conformer: 61.64601318602586 kcal/mol)

>  <smiles>  (6) 
CSc1ccccc1NC(=O)c1ccc(F)c(S(=O)(=O)N2CCOCC2)c1

>  <score_type>  (6) 
oracle

>  <origin>  (6) 
adgpu

>  <m_score__min__energy>  (6) 
-9.8399999999999999

>  <m_primary>  (6) 
energy

$$$$
6:0
     RDKit          3D

 33 35  0  0  0  0  0  0  0  0999 V2000
   -3.1340   25.0060  -29.3540 N   0  0  0  0  0  0  0  0  0  0  0  0
   -4.3140   24.3320  -29.8010 C   0  0  0  0  0  0  0  0  0  0  0  0
   -5.5210   25.0330  -29.9340 C   0  0  0  0  0  0  0  0  0  0  0  0
   -6.6740   24.3740  -30.3720 C   0  0  0  0  0  0  0  0  0  0  0  0
   -6.6310   23.0060  -30.6750 C   0  0  0  0  0  0  0  0  0  0  0  0
   -8.0740   22.1820  -31.2510 S   0  0  0  0  0  0  0  0  0  0  0  0
   -9.0250   21.9530  -30.1080 O   0  0  0  0  0  0  0  0  0  0  0  0
   -8.7740   23.0310  -32.2760 O   0  0  0  0  0  0  0  0  0  0  0  0
   -7.6090   20.6410  -31.9600 C   0  0  0  0  0  0  0  0  0  0  0  0
   -8.3940   19.5010  -31.7440 C   0  0  0  0  0  0  0  0  0  0  0  0
   -8.0400   18.2790  -32.3220 C   0  0  0  0  0  0  0  0  0  0  0  0
   -6.8960   18.1840  -33.1340 C   0  0  0  0  0  0  0  0  0  0  0  0
   -6.5090   16.9690  -33.7350 C   0  0  0  0  0  0  0  0  0  0  0  0
   -7.1860   15.9200  -33.5560 O   0  0  0  0  0  0  0  0  0  0  0  0
   -5.3940   16.9210  -34.5180 N   0  0  0  0  0  0  0  0  0  0  0  0
   -4.6300   18.0240  -34.7440 C   0  0  0  0  0  0  0  0  0  0  0  0
   -4.9710   19.2480  -34.1720 C   0  0  0  0  0  0  0  0  0  0  0  0
   -6.1070   19.3370  -33.3600 C   0  0  0  0  0  0  0  0  0  0  0  0
   -6.4720   20.5590  -32.7740 C   0  0  0  0  0  0  0  0  0  0  0  0
   -5.4230   22.3060  -30.5500 C   0  0  0  0  0  0  0  0  0  0  0  0
   -4.2700   22.9660  -30.1120 C   0  0  0  0  0  0  0  0  0  0  0  0
   -3.0820   26.0490  -29.3540 H   0  0  0  0  0  0  0  0  0  0  0  0
   -2.3050   24.4660  -29.0200 H   0  0  0  0  0  0  0  0  0  0  0  0
   -5.5611   26.1055  -29.6929 H   0  0  0  0  0  0  0  0  0  0  0  0
   -7.6169   24.9304  -30.4790 H   0  0  0  0  0  0  0  0  0  0  0  0
   -9.2944   19.5682  -31.1157 H   0  0  0  0  0  0  0  0  0  0  0  0
   -8.6588   17.3878  -32.1410 H   0  0  0  0  0  0  0  0  0  0  0  0
   -5.1150   16.0160  -34.9600 H   0  0  0  0  0  0  0  0  0  0  0  0
   -3.7374   17.9490  -35.3824 H   0  0  0  0  0  0  0  0  0  0  0  0
   -4.3516   20.1379  -34.3575 H   0  0  0  0  0  0  0  0  0  0  0  0
   -5.8623   21.4565  -32.9548 H   0  0  0  0  0  0  0  0  0  0  0  0
   -5.3816   21.2349  -30.7970 H   0  0  0  0  0  0  0  0  0  0  0  0
   -3.3256   22.4111  -30.0113 H   0  0  0  0  0  0  0  0  0  0  0  0
  1  2  1  0
  2  3  2  0
  3  4  1  0
  4  5  2  0
  5  6  1  0
  6  7  2  0
  6  8  2  0
  6  9  1  0
  9 10  2  0
 10 11  1  0
 11 12  2  0
 12 13  1  0
 13 14  2  0
 13 15  1  0
 15 16  1  0
 16 17  2  0
 17 18  1  0
 18 19  2  0
  5 20  1  0
 20 21  2  0
 21  2  1  0
 19  9  1  0
 18 12  1  0
  1 22  1  0
  1 23  1  0
  3 24  1  0
  4 25  1  0
 10 26  1  0
 11 27  1  0
 15 28  1  0
 16 29  1  0
 17 30  1  0
 19 31  1  0
 20 32  1  0
 21 33  1  0
M  END
>  <UniqueID>  (7) 
7

>  <SMILES>  (7) 
Nc1ccc(S(=O)(=O)c2ccc3c(=O)[nH]ccc3c2)cc1

>  <Energy>  (7) 
41.27043220015758

>  <Genealogy>  (7) 
Nc1ccc(S(=O)(=O)c2ccc3c(=O)[nH]ccc3c2)cc1 (3D coordinates assigned)
Nc1ccc(S(=O)(=O)c2ccc3c(=O)[nH]ccc3c2)cc1 (optimized conformer: 41.27043220015758 kcal/mol)

>  <smiles>  (7) 
Nc1ccc(S(=O)(=O)c2ccc3c(=O)[nH]ccc3c2)cc1

>  <score_type>  (7) 
oracle

>  <origin>  (7) 
adgpu

>  <m_score__min__energy>  (7) 
-9.2799999999999994

>  <m_primary>  (7) 
energy

$$$$
7:0
     RDKit          3D

 63 66  0  0  0  0  0  0  0  0999 V2000
   -3.5130   21.5660  -33.3300 C   0  0  0  0  0  0  0  0  0  0  0  0
   -2.5740   20.6910  -32.9570 C   0  0  0  0  0  0  0  0  0  0  0  0
   -1.9450   19.7410  -33.9340 C   0  0  0  0  0  0  0  0  0  0  0  0
   -1.1430   18.6850  -33.2170 C   0  0  0  0  0  0  0  0  0  0  0  0
   -0.9310   18.8260  -31.8350 C   0  0  0  0  0  0  0  0  0  0  0  0
   -0.1030   17.9360  -31.1480 C   0  0  0  0  0  0  0  0  0  0  0  0
    0.5410   16.9080  -31.8360 C   0  0  0  0  0  0  0  0  0  0  0  0
    0.3520   16.7610  -33.2100 C   0  0  0  0  0  0  0  0  0  0  0  0
   -0.5080   17.6240  -33.9080 C   0  0  0  0  0  0  0  0  0  0  0  0
   -0.7150   17.3780  -35.6840 S   0  0  0  0  0  0  0  0  0  0  0  0
   -0.7830   15.5750  -35.5910 C   0  0  0  0  0  0  0  0  0  0  0  0
    0.1570   14.8400  -36.3290 C   0  0  0  0  0  0  0  0  0  0  0  0
    0.1980   13.4460  -36.2440 C   0  0  0  0  0  0  0  0  0  0  0  0
   -0.7080   12.7690  -35.4260 C   0  0  0  0  0  0  0  0  0  0  0  0
   -1.6690   13.4850  -34.7090 C   0  0  0  0  0  0  0  0  0  0  0  0
   -1.7340   14.8870  -34.8010 C   0  0  0  0  0  0  0  0  0  0  0  0
   -2.8220   15.5850  -34.0940 C   0  0  0  0  0  0  0  0  0  0  0  0
   -2.7960   15.6370  -32.8350 O   0  0  0  0  0  0  0  0  0  0  0  0
   -3.9020   16.1840  -34.8310 N   0  0  0  0  0  0  0  0  0  0  0  0
   -4.9210   16.9970  -34.2290 C   0  0  0  0  0  0  0  0  0  0  0  0
   -5.8670   16.4530  -33.3430 C   0  0  0  0  0  0  0  0  0  0  0  0
   -6.8450   17.2700  -32.7690 C   0  0  0  0  0  0  0  0  0  0  0  0
   -6.8950   18.6340  -33.0780 C   0  0  0  0  0  0  0  0  0  0  0  0
   -8.1080   19.6520  -32.3120 S   0  0  0  0  0  0  0  0  0  0  0  0
   -8.7780   18.8890  -31.2050 O   0  0  0  0  0  0  0  0  0  0  0  0
   -9.1590   20.0580  -33.3070 O   0  0  0  0  0  0  0  0  0  0  0  0
   -7.3240   21.0910  -31.6690 C   0  0  0  0  0  0  0  0  0  0  0  0
   -5.9820   21.0430  -31.2710 C   0  0  0  0  0  0  0  0  0  0  0  0
   -5.3670   22.1790  -30.7380 C   0  0  0  0  0  0  0  0  0  0  0  0
   -6.0890   23.3700  -30.5930 C   0  0  0  0  0  0  0  0  0  0  0  0
   -5.3160   24.7940  -29.9070 S   0  0  0  0  0  0  0  0  0  0  0  0
   -4.5860   24.3750  -28.3390 C   0  0  0  0  0  0  0  0  0  0  0  0
   -4.2500   25.2950  -30.8420 O   0  0  0  0  0  0  0  0  0  0  0  0
   -6.3340   25.8820  -29.7090 O   0  0  0  0  0  0  0  0  0  0  0  0
   -7.4360   23.4120  -30.9720 C   0  0  0  0  0  0  0  0  0  0  0  0
   -8.0510   22.2770  -31.5100 C   0  0  0  0  0  0  0  0  0  0  0  0
   -5.9680   19.1750  -33.9790 C   0  0  0  0  0  0  0  0  0  0  0  0
   -4.9960   18.3570  -34.5610 C   0  0  0  0  0  0  0  0  0  0  0  0
   -3.9541   22.2488  -32.5889 H   0  0  0  0  0  0  0  0  0  0  0  0
   -3.8447   21.6033  -34.3781 H   0  0  0  0  0  0  0  0  0  0  0  0
   -2.2534   20.6665  -31.9050 H   0  0  0  0  0  0  0  0  0  0  0  0
   -2.7361   19.2542  -34.5233 H   0  0  0  0  0  0  0  0  0  0  0  0
   -1.2703   20.3087  -34.5916 H   0  0  0  0  0  0  0  0  0  0  0  0
   -1.4220   19.6452  -31.2893 H   0  0  0  0  0  0  0  0  0  0  0  0
    0.0415   18.0458  -30.0631 H   0  0  0  0  0  0  0  0  0  0  0  0
    1.1988   16.2123  -31.2944 H   0  0  0  0  0  0  0  0  0  0  0  0
    0.8809   15.9626  -33.7512 H   0  0  0  0  0  0  0  0  0  0  0  0
    0.8691   15.3667  -36.9813 H   0  0  0  0  0  0  0  0  0  0  0  0
    0.9447   12.8817  -36.8220 H   0  0  0  0  0  0  0  0  0  0  0  0
   -0.6651   11.6727  -35.3462 H   0  0  0  0  0  0  0  0  0  0  0  0
   -2.3818   12.9475  -34.0663 H   0  0  0  0  0  0  0  0  0  0  0  0
   -3.8750   16.1320  -35.8740 H   0  0  0  0  0  0  0  0  0  0  0  0
   -5.8375   15.3805  -33.1005 H   0  0  0  0  0  0  0  0  0  0  0  0
   -7.5784   16.8391  -32.0715 H   0  0  0  0  0  0  0  0  0  0  0  0
   -5.4109   20.1090  -31.3782 H   0  0  0  0  0  0  0  0  0  0  0  0
   -4.3115   22.1375  -30.4311 H   0  0  0  0  0  0  0  0  0  0  0  0
   -5.2281   24.7435  -27.5254 H   0  0  0  0  0  0  0  0  0  0  0  0
   -4.4864   23.2823  -28.2612 H   0  0  0  0  0  0  0  0  0  0  0  0
   -3.5922   24.8402  -28.2612 H   0  0  0  0  0  0  0  0  0  0  0  0
   -8.0124   24.3404  -30.8463 H   0  0  0  0  0  0  0  0  0  0  0  0
   -9.1088   22.3161  -31.8091 H   0  0  0  0  0  0  0  0  0  0  0  0
   -6.0056   20.2457  -34.2286 H   0  0  0  0  0  0  0  0  0  0  0  0
   -4.2851   18.7829  -35.2843 H   0  0  0  0  0  0  0  0  0  0  0  0
  1  2  2  0
  2  3  1  0
  3  4  1  0
  4  5  2  0
  5  6  1  0
  6  7  2  0
  7  8  1  0
  8  9  2  0
  9 10  1  0
 10 11  1  0
 11 12  2  0
 12 13  1  0
 13 14  2  0
 14 15  1  0
 15 16  2  0
 16 17  1  0
 17 18  2  0
 17 19  1  0
 19 20  1  0
 20 21  2  0
 21 22  1  0
 22 23  2  0
 23 24  1  0
 24 25  2  0
 24 26  2  0
 24 27  1  0
 27 28  2  0
 28 29  1  0
 29 30  2  0
 30 31  1  0
 31 32  1  0
 31 33  2  0
 31 34  2  0
 30 35  1  0
 35 36  2  0
 23 37  1  0
 37 38  2  0
  9  4  1  0
 16 11  1  0
 38 20  1  0
 36 27  1  0
  1 39  1  0
  1 40  1  0
  2 41  1  0
  3 42  1  0
  3 43  1  0
  5 44  1  0
  6 45  1  0
  7 46  1  0
  8 47  1  0
 12 48  1  0
 13 49  1  0
 14 50  1  0
 15 51  1  0
 19 52  1  0
 21 53  1  0
 22 54  1  0
 28 55  1  0
 29 56  1  0
 32 57  1  0
 32 58  1  0
 32 59  1  0
 35 60  1  0
 36 61  1  0
 37 62  1  0
 38 63  1  0
M  END
>  <UniqueID>  (8) 
8

>  <SMILES>  (8) 
C=CCc1ccccc1Sc1ccccc1C(=O)Nc1ccc(S(=O)(=O)c2ccc(S(C)(=O)=O)cc2)cc1

>  <Energy>  (8) 
69.69102951765421

>  <Genealogy>  (8) 
C=CCc1ccccc1Sc1ccccc1C(=O)Nc1ccc(S(=O)(=O)c2ccc(S(C)(=O)=O)cc2)cc1 (3D coordinates assigned)
C=CCc1ccccc1Sc1ccccc1C(=O)Nc1ccc(S(=O)(=O)c2ccc(S(C)(=O)=O)cc2)cc1 (optimized conformer: 69.69102951765421 kcal/mol)

>  <smiles>  (8) 
C=CCc1ccccc1Sc1ccccc1C(=O)Nc1ccc(S(=O)(=O)c2ccc(S(C)(=O)=O)cc2)cc1

>  <score_type>  (8) 
oracle

>  <origin>  (8) 
adgpu

>  <m_score__min__energy>  (8) 
-11.800000000000001

>  <m_primary>  (8) 
energy

$$$$
8:0
     RDKit          3D

 58 61  0  0  0  0  0  0  0  0999 V2000
   -2.2930   15.4420  -34.9720 C   0  0  0  0  0  0  0  0  0  0  0  0
   -1.2940   16.2570  -34.3680 O   0  0  0  0  0  0  0  0  0  0  0  0
   -1.5460   17.4780  -33.7240 C   0  0  0  0  0  0  0  0  0  0  0  0
   -0.4610   18.1980  -33.2290 C   0  0  0  0  0  0  0  0  0  0  0  0
   -0.6580   19.4150  -32.5820 C   0  0  0  0  0  0  0  0  0  0  0  0
   -1.9440   19.9590  -32.4280 C   0  0  0  0  0  0  0  0  0  0  0  0
   -2.0420   21.5160  -31.5670 S   0  0  0  0  0  0  0  0  0  0  0  0
   -3.1320   22.2940  -32.2420 O   0  0  0  0  0  0  0  0  0  0  0  0
   -0.7620   22.2950  -31.6290 O   0  0  0  0  0  0  0  0  0  0  0  0
   -2.3970   21.2560  -29.8430 C   0  0  0  0  0  0  0  0  0  0  0  0
   -1.7410   20.1880  -29.2050 C   0  0  0  0  0  0  0  0  0  0  0  0
   -1.9660   19.9050  -27.8590 C   0  0  0  0  0  0  0  0  0  0  0  0
   -1.1530   18.5500  -27.0980 Cl  0  0  0  0  0  0  0  0  0  0  0  0
   -2.8360   20.7020  -27.1180 C   0  0  0  0  0  0  0  0  0  0  0  0
   -3.4650   21.7910  -27.7160 C   0  0  0  0  0  0  0  0  0  0  0  0
   -3.2490   22.0990  -29.0710 C   0  0  0  0  0  0  0  0  0  0  0  0
   -4.0290   23.5610  -29.7140 S   0  0  0  0  0  0  0  0  0  0  0  0
   -4.1520   24.5760  -28.6120 O   0  0  0  0  0  0  0  0  0  0  0  0
   -3.1890   24.1570  -30.8080 O   0  0  0  0  0  0  0  0  0  0  0  0
   -5.6030   23.1830  -30.4100 C   0  0  0  0  0  0  0  0  0  0  0  0
   -6.6420   22.6950  -29.6040 C   0  0  0  0  0  0  0  0  0  0  0  0
   -7.8840   22.3920  -30.1680 C   0  0  0  0  0  0  0  0  0  0  0  0
   -8.0980   22.5620  -31.5440 C   0  0  0  0  0  0  0  0  0  0  0  0
   -9.4430   22.2650  -32.1390 C   0  0  0  0  0  0  0  0  0  0  0  0
   -7.0670   23.0800  -32.3420 C   0  0  0  0  0  0  0  0  0  0  0  0
   -5.8260   23.3890  -31.7770 C   0  0  0  0  0  0  0  0  0  0  0  0
   -3.0630   19.2170  -32.9020 C   0  0  0  0  0  0  0  0  0  0  0  0
   -4.7480   19.7360  -32.6860 S   0  0  0  0  0  0  0  0  0  0  0  0
   -4.9190   20.2700  -31.2920 O   0  0  0  0  0  0  0  0  0  0  0  0
   -5.0860   20.8300  -33.6600 O   0  0  0  0  0  0  0  0  0  0  0  0
   -5.8470   18.3950  -32.9990 C   0  0  0  0  0  0  0  0  0  0  0  0
   -5.5140   17.3520  -33.7880 N   0  0  0  0  0  0  0  0  0  0  0  0
   -6.6020   16.5570  -33.7620 C   0  0  0  0  0  0  0  0  0  0  0  0
   -7.5730   17.1260  -32.9680 C   0  0  0  0  0  0  0  0  0  0  0  0
   -7.0970   18.2920  -32.5000 N   0  0  0  0  0  0  0  0  0  0  0  0
   -7.7750   19.1940  -31.5750 C   0  0  0  0  0  0  0  0  0  0  0  0
   -2.8430   17.9920  -33.5580 C   0  0  0  0  0  0  0  0  0  0  0  0
   -2.8912   14.9540  -34.1884 H   0  0  0  0  0  0  0  0  0  0  0  0
   -2.9476   16.0671  -35.5971 H   0  0  0  0  0  0  0  0  0  0  0  0
   -1.8121   14.6752  -35.5971 H   0  0  0  0  0  0  0  0  0  0  0  0
    0.5582   17.8024  -33.3501 H   0  0  0  0  0  0  0  0  0  0  0  0
    0.2100   19.9610  -32.1838 H   0  0  0  0  0  0  0  0  0  0  0  0
   -1.0383   19.5654  -29.7782 H   0  0  0  0  0  0  0  0  0  0  0  0
   -3.0262   20.4708  -26.0595 H   0  0  0  0  0  0  0  0  0  0  0  0
   -4.1415   22.4202  -27.1190 H   0  0  0  0  0  0  0  0  0  0  0  0
   -6.4788   22.5505  -28.5258 H   0  0  0  0  0  0  0  0  0  0  0  0
   -8.6982   22.0182  -29.5297 H   0  0  0  0  0  0  0  0  0  0  0  0
  -10.1733   22.1037  -31.3323 H   0  0  0  0  0  0  0  0  0  0  0  0
   -9.7646   23.1138  -32.7604 H   0  0  0  0  0  0  0  0  0  0  0  0
   -9.3772   21.3597  -32.7604 H   0  0  0  0  0  0  0  0  0  0  0  0
   -7.2357   23.2437  -33.4166 H   0  0  0  0  0  0  0  0  0  0  0  0
   -5.0221   23.7953  -32.4084 H   0  0  0  0  0  0  0  0  0  0  0  0
   -6.6997   15.5992  -34.2941 H   0  0  0  0  0  0  0  0  0  0  0  0
   -8.5646   16.7003  -32.7544 H   0  0  0  0  0  0  0  0  0  0  0  0
   -7.5503   18.8951  -30.5405 H   0  0  0  0  0  0  0  0  0  0  0  0
   -7.4250   20.2231  -31.7436 H   0  0  0  0  0  0  0  0  0  0  0  0
   -8.8608   19.1438  -31.7436 H   0  0  0  0  0  0  0  0  0  0  0  0
   -3.7020   17.4264  -33.9480 H   0  0  0  0  0  0  0  0  0  0  0  0
  1  2  1  0
  2  3  1  0
  3  4  2  0
  4  5  1  0
  5  6  2  0
  6  7  1  0
  7  8  2  0
  7  9  2  0
  7 10  1  0
 10 11  2  0
 11 12  1  0
 12 13  1  0
 12 14  2  0
 14 15  1  0
 15 16  2  0
 16 17  1  0
 17 18  2  0
 17 19  2  0
 17 20  1  0
 20 21  2  0
 21 22  1  0
 22 23  2  0
 23 24  1  0
 23 25  1  0
 25 26  2  0
  6 27  1  0
 27 28  1  0
 28 29  2  0
 28 30  2  0
 28 31  1  0
 31 32  2  0
 32 33  1  0
 33 34  2  0
 34 35  1  0
 35 36  1  0
 27 37  2  0
 37  3  1  0
 16 10  1  0
 26 20  1  0
 35 31  1  0
  1 38  1  0
  1 39  1  0
  1 40  1  0
  4 41  1  0
  5 42  1  0
 11 43  1  0
 14 44  1  0
 15 45  1  0
 21 46  1  0
 22 47  1  0
 24 48  1  0
 24 49  1  0
 24 50  1  0
 25 51  1  0
 26 52  1  0
 33 53  1  0
 34 54  1  0
 36 55  1  0
 36 56  1  0
 36 57  1  0
 37 58  1  0
M  END
>  <UniqueID>  (9) 
9

>  <SMILES>  (9) 
COc1ccc(S(=O)(=O)c2cc(Cl)ccc2S(=O)(=O)c2ccc(C)cc2)c(S(=O)(=O)c2nccn2C)c1

>  <Energy>  (9) 
101.44643687722557

>  <Genealogy>  (9) 
COc1ccc(S(=O)(=O)c2cc(Cl)ccc2S(=O)(=O)c2ccc(C)cc2)c(S(=O)(=O)c2nccn2C)c1 (3D coordinates assigned)
COc1ccc(S(=O)(=O)c2cc(Cl)ccc2S(=O)(=O)c2ccc(C)cc2)c(S(=O)(=O)c2nccn2C)c1 (optimized conformer: 101.44643687722557 kcal/mol)

>  <smiles>  (9) 
COc1ccc(S(=O)(=O)c2cc(Cl)ccc2S(=O)(=O)c2ccc(C)cc2)c(S(=O)(=O)c2nccn2C)c1

>  <score_type>  (9) 
oracle

>  <origin>  (9) 
adgpu

>  <m_score__min__energy>  (9) 
-10.550000000000001

>  <m_primary>  (9) 
energy

$$$$
9:0
     RDKit          3D

 42 44  0  0  0  0  0  0  0  0999 V2000
   -7.9920   21.1170  -31.3580 H   0  0  0  0  0  0  0  0  0  0  0  0
   -8.1170   22.0700  -31.0380 O   0  0  0  0  0  0  0  0  0  0  0  0
   -7.0430   22.9530  -30.9290 C   0  0  0  0  0  0  0  0  0  0  0  0
   -7.2600   24.2380  -30.4080 C   0  0  0  0  0  0  0  0  0  0  0  0
   -8.2699   24.5343  -30.0881 H   0  0  0  0  0  0  0  0  0  0  0  0
   -6.2040   25.1420  -30.2930 C   0  0  0  0  0  0  0  0  0  0  0  0
   -6.3832   26.1468  -29.8827 H   0  0  0  0  0  0  0  0  0  0  0  0
   -4.9200   24.7730  -30.6980 C   0  0  0  0  0  0  0  0  0  0  0  0
   -3.8700   25.6750  -30.5850 O   0  0  0  0  0  0  0  0  0  0  0  0
   -4.6910   23.4950  -31.2180 C   0  0  0  0  0  0  0  0  0  0  0  0
   -3.6770   23.2105  -31.5357 H   0  0  0  0  0  0  0  0  0  0  0  0
   -5.7430   22.5700  -31.3390 C   0  0  0  0  0  0  0  0  0  0  0  0
   -5.4380   21.2310  -31.8970 C   0  0  0  0  0  0  0  0  0  0  0  0
   -4.4310   21.0289  -32.2909 H   0  0  0  0  0  0  0  0  0  0  0  0
   -6.3340   20.2910  -31.9310 N   0  0  0  0  0  0  0  0  0  0  0  0
   -6.1610   18.9630  -32.4540 C   0  0  0  0  0  0  0  0  0  0  0  0
   -5.8920   17.9260  -31.5500 C   0  0  0  0  0  0  0  0  0  0  0  0
   -5.8132   18.1470  -30.4753 H   0  0  0  0  0  0  0  0  0  0  0  0
   -5.7230   16.6140  -32.0010 C   0  0  0  0  0  0  0  0  0  0  0  0
   -5.5061   15.8106  -31.2816 H   0  0  0  0  0  0  0  0  0  0  0  0
   -5.8290   16.3190  -33.3660 C   0  0  0  0  0  0  0  0  0  0  0  0
   -5.6150   14.6620  -33.9210 S   0  0  0  0  0  0  0  0  0  0  0  0
   -5.3790   13.7860  -32.7220 O   0  0  0  0  0  0  0  0  0  0  0  0
   -6.8580   14.2010  -34.6290 O   0  0  0  0  0  0  0  0  0  0  0  0
   -4.2410   14.5900  -35.0040 N   0  0  0  0  0  0  0  0  0  0  0  0
   -3.4110   13.3880  -34.7620 C   0  0  0  0  0  0  0  0  0  0  0  0
   -4.0195   12.6415  -34.2305 H   0  0  0  0  0  0  0  0  0  0  0  0
   -3.0727   13.0159  -35.7403 H   0  0  0  0  0  0  0  0  0  0  0  0
   -2.1570   13.6900  -33.9210 C   0  0  0  0  0  0  0  0  0  0  0  0
   -1.8600   12.7833  -33.3736 H   0  0  0  0  0  0  0  0  0  0  0  0
   -1.3446   14.0083  -34.5908 H   0  0  0  0  0  0  0  0  0  0  0  0
   -2.4240   14.7230  -33.0000 O   0  0  0  0  0  0  0  0  0  0  0  0
   -2.6010   15.9540  -33.6820 C   0  0  0  0  0  0  0  0  0  0  0  0
   -3.0991   16.6601  -33.0013 H   0  0  0  0  0  0  0  0  0  0  0  0
   -1.6024   16.3001  -33.9868 H   0  0  0  0  0  0  0  0  0  0  0  0
   -3.4520   15.8330  -34.9700 C   0  0  0  0  0  0  0  0  0  0  0  0
   -4.1397   16.6900  -35.0214 H   0  0  0  0  0  0  0  0  0  0  0  0
   -2.7637   15.8182  -35.8279 H   0  0  0  0  0  0  0  0  0  0  0  0
   -6.1190   17.3450  -34.2740 C   0  0  0  0  0  0  0  0  0  0  0  0
   -6.2151   17.1164  -35.3457 H   0  0  0  0  0  0  0  0  0  0  0  0
   -6.2870   18.6590  -33.8250 C   0  0  0  0  0  0  0  0  0  0  0  0
   -6.5183   19.4584  -34.5444 H   0  0  0  0  0  0  0  0  0  0  0  0
  1  2  1  0
  2  3  1  0
  3  4  2  0
  4  5  1  0
  4  6  1  0
  6  7  1  0
  6  8  2  0
  8  9  1  0
  8 10  1  0
 10 11  1  0
 10 12  2  0
 12 13  1  0
 13 14  1  0
 13 15  2  0
 15 16  1  0
 16 17  2  0
 17 18  1  0
 17 19  1  0
 19 20  1  0
 19 21  2  0
 21 22  1  0
 22 23  2  0
 22 24  2  0
 22 25  1  0
 25 26  1  0
 26 27  1  0
 26 28  1  0
 26 29  1  0
 29 30  1  0
 29 31  1  0
 29 32  1  0
 32 33  1  0
 33 34  1  0
 33 35  1  0
 33 36  1  0
 36 37  1  0
 36 38  1  0
 21 39  1  0
 39 40  1  0
 39 41  2  0
 41 42  1  0
 12  3  1  0
 41 16  1  0
 36 25  1  0
M  CHG  1   9  -1
M  END
>  <UniqueID>  (10) 
10

>  <SMILES>  (10) 
O=S(=O)(c1ccc(/N=C/c2cc([O-])ccc2O)cc1)N1CCOCC1

>  <Energy>  (10) 
58.68432961342408

>  <Genealogy>  (10) 
O=S(=O)(c1ccc(N=Cc2cc([O-])ccc2O)cc1)N1CCOCC1 (protonated)
O=S(=O)(c1ccc(/N=C/c2cc([O-])ccc2O)cc1)N1CCOCC1 (cis-trans isomerization)
O=S(=O)(c1ccc(/N=C/c2cc([O-])ccc2O)cc1)N1CCOCC1 (3D coordinates assigned)
O=S(=O)(c1ccc(/N=C/c2cc([O-])ccc2O)cc1)N1CCOCC1 (nonaromatic ring conformer: 58.68432961342408 kcal/mol)

>  <smiles>  (10) 
O=S(=O)(c1ccc(N=Cc2cc(O)ccc2O)cc1)N1CCOCC1

>  <score_type>  (10) 
oracle

>  <origin>  (10) 
adgpu

>  <m_score__min__energy>  (10) 
-9.5399999999999991

>  <m_primary>  (10) 
energy

$$$$
10:0
     RDKit          3D

 52 54  0  0  0  0  0  0  0  0999 V2000
   -0.4620   24.0980  -25.4230 C   0  0  0  0  0  0  0  0  0  0  0  0
   -1.2080   23.3930  -26.4720 N   0  0  0  0  0  0  0  0  0  0  0  0
   -2.2610   24.2610  -27.0170 C   0  0  0  0  0  0  0  0  0  0  0  0
   -0.1190   22.9110  -27.7500 S   0  0  0  0  0  0  0  0  0  0  0  0
    0.6400   24.1150  -28.2350 O   0  0  0  0  0  0  0  0  0  0  0  0
    0.8770   21.9190  -27.2150 O   0  0  0  0  0  0  0  0  0  0  0  0
   -0.9870   22.1880  -29.1060 C   0  0  0  0  0  0  0  0  0  0  0  0
   -1.8180   21.0790  -28.9040 C   0  0  0  0  0  0  0  0  0  0  0  0
   -2.5100   20.5110  -29.9780 C   0  0  0  0  0  0  0  0  0  0  0  0
   -2.3900   21.0570  -31.2650 C   0  0  0  0  0  0  0  0  0  0  0  0
   -3.2560   20.3360  -32.6250 S   0  0  0  0  0  0  0  0  0  0  0  0
   -2.6420   20.8400  -33.9010 O   0  0  0  0  0  0  0  0  0  0  0  0
   -3.0720   18.8440  -32.5880 O   0  0  0  0  0  0  0  0  0  0  0  0
   -4.9710   20.7010  -32.6250 N   0  0  0  0  0  0  0  0  0  0  0  0
   -5.5330   20.8440  -31.2690 C   0  0  0  0  0  0  0  0  0  0  0  0
   -5.6750   22.2990  -30.9100 C   0  0  0  0  0  0  0  0  0  0  0  0
   -6.9360   22.8470  -30.6280 C   0  0  0  0  0  0  0  0  0  0  0  0
   -7.0600   24.2000  -30.3000 C   0  0  0  0  0  0  0  0  0  0  0  0
   -5.9290   25.0230  -30.2590 C   0  0  0  0  0  0  0  0  0  0  0  0
   -6.0810   26.3690  -29.9280 O   0  0  0  0  0  0  0  0  0  0  0  0
   -4.6660   24.4850  -30.5530 C   0  0  0  0  0  0  0  0  0  0  0  0
   -3.5320   25.2880  -30.5230 O   0  0  0  0  0  0  0  0  0  0  0  0
   -4.5420   23.1300  -30.8810 C   0  0  0  0  0  0  0  0  0  0  0  0
   -5.7510   19.8090  -33.5080 C   0  0  0  0  0  0  0  0  0  0  0  0
   -7.0870   19.3990  -32.9480 C   0  0  0  0  0  0  0  0  0  0  0  0
   -7.3430   18.2180  -32.2790 C   0  0  0  0  0  0  0  0  0  0  0  0
   -8.6910   18.2360  -31.9930 C   0  0  0  0  0  0  0  0  0  0  0  0
   -9.1770   19.4180  -32.5120 C   0  0  0  0  0  0  0  0  0  0  0  0
   -8.2000   20.0850  -33.0810 O   0  0  0  0  0  0  0  0  0  0  0  0
   -1.5390   22.1510  -31.4690 C   0  0  0  0  0  0  0  0  0  0  0  0
   -0.8480   22.7190  -30.3960 C   0  0  0  0  0  0  0  0  0  0  0  0
   -0.8144   23.7650  -24.4356 H   0  0  0  0  0  0  0  0  0  0  0  0
    0.6106   23.8759  -25.5236 H   0  0  0  0  0  0  0  0  0  0  0  0
   -0.6231   25.1815  -25.5236 H   0  0  0  0  0  0  0  0  0  0  0  0
   -2.8206   24.7222  -26.1899 H   0  0  0  0  0  0  0  0  0  0  0  0
   -1.8041   25.0483  -27.6346 H   0  0  0  0  0  0  0  0  0  0  0  0
   -2.9466   23.6622  -27.6346 H   0  0  0  0  0  0  0  0  0  0  0  0
   -1.9268   20.6528  -27.8958 H   0  0  0  0  0  0  0  0  0  0  0  0
   -3.1511   19.6325  -29.8133 H   0  0  0  0  0  0  0  0  0  0  0  0
   -6.5221   20.3640  -31.2342 H   0  0  0  0  0  0  0  0  0  0  0  0
   -4.8540   20.3637  -30.5491 H   0  0  0  0  0  0  0  0  0  0  0  0
   -7.8310   22.2086  -30.6653 H   0  0  0  0  0  0  0  0  0  0  0  0
   -8.0511   24.6198  -30.0731 H   0  0  0  0  0  0  0  0  0  0  0  0
   -5.2880   26.9610  -29.7090 H   0  0  0  0  0  0  0  0  0  0  0  0
   -3.5519   22.7131  -31.1175 H   0  0  0  0  0  0  0  0  0  0  0  0
   -5.9221   20.3309  -34.4611 H   0  0  0  0  0  0  0  0  0  0  0  0
   -5.1619   18.8876  -33.6259 H   0  0  0  0  0  0  0  0  0  0  0  0
   -6.6209   17.4274  -32.0269 H   0  0  0  0  0  0  0  0  0  0  0  0
   -9.2638   17.4637  -31.4587 H   0  0  0  0  0  0  0  0  0  0  0  0
  -10.2240   19.7510  -32.4574 H   0  0  0  0  0  0  0  0  0  0  0  0
   -1.4142   22.5653  -32.4803 H   0  0  0  0  0  0  0  0  0  0  0  0
   -0.1924   23.5862  -30.5639 H   0  0  0  0  0  0  0  0  0  0  0  0
  1  2  1  0
  2  3  1  0
  2  4  1  0
  4  5  2  0
  4  6  2  0
  4  7  1  0
  7  8  2  0
  8  9  1  0
  9 10  2  0
 10 11  1  0
 11 12  2  0
 11 13  2  0
 11 14  1  0
 14 15  1  0
 15 16  1  0
 16 17  2  0
 17 18  1  0
 18 19  2  0
 19 20  1  0
 19 21  1  0
 21 22  1  0
 21 23  2  0
 14 24  1  0
 24 25  1  0
 25 26  2  0
 26 27  1  0
 27 28  2  0
 28 29  1  0
 10 30  1  0
 30 31  2  0
 31  7  1  0
 23 16  1  0
 29 25  1  0
  1 32  1  0
  1 33  1  0
  1 34  1  0
  3 35  1  0
  3 36  1  0
  3 37  1  0
  8 38  1  0
  9 39  1  0
 15 40  1  0
 15 41  1  0
 17 42  1  0
 18 43  1  0
 20 44  1  0
 23 45  1  0
 24 46  1  0
 24 47  1  0
 26 48  1  0
 27 49  1  0
 28 50  1  0
 30 51  1  0
 31 52  1  0
M  CHG  1  22  -1
M  END
>  <UniqueID>  (11) 
11

>  <SMILES>  (11) 
CN(C)S(=O)(=O)c1ccc(S(=O)(=O)N(Cc2ccc(O)c([O-])c2)Cc2ccco2)cc1

>  <Energy>  (11) 
76.67316948453706

>  <Genealogy>  (11) 
CN(C)S(=O)(=O)c1ccc(S(=O)(=O)N(Cc2ccc(O)c([O-])c2)Cc2ccco2)cc1 (protonated)
CN(C)S(=O)(=O)c1ccc(S(=O)(=O)N(Cc2ccc(O)c([O-])c2)Cc2ccco2)cc1 (3D coordinates assigned)
CN(C)S(=O)(=O)c1ccc(S(=O)(=O)N(Cc2ccc(O)c([O-])c2)Cc2ccco2)cc1 (optimized conformer: 76.67316948453706 kcal/mol)

>  <smiles>  (11) 
CN(C)S(=O)(=O)c1ccc(S(=O)(=O)N(Cc2ccc(O)c(O)c2)Cc2ccco2)cc1

>  <score_type>  (11) 
oracle

>  <origin>  (11) 
adgpu

>  <m_score__min__energy>  (11) 
-11.800000000000001

>  <m_primary>  (11) 
energy

$$$$
11:0
     RDKit          3D

 46 48  0  0  0  0  0  0  0  0999 V2000
   -5.3980   23.4180  -32.3520 C   0  0  0  0  0  0  0  0  0  0  0  0
   -6.9000   23.4220  -32.6330 C   0  0  0  0  0  0  0  0  0  0  0  0
   -7.6840   23.2680  -31.3890 N   0  0  0  0  0  0  0  0  0  0  0  0
   -6.8050   23.2150  -30.1990 C   0  0  0  0  0  0  0  0  0  0  0  0
   -6.5340   24.6260  -29.6900 C   0  0  0  0  0  0  0  0  0  0  0  0
   -8.7250   21.8520  -31.4510 S   0  0  0  0  0  0  0  0  0  0  0  0
   -9.8760   22.1210  -32.3810 O   0  0  0  0  0  0  0  0  0  0  0  0
   -9.3010   21.5760  -30.0900 O   0  0  0  0  0  0  0  0  0  0  0  0
   -7.8580   20.4110  -31.9930 C   0  0  0  0  0  0  0  0  0  0  0  0
   -8.4150   19.1370  -31.8070 C   0  0  0  0  0  0  0  0  0  0  0  0
   -7.7260   18.0000  -32.2330 C   0  0  0  0  0  0  0  0  0  0  0  0
   -6.4800   18.1250  -32.8530 C   0  0  0  0  0  0  0  0  0  0  0  0
   -5.9170   19.3920  -33.0620 C   0  0  0  0  0  0  0  0  0  0  0  0
   -4.6240   19.4950  -33.6820 N   0  0  0  0  0  0  0  0  0  0  0  0
   -3.5280   20.2470  -33.1250 C   0  0  0  0  0  0  0  0  0  0  0  0
   -3.7120   20.9560  -32.0960 O   0  0  0  0  0  0  0  0  0  0  0  0
   -2.1790   20.2150  -33.7390 C   0  0  0  0  0  0  0  0  0  0  0  0
   -1.6550   18.9820  -34.2140 C   0  0  0  0  0  0  0  0  0  0  0  0
   -0.3760   18.9210  -34.7970 C   0  0  0  0  0  0  0  0  0  0  0  0
    0.3560   20.0990  -34.8820 C   0  0  0  0  0  0  0  0  0  0  0  0
   -0.1280   21.2790  -34.4220 C   0  0  0  0  0  0  0  0  0  0  0  0
   -1.3880   21.3860  -33.8400 C   0  0  0  0  0  0  0  0  0  0  0  0
    0.8120   22.2710  -34.6260 O   0  0  0  0  0  0  0  0  0  0  0  0
    1.9550   21.6770  -35.2560 C   0  0  0  0  0  0  0  0  0  0  0  0
    1.6220   20.2890  -35.4010 O   0  0  0  0  0  0  0  0  0  0  0  0
   -6.6030   20.5320  -32.6040 C   0  0  0  0  0  0  0  0  0  0  0  0
   -5.2283   23.4175  -31.2652 H   0  0  0  0  0  0  0  0  0  0  0  0
   -4.9446   22.5186  -32.7943 H   0  0  0  0  0  0  0  0  0  0  0  0
   -4.9398   24.3149  -32.7943 H   0  0  0  0  0  0  0  0  0  0  0  0
   -7.1717   24.3746  -33.1112 H   0  0  0  0  0  0  0  0  0  0  0  0
   -7.1300   22.5729  -33.2934 H   0  0  0  0  0  0  0  0  0  0  0  0
   -7.2972   22.6303  -29.4079 H   0  0  0  0  0  0  0  0  0  0  0  0
   -5.8516   22.7403  -30.4742 H   0  0  0  0  0  0  0  0  0  0  0  0
   -6.5341   24.6253  -28.5900 H   0  0  0  0  0  0  0  0  0  0  0  0
   -5.5541   24.9661  -30.0563 H   0  0  0  0  0  0  0  0  0  0  0  0
   -7.3182   25.3049  -30.0563 H   0  0  0  0  0  0  0  0  0  0  0  0
   -9.3978   19.0336  -31.3239 H   0  0  0  0  0  0  0  0  0  0  0  0
   -8.1651   17.0031  -32.0802 H   0  0  0  0  0  0  0  0  0  0  0  0
   -5.9381   17.2249  -33.1787 H   0  0  0  0  0  0  0  0  0  0  0  0
   -4.5090   19.0330  -34.6100 H   0  0  0  0  0  0  0  0  0  0  0  0
   -2.2562   18.0652  -34.1248 H   0  0  0  0  0  0  0  0  0  0  0  0
    0.0315   17.9711  -35.1735 H   0  0  0  0  0  0  0  0  0  0  0  0
   -1.7591   22.3527  -33.4689 H   0  0  0  0  0  0  0  0  0  0  0  0
    2.1359   22.1356  -36.2393 H   0  0  0  0  0  0  0  0  0  0  0  0
    2.8724   21.8216  -34.6665 H   0  0  0  0  0  0  0  0  0  0  0  0
   -6.1500   21.5269  -32.7267 H   0  0  0  0  0  0  0  0  0  0  0  0
  1  2  1  0
  2  3  1  0
  3  4  1  0
  4  5  1  0
  3  6  1  0
  6  7  2  0
  6  8  2  0
  6  9  1  0
  9 10  2  0
 10 11  1  0
 11 12  2  0
 12 13  1  0
 13 14  1  0
 14 15  1  0
 15 16  2  0
 15 17  1  0
 17 18  2  0
 18 19  1  0
 19 20  2  0
 20 21  1  0
 21 22  2  0
 21 23  1  0
 23 24  1  0
 24 25  1  0
 13 26  2  0
 26  9  1  0
 22 17  1  0
 25 20  1  0
  1 27  1  0
  1 28  1  0
  1 29  1  0
  2 30  1  0
  2 31  1  0
  4 32  1  0
  4 33  1  0
  5 34  1  0
  5 35  1  0
  5 36  1  0
 10 37  1  0
 11 38  1  0
 12 39  1  0
 14 40  1  0
 18 41  1  0
 19 42  1  0
 22 43  1  0
 24 44  1  0
 24 45  1  0
 26 46  1  0
M  END
>  <UniqueID>  (12) 
12

>  <SMILES>  (12) 
CCN(CC)S(=O)(=O)c1cccc(NC(=O)c2ccc3c(c2)OCO3)c1

>  <Energy>  (12) 
80.38584316786849

>  <Genealogy>  (12) 
CCN(CC)S(=O)(=O)c1cccc(NC(=O)c2ccc3c(c2)OCO3)c1 (3D coordinates assigned)
CCN(CC)S(=O)(=O)c1cccc(NC(=O)c2ccc3c(c2)OCO3)c1 (nonaromatic ring conformer: 80.38584316786849 kcal/mol)

>  <smiles>  (12) 
CCN(CC)S(=O)(=O)c1cccc(NC(=O)c2ccc3c(c2)OCO3)c1

>  <score_type>  (12) 
oracle

>  <origin>  (12) 
adgpu

>  <m_score__min__energy>  (12) 
-8.6600000000000001

>  <m_primary>  (12) 
energy

$$$$
12:0
     RDKit          3D

 54 56  0  0  0  0  0  0  0  0999 V2000
   -9.4830   19.9750  -32.0350 C   0  0  0  0  0  0  0  0  0  0  0  0
   -8.1630   19.5150  -32.5840 C   0  0  0  0  0  0  0  0  0  0  0  0
   -7.7940   18.1640  -32.5030 C   0  0  0  0  0  0  0  0  0  0  0  0
   -6.5450   17.7430  -32.9690 C   0  0  0  0  0  0  0  0  0  0  0  0
   -5.6360   18.6720  -33.5110 C   0  0  0  0  0  0  0  0  0  0  0  0
   -4.2960   18.2440  -33.9780 C   0  0  0  0  0  0  0  0  0  0  0  0
   -4.1600   17.8150  -35.1560 O   0  0  0  0  0  0  0  0  0  0  0  0
   -3.1540   18.3080  -33.1090 N   0  0  0  0  0  0  0  0  0  0  0  0
   -1.7900   18.1290  -33.6050 C   0  0  0  0  0  0  0  0  0  0  0  0
   -1.1340   19.4630  -33.7840 C   0  0  0  0  0  0  0  0  0  0  0  0
   -0.3950   19.6770  -34.7830 O   0  0  0  0  0  0  0  0  0  0  0  0
   -1.3660   20.5050  -32.8340 N   0  0  0  0  0  0  0  0  0  0  0  0
   -2.3410   21.5570  -33.1430 C   0  0  0  0  0  0  0  0  0  0  0  0
   -3.0500   22.0730  -31.8690 C   0  0  0  0  0  0  0  0  0  0  0  0
   -2.3880   21.6350  -30.6180 N   0  0  0  0  0  0  0  0  0  0  0  0
   -2.8850   22.4210  -29.4710 C   0  0  0  0  0  0  0  0  0  0  0  0
   -4.0960   23.2300  -29.8700 C   0  0  0  0  0  0  0  0  0  0  0  0
   -5.3110   22.5820  -30.1560 C   0  0  0  0  0  0  0  0  0  0  0  0
   -6.4290   23.3170  -30.5790 C   0  0  0  0  0  0  0  0  0  0  0  0
   -7.7270   22.6250  -30.8670 C   0  0  0  0  0  0  0  0  0  0  0  0
   -6.3370   24.7140  -30.6820 C   0  0  0  0  0  0  0  0  0  0  0  0
   -5.1340   25.3640  -30.3970 C   0  0  0  0  0  0  0  0  0  0  0  0
   -4.0130   24.6290  -30.0000 C   0  0  0  0  0  0  0  0  0  0  0  0
   -2.8190   25.2950  -29.7400 O   0  0  0  0  0  0  0  0  0  0  0  0
   -0.9210   21.7330  -30.7460 C   0  0  0  0  0  0  0  0  0  0  0  0
   -0.4410   20.6470  -31.7060 C   0  0  0  0  0  0  0  0  0  0  0  0
   -5.9990   20.0300  -33.5590 C   0  0  0  0  0  0  0  0  0  0  0  0
   -7.2520   20.4470  -33.1010 C   0  0  0  0  0  0  0  0  0  0  0  0
   -9.4473   19.9625  -30.9357 H   0  0  0  0  0  0  0  0  0  0  0  0
   -9.6887   20.9978  -32.3836 H   0  0  0  0  0  0  0  0  0  0  0  0
  -10.2798   19.3016  -32.3836 H   0  0  0  0  0  0  0  0  0  0  0  0
   -8.4915   17.4317  -32.0703 H   0  0  0  0  0  0  0  0  0  0  0  0
   -6.2705   16.6793  -32.9119 H   0  0  0  0  0  0  0  0  0  0  0  0
   -3.2890   18.4340  -32.0810 H   0  0  0  0  0  0  0  0  0  0  0  0
   -1.2140   17.5334  -32.8815 H   0  0  0  0  0  0  0  0  0  0  0  0
   -1.8221   17.6082  -34.5734 H   0  0  0  0  0  0  0  0  0  0  0  0
   -1.8186   22.3966  -33.6249 H   0  0  0  0  0  0  0  0  0  0  0  0
   -3.1041   21.1313  -33.8111 H   0  0  0  0  0  0  0  0  0  0  0  0
   -3.0586   23.1727  -31.8941 H   0  0  0  0  0  0  0  0  0  0  0  0
   -4.0668   21.6533  -31.8665 H   0  0  0  0  0  0  0  0  0  0  0  0
   -3.1596   21.7366  -28.6548 H   0  0  0  0  0  0  0  0  0  0  0  0
   -2.0919   23.1073  -29.1393 H   0  0  0  0  0  0  0  0  0  0  0  0
   -5.3855   21.4899  -30.0472 H   0  0  0  0  0  0  0  0  0  0  0  0
   -8.2204   22.3620  -29.9197 H   0  0  0  0  0  0  0  0  0  0  0  0
   -8.3791   23.2951  -31.4463 H   0  0  0  0  0  0  0  0  0  0  0  0
   -7.5341   21.7100  -31.4463 H   0  0  0  0  0  0  0  0  0  0  0  0
   -7.2164   25.2995  -30.9886 H   0  0  0  0  0  0  0  0  0  0  0  0
   -5.0684   26.4585  -30.4853 H   0  0  0  0  0  0  0  0  0  0  0  0
   -0.6490   22.7230  -31.1408 H   0  0  0  0  0  0  0  0  0  0  0  0
   -0.4486   21.5993  -29.7616 H   0  0  0  0  0  0  0  0  0  0  0  0
    0.5547   20.9171  -32.0877 H   0  0  0  0  0  0  0  0  0  0  0  0
   -0.3962   19.6910  -31.1637 H   0  0  0  0  0  0  0  0  0  0  0  0
   -5.2909   20.7700  -33.9603 H   0  0  0  0  0  0  0  0  0  0  0  0
   -7.5247   21.5117  -33.1464 H   0  0  0  0  0  0  0  0  0  0  0  0
  1  2  1  0
  2  3  2  0
  3  4  1  0
  4  5  2  0
  5  6  1  0
  6  7  2  0
  6  8  1  0
  8  9  1  0
  9 10  1  0
 10 11  2  0
 10 12  1  0
 12 13  1  0
 13 14  1  0
 14 15  1  0
 15 16  1  0
 16 17  1  0
 17 18  2  0
 18 19  1  0
 19 20  1  0
 19 21  2  0
 21 22  1  0
 22 23  2  0
 23 24  1  0
 15 25  1  0
 25 26  1  0
  5 27  1  0
 27 28  2  0
 28  2  1  0
 26 12  1  0
 23 17  1  0
  1 29  1  0
  1 30  1  0
  1 31  1  0
  3 32  1  0
  4 33  1  0
  8 34  1  0
  9 35  1  0
  9 36  1  0
 13 37  1  0
 13 38  1  0
 14 39  1  0
 14 40  1  0
 16 41  1  0
 16 42  1  0
 18 43  1  0
 20 44  1  0
 20 45  1  0
 20 46  1  0
 21 47  1  0
 22 48  1  0
 25 49  1  0
 25 50  1  0
 26 51  1  0
 26 52  1  0
 27 53  1  0
 28 54  1  0
M  CHG  1  24  -1
M  END
>  <UniqueID>  (13) 
13

>  <SMILES>  (13) 
Cc1ccc(C(=O)NCC(=O)N2CCN(Cc3cc(C)ccc3[O-])CC2)cc1

>  <Energy>  (13) 
62.91694580633886

>  <Genealogy>  (13) 
Cc1ccc(C(=O)NCC(=O)N2CCN(Cc3cc(C)ccc3[O-])CC2)cc1 (protonated)
Cc1ccc(C(=O)NCC(=O)N2CCN(Cc3cc(C)ccc3[O-])CC2)cc1 (3D coordinates assigned)
Cc1ccc(C(=O)NCC(=O)N2CCN(Cc3cc(C)ccc3[O-])CC2)cc1 (nonaromatic ring conformer: 62.91694580633886 kcal/mol)

>  <smiles>  (13) 
Cc1ccc(C(=O)NCC(=O)N2CCN(Cc3cc(C)ccc3O)CC2)cc1

>  <score_type>  (13) 
oracle

>  <origin>  (13) 
adgpu

>  <m_score__min__energy>  (13) 
-12.07

>  <m_primary>  (13) 
energy

$$$$
13:0
     RDKit          3D

 48 50  0  0  0  0  0  0  0  0999 V2000
   -4.6090   24.4800  -27.1590 O   0  0  0  0  0  0  0  0  0  0  0  0
   -4.2920   23.8740  -28.2190 C   0  0  0  0  0  0  0  0  0  0  0  0
   -3.0960   23.0880  -28.2590 N   0  0  0  0  0  0  0  0  0  0  0  0
   -2.9760   21.7540  -27.6770 C   0  0  0  0  0  0  0  0  0  0  0  0
   -1.9410   20.9050  -28.4290 C   0  0  0  0  0  0  0  0  0  0  0  0
   -2.1210   20.9810  -29.9250 C   0  0  0  0  0  0  0  0  0  0  0  0
   -3.3920   20.8130  -30.4960 C   0  0  0  0  0  0  0  0  0  0  0  0
   -3.5560   20.8750  -31.8840 C   0  0  0  0  0  0  0  0  0  0  0  0
   -2.4530   21.0910  -32.7180 C   0  0  0  0  0  0  0  0  0  0  0  0
   -2.6470   21.1650  -34.0970 O   0  0  0  0  0  0  0  0  0  0  0  0
   -1.1740   21.2370  -32.1520 C   0  0  0  0  0  0  0  0  0  0  0  0
   -0.0630   21.4390  -32.9630 O   0  0  0  0  0  0  0  0  0  0  0  0
   -1.0110   21.1840  -30.7640 C   0  0  0  0  0  0  0  0  0  0  0  0
   -5.1910   23.9140  -29.3930 C   0  0  0  0  0  0  0  0  0  0  0  0
   -6.2940   23.0440  -29.4450 C   0  0  0  0  0  0  0  0  0  0  0  0
   -7.1160   22.9990  -30.5770 C   0  0  0  0  0  0  0  0  0  0  0  0
   -8.4260   21.8230  -30.6610 S   0  0  0  0  0  0  0  0  0  0  0  0
   -9.2310   21.9140  -29.3970 O   0  0  0  0  0  0  0  0  0  0  0  0
   -9.3270   22.1510  -31.8190 O   0  0  0  0  0  0  0  0  0  0  0  0
   -7.7770   20.2020  -30.8220 N   0  0  0  0  0  0  0  0  0  0  0  0
   -6.6190   20.1620  -31.7350 C   0  0  0  0  0  0  0  0  0  0  0  0
   -7.0400   20.3190  -33.2160 C   0  0  0  0  0  0  0  0  0  0  0  0
   -8.4030   20.0120  -33.4570 O   0  0  0  0  0  0  0  0  0  0  0  0
   -8.7930   18.8850  -32.7080 C   0  0  0  0  0  0  0  0  0  0  0  0
   -8.8230   19.2280  -31.2080 C   0  0  0  0  0  0  0  0  0  0  0  0
   -6.8420   23.8350  -31.6660 C   0  0  0  0  0  0  0  0  0  0  0  0
   -5.7570   24.7110  -31.6210 C   0  0  0  0  0  0  0  0  0  0  0  0
   -4.9290   24.7550  -30.4960 C   0  0  0  0  0  0  0  0  0  0  0  0
   -3.8590   25.6430  -30.4840 O   0  0  0  0  0  0  0  0  0  0  0  0
   -2.6654   21.8488  -26.6260 H   0  0  0  0  0  0  0  0  0  0  0  0
   -3.9533   21.2547  -27.7520 H   0  0  0  0  0  0  0  0  0  0  0  0
   -0.9338   21.2666  -28.1745 H   0  0  0  0  0  0  0  0  0  0  0  0
   -2.0785   19.8569  -28.1249 H   0  0  0  0  0  0  0  0  0  0  0  0
   -4.2632   20.6318  -29.8493 H   0  0  0  0  0  0  0  0  0  0  0  0
   -4.5575   20.7533  -32.3223 H   0  0  0  0  0  0  0  0  0  0  0  0
   -1.9070   21.4530  -34.7280 H   0  0  0  0  0  0  0  0  0  0  0  0
   -0.0088   21.3018  -30.3262 H   0  0  0  0  0  0  0  0  0  0  0  0
   -6.5134   22.3917  -28.5869 H   0  0  0  0  0  0  0  0  0  0  0  0
   -5.9321   20.9802  -31.4728 H   0  0  0  0  0  0  0  0  0  0  0  0
   -6.1329   19.1816  -31.6230 H   0  0  0  0  0  0  0  0  0  0  0  0
   -6.8598   21.3608  -33.5196 H   0  0  0  0  0  0  0  0  0  0  0  0
   -6.4415   19.6026  -33.7978 H   0  0  0  0  0  0  0  0  0  0  0  0
   -9.7958   18.5655  -33.0278 H   0  0  0  0  0  0  0  0  0  0  0  0
   -8.0690   18.0741  -32.8763 H   0  0  0  0  0  0  0  0  0  0  0  0
   -9.8074   19.6542  -30.9644 H   0  0  0  0  0  0  0  0  0  0  0  0
   -8.6322   18.2986  -30.6515 H   0  0  0  0  0  0  0  0  0  0  0  0
   -7.4834   23.8012  -32.5590 H   0  0  0  0  0  0  0  0  0  0  0  0
   -5.5520   25.3713  -32.4765 H   0  0  0  0  0  0  0  0  0  0  0  0
  1  2  2  0
  2  3  1  0
  3  4  1  0
  4  5  1  0
  5  6  1  0
  6  7  2  0
  7  8  1  0
  8  9  2  0
  9 10  1  0
  9 11  1  0
 11 12  1  0
 11 13  2  0
  2 14  1  0
 14 15  2  0
 15 16  1  0
 16 17  1  0
 17 18  2  0
 17 19  2  0
 17 20  1  0
 20 21  1  0
 21 22  1  0
 22 23  1  0
 23 24  1  0
 24 25  1  0
 16 26  2  0
 26 27  1  0
 27 28  2  0
 28 29  1  0
 13  6  1  0
 28 14  1  0
 25 20  1  0
  4 30  1  0
  4 31  1  0
  5 32  1  0
  5 33  1  0
  7 34  1  0
  8 35  1  0
 10 36  1  0
 13 37  1  0
 15 38  1  0
 21 39  1  0
 21 40  1  0
 22 41  1  0
 22 42  1  0
 24 43  1  0
 24 44  1  0
 25 45  1  0
 25 46  1  0
 26 47  1  0
 27 48  1  0
M  CHG  3   3  -1  12  -1  29  -1
M  END
>  <UniqueID>  (14) 
14

>  <SMILES>  (14) 
O=C([N-]CCc1ccc(O)c([O-])c1)c1cc(S(=O)(=O)N2CCOCC2)ccc1[O-]

>  <Energy>  (14) 
58.56145506752182

>  <Genealogy>  (14) 
O=C([N-]CCc1ccc(O)c([O-])c1)c1cc(S(=O)(=O)N2CCOCC2)ccc1[O-] (protonated)
O=C([N-]CCc1ccc(O)c([O-])c1)c1cc(S(=O)(=O)N2CCOCC2)ccc1[O-] (3D coordinates assigned)
O=C([N-]CCc1ccc(O)c([O-])c1)c1cc(S(=O)(=O)N2CCOCC2)ccc1[O-] (nonaromatic ring conformer: 58.56145506752182 kcal/mol)

>  <smiles>  (14) 
O=C(NCCc1ccc(O)c(O)c1)c1cc(S(=O)(=O)N2CCOCC2)ccc1O

>  <score_type>  (14) 
oracle

>  <origin>  (14) 
adgpu

>  <m_score__min__energy>  (14) 
-13.949999999999999

>  <m_primary>  (14) 
energy

$$$$
14:0
     RDKit          3D

 52 55  0  0  0  0  0  0  0  0999 V2000
    0.4290   26.4720  -27.4360 C   0  0  0  0  0  0  0  0  0  0  0  0
   -0.7360   25.5480  -27.5890 C   0  0  0  0  0  0  0  0  0  0  0  0
   -0.9230   24.4900  -26.6930 C   0  0  0  0  0  0  0  0  0  0  0  0
   -2.0200   23.6450  -26.8530 C   0  0  0  0  0  0  0  0  0  0  0  0
   -2.9140   23.8510  -27.9060 C   0  0  0  0  0  0  0  0  0  0  0  0
   -2.6880   24.9120  -28.8090 C   0  0  0  0  0  0  0  0  0  0  0  0
   -3.4880   25.1700  -29.8060 N   0  0  0  0  0  0  0  0  0  0  0  0
   -4.6120   24.3950  -30.2500 C   0  0  0  0  0  0  0  0  0  0  0  0
   -5.8880   24.7080  -29.7690 C   0  0  0  0  0  0  0  0  0  0  0  0
   -7.0080   24.0060  -30.2250 C   0  0  0  0  0  0  0  0  0  0  0  0
   -6.8710   22.9920  -31.1890 C   0  0  0  0  0  0  0  0  0  0  0  0
   -8.0560   22.2470  -31.6750 C   0  0  0  0  0  0  0  0  0  0  0  0
   -8.9170   22.8270  -32.3920 O   0  0  0  0  0  0  0  0  0  0  0  0
   -8.2140   20.8590  -31.3600 N   0  0  0  0  0  0  0  0  0  0  0  0
   -7.5300   19.7970  -32.0370 C   0  0  0  0  0  0  0  0  0  0  0  0
   -6.2280   20.0310  -32.4980 C   0  0  0  0  0  0  0  0  0  0  0  0
   -5.5160   19.0380  -33.1910 C   0  0  0  0  0  0  0  0  0  0  0  0
   -4.1440   19.3150  -33.6810 C   0  0  0  0  0  0  0  0  0  0  0  0
   -3.6240   18.5460  -34.5350 O   0  0  0  0  0  0  0  0  0  0  0  0
   -3.3930   20.4360  -33.1910 N   0  0  0  0  0  0  0  0  0  0  0  0
   -2.0910   20.7810  -33.7520 C   0  0  0  0  0  0  0  0  0  0  0  0
   -0.9770   19.8310  -33.3490 C   0  0  0  0  0  0  0  0  0  0  0  0
   -1.0780   21.2020  -32.7000 C   0  0  0  0  0  0  0  0  0  0  0  0
   -6.1180   17.7850  -33.3890 C   0  0  0  0  0  0  0  0  0  0  0  0
   -7.4010   17.5300  -32.9020 C   0  0  0  0  0  0  0  0  0  0  0  0
   -8.1120   18.5180  -32.2040 C   0  0  0  0  0  0  0  0  0  0  0  0
   -9.4700   18.1820  -31.6480 C   0  0  0  0  0  0  0  0  0  0  0  0
   -5.5900   22.7060  -31.6980 C   0  0  0  0  0  0  0  0  0  0  0  0
   -4.4730   23.4100  -31.2400 C   0  0  0  0  0  0  0  0  0  0  0  0
   -1.6180   25.7290  -28.6110 N   0  0  0  0  0  0  0  0  0  0  0  0
    0.6316   26.6327  -26.3668 H   0  0  0  0  0  0  0  0  0  0  0  0
    1.3145   26.0280  -27.9143 H   0  0  0  0  0  0  0  0  0  0  0  0
    0.1982   27.4353  -27.9143 H   0  0  0  0  0  0  0  0  0  0  0  0
   -0.2113   24.3265  -25.8703 H   0  0  0  0  0  0  0  0  0  0  0  0
   -2.1817   22.8152  -26.1493 H   0  0  0  0  0  0  0  0  0  0  0  0
   -3.7862   23.1924  -28.0305 H   0  0  0  0  0  0  0  0  0  0  0  0
   -6.0109   25.5112  -29.0276 H   0  0  0  0  0  0  0  0  0  0  0  0
   -8.0040   24.2491  -29.8263 H   0  0  0  0  0  0  0  0  0  0  0  0
   -5.7559   21.0074  -32.3145 H   0  0  0  0  0  0  0  0  0  0  0  0
   -3.7020   20.9320  -32.3250 H   0  0  0  0  0  0  0  0  0  0  0  0
   -2.4514   21.1963  -34.7047 H   0  0  0  0  0  0  0  0  0  0  0  0
   -1.2087   18.9279  -32.7653 H   0  0  0  0  0  0  0  0  0  0  0  0
   -0.1908   19.2815  -33.8874 H   0  0  0  0  0  0  0  0  0  0  0  0
   -1.3831   21.2911  -31.6469 H   0  0  0  0  0  0  0  0  0  0  0  0
   -0.3957   22.0556  -32.5743 H   0  0  0  0  0  0  0  0  0  0  0  0
   -5.5742   16.9981  -33.9322 H   0  0  0  0  0  0  0  0  0  0  0  0
   -7.8596   16.5439  -33.0672 H   0  0  0  0  0  0  0  0  0  0  0  0
   -9.4289   18.1922  -30.5488 H   0  0  0  0  0  0  0  0  0  0  0  0
  -10.2024   18.9260  -31.9945 H   0  0  0  0  0  0  0  0  0  0  0  0
   -9.7710   17.1823  -31.9945 H   0  0  0  0  0  0  0  0  0  0  0  0
   -5.4675   21.9233  -32.4612 H   0  0  0  0  0  0  0  0  0  0  0  0
   -3.4793   23.1909  -31.6578 H   0  0  0  0  0  0  0  0  0  0  0  0
  1  2  1  0
  2  3  2  0
  3  4  1  0
  4  5  2  0
  5  6  1  0
  6  7  2  3
  7  8  1  0
  8  9  2  0
  9 10  1  0
 10 11  2  0
 11 12  1  0
 12 13  2  0
 12 14  1  0
 14 15  1  0
 15 16  2  0
 16 17  1  0
 17 18  1  0
 18 19  2  0
 18 20  1  0
 20 21  1  0
 21 22  1  0
 22 23  1  0
 17 24  2  0
 24 25  1  0
 25 26  2  0
 26 27  1  0
 11 28  1  0
 28 29  2  0
  6 30  1  0
 30  2  1  0
 29  8  1  0
 26 15  1  0
 23 21  1  0
  1 31  1  0
  1 32  1  0
  1 33  1  0
  3 34  1  0
  4 35  1  0
  5 36  1  0
  9 37  1  0
 10 38  1  0
 16 39  1  0
 20 40  1  0
 21 41  1  0
 22 42  1  0
 22 43  1  0
 23 44  1  0
 23 45  1  0
 24 46  1  0
 25 47  1  0
 27 48  1  0
 27 49  1  0
 27 50  1  0
 28 51  1  0
 29 52  1  0
M  CHG  2  14  -1  30  -1
M  END
>  <UniqueID>  (15) 
15

>  <SMILES>  (15) 
Cc1cccc(=Nc2ccc(C(=O)[N-]c3cc(C(=O)NC4CC4)ccc3C)cc2)[n-]1

>  <Energy>  (15) 
336.7864571397837

>  <Genealogy>  (15) 
Cc1cccc(=Nc2ccc(C(=O)[N-]c3cc(C(=O)NC4CC4)ccc3C)cc2)[n-]1 (protonated)
Cc1cccc(=Nc2ccc(C(=O)[N-]c3cc(C(=O)NC4CC4)ccc3C)cc2)[n-]1 (3D coordinates assigned)
Cc1cccc(=Nc2ccc(C(=O)[N-]c3cc(C(=O)NC4CC4)ccc3C)cc2)[n-]1 (nonaromatic ring conformer: 336.7864571397837 kcal/mol)

>  <smiles>  (15) 
Cc1cccc(=Nc2ccc(C(=O)Nc3cc(C(=O)NC4CC4)ccc3C)cc2)[nH]1

>  <score_type>  (15) 
oracle

>  <origin>  (15) 
adgpu

>  <m_score__min__energy>  (15) 
-11.619999999999999

>  <m_primary>  (15) 
energy

$$$$
15:0
     RDKit          3D

 46 49  0  0  1  0  0  0  0  0999 V2000
   -8.7140   21.3470  -32.3460 N   0  0  0  0  0  0  0  0  0  0  0  0
   -8.6700   19.6310  -32.1750 S   0  0  0  0  0  0  0  0  0  0  0  0
   -8.8280   19.3060  -30.7180 O   0  0  0  0  0  0  0  0  0  0  0  0
   -9.8570   18.9800  -32.8700 O   0  0  0  0  0  0  0  0  0  0  0  0
   -7.1700   18.9950  -32.8120 C   0  0  0  0  0  0  0  0  0  0  0  0
   -6.4630   18.0260  -32.1010 C   0  0  0  0  0  0  0  0  0  0  0  0
   -5.2670   17.5030  -32.5740 C   0  0  0  0  0  0  0  0  0  0  0  0
   -4.7410   17.9580  -33.8100 C   0  0  0  0  0  0  0  0  0  0  0  0
   -3.5240   17.5320  -34.2090 N   0  0  0  0  0  0  0  0  0  0  0  0
   -2.3680   17.9330  -34.0890 C   0  0  0  0  0  0  0  0  0  0  0  0
   -1.3790   17.1990  -34.6550 N   0  0  0  0  0  0  0  0  0  0  0  0
   -0.1140   17.5970  -34.5470 C   0  0  0  0  0  0  0  0  0  0  0  0
    0.2270   18.7120  -33.8920 N   0  0  0  0  0  0  0  0  0  0  0  0
   -0.7550   19.4360  -33.3340 C   0  0  0  0  0  0  0  0  0  0  0  0
   -0.3840   20.5770  -32.6670 C   0  0  0  0  0  0  0  0  0  0  0  0
   -1.3850   21.3210  -32.0960 C   0  0  0  0  0  0  0  0  0  0  0  0
   -2.7120   21.0210  -32.1350 C   0  0  0  0  0  0  0  0  0  0  0  0
   -3.6930   21.8810  -31.4920 C   0  0  0  0  0  0  0  0  0  0  0  0
   -5.0080   21.5210  -31.2880 C   0  0  0  0  0  0  0  0  0  0  0  0
   -5.8570   22.4290  -30.6590 C   0  0  0  0  0  0  0  0  0  0  0  0
   -7.1920   22.1340  -30.4200 O   0  0  0  0  0  0  0  0  0  0  0  0
   -5.4170   23.6740  -30.2390 C   0  0  0  0  0  0  0  0  0  0  0  0
   -6.2600   24.5910  -29.6090 O   0  0  0  0  0  0  0  0  0  0  0  0
   -4.1020   24.0350  -30.4440 C   0  0  0  0  0  0  0  0  0  0  0  0
   -3.6320   25.2940  -30.0270 O   0  0  0  0  0  0  0  0  0  0  0  0
   -3.2590   23.1320  -31.0680 C   0  0  0  0  0  0  0  0  0  0  0  0
   -3.0720   19.8500  -32.8220 C   0  0  0  0  0  0  0  0  0  0  0  0
   -2.0960   19.0900  -33.4010 C   0  0  0  0  0  0  0  0  0  0  0  0
   -5.4560   18.9390  -34.5330 C   0  0  0  0  0  0  0  0  0  0  0  0
   -6.6410   19.4250  -34.0170 C   0  0  0  0  0  0  0  0  0  0  0  0
   -7.7310   21.6660  -32.4880 H   0  0  0  0  0  0  0  0  0  0  0  0
   -9.0740   21.7370  -31.4380 H   0  0  0  0  0  0  0  0  0  0  0  0
   -6.8629   17.6669  -31.1412 H   0  0  0  0  0  0  0  0  0  0  0  0
   -4.7298   16.7391  -31.9927 H   0  0  0  0  0  0  0  0  0  0  0  0
    0.6767   16.9894  -35.0114 H   0  0  0  0  0  0  0  0  0  0  0  0
    1.2210   18.9740  -33.8400 H   0  0  0  0  0  0  0  0  0  0  0  0
    0.6705   20.8815  -32.5936 H   0  0  0  0  0  0  0  0  0  0  0  0
   -1.0907   22.2365  -31.5620 H   0  0  0  0  0  0  0  0  0  0  0  0
   -5.3788   20.5383  -31.6147 H   0  0  0  0  0  0  0  0  0  0  0  0
   -7.5270   21.1880  -30.5430 H   0  0  0  0  0  0  0  0  0  0  0  0
   -6.9530   24.1630  -28.9750 H   0  0  0  0  0  0  0  0  0  0  0  0
   -4.2510   25.8440  -29.4110 H   0  0  0  0  0  0  0  0  0  0  0  0
   -2.2088   23.4139  -31.2343 H   0  0  0  0  0  0  0  0  0  0  0  0
   -4.1275   19.5486  -32.8929 H   0  0  0  0  0  0  0  0  0  0  0  0
   -5.0734   19.3109  -35.4949 H   0  0  0  0  0  0  0  0  0  0  0  0
   -7.1893   20.1880  -34.5890 H   0  0  0  0  0  0  0  0  0  0  0  0
  1  2  1  0
  2  3  2  0
  2  4  2  0
  2  5  1  0
  5  6  2  0
  6  7  1  0
  7  8  2  0
  8  9  1  0
  9 10  2  0
 10 11  1  0
 11 12  2  0
 12 13  1  0
 13 14  1  0
 14 15  2  0
 15 16  1  0
 16 17  2  0
 17 18  1  0
 18 19  2  0
 19 20  1  0
 20 21  1  0
 20 22  2  0
 22 23  1  0
 22 24  1  0
 24 25  1  0
 24 26  2  0
 17 27  1  0
 27 28  2  0
  8 29  1  0
 29 30  2  0
 30  5  1  0
 28 10  1  0
 28 14  1  0
 26 18  1  0
  1 31  1  0
  1 32  1  0
  6 33  1  0
  7 34  1  0
 12 35  1  0
 13 36  1  0
 15 37  1  0
 16 38  1  0
 19 39  1  0
 21 40  1  0
 23 41  1  0
 25 42  1  0
 26 43  1  0
 27 44  1  0
 29 45  1  0
 30 46  1  0
M  END
>  <smiles>  (16) 
NS(=O)(=O)c1ccc(N=c2nc[nH]c3ccc(-c4cc(O)c(O)c(O)c4)cc23)cc1

>  <score_type>  (16) 
oracle

>  <origin>  (16) 
adgpu

>  <m_score__min__energy>  (16) 
-8.2899999999999991

>  <m_primary>  (16) 
energy

$$$$
16:0
     RDKit          3D

 40 41  0  0  0  0  0  0  0  0999 V2000
   -1.7790   25.4080  -28.9950 O   0  0  0  0  0  0  0  0  0  0  0  0
   -2.5520   24.5420  -29.4840 C   0  0  0  0  0  0  0  0  0  0  0  0
   -3.5210   24.9630  -30.4550 N   0  0  0  0  0  0  0  0  0  0  0  0
   -4.7790   24.3350  -30.7300 C   0  0  0  0  0  0  0  0  0  0  0  0
   -4.8170   23.2350  -31.5950 C   0  0  0  0  0  0  0  0  0  0  0  0
   -6.0300   22.5970  -31.8720 C   0  0  0  0  0  0  0  0  0  0  0  0
   -7.2150   23.0430  -31.2700 C   0  0  0  0  0  0  0  0  0  0  0  0
   -8.7580   22.2730  -31.6340 S   0  0  0  0  0  0  0  0  0  0  0  0
   -9.6270   23.2600  -32.3590 O   0  0  0  0  0  0  0  0  0  0  0  0
   -9.4520   21.8730  -30.3620 O   0  0  0  0  0  0  0  0  0  0  0  0
   -8.5380   20.8670  -32.6390 N   0  0  0  0  0  0  0  0  0  0  0  0
   -8.0480   19.7220  -31.8660 C   0  0  0  0  0  0  0  0  0  0  0  0
   -7.1700   18.8310  -32.7040 C   0  0  0  0  0  0  0  0  0  0  0  0
   -6.4240   19.3710  -33.7650 C   0  0  0  0  0  0  0  0  0  0  0  0
   -5.6190   18.5410  -34.5530 C   0  0  0  0  0  0  0  0  0  0  0  0
   -5.5530   17.1710  -34.2870 C   0  0  0  0  0  0  0  0  0  0  0  0
   -6.2890   16.6270  -33.2310 C   0  0  0  0  0  0  0  0  0  0  0  0
   -7.0950   17.4520  -32.4400 C   0  0  0  0  0  0  0  0  0  0  0  0
   -7.1730   24.1210  -30.3780 C   0  0  0  0  0  0  0  0  0  0  0  0
   -5.9600   24.7590  -30.1020 C   0  0  0  0  0  0  0  0  0  0  0  0
   -2.5230   23.1400  -28.9130 C   0  0  1  0  0  0  0  0  0  0  0  0
   -1.2780   22.8680  -28.3220 O   0  0  0  0  0  0  0  0  0  0  0  0
   -3.6540   22.9400  -27.8920 C   0  0  0  0  0  0  0  0  0  0  0  0
   -4.1130   24.5160  -27.1010 S   0  0  0  0  0  0  0  0  0  0  0  0
   -3.8884   22.8709  -32.0589 H   0  0  0  0  0  0  0  0  0  0  0  0
   -6.0546   21.7426  -32.5643 H   0  0  0  0  0  0  0  0  0  0  0  0
   -7.4680   20.0913  -31.0073 H   0  0  0  0  0  0  0  0  0  0  0  0
   -8.9148   19.1356  -31.5272 H   0  0  0  0  0  0  0  0  0  0  0  0
   -6.4729   20.4493  -33.9768 H   0  0  0  0  0  0  0  0  0  0  0  0
   -5.0372   18.9678  -35.3832 H   0  0  0  0  0  0  0  0  0  0  0  0
   -4.9212   16.5201  -34.9093 H   0  0  0  0  0  0  0  0  0  0  0  0
   -6.2343   15.5485  -33.0216 H   0  0  0  0  0  0  0  0  0  0  0  0
   -7.6721   17.0207  -31.6087 H   0  0  0  0  0  0  0  0  0  0  0  0
   -8.0974   24.4673  -29.8926 H   0  0  0  0  0  0  0  0  0  0  0  0
   -5.9313   25.5967  -29.3897 H   0  0  0  0  0  0  0  0  0  0  0  0
   -2.6767   22.4343  -29.7427 H   0  0  0  0  0  0  0  0  0  0  0  0
   -0.9310   23.7240  -27.9580 H   0  0  0  0  0  0  0  0  0  0  0  0
   -4.5339   22.5274  -28.4073 H   0  0  0  0  0  0  0  0  0  0  0  0
   -3.3017   22.2484  -27.1125 H   0  0  0  0  0  0  0  0  0  0  0  0
   -3.9220   25.2570  -28.2830 H   0  0  0  0  0  0  0  0  0  0  0  0
  1  2  2  0
  2  3  1  0
  3  4  1  0
  4  5  2  0
  5  6  1  0
  6  7  2  0
  7  8  1  0
  8  9  2  0
  8 10  2  0
  8 11  1  0
 11 12  1  0
 12 13  1  0
 13 14  2  0
 14 15  1  0
 15 16  2  0
 16 17  1  0
 17 18  2  0
  7 19  1  0
 19 20  2  0
  2 21  1  0
 21 22  1  0
 21 23  1  0
 23 24  1  0
 20  4  1  0
 18 13  1  0
  5 25  1  0
  6 26  1  0
 12 27  1  0
 12 28  1  0
 14 29  1  0
 15 30  1  0
 16 31  1  0
 17 32  1  0
 18 33  1  0
 19 34  1  0
 20 35  1  0
 21 36  1  6
 22 37  1  0
 23 38  1  0
 23 39  1  0
 24 40  1  0
M  CHG  2   3  -1  11  -1
M  END
>  <UniqueID>  (17) 
16

>  <SMILES>  (17) 
O=C([N-]c1ccc(S(=O)(=O)[N-]Cc2ccccc2)cc1)[C@@H](O)CS

>  <Energy>  (17) 
43.1623985251436

>  <Genealogy>  (17) 
O=C([N-]c1ccc(S(=O)(=O)[N-]Cc2ccccc2)cc1)C(O)CS (protonated)
O=C([N-]c1ccc(S(=O)(=O)[N-]Cc2ccccc2)cc1)[C@@H](O)CS (chirality)
O=C([N-]c1ccc(S(=O)(=O)[N-]Cc2ccccc2)cc1)[C@@H](O)CS (3D coordinates assigned)
O=C([N-]c1ccc(S(=O)(=O)[N-]Cc2ccccc2)cc1)[C@@H](O)CS (optimized conformer: 43.1623985251436 kcal/mol)

>  <smiles>  (17) 
O=C(Nc1ccc(S(=O)(=O)NCc2ccccc2)cc1)C(O)CS

>  <score_type>  (17) 
oracle

>  <origin>  (17) 
adgpu

>  <m_score__min__energy>  (17) 
-10.34

>  <m_primary>  (17) 
energy

$$$$
17:0
     RDKit          3D

 46 49  0  0  0  0  0  0  0  0999 V2000
   -5.6690   26.3000  -31.0030 O   0  0  0  0  0  0  0  0  0  0  0  0
   -5.2800   25.1080  -30.1720 S   0  0  0  0  0  0  0  0  0  0  0  0
   -5.7270   25.3380  -28.7570 O   0  0  0  0  0  0  0  0  0  0  0  0
   -3.5560   24.9270  -30.2060 N   0  0  0  0  0  0  0  0  0  0  0  0
   -2.8090   23.9940  -29.4120 C   0  0  0  0  0  0  0  0  0  0  0  0
   -1.5110   24.3360  -29.0120 C   0  0  0  0  0  0  0  0  0  0  0  0
   -0.7730   23.4780  -28.2570 N   0  0  0  0  0  0  0  0  0  0  0  0
   -1.2570   22.2690  -27.8700 C   0  0  0  0  0  0  0  0  0  0  0  0
   -0.4680   21.4130  -27.0900 C   0  0  0  0  0  0  0  0  0  0  0  0
   -0.9730   20.1710  -26.6870 C   0  0  0  0  0  0  0  0  0  0  0  0
   -2.2590   19.7770  -27.0680 C   0  0  0  0  0  0  0  0  0  0  0  0
   -3.0540   20.6250  -27.8470 C   0  0  0  0  0  0  0  0  0  0  0  0
   -2.5580   21.8750  -28.2500 C   0  0  0  0  0  0  0  0  0  0  0  0
   -3.3310   22.7470  -29.0270 C   0  0  0  0  0  0  0  0  0  0  0  0
   -6.0380   23.6390  -30.7770 C   0  0  0  0  0  0  0  0  0  0  0  0
   -7.0850   23.0550  -30.0540 C   0  0  0  0  0  0  0  0  0  0  0  0
   -7.6850   21.8790  -30.5090 C   0  0  0  0  0  0  0  0  0  0  0  0
   -7.2420   21.2760  -31.6950 C   0  0  0  0  0  0  0  0  0  0  0  0
   -7.9650   19.7660  -32.2440 S   0  0  0  0  0  0  0  0  0  0  0  0
   -8.9060   20.0510  -33.3840 O   0  0  0  0  0  0  0  0  0  0  0  0
   -8.7500   19.1450  -31.1210 O   0  0  0  0  0  0  0  0  0  0  0  0
   -6.7060   18.6870  -32.7870 N   0  0  0  0  0  0  0  0  0  0  0  0
   -7.2240   17.3420  -33.0330 C   0  0  0  0  0  0  0  0  0  0  0  0
   -6.3270   16.7170  -34.0900 C   0  0  0  0  0  0  0  0  0  0  0  0
   -5.6090   17.8820  -34.7520 C   0  0  0  0  0  0  0  0  0  0  0  0
   -6.1420   19.1280  -34.0620 C   0  0  0  0  0  0  0  0  0  0  0  0
   -6.1900   21.8570  -32.4160 C   0  0  0  0  0  0  0  0  0  0  0  0
   -5.5930   23.0380  -31.9620 C   0  0  0  0  0  0  0  0  0  0  0  0
   -1.0852   25.3053  -29.3105 H   0  0  0  0  0  0  0  0  0  0  0  0
    0.5472   21.7166  -26.7946 H   0  0  0  0  0  0  0  0  0  0  0  0
   -0.3557   19.5029  -26.0684 H   0  0  0  0  0  0  0  0  0  0  0  0
   -2.6474   18.7968  -26.7543 H   0  0  0  0  0  0  0  0  0  0  0  0
   -4.0663   20.3126  -28.1432 H   0  0  0  0  0  0  0  0  0  0  0  0
   -4.3459   22.4562  -29.3357 H   0  0  0  0  0  0  0  0  0  0  0  0
   -7.4365   23.5246  -29.1234 H   0  0  0  0  0  0  0  0  0  0  0  0
   -8.5068   21.4247  -29.9360 H   0  0  0  0  0  0  0  0  0  0  0  0
   -7.1913   16.7477  -32.1079 H   0  0  0  0  0  0  0  0  0  0  0  0
   -8.2704   17.3757  -33.3705 H   0  0  0  0  0  0  0  0  0  0  0  0
   -5.6023   16.0332  -33.6240 H   0  0  0  0  0  0  0  0  0  0  0  0
   -6.9030   16.1257  -34.8170 H   0  0  0  0  0  0  0  0  0  0  0  0
   -4.5219   17.7968  -34.6071 H   0  0  0  0  0  0  0  0  0  0  0  0
   -5.7849   17.9080  -35.8375 H   0  0  0  0  0  0  0  0  0  0  0  0
   -5.3260   19.8451  -33.8889 H   0  0  0  0  0  0  0  0  0  0  0  0
   -6.9003   19.6314  -34.6797 H   0  0  0  0  0  0  0  0  0  0  0  0
   -5.8325   21.3829  -33.3420 H   0  0  0  0  0  0  0  0  0  0  0  0
   -4.7735   23.4952  -32.5359 H   0  0  0  0  0  0  0  0  0  0  0  0
  1  2  2  0
  2  3  2  0
  2  4  1  0
  4  5  1  0
  5  6  2  0
  6  7  1  0
  7  8  2  0
  8  9  1  0
  9 10  2  0
 10 11  1  0
 11 12  2  0
 12 13  1  0
 13 14  2  0
  2 15  1  0
 15 16  2  0
 16 17  1  0
 17 18  2  0
 18 19  1  0
 19 20  2  0
 19 21  2  0
 19 22  1  0
 22 23  1  0
 23 24  1  0
 24 25  1  0
 25 26  1  0
 18 27  1  0
 27 28  2  0
 14  5  1  0
 28 15  1  0
 13  8  1  0
 26 22  1  0
  6 29  1  0
  9 30  1  0
 10 31  1  0
 11 32  1  0
 12 33  1  0
 14 34  1  0
 16 35  1  0
 17 36  1  0
 23 37  1  0
 23 38  1  0
 24 39  1  0
 24 40  1  0
 25 41  1  0
 25 42  1  0
 26 43  1  0
 26 44  1  0
 27 45  1  0
 28 46  1  0
M  CHG  1   4  -1
M  END
>  <UniqueID>  (18) 
17

>  <SMILES>  (18) 
O=S(=O)([N-]c1cnc2ccccc2c1)c1ccc(S(=O)(=O)N2CCCC2)cc1

>  <Energy>  (18) 
55.77384359905365

>  <Genealogy>  (18) 
O=S(=O)([N-]c1cnc2ccccc2c1)c1ccc(S(=O)(=O)N2CCCC2)cc1 (protonated)
O=S(=O)([N-]c1cnc2ccccc2c1)c1ccc(S(=O)(=O)N2CCCC2)cc1 (3D coordinates assigned)
O=S(=O)([N-]c1cnc2ccccc2c1)c1ccc(S(=O)(=O)N2CCCC2)cc1 (nonaromatic ring conformer: 55.77384359905365 kcal/mol)

>  <smiles>  (18) 
O=S(=O)(Nc1cnc2ccccc2c1)c1ccc(S(=O)(=O)N2CCCC2)cc1

>  <score_type>  (18) 
oracle

>  <origin>  (18) 
adgpu

>  <m_score__min__energy>  (18) 
-11.609999999999999

>  <m_primary>  (18) 
energy

$$$$
18:0
     RDKit          3D

 67 71  0  0  0  0  0  0  0  0999 V2000
    1.7290   15.7310  -26.8080 C   0  0  0  0  0  0  0  0  0  0  0  0
    1.9000   17.1440  -26.8780 O   0  0  0  0  0  0  0  0  0  0  0  0
    1.3870   17.9530  -27.9020 C   0  0  0  0  0  0  0  0  0  0  0  0
    1.4970   19.3560  -27.8840 C   0  0  0  0  0  0  0  0  0  0  0  0
    0.9620   20.1170  -28.9260 C   0  0  0  0  0  0  0  0  0  0  0  0
    0.2930   19.4990  -29.9930 C   0  0  0  0  0  0  0  0  0  0  0  0
   -0.2820   20.2860  -31.0540 N   0  0  0  0  0  0  0  0  0  0  0  0
   -0.0350   20.2250  -32.3840 C   0  0  0  0  0  0  0  0  0  0  0  0
    0.7860   19.1750  -33.0830 C   0  0  0  0  0  0  0  0  0  0  0  0
   -0.0360   18.3860  -33.9990 N   0  0  0  0  0  0  0  0  0  0  0  0
   -1.2090   17.6960  -33.5500 C   0  0  0  0  0  0  0  0  0  0  0  0
   -1.5880   17.8030  -32.3520 O   0  0  0  0  0  0  0  0  0  0  0  0
   -1.9730   16.8560  -34.4850 C   0  0  0  0  0  0  0  0  0  0  0  0
   -3.2230   17.1410  -35.0000 C   0  0  0  0  0  0  0  0  0  0  0  0
   -3.5390   16.0760  -35.8150 C   0  0  0  0  0  0  0  0  0  0  0  0
   -2.4670   15.2090  -35.7490 C   0  0  0  0  0  0  0  0  0  0  0  0
   -1.5510   15.7020  -34.9480 O   0  0  0  0  0  0  0  0  0  0  0  0
   -0.6400   21.2320  -33.0430 N   0  0  0  0  0  0  0  0  0  0  0  0
   -1.2860   21.9560  -32.1420 N   0  0  0  0  0  0  0  0  0  0  0  0
   -1.0810   21.3710  -30.9460 C   0  0  0  0  0  0  0  0  0  0  0  0
   -1.7240   22.0320  -29.4030 S   0  0  0  0  0  0  0  0  0  0  0  0
   -3.4750   22.0840  -29.9330 C   0  0  0  0  0  0  0  0  0  0  0  0
   -3.8000   23.2920  -30.7550 C   0  0  0  0  0  0  0  0  0  0  0  0
   -3.3260   24.4140  -30.4310 O   0  0  0  0  0  0  0  0  0  0  0  0
   -4.5430   23.1340  -31.9690 N   0  0  0  0  0  0  0  0  0  0  0  0
   -5.3950   22.0290  -32.2960 C   0  0  0  0  0  0  0  0  0  0  0  0
   -6.7840   21.9540  -32.2850 C   0  0  0  0  0  0  0  0  0  0  0  0
   -7.7320   23.0450  -31.8910 C   0  0  0  0  0  0  0  0  0  0  0  0
   -7.1490   20.6800  -32.5820 N   0  0  0  0  0  0  0  0  0  0  0  0
   -8.5180   20.1580  -32.5310 C   0  0  0  0  0  0  0  0  0  0  0  0
   -6.0470   19.9460  -32.7270 N   0  0  0  0  0  0  0  0  0  0  0  0
   -5.9990   18.5370  -33.0030 C   0  0  0  0  0  0  0  0  0  0  0  0
   -5.5250   17.6420  -32.0320 C   0  0  0  0  0  0  0  0  0  0  0  0
   -5.4980   16.2680  -32.2960 C   0  0  0  0  0  0  0  0  0  0  0  0
   -5.9540   15.7820  -33.5250 C   0  0  0  0  0  0  0  0  0  0  0  0
   -6.4400   16.6690  -34.4910 C   0  0  0  0  0  0  0  0  0  0  0  0
   -6.4670   18.0430  -34.2300 C   0  0  0  0  0  0  0  0  0  0  0  0
   -4.9770   20.7430  -32.5440 C   0  0  0  0  0  0  0  0  0  0  0  0
   -3.7780   20.3580  -32.5980 O   0  0  0  0  0  0  0  0  0  0  0  0
    0.2110   18.0980  -30.0210 C   0  0  0  0  0  0  0  0  0  0  0  0
    0.7470   17.3340  -28.9810 C   0  0  0  0  0  0  0  0  0  0  0  0
    1.6911   15.4180  -25.7542 H   0  0  0  0  0  0  0  0  0  0  0  0
    0.7903   15.4500  -27.3079 H   0  0  0  0  0  0  0  0  0  0  0  0
    2.5736   15.2342  -27.3079 H   0  0  0  0  0  0  0  0  0  0  0  0
    2.0061   19.8551  -27.0463 H   0  0  0  0  0  0  0  0  0  0  0  0
    1.0663   21.2119  -28.9098 H   0  0  0  0  0  0  0  0  0  0  0  0
    1.5878   19.6669  -33.6532 H   0  0  0  0  0  0  0  0  0  0  0  0
    1.2085   18.5001  -32.3241 H   0  0  0  0  0  0  0  0  0  0  0  0
    0.2440   18.2950  -35.0000 H   0  0  0  0  0  0  0  0  0  0  0  0
   -3.8372   18.0316  -34.8010 H   0  0  0  0  0  0  0  0  0  0  0  0
   -4.4606   15.9433  -36.4007 H   0  0  0  0  0  0  0  0  0  0  0  0
   -2.3917   14.2516  -36.2854 H   0  0  0  0  0  0  0  0  0  0  0  0
   -3.6874   21.1854  -30.5308 H   0  0  0  0  0  0  0  0  0  0  0  0
   -4.0934   22.1274  -29.0243 H   0  0  0  0  0  0  0  0  0  0  0  0
   -7.7851   23.1061  -30.7940 H   0  0  0  0  0  0  0  0  0  0  0  0
   -7.3755   24.0041  -32.2949 H   0  0  0  0  0  0  0  0  0  0  0  0
   -8.7314   22.8259  -32.2949 H   0  0  0  0  0  0  0  0  0  0  0  0
   -8.8267   20.0403  -31.4818 H   0  0  0  0  0  0  0  0  0  0  0  0
   -9.1972   20.8602  -33.0365 H   0  0  0  0  0  0  0  0  0  0  0  0
   -8.5573   19.1818  -33.0365 H   0  0  0  0  0  0  0  0  0  0  0  0
   -5.1738   18.0212  -31.0610 H   0  0  0  0  0  0  0  0  0  0  0  0
   -5.1177   15.5697  -31.5359 H   0  0  0  0  0  0  0  0  0  0  0  0
   -5.9305   14.7020  -33.7322 H   0  0  0  0  0  0  0  0  0  0  0  0
   -6.8013   16.2858  -35.4567 H   0  0  0  0  0  0  0  0  0  0  0  0
   -6.8561   18.7380  -34.9887 H   0  0  0  0  0  0  0  0  0  0  0  0
   -0.2794   17.5973  -30.8688 H   0  0  0  0  0  0  0  0  0  0  0  0
    0.6651   16.2375  -29.0110 H   0  0  0  0  0  0  0  0  0  0  0  0
  1  2  1  0
  2  3  1  0
  3  4  2  0
  4  5  1  0
  5  6  2  0
  6  7  1  0
  7  8  1  0
  8  9  1  0
  9 10  1  0
 10 11  1  0
 11 12  2  0
 11 13  1  0
 13 14  2  0
 14 15  1  0
 15 16  2  0
 16 17  1  0
  8 18  2  0
 18 19  1  0
 19 20  2  0
 20 21  1  0
 21 22  1  0
 22 23  1  0
 23 24  2  0
 23 25  1  0
 25 26  1  0
 26 27  2  0
 27 28  1  0
 27 29  1  0
 29 30  1  0
 29 31  1  0
 31 32  1  0
 32 33  2  0
 33 34  1  0
 34 35  2  0
 35 36  1  0
 36 37  2  0
 31 38  1  0
 38 39  2  0
  6 40  1  0
 40 41  2  0
 41  3  1  0
 20  7  1  0
 38 26  1  0
 17 13  1  0
 37 32  1  0
  1 42  1  0
  1 43  1  0
  1 44  1  0
  4 45  1  0
  5 46  1  0
  9 47  1  0
  9 48  1  0
 10 49  1  0
 14 50  1  0
 15 51  1  0
 16 52  1  0
 22 53  1  0
 22 54  1  0
 28 55  1  0
 28 56  1  0
 28 57  1  0
 30 58  1  0
 30 59  1  0
 30 60  1  0
 33 61  1  0
 34 62  1  0
 35 63  1  0
 36 64  1  0
 37 65  1  0
 40 66  1  0
 41 67  1  0
M  CHG  1  25  -1
M  END
>  <UniqueID>  (19) 
18

>  <SMILES>  (19) 
COc1ccc(-n2c(CNC(=O)c3ccco3)nnc2SCC(=O)[N-]c2c(C)n(C)n(-c3ccccc3)c2=O)cc1

>  <Energy>  (19) 
176.88962885952716

>  <Genealogy>  (19) 
COc1ccc(-n2c(CNC(=O)c3ccco3)nnc2SCC(=O)[N-]c2c(C)n(C)n(-c3ccccc3)c2=O)cc1 (protonated)
COc1ccc(-n2c(CNC(=O)c3ccco3)nnc2SCC(=O)[N-]c2c(C)n(C)n(-c3ccccc3)c2=O)cc1 (3D coordinates assigned)
COc1ccc(-n2c(CNC(=O)c3ccco3)nnc2SCC(=O)[N-]c2c(C)n(C)n(-c3ccccc3)c2=O)cc1 (optimized conformer: 176.88962885952716 kcal/mol)

>  <smiles>  (19) 
COc1ccc(-n2c(CNC(=O)c3ccco3)nnc2SCC(=O)Nc2c(C)n(C)n(-c3ccccc3)c2=O)cc1

>  <score_type>  (19) 
oracle

>  <origin>  (19) 
adgpu

>  <m_score__min__energy>  (19) 
-11.550000000000001

>  <m_primary>  (19) 
energy

$$$$
19:0
     RDKit          3D

 54 57  0  0  0  0  0  0  0  0999 V2000
   -6.8220   15.9950  -33.9020 C   0  0  0  0  0  0  0  0  0  0  0  0
   -6.0640   17.2200  -33.6390 N   0  0  0  0  0  0  0  0  0  0  0  0
   -6.7920   18.4890  -33.4900 C   0  0  0  0  0  0  0  0  0  0  0  0
   -5.9340   19.6440  -33.0270 C   0  0  0  0  0  0  0  0  0  0  0  0
   -6.5500   20.8610  -32.6930 C   0  0  0  0  0  0  0  0  0  0  0  0
   -5.7880   21.9690  -32.2970 C   0  0  0  0  0  0  0  0  0  0  0  0
   -6.4120   23.1750  -31.9710 O   0  0  0  0  0  0  0  0  0  0  0  0
   -4.3900   21.8700  -32.2350 C   0  0  0  0  0  0  0  0  0  0  0  0
   -3.6350   23.0050  -31.7860 N   0  0  0  0  0  0  0  0  0  0  0  0
   -3.8700   23.8430  -30.2900 S   0  0  0  0  0  0  0  0  0  0  0  0
   -3.8550   25.3210  -30.5540 O   0  0  0  0  0  0  0  0  0  0  0  0
   -5.2080   23.4800  -29.7200 O   0  0  0  0  0  0  0  0  0  0  0  0
   -2.5440   23.4510  -29.1930 C   0  0  0  0  0  0  0  0  0  0  0  0
   -2.4960   22.1580  -28.6540 C   0  0  0  0  0  0  0  0  0  0  0  0
   -1.4950   21.8020  -27.7420 C   0  0  0  0  0  0  0  0  0  0  0  0
   -1.4640   20.1730  -27.0800 S   0  0  0  0  0  0  0  0  0  0  0  0
   -1.5950   20.2730  -25.5880 O   0  0  0  0  0  0  0  0  0  0  0  0
   -2.6160   19.3730  -27.6190 O   0  0  0  0  0  0  0  0  0  0  0  0
    0.0500   19.3950  -27.4880 N   0  0  0  0  0  0  0  0  0  0  0  0
    0.8160   20.1610  -28.4920 C   0  0  0  0  0  0  0  0  0  0  0  0
    0.2940   19.9770  -29.9310 C   0  0  0  0  0  0  0  0  0  0  0  0
   -0.1830   18.5470  -30.2300 C   0  0  0  0  0  0  0  0  0  0  0  0
    0.3440   17.5510  -29.2020 C   0  0  0  0  0  0  0  0  0  0  0  0
   -0.1230   17.9510  -27.7920 C   0  0  0  0  0  0  0  0  0  0  0  0
   -0.5290   22.7420  -27.3710 C   0  0  0  0  0  0  0  0  0  0  0  0
   -0.5690   24.0300  -27.9080 C   0  0  0  0  0  0  0  0  0  0  0  0
   -1.5690   24.3910  -28.8170 C   0  0  0  0  0  0  0  0  0  0  0  0
   -1.5740   25.6790  -29.3370 O   0  0  0  0  0  0  0  0  0  0  0  0
   -3.7670   20.6580  -32.5930 C   0  0  0  0  0  0  0  0  0  0  0  0
   -4.5310   19.5550  -32.9920 C   0  0  0  0  0  0  0  0  0  0  0  0
   -3.8770   18.3400  -33.3340 N   0  0  0  0  0  0  0  0  0  0  0  0
   -4.6290   17.1760  -33.6520 C   0  0  0  0  0  0  0  0  0  0  0  0
   -4.0200   16.1080  -33.9390 O   0  0  0  0  0  0  0  0  0  0  0  0
   -7.1098   15.5299  -32.9476 H   0  0  0  0  0  0  0  0  0  0  0  0
   -7.7265   16.2401  -34.4780 H   0  0  0  0  0  0  0  0  0  0  0  0
   -6.1990   15.2949  -34.4780 H   0  0  0  0  0  0  0  0  0  0  0  0
   -7.2290   18.7526  -34.4644 H   0  0  0  0  0  0  0  0  0  0  0  0
   -7.5526   18.3280  -32.7118 H   0  0  0  0  0  0  0  0  0  0  0  0
   -7.6456   20.9460  -32.7428 H   0  0  0  0  0  0  0  0  0  0  0  0
   -5.8940   23.9470  -31.5770 H   0  0  0  0  0  0  0  0  0  0  0  0
   -3.2519   21.4159  -28.9503 H   0  0  0  0  0  0  0  0  0  0  0  0
    0.7587   21.2288  -28.2341 H   0  0  0  0  0  0  0  0  0  0  0  0
    1.8488   19.7830  -28.4703 H   0  0  0  0  0  0  0  0  0  0  0  0
   -0.5497   20.6655  -30.0864 H   0  0  0  0  0  0  0  0  0  0  0  0
    1.1335   20.1875  -30.6099 H   0  0  0  0  0  0  0  0  0  0  0  0
   -1.2827   18.5273  -30.2145 H   0  0  0  0  0  0  0  0  0  0  0  0
    0.2021   18.2563  -31.2185 H   0  0  0  0  0  0  0  0  0  0  0  0
   -0.0363   16.5467  -29.4401 H   0  0  0  0  0  0  0  0  0  0  0  0
    1.4436   17.5510  -29.2310 H   0  0  0  0  0  0  0  0  0  0  0  0
   -1.1903   17.7025  -27.6971 H   0  0  0  0  0  0  0  0  0  0  0  0
    0.5045   17.3969  -27.0784 H   0  0  0  0  0  0  0  0  0  0  0  0
    0.2614   22.4672  -26.6570 H   0  0  0  0  0  0  0  0  0  0  0  0
    0.1924   24.7673  -27.6138 H   0  0  0  0  0  0  0  0  0  0  0  0
   -2.6705   20.5778  -32.5586 H   0  0  0  0  0  0  0  0  0  0  0  0
  1  2  1  0
  2  3  1  0
  3  4  1  0
  4  5  2  0
  5  6  1  0
  6  7  1  0
  6  8  2  0
  8  9  1  0
  9 10  1  0
 10 11  2  0
 10 12  2  0
 10 13  1  0
 13 14  2  0
 14 15  1  0
 15 16  1  0
 16 17  2  0
 16 18  2  0
 16 19  1  0
 19 20  1  0
 20 21  1  0
 21 22  1  0
 22 23  1  0
 23 24  1  0
 15 25  2  0
 25 26  1  0
 26 27  2  0
 27 28  1  0
  8 29  1  0
 29 30  2  0
 30 31  1  0
 31 32  1  0
 32 33  2  0
 32  2  1  0
 30  4  1  0
 27 13  1  0
 24 19  1  0
  1 34  1  0
  1 35  1  0
  1 36  1  0
  3 37  1  0
  3 38  1  0
  5 39  1  0
  7 40  1  0
 14 41  1  0
 20 42  1  0
 20 43  1  0
 21 44  1  0
 21 45  1  0
 22 46  1  0
 22 47  1  0
 23 48  1  0
 23 49  1  0
 24 50  1  0
 24 51  1  0
 25 52  1  0
 26 53  1  0
 29 54  1  0
M  CHG  3   9  -1  28  -1  31  -1
M  END
>  <UniqueID>  (20) 
19

>  <SMILES>  (20) 
CN1Cc2cc(O)c([N-]S(=O)(=O)c3cc(S(=O)(=O)N4CCCCC4)ccc3[O-])cc2[N-]C1=O

>  <Energy>  (20) 
68.28756031851796

>  <Genealogy>  (20) 
CN1Cc2cc(O)c([N-]S(=O)(=O)c3cc(S(=O)(=O)N4CCCCC4)ccc3[O-])cc2[N-]C1=O (protonated)
CN1Cc2cc(O)c([N-]S(=O)(=O)c3cc(S(=O)(=O)N4CCCCC4)ccc3[O-])cc2[N-]C1=O (3D coordinates assigned)
CN1Cc2cc(O)c([N-]S(=O)(=O)c3cc(S(=O)(=O)N4CCCCC4)ccc3[O-])cc2[N-]C1=O (nonaromatic ring conformer: 68.28756031851796 kcal/mol)

>  <smiles>  (20) 
CN1Cc2cc(O)c(NS(=O)(=O)c3cc(S(=O)(=O)N4CCCCC4)ccc3O)cc2NC1=O

>  <score_type>  (20) 
oracle

>  <origin>  (20) 
adgpu

>  <m_score__min__energy>  (20) 
-13.890000000000001

>  <m_primary>  (20) 
energy

$$$$
20:0
     RDKit          3D

 40 43  0  0  0  0  0  0  0  0999 V2000
   -3.8650   25.6710  -30.8520 O   0  0  0  0  0  0  0  0  0  0  0  0
   -4.1050   24.4950  -30.1410 C   0  0  0  0  0  0  0  0  0  0  0  0
   -5.2630   23.7540  -30.1990 C   0  0  0  0  0  0  0  0  0  0  0  0
   -6.4210   23.9860  -31.1180 C   0  0  0  0  0  0  0  0  0  0  0  0
   -7.1150   22.6870  -31.4010 C   0  0  0  0  0  0  0  0  0  0  0  0
   -8.3600   22.2930  -30.9230 C   0  0  0  0  0  0  0  0  0  0  0  0
   -8.6310   21.0210  -31.2970 N   0  0  0  0  0  0  0  0  0  0  0  0
   -7.5620   20.6050  -31.9970 C   0  0  0  0  0  0  0  0  0  0  0  0
   -7.3600   19.3450  -32.5600 C   0  0  0  0  0  0  0  0  0  0  0  0
   -6.1430   19.1090  -33.2260 C   0  0  0  0  0  0  0  0  0  0  0  0
   -5.1660   20.1250  -33.3130 C   0  0  0  0  0  0  0  0  0  0  0  0
   -5.3980   21.3870  -32.7370 C   0  0  0  0  0  0  0  0  0  0  0  0
   -6.6140   21.5920  -32.0830 C   0  0  0  0  0  0  0  0  0  0  0  0
   -5.1440   22.6760  -29.3970 N   0  0  0  0  0  0  0  0  0  0  0  0
   -3.9070   22.7960  -28.8680 C   0  0  0  0  0  0  0  0  0  0  0  0
   -3.2830   21.6760  -27.8470 S   0  0  0  0  0  0  0  0  0  0  0  0
   -3.2400   23.8940  -29.3000 N   0  0  0  0  0  0  0  0  0  0  0  0
   -1.8280   24.2230  -29.0800 C   0  0  0  0  0  0  0  0  0  0  0  0
   -1.6840   25.0860  -27.8520 C   0  0  0  0  0  0  0  0  0  0  0  0
   -2.5310   24.8990  -26.7460 C   0  0  0  0  0  0  0  0  0  0  0  0
   -2.3650   25.6710  -25.5920 C   0  0  0  0  0  0  0  0  0  0  0  0
   -1.3510   26.6310  -25.5310 C   0  0  0  0  0  0  0  0  0  0  0  0
   -1.1900   27.3760  -24.4090 F   0  0  0  0  0  0  0  0  0  0  0  0
   -0.5040   26.8220  -26.6250 C   0  0  0  0  0  0  0  0  0  0  0  0
   -0.6680   26.0540  -27.7820 C   0  0  0  0  0  0  0  0  0  0  0  0
   -4.1540   25.7920  -31.8140 H   0  0  0  0  0  0  0  0  0  0  0  0
   -7.1288   24.6823  -30.6445 H   0  0  0  0  0  0  0  0  0  0  0  0
   -6.0542   24.4144  -32.0624 H   0  0  0  0  0  0  0  0  0  0  0  0
   -9.0309   22.9268  -30.3245 H   0  0  0  0  0  0  0  0  0  0  0  0
   -9.4880   20.4720  -31.0660 H   0  0  0  0  0  0  0  0  0  0  0  0
   -8.1276   18.5606  -32.4858 H   0  0  0  0  0  0  0  0  0  0  0  0
   -5.9514   18.1264  -33.6819 H   0  0  0  0  0  0  0  0  0  0  0  0
   -4.2177   19.9282  -33.8345 H   0  0  0  0  0  0  0  0  0  0  0  0
   -4.6454   22.1867  -32.7999 H   0  0  0  0  0  0  0  0  0  0  0  0
   -1.2550   23.2943  -28.9416 H   0  0  0  0  0  0  0  0  0  0  0  0
   -1.4451   24.7715  -29.9533 H   0  0  0  0  0  0  0  0  0  0  0  0
   -3.3280   24.1420  -26.7884 H   0  0  0  0  0  0  0  0  0  0  0  0
   -3.0334   25.5226  -24.7310 H   0  0  0  0  0  0  0  0  0  0  0  0
    0.2936   27.5780  -26.5764 H   0  0  0  0  0  0  0  0  0  0  0  0
    0.0014   26.2084  -28.6411 H   0  0  0  0  0  0  0  0  0  0  0  0
  1  2  1  0
  2  3  2  0
  3  4  1  0
  4  5  1  0
  5  6  2  0
  6  7  1  0
  7  8  1  0
  8  9  2  0
  9 10  1  0
 10 11  2  0
 11 12  1  0
 12 13  2  0
  3 14  1  0
 14 15  1  0
 15 16  2  0
 15 17  1  0
 17 18  1  0
 18 19  1  0
 19 20  2  0
 20 21  1  0
 21 22  2  0
 22 23  1  0
 22 24  1  0
 24 25  2  0
 17  2  1  0
 25 19  1  0
 13  5  1  0
 13  8  1  0
  1 26  1  0
  4 27  1  0
  4 28  1  0
  6 29  1  0
  7 30  1  0
  9 31  1  0
 10 32  1  0
 11 33  1  0
 12 34  1  0
 18 35  1  0
 18 36  1  0
 20 37  1  0
 21 38  1  0
 24 39  1  0
 25 40  1  0
M  CHG  1  14  -1
M  END
>  <UniqueID>  (21) 
20

>  <SMILES>  (21) 
Oc1c(Cc2c[nH]c3ccccc23)[n-]c(=S)n1Cc1ccc(F)cc1

>  <Energy>  (21) 
105.15866442832868

>  <Genealogy>  (21) 
Oc1c(Cc2c[nH]c3ccccc23)[n-]c(=S)n1Cc1ccc(F)cc1 (protonated)
Oc1c(Cc2c[nH]c3ccccc23)[n-]c(=S)n1Cc1ccc(F)cc1 (3D coordinates assigned)
Oc1c(Cc2c[nH]c3ccccc23)[n-]c(=S)n1Cc1ccc(F)cc1 (optimized conformer: 105.15866442832868 kcal/mol)

>  <smiles>  (21) 
Oc1c(Cc2c[nH]c3ccccc23)[nH]c(=S)n1Cc1ccc(F)cc1

>  <score_type>  (21) 
oracle

>  <origin>  (21) 
adgpu

>  <m_score__min__energy>  (21) 
-10.33

>  <m_primary>  (21) 
energy

$$$$
21:0
     RDKit          3D

 41 43  0  0  0  0  0  0  0  0999 V2000
   -5.5160   18.5600  -34.4610 C   0  0  0  0  0  0  0  0  0  0  0  0
   -5.5100   19.6860  -33.4770 C   0  0  0  0  0  0  0  0  0  0  0  0
   -4.3410   20.0120  -32.7800 C   0  0  0  0  0  0  0  0  0  0  0  0
   -4.3570   21.0540  -31.8540 C   0  0  0  0  0  0  0  0  0  0  0  0
   -5.5420   21.7780  -31.6220 C   0  0  0  0  0  0  0  0  0  0  0  0
   -5.6110   22.8410  -30.6890 C   0  0  0  0  0  0  0  0  0  0  0  0
   -4.4380   23.2910  -29.9890 N   0  0  0  0  0  0  0  0  0  0  0  0
   -3.8900   24.6070  -30.1460 C   0  0  0  0  0  0  0  0  0  0  0  0
   -4.4870   25.4700  -30.8440 O   0  0  0  0  0  0  0  0  0  0  0  0
   -2.6430   24.9220  -29.5200 N   0  0  0  0  0  0  0  0  0  0  0  0
   -1.9640   24.0920  -28.5690 C   0  0  0  0  0  0  0  0  0  0  0  0
   -1.9150   24.2190  -27.1860 C   0  0  0  0  0  0  0  0  0  0  0  0
   -2.5100   25.3010  -26.3440 C   0  0  0  0  0  0  0  0  0  0  0  0
   -1.2820   23.1460  -26.6690 N   0  0  0  0  0  0  0  0  0  0  0  0
   -0.9530   22.3450  -27.6740 N   0  0  0  0  0  0  0  0  0  0  0  0
   -0.2800   21.0640  -27.4940 C   0  0  0  0  0  0  0  0  0  0  0  0
   -1.3600   22.8840  -28.8430 C   0  0  0  0  0  0  0  0  0  0  0  0
   -1.2570   22.2210  -30.1830 C   0  0  0  0  0  0  0  0  0  0  0  0
   -6.8360   23.5020  -30.4930 C   0  0  0  0  0  0  0  0  0  0  0  0
   -7.9770   23.1150  -31.2000 C   0  0  0  0  0  0  0  0  0  0  0  0
   -7.9130   22.0680  -32.1190 C   0  0  0  0  0  0  0  0  0  0  0  0
   -6.7060   21.3990  -32.3360 C   0  0  0  0  0  0  0  0  0  0  0  0
   -6.6560   20.3760  -33.2320 N   0  0  0  0  0  0  0  0  0  0  0  0
   -5.5211   17.6015  -33.9213 H   0  0  0  0  0  0  0  0  0  0  0  0
   -6.4138   18.6299  -35.0927 H   0  0  0  0  0  0  0  0  0  0  0  0
   -4.6175   18.6203  -35.0927 H   0  0  0  0  0  0  0  0  0  0  0  0
   -3.4139   19.4487  -32.9620 H   0  0  0  0  0  0  0  0  0  0  0  0
   -3.4406   21.3114  -31.3027 H   0  0  0  0  0  0  0  0  0  0  0  0
   -3.9750   22.6470  -29.3110 H   0  0  0  0  0  0  0  0  0  0  0  0
   -2.3744   25.0545  -25.2806 H   0  0  0  0  0  0  0  0  0  0  0  0
   -2.0097   26.2552  -26.5659 H   0  0  0  0  0  0  0  0  0  0  0  0
   -3.5837   25.3897  -26.5659 H   0  0  0  0  0  0  0  0  0  0  0  0
   -0.1703   20.8552  -26.4196 H   0  0  0  0  0  0  0  0  0  0  0  0
   -0.8761   20.2675  -27.9633 H   0  0  0  0  0  0  0  0  0  0  0  0
    0.7141   21.1029  -27.9633 H   0  0  0  0  0  0  0  0  0  0  0  0
   -1.0894   21.1424  -30.0465 H   0  0  0  0  0  0  0  0  0  0  0  0
   -2.1905   22.3791  -30.7430 H   0  0  0  0  0  0  0  0  0  0  0  0
   -0.4155   22.6548  -30.7430 H   0  0  0  0  0  0  0  0  0  0  0  0
   -6.8968   24.3331  -29.7750 H   0  0  0  0  0  0  0  0  0  0  0  0
   -8.9298   23.6382  -31.0312 H   0  0  0  0  0  0  0  0  0  0  0  0
   -8.8143   21.7685  -32.6739 H   0  0  0  0  0  0  0  0  0  0  0  0
  1  2  1  0
  2  3  2  0
  3  4  1  0
  4  5  2  0
  5  6  1  0
  6  7  1  0
  7  8  1  0
  8  9  2  0
  8 10  1  0
 10 11  1  0
 11 12  1  0
 12 13  1  0
 12 14  2  0
 14 15  1  0
 15 16  1  0
 15 17  1  0
 17 18  1  0
  6 19  2  0
 19 20  1  0
 20 21  2  0
 21 22  1  0
 22 23  2  0
 23  2  1  0
 22  5  1  0
 17 11  2  0
  1 24  1  0
  1 25  1  0
  1 26  1  0
  3 27  1  0
  4 28  1  0
  7 29  1  0
 13 30  1  0
 13 31  1  0
 13 32  1  0
 16 33  1  0
 16 34  1  0
 16 35  1  0
 18 36  1  0
 18 37  1  0
 18 38  1  0
 19 39  1  0
 20 40  1  0
 21 41  1  0
M  CHG  1  10  -1
M  END
>  <UniqueID>  (22) 
21

>  <SMILES>  (22) 
Cc1ccc2c(NC(=O)[N-]c3c(C)nn(C)c3C)cccc2n1

>  <Energy>  (22) 
83.63163922096916

>  <Genealogy>  (22) 
Cc1ccc2c(NC(=O)[N-]c3c(C)nn(C)c3C)cccc2n1 (protonated)
Cc1ccc2c(NC(=O)[N-]c3c(C)nn(C)c3C)cccc2n1 (3D coordinates assigned)
Cc1ccc2c(NC(=O)[N-]c3c(C)nn(C)c3C)cccc2n1 (optimized conformer: 83.63163922096916 kcal/mol)

>  <smiles>  (22) 
Cc1ccc2c(NC(=O)Nc3c(C)nn(C)c3C)cccc2n1

>  <score_type>  (22) 
oracle

>  <origin>  (22) 
adgpu

>  <m_score__min__energy>  (22) 
-9.0800000000000001

>  <m_primary>  (22) 
energy

$$$$
22:0
     RDKit          3D

 38 40  0  0  0  0  0  0  0  0999 V2000
   -5.1385   16.9404  -32.4430 H   0  0  0  0  0  0  0  0  0  0  0  0
   -5.8760   17.7550  -32.4940 C   0  0  0  0  0  0  0  0  0  0  0  0
   -6.9490   17.7830  -31.6000 C   0  0  0  0  0  0  0  0  0  0  0  0
   -7.0566   16.9888  -30.8465 H   0  0  0  0  0  0  0  0  0  0  0  0
   -7.8870   18.8190  -31.6610 C   0  0  0  0  0  0  0  0  0  0  0  0
   -8.7345   18.8339  -30.9599 H   0  0  0  0  0  0  0  0  0  0  0  0
   -7.7490   19.8420  -32.6170 C   0  0  0  0  0  0  0  0  0  0  0  0
   -8.6860   20.9250  -32.7190 N   0  0  0  0  0  0  0  0  0  0  0  0
   -8.8010   22.2640  -31.6220 S   0  0  0  0  0  0  0  0  0  0  0  0
   -9.4450   23.4220  -32.3300 O   0  0  0  0  0  0  0  0  0  0  0  0
   -9.6660   21.8770  -30.4550 O   0  0  0  0  0  0  0  0  0  0  0  0
   -7.1940   22.7460  -31.0830 C   0  0  0  0  0  0  0  0  0  0  0  0
   -6.9560   24.0770  -30.7170 C   0  0  0  0  0  0  0  0  0  0  0  0
   -7.7699   24.8149  -30.7720 H   0  0  0  0  0  0  0  0  0  0  0  0
   -5.6870   24.4700  -30.2820 C   0  0  0  0  0  0  0  0  0  0  0  0
   -5.5112   25.5139  -29.9832 H   0  0  0  0  0  0  0  0  0  0  0  0
   -4.6390   23.5450  -30.2240 C   0  0  0  0  0  0  0  0  0  0  0  0
   -3.3530   23.9740  -29.7620 N   0  0  0  0  0  0  0  0  0  0  0  0
   -2.5600   23.1890  -29.1530 N   0  0  0  0  0  0  0  0  0  0  0  0
   -1.2930   23.6370  -28.6750 C   0  0  0  0  0  0  0  0  0  0  0  0
   -0.8640   24.9410  -28.6430 C   0  0  0  0  0  0  0  0  0  0  0  0
   -1.6070   26.0380  -29.0560 O   0  0  0  0  0  0  0  0  0  0  0  0
    0.3850   25.0300  -28.1500 N   0  0  0  0  0  0  0  0  0  0  0  0
    0.7450   23.7550  -27.8790 C   0  0  0  0  0  0  0  0  0  0  0  0
    2.0510   23.3860  -27.2590 C   0  0  0  0  0  0  0  0  0  0  0  0
    1.9572   23.4125  -26.1633 H   0  0  0  0  0  0  0  0  0  0  0  0
    2.3351   22.3724  -27.5783 H   0  0  0  0  0  0  0  0  0  0  0  0
    2.8235   24.1010  -27.5783 H   0  0  0  0  0  0  0  0  0  0  0  0
   -0.2690   22.8600  -28.1780 C   0  0  0  0  0  0  0  0  0  0  0  0
   -0.2591   21.7678  -28.0473 H   0  0  0  0  0  0  0  0  0  0  0  0
   -4.8770   22.2100  -30.5990 C   0  0  0  0  0  0  0  0  0  0  0  0
   -4.0585   21.4760  -30.5630 H   0  0  0  0  0  0  0  0  0  0  0  0
   -6.1500   21.8140  -31.0170 C   0  0  0  0  0  0  0  0  0  0  0  0
   -6.3334   20.7658  -31.2955 H   0  0  0  0  0  0  0  0  0  0  0  0
   -6.6730   19.8010  -33.5120 C   0  0  0  0  0  0  0  0  0  0  0  0
   -6.5608   20.5924  -34.2677 H   0  0  0  0  0  0  0  0  0  0  0  0
   -5.7400   18.7610  -33.4520 C   0  0  0  0  0  0  0  0  0  0  0  0
   -4.8986   18.7357  -34.1601 H   0  0  0  0  0  0  0  0  0  0  0  0
  1  2  1  0
  2  3  2  0
  3  4  1  0
  3  5  1  0
  5  6  1  0
  5  7  2  0
  7  8  1  0
  8  9  1  0
  9 10  2  0
  9 11  2  0
  9 12  1  0
 12 13  2  0
 13 14  1  0
 13 15  1  0
 15 16  1  0
 15 17  2  0
 17 18  1  0
 18 19  2  0
 19 20  1  0
 20 21  2  0
 21 22  1  0
 21 23  1  0
 23 24  1  0
 24 25  1  0
 25 26  1  0
 25 27  1  0
 25 28  1  0
 24 29  2  0
 29 30  1  0
 17 31  1  0
 31 32  1  0
 31 33  2  0
 33 34  1  0
  7 35  1  0
 35 36  1  0
 35 37  2  0
 37 38  1  0
 37  2  1  0
 33 12  1  0
 29 20  1  0
M  CHG  3   8  -1  22  -1  23  -1
M  END
>  <UniqueID>  (23) 
22

>  <SMILES>  (23) 
Cc1cc(/N=N/c2ccc(S(=O)(=O)[N-]c3ccccc3)cc2)c([O-])[n-]1

>  <Energy>  (23) 
69.07471095287524

>  <Genealogy>  (23) 
Cc1cc(N=Nc2ccc(S(=O)(=O)[N-]c3ccccc3)cc2)c([O-])[n-]1 (protonated)
Cc1cc(/N=N/c2ccc(S(=O)(=O)[N-]c3ccccc3)cc2)c([O-])[n-]1 (cis-trans isomerization)
Cc1cc(/N=N/c2ccc(S(=O)(=O)[N-]c3ccccc3)cc2)c([O-])[n-]1 (3D coordinates assigned)
Cc1cc(/N=N/c2ccc(S(=O)(=O)[N-]c3ccccc3)cc2)c([O-])[n-]1 (optimized conformer: 69.07471095287524 kcal/mol)

>  <smiles>  (23) 
Cc1cc(N=Nc2ccc(S(=O)(=O)Nc3ccccc3)cc2)c(O)[nH]1

>  <score_type>  (23) 
oracle

>  <origin>  (23) 
adgpu

>  <m_score__min__energy>  (23) 
-12.460000000000001

>  <m_primary>  (23) 
energy

$$$$
23:0
     RDKit          3D

 50 52  0  0  0  0  0  0  0  0999 V2000
   -0.3370   23.7820  -24.5470 C   0  0  0  0  0  0  0  0  0  0  0  0
   -0.5770   22.6470  -25.3750 O   0  0  0  0  0  0  0  0  0  0  0  0
   -1.3360   22.6740  -26.5540 C   0  0  0  0  0  0  0  0  0  0  0  0
   -1.4570   21.5570  -27.4010 C   0  0  0  0  0  0  0  0  0  0  0  0
   -2.2260   21.6370  -28.5650 C   0  0  0  0  0  0  0  0  0  0  0  0
   -2.8710   22.8310  -28.9150 C   0  0  0  0  0  0  0  0  0  0  0  0
   -3.6740   22.8780  -30.1060 N   0  0  0  0  0  0  0  0  0  0  0  0
   -4.0290   24.0850  -30.7940 C   0  0  0  0  0  0  0  0  0  0  0  0
   -3.5090   25.1870  -30.4690 O   0  0  0  0  0  0  0  0  0  0  0  0
   -4.9880   24.0260  -31.8570 N   0  0  0  0  0  0  0  0  0  0  0  0
   -6.1410   23.1720  -31.8870 C   0  0  0  0  0  0  0  0  0  0  0  0
   -7.3870   23.7310  -31.6180 C   0  0  0  0  0  0  0  0  0  0  0  0
   -8.5340   22.9450  -31.6440 C   0  0  0  0  0  0  0  0  0  0  0  0
   -8.4600   21.5670  -31.9060 C   0  0  0  0  0  0  0  0  0  0  0  0
   -9.7530   20.7960  -31.9850 C   0  0  0  0  0  0  0  0  0  0  0  0
   -7.1890   20.9690  -32.1350 C   0  0  0  0  0  0  0  0  0  0  0  0
   -6.9920   19.2160  -32.4350 S   0  0  0  0  0  0  0  0  0  0  0  0
   -8.2380   18.6920  -33.0940 O   0  0  0  0  0  0  0  0  0  0  0  0
   -6.8350   18.4640  -31.1440 O   0  0  0  0  0  0  0  0  0  0  0  0
   -5.6200   18.8650  -33.4630 N   0  0  0  0  0  0  0  0  0  0  0  0
   -5.9700   17.8700  -34.4890 C   0  0  0  0  0  0  0  0  0  0  0  0
   -4.7140   17.4310  -35.2700 C   0  0  0  0  0  0  0  0  0  0  0  0
   -3.6100   18.2620  -34.9720 O   0  0  0  0  0  0  0  0  0  0  0  0
   -3.2690   18.1350  -33.6020 C   0  0  0  0  0  0  0  0  0  0  0  0
   -4.4760   18.3920  -32.6750 C   0  0  0  0  0  0  0  0  0  0  0  0
   -6.0350   21.7860  -32.1160 C   0  0  0  0  0  0  0  0  0  0  0  0
   -4.7750   21.2210  -32.2940 O   0  0  0  0  0  0  0  0  0  0  0  0
   -2.7680   23.9400  -28.0550 C   0  0  0  0  0  0  0  0  0  0  0  0
   -1.9990   23.8600  -26.8900 C   0  0  0  0  0  0  0  0  0  0  0  0
   -0.3999   23.4845  -23.4899 H   0  0  0  0  0  0  0  0  0  0  0  0
    0.6658   24.1829  -24.7561 H   0  0  0  0  0  0  0  0  0  0  0  0
   -1.0917   24.5545  -24.7561 H   0  0  0  0  0  0  0  0  0  0  0  0
   -0.9445   20.6176  -27.1460 H   0  0  0  0  0  0  0  0  0  0  0  0
   -2.3261   20.7539  -29.2131 H   0  0  0  0  0  0  0  0  0  0  0  0
   -3.9370   21.9730  -30.5590 H   0  0  0  0  0  0  0  0  0  0  0  0
   -7.4651   24.8028  -31.3830 H   0  0  0  0  0  0  0  0  0  0  0  0
   -9.5135   23.4092  -31.4566 H   0  0  0  0  0  0  0  0  0  0  0  0
  -10.1142   20.5806  -30.9685 H   0  0  0  0  0  0  0  0  0  0  0  0
  -10.5041   21.3938  -32.5220 H   0  0  0  0  0  0  0  0  0  0  0  0
   -9.5842   19.8510  -32.5220 H   0  0  0  0  0  0  0  0  0  0  0  0
   -6.4187   16.9914  -34.0024 H   0  0  0  0  0  0  0  0  0  0  0  0
   -6.6851   18.3219  -35.1922 H   0  0  0  0  0  0  0  0  0  0  0  0
   -4.4665   16.3943  -34.9979 H   0  0  0  0  0  0  0  0  0  0  0  0
   -4.9282   17.5091  -36.3461 H   0  0  0  0  0  0  0  0  0  0  0  0
   -2.8953   17.1161  -33.4229 H   0  0  0  0  0  0  0  0  0  0  0  0
   -2.5011   18.8887  -33.3737 H   0  0  0  0  0  0  0  0  0  0  0  0
   -4.7477   17.4573  -32.1626 H   0  0  0  0  0  0  0  0  0  0  0  0
   -4.2060   19.1581  -31.9333 H   0  0  0  0  0  0  0  0  0  0  0  0
   -3.2948   24.8740  -28.3003 H   0  0  0  0  0  0  0  0  0  0  0  0
   -1.9143   24.7371  -26.2316 H   0  0  0  0  0  0  0  0  0  0  0  0
  1  2  1  0
  2  3  1  0
  3  4  2  0
  4  5  1  0
  5  6  2  0
  6  7  1  0
  7  8  1  0
  8  9  2  0
  8 10  1  0
 10 11  1  0
 11 12  2  0
 12 13  1  0
 13 14  2  0
 14 15  1  0
 14 16  1  0
 16 17  1  0
 17 18  2  0
 17 19  2  0
 17 20  1  0
 20 21  1  0
 21 22  1  0
 22 23  1  0
 23 24  1  0
 24 25  1  0
 16 26  2  0
 26 27  1  0
  6 28  1  0
 28 29  2  0
 29  3  1  0
 26 11  1  0
 25 20  1  0
  1 30  1  0
  1 31  1  0
  1 32  1  0
  4 33  1  0
  5 34  1  0
  7 35  1  0
 12 36  1  0
 13 37  1  0
 15 38  1  0
 15 39  1  0
 15 40  1  0
 21 41  1  0
 21 42  1  0
 22 43  1  0
 22 44  1  0
 24 45  1  0
 24 46  1  0
 25 47  1  0
 25 48  1  0
 28 49  1  0
 29 50  1  0
M  CHG  2  10  -1  27  -1
M  END
>  <UniqueID>  (24) 
23

>  <SMILES>  (24) 
COc1ccc(NC(=O)[N-]c2ccc(C)c(S(=O)(=O)N3CCOCC3)c2[O-])cc1

>  <Energy>  (24) 
71.59739911446371

>  <Genealogy>  (24) 
COc1ccc(NC(=O)[N-]c2ccc(C)c(S(=O)(=O)N3CCOCC3)c2[O-])cc1 (protonated)
COc1ccc(NC(=O)[N-]c2ccc(C)c(S(=O)(=O)N3CCOCC3)c2[O-])cc1 (3D coordinates assigned)
COc1ccc(NC(=O)[N-]c2ccc(C)c(S(=O)(=O)N3CCOCC3)c2[O-])cc1 (nonaromatic ring conformer: 71.59739911446371 kcal/mol)

>  <smiles>  (24) 
COc1ccc(NC(=O)Nc2ccc(C)c(S(=O)(=O)N3CCOCC3)c2O)cc1

>  <score_type>  (24) 
oracle

>  <origin>  (24) 
adgpu

>  <m_score__min__energy>  (24) 
-12.119999999999999

>  <m_primary>  (24) 
energy

$$$$
24:0
     RDKit          3D

 59 62  0  0  0  0  0  0  0  0999 V2000
  -10.2500   20.8380  -32.4510 O   0  0  0  0  0  0  0  0  0  0  0  0
   -9.0490   20.5020  -32.2680 C   0  0  0  0  0  0  0  0  0  0  0  0
   -8.6030   19.1910  -32.6430 N   0  0  0  0  0  0  0  0  0  0  0  0
   -7.2520   18.7850  -32.9050 C   0  0  0  0  0  0  0  0  0  0  0  0
   -6.6950   17.7650  -32.1220 C   0  0  0  0  0  0  0  0  0  0  0  0
   -5.3880   17.3270  -32.3530 C   0  0  0  0  0  0  0  0  0  0  0  0
   -4.6270   17.8920  -33.3820 C   0  0  0  0  0  0  0  0  0  0  0  0
   -2.9670   17.3560  -33.6390 S   0  0  0  0  0  0  0  0  0  0  0  0
   -2.6020   17.4970  -35.0910 O   0  0  0  0  0  0  0  0  0  0  0  0
   -2.8780   15.9000  -33.2680 O   0  0  0  0  0  0  0  0  0  0  0  0
   -1.8630   18.2760  -32.6380 N   0  0  0  0  0  0  0  0  0  0  0  0
   -2.4640   19.5400  -32.1610 C   0  0  0  0  0  0  0  0  0  0  0  0
   -2.5680   20.6090  -33.2650 C   0  0  0  0  0  0  0  0  0  0  0  0
   -1.3440   20.6360  -34.1980 C   0  0  0  0  0  0  0  0  0  0  0  0
   -0.1530   19.8890  -33.5980 C   0  0  0  0  0  0  0  0  0  0  0  0
   -0.5320   18.4310  -33.2790 C   0  0  0  0  0  0  0  0  0  0  0  0
   -5.1850   18.8990  -34.1820 C   0  0  0  0  0  0  0  0  0  0  0  0
   -6.4930   19.3360  -33.9540 C   0  0  0  0  0  0  0  0  0  0  0  0
   -8.0840   21.4830  -31.7160 C   0  0  0  0  0  0  0  0  0  0  0  0
   -6.8580   21.0550  -31.1730 C   0  0  0  0  0  0  0  0  0  0  0  0
   -5.9450   21.9830  -30.6640 C   0  0  0  0  0  0  0  0  0  0  0  0
   -6.2410   23.3520  -30.6860 C   0  0  0  0  0  0  0  0  0  0  0  0
   -5.0770   24.5220  -30.0580 S   0  0  0  0  0  0  0  0  0  0  0  0
   -5.7340   25.3450  -28.9850 O   0  0  0  0  0  0  0  0  0  0  0  0
   -4.6670   25.4500  -31.1680 O   0  0  0  0  0  0  0  0  0  0  0  0
   -3.6570   23.7450  -29.4040 N   0  0  0  0  0  0  0  0  0  0  0  0
   -4.0170   22.8770  -28.2710 C   0  0  0  0  0  0  0  0  0  0  0  0
   -2.8110   22.0200  -27.8370 C   0  0  0  0  0  0  0  0  0  0  0  0
   -1.6180   22.4720  -28.4480 O   0  0  0  0  0  0  0  0  0  0  0  0
   -1.7030   22.3080  -29.8530 C   0  0  0  0  0  0  0  0  0  0  0  0
   -2.9700   22.9630  -30.4420 C   0  0  0  0  0  0  0  0  0  0  0  0
   -7.4600   23.7850  -31.2220 C   0  0  0  0  0  0  0  0  0  0  0  0
   -8.3750   22.8590  -31.7320 C   0  0  0  0  0  0  0  0  0  0  0  0
   -7.2909   17.3056  -31.3196 H   0  0  0  0  0  0  0  0  0  0  0  0
   -4.9561   16.5351  -31.7234 H   0  0  0  0  0  0  0  0  0  0  0  0
   -3.4746   19.3271  -31.7824 H   0  0  0  0  0  0  0  0  0  0  0  0
   -1.8079   19.9410  -31.3744 H   0  0  0  0  0  0  0  0  0  0  0  0
   -3.4638   20.4023  -33.8689 H   0  0  0  0  0  0  0  0  0  0  0  0
   -2.6228   21.5888  -32.7681 H   0  0  0  0  0  0  0  0  0  0  0  0
   -1.6150   20.1638  -35.1538 H   0  0  0  0  0  0  0  0  0  0  0  0
   -1.0496   21.6858  -34.3436 H   0  0  0  0  0  0  0  0  0  0  0  0
    0.6786   19.8970  -34.3180 H   0  0  0  0  0  0  0  0  0  0  0  0
    0.1460   20.3897  -32.6653 H   0  0  0  0  0  0  0  0  0  0  0  0
   -0.5333   17.8608  -34.2197 H   0  0  0  0  0  0  0  0  0  0  0  0
    0.2119   18.0606  -32.5583 H   0  0  0  0  0  0  0  0  0  0  0  0
   -4.5911   19.3470  -34.9923 H   0  0  0  0  0  0  0  0  0  0  0  0
   -6.9307   20.1137  -34.5971 H   0  0  0  0  0  0  0  0  0  0  0  0
   -6.6165   19.9821  -31.1490 H   0  0  0  0  0  0  0  0  0  0  0  0
   -4.9892   21.6365  -30.2440 H   0  0  0  0  0  0  0  0  0  0  0  0
   -4.3389   23.5022  -27.4251 H   0  0  0  0  0  0  0  0  0  0  0  0
   -4.8326   22.2080  -28.5829 H   0  0  0  0  0  0  0  0  0  0  0  0
   -2.7008   22.0823  -26.7443 H   0  0  0  0  0  0  0  0  0  0  0  0
   -2.9910   20.9807  -28.1491 H   0  0  0  0  0  0  0  0  0  0  0  0
   -0.8182   22.7680  -30.3173 H   0  0  0  0  0  0  0  0  0  0  0  0
   -1.7517   21.2296  -30.0642 H   0  0  0  0  0  0  0  0  0  0  0  0
   -2.6854   23.6276  -31.2710 H   0  0  0  0  0  0  0  0  0  0  0  0
   -3.6460   22.1775  -30.8108 H   0  0  0  0  0  0  0  0  0  0  0  0
   -7.6988   24.8586  -31.2419 H   0  0  0  0  0  0  0  0  0  0  0  0
   -9.3305   23.2095  -32.1493 H   0  0  0  0  0  0  0  0  0  0  0  0
  1  2  2  0
  2  3  1  0
  3  4  1  0
  4  5  2  0
  5  6  1  0
  6  7  2  0
  7  8  1  0
  8  9  2  0
  8 10  2  0
  8 11  1  0
 11 12  1  0
 12 13  1  0
 13 14  1  0
 14 15  1  0
 15 16  1  0
  7 17  1  0
 17 18  2  0
  2 19  1  0
 19 20  2  0
 20 21  1  0
 21 22  2  0
 22 23  1  0
 23 24  2  0
 23 25  2  0
 23 26  1  0
 26 27  1  0
 27 28  1  0
 28 29  1  0
 29 30  1  0
 30 31  1  0
 22 32  1  0
 32 33  2  0
 18  4  1  0
 33 19  1  0
 16 11  1  0
 31 26  1  0
  5 34  1  0
  6 35  1  0
 12 36  1  0
 12 37  1  0
 13 38  1  0
 13 39  1  0
 14 40  1  0
 14 41  1  0
 15 42  1  0
 15 43  1  0
 16 44  1  0
 16 45  1  0
 17 46  1  0
 18 47  1  0
 20 48  1  0
 21 49  1  0
 27 50  1  0
 27 51  1  0
 28 52  1  0
 28 53  1  0
 30 54  1  0
 30 55  1  0
 31 56  1  0
 31 57  1  0
 32 58  1  0
 33 59  1  0
M  CHG  1   3  -1
M  END
>  <UniqueID>  (25) 
24

>  <SMILES>  (25) 
O=C([N-]c1ccc(S(=O)(=O)N2CCCCC2)cc1)c1ccc(S(=O)(=O)N2CCOCC2)cc1

>  <Energy>  (25) 
79.62154586526098

>  <Genealogy>  (25) 
O=C([N-]c1ccc(S(=O)(=O)N2CCCCC2)cc1)c1ccc(S(=O)(=O)N2CCOCC2)cc1 (protonated)
O=C([N-]c1ccc(S(=O)(=O)N2CCCCC2)cc1)c1ccc(S(=O)(=O)N2CCOCC2)cc1 (3D coordinates assigned)
O=C([N-]c1ccc(S(=O)(=O)N2CCCCC2)cc1)c1ccc(S(=O)(=O)N2CCOCC2)cc1 (nonaromatic ring conformer: 79.62154586526098 kcal/mol)

>  <smiles>  (25) 
O=C(Nc1ccc(S(=O)(=O)N2CCCCC2)cc1)c1ccc(S(=O)(=O)N2CCOCC2)cc1

>  <score_type>  (25) 
oracle

>  <origin>  (25) 
adgpu

>  <m_score__min__energy>  (25) 
-12.220000000000001

>  <m_primary>  (25) 
energy

$$$$
25:0
     RDKit          3D

 51 55  0  0  0  0  0  0  0  0999 V2000
   -3.1500   17.3160  -34.9220 C   0  0  0  0  0  0  0  0  0  0  0  0
   -4.5180   17.2250  -34.3000 C   0  0  0  0  0  0  0  0  0  0  0  0
   -5.1330   18.3850  -33.7970 C   0  0  0  0  0  0  0  0  0  0  0  0
   -6.4080   18.3260  -33.2040 C   0  0  0  0  0  0  0  0  0  0  0  0
   -7.0440   19.5550  -32.6610 C   0  0  0  0  0  0  0  0  0  0  0  0
   -8.4380   19.6150  -32.4620 C   0  0  0  0  0  0  0  0  0  0  0  0
   -9.0340   20.7820  -31.9730 C   0  0  0  0  0  0  0  0  0  0  0  0
   -8.2510   21.9050  -31.6940 C   0  0  0  0  0  0  0  0  0  0  0  0
   -6.8630   21.8630  -31.8880 C   0  0  0  0  0  0  0  0  0  0  0  0
   -5.9040   23.3280  -31.6740 S   0  0  0  0  0  0  0  0  0  0  0  0
   -6.6250   24.5410  -32.2380 O   0  0  0  0  0  0  0  0  0  0  0  0
   -4.5880   23.1500  -32.4060 O   0  0  0  0  0  0  0  0  0  0  0  0
   -5.5960   23.5690  -29.9750 N   0  0  0  0  0  0  0  0  0  0  0  0
   -4.2780   23.6180  -29.4110 C   0  0  0  0  0  0  0  0  0  0  0  0
   -3.8230   22.6250  -28.5230 C   0  0  0  0  0  0  0  0  0  0  0  0
   -2.4960   22.6230  -28.0790 C   0  0  0  0  0  0  0  0  0  0  0  0
   -1.6230   23.6520  -28.4700 C   0  0  0  0  0  0  0  0  0  0  0  0
   -2.0910   24.6680  -29.3190 C   0  0  0  0  0  0  0  0  0  0  0  0
   -3.4140   24.6550  -29.7840 C   0  0  0  0  0  0  0  0  0  0  0  0
   -3.8630   25.6680  -30.6280 O   0  0  0  0  0  0  0  0  0  0  0  0
   -0.3070   23.7350  -27.8930 N   0  0  0  0  0  0  0  0  0  0  0  0
   -0.0710   23.2550  -26.5600 C   0  0  0  0  0  0  0  0  0  0  0  0
    0.8490   23.9120  -25.7270 C   0  0  0  0  0  0  0  0  0  0  0  0
    0.9230   23.5870  -24.3690 C   0  0  0  0  0  0  0  0  0  0  0  0
    0.0830   22.6000  -23.8350 C   0  0  0  0  0  0  0  0  0  0  0  0
   -0.8100   21.9150  -24.6670 C   0  0  0  0  0  0  0  0  0  0  0  0
   -0.8730   22.2250  -26.0310 C   0  0  0  0  0  0  0  0  0  0  0  0
   -1.8740   21.2210  -27.1320 S   0  0  0  0  0  0  0  0  0  0  0  0
   -6.2600   20.6830  -32.3590 C   0  0  0  0  0  0  0  0  0  0  0  0
   -7.0660   17.0880  -33.1150 C   0  0  0  0  0  0  0  0  0  0  0  0
   -6.4660   15.9350  -33.6200 C   0  0  0  0  0  0  0  0  0  0  0  0
   -5.1990   15.9900  -34.2160 C   0  0  0  0  0  0  0  0  0  0  0  0
   -4.6460   14.8070  -34.7110 O   0  0  0  0  0  0  0  0  0  0  0  0
   -2.3893   17.3666  -34.1290 H   0  0  0  0  0  0  0  0  0  0  0  0
   -2.9710   16.4278  -35.5457 H   0  0  0  0  0  0  0  0  0  0  0  0
   -3.0902   18.2201  -35.5457 H   0  0  0  0  0  0  0  0  0  0  0  0
   -4.6111   19.3507  -33.8678 H   0  0  0  0  0  0  0  0  0  0  0  0
   -9.0612   18.7384  -32.6927 H   0  0  0  0  0  0  0  0  0  0  0  0
  -10.1210   20.8157  -31.8078 H   0  0  0  0  0  0  0  0  0  0  0  0
   -8.7249   22.8249  -31.3210 H   0  0  0  0  0  0  0  0  0  0  0  0
   -4.5160   21.8446  -28.1755 H   0  0  0  0  0  0  0  0  0  0  0  0
   -1.4143   25.4807  -29.6218 H   0  0  0  0  0  0  0  0  0  0  0  0
    0.3850   24.3940  -28.3190 H   0  0  0  0  0  0  0  0  0  0  0  0
    1.5128   24.6839  -26.1436 H   0  0  0  0  0  0  0  0  0  0  0  0
    1.6418   24.1069  -23.7185 H   0  0  0  0  0  0  0  0  0  0  0  0
    0.1257   22.3637  -22.7615 H   0  0  0  0  0  0  0  0  0  0  0  0
   -1.4620   21.1335  -24.2496 H   0  0  0  0  0  0  0  0  0  0  0  0
   -5.1688   20.6420  -32.4920 H   0  0  0  0  0  0  0  0  0  0  0  0
   -8.0587   17.0279  -32.6450 H   0  0  0  0  0  0  0  0  0  0  0  0
   -6.9929   14.9720  -33.5498 H   0  0  0  0  0  0  0  0  0  0  0  0
   -3.6450   14.6470  -34.7770 H   0  0  0  0  0  0  0  0  0  0  0  0
  1  2  1  0
  2  3  2  0
  3  4  1  0
  4  5  1  0
  5  6  2  0
  6  7  1  0
  7  8  2  0
  8  9  1  0
  9 10  1  0
 10 11  2  0
 10 12  2  0
 10 13  1  0
 13 14  1  0
 14 15  2  0
 15 16  1  0
 16 17  2  0
 17 18  1  0
 18 19  2  0
 19 20  1  0
 17 21  1  0
 21 22  1  0
 22 23  2  0
 23 24  1  0
 24 25  2  0
 25 26  1  0
 26 27  2  0
 27 28  1  0
  9 29  2  0
  4 30  2  0
 30 31  1  0
 31 32  2  0
 32 33  1  0
 32  2  1  0
 29  5  1  0
 19 14  1  0
 27 22  1  0
 28 16  1  0
  1 34  1  0
  1 35  1  0
  1 36  1  0
  3 37  1  0
  6 38  1  0
  7 39  1  0
  8 40  1  0
 15 41  1  0
 18 42  1  0
 21 43  1  0
 23 44  1  0
 24 45  1  0
 25 46  1  0
 26 47  1  0
 29 48  1  0
 30 49  1  0
 31 50  1  0
 33 51  1  0
M  CHG  2  13  -1  20  -1
M  END
>  <UniqueID>  (26) 
25

>  <SMILES>  (26) 
Cc1cc(-c2cccc(S(=O)(=O)[N-]c3cc4c(cc3[O-])Nc3ccccc3S4)c2)ccc1O

>  <Energy>  (26) 
82.26932451185168

>  <Genealogy>  (26) 
Cc1cc(-c2cccc(S(=O)(=O)[N-]c3cc4c(cc3[O-])Nc3ccccc3S4)c2)ccc1O (protonated)
Cc1cc(-c2cccc(S(=O)(=O)[N-]c3cc4c(cc3[O-])Nc3ccccc3S4)c2)ccc1O (3D coordinates assigned)
Cc1cc(-c2cccc(S(=O)(=O)[N-]c3cc4c(cc3[O-])Nc3ccccc3S4)c2)ccc1O (nonaromatic ring conformer: 82.26932451185168 kcal/mol)

>  <smiles>  (26) 
Cc1cc(-c2cccc(S(=O)(=O)Nc3cc4c(cc3O)Nc3ccccc3S4)c2)ccc1O

>  <score_type>  (26) 
oracle

>  <origin>  (26) 
adgpu

>  <m_score__min__energy>  (26) 
-13.449999999999999

>  <m_primary>  (26) 
energy

$$$$
26:0
     RDKit          3D

 53 55  0  0  0  0  0  0  0  0999 V2000
   -1.8770   27.5430  -38.8340 C   0  0  0  0  0  0  0  0  0  0  0  0
   -1.3980   27.9220  -37.1170 S   0  0  0  0  0  0  0  0  0  0  0  0
   -0.8550   26.2300  -36.6860 C   0  0  0  0  0  0  0  0  0  0  0  0
    0.6560   26.1710  -36.4800 C   0  0  0  0  0  0  0  0  0  0  0  0
    1.2770   25.2570  -37.4910 C   0  0  0  0  0  0  0  0  0  0  0  0
    1.6300   25.7110  -38.6140 O   0  0  0  0  0  0  0  0  0  0  0  0
    1.3920   23.8580  -37.2060 N   0  0  0  0  0  0  0  0  0  0  0  0
    1.6120   23.3250  -35.8640 C   0  0  0  0  0  0  0  0  0  0  0  0
    1.4150   21.8060  -35.8320 C   0  0  0  0  0  0  0  0  0  0  0  0
    0.4370   21.4060  -34.7690 C   0  0  0  0  0  0  0  0  0  0  0  0
   -0.7940   20.8290  -34.9700 C   0  0  0  0  0  0  0  0  0  0  0  0
   -1.3430   20.5900  -33.7630 N   0  0  0  0  0  0  0  0  0  0  0  0
   -2.6750   20.0980  -33.5390 C   0  0  0  0  0  0  0  0  0  0  0  0
   -3.6560   20.9220  -32.9620 C   0  0  0  0  0  0  0  0  0  0  0  0
   -4.9510   20.4360  -32.7530 C   0  0  0  0  0  0  0  0  0  0  0  0
   -5.2850   19.1270  -33.1290 C   0  0  0  0  0  0  0  0  0  0  0  0
   -6.9190   18.5240  -32.8590 S   0  0  0  0  0  0  0  0  0  0  0  0
   -8.0710   19.7110  -33.3670 N   0  0  0  0  0  0  0  0  0  0  0  0
   -7.1110   18.2280  -31.3980 O   0  0  0  0  0  0  0  0  0  0  0  0
   -7.1350   17.2550  -33.6380 O   0  0  0  0  0  0  0  0  0  0  0  0
   -4.3180   18.3120  -33.7330 C   0  0  0  0  0  0  0  0  0  0  0  0
   -3.0220   18.7960  -33.9390 C   0  0  0  0  0  0  0  0  0  0  0  0
   -0.4220   21.0130  -32.8580 C   0  0  0  0  0  0  0  0  0  0  0  0
   -0.5220   20.8730  -31.3890 C   0  0  0  0  0  0  0  0  0  0  0  0
    0.0080   19.7520  -30.7280 C   0  0  0  0  0  0  0  0  0  0  0  0
   -0.0670   19.6530  -29.3380 C   0  0  0  0  0  0  0  0  0  0  0  0
   -0.6520   20.6770  -28.5930 C   0  0  0  0  0  0  0  0  0  0  0  0
   -0.7210   20.5790  -27.2450 F   0  0  0  0  0  0  0  0  0  0  0  0
   -1.1570   21.8070  -29.2400 C   0  0  0  0  0  0  0  0  0  0  0  0
   -1.0880   21.9080  -30.6300 C   0  0  0  0  0  0  0  0  0  0  0  0
    0.6780   21.5240  -33.4480 N   0  0  0  0  0  0  0  0  0  0  0  0
   -2.7396   26.8605  -38.8319 H   0  0  0  0  0  0  0  0  0  0  0  0
   -2.1475   28.4742  -39.3533 H   0  0  0  0  0  0  0  0  0  0  0  0
   -1.0330   27.0656  -39.3533 H   0  0  0  0  0  0  0  0  0  0  0  0
   -1.3561   25.9178  -35.7579 H   0  0  0  0  0  0  0  0  0  0  0  0
   -1.1201   25.5573  -37.5150 H   0  0  0  0  0  0  0  0  0  0  0  0
    1.0785   27.1802  -36.5936 H   0  0  0  0  0  0  0  0  0  0  0  0
    0.8675   25.7887  -35.4705 H   0  0  0  0  0  0  0  0  0  0  0  0
    2.6391   23.5603  -35.5484 H   0  0  0  0  0  0  0  0  0  0  0  0
    0.8817   23.7854  -35.1823 H   0  0  0  0  0  0  0  0  0  0  0  0
    1.0374   21.4730  -36.8100 H   0  0  0  0  0  0  0  0  0  0  0  0
    2.3834   21.3349  -35.6078 H   0  0  0  0  0  0  0  0  0  0  0  0
   -1.2507   20.6022  -35.9447 H   0  0  0  0  0  0  0  0  0  0  0  0
   -3.4047   21.9533  -32.6735 H   0  0  0  0  0  0  0  0  0  0  0  0
   -5.7109   21.0837  -32.2915 H   0  0  0  0  0  0  0  0  0  0  0  0
   -8.9790   19.2130  -33.5110 H   0  0  0  0  0  0  0  0  0  0  0  0
   -7.7640   20.0550  -34.3050 H   0  0  0  0  0  0  0  0  0  0  0  0
   -4.5787   17.2901  -34.0456 H   0  0  0  0  0  0  0  0  0  0  0  0
   -2.2687   18.1529  -34.4176 H   0  0  0  0  0  0  0  0  0  0  0  0
    0.4843   18.9486  -31.3090 H   0  0  0  0  0  0  0  0  0  0  0  0
    0.3362   18.7653  -28.8286 H   0  0  0  0  0  0  0  0  0  0  0  0
   -1.6101   22.6191  -28.6526 H   0  0  0  0  0  0  0  0  0  0  0  0
   -1.4796   22.8042  -31.1334 H   0  0  0  0  0  0  0  0  0  0  0  0
  1  2  1  0
  2  3  1  0
  3  4  1  0
  4  5  1  0
  5  6  2  0
  5  7  1  0
  7  8  1  0
  8  9  1  0
  9 10  1  0
 10 11  2  0
 11 12  1  0
 12 13  1  0
 13 14  2  0
 14 15  1  0
 15 16  2  0
 16 17  1  0
 17 18  1  0
 17 19  2  0
 17 20  2  0
 16 21  1  0
 21 22  2  0
 12 23  1  0
 23 24  1  0
 24 25  2  0
 25 26  1  0
 26 27  2  0
 27 28  1  0
 27 29  1  0
 29 30  2  0
 23 31  2  0
 31 10  1  0
 22 13  1  0
 30 24  1  0
  1 32  1  0
  1 33  1  0
  1 34  1  0
  3 35  1  0
  3 36  1  0
  4 37  1  0
  4 38  1  0
  8 39  1  0
  8 40  1  0
  9 41  1  0
  9 42  1  0
 11 43  1  0
 14 44  1  0
 15 45  1  0
 18 46  1  0
 18 47  1  0
 21 48  1  0
 22 49  1  0
 25 50  1  0
 26 51  1  0
 29 52  1  0
 30 53  1  0
M  CHG  1   7  -1
M  END
>  <UniqueID>  (27) 
26

>  <SMILES>  (27) 
CSCCC(=O)[N-]CCc1cn(-c2ccc(S(N)(=O)=O)cc2)c(-c2ccc(F)cc2)n1

>  <Energy>  (27) 
78.10224169119157

>  <Genealogy>  (27) 
CSCCC(=O)[N-]CCc1cn(-c2ccc(S(N)(=O)=O)cc2)c(-c2ccc(F)cc2)n1 (protonated)
CSCCC(=O)[N-]CCc1cn(-c2ccc(S(N)(=O)=O)cc2)c(-c2ccc(F)cc2)n1 (3D coordinates assigned)
CSCCC(=O)[N-]CCc1cn(-c2ccc(S(N)(=O)=O)cc2)c(-c2ccc(F)cc2)n1 (optimized conformer: 78.10224169119157 kcal/mol)

>  <smiles>  (27) 
CSCCC(=O)NCCc1cn(-c2ccc(S(N)(=O)=O)cc2)c(-c2ccc(F)cc2)n1

>  <score_type>  (27) 
oracle

>  <origin>  (27) 
adgpu

>  <m_score__min__energy>  (27) 
-9.6500000000000004

>  <m_primary>  (27) 
energy

$$$$
27:0
     RDKit          3D

 72 76  0  0  0  0  0  0  0  0999 V2000
    3.2740   20.3099  -34.7584 H   0  0  0  0  0  0  0  0  0  0  0  0
    2.3510   19.9440  -34.2850 C   0  0  0  0  0  0  0  0  0  0  0  0
    1.1700   20.5610  -34.5390 N   0  0  0  0  0  0  0  0  0  0  0  0
    0.0140   20.1310  -33.9680 C   0  0  0  0  0  0  0  0  0  0  0  0
   -1.0920   20.7670  -34.2270 N   0  0  0  0  0  0  0  0  0  0  0  0
   -2.4030   20.5270  -33.6790 C   0  0  0  0  0  0  0  0  0  0  0  0
   -3.1410   21.5410  -33.0430 C   0  0  0  0  0  0  0  0  0  0  0  0
   -2.6990   22.5406  -32.9190 H   0  0  0  0  0  0  0  0  0  0  0  0
   -4.4280   21.2910  -32.5680 C   0  0  0  0  0  0  0  0  0  0  0  0
   -4.9834   22.0876  -32.0514 H   0  0  0  0  0  0  0  0  0  0  0  0
   -5.0200   20.0310  -32.7440 C   0  0  0  0  0  0  0  0  0  0  0  0
   -6.3590   19.7720  -32.2740 N   0  0  0  0  0  0  0  0  0  0  0  0
   -7.2800   20.8810  -32.0040 C   0  0  0  0  0  0  0  0  0  0  0  0
   -7.1565   21.2138  -30.9628 H   0  0  0  0  0  0  0  0  0  0  0  0
   -7.0573   21.7143  -32.6867 H   0  0  0  0  0  0  0  0  0  0  0  0
   -8.7250   20.4170  -32.2230 C   0  0  0  0  0  0  0  0  0  0  0  0
   -9.4115   21.2100  -31.8916 H   0  0  0  0  0  0  0  0  0  0  0  0
   -8.8670   20.2066  -33.2933 H   0  0  0  0  0  0  0  0  0  0  0  0
   -8.9950   19.2360  -31.4920 O   0  0  0  0  0  0  0  0  0  0  0  0
   -8.1920   18.1770  -31.9770 C   0  0  0  0  0  0  0  0  0  0  0  0
   -8.4760   17.2452  -31.4660 H   0  0  0  0  0  0  0  0  0  0  0  0
   -8.3503   18.0812  -33.0613 H   0  0  0  0  0  0  0  0  0  0  0  0
   -6.7090   18.4600  -31.7190 C   0  0  0  0  0  0  0  0  0  0  0  0
   -6.5180   18.4571  -30.6357 H   0  0  0  0  0  0  0  0  0  0  0  0
   -6.0976   17.6826  -32.2006 H   0  0  0  0  0  0  0  0  0  0  0  0
   -4.3040   19.0320  -33.4230 C   0  0  0  0  0  0  0  0  0  0  0  0
   -4.7676   18.0481  -33.5875 H   0  0  0  0  0  0  0  0  0  0  0  0
   -3.0000   19.2740  -33.8960 C   0  0  0  0  0  0  0  0  0  0  0  0
   -2.2670   18.2940  -34.5890 O   0  0  0  0  0  0  0  0  0  0  0  0
   -2.0620   16.9630  -34.1270 C   0  0  0  0  0  0  0  0  0  0  0  0
   -2.0604   16.9528  -33.0270 H   0  0  0  0  0  0  0  0  0  0  0  0
   -2.8713   16.3172  -34.4985 H   0  0  0  0  0  0  0  0  0  0  0  0
   -1.0959   16.5906  -34.4985 H   0  0  0  0  0  0  0  0  0  0  0  0
    0.0350   19.0380  -33.1560 N   0  0  0  0  0  0  0  0  0  0  0  0
    1.1900   18.3780  -32.8790 C   0  0  0  0  0  0  0  0  0  0  0  0
    1.1420   17.2730  -32.0220 O   0  0  0  0  0  0  0  0  0  0  0  0
    0.9420   17.3440  -30.6340 C   0  0  0  0  0  0  0  0  0  0  0  0
    1.3400   16.3090  -29.7690 C   0  0  0  0  0  0  0  0  0  0  0  0
    1.8104   15.4028  -30.1784 H   0  0  0  0  0  0  0  0  0  0  0  0
    1.1400   16.4280  -28.3920 C   0  0  0  0  0  0  0  0  0  0  0  0
    1.4637   15.6202  -27.7192 H   0  0  0  0  0  0  0  0  0  0  0  0
    0.5300   17.5700  -27.8660 C   0  0  0  0  0  0  0  0  0  0  0  0
    0.3914   17.6664  -26.7790 H   0  0  0  0  0  0  0  0  0  0  0  0
    0.0930   18.5960  -28.7220 C   0  0  0  0  0  0  0  0  0  0  0  0
   -0.5020   19.8000  -28.2090 N   0  0  0  0  0  0  0  0  0  0  0  0
   -0.3940   20.6730  -28.7720 H   0  0  0  0  0  0  0  0  0  0  0  0
   -1.2980   19.8630  -27.0140 C   0  0  0  0  0  0  0  0  0  0  0  0
   -1.7710   18.8110  -26.5040 O   0  0  0  0  0  0  0  0  0  0  0  0
   -1.6240   21.1920  -26.3950 C   0  0  0  0  0  0  0  0  0  0  0  0
   -2.1972   21.0300  -25.4703 H   0  0  0  0  0  0  0  0  0  0  0  0
   -0.6857   21.7206  -26.1710 H   0  0  0  0  0  0  0  0  0  0  0  0
   -2.4400   22.0280  -27.3440 C   0  0  0  0  0  0  0  0  0  0  0  0
   -2.5050   23.4210  -27.1890 C   0  0  0  0  0  0  0  0  0  0  0  0
   -1.9716   23.9043  -26.3572 H   0  0  0  0  0  0  0  0  0  0  0  0
   -3.2440   24.1980  -28.0860 C   0  0  0  0  0  0  0  0  0  0  0  0
   -3.2899   25.2895  -27.9578 H   0  0  0  0  0  0  0  0  0  0  0  0
   -3.9270   23.5890  -29.1490 C   0  0  0  0  0  0  0  0  0  0  0  0
   -4.8440   24.5640  -30.2940 S   0  0  0  0  0  0  0  0  0  0  0  0
   -5.3160   23.7070  -31.4350 O   0  0  0  0  0  0  0  0  0  0  0  0
   -3.9710   25.6590  -30.8420 O   0  0  0  0  0  0  0  0  0  0  0  0
   -6.2490   25.2770  -29.4700 C   0  0  0  0  0  0  0  0  0  0  0  0
   -6.1101   25.2065  -28.3811 H   0  0  0  0  0  0  0  0  0  0  0  0
   -6.3466   26.3337  -29.7596 H   0  0  0  0  0  0  0  0  0  0  0  0
   -7.1595   24.7319  -29.7596 H   0  0  0  0  0  0  0  0  0  0  0  0
   -3.8520   22.2000  -29.3160 C   0  0  0  0  0  0  0  0  0  0  0  0
   -4.3780   21.7191  -30.1539 H   0  0  0  0  0  0  0  0  0  0  0  0
   -3.1100   21.4230  -28.4200 C   0  0  0  0  0  0  0  0  0  0  0  0
   -3.0510   20.3334  -28.5588 H   0  0  0  0  0  0  0  0  0  0  0  0
    0.3090   18.4730  -30.1040 C   0  0  0  0  0  0  0  0  0  0  0  0
   -0.0241   19.2753  -30.7788 H   0  0  0  0  0  0  0  0  0  0  0  0
    2.3980   18.8480  -33.4260 C   0  0  0  0  0  0  0  0  0  0  0  0
    3.9570   18.1610  -32.9920 Cl  0  0  0  0  0  0  0  0  0  0  0  0
  1  2  1  0
  2  3  1  0
  3  4  1  0
  4  5  2  0
  5  6  1  0
  6  7  2  0
  7  8  1  0
  7  9  1  0
  9 10  1  0
  9 11  2  0
 11 12  1  0
 12 13  1  0
 13 14  1  0
 13 15  1  0
 13 16  1  0
 16 17  1  0
 16 18  1  0
 16 19  1  0
 19 20  1  0
 20 21  1  0
 20 22  1  0
 20 23  1  0
 23 24  1  0
 23 25  1  0
 11 26  1  0
 26 27  1  0
 26 28  2  0
 28 29  1  0
 29 30  1  0
 30 31  1  0
 30 32  1  0
 30 33  1  0
  4 34  1  0
 34 35  2  0
 35 36  1  0
 36 37  1  0
 37 38  2  0
 38 39  1  0
 38 40  1  0
 40 41  1  0
 40 42  2  0
 42 43  1  0
 42 44  1  0
 44 45  1  0
 45 46  1  0
 45 47  1  0
 47 48  2  0
 47 49  1  0
 49 50  1  0
 49 51  1  0
 49 52  1  0
 52 53  2  0
 53 54  1  0
 53 55  1  0
 55 56  1  0
 55 57  2  0
 57 58  1  0
 58 59  2  0
 58 60  2  0
 58 61  1  0
 61 62  1  0
 61 63  1  0
 61 64  1  0
 57 65  1  0
 65 66  1  0
 65 67  2  0
 67 68  1  0
 44 69  2  0
 69 70  1  0
 35 71  1  0
 71 72  1  0
 71  2  2  0
 28  6  1  0
 69 37  1  0
 23 12  1  0
 67 52  1  0
M  CHG  1   3  -1
M  END
>  <UniqueID>  (28) 
27

>  <SMILES>  (28) 
COc1cc(N2CCOCC2)ccc1/N=c1\nc(Oc2cccc(NC(=O)Cc3ccc(S(C)(=O)=O)cc3)c2)c(Cl)c[n-]1

>  <Energy>  (28) 
97.77935640767934

>  <Genealogy>  (28) 
COc1cc(N2CCOCC2)ccc1N=c1nc(Oc2cccc(NC(=O)Cc3ccc(S(C)(=O)=O)cc3)c2)c(Cl)c[n-]1 (protonated)
COc1cc(N2CCOCC2)ccc1/N=c1\nc(Oc2cccc(NC(=O)Cc3ccc(S(C)(=O)=O)cc3)c2)c(Cl)c[n-]1 (cis-trans isomerization)
COc1cc(N2CCOCC2)ccc1/N=c1\nc(Oc2cccc(NC(=O)Cc3ccc(S(C)(=O)=O)cc3)c2)c(Cl)c[n-]1 (3D coordinates assigned)
COc1cc(N2CCOCC2)ccc1/N=c1\nc(Oc2cccc(NC(=O)Cc3ccc(S(C)(=O)=O)cc3)c2)c(Cl)c[n-]1 (nonaromatic ring conformer: 97.77935640767934 kcal/mol)

>  <smiles>  (28) 
COc1cc(N2CCOCC2)ccc1N=c1nc(Oc2cccc(NC(=O)Cc3ccc(S(C)(=O)=O)cc3)c2)c(Cl)c[nH]1

>  <score_type>  (28) 
oracle

>  <origin>  (28) 
adgpu

>  <m_score__min__energy>  (28) 
-11.49

>  <m_primary>  (28) 
energy

$$$$
28:0
     RDKit          3D

 51 53  0  0  0  0  0  0  0  0999 V2000
   -0.9920   24.8010  -25.1510 C   0  0  0  0  0  0  0  0  0  0  0  0
   -0.8850   23.7460  -26.2130 C   0  0  0  0  0  0  0  0  0  0  0  0
   -0.4230   22.4630  -25.8880 C   0  0  0  0  0  0  0  0  0  0  0  0
   -0.3560   21.4720  -26.8690 C   0  0  0  0  0  0  0  0  0  0  0  0
   -0.7630   21.7480  -28.1760 C   0  0  0  0  0  0  0  0  0  0  0  0
   -1.2570   23.0230  -28.5130 C   0  0  0  0  0  0  0  0  0  0  0  0
   -1.7000   23.3360  -29.8460 N   0  0  0  0  0  0  0  0  0  0  0  0
   -2.8080   22.3530  -30.7490 S   0  0  0  0  0  0  0  0  0  0  0  0
   -2.3190   22.2220  -32.1640 O   0  0  0  0  0  0  0  0  0  0  0  0
   -2.8700   20.9840  -30.1310 O   0  0  0  0  0  0  0  0  0  0  0  0
   -4.4010   23.1110  -30.7700 C   0  0  0  0  0  0  0  0  0  0  0  0
   -5.5460   22.3370  -31.0100 C   0  0  0  0  0  0  0  0  0  0  0  0
   -6.8160   22.9300  -31.0150 C   0  0  0  0  0  0  0  0  0  0  0  0
   -8.2460   21.9530  -31.3470 S   0  0  0  0  0  0  0  0  0  0  0  0
   -9.0500   21.8100  -30.0830 O   0  0  0  0  0  0  0  0  0  0  0  0
   -9.1060   22.6540  -32.3620 O   0  0  0  0  0  0  0  0  0  0  0  0
   -7.8030   20.3710  -31.9530 N   0  0  0  0  0  0  0  0  0  0  0  0
   -7.2020   20.5020  -33.2960 C   0  0  0  0  0  0  0  0  0  0  0  0
   -6.0060   19.5580  -33.5090 C   0  0  0  0  0  0  0  0  0  0  0  0
   -6.1470   18.1510  -32.8980 C   0  0  0  0  0  0  0  0  0  0  0  0
   -7.5510   17.5500  -33.0520 C   0  0  0  0  0  0  0  0  0  0  0  0
   -8.5730   17.9220  -31.9460 C   0  0  0  0  0  0  0  0  0  0  0  0
   -8.9410   19.4210  -31.8390 C   0  0  0  0  0  0  0  0  0  0  0  0
   -6.9380   24.3050  -30.7780 C   0  0  0  0  0  0  0  0  0  0  0  0
   -5.8020   25.0800  -30.5400 C   0  0  0  0  0  0  0  0  0  0  0  0
   -4.5350   24.4900  -30.5350 C   0  0  0  0  0  0  0  0  0  0  0  0
   -3.4160   25.2800  -30.2980 O   0  0  0  0  0  0  0  0  0  0  0  0
   -1.3120   24.0160  -27.5230 C   0  0  0  0  0  0  0  0  0  0  0  0
   -0.9441   24.3286  -24.1588 H   0  0  0  0  0  0  0  0  0  0  0  0
   -0.1616   25.5145  -25.2579 H   0  0  0  0  0  0  0  0  0  0  0  0
   -1.9487   25.3332  -25.2579 H   0  0  0  0  0  0  0  0  0  0  0  0
   -0.1125   22.2365  -24.8573 H   0  0  0  0  0  0  0  0  0  0  0  0
    0.0187   20.4703  -26.6116 H   0  0  0  0  0  0  0  0  0  0  0  0
   -0.6974   20.9655  -28.9463 H   0  0  0  0  0  0  0  0  0  0  0  0
   -1.4360   24.2560  -30.2640 H   0  0  0  0  0  0  0  0  0  0  0  0
   -5.4465   21.2573  -31.1955 H   0  0  0  0  0  0  0  0  0  0  0  0
   -7.9702   20.2713  -34.0488 H   0  0  0  0  0  0  0  0  0  0  0  0
   -6.8314   21.5331  -33.3937 H   0  0  0  0  0  0  0  0  0  0  0  0
   -5.8559   19.4422  -34.5925 H   0  0  0  0  0  0  0  0  0  0  0  0
   -5.1581   20.0269  -32.9882 H   0  0  0  0  0  0  0  0  0  0  0  0
   -5.4270   17.4833  -33.3937 H   0  0  0  0  0  0  0  0  0  0  0  0
   -5.9551   18.2480  -31.8192 H   0  0  0  0  0  0  0  0  0  0  0  0
   -7.9589   17.8894  -34.0156 H   0  0  0  0  0  0  0  0  0  0  0  0
   -7.4177   16.4605  -32.9794 H   0  0  0  0  0  0  0  0  0  0  0  0
   -9.4990   17.3612  -32.1410 H   0  0  0  0  0  0  0  0  0  0  0  0
   -8.0849   17.6677  -30.9936 H   0  0  0  0  0  0  0  0  0  0  0  0
   -9.6566   19.6521  -32.6418 H   0  0  0  0  0  0  0  0  0  0  0  0
   -9.3487   19.5595  -30.8268 H   0  0  0  0  0  0  0  0  0  0  0  0
   -7.9323   24.7755  -30.7795 H   0  0  0  0  0  0  0  0  0  0  0  0
   -5.9042   26.1596  -30.3556 H   0  0  0  0  0  0  0  0  0  0  0  0
   -1.6936   25.0162  -27.7759 H   0  0  0  0  0  0  0  0  0  0  0  0
  1  2  1  0
  2  3  2  0
  3  4  1  0
  4  5  2  0
  5  6  1  0
  6  7  1  0
  7  8  1  0
  8  9  2  0
  8 10  2  0
  8 11  1  0
 11 12  2  0
 12 13  1  0
 13 14  1  0
 14 15  2  0
 14 16  2  0
 14 17  1  0
 17 18  1  0
 18 19  1  0
 19 20  1  0
 20 21  1  0
 21 22  1  0
 22 23  1  0
 13 24  2  0
 24 25  1  0
 25 26  2  0
 26 27  1  0
  6 28  2  0
 28  2  1  0
 26 11  1  0
 23 17  1  0
  1 29  1  0
  1 30  1  0
  1 31  1  0
  3 32  1  0
  4 33  1  0
  5 34  1  0
  7 35  1  0
 12 36  1  0
 18 37  1  0
 18 38  1  0
 19 39  1  0
 19 40  1  0
 20 41  1  0
 20 42  1  0
 21 43  1  0
 21 44  1  0
 22 45  1  0
 22 46  1  0
 23 47  1  0
 23 48  1  0
 24 49  1  0
 25 50  1  0
 28 51  1  0
M  CHG  1  27  -1
M  END
>  <UniqueID>  (29) 
28

>  <SMILES>  (29) 
Cc1cccc(NS(=O)(=O)c2cc(S(=O)(=O)N3CCCCCC3)ccc2[O-])c1

>  <Energy>  (29) 
65.95086244451879

>  <Genealogy>  (29) 
Cc1cccc(NS(=O)(=O)c2cc(S(=O)(=O)N3CCCCCC3)ccc2[O-])c1 (protonated)
Cc1cccc(NS(=O)(=O)c2cc(S(=O)(=O)N3CCCCCC3)ccc2[O-])c1 (3D coordinates assigned)
Cc1cccc(NS(=O)(=O)c2cc(S(=O)(=O)N3CCCCCC3)ccc2[O-])c1 (nonaromatic ring conformer: 65.95086244451879 kcal/mol)

>  <smiles>  (29) 
Cc1cccc(NS(=O)(=O)c2cc(S(=O)(=O)N3CCCCCC3)ccc2O)c1

>  <score_type>  (29) 
oracle

>  <origin>  (29) 
adgpu

>  <m_score__min__energy>  (29) 
-10.9

>  <m_primary>  (29) 
energy

$$$$
29:0
     RDKit          3D

 38 40  0  0  0  0  0  0  0  0999 V2000
   -2.3990   18.3120  -25.8990 N   0  0  0  0  0  0  0  0  0  0  0  0
   -1.6080   19.0680  -26.8280 C   0  0  0  0  0  0  0  0  0  0  0  0
   -2.0020   20.3810  -27.1340 C   0  0  0  0  0  0  0  0  0  0  0  0
   -1.2660   21.1580  -28.0360 C   0  0  0  0  0  0  0  0  0  0  0  0
   -1.7860   22.7900  -28.4500 S   0  0  0  0  0  0  0  0  0  0  0  0
   -2.9340   23.2240  -27.5820 O   0  0  0  0  0  0  0  0  0  0  0  0
   -0.6350   23.7330  -28.2460 O   0  0  0  0  0  0  0  0  0  0  0  0
   -2.2800   22.8420  -30.1120 N   0  0  0  0  0  0  0  0  0  0  0  0
   -3.6390   22.8920  -30.5690 C   0  0  0  0  0  0  0  0  0  0  0  0
   -4.3710   21.7250  -30.8550 C   0  0  0  0  0  0  0  0  0  0  0  0
   -5.6870   21.8060  -31.3290 C   0  0  0  0  0  0  0  0  0  0  0  0
   -6.3010   23.0670  -31.4750 C   0  0  0  0  0  0  0  0  0  0  0  0
   -5.5690   24.2290  -31.1920 C   0  0  0  0  0  0  0  0  0  0  0  0
   -4.2500   24.1420  -30.7370 C   0  0  0  0  0  0  0  0  0  0  0  0
   -3.5460   25.3070  -30.4580 O   0  0  0  0  0  0  0  0  0  0  0  0
   -7.6970   23.1800  -32.0360 C   0  0  0  0  0  0  0  0  0  0  0  0
   -8.4560   21.9360  -31.8520 N   0  0  0  0  0  0  0  0  0  0  0  0
   -7.7180   20.8020  -32.4200 C   0  0  0  0  0  0  0  0  0  0  0  0
   -6.4580   20.5370  -31.5920 C   0  0  0  0  0  0  0  0  0  0  0  0
   -0.1210   20.6260  -28.6360 C   0  0  0  0  0  0  0  0  0  0  0  0
    0.2830   19.3240  -28.3380 C   0  0  0  0  0  0  0  0  0  0  0  0
   -0.4470   18.5340  -27.4430 C   0  0  0  0  0  0  0  0  0  0  0  0
    0.0120   17.2370  -27.1990 O   0  0  0  0  0  0  0  0  0  0  0  0
   -3.3060   18.6490  -25.5140 H   0  0  0  0  0  0  0  0  0  0  0  0
   -2.0780   17.3720  -25.5780 H   0  0  0  0  0  0  0  0  0  0  0  0
   -2.8997   20.8037  -26.6591 H   0  0  0  0  0  0  0  0  0  0  0  0
   -3.9057   20.7396  -30.7050 H   0  0  0  0  0  0  0  0  0  0  0  0
   -6.0357   25.2156  -31.3289 H   0  0  0  0  0  0  0  0  0  0  0  0
   -8.2229   23.9983  -31.5225 H   0  0  0  0  0  0  0  0  0  0  0  0
   -7.6191   23.3791  -33.1150 H   0  0  0  0  0  0  0  0  0  0  0  0
   -9.3550   22.0300  -32.3800 H   0  0  0  0  0  0  0  0  0  0  0  0
   -8.3577   19.9072  -32.4083 H   0  0  0  0  0  0  0  0  0  0  0  0
   -7.4298   21.0377  -33.4551 H   0  0  0  0  0  0  0  0  0  0  0  0
   -6.7508   20.0917  -30.6297 H   0  0  0  0  0  0  0  0  0  0  0  0
   -5.8106   19.8539  -32.1614 H   0  0  0  0  0  0  0  0  0  0  0  0
    0.4619   21.2341  -29.3435 H   0  0  0  0  0  0  0  0  0  0  0  0
    1.1865   18.9136  -28.8125 H   0  0  0  0  0  0  0  0  0  0  0  0
   -0.4660   16.5660  -26.6150 H   0  0  0  0  0  0  0  0  0  0  0  0
  1  2  1  0
  2  3  2  0
  3  4  1  0
  4  5  1  0
  5  6  2  0
  5  7  2  0
  5  8  1  0
  8  9  1  0
  9 10  2  0
 10 11  1  0
 11 12  2  0
 12 13  1  0
 13 14  2  0
 14 15  1  0
 12 16  1  0
 16 17  1  0
 17 18  1  0
 18 19  1  0
  4 20  2  0
 20 21  1  0
 21 22  2  0
 22 23  1  0
 22  2  1  0
 14  9  1  0
 19 11  1  0
  1 24  1  0
  1 25  1  0
  3 26  1  0
 10 27  1  0
 13 28  1  0
 16 29  1  0
 16 30  1  0
 17 31  1  0
 18 32  1  0
 18 33  1  0
 19 34  1  0
 19 35  1  0
 20 36  1  0
 21 37  1  0
 23 38  1  0
M  CHG  2   8  -1  15  -1
M  END
>  <UniqueID>  (30) 
29

>  <SMILES>  (30) 
Nc1cc(S(=O)(=O)[N-]c2cc3c(cc2[O-])CNCC3)ccc1O

>  <Energy>  (30) 
45.56830335765601

>  <Genealogy>  (30) 
Nc1cc(S(=O)(=O)[N-]c2cc3c(cc2[O-])CNCC3)ccc1O (protonated)
Nc1cc(S(=O)(=O)[N-]c2cc3c(cc2[O-])CNCC3)ccc1O (3D coordinates assigned)
Nc1cc(S(=O)(=O)[N-]c2cc3c(cc2[O-])CNCC3)ccc1O (nonaromatic ring conformer: 45.56830335765601 kcal/mol)

>  <smiles>  (30) 
Nc1cc(S(=O)(=O)Nc2cc3c(cc2O)CNCC3)ccc1O

>  <score_type>  (30) 
oracle

>  <origin>  (30) 
adgpu

>  <m_score__min__energy>  (30) 
-12.06

>  <m_primary>  (30) 
energy

$$$$
30:0
     RDKit          3D

 62 65  0  0  0  0  0  0  0  0999 V2000
   -6.0020   25.5160  -30.1590 C   0  0  0  0  0  0  0  0  0  0  0  0
   -4.7460   24.6480  -30.2920 C   0  0  0  0  0  0  0  0  0  0  0  0
   -4.7580   23.5400  -29.2410 C   0  0  0  0  0  0  0  0  0  0  0  0
   -4.6860   24.0380  -31.5860 O   0  0  0  0  0  0  0  0  0  0  0  0
   -5.2200   22.7900  -31.9510 C   0  0  0  0  0  0  0  0  0  0  0  0
   -6.5510   22.5340  -31.5650 C   0  0  0  0  0  0  0  0  0  0  0  0
   -7.1350   21.3290  -31.9470 C   0  0  0  0  0  0  0  0  0  0  0  0
   -6.4470   20.3900  -32.6640 C   0  0  0  0  0  0  0  0  0  0  0  0
   -5.1190   20.5820  -33.0390 C   0  0  0  0  0  0  0  0  0  0  0  0
   -4.4890   21.7870  -32.6670 C   0  0  0  0  0  0  0  0  0  0  0  0
   -3.0950   21.9270  -32.9360 N   0  0  0  0  0  0  0  0  0  0  0  0
   -1.9490   20.9770  -32.0510 S   0  0  0  0  0  0  0  0  0  0  0  0
   -2.2850   19.5200  -32.1960 O   0  0  0  0  0  0  0  0  0  0  0  0
   -0.5760   21.2160  -32.6120 O   0  0  0  0  0  0  0  0  0  0  0  0
   -1.9750   21.4230  -30.3470 C   0  0  0  0  0  0  0  0  0  0  0  0
   -2.4680   20.5190  -29.3970 C   0  0  0  0  0  0  0  0  0  0  0  0
   -2.5310   20.8800  -28.0500 C   0  0  0  0  0  0  0  0  0  0  0  0
   -2.0920   22.1410  -27.6410 C   0  0  0  0  0  0  0  0  0  0  0  0
   -1.5810   23.0500  -28.5790 C   0  0  0  0  0  0  0  0  0  0  0  0
   -1.0220   24.6450  -28.0640 S   0  0  0  0  0  0  0  0  0  0  0  0
   -1.6160   25.6870  -28.9680 O   0  0  0  0  0  0  0  0  0  0  0  0
    0.4740   24.7080  -28.2010 O   0  0  0  0  0  0  0  0  0  0  0  0
   -1.4540   25.0120  -26.4100 N   0  0  0  0  0  0  0  0  0  0  0  0
   -0.4830   24.4790  -25.4570 C   0  0  0  0  0  0  0  0  0  0  0  0
   -0.5770   25.3500  -24.2130 C   0  0  0  0  0  0  0  0  0  0  0  0
   -1.2480   26.6360  -24.6730 C   0  0  0  0  0  0  0  0  0  0  0  0
   -1.4980   26.4510  -26.1610 C   0  0  0  0  0  0  0  0  0  0  0  0
   -1.5370   22.6900  -29.9350 C   0  0  0  0  0  0  0  0  0  0  0  0
   -7.2300   19.3090  -32.8550 N   0  0  0  0  0  0  0  0  0  0  0  0
   -6.8630   18.0340  -33.4660 C   0  0  0  0  0  0  0  0  0  0  0  0
   -8.3860   19.6220  -32.2170 C   0  0  0  0  0  0  0  0  0  0  0  0
   -9.3630   18.8320  -32.1220 O   0  0  0  0  0  0  0  0  0  0  0  0
   -8.3710   20.8640  -31.6720 N   0  0  0  0  0  0  0  0  0  0  0  0
   -9.4000   21.4930  -30.8490 C   0  0  0  0  0  0  0  0  0  0  0  0
   -6.2285   25.6725  -29.0940 H   0  0  0  0  0  0  0  0  0  0  0  0
   -5.8289   26.4881  -30.6438 H   0  0  0  0  0  0  0  0  0  0  0  0
   -6.8501   25.0104  -30.6438 H   0  0  0  0  0  0  0  0  0  0  0  0
   -3.8714   25.2995  -30.1486 H   0  0  0  0  0  0  0  0  0  0  0  0
   -4.7532   23.9876  -28.2362 H   0  0  0  0  0  0  0  0  0  0  0  0
   -5.6628   22.9269  -29.3649 H   0  0  0  0  0  0  0  0  0  0  0  0
   -3.8667   22.9074  -29.3649 H   0  0  0  0  0  0  0  0  0  0  0  0
   -7.1163   23.2702  -30.9747 H   0  0  0  0  0  0  0  0  0  0  0  0
   -4.5767   19.8140  -33.6100 H   0  0  0  0  0  0  0  0  0  0  0  0
   -2.8070   22.2690  -33.8790 H   0  0  0  0  0  0  0  0  0  0  0  0
   -2.8066   19.5214  -29.7136 H   0  0  0  0  0  0  0  0  0  0  0  0
   -2.9272   20.1698  -27.3093 H   0  0  0  0  0  0  0  0  0  0  0  0
   -2.1472   22.4225  -26.5791 H   0  0  0  0  0  0  0  0  0  0  0  0
   -0.7267   23.4353  -25.2096 H   0  0  0  0  0  0  0  0  0  0  0  0
    0.5341   24.4915  -25.8758 H   0  0  0  0  0  0  0  0  0  0  0  0
   -1.1831   24.8542  -23.4404 H   0  0  0  0  0  0  0  0  0  0  0  0
    0.4116   25.5393  -23.7692 H   0  0  0  0  0  0  0  0  0  0  0  0
   -2.1978   26.7868  -24.1390 H   0  0  0  0  0  0  0  0  0  0  0  0
   -0.6237   27.5185  -24.4697 H   0  0  0  0  0  0  0  0  0  0  0  0
   -2.4841   26.8546  -26.4343 H   0  0  0  0  0  0  0  0  0  0  0  0
   -0.7454   26.9832  -26.7614 H   0  0  0  0  0  0  0  0  0  0  0  0
   -1.1568   23.4057  -30.6788 H   0  0  0  0  0  0  0  0  0  0  0  0
   -6.6509   17.2971  -32.6774 H   0  0  0  0  0  0  0  0  0  0  0  0
   -7.6940   17.6739  -34.0904 H   0  0  0  0  0  0  0  0  0  0  0  0
   -5.9678   18.1708  -34.0904 H   0  0  0  0  0  0  0  0  0  0  0  0
   -9.1596   21.3461  -29.7857 H   0  0  0  0  0  0  0  0  0  0  0  0
   -9.4394   22.5697  -31.0706 H   0  0  0  0  0  0  0  0  0  0  0  0
  -10.3762   21.0371  -31.0706 H   0  0  0  0  0  0  0  0  0  0  0  0
  1  2  1  0
  2  3  1  0
  2  4  1  0
  4  5  1  0
  5  6  2  0
  6  7  1  0
  7  8  2  0
  8  9  1  0
  9 10  2  0
 10 11  1  0
 11 12  1  0
 12 13  2  0
 12 14  2  0
 12 15  1  0
 15 16  2  0
 16 17  1  0
 17 18  2  0
 18 19  1  0
 19 20  1  0
 20 21  2  0
 20 22  2  0
 20 23  1  0
 23 24  1  0
 24 25  1  0
 25 26  1  0
 26 27  1  0
 19 28  2  0
  8 29  1  0
 29 30  1  0
 29 31  1  0
 31 32  2  0
 31 33  1  0
 33 34  1  0
 10  5  1  0
 28 15  1  0
 33  7  1  0
 27 23  1  0
  1 35  1  0
  1 36  1  0
  1 37  1  0
  2 38  1  0
  3 39  1  0
  3 40  1  0
  3 41  1  0
  6 42  1  0
  9 43  1  0
 11 44  1  0
 16 45  1  0
 17 46  1  0
 18 47  1  0
 24 48  1  0
 24 49  1  0
 25 50  1  0
 25 51  1  0
 26 52  1  0
 26 53  1  0
 27 54  1  0
 27 55  1  0
 28 56  1  0
 30 57  1  0
 30 58  1  0
 30 59  1  0
 34 60  1  0
 34 61  1  0
 34 62  1  0
M  END
>  <UniqueID>  (31) 
30

>  <SMILES>  (31) 
CC(C)Oc1cc2c(cc1NS(=O)(=O)c1cccc(S(=O)(=O)N3CCCC3)c1)n(C)c(=O)n2C

>  <Energy>  (31) 
110.07158127775006

>  <Genealogy>  (31) 
CC(C)Oc1cc2c(cc1NS(=O)(=O)c1cccc(S(=O)(=O)N3CCCC3)c1)n(C)c(=O)n2C (3D coordinates assigned)
CC(C)Oc1cc2c(cc1NS(=O)(=O)c1cccc(S(=O)(=O)N3CCCC3)c1)n(C)c(=O)n2C (nonaromatic ring conformer: 110.07158127775006 kcal/mol)

>  <smiles>  (31) 
CC(C)Oc1cc2c(cc1NS(=O)(=O)c1cccc(S(=O)(=O)N3CCCC3)c1)n(C)c(=O)n2C

>  <score_type>  (31) 
oracle

>  <origin>  (31) 
adgpu

>  <m_score__min__energy>  (31) 
-11.77

>  <m_primary>  (31) 
energy

$$$$
31:0
     RDKit          3D

 45 47  0  0  0  0  0  0  0  0999 V2000
    0.2270   26.3190  -27.0840 C   0  0  0  0  0  0  0  0  0  0  0  0
   -1.0750   25.9180  -27.7110 C   0  0  0  0  0  0  0  0  0  0  0  0
   -1.2410   26.0700  -28.9120 O   0  0  0  0  0  0  0  0  0  0  0  0
   -2.1820   25.3370  -26.8720 C   0  0  0  0  0  0  0  0  0  0  0  0
   -2.4330   23.8960  -27.2480 C   0  0  0  0  0  0  0  0  0  0  0  0
   -1.5410   22.9050  -26.8010 C   0  0  0  0  0  0  0  0  0  0  0  0
   -1.7440   21.5660  -27.1380 C   0  0  0  0  0  0  0  0  0  0  0  0
   -2.8410   21.2000  -27.9170 C   0  0  0  0  0  0  0  0  0  0  0  0
   -3.7460   22.1690  -28.3560 C   0  0  0  0  0  0  0  0  0  0  0  0
   -3.5570   23.5240  -28.0220 C   0  0  0  0  0  0  0  0  0  0  0  0
   -4.4780   24.5380  -28.4580 N   0  0  0  0  0  0  0  0  0  0  0  0
   -5.0010   24.7960  -30.0910 S   0  0  0  0  0  0  0  0  0  0  0  0
   -6.2170   25.6810  -30.0950 O   0  0  0  0  0  0  0  0  0  0  0  0
   -3.9040   25.4820  -30.8550 O   0  0  0  0  0  0  0  0  0  0  0  0
   -5.3370   23.2450  -30.8540 C   0  0  0  0  0  0  0  0  0  0  0  0
   -6.5850   22.6250  -30.7060 C   0  0  0  0  0  0  0  0  0  0  0  0
   -6.8330   21.3910  -31.3130 C   0  0  0  0  0  0  0  0  0  0  0  0
   -5.8380   20.7630  -32.0840 C   0  0  0  0  0  0  0  0  0  0  0  0
   -6.0970   19.4530  -32.7310 C   0  0  0  0  0  0  0  0  0  0  0  0
   -5.4830   19.1270  -33.9540 C   0  0  0  0  0  0  0  0  0  0  0  0
   -5.7470   17.9010  -34.5750 C   0  0  0  0  0  0  0  0  0  0  0  0
   -6.6210   16.9830  -33.9770 C   0  0  0  0  0  0  0  0  0  0  0  0
   -6.8970   15.7630  -34.5890 O   0  0  0  0  0  0  0  0  0  0  0  0
   -7.2260   17.2960  -32.7570 C   0  0  0  0  0  0  0  0  0  0  0  0
   -6.9690   18.5220  -32.1370 C   0  0  0  0  0  0  0  0  0  0  0  0
   -4.5900   21.3920  -32.2290 C   0  0  0  0  0  0  0  0  0  0  0  0
   -4.3420   22.6220  -31.6160 C   0  0  0  0  0  0  0  0  0  0  0  0
    0.1309   26.2894  -25.9886 H   0  0  0  0  0  0  0  0  0  0  0  0
    1.0169   25.6225  -27.4018 H   0  0  0  0  0  0  0  0  0  0  0  0
    0.4882   27.3392  -27.4018 H   0  0  0  0  0  0  0  0  0  0  0  0
   -1.8971   25.3895  -25.8108 H   0  0  0  0  0  0  0  0  0  0  0  0
   -3.1013   25.9149  -27.0479 H   0  0  0  0  0  0  0  0  0  0  0  0
   -0.6771   23.1872  -26.1813 H   0  0  0  0  0  0  0  0  0  0  0  0
   -1.0377   20.7984  -26.7887 H   0  0  0  0  0  0  0  0  0  0  0  0
   -2.9942   20.1446  -28.1867 H   0  0  0  0  0  0  0  0  0  0  0  0
   -4.6116   21.8720  -28.9663 H   0  0  0  0  0  0  0  0  0  0  0  0
   -7.3717   23.1111  -30.1103 H   0  0  0  0  0  0  0  0  0  0  0  0
   -7.8129   20.9074  -31.1871 H   0  0  0  0  0  0  0  0  0  0  0  0
   -4.7909   19.8404  -34.4252 H   0  0  0  0  0  0  0  0  0  0  0  0
   -5.2675   17.6573  -35.5345 H   0  0  0  0  0  0  0  0  0  0  0  0
   -7.5660   15.6900  -35.3500 H   0  0  0  0  0  0  0  0  0  0  0  0
   -7.9074   16.5745  -32.2825 H   0  0  0  0  0  0  0  0  0  0  0  0
   -7.4518   18.7608  -31.1779 H   0  0  0  0  0  0  0  0  0  0  0  0
   -3.8030   20.9123  -32.8294 H   0  0  0  0  0  0  0  0  0  0  0  0
   -3.3599   23.1035  -31.7326 H   0  0  0  0  0  0  0  0  0  0  0  0
  1  2  1  0
  2  3  2  0
  2  4  1  0
  4  5  1  0
  5  6  2  0
  6  7  1  0
  7  8  2  0
  8  9  1  0
  9 10  2  0
 10 11  1  0
 11 12  1  0
 12 13  2  0
 12 14  2  0
 12 15  1  0
 15 16  2  0
 16 17  1  0
 17 18  2  0
 18 19  1  0
 19 20  2  0
 20 21  1  0
 21 22  2  0
 22 23  1  0
 22 24  1  0
 24 25  2  0
 18 26  1  0
 26 27  2  0
 10  5  1  0
 27 15  1  0
 25 19  1  0
  1 28  1  0
  1 29  1  0
  1 30  1  0
  4 31  1  0
  4 32  1  0
  6 33  1  0
  7 34  1  0
  8 35  1  0
  9 36  1  0
 16 37  1  0
 17 38  1  0
 20 39  1  0
 21 40  1  0
 23 41  1  0
 24 42  1  0
 25 43  1  0
 26 44  1  0
 27 45  1  0
M  CHG  1  11  -1
M  END
>  <UniqueID>  (32) 
31

>  <SMILES>  (32) 
CC(=O)Cc1ccccc1[N-]S(=O)(=O)c1ccc(-c2ccc(O)cc2)cc1

>  <Energy>  (32) 
52.77289701323225

>  <Genealogy>  (32) 
CC(=O)Cc1ccccc1[N-]S(=O)(=O)c1ccc(-c2ccc(O)cc2)cc1 (protonated)
CC(=O)Cc1ccccc1[N-]S(=O)(=O)c1ccc(-c2ccc(O)cc2)cc1 (3D coordinates assigned)
CC(=O)Cc1ccccc1[N-]S(=O)(=O)c1ccc(-c2ccc(O)cc2)cc1 (optimized conformer: 52.77289701323225 kcal/mol)

>  <smiles>  (32) 
CC(=O)Cc1ccccc1NS(=O)(=O)c1ccc(-c2ccc(O)cc2)cc1

>  <score_type>  (32) 
oracle

>  <origin>  (32) 
adgpu

>  <m_score__min__energy>  (32) 
-10.380000000000001

>  <m_primary>  (32) 
energy

$$$$
32:0
     RDKit          3D

 49 52  0  0  0  0  0  0  0  0999 V2000
   -7.0250   14.0360  -34.5910 C   0  0  0  0  0  0  0  0  0  0  0  0
   -6.2170   15.1950  -34.0870 C   0  0  0  0  0  0  0  0  0  0  0  0
   -4.8270   15.0780  -33.9470 C   0  0  0  0  0  0  0  0  0  0  0  0
   -4.0690   16.1700  -33.5160 C   0  0  0  0  0  0  0  0  0  0  0  0
   -4.6860   17.3960  -33.2210 C   0  0  0  0  0  0  0  0  0  0  0  0
   -3.8470   18.5580  -32.7650 C   0  0  0  0  0  0  0  0  0  0  0  0
   -6.0810   17.5270  -33.3980 C   0  0  0  0  0  0  0  0  0  0  0  0
   -6.7430   18.7770  -33.1580 N   0  0  0  0  0  0  0  0  0  0  0  0
   -7.9480   18.8200  -32.3240 C   0  0  0  0  0  0  0  0  0  0  0  0
   -7.7710   19.8600  -31.2140 C   0  0  0  0  0  0  0  0  0  0  0  0
   -7.1600   21.0980  -31.7200 N   0  0  0  0  0  0  0  0  0  0  0  0
   -7.0410   22.2250  -30.8330 C   0  0  0  0  0  0  0  0  0  0  0  0
   -7.9590   22.4680  -30.0040 O   0  0  0  0  0  0  0  0  0  0  0  0
   -5.8790   23.1250  -30.8880 C   0  0  0  0  0  0  0  0  0  0  0  0
   -5.9720   24.4680  -30.8580 N   0  0  0  0  0  0  0  0  0  0  0  0
   -4.7190   24.9010  -30.8780 N   0  0  0  0  0  0  0  0  0  0  0  0
   -3.8830   23.8730  -30.9030 N   0  0  0  0  0  0  0  0  0  0  0  0
   -4.5830   22.7530  -30.9220 N   0  0  0  0  0  0  0  0  0  0  0  0
   -4.0020   21.4270  -30.7290 C   0  0  0  0  0  0  0  0  0  0  0  0
   -2.8260   21.2490  -31.6350 C   0  0  0  0  0  0  0  0  0  0  0  0
   -1.5950   20.7170  -31.2740 C   0  0  0  0  0  0  0  0  0  0  0  0
   -0.7090   20.6020  -32.3510 C   0  0  0  0  0  0  0  0  0  0  0  0
   -1.2440   21.0260  -33.5610 C   0  0  0  0  0  0  0  0  0  0  0  0
   -2.8210   21.5420  -33.2900 S   0  0  0  0  0  0  0  0  0  0  0  0
   -6.8780   21.2560  -33.1560 C   0  0  0  0  0  0  0  0  0  0  0  0
   -6.1750   20.0110  -33.7120 C   0  0  0  0  0  0  0  0  0  0  0  0
   -6.8340   16.4260  -33.8290 C   0  0  0  0  0  0  0  0  0  0  0  0
   -7.4218   13.4669  -33.7374 H   0  0  0  0  0  0  0  0  0  0  0  0
   -7.8596   14.4093  -35.2026 H   0  0  0  0  0  0  0  0  0  0  0  0
   -6.3861   13.3820  -35.2026 H   0  0  0  0  0  0  0  0  0  0  0  0
   -4.3313   14.1234  -34.1772 H   0  0  0  0  0  0  0  0  0  0  0  0
   -2.9792   16.0680  -33.4069 H   0  0  0  0  0  0  0  0  0  0  0  0
   -3.8265   18.5864  -31.6656 H   0  0  0  0  0  0  0  0  0  0  0  0
   -2.8223   18.4430  -33.1480 H   0  0  0  0  0  0  0  0  0  0  0  0
   -4.2786   19.4945  -33.1480 H   0  0  0  0  0  0  0  0  0  0  0  0
   -8.8134   19.0927  -32.9458 H   0  0  0  0  0  0  0  0  0  0  0  0
   -8.1141   17.8306  -31.8729 H   0  0  0  0  0  0  0  0  0  0  0  0
   -8.7569   20.0976  -30.7878 H   0  0  0  0  0  0  0  0  0  0  0  0
   -7.1028   19.4355  -30.4503 H   0  0  0  0  0  0  0  0  0  0  0  0
   -3.6764   21.3202  -29.6837 H   0  0  0  0  0  0  0  0  0  0  0  0
   -4.7581   20.6631  -30.9632 H   0  0  0  0  0  0  0  0  0  0  0  0
   -1.3423   20.4167  -30.2464 H   0  0  0  0  0  0  0  0  0  0  0  0
    0.3147   20.2126  -32.2492 H   0  0  0  0  0  0  0  0  0  0  0  0
   -0.7246   21.0244  -34.5306 H   0  0  0  0  0  0  0  0  0  0  0  0
   -7.8248   21.4068  -33.6952 H   0  0  0  0  0  0  0  0  0  0  0  0
   -6.2176   22.1250  -33.2927 H   0  0  0  0  0  0  0  0  0  0  0  0
   -6.2879   19.9961  -34.8061 H   0  0  0  0  0  0  0  0  0  0  0  0
   -5.1137   20.0593  -33.4270 H   0  0  0  0  0  0  0  0  0  0  0  0
   -7.9205   16.5297  -33.9660 H   0  0  0  0  0  0  0  0  0  0  0  0
  1  2  1  0
  2  3  2  0
  3  4  1  0
  4  5  2  0
  5  6  1  0
  5  7  1  0
  7  8  1  0
  8  9  1  0
  9 10  1  0
 10 11  1  0
 11 12  1  0
 12 13  2  0
 12 14  1  0
 14 15  2  0
 15 16  1  0
 16 17  2  0
 17 18  1  0
 18 19  1  0
 19 20  1  0
 20 21  2  0
 21 22  1  0
 22 23  2  0
 23 24  1  0
 11 25  1  0
 25 26  1  0
  7 27  2  0
 27  2  1  0
 26  8  1  0
 18 14  1  0
 24 20  1  0
  1 28  1  0
  1 29  1  0
  1 30  1  0
  3 31  1  0
  4 32  1  0
  6 33  1  0
  6 34  1  0
  6 35  1  0
  9 36  1  0
  9 37  1  0
 10 38  1  0
 10 39  1  0
 19 40  1  0
 19 41  1  0
 21 42  1  0
 22 43  1  0
 23 44  1  0
 25 45  1  0
 25 46  1  0
 26 47  1  0
 26 48  1  0
 27 49  1  0
M  END
>  <UniqueID>  (33) 
32

>  <SMILES>  (33) 
Cc1ccc(C)c(N2CCN(C(=O)c3nnnn3Cc3cccs3)CC2)c1

>  <Energy>  (33) 
124.38054062832869

>  <Genealogy>  (33) 
Cc1ccc(C)c(N2CCN(C(=O)c3nnnn3Cc3cccs3)CC2)c1 (3D coordinates assigned)
Cc1ccc(C)c(N2CCN(C(=O)c3nnnn3Cc3cccs3)CC2)c1 (nonaromatic ring conformer: 124.38054062832869 kcal/mol)

>  <smiles>  (33) 
Cc1ccc(C)c(N2CCN(C(=O)c3nnnn3Cc3cccs3)CC2)c1

>  <score_type>  (33) 
oracle

>  <origin>  (33) 
adgpu

>  <m_score__min__energy>  (33) 
-9.2699999999999996

>  <m_primary>  (33) 
energy

$$$$
33:0
     RDKit          3D

 53 56  0  0  0  0  0  0  0  0999 V2000
   -5.6790   24.4840  -31.8900 H   0  0  0  0  0  0  0  0  0  0  0  0
   -6.0450   23.9550  -32.6740 O   0  0  0  0  0  0  0  0  0  0  0  0
   -6.8580   22.8620  -32.4600 N   0  0  0  0  0  0  0  0  0  0  0  0
   -7.8910   23.0170  -32.4160 H   0  0  0  0  0  0  0  0  0  0  0  0
   -6.3570   21.6620  -32.3450 C   0  0  0  0  0  0  0  0  0  0  0  0
   -4.8900   21.4530  -32.4450 C   0  0  0  0  0  0  0  0  0  0  0  0
   -4.4260   20.6250  -33.4750 C   0  0  0  0  0  0  0  0  0  0  0  0
   -5.1410   20.1900  -34.1889 H   0  0  0  0  0  0  0  0  0  0  0  0
   -3.0690   20.3480  -33.6030 C   0  0  0  0  0  0  0  0  0  0  0  0
   -2.7145   19.7143  -34.4293 H   0  0  0  0  0  0  0  0  0  0  0  0
   -2.1580   20.8700  -32.6890 C   0  0  0  0  0  0  0  0  0  0  0  0
   -1.0882   20.6366  -32.7940 H   0  0  0  0  0  0  0  0  0  0  0  0
   -2.5900   21.6930  -31.6320 C   0  0  0  0  0  0  0  0  0  0  0  0
   -1.5410   22.1990  -30.6730 C   0  0  0  0  0  0  0  0  0  0  0  0
   -1.8798   22.0356  -29.6393 H   0  0  0  0  0  0  0  0  0  0  0  0
   -0.5990   21.6562  -30.8402 H   0  0  0  0  0  0  0  0  0  0  0  0
   -1.3794   23.2741  -30.8402 H   0  0  0  0  0  0  0  0  0  0  0  0
   -3.9740   22.0260  -31.5180 C   0  0  0  0  0  0  0  0  0  0  0  0
   -4.5910   23.1850  -30.2950 S   0  0  0  0  0  0  0  0  0  0  0  0
   -4.1800   24.5760  -30.6820 O   0  0  0  0  0  0  0  0  0  0  0  0
   -6.0890   23.1770  -30.1600 O   0  0  0  0  0  0  0  0  0  0  0  0
   -3.8950   22.8050  -28.7480 N   0  0  0  0  0  0  0  0  0  0  0  0
   -4.0720   21.8430  -28.3730 H   0  0  0  0  0  0  0  0  0  0  0  0
   -3.3200   23.7940  -27.8770 C   0  0  0  0  0  0  0  0  0  0  0  0
   -4.0510   24.3500  -26.8070 C   0  0  0  0  0  0  0  0  0  0  0  0
   -5.0892   24.0308  -26.6328 H   0  0  0  0  0  0  0  0  0  0  0  0
   -3.4700   25.3020  -25.9660 C   0  0  0  0  0  0  0  0  0  0  0  0
   -4.0534   25.7325  -25.1387 H   0  0  0  0  0  0  0  0  0  0  0  0
   -2.1450   25.7100  -26.1740 C   0  0  0  0  0  0  0  0  0  0  0  0
   -1.5460   26.6510  -25.3230 C   0  0  0  0  0  0  0  0  0  0  0  0
   -2.1207   27.0834  -24.4907 H   0  0  0  0  0  0  0  0  0  0  0  0
   -0.2180   27.0400  -25.5320 C   0  0  0  0  0  0  0  0  0  0  0  0
    0.2491   27.7760  -24.8611 H   0  0  0  0  0  0  0  0  0  0  0  0
    0.5190   26.4960  -26.5920 C   0  0  0  0  0  0  0  0  0  0  0  0
    1.5648   26.8004  -26.7459 H   0  0  0  0  0  0  0  0  0  0  0  0
   -0.0710   25.5670  -27.4550 C   0  0  0  0  0  0  0  0  0  0  0  0
    0.5084   25.1484  -28.2911 H   0  0  0  0  0  0  0  0  0  0  0  0
   -1.4030   25.1680  -27.2550 C   0  0  0  0  0  0  0  0  0  0  0  0
   -2.0050   24.2310  -28.1080 C   0  0  0  0  0  0  0  0  0  0  0  0
   -1.4420   23.8347  -28.9659 H   0  0  0  0  0  0  0  0  0  0  0  0
   -7.2250   20.5170  -32.2160 N   0  0  0  0  0  0  0  0  0  0  0  0
   -6.8290   19.1680  -32.5970 C   0  0  0  0  0  0  0  0  0  0  0  0
   -6.5102   19.1443  -33.6495 H   0  0  0  0  0  0  0  0  0  0  0  0
   -5.9812   18.8077  -31.9959 H   0  0  0  0  0  0  0  0  0  0  0  0
   -8.0700   18.3040  -32.3970 C   0  0  0  0  0  0  0  0  0  0  0  0
   -8.5441   18.0850  -33.3651 H   0  0  0  0  0  0  0  0  0  0  0  0
   -7.8202   17.3388  -31.9323 H   0  0  0  0  0  0  0  0  0  0  0  0
   -9.0130   19.1250  -31.5160 C   0  0  0  0  0  0  0  0  0  0  0  0
  -10.0554   18.9902  -31.8403 H   0  0  0  0  0  0  0  0  0  0  0  0
   -8.9597   18.8123  -30.4627 H   0  0  0  0  0  0  0  0  0  0  0  0
   -8.5850   20.5750  -31.6940 C   0  0  0  0  0  0  0  0  0  0  0  0
   -9.2488   21.0874  -32.4059 H   0  0  0  0  0  0  0  0  0  0  0  0
   -8.6364   21.1352  -30.7487 H   0  0  0  0  0  0  0  0  0  0  0  0
  1  2  1  0
  2  3  1  0
  3  4  1  0
  3  5  2  0
  5  6  1  0
  6  7  2  0
  7  8  1  0
  7  9  1  0
  9 10  1  0
  9 11  2  0
 11 12  1  0
 11 13  1  0
 13 14  1  0
 14 15  1  0
 14 16  1  0
 14 17  1  0
 13 18  2  0
 18 19  1  0
 19 20  2  0
 19 21  2  0
 19 22  1  0
 22 23  1  0
 22 24  1  0
 24 25  2  0
 25 26  1  0
 25 27  1  0
 27 28  1  0
 27 29  2  0
 29 30  1  0
 30 31  1  0
 30 32  2  0
 32 33  1  0
 32 34  1  0
 34 35  1  0
 34 36  2  0
 36 37  1  0
 36 38  1  0
 38 39  2  0
 39 40  1  0
  5 41  1  0
 41 42  1  0
 42 43  1  0
 42 44  1  0
 42 45  1  0
 45 46  1  0
 45 47  1  0
 45 48  1  0
 48 49  1  0
 48 50  1  0
 48 51  1  0
 51 52  1  0
 51 53  1  0
 18  6  1  0
 39 24  1  0
 51 41  1  0
 38 29  1  0
M  CHG  1   3   1
M  END
>  <UniqueID>  (34) 
33

>  <SMILES>  (34) 
Cc1cccc(/C(=[NH+]\O)N2CCCC2)c1S(=O)(=O)Nc1ccc2ccccc2c1

>  <Energy>  (34) 
72.02579747671088

>  <Genealogy>  (34) 
Cc1cccc(C(=[NH+]O)N2CCCC2)c1S(=O)(=O)Nc1ccc2ccccc2c1 (protonated)
Cc1cccc(/C(=[NH+]\O)N2CCCC2)c1S(=O)(=O)Nc1ccc2ccccc2c1 (cis-trans isomerization)
Cc1cccc(/C(=[NH+]\O)N2CCCC2)c1S(=O)(=O)Nc1ccc2ccccc2c1 (3D coordinates assigned)
Cc1cccc(/C(=[NH+]\O)N2CCCC2)c1S(=O)(=O)Nc1ccc2ccccc2c1 (nonaromatic ring conformer: 72.02579747671088 kcal/mol)

>  <smiles>  (34) 
Cc1cccc(C(=NO)N2CCCC2)c1S(=O)(=O)Nc1ccc2ccccc2c1

>  <score_type>  (34) 
oracle

>  <origin>  (34) 
adgpu

>  <m_score__min__energy>  (34) 
-9.1300000000000008

>  <m_primary>  (34) 
energy

$$$$
34:0
     RDKit          3D

 53 56  0  0  0  0  0  0  0  0999 V2000
   -0.4130   26.8210  -23.1230 C   0  0  0  0  0  0  0  0  0  0  0  0
   -1.5210   26.8030  -24.0180 O   0  0  0  0  0  0  0  0  0  0  0  0
   -1.4270   26.4950  -25.3830 C   0  0  0  0  0  0  0  0  0  0  0  0
   -0.6650   27.2830  -26.2920 C   0  0  0  0  0  0  0  0  0  0  0  0
   -0.5980   26.9410  -27.6560 C   0  0  0  0  0  0  0  0  0  0  0  0
   -1.3040   25.8160  -28.0770 C   0  0  0  0  0  0  0  0  0  0  0  0
   -1.3640   25.3010  -29.3130 N   0  0  0  0  0  0  0  0  0  0  0  0
   -2.1530   24.2110  -29.1340 C   0  0  0  0  0  0  0  0  0  0  0  0
   -2.5230   23.0580  -30.4560 S   0  0  0  0  0  0  0  0  0  0  0  0
   -4.2490   22.7740  -29.9280 C   0  0  0  0  0  0  0  0  0  0  0  0
   -5.1590   23.8010  -30.5240 C   0  0  0  0  0  0  0  0  0  0  0  0
   -4.6630   24.7520  -31.1860 O   0  0  0  0  0  0  0  0  0  0  0  0
   -6.5800   23.6400  -30.4140 N   0  0  0  0  0  0  0  0  0  0  0  0
   -7.3910   22.6640  -31.0900 C   0  0  0  0  0  0  0  0  0  0  0  0
   -8.6520   23.0530  -31.5630 C   0  0  0  0  0  0  0  0  0  0  0  0
   -9.4880   22.1270  -32.1920 C   0  0  0  0  0  0  0  0  0  0  0  0
   -9.0730   20.8020  -32.3510 C   0  0  0  0  0  0  0  0  0  0  0  0
   -7.8100   20.4050  -31.8970 C   0  0  0  0  0  0  0  0  0  0  0  0
   -7.2940   18.7260  -32.0330 S   0  0  0  0  0  0  0  0  0  0  0  0
   -8.5070   17.8390  -31.9690 O   0  0  0  0  0  0  0  0  0  0  0  0
   -6.3620   18.3780  -30.9020 O   0  0  0  0  0  0  0  0  0  0  0  0
   -6.4700   18.4970  -33.5580 N   0  0  0  0  0  0  0  0  0  0  0  0
   -5.5160   19.6050  -33.8260 C   0  0  0  0  0  0  0  0  0  0  0  0
   -4.0460   19.1900  -33.6720 C   0  0  0  0  0  0  0  0  0  0  0  0
   -3.7040   18.0080  -34.5910 C   0  0  0  0  0  0  0  0  0  0  0  0
   -4.8780   17.0280  -34.7660 C   0  0  0  0  0  0  0  0  0  0  0  0
   -5.8770   17.1450  -33.6100 C   0  0  0  0  0  0  0  0  0  0  0  0
   -6.9610   21.3420  -31.2970 C   0  0  0  0  0  0  0  0  0  0  0  0
   -2.5860   24.0250  -27.8600 N   0  0  0  0  0  0  0  0  0  0  0  0
   -2.0310   25.0580  -27.2140 C   0  0  0  0  0  0  0  0  0  0  0  0
   -2.1180   25.3610  -25.8570 C   0  0  0  0  0  0  0  0  0  0  0  0
   -0.7793   26.8150  -22.0858 H   0  0  0  0  0  0  0  0  0  0  0  0
    0.2126   25.9329  -23.2960 H   0  0  0  0  0  0  0  0  0  0  0  0
    0.1834   27.7290  -23.2960 H   0  0  0  0  0  0  0  0  0  0  0  0
   -0.1236   28.1674  -25.9249 H   0  0  0  0  0  0  0  0  0  0  0  0
   -0.0087   27.5412  -28.3649 H   0  0  0  0  0  0  0  0  0  0  0  0
   -4.5677   21.7741  -30.2575 H   0  0  0  0  0  0  0  0  0  0  0  0
   -4.3008   22.8485  -28.8317 H   0  0  0  0  0  0  0  0  0  0  0  0
   -8.9854   24.0938  -31.4381 H   0  0  0  0  0  0  0  0  0  0  0  0
  -10.4747   22.4414  -32.5628 H   0  0  0  0  0  0  0  0  0  0  0  0
   -9.7390   20.0711  -32.8330 H   0  0  0  0  0  0  0  0  0  0  0  0
   -5.6728   19.9597  -34.8554 H   0  0  0  0  0  0  0  0  0  0  0  0
   -5.7125   20.3916  -33.0826 H   0  0  0  0  0  0  0  0  0  0  0  0
   -3.4029   20.0440  -33.9312 H   0  0  0  0  0  0  0  0  0  0  0  0
   -3.8784   18.8810  -32.6297 H   0  0  0  0  0  0  0  0  0  0  0  0
   -3.4243   18.4011  -35.5795 H   0  0  0  0  0  0  0  0  0  0  0  0
   -2.8773   17.4535  -34.1229 H   0  0  0  0  0  0  0  0  0  0  0  0
   -5.3949   17.2529  -35.7106 H   0  0  0  0  0  0  0  0  0  0  0  0
   -4.4770   16.0037  -34.7765 H   0  0  0  0  0  0  0  0  0  0  0  0
   -6.6790   16.4056  -33.7514 H   0  0  0  0  0  0  0  0  0  0  0  0
   -5.3440   16.9594  -32.6658 H   0  0  0  0  0  0  0  0  0  0  0  0
   -5.9498   21.0416  -30.9852 H   0  0  0  0  0  0  0  0  0  0  0  0
   -2.7093   24.7331  -25.1743 H   0  0  0  0  0  0  0  0  0  0  0  0
  1  2  1  0
  2  3  1  0
  3  4  2  0
  4  5  1  0
  5  6  2  0
  6  7  1  0
  7  8  1  0
  8  9  1  0
  9 10  1  0
 10 11  1  0
 11 12  2  0
 11 13  1  0
 13 14  1  0
 14 15  2  0
 15 16  1  0
 16 17  2  0
 17 18  1  0
 18 19  1  0
 19 20  2  0
 19 21  2  0
 19 22  1  0
 22 23  1  0
 23 24  1  0
 24 25  1  0
 25 26  1  0
 26 27  1  0
 18 28  2  0
  8 29  2  0
 29 30  1  0
 30 31  2  0
 31  3  1  0
 30  6  1  0
 28 14  1  0
 27 22  1  0
  1 32  1  0
  1 33  1  0
  1 34  1  0
  4 35  1  0
  5 36  1  0
 10 37  1  0
 10 38  1  0
 15 39  1  0
 16 40  1  0
 17 41  1  0
 23 42  1  0
 23 43  1  0
 24 44  1  0
 24 45  1  0
 25 46  1  0
 25 47  1  0
 26 48  1  0
 26 49  1  0
 27 50  1  0
 27 51  1  0
 28 52  1  0
 31 53  1  0
M  CHG  2   7  -1  13  -1
M  END
>  <UniqueID>  (35) 
34

>  <SMILES>  (35) 
COc1ccc2[n-]c(SCC(=O)[N-]c3cccc(S(=O)(=O)N4CCCCC4)c3)nc2c1

>  <Energy>  (35) 
93.56809174596083

>  <Genealogy>  (35) 
COc1ccc2[n-]c(SCC(=O)[N-]c3cccc(S(=O)(=O)N4CCCCC4)c3)nc2c1 (protonated)
COc1ccc2[n-]c(SCC(=O)[N-]c3cccc(S(=O)(=O)N4CCCCC4)c3)nc2c1 (3D coordinates assigned)
COc1ccc2[n-]c(SCC(=O)[N-]c3cccc(S(=O)(=O)N4CCCCC4)c3)nc2c1 (nonaromatic ring conformer: 93.56809174596083 kcal/mol)

>  <smiles>  (35) 
COc1ccc2[nH]c(SCC(=O)Nc3cccc(S(=O)(=O)N4CCCCC4)c3)nc2c1

>  <score_type>  (35) 
oracle

>  <origin>  (35) 
adgpu

>  <m_score__min__energy>  (35) 
-12.119999999999999

>  <m_primary>  (35) 
energy

$$$$
35:0
     RDKit          3D

 39 41  0  0  0  0  0  0  0  0999 V2000
   -0.3080   21.2230  -29.4130 O   0  0  0  0  0  0  0  0  0  0  0  0
   -0.9060   22.3310  -29.4700 C   0  0  0  0  0  0  0  0  0  0  0  0
   -0.7450   23.3070  -28.3450 C   0  0  0  0  0  0  0  0  0  0  0  0
   -2.2790   23.4180  -27.3620 S   0  0  0  0  0  0  0  0  0  0  0  0
   -3.3160   23.8840  -28.7460 C   0  0  0  0  0  0  0  0  0  0  0  0
   -2.9890   24.8430  -29.6390 N   0  0  0  0  0  0  0  0  0  0  0  0
   -3.9090   25.0130  -30.5860 N   0  0  0  0  0  0  0  0  0  0  0  0
   -4.9740   24.1940  -30.4400 C   0  0  0  0  0  0  0  0  0  0  0  0
   -6.3670   24.1660  -31.5650 S   0  0  0  0  0  0  0  0  0  0  0  0
   -5.9090   22.5780  -32.3430 C   0  0  0  0  0  0  0  0  0  0  0  0
   -7.0560   21.6050  -32.3030 C   0  0  0  0  0  0  0  0  0  0  0  0
   -8.2960   21.9850  -31.7600 C   0  0  0  0  0  0  0  0  0  0  0  0
   -9.3490   21.0680  -31.6990 C   0  0  0  0  0  0  0  0  0  0  0  0
   -9.1730   19.7670  -32.1790 C   0  0  0  0  0  0  0  0  0  0  0  0
   -7.9440   19.3820  -32.7210 C   0  0  0  0  0  0  0  0  0  0  0  0
   -6.8880   20.2950  -32.7820 C   0  0  0  0  0  0  0  0  0  0  0  0
   -4.8100   23.1930  -29.0980 S   0  0  0  0  0  0  0  0  0  0  0  0
   -1.7280   22.6640  -30.6000 N   0  0  0  0  0  0  0  0  0  0  0  0
   -2.2370   21.7030  -31.5420 C   0  0  0  0  0  0  0  0  0  0  0  0
   -1.6540   21.5340  -32.8120 C   0  0  0  0  0  0  0  0  0  0  0  0
   -2.1440   20.5630  -33.6910 C   0  0  0  0  0  0  0  0  0  0  0  0
   -3.2120   19.7460  -33.3080 C   0  0  0  0  0  0  0  0  0  0  0  0
   -3.7830   19.8930  -32.0420 C   0  0  0  0  0  0  0  0  0  0  0  0
   -3.2940   20.8610  -31.1590 C   0  0  0  0  0  0  0  0  0  0  0  0
    0.0776   22.9754  -27.6943 H   0  0  0  0  0  0  0  0  0  0  0  0
   -0.5226   24.2985  -28.7663 H   0  0  0  0  0  0  0  0  0  0  0  0
   -5.6278   22.7591  -33.3909 H   0  0  0  0  0  0  0  0  0  0  0  0
   -5.0647   22.1462  -31.7855 H   0  0  0  0  0  0  0  0  0  0  0  0
   -8.4379   23.0081  -31.3817 H   0  0  0  0  0  0  0  0  0  0  0  0
  -10.3170   21.3703  -31.2729 H   0  0  0  0  0  0  0  0  0  0  0  0
  -10.0023   19.0460  -32.1300 H   0  0  0  0  0  0  0  0  0  0  0  0
   -7.8076   18.3585  -33.1003 H   0  0  0  0  0  0  0  0  0  0  0  0
   -5.9213   19.9868  -33.2068 H   0  0  0  0  0  0  0  0  0  0  0  0
   -1.9460   23.6720  -30.7640 H   0  0  0  0  0  0  0  0  0  0  0  0
   -0.8084   22.1691  -33.1147 H   0  0  0  0  0  0  0  0  0  0  0  0
   -1.6886   20.4418  -34.6850 H   0  0  0  0  0  0  0  0  0  0  0  0
   -3.6022   18.9881  -34.0032 H   0  0  0  0  0  0  0  0  0  0  0  0
   -4.6193   19.2459  -31.7387 H   0  0  0  0  0  0  0  0  0  0  0  0
   -3.7398   20.9636  -30.1586 H   0  0  0  0  0  0  0  0  0  0  0  0
  1  2  2  0
  2  3  1  0
  3  4  1  0
  4  5  1  0
  5  6  2  0
  6  7  1  0
  7  8  2  0
  8  9  1  0
  9 10  1  0
 10 11  1  0
 11 12  2  0
 12 13  1  0
 13 14  2  0
 14 15  1  0
 15 16  2  0
  8 17  1  0
  2 18  1  0
 18 19  1  0
 19 20  2  0
 20 21  1  0
 21 22  2  0
 22 23  1  0
 23 24  2  0
 17  5  1  0
 24 19  1  0
 16 11  1  0
  3 25  1  0
  3 26  1  0
 10 27  1  0
 10 28  1  0
 12 29  1  0
 13 30  1  0
 14 31  1  0
 15 32  1  0
 16 33  1  0
 18 34  1  0
 20 35  1  0
 21 36  1  0
 22 37  1  0
 23 38  1  0
 24 39  1  0
M  END
>  <UniqueID>  (36) 
35

>  <SMILES>  (36) 
O=C(CSc1nnc(SCc2ccccc2)s1)Nc1ccccc1

>  <Energy>  (36) 
67.89294438167182

>  <Genealogy>  (36) 
O=C(CSc1nnc(SCc2ccccc2)s1)Nc1ccccc1 (3D coordinates assigned)
O=C(CSc1nnc(SCc2ccccc2)s1)Nc1ccccc1 (optimized conformer: 67.89294438167182 kcal/mol)

>  <smiles>  (36) 
O=C(CSc1nnc(SCc2ccccc2)s1)Nc1ccccc1

>  <score_type>  (36) 
oracle

>  <origin>  (36) 
adgpu

>  <m_score__min__energy>  (36) 
-8.6300000000000008

>  <m_primary>  (36) 
energy

$$$$
36:0
     RDKit          3D

 48 50  0  0  0  0  0  0  0  0999 V2000
   -9.6970   21.9870  -31.8370 N   0  0  0  0  0  0  0  0  0  0  0  0
   -8.6810   22.4940  -31.6100 C   0  0  0  0  0  0  0  0  0  0  0  0
   -7.4150   23.1230  -31.3290 C   0  0  0  0  0  0  0  0  0  0  0  0
   -6.3380   22.9470  -32.2080 C   0  0  0  0  0  0  0  0  0  0  0  0
   -5.1010   23.5350  -31.9280 C   0  0  0  0  0  0  0  0  0  0  0  0
   -4.9260   24.3150  -30.7690 C   0  0  0  0  0  0  0  0  0  0  0  0
   -3.6640   24.9380  -30.4660 N   0  0  0  0  0  0  0  0  0  0  0  0
   -2.5140   24.3820  -29.2930 S   0  0  0  0  0  0  0  0  0  0  0  0
   -1.3290   25.3070  -29.3260 O   0  0  0  0  0  0  0  0  0  0  0  0
   -3.1270   24.4290  -27.9190 O   0  0  0  0  0  0  0  0  0  0  0  0
   -1.9700   22.7400  -29.6520 C   0  0  0  0  0  0  0  0  0  0  0  0
   -0.9770   22.1480  -28.8500 C   0  0  0  0  0  0  0  0  0  0  0  0
   -0.5240   20.8590  -29.1310 C   0  0  0  0  0  0  0  0  0  0  0  0
   -1.0720   20.1410  -30.1970 C   0  0  0  0  0  0  0  0  0  0  0  0
   -2.0700   20.7160  -30.9970 C   0  0  0  0  0  0  0  0  0  0  0  0
   -2.6510   19.9410  -32.1040 C   0  0  0  0  0  0  0  0  0  0  0  0
   -1.8940   19.4970  -33.0100 O   0  0  0  0  0  0  0  0  0  0  0  0
   -4.0520   19.6490  -32.1580 N   0  0  0  0  0  0  0  0  0  0  0  0
   -4.6780   18.7160  -33.0960 C   0  0  2  0  0  0  0  0  0  0  0  0
   -5.7310   19.4600  -33.9280 C   0  0  0  0  0  0  0  0  0  0  0  0
   -6.8890   20.0010  -33.0630 C   0  0  0  0  0  0  0  0  0  0  0  0
   -7.2310   19.1020  -31.8480 C   0  0  1  0  0  0  0  0  0  0  0  0
   -8.6100   19.1510  -31.5760 O   0  0  0  0  0  0  0  0  0  0  0  0
   -6.8190   17.6450  -32.0990 C   0  0  0  0  0  0  0  0  0  0  0  0
   -5.3010   17.5170  -32.3350 C   0  0  0  0  0  0  0  0  0  0  0  0
   -2.5050   22.0220  -30.7330 C   0  0  0  0  0  0  0  0  0  0  0  0
   -6.0200   24.5090  -29.8990 C   0  0  0  0  0  0  0  0  0  0  0  0
   -5.9060   25.3060  -28.7540 O   0  0  0  0  0  0  0  0  0  0  0  0
   -7.2510   23.9000  -30.1750 C   0  0  0  0  0  0  0  0  0  0  0  0
   -6.4661   22.3452  -33.1198 H   0  0  0  0  0  0  0  0  0  0  0  0
   -4.2577   23.3871  -32.6186 H   0  0  0  0  0  0  0  0  0  0  0  0
   -0.5566   22.7035  -27.9987 H   0  0  0  0  0  0  0  0  0  0  0  0
    0.2656   20.4072  -28.5126 H   0  0  0  0  0  0  0  0  0  0  0  0
   -0.7193   19.1210  -30.4095 H   0  0  0  0  0  0  0  0  0  0  0  0
   -3.9146   18.3123  -33.7774 H   0  0  0  0  0  0  0  0  0  0  0  0
   -5.2458   20.3055  -34.4377 H   0  0  0  0  0  0  0  0  0  0  0  0
   -6.1557   18.7454  -34.6483 H   0  0  0  0  0  0  0  0  0  0  0  0
   -6.6080   20.9970  -32.6900 H   0  0  0  0  0  0  0  0  0  0  0  0
   -7.7828   20.0297  -33.7036 H   0  0  0  0  0  0  0  0  0  0  0  0
   -6.6681   19.4850  -30.9840 H   0  0  0  0  0  0  0  0  0  0  0  0
   -8.8300   20.0960  -31.3640 H   0  0  0  0  0  0  0  0  0  0  0  0
   -7.0964   17.0397  -31.2234 H   0  0  0  0  0  0  0  0  0  0  0  0
   -7.3385   17.2912  -33.0018 H   0  0  0  0  0  0  0  0  0  0  0  0
   -4.8047   17.4325  -31.3569 H   0  0  0  0  0  0  0  0  0  0  0  0
   -5.1505   16.6275  -32.9644 H   0  0  0  0  0  0  0  0  0  0  0  0
   -3.2682   22.4859  -31.3751 H   0  0  0  0  0  0  0  0  0  0  0  0
   -5.0110   25.5080  -28.3200 H   0  0  0  0  0  0  0  0  0  0  0  0
   -8.0942   24.0328  -29.4812 H   0  0  0  0  0  0  0  0  0  0  0  0
  1  2  3  0
  2  3  1  0
  3  4  2  0
  4  5  1  0
  5  6  2  0
  6  7  1  0
  7  8  1  0
  8  9  2  0
  8 10  2  0
  8 11  1  0
 11 12  2  0
 12 13  1  0
 13 14  2  0
 14 15  1  0
 15 16  1  0
 16 17  2  0
 16 18  1  0
 18 19  1  0
 19 20  1  0
 20 21  1  0
 21 22  1  0
 22 23  1  0
 22 24  1  0
 24 25  1  0
 15 26  2  0
  6 27  1  0
 27 28  1  0
 27 29  2  0
 29  3  1  0
 26 11  1  0
 25 19  1  0
  4 30  1  0
  5 31  1  0
 12 32  1  0
 13 33  1  0
 14 34  1  0
 19 35  1  6
 20 36  1  0
 20 37  1  0
 21 38  1  0
 21 39  1  0
 22 40  1  1
 23 41  1  0
 24 42  1  0
 24 43  1  0
 25 44  1  0
 25 45  1  0
 26 46  1  0
 28 47  1  0
 29 48  1  0
M  CHG  2   7  -1  18  -1
M  END
>  <UniqueID>  (37) 
36

>  <SMILES>  (37) 
N#Cc1ccc([N-]S(=O)(=O)c2cccc(C(=O)[N-]C3CCC(O)CC3)c2)c(O)c1

>  <Energy>  (37) 
58.803383968635096

>  <Genealogy>  (37) 
N#Cc1ccc([N-]S(=O)(=O)c2cccc(C(=O)[N-]C3CCC(O)CC3)c2)c(O)c1 (protonated)
N#Cc1ccc([N-]S(=O)(=O)c2cccc(C(=O)[N-]C3CCC(O)CC3)c2)c(O)c1 (3D coordinates assigned)
N#Cc1ccc([N-]S(=O)(=O)c2cccc(C(=O)[N-]C3CCC(O)CC3)c2)c(O)c1 (nonaromatic ring conformer: 58.803383968635096 kcal/mol)

>  <smiles>  (37) 
N#Cc1ccc(NS(=O)(=O)c2cccc(C(=O)NC3CCC(O)CC3)c2)c(O)c1

>  <score_type>  (37) 
oracle

>  <origin>  (37) 
adgpu

>  <m_score__min__energy>  (37) 
-10.49

>  <m_primary>  (37) 
energy

$$$$
37:0
     RDKit          3D

 60 63  0  0  0  0  0  0  0  0999 V2000
   -8.6540   19.6950  -31.6140 C   0  0  0  0  0  0  0  0  0  0  0  0
   -7.7630   20.9100  -31.6150 C   0  0  0  0  0  0  0  0  0  0  0  0
   -8.2590   22.0800  -31.0150 C   0  0  0  0  0  0  0  0  0  0  0  0
   -7.5270   23.2640  -31.0390 C   0  0  0  0  0  0  0  0  0  0  0  0
   -6.2750   23.3080  -31.6620 C   0  0  0  0  0  0  0  0  0  0  0  0
   -5.5160   24.5260  -31.7470 N   0  0  0  0  0  0  0  0  0  0  0  0
   -4.9900   25.2930  -30.6590 C   0  0  0  0  0  0  0  0  0  0  0  0
   -5.7630   25.8870  -29.8610 O   0  0  0  0  0  0  0  0  0  0  0  0
   -3.5770   25.2880  -30.4320 N   0  0  0  0  0  0  0  0  0  0  0  0
   -2.8770   24.5460  -29.4220 C   0  0  0  0  0  0  0  0  0  0  0  0
   -3.4880   23.5010  -28.7050 C   0  0  0  0  0  0  0  0  0  0  0  0
   -2.7810   22.8240  -27.7070 C   0  0  0  0  0  0  0  0  0  0  0  0
   -1.4630   23.1880  -27.4030 C   0  0  0  0  0  0  0  0  0  0  0  0
   -0.5870   22.3200  -26.1450 S   0  0  0  0  0  0  0  0  0  0  0  0
    0.7710   21.9450  -26.6680 O   0  0  0  0  0  0  0  0  0  0  0  0
   -1.3270   21.0650  -25.7720 O   0  0  0  0  0  0  0  0  0  0  0  0
   -0.4150   23.3490  -24.7420 N   0  0  0  0  0  0  0  0  0  0  0  0
    0.9890   23.7320  -24.5300 C   0  0  0  0  0  0  0  0  0  0  0  0
    1.0900   25.2430  -24.6570 C   0  0  0  0  0  0  0  0  0  0  0  0
   -0.3160   25.7340  -24.4260 C   0  0  0  0  0  0  0  0  0  0  0  0
   -1.1890   24.5890  -24.9000 C   0  0  0  0  0  0  0  0  0  0  0  0
   -0.8580   24.2390  -28.1040 C   0  0  0  0  0  0  0  0  0  0  0  0
   -1.5660   24.9180  -29.1010 C   0  0  0  0  0  0  0  0  0  0  0  0
   -5.7740   22.1580  -32.2860 C   0  0  0  0  0  0  0  0  0  0  0  0
   -4.5500   22.2420  -32.9420 O   0  0  0  0  0  0  0  0  0  0  0  0
   -6.4970   20.9420  -32.2640 C   0  0  0  0  0  0  0  0  0  0  0  0
   -5.7980   19.5060  -33.0730 S   0  0  0  0  0  0  0  0  0  0  0  0
   -6.5660   18.2650  -32.7140 O   0  0  0  0  0  0  0  0  0  0  0  0
   -5.9220   19.6710  -34.5640 O   0  0  0  0  0  0  0  0  0  0  0  0
   -4.1130   19.2580  -32.6590 N   0  0  0  0  0  0  0  0  0  0  0  0
   -3.7210   20.0810  -31.5010 C   0  0  0  0  0  0  0  0  0  0  0  0
   -2.1900   20.1410  -31.3860 C   0  0  0  0  0  0  0  0  0  0  0  0
   -1.5440   20.7090  -32.5210 O   0  0  0  0  0  0  0  0  0  0  0  0
   -2.3330   20.6840  -33.7040 C   0  0  0  0  0  0  0  0  0  0  0  0
   -3.2070   19.4210  -33.8190 C   0  0  0  0  0  0  0  0  0  0  0  0
   -8.8704   19.3999  -30.5767 H   0  0  0  0  0  0  0  0  0  0  0  0
   -9.5953   19.9302  -32.1323 H   0  0  0  0  0  0  0  0  0  0  0  0
   -8.1468   18.8679  -32.1323 H   0  0  0  0  0  0  0  0  0  0  0  0
   -9.2405   22.0600  -30.5188 H   0  0  0  0  0  0  0  0  0  0  0  0
   -7.9350   24.1694  -30.5658 H   0  0  0  0  0  0  0  0  0  0  0  0
   -4.5261   23.2156  -28.9306 H   0  0  0  0  0  0  0  0  0  0  0  0
   -3.2621   22.0013  -27.1577 H   0  0  0  0  0  0  0  0  0  0  0  0
    1.3133   23.4196  -23.5264 H   0  0  0  0  0  0  0  0  0  0  0  0
    1.6343   23.2428  -25.2745 H   0  0  0  0  0  0  0  0  0  0  0  0
    1.7745   25.6523  -23.8994 H   0  0  0  0  0  0  0  0  0  0  0  0
    1.4879   25.5558  -25.6336 H   0  0  0  0  0  0  0  0  0  0  0  0
   -0.4874   25.9403  -23.3592 H   0  0  0  0  0  0  0  0  0  0  0  0
   -0.5277   26.6743  -24.9562 H   0  0  0  0  0  0  0  0  0  0  0  0
   -2.1055   24.5395  -24.2938 H   0  0  0  0  0  0  0  0  0  0  0  0
   -1.4802   24.7329  -25.9509 H   0  0  0  0  0  0  0  0  0  0  0  0
    0.1764   24.5310  -27.8699 H   0  0  0  0  0  0  0  0  0  0  0  0
   -1.0887   25.7513  -29.6374 H   0  0  0  0  0  0  0  0  0  0  0  0
   -4.1159   21.0997  -31.6290 H   0  0  0  0  0  0  0  0  0  0  0  0
   -4.1321   19.6309  -30.5854 H   0  0  0  0  0  0  0  0  0  0  0  0
   -1.9332   20.7456  -30.5037 H   0  0  0  0  0  0  0  0  0  0  0  0
   -1.8367   19.1023  -31.3064 H   0  0  0  0  0  0  0  0  0  0  0  0
   -2.9901   21.5661  -33.7056 H   0  0  0  0  0  0  0  0  0  0  0  0
   -1.6421   20.6846  -34.5599 H   0  0  0  0  0  0  0  0  0  0  0  0
   -3.8131   19.4922  -34.7342 H   0  0  0  0  0  0  0  0  0  0  0  0
   -2.5369   18.5491  -33.8483 H   0  0  0  0  0  0  0  0  0  0  0  0
  1  2  1  0
  2  3  2  0
  3  4  1  0
  4  5  2  0
  5  6  1  0
  6  7  1  0
  7  8  2  0
  7  9  1  0
  9 10  1  0
 10 11  2  0
 11 12  1  0
 12 13  2  0
 13 14  1  0
 14 15  2  0
 14 16  2  0
 14 17  1  0
 17 18  1  0
 18 19  1  0
 19 20  1  0
 20 21  1  0
 13 22  1  0
 22 23  2  0
  5 24  1  0
 24 25  1  0
 24 26  2  0
 26 27  1  0
 27 28  2  0
 27 29  2  0
 27 30  1  0
 30 31  1  0
 31 32  1  0
 32 33  1  0
 33 34  1  0
 34 35  1  0
 26  2  1  0
 35 30  1  0
 23 10  1  0
 21 17  1  0
  1 36  1  0
  1 37  1  0
  1 38  1  0
  3 39  1  0
  4 40  1  0
 11 41  1  0
 12 42  1  0
 18 43  1  0
 18 44  1  0
 19 45  1  0
 19 46  1  0
 20 47  1  0
 20 48  1  0
 21 49  1  0
 21 50  1  0
 22 51  1  0
 23 52  1  0
 31 53  1  0
 31 54  1  0
 32 55  1  0
 32 56  1  0
 34 57  1  0
 34 58  1  0
 35 59  1  0
 35 60  1  0
M  CHG  3   6  -1   9  -1  25  -1
M  END
>  <UniqueID>  (38) 
37

>  <SMILES>  (38) 
Cc1ccc([N-]C(=O)[N-]c2ccc(S(=O)(=O)N3CCCC3)cc2)c([O-])c1S(=O)(=O)N1CCOCC1

>  <Energy>  (38) 
87.95209313425558

>  <Genealogy>  (38) 
Cc1ccc([N-]C(=O)[N-]c2ccc(S(=O)(=O)N3CCCC3)cc2)c([O-])c1S(=O)(=O)N1CCOCC1 (protonated)
Cc1ccc([N-]C(=O)[N-]c2ccc(S(=O)(=O)N3CCCC3)cc2)c([O-])c1S(=O)(=O)N1CCOCC1 (3D coordinates assigned)
Cc1ccc([N-]C(=O)[N-]c2ccc(S(=O)(=O)N3CCCC3)cc2)c([O-])c1S(=O)(=O)N1CCOCC1 (nonaromatic ring conformer: 87.95209313425558 kcal/mol)

>  <smiles>  (38) 
Cc1ccc(NC(=O)Nc2ccc(S(=O)(=O)N3CCCC3)cc2)c(O)c1S(=O)(=O)N1CCOCC1

>  <score_type>  (38) 
oracle

>  <origin>  (38) 
adgpu

>  <m_score__min__energy>  (38) 
-17.120000000000001

>  <m_primary>  (38) 
energy

$$$$
38:0
     RDKit          3D

 47 49  0  0  0  0  0  0  0  0999 V2000
   -4.7810   18.3300  -34.2000 C   0  0  0  0  0  0  0  0  0  0  0  0
   -4.9700   19.6170  -33.4590 C   0  0  0  0  0  0  0  0  0  0  0  0
   -4.0020   20.4210  -33.3940 O   0  0  0  0  0  0  0  0  0  0  0  0
   -6.2090   19.9460  -32.8000 N   0  0  0  0  0  0  0  0  0  0  0  0
   -6.5180   21.1620  -32.1290 C   0  0  0  0  0  0  0  0  0  0  0  0
   -5.6250   22.0460  -31.5150 C   0  0  0  0  0  0  0  0  0  0  0  0
   -6.1360   23.1910  -30.8780 C   0  0  0  0  0  0  0  0  0  0  0  0
   -5.0360   24.3630  -30.1560 S   0  0  0  0  0  0  0  0  0  0  0  0
   -4.5770   25.3220  -31.2190 O   0  0  0  0  0  0  0  0  0  0  0  0
   -5.7580   25.1420  -29.0900 O   0  0  0  0  0  0  0  0  0  0  0  0
   -3.6550   23.5400  -29.4720 N   0  0  0  0  0  0  0  0  0  0  0  0
   -4.0930   22.6490  -28.3770 C   0  0  0  0  0  0  0  0  0  0  0  0
   -2.9150   22.1440  -27.5130 C   0  0  0  0  0  0  0  0  0  0  0  0
   -1.5680   22.3450  -28.2270 C   0  0  0  0  0  0  0  0  0  0  0  0
   -0.4090   21.8180  -27.3730 C   0  0  0  0  0  0  0  0  0  0  0  0
   -1.3630   23.8350  -28.5810 C   0  0  0  0  0  0  0  0  0  0  0  0
   -2.6780   24.5280  -28.9880 C   0  0  0  0  0  0  0  0  0  0  0  0
   -7.5290   23.4140  -30.8450 C   0  0  0  0  0  0  0  0  0  0  0  0
   -8.4070   22.4840  -31.4230 C   0  0  0  0  0  0  0  0  0  0  0  0
   -7.8700   21.3590  -32.0500 C   0  0  0  0  0  0  0  0  0  0  0  0
   -8.6040   20.2350  -32.6880 C   0  0  0  0  0  0  0  0  0  0  0  0
   -7.4690   19.2450  -33.0790 C   0  0  2  0  0  0  0  0  0  0  0  0
   -7.5510   17.9510  -32.2630 C   0  0  0  0  0  0  0  0  0  0  0  0
   -4.6601   17.5069  -33.4804 H   0  0  0  0  0  0  0  0  0  0  0  0
   -5.6606   18.1382  -34.8321 H   0  0  0  0  0  0  0  0  0  0  0  0
   -3.8834   18.3992  -34.8321 H   0  0  0  0  0  0  0  0  0  0  0  0
   -4.5428   21.8494  -31.5300 H   0  0  0  0  0  0  0  0  0  0  0  0
   -4.7916   23.2016  -27.7315 H   0  0  0  0  0  0  0  0  0  0  0  0
   -4.5710   21.7701  -28.8342 H   0  0  0  0  0  0  0  0  0  0  0  0
   -2.9033   22.7000  -26.5639 H   0  0  0  0  0  0  0  0  0  0  0  0
   -3.0541   21.0677  -27.3336 H   0  0  0  0  0  0  0  0  0  0  0  0
   -1.5830   21.7666  -29.1625 H   0  0  0  0  0  0  0  0  0  0  0  0
   -0.6577   21.9311  -26.3075 H   0  0  0  0  0  0  0  0  0  0  0  0
   -0.2406   20.7548  -27.5994 H   0  0  0  0  0  0  0  0  0  0  0  0
    0.5029   22.3900  -27.5994 H   0  0  0  0  0  0  0  0  0  0  0  0
   -0.9476   24.3527  -27.7038 H   0  0  0  0  0  0  0  0  0  0  0  0
   -0.6777   23.8846  -29.4400 H   0  0  0  0  0  0  0  0  0  0  0  0
   -3.0956   25.0522  -28.1157 H   0  0  0  0  0  0  0  0  0  0  0  0
   -2.4667   25.2436  -29.7963 H   0  0  0  0  0  0  0  0  0  0  0  0
   -7.9280   24.3196  -30.3647 H   0  0  0  0  0  0  0  0  0  0  0  0
   -9.4953   22.6387  -31.3826 H   0  0  0  0  0  0  0  0  0  0  0  0
   -9.3062   19.7703  -31.9802 H   0  0  0  0  0  0  0  0  0  0  0  0
   -9.2151   20.5511  -33.5463 H   0  0  0  0  0  0  0  0  0  0  0  0
   -7.5504   18.9530  -34.1364 H   0  0  0  0  0  0  0  0  0  0  0  0
   -7.5357   18.1926  -31.1900 H   0  0  0  0  0  0  0  0  0  0  0  0
   -8.4844   17.4225  -32.5066 H   0  0  0  0  0  0  0  0  0  0  0  0
   -6.6917   17.3088  -32.5066 H   0  0  0  0  0  0  0  0  0  0  0  0
  1  2  1  0
  2  3  2  0
  2  4  1  0
  4  5  1  0
  5  6  2  0
  6  7  1  0
  7  8  1  0
  8  9  2  0
  8 10  2  0
  8 11  1  0
 11 12  1  0
 12 13  1  0
 13 14  1  0
 14 15  1  0
 14 16  1  0
 16 17  1  0
  7 18  2  0
 18 19  1  0
 19 20  2  0
 20 21  1  0
 21 22  1  0
 22 23  1  0
 22  4  1  0
 20  5  1  0
 17 11  1  0
  1 24  1  0
  1 25  1  0
  1 26  1  0
  6 27  1  0
 12 28  1  0
 12 29  1  0
 13 30  1  0
 13 31  1  0
 14 32  1  0
 15 33  1  0
 15 34  1  0
 15 35  1  0
 16 36  1  0
 16 37  1  0
 17 38  1  0
 17 39  1  0
 18 40  1  0
 19 41  1  0
 21 42  1  0
 21 43  1  0
 22 44  1  6
 23 45  1  0
 23 46  1  0
 23 47  1  0
M  END
>  <UniqueID>  (39) 
38

>  <SMILES>  (39) 
CC(=O)N1c2cc(S(=O)(=O)N3CCC(C)CC3)ccc2C[C@@H]1C

>  <Energy>  (39) 
63.238066169774136

>  <Genealogy>  (39) 
CC(=O)N1c2cc(S(=O)(=O)N3CCC(C)CC3)ccc2C[C@@H]1C (chirality)
CC(=O)N1c2cc(S(=O)(=O)N3CCC(C)CC3)ccc2C[C@@H]1C (3D coordinates assigned)
CC(=O)N1c2cc(S(=O)(=O)N3CCC(C)CC3)ccc2C[C@@H]1C (nonaromatic ring conformer: 63.238066169774136 kcal/mol)

>  <smiles>  (39) 
CC(=O)N1c2cc(S(=O)(=O)N3CCC(C)CC3)ccc2CC1C

>  <score_type>  (39) 
oracle

>  <origin>  (39) 
adgpu

>  <m_score__min__energy>  (39) 
-9.3499999999999996

>  <m_primary>  (39) 
energy

$$$$
39:0
     RDKit          3D

 61 65  0  0  0  0  0  0  0  0999 V2000
   -0.8200   18.8590  -28.0630 C   0  0  0  0  0  0  0  0  0  0  0  0
   -1.2420   20.2980  -27.9950 C   0  0  0  0  0  0  0  0  0  0  0  0
   -2.6010   20.6220  -27.8750 C   0  0  0  0  0  0  0  0  0  0  0  0
   -3.0120   21.9580  -27.8740 C   0  0  0  0  0  0  0  0  0  0  0  0
   -2.0680   22.9870  -27.9960 C   0  0  0  0  0  0  0  0  0  0  0  0
   -2.5920   24.6650  -28.1200 S   0  0  0  0  0  0  0  0  0  0  0  0
   -1.4660   25.5900  -27.7440 O   0  0  0  0  0  0  0  0  0  0  0  0
   -3.7510   24.9050  -27.1910 O   0  0  0  0  0  0  0  0  0  0  0  0
   -3.0820   24.9680  -29.7500 N   0  0  0  0  0  0  0  0  0  0  0  0
   -4.0400   24.1030  -30.3640 C   0  0  0  0  0  0  0  0  0  0  0  0
   -3.5870   23.0690  -31.2020 C   0  0  0  0  0  0  0  0  0  0  0  0
   -4.5070   22.1400  -31.6800 C   0  0  0  0  0  0  0  0  0  0  0  0
   -5.8340   22.2210  -31.3260 C   0  0  0  0  0  0  0  0  0  0  0  0
   -6.3250   23.2450  -30.5200 C   0  0  0  0  0  0  0  0  0  0  0  0
   -5.4170   24.2050  -30.0350 C   0  0  0  0  0  0  0  0  0  0  0  0
   -5.8940   25.2290  -29.2150 O   0  0  0  0  0  0  0  0  0  0  0  0
   -6.4930   21.0630  -31.8780 C   0  0  0  0  0  0  0  0  0  0  0  0
   -7.7060   20.7710  -31.7250 O   0  0  0  0  0  0  0  0  0  0  0  0
   -5.5510   20.2690  -32.5980 N   0  0  0  0  0  0  0  0  0  0  0  0
   -5.7520   18.9240  -33.0710 C   0  0  0  0  0  0  0  0  0  0  0  0
   -7.0200   18.3320  -32.9750 C   0  0  0  0  0  0  0  0  0  0  0  0
   -7.2330   17.0410  -33.4650 C   0  0  0  0  0  0  0  0  0  0  0  0
   -6.1920   16.3430  -34.0800 C   0  0  0  0  0  0  0  0  0  0  0  0
   -4.9180   16.9260  -34.2070 C   0  0  0  0  0  0  0  0  0  0  0  0
   -3.8300   16.2140  -34.9140 C   0  0  0  0  0  0  0  0  0  0  0  0
   -4.0270   15.0560  -35.3810 O   0  0  0  0  0  0  0  0  0  0  0  0
   -2.5530   16.8290  -35.0710 N   0  0  0  0  0  0  0  0  0  0  0  0
   -1.3930   16.8500  -33.7850 S   0  0  0  0  0  0  0  0  0  0  0  0
   -1.8840   16.0110  -32.6350 O   0  0  0  0  0  0  0  0  0  0  0  0
   -0.0890   16.2850  -34.2720 O   0  0  0  0  0  0  0  0  0  0  0  0
   -1.1550   18.5210  -33.2850 C   0  0  0  0  0  0  0  0  0  0  0  0
   -1.2750   19.5550  -34.2270 C   0  0  0  0  0  0  0  0  0  0  0  0
   -1.2000   20.8910  -33.8200 C   0  0  0  0  0  0  0  0  0  0  0  0
   -1.0160   21.2020  -32.4680 C   0  0  0  0  0  0  0  0  0  0  0  0
   -0.8970   20.1770  -31.5250 C   0  0  0  0  0  0  0  0  0  0  0  0
   -0.9630   18.8380  -31.9310 C   0  0  0  0  0  0  0  0  0  0  0  0
   -4.7050   18.2200  -33.6930 C   0  0  0  0  0  0  0  0  0  0  0  0
   -4.2410   20.9260  -32.5230 C   0  0  0  0  0  0  0  0  0  0  0  0
   -0.7090   22.6680  -28.1220 C   0  0  0  0  0  0  0  0  0  0  0  0
   -0.2980   21.3290  -28.1310 C   0  0  0  0  0  0  0  0  0  0  0  0
   -0.7037   18.4624  -27.0436 H   0  0  0  0  0  0  0  0  0  0  0  0
   -1.5854   18.2773  -28.5976 H   0  0  0  0  0  0  0  0  0  0  0  0
    0.1383   18.7828  -28.5976 H   0  0  0  0  0  0  0  0  0  0  0  0
   -3.3480   19.8201  -27.7811 H   0  0  0  0  0  0  0  0  0  0  0  0
   -4.0800   22.2027  -27.7771 H   0  0  0  0  0  0  0  0  0  0  0  0
   -2.5240   22.9953  -31.4752 H   0  0  0  0  0  0  0  0  0  0  0  0
   -7.3944   23.3021  -30.2689 H   0  0  0  0  0  0  0  0  0  0  0  0
   -5.3200   25.6620  -28.5020 H   0  0  0  0  0  0  0  0  0  0  0  0
   -7.8498   18.8862  -32.5122 H   0  0  0  0  0  0  0  0  0  0  0  0
   -8.2237   16.5733  -33.3659 H   0  0  0  0  0  0  0  0  0  0  0  0
   -6.3693   15.3292  -34.4683 H   0  0  0  0  0  0  0  0  0  0  0  0
   -1.4286   19.3135  -35.2891 H   0  0  0  0  0  0  0  0  0  0  0  0
   -1.2857   21.6977  -34.5629 H   0  0  0  0  0  0  0  0  0  0  0  0
   -0.9650   22.2530  -32.1474 H   0  0  0  0  0  0  0  0  0  0  0  0
   -0.7513   20.4223  -30.4626 H   0  0  0  0  0  0  0  0  0  0  0  0
   -0.8642   18.0334  -31.1875 H   0  0  0  0  0  0  0  0  0  0  0  0
   -3.7114   18.6840  -33.7787 H   0  0  0  0  0  0  0  0  0  0  0  0
   -3.4987   20.2700  -32.0449 H   0  0  0  0  0  0  0  0  0  0  0  0
   -3.8276   21.1727  -33.5120 H   0  0  0  0  0  0  0  0  0  0  0  0
    0.0368   23.4713  -28.2141 H   0  0  0  0  0  0  0  0  0  0  0  0
    0.7683   21.0840  -28.2450 H   0  0  0  0  0  0  0  0  0  0  0  0
  1  2  1  0
  2  3  2  0
  3  4  1  0
  4  5  2  0
  5  6  1  0
  6  7  2  0
  6  8  2  0
  6  9  1  0
  9 10  1  0
 10 11  2  0
 11 12  1  0
 12 13  2  0
 13 14  1  0
 14 15  2  0
 15 16  1  0
 13 17  1  0
 17 18  2  0
 17 19  1  0
 19 20  1  0
 20 21  2  0
 21 22  1  0
 22 23  2  0
 23 24  1  0
 24 25  1  0
 25 26  2  0
 25 27  1  0
 27 28  1  0
 28 29  2  0
 28 30  2  0
 28 31  1  0
 31 32  2  0
 32 33  1  0
 33 34  2  0
 34 35  1  0
 35 36  2  0
 24 37  2  0
 19 38  1  0
  5 39  1  0
 39 40  2  0
 40  2  1  0
 15 10  1  0
 37 20  1  0
 38 12  1  0
 36 31  1  0
  1 41  1  0
  1 42  1  0
  1 43  1  0
  3 44  1  0
  4 45  1  0
 11 46  1  0
 14 47  1  0
 16 48  1  0
 21 49  1  0
 22 50  1  0
 23 51  1  0
 32 52  1  0
 33 53  1  0
 34 54  1  0
 35 55  1  0
 36 56  1  0
 37 57  1  0
 38 58  1  0
 38 59  1  0
 39 60  1  0
 40 61  1  0
M  CHG  2   9  -1  27  -1
M  END
>  <UniqueID>  (40) 
39

>  <SMILES>  (40) 
Cc1ccc(S(=O)(=O)[N-]c2cc3c(cc2O)C(=O)N(c2cccc(C(=O)[N-]S(=O)(=O)c4ccccc4)c2)C3)cc1

>  <Energy>  (40) 
106.59233244992636

>  <Genealogy>  (40) 
Cc1ccc(S(=O)(=O)[N-]c2cc3c(cc2O)C(=O)N(c2cccc(C(=O)[N-]S(=O)(=O)c4ccccc4)c2)C3)cc1 (protonated)
Cc1ccc(S(=O)(=O)[N-]c2cc3c(cc2O)C(=O)N(c2cccc(C(=O)[N-]S(=O)(=O)c4ccccc4)c2)C3)cc1 (3D coordinates assigned)
Cc1ccc(S(=O)(=O)[N-]c2cc3c(cc2O)C(=O)N(c2cccc(C(=O)[N-]S(=O)(=O)c4ccccc4)c2)C3)cc1 (nonaromatic ring conformer: 106.59233244992636 kcal/mol)

>  <smiles>  (40) 
Cc1ccc(S(=O)(=O)Nc2cc3c(cc2O)C(=O)N(c2cccc(C(=O)NS(=O)(=O)c4ccccc4)c2)C3)cc1

>  <score_type>  (40) 
oracle

>  <origin>  (40) 
adgpu

>  <m_score__min__energy>  (40) 
-11.9

>  <m_primary>  (40) 
energy

$$$$
40:0
     RDKit          3D

 31 32  0  0  0  0  0  0  0  0999 V2000
   -1.6110   26.0560  -29.8810 H   0  0  0  0  0  0  0  0  0  0  0  0
   -1.2050   25.7250  -28.9810 N   0  0  0  0  0  0  0  0  0  0  0  0
   -1.3980   24.5370  -28.5000 C   0  0  0  0  0  0  0  0  0  0  0  0
   -0.8110   24.1340  -27.3450 N   0  0  0  0  0  0  0  0  0  0  0  0
   -1.2140   22.8550  -27.2360 C   0  0  0  0  0  0  0  0  0  0  0  0
   -0.9130   21.9590  -26.2130 C   0  0  0  0  0  0  0  0  0  0  0  0
   -0.2634   22.2512  -25.3747 H   0  0  0  0  0  0  0  0  0  0  0  0
   -1.4670   20.6680  -26.2870 C   0  0  0  0  0  0  0  0  0  0  0  0
   -1.2451   19.9321  -25.5001 H   0  0  0  0  0  0  0  0  0  0  0  0
   -2.3060   20.3110  -27.3650 C   0  0  0  0  0  0  0  0  0  0  0  0
   -2.7377   19.3002  -27.4091 H   0  0  0  0  0  0  0  0  0  0  0  0
   -2.5940   21.2380  -28.3830 C   0  0  0  0  0  0  0  0  0  0  0  0
   -3.2524   20.9734  -29.2235 H   0  0  0  0  0  0  0  0  0  0  0  0
   -2.0140   22.5090  -28.2900 C   0  0  0  0  0  0  0  0  0  0  0  0
   -2.1470   23.5710  -29.1070 N   0  0  0  0  0  0  0  0  0  0  0  0
   -2.9110   23.6470  -30.3220 C   0  0  0  0  0  0  0  0  0  0  0  0
   -2.7690   22.7640  -31.2110 O   0  0  0  0  0  0  0  0  0  0  0  0
   -3.7980   24.7180  -30.5120 O   0  0  0  0  0  0  0  0  0  0  0  0
   -5.2300   24.6620  -30.4460 C   0  0  0  0  0  0  0  0  0  0  0  0
   -5.5910   23.6730  -29.3260 C   0  0  0  0  0  0  0  0  0  0  0  0
   -5.4180   24.1469  -28.3485 H   0  0  0  0  0  0  0  0  0  0  0  0
   -6.6504   23.3901  -29.4140 H   0  0  0  0  0  0  0  0  0  0  0  0
   -4.9630   22.7742  -29.4140 H   0  0  0  0  0  0  0  0  0  0  0  0
   -5.8140   24.1450  -31.7750 C   0  0  0  0  0  0  0  0  0  0  0  0
   -6.6227   23.4291  -31.5663 H   0  0  0  0  0  0  0  0  0  0  0  0
   -6.2134   24.9909  -32.3537 H   0  0  0  0  0  0  0  0  0  0  0  0
   -5.0228   23.6459  -32.3537 H   0  0  0  0  0  0  0  0  0  0  0  0
   -5.8110   26.0450  -30.0960 C   0  0  0  0  0  0  0  0  0  0  0  0
   -5.8580   26.1570  -29.0027 H   0  0  0  0  0  0  0  0  0  0  0  0
   -5.1669   26.8307  -30.5177 H   0  0  0  0  0  0  0  0  0  0  0  0
   -6.8230   26.1350  -30.5177 H   0  0  0  0  0  0  0  0  0  0  0  0
  1  2  1  0
  2  3  2  0
  3  4  1  0
  4  5  1  0
  5  6  2  0
  6  7  1  0
  6  8  1  0
  8  9  1  0
  8 10  2  0
 10 11  1  0
 10 12  1  0
 12 13  1  0
 12 14  2  0
 14 15  1  0
 15 16  1  0
 16 17  2  0
 16 18  1  0
 18 19  1  0
 19 20  1  0
 20 21  1  0
 20 22  1  0
 20 23  1  0
 19 24  1  0
 24 25  1  0
 24 26  1  0
 24 27  1  0
 19 28  1  0
 28 29  1  0
 28 30  1  0
 28 31  1  0
 15  3  1  0
 14  5  1  0
M  CHG  1   4  -1
M  END
>  <UniqueID>  (41) 
40

>  <SMILES>  (41) 
[H]/N=c1/[n-]c2ccccc2n1C(=O)OC(C)(C)C

>  <Energy>  (41) 
69.22760625163622

>  <Genealogy>  (41) 
CC(C)(C)OC(=O)n1c(=N)[n-]c2ccccc21 (protonated)
[H]/N=c1/[n-]c2ccccc2n1C(=O)OC(C)(C)C (cis-trans isomerization)
[H]/N=c1/[n-]c2ccccc2n1C(=O)OC(C)(C)C (3D coordinates assigned)
[H]/N=c1/[n-]c2ccccc2n1C(=O)OC(C)(C)C (optimized conformer: 69.22760625163622 kcal/mol)

>  <smiles>  (41) 
CC(C)(C)OC(=O)n1c(=N)[nH]c2ccccc21

>  <score_type>  (41) 
oracle

>  <origin>  (41) 
adgpu

>  <m_score__min__energy>  (41) 
-7.4699999999999998

>  <m_primary>  (41) 
energy

$$$$
41:0
     RDKit          3D

 48 50  0  0  0  0  0  0  0  0999 V2000
   -3.1360   20.9670  -33.4430 C   0  0  0  0  0  0  0  0  0  0  0  0
   -4.4460   21.3920  -32.8470 C   0  0  0  0  0  0  0  0  0  0  0  0
   -5.5890   20.5970  -33.0160 C   0  0  0  0  0  0  0  0  0  0  0  0
   -6.7940   20.9620  -32.4120 C   0  0  0  0  0  0  0  0  0  0  0  0
   -6.8660   22.1200  -31.6340 C   0  0  0  0  0  0  0  0  0  0  0  0
   -5.7370   22.9300  -31.4600 C   0  0  0  0  0  0  0  0  0  0  0  0
   -5.8490   24.0960  -30.6300 N   0  0  0  0  0  0  0  0  0  0  0  0
   -5.0550   25.2830  -30.7150 C   0  0  0  0  0  0  0  0  0  0  0  0
   -5.5790   26.3840  -31.0340 O   0  0  0  0  0  0  0  0  0  0  0  0
   -3.6530   25.1990  -30.4320 N   0  0  0  0  0  0  0  0  0  0  0  0
   -3.0330   24.4240  -29.3950 C   0  0  0  0  0  0  0  0  0  0  0  0
   -3.5880   23.2170  -28.9490 C   0  0  0  0  0  0  0  0  0  0  0  0
   -2.9600   22.4800  -27.9480 C   0  0  0  0  0  0  0  0  0  0  0  0
   -1.7580   22.9240  -27.3760 C   0  0  0  0  0  0  0  0  0  0  0  0
   -1.1250   22.0840  -26.2960 C   0  0  0  0  0  0  0  0  0  0  0  0
   -1.1530   24.1130  -27.8590 C   0  0  0  0  0  0  0  0  0  0  0  0
    0.3960   24.6810  -27.1860 S   0  0  0  0  0  0  0  0  0  0  0  0
    0.8010   23.7640  -26.0640 O   0  0  0  0  0  0  0  0  0  0  0  0
    1.4820   24.6430  -28.2240 O   0  0  0  0  0  0  0  0  0  0  0  0
    0.1910   26.3140  -26.5860 N   0  0  0  0  0  0  0  0  0  0  0  0
    0.9380   26.5410  -25.3300 C   0  0  0  0  0  0  0  0  0  0  0  0
    0.0430   26.4530  -24.0810 C   0  0  0  0  0  0  0  0  0  0  0  0
   -0.9910   25.5170  -24.2850 O   0  0  0  0  0  0  0  0  0  0  0  0
   -1.9100   26.0050  -25.2480 C   0  0  0  0  0  0  0  0  0  0  0  0
   -1.2320   26.6770  -26.4670 C   0  0  0  0  0  0  0  0  0  0  0  0
   -1.8100   24.8590  -28.8630 C   0  0  0  0  0  0  0  0  0  0  0  0
   -1.2670   26.0480  -29.3370 O   0  0  0  0  0  0  0  0  0  0  0  0
   -4.5170   22.5460  -32.0490 C   0  0  0  0  0  0  0  0  0  0  0  0
   -2.4241   20.7360  -32.6368 H   0  0  0  0  0  0  0  0  0  0  0  0
   -3.2890   20.0724  -34.0645 H   0  0  0  0  0  0  0  0  0  0  0  0
   -2.7346   21.7810  -34.0645 H   0  0  0  0  0  0  0  0  0  0  0  0
   -5.5361   19.6833  -33.6261 H   0  0  0  0  0  0  0  0  0  0  0  0
   -7.6883   20.3364  -32.5491 H   0  0  0  0  0  0  0  0  0  0  0  0
   -7.8163   22.3976  -31.1546 H   0  0  0  0  0  0  0  0  0  0  0  0
   -4.5253   22.8495  -29.3922 H   0  0  0  0  0  0  0  0  0  0  0  0
   -3.4116   21.5387  -27.6016 H   0  0  0  0  0  0  0  0  0  0  0  0
   -1.4182   22.4731  -25.3098 H   0  0  0  0  0  0  0  0  0  0  0  0
   -1.4648   21.0425  -26.3951 H   0  0  0  0  0  0  0  0  0  0  0  0
   -0.0302   22.1235  -26.3951 H   0  0  0  0  0  0  0  0  0  0  0  0
    1.7297   25.7816  -25.2495 H   0  0  0  0  0  0  0  0  0  0  0  0
    1.3525   27.5591  -25.3700 H   0  0  0  0  0  0  0  0  0  0  0  0
    0.6515   26.1396  -23.2199 H   0  0  0  0  0  0  0  0  0  0  0  0
   -0.4013   27.4408  -23.8889 H   0  0  0  0  0  0  0  0  0  0  0  0
   -2.5165   25.1612  -25.6088 H   0  0  0  0  0  0  0  0  0  0  0  0
   -2.5184   26.7755  -24.7519 H   0  0  0  0  0  0  0  0  0  0  0  0
   -1.7553   26.3611  -27.3815 H   0  0  0  0  0  0  0  0  0  0  0  0
   -1.2907   27.7664  -26.3265 H   0  0  0  0  0  0  0  0  0  0  0  0
   -3.6147   23.1529  -31.8834 H   0  0  0  0  0  0  0  0  0  0  0  0
  1  2  1  0
  2  3  2  0
  3  4  1  0
  4  5  2  0
  5  6  1  0
  6  7  1  0
  7  8  1  0
  8  9  2  0
  8 10  1  0
 10 11  1  0
 11 12  2  0
 12 13  1  0
 13 14  2  0
 14 15  1  0
 14 16  1  0
 16 17  1  0
 17 18  2  0
 17 19  2  0
 17 20  1  0
 20 21  1  0
 21 22  1  0
 22 23  1  0
 23 24  1  0
 24 25  1  0
 16 26  2  0
 26 27  1  0
  6 28  2  0
 28  2  1  0
 26 11  1  0
 25 20  1  0
  1 29  1  0
  1 30  1  0
  1 31  1  0
  3 32  1  0
  4 33  1  0
  5 34  1  0
 12 35  1  0
 13 36  1  0
 15 37  1  0
 15 38  1  0
 15 39  1  0
 21 40  1  0
 21 41  1  0
 22 42  1  0
 22 43  1  0
 24 44  1  0
 24 45  1  0
 25 46  1  0
 25 47  1  0
 28 48  1  0
M  CHG  3   7  -1  10  -1  27  -1
M  END
>  <UniqueID>  (42) 
41

>  <SMILES>  (42) 
Cc1cccc([N-]C(=O)[N-]c2ccc(C)c(S(=O)(=O)N3CCOCC3)c2[O-])c1

>  <Energy>  (42) 
69.92656697001364

>  <Genealogy>  (42) 
Cc1cccc([N-]C(=O)[N-]c2ccc(C)c(S(=O)(=O)N3CCOCC3)c2[O-])c1 (protonated)
Cc1cccc([N-]C(=O)[N-]c2ccc(C)c(S(=O)(=O)N3CCOCC3)c2[O-])c1 (3D coordinates assigned)
Cc1cccc([N-]C(=O)[N-]c2ccc(C)c(S(=O)(=O)N3CCOCC3)c2[O-])c1 (nonaromatic ring conformer: 69.92656697001364 kcal/mol)

>  <smiles>  (42) 
Cc1cccc(NC(=O)Nc2ccc(C)c(S(=O)(=O)N3CCOCC3)c2O)c1

>  <score_type>  (42) 
oracle

>  <origin>  (42) 
adgpu

>  <m_score__min__energy>  (42) 
-15

>  <m_primary>  (42) 
energy

$$$$
42:0
     RDKit          3D

 42 44  0  0  0  0  0  0  0  0999 V2000
   -5.8120   16.6520  -31.6050 C   0  0  0  0  0  0  0  0  0  0  0  0
   -6.7140   16.7280  -32.7680 N   0  0  0  0  0  0  0  0  0  0  0  0
   -5.9730   17.0050  -34.0270 C   0  0  0  0  0  0  0  0  0  0  0  0
   -6.1310   18.4510  -34.5360 C   0  0  0  0  0  0  0  0  0  0  0  0
   -6.2780   19.3710  -33.4060 N   0  0  0  0  0  0  0  0  0  0  0  0
   -5.2300   20.3080  -33.0920 C   0  0  0  0  0  0  0  0  0  0  0  0
   -4.0340   20.0190  -33.3680 O   0  0  0  0  0  0  0  0  0  0  0  0
   -5.5130   21.5970  -32.4330 C   0  0  0  0  0  0  0  0  0  0  0  0
   -6.5400   22.4820  -32.7240 C   0  0  0  0  0  0  0  0  0  0  0  0
   -6.3740   23.5620  -31.8790 C   0  0  0  0  0  0  0  0  0  0  0  0
   -5.2930   23.3660  -31.1040 N   0  0  0  0  0  0  0  0  0  0  0  0
   -4.6910   24.4470  -29.8940 S   0  0  0  0  0  0  0  0  0  0  0  0
   -4.2230   25.7120  -30.5570 O   0  0  0  0  0  0  0  0  0  0  0  0
   -5.7830   24.7820  -28.9170 O   0  0  0  0  0  0  0  0  0  0  0  0
   -3.3670   23.6690  -29.0250 C   0  0  0  0  0  0  0  0  0  0  0  0
   -3.5270   22.3730  -28.5110 C   0  0  0  0  0  0  0  0  0  0  0  0
   -2.4860   21.7600  -27.8080 C   0  0  0  0  0  0  0  0  0  0  0  0
   -2.6930   20.1400  -27.1690 Cl  0  0  0  0  0  0  0  0  0  0  0  0
   -1.2780   22.4380  -27.6140 C   0  0  0  0  0  0  0  0  0  0  0  0
   -1.1090   23.7310  -28.1220 C   0  0  0  0  0  0  0  0  0  0  0  0
    0.4140   24.5670  -27.8630 Cl  0  0  0  0  0  0  0  0  0  0  0  0
   -2.1520   24.3490  -28.8270 C   0  0  0  0  0  0  0  0  0  0  0  0
   -1.9780   25.6350  -29.3290 O   0  0  0  0  0  0  0  0  0  0  0  0
   -4.7530   22.1810  -31.4360 C   0  0  0  0  0  0  0  0  0  0  0  0
   -7.3650   19.1210  -32.4510 C   0  0  0  0  0  0  0  0  0  0  0  0
   -7.8380   17.6590  -32.5310 C   0  0  0  0  0  0  0  0  0  0  0  0
   -6.4031   16.7018  -30.6787 H   0  0  0  0  0  0  0  0  0  0  0  0
   -5.2552   15.7038  -31.6341 H   0  0  0  0  0  0  0  0  0  0  0  0
   -5.1044   17.4937  -31.6341 H   0  0  0  0  0  0  0  0  0  0  0  0
   -4.9042   16.8146  -33.8495 H   0  0  0  0  0  0  0  0  0  0  0  0
   -6.3954   16.3454  -34.7993 H   0  0  0  0  0  0  0  0  0  0  0  0
   -5.2410   18.7305  -35.1188 H   0  0  0  0  0  0  0  0  0  0  0  0
   -7.0286   18.5130  -35.1688 H   0  0  0  0  0  0  0  0  0  0  0  0
   -7.3300   22.3502  -33.4780 H   0  0  0  0  0  0  0  0  0  0  0  0
   -7.0264   24.4470  -31.8453 H   0  0  0  0  0  0  0  0  0  0  0  0
   -4.4758   21.8373  -28.6620 H   0  0  0  0  0  0  0  0  0  0  0  0
   -0.4594   21.9540  -27.0612 H   0  0  0  0  0  0  0  0  0  0  0  0
   -3.8492   21.7445  -30.9858 H   0  0  0  0  0  0  0  0  0  0  0  0
   -7.0048   19.3282  -31.4325 H   0  0  0  0  0  0  0  0  0  0  0  0
   -8.2107   19.7790  -32.6996 H   0  0  0  0  0  0  0  0  0  0  0  0
   -8.3277   17.3913  -31.5831 H   0  0  0  0  0  0  0  0  0  0  0  0
   -8.5364   17.5724  -33.3764 H   0  0  0  0  0  0  0  0  0  0  0  0
  1  2  1  0
  2  3  1  0
  3  4  1  0
  4  5  1  0
  5  6  1  0
  6  7  2  0
  6  8  1  0
  8  9  1  0
  9 10  2  0
 10 11  1  0
 11 12  1  0
 12 13  2  0
 12 14  2  0
 12 15  1  0
 15 16  2  0
 16 17  1  0
 17 18  1  0
 17 19  2  0
 19 20  1  0
 20 21  1  0
 20 22  2  0
 22 23  1  0
 11 24  1  0
  5 25  1  0
 25 26  1  0
 26  2  1  0
 24  8  2  0
 22 15  1  0
  1 27  1  0
  1 28  1  0
  1 29  1  0
  3 30  1  0
  3 31  1  0
  4 32  1  0
  4 33  1  0
  9 34  1  0
 10 35  1  0
 16 36  1  0
 19 37  1  0
 24 38  1  0
 25 39  1  0
 25 40  1  0
 26 41  1  0
 26 42  1  0
M  CHG  1  23  -1
M  END
>  <UniqueID>  (43) 
42

>  <SMILES>  (43) 
CN1CCN(C(=O)c2ccn(S(=O)(=O)c3cc(Cl)cc(Cl)c3[O-])c2)CC1

>  <Energy>  (43) 
82.9669799406511

>  <Genealogy>  (43) 
CN1CCN(C(=O)c2ccn(S(=O)(=O)c3cc(Cl)cc(Cl)c3[O-])c2)CC1 (protonated)
CN1CCN(C(=O)c2ccn(S(=O)(=O)c3cc(Cl)cc(Cl)c3[O-])c2)CC1 (3D coordinates assigned)
CN1CCN(C(=O)c2ccn(S(=O)(=O)c3cc(Cl)cc(Cl)c3[O-])c2)CC1 (nonaromatic ring conformer: 82.9669799406511 kcal/mol)

>  <smiles>  (43) 
CN1CCN(C(=O)c2ccn(S(=O)(=O)c3cc(Cl)cc(Cl)c3O)c2)CC1

>  <score_type>  (43) 
oracle

>  <origin>  (43) 
adgpu

>  <m_score__min__energy>  (43) 
-12.9

>  <m_primary>  (43) 
energy

$$$$
43:0
     RDKit          3D

 34 36  0  0  0  0  0  0  0  0999 V2000
   -1.6090   25.6870  -28.9570 O   0  0  0  0  0  0  0  0  0  0  0  0
   -2.4290   24.8140  -29.3470 C   0  0  0  0  0  0  0  0  0  0  0  0
   -3.5140   25.2230  -30.1930 N   0  0  0  0  0  0  0  0  0  0  0  0
   -4.5410   24.3720  -30.7220 C   0  0  0  0  0  0  0  0  0  0  0  0
   -4.2510   23.1170  -31.2800 C   0  0  0  0  0  0  0  0  0  0  0  0
   -5.2810   22.3280  -31.7940 C   0  0  0  0  0  0  0  0  0  0  0  0
   -6.6030   22.8010  -31.7480 C   0  0  0  0  0  0  0  0  0  0  0  0
   -7.6730   22.0550  -32.2610 O   0  0  0  0  0  0  0  0  0  0  0  0
   -7.7330   20.6540  -32.3190 C   0  0  0  0  0  0  0  0  0  0  0  0
   -6.8130   19.8990  -33.0700 C   0  0  0  0  0  0  0  0  0  0  0  0
   -6.8970   18.5040  -33.0880 C   0  0  0  0  0  0  0  0  0  0  0  0
   -7.8900   17.8520  -32.3510 C   0  0  0  0  0  0  0  0  0  0  0  0
   -8.7940   18.5950  -31.5870 C   0  0  0  0  0  0  0  0  0  0  0  0
   -8.7110   19.9910  -31.5660 C   0  0  0  0  0  0  0  0  0  0  0  0
   -6.8510   24.0390  -31.2410 N   0  0  0  0  0  0  0  0  0  0  0  0
   -5.8630   24.8250  -30.7370 C   0  0  0  0  0  0  0  0  0  0  0  0
   -2.2790   23.4150  -28.8820 C   0  0  0  0  0  0  0  0  0  0  0  0
   -3.2280   22.8510  -28.0130 C   0  0  0  0  0  0  0  0  0  0  0  0
   -3.0850   21.5320  -27.5810 C   0  0  0  0  0  0  0  0  0  0  0  0
   -1.9990   20.7780  -28.0310 C   0  0  0  0  0  0  0  0  0  0  0  0
   -1.8530   19.5870  -27.6490 O   0  0  0  0  0  0  0  0  0  0  0  0
   -1.0960   21.3290  -28.8850 N   0  0  0  0  0  0  0  0  0  0  0  0
   -1.2120   22.6130  -29.3180 C   0  0  0  0  0  0  0  0  0  0  0  0
   -3.2125   22.7557  -31.3121 H   0  0  0  0  0  0  0  0  0  0  0  0
   -5.0594   21.3435  -32.2317 H   0  0  0  0  0  0  0  0  0  0  0  0
   -6.0254   20.4083  -33.6446 H   0  0  0  0  0  0  0  0  0  0  0  0
   -6.1808   17.9183  -33.6829 H   0  0  0  0  0  0  0  0  0  0  0  0
   -7.9598   16.7544  -32.3725 H   0  0  0  0  0  0  0  0  0  0  0  0
   -9.5712   18.0816  -31.0019 H   0  0  0  0  0  0  0  0  0  0  0  0
   -9.4176   20.5717  -30.9548 H   0  0  0  0  0  0  0  0  0  0  0  0
   -6.1051   25.8216  -30.3394 H   0  0  0  0  0  0  0  0  0  0  0  0
   -4.0853   23.4503  -27.6726 H   0  0  0  0  0  0  0  0  0  0  0  0
   -3.8205   21.0903  -26.8926 H   0  0  0  0  0  0  0  0  0  0  0  0
   -0.4661   23.0254  -30.0134 H   0  0  0  0  0  0  0  0  0  0  0  0
  1  2  2  0
  2  3  1  0
  3  4  1  0
  4  5  2  0
  5  6  1  0
  6  7  2  0
  7  8  1  0
  8  9  1  0
  9 10  2  0
 10 11  1  0
 11 12  2  0
 12 13  1  0
 13 14  2  0
  7 15  1  0
 15 16  2  0
  2 17  1  0
 17 18  1  0
 18 19  2  0
 19 20  1  0
 20 21  2  0
 20 22  1  0
 22 23  1  0
 16  4  1  0
 23 17  2  0
 14  9  1  0
  5 24  1  0
  6 25  1  0
 10 26  1  0
 11 27  1  0
 12 28  1  0
 13 29  1  0
 14 30  1  0
 16 31  1  0
 18 32  1  0
 19 33  1  0
 23 34  1  0
M  CHG  2   3  -1  22  -1
M  END
>  <UniqueID>  (44) 
43

>  <SMILES>  (44) 
O=C([N-]c1ccc(Oc2ccccc2)nc1)c1ccc(=O)[n-]c1

>  <Energy>  (44) 
52.20963484807958

>  <Genealogy>  (44) 
O=C([N-]c1ccc(Oc2ccccc2)nc1)c1ccc(=O)[n-]c1 (protonated)
O=C([N-]c1ccc(Oc2ccccc2)nc1)c1ccc(=O)[n-]c1 (3D coordinates assigned)
O=C([N-]c1ccc(Oc2ccccc2)nc1)c1ccc(=O)[n-]c1 (optimized conformer: 52.20963484807958 kcal/mol)

>  <smiles>  (44) 
O=C(Nc1ccc(Oc2ccccc2)nc1)c1ccc(=O)[nH]c1

>  <score_type>  (44) 
oracle

>  <origin>  (44) 
adgpu

>  <m_score__min__energy>  (44) 
-9.7100000000000009

>  <m_primary>  (44) 
energy

$$$$
44:0
     RDKit          3D

 68 71  0  0  0  0  0  0  0  0999 V2000
   -0.9510   21.5010  -34.2130 C   0  0  0  0  0  0  0  0  0  0  0  0
    0.3990   21.3180  -34.8260 C   0  0  0  0  0  0  0  0  0  0  0  0
    1.3480   22.2770  -34.8620 N   0  0  0  0  0  0  0  0  0  0  0  0
    2.3770   21.7990  -35.5520 N   0  0  0  0  0  0  0  0  0  0  0  0
    3.6060   22.5490  -35.7910 C   0  0  0  0  0  0  0  0  0  0  0  0
    2.1110   20.5410  -35.9670 C   0  0  0  0  0  0  0  0  0  0  0  0
    3.0360   19.6790  -36.7700 C   0  0  0  0  0  0  0  0  0  0  0  0
    0.8400   20.2210  -35.5360 C   0  0  0  0  0  0  0  0  0  0  0  0
    0.1120   19.0200  -35.7900 N   0  0  0  0  0  0  0  0  0  0  0  0
   -0.3660   17.9810  -34.4910 S   0  0  0  0  0  0  0  0  0  0  0  0
    0.6980   17.9790  -33.4300 O   0  0  0  0  0  0  0  0  0  0  0  0
   -0.5200   16.5780  -35.0070 O   0  0  0  0  0  0  0  0  0  0  0  0
   -1.8870   18.5700  -33.8020 C   0  0  0  0  0  0  0  0  0  0  0  0
   -3.0470   18.5000  -34.5880 C   0  0  0  0  0  0  0  0  0  0  0  0
   -4.2680   18.9640  -34.1070 C   0  0  0  0  0  0  0  0  0  0  0  0
   -4.3650   19.5070  -32.8190 C   0  0  0  0  0  0  0  0  0  0  0  0
   -5.6330   19.9920  -32.3220 N   0  0  0  0  0  0  0  0  0  0  0  0
   -6.6880   19.0420  -31.9490 C   0  0  0  0  0  0  0  0  0  0  0  0
   -8.0560   19.7290  -31.9630 C   0  0  0  0  0  0  0  0  0  0  0  0
   -8.0790   20.9060  -31.0660 N   0  0  0  0  0  0  0  0  0  0  0  0
   -9.3010   21.6910  -31.2890 C   0  0  0  0  0  0  0  0  0  0  0  0
   -6.8620   21.7620  -31.1310 C   0  0  0  0  0  0  0  0  0  0  0  0
   -5.9320   21.4300  -32.3070 C   0  0  0  0  0  0  0  0  0  0  0  0
   -3.2090   19.5870  -32.0260 C   0  0  0  0  0  0  0  0  0  0  0  0
   -1.9610   19.1290  -32.4990 C   0  0  0  0  0  0  0  0  0  0  0  0
   -0.7820   19.2420  -31.6690 N   0  0  0  0  0  0  0  0  0  0  0  0
   -0.3260   20.5080  -31.0870 C   0  0  0  0  0  0  0  0  0  0  0  0
   -1.3130   21.0110  -30.0660 C   0  0  0  0  0  0  0  0  0  0  0  0
   -1.6920   20.1940  -28.9910 C   0  0  0  0  0  0  0  0  0  0  0  0
   -2.5760   20.6720  -28.0200 C   0  0  0  0  0  0  0  0  0  0  0  0
   -3.0780   21.9740  -28.1080 C   0  0  0  0  0  0  0  0  0  0  0  0
   -2.6880   22.8070  -29.1660 C   0  0  0  0  0  0  0  0  0  0  0  0
   -3.3160   24.4480  -29.2780 S   0  0  0  0  0  0  0  0  0  0  0  0
   -2.0480   25.5750  -28.9460 N   0  0  0  0  0  0  0  0  0  0  0  0
   -3.8580   24.6920  -30.6590 O   0  0  0  0  0  0  0  0  0  0  0  0
   -4.4270   24.6380  -28.2830 O   0  0  0  0  0  0  0  0  0  0  0  0
   -1.8080   22.3220  -30.1440 C   0  0  0  0  0  0  0  0  0  0  0  0
   -0.8606   21.4888  -33.1168 H   0  0  0  0  0  0  0  0  0  0  0  0
   -1.3726   22.4645  -34.5354 H   0  0  0  0  0  0  0  0  0  0  0  0
   -1.6138   20.6845  -34.5354 H   0  0  0  0  0  0  0  0  0  0  0  0
    4.0597   22.8259  -34.8280 H   0  0  0  0  0  0  0  0  0  0  0  0
    4.3101   21.9265  -36.3626 H   0  0  0  0  0  0  0  0  0  0  0  0
    3.3744   23.4599  -36.3626 H   0  0  0  0  0  0  0  0  0  0  0  0
    3.6692   19.0889  -36.0911 H   0  0  0  0  0  0  0  0  0  0  0  0
    2.4467   19.0004  -37.4043 H   0  0  0  0  0  0  0  0  0  0  0  0
    3.6714   20.3146  -37.4043 H   0  0  0  0  0  0  0  0  0  0  0  0
   -2.9907   18.0719  -35.5997 H   0  0  0  0  0  0  0  0  0  0  0  0
   -5.1636   18.9039  -34.7429 H   0  0  0  0  0  0  0  0  0  0  0  0
   -6.6943   18.2078  -32.6660 H   0  0  0  0  0  0  0  0  0  0  0  0
   -6.4878   18.6676  -30.9342 H   0  0  0  0  0  0  0  0  0  0  0  0
   -8.2815   20.0564  -32.9887 H   0  0  0  0  0  0  0  0  0  0  0  0
   -8.8083   19.0091  -31.6084 H   0  0  0  0  0  0  0  0  0  0  0  0
   -9.7383   21.9719  -30.3196 H   0  0  0  0  0  0  0  0  0  0  0  0
   -9.0543   22.6000  -31.8572 H   0  0  0  0  0  0  0  0  0  0  0  0
  -10.0251   21.0887  -31.8572 H   0  0  0  0  0  0  0  0  0  0  0  0
   -7.1804   22.8106  -31.2261 H   0  0  0  0  0  0  0  0  0  0  0  0
   -6.2909   21.5770  -30.2092 H   0  0  0  0  0  0  0  0  0  0  0  0
   -6.4240   21.7094  -33.2503 H   0  0  0  0  0  0  0  0  0  0  0  0
   -4.9933   21.9923  -32.1943 H   0  0  0  0  0  0  0  0  0  0  0  0
   -3.2777   20.0155  -31.0152 H   0  0  0  0  0  0  0  0  0  0  0  0
   -0.2060   18.3950  -31.4730 H   0  0  0  0  0  0  0  0  0  0  0  0
    0.6483   20.3517  -30.6009 H   0  0  0  0  0  0  0  0  0  0  0  0
   -0.2366   21.2544  -31.8900 H   0  0  0  0  0  0  0  0  0  0  0  0
   -1.2917   19.1725  -28.9118 H   0  0  0  0  0  0  0  0  0  0  0  0
   -2.8775   20.0227  -27.1848 H   0  0  0  0  0  0  0  0  0  0  0  0
   -3.7796   22.3451  -27.3464 H   0  0  0  0  0  0  0  0  0  0  0  0
   -1.4970   25.6810  -29.8270 H   0  0  0  0  0  0  0  0  0  0  0  0
   -1.5039   22.9727  -30.9771 H   0  0  0  0  0  0  0  0  0  0  0  0
  1  2  1  0
  2  3  2  0
  3  4  1  0
  4  5  1  0
  4  6  1  0
  6  7  1  0
  6  8  2  0
  8  9  1  0
  9 10  1  0
 10 11  2  0
 10 12  2  0
 10 13  1  0
 13 14  2  0
 14 15  1  0
 15 16  2  0
 16 17  1  0
 17 18  1  0
 18 19  1  0
 19 20  1  0
 20 21  1  0
 20 22  1  0
 22 23  1  0
 16 24  1  0
 24 25  2  0
 25 26  1  0
 26 27  1  0
 27 28  1  0
 28 29  2  0
 29 30  1  0
 30 31  2  0
 31 32  1  0
 32 33  1  0
 33 34  1  0
 33 35  2  0
 33 36  2  0
 32 37  2  0
  8  2  1  0
 25 13  1  0
 37 28  1  0
 23 17  1  0
  1 38  1  0
  1 39  1  0
  1 40  1  0
  5 41  1  0
  5 42  1  0
  5 43  1  0
  7 44  1  0
  7 45  1  0
  7 46  1  0
 14 47  1  0
 15 48  1  0
 18 49  1  0
 18 50  1  0
 19 51  1  0
 19 52  1  0
 21 53  1  0
 21 54  1  0
 21 55  1  0
 22 56  1  0
 22 57  1  0
 23 58  1  0
 23 59  1  0
 24 60  1  0
 26 61  1  0
 27 62  1  0
 27 63  1  0
 29 64  1  0
 30 65  1  0
 31 66  1  0
 34 67  1  0
 37 68  1  0
M  CHG  2   9  -1  34  -1
M  END
>  <UniqueID>  (45) 
44

>  <SMILES>  (45) 
Cc1nn(C)c(C)c1[N-]S(=O)(=O)c1ccc(N2CCN(C)CC2)cc1NCc1cccc(S([NH-])(=O)=O)c1

>  <Energy>  (45) 
117.37115060103552

>  <Genealogy>  (45) 
Cc1nn(C)c(C)c1[N-]S(=O)(=O)c1ccc(N2CCN(C)CC2)cc1NCc1cccc(S([NH-])(=O)=O)c1 (protonated)
Cc1nn(C)c(C)c1[N-]S(=O)(=O)c1ccc(N2CCN(C)CC2)cc1NCc1cccc(S([NH-])(=O)=O)c1 (3D coordinates assigned)
Cc1nn(C)c(C)c1[N-]S(=O)(=O)c1ccc(N2CCN(C)CC2)cc1NCc1cccc(S([NH-])(=O)=O)c1 (nonaromatic ring conformer: 117.37115060103552 kcal/mol)

>  <smiles>  (45) 
Cc1nn(C)c(C)c1NS(=O)(=O)c1ccc(N2CCN(C)CC2)cc1NCc1cccc(S(N)(=O)=O)c1

>  <score_type>  (45) 
oracle

>  <origin>  (45) 
adgpu

>  <m_score__min__energy>  (45) 
-11.960000000000001

>  <m_primary>  (45) 
energy

$$$$
45:0
     RDKit          3D

 59 62  0  0  0  0  0  0  0  0999 V2000
    1.1300   17.7330  -30.9660 C   0  0  0  0  0  0  0  0  0  0  0  0
    0.4830   18.6610  -29.9790 C   0  0  0  0  0  0  0  0  0  0  0  0
   -0.0000   18.1660  -28.7580 C   0  0  0  0  0  0  0  0  0  0  0  0
   -0.6380   19.0210  -27.8530 C   0  0  0  0  0  0  0  0  0  0  0  0
   -0.8050   20.3770  -28.1650 C   0  0  0  0  0  0  0  0  0  0  0  0
   -1.5720   21.4580  -27.0030 S   0  0  0  0  0  0  0  0  0  0  0  0
   -1.5520   20.8110  -25.6460 O   0  0  0  0  0  0  0  0  0  0  0  0
   -3.0060   21.6910  -27.3990 O   0  0  0  0  0  0  0  0  0  0  0  0
   -0.7140   22.9820  -26.9360 N   0  0  2  0  0  0  0  0  0  0  0  0
   -0.1910   23.2330  -25.5760 C   0  0  0  0  0  0  0  0  0  0  0  0
   -0.8630   24.4860  -25.0410 C   0  0  0  0  0  0  0  0  0  0  0  0
   -1.3050   25.2270  -26.2760 C   0  0  0  0  0  0  0  0  0  0  0  0
   -1.6040   24.1190  -27.2780 C   0  0  1  0  0  0  0  0  0  0  0  0
   -1.4410   24.6110  -28.7020 C   0  0  0  0  0  0  0  0  0  0  0  0
   -0.3840   24.3700  -29.3480 O   0  0  0  0  0  0  0  0  0  0  0  0
   -2.5480   25.2570  -29.3450 N   0  0  0  0  0  0  0  0  0  0  0  0
   -3.5690   24.6270  -30.1300 C   0  0  0  0  0  0  0  0  0  0  0  0
   -4.8150   25.2380  -30.3660 C   0  0  0  0  0  0  0  0  0  0  0  0
   -5.7990   24.5680  -31.0990 C   0  0  0  0  0  0  0  0  0  0  0  0
   -5.5610   23.2780  -31.5770 C   0  0  0  0  0  0  0  0  0  0  0  0
   -4.3360   22.6480  -31.3270 C   0  0  0  0  0  0  0  0  0  0  0  0
   -4.0500   21.0070  -31.9040 S   0  0  0  0  0  0  0  0  0  0  0  0
   -4.5930   20.0270  -30.9020 O   0  0  0  0  0  0  0  0  0  0  0  0
   -4.7740   20.8020  -33.2070 O   0  0  0  0  0  0  0  0  0  0  0  0
   -2.3360   20.7360  -32.1030 N   0  0  0  0  0  0  0  0  0  0  0  0
   -1.7890   21.5560  -33.1840 C   0  0  0  0  0  0  0  0  0  0  0  0
   -0.5990   20.7980  -33.7300 C   0  0  0  0  0  0  0  0  0  0  0  0
   -0.9640   19.3420  -33.5310 C   0  0  0  0  0  0  0  0  0  0  0  0
   -2.0540   19.3390  -32.4600 C   0  0  0  0  0  0  0  0  0  0  0  0
   -3.3430   23.3290  -30.6060 C   0  0  0  0  0  0  0  0  0  0  0  0
   -0.3360   20.8710  -29.3890 C   0  0  0  0  0  0  0  0  0  0  0  0
    0.2980   20.0150  -30.2960 C   0  0  0  0  0  0  0  0  0  0  0  0
    1.6780   16.9471  -30.4256 H   0  0  0  0  0  0  0  0  0  0  0  0
    0.3563   17.2723  -31.5978 H   0  0  0  0  0  0  0  0  0  0  0  0
    1.8298   18.2997  -31.5978 H   0  0  0  0  0  0  0  0  0  0  0  0
    0.1236   17.1011  -28.5114 H   0  0  0  0  0  0  0  0  0  0  0  0
   -1.0092   18.6283  -26.8949 H   0  0  0  0  0  0  0  0  0  0  0  0
    0.1010   22.9180  -27.5900 H   0  0  0  0  0  0  0  0  0  0  0  0
   -0.4211   22.3779  -24.9234 H   0  0  0  0  0  0  0  0  0  0  0  0
    0.9006   23.3658  -25.6038 H   0  0  0  0  0  0  0  0  0  0  0  0
   -1.7273   24.2264  -24.4120 H   0  0  0  0  0  0  0  0  0  0  0  0
   -0.1919   25.0856  -24.4085 H   0  0  0  0  0  0  0  0  0  0  0  0
   -2.2057   25.8249  -26.0728 H   0  0  0  0  0  0  0  0  0  0  0  0
   -0.5472   25.9364  -26.6402 H   0  0  0  0  0  0  0  0  0  0  0  0
   -2.6513   23.7879  -27.2183 H   0  0  0  0  0  0  0  0  0  0  0  0
   -5.0150   26.2456  -29.9725 H   0  0  0  0  0  0  0  0  0  0  0  0
   -6.7630   25.0583  -31.2996 H   0  0  0  0  0  0  0  0  0  0  0  0
   -6.3389   22.7546  -32.1522 H   0  0  0  0  0  0  0  0  0  0  0  0
   -2.5430   21.7003  -33.9718 H   0  0  0  0  0  0  0  0  0  0  0  0
   -1.4968   22.5527  -32.8217 H   0  0  0  0  0  0  0  0  0  0  0  0
   -0.4504   21.0208  -34.7969 H   0  0  0  0  0  0  0  0  0  0  0  0
    0.3409   21.0697  -33.2271 H   0  0  0  0  0  0  0  0  0  0  0  0
   -1.3441   18.9091  -34.4681 H   0  0  0  0  0  0  0  0  0  0  0  0
   -0.0939   18.7398  -33.2305 H   0  0  0  0  0  0  0  0  0  0  0  0
   -2.9639   18.8622  -32.8534 H   0  0  0  0  0  0  0  0  0  0  0  0
   -1.7222   18.7756  -31.5754 H   0  0  0  0  0  0  0  0  0  0  0  0
   -2.3775   22.8386  -30.4127 H   0  0  0  0  0  0  0  0  0  0  0  0
   -0.4665   21.9345  -29.6377 H   0  0  0  0  0  0  0  0  0  0  0  0
    0.6528   20.4051  -31.2614 H   0  0  0  0  0  0  0  0  0  0  0  0
  1  2  1  0
  2  3  2  0
  3  4  1  0
  4  5  2  0
  5  6  1  0
  6  7  2  0
  6  8  2  0
  6  9  1  0
  9 10  1  0
 10 11  1  0
 11 12  1  0
 12 13  1  0
 13 14  1  0
 14 15  2  0
 14 16  1  0
 16 17  1  0
 17 18  2  0
 18 19  1  0
 19 20  2  0
 20 21  1  0
 21 22  1  0
 22 23  2  0
 22 24  2  0
 22 25  1  0
 25 26  1  0
 26 27  1  0
 27 28  1  0
 28 29  1  0
 21 30  2  0
  5 31  1  0
 31 32  2  0
 32  2  1  0
 13  9  1  0
 30 17  1  0
 29 25  1  0
  1 33  1  0
  1 34  1  0
  1 35  1  0
  3 36  1  0
  4 37  1  0
  9 38  1  6
 10 39  1  0
 10 40  1  0
 11 41  1  0
 11 42  1  0
 12 43  1  0
 12 44  1  0
 13 45  1  6
 18 46  1  0
 19 47  1  0
 20 48  1  0
 26 49  1  0
 26 50  1  0
 27 51  1  0
 27 52  1  0
 28 53  1  0
 28 54  1  0
 29 55  1  0
 29 56  1  0
 30 57  1  0
 31 58  1  0
 32 59  1  0
M  CHG  2   9   1  16  -1
M  END
>  <UniqueID>  (46) 
45

>  <SMILES>  (46) 
Cc1ccc(S(=O)(=O)[N@@H+]2CCC[C@H]2C(=O)[N-]c2cccc(S(=O)(=O)N3CCCC3)c2)cc1

>  <Energy>  (46) 
67.21378216416986

>  <Genealogy>  (46) 
Cc1ccc(S(=O)(=O)[NH+]2CCCC2C(=O)[N-]c2cccc(S(=O)(=O)N3CCCC3)c2)cc1 (protonated)
Cc1ccc(S(=O)(=O)[N@@H+]2CCC[C@H]2C(=O)[N-]c2cccc(S(=O)(=O)N3CCCC3)c2)cc1 (chirality)
Cc1ccc(S(=O)(=O)[N@@H+]2CCC[C@H]2C(=O)[N-]c2cccc(S(=O)(=O)N3CCCC3)c2)cc1 (3D coordinates assigned)
Cc1ccc(S(=O)(=O)[N@@H+]2CCC[C@H]2C(=O)[N-]c2cccc(S(=O)(=O)N3CCCC3)c2)cc1 (nonaromatic ring conformer: 67.21378216416986 kcal/mol)

>  <smiles>  (46) 
Cc1ccc(S(=O)(=O)N2CCCC2C(=O)Nc2cccc(S(=O)(=O)N3CCCC3)c2)cc1

>  <score_type>  (46) 
oracle

>  <origin>  (46) 
adgpu

>  <m_score__min__energy>  (46) 
-10.66

>  <m_primary>  (46) 
energy

$$$$
46:0
     RDKit          3D

 22 23  0  0  0  0  0  0  0  0999 V2000
   -6.7370   21.9000  -32.3680 C   0  0  0  0  0  0  0  0  0  0  0  0
   -7.3610   23.3000  -31.3890 S   0  0  0  0  0  0  0  0  0  0  0  0
   -5.7350   23.7480  -30.7930 C   0  0  0  0  0  0  0  0  0  0  0  0
   -5.0290   24.7990  -31.2460 N   0  0  0  0  0  0  0  0  0  0  0  0
   -3.8910   24.7950  -30.5690 N   0  0  0  0  0  0  0  0  0  0  0  0
   -3.9450   23.7380  -29.7330 C   0  0  0  0  0  0  0  0  0  0  0  0
   -2.8760   23.3860  -28.7730 C   0  0  0  0  0  0  0  0  0  0  0  0
   -3.0060   22.1980  -28.0290 C   0  0  0  0  0  0  0  0  0  0  0  0
   -1.9910   21.7830  -27.1640 C   0  0  0  0  0  0  0  0  0  0  0  0
   -0.8320   22.5450  -27.0300 C   0  0  0  0  0  0  0  0  0  0  0  0
   -0.6930   23.7350  -27.7460 C   0  0  0  0  0  0  0  0  0  0  0  0
   -1.7100   24.1780  -28.6010 C   0  0  0  0  0  0  0  0  0  0  0  0
   -1.5370   25.4130  -29.2280 O   0  0  0  0  0  0  0  0  0  0  0  0
   -5.0820   23.0950  -29.8640 O   0  0  0  0  0  0  0  0  0  0  0  0
   -6.3839   21.1079  -31.6913 H   0  0  0  0  0  0  0  0  0  0  0  0
   -7.5452   21.5071  -33.0024 H   0  0  0  0  0  0  0  0  0  0  0  0
   -5.9045   22.2383  -33.0024 H   0  0  0  0  0  0  0  0  0  0  0  0
   -3.9170   21.5899  -28.1300 H   0  0  0  0  0  0  0  0  0  0  0  0
   -2.1067   20.8533  -26.5876 H   0  0  0  0  0  0  0  0  0  0  0  0
   -0.0269   22.2087  -26.3601 H   0  0  0  0  0  0  0  0  0  0  0  0
    0.2250   24.3312  -27.6376 H   0  0  0  0  0  0  0  0  0  0  0  0
   -1.9970   25.6750  -30.0880 H   0  0  0  0  0  0  0  0  0  0  0  0
  1  2  1  0
  2  3  1  0
  3  4  2  0
  4  5  1  0
  5  6  2  0
  6  7  1  0
  7  8  2  0
  8  9  1  0
  9 10  2  0
 10 11  1  0
 11 12  2  0
 12 13  1  0
  6 14  1  0
 14  3  1  0
 12  7  1  0
  1 15  1  0
  1 16  1  0
  1 17  1  0
  8 18  1  0
  9 19  1  0
 10 20  1  0
 11 21  1  0
 13 22  1  0
M  END
>  <UniqueID>  (47) 
46

>  <SMILES>  (47) 
CSc1nnc(-c2ccccc2O)o1

>  <Energy>  (47) 
57.74624974350246

>  <Genealogy>  (47) 
CSc1nnc(-c2ccccc2O)o1 (3D coordinates assigned)
CSc1nnc(-c2ccccc2O)o1 (optimized conformer: 57.74624974350246 kcal/mol)

>  <smiles>  (47) 
CSc1nnc(-c2ccccc2O)o1

>  <score_type>  (47) 
oracle

>  <origin>  (47) 
adgpu

>  <m_score__min__energy>  (47) 
-6.5999999999999996

>  <m_primary>  (47) 
energy

$$$$
47:0
     RDKit          3D

 38 40  0  0  0  0  0  0  0  0999 V2000
   -4.6410   24.7540  -31.1880 O   0  0  0  0  0  0  0  0  0  0  0  0
   -4.6060   24.1620  -30.0750 C   0  0  0  0  0  0  0  0  0  0  0  0
   -5.7380   23.4000  -29.6230 N   0  0  0  0  0  0  0  0  0  0  0  0
   -6.8000   22.9570  -30.4880 C   0  0  0  0  0  0  0  0  0  0  0  0
   -7.6230   23.8730  -31.1670 C   0  0  0  0  0  0  0  0  0  0  0  0
   -8.6350   23.4160  -32.0160 C   0  0  0  0  0  0  0  0  0  0  0  0
   -8.8260   22.0460  -32.2060 C   0  0  0  0  0  0  0  0  0  0  0  0
   -7.9980   21.1230  -31.5570 C   0  0  0  0  0  0  0  0  0  0  0  0
   -8.2560   19.3980  -31.8050 S   0  0  0  0  0  0  0  0  0  0  0  0
   -9.0890   18.8740  -30.6680 O   0  0  0  0  0  0  0  0  0  0  0  0
   -8.9980   19.1660  -33.0920 O   0  0  0  0  0  0  0  0  0  0  0  0
   -6.7130   18.5720  -31.8370 N   0  0  0  0  0  0  0  0  0  0  0  0
   -5.7420   19.3250  -32.6400 C   0  0  0  0  0  0  0  0  0  0  0  0
   -5.7820   18.7850  -34.0620 C   0  0  0  0  0  0  0  0  0  0  0  0
   -6.4980   17.4510  -33.9720 C   0  0  0  0  0  0  0  0  0  0  0  0
   -6.8420   17.2700  -32.5000 C   0  0  0  0  0  0  0  0  0  0  0  0
   -6.9840   21.5820  -30.7030 C   0  0  0  0  0  0  0  0  0  0  0  0
   -3.4060   24.3030  -29.2340 C   0  0  0  0  0  0  0  0  0  0  0  0
   -2.9900   23.4420  -28.2370 C   0  0  0  0  0  0  0  0  0  0  0  0
   -1.8210   23.9820  -27.7420 C   0  0  0  0  0  0  0  0  0  0  0  0
   -1.5950   25.1350  -28.4660 C   0  0  0  0  0  0  0  0  0  0  0  0
   -2.5560   25.2980  -29.3480 O   0  0  0  0  0  0  0  0  0  0  0  0
   -5.8520   23.2460  -28.5980 H   0  0  0  0  0  0  0  0  0  0  0  0
   -7.4698   24.9536  -31.0295 H   0  0  0  0  0  0  0  0  0  0  0  0
   -9.2825   24.1375  -32.5357 H   0  0  0  0  0  0  0  0  0  0  0  0
   -9.6297   21.6910  -32.8678 H   0  0  0  0  0  0  0  0  0  0  0  0
   -6.0064   20.3928  -32.6394 H   0  0  0  0  0  0  0  0  0  0  0  0
   -4.7320   19.2131  -32.2189 H   0  0  0  0  0  0  0  0  0  0  0  0
   -6.3340   19.4735  -34.7187 H   0  0  0  0  0  0  0  0  0  0  0  0
   -4.7723   18.6771  -34.4849 H   0  0  0  0  0  0  0  0  0  0  0  0
   -7.4136   17.4647  -34.5815 H   0  0  0  0  0  0  0  0  0  0  0  0
   -5.8735   16.6274  -34.3485 H   0  0  0  0  0  0  0  0  0  0  0  0
   -7.8739   16.9021  -32.4010 H   0  0  0  0  0  0  0  0  0  0  0  0
   -6.1628   16.5386  -32.0377 H   0  0  0  0  0  0  0  0  0  0  0  0
   -6.3276   20.8584  -30.1976 H   0  0  0  0  0  0  0  0  0  0  0  0
   -3.4873   22.5182  -27.9066 H   0  0  0  0  0  0  0  0  0  0  0  0
   -1.1954   23.5757  -26.9336 H   0  0  0  0  0  0  0  0  0  0  0  0
   -0.7410   25.8140  -28.3263 H   0  0  0  0  0  0  0  0  0  0  0  0
  1  2  2  0
  2  3  1  0
  3  4  1  0
  4  5  2  0
  5  6  1  0
  6  7  2  0
  7  8  1  0
  8  9  1  0
  9 10  2  0
  9 11  2  0
  9 12  1  0
 12 13  1  0
 13 14  1  0
 14 15  1  0
 15 16  1  0
  8 17  2  0
  2 18  1  0
 18 19  2  0
 19 20  1  0
 20 21  2  0
 21 22  1  0
 17  4  1  0
 22 18  1  0
 16 12  1  0
  3 23  1  0
  5 24  1  0
  6 25  1  0
  7 26  1  0
 13 27  1  0
 13 28  1  0
 14 29  1  0
 14 30  1  0
 15 31  1  0
 15 32  1  0
 16 33  1  0
 16 34  1  0
 17 35  1  0
 19 36  1  0
 20 37  1  0
 21 38  1  0
M  END
>  <UniqueID>  (48) 
47

>  <SMILES>  (48) 
O=C(Nc1cccc(S(=O)(=O)N2CCCC2)c1)c1ccco1

>  <Energy>  (48) 
68.95458997635731

>  <Genealogy>  (48) 
O=C(Nc1cccc(S(=O)(=O)N2CCCC2)c1)c1ccco1 (3D coordinates assigned)
O=C(Nc1cccc(S(=O)(=O)N2CCCC2)c1)c1ccco1 (nonaromatic ring conformer: 68.95458997635731 kcal/mol)

>  <smiles>  (48) 
O=C(Nc1cccc(S(=O)(=O)N2CCCC2)c1)c1ccco1

>  <score_type>  (48) 
oracle

>  <origin>  (48) 
adgpu

>  <m_score__min__energy>  (48) 
-9.1899999999999995

>  <m_primary>  (48) 
energy

$$$$
48:0
     RDKit          3D

 40 42  0  0  1  0  0  0  0  0999 V2000
   -6.7620   25.5460  -29.6370 N   0  0  0  0  0  0  0  0  0  0  0  0
   -5.7460   25.0010  -29.7070 C   0  0  0  0  0  0  0  0  0  0  0  0
   -4.4760   24.3190  -29.8200 C   0  0  0  0  0  0  0  0  0  0  0  0
   -3.5650   24.5230  -28.8040 C   0  0  0  0  0  0  0  0  0  0  0  0
   -2.3170   23.9070  -28.8520 C   0  0  0  0  0  0  0  0  0  0  0  0
   -1.1230   24.1310  -27.5900 S   0  0  0  0  0  0  0  0  0  0  0  0
    0.1760   24.5460  -28.2360 O   0  0  0  0  0  0  0  0  0  0  0  0
   -0.8990   22.7920  -26.9510 O   0  0  0  0  0  0  0  0  0  0  0  0
   -1.5780   25.3370  -26.4680 N   0  0  0  0  0  0  0  0  0  0  0  0
   -0.8460   25.7080  -25.4780 C   0  0  0  0  0  0  0  0  0  0  0  0
   -1.3260   26.6950  -24.6380 C   0  0  0  0  0  0  0  0  0  0  0  0
   -0.5140   27.0710  -23.5840 C   0  0  0  0  0  0  0  0  0  0  0  0
    0.6860   26.4940  -23.3970 N   0  0  0  0  0  0  0  0  0  0  0  0
    1.0970   25.5350  -24.2550 C   0  0  0  0  0  0  0  0  0  0  0  0
    0.3590   25.1200  -25.3010 N   0  0  0  0  0  0  0  0  0  0  0  0
   -2.0250   23.0920  -29.9380 C   0  0  0  0  0  0  0  0  0  0  0  0
   -2.9430   22.8880  -30.9610 C   0  0  0  0  0  0  0  0  0  0  0  0
   -4.1900   23.5010  -30.9180 C   0  0  0  0  0  0  0  0  0  0  0  0
   -5.1120   23.3040  -31.9310 O   0  0  0  0  0  0  0  0  0  0  0  0
   -5.9720   22.2490  -32.0120 C   0  0  0  0  0  0  0  0  0  0  0  0
   -7.3180   22.4920  -31.7930 C   0  0  0  0  0  0  0  0  0  0  0  0
   -8.2690   21.4910  -31.8530 C   0  0  0  0  0  0  0  0  0  0  0  0
   -7.9000   20.1870  -32.1380 C   0  0  0  0  0  0  0  0  0  0  0  0
   -9.1120   18.9300  -32.2120 Cl  0  0  0  0  0  0  0  0  0  0  0  0
   -6.5660   19.9420  -32.3560 C   0  0  0  0  0  0  0  0  0  0  0  0
   -6.1920   18.5210  -32.6630 C   0  0  0  0  0  0  0  0  0  0  0  0
   -4.8210   18.4930  -32.8800 F   0  0  0  0  0  0  0  0  0  0  0  0
   -6.8250   18.0900  -33.8270 F   0  0  0  0  0  0  0  0  0  0  0  0
   -6.5320   17.7530  -31.5900 F   0  0  0  0  0  0  0  0  0  0  0  0
   -5.6230   20.9470  -32.2940 C   0  0  0  0  0  0  0  0  0  0  0  0
   -3.8248   25.1728  -27.9553 H   0  0  0  0  0  0  0  0  0  0  0  0
   -2.3094   27.1603  -24.8006 H   0  0  0  0  0  0  0  0  0  0  0  0
   -0.8543   27.8528  -22.8890 H   0  0  0  0  0  0  0  0  0  0  0  0
    1.2970   26.7810  -22.5990 H   0  0  0  0  0  0  0  0  0  0  0  0
    2.0810   25.0716  -24.0910 H   0  0  0  0  0  0  0  0  0  0  0  0
   -1.0443   22.5965  -29.9895 H   0  0  0  0  0  0  0  0  0  0  0  0
   -2.6817   22.2382  -31.8092 H   0  0  0  0  0  0  0  0  0  0  0  0
   -7.6414   23.5180  -31.5632 H   0  0  0  0  0  0  0  0  0  0  0  0
   -9.3271   21.7319  -31.6730 H   0  0  0  0  0  0  0  0  0  0  0  0
   -4.5658   20.7023  -32.4743 H   0  0  0  0  0  0  0  0  0  0  0  0
  1  2  3  0
  2  3  1  0
  3  4  2  0
  4  5  1  0
  5  6  1  0
  6  7  2  0
  6  8  2  0
  6  9  1  0
  9 10  2  0
 10 11  1  0
 11 12  2  0
 12 13  1  0
 13 14  1  0
 14 15  2  0
  5 16  2  0
 16 17  1  0
 17 18  2  0
 18 19  1  0
 19 20  1  0
 20 21  2  0
 21 22  1  0
 22 23  2  0
 23 24  1  0
 23 25  1  0
 25 26  1  0
 26 27  1  0
 26 28  1  0
 26 29  1  0
 25 30  2  0
 18  3  1  0
 30 20  1  0
 15 10  1  0
  4 31  1  0
 11 32  1  0
 12 33  1  0
 13 34  1  0
 14 35  1  0
 16 36  1  0
 17 37  1  0
 21 38  1  0
 22 39  1  0
 30 40  1  0
M  END
>  <smiles>  (49) 
N#Cc1cc(S(=O)(=O)N=c2cc[nH]cn2)ccc1Oc1ccc(Cl)c(C(F)(F)F)c1

>  <score_type>  (49) 
oracle

>  <origin>  (49) 
adgpu

>  <m_score__min__energy>  (49) 
-9.6199999999999992

>  <m_primary>  (49) 
energy

$$$$
