0:0
     RDKit          3D

 42 45  0  0  0  0  0  0  0  0999 V2000
   -3.1816   23.0401  -26.3742 H   0  0  0  0  0  0  0  0  0  0  0  0
   -3.2860   23.4040  -27.4070 C   0  0  0  0  0  0  0  0  0  0  0  0
   -4.1880   22.6730  -28.6240 S   0  0  0  0  0  0  0  0  0  0  0  0
   -3.7920   23.8490  -29.7660 C   0  0  0  0  0  0  0  0  0  0  0  0
   -4.1490   23.8580  -31.0170 N   0  0  0  0  0  0  0  0  0  0  0  0
   -5.0470   22.9380  -31.6570 C   0  0  0  0  0  0  0  0  0  0  0  0
   -6.4250   23.1150  -31.4910 C   0  0  0  0  0  0  0  0  0  0  0  0
   -6.7961   23.9661  -30.9011 H   0  0  0  0  0  0  0  0  0  0  0  0
   -7.3370   22.2230  -32.0660 C   0  0  0  0  0  0  0  0  0  0  0  0
   -8.7060   22.4640  -31.8830 O   0  0  0  0  0  0  0  0  0  0  0  0
   -9.5970   21.5840  -31.2040 C   0  0  0  0  0  0  0  0  0  0  0  0
   -9.4746   21.7049  -30.1175 H   0  0  0  0  0  0  0  0  0  0  0  0
  -10.6333   21.8228  -31.4851 H   0  0  0  0  0  0  0  0  0  0  0  0
   -9.3711   20.5448  -31.4851 H   0  0  0  0  0  0  0  0  0  0  0  0
   -6.8540   21.1210  -32.7980 C   0  0  0  0  0  0  0  0  0  0  0  0
   -7.5634   20.4198  -33.2618 H   0  0  0  0  0  0  0  0  0  0  0  0
   -5.4690   20.9110  -32.9400 C   0  0  0  0  0  0  0  0  0  0  0  0
   -4.9420   19.8170  -33.6420 O   0  0  0  0  0  0  0  0  0  0  0  0
   -5.7260   18.7840  -34.2310 C   0  0  0  0  0  0  0  0  0  0  0  0
   -6.1871   18.1765  -33.4384 H   0  0  0  0  0  0  0  0  0  0  0  0
   -6.5136   19.2319  -34.8548 H   0  0  0  0  0  0  0  0  0  0  0  0
   -5.0828   18.1459  -34.8548 H   0  0  0  0  0  0  0  0  0  0  0  0
   -4.5760   21.8160  -32.3580 C   0  0  0  0  0  0  0  0  0  0  0  0
   -3.4929   21.6473  -32.4502 H   0  0  0  0  0  0  0  0  0  0  0  0
   -2.9670   24.7820  -29.2500 N   0  0  0  0  0  0  0  0  0  0  0  0
   -2.6920   24.5540  -27.9350 C   0  0  0  0  0  0  0  0  0  0  0  0
   -1.7850   25.4490  -27.1720 C   0  0  0  0  0  0  0  0  0  0  0  0
   -1.7560   25.3670  -25.7720 C   0  0  0  0  0  0  0  0  0  0  0  0
   -2.3959   24.6400  -25.2505 H   0  0  0  0  0  0  0  0  0  0  0  0
   -0.9150   26.2080  -25.0400 C   0  0  0  0  0  0  0  0  0  0  0  0
   -0.8710   26.1640  -23.6390 C   0  0  0  0  0  0  0  0  0  0  0  0
   -1.5067   25.4539  -23.0898 H   0  0  0  0  0  0  0  0  0  0  0  0
   -0.0170   27.0250  -22.9410 C   0  0  0  0  0  0  0  0  0  0  0  0
    0.0195   26.9898  -21.8422 H   0  0  0  0  0  0  0  0  0  0  0  0
    0.7910   27.9310  -23.6380 C   0  0  0  0  0  0  0  0  0  0  0  0
    1.4592   28.6078  -23.0853 H   0  0  0  0  0  0  0  0  0  0  0  0
    0.7510   27.9780  -25.0350 C   0  0  0  0  0  0  0  0  0  0  0  0
    1.3884   28.6902  -25.5796 H   0  0  0  0  0  0  0  0  0  0  0  0
   -0.1000   27.1190  -25.7410 C   0  0  0  0  0  0  0  0  0  0  0  0
   -0.1340   27.1630  -27.0680 O   0  0  0  0  0  0  0  0  0  0  0  0
   -0.9220   26.3770  -27.7980 C   0  0  0  0  0  0  0  0  0  0  0  0
   -0.8640   26.4600  -29.0530 O   0  0  0  0  0  0  0  0  0  0  0  0
  1  2  1  0
  2  3  1  0
  3  4  1  0
  4  5  2  0
  5  6  1  0
  6  7  2  0
  7  8  1  0
  7  9  1  0
  9 10  1  0
 10 11  1  0
 11 12  1  0
 11 13  1  0
 11 14  1  0
  9 15  2  0
 15 16  1  0
 15 17  1  0
 17 18  1  0
 18 19  1  0
 19 20  1  0
 19 21  1  0
 19 22  1  0
 17 23  2  0
 23 24  1  0
  4 25  1  0
 25 26  1  0
 26 27  1  0
 27 28  2  0
 28 29  1  0
 28 30  1  0
 30 31  2  0
 31 32  1  0
 31 33  1  0
 33 34  1  0
 33 35  2  0
 35 36  1  0
 35 37  1  0
 37 38  1  0
 37 39  2  0
 39 40  1  0
 40 41  1  0
 41 42  2  0
 26  2  2  0
 41 27  1  0
 23  6  1  0
 39 30  1  0
M  CHG  1  25  -1
M  END
>  <UniqueID>  (1) 
1

>  <SMILES>  (1) 
COc1cc(/N=c2/[n-]c(-c3cc4ccccc4oc3=O)cs2)cc(OC)c1

>  <Energy>  (1) 
91.46879721822906

>  <Genealogy>  (1) 
COc1cc(N=c2[n-]c(-c3cc4ccccc4oc3=O)cs2)cc(OC)c1 (protonated)
COc1cc(/N=c2/[n-]c(-c3cc4ccccc4oc3=O)cs2)cc(OC)c1 (cis-trans isomerization)
COc1cc(/N=c2/[n-]c(-c3cc4ccccc4oc3=O)cs2)cc(OC)c1 (3D coordinates assigned)
COc1cc(/N=c2/[n-]c(-c3cc4ccccc4oc3=O)cs2)cc(OC)c1 (optimized conformer: 91.46879721822906 kcal/mol)

>  <smiles>  (1) 
COc1cc(N=c2[nH]c(-c3cc4ccccc4oc3=O)cs2)cc(OC)c1

>  <score_type>  (1) 
oracle

>  <origin>  (1) 
adgpu

>  <m_score__min__energy>  (1) 
-9.3499999999999996

>  <m_primary>  (1) 
energy

$$$$
1:0
     RDKit          3D

 49 51  0  0  0  0  0  0  0  0999 V2000
   -4.8620   20.9150  -33.0680 C   0  0  0  0  0  0  0  0  0  0  0  0
   -5.9530   21.4590  -32.1850 C   0  0  0  0  0  0  0  0  0  0  0  0
   -7.0810   20.6580  -31.9450 C   0  0  0  0  0  0  0  0  0  0  0  0
   -8.0970   21.0990  -31.0980 C   0  0  0  0  0  0  0  0  0  0  0  0
   -8.0010   22.3440  -30.4760 C   0  0  0  0  0  0  0  0  0  0  0  0
   -6.8900   23.1690  -30.7100 C   0  0  0  0  0  0  0  0  0  0  0  0
   -6.8130   24.5200  -30.0510 C   0  0  0  0  0  0  0  0  0  0  0  0
   -5.8790   22.7470  -31.5980 C   0  0  0  0  0  0  0  0  0  0  0  0
   -4.7660   23.6190  -31.8440 N   0  0  0  0  0  0  0  0  0  0  0  0
   -3.8560   24.0790  -30.8370 C   0  0  0  0  0  0  0  0  0  0  0  0
   -3.8620   25.2960  -30.5030 O   0  0  0  0  0  0  0  0  0  0  0  0
   -2.9630   23.1520  -30.1830 N   0  0  0  0  0  0  0  0  0  0  0  0
   -3.1150   21.7000  -30.3780 C   0  0  0  0  0  0  0  0  0  0  0  0
   -2.4480   20.9310  -29.2670 C   0  0  0  0  0  0  0  0  0  0  0  0
   -3.0950   20.7620  -28.0320 C   0  0  0  0  0  0  0  0  0  0  0  0
   -2.4960   20.0080  -27.0180 C   0  0  0  0  0  0  0  0  0  0  0  0
   -1.2430   19.4280  -27.2250 C   0  0  0  0  0  0  0  0  0  0  0  0
   -0.5830   19.6050  -28.4450 C   0  0  0  0  0  0  0  0  0  0  0  0
   -1.1790   20.3560  -29.4610 C   0  0  0  0  0  0  0  0  0  0  0  0
   -1.8510   23.6500  -29.3540 C   0  0  0  0  0  0  0  0  0  0  0  0
   -2.3700   24.2500  -28.0720 C   0  0  0  0  0  0  0  0  0  0  0  0
   -3.7180   24.0980  -27.7110 C   0  0  0  0  0  0  0  0  0  0  0  0
   -4.2130   24.7060  -26.5530 C   0  0  0  0  0  0  0  0  0  0  0  0
   -3.3630   25.4630  -25.7420 C   0  0  0  0  0  0  0  0  0  0  0  0
   -2.0160   25.6050  -26.0840 C   0  0  0  0  0  0  0  0  0  0  0  0
   -1.5190   24.9990  -27.2400 C   0  0  0  0  0  0  0  0  0  0  0  0
   -4.0518   20.5110  -32.4432 H   0  0  0  0  0  0  0  0  0  0  0  0
   -5.2692   20.1145  -33.7030 H   0  0  0  0  0  0  0  0  0  0  0  0
   -4.4677   21.7220  -33.7030 H   0  0  0  0  0  0  0  0  0  0  0  0
   -7.1639   19.6739  -32.4295 H   0  0  0  0  0  0  0  0  0  0  0  0
   -8.9768   20.4633  -30.9197 H   0  0  0  0  0  0  0  0  0  0  0  0
   -8.7999   22.6807  -29.7989 H   0  0  0  0  0  0  0  0  0  0  0  0
   -6.8201   24.3958  -28.9581 H   0  0  0  0  0  0  0  0  0  0  0  0
   -5.8846   25.0247  -30.3567 H   0  0  0  0  0  0  0  0  0  0  0  0
   -7.6780   25.1269  -30.3567 H   0  0  0  0  0  0  0  0  0  0  0  0
   -4.1861   21.4500  -30.3954 H   0  0  0  0  0  0  0  0  0  0  0  0
   -2.6381   21.4234  -31.3298 H   0  0  0  0  0  0  0  0  0  0  0  0
   -4.0781   21.2251  -27.8614 H   0  0  0  0  0  0  0  0  0  0  0  0
   -3.0125   19.8717  -26.0564 H   0  0  0  0  0  0  0  0  0  0  0  0
   -0.7748   18.8316  -26.4281 H   0  0  0  0  0  0  0  0  0  0  0  0
    0.4067   19.1523  -28.6049 H   0  0  0  0  0  0  0  0  0  0  0  0
   -0.6536   20.4983  -30.4169 H   0  0  0  0  0  0  0  0  0  0  0  0
   -1.1766   22.8146  -29.1147 H   0  0  0  0  0  0  0  0  0  0  0  0
   -1.3114   24.4270  -29.9154 H   0  0  0  0  0  0  0  0  0  0  0  0
   -4.3888   23.4972  -28.3426 H   0  0  0  0  0  0  0  0  0  0  0  0
   -5.2721   24.5883  -26.2802 H   0  0  0  0  0  0  0  0  0  0  0  0
   -3.7544   25.9467  -24.8349 H   0  0  0  0  0  0  0  0  0  0  0  0
   -1.3457   26.1951  -25.4418 H   0  0  0  0  0  0  0  0  0  0  0  0
   -0.4560   25.1082  -27.5011 H   0  0  0  0  0  0  0  0  0  0  0  0
  1  2  1  0
  2  3  2  0
  3  4  1  0
  4  5  2  0
  5  6  1  0
  6  7  1  0
  6  8  2  0
  8  9  1  0
  9 10  1  0
 10 11  2  0
 10 12  1  0
 12 13  1  0
 13 14  1  0
 14 15  2  0
 15 16  1  0
 16 17  2  0
 17 18  1  0
 18 19  2  0
 12 20  1  0
 20 21  1  0
 21 22  2  0
 22 23  1  0
 23 24  2  0
 24 25  1  0
 25 26  2  0
  8  2  1  0
 19 14  1  0
 26 21  1  0
  1 27  1  0
  1 28  1  0
  1 29  1  0
  3 30  1  0
  4 31  1  0
  5 32  1  0
  7 33  1  0
  7 34  1  0
  7 35  1  0
 13 36  1  0
 13 37  1  0
 15 38  1  0
 16 39  1  0
 17 40  1  0
 18 41  1  0
 19 42  1  0
 20 43  1  0
 20 44  1  0
 22 45  1  0
 23 46  1  0
 24 47  1  0
 25 48  1  0
 26 49  1  0
M  CHG  1   9  -1
M  END
>  <UniqueID>  (2) 
2

>  <SMILES>  (2) 
Cc1cccc(C)c1[N-]C(=O)N(Cc1ccccc1)Cc1ccccc1

>  <Energy>  (2) 
52.92089908846798

>  <Genealogy>  (2) 
Cc1cccc(C)c1[N-]C(=O)N(Cc1ccccc1)Cc1ccccc1 (protonated)
Cc1cccc(C)c1[N-]C(=O)N(Cc1ccccc1)Cc1ccccc1 (3D coordinates assigned)
Cc1cccc(C)c1[N-]C(=O)N(Cc1ccccc1)Cc1ccccc1 (optimized conformer: 52.92089908846798 kcal/mol)

>  <smiles>  (2) 
Cc1cccc(C)c1NC(=O)N(Cc1ccccc1)Cc1ccccc1

>  <score_type>  (2) 
oracle

>  <origin>  (2) 
adgpu

>  <m_score__min__energy>  (2) 
-9.3499999999999996

>  <m_primary>  (2) 
energy

$$$$
2:0
     RDKit          3D

 34 35  0  0  0  0  0  0  0  0999 V2000
   -1.0380   26.3370  -28.0180 C   0  0  0  0  0  0  0  0  0  0  0  0
   -1.8130   25.6110  -28.9670 O   0  0  0  0  0  0  0  0  0  0  0  0
   -1.9720   24.2150  -28.9680 C   0  0  0  0  0  0  0  0  0  0  0  0
   -0.8690   23.3450  -29.0830 C   0  0  0  0  0  0  0  0  0  0  0  0
   -1.0560   21.9620  -29.0890 C   0  0  0  0  0  0  0  0  0  0  0  0
   -2.3390   21.4310  -28.9750 C   0  0  0  0  0  0  0  0  0  0  0  0
   -3.4410   22.2790  -28.8580 C   0  0  0  0  0  0  0  0  0  0  0  0
   -3.2720   23.6780  -28.8590 C   0  0  0  0  0  0  0  0  0  0  0  0
   -4.4040   24.5630  -28.7420 N   0  0  0  0  0  0  0  0  0  0  0  0
   -5.4290   24.9980  -30.0740 S   0  0  0  0  0  0  0  0  0  0  0  0
   -6.4500   25.9960  -29.6030 O   0  0  0  0  0  0  0  0  0  0  0  0
   -4.5960   25.6230  -31.1570 O   0  0  0  0  0  0  0  0  0  0  0  0
   -6.2120   23.5620  -30.7240 C   0  0  0  0  0  0  0  0  0  0  0  0
   -7.3710   23.0500  -30.1240 C   0  0  0  0  0  0  0  0  0  0  0  0
   -7.9810   21.9010  -30.6390 C   0  0  0  0  0  0  0  0  0  0  0  0
   -7.4320   21.2470  -31.7520 C   0  0  0  0  0  0  0  0  0  0  0  0
   -8.1070   20.0380  -32.3260 C   0  0  0  0  0  0  0  0  0  0  0  0
   -6.2850   21.7760  -32.3650 C   0  0  0  0  0  0  0  0  0  0  0  0
   -5.6770   22.9240  -31.8500 C   0  0  0  0  0  0  0  0  0  0  0  0
   -1.3428   26.0515  -27.0004 H   0  0  0  0  0  0  0  0  0  0  0  0
    0.0277   26.1047  -28.1603 H   0  0  0  0  0  0  0  0  0  0  0  0
   -1.2003   27.4156  -28.1603 H   0  0  0  0  0  0  0  0  0  0  0  0
    0.1465   23.7591  -29.1686 H   0  0  0  0  0  0  0  0  0  0  0  0
   -0.1898   21.2907  -29.1838 H   0  0  0  0  0  0  0  0  0  0  0  0
   -2.4836   20.3406  -28.9772 H   0  0  0  0  0  0  0  0  0  0  0  0
   -4.4503   21.8517  -28.7642 H   0  0  0  0  0  0  0  0  0  0  0  0
   -4.5810   25.0580  -27.8400 H   0  0  0  0  0  0  0  0  0  0  0  0
   -7.8020   23.5530  -29.2458 H   0  0  0  0  0  0  0  0  0  0  0  0
   -8.8950   21.5088  -30.1691 H   0  0  0  0  0  0  0  0  0  0  0  0
   -8.4657   19.3955  -31.5084 H   0  0  0  0  0  0  0  0  0  0  0  0
   -8.9595   20.3535  -32.9454 H   0  0  0  0  0  0  0  0  0  0  0  0
   -7.3911   19.4778  -32.9454 H   0  0  0  0  0  0  0  0  0  0  0  0
   -5.8632   21.2848  -33.2543 H   0  0  0  0  0  0  0  0  0  0  0  0
   -4.7742   23.3283  -32.3312 H   0  0  0  0  0  0  0  0  0  0  0  0
  1  2  1  0
  2  3  1  0
  3  4  2  0
  4  5  1  0
  5  6  2  0
  6  7  1  0
  7  8  2  0
  8  9  1  0
  9 10  1  0
 10 11  2  0
 10 12  2  0
 10 13  1  0
 13 14  2  0
 14 15  1  0
 15 16  2  0
 16 17  1  0
 16 18  1  0
 18 19  2  0
  8  3  1  0
 19 13  1  0
  1 20  1  0
  1 21  1  0
  1 22  1  0
  4 23  1  0
  5 24  1  0
  6 25  1  0
  7 26  1  0
  9 27  1  0
 14 28  1  0
 15 29  1  0
 17 30  1  0
 17 31  1  0
 17 32  1  0
 18 33  1  0
 19 34  1  0
M  END
>  <UniqueID>  (3) 
3

>  <SMILES>  (3) 
COc1ccccc1NS(=O)(=O)c1ccc(C)cc1

>  <Energy>  (3) 
36.3577046909866

>  <Genealogy>  (3) 
COc1ccccc1NS(=O)(=O)c1ccc(C)cc1 (3D coordinates assigned)
COc1ccccc1NS(=O)(=O)c1ccc(C)cc1 (optimized conformer: 36.3577046909866 kcal/mol)

>  <smiles>  (3) 
COc1ccccc1NS(=O)(=O)c1ccc(C)cc1

>  <score_type>  (3) 
oracle

>  <origin>  (3) 
adgpu

>  <m_score__min__energy>  (3) 
-8.3599999999999994

>  <m_primary>  (3) 
energy

$$$$
3:0
     RDKit          3D

 28 30  0  0  0  0  0  0  0  0999 V2000
   -3.9530   25.3650  -30.5340 O   0  0  0  0  0  0  0  0  0  0  0  0
   -3.1170   24.6670  -29.9020 C   0  0  0  0  0  0  0  0  0  0  0  0
   -2.0150   25.2900  -29.3260 O   0  0  0  0  0  0  0  0  0  0  0  0
   -3.2700   23.1940  -29.8470 C   0  0  0  0  0  0  0  0  0  0  0  0
   -4.0250   22.5730  -30.8560 C   0  0  0  0  0  0  0  0  0  0  0  0
   -4.1420   21.1750  -30.8990 C   0  0  0  0  0  0  0  0  0  0  0  0
   -4.9170   20.4880  -31.9650 C   0  0  0  0  0  0  0  0  0  0  0  0
   -6.2910   20.7450  -32.1080 C   0  0  0  0  0  0  0  0  0  0  0  0
   -7.0160   20.1040  -33.1150 C   0  0  0  0  0  0  0  0  0  0  0  0
   -6.3930   19.2440  -33.9620 N   0  0  0  0  0  0  0  0  0  0  0  0
   -5.0640   18.9820  -33.8600 C   0  0  0  0  0  0  0  0  0  0  0  0
   -4.3020   19.5990  -32.8650 C   0  0  0  0  0  0  0  0  0  0  0  0
   -3.5080   20.4280  -29.9560 N   0  0  0  0  0  0  0  0  0  0  0  0
   -2.7840   20.9830  -28.9500 C   0  0  0  0  0  0  0  0  0  0  0  0
   -2.1810   20.1500  -28.0010 C   0  0  0  0  0  0  0  0  0  0  0  0
   -1.4670   20.7000  -26.9360 C   0  0  0  0  0  0  0  0  0  0  0  0
   -1.3640   22.0870  -26.8050 C   0  0  0  0  0  0  0  0  0  0  0  0
   -0.4180   22.8340  -25.3230 Br  0  0  0  0  0  0  0  0  0  0  0  0
   -1.9600   22.9300  -27.7500 C   0  0  0  0  0  0  0  0  0  0  0  0
   -2.6580   22.3910  -28.8520 C   0  0  0  0  0  0  0  0  0  0  0  0
   -4.5280   23.1868  -31.6177 H   0  0  0  0  0  0  0  0  0  0  0  0
   -6.7941   21.4490  -31.4288 H   0  0  0  0  0  0  0  0  0  0  0  0
   -8.0938   20.2960  -33.2225 H   0  0  0  0  0  0  0  0  0  0  0  0
   -4.5869   18.2826  -34.5623 H   0  0  0  0  0  0  0  0  0  0  0  0
   -3.2249   19.3904  -32.7856 H   0  0  0  0  0  0  0  0  0  0  0  0
   -2.2702   19.0577  -28.0950 H   0  0  0  0  0  0  0  0  0  0  0  0
   -0.9848   20.0410  -26.1989 H   0  0  0  0  0  0  0  0  0  0  0  0
   -1.8838   24.0211  -27.6330 H   0  0  0  0  0  0  0  0  0  0  0  0
  1  2  2  0
  2  3  1  0
  2  4  1  0
  4  5  2  0
  5  6  1  0
  6  7  1  0
  7  8  2  0
  8  9  1  0
  9 10  2  0
 10 11  1  0
 11 12  2  0
  6 13  2  0
 13 14  1  0
 14 15  2  0
 15 16  1  0
 16 17  2  0
 17 18  1  0
 17 19  1  0
 19 20  2  0
 20  4  1  0
 12  7  1  0
 20 14  1  0
  5 21  1  0
  8 22  1  0
  9 23  1  0
 11 24  1  0
 12 25  1  0
 15 26  1  0
 16 27  1  0
 19 28  1  0
M  CHG  1   3  -1
M  END
>  <UniqueID>  (4) 
4

>  <SMILES>  (4) 
O=C([O-])c1cc(-c2ccncc2)nc2ccc(Br)cc12

>  <Energy>  (4) 
45.84679360838761

>  <Genealogy>  (4) 
O=C([O-])c1cc(-c2ccncc2)nc2ccc(Br)cc12 (protonated)
O=C([O-])c1cc(-c2ccncc2)nc2ccc(Br)cc12 (3D coordinates assigned)
O=C([O-])c1cc(-c2ccncc2)nc2ccc(Br)cc12 (optimized conformer: 45.84679360838761 kcal/mol)

>  <smiles>  (4) 
O=C(O)c1cc(-c2ccncc2)nc2ccc(Br)cc12

>  <score_type>  (4) 
oracle

>  <origin>  (4) 
adgpu

>  <m_score__min__energy>  (4) 
-9.4700000000000006

>  <m_primary>  (4) 
energy

$$$$
4:0
     RDKit          3D

 47 49  0  0  0  0  0  0  0  0999 V2000
   -0.1400   19.9410  -30.4560 C   0  0  0  0  0  0  0  0  0  0  0  0
   -1.0150   20.6530  -29.4660 C   0  0  0  0  0  0  0  0  0  0  0  0
   -1.9320   19.9320  -28.6810 C   0  0  0  0  0  0  0  0  0  0  0  0
   -2.7140   20.5970  -27.7260 C   0  0  0  0  0  0  0  0  0  0  0  0
   -2.5890   21.9810  -27.5500 C   0  0  0  0  0  0  0  0  0  0  0  0
   -1.6680   22.7090  -28.3210 C   0  0  0  0  0  0  0  0  0  0  0  0
   -1.5470   24.4630  -28.1410 S   0  0  0  0  0  0  0  0  0  0  0  0
   -0.1100   24.9060  -28.2220 O   0  0  0  0  0  0  0  0  0  0  0  0
   -2.0800   24.8480  -26.7860 O   0  0  0  0  0  0  0  0  0  0  0  0
   -2.4620   25.2920  -29.3580 N   0  0  0  0  0  0  0  0  0  0  0  0
   -3.5530   24.7210  -30.0930 C   0  0  0  0  0  0  0  0  0  0  0  0
   -4.8250   25.3190  -30.1160 C   0  0  0  0  0  0  0  0  0  0  0  0
   -5.8570   24.7410  -30.8600 C   0  0  0  0  0  0  0  0  0  0  0  0
   -5.6460   23.5430  -31.5590 C   0  0  0  0  0  0  0  0  0  0  0  0
   -6.6870   22.9750  -32.2900 O   0  0  0  0  0  0  0  0  0  0  0  0
   -4.3850   22.9200  -31.5150 C   0  0  0  0  0  0  0  0  0  0  0  0
   -4.1260   21.3690  -32.3130 S   0  0  0  0  0  0  0  0  0  0  0  0
   -2.9470   21.4960  -33.2390 O   0  0  0  0  0  0  0  0  0  0  0  0
   -3.8630   20.3060  -31.2840 O   0  0  0  0  0  0  0  0  0  0  0  0
   -5.5280   20.9440  -33.2430 N   0  0  0  0  0  0  0  0  0  0  0  0
   -6.5510   20.0220  -32.8350 C   0  0  0  0  0  0  0  0  0  0  0  0
   -7.7770   20.4740  -32.3110 C   0  0  0  0  0  0  0  0  0  0  0  0
   -8.7340   19.5630  -31.8620 C   0  0  0  0  0  0  0  0  0  0  0  0
   -8.4870   18.1930  -31.9390 C   0  0  0  0  0  0  0  0  0  0  0  0
   -7.2910   17.7270  -32.4880 C   0  0  0  0  0  0  0  0  0  0  0  0
   -6.3160   18.6330  -32.9390 C   0  0  0  0  0  0  0  0  0  0  0  0
   -5.0500   18.1140  -33.5610 C   0  0  0  0  0  0  0  0  0  0  0  0
   -3.3400   23.5310  -30.8000 C   0  0  0  0  0  0  0  0  0  0  0  0
   -0.8780   22.0410  -29.2720 C   0  0  0  0  0  0  0  0  0  0  0  0
    0.6044   19.3353  -29.9184 H   0  0  0  0  0  0  0  0  0  0  0  0
   -0.7584   19.2863  -31.0876 H   0  0  0  0  0  0  0  0  0  0  0  0
    0.3753   20.6796  -31.0876 H   0  0  0  0  0  0  0  0  0  0  0  0
   -2.0360   18.8453  -28.8162 H   0  0  0  0  0  0  0  0  0  0  0  0
   -3.4289   20.0293  -27.1122 H   0  0  0  0  0  0  0  0  0  0  0  0
   -3.2132   22.4986  -26.8067 H   0  0  0  0  0  0  0  0  0  0  0  0
   -5.0081   26.2429  -29.5477 H   0  0  0  0  0  0  0  0  0  0  0  0
   -6.8421   25.2289  -30.8979 H   0  0  0  0  0  0  0  0  0  0  0  0
   -6.5100   22.4310  -33.1310 H   0  0  0  0  0  0  0  0  0  0  0  0
   -7.9821   21.5533  -32.2551 H   0  0  0  0  0  0  0  0  0  0  0  0
   -9.6854   19.9266  -31.4464 H   0  0  0  0  0  0  0  0  0  0  0  0
   -9.2356   17.4782  -31.5666 H   0  0  0  0  0  0  0  0  0  0  0  0
   -7.1108   16.6448  -32.5680 H   0  0  0  0  0  0  0  0  0  0  0  0
   -4.3440   17.8246  -32.7686 H   0  0  0  0  0  0  0  0  0  0  0  0
   -5.2804   17.2378  -34.1848 H   0  0  0  0  0  0  0  0  0  0  0  0
   -4.5990   18.8998  -34.1848 H   0  0  0  0  0  0  0  0  0  0  0  0
   -2.3420   23.0683  -30.7958 H   0  0  0  0  0  0  0  0  0  0  0  0
   -0.1474   22.6064  -29.8691 H   0  0  0  0  0  0  0  0  0  0  0  0
  1  2  1  0
  2  3  2  0
  3  4  1  0
  4  5  2  0
  5  6  1  0
  6  7  1  0
  7  8  2  0
  7  9  2  0
  7 10  1  0
 10 11  1  0
 11 12  2  0
 12 13  1  0
 13 14  2  0
 14 15  1  0
 14 16  1  0
 16 17  1  0
 17 18  2  0
 17 19  2  0
 17 20  1  0
 20 21  1  0
 21 22  2  0
 22 23  1  0
 23 24  2  0
 24 25  1  0
 25 26  2  0
 26 27  1  0
 16 28  2  0
  6 29  2  0
 29  2  1  0
 28 11  1  0
 26 21  1  0
  1 30  1  0
  1 31  1  0
  1 32  1  0
  3 33  1  0
  4 34  1  0
  5 35  1  0
 12 36  1  0
 13 37  1  0
 15 38  1  0
 22 39  1  0
 23 40  1  0
 24 41  1  0
 25 42  1  0
 27 43  1  0
 27 44  1  0
 27 45  1  0
 28 46  1  0
 29 47  1  0
M  CHG  2  10  -1  20  -1
M  END
>  <UniqueID>  (5) 
5

>  <SMILES>  (5) 
Cc1cccc(S(=O)(=O)[N-]c2ccc(O)c(S(=O)(=O)[N-]c3ccccc3C)c2)c1

>  <Energy>  (5) 
58.906917621187446

>  <Genealogy>  (5) 
Cc1cccc(S(=O)(=O)[N-]c2ccc(O)c(S(=O)(=O)[N-]c3ccccc3C)c2)c1 (protonated)
Cc1cccc(S(=O)(=O)[N-]c2ccc(O)c(S(=O)(=O)[N-]c3ccccc3C)c2)c1 (3D coordinates assigned)
Cc1cccc(S(=O)(=O)[N-]c2ccc(O)c(S(=O)(=O)[N-]c3ccccc3C)c2)c1 (optimized conformer: 58.906917621187446 kcal/mol)

>  <smiles>  (5) 
Cc1cccc(S(=O)(=O)Nc2ccc(O)c(S(=O)(=O)Nc3ccccc3C)c2)c1

>  <score_type>  (5) 
oracle

>  <origin>  (5) 
adgpu

>  <m_score__min__energy>  (5) 
-10.720000000000001

>  <m_primary>  (5) 
energy

$$$$
5:0
     RDKit          3D

 61 64  0  0  1  0  0  0  0  0999 V2000
    0.5110   23.6200  -24.5150 C   0  0  0  0  0  0  0  0  0  0  0  0
    1.2800   24.8530  -24.8890 C   0  0  0  0  0  0  0  0  0  0  0  0
    1.2140   25.1830  -26.2430 O   0  0  0  0  0  0  0  0  0  0  0  0
    0.3380   24.6130  -27.1280 C   0  0  0  0  0  0  0  0  0  0  0  0
    0.5990   23.5320  -27.9290 C   0  0  0  0  0  0  0  0  0  0  0  0
   -0.3670   23.0270  -28.8010 C   0  0  0  0  0  0  0  0  0  0  0  0
   -0.1290   21.9660  -29.5960 N   0  0  0  0  0  0  0  0  0  0  0  0
   -1.1040   21.5100  -30.4290 C   0  0  0  0  0  0  0  0  0  0  0  0
   -2.3180   22.0870  -30.4920 N   0  0  0  0  0  0  0  0  0  0  0  0
   -2.6130   23.1600  -29.7130 C   0  0  0  0  0  0  0  0  0  0  0  0
   -3.7760   23.7270  -29.7600 N   0  0  0  0  0  0  0  0  0  0  0  0
   -4.7990   23.2540  -30.6290 C   0  0  0  0  0  0  0  0  0  0  0  0
   -4.8790   21.9270  -30.9830 C   0  0  0  0  0  0  0  0  0  0  0  0
   -5.8750   21.4810  -31.8260 C   0  0  0  0  0  0  0  0  0  0  0  0
   -6.0160   20.1000  -32.2360 C   0  0  0  0  0  0  0  0  0  0  0  0
   -7.0800   19.4410  -31.9820 O   0  0  0  0  0  0  0  0  0  0  0  0
   -5.0070   19.3830  -32.9370 N   0  0  0  0  0  0  0  0  0  0  0  0
   -5.2850   18.0290  -33.2770 C   0  0  0  0  0  0  0  0  0  0  0  0
   -4.4720   17.0660  -32.7080 C   0  0  0  0  0  0  0  0  0  0  0  0
   -4.7060   15.7400  -33.0120 C   0  0  0  0  0  0  0  0  0  0  0  0
   -5.7230   15.3340  -33.8630 C   0  0  0  0  0  0  0  0  0  0  0  0
   -5.9550   13.5940  -34.2000 S   0  0  0  0  0  0  0  0  0  0  0  0
   -7.5760   13.2450  -34.9260 C   0  0  0  0  0  0  0  0  0  0  0  0
   -8.4520   12.9840  -33.8740 F   0  0  0  0  0  0  0  0  0  0  0  0
   -7.4290   12.1490  -35.7420 F   0  0  0  0  0  0  0  0  0  0  0  0
   -7.9870   14.3650  -35.6230 F   0  0  0  0  0  0  0  0  0  0  0  0
   -6.5190   16.3160  -34.4180 C   0  0  0  0  0  0  0  0  0  0  0  0
   -6.3120   17.6680  -34.1330 C   0  0  0  0  0  0  0  0  0  0  0  0
   -6.7720   22.4100  -32.2910 C   0  0  0  0  0  0  0  0  0  0  0  0
   -6.7200   23.7340  -31.9590 C   0  0  0  0  0  0  0  0  0  0  0  0
   -5.7170   24.1800  -31.1100 C   0  0  0  0  0  0  0  0  0  0  0  0
   -5.6330   25.5030  -30.7540 F   0  0  0  0  0  0  0  0  0  0  0  0
   -1.6170   23.6040  -28.8790 C   0  0  0  0  0  0  0  0  0  0  0  0
   -1.8960   24.6920  -28.0790 C   0  0  0  0  0  0  0  0  0  0  0  0
   -0.9280   25.1770  -27.2250 C   0  0  0  0  0  0  0  0  0  0  0  0
   -1.2640   26.3020  -26.4200 N   0  0  0  0  0  0  0  0  0  0  0  0
   -0.8060   27.6490  -26.7210 C   0  0  0  0  0  0  0  0  0  0  0  0
   -2.1060   26.1250  -25.2320 C   0  0  0  0  0  0  0  0  0  0  0  0
    0.4599   23.5380  -23.4192 H   0  0  0  0  0  0  0  0  0  0  0  0
   -0.5074   23.6843  -24.9258 H   0  0  0  0  0  0  0  0  0  0  0  0
    1.0168   22.7337  -24.9258 H   0  0  0  0  0  0  0  0  0  0  0  0
    0.8799   25.6976  -24.3088 H   0  0  0  0  0  0  0  0  0  0  0  0
    2.3369   24.6440  -24.6672 H   0  0  0  0  0  0  0  0  0  0  0  0
    1.5883   23.0533  -27.8839 H   0  0  0  0  0  0  0  0  0  0  0  0
    0.7910   21.4970  -29.5770 H   0  0  0  0  0  0  0  0  0  0  0  0
   -0.8929   20.6422  -31.0711 H   0  0  0  0  0  0  0  0  0  0  0  0
   -4.1401   21.2136  -30.5891 H   0  0  0  0  0  0  0  0  0  0  0  0
   -4.1060   19.8560  -33.1810 H   0  0  0  0  0  0  0  0  0  0  0  0
   -3.6560   17.3506  -32.0275 H   0  0  0  0  0  0  0  0  0  0  0  0
   -4.0589   14.9735  -32.5605 H   0  0  0  0  0  0  0  0  0  0  0  0
   -7.3334   16.0279  -35.0990 H   0  0  0  0  0  0  0  0  0  0  0  0
   -6.9572   18.4367  -34.5833 H   0  0  0  0  0  0  0  0  0  0  0  0
   -7.5729   22.0714  -32.9648 H   0  0  0  0  0  0  0  0  0  0  0  0
   -7.4641   24.4381  -32.3597 H   0  0  0  0  0  0  0  0  0  0  0  0
   -2.8855   25.1705  -28.1219 H   0  0  0  0  0  0  0  0  0  0  0  0
   -0.6214   28.1919  -25.7823 H   0  0  0  0  0  0  0  0  0  0  0  0
    0.1253   27.5979  -27.3042 H   0  0  0  0  0  0  0  0  0  0  0  0
   -1.5754   28.1761  -27.3042 H   0  0  0  0  0  0  0  0  0  0  0  0
   -1.4945   26.2535  -24.3267 H   0  0  0  0  0  0  0  0  0  0  0  0
   -2.9122   26.8733  -25.2392 H   0  0  0  0  0  0  0  0  0  0  0  0
   -2.5427   25.1154  -25.2392 H   0  0  0  0  0  0  0  0  0  0  0  0
  1  2  1  0
  2  3  1  0
  3  4  1  0
  4  5  2  0
  5  6  1  0
  6  7  1  0
  7  8  1  0
  8  9  2  0
  9 10  1  0
 10 11  2  0
 11 12  1  0
 12 13  2  0
 13 14  1  0
 14 15  1  0
 15 16  2  0
 15 17  1  0
 17 18  1  0
 18 19  2  0
 19 20  1  0
 20 21  2  0
 21 22  1  0
 22 23  1  0
 23 24  1  0
 23 25  1  0
 23 26  1  0
 21 27  1  0
 27 28  2  0
 14 29  2  0
 29 30  1  0
 30 31  2  0
 31 32  1  0
 10 33  1  0
 33 34  1  0
 34 35  2  0
 35 36  1  0
 36 37  1  0
 36 38  1  0
 35  4  1  0
 33  6  2  0
 31 12  1  0
 28 18  1  0
  1 39  1  0
  1 40  1  0
  1 41  1  0
  2 42  1  0
  2 43  1  0
  5 44  1  0
  7 45  1  0
  8 46  1  0
 13 47  1  0
 17 48  1  0
 19 49  1  0
 20 50  1  0
 27 51  1  0
 28 52  1  0
 29 53  1  0
 30 54  1  0
 34 55  1  0
 37 56  1  0
 37 57  1  0
 37 58  1  0
 38 59  1  0
 38 60  1  0
 38 61  1  0
M  END
>  <smiles>  (6) 
CCOc1cc2[nH]cnc(=Nc3cc(C(=O)Nc4ccc(SC(F)(F)F)cc4)ccc3F)c2cc1N(C)C

>  <score_type>  (6) 
oracle

>  <origin>  (6) 
adgpu

>  <m_score__min__energy>  (6) 
-8.7899999999999991

>  <m_primary>  (6) 
energy

$$$$
6:0
     RDKit          3D

 35 37  0  0  1  0  0  0  0  0999 V2000
   -1.1470   22.9560  -29.8990 O   0  0  0  0  0  0  0  0  0  0  0  0
   -1.7150   23.8310  -29.3570 C   0  0  0  0  0  0  0  0  0  0  0  0
   -2.8140   24.6380  -29.5800 N   0  0  0  0  0  0  0  0  0  0  0  0
   -3.9840   24.4750  -29.9690 C   0  0  0  0  0  0  0  0  0  0  0  0
   -4.4730   23.2160  -30.3130 C   0  0  0  0  0  0  0  0  0  0  0  0
   -5.7430   23.2610  -30.6910 C   0  0  0  0  0  0  0  0  0  0  0  0
   -6.6920   22.2530  -31.1490 C   0  0  0  0  0  0  0  0  0  0  0  0
   -8.0610   22.3930  -30.9230 C   0  0  0  0  0  0  0  0  0  0  0  0
   -8.9110   21.3950  -31.3930 C   0  0  0  0  0  0  0  0  0  0  0  0
   -8.4280   20.2800  -32.0760 C   0  0  0  0  0  0  0  0  0  0  0  0
   -9.4920   19.0340  -32.7020 Cl  0  0  0  0  0  0  0  0  0  0  0  0
   -7.0580   20.1540  -32.2950 C   0  0  0  0  0  0  0  0  0  0  0  0
   -6.2580   21.1470  -31.8200 C   0  0  0  0  0  0  0  0  0  0  0  0
   -6.0910   24.6270  -30.5890 N   0  0  0  0  0  0  0  0  0  0  0  0
   -5.0110   25.2860  -30.1580 N   0  0  0  0  0  0  0  0  0  0  0  0
   -1.1050   24.2540  -27.9940 C   0  0  0  0  0  0  0  0  0  0  0  0
   -0.8740   23.3110  -27.0520 C   0  0  0  0  0  0  0  0  0  0  0  0
   -0.4530   23.8220  -25.7990 C   0  0  0  0  0  0  0  0  0  0  0  0
   -0.2970   25.1610  -25.5940 C   0  0  0  0  0  0  0  0  0  0  0  0
    0.1120   25.7170  -24.3570 O   0  0  0  0  0  0  0  0  0  0  0  0
   -0.5320   26.1250  -26.5830 C   0  0  0  0  0  0  0  0  0  0  0  0
   -0.9460   25.6290  -27.8000 C   0  0  0  0  0  0  0  0  0  0  0  0
   -1.2110   26.4750  -28.8890 O   0  0  0  0  0  0  0  0  0  0  0  0
   -3.8754   22.2933  -30.2753 H   0  0  0  0  0  0  0  0  0  0  0  0
   -8.4587   23.2680  -30.3880 H   0  0  0  0  0  0  0  0  0  0  0  0
   -9.9933   21.4892  -31.2205 H   0  0  0  0  0  0  0  0  0  0  0  0
   -6.6404   19.2880  -32.8295 H   0  0  0  0  0  0  0  0  0  0  0  0
   -5.1756   21.0504  -31.9905 H   0  0  0  0  0  0  0  0  0  0  0  0
   -7.0140   25.0300  -30.8060 H   0  0  0  0  0  0  0  0  0  0  0  0
   -5.0030   26.3150  -29.9950 H   0  0  0  0  0  0  0  0  0  0  0  0
   -1.0025   22.2354  -27.2430 H   0  0  0  0  0  0  0  0  0  0  0  0
   -0.2477   23.1236  -24.9743 H   0  0  0  0  0  0  0  0  0  0  0  0
    0.3610   25.0010  -23.6220 H   0  0  0  0  0  0  0  0  0  0  0  0
   -0.3957   27.2012  -26.4009 H   0  0  0  0  0  0  0  0  0  0  0  0
   -1.6340   26.0600  -29.7440 H   0  0  0  0  0  0  0  0  0  0  0  0
  1  2  2  0
  2  3  1  0
  3  4  2  0
  4  5  1  0
  5  6  2  0
  6  7  1  0
  7  8  2  0
  8  9  1  0
  9 10  2  0
 10 11  1  0
 10 12  1  0
 12 13  2  0
  6 14  1  0
 14 15  1  0
  2 16  1  0
 16 17  2  0
 17 18  1  0
 18 19  2  0
 19 20  1  0
 19 21  1  0
 21 22  2  0
 22 23  1  0
 15  4  1  0
 22 16  1  0
 13  7  1  0
  5 24  1  0
  8 25  1  0
  9 26  1  0
 12 27  1  0
 13 28  1  0
 14 29  1  0
 15 30  1  0
 17 31  1  0
 18 32  1  0
 20 33  1  0
 21 34  1  0
 23 35  1  0
M  END
>  <smiles>  (7) 
O=C(N=c1cc(-c2ccc(Cl)cc2)[nH][nH]1)c1ccc(O)cc1O

>  <score_type>  (7) 
oracle

>  <origin>  (7) 
adgpu

>  <m_score__min__energy>  (7) 
-9

>  <m_primary>  (7) 
energy

$$$$
7:0
     RDKit          3D

 39 41  0  0  0  0  0  0  0  0999 V2000
   -6.3402   25.8021  -29.7897 H   0  0  0  0  0  0  0  0  0  0  0  0
   -6.1520   24.7590  -30.0840 C   0  0  0  0  0  0  0  0  0  0  0  0
   -7.0760   24.1570  -30.8510 C   0  0  0  0  0  0  0  0  0  0  0  0
   -8.0252   24.6889  -31.0125 H   0  0  0  0  0  0  0  0  0  0  0  0
   -6.9170   22.8320  -31.4970 C   0  0  0  0  0  0  0  0  0  0  0  0
   -5.7110   22.4600  -31.9970 N   0  0  0  0  0  0  0  0  0  0  0  0
   -5.5410   21.2720  -32.6220 C   0  0  0  0  0  0  0  0  0  0  0  0
   -4.2960   20.8970  -33.1270 C   0  0  0  0  0  0  0  0  0  0  0  0
   -3.4291   21.5646  -33.0132 H   0  0  0  0  0  0  0  0  0  0  0  0
   -4.1600   19.7030  -33.7600 N   0  0  0  0  0  0  0  0  0  0  0  0
   -5.2200   18.8660  -33.9100 C   0  0  0  0  0  0  0  0  0  0  0  0
   -5.0140   17.3030  -34.7550 S   0  0  0  0  0  0  0  0  0  0  0  0
   -6.4520   16.5440  -33.9400 C   0  0  0  0  0  0  0  0  0  0  0  0
   -6.3309   16.6079  -32.8486 H   0  0  0  0  0  0  0  0  0  0  0  0
   -7.3666   17.0768  -34.2393 H   0  0  0  0  0  0  0  0  0  0  0  0
   -6.5281   15.4882  -34.2393 H   0  0  0  0  0  0  0  0  0  0  0  0
   -6.4400   19.2140  -33.4200 N   0  0  0  0  0  0  0  0  0  0  0  0
   -6.6300   20.3990  -32.7750 C   0  0  0  0  0  0  0  0  0  0  0  0
   -7.8620   20.7550  -32.2850 N   0  0  0  0  0  0  0  0  0  0  0  0
   -9.0220   19.8590  -32.4700 C   0  0  0  0  0  0  0  0  0  0  0  0
   -9.0818   19.5570  -33.5260 H   0  0  0  0  0  0  0  0  0  0  0  0
   -9.9369   20.3951  -32.1775 H   0  0  0  0  0  0  0  0  0  0  0  0
   -8.8780   18.6150  -31.5990 C   0  0  0  0  0  0  0  0  0  0  0  0
   -8.9115   18.9042  -30.5382 H   0  0  0  0  0  0  0  0  0  0  0  0
   -9.7015   17.9186  -31.8153 H   0  0  0  0  0  0  0  0  0  0  0  0
   -7.9172   18.1251  -31.8153 H   0  0  0  0  0  0  0  0  0  0  0  0
   -8.0220   21.9730  -31.6650 C   0  0  0  0  0  0  0  0  0  0  0  0
   -9.1580   22.3270  -31.2380 O   0  0  0  0  0  0  0  0  0  0  0  0
   -4.9030   24.1320  -29.6040 C   0  0  0  0  0  0  0  0  0  0  0  0
   -3.6470   24.5370  -30.0930 C   0  0  0  0  0  0  0  0  0  0  0  0
   -3.5827   25.3465  -30.8350 H   0  0  0  0  0  0  0  0  0  0  0  0
   -2.4810   23.9140  -29.6390 C   0  0  0  0  0  0  0  0  0  0  0  0
   -1.5006   24.2469  -30.0105 H   0  0  0  0  0  0  0  0  0  0  0  0
   -2.5580   22.8690  -28.7140 C   0  0  0  0  0  0  0  0  0  0  0  0
   -0.9630   22.0200  -28.0950 Br  0  0  0  0  0  0  0  0  0  0  0  0
   -3.8050   22.4390  -28.2500 C   0  0  0  0  0  0  0  0  0  0  0  0
   -3.8669   21.6096  -27.5301 H   0  0  0  0  0  0  0  0  0  0  0  0
   -4.9740   23.0620  -28.7000 C   0  0  0  0  0  0  0  0  0  0  0  0
   -5.9535   22.7110  -28.3431 H   0  0  0  0  0  0  0  0  0  0  0  0
  1  2  1  0
  2  3  2  0
  3  4  1  0
  3  5  1  0
  5  6  2  0
  6  7  1  0
  7  8  2  0
  8  9  1  0
  8 10  1  0
 10 11  2  0
 11 12  1  0
 12 13  1  0
 13 14  1  0
 13 15  1  0
 13 16  1  0
 11 17  1  0
 17 18  2  0
 18 19  1  0
 19 20  1  0
 20 21  1  0
 20 22  1  0
 20 23  1  0
 23 24  1  0
 23 25  1  0
 23 26  1  0
 19 27  1  0
 27 28  2  0
  2 29  1  0
 29 30  2  0
 30 31  1  0
 30 32  1  0
 32 33  1  0
 32 34  2  0
 34 35  1  0
 34 36  1  0
 36 37  1  0
 36 38  2  0
 38 39  1  0
 27  5  1  0
 38 29  1  0
 18  7  1  0
M  END
>  <UniqueID>  (8) 
6

>  <SMILES>  (8) 
CCn1c(=O)c(/C=C\c2ccc(Br)cc2)nc2cnc(SC)nc21

>  <Energy>  (8) 
50.448555114968165

>  <Genealogy>  (8) 
CCn1c(=O)c(/C=C\c2ccc(Br)cc2)nc2cnc(SC)nc21 (cis-trans isomerization)
CCn1c(=O)c(/C=C\c2ccc(Br)cc2)nc2cnc(SC)nc21 (3D coordinates assigned)
CCn1c(=O)c(/C=C\c2ccc(Br)cc2)nc2cnc(SC)nc21 (optimized conformer: 50.448555114968165 kcal/mol)

>  <smiles>  (8) 
CCn1c(=O)c(C=Cc2ccc(Br)cc2)nc2cnc(SC)nc21

>  <score_type>  (8) 
oracle

>  <origin>  (8) 
adgpu

>  <m_score__min__energy>  (8) 
-8.4100000000000001

>  <m_primary>  (8) 
energy

$$$$
8:0
     RDKit          3D

 57 60  0  0  0  0  0  0  0  0999 V2000
   -5.4010   26.4420  -30.4470 O   0  0  0  0  0  0  0  0  0  0  0  0
   -4.9230   25.2850  -30.5830 C   0  0  0  0  0  0  0  0  0  0  0  0
   -3.5080   25.0980  -30.4610 N   0  0  0  0  0  0  0  0  0  0  0  0
   -2.9120   23.8740  -30.0120 C   0  0  0  0  0  0  0  0  0  0  0  0
   -2.9770   22.7480  -30.8430 C   0  0  0  0  0  0  0  0  0  0  0  0
   -2.4990   21.5140  -30.3990 C   0  0  0  0  0  0  0  0  0  0  0  0
   -1.9370   21.3990  -29.1270 C   0  0  0  0  0  0  0  0  0  0  0  0
   -1.8280   22.5220  -28.3050 C   0  0  0  0  0  0  0  0  0  0  0  0
   -2.3040   23.7710  -28.7380 C   0  0  0  0  0  0  0  0  0  0  0  0
   -2.0700   24.9390  -27.9250 N   0  0  0  0  0  0  0  0  0  0  0  0
   -0.9670   25.8490  -28.2580 C   0  0  0  0  0  0  0  0  0  0  0  0
   -0.4930   26.5810  -27.0010 C   0  0  0  0  0  0  0  0  0  0  0  0
   -0.4700   25.6780  -25.9160 O   0  0  0  0  0  0  0  0  0  0  0  0
   -1.7900   25.3620  -25.4970 C   0  0  0  0  0  0  0  0  0  0  0  0
   -2.7850   25.1300  -26.6580 C   0  0  0  0  0  0  0  0  0  0  0  0
   -5.8260   24.1530  -30.8830 C   0  0  0  0  0  0  0  0  0  0  0  0
   -6.1490   23.8360  -32.2100 C   0  0  0  0  0  0  0  0  0  0  0  0
   -7.0450   22.8000  -32.4890 C   0  0  0  0  0  0  0  0  0  0  0  0
   -7.6140   22.0550  -31.4460 C   0  0  0  0  0  0  0  0  0  0  0  0
   -8.7680   20.7630  -31.7960 S   0  0  0  0  0  0  0  0  0  0  0  0
   -9.1110   20.0800  -30.5010 O   0  0  0  0  0  0  0  0  0  0  0  0
  -10.0310   21.3740  -32.3360 O   0  0  0  0  0  0  0  0  0  0  0  0
   -8.1640   19.5520  -32.9190 N   0  0  0  0  0  0  0  0  0  0  0  0
   -8.2690   18.1660  -32.3790 C   0  0  0  0  0  0  0  0  0  0  0  0
   -6.9190   17.4510  -32.2020 C   0  0  0  0  0  0  0  0  0  0  0  0
   -5.8780   18.3980  -31.6170 C   0  0  0  0  0  0  0  0  0  0  0  0
   -5.6600   19.6200  -32.5160 C   0  0  0  0  0  0  0  0  0  0  0  0
   -6.8340   19.8980  -33.4750 C   0  0  0  0  0  0  0  0  0  0  0  0
   -7.2260   22.3180  -30.1250 C   0  0  0  0  0  0  0  0  0  0  0  0
   -6.3540   23.3700  -29.8440 C   0  0  0  0  0  0  0  0  0  0  0  0
   -3.4073   22.8369  -31.8514 H   0  0  0  0  0  0  0  0  0  0  0  0
   -2.5654   20.6315  -31.0523 H   0  0  0  0  0  0  0  0  0  0  0  0
   -1.5792   20.4215  -28.7713 H   0  0  0  0  0  0  0  0  0  0  0  0
   -1.3661   22.4284  -27.3111 H   0  0  0  0  0  0  0  0  0  0  0  0
   -0.1318   25.2699  -28.6788 H   0  0  0  0  0  0  0  0  0  0  0  0
   -1.3184   26.5871  -28.9940 H   0  0  0  0  0  0  0  0  0  0  0  0
    0.5181   26.9808  -27.1679 H   0  0  0  0  0  0  0  0  0  0  0  0
   -1.1802   27.4099  -26.7761 H   0  0  0  0  0  0  0  0  0  0  0  0
   -1.7491   24.4459  -24.8894 H   0  0  0  0  0  0  0  0  0  0  0  0
   -2.1593   26.2312  -24.9330 H   0  0  0  0  0  0  0  0  0  0  0  0
   -3.3863   24.2340  -26.4443 H   0  0  0  0  0  0  0  0  0  0  0  0
   -3.4342   26.0134  -26.7486 H   0  0  0  0  0  0  0  0  0  0  0  0
   -5.6954   24.4049  -33.0350 H   0  0  0  0  0  0  0  0  0  0  0  0
   -7.3052   22.5679  -33.5323 H   0  0  0  0  0  0  0  0  0  0  0  0
   -8.8250   19.6070  -33.7290 H   0  0  0  0  0  0  0  0  0  0  0  0
   -8.7638   18.2153  -31.3978 H   0  0  0  0  0  0  0  0  0  0  0  0
   -8.8394   17.5831  -33.1171 H   0  0  0  0  0  0  0  0  0  0  0  0
   -7.0502   16.5955  -31.5232 H   0  0  0  0  0  0  0  0  0  0  0  0
   -6.5697   17.1079  -33.1870 H   0  0  0  0  0  0  0  0  0  0  0  0
   -6.2202   18.7383  -30.6285 H   0  0  0  0  0  0  0  0  0  0  0  0
   -4.9248   17.8550  -31.5367 H   0  0  0  0  0  0  0  0  0  0  0  0
   -5.5183   20.5025  -31.8748 H   0  0  0  0  0  0  0  0  0  0  0  0
   -4.7780   19.4091  -33.1386 H   0  0  0  0  0  0  0  0  0  0  0  0
   -6.8313   20.9697  -33.7230 H   0  0  0  0  0  0  0  0  0  0  0  0
   -6.6822   19.2579  -34.3566 H   0  0  0  0  0  0  0  0  0  0  0  0
   -7.6108   21.6921  -29.3063 H   0  0  0  0  0  0  0  0  0  0  0  0
   -6.0783   23.5875  -28.8016 H   0  0  0  0  0  0  0  0  0  0  0  0
  1  2  2  0
  2  3  1  0
  3  4  1  0
  4  5  2  0
  5  6  1  0
  6  7  2  0
  7  8  1  0
  8  9  2  0
  9 10  1  0
 10 11  1  0
 11 12  1  0
 12 13  1  0
 13 14  1  0
 14 15  1  0
  2 16  1  0
 16 17  2  0
 17 18  1  0
 18 19  2  0
 19 20  1  0
 20 21  2  0
 20 22  2  0
 20 23  1  0
 23 24  1  0
 24 25  1  0
 25 26  1  0
 26 27  1  0
 27 28  1  0
 19 29  1  0
 29 30  2  0
  9  4  1  0
 15 10  1  0
 30 16  1  0
 28 23  1  0
  5 31  1  0
  6 32  1  0
  7 33  1  0
  8 34  1  0
 11 35  1  0
 11 36  1  0
 12 37  1  0
 12 38  1  0
 14 39  1  0
 14 40  1  0
 15 41  1  0
 15 42  1  0
 17 43  1  0
 18 44  1  0
 23 45  1  0
 24 46  1  0
 24 47  1  0
 25 48  1  0
 25 49  1  0
 26 50  1  0
 26 51  1  0
 27 52  1  0
 27 53  1  0
 28 54  1  0
 28 55  1  0
 29 56  1  0
 30 57  1  0
M  CHG  2   3  -1  23   1
M  END
>  <UniqueID>  (9) 
7

>  <SMILES>  (9) 
O=C([N-]c1ccccc1N1CCOCC1)c1ccc(S(=O)(=O)[NH+]2CCCCC2)cc1

>  <Energy>  (9) 
85.4838691207512

>  <Genealogy>  (9) 
O=C([N-]c1ccccc1N1CCOCC1)c1ccc(S(=O)(=O)[NH+]2CCCCC2)cc1 (protonated)
O=C([N-]c1ccccc1N1CCOCC1)c1ccc(S(=O)(=O)[NH+]2CCCCC2)cc1 (3D coordinates assigned)
O=C([N-]c1ccccc1N1CCOCC1)c1ccc(S(=O)(=O)[NH+]2CCCCC2)cc1 (nonaromatic ring conformer: 85.4838691207512 kcal/mol)

>  <smiles>  (9) 
O=C(Nc1ccccc1N1CCOCC1)c1ccc(S(=O)(=O)N2CCCCC2)cc1

>  <score_type>  (9) 
oracle

>  <origin>  (9) 
adgpu

>  <m_score__min__energy>  (9) 
-11.91

>  <m_primary>  (9) 
energy

$$$$
9:0
     RDKit          3D

 52 55  0  0  0  0  0  0  0  0999 V2000
    1.4050   28.3900  -23.0050 C   0  0  0  0  0  0  0  0  0  0  0  0
    1.1320   27.0170  -23.2620 O   0  0  0  0  0  0  0  0  0  0  0  0
    0.2670   26.5500  -24.2640 C   0  0  0  0  0  0  0  0  0  0  0  0
   -1.1070   26.8490  -24.2620 C   0  0  0  0  0  0  0  0  0  0  0  0
   -1.9370   26.3690  -25.2750 C   0  0  0  0  0  0  0  0  0  0  0  0
   -1.4150   25.5880  -26.3180 C   0  0  0  0  0  0  0  0  0  0  0  0
   -2.3180   25.0840  -27.3850 C   0  0  0  0  0  0  0  0  0  0  0  0
   -3.4870   24.3680  -27.0900 C   0  0  0  0  0  0  0  0  0  0  0  0
   -4.2950   23.9160  -28.1310 C   0  0  0  0  0  0  0  0  0  0  0  0
   -3.9290   24.1890  -29.4550 C   0  0  0  0  0  0  0  0  0  0  0  0
   -4.7210   23.7230  -30.5650 N   0  0  0  0  0  0  0  0  0  0  0  0
   -5.9990   24.3610  -30.9190 C   0  0  0  0  0  0  0  0  0  0  0  0
   -7.0710   23.2880  -31.1400 C   0  0  0  0  0  0  0  0  0  0  0  0
   -6.5440   22.1540  -31.9180 N   0  0  0  0  0  0  0  0  0  0  0  0
   -7.3310   20.9540  -32.0470 C   0  0  0  0  0  0  0  0  0  0  0  0
   -6.7160   19.6900  -31.9950 C   0  0  0  0  0  0  0  0  0  0  0  0
   -7.4820   18.5260  -32.1070 C   0  0  0  0  0  0  0  0  0  0  0  0
   -8.8670   18.6130  -32.2690 C   0  0  0  0  0  0  0  0  0  0  0  0
   -9.4880   19.8630  -32.3160 C   0  0  0  0  0  0  0  0  0  0  0  0
   -8.7260   21.0300  -32.2030 C   0  0  0  0  0  0  0  0  0  0  0  0
   -5.1940   22.2330  -32.4950 C   0  0  0  0  0  0  0  0  0  0  0  0
   -4.1900   22.6420  -31.4110 C   0  0  0  0  0  0  0  0  0  0  0  0
   -2.7710   24.8630  -29.6870 N   0  0  0  0  0  0  0  0  0  0  0  0
   -1.9970   25.2960  -28.6910 N   0  0  0  0  0  0  0  0  0  0  0  0
   -0.0430   25.2780  -26.3120 C   0  0  0  0  0  0  0  0  0  0  0  0
    0.8010   25.7580  -25.2910 C   0  0  0  0  0  0  0  0  0  0  0  0
    2.1750   25.4690  -25.2610 O   0  0  0  0  0  0  0  0  0  0  0  0
    2.8490   24.8540  -24.1680 C   0  0  0  0  0  0  0  0  0  0  0  0
    1.4388   28.5600  -21.9187 H   0  0  0  0  0  0  0  0  0  0  0  0
    2.3745   28.6604  -23.4488 H   0  0  0  0  0  0  0  0  0  0  0  0
    0.6127   29.0107  -23.4488 H   0  0  0  0  0  0  0  0  0  0  0  0
   -1.5303   27.4659  -23.4557 H   0  0  0  0  0  0  0  0  0  0  0  0
   -3.0113   26.6048  -25.2564 H   0  0  0  0  0  0  0  0  0  0  0  0
   -3.7638   24.1648  -26.0450 H   0  0  0  0  0  0  0  0  0  0  0  0
   -5.2128   23.3494  -27.9149 H   0  0  0  0  0  0  0  0  0  0  0  0
   -6.3127   25.0280  -30.1025 H   0  0  0  0  0  0  0  0  0  0  0  0
   -5.8709   24.9425  -31.8439 H   0  0  0  0  0  0  0  0  0  0  0  0
   -7.4171   22.9212  -30.1624 H   0  0  0  0  0  0  0  0  0  0  0  0
   -7.9009   23.7388  -31.7040 H   0  0  0  0  0  0  0  0  0  0  0  0
   -5.6261   19.6171  -31.8655 H   0  0  0  0  0  0  0  0  0  0  0  0
   -6.9940   17.5410  -32.0676 H   0  0  0  0  0  0  0  0  0  0  0  0
   -9.4686   17.6965  -32.3596 H   0  0  0  0  0  0  0  0  0  0  0  0
  -10.5787   19.9297  -32.4422 H   0  0  0  0  0  0  0  0  0  0  0  0
   -9.2204   22.0120  -32.2363 H   0  0  0  0  0  0  0  0  0  0  0  0
   -4.9125   21.2505  -32.9017 H   0  0  0  0  0  0  0  0  0  0  0  0
   -5.1859   22.9830  -33.2997 H   0  0  0  0  0  0  0  0  0  0  0  0
   -3.9703   21.7687  -30.7793 H   0  0  0  0  0  0  0  0  0  0  0  0
   -3.2775   23.0068  -31.9053 H   0  0  0  0  0  0  0  0  0  0  0  0
    0.3762   24.6531  -27.1143 H   0  0  0  0  0  0  0  0  0  0  0  0
    2.4345   25.2323  -23.2219 H   0  0  0  0  0  0  0  0  0  0  0  0
    2.7113   23.7638  -24.2188 H   0  0  0  0  0  0  0  0  0  0  0  0
    3.9220   25.0908  -24.2188 H   0  0  0  0  0  0  0  0  0  0  0  0
  1  2  1  0
  2  3  1  0
  3  4  2  0
  4  5  1  0
  5  6  2  0
  6  7  1  0
  7  8  2  0
  8  9  1  0
  9 10  2  0
 10 11  1  0
 11 12  1  0
 12 13  1  0
 13 14  1  0
 14 15  1  0
 15 16  2  0
 16 17  1  0
 17 18  2  0
 18 19  1  0
 19 20  2  0
 14 21  1  0
 21 22  1  0
 10 23  1  0
 23 24  2  0
  6 25  1  0
 25 26  2  0
 26 27  1  0
 27 28  1  0
 26  3  1  0
 24  7  1  0
 22 11  1  0
 20 15  1  0
  1 29  1  0
  1 30  1  0
  1 31  1  0
  4 32  1  0
  5 33  1  0
  8 34  1  0
  9 35  1  0
 12 36  1  0
 12 37  1  0
 13 38  1  0
 13 39  1  0
 16 40  1  0
 17 41  1  0
 18 42  1  0
 19 43  1  0
 20 44  1  0
 21 45  1  0
 21 46  1  0
 22 47  1  0
 22 48  1  0
 25 49  1  0
 28 50  1  0
 28 51  1  0
 28 52  1  0
M  END
>  <UniqueID>  (10) 
8

>  <SMILES>  (10) 
COc1ccc(-c2ccc(N3CCN(c4ccccc4)CC3)nn2)cc1OC

>  <Energy>  (10) 
67.74044494225959

>  <Genealogy>  (10) 
COc1ccc(-c2ccc(N3CCN(c4ccccc4)CC3)nn2)cc1OC (3D coordinates assigned)
COc1ccc(-c2ccc(N3CCN(c4ccccc4)CC3)nn2)cc1OC (nonaromatic ring conformer: 67.74044494225959 kcal/mol)

>  <smiles>  (10) 
COc1ccc(-c2ccc(N3CCN(c4ccccc4)CC3)nn2)cc1OC

>  <score_type>  (10) 
oracle

>  <origin>  (10) 
adgpu

>  <m_score__min__energy>  (10) 
-8.4299999999999997

>  <m_primary>  (10) 
energy

$$$$
10:0
     RDKit          3D

 31 33  0  0  0  0  0  0  0  0999 V2000
   -9.4960   17.8890  -31.6060 N   0  0  0  0  0  0  0  0  0  0  0  0
   -8.6720   18.6960  -31.6910 C   0  0  0  0  0  0  0  0  0  0  0  0
   -7.6450   19.6990  -31.7960 C   0  0  0  0  0  0  0  0  0  0  0  0
   -7.6910   20.9450  -31.2070 C   0  0  0  0  0  0  0  0  0  0  0  0
   -6.5310   21.5990  -31.4330 N   0  0  0  0  0  0  0  0  0  0  0  0
   -6.1910   22.9240  -30.9780 C   0  0  0  0  0  0  0  0  0  0  0  0
   -7.1930   23.8090  -30.5330 C   0  0  0  0  0  0  0  0  0  0  0  0
   -6.8600   25.0940  -30.0920 C   0  0  0  0  0  0  0  0  0  0  0  0
   -5.5270   25.5100  -30.0910 C   0  0  0  0  0  0  0  0  0  0  0  0
   -4.5240   24.6440  -30.5300 C   0  0  0  0  0  0  0  0  0  0  0  0
   -4.8520   23.3580  -30.9710 C   0  0  0  0  0  0  0  0  0  0  0  0
   -5.7430   20.7730  -32.1570 C   0  0  0  0  0  0  0  0  0  0  0  0
   -6.4030   19.5810  -32.4060 C   0  0  0  0  0  0  0  0  0  0  0  0
   -5.8540   18.4210  -33.1470 C   0  0  0  0  0  0  0  0  0  0  0  0
   -5.7840   17.1580  -32.5310 C   0  0  0  0  0  0  0  0  0  0  0  0
   -5.2600   16.0610  -33.2200 C   0  0  0  0  0  0  0  0  0  0  0  0
   -4.7940   16.2130  -34.5280 C   0  0  0  0  0  0  0  0  0  0  0  0
   -4.8470   17.4640  -35.1470 C   0  0  0  0  0  0  0  0  0  0  0  0
   -5.3710   18.5640  -34.4620 C   0  0  0  0  0  0  0  0  0  0  0  0
   -8.5435   21.3457  -30.6390 H   0  0  0  0  0  0  0  0  0  0  0  0
   -8.2448   23.4870  -30.5324 H   0  0  0  0  0  0  0  0  0  0  0  0
   -7.6491   25.7776  -29.7456 H   0  0  0  0  0  0  0  0  0  0  0  0
   -5.2671   26.5210  -29.7440 H   0  0  0  0  0  0  0  0  0  0  0  0
   -3.4745   24.9735  -30.5291 H   0  0  0  0  0  0  0  0  0  0  0  0
   -4.0571   22.6801  -31.3152 H   0  0  0  0  0  0  0  0  0  0  0  0
   -4.7253   21.0127  -32.4988 H   0  0  0  0  0  0  0  0  0  0  0  0
   -6.1445   17.0331  -31.4993 H   0  0  0  0  0  0  0  0  0  0  0  0
   -5.2144   15.0764  -32.7316 H   0  0  0  0  0  0  0  0  0  0  0  0
   -4.3854   15.3477  -35.0705 H   0  0  0  0  0  0  0  0  0  0  0  0
   -4.4757   17.5838  -36.1755 H   0  0  0  0  0  0  0  0  0  0  0  0
   -5.4063   19.5476  -34.9533 H   0  0  0  0  0  0  0  0  0  0  0  0
  1  2  3  0
  2  3  1  0
  3  4  2  0
  4  5  1  0
  5  6  1  0
  6  7  2  0
  7  8  1  0
  8  9  2  0
  9 10  1  0
 10 11  2  0
  5 12  1  0
 12 13  2  0
 13 14  1  0
 14 15  2  0
 15 16  1  0
 16 17  2  0
 17 18  1  0
 18 19  2  0
 13  3  1  0
 19 14  1  0
 11  6  1  0
  4 20  1  0
  7 21  1  0
  8 22  1  0
  9 23  1  0
 10 24  1  0
 11 25  1  0
 12 26  1  0
 15 27  1  0
 16 28  1  0
 17 29  1  0
 18 30  1  0
 19 31  1  0
M  END
>  <UniqueID>  (11) 
9

>  <SMILES>  (11) 
N#Cc1cn(-c2ccccc2)cc1-c1ccccc1

>  <Energy>  (11) 
67.64720969296353

>  <Genealogy>  (11) 
N#Cc1cn(-c2ccccc2)cc1-c1ccccc1 (3D coordinates assigned)
N#Cc1cn(-c2ccccc2)cc1-c1ccccc1 (optimized conformer: 67.64720969296353 kcal/mol)

>  <smiles>  (11) 
N#Cc1cn(-c2ccccc2)cc1-c1ccccc1

>  <score_type>  (11) 
oracle

>  <origin>  (11) 
adgpu

>  <m_score__min__energy>  (11) 
-7.4100000000000001

>  <m_primary>  (11) 
energy

$$$$
11:0
     RDKit          3D

 48 50  0  0  0  0  0  0  0  0999 V2000
   -5.3670   24.5300  -30.4380 C   0  0  0  0  0  0  0  0  0  0  0  0
   -4.0920   24.0450  -30.8450 O   0  0  0  0  0  0  0  0  0  0  0  0
   -3.8080   22.7590  -31.3370 C   0  0  0  0  0  0  0  0  0  0  0  0
   -4.1880   22.4930  -32.6600 C   0  0  0  0  0  0  0  0  0  0  0  0
   -3.9720   21.2390  -33.2310 C   0  0  0  0  0  0  0  0  0  0  0  0
   -3.3650   20.2190  -32.4890 C   0  0  0  0  0  0  0  0  0  0  0  0
   -3.0510   18.6440  -33.2340 S   0  0  0  0  0  0  0  0  0  0  0  0
   -2.4200   18.8610  -34.5820 O   0  0  0  0  0  0  0  0  0  0  0  0
   -2.0520   17.9130  -32.3780 O   0  0  0  0  0  0  0  0  0  0  0  0
   -4.4750   17.6350  -33.4370 N   0  0  0  0  0  0  0  0  0  0  0  0
   -5.3110   18.0520  -34.5840 C   0  0  0  0  0  0  0  0  0  0  0  0
   -6.1670   19.2910  -34.2870 C   0  0  0  0  0  0  0  0  0  0  0  0
   -6.7530   19.2410  -32.9430 N   0  0  0  0  0  0  0  0  0  0  0  0
   -7.6350   20.3040  -32.5170 C   0  0  0  0  0  0  0  0  0  0  0  0
   -7.1130   21.5710  -32.2030 C   0  0  0  0  0  0  0  0  0  0  0  0
   -7.9480   22.6000  -31.7590 C   0  0  0  0  0  0  0  0  0  0  0  0
   -9.3210   22.3850  -31.6440 C   0  0  0  0  0  0  0  0  0  0  0  0
   -9.8610   21.1420  -31.9830 C   0  0  0  0  0  0  0  0  0  0  0  0
   -9.0290   20.1040  -32.4180 C   0  0  0  0  0  0  0  0  0  0  0  0
   -9.5950   18.9250  -32.7810 F   0  0  0  0  0  0  0  0  0  0  0  0
   -6.6560   17.9980  -32.1690 C   0  0  0  0  0  0  0  0  0  0  0  0
   -5.2220   17.4410  -32.1640 C   0  0  0  0  0  0  0  0  0  0  0  0
   -2.9580   20.4770  -31.1720 C   0  0  0  0  0  0  0  0  0  0  0  0
   -3.1900   21.7340  -30.5720 C   0  0  0  0  0  0  0  0  0  0  0  0
   -2.8330   21.9690  -29.2340 O   0  0  0  0  0  0  0  0  0  0  0  0
   -3.7440   22.3330  -28.1990 C   0  0  0  0  0  0  0  0  0  0  0  0
   -5.4183   24.5495  -29.3394 H   0  0  0  0  0  0  0  0  0  0  0  0
   -5.5146   25.5471  -30.8301 H   0  0  0  0  0  0  0  0  0  0  0  0
   -6.1533   23.8682  -30.8301 H   0  0  0  0  0  0  0  0  0  0  0  0
   -4.6637   23.2853  -33.2567 H   0  0  0  0  0  0  0  0  0  0  0  0
   -4.2803   21.0505  -34.2700 H   0  0  0  0  0  0  0  0  0  0  0  0
   -4.0870   16.6990  -33.7010 H   0  0  0  0  0  0  0  0  0  0  0  0
   -4.6508   18.2784  -35.4343 H   0  0  0  0  0  0  0  0  0  0  0  0
   -5.9996   17.2234  -34.8060 H   0  0  0  0  0  0  0  0  0  0  0  0
   -5.5346   20.1876  -34.3662 H   0  0  0  0  0  0  0  0  0  0  0  0
   -6.9894   19.3204  -35.0169 H   0  0  0  0  0  0  0  0  0  0  0  0
   -6.0336   21.7548  -32.3081 H   0  0  0  0  0  0  0  0  0  0  0  0
   -7.5218   23.5804  -31.5000 H   0  0  0  0  0  0  0  0  0  0  0  0
   -9.9774   23.1923  -31.2871 H   0  0  0  0  0  0  0  0  0  0  0  0
  -10.9461   20.9781  -31.9076 H   0  0  0  0  0  0  0  0  0  0  0  0
   -6.9640   18.1987  -31.1323 H   0  0  0  0  0  0  0  0  0  0  0  0
   -7.3126   17.2502  -32.6377 H   0  0  0  0  0  0  0  0  0  0  0  0
   -4.6631   17.9408  -31.3591 H   0  0  0  0  0  0  0  0  0  0  0  0
   -5.3113   16.3543  -32.0186 H   0  0  0  0  0  0  0  0  0  0  0  0
   -2.4503   19.6881  -30.5976 H   0  0  0  0  0  0  0  0  0  0  0  0
   -3.2793   22.1473  -27.2194 H   0  0  0  0  0  0  0  0  0  0  0  0
   -3.9945   23.4003  -28.2896 H   0  0  0  0  0  0  0  0  0  0  0  0
   -4.6610   21.7322  -28.2896 H   0  0  0  0  0  0  0  0  0  0  0  0
  1  2  1  0
  2  3  1  0
  3  4  2  0
  4  5  1  0
  5  6  2  0
  6  7  1  0
  7  8  2  0
  7  9  2  0
  7 10  1  0
 10 11  1  0
 11 12  1  0
 12 13  1  0
 13 14  1  0
 14 15  2  0
 15 16  1  0
 16 17  2  0
 17 18  1  0
 18 19  2  0
 19 20  1  0
 13 21  1  0
 21 22  1  0
  6 23  1  0
 23 24  2  0
 24 25  1  0
 25 26  1  0
 24  3  1  0
 22 10  1  0
 19 14  1  0
  1 27  1  0
  1 28  1  0
  1 29  1  0
  4 30  1  0
  5 31  1  0
 10 32  1  0
 11 33  1  0
 11 34  1  0
 12 35  1  0
 12 36  1  0
 15 37  1  0
 16 38  1  0
 17 39  1  0
 18 40  1  0
 21 41  1  0
 21 42  1  0
 22 43  1  0
 22 44  1  0
 23 45  1  0
 26 46  1  0
 26 47  1  0
 26 48  1  0
M  CHG  1  10   1
M  END
>  <UniqueID>  (12) 
10

>  <SMILES>  (12) 
COc1ccc(S(=O)(=O)[NH+]2CCN(c3ccccc3F)CC2)cc1OC

>  <Energy>  (12) 
61.26374191007475

>  <Genealogy>  (12) 
COc1ccc(S(=O)(=O)[NH+]2CCN(c3ccccc3F)CC2)cc1OC (protonated)
COc1ccc(S(=O)(=O)[NH+]2CCN(c3ccccc3F)CC2)cc1OC (3D coordinates assigned)
COc1ccc(S(=O)(=O)[NH+]2CCN(c3ccccc3F)CC2)cc1OC (nonaromatic ring conformer: 61.26374191007475 kcal/mol)

>  <smiles>  (12) 
COc1ccc(S(=O)(=O)N2CCN(c3ccccc3F)CC2)cc1OC

>  <score_type>  (12) 
oracle

>  <origin>  (12) 
adgpu

>  <m_score__min__energy>  (12) 
-6.9100000000000001

>  <m_primary>  (12) 
energy

$$$$
12:0
     RDKit          3D

 48 51  0  0  0  0  0  0  0  0999 V2000
   -8.9295   22.2342  -30.2760 H   0  0  0  0  0  0  0  0  0  0  0  0
   -8.0390   21.9160  -30.8380 C   0  0  0  0  0  0  0  0  0  0  0  0
   -8.1090   20.8010  -31.5060 N   0  0  0  0  0  0  0  0  0  0  0  0
   -7.0390   20.0970  -32.1530 C   0  0  0  0  0  0  0  0  0  0  0  0
   -5.8020   20.6220  -32.2690 N   0  0  0  0  0  0  0  0  0  0  0  0
   -4.9810   19.8510  -33.0380 C   0  0  0  0  0  0  0  0  0  0  0  0
   -3.5660   20.2370  -33.2820 C   0  0  0  0  0  0  0  0  0  0  0  0
   -2.7830   19.4900  -34.1800 C   0  0  0  0  0  0  0  0  0  0  0  0
   -3.2259   18.6277  -34.6998 H   0  0  0  0  0  0  0  0  0  0  0  0
   -1.4490   19.8300  -34.4200 C   0  0  0  0  0  0  0  0  0  0  0  0
   -0.8510   19.2328  -35.1241 H   0  0  0  0  0  0  0  0  0  0  0  0
   -0.8660   20.9310  -33.7670 C   0  0  0  0  0  0  0  0  0  0  0  0
    0.5040   21.3110  -33.9900 N   0  0  0  0  0  0  0  0  0  0  0  0
    1.1230   21.4820  -33.1690 H   0  0  0  0  0  0  0  0  0  0  0  0
    1.1700   21.6550  -35.5560 S   0  0  0  0  0  0  0  0  0  0  0  0
    2.5200   21.0090  -35.6760 O   0  0  0  0  0  0  0  0  0  0  0  0
    0.2650   21.0870  -36.6150 O   0  0  0  0  0  0  0  0  0  0  0  0
    1.3570   23.3950  -35.7540 C   0  0  0  0  0  0  0  0  0  0  0  0
    0.2670   24.1960  -36.1200 C   0  0  0  0  0  0  0  0  0  0  0  0
   -0.7160   23.7355  -36.2978 H   0  0  0  0  0  0  0  0  0  0  0  0
    0.4240   25.5780  -36.2600 C   0  0  0  0  0  0  0  0  0  0  0  0
   -0.4382   26.1996  -36.5432 H   0  0  0  0  0  0  0  0  0  0  0  0
    1.6780   26.1800  -36.0410 C   0  0  0  0  0  0  0  0  0  0  0  0
    1.8480   27.6010  -36.1920 N   0  0  0  0  0  0  0  0  0  0  0  0
    2.1000   28.3200  -35.2030 O   0  0  0  0  0  0  0  0  0  0  0  0
    1.7120   28.1940  -37.4270 O   0  0  0  0  0  0  0  0  0  0  0  0
    2.7670   25.3680  -35.6770 C   0  0  0  0  0  0  0  0  0  0  0  0
    3.7533   25.8233  -35.5042 H   0  0  0  0  0  0  0  0  0  0  0  0
    2.6060   23.9870  -35.5330 C   0  0  0  0  0  0  0  0  0  0  0  0
    3.4646   23.3627  -35.2447 H   0  0  0  0  0  0  0  0  0  0  0  0
   -1.6410   21.6690  -32.8620 C   0  0  0  0  0  0  0  0  0  0  0  0
   -1.1943   22.5257  -32.3361 H   0  0  0  0  0  0  0  0  0  0  0  0
   -2.9750   21.3290  -32.6200 C   0  0  0  0  0  0  0  0  0  0  0  0
   -3.5677   21.9199  -31.9062 H   0  0  0  0  0  0  0  0  0  0  0  0
   -5.5890   18.7060  -33.5630 C   0  0  0  0  0  0  0  0  0  0  0  0
   -5.1032   17.9517  -34.1994 H   0  0  0  0  0  0  0  0  0  0  0  0
   -7.1910   18.6820  -33.0530 S   0  0  0  0  0  0  0  0  0  0  0  0
   -6.8450   22.7820  -30.7840 C   0  0  0  0  0  0  0  0  0  0  0  0
   -5.8000   22.4610  -29.9060 C   0  0  0  0  0  0  0  0  0  0  0  0
   -5.8590   21.5484  -29.2948 H   0  0  0  0  0  0  0  0  0  0  0  0
   -4.6820   23.2970  -29.8040 C   0  0  0  0  0  0  0  0  0  0  0  0
   -3.8594   23.0330  -29.1231 H   0  0  0  0  0  0  0  0  0  0  0  0
   -4.6090   24.4670  -30.5660 C   0  0  0  0  0  0  0  0  0  0  0  0
   -3.4970   25.2940  -30.4660 O   0  0  0  0  0  0  0  0  0  0  0  0
   -5.6580   24.8070  -31.4250 C   0  0  0  0  0  0  0  0  0  0  0  0
   -5.6032   25.7302  -32.0206 H   0  0  0  0  0  0  0  0  0  0  0  0
   -6.7780   23.9740  -31.5280 C   0  0  0  0  0  0  0  0  0  0  0  0
   -7.6088   24.2524  -32.1931 H   0  0  0  0  0  0  0  0  0  0  0  0
  1  2  1  0
  2  3  2  0
  3  4  1  0
  4  5  2  0
  5  6  1  0
  6  7  1  0
  7  8  2  0
  8  9  1  0
  8 10  1  0
 10 11  1  0
 10 12  2  0
 12 13  1  0
 13 14  1  0
 13 15  1  0
 15 16  2  0
 15 17  2  0
 15 18  1  0
 18 19  2  0
 19 20  1  0
 19 21  1  0
 21 22  1  0
 21 23  2  0
 23 24  1  0
 24 25  2  0
 24 26  1  0
 23 27  1  0
 27 28  1  0
 27 29  2  0
 29 30  1  0
 12 31  1  0
 31 32  1  0
 31 33  2  0
 33 34  1  0
  6 35  2  0
 35 36  1  0
 35 37  1  0
  2 38  1  0
 38 39  2  0
 39 40  1  0
 39 41  1  0
 41 42  1  0
 41 43  2  0
 43 44  1  0
 43 45  1  0
 45 46  1  0
 45 47  2  0
 47 48  1  0
 37  4  1  0
 47 38  1  0
 33  7  1  0
 29 18  1  0
M  CHG  3  24   1  26  -1  44  -1
M  END
>  <UniqueID>  (13) 
11

>  <SMILES>  (13) 
O=[N+]([O-])c1ccc(S(=O)(=O)Nc2ccc(-c3csc(/N=C\c4ccc([O-])cc4)n3)cc2)cc1

>  <Energy>  (13) 
99.74942948898408

>  <Genealogy>  (13) 
O=[N+]([O-])c1ccc(S(=O)(=O)Nc2ccc(-c3csc(N=Cc4ccc([O-])cc4)n3)cc2)cc1 (protonated)
O=[N+]([O-])c1ccc(S(=O)(=O)Nc2ccc(-c3csc(/N=C\c4ccc([O-])cc4)n3)cc2)cc1 (cis-trans isomerization)
O=[N+]([O-])c1ccc(S(=O)(=O)Nc2ccc(-c3csc(/N=C\c4ccc([O-])cc4)n3)cc2)cc1 (3D coordinates assigned)
O=[N+]([O-])c1ccc(S(=O)(=O)Nc2ccc(-c3csc(/N=C\c4ccc([O-])cc4)n3)cc2)cc1 (optimized conformer: 99.74942948898408 kcal/mol)

>  <smiles>  (13) 
O=[N+]([O-])c1ccc(S(=O)(=O)Nc2ccc(-c3csc(N=Cc4ccc(O)cc4)n3)cc2)cc1

>  <score_type>  (13) 
oracle

>  <origin>  (13) 
adgpu

>  <m_score__min__energy>  (13) 
-12.33

>  <m_primary>  (13) 
energy

$$$$
13:0
     RDKit          3D

 79 83  0  0  0  0  0  0  0  0999 V2000
   -0.4530   22.7370  -26.2330 C   0  0  0  0  0  0  0  0  0  0  0  0
    0.4120   22.6030  -27.4840 C   0  0  0  0  0  0  0  0  0  0  0  0
   -0.0290   23.5680  -28.5910 C   0  0  0  0  0  0  0  0  0  0  0  0
   -1.2580   23.0910  -29.2330 N   0  0  0  0  0  0  0  0  0  0  0  0
   -2.5750   24.1610  -28.8550 S   0  0  0  0  0  0  0  0  0  0  0  0
   -3.0350   23.9070  -27.4460 O   0  0  0  0  0  0  0  0  0  0  0  0
   -2.1080   25.5880  -28.9530 O   0  0  0  0  0  0  0  0  0  0  0  0
   -3.9170   23.8830  -29.9620 C   0  0  0  0  0  0  0  0  0  0  0  0
   -5.1030   24.6100  -29.8120 C   0  0  0  0  0  0  0  0  0  0  0  0
   -6.2020   24.3400  -30.6310 C   0  0  0  0  0  0  0  0  0  0  0  0
   -6.1320   23.3280  -31.6080 C   0  0  0  0  0  0  0  0  0  0  0  0
   -7.2680   22.9770  -32.4210 N   0  0  0  0  0  0  0  0  0  0  0  0
   -8.6530   23.3210  -32.0920 C   0  0  0  0  0  0  0  0  0  0  0  0
   -9.3930   22.1200  -31.4990 C   0  0  0  0  0  0  0  0  0  0  0  0
   -8.4280   21.1240  -31.0250 N   0  0  0  0  0  0  0  0  0  0  0  0
   -8.5520   19.6400  -31.9270 S   0  0  0  0  0  0  0  0  0  0  0  0
   -9.4800   19.8520  -33.0910 O   0  0  0  0  0  0  0  0  0  0  0  0
   -9.1200   18.5730  -31.0350 O   0  0  0  0  0  0  0  0  0  0  0  0
   -6.9750   19.1150  -32.5130 C   0  0  0  0  0  0  0  0  0  0  0  0
   -6.4540   17.8760  -32.1200 C   0  0  0  0  0  0  0  0  0  0  0  0
   -5.1950   17.4680  -32.5680 C   0  0  0  0  0  0  0  0  0  0  0  0
   -4.4340   18.2900  -33.4170 C   0  0  0  0  0  0  0  0  0  0  0  0
   -3.1280   17.8630  -33.8560 N   0  0  0  0  0  0  0  0  0  0  0  0
   -2.5340   16.6710  -33.6560 C   0  0  0  0  0  0  0  0  0  0  0  0
   -1.3110   16.7400  -34.2820 C   0  0  0  0  0  0  0  0  0  0  0  0
   -0.2830   15.6550  -34.3680 C   0  0  0  0  0  0  0  0  0  0  0  0
    0.8000   15.9220  -33.4780 O   0  0  0  0  0  0  0  0  0  0  0  0
    0.7320   16.7490  -32.3440 C   0  0  0  0  0  0  0  0  0  0  0  0
    0.4910   16.1500  -31.1010 C   0  0  0  0  0  0  0  0  0  0  0  0
    0.4010   16.9260  -29.9420 C   0  0  0  0  0  0  0  0  0  0  0  0
    0.5670   18.3130  -30.0030 C   0  0  0  0  0  0  0  0  0  0  0  0
    0.4340   19.0580  -28.8240 O   0  0  0  0  0  0  0  0  0  0  0  0
   -0.7570   19.2510  -28.1060 C   0  0  0  0  0  0  0  0  0  0  0  0
   -1.6160   20.2850  -28.5010 C   0  0  0  0  0  0  0  0  0  0  0  0
   -2.8300   20.4870  -27.8350 C   0  0  0  0  0  0  0  0  0  0  0  0
   -3.1950   19.6550  -26.7730 C   0  0  0  0  0  0  0  0  0  0  0  0
   -2.3480   18.6160  -26.3770 C   0  0  0  0  0  0  0  0  0  0  0  0
   -1.1340   18.4100  -27.0420 C   0  0  0  0  0  0  0  0  0  0  0  0
    0.8050   18.9220  -31.2490 C   0  0  0  0  0  0  0  0  0  0  0  0
    0.8870   18.1470  -32.4120 C   0  0  0  0  0  0  0  0  0  0  0  0
   -1.1910   17.9500  -34.8570 N   0  0  0  0  0  0  0  0  0  0  0  0
   -2.3070   18.6110  -34.5820 N   0  0  0  0  0  0  0  0  0  0  0  0
   -4.9640   19.5350  -33.8040 C   0  0  0  0  0  0  0  0  0  0  0  0
   -6.2190   19.9480  -33.3460 C   0  0  0  0  0  0  0  0  0  0  0  0
   -4.9290   22.6240  -31.7720 C   0  0  0  0  0  0  0  0  0  0  0  0
   -3.8300   22.8950  -30.9510 C   0  0  0  0  0  0  0  0  0  0  0  0
    0.1790   22.6391  -25.3380 H   0  0  0  0  0  0  0  0  0  0  0  0
   -0.9431   23.7218  -26.2298 H   0  0  0  0  0  0  0  0  0  0  0  0
   -1.2181   21.9467  -26.2298 H   0  0  0  0  0  0  0  0  0  0  0  0
    1.4571   22.8203  -27.2185 H   0  0  0  0  0  0  0  0  0  0  0  0
    0.3043   21.5764  -27.8642 H   0  0  0  0  0  0  0  0  0  0  0  0
   -0.2116   24.5606  -28.1535 H   0  0  0  0  0  0  0  0  0  0  0  0
    0.7668   23.6261  -29.3482 H   0  0  0  0  0  0  0  0  0  0  0  0
   -1.1210   23.1340  -30.2710 H   0  0  0  0  0  0  0  0  0  0  0  0
   -5.1703   25.3970  -29.0464 H   0  0  0  0  0  0  0  0  0  0  0  0
   -7.1281   24.9216  -30.5121 H   0  0  0  0  0  0  0  0  0  0  0  0
   -7.1110   22.3770  -33.2630 H   0  0  0  0  0  0  0  0  0  0  0  0
   -8.6550   24.1417  -31.3595 H   0  0  0  0  0  0  0  0  0  0  0  0
   -9.1661   23.6261  -33.0159 H   0  0  0  0  0  0  0  0  0  0  0  0
  -10.0153   22.4549  -30.6561 H   0  0  0  0  0  0  0  0  0  0  0  0
  -10.0291   21.6677  -32.2741 H   0  0  0  0  0  0  0  0  0  0  0  0
   -7.0380   17.2216  -31.4562 H   0  0  0  0  0  0  0  0  0  0  0  0
   -4.7951   16.4929  -32.2529 H   0  0  0  0  0  0  0  0  0  0  0  0
   -2.9447   15.8136  -33.1027 H   0  0  0  0  0  0  0  0  0  0  0  0
   -0.7463   14.6949  -34.0969 H   0  0  0  0  0  0  0  0  0  0  0  0
    0.1039   15.6118  -35.3968 H   0  0  0  0  0  0  0  0  0  0  0  0
    0.3714   15.0584  -31.0364 H   0  0  0  0  0  0  0  0  0  0  0  0
    0.1982   16.4422  -28.9752 H   0  0  0  0  0  0  0  0  0  0  0  0
   -1.3349   20.9408  -29.3382 H   0  0  0  0  0  0  0  0  0  0  0  0
   -3.4986   21.3025  -28.1480 H   0  0  0  0  0  0  0  0  0  0  0  0
   -4.1484   19.8178  -26.2490 H   0  0  0  0  0  0  0  0  0  0  0  0
   -2.6358   17.9600  -25.5423 H   0  0  0  0  0  0  0  0  0  0  0  0
   -0.4720   17.5880  -26.7321 H   0  0  0  0  0  0  0  0  0  0  0  0
    0.9273   20.0135  -31.3096 H   0  0  0  0  0  0  0  0  0  0  0  0
    1.0731   18.6315  -33.3818 H   0  0  0  0  0  0  0  0  0  0  0  0
   -4.3857   20.1892  -34.4729 H   0  0  0  0  0  0  0  0  0  0  0  0
   -6.6137   20.9313  -33.6415 H   0  0  0  0  0  0  0  0  0  0  0  0
   -4.8500   21.8530  -32.5525 H   0  0  0  0  0  0  0  0  0  0  0  0
   -2.8948   22.3309  -31.0822 H   0  0  0  0  0  0  0  0  0  0  0  0
  1  2  1  0
  2  3  1  0
  3  4  1  0
  4  5  1  0
  5  6  2  0
  5  7  2  0
  5  8  1  0
  8  9  2  0
  9 10  1  0
 10 11  2  0
 11 12  1  0
 12 13  1  0
 13 14  1  0
 14 15  1  0
 15 16  1  0
 16 17  2  0
 16 18  2  0
 16 19  1  0
 19 20  2  0
 20 21  1  0
 21 22  2  0
 22 23  1  0
 23 24  1  0
 24 25  2  0
 25 26  1  0
 26 27  1  0
 27 28  1  0
 28 29  2  0
 29 30  1  0
 30 31  2  0
 31 32  1  0
 32 33  1  0
 33 34  2  0
 34 35  1  0
 35 36  2  0
 36 37  1  0
 37 38  2  0
 31 39  1  0
 39 40  2  0
 25 41  1  0
 41 42  2  0
 22 43  1  0
 43 44  2  0
 11 45  1  0
 45 46  2  0
 46  8  1  0
 44 19  1  0
 42 23  1  0
 40 28  1  0
 38 33  1  0
  1 47  1  0
  1 48  1  0
  1 49  1  0
  2 50  1  0
  2 51  1  0
  3 52  1  0
  3 53  1  0
  4 54  1  0
  9 55  1  0
 10 56  1  0
 12 57  1  0
 13 58  1  0
 13 59  1  0
 14 60  1  0
 14 61  1  0
 20 62  1  0
 21 63  1  0
 24 64  1  0
 26 65  1  0
 26 66  1  0
 29 67  1  0
 30 68  1  0
 34 69  1  0
 35 70  1  0
 36 71  1  0
 37 72  1  0
 38 73  1  0
 39 74  1  0
 40 75  1  0
 43 76  1  0
 44 77  1  0
 45 78  1  0
 46 79  1  0
M  CHG  1  15  -1
M  END
>  <UniqueID>  (14) 
12

>  <SMILES>  (14) 
CCCNS(=O)(=O)c1ccc(NCC[N-]S(=O)(=O)c2ccc(-n3cc(COc4ccc(Oc5ccccc5)cc4)nn3)cc2)cc1

>  <Energy>  (14) 
116.84977342152114

>  <Genealogy>  (14) 
CCCNS(=O)(=O)c1ccc(NCC[N-]S(=O)(=O)c2ccc(-n3cc(COc4ccc(Oc5ccccc5)cc4)nn3)cc2)cc1 (protonated)
CCCNS(=O)(=O)c1ccc(NCC[N-]S(=O)(=O)c2ccc(-n3cc(COc4ccc(Oc5ccccc5)cc4)nn3)cc2)cc1 (3D coordinates assigned)
CCCNS(=O)(=O)c1ccc(NCC[N-]S(=O)(=O)c2ccc(-n3cc(COc4ccc(Oc5ccccc5)cc4)nn3)cc2)cc1 (optimized conformer: 116.84977342152114 kcal/mol)

>  <smiles>  (14) 
CCCNS(=O)(=O)c1ccc(NCCNS(=O)(=O)c2ccc(-n3cc(COc4ccc(Oc5ccccc5)cc4)nn3)cc2)cc1

>  <score_type>  (14) 
oracle

>  <origin>  (14) 
adgpu

>  <m_score__min__energy>  (14) 
-12.199999999999999

>  <m_primary>  (14) 
energy

$$$$
14:0
     RDKit          3D

 41 43  0  0  1  0  0  0  0  0999 V2000
   -0.0030   20.4190  -34.3830 C   0  0  0  0  0  0  0  0  0  0  0  0
   -1.4190   20.2660  -33.9740 C   0  0  0  0  0  0  0  0  0  0  0  0
   -2.0560   21.3530  -33.4080 C   0  0  0  0  0  0  0  0  0  0  0  0
   -3.3800   21.2090  -33.0260 C   0  0  0  0  0  0  0  0  0  0  0  0
   -3.9820   22.2010  -32.5030 N   0  0  0  0  0  0  0  0  0  0  0  0
   -5.3670   22.1100  -32.0840 C   0  0  0  0  0  0  0  0  0  0  0  0
   -5.6100   23.3690  -31.2920 C   0  0  0  0  0  0  0  0  0  0  0  0
   -6.8450   23.6530  -30.7470 C   0  0  0  0  0  0  0  0  0  0  0  0
   -6.9770   24.8440  -30.0280 C   0  0  0  0  0  0  0  0  0  0  0  0
   -5.8670   25.6800  -29.8990 C   0  0  0  0  0  0  0  0  0  0  0  0
   -4.6480   25.3460  -30.4680 C   0  0  0  0  0  0  0  0  0  0  0  0
   -4.5450   24.1940  -31.1540 N   0  0  0  0  0  0  0  0  0  0  0  0
   -3.9930   20.0260  -33.2200 N   0  0  0  0  0  0  0  0  0  0  0  0
   -3.3670   18.9610  -33.7750 C   0  0  0  0  0  0  0  0  0  0  0  0
   -4.1120   17.6950  -33.9530 C   0  0  0  0  0  0  0  0  0  0  0  0
   -5.7490   17.9310  -34.6660 S   0  0  0  0  0  0  0  0  0  0  0  0
   -6.8630   18.6230  -33.4560 C   0  0  0  0  0  0  0  0  0  0  0  0
   -7.3410   17.7680  -32.4780 C   0  0  0  0  0  0  0  0  0  0  0  0
   -8.2130   18.1880  -31.4840 C   0  0  0  0  0  0  0  0  0  0  0  0
   -8.5800   19.5250  -31.5280 C   0  0  0  0  0  0  0  0  0  0  0  0
   -8.1170   20.3960  -32.4920 C   0  0  0  0  0  0  0  0  0  0  0  0
   -7.2520   19.9530  -33.4690 C   0  0  0  0  0  0  0  0  0  0  0  0
   -2.0880   19.1060  -34.1410 N   0  0  0  0  0  0  0  0  0  0  0  0
    0.6320   20.4876  -33.4874 H   0  0  0  0  0  0  0  0  0  0  0  0
    0.3016   19.5485  -34.9826 H   0  0  0  0  0  0  0  0  0  0  0  0
    0.1086   21.3344  -34.9826 H   0  0  0  0  0  0  0  0  0  0  0  0
   -1.5268   22.3066  -33.2645 H   0  0  0  0  0  0  0  0  0  0  0  0
   -6.0345   22.0660  -32.9572 H   0  0  0  0  0  0  0  0  0  0  0  0
   -5.5650   21.2026  -31.4946 H   0  0  0  0  0  0  0  0  0  0  0  0
   -7.6953   22.9667  -30.8738 H   0  0  0  0  0  0  0  0  0  0  0  0
   -7.9396   25.1179  -29.5714 H   0  0  0  0  0  0  0  0  0  0  0  0
   -5.9611   26.6203  -29.3360 H   0  0  0  0  0  0  0  0  0  0  0  0
   -3.7793   26.0122  -30.3602 H   0  0  0  0  0  0  0  0  0  0  0  0
   -4.9880   19.8990  -32.9380 H   0  0  0  0  0  0  0  0  0  0  0  0
   -3.5320   17.0384  -34.6182 H   0  0  0  0  0  0  0  0  0  0  0  0
   -4.2501   17.2533  -32.9551 H   0  0  0  0  0  0  0  0  0  0  0  0
   -7.0175   16.7167  -32.4893 H   0  0  0  0  0  0  0  0  0  0  0  0
   -8.5897   17.5037  -30.7096 H   0  0  0  0  0  0  0  0  0  0  0  0
   -9.2699   19.9070  -30.7611 H   0  0  0  0  0  0  0  0  0  0  0  0
   -8.4393   21.4477  -32.4809 H   0  0  0  0  0  0  0  0  0  0  0  0
   -6.8784   20.6402  -34.2424 H   0  0  0  0  0  0  0  0  0  0  0  0
  1  2  1  0
  2  3  2  0
  3  4  1  0
  4  5  2  0
  5  6  1  0
  6  7  1  0
  7  8  2  0
  8  9  1  0
  9 10  2  0
 10 11  1  0
 11 12  2  0
  4 13  1  0
 13 14  1  0
 14 15  1  0
 15 16  1  0
 16 17  1  0
 17 18  2  0
 18 19  1  0
 19 20  2  0
 20 21  1  0
 21 22  2  0
 14 23  2  0
 23  2  1  0
 12  7  1  0
 22 17  1  0
  1 24  1  0
  1 25  1  0
  1 26  1  0
  3 27  1  0
  6 28  1  0
  6 29  1  0
  8 30  1  0
  9 31  1  0
 10 32  1  0
 11 33  1  0
 13 34  1  0
 15 35  1  0
 15 36  1  0
 18 37  1  0
 19 38  1  0
 20 39  1  0
 21 40  1  0
 22 41  1  0
M  END
>  <smiles>  (15) 
Cc1cc(=NCc2ccccn2)[nH]c(CSc2ccccc2)n1

>  <score_type>  (15) 
oracle

>  <origin>  (15) 
adgpu

>  <m_score__min__energy>  (15) 
-8.3100000000000005

>  <m_primary>  (15) 
energy

$$$$
15:0
     RDKit          3D

 56 59  0  0  0  0  0  0  0  0999 V2000
   -4.8940   18.3030  -33.8050 C   0  0  0  0  0  0  0  0  0  0  0  0
   -3.7850   18.8930  -34.4830 O   0  0  0  0  0  0  0  0  0  0  0  0
   -2.7220   19.5520  -33.8440 C   0  0  0  0  0  0  0  0  0  0  0  0
   -1.4690   18.9290  -33.6660 C   0  0  0  0  0  0  0  0  0  0  0  0
   -0.4310   19.6010  -33.0180 C   0  0  0  0  0  0  0  0  0  0  0  0
   -0.6260   20.8930  -32.5350 C   0  0  0  0  0  0  0  0  0  0  0  0
   -1.8590   21.5280  -32.7090 C   0  0  0  0  0  0  0  0  0  0  0  0
   -2.9180   20.8710  -33.3700 C   0  0  0  0  0  0  0  0  0  0  0  0
   -4.1990   21.5070  -33.5400 N   0  0  0  0  0  0  0  0  0  0  0  0
   -5.4790   21.4390  -32.3670 S   0  0  0  0  0  0  0  0  0  0  0  0
   -6.7850   21.2450  -33.0890 O   0  0  0  0  0  0  0  0  0  0  0  0
   -5.2380   20.2580  -31.4660 O   0  0  0  0  0  0  0  0  0  0  0  0
   -5.5220   22.9150  -31.3850 C   0  0  0  0  0  0  0  0  0  0  0  0
   -4.3190   23.4150  -30.8550 C   0  0  0  0  0  0  0  0  0  0  0  0
   -4.3050   24.5960  -30.0940 C   0  0  0  0  0  0  0  0  0  0  0  0
   -3.1010   25.1310  -29.5280 N   0  0  0  0  0  0  0  0  0  0  0  0
   -2.5420   24.8620  -28.2370 C   0  0  0  0  0  0  0  0  0  0  0  0
   -3.2890   24.6310  -27.2470 O   0  0  0  0  0  0  0  0  0  0  0  0
   -1.0750   24.8200  -28.0740 C   0  0  0  0  0  0  0  0  0  0  0  0
   -0.2030   23.7590  -28.2970 C   0  0  0  0  0  0  0  0  0  0  0  0
   -0.5410   22.3490  -28.5870 C   0  0  0  0  0  0  0  0  0  0  0  0
    0.3380   21.3090  -28.2270 C   0  0  0  0  0  0  0  0  0  0  0  0
    0.0010   19.9770  -28.4920 C   0  0  0  0  0  0  0  0  0  0  0  0
   -1.2000   19.6750  -29.1420 C   0  0  0  0  0  0  0  0  0  0  0  0
   -2.0600   20.7040  -29.5390 C   0  0  0  0  0  0  0  0  0  0  0  0
   -1.7300   22.0390  -29.2710 C   0  0  0  0  0  0  0  0  0  0  0  0
    1.0660   24.1900  -28.1470 N   0  0  0  0  0  0  0  0  0  0  0  0
    1.0110   25.4540  -27.8360 O   0  0  0  0  0  0  0  0  0  0  0  0
   -0.2300   25.8770  -27.7780 C   0  0  0  0  0  0  0  0  0  0  0  0
   -0.6170   27.2840  -27.4510 C   0  0  0  0  0  0  0  0  0  0  0  0
   -5.5080   25.2500  -29.8210 C   0  0  0  0  0  0  0  0  0  0  0  0
   -6.7120   24.7570  -30.3250 C   0  0  0  0  0  0  0  0  0  0  0  0
   -6.7380   23.5870  -31.1050 C   0  0  0  0  0  0  0  0  0  0  0  0
   -8.0610   23.0940  -31.6300 C   0  0  0  0  0  0  0  0  0  0  0  0
   -4.7440   18.3828  -32.7182 H   0  0  0  0  0  0  0  0  0  0  0  0
   -5.8181   18.8287  -34.0872 H   0  0  0  0  0  0  0  0  0  0  0  0
   -4.9745   17.2429  -34.0872 H   0  0  0  0  0  0  0  0  0  0  0  0
   -1.3088   17.9071  -34.0402 H   0  0  0  0  0  0  0  0  0  0  0  0
    0.5441   19.1087  -32.8884 H   0  0  0  0  0  0  0  0  0  0  0  0
    0.1917   21.4144  -32.0158 H   0  0  0  0  0  0  0  0  0  0  0  0
   -2.0049   22.5492  -32.3271 H   0  0  0  0  0  0  0  0  0  0  0  0
   -4.3740   22.1000  -34.3810 H   0  0  0  0  0  0  0  0  0  0  0  0
   -3.3782   22.8752  -31.0384 H   0  0  0  0  0  0  0  0  0  0  0  0
    1.2934   21.5449  -27.7355 H   0  0  0  0  0  0  0  0  0  0  0  0
    0.6809   19.1671  -28.1890 H   0  0  0  0  0  0  0  0  0  0  0  0
   -1.4685   18.6270  -29.3412 H   0  0  0  0  0  0  0  0  0  0  0  0
   -2.9973   20.4647  -30.0627 H   0  0  0  0  0  0  0  0  0  0  0  0
   -2.4024   22.8465  -29.5963 H   0  0  0  0  0  0  0  0  0  0  0  0
   -0.6517   27.4103  -26.3588 H   0  0  0  0  0  0  0  0  0  0  0  0
    0.1240   27.9765  -27.8768 H   0  0  0  0  0  0  0  0  0  0  0  0
   -1.6079   27.5001  -27.8768 H   0  0  0  0  0  0  0  0  0  0  0  0
   -5.5065   26.1607  -29.2040 H   0  0  0  0  0  0  0  0  0  0  0  0
   -7.6506   25.2889  -30.1101 H   0  0  0  0  0  0  0  0  0  0  0  0
   -8.7217   22.8478  -30.7857 H   0  0  0  0  0  0  0  0  0  0  0  0
   -8.5273   23.8787  -32.2438 H   0  0  0  0  0  0  0  0  0  0  0  0
   -7.9001   22.1955  -32.2438 H   0  0  0  0  0  0  0  0  0  0  0  0
  1  2  1  0
  2  3  1  0
  3  4  2  0
  4  5  1  0
  5  6  2  0
  6  7  1  0
  7  8  2  0
  8  9  1  0
  9 10  1  0
 10 11  2  0
 10 12  2  0
 10 13  1  0
 13 14  2  0
 14 15  1  0
 15 16  1  0
 16 17  1  0
 17 18  2  0
 17 19  1  0
 19 20  1  0
 20 21  1  0
 21 22  2  0
 22 23  1  0
 23 24  2  0
 24 25  1  0
 25 26  2  0
 20 27  2  0
 27 28  1  0
 28 29  1  0
 29 30  1  0
 15 31  2  0
 31 32  1  0
 32 33  2  0
 33 34  1  0
  8  3  1  0
 33 13  1  0
 29 19  2  0
 26 21  1  0
  1 35  1  0
  1 36  1  0
  1 37  1  0
  4 38  1  0
  5 39  1  0
  6 40  1  0
  7 41  1  0
  9 42  1  0
 14 43  1  0
 22 44  1  0
 23 45  1  0
 24 46  1  0
 25 47  1  0
 26 48  1  0
 30 49  1  0
 30 50  1  0
 30 51  1  0
 31 52  1  0
 32 53  1  0
 34 54  1  0
 34 55  1  0
 34 56  1  0
M  CHG  1  16  -1
M  END
>  <UniqueID>  (16) 
13

>  <SMILES>  (16) 
COc1ccccc1NS(=O)(=O)c1cc([N-]C(=O)c2c(-c3ccccc3)noc2C)ccc1C

>  <Energy>  (16) 
103.18858719360601

>  <Genealogy>  (16) 
COc1ccccc1NS(=O)(=O)c1cc([N-]C(=O)c2c(-c3ccccc3)noc2C)ccc1C (protonated)
COc1ccccc1NS(=O)(=O)c1cc([N-]C(=O)c2c(-c3ccccc3)noc2C)ccc1C (3D coordinates assigned)
COc1ccccc1NS(=O)(=O)c1cc([N-]C(=O)c2c(-c3ccccc3)noc2C)ccc1C (optimized conformer: 103.18858719360601 kcal/mol)

>  <smiles>  (16) 
COc1ccccc1NS(=O)(=O)c1cc(NC(=O)c2c(-c3ccccc3)noc2C)ccc1C

>  <score_type>  (16) 
oracle

>  <origin>  (16) 
adgpu

>  <m_score__min__energy>  (16) 
-11.210000000000001

>  <m_primary>  (16) 
energy

$$$$
16:0
     RDKit          3D

 40 41  0  0  0  0  0  0  0  0999 V2000
   -1.4000   16.8390  -33.6270 C   0  0  0  0  0  0  0  0  0  0  0  0
   -2.1560   17.6170  -34.5500 O   0  0  0  0  0  0  0  0  0  0  0  0
   -3.3630   18.2610  -34.2400 C   0  0  0  0  0  0  0  0  0  0  0  0
   -3.4220   19.3890  -33.4000 C   0  0  0  0  0  0  0  0  0  0  0  0
   -4.6490   20.0000  -33.1230 C   0  0  0  0  0  0  0  0  0  0  0  0
   -5.8330   19.5020  -33.6960 C   0  0  0  0  0  0  0  0  0  0  0  0
   -7.1170   20.0820  -33.4270 N   0  0  0  0  0  0  0  0  0  0  0  0
   -7.7740   20.1980  -32.1570 C   0  0  0  0  0  0  0  0  0  0  0  0
   -7.4550   19.4430  -31.2010 O   0  0  0  0  0  0  0  0  0  0  0  0
   -8.8450   21.1930  -31.9470 C   0  0  0  0  0  0  0  0  0  0  0  0
   -8.6580   22.4980  -31.6920 C   0  0  0  0  0  0  0  0  0  0  0  0
   -7.3540   23.1300  -31.4020 C   0  0  0  0  0  0  0  0  0  0  0  0
   -7.2390   24.0050  -30.3150 C   0  0  0  0  0  0  0  0  0  0  0  0
   -6.0130   24.6100  -30.0230 C   0  0  0  0  0  0  0  0  0  0  0  0
   -4.8810   24.3350  -30.8010 C   0  0  0  0  0  0  0  0  0  0  0  0
   -3.6500   24.9940  -30.4760 N   0  0  0  0  0  0  0  0  0  0  0  0
   -2.5460   24.5200  -29.2260 S   0  0  0  0  0  0  0  0  0  0  0  0
   -3.4340   24.1530  -27.7280 C   0  0  0  0  0  0  0  0  0  0  0  0
   -1.7480   23.3260  -29.6700 O   0  0  0  0  0  0  0  0  0  0  0  0
   -1.6020   25.6590  -28.9600 O   0  0  0  0  0  0  0  0  0  0  0  0
   -4.9870   23.4240  -31.8680 C   0  0  0  0  0  0  0  0  0  0  0  0
   -6.2120   22.8160  -32.1560 C   0  0  0  0  0  0  0  0  0  0  0  0
   -5.7730   18.3670  -34.5110 C   0  0  0  0  0  0  0  0  0  0  0  0
   -4.5470   17.7560  -34.7890 C   0  0  0  0  0  0  0  0  0  0  0  0
   -1.6737   17.1207  -32.5995 H   0  0  0  0  0  0  0  0  0  0  0  0
   -1.6153   15.7718  -33.7843 H   0  0  0  0  0  0  0  0  0  0  0  0
   -0.3271   17.0236  -33.7843 H   0  0  0  0  0  0  0  0  0  0  0  0
   -2.4982   19.7919  -32.9592 H   0  0  0  0  0  0  0  0  0  0  0  0
   -4.6883   20.8729  -32.4548 H   0  0  0  0  0  0  0  0  0  0  0  0
   -9.8835   20.8348  -32.0043 H   0  0  0  0  0  0  0  0  0  0  0  0
   -9.5454   23.1479  -31.6996 H   0  0  0  0  0  0  0  0  0  0  0  0
   -8.1174   24.2174  -29.6879 H   0  0  0  0  0  0  0  0  0  0  0  0
   -5.9366   25.3074  -29.1758 H   0  0  0  0  0  0  0  0  0  0  0  0
   -2.8102   24.4108  -26.8594 H   0  0  0  0  0  0  0  0  0  0  0  0
   -4.3634   24.7407  -27.6993 H   0  0  0  0  0  0  0  0  0  0  0  0
   -3.6773   23.0806  -27.6993 H   0  0  0  0  0  0  0  0  0  0  0  0
   -4.1022   23.1894  -32.4779 H   0  0  0  0  0  0  0  0  0  0  0  0
   -6.2818   22.0878  -32.9775 H   0  0  0  0  0  0  0  0  0  0  0  0
   -6.6983   17.9517  -34.9368 H   0  0  0  0  0  0  0  0  0  0  0  0
   -4.5126   16.8726  -35.4435 H   0  0  0  0  0  0  0  0  0  0  0  0
  1  2  1  0
  2  3  1  0
  3  4  2  0
  4  5  1  0
  5  6  2  0
  6  7  1  0
  7  8  1  0
  8  9  2  0
  8 10  1  0
 10 11  2  3
 11 12  1  0
 12 13  2  0
 13 14  1  0
 14 15  2  0
 15 16  1  0
 16 17  1  0
 17 18  1  0
 17 19  2  0
 17 20  2  0
 15 21  1  0
 21 22  2  0
  6 23  1  0
 23 24  2  0
 24  3  1  0
 22 12  1  0
  1 25  1  0
  1 26  1  0
  1 27  1  0
  4 28  1  0
  5 29  1  0
 10 30  1  0
 11 31  1  0
 13 32  1  0
 14 33  1  0
 18 34  1  0
 18 35  1  0
 18 36  1  0
 21 37  1  0
 22 38  1  0
 23 39  1  0
 24 40  1  0
M  CHG  2   7  -1  16  -1
M  END
>  <UniqueID>  (17) 
14

>  <SMILES>  (17) 
COc1ccc([N-]C(=O)C=Cc2ccc([N-]S(C)(=O)=O)cc2)cc1

>  <Energy>  (17) 
48.71327303164878

>  <Genealogy>  (17) 
COc1ccc([N-]C(=O)C=Cc2ccc([N-]S(C)(=O)=O)cc2)cc1 (protonated)
COc1ccc([N-]C(=O)C=Cc2ccc([N-]S(C)(=O)=O)cc2)cc1 (3D coordinates assigned)
COc1ccc([N-]C(=O)C=Cc2ccc([N-]S(C)(=O)=O)cc2)cc1 (optimized conformer: 48.71327303164878 kcal/mol)

>  <smiles>  (17) 
COc1ccc(NC(=O)C=Cc2ccc(NS(C)(=O)=O)cc2)cc1

>  <score_type>  (17) 
oracle

>  <origin>  (17) 
adgpu

>  <m_score__min__energy>  (17) 
-9.7100000000000009

>  <m_primary>  (17) 
energy

$$$$
17:0
     RDKit          3D

 40 41  0  0  0  0  0  0  0  0999 V2000
   -0.1090   23.5390  -25.2910 C   0  0  0  0  0  0  0  0  0  0  0  0
   -0.8720   23.8860  -26.5440 C   0  0  0  0  0  0  0  0  0  0  0  0
   -0.9080   25.2210  -26.9790 C   0  0  0  0  0  0  0  0  0  0  0  0
   -1.6120   25.5760  -28.1300 C   0  0  0  0  0  0  0  0  0  0  0  0
   -2.2880   24.5970  -28.8770 C   0  0  0  0  0  0  0  0  0  0  0  0
   -3.0420   24.9250  -30.0530 N   0  0  0  0  0  0  0  0  0  0  0  0
   -4.4690   24.9840  -30.1590 C   0  0  0  0  0  0  0  0  0  0  0  0
   -5.0270   25.8240  -30.9150 O   0  0  0  0  0  0  0  0  0  0  0  0
   -5.3060   24.0320  -29.3640 C   0  0  0  0  0  0  0  0  0  0  0  0
   -5.8360   22.9770  -30.2420 N   0  0  0  0  0  0  0  0  0  0  0  0
   -7.1930   22.8490  -30.3740 C   0  0  0  0  0  0  0  0  0  0  0  0
   -7.7400   21.8420  -31.1690 C   0  0  0  0  0  0  0  0  0  0  0  0
   -6.8960   20.9460  -31.8270 C   0  0  0  0  0  0  0  0  0  0  0  0
   -7.5710   19.6800  -32.8470 S   0  0  0  0  0  0  0  0  0  0  0  0
   -7.3870   18.1080  -32.0370 C   0  0  0  0  0  0  0  0  0  0  0  0
   -6.8520   19.6540  -34.1670 O   0  0  0  0  0  0  0  0  0  0  0  0
   -9.0290   19.9480  -33.0980 O   0  0  0  0  0  0  0  0  0  0  0  0
   -5.5130   21.0780  -31.6830 C   0  0  0  0  0  0  0  0  0  0  0  0
   -4.9930   22.0960  -30.8770 C   0  0  0  0  0  0  0  0  0  0  0  0
   -3.7430   22.1900  -30.7430 O   0  0  0  0  0  0  0  0  0  0  0  0
   -2.2850   23.2720  -28.4290 C   0  0  0  0  0  0  0  0  0  0  0  0
   -1.5850   22.9010  -27.2670 C   0  0  0  0  0  0  0  0  0  0  0  0
   -1.5900   21.4600  -26.8310 C   0  0  0  0  0  0  0  0  0  0  0  0
   -0.7081   23.8115  -24.4096 H   0  0  0  0  0  0  0  0  0  0  0  0
    0.0971   22.4586  -25.2746 H   0  0  0  0  0  0  0  0  0  0  0  0
    0.8407   24.0937  -25.2746 H   0  0  0  0  0  0  0  0  0  0  0  0
   -0.3756   25.9946  -26.4062 H   0  0  0  0  0  0  0  0  0  0  0  0
   -1.6378   26.6269  -28.4539 H   0  0  0  0  0  0  0  0  0  0  0  0
   -4.6895   23.5750  -28.5759 H   0  0  0  0  0  0  0  0  0  0  0  0
   -6.1446   24.5799  -28.9096 H   0  0  0  0  0  0  0  0  0  0  0  0
   -7.8590   23.5482  -29.8472 H   0  0  0  0  0  0  0  0  0  0  0  0
   -8.8312   21.7544  -31.2769 H   0  0  0  0  0  0  0  0  0  0  0  0
   -7.4040   18.2531  -30.9467 H   0  0  0  0  0  0  0  0  0  0  0  0
   -8.2136   17.4448  -32.3316 H   0  0  0  0  0  0  0  0  0  0  0  0
   -6.4295   17.6536  -32.3316 H   0  0  0  0  0  0  0  0  0  0  0  0
   -4.8353   20.3839  -32.2016 H   0  0  0  0  0  0  0  0  0  0  0  0
   -2.8389   22.5081  -28.9944 H   0  0  0  0  0  0  0  0  0  0  0  0
   -1.5902   21.4094  -25.7322 H   0  0  0  0  0  0  0  0  0  0  0  0
   -2.4899   20.9620  -27.2211 H   0  0  0  0  0  0  0  0  0  0  0  0
   -0.6936   20.9558  -27.2211 H   0  0  0  0  0  0  0  0  0  0  0  0
  1  2  1  0
  2  3  2  0
  3  4  1  0
  4  5  2  0
  5  6  1  0
  6  7  1  0
  7  8  2  0
  7  9  1  0
  9 10  1  0
 10 11  1  0
 11 12  2  0
 12 13  1  0
 13 14  1  0
 14 15  1  0
 14 16  2  0
 14 17  2  0
 13 18  2  0
 18 19  1  0
 19 20  2  0
  5 21  1  0
 21 22  2  0
 22 23  1  0
 22  2  1  0
 19 10  1  0
  1 24  1  0
  1 25  1  0
  1 26  1  0
  3 27  1  0
  4 28  1  0
  9 29  1  0
  9 30  1  0
 11 31  1  0
 12 32  1  0
 15 33  1  0
 15 34  1  0
 15 35  1  0
 18 36  1  0
 21 37  1  0
 23 38  1  0
 23 39  1  0
 23 40  1  0
M  CHG  1   6  -1
M  END
>  <UniqueID>  (18) 
15

>  <SMILES>  (18) 
Cc1ccc([N-]C(=O)Cn2ccc(S(C)(=O)=O)cc2=O)cc1C

>  <Energy>  (18) 
41.81927085704605

>  <Genealogy>  (18) 
Cc1ccc([N-]C(=O)Cn2ccc(S(C)(=O)=O)cc2=O)cc1C (protonated)
Cc1ccc([N-]C(=O)Cn2ccc(S(C)(=O)=O)cc2=O)cc1C (3D coordinates assigned)
Cc1ccc([N-]C(=O)Cn2ccc(S(C)(=O)=O)cc2=O)cc1C (optimized conformer: 41.81927085704605 kcal/mol)

>  <smiles>  (18) 
Cc1ccc(NC(=O)Cn2ccc(S(C)(=O)=O)cc2=O)cc1C

>  <score_type>  (18) 
oracle

>  <origin>  (18) 
adgpu

>  <m_score__min__energy>  (18) 
-9.75

>  <m_primary>  (18) 
energy

$$$$
18:0
     RDKit          3D

 55 58  0  0  0  0  0  0  0  0999 V2000
  -10.2041   21.6252  -31.9882 H   0  0  0  0  0  0  0  0  0  0  0  0
   -9.3390   20.9460  -31.9690 C   0  0  0  0  0  0  0  0  0  0  0  0
   -8.1500   21.3480  -31.3560 C   0  0  0  0  0  0  0  0  0  0  0  0
   -8.0796   22.3435  -30.8933 H   0  0  0  0  0  0  0  0  0  0  0  0
   -7.0490   20.4860  -31.3300 C   0  0  0  0  0  0  0  0  0  0  0  0
   -6.1145   20.8052  -30.8454 H   0  0  0  0  0  0  0  0  0  0  0  0
   -7.1320   19.2150  -31.9200 C   0  0  0  0  0  0  0  0  0  0  0  0
   -5.9470   18.2870  -31.8770 C   0  0  0  0  0  0  0  0  0  0  0  0
   -6.3016   17.2486  -31.7999 H   0  0  0  0  0  0  0  0  0  0  0  0
   -5.3264   18.5383  -31.0042 H   0  0  0  0  0  0  0  0  0  0  0  0
   -5.1350   18.4360  -33.1050 N   0  0  0  0  0  0  0  0  0  0  0  0
   -5.5160   19.6380  -33.8960 C   0  0  0  0  0  0  0  0  0  0  0  0
   -6.5219   19.9540  -33.5823 H   0  0  0  0  0  0  0  0  0  0  0  0
   -5.4747   19.3476  -34.9562 H   0  0  0  0  0  0  0  0  0  0  0  0
   -4.5570   20.8320  -33.7230 C   0  0  0  0  0  0  0  0  0  0  0  0
   -5.1217   21.7690  -33.8376 H   0  0  0  0  0  0  0  0  0  0  0  0
   -3.7684   20.7676  -34.4872 H   0  0  0  0  0  0  0  0  0  0  0  0
   -3.9340   20.8040  -32.3970 N   0  0  0  0  0  0  0  0  0  0  0  0
   -3.8780   21.9760  -31.5660 C   0  0  0  0  0  0  0  0  0  0  0  0
   -2.8640   22.1200  -30.6730 N   0  0  0  0  0  0  0  0  0  0  0  0
   -2.8020   23.2060  -29.8640 C   0  0  0  0  0  0  0  0  0  0  0  0
   -1.8020   23.3300  -29.0410 N   0  0  0  0  0  0  0  0  0  0  0  0
   -1.5980   24.3830  -28.0830 C   0  0  0  0  0  0  0  0  0  0  0  0
   -2.2240   24.2860  -26.8350 C   0  0  0  0  0  0  0  0  0  0  0  0
   -2.8381   23.4042  -26.5997 H   0  0  0  0  0  0  0  0  0  0  0  0
   -2.0750   25.3010  -25.8850 C   0  0  0  0  0  0  0  0  0  0  0  0
   -2.5668   25.2106  -24.9052 H   0  0  0  0  0  0  0  0  0  0  0  0
   -1.3010   26.4340  -26.1760 C   0  0  0  0  0  0  0  0  0  0  0  0
   -1.1760   27.5410  -25.1720 C   0  0  0  0  0  0  0  0  0  0  0  0
   -1.2233   27.1217  -24.1561 H   0  0  0  0  0  0  0  0  0  0  0  0
   -0.2140   28.0558  -25.3117 H   0  0  0  0  0  0  0  0  0  0  0  0
   -1.9990   28.2574  -25.3117 H   0  0  0  0  0  0  0  0  0  0  0  0
   -0.7140   26.5580  -27.4440 C   0  0  0  0  0  0  0  0  0  0  0  0
   -0.1335   27.4587  -27.6926 H   0  0  0  0  0  0  0  0  0  0  0  0
   -0.8630   25.5430  -28.3930 C   0  0  0  0  0  0  0  0  0  0  0  0
   -0.4039   25.6509  -29.3868 H   0  0  0  0  0  0  0  0  0  0  0  0
   -3.7610   24.1640  -29.9600 N   0  0  0  0  0  0  0  0  0  0  0  0
   -4.7910   24.0270  -30.8360 C   0  0  0  0  0  0  0  0  0  0  0  0
   -5.7210   24.9320  -30.9110 N   0  0  0  0  0  0  0  0  0  0  0  0
   -5.7490   26.1420  -30.0960 C   0  0  0  0  0  0  0  0  0  0  0  0
   -5.7426   25.8669  -29.0310 H   0  0  0  0  0  0  0  0  0  0  0  0
   -4.8648   26.7564  -30.3213 H   0  0  0  0  0  0  0  0  0  0  0  0
   -6.6606   26.7148  -30.3213 H   0  0  0  0  0  0  0  0  0  0  0  0
   -4.8520   22.9270  -31.6350 N   0  0  0  0  0  0  0  0  0  0  0  0
   -5.6670   22.8060  -32.2770 H   0  0  0  0  0  0  0  0  0  0  0  0
   -3.2310   19.5870  -31.9770 C   0  0  0  0  0  0  0  0  0  0  0  0
   -3.4495   19.3909  -30.9169 H   0  0  0  0  0  0  0  0  0  0  0  0
   -2.1505   19.7337  -32.1220 H   0  0  0  0  0  0  0  0  0  0  0  0
   -3.6850   18.3820  -32.8180 C   0  0  0  0  0  0  0  0  0  0  0  0
   -3.4644   17.4570  -32.2652 H   0  0  0  0  0  0  0  0  0  0  0  0
   -3.1429   18.4054  -33.7749 H   0  0  0  0  0  0  0  0  0  0  0  0
   -8.3330   18.8170  -32.5340 C   0  0  0  0  0  0  0  0  0  0  0  0
   -8.4087   17.8220  -32.9968 H   0  0  0  0  0  0  0  0  0  0  0  0
   -9.4310   19.6820  -32.5580 C   0  0  0  0  0  0  0  0  0  0  0  0
  -10.3680   19.3675  -33.0408 H   0  0  0  0  0  0  0  0  0  0  0  0
  1  2  1  0
  2  3  2  0
  3  4  1  0
  3  5  1  0
  5  6  1  0
  5  7  2  0
  7  8  1  0
  8  9  1  0
  8 10  1  0
  8 11  1  0
 11 12  1  0
 12 13  1  0
 12 14  1  0
 12 15  1  0
 15 16  1  0
 15 17  1  0
 15 18  1  0
 18 19  1  0
 19 20  2  0
 20 21  1  0
 21 22  2  0
 22 23  1  0
 23 24  2  0
 24 25  1  0
 24 26  1  0
 26 27  1  0
 26 28  2  0
 28 29  1  0
 29 30  1  0
 29 31  1  0
 29 32  1  0
 28 33  1  0
 33 34  1  0
 33 35  2  0
 35 36  1  0
 21 37  1  0
 37 38  1  0
 38 39  2  0
 39 40  1  0
 40 41  1  0
 40 42  1  0
 40 43  1  0
 38 44  1  0
 44 45  1  0
 18 46  1  0
 46 47  1  0
 46 48  1  0
 46 49  1  0
 49 50  1  0
 49 51  1  0
  7 52  1  0
 52 53  1  0
 52 54  2  0
 54 55  1  0
 54  2  1  0
 49 11  1  0
 44 19  1  0
 35 23  1  0
M  CHG  1  37  -1
M  END
>  <UniqueID>  (19) 
16

>  <SMILES>  (19) 
C/N=c1\[n-]/c(=N\c2ccc(C)cc2)nc(N2CCN(Cc3ccccc3)CC2)[nH]1

>  <Energy>  (19) 
72.73005474535037

>  <Genealogy>  (19) 
CN=c1[n-]c(=Nc2ccc(C)cc2)nc(N2CCN(Cc3ccccc3)CC2)[nH]1 (protonated)
C/N=c1\[n-]/c(=N\c2ccc(C)cc2)nc(N2CCN(Cc3ccccc3)CC2)[nH]1 (cis-trans isomerization)
C/N=c1\[n-]/c(=N\c2ccc(C)cc2)nc(N2CCN(Cc3ccccc3)CC2)[nH]1 (3D coordinates assigned)
C/N=c1\[n-]/c(=N\c2ccc(C)cc2)nc(N2CCN(Cc3ccccc3)CC2)[nH]1 (nonaromatic ring conformer: 72.73005474535037 kcal/mol)

>  <smiles>  (19) 
CN=c1[nH]c(N2CCN(Cc3ccccc3)CC2)nc(=Nc2ccc(C)cc2)[nH]1

>  <score_type>  (19) 
oracle

>  <origin>  (19) 
adgpu

>  <m_score__min__energy>  (19) 
-9.4800000000000004

>  <m_primary>  (19) 
energy

$$$$
19:0
     RDKit          3D

 48 50  0  0  0  0  0  0  0  0999 V2000
   -6.4770   25.6740  -29.0550 C   0  0  0  0  0  0  0  0  0  0  0  0
   -6.9100   25.2560  -30.3450 O   0  0  0  0  0  0  0  0  0  0  0  0
   -6.6480   23.9970  -30.9130 C   0  0  0  0  0  0  0  0  0  0  0  0
   -7.6970   23.1480  -31.3180 C   0  0  0  0  0  0  0  0  0  0  0  0
   -7.4260   21.8880  -31.8530 C   0  0  0  0  0  0  0  0  0  0  0  0
   -6.1090   21.4570  -31.9980 C   0  0  0  0  0  0  0  0  0  0  0  0
   -5.7740   19.8760  -32.6810 Cl  0  0  0  0  0  0  0  0  0  0  0  0
   -5.0560   22.2880  -31.6050 C   0  0  0  0  0  0  0  0  0  0  0  0
   -5.3070   23.5640  -31.0660 C   0  0  0  0  0  0  0  0  0  0  0  0
   -4.1560   24.4180  -30.6700 C   0  0  0  0  0  0  0  0  0  0  0  0
   -4.2210   25.6670  -30.8330 O   0  0  0  0  0  0  0  0  0  0  0  0
   -3.0040   23.8410  -30.0360 N   0  0  0  0  0  0  0  0  0  0  0  0
   -2.3480   24.3240  -28.8550 C   0  0  0  0  0  0  0  0  0  0  0  0
   -3.1040   24.4910  -27.6890 C   0  0  0  0  0  0  0  0  0  0  0  0
   -2.5040   24.9460  -26.5110 C   0  0  0  0  0  0  0  0  0  0  0  0
   -1.1290   25.2310  -26.4790 C   0  0  0  0  0  0  0  0  0  0  0  0
   -0.5040   25.6850  -25.2630 N   0  0  0  0  0  0  0  0  0  0  0  0
    0.9050   25.3570  -25.0010 C   0  0  0  0  0  0  0  0  0  0  0  0
    1.4500   26.1180  -23.7850 C   0  0  0  0  0  0  0  0  0  0  0  0
    1.0000   27.5210  -23.8110 N   0  0  0  0  0  0  0  0  0  0  0  0
    1.9190   28.5890  -23.4840 C   0  0  0  0  0  0  0  0  0  0  0  0
    1.5000   30.0280  -23.5480 C   0  0  0  0  0  0  0  0  0  0  0  0
    3.1000   28.3230  -23.1290 O   0  0  0  0  0  0  0  0  0  0  0  0
   -0.4190   27.8230  -24.0730 C   0  0  0  0  0  0  0  0  0  0  0  0
   -1.2300   26.5490  -24.3230 C   0  0  0  0  0  0  0  0  0  0  0  0
   -0.3650   25.0330  -27.6420 C   0  0  0  0  0  0  0  0  0  0  0  0
   -0.9660   24.5770  -28.8170 C   0  0  0  0  0  0  0  0  0  0  0  0
   -7.0416   25.1289  -28.2842 H   0  0  0  0  0  0  0  0  0  0  0  0
   -5.4036   25.4619  -28.9420 H   0  0  0  0  0  0  0  0  0  0  0  0
   -6.6512   26.7542  -28.9420 H   0  0  0  0  0  0  0  0  0  0  0  0
   -8.7397   23.4817  -31.2114 H   0  0  0  0  0  0  0  0  0  0  0  0
   -8.2544   21.2332  -32.1611 H   0  0  0  0  0  0  0  0  0  0  0  0
   -4.0185   21.9406  -31.7183 H   0  0  0  0  0  0  0  0  0  0  0  0
   -4.1799   24.2622  -27.6995 H   0  0  0  0  0  0  0  0  0  0  0  0
   -3.1120   25.0815  -25.6044 H   0  0  0  0  0  0  0  0  0  0  0  0
    0.9901   24.2766  -24.8125 H   0  0  0  0  0  0  0  0  0  0  0  0
    1.4945   25.6520  -25.8816 H   0  0  0  0  0  0  0  0  0  0  0  0
    1.0862   25.6380  -22.8645 H   0  0  0  0  0  0  0  0  0  0  0  0
    2.5494   26.0960  -23.8146 H   0  0  0  0  0  0  0  0  0  0  0  0
    1.3852   30.4222  -22.5275 H   0  0  0  0  0  0  0  0  0  0  0  0
    2.2661   30.6096  -24.0817 H   0  0  0  0  0  0  0  0  0  0  0  0
    0.5414   30.1074  -24.0817 H   0  0  0  0  0  0  0  0  0  0  0  0
   -0.8388   28.3482  -23.2024 H   0  0  0  0  0  0  0  0  0  0  0  0
   -0.4763   28.4496  -24.9753 H   0  0  0  0  0  0  0  0  0  0  0  0
   -1.3771   26.0152  -23.3725 H   0  0  0  0  0  0  0  0  0  0  0  0
   -2.2089   26.8143  -24.7489 H   0  0  0  0  0  0  0  0  0  0  0  0
    0.7154   25.2390  -27.6264 H   0  0  0  0  0  0  0  0  0  0  0  0
   -0.3549   24.4150  -29.7172 H   0  0  0  0  0  0  0  0  0  0  0  0
  1  2  1  0
  2  3  1  0
  3  4  2  0
  4  5  1  0
  5  6  2  0
  6  7  1  0
  6  8  1  0
  8  9  2  0
  9 10  1  0
 10 11  2  0
 10 12  1  0
 12 13  1  0
 13 14  2  0
 14 15  1  0
 15 16  2  0
 16 17  1  0
 17 18  1  0
 18 19  1  0
 19 20  1  0
 20 21  1  0
 21 22  1  0
 21 23  2  0
 20 24  1  0
 24 25  1  0
 16 26  1  0
 26 27  2  0
  9  3  1  0
 27 13  1  0
 25 17  1  0
  1 28  1  0
  1 29  1  0
  1 30  1  0
  4 31  1  0
  5 32  1  0
  8 33  1  0
 14 34  1  0
 15 35  1  0
 18 36  1  0
 18 37  1  0
 19 38  1  0
 19 39  1  0
 22 40  1  0
 22 41  1  0
 22 42  1  0
 24 43  1  0
 24 44  1  0
 25 45  1  0
 25 46  1  0
 26 47  1  0
 27 48  1  0
M  CHG  1  12  -1
M  END
>  <UniqueID>  (20) 
17

>  <SMILES>  (20) 
COc1ccc(Cl)cc1C(=O)[N-]c1ccc(N2CCN(C(C)=O)CC2)cc1

>  <Energy>  (20) 
58.824869676569996

>  <Genealogy>  (20) 
COc1ccc(Cl)cc1C(=O)[N-]c1ccc(N2CCN(C(C)=O)CC2)cc1 (protonated)
COc1ccc(Cl)cc1C(=O)[N-]c1ccc(N2CCN(C(C)=O)CC2)cc1 (3D coordinates assigned)
COc1ccc(Cl)cc1C(=O)[N-]c1ccc(N2CCN(C(C)=O)CC2)cc1 (nonaromatic ring conformer: 58.824869676569996 kcal/mol)

>  <smiles>  (20) 
COc1ccc(Cl)cc1C(=O)Nc1ccc(N2CCN(C(C)=O)CC2)cc1

>  <score_type>  (20) 
oracle

>  <origin>  (20) 
adgpu

>  <m_score__min__energy>  (20) 
-10.35

>  <m_primary>  (20) 
energy

$$$$
20:0
     RDKit          3D

 44 46  0  0  1  0  0  0  0  0999 V2000
   -6.3420   16.4460  -34.2120 C   0  0  0  0  0  0  0  0  0  0  0  0
   -5.6710   17.7290  -33.8690 C   0  0  0  0  0  0  0  0  0  0  0  0
   -6.4630   18.7860  -33.4500 C   0  0  0  0  0  0  0  0  0  0  0  0
   -5.8710   19.9890  -33.1250 C   0  0  0  0  0  0  0  0  0  0  0  0
   -4.5030   20.0980  -33.2300 C   0  0  0  0  0  0  0  0  0  0  0  0
   -3.7800   21.3770  -32.8930 C   0  0  0  0  0  0  0  0  0  0  0  0
   -4.8240   22.2710  -32.4050 N   0  0  0  0  0  0  0  0  0  0  0  0
   -4.6810   23.0160  -31.3880 C   0  0  0  0  0  0  0  0  0  0  0  0
   -3.5230   23.0060  -30.7030 N   0  0  0  0  0  0  0  0  0  0  0  0
   -3.3640   23.8050  -29.6100 C   0  0  0  0  0  0  0  0  0  0  0  0
   -2.1580   23.8110  -28.8770 N   0  0  0  0  0  0  0  0  0  0  0  0
   -0.9510   23.1600  -29.3750 C   0  0  0  0  0  0  0  0  0  0  0  0
    0.2600   23.5620  -28.6130 C   0  0  0  0  0  0  0  0  0  0  0  0
    0.2900   24.9220  -28.1870 N   0  0  0  0  0  0  0  0  0  0  0  0
   -0.9270   25.4470  -27.6590 C   0  0  0  0  0  0  0  0  0  0  0  0
   -2.0520   24.4660  -27.5860 C   0  0  0  0  0  0  0  0  0  0  0  0
   -4.3750   24.6010  -29.2240 N   0  0  0  0  0  0  0  0  0  0  0  0
   -5.5530   24.6220  -29.9070 C   0  0  0  0  0  0  0  0  0  0  0  0
   -6.8670   25.6730  -29.3840 Cl  0  0  0  0  0  0  0  0  0  0  0  0
   -5.7490   23.8280  -31.0150 C   0  0  0  0  0  0  0  0  0  0  0  0
   -7.0170   23.8190  -31.7910 C   0  0  0  0  0  0  0  0  0  0  0  0
   -3.7240   19.0400  -33.6470 C   0  0  0  0  0  0  0  0  0  0  0  0
   -4.3230   17.8660  -33.9620 N   0  0  0  0  0  0  0  0  0  0  0  0
   -6.6181   15.9180  -33.2874 H   0  0  0  0  0  0  0  0  0  0  0  0
   -7.2478   16.6520  -34.8011 H   0  0  0  0  0  0  0  0  0  0  0  0
   -5.6561   15.8195  -34.8011 H   0  0  0  0  0  0  0  0  0  0  0  0
   -7.5541   18.6669  -33.3772 H   0  0  0  0  0  0  0  0  0  0  0  0
   -6.4788   20.8422  -32.7894 H   0  0  0  0  0  0  0  0  0  0  0  0
   -3.0232   21.2018  -32.1142 H   0  0  0  0  0  0  0  0  0  0  0  0
   -3.2439   21.7941  -33.7583 H   0  0  0  0  0  0  0  0  0  0  0  0
   -1.0763   22.0704  -29.2916 H   0  0  0  0  0  0  0  0  0  0  0  0
   -0.8088   23.4682  -30.4213 H   0  0  0  0  0  0  0  0  0  0  0  0
    0.3256   22.9246  -27.7189 H   0  0  0  0  0  0  0  0  0  0  0  0
    1.1072   23.4418  -29.3042 H   0  0  0  0  0  0  0  0  0  0  0  0
    1.0340   25.0400  -27.4630 H   0  0  0  0  0  0  0  0  0  0  0  0
   -0.7280   25.8160  -26.6420 H   0  0  0  0  0  0  0  0  0  0  0  0
   -1.2498   26.2381  -28.3518 H   0  0  0  0  0  0  0  0  0  0  0  0
   -1.8470   23.7199  -26.8042 H   0  0  0  0  0  0  0  0  0  0  0  0
   -2.9927   24.9798  -27.3389 H   0  0  0  0  0  0  0  0  0  0  0  0
   -4.3350   25.2400  -28.4000 H   0  0  0  0  0  0  0  0  0  0  0  0
   -7.8711   23.8129  -31.0978 H   0  0  0  0  0  0  0  0  0  0  0  0
   -7.0655   24.7168  -32.4247 H   0  0  0  0  0  0  0  0  0  0  0  0
   -7.0527   22.9206  -32.4247 H   0  0  0  0  0  0  0  0  0  0  0  0
   -2.6319   19.1472  -33.7230 H   0  0  0  0  0  0  0  0  0  0  0  0
  1  2  1  0
  2  3  2  0
  3  4  1  0
  4  5  2  0
  5  6  1  0
  6  7  1  0
  7  8  2  0
  8  9  1  0
  9 10  2  0
 10 11  1  0
 11 12  1  0
 12 13  1  0
 13 14  1  0
 14 15  1  0
 15 16  1  0
 10 17  1  0
 17 18  1  0
 18 19  1  0
 18 20  2  0
 20 21  1  0
  5 22  1  0
 22 23  2  0
 23  2  1  0
 20  8  1  0
 16 11  1  0
  1 24  1  0
  1 25  1  0
  1 26  1  0
  3 27  1  0
  4 28  1  0
  6 29  1  0
  6 30  1  0
 12 31  1  0
 12 32  1  0
 13 33  1  0
 13 34  1  0
 14 35  1  0
 15 36  1  0
 15 37  1  0
 16 38  1  0
 16 39  1  0
 17 40  1  0
 21 41  1  0
 21 42  1  0
 21 43  1  0
 22 44  1  0
M  END
>  <smiles>  (21) 
Cc1ccc(CN=c2nc(N3CCNCC3)[nH]c(Cl)c2C)cn1

>  <score_type>  (21) 
oracle

>  <origin>  (21) 
adgpu

>  <m_score__min__energy>  (21) 
-8.0999999999999996

>  <m_primary>  (21) 
energy

$$$$
21:0
     RDKit          3D

 48 50  0  0  0  0  0  0  0  0999 V2000
   -2.4679   19.6107  -26.4007 H   0  0  0  0  0  0  0  0  0  0  0  0
   -1.4640   19.4620  -26.8250 C   0  0  0  0  0  0  0  0  0  0  0  0
   -0.6250   20.5180  -26.9700 N   0  0  0  0  0  0  0  0  0  0  0  0
    0.6260   20.3580  -27.4880 C   0  0  0  0  0  0  0  0  0  0  0  0
    1.4330   21.3680  -27.6100 N   0  0  0  0  0  0  0  0  0  0  0  0
    1.0330   22.9870  -27.1290 S   0  0  0  0  0  0  0  0  0  0  0  0
    0.7200   23.0070  -25.6600 O   0  0  0  0  0  0  0  0  0  0  0  0
    2.2110   23.8830  -27.3960 O   0  0  0  0  0  0  0  0  0  0  0  0
   -0.3790   23.5390  -28.0250 C   0  0  0  0  0  0  0  0  0  0  0  0
   -0.9310   22.7210  -29.0180 C   0  0  0  0  0  0  0  0  0  0  0  0
   -0.5347   21.7070  -29.1754 H   0  0  0  0  0  0  0  0  0  0  0  0
   -1.9820   23.1870  -29.8090 C   0  0  0  0  0  0  0  0  0  0  0  0
   -2.4122   22.5380  -30.5860 H   0  0  0  0  0  0  0  0  0  0  0  0
   -2.4930   24.4820  -29.6170 C   0  0  0  0  0  0  0  0  0  0  0  0
   -3.5020   25.0280  -30.4750 N   0  0  0  0  0  0  0  0  0  0  0  0
   -5.2030   24.8040  -30.2220 S   0  0  0  0  0  0  0  0  0  0  0  0
   -5.9400   26.0320  -30.6780 O   0  0  0  0  0  0  0  0  0  0  0  0
   -5.4700   24.5900  -28.7590 O   0  0  0  0  0  0  0  0  0  0  0  0
   -5.7470   23.4260  -31.1760 C   0  0  0  0  0  0  0  0  0  0  0  0
   -7.1000   23.0640  -31.2090 C   0  0  0  0  0  0  0  0  0  0  0  0
   -7.8458   23.6831  -30.6889 H   0  0  0  0  0  0  0  0  0  0  0  0
   -7.5060   21.9180  -31.9010 C   0  0  0  0  0  0  0  0  0  0  0  0
   -8.5674   21.6292  -31.9055 H   0  0  0  0  0  0  0  0  0  0  0  0
   -6.5650   21.1330  -32.5910 C   0  0  0  0  0  0  0  0  0  0  0  0
   -6.9430   19.9300  -33.2880 N   0  0  0  0  0  0  0  0  0  0  0  0
   -7.4930   20.0280  -34.1710 H   0  0  0  0  0  0  0  0  0  0  0  0
   -6.6830   18.5960  -32.8210 C   0  0  0  0  0  0  0  0  0  0  0  0
   -6.4200   18.3780  -31.6080 O   0  0  0  0  0  0  0  0  0  0  0  0
   -6.8340   17.4390  -33.7540 C   0  0  0  0  0  0  0  0  0  0  0  0
   -6.9549   16.5128  -33.1730 H   0  0  0  0  0  0  0  0  0  0  0  0
   -7.7197   17.5924  -34.3880 H   0  0  0  0  0  0  0  0  0  0  0  0
   -5.9386   17.3599  -34.3880 H   0  0  0  0  0  0  0  0  0  0  0  0
   -5.2100   21.4950  -32.5430 C   0  0  0  0  0  0  0  0  0  0  0  0
   -4.4616   20.8781  -33.0620 H   0  0  0  0  0  0  0  0  0  0  0  0
   -4.8040   22.6330  -31.8410 C   0  0  0  0  0  0  0  0  0  0  0  0
   -3.7391   22.9069  -31.8107 H   0  0  0  0  0  0  0  0  0  0  0  0
   -1.9800   25.2740  -28.5820 C   0  0  0  0  0  0  0  0  0  0  0  0
   -2.4111   26.2673  -28.3881 H   0  0  0  0  0  0  0  0  0  0  0  0
   -0.9230   24.8090  -27.7940 C   0  0  0  0  0  0  0  0  0  0  0  0
   -0.5176   25.4418  -26.9908 H   0  0  0  0  0  0  0  0  0  0  0  0
    1.0430   19.1210  -27.8660 N   0  0  0  0  0  0  0  0  0  0  0  0
    0.2300   18.0350  -27.7490 C   0  0  0  0  0  0  0  0  0  0  0  0
    0.7340   16.6820  -28.1360 C   0  0  0  0  0  0  0  0  0  0  0  0
    0.9514   16.0985  -27.2292 H   0  0  0  0  0  0  0  0  0  0  0  0
   -0.0309   16.1624  -28.7318 H   0  0  0  0  0  0  0  0  0  0  0  0
    1.6524   16.7894  -28.7318 H   0  0  0  0  0  0  0  0  0  0  0  0
   -1.0530   18.1890  -27.2140 C   0  0  0  0  0  0  0  0  0  0  0  0
   -1.7230   17.3237  -27.1028 H   0  0  0  0  0  0  0  0  0  0  0  0
  1  2  1  0
  2  3  1  0
  3  4  1  0
  4  5  2  0
  5  6  1  0
  6  7  2  0
  6  8  2  0
  6  9  1  0
  9 10  2  0
 10 11  1  0
 10 12  1  0
 12 13  1  0
 12 14  2  0
 14 15  1  0
 15 16  1  0
 16 17  2  0
 16 18  2  0
 16 19  1  0
 19 20  2  0
 20 21  1  0
 20 22  1  0
 22 23  1  0
 22 24  2  0
 24 25  1  0
 25 26  1  0
 25 27  1  0
 27 28  2  0
 27 29  1  0
 29 30  1  0
 29 31  1  0
 29 32  1  0
 24 33  1  0
 33 34  1  0
 33 35  2  0
 35 36  1  0
 14 37  1  0
 37 38  1  0
 37 39  2  0
 39 40  1  0
  4 41  1  0
 41 42  2  0
 42 43  1  0
 43 44  1  0
 43 45  1  0
 43 46  1  0
 42 47  1  0
 47 48  1  0
 47  2  2  0
 39  9  1  0
 35 19  1  0
M  CHG  2   3  -1  15  -1
M  END
>  <UniqueID>  (22) 
18

>  <SMILES>  (22) 
CC(=O)Nc1ccc(S(=O)(=O)[N-]c2ccc(S(=O)(=O)/N=c3/nc(C)cc[n-]3)cc2)cc1

>  <Energy>  (22) 
55.15189754082217

>  <Genealogy>  (22) 
CC(=O)Nc1ccc(S(=O)(=O)[N-]c2ccc(S(=O)(=O)N=c3nc(C)cc[n-]3)cc2)cc1 (protonated)
CC(=O)Nc1ccc(S(=O)(=O)[N-]c2ccc(S(=O)(=O)/N=c3/nc(C)cc[n-]3)cc2)cc1 (cis-trans isomerization)
CC(=O)Nc1ccc(S(=O)(=O)[N-]c2ccc(S(=O)(=O)/N=c3/nc(C)cc[n-]3)cc2)cc1 (3D coordinates assigned)
CC(=O)Nc1ccc(S(=O)(=O)[N-]c2ccc(S(=O)(=O)/N=c3/nc(C)cc[n-]3)cc2)cc1 (optimized conformer: 55.15189754082217 kcal/mol)

>  <smiles>  (22) 
CC(=O)Nc1ccc(S(=O)(=O)Nc2ccc(S(=O)(=O)N=c3nc(C)cc[nH]3)cc2)cc1

>  <score_type>  (22) 
oracle

>  <origin>  (22) 
adgpu

>  <m_score__min__energy>  (22) 
-11.279999999999999

>  <m_primary>  (22) 
energy

$$$$
22:0
     RDKit          3D

 32 34  0  0  0  0  0  0  0  0999 V2000
    1.5110   19.4520  -32.9380 C   0  0  0  0  0  0  0  0  0  0  0  0
    0.9740   20.7700  -32.8990 O   0  0  0  0  0  0  0  0  0  0  0  0
   -0.3710   21.0700  -32.6400 C   0  0  0  0  0  0  0  0  0  0  0  0
   -1.3000   20.9080  -33.6740 C   0  0  0  0  0  0  0  0  0  0  0  0
   -2.6530   21.1930  -33.4650 C   0  0  0  0  0  0  0  0  0  0  0  0
   -3.1030   21.6290  -32.2090 C   0  0  0  0  0  0  0  0  0  0  0  0
   -4.5360   21.9460  -32.0180 C   0  0  0  0  0  0  0  0  0  0  0  0
   -5.4310   21.0000  -32.2950 O   0  0  0  0  0  0  0  0  0  0  0  0
   -6.7420   21.1770  -32.1690 C   0  0  0  0  0  0  0  0  0  0  0  0
   -7.6150   20.1310  -32.4850 C   0  0  0  0  0  0  0  0  0  0  0  0
   -8.9950   20.3080  -32.3620 C   0  0  0  0  0  0  0  0  0  0  0  0
   -9.5100   21.5300  -31.9200 C   0  0  0  0  0  0  0  0  0  0  0  0
   -8.6460   22.5830  -31.5990 C   0  0  0  0  0  0  0  0  0  0  0  0
   -7.2540   22.4140  -31.7210 C   0  0  0  0  0  0  0  0  0  0  0  0
   -6.3450   23.4360  -31.4030 C   0  0  0  0  0  0  0  0  0  0  0  0
   -6.7560   24.5540  -30.9880 O   0  0  0  0  0  0  0  0  0  0  0  0
   -4.9680   23.2020  -31.5410 C   0  0  0  0  0  0  0  0  0  0  0  0
   -4.0390   24.1820  -31.1870 O   0  0  0  0  0  0  0  0  0  0  0  0
   -2.1670   21.8120  -31.1750 C   0  0  0  0  0  0  0  0  0  0  0  0
   -0.8150   21.5290  -31.3860 C   0  0  0  0  0  0  0  0  0  0  0  0
    1.6600   19.0863  -31.9113 H   0  0  0  0  0  0  0  0  0  0  0  0
    0.8122   18.7868  -33.4664 H   0  0  0  0  0  0  0  0  0  0  0  0
    2.4757   19.4646  -33.4664 H   0  0  0  0  0  0  0  0  0  0  0  0
   -0.9631   20.5535  -34.6593 H   0  0  0  0  0  0  0  0  0  0  0  0
   -3.3698   21.0746  -34.2909 H   0  0  0  0  0  0  0  0  0  0  0  0
   -7.2140   19.1670  -32.8311 H   0  0  0  0  0  0  0  0  0  0  0  0
   -9.6784   19.4836  -32.6136 H   0  0  0  0  0  0  0  0  0  0  0  0
  -10.5976   21.6643  -31.8242 H   0  0  0  0  0  0  0  0  0  0  0  0
   -9.0549   23.5431  -31.2512 H   0  0  0  0  0  0  0  0  0  0  0  0
   -3.1130   24.2240  -31.5950 H   0  0  0  0  0  0  0  0  0  0  0  0
   -2.5016   22.1803  -30.1940 H   0  0  0  0  0  0  0  0  0  0  0  0
   -0.0935   21.6658  -30.5670 H   0  0  0  0  0  0  0  0  0  0  0  0
  1  2  1  0
  2  3  1  0
  3  4  2  0
  4  5  1  0
  5  6  2  0
  6  7  1  0
  7  8  1  0
  8  9  1  0
  9 10  2  0
 10 11  1  0
 11 12  2  0
 12 13  1  0
 13 14  2  0
 14 15  1  0
 15 16  2  0
 15 17  1  0
 17 18  1  0
  6 19  1  0
 19 20  2  0
 20  3  1  0
 17  7  2  0
 14  9  1  0
  1 21  1  0
  1 22  1  0
  1 23  1  0
  4 24  1  0
  5 25  1  0
 10 26  1  0
 11 27  1  0
 12 28  1  0
 13 29  1  0
 18 30  1  0
 19 31  1  0
 20 32  1  0
M  END
>  <UniqueID>  (23) 
19

>  <SMILES>  (23) 
COc1ccc(-c2oc3ccccc3c(=O)c2O)cc1

>  <Energy>  (23) 
45.12479411603489

>  <Genealogy>  (23) 
COc1ccc(-c2oc3ccccc3c(=O)c2O)cc1 (3D coordinates assigned)
COc1ccc(-c2oc3ccccc3c(=O)c2O)cc1 (optimized conformer: 45.12479411603489 kcal/mol)

>  <smiles>  (23) 
COc1ccc(-c2oc3ccccc3c(=O)c2O)cc1

>  <score_type>  (23) 
oracle

>  <origin>  (23) 
adgpu

>  <m_score__min__energy>  (23) 
-7.4400000000000004

>  <m_primary>  (23) 
energy

$$$$
23:0
     RDKit          3D

 36 39  0  0  0  0  0  0  0  0999 V2000
   -3.7480   19.1470  -31.8550 H   0  0  0  0  0  0  0  0  0  0  0  0
   -4.1210   20.1130  -31.7380 N   0  0  0  0  0  0  0  0  0  0  0  0
   -5.2560   20.4970  -32.2370 C   0  0  0  0  0  0  0  0  0  0  0  0
   -5.8230   21.7430  -32.0560 C   0  0  0  0  0  0  0  0  0  0  0  0
   -5.2710   22.8970  -31.3330 C   0  0  0  0  0  0  0  0  0  0  0  0
   -5.3590   24.1700  -31.7590 N   0  0  0  0  0  0  0  0  0  0  0  0
   -4.7500   24.9110  -30.8460 N   0  0  0  0  0  0  0  0  0  0  0  0
   -4.3150   24.0580  -29.8980 C   0  0  0  0  0  0  0  0  0  0  0  0
   -3.5820   24.4650  -28.6960 C   0  0  0  0  0  0  0  0  0  0  0  0
   -1.9770   24.9630  -28.6530 S   0  0  0  0  0  0  0  0  0  0  0  0
   -1.9170   25.2310  -26.9930 C   0  0  0  0  0  0  0  0  0  0  0  0
   -1.0411   25.5842  -26.4290 H   0  0  0  0  0  0  0  0  0  0  0  0
   -3.1630   24.9300  -26.4560 C   0  0  0  0  0  0  0  0  0  0  0  0
   -3.3942   25.0204  -25.3844 H   0  0  0  0  0  0  0  0  0  0  0  0
   -4.0960   24.5010  -27.4070 C   0  0  0  0  0  0  0  0  0  0  0  0
   -5.1304   24.2211  -27.1585 H   0  0  0  0  0  0  0  0  0  0  0  0
   -4.6310   22.8190  -30.1910 O   0  0  0  0  0  0  0  0  0  0  0  0
   -7.0530   21.6640  -32.6860 C   0  0  0  0  0  0  0  0  0  0  0  0
   -7.7940   22.4745  -32.7503 H   0  0  0  0  0  0  0  0  0  0  0  0
   -7.1920   20.4280  -33.2080 N   0  0  0  0  0  0  0  0  0  0  0  0
   -8.0150   20.0840  -33.7500 H   0  0  0  0  0  0  0  0  0  0  0  0
   -6.1020   19.7190  -32.9490 N   0  0  0  0  0  0  0  0  0  0  0  0
   -5.9100   18.3640  -33.3900 C   0  0  0  0  0  0  0  0  0  0  0  0
   -6.9010   17.3930  -33.1770 C   0  0  0  0  0  0  0  0  0  0  0  0
   -7.8453   17.6738  -32.6877 H   0  0  0  0  0  0  0  0  0  0  0  0
   -6.6950   16.0710  -33.5830 C   0  0  0  0  0  0  0  0  0  0  0  0
   -7.4770   15.3167  -33.4112 H   0  0  0  0  0  0  0  0  0  0  0  0
   -5.4940   15.7030  -34.2090 C   0  0  0  0  0  0  0  0  0  0  0  0
   -5.2560   14.2780  -34.6090 C   0  0  0  0  0  0  0  0  0  0  0  0
   -5.1522   13.6565  -33.7073 H   0  0  0  0  0  0  0  0  0  0  0  0
   -6.1065   13.9180  -35.2066 H   0  0  0  0  0  0  0  0  0  0  0  0
   -4.3347   14.2139  -35.2066 H   0  0  0  0  0  0  0  0  0  0  0  0
   -4.4880   16.6660  -34.3900 C   0  0  0  0  0  0  0  0  0  0  0  0
   -3.5328   16.3801  -34.8547 H   0  0  0  0  0  0  0  0  0  0  0  0
   -4.6960   17.9860  -33.9820 C   0  0  0  0  0  0  0  0  0  0  0  0
   -3.9023   18.7338  -34.1261 H   0  0  0  0  0  0  0  0  0  0  0  0
  1  2  1  0
  2  3  2  0
  3  4  1  0
  4  5  1  0
  5  6  2  0
  6  7  1  0
  7  8  2  0
  8  9  1  0
  9 10  1  0
 10 11  1  0
 11 12  1  0
 11 13  2  0
 13 14  1  0
 13 15  1  0
 15 16  1  0
  8 17  1  0
  4 18  2  0
 18 19  1  0
 18 20  1  0
 20 21  1  0
 20 22  1  0
 22 23  1  0
 23 24  2  0
 24 25  1  0
 24 26  1  0
 26 27  1  0
 26 28  2  0
 28 29  1  0
 29 30  1  0
 29 31  1  0
 29 32  1  0
 28 33  1  0
 33 34  1  0
 33 35  2  0
 35 36  1  0
 22  3  1  0
 35 23  1  0
 17  5  1  0
 15  9  2  0
M  END
>  <UniqueID>  (24) 
20

>  <SMILES>  (24) 
[H]/N=c1/c(-c2nnc(-c3cccs3)o2)c[nH]n1-c1ccc(C)cc1

>  <Energy>  (24) 
137.8204828456443

>  <Genealogy>  (24) 
[H]/N=c1/c(-c2nnc(-c3cccs3)o2)c[nH]n1-c1ccc(C)cc1 (cis-trans isomerization)
[H]/N=c1/c(-c2nnc(-c3cccs3)o2)c[nH]n1-c1ccc(C)cc1 (3D coordinates assigned)
[H]/N=c1/c(-c2nnc(-c3cccs3)o2)c[nH]n1-c1ccc(C)cc1 (optimized conformer: 137.8204828456443 kcal/mol)

>  <smiles>  (24) 
Cc1ccc(-n2[nH]cc(-c3nnc(-c4cccs4)o3)c2=N)cc1

>  <score_type>  (24) 
oracle

>  <origin>  (24) 
adgpu

>  <m_score__min__energy>  (24) 
-7.8600000000000003

>  <m_primary>  (24) 
energy

$$$$
24:0
     RDKit          3D

 49 51  0  0  0  0  0  0  0  0999 V2000
   -8.6518   21.1624  -29.6054 H   0  0  0  0  0  0  0  0  0  0  0  0
   -8.1510   21.9160  -30.2310 C   0  0  0  0  0  0  0  0  0  0  0  0
   -7.2440   22.8080  -29.6520 C   0  0  0  0  0  0  0  0  0  0  0  0
   -7.0257   22.7468  -28.5756 H   0  0  0  0  0  0  0  0  0  0  0  0
   -6.6120   23.7800  -30.4390 C   0  0  0  0  0  0  0  0  0  0  0  0
   -5.4380   24.8830  -29.7300 S   0  0  0  0  0  0  0  0  0  0  0  0
   -6.1220   25.8890  -28.8470 O   0  0  0  0  0  0  0  0  0  0  0  0
   -4.7210   25.6050  -30.8350 O   0  0  0  0  0  0  0  0  0  0  0  0
   -4.2880   23.9960  -28.7860 N   0  0  0  0  0  0  0  0  0  0  0  0
   -3.0290   24.3020  -28.7520 C   0  0  0  0  0  0  0  0  0  0  0  0
   -2.4810   25.2970  -29.4100 O   0  0  0  0  0  0  0  0  0  0  0  0
   -1.2010   25.3560  -29.1720 N   0  0  0  0  0  0  0  0  0  0  0  0
   -0.9090   24.3460  -28.3250 C   0  0  0  0  0  0  0  0  0  0  0  0
    0.4560   24.0810  -27.7780 C   0  0  0  0  0  0  0  0  0  0  0  0
    0.4183   24.0883  -26.6787 H   0  0  0  0  0  0  0  0  0  0  0  0
    0.8061   23.0981  -28.1263 H   0  0  0  0  0  0  0  0  0  0  0  0
    1.1485   24.8615  -28.1263 H   0  0  0  0  0  0  0  0  0  0  0  0
   -2.0630   23.6460  -28.0250 C   0  0  0  0  0  0  0  0  0  0  0  0
   -2.2160   22.4700  -27.1110 C   0  0  0  0  0  0  0  0  0  0  0  0
   -2.1718   22.8098  -26.0657 H   0  0  0  0  0  0  0  0  0  0  0  0
   -3.1849   21.9840  -27.2979 H   0  0  0  0  0  0  0  0  0  0  0  0
   -1.4037   21.7522  -27.2979 H   0  0  0  0  0  0  0  0  0  0  0  0
   -6.9160   23.8700  -31.8040 C   0  0  0  0  0  0  0  0  0  0  0  0
   -6.4388   24.6448  -32.4221 H   0  0  0  0  0  0  0  0  0  0  0  0
   -7.8230   22.9790  -32.3820 C   0  0  0  0  0  0  0  0  0  0  0  0
   -8.0666   23.0624  -33.4514 H   0  0  0  0  0  0  0  0  0  0  0  0
   -8.4260   21.9760  -31.6030 C   0  0  0  0  0  0  0  0  0  0  0  0
   -9.3400   21.0290  -32.1720 N   0  0  0  0  0  0  0  0  0  0  0  0
   -8.9950   19.7440  -32.7130 C   0  0  0  0  0  0  0  0  0  0  0  0
   -9.9250   18.9620  -33.0450 O   0  0  0  0  0  0  0  0  0  0  0  0
   -7.5880   19.2980  -32.8430 C   0  0  0  0  0  0  0  0  0  0  0  0
   -7.2680   17.9360  -32.7250 C   0  0  0  0  0  0  0  0  0  0  0  0
   -8.0663   17.2075  -32.5202 H   0  0  0  0  0  0  0  0  0  0  0  0
   -5.9490   17.4920  -32.8640 C   0  0  0  0  0  0  0  0  0  0  0  0
   -5.6960   16.1170  -32.7450 O   0  0  0  0  0  0  0  0  0  0  0  0
   -5.7780   15.1880  -33.8200 C   0  0  0  0  0  0  0  0  0  0  0  0
   -5.8680   14.1683  -33.4173 H   0  0  0  0  0  0  0  0  0  0  0  0
   -6.6594   15.4178  -34.4368 H   0  0  0  0  0  0  0  0  0  0  0  0
   -4.8700   15.2599  -34.4368 H   0  0  0  0  0  0  0  0  0  0  0  0
   -4.9300   18.4290  -33.1200 C   0  0  0  0  0  0  0  0  0  0  0  0
   -3.8914   18.0876  -33.2418 H   0  0  0  0  0  0  0  0  0  0  0  0
   -5.2320   19.8000  -33.2210 C   0  0  0  0  0  0  0  0  0  0  0  0
   -4.2520   20.7720  -33.4660 O   0  0  0  0  0  0  0  0  0  0  0  0
   -4.0370   21.9210  -32.6540 C   0  0  0  0  0  0  0  0  0  0  0  0
   -4.0904   21.6354  -31.5931 H   0  0  0  0  0  0  0  0  0  0  0  0
   -3.0444   22.3426  -32.8707 H   0  0  0  0  0  0  0  0  0  0  0  0
   -4.8100   22.6730  -32.8707 H   0  0  0  0  0  0  0  0  0  0  0  0
   -6.5560   20.2230  -33.0710 C   0  0  0  0  0  0  0  0  0  0  0  0
   -6.7929   21.2954  -33.1324 H   0  0  0  0  0  0  0  0  0  0  0  0
  1  2  1  0
  2  3  2  0
  3  4  1  0
  3  5  1  0
  5  6  1  0
  6  7  2  0
  6  8  2  0
  6  9  1  0
  9 10  2  0
 10 11  1  0
 11 12  1  0
 12 13  1  0
 13 14  1  0
 14 15  1  0
 14 16  1  0
 14 17  1  0
 13 18  2  0
 18 19  1  0
 19 20  1  0
 19 21  1  0
 19 22  1  0
  5 23  2  0
 23 24  1  0
 23 25  1  0
 25 26  1  0
 25 27  2  0
 27 28  1  0
 28 29  1  0
 29 30  2  0
 29 31  1  0
 31 32  2  0
 32 33  1  0
 32 34  1  0
 34 35  1  0
 35 36  1  0
 36 37  1  0
 36 38  1  0
 36 39  1  0
 34 40  2  0
 40 41  1  0
 40 42  1  0
 42 43  1  0
 43 44  1  0
 44 45  1  0
 44 46  1  0
 44 47  1  0
 42 48  2  0
 48 49  1  0
 27  2  1  0
 48 31  1  0
 18 10  1  0
M  CHG  2  12  -1  28  -1
M  END
>  <UniqueID>  (25) 
21

>  <SMILES>  (25) 
COc1cc(OC)cc(C(=O)[N-]c2ccc(S(=O)(=O)/N=c3\o[n-]c(C)c3C)cc2)c1

>  <Energy>  (25) 
86.86985988456591

>  <Genealogy>  (25) 
COc1cc(OC)cc(C(=O)[N-]c2ccc(S(=O)(=O)N=c3o[n-]c(C)c3C)cc2)c1 (protonated)
COc1cc(OC)cc(C(=O)[N-]c2ccc(S(=O)(=O)/N=c3\o[n-]c(C)c3C)cc2)c1 (cis-trans isomerization)
COc1cc(OC)cc(C(=O)[N-]c2ccc(S(=O)(=O)/N=c3\o[n-]c(C)c3C)cc2)c1 (3D coordinates assigned)
COc1cc(OC)cc(C(=O)[N-]c2ccc(S(=O)(=O)/N=c3\o[n-]c(C)c3C)cc2)c1 (optimized conformer: 86.86985988456591 kcal/mol)

>  <smiles>  (25) 
COc1cc(OC)cc(C(=O)Nc2ccc(S(=O)(=O)N=c3o[nH]c(C)c3C)cc2)c1

>  <score_type>  (25) 
oracle

>  <origin>  (25) 
adgpu

>  <m_score__min__energy>  (25) 
-12.32

>  <m_primary>  (25) 
energy

$$$$
25:0
     RDKit          3D

 54 56  0  0  0  0  0  0  0  0999 V2000
   -3.2040   19.7970  -33.5790 C   0  0  0  0  0  0  0  0  0  0  0  0
   -4.3390   19.2380  -34.2320 O   0  0  0  0  0  0  0  0  0  0  0  0
   -5.5280   18.8600  -33.5870 C   0  0  0  0  0  0  0  0  0  0  0  0
   -6.3050   19.7870  -32.8620 C   0  0  0  0  0  0  0  0  0  0  0  0
   -7.5100   19.3920  -32.2610 C   0  0  0  0  0  0  0  0  0  0  0  0
   -8.3560   20.3940  -31.5220 C   0  0  0  0  0  0  0  0  0  0  0  0
   -8.5290   21.5960  -32.3450 N   0  0  0  0  0  0  0  0  0  0  0  0
   -8.6640   22.7820  -31.4920 C   0  0  0  0  0  0  0  0  0  0  0  0
   -7.3090   23.3870  -31.2480 C   0  0  0  0  0  0  0  0  0  0  0  0
   -7.1730   24.5120  -30.4210 C   0  0  0  0  0  0  0  0  0  0  0  0
   -5.9080   25.0530  -30.1690 C   0  0  0  0  0  0  0  0  0  0  0  0
   -4.7620   24.4650  -30.7170 C   0  0  0  0  0  0  0  0  0  0  0  0
   -3.4870   25.0690  -30.4500 N   0  0  0  0  0  0  0  0  0  0  0  0
   -2.6340   24.8060  -29.3290 C   0  0  0  0  0  0  0  0  0  0  0  0
   -2.7990   23.5350  -28.5640 C   0  0  0  0  0  0  0  0  0  0  0  0
   -1.6890   25.5860  -29.0350 O   0  0  0  0  0  0  0  0  0  0  0  0
   -4.8980   23.3420  -31.5520 C   0  0  0  0  0  0  0  0  0  0  0  0
   -6.1630   22.8000  -31.8030 C   0  0  0  0  0  0  0  0  0  0  0  0
   -7.9580   18.0730  -32.4150 C   0  0  0  0  0  0  0  0  0  0  0  0
   -7.1900   17.1490  -33.1240 C   0  0  0  0  0  0  0  0  0  0  0  0
   -5.9670   17.5240  -33.6890 C   0  0  0  0  0  0  0  0  0  0  0  0
   -5.2290   16.5540  -34.3820 O   0  0  0  0  0  0  0  0  0  0  0  0
   -4.1780   15.7990  -33.8390 C   0  0  0  0  0  0  0  0  0  0  0  0
   -2.8740   16.0500  -34.2800 C   0  0  0  0  0  0  0  0  0  0  0  0
   -1.8040   15.3080  -33.7770 C   0  0  0  0  0  0  0  0  0  0  0  0
   -2.0270   14.3060  -32.8300 C   0  0  0  0  0  0  0  0  0  0  0  0
   -3.3280   14.0460  -32.3630 C   0  0  0  0  0  0  0  0  0  0  0  0
   -3.5880   12.9400  -31.3730 C   0  0  0  0  0  0  0  0  0  0  0  0
   -4.5840   13.3140  -30.4880 F   0  0  0  0  0  0  0  0  0  0  0  0
   -3.9920   11.8040  -32.0510 F   0  0  0  0  0  0  0  0  0  0  0  0
   -2.4490   12.6470  -30.6430 F   0  0  0  0  0  0  0  0  0  0  0  0
   -4.4040   14.7760  -32.8980 C   0  0  0  0  0  0  0  0  0  0  0  0
   -3.3384   19.7308  -32.4893 H   0  0  0  0  0  0  0  0  0  0  0  0
   -2.3015   19.2403  -33.8716 H   0  0  0  0  0  0  0  0  0  0  0  0
   -3.0952   20.8518  -33.8716 H   0  0  0  0  0  0  0  0  0  0  0  0
   -5.9637   20.8284  -32.7668 H   0  0  0  0  0  0  0  0  0  0  0  0
   -9.3406   19.9534  -31.3065 H   0  0  0  0  0  0  0  0  0  0  0  0
   -7.8592   20.6660  -30.5790 H   0  0  0  0  0  0  0  0  0  0  0  0
   -7.6640   21.7150  -32.9240 H   0  0  0  0  0  0  0  0  0  0  0  0
   -9.3095   23.5198  -31.9909 H   0  0  0  0  0  0  0  0  0  0  0  0
   -9.1116   22.4904  -30.5304 H   0  0  0  0  0  0  0  0  0  0  0  0
   -8.0648   24.9705  -29.9689 H   0  0  0  0  0  0  0  0  0  0  0  0
   -5.8130   25.9472  -29.5355 H   0  0  0  0  0  0  0  0  0  0  0  0
   -2.7711   23.7499  -27.4856 H   0  0  0  0  0  0  0  0  0  0  0  0
   -3.7644   23.0748  -28.8213 H   0  0  0  0  0  0  0  0  0  0  0  0
   -1.9831   22.8436  -28.8213 H   0  0  0  0  0  0  0  0  0  0  0  0
   -4.0066   22.8880  -32.0095 H   0  0  0  0  0  0  0  0  0  0  0  0
   -6.2592   21.9080  -32.4395 H   0  0  0  0  0  0  0  0  0  0  0  0
   -8.9183   17.7653  -31.9754 H   0  0  0  0  0  0  0  0  0  0  0  0
   -7.5498   16.1160  -33.2397 H   0  0  0  0  0  0  0  0  0  0  0  0
   -2.6911   16.8363  -35.0271 H   0  0  0  0  0  0  0  0  0  0  0  0
   -0.7818   15.5132  -34.1277 H   0  0  0  0  0  0  0  0  0  0  0  0
   -1.1805   13.7169  -32.4473 H   0  0  0  0  0  0  0  0  0  0  0  0
   -5.4312   14.5460  -32.5788 H   0  0  0  0  0  0  0  0  0  0  0  0
  1  2  1  0
  2  3  1  0
  3  4  2  0
  4  5  1  0
  5  6  1  0
  6  7  1  0
  7  8  1  0
  8  9  1  0
  9 10  2  0
 10 11  1  0
 11 12  2  0
 12 13  1  0
 13 14  1  0
 14 15  1  0
 14 16  2  0
 12 17  1  0
 17 18  2  0
  5 19  2  0
 19 20  1  0
 20 21  2  0
 21 22  1  0
 22 23  1  0
 23 24  2  0
 24 25  1  0
 25 26  2  0
 26 27  1  0
 27 28  1  0
 28 29  1  0
 28 30  1  0
 28 31  1  0
 27 32  2  0
 21  3  1  0
 32 23  1  0
 18  9  1  0
  1 33  1  0
  1 34  1  0
  1 35  1  0
  4 36  1  0
  6 37  1  0
  6 38  1  0
  7 39  1  0
  8 40  1  0
  8 41  1  0
 10 42  1  0
 11 43  1  0
 15 44  1  0
 15 45  1  0
 15 46  1  0
 17 47  1  0
 18 48  1  0
 19 49  1  0
 20 50  1  0
 24 51  1  0
 25 52  1  0
 26 53  1  0
 32 54  1  0
M  CHG  1  13  -1
M  END
>  <UniqueID>  (26) 
22

>  <SMILES>  (26) 
COc1cc(CNCc2ccc([N-]C(C)=O)cc2)ccc1Oc1cccc(C(F)(F)F)c1

>  <Energy>  (26) 
62.285399667673325

>  <Genealogy>  (26) 
COc1cc(CNCc2ccc([N-]C(C)=O)cc2)ccc1Oc1cccc(C(F)(F)F)c1 (protonated)
COc1cc(CNCc2ccc([N-]C(C)=O)cc2)ccc1Oc1cccc(C(F)(F)F)c1 (3D coordinates assigned)
COc1cc(CNCc2ccc([N-]C(C)=O)cc2)ccc1Oc1cccc(C(F)(F)F)c1 (optimized conformer: 62.285399667673325 kcal/mol)

>  <smiles>  (26) 
COc1cc(CNCc2ccc(NC(C)=O)cc2)ccc1Oc1cccc(C(F)(F)F)c1

>  <score_type>  (26) 
oracle

>  <origin>  (26) 
adgpu

>  <m_score__min__energy>  (26) 
-10.59

>  <m_primary>  (26) 
energy

$$$$
26:0
     RDKit          3D

 50 52  0  0  0  0  0  0  0  0999 V2000
   -5.9605   23.9869  -30.7316 H   0  0  0  0  0  0  0  0  0  0  0  0
   -6.0030   23.0360  -31.2830 C   0  0  0  0  0  0  0  0  0  0  0  0
   -7.1540   22.6920  -31.9920 C   0  0  0  0  0  0  0  0  0  0  0  0
   -8.0240   23.3651  -31.9862 H   0  0  0  0  0  0  0  0  0  0  0  0
   -7.2040   21.4950  -32.7090 C   0  0  0  0  0  0  0  0  0  0  0  0
   -8.1284   21.2127  -33.2342 H   0  0  0  0  0  0  0  0  0  0  0  0
   -6.0840   20.6470  -32.7660 C   0  0  0  0  0  0  0  0  0  0  0  0
   -6.1750   19.3440  -33.4680 C   0  0  0  0  0  0  0  0  0  0  0  0
   -5.6650   19.2710  -34.6200 O   0  0  0  0  0  0  0  0  0  0  0  0
   -6.8290   18.1730  -32.9040 N   0  0  0  0  0  0  0  0  0  0  0  0
   -7.4490   18.1580  -31.5630 C   0  0  0  0  0  0  0  0  0  0  0  0
   -6.8877   18.8368  -30.9041 H   0  0  0  0  0  0  0  0  0  0  0  0
   -7.4201   17.1251  -31.1857 H   0  0  0  0  0  0  0  0  0  0  0  0
   -8.9060   18.6050  -31.6050 C   0  0  0  0  0  0  0  0  0  0  0  0
   -9.2837   18.7209  -30.5784 H   0  0  0  0  0  0  0  0  0  0  0  0
   -8.9793   19.5670  -32.1334 H   0  0  0  0  0  0  0  0  0  0  0  0
   -9.5062   17.8497  -32.1334 H   0  0  0  0  0  0  0  0  0  0  0  0
   -6.8630   16.9340  -33.7020 C   0  0  0  0  0  0  0  0  0  0  0  0
   -7.5933   16.2400  -33.2604 H   0  0  0  0  0  0  0  0  0  0  0  0
   -7.1508   17.1854  -34.7335 H   0  0  0  0  0  0  0  0  0  0  0  0
   -5.4900   16.2690  -33.7240 C   0  0  0  0  0  0  0  0  0  0  0  0
   -5.1466   16.1027  -32.6923 H   0  0  0  0  0  0  0  0  0  0  0  0
   -5.5583   15.3041  -34.2478 H   0  0  0  0  0  0  0  0  0  0  0  0
   -4.7753   16.9208  -34.2478 H   0  0  0  0  0  0  0  0  0  0  0  0
   -4.9340   20.9790  -32.0030 C   0  0  0  0  0  0  0  0  0  0  0  0
   -3.8340   20.1160  -31.9070 O   0  0  0  0  0  0  0  0  0  0  0  0
   -2.5900   20.3650  -32.4970 C   0  0  0  0  0  0  0  0  0  0  0  0
   -2.3990   20.0400  -33.8440 C   0  0  0  0  0  0  0  0  0  0  0  0
   -3.2090   19.5578  -34.4109 H   0  0  0  0  0  0  0  0  0  0  0  0
   -1.1840   20.3250  -34.4730 C   0  0  0  0  0  0  0  0  0  0  0  0
   -1.0427   20.0700  -35.5337 H   0  0  0  0  0  0  0  0  0  0  0  0
   -0.1410   20.9370  -33.7540 C   0  0  0  0  0  0  0  0  0  0  0  0
    1.1130   21.2660  -34.3710 N   0  0  0  0  0  0  0  0  0  0  0  0
    1.3210   22.2790  -35.1600 C   0  0  0  0  0  0  0  0  0  0  0  0
    0.4090   23.2300  -35.4450 N   0  0  0  0  0  0  0  0  0  0  0  0
    1.0100   24.1060  -36.2330 N   0  0  0  0  0  0  0  0  0  0  0  0
    0.3850   25.3340  -36.7050 C   0  0  0  0  0  0  0  0  0  0  0  0
    0.0752   25.9427  -35.8427 H   0  0  0  0  0  0  0  0  0  0  0  0
    1.1043   25.9008  -37.3144 H   0  0  0  0  0  0  0  0  0  0  0  0
   -0.4966   25.0860  -37.3144 H   0  0  0  0  0  0  0  0  0  0  0  0
    2.2960   23.7480  -36.4300 C   0  0  0  0  0  0  0  0  0  0  0  0
    3.0326   24.3033  -37.0292 H   0  0  0  0  0  0  0  0  0  0  0  0
    2.5320   22.5690  -35.7540 C   0  0  0  0  0  0  0  0  0  0  0  0
    3.4681   21.9938  -35.7009 H   0  0  0  0  0  0  0  0  0  0  0  0
   -0.3070   21.1840  -32.3860 C   0  0  0  0  0  0  0  0  0  0  0  0
    0.5265   21.5983  -31.7999 H   0  0  0  0  0  0  0  0  0  0  0  0
   -1.5260   20.9070  -31.7610 C   0  0  0  0  0  0  0  0  0  0  0  0
   -1.6515   21.1148  -30.6881 H   0  0  0  0  0  0  0  0  0  0  0  0
   -4.9050   22.1740  -31.2730 C   0  0  0  0  0  0  0  0  0  0  0  0
   -4.0109   22.4351  -30.6878 H   0  0  0  0  0  0  0  0  0  0  0  0
  1  2  1  0
  2  3  2  0
  3  4  1  0
  3  5  1  0
  5  6  1  0
  5  7  2  0
  7  8  1  0
  8  9  2  0
  8 10  1  0
 10 11  1  0
 11 12  1  0
 11 13  1  0
 11 14  1  0
 14 15  1  0
 14 16  1  0
 14 17  1  0
 10 18  1  0
 18 19  1  0
 18 20  1  0
 18 21  1  0
 21 22  1  0
 21 23  1  0
 21 24  1  0
  7 25  1  0
 25 26  1  0
 26 27  1  0
 27 28  2  0
 28 29  1  0
 28 30  1  0
 30 31  1  0
 30 32  2  0
 32 33  1  0
 33 34  2  0
 34 35  1  0
 35 36  1  0
 36 37  1  0
 37 38  1  0
 37 39  1  0
 37 40  1  0
 36 41  1  0
 41 42  1  0
 41 43  2  0
 43 44  1  0
 32 45  1  0
 45 46  1  0
 45 47  2  0
 47 48  1  0
 25 49  2  0
 49 50  1  0
 49  2  1  0
 47 27  1  0
 43 34  1  0
M  CHG  1  35  -1
M  END
>  <UniqueID>  (27) 
23

>  <SMILES>  (27) 
CCN(CC)C(=O)c1ccccc1Oc1ccc(/N=c2/ccn(C)[n-]2)cc1

>  <Energy>  (27) 
94.01692655554913

>  <Genealogy>  (27) 
CCN(CC)C(=O)c1ccccc1Oc1ccc(N=c2ccn(C)[n-]2)cc1 (protonated)
CCN(CC)C(=O)c1ccccc1Oc1ccc(/N=c2/ccn(C)[n-]2)cc1 (cis-trans isomerization)
CCN(CC)C(=O)c1ccccc1Oc1ccc(/N=c2/ccn(C)[n-]2)cc1 (3D coordinates assigned)
CCN(CC)C(=O)c1ccccc1Oc1ccc(/N=c2/ccn(C)[n-]2)cc1 (optimized conformer: 94.01692655554913 kcal/mol)

>  <smiles>  (27) 
CCN(CC)C(=O)c1ccccc1Oc1ccc(N=c2ccn(C)[nH]2)cc1

>  <score_type>  (27) 
oracle

>  <origin>  (27) 
adgpu

>  <m_score__min__energy>  (27) 
-9.2200000000000006

>  <m_primary>  (27) 
energy

$$$$
27:0
     RDKit          3D

 43 45  0  0  0  0  0  0  0  0999 V2000
    0.6290   17.1140  -28.6010 C   0  0  0  0  0  0  0  0  0  0  0  0
    0.2090   18.5460  -28.5360 C   0  0  0  0  0  0  0  0  0  0  0  0
    0.6460   19.2750  -27.6060 O   0  0  0  0  0  0  0  0  0  0  0  0
   -0.6080   19.0990  -29.5790 N   0  0  0  0  0  0  0  0  0  0  0  0
   -1.2100   20.4040  -29.5260 C   0  0  0  0  0  0  0  0  0  0  0  0
   -0.8630   21.4110  -30.4440 C   0  0  0  0  0  0  0  0  0  0  0  0
   -1.4500   22.6760  -30.3610 C   0  0  0  0  0  0  0  0  0  0  0  0
   -2.3800   22.9570  -29.3520 C   0  0  0  0  0  0  0  0  0  0  0  0
   -3.1550   24.5370  -29.2940 S   0  0  0  0  0  0  0  0  0  0  0  0
   -4.2150   24.5580  -28.2270 O   0  0  0  0  0  0  0  0  0  0  0  0
   -2.1210   25.5730  -28.9550 O   0  0  0  0  0  0  0  0  0  0  0  0
   -3.8620   24.9240  -30.8350 N   0  0  0  0  0  0  0  0  0  0  0  0
   -5.3020   24.6490  -30.8520 C   0  0  0  0  0  0  0  0  0  0  0  0
   -5.5880   23.1700  -30.5690 C   0  0  0  0  0  0  0  0  0  0  0  0
   -5.0670   22.2850  -31.6630 C   0  0  0  0  0  0  0  0  0  0  0  0
   -4.0230   22.5760  -32.5360 C   0  0  0  0  0  0  0  0  0  0  0  0
   -3.8690   21.5770  -33.4350 N   0  0  0  0  0  0  0  0  0  0  0  0
   -4.8120   20.6640  -33.1430 C   0  0  0  0  0  0  0  0  0  0  0  0
   -5.0590   19.4630  -33.8050 C   0  0  0  0  0  0  0  0  0  0  0  0
   -6.1160   18.6590  -33.3370 C   0  0  0  0  0  0  0  0  0  0  0  0
   -6.4720   17.1370  -34.1330 Cl  0  0  0  0  0  0  0  0  0  0  0  0
   -6.8940   19.0730  -32.2320 C   0  0  0  0  0  0  0  0  0  0  0  0
   -6.6220   20.2920  -31.5860 C   0  0  0  0  0  0  0  0  0  0  0  0
   -5.5660   21.0640  -32.0690 C   0  0  0  0  0  0  0  0  0  0  0  0
   -2.7140   21.9630  -28.4230 C   0  0  0  0  0  0  0  0  0  0  0  0
   -2.1250   20.6980  -28.5050 C   0  0  0  0  0  0  0  0  0  0  0  0
    0.7448   16.7192  -27.5808 H   0  0  0  0  0  0  0  0  0  0  0  0
   -0.1361   16.5314  -29.1350 H   0  0  0  0  0  0  0  0  0  0  0  0
    1.5876   17.0369  -29.1350 H   0  0  0  0  0  0  0  0  0  0  0  0
   -0.6970   18.5530  -30.4660 H   0  0  0  0  0  0  0  0  0  0  0  0
   -0.1249   21.2015  -31.2322 H   0  0  0  0  0  0  0  0  0  0  0  0
   -1.1809   23.4540  -31.0905 H   0  0  0  0  0  0  0  0  0  0  0  0
   -5.7935   25.2629  -30.0829 H   0  0  0  0  0  0  0  0  0  0  0  0
   -5.6912   24.8937  -31.8513 H   0  0  0  0  0  0  0  0  0  0  0  0
   -5.1046   22.8883  -29.6219 H   0  0  0  0  0  0  0  0  0  0  0  0
   -6.6783   23.0367  -30.5099 H   0  0  0  0  0  0  0  0  0  0  0  0
   -3.4101   23.4887  -32.5001 H   0  0  0  0  0  0  0  0  0  0  0  0
   -3.1660   21.5330  -34.2070 H   0  0  0  0  0  0  0  0  0  0  0  0
   -4.4479   19.1530  -34.6655 H   0  0  0  0  0  0  0  0  0  0  0  0
   -7.7177   18.4374  -31.8750 H   0  0  0  0  0  0  0  0  0  0  0  0
   -7.2229   20.6259  -30.7273 H   0  0  0  0  0  0  0  0  0  0  0  0
   -3.4418   22.1786  -27.6268 H   0  0  0  0  0  0  0  0  0  0  0  0
   -2.3812   19.9274  -27.7630 H   0  0  0  0  0  0  0  0  0  0  0  0
  1  2  1  0
  2  3  2  0
  2  4  1  0
  4  5  1  0
  5  6  2  0
  6  7  1  0
  7  8  2  0
  8  9  1  0
  9 10  2  0
  9 11  2  0
  9 12  1  0
 12 13  1  0
 13 14  1  0
 14 15  1  0
 15 16  2  0
 16 17  1  0
 17 18  1  0
 18 19  2  0
 19 20  1  0
 20 21  1  0
 20 22  2  0
 22 23  1  0
 23 24  2  0
  8 25  1  0
 25 26  2  0
 26  5  1  0
 24 15  1  0
 24 18  1  0
  1 27  1  0
  1 28  1  0
  1 29  1  0
  4 30  1  0
  6 31  1  0
  7 32  1  0
 13 33  1  0
 13 34  1  0
 14 35  1  0
 14 36  1  0
 16 37  1  0
 17 38  1  0
 19 39  1  0
 22 40  1  0
 23 41  1  0
 25 42  1  0
 26 43  1  0
M  CHG  1  12  -1
M  END
>  <UniqueID>  (28) 
24

>  <SMILES>  (28) 
CC(=O)Nc1ccc(S(=O)(=O)[N-]CCc2c[nH]c3cc(Cl)ccc23)cc1

>  <Energy>  (28) 
75.14165026123818

>  <Genealogy>  (28) 
CC(=O)Nc1ccc(S(=O)(=O)[N-]CCc2c[nH]c3cc(Cl)ccc23)cc1 (protonated)
CC(=O)Nc1ccc(S(=O)(=O)[N-]CCc2c[nH]c3cc(Cl)ccc23)cc1 (3D coordinates assigned)
CC(=O)Nc1ccc(S(=O)(=O)[N-]CCc2c[nH]c3cc(Cl)ccc23)cc1 (optimized conformer: 75.14165026123818 kcal/mol)

>  <smiles>  (28) 
CC(=O)Nc1ccc(S(=O)(=O)NCCc2c[nH]c3cc(Cl)ccc23)cc1

>  <score_type>  (28) 
oracle

>  <origin>  (28) 
adgpu

>  <m_score__min__energy>  (28) 
-10.48

>  <m_primary>  (28) 
energy

$$$$
28:0
     RDKit          3D

 59 62  0  0  0  0  0  0  0  0999 V2000
    4.0030   27.0120  -22.8670 C   0  0  0  0  0  0  0  0  0  0  0  0
    2.6300   26.5680  -23.1420 N   0  0  0  0  0  0  0  0  0  0  0  0
    2.6350   25.3120  -23.9060 C   0  0  0  0  0  0  0  0  0  0  0  0
    1.7560   27.8040  -24.0130 S   0  0  0  0  0  0  0  0  0  0  0  0
    1.3060   28.8700  -23.0550 O   0  0  0  0  0  0  0  0  0  0  0  0
    2.6650   28.4430  -25.0260 O   0  0  0  0  0  0  0  0  0  0  0  0
    0.3480   27.1330  -24.8390 C   0  0  0  0  0  0  0  0  0  0  0  0
   -0.8660   26.9870  -24.1560 C   0  0  0  0  0  0  0  0  0  0  0  0
   -1.9770   26.4430  -24.8070 C   0  0  0  0  0  0  0  0  0  0  0  0
   -1.8830   26.0470  -26.1430 C   0  0  0  0  0  0  0  0  0  0  0  0
   -0.6740   26.2070  -26.8430 C   0  0  0  0  0  0  0  0  0  0  0  0
   -0.5370   25.7940  -28.2100 N   0  0  0  0  0  0  0  0  0  0  0  0
   -0.7210   24.4610  -28.7100 C   0  0  0  0  0  0  0  0  0  0  0  0
    0.2570   23.8780  -29.2480 O   0  0  0  0  0  0  0  0  0  0  0  0
   -2.0360   23.7800  -28.6580 C   0  0  0  0  0  0  0  0  0  0  0  0
   -2.2290   22.6540  -27.8400 C   0  0  0  0  0  0  0  0  0  0  0  0
   -3.4750   22.0250  -27.7890 C   0  0  0  0  0  0  0  0  0  0  0  0
   -4.5400   22.5140  -28.5480 C   0  0  0  0  0  0  0  0  0  0  0  0
   -4.3650   23.6380  -29.3620 C   0  0  0  0  0  0  0  0  0  0  0  0
   -5.7220   24.2570  -30.3010 S   0  0  0  0  0  0  0  0  0  0  0  0
   -5.1940   24.8310  -31.5860 O   0  0  0  0  0  0  0  0  0  0  0  0
   -6.4180   25.3500  -29.5380 O   0  0  0  0  0  0  0  0  0  0  0  0
   -6.8370   22.9570  -30.6450 N   0  0  0  0  0  0  0  0  0  0  0  0
   -7.8620   23.4250  -31.5930 C   0  0  0  0  0  0  0  0  0  0  0  0
   -8.9540   22.3630  -31.7370 C   0  0  0  0  0  0  0  0  0  0  0  0
   -8.3740   20.9910  -31.9630 C   0  0  0  0  0  0  0  0  0  0  0  0
   -9.2090   19.9530  -32.4090 C   0  0  0  0  0  0  0  0  0  0  0  0
   -8.7030   18.6610  -32.5680 C   0  0  0  0  0  0  0  0  0  0  0  0
   -7.3640   18.3920  -32.2790 C   0  0  0  0  0  0  0  0  0  0  0  0
   -6.5260   19.4140  -31.8250 C   0  0  0  0  0  0  0  0  0  0  0  0
   -7.0270   20.7130  -31.6470 C   0  0  0  0  0  0  0  0  0  0  0  0
   -6.0950   21.8200  -31.2180 C   0  0  0  0  0  0  0  0  0  0  0  0
   -3.1160   24.2750  -29.4080 C   0  0  0  0  0  0  0  0  0  0  0  0
    0.4410   26.7330  -26.1800 C   0  0  0  0  0  0  0  0  0  0  0  0
    4.1610   27.0631  -21.7796 H   0  0  0  0  0  0  0  0  0  0  0  0
    4.7144   26.2981  -23.3077 H   0  0  0  0  0  0  0  0  0  0  0  0
    4.1617   28.0073  -23.3077 H   0  0  0  0  0  0  0  0  0  0  0  0
    2.1410   26.4050  -22.2310 H   0  0  0  0  0  0  0  0  0  0  0  0
    2.6384   24.4598  -23.2105 H   0  0  0  0  0  0  0  0  0  0  0  0
    1.7370   25.2646  -24.5396 H   0  0  0  0  0  0  0  0  0  0  0  0
    3.5333   25.2718  -24.5396 H   0  0  0  0  0  0  0  0  0  0  0  0
   -0.9454   27.3012  -23.1048 H   0  0  0  0  0  0  0  0  0  0  0  0
   -2.9275   26.3265  -24.2658 H   0  0  0  0  0  0  0  0  0  0  0  0
   -2.7563   25.6091  -26.6486 H   0  0  0  0  0  0  0  0  0  0  0  0
   -1.3949   22.2660  -27.2369 H   0  0  0  0  0  0  0  0  0  0  0  0
   -3.6177   21.1418  -27.1490 H   0  0  0  0  0  0  0  0  0  0  0  0
   -5.5190   22.0142  -28.5057 H   0  0  0  0  0  0  0  0  0  0  0  0
   -8.3071   24.3588  -31.2189 H   0  0  0  0  0  0  0  0  0  0  0  0
   -7.3968   23.6046  -32.5735 H   0  0  0  0  0  0  0  0  0  0  0  0
   -9.5585   22.3471  -30.8181 H   0  0  0  0  0  0  0  0  0  0  0  0
   -9.5697   22.6221  -32.6110 H   0  0  0  0  0  0  0  0  0  0  0  0
  -10.2659   20.1587  -32.6340 H   0  0  0  0  0  0  0  0  0  0  0  0
   -9.3610   17.8536  -32.9217 H   0  0  0  0  0  0  0  0  0  0  0  0
   -6.9679   17.3740  -32.4088 H   0  0  0  0  0  0  0  0  0  0  0  0
   -5.4695   19.1996  -31.6063 H   0  0  0  0  0  0  0  0  0  0  0  0
   -5.3995   21.4288  -30.4609 H   0  0  0  0  0  0  0  0  0  0  0  0
   -5.5487   22.1750  -32.1043 H   0  0  0  0  0  0  0  0  0  0  0  0
   -2.9812   25.1683  -30.0356 H   0  0  0  0  0  0  0  0  0  0  0  0
    1.3971   26.8333  -26.7147 H   0  0  0  0  0  0  0  0  0  0  0  0
  1  2  1  0
  2  3  1  0
  2  4  1  0
  4  5  2  0
  4  6  2  0
  4  7  1  0
  7  8  2  0
  8  9  1  0
  9 10  2  0
 10 11  1  0
 11 12  1  0
 12 13  1  0
 13 14  2  0
 13 15  1  0
 15 16  2  0
 16 17  1  0
 17 18  2  0
 18 19  1  0
 19 20  1  0
 20 21  2  0
 20 22  2  0
 20 23  1  0
 23 24  1  0
 24 25  1  0
 25 26  1  0
 26 27  2  0
 27 28  1  0
 28 29  2  0
 29 30  1  0
 30 31  2  0
 31 32  1  0
 19 33  2  0
 11 34  2  0
 34  7  1  0
 33 15  1  0
 32 23  1  0
 31 26  1  0
  1 35  1  0
  1 36  1  0
  1 37  1  0
  2 38  1  0
  3 39  1  0
  3 40  1  0
  3 41  1  0
  8 42  1  0
  9 43  1  0
 10 44  1  0
 16 45  1  0
 17 46  1  0
 18 47  1  0
 24 48  1  0
 24 49  1  0
 25 50  1  0
 25 51  1  0
 27 52  1  0
 28 53  1  0
 29 54  1  0
 30 55  1  0
 32 56  1  0
 32 57  1  0
 33 58  1  0
 34 59  1  0
M  CHG  2   2   1  12  -1
M  END
>  <UniqueID>  (29) 
25

>  <SMILES>  (29) 
C[NH+](C)S(=O)(=O)c1cccc([N-]C(=O)c2cccc(S(=O)(=O)N3CCc4ccccc4C3)c2)c1

>  <Energy>  (29) 
67.34287927358233

>  <Genealogy>  (29) 
C[NH+](C)S(=O)(=O)c1cccc([N-]C(=O)c2cccc(S(=O)(=O)N3CCc4ccccc4C3)c2)c1 (protonated)
C[NH+](C)S(=O)(=O)c1cccc([N-]C(=O)c2cccc(S(=O)(=O)N3CCc4ccccc4C3)c2)c1 (3D coordinates assigned)
C[NH+](C)S(=O)(=O)c1cccc([N-]C(=O)c2cccc(S(=O)(=O)N3CCc4ccccc4C3)c2)c1 (nonaromatic ring conformer: 67.34287927358233 kcal/mol)

>  <smiles>  (29) 
CN(C)S(=O)(=O)c1cccc(NC(=O)c2cccc(S(=O)(=O)N3CCc4ccccc4C3)c2)c1

>  <score_type>  (29) 
oracle

>  <origin>  (29) 
adgpu

>  <m_score__min__energy>  (29) 
-12.800000000000001

>  <m_primary>  (29) 
energy

$$$$
29:0
     RDKit          3D

 43 45  0  0  0  0  0  0  0  0999 V2000
   -1.5960   26.3280  -24.7760 C   0  0  0  0  0  0  0  0  0  0  0  0
   -2.2680   25.7020  -25.9720 C   0  0  0  0  0  0  0  0  0  0  0  0
   -3.5680   25.3020  -25.8670 N   0  0  0  0  0  0  0  0  0  0  0  0
   -4.2330   24.7370  -26.9060 C   0  0  0  0  0  0  0  0  0  0  0  0
   -3.6030   24.5480  -28.1420 C   0  0  0  0  0  0  0  0  0  0  0  0
   -4.3620   23.9540  -29.2700 C   0  0  0  0  0  0  0  0  0  0  0  0
   -4.1160   22.6330  -29.6810 C   0  0  0  0  0  0  0  0  0  0  0  0
   -4.8250   22.0820  -30.7520 C   0  0  0  0  0  0  0  0  0  0  0  0
   -5.7800   22.8410  -31.4370 C   0  0  0  0  0  0  0  0  0  0  0  0
   -6.4840   22.2440  -32.4930 O   0  0  0  0  0  0  0  0  0  0  0  0
   -7.1110   20.9900  -32.4440 C   0  0  0  0  0  0  0  0  0  0  0  0
   -8.4680   20.9340  -32.1110 C   0  0  0  0  0  0  0  0  0  0  0  0
   -9.1270   19.7040  -32.0440 C   0  0  0  0  0  0  0  0  0  0  0  0
   -8.4310   18.5190  -32.2980 C   0  0  0  0  0  0  0  0  0  0  0  0
   -7.0580   18.5560  -32.6080 C   0  0  0  0  0  0  0  0  0  0  0  0
   -6.3030   17.3950  -32.8530 O   0  0  0  0  0  0  0  0  0  0  0  0
   -6.1350   16.7780  -34.1280 C   0  0  0  0  0  0  0  0  0  0  0  0
   -6.0740   17.7420  -35.1210 F   0  0  0  0  0  0  0  0  0  0  0  0
   -4.9800   16.0160  -34.1390 F   0  0  0  0  0  0  0  0  0  0  0  0
   -7.2170   15.9540  -34.3740 F   0  0  0  0  0  0  0  0  0  0  0  0
   -6.4060   19.7940  -32.6720 C   0  0  0  0  0  0  0  0  0  0  0  0
   -6.0410   24.1570  -31.0180 C   0  0  0  0  0  0  0  0  0  0  0  0
   -5.3280   24.7120  -29.9500 C   0  0  0  0  0  0  0  0  0  0  0  0
   -2.2520   24.9240  -28.2740 C   0  0  0  0  0  0  0  0  0  0  0  0
   -1.6520   24.7300  -29.3670 O   0  0  0  0  0  0  0  0  0  0  0  0
   -1.5660   25.4960  -27.1820 C   0  0  0  0  0  0  0  0  0  0  0  0
   -0.1170   25.9080  -27.3150 C   0  0  0  0  0  0  0  0  0  0  0  0
   -2.0345   25.9195  -23.8536 H   0  0  0  0  0  0  0  0  0  0  0  0
   -0.5195   26.1034  -24.8010 H   0  0  0  0  0  0  0  0  0  0  0  0
   -1.7439   27.4177  -24.8010 H   0  0  0  0  0  0  0  0  0  0  0  0
   -4.0840   25.4340  -24.9680 H   0  0  0  0  0  0  0  0  0  0  0  0
   -5.2794   24.4238  -26.7757 H   0  0  0  0  0  0  0  0  0  0  0  0
   -3.3609   22.0289  -29.1567 H   0  0  0  0  0  0  0  0  0  0  0  0
   -4.6307   21.0436  -31.0587 H   0  0  0  0  0  0  0  0  0  0  0  0
   -9.0190   21.8626  -31.9009 H   0  0  0  0  0  0  0  0  0  0  0  0
  -10.1968   19.6681  -31.7906 H   0  0  0  0  0  0  0  0  0  0  0  0
   -8.9576   17.5542  -32.2556 H   0  0  0  0  0  0  0  0  0  0  0  0
   -5.3312   19.8316  -32.9030 H   0  0  0  0  0  0  0  0  0  0  0  0
   -6.8093   24.7532  -31.5321 H   0  0  0  0  0  0  0  0  0  0  0  0
   -5.5257   25.7491  -29.6412 H   0  0  0  0  0  0  0  0  0  0  0  0
    0.3220   26.0328  -26.3142 H   0  0  0  0  0  0  0  0  0  0  0  0
    0.4361   25.1315  -27.8638 H   0  0  0  0  0  0  0  0  0  0  0  0
   -0.0552   26.8593  -27.8638 H   0  0  0  0  0  0  0  0  0  0  0  0
  1  2  1  0
  2  3  1  0
  3  4  1  0
  4  5  2  0
  5  6  1  0
  6  7  2  0
  7  8  1  0
  8  9  2  0
  9 10  1  0
 10 11  1  0
 11 12  2  0
 12 13  1  0
 13 14  2  0
 14 15  1  0
 15 16  1  0
 16 17  1  0
 17 18  1  0
 17 19  1  0
 17 20  1  0
 15 21  2  0
  9 22  1  0
 22 23  2  0
  5 24  1  0
 24 25  2  0
 24 26  1  0
 26 27  1  0
 26  2  2  0
 23  6  1  0
 21 11  1  0
  1 28  1  0
  1 29  1  0
  1 30  1  0
  3 31  1  0
  4 32  1  0
  7 33  1  0
  8 34  1  0
 12 35  1  0
 13 36  1  0
 14 37  1  0
 21 38  1  0
 22 39  1  0
 23 40  1  0
 27 41  1  0
 27 42  1  0
 27 43  1  0
M  END
>  <UniqueID>  (30) 
26

>  <SMILES>  (30) 
Cc1[nH]cc(-c2ccc(Oc3cccc(OC(F)(F)F)c3)cc2)c(=O)c1C

>  <Energy>  (30) 
60.970453933121156

>  <Genealogy>  (30) 
Cc1[nH]cc(-c2ccc(Oc3cccc(OC(F)(F)F)c3)cc2)c(=O)c1C (3D coordinates assigned)
Cc1[nH]cc(-c2ccc(Oc3cccc(OC(F)(F)F)c3)cc2)c(=O)c1C (optimized conformer: 60.970453933121156 kcal/mol)

>  <smiles>  (30) 
Cc1[nH]cc(-c2ccc(Oc3cccc(OC(F)(F)F)c3)cc2)c(=O)c1C

>  <score_type>  (30) 
oracle

>  <origin>  (30) 
adgpu

>  <m_score__min__energy>  (30) 
-8.1699999999999999

>  <m_primary>  (30) 
energy

$$$$
30:0
     RDKit          3D

 60 63  0  0  0  0  0  0  0  0999 V2000
   -5.4160   26.4100  -30.5790 O   0  0  0  0  0  0  0  0  0  0  0  0
   -4.9180   25.2550  -30.6170 C   0  0  0  0  0  0  0  0  0  0  0  0
   -3.4990   25.1030  -30.4750 N   0  0  0  0  0  0  0  0  0  0  0  0
   -2.9020   24.5660  -29.2910 C   0  0  0  0  0  0  0  0  0  0  0  0
   -3.6130   23.6590  -28.5070 C   0  0  0  0  0  0  0  0  0  0  0  0
   -2.9620   22.9570  -27.4960 C   0  0  0  0  0  0  0  0  0  0  0  0
   -1.5980   23.1770  -27.2250 C   0  0  0  0  0  0  0  0  0  0  0  0
   -0.8840   22.2080  -26.2890 C   0  0  0  0  0  0  0  0  0  0  0  0
   -0.7970   20.8190  -26.8090 N   0  0  0  0  0  0  0  0  0  0  0  0
   -1.9970   20.0030  -26.5550 C   0  0  0  0  0  0  0  0  0  0  0  0
   -1.6900   18.5160  -26.8270 C   0  0  0  0  0  0  0  0  0  0  0  0
   -0.4870   18.3390  -27.6560 N   0  0  0  0  0  0  0  0  0  0  0  0
   -0.4680   19.2980  -28.7650 C   0  0  0  0  0  0  0  0  0  0  0  0
   -0.3820   20.7400  -28.2260 C   0  0  0  0  0  0  0  0  0  0  0  0
   -0.9380   24.2640  -27.8700 C   0  0  0  0  0  0  0  0  0  0  0  0
    0.4140   24.7810  -27.4150 C   0  0  0  0  0  0  0  0  0  0  0  0
    0.5040   26.1360  -27.6740 F   0  0  0  0  0  0  0  0  0  0  0  0
    1.4560   24.1620  -28.0900 F   0  0  0  0  0  0  0  0  0  0  0  0
    0.5840   24.5610  -26.0700 F   0  0  0  0  0  0  0  0  0  0  0  0
   -1.5830   24.8910  -28.9540 C   0  0  0  0  0  0  0  0  0  0  0  0
   -5.7990   24.0750  -30.8050 C   0  0  0  0  0  0  0  0  0  0  0  0
   -6.8190   23.7980  -29.8810 C   0  0  0  0  0  0  0  0  0  0  0  0
   -7.6130   22.6620  -30.0270 C   0  0  0  0  0  0  0  0  0  0  0  0
   -7.4070   21.7930  -31.0980 C   0  0  0  0  0  0  0  0  0  0  0  0
   -6.4110   22.0720  -32.0550 C   0  0  0  0  0  0  0  0  0  0  0  0
   -6.1860   21.2220  -33.1890 N   0  0  0  0  0  0  0  0  0  0  0  0
   -5.7930   19.5330  -33.0970 S   0  0  0  0  0  0  0  0  0  0  0  0
   -6.3040   19.0040  -31.7860 O   0  0  0  0  0  0  0  0  0  0  0  0
   -6.4790   18.8140  -34.2240 O   0  0  0  0  0  0  0  0  0  0  0  0
   -4.0430   19.3110  -33.2490 C   0  0  0  0  0  0  0  0  0  0  0  0
   -3.5180   18.0150  -33.0920 C   0  0  0  0  0  0  0  0  0  0  0  0
   -2.1500   17.7760  -33.2500 C   0  0  0  0  0  0  0  0  0  0  0  0
   -1.5080   16.1640  -33.0150 Cl  0  0  0  0  0  0  0  0  0  0  0  0
   -1.2940   18.8240  -33.5870 C   0  0  0  0  0  0  0  0  0  0  0  0
   -1.7940   20.1230  -33.7290 C   0  0  0  0  0  0  0  0  0  0  0  0
   -0.6830   21.4300  -34.1190 Cl  0  0  0  0  0  0  0  0  0  0  0  0
   -3.1600   20.3850  -33.5250 C   0  0  0  0  0  0  0  0  0  0  0  0
   -3.5950   21.7130  -33.5740 O   0  0  0  0  0  0  0  0  0  0  0  0
   -5.6170   23.2170  -31.9020 C   0  0  0  0  0  0  0  0  0  0  0  0
   -4.6862   23.4981  -28.6866 H   0  0  0  0  0  0  0  0  0  0  0  0
   -3.5212   22.2202  -26.9007 H   0  0  0  0  0  0  0  0  0  0  0  0
    0.1378   22.5790  -26.1209 H   0  0  0  0  0  0  0  0  0  0  0  0
   -1.4766   22.1647  -25.3633 H   0  0  0  0  0  0  0  0  0  0  0  0
   -2.3057   20.1255  -25.5063 H   0  0  0  0  0  0  0  0  0  0  0  0
   -2.8065   20.3330  -27.2227 H   0  0  0  0  0  0  0  0  0  0  0  0
   -1.5359   18.0045  -25.8654 H   0  0  0  0  0  0  0  0  0  0  0  0
   -2.5433   18.0899  -27.3751 H   0  0  0  0  0  0  0  0  0  0  0  0
   -0.5120   17.3750  -28.0600 H   0  0  0  0  0  0  0  0  0  0  0  0
    0.4049   19.0969  -29.4034 H   0  0  0  0  0  0  0  0  0  0  0  0
   -1.3948   19.1890  -29.3474 H   0  0  0  0  0  0  0  0  0  0  0  0
    0.6564   21.0922  -28.3137 H   0  0  0  0  0  0  0  0  0  0  0  0
   -1.0625   21.3691  -28.8186 H   0  0  0  0  0  0  0  0  0  0  0  0
   -1.0427   25.6463  -29.5436 H   0  0  0  0  0  0  0  0  0  0  0  0
   -6.9925   24.4816  -29.0368 H   0  0  0  0  0  0  0  0  0  0  0  0
   -8.4056   22.4499  -29.2943 H   0  0  0  0  0  0  0  0  0  0  0  0
   -8.0236   20.8874  -31.1960 H   0  0  0  0  0  0  0  0  0  0  0  0
   -4.1910   17.1815  -32.8424 H   0  0  0  0  0  0  0  0  0  0  0  0
   -0.2226   18.6288  -33.7416 H   0  0  0  0  0  0  0  0  0  0  0  0
   -4.5320   21.9840  -33.8350 H   0  0  0  0  0  0  0  0  0  0  0  0
   -4.8429   23.4461  -32.6492 H   0  0  0  0  0  0  0  0  0  0  0  0
  1  2  2  0
  2  3  1  0
  3  4  1  0
  4  5  2  0
  5  6  1  0
  6  7  2  0
  7  8  1  0
  8  9  1  0
  9 10  1  0
 10 11  1  0
 11 12  1  0
 12 13  1  0
 13 14  1  0
  7 15  1  0
 15 16  1  0
 16 17  1  0
 16 18  1  0
 16 19  1  0
 15 20  2  0
  2 21  1  0
 21 22  2  0
 22 23  1  0
 23 24  2  0
 24 25  1  0
 25 26  1  0
 26 27  1  0
 27 28  2  0
 27 29  2  0
 27 30  1  0
 30 31  2  0
 31 32  1  0
 32 33  1  0
 32 34  2  0
 34 35  1  0
 35 36  1  0
 35 37  2  0
 37 38  1  0
 25 39  2  0
 20  4  1  0
 39 21  1  0
 14  9  1  0
 37 30  1  0
  5 40  1  0
  6 41  1  0
  8 42  1  0
  8 43  1  0
 10 44  1  0
 10 45  1  0
 11 46  1  0
 11 47  1  0
 12 48  1  0
 13 49  1  0
 13 50  1  0
 14 51  1  0
 14 52  1  0
 20 53  1  0
 22 54  1  0
 23 55  1  0
 24 56  1  0
 31 57  1  0
 34 58  1  0
 38 59  1  0
 39 60  1  0
M  CHG  2   3  -1  26  -1
M  END
>  <UniqueID>  (31) 
27

>  <SMILES>  (31) 
O=C([N-]c1ccc(CN2CCNCC2)c(C(F)(F)F)c1)c1cccc([N-]S(=O)(=O)c2cc(Cl)cc(Cl)c2O)c1

>  <Energy>  (31) 
91.88318282555208

>  <Genealogy>  (31) 
O=C([N-]c1ccc(CN2CCNCC2)c(C(F)(F)F)c1)c1cccc([N-]S(=O)(=O)c2cc(Cl)cc(Cl)c2O)c1 (protonated)
O=C([N-]c1ccc(CN2CCNCC2)c(C(F)(F)F)c1)c1cccc([N-]S(=O)(=O)c2cc(Cl)cc(Cl)c2O)c1 (3D coordinates assigned)
O=C([N-]c1ccc(CN2CCNCC2)c(C(F)(F)F)c1)c1cccc([N-]S(=O)(=O)c2cc(Cl)cc(Cl)c2O)c1 (nonaromatic ring conformer: 91.88318282555208 kcal/mol)

>  <smiles>  (31) 
O=C(Nc1ccc(CN2CCNCC2)c(C(F)(F)F)c1)c1cccc(NS(=O)(=O)c2cc(Cl)cc(Cl)c2O)c1

>  <score_type>  (31) 
oracle

>  <origin>  (31) 
adgpu

>  <m_score__min__energy>  (31) 
-11.609999999999999

>  <m_primary>  (31) 
energy

$$$$
31:0
     RDKit          3D

 37 39  0  0  0  0  0  0  0  0999 V2000
   -5.4750   19.1870  -31.4420 O   0  0  0  0  0  0  0  0  0  0  0  0
   -5.4070   19.4150  -32.6800 C   0  0  0  0  0  0  0  0  0  0  0  0
   -5.6060   20.7460  -33.1830 N   0  0  0  0  0  0  0  0  0  0  0  0
   -6.2440   21.7990  -32.4390 C   0  0  0  0  0  0  0  0  0  0  0  0
   -7.6380   21.7790  -32.2800 C   0  0  0  0  0  0  0  0  0  0  0  0
   -8.2800   22.7740  -31.5390 C   0  0  0  0  0  0  0  0  0  0  0  0
   -7.5330   23.7890  -30.9380 C   0  0  0  0  0  0  0  0  0  0  0  0
   -6.1390   23.8100  -31.0660 C   0  0  0  0  0  0  0  0  0  0  0  0
   -5.2060   25.0740  -30.2710 S   0  0  0  0  0  0  0  0  0  0  0  0
   -5.5200   25.0590  -28.8030 O   0  0  0  0  0  0  0  0  0  0  0  0
   -5.5470   26.4250  -30.8310 O   0  0  0  0  0  0  0  0  0  0  0  0
   -3.5110   24.7810  -30.4910 N   0  0  0  0  0  0  0  0  0  0  0  0
   -2.6300   24.2320  -29.5000 C   0  0  0  0  0  0  0  0  0  0  0  0
   -2.3380   24.9180  -28.3060 C   0  0  0  0  0  0  0  0  0  0  0  0
   -1.4710   24.3580  -27.3640 C   0  0  0  0  0  0  0  0  0  0  0  0
   -0.8900   23.1100  -27.6000 C   0  0  0  0  0  0  0  0  0  0  0  0
   -1.1750   22.4200  -28.7790 C   0  0  0  0  0  0  0  0  0  0  0  0
   -2.0420   22.9750  -29.7290 C   0  0  0  0  0  0  0  0  0  0  0  0
   -2.3730   22.0820  -31.2070 Cl  0  0  0  0  0  0  0  0  0  0  0  0
   -5.4960   22.8130  -31.8120 C   0  0  0  0  0  0  0  0  0  0  0  0
   -5.0760   18.3040  -33.5880 C   0  0  0  0  0  0  0  0  0  0  0  0
   -5.4050   16.9720  -33.4190 C   0  0  0  0  0  0  0  0  0  0  0  0
   -4.8800   16.3170  -34.5110 C   0  0  0  0  0  0  0  0  0  0  0  0
   -4.2630   17.2840  -35.2780 C   0  0  0  0  0  0  0  0  0  0  0  0
   -4.3970   18.4560  -34.7010 O   0  0  0  0  0  0  0  0  0  0  0  0
   -5.1800   20.9920  -34.1050 H   0  0  0  0  0  0  0  0  0  0  0  0
   -8.2291   20.9745  -32.7419 H   0  0  0  0  0  0  0  0  0  0  0  0
   -9.3744   22.7579  -31.4289 H   0  0  0  0  0  0  0  0  0  0  0  0
   -8.0419   24.5755  -30.3615 H   0  0  0  0  0  0  0  0  0  0  0  0
   -2.7947   25.9000  -28.1135 H   0  0  0  0  0  0  0  0  0  0  0  0
   -1.2456   24.9013  -26.4345 H   0  0  0  0  0  0  0  0  0  0  0  0
   -0.2080   22.6712  -26.8568 H   0  0  0  0  0  0  0  0  0  0  0  0
   -0.7172   21.4368  -28.9630 H   0  0  0  0  0  0  0  0  0  0  0  0
   -4.4002   22.8230  -31.9081 H   0  0  0  0  0  0  0  0  0  0  0  0
   -5.9689   16.5276  -32.5856 H   0  0  0  0  0  0  0  0  0  0  0  0
   -4.9404   15.2403  -34.7279 H   0  0  0  0  0  0  0  0  0  0  0  0
   -3.7389   17.1011  -36.2277 H   0  0  0  0  0  0  0  0  0  0  0  0
  1  2  2  0
  2  3  1  0
  3  4  1  0
  4  5  2  0
  5  6  1  0
  6  7  2  0
  7  8  1  0
  8  9  1  0
  9 10  2  0
  9 11  2  0
  9 12  1  0
 12 13  1  0
 13 14  2  0
 14 15  1  0
 15 16  2  0
 16 17  1  0
 17 18  2  0
 18 19  1  0
  8 20  2  0
  2 21  1  0
 21 22  2  0
 22 23  1  0
 23 24  2  0
 24 25  1  0
 20  4  1  0
 25 21  1  0
 18 13  1  0
  3 26  1  0
  5 27  1  0
  6 28  1  0
  7 29  1  0
 14 30  1  0
 15 31  1  0
 16 32  1  0
 17 33  1  0
 20 34  1  0
 22 35  1  0
 23 36  1  0
 24 37  1  0
M  CHG  1  12  -1
M  END
>  <UniqueID>  (32) 
28

>  <SMILES>  (32) 
O=C(Nc1cccc(S(=O)(=O)[N-]c2ccccc2Cl)c1)c1ccco1

>  <Energy>  (32) 
71.95702119691408

>  <Genealogy>  (32) 
O=C(Nc1cccc(S(=O)(=O)[N-]c2ccccc2Cl)c1)c1ccco1 (protonated)
O=C(Nc1cccc(S(=O)(=O)[N-]c2ccccc2Cl)c1)c1ccco1 (3D coordinates assigned)
O=C(Nc1cccc(S(=O)(=O)[N-]c2ccccc2Cl)c1)c1ccco1 (optimized conformer: 71.95702119691408 kcal/mol)

>  <smiles>  (32) 
O=C(Nc1cccc(S(=O)(=O)Nc2ccccc2Cl)c1)c1ccco1

>  <score_type>  (32) 
oracle

>  <origin>  (32) 
adgpu

>  <m_score__min__energy>  (32) 
-9.7899999999999991

>  <m_primary>  (32) 
energy

$$$$
32:0
     RDKit          3D

 41 43  0  0  0  0  0  0  0  0999 V2000
   -7.0550   25.1762  -31.2874 H   0  0  0  0  0  0  0  0  0  0  0  0
   -6.0370   24.8250  -31.0630 C   0  0  0  0  0  0  0  0  0  0  0  0
   -5.6730   23.5510  -31.3500 N   0  0  0  0  0  0  0  0  0  0  0  0
   -4.4230   23.0760  -31.0850 C   0  0  0  0  0  0  0  0  0  0  0  0
   -4.1030   21.8550  -31.4060 N   0  0  0  0  0  0  0  0  0  0  0  0
   -4.9120   20.8940  -32.1030 C   0  0  0  0  0  0  0  0  0  0  0  0
   -4.3210   20.1380  -33.1230 C   0  0  0  0  0  0  0  0  0  0  0  0
   -3.2550   20.2749  -33.3572 H   0  0  0  0  0  0  0  0  0  0  0  0
   -5.0770   19.2110  -33.8450 C   0  0  0  0  0  0  0  0  0  0  0  0
   -4.5998   18.6059  -34.6299 H   0  0  0  0  0  0  0  0  0  0  0  0
   -6.4380   19.0510  -33.5720 C   0  0  0  0  0  0  0  0  0  0  0  0
   -7.0255   18.3067  -34.1295 H   0  0  0  0  0  0  0  0  0  0  0  0
   -7.0570   19.8370  -32.5890 C   0  0  0  0  0  0  0  0  0  0  0  0
   -8.5160   19.6580  -32.2870 C   0  0  0  0  0  0  0  0  0  0  0  0
   -8.6653   19.6397  -31.1973 H   0  0  0  0  0  0  0  0  0  0  0  0
   -9.0854   20.4930  -32.7211 H   0  0  0  0  0  0  0  0  0  0  0  0
   -8.8667   18.7101  -32.7211 H   0  0  0  0  0  0  0  0  0  0  0  0
   -6.2910   20.7560  -31.8530 C   0  0  0  0  0  0  0  0  0  0  0  0
   -6.7707   21.3710  -31.0774 H   0  0  0  0  0  0  0  0  0  0  0  0
   -3.4870   23.9430  -30.4500 C   0  0  0  0  0  0  0  0  0  0  0  0
   -2.2700   23.5970  -30.1190 N   0  0  0  0  0  0  0  0  0  0  0  0
   -1.6620   22.3000  -30.1790 C   0  0  0  0  0  0  0  0  0  0  0  0
   -1.7240   21.4320  -29.0780 C   0  0  0  0  0  0  0  0  0  0  0  0
   -2.2503   21.7421  -28.1632 H   0  0  0  0  0  0  0  0  0  0  0  0
   -1.1190   20.1760  -29.1420 C   0  0  0  0  0  0  0  0  0  0  0  0
   -1.1895   19.4882  -28.2865 H   0  0  0  0  0  0  0  0  0  0  0  0
   -0.4240   19.7910  -30.2910 C   0  0  0  0  0  0  0  0  0  0  0  0
    0.0329   18.7918  -30.3442 H   0  0  0  0  0  0  0  0  0  0  0  0
   -0.3050   20.6700  -31.3770 C   0  0  0  0  0  0  0  0  0  0  0  0
    0.4100   20.2310  -32.5400 N   0  0  0  0  0  0  0  0  0  0  0  0
    0.2900   20.7610  -33.8660 C   0  0  0  0  0  0  0  0  0  0  0  0
    0.8680   21.8320  -34.1890 O   0  0  0  0  0  0  0  0  0  0  0  0
   -0.4370   19.9760  -34.9060 C   0  0  0  0  0  0  0  0  0  0  0  0
   -1.1068   19.2527  -34.4179 H   0  0  0  0  0  0  0  0  0  0  0  0
   -1.0290   20.6585  -35.5334 H   0  0  0  0  0  0  0  0  0  0  0  0
    0.2889   19.4380  -35.5334 H   0  0  0  0  0  0  0  0  0  0  0  0
   -0.9370   21.9260  -31.3170 C   0  0  0  0  0  0  0  0  0  0  0  0
   -0.8610   22.6178  -32.1689 H   0  0  0  0  0  0  0  0  0  0  0  0
   -3.8670   25.2230  -30.1930 N   0  0  0  0  0  0  0  0  0  0  0  0
   -5.1100   25.6830  -30.4820 C   0  0  0  0  0  0  0  0  0  0  0  0
   -5.3820   26.7252  -30.2587 H   0  0  0  0  0  0  0  0  0  0  0  0
  1  2  1  0
  2  3  1  0
  3  4  1  0
  4  5  2  0
  5  6  1  0
  6  7  2  0
  7  8  1  0
  7  9  1  0
  9 10  1  0
  9 11  2  0
 11 12  1  0
 11 13  1  0
 13 14  1  0
 14 15  1  0
 14 16  1  0
 14 17  1  0
 13 18  2  0
 18 19  1  0
  4 20  1  0
 20 21  2  0
 21 22  1  0
 22 23  2  0
 23 24  1  0
 23 25  1  0
 25 26  1  0
 25 27  2  0
 27 28  1  0
 27 29  1  0
 29 30  1  0
 30 31  1  0
 31 32  2  0
 31 33  1  0
 33 34  1  0
 33 35  1  0
 33 36  1  0
 29 37  2  0
 37 38  1  0
 20 39  1  0
 39 40  1  0
 40 41  1  0
 40  2  2  0
 18  6  1  0
 37 22  1  0
M  CHG  3   3  -1  30  -1  39  -1
M  END
>  <UniqueID>  (33) 
29

>  <SMILES>  (33) 
CC(=O)[N-]c1cccc(/N=c2/[n-]cc[n-]c2=Nc2cccc(C)c2)c1

>  <Energy>  (33) 
65.8281733968286

>  <Genealogy>  (33) 
CC(=O)[N-]c1cccc(N=c2[n-]cc[n-]c2=Nc2cccc(C)c2)c1 (protonated)
CC(=O)[N-]c1cccc(/N=c2/[n-]cc[n-]c2=Nc2cccc(C)c2)c1 (cis-trans isomerization)
CC(=O)[N-]c1cccc(/N=c2/[n-]cc[n-]c2=Nc2cccc(C)c2)c1 (3D coordinates assigned)
CC(=O)[N-]c1cccc(/N=c2/[n-]cc[n-]c2=Nc2cccc(C)c2)c1 (optimized conformer: 65.8281733968286 kcal/mol)

>  <smiles>  (33) 
CC(=O)Nc1cccc(N=c2[nH]cc[nH]c2=Nc2cccc(C)c2)c1

>  <score_type>  (33) 
oracle

>  <origin>  (33) 
adgpu

>  <m_score__min__energy>  (33) 
-10.02

>  <m_primary>  (33) 
energy

$$$$
33:0
     RDKit          3D

 51 54  0  0  0  0  0  0  0  0999 V2000
    0.6730   18.8110  -35.4130 C   0  0  0  0  0  0  0  0  0  0  0  0
   -0.4950   19.3220  -34.6090 C   0  0  0  0  0  0  0  0  0  0  0  0
   -1.2770   18.4100  -33.8810 C   0  0  0  0  0  0  0  0  0  0  0  0
   -2.3760   18.8500  -33.1420 C   0  0  0  0  0  0  0  0  0  0  0  0
   -2.7130   20.2070  -33.1200 C   0  0  0  0  0  0  0  0  0  0  0  0
   -4.1810   20.7580  -32.3160 S   0  0  0  0  0  0  0  0  0  0  0  0
   -4.6240   19.6960  -31.3470 O   0  0  0  0  0  0  0  0  0  0  0  0
   -5.2710   20.9910  -33.3230 O   0  0  0  0  0  0  0  0  0  0  0  0
   -3.8300   22.2670  -31.4720 C   0  0  0  0  0  0  0  0  0  0  0  0
   -2.8170   22.5030  -30.5600 C   0  0  0  0  0  0  0  0  0  0  0  0
   -1.7400   21.5720  -30.1810 C   0  0  0  0  0  0  0  0  0  0  0  0
   -0.6740   21.3580  -31.0660 C   0  0  0  0  0  0  0  0  0  0  0  0
    0.3310   20.4410  -30.7530 C   0  0  0  0  0  0  0  0  0  0  0  0
    0.2780   19.7290  -29.5510 C   0  0  0  0  0  0  0  0  0  0  0  0
   -0.7740   19.9410  -28.6590 C   0  0  0  0  0  0  0  0  0  0  0  0
   -1.7840   20.8590  -28.9660 C   0  0  0  0  0  0  0  0  0  0  0  0
   -3.1240   21.0400  -27.8400 Cl  0  0  0  0  0  0  0  0  0  0  0  0
   -2.9840   23.7250  -30.0150 N   0  0  0  0  0  0  0  0  0  0  0  0
   -4.0490   24.2440  -30.5570 O   0  0  0  0  0  0  0  0  0  0  0  0
   -4.5910   23.4200  -31.4230 C   0  0  0  0  0  0  0  0  0  0  0  0
   -6.0870   23.7790  -32.3420 S   0  0  0  0  0  0  0  0  0  0  0  0
   -7.2130   23.1850  -31.0330 C   0  0  0  0  0  0  0  0  0  0  0  0
   -7.9170   21.9190  -31.4450 C   0  0  0  0  0  0  0  0  0  0  0  0
   -7.2800   20.6740  -31.3200 C   0  0  0  0  0  0  0  0  0  0  0  0
   -7.9350   19.5040  -31.7160 C   0  0  0  0  0  0  0  0  0  0  0  0
   -9.2330   19.5680  -32.2270 C   0  0  0  0  0  0  0  0  0  0  0  0
   -9.8820   20.7990  -32.3360 C   0  0  0  0  0  0  0  0  0  0  0  0
   -9.2290   21.9720  -31.9450 C   0  0  0  0  0  0  0  0  0  0  0  0
   -1.9240   21.1290  -33.8180 C   0  0  0  0  0  0  0  0  0  0  0  0
   -0.8040   20.7010  -34.5530 C   0  0  0  0  0  0  0  0  0  0  0  0
   -0.0020   21.7180  -35.3180 C   0  0  0  0  0  0  0  0  0  0  0  0
    1.4640   18.4650  -34.7314 H   0  0  0  0  0  0  0  0  0  0  0  0
    0.3437   17.9747  -36.0472 H   0  0  0  0  0  0  0  0  0  0  0  0
    1.0637   19.6204  -36.0472 H   0  0  0  0  0  0  0  0  0  0  0  0
   -1.0210   17.3403  -33.8935 H   0  0  0  0  0  0  0  0  0  0  0  0
   -2.9796   18.1264  -32.5745 H   0  0  0  0  0  0  0  0  0  0  0  0
   -0.6292   21.9161  -32.0129 H   0  0  0  0  0  0  0  0  0  0  0  0
    1.1646   20.2787  -31.4521 H   0  0  0  0  0  0  0  0  0  0  0  0
    1.0662   19.0011  -29.3082 H   0  0  0  0  0  0  0  0  0  0  0  0
   -0.8092   19.3842  -27.7110 H   0  0  0  0  0  0  0  0  0  0  0  0
   -6.6297   22.9894  -30.1211 H   0  0  0  0  0  0  0  0  0  0  0  0
   -7.9726   23.9599  -30.8525 H   0  0  0  0  0  0  0  0  0  0  0  0
   -6.2613   20.6189  -30.9087 H   0  0  0  0  0  0  0  0  0  0  0  0
   -7.4275   18.5323  -31.6250 H   0  0  0  0  0  0  0  0  0  0  0  0
   -9.7446   18.6473  -32.5440 H   0  0  0  0  0  0  0  0  0  0  0  0
  -10.9080   20.8463  -32.7298 H   0  0  0  0  0  0  0  0  0  0  0  0
   -9.7445   22.9401  -32.0292 H   0  0  0  0  0  0  0  0  0  0  0  0
   -2.1824   22.1979  -33.7913 H   0  0  0  0  0  0  0  0  0  0  0  0
    0.5201   22.3800  -34.6115 H   0  0  0  0  0  0  0  0  0  0  0  0
    0.7354   21.2027  -35.9510 H   0  0  0  0  0  0  0  0  0  0  0  0
   -0.6750   22.3150  -35.9510 H   0  0  0  0  0  0  0  0  0  0  0  0
  1  2  1  0
  2  3  2  0
  3  4  1  0
  4  5  2  0
  5  6  1  0
  6  7  2  0
  6  8  2  0
  6  9  1  0
  9 10  1  0
 10 11  1  0
 11 12  2  0
 12 13  1  0
 13 14  2  0
 14 15  1  0
 15 16  2  0
 16 17  1  0
 10 18  2  0
 18 19  1  0
 19 20  1  0
 20 21  1  0
 21 22  1  0
 22 23  1  0
 23 24  2  0
 24 25  1  0
 25 26  2  0
 26 27  1  0
 27 28  2  0
  5 29  1  0
 29 30  2  0
 30 31  1  0
 30  2  1  0
 20  9  2  0
 28 23  1  0
 16 11  1  0
  1 32  1  0
  1 33  1  0
  1 34  1  0
  3 35  1  0
  4 36  1  0
 12 37  1  0
 13 38  1  0
 14 39  1  0
 15 40  1  0
 22 41  1  0
 22 42  1  0
 24 43  1  0
 25 44  1  0
 26 45  1  0
 27 46  1  0
 28 47  1  0
 29 48  1  0
 31 49  1  0
 31 50  1  0
 31 51  1  0
M  END
>  <UniqueID>  (34) 
30

>  <SMILES>  (34) 
Cc1ccc(S(=O)(=O)c2c(-c3ccccc3Cl)noc2SCc2ccccc2)cc1C

>  <Energy>  (34) 
84.99604388533511

>  <Genealogy>  (34) 
Cc1ccc(S(=O)(=O)c2c(-c3ccccc3Cl)noc2SCc2ccccc2)cc1C (3D coordinates assigned)
Cc1ccc(S(=O)(=O)c2c(-c3ccccc3Cl)noc2SCc2ccccc2)cc1C (optimized conformer: 84.99604388533511 kcal/mol)

>  <smiles>  (34) 
Cc1ccc(S(=O)(=O)c2c(-c3ccccc3Cl)noc2SCc2ccccc2)cc1C

>  <score_type>  (34) 
oracle

>  <origin>  (34) 
adgpu

>  <m_score__min__energy>  (34) 
-10.27

>  <m_primary>  (34) 
energy

$$$$
34:0
     RDKit          3D

 40 42  0  0  0  0  0  0  0  0999 V2000
   -2.5840   23.5550  -28.8950 O   0  0  0  0  0  0  0  0  0  0  0  0
   -2.5740   24.7100  -29.3980 C   0  0  0  0  0  0  0  0  0  0  0  0
   -1.6180   25.6850  -28.9680 N   0  0  0  0  0  0  0  0  0  0  0  0
   -1.3010   26.0260  -27.6100 C   0  0  0  0  0  0  0  0  0  0  0  0
   -1.9300   25.3220  -26.5750 C   0  0  0  0  0  0  0  0  0  0  0  0
   -1.6370   25.6110  -25.2400 C   0  0  0  0  0  0  0  0  0  0  0  0
   -0.6960   26.5990  -24.9270 C   0  0  0  0  0  0  0  0  0  0  0  0
   -0.3230   26.9590  -23.2520 Cl  0  0  0  0  0  0  0  0  0  0  0  0
   -0.0430   27.2870  -25.9550 C   0  0  0  0  0  0  0  0  0  0  0  0
   -0.3380   27.0010  -27.2920 C   0  0  0  0  0  0  0  0  0  0  0  0
   -3.5190   25.0700  -30.4130 N   0  0  0  0  0  0  0  0  0  0  0  0
   -4.7190   24.3560  -30.7460 C   0  0  0  0  0  0  0  0  0  0  0  0
   -5.9960   24.8690  -30.4570 C   0  0  0  0  0  0  0  0  0  0  0  0
   -7.1400   24.1310  -30.7740 C   0  0  0  0  0  0  0  0  0  0  0  0
   -7.0230   22.8690  -31.3700 C   0  0  0  0  0  0  0  0  0  0  0  0
   -8.4700   21.9450  -31.7590 S   0  0  0  0  0  0  0  0  0  0  0  0
   -8.9500   21.2480  -30.5180 O   0  0  0  0  0  0  0  0  0  0  0  0
   -9.5610   22.8480  -32.2640 O   0  0  0  0  0  0  0  0  0  0  0  0
   -8.1070   20.7600  -32.9720 N   0  0  0  0  0  0  0  0  0  0  0  0
   -7.2950   19.5950  -32.7730 C   0  0  0  0  0  0  0  0  0  0  0  0
   -7.5070   18.7090  -31.6990 C   0  0  0  0  0  0  0  0  0  0  0  0
   -6.6920   17.5820  -31.5470 C   0  0  0  0  0  0  0  0  0  0  0  0
   -5.6630   17.3320  -32.4580 C   0  0  0  0  0  0  0  0  0  0  0  0
   -5.4460   18.2090  -33.5250 C   0  0  0  0  0  0  0  0  0  0  0  0
   -6.2590   19.3370  -33.6790 C   0  0  0  0  0  0  0  0  0  0  0  0
   -5.7520   22.3470  -31.6410 C   0  0  0  0  0  0  0  0  0  0  0  0
   -4.6070   23.0840  -31.3200 C   0  0  0  0  0  0  0  0  0  0  0  0
   -2.6604   24.5354  -26.8154 H   0  0  0  0  0  0  0  0  0  0  0  0
   -2.1461   25.0618  -24.4342 H   0  0  0  0  0  0  0  0  0  0  0  0
    0.7051   28.0556  -25.7111 H   0  0  0  0  0  0  0  0  0  0  0  0
    0.1841   27.5396  -28.0966 H   0  0  0  0  0  0  0  0  0  0  0  0
   -6.0951   25.8550  -29.9796 H   0  0  0  0  0  0  0  0  0  0  0  0
   -8.1360   24.5430  -30.5545 H   0  0  0  0  0  0  0  0  0  0  0  0
   -8.3149   18.9034  -30.9783 H   0  0  0  0  0  0  0  0  0  0  0  0
   -6.8619   16.8911  -30.7081 H   0  0  0  0  0  0  0  0  0  0  0  0
   -5.0236   16.4453  -32.3359 H   0  0  0  0  0  0  0  0  0  0  0  0
   -4.6363   18.0121  -34.2431 H   0  0  0  0  0  0  0  0  0  0  0  0
   -6.0831   20.0263  -34.5180 H   0  0  0  0  0  0  0  0  0  0  0  0
   -5.6538   21.3555  -32.1072 H   0  0  0  0  0  0  0  0  0  0  0  0
   -3.6115   22.6610  -31.5201 H   0  0  0  0  0  0  0  0  0  0  0  0
  1  2  2  0
  2  3  1  0
  3  4  1  0
  4  5  2  0
  5  6  1  0
  6  7  2  0
  7  8  1  0
  7  9  1  0
  9 10  2  0
  2 11  1  0
 11 12  1  0
 12 13  2  0
 13 14  1  0
 14 15  2  0
 15 16  1  0
 16 17  2  0
 16 18  2  0
 16 19  1  0
 19 20  1  0
 20 21  2  0
 21 22  1  0
 22 23  2  0
 23 24  1  0
 24 25  2  0
 15 26  1  0
 26 27  2  0
 10  4  1  0
 27 12  1  0
 25 20  1  0
  5 28  1  0
  6 29  1  0
  9 30  1  0
 10 31  1  0
 13 32  1  0
 14 33  1  0
 21 34  1  0
 22 35  1  0
 23 36  1  0
 24 37  1  0
 25 38  1  0
 26 39  1  0
 27 40  1  0
M  CHG  3   3  -1  11  -1  19  -1
M  END
>  <UniqueID>  (35) 
31

>  <SMILES>  (35) 
O=C([N-]c1ccc(Cl)cc1)[N-]c1ccc(S(=O)(=O)[N-]c2ccccc2)cc1

>  <Energy>  (35) 
52.842000049125176

>  <Genealogy>  (35) 
O=C([N-]c1ccc(Cl)cc1)[N-]c1ccc(S(=O)(=O)[N-]c2ccccc2)cc1 (protonated)
O=C([N-]c1ccc(Cl)cc1)[N-]c1ccc(S(=O)(=O)[N-]c2ccccc2)cc1 (3D coordinates assigned)
O=C([N-]c1ccc(Cl)cc1)[N-]c1ccc(S(=O)(=O)[N-]c2ccccc2)cc1 (optimized conformer: 52.842000049125176 kcal/mol)

>  <smiles>  (35) 
O=C(Nc1ccc(Cl)cc1)Nc1ccc(S(=O)(=O)Nc2ccccc2)cc1

>  <score_type>  (35) 
oracle

>  <origin>  (35) 
adgpu

>  <m_score__min__energy>  (35) 
-12.82

>  <m_primary>  (35) 
energy

$$$$
35:0
     RDKit          3D

 36 38  0  0  0  0  0  0  0  0999 V2000
   -1.3360   23.7940  -29.3250 Cl  0  0  0  0  0  0  0  0  0  0  0  0
   -2.9720   23.4830  -29.8770 C   0  0  0  0  0  0  0  0  0  0  0  0
   -3.2680   22.2960  -30.5450 C   0  0  0  0  0  0  0  0  0  0  0  0
   -4.5700   22.0460  -30.9860 C   0  0  0  0  0  0  0  0  0  0  0  0
   -5.6000   22.9810  -30.7660 C   0  0  0  0  0  0  0  0  0  0  0  0
   -6.9610   22.6540  -31.2650 C   0  0  0  0  0  0  0  0  0  0  0  0
   -7.4530   21.4030  -31.3940 N   0  0  0  0  0  0  0  0  0  0  0  0
   -8.6990   21.6040  -31.8600 C   0  0  0  0  0  0  0  0  0  0  0  0
   -9.6430   20.5030  -32.2370 C   0  0  0  0  0  0  0  0  0  0  0  0
   -8.9710   19.5260  -33.1040 N   0  0  0  0  0  0  0  0  0  0  0  0
   -8.1300   18.6200  -32.3100 C   0  0  0  0  0  0  0  0  0  0  0  0
   -6.8620   18.2870  -33.0540 C   0  0  0  0  0  0  0  0  0  0  0  0
   -6.5670   16.9620  -33.4030 C   0  0  0  0  0  0  0  0  0  0  0  0
   -5.4070   16.6720  -34.1240 C   0  0  0  0  0  0  0  0  0  0  0  0
   -4.5580   17.7150  -34.5020 C   0  0  0  0  0  0  0  0  0  0  0  0
   -4.8670   18.9970  -34.1720 N   0  0  0  0  0  0  0  0  0  0  0  0
   -5.9890   19.3040  -33.4680 C   0  0  0  0  0  0  0  0  0  0  0  0
   -8.9190   22.9530  -32.0170 C   0  0  0  0  0  0  0  0  0  0  0  0
   -7.8310   23.5710  -31.6350 O   0  0  0  0  0  0  0  0  0  0  0  0
   -5.2890   24.1850  -30.0800 C   0  0  0  0  0  0  0  0  0  0  0  0
   -6.4850   25.4280  -29.7180 Cl  0  0  0  0  0  0  0  0  0  0  0  0
   -3.9780   24.4220  -29.6450 C   0  0  0  0  0  0  0  0  0  0  0  0
   -2.4753   21.5549  -30.7253 H   0  0  0  0  0  0  0  0  0  0  0  0
   -4.7936   21.1062  -31.5121 H   0  0  0  0  0  0  0  0  0  0  0  0
   -9.9930   19.9976  -31.3248 H   0  0  0  0  0  0  0  0  0  0  0  0
  -10.4959   20.9352  -32.7809 H   0  0  0  0  0  0  0  0  0  0  0  0
   -8.3700   20.0350  -33.7960 H   0  0  0  0  0  0  0  0  0  0  0  0
   -9.6930   18.9660  -33.6170 H   0  0  0  0  0  0  0  0  0  0  0  0
   -7.8734   19.1064  -31.3574 H   0  0  0  0  0  0  0  0  0  0  0  0
   -8.6872   17.6901  -32.1236 H   0  0  0  0  0  0  0  0  0  0  0  0
   -7.2492   16.1507  -33.1089 H   0  0  0  0  0  0  0  0  0  0  0  0
   -5.1642   15.6330  -34.3916 H   0  0  0  0  0  0  0  0  0  0  0  0
   -3.6392   17.4988  -35.0668 H   0  0  0  0  0  0  0  0  0  0  0  0
   -6.2127   20.3526  -33.2224 H   0  0  0  0  0  0  0  0  0  0  0  0
   -9.8387   23.4243  -32.3937 H   0  0  0  0  0  0  0  0  0  0  0  0
   -3.7398   25.3565  -29.1160 H   0  0  0  0  0  0  0  0  0  0  0  0
  1  2  1  0
  2  3  2  0
  3  4  1  0
  4  5  2  0
  5  6  1  0
  6  7  2  0
  7  8  1  0
  8  9  1  0
  9 10  1  0
 10 11  1  0
 11 12  1  0
 12 13  2  0
 13 14  1  0
 14 15  2  0
 15 16  1  0
 16 17  2  0
  8 18  2  0
 18 19  1  0
  5 20  1  0
 20 21  1  0
 20 22  2  0
 22  2  1  0
 19  6  1  0
 17 12  1  0
  3 23  1  0
  4 24  1  0
  9 25  1  0
  9 26  1  0
 10 27  1  0
 10 28  1  0
 11 29  1  0
 11 30  1  0
 13 31  1  0
 14 32  1  0
 15 33  1  0
 17 34  1  0
 18 35  1  0
 22 36  1  0
M  CHG  1  10   1
M  END
>  <UniqueID>  (36) 
32

>  <SMILES>  (36) 
Clc1ccc(-c2nc(C[NH2+]Cc3cccnc3)co2)c(Cl)c1

>  <Energy>  (36) 
69.91961398748529

>  <Genealogy>  (36) 
Clc1ccc(-c2nc(C[NH2+]Cc3cccnc3)co2)c(Cl)c1 (protonated)
Clc1ccc(-c2nc(C[NH2+]Cc3cccnc3)co2)c(Cl)c1 (3D coordinates assigned)
Clc1ccc(-c2nc(C[NH2+]Cc3cccnc3)co2)c(Cl)c1 (optimized conformer: 69.91961398748529 kcal/mol)

>  <smiles>  (36) 
Clc1ccc(-c2nc(CNCc3cccnc3)co2)c(Cl)c1

>  <score_type>  (36) 
oracle

>  <origin>  (36) 
adgpu

>  <m_score__min__energy>  (36) 
-7.2699999999999996

>  <m_primary>  (36) 
energy

$$$$
36:0
     RDKit          3D

 50 53  0  0  0  0  0  0  0  0999 V2000
    0.6840   27.2880  -22.9640 C   0  0  0  0  0  0  0  0  0  0  0  0
    0.0650   26.3920  -23.9540 N   0  0  0  0  0  0  0  0  0  0  0  0
   -1.3600   26.7520  -24.1570 C   0  0  0  0  0  0  0  0  0  0  0  0
   -1.9540   26.2290  -25.4870 C   0  0  0  0  0  0  0  0  0  0  0  0
   -1.1340   25.1710  -26.0980 N   0  0  0  0  0  0  0  0  0  0  0  0
   -1.7540   24.1100  -26.8550 C   0  0  0  0  0  0  0  0  0  0  0  0
   -2.8330   24.3620  -27.6430 N   0  0  0  0  0  0  0  0  0  0  0  0
   -3.4190   23.3660  -28.3580 C   0  0  0  0  0  0  0  0  0  0  0  0
   -4.5960   23.6510  -29.2150 C   0  0  0  0  0  0  0  0  0  0  0  0
   -5.2270   24.9100  -29.1720 C   0  0  0  0  0  0  0  0  0  0  0  0
   -6.3350   25.1750  -29.9810 C   0  0  0  0  0  0  0  0  0  0  0  0
   -6.8280   24.1910  -30.8400 C   0  0  0  0  0  0  0  0  0  0  0  0
   -6.2140   22.9380  -30.8940 C   0  0  0  0  0  0  0  0  0  0  0  0
   -6.8890   21.5930  -32.0700 Br  0  0  0  0  0  0  0  0  0  0  0  0
   -5.1040   22.6670  -30.0860 C   0  0  0  0  0  0  0  0  0  0  0  0
   -2.9150   22.1070  -28.2790 N   0  0  0  0  0  0  0  0  0  0  0  0
   -1.8360   21.8370  -27.4970 C   0  0  0  0  0  0  0  0  0  0  0  0
   -1.3070   20.4970  -27.4210 N   0  0  0  0  0  0  0  0  0  0  0  0
   -0.0960   20.1460  -28.1760 C   0  0  0  0  0  0  0  0  0  0  0  0
   -0.0300   18.6350  -28.4130 C   0  0  0  0  0  0  0  0  0  0  0  0
   -0.2090   17.9280  -27.2020 O   0  0  0  0  0  0  0  0  0  0  0  0
   -1.5210   18.1410  -26.7230 C   0  0  0  0  0  0  0  0  0  0  0  0
   -1.7280   19.6060  -26.3290 C   0  0  0  0  0  0  0  0  0  0  0  0
   -1.2630   22.8450  -26.7890 N   0  0  0  0  0  0  0  0  0  0  0  0
    0.3290   25.3110  -26.1440 C   0  0  0  0  0  0  0  0  0  0  0  0
    0.8130   26.4340  -25.2240 C   0  0  0  0  0  0  0  0  0  0  0  0
    0.4417   26.9373  -21.9500 H   0  0  0  0  0  0  0  0  0  0  0  0
    1.7754   27.2877  -23.1011 H   0  0  0  0  0  0  0  0  0  0  0  0
    0.2975   28.3087  -23.1011 H   0  0  0  0  0  0  0  0  0  0  0  0
    0.1110   25.4180  -23.5660 H   0  0  0  0  0  0  0  0  0  0  0  0
   -1.9456   26.3309  -23.3265 H   0  0  0  0  0  0  0  0  0  0  0  0
   -1.4104   27.8502  -24.1940 H   0  0  0  0  0  0  0  0  0  0  0  0
   -2.9583   25.8260  -25.2895 H   0  0  0  0  0  0  0  0  0  0  0  0
   -1.9857   27.0733  -26.1914 H   0  0  0  0  0  0  0  0  0  0  0  0
   -4.8447   25.6898  -28.4968 H   0  0  0  0  0  0  0  0  0  0  0  0
   -6.8201   26.1614  -29.9410 H   0  0  0  0  0  0  0  0  0  0  0  0
   -7.7009   24.4030  -31.4749 H   0  0  0  0  0  0  0  0  0  0  0  0
   -4.6244   21.6781  -30.1313 H   0  0  0  0  0  0  0  0  0  0  0  0
   -0.1116   20.6641  -29.1462 H   0  0  0  0  0  0  0  0  0  0  0  0
    0.7863   20.4536  -27.5955 H   0  0  0  0  0  0  0  0  0  0  0  0
   -0.8219   18.3460  -29.1196 H   0  0  0  0  0  0  0  0  0  0  0  0
    0.9596   18.3857  -28.8235 H   0  0  0  0  0  0  0  0  0  0  0  0
   -2.2400   17.8753  -27.5120 H   0  0  0  0  0  0  0  0  0  0  0  0
   -1.6766   17.5126  -25.8336 H   0  0  0  0  0  0  0  0  0  0  0  0
   -2.7932   19.7759  -26.1133 H   0  0  0  0  0  0  0  0  0  0  0  0
   -1.1214   19.8241  -25.4377 H   0  0  0  0  0  0  0  0  0  0  0  0
    0.7891   24.3641  -25.8251 H   0  0  0  0  0  0  0  0  0  0  0  0
    0.6202   25.5594  -27.1753 H   0  0  0  0  0  0  0  0  0  0  0  0
    1.8862   26.3036  -25.0209 H   0  0  0  0  0  0  0  0  0  0  0  0
    0.6455   27.4045  -25.7140 H   0  0  0  0  0  0  0  0  0  0  0  0
  1  2  1  0
  2  3  1  0
  3  4  1  0
  4  5  1  0
  5  6  1  0
  6  7  2  0
  7  8  1  0
  8  9  1  0
  9 10  2  0
 10 11  1  0
 11 12  2  0
 12 13  1  0
 13 14  1  0
 13 15  2  0
  8 16  2  0
 16 17  1  0
 17 18  1  0
 18 19  1  0
 19 20  1  0
 20 21  1  0
 21 22  1  0
 22 23  1  0
 17 24  2  0
  5 25  1  0
 25 26  1  0
 26  2  1  0
 24  6  1  0
 15  9  1  0
 23 18  1  0
  1 27  1  0
  1 28  1  0
  1 29  1  0
  2 30  1  0
  3 31  1  0
  3 32  1  0
  4 33  1  0
  4 34  1  0
 10 35  1  0
 11 36  1  0
 12 37  1  0
 15 38  1  0
 19 39  1  0
 19 40  1  0
 20 41  1  0
 20 42  1  0
 22 43  1  0
 22 44  1  0
 23 45  1  0
 23 46  1  0
 25 47  1  0
 25 48  1  0
 26 49  1  0
 26 50  1  0
M  CHG  1   2   1
M  END
>  <UniqueID>  (37) 
33

>  <SMILES>  (37) 
C[NH+]1CCN(c2nc(-c3cccc(Br)c3)nc(N3CCOCC3)n2)CC1

>  <Energy>  (37) 
60.70608297661902

>  <Genealogy>  (37) 
C[NH+]1CCN(c2nc(-c3cccc(Br)c3)nc(N3CCOCC3)n2)CC1 (protonated)
C[NH+]1CCN(c2nc(-c3cccc(Br)c3)nc(N3CCOCC3)n2)CC1 (3D coordinates assigned)
C[NH+]1CCN(c2nc(-c3cccc(Br)c3)nc(N3CCOCC3)n2)CC1 (nonaromatic ring conformer: 60.70608297661902 kcal/mol)

>  <smiles>  (37) 
CN1CCN(c2nc(-c3cccc(Br)c3)nc(N3CCOCC3)n2)CC1

>  <score_type>  (37) 
oracle

>  <origin>  (37) 
adgpu

>  <m_score__min__energy>  (37) 
-7.6900000000000004

>  <m_primary>  (37) 
energy

$$$$
37:0
     RDKit          3D

 43 45  0  0  0  0  0  0  0  0999 V2000
   -9.1210   19.6580  -32.9530 N   0  0  0  0  0  0  0  0  0  0  0  0
   -7.7250   19.5940  -32.6330 C   0  0  0  0  0  0  0  0  0  0  0  0
   -6.8850   18.7500  -33.3710 C   0  0  0  0  0  0  0  0  0  0  0  0
   -5.5290   18.6630  -33.0590 C   0  0  0  0  0  0  0  0  0  0  0  0
   -5.0200   19.4220  -32.0050 C   0  0  0  0  0  0  0  0  0  0  0  0
   -5.8420   20.2420  -31.2990 N   0  0  0  0  0  0  0  0  0  0  0  0
   -7.1680   20.3540  -31.5830 C   0  0  0  0  0  0  0  0  0  0  0  0
   -8.1560   21.4880  -30.6010 S   0  0  0  0  0  0  0  0  0  0  0  0
   -6.8700   22.7380  -30.5870 C   0  0  0  0  0  0  0  0  0  0  0  0
   -6.8020   23.6800  -31.6180 C   0  0  0  0  0  0  0  0  0  0  0  0
   -5.8040   24.6570  -31.6100 C   0  0  0  0  0  0  0  0  0  0  0  0
   -4.8630   24.6980  -30.5720 C   0  0  0  0  0  0  0  0  0  0  0  0
   -3.8670   25.6750  -30.5700 O   0  0  0  0  0  0  0  0  0  0  0  0
   -4.9250   23.7510  -29.5310 C   0  0  0  0  0  0  0  0  0  0  0  0
   -3.9120   23.7730  -28.4140 C   0  0  0  0  0  0  0  0  0  0  0  0
   -2.6050   24.2520  -28.9180 N   0  0  0  0  0  0  0  0  0  0  0  0
   -1.8160   24.9260  -27.8680 C   0  0  0  0  0  0  0  0  0  0  0  0
   -1.3150   23.9430  -26.7910 C   0  0  0  0  0  0  0  0  0  0  0  0
   -0.9100   22.5760  -27.3710 C   0  0  0  0  0  0  0  0  0  0  0  0
   -0.6190   22.6610  -28.8670 C   0  0  0  0  0  0  0  0  0  0  0  0
   -1.8410   23.1980  -29.6420 C   0  0  0  0  0  0  0  0  0  0  0  0
   -5.9300   22.7690  -29.5500 C   0  0  0  0  0  0  0  0  0  0  0  0
   -9.8070   20.0260  -32.2580 H   0  0  0  0  0  0  0  0  0  0  0  0
   -9.4890   19.3700  -33.8850 H   0  0  0  0  0  0  0  0  0  0  0  0
   -7.2965   18.1542  -34.1991 H   0  0  0  0  0  0  0  0  0  0  0  0
   -4.8670   18.0024  -33.6382 H   0  0  0  0  0  0  0  0  0  0  0  0
   -3.9531   19.3567  -31.7454 H   0  0  0  0  0  0  0  0  0  0  0  0
   -7.5359   23.6516  -32.4369 H   0  0  0  0  0  0  0  0  0  0  0  0
   -5.7562   25.3976  -32.4219 H   0  0  0  0  0  0  0  0  0  0  0  0
   -3.4940   26.0510  -29.7060 H   0  0  0  0  0  0  0  0  0  0  0  0
   -4.2633   24.4462  -27.6182 H   0  0  0  0  0  0  0  0  0  0  0  0
   -3.7922   22.7537  -28.0182 H   0  0  0  0  0  0  0  0  0  0  0  0
   -0.9468   25.4117  -28.3355 H   0  0  0  0  0  0  0  0  0  0  0  0
   -2.4697   25.6607  -27.3752 H   0  0  0  0  0  0  0  0  0  0  0  0
   -0.4406   24.3854  -26.2912 H   0  0  0  0  0  0  0  0  0  0  0  0
   -2.1441   23.7715  -26.0887 H   0  0  0  0  0  0  0  0  0  0  0  0
   -0.0072   22.2219  -26.8518 H   0  0  0  0  0  0  0  0  0  0  0  0
   -1.7484   21.8792  -27.2239 H   0  0  0  0  0  0  0  0  0  0  0  0
    0.2341   23.3362  -29.0291 H   0  0  0  0  0  0  0  0  0  0  0  0
   -0.3884   21.6506  -29.2357 H   0  0  0  0  0  0  0  0  0  0  0  0
   -1.4878   23.6200  -30.5945 H   0  0  0  0  0  0  0  0  0  0  0  0
   -2.5262   22.3489  -29.7817 H   0  0  0  0  0  0  0  0  0  0  0  0
   -5.9784   22.0204  -28.7455 H   0  0  0  0  0  0  0  0  0  0  0  0
  1  2  1  0
  2  3  2  0
  3  4  1  0
  4  5  2  0
  5  6  1  0
  6  7  2  0
  7  8  1  0
  8  9  1  0
  9 10  2  0
 10 11  1  0
 11 12  2  0
 12 13  1  0
 12 14  1  0
 14 15  1  0
 15 16  1  0
 16 17  1  0
 17 18  1  0
 18 19  1  0
 19 20  1  0
 20 21  1  0
 14 22  2  0
  7  2  1  0
 22  9  1  0
 21 16  1  0
  1 23  1  0
  1 24  1  0
  3 25  1  0
  4 26  1  0
  5 27  1  0
 10 28  1  0
 11 29  1  0
 13 30  1  0
 15 31  1  0
 15 32  1  0
 17 33  1  0
 17 34  1  0
 18 35  1  0
 18 36  1  0
 19 37  1  0
 19 38  1  0
 20 39  1  0
 20 40  1  0
 21 41  1  0
 21 42  1  0
 22 43  1  0
M  END
>  <UniqueID>  (38) 
34

>  <SMILES>  (38) 
Nc1cccnc1Sc1ccc(O)c(CN2CCCCC2)c1

>  <Energy>  (38) 
48.369608199577

>  <Genealogy>  (38) 
Nc1cccnc1Sc1ccc(O)c(CN2CCCCC2)c1 (3D coordinates assigned)
Nc1cccnc1Sc1ccc(O)c(CN2CCCCC2)c1 (nonaromatic ring conformer: 48.369608199577 kcal/mol)

>  <smiles>  (38) 
Nc1cccnc1Sc1ccc(O)c(CN2CCCCC2)c1

>  <score_type>  (38) 
oracle

>  <origin>  (38) 
adgpu

>  <m_score__min__energy>  (38) 
-8.8699999999999992

>  <m_primary>  (38) 
energy

$$$$
38:0
     RDKit          3D

 38 40  0  0  0  0  0  0  0  0999 V2000
   -6.5700   18.3260  -33.2770 C   0  0  0  0  0  0  0  0  0  0  0  0
   -7.2380   19.5650  -32.7830 C   0  0  0  0  0  0  0  0  0  0  0  0
   -8.3250   19.6110  -31.9300 C   0  0  0  0  0  0  0  0  0  0  0  0
   -8.5150   20.9590  -31.7010 C   0  0  0  0  0  0  0  0  0  0  0  0
   -9.5240   21.5440  -30.7620 C   0  0  0  0  0  0  0  0  0  0  0  0
   -7.5690   21.6530  -32.3730 N   0  0  0  0  0  0  0  0  0  0  0  0
   -7.3420   23.0980  -32.3430 C   0  0  0  0  0  0  0  0  0  0  0  0
   -6.2690   23.4350  -31.3440 C   0  0  0  0  0  0  0  0  0  0  0  0
   -6.5150   24.3900  -30.3460 C   0  0  0  0  0  0  0  0  0  0  0  0
   -5.5160   24.7260  -29.4290 C   0  0  0  0  0  0  0  0  0  0  0  0
   -4.2510   24.1150  -29.4940 C   0  0  0  0  0  0  0  0  0  0  0  0
   -3.1880   24.4730  -28.5210 C   0  0  0  0  0  0  0  0  0  0  0  0
   -1.8690   24.7060  -28.9550 C   0  0  0  0  0  0  0  0  0  0  0  0
   -0.8690   25.0420  -28.0370 C   0  0  0  0  0  0  0  0  0  0  0  0
   -1.1740   25.1510  -26.6770 C   0  0  0  0  0  0  0  0  0  0  0  0
   -2.4790   24.9230  -26.2350 C   0  0  0  0  0  0  0  0  0  0  0  0
   -3.4810   24.5850  -27.1480 C   0  0  0  0  0  0  0  0  0  0  0  0
   -4.0090   23.1590  -30.4980 C   0  0  0  0  0  0  0  0  0  0  0  0
   -5.0090   22.8240  -31.4150 C   0  0  0  0  0  0  0  0  0  0  0  0
   -6.7820   20.8100  -33.0240 N   0  0  0  0  0  0  0  0  0  0  0  0
   -6.2428   17.7192  -32.4198 H   0  0  0  0  0  0  0  0  0  0  0  0
   -7.2779   17.7464  -33.8877 H   0  0  0  0  0  0  0  0  0  0  0  0
   -5.6967   18.5988  -33.8877 H   0  0  0  0  0  0  0  0  0  0  0  0
   -8.9049   18.7677  -31.5267 H   0  0  0  0  0  0  0  0  0  0  0  0
   -9.2084   21.3610  -29.7242 H   0  0  0  0  0  0  0  0  0  0  0  0
   -9.6019   22.6274  -30.9360 H   0  0  0  0  0  0  0  0  0  0  0  0
  -10.5029   21.0734  -30.9360 H   0  0  0  0  0  0  0  0  0  0  0  0
   -7.0284   23.4373  -33.3413 H   0  0  0  0  0  0  0  0  0  0  0  0
   -8.2752   23.6018  -32.0509 H   0  0  0  0  0  0  0  0  0  0  0  0
   -7.4996   24.8767  -30.2853 H   0  0  0  0  0  0  0  0  0  0  0  0
   -5.7206   25.4748  -28.6496 H   0  0  0  0  0  0  0  0  0  0  0  0
   -1.6233   24.6231  -30.0240 H   0  0  0  0  0  0  0  0  0  0  0  0
    0.1589   25.2208  -28.3854 H   0  0  0  0  0  0  0  0  0  0  0  0
   -0.3869   25.4161  -25.9558 H   0  0  0  0  0  0  0  0  0  0  0  0
   -2.7186   25.0098  -25.1649 H   0  0  0  0  0  0  0  0  0  0  0  0
   -4.5061   24.4051  -26.7919 H   0  0  0  0  0  0  0  0  0  0  0  0
   -3.0249   22.6716  -30.5615 H   0  0  0  0  0  0  0  0  0  0  0  0
   -4.8065   22.0770  -32.1966 H   0  0  0  0  0  0  0  0  0  0  0  0
  1  2  1  0
  2  3  1  0
  3  4  2  0
  4  5  1  0
  4  6  1  0
  6  7  1  0
  7  8  1  0
  8  9  2  0
  9 10  1  0
 10 11  2  0
 11 12  1  0
 12 13  2  0
 13 14  1  0
 14 15  2  0
 15 16  1  0
 16 17  2  0
 11 18  1  0
 18 19  2  0
  6 20  1  0
 20  2  2  0
 19  8  1  0
 17 12  1  0
  1 21  1  0
  1 22  1  0
  1 23  1  0
  3 24  1  0
  5 25  1  0
  5 26  1  0
  5 27  1  0
  7 28  1  0
  7 29  1  0
  9 30  1  0
 10 31  1  0
 13 32  1  0
 14 33  1  0
 15 34  1  0
 16 35  1  0
 17 36  1  0
 18 37  1  0
 19 38  1  0
M  END
>  <UniqueID>  (39) 
35

>  <SMILES>  (39) 
Cc1cc(C)n(Cc2ccc(-c3ccccc3)cc2)n1

>  <Energy>  (39) 
71.12313177953814

>  <Genealogy>  (39) 
Cc1cc(C)n(Cc2ccc(-c3ccccc3)cc2)n1 (3D coordinates assigned)
Cc1cc(C)n(Cc2ccc(-c3ccccc3)cc2)n1 (optimized conformer: 71.12313177953814 kcal/mol)

>  <smiles>  (39) 
Cc1cc(C)n(Cc2ccc(-c3ccccc3)cc2)n1

>  <score_type>  (39) 
oracle

>  <origin>  (39) 
adgpu

>  <m_score__min__energy>  (39) 
-7.79

>  <m_primary>  (39) 
energy

$$$$
39:0
     RDKit          3D

 22 23  0  0  0  0  0  0  0  0999 V2000
   -1.6080   24.6100  -28.3010 H   0  0  0  0  0  0  0  0  0  0  0  0
   -2.1950   25.1950  -28.9390 N   0  0  0  0  0  0  0  0  0  0  0  0
   -3.0850   24.6580  -29.7080 C   0  0  0  0  0  0  0  0  0  0  0  0
   -3.3300   23.3350  -29.7580 N   0  0  0  0  0  0  0  0  0  0  0  0
   -4.3150   23.2820  -30.6860 C   0  0  0  0  0  0  0  0  0  0  0  0
   -4.9680   22.0420  -31.1340 C   0  0  0  0  0  0  0  0  0  0  0  0
   -4.4576   21.0814  -30.9704 H   0  0  0  0  0  0  0  0  0  0  0  0
   -6.1630   22.0470  -31.7340 C   0  0  0  0  0  0  0  0  0  0  0  0
   -6.6655   23.0126  -31.8926 H   0  0  0  0  0  0  0  0  0  0  0  0
   -6.8390   20.8200  -32.1930 C   0  0  0  0  0  0  0  0  0  0  0  0
   -6.2220   19.8820  -32.8760 O   0  0  0  0  0  0  0  0  0  0  0  0
   -7.0850   18.9280  -33.1330 C   0  0  0  0  0  0  0  0  0  0  0  0
   -6.7640   17.7420  -33.8630 N   0  0  0  0  0  0  0  0  0  0  0  0
   -6.0910   17.8160  -34.9100 O   0  0  0  0  0  0  0  0  0  0  0  0
   -7.1930   16.5120  -33.4170 O   0  0  0  0  0  0  0  0  0  0  0  0
   -8.3230   19.2340  -32.6060 C   0  0  0  0  0  0  0  0  0  0  0  0
   -9.2395   18.6281  -32.6608 H   0  0  0  0  0  0  0  0  0  0  0  0
   -8.1670   20.4610  -31.9960 C   0  0  0  0  0  0  0  0  0  0  0  0
   -8.9367   21.0378  -31.4624 H   0  0  0  0  0  0  0  0  0  0  0  0
   -4.6460   24.5000  -31.1660 N   0  0  0  0  0  0  0  0  0  0  0  0
   -3.8630   25.3600  -30.5430 N   0  0  0  0  0  0  0  0  0  0  0  0
   -3.8700   26.3940  -30.6910 H   0  0  0  0  0  0  0  0  0  0  0  0
  1  2  1  0
  2  3  2  3
  3  4  1  0
  4  5  1  0
  5  6  1  0
  6  7  1  0
  6  8  2  0
  8  9  1  0
  8 10  1  0
 10 11  1  0
 11 12  1  0
 12 13  1  0
 13 14  2  0
 13 15  1  0
 12 16  2  0
 16 17  1  0
 16 18  1  0
 18 19  1  0
  5 20  2  0
 20 21  1  0
 21 22  1  0
 21  3  1  0
 18 10  2  0
M  CHG  3   4  -1  13   1  15  -1
M  END
>  <UniqueID>  (40) 
36

>  <SMILES>  (40) 
N=c1[n-]c(/C=C/c2ccc([N+](=O)[O-])o2)n[nH]1

>  <Energy>  (40) 
79.9081738585982

>  <Genealogy>  (40) 
N=c1[n-]c(C=Cc2ccc([N+](=O)[O-])o2)n[nH]1 (protonated)
N=c1[n-]c(/C=C/c2ccc([N+](=O)[O-])o2)n[nH]1 (cis-trans isomerization)
N=c1[n-]c(/C=C/c2ccc([N+](=O)[O-])o2)n[nH]1 (3D coordinates assigned)
N=c1[n-]c(/C=C/c2ccc([N+](=O)[O-])o2)n[nH]1 (optimized conformer: 79.9081738585982 kcal/mol)

>  <smiles>  (40) 
N=c1[nH]nc(C=Cc2ccc([N+](=O)[O-])o2)[nH]1

>  <score_type>  (40) 
oracle

>  <origin>  (40) 
adgpu

>  <m_score__min__energy>  (40) 
-7.6799999999999997

>  <m_primary>  (40) 
energy

$$$$
40:0
     RDKit          3D

 46 48  0  0  0  0  0  0  0  0999 V2000
   -3.1180   19.1160  -26.6650 C   0  0  0  0  0  0  0  0  0  0  0  0
   -3.2480   20.1850  -27.5980 O   0  0  0  0  0  0  0  0  0  0  0  0
   -2.2770   21.1740  -27.8110 C   0  0  0  0  0  0  0  0  0  0  0  0
   -0.9080   20.9440  -27.5980 C   0  0  0  0  0  0  0  0  0  0  0  0
    0.0210   21.9600  -27.8270 C   0  0  0  0  0  0  0  0  0  0  0  0
   -0.3990   23.2300  -28.2660 C   0  0  0  0  0  0  0  0  0  0  0  0
    0.5170   24.2750  -28.4830 O   0  0  0  0  0  0  0  0  0  0  0  0
    1.3630   24.8300  -27.4820 C   0  0  0  0  0  0  0  0  0  0  0  0
   -1.7740   23.4670  -28.4770 C   0  0  0  0  0  0  0  0  0  0  0  0
   -2.2570   24.7900  -28.9470 C   0  0  0  0  0  0  0  0  0  0  0  0
   -1.8600   25.8370  -28.3690 O   0  0  0  0  0  0  0  0  0  0  0  0
   -3.1130   24.9200  -30.0900 N   0  0  0  0  0  0  0  0  0  0  0  0
   -4.2570   24.1060  -30.3900 C   0  0  0  0  0  0  0  0  0  0  0  0
   -4.1050   23.0220  -31.2610 C   0  0  0  0  0  0  0  0  0  0  0  0
   -5.2000   22.2130  -31.5800 C   0  0  0  0  0  0  0  0  0  0  0  0
   -6.4700   22.4950  -31.0560 C   0  0  0  0  0  0  0  0  0  0  0  0
   -7.5810   21.6420  -31.3750 N   0  0  0  0  0  0  0  0  0  0  0  0
   -7.5450   20.3270  -31.2150 N   0  0  0  0  0  0  0  0  0  0  0  0
   -8.7360   19.8350  -31.6110 C   0  0  0  0  0  0  0  0  0  0  0  0
   -9.0650   18.3810  -31.6470 C   0  0  0  0  0  0  0  0  0  0  0  0
   -9.5450   20.8580  -32.0670 C   0  0  0  0  0  0  0  0  0  0  0  0
   -8.7750   21.9940  -31.9080 C   0  0  0  0  0  0  0  0  0  0  0  0
   -9.1930   23.3760  -32.3080 C   0  0  0  0  0  0  0  0  0  0  0  0
   -6.6220   23.5870  -30.1850 C   0  0  0  0  0  0  0  0  0  0  0  0
   -5.5280   24.3960  -29.8670 C   0  0  0  0  0  0  0  0  0  0  0  0
   -2.6970   22.4310  -28.2540 C   0  0  0  0  0  0  0  0  0  0  0  0
   -3.1665   19.5150  -25.6411 H   0  0  0  0  0  0  0  0  0  0  0  0
   -3.9351   18.3954  -26.8168 H   0  0  0  0  0  0  0  0  0  0  0  0
   -2.1520   18.6123  -26.8168 H   0  0  0  0  0  0  0  0  0  0  0  0
   -0.5663   19.9584  -27.2490 H   0  0  0  0  0  0  0  0  0  0  0  0
    1.0914   21.7667  -27.6630 H   0  0  0  0  0  0  0  0  0  0  0  0
    0.9711   24.5729  -26.4869 H   0  0  0  0  0  0  0  0  0  0  0  0
    2.3785   24.4221  -27.5928 H   0  0  0  0  0  0  0  0  0  0  0  0
    1.3932   25.9240  -27.5928 H   0  0  0  0  0  0  0  0  0  0  0  0
   -3.1188   22.8048  -31.6973 H   0  0  0  0  0  0  0  0  0  0  0  0
   -5.0643   21.3489  -32.2470 H   0  0  0  0  0  0  0  0  0  0  0  0
   -9.1514   17.9991  -30.6191 H   0  0  0  0  0  0  0  0  0  0  0  0
  -10.0191   18.2339  -32.1742 H   0  0  0  0  0  0  0  0  0  0  0  0
   -8.2671   17.8375  -32.1742 H   0  0  0  0  0  0  0  0  0  0  0  0
  -10.5677   20.7848  -32.4653 H   0  0  0  0  0  0  0  0  0  0  0  0
   -9.3755   23.9792  -31.4064 H   0  0  0  0  0  0  0  0  0  0  0  0
   -8.3955   23.8417  -32.9056 H   0  0  0  0  0  0  0  0  0  0  0  0
  -10.1149   23.3217  -32.9056 H   0  0  0  0  0  0  0  0  0  0  0  0
   -7.6085   23.8064  -29.7507 H   0  0  0  0  0  0  0  0  0  0  0  0
   -5.6627   25.2636  -29.2043 H   0  0  0  0  0  0  0  0  0  0  0  0
   -3.7674   22.6125  -28.4310 H   0  0  0  0  0  0  0  0  0  0  0  0
  1  2  1  0
  2  3  1  0
  3  4  2  0
  4  5  1  0
  5  6  2  0
  6  7  1  0
  7  8  1  0
  6  9  1  0
  9 10  1  0
 10 11  2  0
 10 12  1  0
 12 13  1  0
 13 14  2  0
 14 15  1  0
 15 16  2  0
 16 17  1  0
 17 18  1  0
 18 19  2  0
 19 20  1  0
 19 21  1  0
 21 22  2  0
 22 23  1  0
 16 24  1  0
 24 25  2  0
  9 26  2  0
 26  3  1  0
 25 13  1  0
 22 17  1  0
  1 27  1  0
  1 28  1  0
  1 29  1  0
  4 30  1  0
  5 31  1  0
  8 32  1  0
  8 33  1  0
  8 34  1  0
 14 35  1  0
 15 36  1  0
 20 37  1  0
 20 38  1  0
 20 39  1  0
 21 40  1  0
 23 41  1  0
 23 42  1  0
 23 43  1  0
 24 44  1  0
 25 45  1  0
 26 46  1  0
M  CHG  1  12  -1
M  END
>  <UniqueID>  (41) 
37

>  <SMILES>  (41) 
COc1ccc(OC)c(C(=O)[N-]c2ccc(-n3nc(C)cc3C)cc2)c1

>  <Energy>  (41) 
87.49028198836001

>  <Genealogy>  (41) 
COc1ccc(OC)c(C(=O)[N-]c2ccc(-n3nc(C)cc3C)cc2)c1 (protonated)
COc1ccc(OC)c(C(=O)[N-]c2ccc(-n3nc(C)cc3C)cc2)c1 (3D coordinates assigned)
COc1ccc(OC)c(C(=O)[N-]c2ccc(-n3nc(C)cc3C)cc2)c1 (optimized conformer: 87.49028198836001 kcal/mol)

>  <smiles>  (41) 
COc1ccc(OC)c(C(=O)Nc2ccc(-n3nc(C)cc3C)cc2)c1

>  <score_type>  (41) 
oracle

>  <origin>  (41) 
adgpu

>  <m_score__min__energy>  (41) 
-10.27

>  <m_primary>  (41) 
energy

$$$$
41:0
     RDKit          3D

 40 41  0  0  0  0  0  0  0  0999 V2000
   -2.2160   24.2500  -29.3100 C   0  0  0  0  0  0  0  0  0  0  0  0
   -3.1820   24.9070  -30.1250 O   0  0  0  0  0  0  0  0  0  0  0  0
   -4.4630   24.4050  -30.3970 C   0  0  0  0  0  0  0  0  0  0  0  0
   -5.5670   25.1960  -30.0750 C   0  0  0  0  0  0  0  0  0  0  0  0
   -6.8630   24.7450  -30.3260 C   0  0  0  0  0  0  0  0  0  0  0  0
   -7.0800   23.4830  -30.9110 C   0  0  0  0  0  0  0  0  0  0  0  0
   -8.3710   23.0160  -31.2040 O   0  0  0  0  0  0  0  0  0  0  0  0
   -9.1440   23.4230  -32.3280 C   0  0  0  0  0  0  0  0  0  0  0  0
   -5.9720   22.6700  -31.2290 C   0  0  0  0  0  0  0  0  0  0  0  0
   -6.1560   21.3680  -31.8160 N   0  0  0  0  0  0  0  0  0  0  0  0
   -5.1240   20.7800  -32.6750 C   0  0  0  0  0  0  0  0  0  0  0  0
   -5.7880   20.0290  -33.8380 C   0  0  0  0  0  0  0  0  0  0  0  0
   -6.8370   19.0560  -33.4020 N   0  0  0  0  0  0  0  0  0  0  0  0
   -6.4390   17.6950  -33.7170 C   0  0  0  0  0  0  0  0  0  0  0  0
   -5.2700   17.4090  -34.6170 C   0  0  0  0  0  0  0  0  0  0  0  0
   -7.0590   16.7510  -33.2440 O   0  0  0  0  0  0  0  0  0  0  0  0
   -7.2030   19.1420  -31.9680 C   0  0  0  0  0  0  0  0  0  0  0  0
   -7.3700   20.5980  -31.5180 C   0  0  0  0  0  0  0  0  0  0  0  0
   -4.6710   23.1400  -30.9760 C   0  0  0  0  0  0  0  0  0  0  0  0
   -2.4580   24.4146  -28.2496 H   0  0  0  0  0  0  0  0  0  0  0  0
   -2.2271   23.1714  -29.5255 H   0  0  0  0  0  0  0  0  0  0  0  0
   -1.2169   24.6567  -29.5255 H   0  0  0  0  0  0  0  0  0  0  0  0
   -5.4136   26.1851  -29.6187 H   0  0  0  0  0  0  0  0  0  0  0  0
   -7.7221   25.3804  -30.0648 H   0  0  0  0  0  0  0  0  0  0  0  0
  -10.0677   23.9093  -31.9811 H   0  0  0  0  0  0  0  0  0  0  0  0
   -8.5624   24.1318  -32.9357 H   0  0  0  0  0  0  0  0  0  0  0  0
   -9.3993   22.5424  -32.9357 H   0  0  0  0  0  0  0  0  0  0  0  0
   -4.4814   21.5786  -33.0743 H   0  0  0  0  0  0  0  0  0  0  0  0
   -4.5157   20.0774  -32.0865 H   0  0  0  0  0  0  0  0  0  0  0  0
   -6.2548   20.7669  -34.5070 H   0  0  0  0  0  0  0  0  0  0  0  0
   -4.9991   19.4493  -34.3396 H   0  0  0  0  0  0  0  0  0  0  0  0
   -7.7050   19.2810  -33.9430 H   0  0  0  0  0  0  0  0  0  0  0  0
   -4.3815   17.1916  -34.0061 H   0  0  0  0  0  0  0  0  0  0  0  0
   -5.4999   16.5406  -35.2519 H   0  0  0  0  0  0  0  0  0  0  0  0
   -5.0730   18.2854  -35.2519 H   0  0  0  0  0  0  0  0  0  0  0  0
   -8.1510   18.6074  -31.8082 H   0  0  0  0  0  0  0  0  0  0  0  0
   -6.3937   18.6884  -31.3771 H   0  0  0  0  0  0  0  0  0  0  0  0
   -8.2229   21.0460  -32.0490 H   0  0  0  0  0  0  0  0  0  0  0  0
   -7.5479   20.6180  -30.4327 H   0  0  0  0  0  0  0  0  0  0  0  0
   -3.8060   22.5112  -31.2338 H   0  0  0  0  0  0  0  0  0  0  0  0
  1  2  1  0
  2  3  1  0
  3  4  2  0
  4  5  1  0
  5  6  2  0
  6  7  1  0
  7  8  1  0
  6  9  1  0
  9 10  1  0
 10 11  1  0
 11 12  1  0
 12 13  1  0
 13 14  1  0
 14 15  1  0
 14 16  2  0
 13 17  1  0
 17 18  1  0
  9 19  2  0
 19  3  1  0
 18 10  1  0
  1 20  1  0
  1 21  1  0
  1 22  1  0
  4 23  1  0
  5 24  1  0
  8 25  1  0
  8 26  1  0
  8 27  1  0
 11 28  1  0
 11 29  1  0
 12 30  1  0
 12 31  1  0
 13 32  1  0
 15 33  1  0
 15 34  1  0
 15 35  1  0
 17 36  1  0
 17 37  1  0
 18 38  1  0
 18 39  1  0
 19 40  1  0
M  CHG  1  13   1
M  END
>  <UniqueID>  (42) 
38

>  <SMILES>  (42) 
COc1ccc(OC)c(N2CC[NH+](C(C)=O)CC2)c1

>  <Energy>  (42) 
48.00074148559527

>  <Genealogy>  (42) 
COc1ccc(OC)c(N2CC[NH+](C(C)=O)CC2)c1 (protonated)
COc1ccc(OC)c(N2CC[NH+](C(C)=O)CC2)c1 (3D coordinates assigned)
COc1ccc(OC)c(N2CC[NH+](C(C)=O)CC2)c1 (nonaromatic ring conformer: 48.00074148559527 kcal/mol)

>  <smiles>  (42) 
COc1ccc(OC)c(N2CCN(C(C)=O)CC2)c1

>  <score_type>  (42) 
oracle

>  <origin>  (42) 
adgpu

>  <m_score__min__energy>  (42) 
-6.3799999999999999

>  <m_primary>  (42) 
energy

$$$$
42:0
     RDKit          3D

 55 57  0  0  0  0  0  0  0  0999 V2000
   -0.5550   27.2130  -24.0040 C   0  0  0  0  0  0  0  0  0  0  0  0
   -0.8810   27.4160  -25.3750 O   0  0  0  0  0  0  0  0  0  0  0  0
   -1.2570   26.3920  -26.2580 C   0  0  0  0  0  0  0  0  0  0  0  0
   -2.4090   25.6550  -25.9680 C   0  0  0  0  0  0  0  0  0  0  0  0
   -2.8220   24.6210  -26.8120 C   0  0  0  0  0  0  0  0  0  0  0  0
   -2.0870   24.3130  -27.9680 C   0  0  0  0  0  0  0  0  0  0  0  0
   -2.4960   23.2320  -28.8290 N   0  0  0  0  0  0  0  0  0  0  0  0
   -2.3850   23.4010  -30.2860 C   0  0  0  0  0  0  0  0  0  0  0  0
   -3.6060   22.8420  -30.9790 C   0  0  0  0  0  0  0  0  0  0  0  0
   -3.6320   21.4890  -31.3510 C   0  0  0  0  0  0  0  0  0  0  0  0
   -4.7670   20.9380  -31.9460 C   0  0  0  0  0  0  0  0  0  0  0  0
   -5.8990   21.7210  -32.1770 C   0  0  0  0  0  0  0  0  0  0  0  0
   -7.0150   21.1160  -32.7750 O   0  0  0  0  0  0  0  0  0  0  0  0
   -7.2450   19.7120  -32.8180 C   0  0  0  0  0  0  0  0  0  0  0  0
   -5.8820   23.0790  -31.8100 C   0  0  0  0  0  0  0  0  0  0  0  0
   -4.7400   23.6480  -31.2120 C   0  0  0  0  0  0  0  0  0  0  0  0
   -4.6990   25.0030  -30.8430 O   0  0  0  0  0  0  0  0  0  0  0  0
   -5.7190   25.6810  -30.1190 C   0  0  0  0  0  0  0  0  0  0  0  0
   -3.2140   22.1020  -28.2850 C   0  0  0  0  0  0  0  0  0  0  0  0
   -4.4600   22.1760  -28.1030 O   0  0  0  0  0  0  0  0  0  0  0  0
   -2.5180   20.8480  -27.9140 C   0  0  0  0  0  0  0  0  0  0  0  0
   -3.1060   19.9950  -26.9660 C   0  0  0  0  0  0  0  0  0  0  0  0
   -2.4590   18.8230  -26.5710 C   0  0  0  0  0  0  0  0  0  0  0  0
   -1.2230   18.4880  -27.1220 C   0  0  0  0  0  0  0  0  0  0  0  0
   -0.6350   19.3160  -28.0810 C   0  0  0  0  0  0  0  0  0  0  0  0
   -1.2810   20.4980  -28.4960 C   0  0  0  0  0  0  0  0  0  0  0  0
   -0.7360   21.3250  -29.4920 O   0  0  0  0  0  0  0  0  0  0  0  0
   -0.1830   20.8600  -30.7180 C   0  0  0  0  0  0  0  0  0  0  0  0
   -0.9310   25.0540  -28.2630 C   0  0  0  0  0  0  0  0  0  0  0  0
   -0.5180   26.0860  -27.4160 C   0  0  0  0  0  0  0  0  0  0  0  0
   -1.3188   27.6886  -23.3712 H   0  0  0  0  0  0  0  0  0  0  0  0
   -0.5219   26.1344  -23.7908 H   0  0  0  0  0  0  0  0  0  0  0  0
    0.4276   27.6592  -23.7908 H   0  0  0  0  0  0  0  0  0  0  0  0
   -2.9952   25.8912  -25.0677 H   0  0  0  0  0  0  0  0  0  0  0  0
   -3.7275   24.0454  -26.5696 H   0  0  0  0  0  0  0  0  0  0  0  0
   -2.2946   24.4720  -30.5202 H   0  0  0  0  0  0  0  0  0  0  0  0
   -1.4959   22.8586  -30.6400 H   0  0  0  0  0  0  0  0  0  0  0  0
   -2.7494   20.8574  -31.1718 H   0  0  0  0  0  0  0  0  0  0  0  0
   -4.7699   19.8768  -32.2357 H   0  0  0  0  0  0  0  0  0  0  0  0
   -7.3093   19.3194  -31.7925 H   0  0  0  0  0  0  0  0  0  0  0  0
   -8.1880   19.5110  -33.3474 H   0  0  0  0  0  0  0  0  0  0  0  0
   -6.4154   19.2206  -33.3474 H   0  0  0  0  0  0  0  0  0  0  0  0
   -6.7694   23.7031  -31.9917 H   0  0  0  0  0  0  0  0  0  0  0  0
   -5.5424   25.5636  -29.0396 H   0  0  0  0  0  0  0  0  0  0  0  0
   -5.7044   26.7498  -30.3788 H   0  0  0  0  0  0  0  0  0  0  0  0
   -6.6988   25.2538  -30.3788 H   0  0  0  0  0  0  0  0  0  0  0  0
   -4.0833   20.2523  -26.5317 H   0  0  0  0  0  0  0  0  0  0  0  0
   -2.9248   18.1631  -25.8243 H   0  0  0  0  0  0  0  0  0  0  0  0
   -0.7097   17.5696  -26.8008 H   0  0  0  0  0  0  0  0  0  0  0  0
    0.3384   19.0439  -28.5151 H   0  0  0  0  0  0  0  0  0  0  0  0
    0.6433   20.1652  -30.5073 H   0  0  0  0  0  0  0  0  0  0  0  0
   -0.9605   20.3403  -31.2972 H   0  0  0  0  0  0  0  0  0  0  0  0
    0.1956   21.7151  -31.2972 H   0  0  0  0  0  0  0  0  0  0  0  0
   -0.3474   24.8208  -29.1658 H   0  0  0  0  0  0  0  0  0  0  0  0
    0.3884   26.6615  -27.6554 H   0  0  0  0  0  0  0  0  0  0  0  0
  1  2  1  0
  2  3  1  0
  3  4  2  0
  4  5  1  0
  5  6  2  0
  6  7  1  0
  7  8  1  0
  8  9  1  0
  9 10  2  0
 10 11  1  0
 11 12  2  0
 12 13  1  0
 13 14  1  0
 12 15  1  0
 15 16  2  0
 16 17  1  0
 17 18  1  0
  7 19  1  0
 19 20  2  0
 19 21  1  0
 21 22  2  0
 22 23  1  0
 23 24  2  0
 24 25  1  0
 25 26  2  0
 26 27  1  0
 27 28  1  0
  6 29  1  0
 29 30  2  0
 30  3  1  0
 16  9  1  0
 26 21  1  0
  1 31  1  0
  1 32  1  0
  1 33  1  0
  4 34  1  0
  5 35  1  0
  8 36  1  0
  8 37  1  0
 10 38  1  0
 11 39  1  0
 14 40  1  0
 14 41  1  0
 14 42  1  0
 15 43  1  0
 18 44  1  0
 18 45  1  0
 18 46  1  0
 22 47  1  0
 23 48  1  0
 24 49  1  0
 25 50  1  0
 28 51  1  0
 28 52  1  0
 28 53  1  0
 29 54  1  0
 30 55  1  0
M  END
>  <UniqueID>  (43) 
39

>  <SMILES>  (43) 
COc1ccc(N(Cc2ccc(OC)cc2OC)C(=O)c2ccccc2OC)cc1

>  <Energy>  (43) 
62.16530489255455

>  <Genealogy>  (43) 
COc1ccc(N(Cc2ccc(OC)cc2OC)C(=O)c2ccccc2OC)cc1 (3D coordinates assigned)
COc1ccc(N(Cc2ccc(OC)cc2OC)C(=O)c2ccccc2OC)cc1 (optimized conformer: 62.16530489255455 kcal/mol)

>  <smiles>  (43) 
COc1ccc(N(Cc2ccc(OC)cc2OC)C(=O)c2ccccc2OC)cc1

>  <score_type>  (43) 
oracle

>  <origin>  (43) 
adgpu

>  <m_score__min__energy>  (43) 
-7.9900000000000002

>  <m_primary>  (43) 
energy

$$$$
43:0
     RDKit          3D

 77 81  0  0  0  0  0  0  0  0999 V2000
    2.2340   21.7620  -35.4400 C   0  0  0  0  0  0  0  0  0  0  0  0
    0.9330   22.3820  -35.1440 N   0  0  0  0  0  0  0  0  0  0  0  0
    0.6410   23.4860  -36.0730 C   0  0  0  0  0  0  0  0  0  0  0  0
   -0.1780   21.4040  -35.0390 C   0  0  0  0  0  0  0  0  0  0  0  0
   -0.6830   21.1470  -33.6000 C   0  0  0  0  0  0  0  0  0  0  0  0
   -2.1090   20.8220  -33.5720 N   0  0  0  0  0  0  0  0  0  0  0  0
   -2.5720   19.4760  -33.7310 C   0  0  0  0  0  0  0  0  0  0  0  0
   -1.7520   18.5580  -34.0070 O   0  0  0  0  0  0  0  0  0  0  0  0
   -4.0120   19.1580  -33.6540 C   0  0  0  0  0  0  0  0  0  0  0  0
   -5.0190   20.1030  -33.7570 C   0  0  0  0  0  0  0  0  0  0  0  0
   -6.1990   19.4110  -33.5470 C   0  0  0  0  0  0  0  0  0  0  0  0
   -7.5090   19.9690  -33.4020 N   0  0  0  0  0  0  0  0  0  0  0  0
   -8.0290   20.5380  -32.1950 C   0  0  0  0  0  0  0  0  0  0  0  0
   -8.9990   19.9890  -31.6030 O   0  0  0  0  0  0  0  0  0  0  0  0
   -7.4190   21.7690  -31.6530 C   0  0  0  0  0  0  0  0  0  0  0  0
   -6.1200   21.8370  -31.1750 C   0  0  0  0  0  0  0  0  0  0  0  0
   -5.8480   23.1760  -30.9970 C   0  0  0  0  0  0  0  0  0  0  0  0
   -4.5340   23.7010  -30.7770 N   0  0  0  0  0  0  0  0  0  0  0  0
   -3.3080   22.9570  -30.7840 C   0  0  0  0  0  0  0  0  0  0  0  0
   -2.7380   22.7310  -31.8860 O   0  0  0  0  0  0  0  0  0  0  0  0
   -2.7140   22.4180  -29.5490 C   0  0  0  0  0  0  0  0  0  0  0  0
   -1.9590   21.2610  -29.4780 C   0  0  0  0  0  0  0  0  0  0  0  0
   -1.5750   21.1590  -28.1480 C   0  0  0  0  0  0  0  0  0  0  0  0
   -0.6740   20.2100  -27.5660 N   0  0  0  0  0  0  0  0  0  0  0  0
   -0.8890   18.7980  -27.4350 C   0  0  0  0  0  0  0  0  0  0  0  0
   -1.8440   18.3600  -26.7360 O   0  0  0  0  0  0  0  0  0  0  0  0
    0.0620   17.8470  -28.0530 C   0  0  0  0  0  0  0  0  0  0  0  0
    0.6160   16.8380  -27.2450 C   0  0  0  0  0  0  0  0  0  0  0  0
    1.5720   15.9680  -27.7680 C   0  0  0  0  0  0  0  0  0  0  0  0
    1.9650   16.0800  -29.0610 N   0  0  0  0  0  0  0  0  0  0  0  0
    1.4420   17.0220  -29.8910 C   0  0  0  0  0  0  0  0  0  0  0  0
    1.8700   17.0770  -31.2230 C   0  0  0  0  0  0  0  0  0  0  0  0
    1.3200   18.0160  -32.0990 C   0  0  0  0  0  0  0  0  0  0  0  0
    0.3280   18.8920  -31.6540 C   0  0  0  0  0  0  0  0  0  0  0  0
   -0.1070   18.8480  -30.3260 C   0  0  0  0  0  0  0  0  0  0  0  0
    0.4580   17.9290  -29.4150 C   0  0  0  0  0  0  0  0  0  0  0  0
   -2.1070   22.2360  -27.4720 C   0  0  0  0  0  0  0  0  0  0  0  0
   -2.7980   23.0070  -28.3330 N   0  0  0  0  0  0  0  0  0  0  0  0
   -3.5700   24.1970  -27.9790 C   0  0  0  0  0  0  0  0  0  0  0  0
   -6.9760   23.8840  -31.3750 C   0  0  0  0  0  0  0  0  0  0  0  0
   -7.9380   23.0210  -31.7550 N   0  0  0  0  0  0  0  0  0  0  0  0
   -9.2270   23.4100  -32.3220 C   0  0  0  0  0  0  0  0  0  0  0  0
   -5.8810   18.0900  -33.3300 C   0  0  0  0  0  0  0  0  0  0  0  0
   -4.5450   17.9320  -33.4230 N   0  0  0  0  0  0  0  0  0  0  0  0
   -3.8490   16.6530  -33.3000 C   0  0  0  0  0  0  0  0  0  0  0  0
    2.7466   21.5177  -34.4979 H   0  0  0  0  0  0  0  0  0  0  0  0
    2.0777   20.8416  -36.0217 H   0  0  0  0  0  0  0  0  0  0  0  0
    2.8504   22.4631  -36.0217 H   0  0  0  0  0  0  0  0  0  0  0  0
    0.4009   24.3937  -35.4999 H   0  0  0  0  0  0  0  0  0  0  0  0
    1.5202   23.6743  -36.7066 H   0  0  0  0  0  0  0  0  0  0  0  0
   -0.2163   23.2150  -36.7066 H   0  0  0  0  0  0  0  0  0  0  0  0
   -1.0222   21.7799  -35.6357 H   0  0  0  0  0  0  0  0  0  0  0  0
    0.2187   20.4449  -35.4035 H   0  0  0  0  0  0  0  0  0  0  0  0
   -0.1183   20.3068  -33.1697 H   0  0  0  0  0  0  0  0  0  0  0  0
   -0.5316   22.0670  -33.0163 H   0  0  0  0  0  0  0  0  0  0  0  0
   -2.8150   21.5920  -33.5490 H   0  0  0  0  0  0  0  0  0  0  0  0
   -4.9050   21.1776  -33.9625 H   0  0  0  0  0  0  0  0  0  0  0  0
   -5.4430   20.9928  -30.9776 H   0  0  0  0  0  0  0  0  0  0  0  0
   -1.7154   20.5705  -30.2989 H   0  0  0  0  0  0  0  0  0  0  0  0
    0.2944   16.7349  -26.1981 H   0  0  0  0  0  0  0  0  0  0  0  0
    2.0095   15.1871  -27.1286 H   0  0  0  0  0  0  0  0  0  0  0  0
    2.6413   16.3790  -31.5806 H   0  0  0  0  0  0  0  0  0  0  0  0
    1.6690   18.0653  -33.1410 H   0  0  0  0  0  0  0  0  0  0  0  0
   -0.1131   19.6197  -32.3511 H   0  0  0  0  0  0  0  0  0  0  0  0
   -0.8964   19.5354  -29.9879 H   0  0  0  0  0  0  0  0  0  0  0  0
   -1.9860   22.4347  -26.3969 H   0  0  0  0  0  0  0  0  0  0  0  0
   -3.6269   24.2848  -26.8840 H   0  0  0  0  0  0  0  0  0  0  0  0
   -3.0785   25.0896  -28.3933 H   0  0  0  0  0  0  0  0  0  0  0  0
   -4.5854   24.1120  -28.3933 H   0  0  0  0  0  0  0  0  0  0  0  0
   -7.0717   24.9798  -31.3664 H   0  0  0  0  0  0  0  0  0  0  0  0
   -9.9358   23.6239  -31.5085 H   0  0  0  0  0  0  0  0  0  0  0  0
   -9.0984   24.3093  -32.9422 H   0  0  0  0  0  0  0  0  0  0  0  0
   -9.6173   22.5896  -32.9422 H   0  0  0  0  0  0  0  0  0  0  0  0
   -6.6031   17.2887  -33.1145 H   0  0  0  0  0  0  0  0  0  0  0  0
   -3.7161   16.4088  -32.2357 H   0  0  0  0  0  0  0  0  0  0  0  0
   -4.4424   15.8644  -33.7858 H   0  0  0  0  0  0  0  0  0  0  0  0
   -2.8646   16.7230  -33.7858 H   0  0  0  0  0  0  0  0  0  0  0  0
  1  2  1  0
  2  3  1  0
  2  4  1  0
  4  5  1  0
  5  6  1  0
  6  7  1  0
  7  8  2  0
  7  9  1  0
  9 10  2  0
 10 11  1  0
 11 12  1  0
 12 13  1  0
 13 14  2  0
 13 15  1  0
 15 16  2  0
 16 17  1  0
 17 18  1  0
 18 19  1  0
 19 20  2  0
 19 21  1  0
 21 22  2  0
 22 23  1  0
 23 24  1  0
 24 25  1  0
 25 26  2  0
 25 27  1  0
 27 28  2  0
 28 29  1  0
 29 30  2  0
 30 31  1  0
 31 32  2  0
 32 33  1  0
 33 34  2  0
 34 35  1  0
 35 36  2  0
 23 37  2  0
 37 38  1  0
 38 39  1  0
 17 40  2  0
 40 41  1  0
 41 42  1  0
 11 43  2  0
 43 44  1  0
 44 45  1  0
 44  9  1  0
 41 15  1  0
 38 21  1  0
 36 27  1  0
 36 31  1  0
  1 46  1  0
  1 47  1  0
  1 48  1  0
  3 49  1  0
  3 50  1  0
  3 51  1  0
  4 52  1  0
  4 53  1  0
  5 54  1  0
  5 55  1  0
  6 56  1  0
 10 57  1  0
 16 58  1  0
 22 59  1  0
 28 60  1  0
 29 61  1  0
 32 62  1  0
 33 63  1  0
 34 64  1  0
 35 65  1  0
 37 66  1  0
 39 67  1  0
 39 68  1  0
 39 69  1  0
 40 70  1  0
 42 71  1  0
 42 72  1  0
 42 73  1  0
 43 74  1  0
 45 75  1  0
 45 76  1  0
 45 77  1  0
M  CHG  3  12  -1  18  -1  24  -1
M  END
>  <UniqueID>  (44) 
40

>  <SMILES>  (44) 
CN(C)CCNC(=O)c1cc([N-]C(=O)c2cc([N-]C(=O)c3cc([N-]C(=O)c4ccnc5ccccc45)cn3C)cn2C)cn1C

>  <Energy>  (44) 
190.0873125513664

>  <Genealogy>  (44) 
CN(C)CCNC(=O)c1cc([N-]C(=O)c2cc([N-]C(=O)c3cc([N-]C(=O)c4ccnc5ccccc45)cn3C)cn2C)cn1C (protonated)
CN(C)CCNC(=O)c1cc([N-]C(=O)c2cc([N-]C(=O)c3cc([N-]C(=O)c4ccnc5ccccc45)cn3C)cn2C)cn1C (3D coordinates assigned)
CN(C)CCNC(=O)c1cc([N-]C(=O)c2cc([N-]C(=O)c3cc([N-]C(=O)c4ccnc5ccccc45)cn3C)cn2C)cn1C (optimized conformer: 190.0873125513664 kcal/mol)

>  <smiles>  (44) 
CN(C)CCNC(=O)c1cc(NC(=O)c2cc(NC(=O)c3cc(NC(=O)c4ccnc5ccccc45)cn3C)cn2C)cn1C

>  <score_type>  (44) 
oracle

>  <origin>  (44) 
adgpu

>  <m_score__min__energy>  (44) 
-11.039999999999999

>  <m_primary>  (44) 
energy

$$$$
44:0
     RDKit          3D

 28 29  0  0  0  0  0  0  0  0999 V2000
   -6.8020   19.2160  -35.3600 H   0  0  0  0  0  0  0  0  0  0  0  0
   -6.0870   19.0710  -34.6120 N   0  0  0  0  0  0  0  0  0  0  0  0
   -6.4590   19.0550  -33.2350 C   0  0  0  0  0  0  0  0  0  0  0  0
   -6.0360   18.1250  -32.4960 O   0  0  0  0  0  0  0  0  0  0  0  0
   -7.3280   20.1180  -32.6760 C   0  0  0  0  0  0  0  0  0  0  0  0
   -8.6960   19.8800  -32.4610 C   0  0  0  0  0  0  0  0  0  0  0  0
   -9.1228   18.8945  -32.6991 H   0  0  0  0  0  0  0  0  0  0  0  0
   -9.5180   20.8860  -31.9470 C   0  0  0  0  0  0  0  0  0  0  0  0
  -10.5892   20.6917  -31.7893 H   0  0  0  0  0  0  0  0  0  0  0  0
   -8.9840   22.1370  -31.6330 C   0  0  0  0  0  0  0  0  0  0  0  0
   -9.6381   22.9280  -31.2375 H   0  0  0  0  0  0  0  0  0  0  0  0
   -7.6210   22.3890  -31.8190 C   0  0  0  0  0  0  0  0  0  0  0  0
   -7.1250   23.6640  -31.5050 O   0  0  0  0  0  0  0  0  0  0  0  0
   -5.8820   23.9290  -30.9100 C   0  0  0  0  0  0  0  0  0  0  0  0
   -5.1400   24.9660  -31.3760 N   0  0  0  0  0  0  0  0  0  0  0  0
   -3.9580   25.2790  -30.8420 N   0  0  0  0  0  0  0  0  0  0  0  0
   -3.4330   24.5850  -29.7980 C   0  0  0  0  0  0  0  0  0  0  0  0
   -2.2720   24.9430  -29.3270 N   0  0  0  0  0  0  0  0  0  0  0  0
   -1.5660   24.3150  -28.2150 C   0  0  0  0  0  0  0  0  0  0  0  0
   -1.9791   24.6825  -27.2640 H   0  0  0  0  0  0  0  0  0  0  0  0
   -1.6903   23.2235  -28.2714 H   0  0  0  0  0  0  0  0  0  0  0  0
   -0.4964   24.5656  -28.2714 H   0  0  0  0  0  0  0  0  0  0  0  0
   -4.1690   23.5120  -29.2650 C   0  0  0  0  0  0  0  0  0  0  0  0
   -3.7735   22.9342  -28.4166 H   0  0  0  0  0  0  0  0  0  0  0  0
   -5.4040   23.1880  -29.8220 C   0  0  0  0  0  0  0  0  0  0  0  0
   -5.9980   22.3582  -29.4113 H   0  0  0  0  0  0  0  0  0  0  0  0
   -6.7990   21.3840  -32.3590 C   0  0  0  0  0  0  0  0  0  0  0  0
   -5.7327   21.5887  -32.5355 H   0  0  0  0  0  0  0  0  0  0  0  0
  1  2  1  0
  2  3  1  0
  3  4  2  0
  3  5  1  0
  5  6  2  0
  6  7  1  0
  6  8  1  0
  8  9  1  0
  8 10  2  0
 10 11  1  0
 10 12  1  0
 12 13  1  0
 13 14  1  0
 14 15  2  0
 15 16  1  0
 16 17  1  0
 17 18  2  0
 18 19  1  0
 19 20  1  0
 19 21  1  0
 19 22  1  0
 17 23  1  0
 23 24  1  0
 23 25  2  0
 25 26  1  0
 12 27  2  0
 27 28  1  0
 27  5  1  0
 25 14  1  0
M  CHG  2   2  -1  16  -1
M  END
>  <UniqueID>  (45) 
41

>  <SMILES>  (45) 
C/N=c1\ccc(Oc2cccc(C([NH-])=O)c2)n[n-]1

>  <Energy>  (45) 
37.39159786169711

>  <Genealogy>  (45) 
CN=c1ccc(Oc2cccc(C([NH-])=O)c2)n[n-]1 (protonated)
C/N=c1\ccc(Oc2cccc(C([NH-])=O)c2)n[n-]1 (cis-trans isomerization)
C/N=c1\ccc(Oc2cccc(C([NH-])=O)c2)n[n-]1 (3D coordinates assigned)
C/N=c1\ccc(Oc2cccc(C([NH-])=O)c2)n[n-]1 (optimized conformer: 37.39159786169711 kcal/mol)

>  <smiles>  (45) 
CN=c1ccc(Oc2cccc(C(N)=O)c2)n[nH]1

>  <score_type>  (45) 
oracle

>  <origin>  (45) 
adgpu

>  <m_score__min__energy>  (45) 
-9.4700000000000006

>  <m_primary>  (45) 
energy

$$$$
45:0
     RDKit          3D

 38 40  0  0  0  0  0  0  0  0999 V2000
   -5.4130   26.4180  -30.5030 O   0  0  0  0  0  0  0  0  0  0  0  0
   -4.8950   25.2810  -30.6820 C   0  0  0  0  0  0  0  0  0  0  0  0
   -3.4980   25.0810  -30.4260 N   0  0  0  0  0  0  0  0  0  0  0  0
   -2.9140   24.0370  -29.6340 C   0  0  0  0  0  0  0  0  0  0  0  0
   -2.3070   22.9090  -30.2140 C   0  0  0  0  0  0  0  0  0  0  0  0
   -1.7670   21.9030  -29.4050 C   0  0  0  0  0  0  0  0  0  0  0  0
   -1.8390   22.0030  -28.0020 C   0  0  0  0  0  0  0  0  0  0  0  0
   -1.3110   21.0260  -27.1430 O   0  0  0  0  0  0  0  0  0  0  0  0
   -1.9150   19.7660  -26.8570 C   0  0  0  0  0  0  0  0  0  0  0  0
   -3.0960   19.6640  -27.5650 F   0  0  0  0  0  0  0  0  0  0  0  0
   -1.0740   18.7370  -27.2420 F   0  0  0  0  0  0  0  0  0  0  0  0
   -2.1950   19.6660  -25.5060 F   0  0  0  0  0  0  0  0  0  0  0  0
   -2.4650   23.1170  -27.4310 C   0  0  0  0  0  0  0  0  0  0  0  0
   -3.0060   24.1210  -28.2400 C   0  0  0  0  0  0  0  0  0  0  0  0
   -5.7430   24.1420  -31.1070 C   0  0  0  0  0  0  0  0  0  0  0  0
   -7.1260   24.1480  -30.8540 C   0  0  0  0  0  0  0  0  0  0  0  0
   -7.9220   23.0740  -31.2530 C   0  0  0  0  0  0  0  0  0  0  0  0
   -7.3530   21.9810  -31.9080 C   0  0  0  0  0  0  0  0  0  0  0  0
   -5.9720   21.9470  -32.1720 C   0  0  0  0  0  0  0  0  0  0  0  0
   -5.3490   20.7930  -32.8670 C   0  0  0  0  0  0  0  0  0  0  0  0
   -4.0020   20.5550  -33.0560 C   0  0  0  0  0  0  0  0  0  0  0  0
   -3.8460   19.3970  -33.7190 N   0  0  0  0  0  0  0  0  0  0  0  0
   -5.1080   18.9690  -33.9300 C   0  0  0  0  0  0  0  0  0  0  0  0
   -5.4260   17.6630  -34.5860 C   0  0  0  0  0  0  0  0  0  0  0  0
   -6.6990   17.2660  -34.2190 F   0  0  0  0  0  0  0  0  0  0  0  0
   -5.3690   17.7980  -35.9610 F   0  0  0  0  0  0  0  0  0  0  0  0
   -4.5160   16.7010  -34.1880 F   0  0  0  0  0  0  0  0  0  0  0  0
   -6.0520   19.7820  -33.4130 N   0  0  0  0  0  0  0  0  0  0  0  0
   -5.1760   23.0350  -31.7670 C   0  0  0  0  0  0  0  0  0  0  0  0
   -2.2564   22.8169  -31.3090 H   0  0  0  0  0  0  0  0  0  0  0  0
   -1.2838   21.0296  -29.8672 H   0  0  0  0  0  0  0  0  0  0  0  0
   -2.5320   23.2034  -26.3364 H   0  0  0  0  0  0  0  0  0  0  0  0
   -3.5078   24.9836  -27.7772 H   0  0  0  0  0  0  0  0  0  0  0  0
   -7.5834   25.0051  -30.3381 H   0  0  0  0  0  0  0  0  0  0  0  0
   -9.0031   23.0888  -31.0504 H   0  0  0  0  0  0  0  0  0  0  0  0
   -7.9893   21.1398  -32.2201 H   0  0  0  0  0  0  0  0  0  0  0  0
   -3.1858   21.2100  -32.7173 H   0  0  0  0  0  0  0  0  0  0  0  0
   -4.0948   23.0202  -31.9691 H   0  0  0  0  0  0  0  0  0  0  0  0
  1  2  2  0
  2  3  1  0
  3  4  1  0
  4  5  2  0
  5  6  1  0
  6  7  2  0
  7  8  1  0
  8  9  1  0
  9 10  1  0
  9 11  1  0
  9 12  1  0
  7 13  1  0
 13 14  2  0
  2 15  1  0
 15 16  2  0
 16 17  1  0
 17 18  2  0
 18 19  1  0
 19 20  1  0
 20 21  2  0
 21 22  1  0
 22 23  1  0
 23 24  1  0
 24 25  1  0
 24 26  1  0
 24 27  1  0
 23 28  2  0
 19 29  2  0
 14  4  1  0
 29 15  1  0
 28 20  1  0
  5 30  1  0
  6 31  1  0
 13 32  1  0
 14 33  1  0
 16 34  1  0
 17 35  1  0
 18 36  1  0
 21 37  1  0
 29 38  1  0
M  CHG  2   3  -1  22  -1
M  END
>  <UniqueID>  (46) 
42

>  <SMILES>  (46) 
O=C([N-]c1ccc(OC(F)(F)F)cc1)c1cccc(-c2c[n-]c(C(F)(F)F)n2)c1

>  <Energy>  (46) 
73.12469962835975

>  <Genealogy>  (46) 
O=C([N-]c1ccc(OC(F)(F)F)cc1)c1cccc(-c2c[n-]c(C(F)(F)F)n2)c1 (protonated)
O=C([N-]c1ccc(OC(F)(F)F)cc1)c1cccc(-c2c[n-]c(C(F)(F)F)n2)c1 (3D coordinates assigned)
O=C([N-]c1ccc(OC(F)(F)F)cc1)c1cccc(-c2c[n-]c(C(F)(F)F)n2)c1 (optimized conformer: 73.12469962835975 kcal/mol)

>  <smiles>  (46) 
O=C(Nc1ccc(OC(F)(F)F)cc1)c1cccc(-c2c[nH]c(C(F)(F)F)n2)c1

>  <score_type>  (46) 
oracle

>  <origin>  (46) 
adgpu

>  <m_score__min__energy>  (46) 
-9.2100000000000009

>  <m_primary>  (46) 
energy

$$$$
46:0
     RDKit          3D

 40 42  0  0  0  0  0  0  0  0999 V2000
   -4.0620   12.8750  -35.3460 C   0  0  0  0  0  0  0  0  0  0  0  0
   -5.0570   13.0790  -34.3470 O   0  0  0  0  0  0  0  0  0  0  0  0
   -5.4320   14.3350  -33.8500 C   0  0  0  0  0  0  0  0  0  0  0  0
   -6.5520   15.0370  -34.3320 C   0  0  0  0  0  0  0  0  0  0  0  0
   -6.8840   16.2870  -33.8010 C   0  0  0  0  0  0  0  0  0  0  0  0
   -6.1120   16.8560  -32.7750 C   0  0  0  0  0  0  0  0  0  0  0  0
   -6.4810   18.1860  -32.2300 C   0  0  0  0  0  0  0  0  0  0  0  0
   -5.8980   18.6010  -31.1900 O   0  0  0  0  0  0  0  0  0  0  0  0
   -7.4890   18.9990  -32.8600 N   0  0  0  0  0  0  0  0  0  0  0  0
   -7.8120   20.3370  -32.4460 C   0  0  0  0  0  0  0  0  0  0  0  0
   -9.1190   20.6300  -32.0280 C   0  0  0  0  0  0  0  0  0  0  0  0
   -9.4670   21.9300  -31.6520 C   0  0  0  0  0  0  0  0  0  0  0  0
   -8.5170   22.9520  -31.7000 C   0  0  0  0  0  0  0  0  0  0  0  0
   -7.2070   22.6800  -32.1240 C   0  0  0  0  0  0  0  0  0  0  0  0
   -6.2020   23.7920  -32.2390 C   0  0  0  0  0  0  0  0  0  0  0  0
   -5.4050   23.8690  -31.0200 N   0  0  0  0  0  0  0  0  0  0  0  0
   -5.6380   23.1920  -29.8810 C   0  0  0  0  0  0  0  0  0  0  0  0
   -4.7090   23.5920  -28.9440 C   0  0  0  0  0  0  0  0  0  0  0  0
   -3.9390   24.5380  -29.5940 C   0  0  0  0  0  0  0  0  0  0  0  0
   -4.3870   24.6970  -30.8550 N   0  0  0  0  0  0  0  0  0  0  0  0
   -6.8650   21.3760  -32.5160 C   0  0  0  0  0  0  0  0  0  0  0  0
   -4.9860   16.1580  -32.3040 C   0  0  0  0  0  0  0  0  0  0  0  0
   -4.6550   14.9090  -32.8380 C   0  0  0  0  0  0  0  0  0  0  0  0
   -3.0935   12.6764  -34.8637 H   0  0  0  0  0  0  0  0  0  0  0  0
   -4.3425   12.0157  -35.9728 H   0  0  0  0  0  0  0  0  0  0  0  0
   -3.9817   13.7754  -35.9728 H   0  0  0  0  0  0  0  0  0  0  0  0
   -7.1695   14.6002  -35.1306 H   0  0  0  0  0  0  0  0  0  0  0  0
   -7.7579   16.8298  -34.1904 H   0  0  0  0  0  0  0  0  0  0  0  0
   -8.0620   18.5940  -33.6330 H   0  0  0  0  0  0  0  0  0  0  0  0
   -9.8745   19.8312  -31.9961 H   0  0  0  0  0  0  0  0  0  0  0  0
  -10.4918   22.1487  -31.3174 H   0  0  0  0  0  0  0  0  0  0  0  0
   -8.7962   23.9741  -31.4044 H   0  0  0  0  0  0  0  0  0  0  0  0
   -5.5401   23.5982  -33.0959 H   0  0  0  0  0  0  0  0  0  0  0  0
   -6.7315   24.7449  -32.3862 H   0  0  0  0  0  0  0  0  0  0  0  0
   -6.4326   22.4477  -29.7243 H   0  0  0  0  0  0  0  0  0  0  0  0
   -4.6039   23.2368  -27.9082 H   0  0  0  0  0  0  0  0  0  0  0  0
   -3.0901   25.0785  -29.1499 H   0  0  0  0  0  0  0  0  0  0  0  0
   -5.8490   21.1646  -32.8807 H   0  0  0  0  0  0  0  0  0  0  0  0
   -4.3623   16.5969  -31.5113 H   0  0  0  0  0  0  0  0  0  0  0  0
   -3.7736   14.3715  -32.4581 H   0  0  0  0  0  0  0  0  0  0  0  0
  1  2  1  0
  2  3  1  0
  3  4  2  0
  4  5  1  0
  5  6  2  0
  6  7  1  0
  7  8  2  0
  7  9  1  0
  9 10  1  0
 10 11  2  0
 11 12  1  0
 12 13  2  0
 13 14  1  0
 14 15  1  0
 15 16  1  0
 16 17  1  0
 17 18  2  0
 18 19  1  0
 19 20  2  0
 14 21  2  0
  6 22  1  0
 22 23  2  0
 23  3  1  0
 21 10  1  0
 20 16  1  0
  1 24  1  0
  1 25  1  0
  1 26  1  0
  4 27  1  0
  5 28  1  0
  9 29  1  0
 11 30  1  0
 12 31  1  0
 13 32  1  0
 15 33  1  0
 15 34  1  0
 17 35  1  0
 18 36  1  0
 19 37  1  0
 21 38  1  0
 22 39  1  0
 23 40  1  0
M  END
>  <UniqueID>  (47) 
43

>  <SMILES>  (47) 
COc1ccc(C(=O)Nc2cccc(Cn3cccn3)c2)cc1

>  <Energy>  (47) 
76.1727910640773

>  <Genealogy>  (47) 
COc1ccc(C(=O)Nc2cccc(Cn3cccn3)c2)cc1 (3D coordinates assigned)
COc1ccc(C(=O)Nc2cccc(Cn3cccn3)c2)cc1 (optimized conformer: 76.1727910640773 kcal/mol)

>  <smiles>  (47) 
COc1ccc(C(=O)Nc2cccc(Cn3cccn3)c2)cc1

>  <score_type>  (47) 
oracle

>  <origin>  (47) 
adgpu

>  <m_score__min__energy>  (47) 
-7.6500000000000004

>  <m_primary>  (47) 
energy

$$$$
47:0
     RDKit          3D

 30 31  0  0  0  0  0  0  0  0999 V2000
   -0.8634   21.1646  -29.3786 H   0  0  0  0  0  0  0  0  0  0  0  0
   -0.9530   22.2360  -29.1460 C   0  0  0  0  0  0  0  0  0  0  0  0
   -2.0320   22.9390  -29.5820 N   0  0  0  0  0  0  0  0  0  0  0  0
   -2.1820   24.2700  -29.3220 C   0  0  0  0  0  0  0  0  0  0  0  0
   -3.2310   24.9250  -29.7280 N   0  0  0  0  0  0  0  0  0  0  0  0
   -4.3000   24.4130  -30.5380 C   0  0  0  0  0  0  0  0  0  0  0  0
   -4.9830   25.2210  -31.2210 O   0  0  0  0  0  0  0  0  0  0  0  0
   -4.5440   23.0010  -30.6460 N   0  0  0  0  0  0  0  0  0  0  0  0
   -3.7300   22.3560  -30.5330 H   0  0  0  0  0  0  0  0  0  0  0  0
   -5.7730   22.4560  -31.1540 C   0  0  0  0  0  0  0  0  0  0  0  0
   -6.9820   23.0900  -30.8340 C   0  0  0  0  0  0  0  0  0  0  0  0
   -6.9748   23.9891  -30.2003 H   0  0  0  0  0  0  0  0  0  0  0  0
   -8.1940   22.5910  -31.3120 C   0  0  0  0  0  0  0  0  0  0  0  0
   -9.1376   23.0898  -31.0459 H   0  0  0  0  0  0  0  0  0  0  0  0
   -8.2090   21.4600  -32.1270 C   0  0  0  0  0  0  0  0  0  0  0  0
   -9.1661   21.0609  -32.4939 H   0  0  0  0  0  0  0  0  0  0  0  0
   -7.0110   20.8320  -32.4790 C   0  0  0  0  0  0  0  0  0  0  0  0
   -7.0292   19.9428  -33.1263 H   0  0  0  0  0  0  0  0  0  0  0  0
   -5.7790   21.3320  -32.0090 C   0  0  0  0  0  0  0  0  0  0  0  0
   -4.5570   20.7540  -32.3880 O   0  0  0  0  0  0  0  0  0  0  0  0
   -3.5440   21.4190  -33.1370 C   0  0  0  0  0  0  0  0  0  0  0  0
   -2.8274   21.8894  -32.4476 H   0  0  0  0  0  0  0  0  0  0  0  0
   -3.0183   20.6897  -33.7709 H   0  0  0  0  0  0  0  0  0  0  0  0
   -4.0041   22.1914  -33.7709 H   0  0  0  0  0  0  0  0  0  0  0  0
   -1.2070   24.9370  -28.5700 C   0  0  0  0  0  0  0  0  0  0  0  0
   -1.3200   26.0069  -28.3409 H   0  0  0  0  0  0  0  0  0  0  0  0
   -0.0900   24.2340  -28.1130 C   0  0  0  0  0  0  0  0  0  0  0  0
    0.6843   24.7499  -27.5262 H   0  0  0  0  0  0  0  0  0  0  0  0
    0.0410   22.8750  -28.4030 C   0  0  0  0  0  0  0  0  0  0  0  0
    0.9184   22.3134  -28.0497 H   0  0  0  0  0  0  0  0  0  0  0  0
  1  2  1  0
  2  3  1  0
  3  4  1  0
  4  5  2  0
  5  6  1  0
  6  7  2  0
  6  8  1  0
  8  9  1  0
  8 10  1  0
 10 11  2  0
 11 12  1  0
 11 13  1  0
 13 14  1  0
 13 15  2  0
 15 16  1  0
 15 17  1  0
 17 18  1  0
 17 19  2  0
 19 20  1  0
 20 21  1  0
 21 22  1  0
 21 23  1  0
 21 24  1  0
  4 25  1  0
 25 26  1  0
 25 27  2  0
 27 28  1  0
 27 29  1  0
 29 30  1  0
 29  2  2  0
 19 10  1  0
M  CHG  1   3  -1
M  END
>  <UniqueID>  (48) 
44

>  <SMILES>  (48) 
COc1ccccc1NC(=O)/N=c1/cccc[n-]1

>  <Energy>  (48) 
39.605294913134934

>  <Genealogy>  (48) 
COc1ccccc1NC(=O)N=c1cccc[n-]1 (protonated)
COc1ccccc1NC(=O)/N=c1/cccc[n-]1 (cis-trans isomerization)
COc1ccccc1NC(=O)/N=c1/cccc[n-]1 (3D coordinates assigned)
COc1ccccc1NC(=O)/N=c1/cccc[n-]1 (optimized conformer: 39.605294913134934 kcal/mol)

>  <smiles>  (48) 
COc1ccccc1NC(=O)N=c1cccc[nH]1

>  <score_type>  (48) 
oracle

>  <origin>  (48) 
adgpu

>  <m_score__min__energy>  (48) 
-6.75

>  <m_primary>  (48) 
energy

$$$$
