0:0
     RDKit          3D

 60 63  0  0  0  0  0  0  0  0999 V2000
   -3.8290   20.5850  -33.4350 C   0  0  0  0  0  0  0  0  0  0  0  0
   -5.0210   21.1470  -32.6960 C   0  0  0  0  0  0  0  0  0  0  0  0
   -4.9750   22.5170  -32.4030 C   0  0  0  0  0  0  0  0  0  0  0  0
   -6.1120   23.2040  -32.0050 C   0  0  0  0  0  0  0  0  0  0  0  0
   -6.0210   24.6120  -31.7620 N   0  0  0  0  0  0  0  0  0  0  0  0
   -5.6570   25.3120  -30.2160 S   0  0  0  0  0  0  0  0  0  0  0  0
   -5.3540   26.7730  -30.4030 O   0  0  0  0  0  0  0  0  0  0  0  0
   -6.8610   25.1780  -29.3240 O   0  0  0  0  0  0  0  0  0  0  0  0
   -4.2880   24.5250  -29.4310 C   0  0  0  0  0  0  0  0  0  0  0  0
   -3.1900   24.1090  -30.1960 C   0  0  0  0  0  0  0  0  0  0  0  0
   -2.0970   23.4890  -29.5800 C   0  0  0  0  0  0  0  0  0  0  0  0
   -2.0980   23.2750  -28.1940 C   0  0  0  0  0  0  0  0  0  0  0  0
   -0.7460   22.4660  -27.4050 S   0  0  0  0  0  0  0  0  0  0  0  0
   -0.9820   22.4810  -25.9190 O   0  0  0  0  0  0  0  0  0  0  0  0
    0.5280   23.2080  -27.6960 O   0  0  0  0  0  0  0  0  0  0  0  0
   -0.6450   20.8170  -27.9890 N   0  0  0  0  0  0  0  0  0  0  0  0
   -1.6790   20.5390  -29.0110 C   0  0  0  0  0  0  0  0  0  0  0  0
   -3.0970   20.4160  -28.4150 C   0  0  0  0  0  0  0  0  0  0  0  0
   -3.1250   19.6710  -27.0680 C   0  0  0  0  0  0  0  0  0  0  0  0
   -1.8320   18.8970  -26.8150 C   0  0  0  0  0  0  0  0  0  0  0  0
   -0.6150   19.8380  -26.8640 C   0  0  0  0  0  0  0  0  0  0  0  0
   -3.1960   23.6900  -27.4310 C   0  0  0  0  0  0  0  0  0  0  0  0
   -4.2840   24.3150  -28.0450 C   0  0  0  0  0  0  0  0  0  0  0  0
   -7.3230   22.5260  -31.8760 C   0  0  0  0  0  0  0  0  0  0  0  0
   -7.4140   21.1370  -32.1280 C   0  0  0  0  0  0  0  0  0  0  0  0
   -6.2220   20.4070  -32.4310 C   0  0  0  0  0  0  0  0  0  0  0  0
   -6.2880   19.0250  -32.4630 N   0  0  0  0  0  0  0  0  0  0  0  0
   -5.0990   18.1670  -32.2880 C   0  0  0  0  0  0  0  0  0  0  0  0
   -7.5070   18.4070  -32.5310 C   0  0  0  0  0  0  0  0  0  0  0  0
   -7.5860   17.1600  -32.7240 O   0  0  0  0  0  0  0  0  0  0  0  0
   -8.6820   19.1390  -32.3640 C   0  0  0  0  0  0  0  0  0  0  0  0
   -9.7900   18.5350  -32.4410 O   0  0  0  0  0  0  0  0  0  0  0  0
   -8.6290   20.4830  -32.0970 N   0  0  0  0  0  0  0  0  0  0  0  0
   -9.8810   21.2220  -31.8300 C   0  0  0  0  0  0  0  0  0  0  0  0
   -3.0809   20.2323  -32.7098 H   0  0  0  0  0  0  0  0  0  0  0  0
   -4.1521   19.7444  -34.0666 H   0  0  0  0  0  0  0  0  0  0  0  0
   -3.3861   21.3692  -34.0666 H   0  0  0  0  0  0  0  0  0  0  0  0
   -4.0204   23.0566  -32.4903 H   0  0  0  0  0  0  0  0  0  0  0  0
   -3.1872   24.2703  -31.2841 H   0  0  0  0  0  0  0  0  0  0  0  0
   -1.2353   23.1689  -30.1842 H   0  0  0  0  0  0  0  0  0  0  0  0
    0.2770   20.7550  -28.4840 H   0  0  0  0  0  0  0  0  0  0  0  0
   -1.6767   21.3590  -29.7442 H   0  0  0  0  0  0  0  0  0  0  0  0
   -1.4319   19.5729  -29.4752 H   0  0  0  0  0  0  0  0  0  0  0  0
   -3.5018   21.4275  -28.2638 H   0  0  0  0  0  0  0  0  0  0  0  0
   -3.7009   19.8317  -29.1249 H   0  0  0  0  0  0  0  0  0  0  0  0
   -3.2641   20.4039  -26.2596 H   0  0  0  0  0  0  0  0  0  0  0  0
   -3.9536   18.9481  -27.0967 H   0  0  0  0  0  0  0  0  0  0  0  0
   -1.8827   18.4239  -25.8232 H   0  0  0  0  0  0  0  0  0  0  0  0
   -1.7191   18.1324  -27.5978 H   0  0  0  0  0  0  0  0  0  0  0  0
   -0.5746   20.3994  -25.9189 H   0  0  0  0  0  0  0  0  0  0  0  0
    0.2697   19.2033  -27.0203 H   0  0  0  0  0  0  0  0  0  0  0  0
   -3.2020   23.5233  -26.3437 H   0  0  0  0  0  0  0  0  0  0  0  0
   -5.1409   24.6436  -27.4386 H   0  0  0  0  0  0  0  0  0  0  0  0
   -8.2234   23.0805  -31.5730 H   0  0  0  0  0  0  0  0  0  0  0  0
   -4.9034   18.0259  -31.2148 H   0  0  0  0  0  0  0  0  0  0  0  0
   -5.2795   17.1897  -32.7594 H   0  0  0  0  0  0  0  0  0  0  0  0
   -4.2284   18.6463  -32.7594 H   0  0  0  0  0  0  0  0  0  0  0  0
  -10.0302   21.3101  -30.7437 H   0  0  0  0  0  0  0  0  0  0  0  0
   -9.8157   22.2264  -32.2738 H   0  0  0  0  0  0  0  0  0  0  0  0
  -10.7288   20.6795  -32.2738 H   0  0  0  0  0  0  0  0  0  0  0  0
  1  2  1  0
  2  3  2  0
  3  4  1  0
  4  5  1  0
  5  6  1  0
  6  7  2  0
  6  8  2  0
  6  9  1  0
  9 10  2  0
 10 11  1  0
 11 12  2  0
 12 13  1  0
 13 14  2  0
 13 15  2  0
 13 16  1  0
 16 17  1  0
 17 18  1  0
 18 19  1  0
 19 20  1  0
 20 21  1  0
 12 22  1  0
 22 23  2  0
  4 24  2  0
 24 25  1  0
 25 26  2  0
 26 27  1  0
 27 28  1  0
 27 29  1  0
 29 30  2  0
 29 31  1  0
 31 32  2  0
 31 33  1  0
 33 34  1  0
 26  2  1  0
 23  9  1  0
 33 25  1  0
 21 16  1  0
  1 35  1  0
  1 36  1  0
  1 37  1  0
  3 38  1  0
 10 39  1  0
 11 40  1  0
 16 41  1  0
 17 42  1  0
 17 43  1  0
 18 44  1  0
 18 45  1  0
 19 46  1  0
 19 47  1  0
 20 48  1  0
 20 49  1  0
 21 50  1  0
 21 51  1  0
 22 52  1  0
 23 53  1  0
 24 54  1  0
 28 55  1  0
 28 56  1  0
 28 57  1  0
 34 58  1  0
 34 59  1  0
 34 60  1  0
M  CHG  2   5  -1  16   1
M  END
>  <UniqueID>  (1) 
1

>  <SMILES>  (1) 
Cc1cc([N-]S(=O)(=O)c2ccc(S(=O)(=O)[NH+]3CCCCC3)cc2)cc2c1n(C)c(=O)c(=O)n2C

>  <Energy>  (1) 
105.75645885361

>  <Genealogy>  (1) 
Cc1cc([N-]S(=O)(=O)c2ccc(S(=O)(=O)[NH+]3CCCCC3)cc2)cc2c1n(C)c(=O)c(=O)n2C (protonated)
Cc1cc([N-]S(=O)(=O)c2ccc(S(=O)(=O)[NH+]3CCCCC3)cc2)cc2c1n(C)c(=O)c(=O)n2C (3D coordinates assigned)
Cc1cc([N-]S(=O)(=O)c2ccc(S(=O)(=O)[NH+]3CCCCC3)cc2)cc2c1n(C)c(=O)c(=O)n2C (nonaromatic ring conformer: 105.75645885361 kcal/mol)

>  <smiles>  (1) 
Cc1cc(NS(=O)(=O)c2ccc(S(=O)(=O)N3CCCCC3)cc2)cc2c1n(C)c(=O)c(=O)n2C

>  <score_type>  (1) 
oracle

>  <origin>  (1) 
adgpu

>  <m_score__min__energy>  (1) 
-11.69

>  <m_primary>  (1) 
energy

$$$$
1:0
     RDKit          3D

 64 68  0  0  0  0  0  0  0  0999 V2000
   -6.1020   18.7110  -35.6060 O   0  0  0  0  0  0  0  0  0  0  0  0
   -5.8160   18.5640  -34.3880 C   0  0  0  0  0  0  0  0  0  0  0  0
   -6.3660   19.5250  -33.4010 C   0  0  0  0  0  0  0  0  0  0  0  0
   -7.6310   19.2970  -32.8390 C   0  0  0  0  0  0  0  0  0  0  0  0
   -8.1370   20.1490  -31.9120 N   0  0  0  0  0  0  0  0  0  0  0  0
   -7.4550   21.2490  -31.4970 C   0  0  0  0  0  0  0  0  0  0  0  0
   -8.0160   22.0920  -30.5350 C   0  0  0  0  0  0  0  0  0  0  0  0
   -7.3190   23.2220  -30.1000 C   0  0  0  0  0  0  0  0  0  0  0  0
   -6.0590   23.5290  -30.6340 C   0  0  0  0  0  0  0  0  0  0  0  0
   -5.1630   24.9370  -30.0590 S   0  0  0  0  0  0  0  0  0  0  0  0
   -6.1080   25.8870  -29.3750 O   0  0  0  0  0  0  0  0  0  0  0  0
   -4.5300   25.6610  -31.2120 O   0  0  0  0  0  0  0  0  0  0  0  0
   -3.9700   24.4340  -28.9030 N   0  0  0  0  0  0  0  0  0  0  0  0
   -3.0860   23.3170  -29.0590 C   0  0  0  0  0  0  0  0  0  0  0  0
   -3.4720   22.0770  -28.5360 C   0  0  0  0  0  0  0  0  0  0  0  0
   -2.6650   20.9490  -28.7160 C   0  0  0  0  0  0  0  0  0  0  0  0
   -1.4480   21.0560  -29.4020 C   0  0  0  0  0  0  0  0  0  0  0  0
   -0.4580   19.6250  -29.6980 S   0  0  0  0  0  0  0  0  0  0  0  0
    0.9920   19.9950  -29.5540 O   0  0  0  0  0  0  0  0  0  0  0  0
   -0.7760   18.5750  -28.6720 O   0  0  0  0  0  0  0  0  0  0  0  0
   -0.7330   18.9730  -31.2950 N   0  0  0  0  0  0  0  0  0  0  0  0
   -1.8500   19.6720  -31.9550 C   0  0  0  0  0  0  0  0  0  0  0  0
   -1.8750   19.3710  -33.4670 C   0  0  0  0  0  0  0  0  0  0  0  0
   -1.1350   18.2010  -33.7570 O   0  0  0  0  0  0  0  0  0  0  0  0
    0.2420   18.4150  -33.4860 C   0  0  0  0  0  0  0  0  0  0  0  0
    0.4860   19.0700  -32.1110 C   0  0  0  0  0  0  0  0  0  0  0  0
   -1.0330   22.3060  -29.8760 C   0  0  0  0  0  0  0  0  0  0  0  0
   -1.8460   23.4300  -29.7080 C   0  0  0  0  0  0  0  0  0  0  0  0
   -5.4960   22.6880  -31.6050 C   0  0  0  0  0  0  0  0  0  0  0  0
   -6.1810   21.5350  -32.0360 C   0  0  0  0  0  0  0  0  0  0  0  0
   -5.6320   20.6540  -32.9890 C   0  0  0  0  0  0  0  0  0  0  0  0
   -4.4910   20.8800  -33.4810 O   0  0  0  0  0  0  0  0  0  0  0  0
   -4.9470   17.4850  -33.9890 N   0  0  0  0  0  0  0  0  0  0  0  0
   -5.0390   16.8910  -32.6460 C   0  0  0  0  0  0  0  0  0  0  0  0
   -4.9830   15.3640  -32.7460 C   0  0  0  0  0  0  0  0  0  0  0  0
   -3.7600   14.8540  -33.5390 C   0  0  0  0  0  0  0  0  0  0  0  0
   -3.0180   15.9560  -34.3130 C   0  0  0  0  0  0  0  0  0  0  0  0
   -3.9920   16.9430  -34.9660 C   0  0  0  0  0  0  0  0  0  0  0  0
   -8.2173   18.4206  -33.1523 H   0  0  0  0  0  0  0  0  0  0  0  0
   -9.0088   21.8657  -30.1189 H   0  0  0  0  0  0  0  0  0  0  0  0
   -7.7614   23.8753  -29.3335 H   0  0  0  0  0  0  0  0  0  0  0  0
   -4.4168   21.9893  -27.9795 H   0  0  0  0  0  0  0  0  0  0  0  0
   -2.9866   19.9753  -28.3180 H   0  0  0  0  0  0  0  0  0  0  0  0
   -2.7977   19.3393  -31.5064 H   0  0  0  0  0  0  0  0  0  0  0  0
   -1.7165   20.7550  -31.8158 H   0  0  0  0  0  0  0  0  0  0  0  0
   -2.9170   19.2282  -33.7894 H   0  0  0  0  0  0  0  0  0  0  0  0
   -1.4217   20.2177  -34.0033 H   0  0  0  0  0  0  0  0  0  0  0  0
    0.7598   17.4448  -33.5099 H   0  0  0  0  0  0  0  0  0  0  0  0
    0.6275   19.1024  -34.2533 H   0  0  0  0  0  0  0  0  0  0  0  0
    1.3108   18.5518  -31.5999 H   0  0  0  0  0  0  0  0  0  0  0  0
    0.7476   20.1291  -32.2522 H   0  0  0  0  0  0  0  0  0  0  0  0
   -0.0619   22.4040  -30.3833 H   0  0  0  0  0  0  0  0  0  0  0  0
   -1.5130   24.4079  -30.0859 H   0  0  0  0  0  0  0  0  0  0  0  0
   -4.5122   22.9306  -32.0332 H   0  0  0  0  0  0  0  0  0  0  0  0
   -4.1991   17.2472  -32.0314 H   0  0  0  0  0  0  0  0  0  0  0  0
   -5.9914   17.1887  -32.1830 H   0  0  0  0  0  0  0  0  0  0  0  0
   -4.9392   14.9478  -31.7287 H   0  0  0  0  0  0  0  0  0  0  0  0
   -5.8839   15.0371  -33.2859 H   0  0  0  0  0  0  0  0  0  0  0  0
   -3.0554   14.3931  -32.8311 H   0  0  0  0  0  0  0  0  0  0  0  0
   -4.1374   14.1382  -34.2841 H   0  0  0  0  0  0  0  0  0  0  0  0
   -2.3676   16.5050  -33.6162 H   0  0  0  0  0  0  0  0  0  0  0  0
   -2.4280   15.4785  -35.1091 H   0  0  0  0  0  0  0  0  0  0  0  0
   -3.4189   17.7735  -35.4040 H   0  0  0  0  0  0  0  0  0  0  0  0
   -4.5589   16.4062  -35.7409 H   0  0  0  0  0  0  0  0  0  0  0  0
  1  2  2  0
  2  3  1  0
  3  4  2  0
  4  5  1  0
  5  6  1  0
  6  7  2  0
  7  8  1  0
  8  9  2  0
  9 10  1  0
 10 11  2  0
 10 12  2  0
 10 13  1  0
 13 14  1  0
 14 15  2  0
 15 16  1  0
 16 17  2  0
 17 18  1  0
 18 19  2  0
 18 20  2  0
 18 21  1  0
 21 22  1  0
 22 23  1  0
 23 24  1  0
 24 25  1  0
 25 26  1  0
 17 27  1  0
 27 28  2  0
  9 29  1  0
 29 30  2  0
 30 31  1  0
 31 32  2  0
  2 33  1  0
 33 34  1  0
 34 35  1  0
 35 36  1  0
 36 37  1  0
 37 38  1  0
 31  3  1  0
 38 33  1  0
 30  6  1  0
 28 14  1  0
 26 21  1  0
  4 39  1  0
  7 40  1  0
  8 41  1  0
 15 42  1  0
 16 43  1  0
 22 44  1  0
 22 45  1  0
 23 46  1  0
 23 47  1  0
 25 48  1  0
 25 49  1  0
 26 50  1  0
 26 51  1  0
 27 52  1  0
 28 53  1  0
 29 54  1  0
 34 55  1  0
 34 56  1  0
 35 57  1  0
 35 58  1  0
 36 59  1  0
 36 60  1  0
 37 61  1  0
 37 62  1  0
 38 63  1  0
 38 64  1  0
M  CHG  2   5  -1  13  -1
M  END
>  <UniqueID>  (2) 
2

>  <SMILES>  (2) 
O=C(c1c[n-]c2ccc(S(=O)(=O)[N-]c3ccc(S(=O)(=O)N4CCOCC4)cc3)cc2c1=O)N1CCCCC1

>  <Energy>  (2) 
90.80979759323745

>  <Genealogy>  (2) 
O=C(c1c[n-]c2ccc(S(=O)(=O)[N-]c3ccc(S(=O)(=O)N4CCOCC4)cc3)cc2c1=O)N1CCCCC1 (protonated)
O=C(c1c[n-]c2ccc(S(=O)(=O)[N-]c3ccc(S(=O)(=O)N4CCOCC4)cc3)cc2c1=O)N1CCCCC1 (3D coordinates assigned)
O=C(c1c[n-]c2ccc(S(=O)(=O)[N-]c3ccc(S(=O)(=O)N4CCOCC4)cc3)cc2c1=O)N1CCCCC1 (nonaromatic ring conformer: 90.80979759323745 kcal/mol)

>  <smiles>  (2) 
O=C(c1c[nH]c2ccc(S(=O)(=O)Nc3ccc(S(=O)(=O)N4CCOCC4)cc3)cc2c1=O)N1CCCCC1

>  <score_type>  (2) 
oracle

>  <origin>  (2) 
adgpu

>  <m_score__min__energy>  (2) 
-12.77

>  <m_primary>  (2) 
energy

$$$$
2:0
     RDKit          3D

 65 68  0  0  0  0  0  0  0  0999 V2000
   -0.1660   26.3630  -24.1020 C   0  0  0  0  0  0  0  0  0  0  0  0
   -0.6950   25.8440  -25.4120 C   0  0  0  0  0  0  0  0  0  0  0  0
   -1.3300   24.5910  -25.4070 C   0  0  0  0  0  0  0  0  0  0  0  0
   -1.8720   24.0580  -26.5710 C   0  0  0  0  0  0  0  0  0  0  0  0
   -1.8030   24.7670  -27.7690 C   0  0  0  0  0  0  0  0  0  0  0  0
   -2.3550   24.1840  -28.9590 N   0  0  0  0  0  0  0  0  0  0  0  0
   -1.7060   23.1280  -29.6810 C   0  0  0  0  0  0  0  0  0  0  0  0
   -0.6360   22.6230  -29.2440 O   0  0  0  0  0  0  0  0  0  0  0  0
   -2.2760   22.6700  -30.9130 N   0  0  0  0  0  0  0  0  0  0  0  0
   -3.6710   22.4620  -31.1770 C   0  0  0  0  0  0  0  0  0  0  0  0
   -4.5730   22.5100  -30.1070 C   0  0  0  0  0  0  0  0  0  0  0  0
   -5.9390   22.3010  -30.3210 C   0  0  0  0  0  0  0  0  0  0  0  0
   -6.4170   22.0290  -31.6100 C   0  0  0  0  0  0  0  0  0  0  0  0
   -8.1440   21.7890  -31.8850 S   0  0  0  0  0  0  0  0  0  0  0  0
   -8.7210   23.0240  -32.5190 O   0  0  0  0  0  0  0  0  0  0  0  0
   -8.8300   21.5850  -30.5630 O   0  0  0  0  0  0  0  0  0  0  0  0
   -8.4590   20.4090  -32.9180 N   0  0  0  0  0  0  0  0  0  0  0  0
   -7.2650   19.5680  -33.0560 C   0  0  0  0  0  0  0  0  0  0  0  0
   -7.3820   18.4060  -32.0810 C   0  0  0  0  0  0  0  0  0  0  0  0
   -8.8300   18.3840  -31.6370 C   0  0  0  0  0  0  0  0  0  0  0  0
   -9.5020   19.5480  -32.3500 C   0  0  0  0  0  0  0  0  0  0  0  0
   -5.5140   21.9450  -32.6780 C   0  0  0  0  0  0  0  0  0  0  0  0
   -4.1490   22.1560  -32.4650 C   0  0  0  0  0  0  0  0  0  0  0  0
   -1.2270   26.0480  -27.7870 C   0  0  0  0  0  0  0  0  0  0  0  0
   -1.2680   26.7890  -28.9650 O   0  0  0  0  0  0  0  0  0  0  0  0
   -0.6260   26.5890  -26.6240 C   0  0  0  0  0  0  0  0  0  0  0  0
    0.1770   28.1890  -26.7400 S   0  0  0  0  0  0  0  0  0  0  0  0
   -0.4570   28.9620  -27.8630 O   0  0  0  0  0  0  0  0  0  0  0  0
   -0.0480   28.9910  -25.4880 O   0  0  0  0  0  0  0  0  0  0  0  0
    1.9000   28.0790  -27.0600 N   0  0  0  0  0  0  0  0  0  0  0  0
    2.3470   26.6700  -27.1310 C   0  0  0  0  0  0  0  0  0  0  0  0
    3.8600   26.5510  -26.9010 C   0  0  0  0  0  0  0  0  0  0  0  0
    4.2590   27.0600  -25.5640 N   0  0  0  0  0  0  0  0  0  0  0  0
    4.4160   25.9620  -24.5970 C   0  0  0  0  0  0  0  0  0  0  0  0
    3.3430   28.0950  -25.0240 C   0  0  0  0  0  0  0  0  0  0  0  0
    2.7100   28.9190  -26.1520 C   0  0  0  0  0  0  0  0  0  0  0  0
   -0.6815   25.8573  -23.2722 H   0  0  0  0  0  0  0  0  0  0  0  0
    0.9140   26.1644  -24.0382 H   0  0  0  0  0  0  0  0  0  0  0  0
   -0.3440   27.4466  -24.0382 H   0  0  0  0  0  0  0  0  0  0  0  0
   -1.3995   24.0228  -24.4677 H   0  0  0  0  0  0  0  0  0  0  0  0
   -2.3579   23.0714  -26.5464 H   0  0  0  0  0  0  0  0  0  0  0  0
   -3.3440   24.4090  -29.2120 H   0  0  0  0  0  0  0  0  0  0  0  0
   -4.2044   22.7136  -29.0908 H   0  0  0  0  0  0  0  0  0  0  0  0
   -6.6404   22.3502  -29.4751 H   0  0  0  0  0  0  0  0  0  0  0  0
   -7.1973   19.1846  -34.0848 H   0  0  0  0  0  0  0  0  0  0  0  0
   -6.3611   20.1556  -32.8377 H   0  0  0  0  0  0  0  0  0  0  0  0
   -7.1195   17.4607  -32.5784 H   0  0  0  0  0  0  0  0  0  0  0  0
   -6.6985   18.5235  -31.2272 H   0  0  0  0  0  0  0  0  0  0  0  0
   -9.3041   17.4340  -31.9245 H   0  0  0  0  0  0  0  0  0  0  0  0
   -8.9190   18.4738  -30.5443 H   0  0  0  0  0  0  0  0  0  0  0  0
  -10.1482   19.1673  -33.1547 H   0  0  0  0  0  0  0  0  0  0  0  0
  -10.1186   20.1197  -31.6408 H   0  0  0  0  0  0  0  0  0  0  0  0
   -5.8810   21.7120  -33.6884 H   0  0  0  0  0  0  0  0  0  0  0  0
   -3.4454   22.0826  -33.3073 H   0  0  0  0  0  0  0  0  0  0  0  0
    1.8208   26.0881  -26.3599 H   0  0  0  0  0  0  0  0  0  0  0  0
    2.1177   26.2839  -28.1352 H   0  0  0  0  0  0  0  0  0  0  0  0
    4.1494   25.4927  -26.9794 H   0  0  0  0  0  0  0  0  0  0  0  0
    4.3694   27.1591  -27.6631 H   0  0  0  0  0  0  0  0  0  0  0  0
    4.3587   26.3631  -23.5743 H   0  0  0  0  0  0  0  0  0  0  0  0
    3.6143   25.2239  -24.7469 H   0  0  0  0  0  0  0  0  0  0  0  0
    5.3925   25.4782  -24.7469 H   0  0  0  0  0  0  0  0  0  0  0  0
    2.5454   27.6029  -24.4481 H   0  0  0  0  0  0  0  0  0  0  0  0
    3.9239   28.7730  -24.3814 H   0  0  0  0  0  0  0  0  0  0  0  0
    2.0628   29.6903  -25.7090 H   0  0  0  0  0  0  0  0  0  0  0  0
    3.5216   29.3725  -26.7400 H   0  0  0  0  0  0  0  0  0  0  0  0
  1  2  1  0
  2  3  2  0
  3  4  1  0
  4  5  2  0
  5  6  1  0
  6  7  1  0
  7  8  2  0
  7  9  1  0
  9 10  1  0
 10 11  2  0
 11 12  1  0
 12 13  2  0
 13 14  1  0
 14 15  2  0
 14 16  2  0
 14 17  1  0
 17 18  1  0
 18 19  1  0
 19 20  1  0
 20 21  1  0
 13 22  1  0
 22 23  2  0
  5 24  1  0
 24 25  1  0
 24 26  2  0
 26 27  1  0
 27 28  2  0
 27 29  2  0
 27 30  1  0
 30 31  1  0
 31 32  1  0
 32 33  1  0
 33 34  1  0
 33 35  1  0
 35 36  1  0
 26  2  1  0
 36 30  1  0
 23 10  1  0
 21 17  1  0
  1 37  1  0
  1 38  1  0
  1 39  1  0
  3 40  1  0
  4 41  1  0
  6 42  1  0
 11 43  1  0
 12 44  1  0
 18 45  1  0
 18 46  1  0
 19 47  1  0
 19 48  1  0
 20 49  1  0
 20 50  1  0
 21 51  1  0
 21 52  1  0
 22 53  1  0
 23 54  1  0
 31 55  1  0
 31 56  1  0
 32 57  1  0
 32 58  1  0
 34 59  1  0
 34 60  1  0
 34 61  1  0
 35 62  1  0
 35 63  1  0
 36 64  1  0
 36 65  1  0
M  CHG  2   9  -1  25  -1
M  END
>  <UniqueID>  (3) 
3

>  <SMILES>  (3) 
Cc1ccc(NC(=O)[N-]c2ccc(S(=O)(=O)N3CCCC3)cc2)c([O-])c1S(=O)(=O)N1CCN(C)CC1

>  <Energy>  (3) 
91.16305045561019

>  <Genealogy>  (3) 
Cc1ccc(NC(=O)[N-]c2ccc(S(=O)(=O)N3CCCC3)cc2)c([O-])c1S(=O)(=O)N1CCN(C)CC1 (protonated)
Cc1ccc(NC(=O)[N-]c2ccc(S(=O)(=O)N3CCCC3)cc2)c([O-])c1S(=O)(=O)N1CCN(C)CC1 (3D coordinates assigned)
Cc1ccc(NC(=O)[N-]c2ccc(S(=O)(=O)N3CCCC3)cc2)c([O-])c1S(=O)(=O)N1CCN(C)CC1 (nonaromatic ring conformer: 91.16305045561019 kcal/mol)

>  <smiles>  (3) 
Cc1ccc(NC(=O)Nc2ccc(S(=O)(=O)N3CCCC3)cc2)c(O)c1S(=O)(=O)N1CCN(C)CC1

>  <score_type>  (3) 
oracle

>  <origin>  (3) 
adgpu

>  <m_score__min__energy>  (3) 
-13.779999999999999

>  <m_primary>  (3) 
energy

$$$$
3:0
     RDKit          3D

 44 46  0  0  0  0  0  0  0  0999 V2000
   -1.1100   25.9840  -28.9920 O   0  0  0  0  0  0  0  0  0  0  0  0
   -1.7250   24.8900  -29.0960 C   0  0  0  0  0  0  0  0  0  0  0  0
   -0.9960   23.6750  -29.6120 C   0  0  0  0  0  0  0  0  0  0  0  0
   -1.3360   22.4350  -28.8190 C   0  0  0  0  0  0  0  0  0  0  0  0
   -1.3440   22.4800  -27.4130 C   0  0  0  0  0  0  0  0  0  0  0  0
   -1.6400   21.3340  -26.6700 C   0  0  0  0  0  0  0  0  0  0  0  0
   -1.9350   20.1340  -27.3180 C   0  0  0  0  0  0  0  0  0  0  0  0
   -1.9400   20.0770  -28.7140 C   0  0  0  0  0  0  0  0  0  0  0  0
   -1.6460   21.2210  -29.4700 C   0  0  0  0  0  0  0  0  0  0  0  0
   -1.6640   21.1560  -30.8630 O   0  0  0  0  0  0  0  0  0  0  0  0
   -3.1420   24.8770  -28.8780 N   0  0  0  0  0  0  0  0  0  0  0  0
   -4.1290   24.4470  -29.8220 C   0  0  0  0  0  0  0  0  0  0  0  0
   -5.1300   25.3210  -30.2730 C   0  0  0  0  0  0  0  0  0  0  0  0
   -6.0620   24.8910  -31.2210 C   0  0  0  0  0  0  0  0  0  0  0  0
   -5.9910   23.5940  -31.7360 C   0  0  0  0  0  0  0  0  0  0  0  0
   -4.9790   22.7230  -31.3110 C   0  0  0  0  0  0  0  0  0  0  0  0
   -4.8660   21.1040  -31.9960 S   0  0  0  0  0  0  0  0  0  0  0  0
   -4.4170   20.1460  -30.9280 O   0  0  0  0  0  0  0  0  0  0  0  0
   -3.8520   21.0930  -33.1070 O   0  0  0  0  0  0  0  0  0  0  0  0
   -6.4340   20.6200  -32.5910 N   0  0  0  0  0  0  0  0  0  0  0  0
   -6.4780   19.1850  -32.8690 C   0  0  0  0  0  0  0  0  0  0  0  0
   -7.9290   18.7560  -32.7090 C   0  0  0  0  0  0  0  0  0  0  0  0
   -8.5810   19.8470  -31.8720 C   0  0  0  0  0  0  0  0  0  0  0  0
   -7.4770   20.8560  -31.5940 C   0  0  0  0  0  0  0  0  0  0  0  0
   -4.0400   23.1590  -30.3650 C   0  0  0  0  0  0  0  0  0  0  0  0
   -1.2755   23.5125  -30.6634 H   0  0  0  0  0  0  0  0  0  0  0  0
    0.0841   23.8578  -29.5125 H   0  0  0  0  0  0  0  0  0  0  0  0
   -1.1158   23.4232  -26.8951 H   0  0  0  0  0  0  0  0  0  0  0  0
   -1.6404   21.3781  -25.5709 H   0  0  0  0  0  0  0  0  0  0  0  0
   -2.1636   19.2330  -26.7299 H   0  0  0  0  0  0  0  0  0  0  0  0
   -2.1756   19.1304  -29.2224 H   0  0  0  0  0  0  0  0  0  0  0  0
   -2.5220   20.9940  -31.3770 H   0  0  0  0  0  0  0  0  0  0  0  0
   -5.1810   26.3469  -29.8793 H   0  0  0  0  0  0  0  0  0  0  0  0
   -6.8531   25.5748  -31.5625 H   0  0  0  0  0  0  0  0  0  0  0  0
   -6.7310   23.2561  -32.4765 H   0  0  0  0  0  0  0  0  0  0  0  0
   -6.1343   18.9863  -33.8949 H   0  0  0  0  0  0  0  0  0  0  0  0
   -5.8216   18.6278  -32.1844 H   0  0  0  0  0  0  0  0  0  0  0  0
   -8.4186   18.6795  -33.6911 H   0  0  0  0  0  0  0  0  0  0  0  0
   -8.0142   17.7681  -32.2328 H   0  0  0  0  0  0  0  0  0  0  0  0
   -9.4034   20.3198  -32.4289 H   0  0  0  0  0  0  0  0  0  0  0  0
   -9.0134   19.4469  -30.9430 H   0  0  0  0  0  0  0  0  0  0  0  0
   -7.8667   21.8804  -31.6878 H   0  0  0  0  0  0  0  0  0  0  0  0
   -7.0831   20.7415  -30.5734 H   0  0  0  0  0  0  0  0  0  0  0  0
   -3.2296   22.4861  -30.0479 H   0  0  0  0  0  0  0  0  0  0  0  0
  1  2  2  0
  2  3  1  0
  3  4  1  0
  4  5  2  0
  5  6  1  0
  6  7  2  0
  7  8  1  0
  8  9  2  0
  9 10  1  0
  2 11  1  0
 11 12  1  0
 12 13  2  0
 13 14  1  0
 14 15  2  0
 15 16  1  0
 16 17  1  0
 17 18  2  0
 17 19  2  0
 17 20  1  0
 20 21  1  0
 21 22  1  0
 22 23  1  0
 23 24  1  0
 16 25  2  0
  9  4  1  0
 25 12  1  0
 24 20  1  0
  3 26  1  0
  3 27  1  0
  5 28  1  0
  6 29  1  0
  7 30  1  0
  8 31  1  0
 10 32  1  0
 13 33  1  0
 14 34  1  0
 15 35  1  0
 21 36  1  0
 21 37  1  0
 22 38  1  0
 22 39  1  0
 23 40  1  0
 23 41  1  0
 24 42  1  0
 24 43  1  0
 25 44  1  0
M  CHG  1  11  -1
M  END
>  <UniqueID>  (4) 
4

>  <SMILES>  (4) 
O=C(Cc1ccccc1O)[N-]c1cccc(S(=O)(=O)N2CCCC2)c1

>  <Energy>  (4) 
50.90307554331954

>  <Genealogy>  (4) 
O=C(Cc1ccccc1O)[N-]c1cccc(S(=O)(=O)N2CCCC2)c1 (protonated)
O=C(Cc1ccccc1O)[N-]c1cccc(S(=O)(=O)N2CCCC2)c1 (3D coordinates assigned)
O=C(Cc1ccccc1O)[N-]c1cccc(S(=O)(=O)N2CCCC2)c1 (nonaromatic ring conformer: 50.90307554331954 kcal/mol)

>  <smiles>  (4) 
O=C(Cc1ccccc1O)Nc1cccc(S(=O)(=O)N2CCCC2)c1

>  <score_type>  (4) 
oracle

>  <origin>  (4) 
adgpu

>  <m_score__min__energy>  (4) 
-11.539999999999999

>  <m_primary>  (4) 
energy

$$$$
4:0
     RDKit          3D

 34 36  0  0  0  0  0  0  0  0999 V2000
   -2.7560   19.6180  -34.2090 N   0  0  0  0  0  0  0  0  0  0  0  0
   -2.6720   20.2390  -33.2360 C   0  0  0  0  0  0  0  0  0  0  0  0
   -2.5660   21.0120  -32.0270 C   0  0  0  0  0  0  0  0  0  0  0  0
   -1.9180   20.4770  -30.9080 C   0  0  0  0  0  0  0  0  0  0  0  0
   -1.8170   21.2270  -29.7340 C   0  0  0  0  0  0  0  0  0  0  0  0
   -2.3590   22.5150  -29.6750 C   0  0  0  0  0  0  0  0  0  0  0  0
   -3.0050   23.0650  -30.7900 C   0  0  0  0  0  0  0  0  0  0  0  0
   -3.5380   24.3920  -30.6880 N   0  0  0  0  0  0  0  0  0  0  0  0
   -5.1790   24.7830  -30.2870 S   0  0  0  0  0  0  0  0  0  0  0  0
   -5.3360   24.8130  -28.7920 O   0  0  0  0  0  0  0  0  0  0  0  0
   -5.5200   26.1360  -30.8410 O   0  0  0  0  0  0  0  0  0  0  0  0
   -6.2610   23.5920  -30.9800 C   0  0  0  0  0  0  0  0  0  0  0  0
   -7.6060   23.7770  -31.2180 C   0  0  0  0  0  0  0  0  0  0  0  0
   -8.0460   22.6000  -31.7850 C   0  0  0  0  0  0  0  0  0  0  0  0
   -6.9360   21.7710  -31.8580 C   0  0  0  0  0  0  0  0  0  0  0  0
   -6.8830   20.3930  -32.3980 C   0  0  0  0  0  0  0  0  0  0  0  0
   -7.6990   19.3950  -31.8350 C   0  0  0  0  0  0  0  0  0  0  0  0
   -7.6640   18.0880  -32.3290 C   0  0  0  0  0  0  0  0  0  0  0  0
   -6.8150   17.7620  -33.3890 C   0  0  0  0  0  0  0  0  0  0  0  0
   -5.9990   18.7440  -33.9570 C   0  0  0  0  0  0  0  0  0  0  0  0
   -6.0310   20.0530  -33.4670 C   0  0  0  0  0  0  0  0  0  0  0  0
   -5.8880   22.3970  -31.3670 O   0  0  0  0  0  0  0  0  0  0  0  0
   -3.1110   22.3020  -31.9690 C   0  0  0  0  0  0  0  0  0  0  0  0
   -1.4880   19.4655  -30.9530 H   0  0  0  0  0  0  0  0  0  0  0  0
   -1.3102   20.8039  -28.8542 H   0  0  0  0  0  0  0  0  0  0  0  0
   -2.2776   23.1001  -28.7471 H   0  0  0  0  0  0  0  0  0  0  0  0
   -8.2029   24.6751  -31.0011 H   0  0  0  0  0  0  0  0  0  0  0  0
   -9.0695   22.3657  -32.1130 H   0  0  0  0  0  0  0  0  0  0  0  0
   -8.3696   19.6451  -30.9997 H   0  0  0  0  0  0  0  0  0  0  0  0
   -8.3062   17.3148  -31.8822 H   0  0  0  0  0  0  0  0  0  0  0  0
   -6.7887   16.7329  -33.7765 H   0  0  0  0  0  0  0  0  0  0  0  0
   -5.3301   18.4865  -34.7914 H   0  0  0  0  0  0  0  0  0  0  0  0
   -5.3871   20.8219  -33.9189 H   0  0  0  0  0  0  0  0  0  0  0  0
   -3.6236   22.7201  -32.8479 H   0  0  0  0  0  0  0  0  0  0  0  0
  1  2  3  0
  2  3  1  0
  3  4  2  0
  4  5  1  0
  5  6  2  0
  6  7  1  0
  7  8  1  0
  8  9  1  0
  9 10  2  0
  9 11  2  0
  9 12  1  0
 12 13  2  0
 13 14  1  0
 14 15  2  0
 15 16  1  0
 16 17  2  0
 17 18  1  0
 18 19  2  0
 19 20  1  0
 20 21  2  0
 15 22  1  0
  7 23  2  0
 23  3  1  0
 22 12  1  0
 21 16  1  0
  4 24  1  0
  5 25  1  0
  6 26  1  0
 13 27  1  0
 14 28  1  0
 17 29  1  0
 18 30  1  0
 19 31  1  0
 20 32  1  0
 21 33  1  0
 23 34  1  0
M  CHG  1   8  -1
M  END
>  <UniqueID>  (5) 
5

>  <SMILES>  (5) 
N#Cc1cccc([N-]S(=O)(=O)c2ccc(-c3ccccc3)o2)c1

>  <Energy>  (5) 
65.90616238814171

>  <Genealogy>  (5) 
N#Cc1cccc([N-]S(=O)(=O)c2ccc(-c3ccccc3)o2)c1 (protonated)
N#Cc1cccc([N-]S(=O)(=O)c2ccc(-c3ccccc3)o2)c1 (3D coordinates assigned)
N#Cc1cccc([N-]S(=O)(=O)c2ccc(-c3ccccc3)o2)c1 (optimized conformer: 65.90616238814171 kcal/mol)

>  <smiles>  (5) 
N#Cc1cccc(NS(=O)(=O)c2ccc(-c3ccccc3)o2)c1

>  <score_type>  (5) 
oracle

>  <origin>  (5) 
adgpu

>  <m_score__min__energy>  (5) 
-9.6300000000000008

>  <m_primary>  (5) 
energy

$$$$
5:0
     RDKit          3D

 58 61  0  0  0  0  0  0  0  0999 V2000
   -9.5420   23.7710  -32.3460 C   0  0  0  0  0  0  0  0  0  0  0  0
   -8.4650   22.7830  -32.0150 C   0  0  0  0  0  0  0  0  0  0  0  0
   -8.7460   21.4080  -31.9960 C   0  0  0  0  0  0  0  0  0  0  0  0
   -7.7490   20.4840  -31.6510 C   0  0  0  0  0  0  0  0  0  0  0  0
   -8.0680   19.0190  -31.5920 C   0  0  0  0  0  0  0  0  0  0  0  0
   -6.4760   20.9440  -31.2820 C   0  0  0  0  0  0  0  0  0  0  0  0
   -6.1910   22.3160  -31.2860 C   0  0  0  0  0  0  0  0  0  0  0  0
   -4.6040   22.9050  -30.7930 S   0  0  0  0  0  0  0  0  0  0  0  0
   -4.4860   22.6950  -29.3080 O   0  0  0  0  0  0  0  0  0  0  0  0
   -4.4900   24.3750  -31.0860 O   0  0  0  0  0  0  0  0  0  0  0  0
   -3.3320   22.0260  -31.6620 C   0  0  0  0  0  0  0  0  0  0  0  0
   -3.6940   21.2850  -32.8000 C   0  0  0  0  0  0  0  0  0  0  0  0
   -2.7500   20.5110  -33.4770 C   0  0  0  0  0  0  0  0  0  0  0  0
   -1.4310   20.4660  -33.0280 C   0  0  0  0  0  0  0  0  0  0  0  0
   -1.0480   21.2090  -31.9110 C   0  0  0  0  0  0  0  0  0  0  0  0
   -1.9810   22.0100  -31.2310 C   0  0  0  0  0  0  0  0  0  0  0  0
   -1.5030   22.8110  -30.0900 C   0  0  0  0  0  0  0  0  0  0  0  0
   -0.4470   22.4620  -29.4960 O   0  0  0  0  0  0  0  0  0  0  0  0
   -2.2310   23.9770  -29.6700 N   0  0  0  0  0  0  0  0  0  0  0  0
   -1.9040   24.7530  -28.5060 C   0  0  0  0  0  0  0  0  0  0  0  0
   -2.6080   24.5320  -27.3140 C   0  0  0  0  0  0  0  0  0  0  0  0
   -2.3190   25.2800  -26.1700 C   0  0  0  0  0  0  0  0  0  0  0  0
   -1.3330   26.2740  -26.2100 C   0  0  0  0  0  0  0  0  0  0  0  0
   -0.9960   27.2210  -24.7640 S   0  0  0  0  0  0  0  0  0  0  0  0
   -1.2380   28.6760  -25.0500 O   0  0  0  0  0  0  0  0  0  0  0  0
   -1.8900   26.7990  -23.6320 O   0  0  0  0  0  0  0  0  0  0  0  0
    0.6740   26.9780  -24.2920 C   0  0  0  0  0  0  0  0  0  0  0  0
    1.5030   25.9410  -24.6670 C   0  0  0  0  0  0  0  0  0  0  0  0
    2.6910   26.0850  -24.0440 N   0  0  0  0  0  0  0  0  0  0  0  0
    2.6240   27.1820  -23.3040 N   0  0  0  0  0  0  0  0  0  0  0  0
    3.6920   27.6340  -22.4230 C   0  0  0  0  0  0  0  0  0  0  0  0
    1.4070   27.7450  -23.4160 C   0  0  0  0  0  0  0  0  0  0  0  0
   -0.6440   26.5180  -27.4050 C   0  0  0  0  0  0  0  0  0  0  0  0
   -0.9300   25.7660  -28.5490 C   0  0  0  0  0  0  0  0  0  0  0  0
   -7.1900   23.2320  -31.6450 C   0  0  0  0  0  0  0  0  0  0  0  0
   -9.9743   24.1676  -31.4155 H   0  0  0  0  0  0  0  0  0  0  0  0
   -9.1140   24.5972  -32.9327 H   0  0  0  0  0  0  0  0  0  0  0  0
  -10.3283   23.2735  -32.9327 H   0  0  0  0  0  0  0  0  0  0  0  0
   -9.7548   21.0528  -32.2534 H   0  0  0  0  0  0  0  0  0  0  0  0
   -8.1373   18.7009  -30.5413 H   0  0  0  0  0  0  0  0  0  0  0  0
   -9.0279   18.8322  -32.0957 H   0  0  0  0  0  0  0  0  0  0  0  0
   -7.2727   18.4500  -32.0957 H   0  0  0  0  0  0  0  0  0  0  0  0
   -5.6979   20.2242  -30.9881 H   0  0  0  0  0  0  0  0  0  0  0  0
   -4.7326   21.3153  -33.1612 H   0  0  0  0  0  0  0  0  0  0  0  0
   -3.0473   19.9357  -34.3662 H   0  0  0  0  0  0  0  0  0  0  0  0
   -0.6919   19.8444  -33.5546 H   0  0  0  0  0  0  0  0  0  0  0  0
   -0.0065   21.1674  -31.5595 H   0  0  0  0  0  0  0  0  0  0  0  0
   -3.1170   24.2090  -30.1720 H   0  0  0  0  0  0  0  0  0  0  0  0
   -3.3942   23.7635  -27.2792 H   0  0  0  0  0  0  0  0  0  0  0  0
   -2.8670   25.0879  -25.2358 H   0  0  0  0  0  0  0  0  0  0  0  0
    1.2386   25.1293  -25.3607 H   0  0  0  0  0  0  0  0  0  0  0  0
    3.3831   27.5033  -21.3754 H   0  0  0  0  0  0  0  0  0  0  0  0
    4.5998   27.0429  -22.6141 H   0  0  0  0  0  0  0  0  0  0  0  0
    3.8997   28.6972  -22.6141 H   0  0  0  0  0  0  0  0  0  0  0  0
    1.0611   28.6533  -22.9009 H   0  0  0  0  0  0  0  0  0  0  0  0
    0.1247   27.3039  -27.4438 H   0  0  0  0  0  0  0  0  0  0  0  0
   -0.3907   25.9679  -29.4862 H   0  0  0  0  0  0  0  0  0  0  0  0
   -6.9716   24.3101  -31.6362 H   0  0  0  0  0  0  0  0  0  0  0  0
  1  2  1  0
  2  3  2  0
  3  4  1  0
  4  5  1  0
  4  6  2  0
  6  7  1  0
  7  8  1  0
  8  9  2  0
  8 10  2  0
  8 11  1  0
 11 12  2  0
 12 13  1  0
 13 14  2  0
 14 15  1  0
 15 16  2  0
 16 17  1  0
 17 18  2  0
 17 19  1  0
 19 20  1  0
 20 21  2  0
 21 22  1  0
 22 23  2  0
 23 24  1  0
 24 25  2  0
 24 26  2  0
 24 27  1  0
 27 28  1  0
 28 29  2  0
 29 30  1  0
 30 31  1  0
 30 32  1  0
 23 33  1  0
 33 34  2  0
  7 35  2  0
 35  2  1  0
 16 11  1  0
 34 20  1  0
 32 27  2  0
  1 36  1  0
  1 37  1  0
  1 38  1  0
  3 39  1  0
  5 40  1  0
  5 41  1  0
  5 42  1  0
  6 43  1  0
 12 44  1  0
 13 45  1  0
 14 46  1  0
 15 47  1  0
 19 48  1  0
 21 49  1  0
 22 50  1  0
 28 51  1  0
 31 52  1  0
 31 53  1  0
 31 54  1  0
 32 55  1  0
 33 56  1  0
 34 57  1  0
 35 58  1  0
M  END
>  <UniqueID>  (6) 
6

>  <SMILES>  (6) 
Cc1cc(C)cc(S(=O)(=O)c2ccccc2C(=O)Nc2ccc(S(=O)(=O)c3cnn(C)c3)cc2)c1

>  <Energy>  (6) 
104.9108703261634

>  <Genealogy>  (6) 
Cc1cc(C)cc(S(=O)(=O)c2ccccc2C(=O)Nc2ccc(S(=O)(=O)c3cnn(C)c3)cc2)c1 (3D coordinates assigned)
Cc1cc(C)cc(S(=O)(=O)c2ccccc2C(=O)Nc2ccc(S(=O)(=O)c3cnn(C)c3)cc2)c1 (optimized conformer: 104.9108703261634 kcal/mol)

>  <smiles>  (6) 
Cc1cc(C)cc(S(=O)(=O)c2ccccc2C(=O)Nc2ccc(S(=O)(=O)c3cnn(C)c3)cc2)c1

>  <score_type>  (6) 
oracle

>  <origin>  (6) 
adgpu

>  <m_score__min__energy>  (6) 
-10.58

>  <m_primary>  (6) 
energy

$$$$
6:0
     RDKit          3D

 27 28  0  0  0  0  0  0  0  0999 V2000
   -5.1020   16.9830  -33.6420 N   0  0  0  0  0  0  0  0  0  0  0  0
   -6.0700   17.9230  -33.1700 C   0  0  0  0  0  0  0  0  0  0  0  0
   -6.2280   19.1590  -33.8140 C   0  0  0  0  0  0  0  0  0  0  0  0
   -7.1750   20.0780  -33.3510 C   0  0  0  0  0  0  0  0  0  0  0  0
   -7.9710   19.7670  -32.2430 C   0  0  0  0  0  0  0  0  0  0  0  0
   -9.1890   20.9430  -31.6540 S   0  0  0  0  0  0  0  0  0  0  0  0
   -7.9540   22.2050  -31.3400 C   0  0  0  0  0  0  0  0  0  0  0  0
   -7.4730   22.9920  -32.3910 C   0  0  0  0  0  0  0  0  0  0  0  0
   -6.5130   23.9790  -32.1470 C   0  0  0  0  0  0  0  0  0  0  0  0
   -6.0200   24.1880  -30.8450 C   0  0  0  0  0  0  0  0  0  0  0  0
   -5.0330   25.2040  -30.5890 N   0  0  0  0  0  0  0  0  0  0  0  0
   -5.3690   26.3980  -30.4500 O   0  0  0  0  0  0  0  0  0  0  0  0
   -3.7000   24.8750  -30.4930 O   0  0  0  0  0  0  0  0  0  0  0  0
   -6.5070   23.3880  -29.7960 C   0  0  0  0  0  0  0  0  0  0  0  0
   -7.4660   22.4010  -30.0440 C   0  0  0  0  0  0  0  0  0  0  0  0
   -7.8130   18.5360  -31.5940 C   0  0  0  0  0  0  0  0  0  0  0  0
   -6.8670   17.6170  -32.0570 C   0  0  0  0  0  0  0  0  0  0  0  0
   -4.5590   17.1680  -34.5150 H   0  0  0  0  0  0  0  0  0  0  0  0
   -4.9230   16.0930  -33.1250 H   0  0  0  0  0  0  0  0  0  0  0  0
   -5.6049   19.4063  -34.6861 H   0  0  0  0  0  0  0  0  0  0  0  0
   -7.2943   21.0466  -33.8585 H   0  0  0  0  0  0  0  0  0  0  0  0
   -7.8507   22.8343  -33.4120 H   0  0  0  0  0  0  0  0  0  0  0  0
   -6.1406   24.5962  -32.9779 H   0  0  0  0  0  0  0  0  0  0  0  0
   -6.1310   23.5397  -28.7734 H   0  0  0  0  0  0  0  0  0  0  0  0
   -7.8375   21.7771  -29.2177 H   0  0  0  0  0  0  0  0  0  0  0  0
   -8.4338   18.2922  -30.7193 H   0  0  0  0  0  0  0  0  0  0  0  0
   -6.7471   16.6500  -31.5465 H   0  0  0  0  0  0  0  0  0  0  0  0
  1  2  1  0
  2  3  2  0
  3  4  1  0
  4  5  2  0
  5  6  1  0
  6  7  1  0
  7  8  2  0
  8  9  1  0
  9 10  2  0
 10 11  1  0
 11 12  2  0
 11 13  1  0
 10 14  1  0
 14 15  2  0
  5 16  1  0
 16 17  2  0
 17  2  1  0
 15  7  1  0
  1 18  1  0
  1 19  1  0
  3 20  1  0
  4 21  1  0
  8 22  1  0
  9 23  1  0
 14 24  1  0
 15 25  1  0
 16 26  1  0
 17 27  1  0
M  CHG  2  11   1  13  -1
M  END
>  <UniqueID>  (7) 
7

>  <SMILES>  (7) 
Nc1ccc(Sc2ccc([N+](=O)[O-])cc2)cc1

>  <Energy>  (7) 
23.269770652562297

>  <Genealogy>  (7) 
Nc1ccc(Sc2ccc([N+](=O)[O-])cc2)cc1 (3D coordinates assigned)
Nc1ccc(Sc2ccc([N+](=O)[O-])cc2)cc1 (optimized conformer: 23.269770652562297 kcal/mol)

>  <smiles>  (7) 
Nc1ccc(Sc2ccc([N+](=O)[O-])cc2)cc1

>  <score_type>  (7) 
oracle

>  <origin>  (7) 
adgpu

>  <m_score__min__energy>  (7) 
-7.8499999999999996

>  <m_primary>  (7) 
energy

$$$$
7:0
     RDKit          3D

 63 66  0  0  0  0  0  0  0  0999 V2000
    0.5080   17.3900  -30.4380 C   0  0  0  0  0  0  0  0  0  0  0  0
    0.2070   17.2870  -31.9060 C   0  0  0  0  0  0  0  0  0  0  0  0
    1.0100   17.9570  -32.8400 C   0  0  0  0  0  0  0  0  0  0  0  0
    0.7480   17.8330  -34.2060 C   0  0  0  0  0  0  0  0  0  0  0  0
   -0.3040   17.0230  -34.6620 C   0  0  0  0  0  0  0  0  0  0  0  0
   -0.5720   16.9580  -36.0280 O   0  0  0  0  0  0  0  0  0  0  0  0
   -1.0870   16.3020  -33.7280 C   0  0  0  0  0  0  0  0  0  0  0  0
   -2.1480   15.4200  -34.1070 N   0  0  0  0  0  0  0  0  0  0  0  0
   -3.6710   15.8730  -34.8080 S   0  0  0  0  0  0  0  0  0  0  0  0
   -3.4990   16.0150  -36.2940 O   0  0  0  0  0  0  0  0  0  0  0  0
   -4.6960   14.8200  -34.4960 O   0  0  0  0  0  0  0  0  0  0  0  0
   -4.2200   17.4100  -34.1170 C   0  0  0  0  0  0  0  0  0  0  0  0
   -3.2830   18.4310  -33.9070 C   0  0  0  0  0  0  0  0  0  0  0  0
   -3.6690   19.6510  -33.3520 C   0  0  0  0  0  0  0  0  0  0  0  0
   -5.0060   19.8820  -32.9920 C   0  0  0  0  0  0  0  0  0  0  0  0
   -5.4020   21.1800  -32.3880 C   0  0  0  0  0  0  0  0  0  0  0  0
   -6.7000   21.6870  -32.2650 C   0  0  0  0  0  0  0  0  0  0  0  0
   -6.7600   22.9320  -31.6270 C   0  0  0  0  0  0  0  0  0  0  0  0
   -5.5180   23.4060  -31.2430 C   0  0  0  0  0  0  0  0  0  0  0  0
   -5.2050   24.9180  -30.4140 S   0  0  0  0  0  0  0  0  0  0  0  0
   -5.8110   26.0470  -31.1950 O   0  0  0  0  0  0  0  0  0  0  0  0
   -5.8120   24.8780  -29.0400 O   0  0  0  0  0  0  0  0  0  0  0  0
   -3.4890   25.1620  -30.2920 N   0  0  0  0  0  0  0  0  0  0  0  0
   -2.9720   24.5280  -29.0790 C   0  0  0  0  0  0  0  0  0  0  0  0
   -1.5330   24.0670  -29.3030 C   0  0  0  0  0  0  0  0  0  0  0  0
   -1.4700   22.5900  -29.2780 N   0  0  0  0  0  0  0  0  0  0  0  0
   -1.2270   22.0300  -30.6220 C   0  0  0  0  0  0  0  0  0  0  0  0
   -1.3800   20.4970  -30.6170 C   0  0  0  0  0  0  0  0  0  0  0  0
   -1.3790   19.9960  -29.2970 O   0  0  0  0  0  0  0  0  0  0  0  0
   -2.5260   20.4610  -28.6090 C   0  0  0  0  0  0  0  0  0  0  0  0
   -2.6840   21.9920  -28.6970 C   0  0  0  0  0  0  0  0  0  0  0  0
   -4.3440   22.2980  -31.6990 S   0  0  0  0  0  0  0  0  0  0  0  0
   -5.9480   18.8580  -33.1940 C   0  0  0  0  0  0  0  0  0  0  0  0
   -5.5690   17.6200  -33.7430 C   0  0  0  0  0  0  0  0  0  0  0  0
   -6.6210   16.5590  -33.9370 C   0  0  0  0  0  0  0  0  0  0  0  0
   -0.8330   16.4600  -32.3590 C   0  0  0  0  0  0  0  0  0  0  0  0
   -0.3775   17.0870  -29.8600 H   0  0  0  0  0  0  0  0  0  0  0  0
    1.3517   16.7294  -30.1895 H   0  0  0  0  0  0  0  0  0  0  0  0
    0.7702   18.4290  -30.1895 H   0  0  0  0  0  0  0  0  0  0  0  0
    1.8478   18.5814  -32.4961 H   0  0  0  0  0  0  0  0  0  0  0  0
    1.3719   18.3752  -34.9317 H   0  0  0  0  0  0  0  0  0  0  0  0
   -1.3870   16.4750  -36.3900 H   0  0  0  0  0  0  0  0  0  0  0  0
   -2.2307   18.2682  -34.1832 H   0  0  0  0  0  0  0  0  0  0  0  0
   -2.9185   20.4397  -33.1949 H   0  0  0  0  0  0  0  0  0  0  0  0
   -7.5902   21.1572  -32.6349 H   0  0  0  0  0  0  0  0  0  0  0  0
   -7.6985   23.4775  -31.4492 H   0  0  0  0  0  0  0  0  0  0  0  0
   -2.9980   25.2512  -28.2506 H   0  0  0  0  0  0  0  0  0  0  0  0
   -3.5962   23.6563  -28.8331 H   0  0  0  0  0  0  0  0  0  0  0  0
   -1.1809   24.4309  -30.2795 H   0  0  0  0  0  0  0  0  0  0  0  0
   -0.8939   24.4711  -28.5041 H   0  0  0  0  0  0  0  0  0  0  0  0
   -1.9518   22.4616  -31.3280 H   0  0  0  0  0  0  0  0  0  0  0  0
   -0.1992   22.2787  -30.9248 H   0  0  0  0  0  0  0  0  0  0  0  0
   -2.3290   20.2280  -31.1038 H   0  0  0  0  0  0  0  0  0  0  0  0
   -0.5314   20.0568  -31.1612 H   0  0  0  0  0  0  0  0  0  0  0  0
   -3.4170   19.9882  -29.0478 H   0  0  0  0  0  0  0  0  0  0  0  0
   -2.4105   20.1963  -27.5476 H   0  0  0  0  0  0  0  0  0  0  0  0
   -3.5490   22.2332  -29.3323 H   0  0  0  0  0  0  0  0  0  0  0  0
   -2.8391   22.3981  -27.6866 H   0  0  0  0  0  0  0  0  0  0  0  0
   -6.9991   19.0281  -32.9180 H   0  0  0  0  0  0  0  0  0  0  0  0
   -6.9710   16.2060  -32.9558 H   0  0  0  0  0  0  0  0  0  0  0  0
   -7.4678   16.9806  -34.4984 H   0  0  0  0  0  0  0  0  0  0  0  0
   -6.1922   15.7158  -34.4984 H   0  0  0  0  0  0  0  0  0  0  0  0
   -1.4586   15.9274  -31.6275 H   0  0  0  0  0  0  0  0  0  0  0  0
  1  2  1  0
  2  3  2  0
  3  4  1  0
  4  5  2  0
  5  6  1  0
  5  7  1  0
  7  8  1  0
  8  9  1  0
  9 10  2  0
  9 11  2  0
  9 12  1  0
 12 13  2  0
 13 14  1  0
 14 15  2  0
 15 16  1  0
 16 17  2  0
 17 18  1  0
 18 19  2  0
 19 20  1  0
 20 21  2  0
 20 22  2  0
 20 23  1  0
 23 24  1  0
 24 25  1  0
 25 26  1  0
 26 27  1  0
 27 28  1  0
 28 29  1  0
 29 30  1  0
 30 31  1  0
 19 32  1  0
 15 33  1  0
 33 34  2  0
 34 35  1  0
  7 36  2  0
 36  2  1  0
 34 12  1  0
 32 16  1  0
 31 26  1  0
  1 37  1  0
  1 38  1  0
  1 39  1  0
  3 40  1  0
  4 41  1  0
  6 42  1  0
 13 43  1  0
 14 44  1  0
 17 45  1  0
 18 46  1  0
 24 47  1  0
 24 48  1  0
 25 49  1  0
 25 50  1  0
 27 51  1  0
 27 52  1  0
 28 53  1  0
 28 54  1  0
 30 55  1  0
 30 56  1  0
 31 57  1  0
 31 58  1  0
 33 59  1  0
 35 60  1  0
 35 61  1  0
 35 62  1  0
 36 63  1  0
M  CHG  2   8  -1  23  -1
M  END
>  <UniqueID>  (8) 
8

>  <SMILES>  (8) 
Cc1ccc(O)c([N-]S(=O)(=O)c2ccc(-c3ccc(S(=O)(=O)[N-]CCN4CCOCC4)s3)cc2C)c1

>  <Energy>  (8) 
108.05520627346893

>  <Genealogy>  (8) 
Cc1ccc(O)c([N-]S(=O)(=O)c2ccc(-c3ccc(S(=O)(=O)[N-]CCN4CCOCC4)s3)cc2C)c1 (protonated)
Cc1ccc(O)c([N-]S(=O)(=O)c2ccc(-c3ccc(S(=O)(=O)[N-]CCN4CCOCC4)s3)cc2C)c1 (3D coordinates assigned)
Cc1ccc(O)c([N-]S(=O)(=O)c2ccc(-c3ccc(S(=O)(=O)[N-]CCN4CCOCC4)s3)cc2C)c1 (nonaromatic ring conformer: 108.05520627346893 kcal/mol)

>  <smiles>  (8) 
Cc1ccc(O)c(NS(=O)(=O)c2ccc(-c3ccc(S(=O)(=O)NCCN4CCOCC4)s3)cc2C)c1

>  <score_type>  (8) 
oracle

>  <origin>  (8) 
adgpu

>  <m_score__min__energy>  (8) 
-11.220000000000001

>  <m_primary>  (8) 
energy

$$$$
8:0
     RDKit          3D

 66 70  0  0  0  0  0  0  0  0999 V2000
   -2.2060   12.9460  -31.2310 C   0  0  0  0  0  0  0  0  0  0  0  0
   -2.9660   12.0090  -32.0740 N   0  0  0  0  0  0  0  0  0  0  0  0
   -2.7020   12.2780  -33.5060 C   0  0  0  0  0  0  0  0  0  0  0  0
   -3.8120   11.6970  -34.3960 C   0  0  0  0  0  0  0  0  0  0  0  0
   -5.1420   12.2880  -34.0920 N   0  0  0  0  0  0  0  0  0  0  0  0
   -5.5390   13.3030  -35.0880 C   0  0  0  0  0  0  0  0  0  0  0  0
   -5.3140   14.6870  -34.5400 C   0  0  0  0  0  0  0  0  0  0  0  0
   -4.0280   15.2450  -34.4910 C   0  0  0  0  0  0  0  0  0  0  0  0
   -3.8410   16.4920  -33.9800 N   0  0  0  0  0  0  0  0  0  0  0  0
   -4.8770   17.2370  -33.5070 C   0  0  0  0  0  0  0  0  0  0  0  0
   -4.6420   18.5110  -32.9770 C   0  0  0  0  0  0  0  0  0  0  0  0
   -5.7070   19.2830  -32.4740 C   0  0  0  0  0  0  0  0  0  0  0  0
   -5.4560   20.6260  -31.8880 C   0  0  0  0  0  0  0  0  0  0  0  0
   -6.5090   21.3700  -31.3270 C   0  0  0  0  0  0  0  0  0  0  0  0
   -6.2720   22.6250  -30.7630 C   0  0  0  0  0  0  0  0  0  0  0  0
   -4.9760   23.1570  -30.7460 C   0  0  0  0  0  0  0  0  0  0  0  0
   -4.6730   24.7560  -30.0740 S   0  0  0  0  0  0  0  0  0  0  0  0
   -5.9890   25.4370  -29.8220 O   0  0  0  0  0  0  0  0  0  0  0  0
   -3.8730   25.5940  -31.0320 O   0  0  0  0  0  0  0  0  0  0  0  0
   -3.8150   24.5910  -28.5770 N   0  0  0  0  0  0  0  0  0  0  0  0
   -3.0810   23.3990  -28.2640 C   0  0  0  0  0  0  0  0  0  0  0  0
   -3.7760   22.2450  -27.8670 C   0  0  0  0  0  0  0  0  0  0  0  0
   -3.0900   21.0570  -27.6080 C   0  0  0  0  0  0  0  0  0  0  0  0
   -1.7060   21.0040  -27.7590 C   0  0  0  0  0  0  0  0  0  0  0  0
   -0.9980   22.1440  -28.1480 C   0  0  0  0  0  0  0  0  0  0  0  0
   -1.6690   23.3610  -28.3730 C   0  0  0  0  0  0  0  0  0  0  0  0
   -0.8780   24.5940  -28.7630 C   0  0  0  0  0  0  0  0  0  0  0  0
   -1.7150   25.7040  -28.9460 O   0  0  0  0  0  0  0  0  0  0  0  0
   -3.9240   22.4290  -31.3130 C   0  0  0  0  0  0  0  0  0  0  0  0
   -4.1580   21.1710  -31.8760 C   0  0  0  0  0  0  0  0  0  0  0  0
   -7.0130   18.7600  -32.5220 C   0  0  0  0  0  0  0  0  0  0  0  0
   -7.2510   17.4890  -33.0530 C   0  0  0  0  0  0  0  0  0  0  0  0
   -6.1880   16.7210  -33.5440 C   0  0  0  0  0  0  0  0  0  0  0  0
   -6.3990   15.4410  -34.0680 C   0  0  0  0  0  0  0  0  0  0  0  0
   -5.2420   12.8370  -32.7190 C   0  0  0  0  0  0  0  0  0  0  0  0
   -4.4090   12.0160  -31.7240 C   0  0  0  0  0  0  0  0  0  0  0  0
   -2.3909   12.7181  -30.1709 H   0  0  0  0  0  0  0  0  0  0  0  0
   -1.1320   12.8443  -31.4460 H   0  0  0  0  0  0  0  0  0  0  0  0
   -2.5271   13.9759  -31.4460 H   0  0  0  0  0  0  0  0  0  0  0  0
   -2.6492   13.3655  -33.6627 H   0  0  0  0  0  0  0  0  0  0  0  0
   -1.7503   11.7992  -33.7800 H   0  0  0  0  0  0  0  0  0  0  0  0
   -3.5657   11.9013  -35.4484 H   0  0  0  0  0  0  0  0  0  0  0  0
   -3.8701   10.6159  -34.2013 H   0  0  0  0  0  0  0  0  0  0  0  0
   -4.9380   13.1714  -35.9999 H   0  0  0  0  0  0  0  0  0  0  0  0
   -6.6070   13.1788  -35.3201 H   0  0  0  0  0  0  0  0  0  0  0  0
   -3.1675   14.6722  -34.8671 H   0  0  0  0  0  0  0  0  0  0  0  0
   -3.6180   18.9121  -32.9532 H   0  0  0  0  0  0  0  0  0  0  0  0
   -7.5294   20.9593  -31.3325 H   0  0  0  0  0  0  0  0  0  0  0  0
   -7.1055   23.1980  -30.3306 H   0  0  0  0  0  0  0  0  0  0  0  0
   -3.9840   25.3040  -27.8350 H   0  0  0  0  0  0  0  0  0  0  0  0
   -4.8702   22.2775  -27.7592 H   0  0  0  0  0  0  0  0  0  0  0  0
   -3.6424   20.1624  -27.2846 H   0  0  0  0  0  0  0  0  0  0  0  0
   -1.1693   20.0623  -27.5715 H   0  0  0  0  0  0  0  0  0  0  0  0
    0.0928   22.0902  -28.2795 H   0  0  0  0  0  0  0  0  0  0  0  0
   -0.1530   24.8202  -27.9673 H   0  0  0  0  0  0  0  0  0  0  0  0
   -0.3641   24.3884  -29.7136 H   0  0  0  0  0  0  0  0  0  0  0  0
   -2.0250   25.6750  -29.8890 H   0  0  0  0  0  0  0  0  0  0  0  0
   -2.9073   22.8489  -31.3157 H   0  0  0  0  0  0  0  0  0  0  0  0
   -3.3228   20.6035  -32.3123 H   0  0  0  0  0  0  0  0  0  0  0  0
   -7.8537   19.3567  -32.1383 H   0  0  0  0  0  0  0  0  0  0  0  0
   -8.2760   17.0911  -33.0852 H   0  0  0  0  0  0  0  0  0  0  0  0
   -7.4166   15.0254  -34.1100 H   0  0  0  0  0  0  0  0  0  0  0  0
   -4.8763   13.8744  -32.7211 H   0  0  0  0  0  0  0  0  0  0  0  0
   -6.2955   12.7945  -32.4056 H   0  0  0  0  0  0  0  0  0  0  0  0
   -4.5281   12.4491  -30.7199 H   0  0  0  0  0  0  0  0  0  0  0  0
   -4.7700   10.9774  -31.7568 H   0  0  0  0  0  0  0  0  0  0  0  0
  1  2  1  0
  2  3  1  0
  3  4  1  0
  4  5  1  0
  5  6  1  0
  6  7  1  0
  7  8  2  0
  8  9  1  0
  9 10  2  0
 10 11  1  0
 11 12  2  0
 12 13  1  0
 13 14  2  0
 14 15  1  0
 15 16  2  0
 16 17  1  0
 17 18  2  0
 17 19  2  0
 17 20  1  0
 20 21  1  0
 21 22  2  0
 22 23  1  0
 23 24  2  0
 24 25  1  0
 25 26  2  0
 26 27  1  0
 27 28  1  0
 16 29  1  0
 29 30  2  0
 12 31  1  0
 31 32  2  0
 32 33  1  0
 33 34  2  0
  5 35  1  0
 35 36  1  0
 36  2  1  0
 34  7  1  0
 33 10  1  0
 30 13  1  0
 26 21  1  0
  1 37  1  0
  1 38  1  0
  1 39  1  0
  3 40  1  0
  3 41  1  0
  4 42  1  0
  4 43  1  0
  6 44  1  0
  6 45  1  0
  8 46  1  0
 11 47  1  0
 14 48  1  0
 15 49  1  0
 20 50  1  0
 22 51  1  0
 23 52  1  0
 24 53  1  0
 25 54  1  0
 27 55  1  0
 27 56  1  0
 28 57  1  0
 29 58  1  0
 30 59  1  0
 31 60  1  0
 32 61  1  0
 34 62  1  0
 35 63  1  0
 35 64  1  0
 36 65  1  0
 36 66  1  0
M  END
>  <UniqueID>  (9) 
9

>  <SMILES>  (9) 
CN1CCN(Cc2cnc3cc(-c4ccc(S(=O)(=O)Nc5ccccc5CO)cc4)ccc3c2)CC1

>  <Energy>  (9) 
97.64278769850834

>  <Genealogy>  (9) 
CN1CCN(Cc2cnc3cc(-c4ccc(S(=O)(=O)Nc5ccccc5CO)cc4)ccc3c2)CC1 (3D coordinates assigned)
CN1CCN(Cc2cnc3cc(-c4ccc(S(=O)(=O)Nc5ccccc5CO)cc4)ccc3c2)CC1 (nonaromatic ring conformer: 97.64278769850834 kcal/mol)

>  <smiles>  (9) 
CN1CCN(Cc2cnc3cc(-c4ccc(S(=O)(=O)Nc5ccccc5CO)cc4)ccc3c2)CC1

>  <score_type>  (9) 
oracle

>  <origin>  (9) 
adgpu

>  <m_score__min__energy>  (9) 
-10.859999999999999

>  <m_primary>  (9) 
energy

$$$$
9:0
     RDKit          3D

 62 65  0  0  0  0  0  0  0  0999 V2000
   -4.7700   24.8150  -30.2290 O   0  0  0  0  0  0  0  0  0  0  0  0
   -4.1840   23.8920  -30.8530 C   0  0  0  0  0  0  0  0  0  0  0  0
   -4.7730   23.4080  -32.0680 N   0  0  0  0  0  0  0  0  0  0  0  0
   -5.5480   22.2130  -32.2410 C   0  0  0  0  0  0  0  0  0  0  0  0
   -6.8390   22.0770  -31.7010 C   0  0  0  0  0  0  0  0  0  0  0  0
   -7.5590   20.8950  -31.8930 C   0  0  0  0  0  0  0  0  0  0  0  0
   -7.0020   19.8470  -32.6310 C   0  0  0  0  0  0  0  0  0  0  0  0
   -5.7250   19.9810  -33.1930 C   0  0  0  0  0  0  0  0  0  0  0  0
   -5.0250   18.6650  -34.1440 S   0  0  0  0  0  0  0  0  0  0  0  0
   -5.7370   18.5830  -35.4650 O   0  0  0  0  0  0  0  0  0  0  0  0
   -3.5800   18.9750  -34.4150 O   0  0  0  0  0  0  0  0  0  0  0  0
   -5.1380   17.1130  -33.3460 N   0  0  0  0  0  0  0  0  0  0  0  0
   -3.8310   16.4830  -33.1870 C   0  0  0  0  0  0  0  0  0  0  0  0
   -4.0980   14.9930  -33.0520 C   0  0  0  0  0  0  0  0  0  0  0  0
   -5.4450   14.7700  -33.7230 C   0  0  0  0  0  0  0  0  0  0  0  0
   -5.9420   16.1580  -34.1060 C   0  0  0  0  0  0  0  0  0  0  0  0
   -5.0140   21.1750  -33.0130 C   0  0  0  0  0  0  0  0  0  0  0  0
   -2.8640   23.4190  -30.3730 C   0  0  0  0  0  0  0  0  0  0  0  0
   -2.3460   22.2080  -30.8730 C   0  0  0  0  0  0  0  0  0  0  0  0
   -1.0750   21.7620  -30.4890 C   0  0  0  0  0  0  0  0  0  0  0  0
   -0.4530   20.2270  -31.0980 S   0  0  0  0  0  0  0  0  0  0  0  0
    1.0090   20.1330  -30.7580 O   0  0  0  0  0  0  0  0  0  0  0  0
   -1.1730   19.0900  -30.4260 O   0  0  0  0  0  0  0  0  0  0  0  0
   -0.6620   20.1230  -32.8310 N   0  0  0  0  0  0  0  0  0  0  0  0
    0.2940   19.1540  -33.4090 C   0  0  0  0  0  0  0  0  0  0  0  0
   -0.2070   18.5910  -34.7630 C   0  0  0  0  0  0  0  0  0  0  0  0
    0.2590   19.3920  -35.9920 C   0  0  0  0  0  0  0  0  0  0  0  0
   -0.0140   20.9030  -35.8940 C   0  0  0  0  0  0  0  0  0  0  0  0
    0.4570   21.5750  -34.5930 C   0  0  0  0  0  0  0  0  0  0  0  0
   -0.5330   21.4790  -33.4140 C   0  0  0  0  0  0  0  0  0  0  0  0
   -0.3070   22.5360  -29.6130 C   0  0  0  0  0  0  0  0  0  0  0  0
   -0.8110   23.7320  -29.1040 C   0  0  0  0  0  0  0  0  0  0  0  0
   -2.0890   24.1750  -29.4610 C   0  0  0  0  0  0  0  0  0  0  0  0
   -2.5640   25.3480  -28.8700 O   0  0  0  0  0  0  0  0  0  0  0  0
   -7.2832   22.9029  -31.1261 H   0  0  0  0  0  0  0  0  0  0  0  0
   -8.5658   20.7892  -31.4626 H   0  0  0  0  0  0  0  0  0  0  0  0
   -7.5676   18.9140  -32.7712 H   0  0  0  0  0  0  0  0  0  0  0  0
   -3.2019   16.6804  -34.0675 H   0  0  0  0  0  0  0  0  0  0  0  0
   -3.2974   16.8779  -32.3099 H   0  0  0  0  0  0  0  0  0  0  0  0
   -3.3131   14.4124  -33.5589 H   0  0  0  0  0  0  0  0  0  0  0  0
   -4.1020   14.6683  -32.0010 H   0  0  0  0  0  0  0  0  0  0  0  0
   -5.3293   14.1421  -34.6187 H   0  0  0  0  0  0  0  0  0  0  0  0
   -6.1519   14.2518  -33.0583 H   0  0  0  0  0  0  0  0  0  0  0  0
   -5.8095   16.3243  -35.1853 H   0  0  0  0  0  0  0  0  0  0  0  0
   -7.0126   16.2725  -33.8808 H   0  0  0  0  0  0  0  0  0  0  0  0
   -4.0270   21.2976  -33.4829 H   0  0  0  0  0  0  0  0  0  0  0  0
   -2.9458   21.6067  -31.5720 H   0  0  0  0  0  0  0  0  0  0  0  0
    1.2592   19.6572  -33.5676 H   0  0  0  0  0  0  0  0  0  0  0  0
    0.3974   18.3142  -32.7062 H   0  0  0  0  0  0  0  0  0  0  0  0
    0.1604   17.5592  -34.8644 H   0  0  0  0  0  0  0  0  0  0  0  0
   -1.3051   18.6531  -34.7437 H   0  0  0  0  0  0  0  0  0  0  0  0
    1.3423   19.2432  -36.1115 H   0  0  0  0  0  0  0  0  0  0  0  0
   -0.3169   19.0195  -36.8520 H   0  0  0  0  0  0  0  0  0  0  0  0
    0.4967   21.3955  -36.7346 H   0  0  0  0  0  0  0  0  0  0  0  0
   -1.1080   21.0155  -35.9147 H   0  0  0  0  0  0  0  0  0  0  0  0
    1.4004   21.1001  -34.2858 H   0  0  0  0  0  0  0  0  0  0  0  0
    0.5609   22.6462  -34.8206 H   0  0  0  0  0  0  0  0  0  0  0  0
   -0.1924   22.1627  -32.6224 H   0  0  0  0  0  0  0  0  0  0  0  0
   -1.5230   21.7441  -33.8135 H   0  0  0  0  0  0  0  0  0  0  0  0
    0.6996   22.1994  -29.3243 H   0  0  0  0  0  0  0  0  0  0  0  0
   -0.1984   24.3326  -28.4156 H   0  0  0  0  0  0  0  0  0  0  0  0
   -3.5270   25.4770  -28.5890 H   0  0  0  0  0  0  0  0  0  0  0  0
  1  2  2  0
  2  3  1  0
  3  4  1  0
  4  5  2  0
  5  6  1  0
  6  7  2  0
  7  8  1  0
  8  9  1  0
  9 10  2  0
  9 11  2  0
  9 12  1  0
 12 13  1  0
 13 14  1  0
 14 15  1  0
 15 16  1  0
  8 17  2  0
  2 18  1  0
 18 19  2  0
 19 20  1  0
 20 21  1  0
 21 22  2  0
 21 23  2  0
 21 24  1  0
 24 25  1  0
 25 26  1  0
 26 27  1  0
 27 28  1  0
 28 29  1  0
 29 30  1  0
 20 31  2  0
 31 32  1  0
 32 33  2  0
 33 34  1  0
 17  4  1  0
 33 18  1  0
 16 12  1  0
 30 24  1  0
  5 35  1  0
  6 36  1  0
  7 37  1  0
 13 38  1  0
 13 39  1  0
 14 40  1  0
 14 41  1  0
 15 42  1  0
 15 43  1  0
 16 44  1  0
 16 45  1  0
 17 46  1  0
 19 47  1  0
 25 48  1  0
 25 49  1  0
 26 50  1  0
 26 51  1  0
 27 52  1  0
 27 53  1  0
 28 54  1  0
 28 55  1  0
 29 56  1  0
 29 57  1  0
 30 58  1  0
 30 59  1  0
 31 60  1  0
 32 61  1  0
 34 62  1  0
M  CHG  1   3  -1
M  END
>  <UniqueID>  (10) 
10

>  <SMILES>  (10) 
O=C([N-]c1cccc(S(=O)(=O)N2CCCC2)c1)c1cc(S(=O)(=O)N2CCCCCC2)ccc1O

>  <Energy>  (10) 
76.43058959565221

>  <Genealogy>  (10) 
O=C([N-]c1cccc(S(=O)(=O)N2CCCC2)c1)c1cc(S(=O)(=O)N2CCCCCC2)ccc1O (protonated)
O=C([N-]c1cccc(S(=O)(=O)N2CCCC2)c1)c1cc(S(=O)(=O)N2CCCCCC2)ccc1O (3D coordinates assigned)
O=C([N-]c1cccc(S(=O)(=O)N2CCCC2)c1)c1cc(S(=O)(=O)N2CCCCCC2)ccc1O (nonaromatic ring conformer: 76.43058959565221 kcal/mol)

>  <smiles>  (10) 
O=C(Nc1cccc(S(=O)(=O)N2CCCC2)c1)c1cc(S(=O)(=O)N2CCCCCC2)ccc1O

>  <score_type>  (10) 
oracle

>  <origin>  (10) 
adgpu

>  <m_score__min__energy>  (10) 
-8.0500000000000007

>  <m_primary>  (10) 
energy

$$$$
10:0
     RDKit          3D

 43 46  0  0  0  0  0  0  0  0999 V2000
    0.3000   28.7460  -24.1080 N   0  0  0  0  0  0  0  0  0  0  0  0
   -0.2850   27.6560  -24.8260 C   0  0  0  0  0  0  0  0  0  0  0  0
   -0.7470   26.5260  -24.1390 C   0  0  0  0  0  0  0  0  0  0  0  0
   -1.3180   25.4600  -24.8380 C   0  0  0  0  0  0  0  0  0  0  0  0
   -1.4370   25.5070  -26.2400 C   0  0  0  0  0  0  0  0  0  0  0  0
   -2.0450   24.3740  -26.9850 C   0  0  0  0  0  0  0  0  0  0  0  0
   -1.5370   23.0730  -26.8440 C   0  0  0  0  0  0  0  0  0  0  0  0
   -2.1310   22.0080  -27.5430 C   0  0  0  0  0  0  0  0  0  0  0  0
   -1.6310   20.6150  -27.4160 C   0  0  0  0  0  0  0  0  0  0  0  0
   -0.3800   20.2330  -27.9410 C   0  0  0  0  0  0  0  0  0  0  0  0
    0.0740   18.9170  -27.8020 C   0  0  0  0  0  0  0  0  0  0  0  0
   -0.7080   17.9710  -27.1370 C   0  0  0  0  0  0  0  0  0  0  0  0
   -1.9430   18.3390  -26.6020 C   0  0  0  0  0  0  0  0  0  0  0  0
   -2.4030   19.6530  -26.7370 C   0  0  0  0  0  0  0  0  0  0  0  0
   -3.1800   22.2650  -28.3720 N   0  0  0  0  0  0  0  0  0  0  0  0
   -3.6900   23.5130  -28.5510 C   0  0  0  0  0  0  0  0  0  0  0  0
   -4.8480   23.6980  -29.4560 C   0  0  0  0  0  0  0  0  0  0  0  0
   -5.9020   22.7670  -29.4190 C   0  0  0  0  0  0  0  0  0  0  0  0
   -7.0100   22.9160  -30.2570 C   0  0  0  0  0  0  0  0  0  0  0  0
   -7.0760   23.9890  -31.1470 C   0  0  0  0  0  0  0  0  0  0  0  0
   -6.0290   24.9110  -31.2090 C   0  0  0  0  0  0  0  0  0  0  0  0
   -4.9110   24.7680  -30.3770 C   0  0  0  0  0  0  0  0  0  0  0  0
   -3.8640   25.6740  -30.4970 O   0  0  0  0  0  0  0  0  0  0  0  0
   -3.1370   24.5890  -27.8400 C   0  0  0  0  0  0  0  0  0  0  0  0
   -0.9710   26.6450  -26.9230 C   0  0  0  0  0  0  0  0  0  0  0  0
   -0.3990   27.7100  -26.2210 C   0  0  0  0  0  0  0  0  0  0  0  0
    0.8060   29.5080  -24.6130 H   0  0  0  0  0  0  0  0  0  0  0  0
    0.2310   28.8000  -23.0680 H   0  0  0  0  0  0  0  0  0  0  0  0
   -0.6597   26.4779  -23.0435 H   0  0  0  0  0  0  0  0  0  0  0  0
   -1.6774   24.5772  -24.2889 H   0  0  0  0  0  0  0  0  0  0  0  0
   -0.6746   22.8871  -26.1869 H   0  0  0  0  0  0  0  0  0  0  0  0
    0.2431   20.9740  -28.4631 H   0  0  0  0  0  0  0  0  0  0  0  0
    1.0501   18.6269  -28.2180 H   0  0  0  0  0  0  0  0  0  0  0  0
   -0.3507   16.9357  -27.0348 H   0  0  0  0  0  0  0  0  0  0  0  0
   -2.5560   17.5944  -26.0731 H   0  0  0  0  0  0  0  0  0  0  0  0
   -3.3758   19.9371  -26.3092 H   0  0  0  0  0  0  0  0  0  0  0  0
   -5.8534   21.9150  -28.7249 H   0  0  0  0  0  0  0  0  0  0  0  0
   -7.8319   22.1862  -30.2152 H   0  0  0  0  0  0  0  0  0  0  0  0
   -7.9531   24.1085  -31.7999 H   0  0  0  0  0  0  0  0  0  0  0  0
   -6.0824   25.7534  -31.9143 H   0  0  0  0  0  0  0  0  0  0  0  0
   -3.5585   25.5988  -27.9525 H   0  0  0  0  0  0  0  0  0  0  0  0
   -1.0574   26.6973  -28.0184 H   0  0  0  0  0  0  0  0  0  0  0  0
   -0.0370   28.5940  -26.7664 H   0  0  0  0  0  0  0  0  0  0  0  0
  1  2  1  0
  2  3  2  0
  3  4  1  0
  4  5  2  0
  5  6  1  0
  6  7  2  0
  7  8  1  0
  8  9  1  0
  9 10  2  0
 10 11  1  0
 11 12  2  0
 12 13  1  0
 13 14  2  0
  8 15  2  0
 15 16  1  0
 16 17  1  0
 17 18  2  0
 18 19  1  0
 19 20  2  0
 20 21  1  0
 21 22  2  0
 22 23  1  0
 16 24  2  0
  5 25  1  0
 25 26  2  0
 26  2  1  0
 24  6  1  0
 14  9  1  0
 22 17  1  0
  1 27  1  0
  1 28  1  0
  3 29  1  0
  4 30  1  0
  7 31  1  0
 10 32  1  0
 11 33  1  0
 12 34  1  0
 13 35  1  0
 14 36  1  0
 18 37  1  0
 19 38  1  0
 20 39  1  0
 21 40  1  0
 24 41  1  0
 25 42  1  0
 26 43  1  0
M  CHG  1  23  -1
M  END
>  <UniqueID>  (11) 
11

>  <SMILES>  (11) 
Nc1ccc(-c2cc(-c3ccccc3)nc(-c3ccccc3[O-])c2)cc1

>  <Energy>  (11) 
62.38214749822739

>  <Genealogy>  (11) 
Nc1ccc(-c2cc(-c3ccccc3)nc(-c3ccccc3[O-])c2)cc1 (protonated)
Nc1ccc(-c2cc(-c3ccccc3)nc(-c3ccccc3[O-])c2)cc1 (3D coordinates assigned)
Nc1ccc(-c2cc(-c3ccccc3)nc(-c3ccccc3[O-])c2)cc1 (optimized conformer: 62.38214749822739 kcal/mol)

>  <smiles>  (11) 
Nc1ccc(-c2cc(-c3ccccc3)nc(-c3ccccc3O)c2)cc1

>  <score_type>  (11) 
oracle

>  <origin>  (11) 
adgpu

>  <m_score__min__energy>  (11) 
-11.93

>  <m_primary>  (11) 
energy

$$$$
11:0
     RDKit          3D

 46 49  0  0  0  0  0  0  0  0999 V2000
   -1.6100   25.6900  -28.9560 O   0  0  0  0  0  0  0  0  0  0  0  0
   -2.5560   24.9090  -29.2440 C   0  0  0  0  0  0  0  0  0  0  0  0
   -3.5240   25.2710  -30.2380 N   0  0  0  0  0  0  0  0  0  0  0  0
   -4.6710   24.5060  -30.6350 C   0  0  0  0  0  0  0  0  0  0  0  0
   -5.9840   24.9600  -30.4140 C   0  0  0  0  0  0  0  0  0  0  0  0
   -7.0730   24.1740  -30.8010 C   0  0  0  0  0  0  0  0  0  0  0  0
   -6.8640   22.9250  -31.3920 C   0  0  0  0  0  0  0  0  0  0  0  0
   -5.5610   22.4520  -31.5890 C   0  0  0  0  0  0  0  0  0  0  0  0
   -5.2740   20.8800  -32.3320 S   0  0  0  0  0  0  0  0  0  0  0  0
   -4.1500   21.0200  -33.3200 O   0  0  0  0  0  0  0  0  0  0  0  0
   -4.8750   19.8760  -31.2850 O   0  0  0  0  0  0  0  0  0  0  0  0
   -6.7250   20.3490  -33.1570 N   0  0  0  0  0  0  0  0  0  0  0  0
   -7.7870   20.0500  -32.1900 C   0  0  0  0  0  0  0  0  0  0  0  0
   -7.7300   18.5650  -31.8650 C   0  0  0  0  0  0  0  0  0  0  0  0
   -6.8760   17.9420  -32.9530 C   0  0  0  0  0  0  0  0  0  0  0  0
   -6.4790   19.0900  -33.8690 C   0  0  0  0  0  0  0  0  0  0  0  0
   -4.4700   23.2430  -31.2060 C   0  0  0  0  0  0  0  0  0  0  0  0
   -2.6490   23.5920  -28.5980 C   0  0  0  0  0  0  0  0  0  0  0  0
   -3.2700   23.3810  -27.4170 N   0  0  0  0  0  0  0  0  0  0  0  0
   -3.1210   22.1190  -27.1200 O   0  0  0  0  0  0  0  0  0  0  0  0
   -2.4280   21.5030  -28.0470 C   0  0  0  0  0  0  0  0  0  0  0  0
   -2.1140   22.3950  -29.0390 C   0  0  0  0  0  0  0  0  0  0  0  0
   -1.2380   22.0760  -30.2130 C   0  0  0  0  0  0  0  0  0  0  0  0
   -1.1290   20.5480  -30.4010 C   0  0  0  0  0  0  0  0  0  0  0  0
   -0.8920   19.8200  -29.0590 C   0  0  0  0  0  0  0  0  0  0  0  0
   -2.0510   20.0550  -28.0690 C   0  0  0  0  0  0  0  0  0  0  0  0
   -6.1540   25.9358  -29.9355 H   0  0  0  0  0  0  0  0  0  0  0  0
   -8.0978   24.5397  -30.6399 H   0  0  0  0  0  0  0  0  0  0  0  0
   -7.7237   22.3131  -31.7026 H   0  0  0  0  0  0  0  0  0  0  0  0
   -7.6322   20.6380  -31.2733 H   0  0  0  0  0  0  0  0  0  0  0  0
   -8.7691   20.3090  -32.6123 H   0  0  0  0  0  0  0  0  0  0  0  0
   -7.2713   18.4052  -30.8781 H   0  0  0  0  0  0  0  0  0  0  0  0
   -8.7341   18.1173  -31.8292 H   0  0  0  0  0  0  0  0  0  0  0  0
   -5.9822   17.4716  -32.5174 H   0  0  0  0  0  0  0  0  0  0  0  0
   -7.4200   17.1561  -33.4976 H   0  0  0  0  0  0  0  0  0  0  0  0
   -5.4125   19.0097  -34.1263 H   0  0  0  0  0  0  0  0  0  0  0  0
   -7.0676   19.0568  -34.7977 H   0  0  0  0  0  0  0  0  0  0  0  0
   -3.4464   22.8688  -31.3551 H   0  0  0  0  0  0  0  0  0  0  0  0
   -1.6702   22.5232  -31.1203 H   0  0  0  0  0  0  0  0  0  0  0  0
   -0.2337   22.4866  -30.0319 H   0  0  0  0  0  0  0  0  0  0  0  0
   -2.0633   20.1767  -30.8473 H   0  0  0  0  0  0  0  0  0  0  0  0
   -0.2694   20.3447  -31.0566 H   0  0  0  0  0  0  0  0  0  0  0  0
   -0.8003   18.7407  -29.2505 H   0  0  0  0  0  0  0  0  0  0  0  0
    0.0287   20.2208  -28.6099 H   0  0  0  0  0  0  0  0  0  0  0  0
   -2.9209   19.4580  -28.3801 H   0  0  0  0  0  0  0  0  0  0  0  0
   -1.7285   19.7533  -27.0615 H   0  0  0  0  0  0  0  0  0  0  0  0
  1  2  2  0
  2  3  1  0
  3  4  1  0
  4  5  2  0
  5  6  1  0
  6  7  2  0
  7  8  1  0
  8  9  1  0
  9 10  2  0
  9 11  2  0
  9 12  1  0
 12 13  1  0
 13 14  1  0
 14 15  1  0
 15 16  1  0
  8 17  2  0
  2 18  1  0
 18 19  2  0
 19 20  1  0
 20 21  1  0
 21 22  2  0
 22 23  1  0
 23 24  1  0
 24 25  1  0
 25 26  1  0
 17  4  1  0
 22 18  1  0
 16 12  1  0
 26 21  1  0
  5 27  1  0
  6 28  1  0
  7 29  1  0
 13 30  1  0
 13 31  1  0
 14 32  1  0
 14 33  1  0
 15 34  1  0
 15 35  1  0
 16 36  1  0
 16 37  1  0
 17 38  1  0
 23 39  1  0
 23 40  1  0
 24 41  1  0
 24 42  1  0
 25 43  1  0
 25 44  1  0
 26 45  1  0
 26 46  1  0
M  CHG  1   3  -1
M  END
>  <UniqueID>  (12) 
12

>  <SMILES>  (12) 
O=C([N-]c1cccc(S(=O)(=O)N2CCCC2)c1)c1noc2c1CCCC2

>  <Energy>  (12) 
83.34199230979374

>  <Genealogy>  (12) 
O=C([N-]c1cccc(S(=O)(=O)N2CCCC2)c1)c1noc2c1CCCC2 (protonated)
O=C([N-]c1cccc(S(=O)(=O)N2CCCC2)c1)c1noc2c1CCCC2 (3D coordinates assigned)
O=C([N-]c1cccc(S(=O)(=O)N2CCCC2)c1)c1noc2c1CCCC2 (nonaromatic ring conformer: 83.34199230979374 kcal/mol)

>  <smiles>  (12) 
O=C(Nc1cccc(S(=O)(=O)N2CCCC2)c1)c1noc2c1CCCC2

>  <score_type>  (12) 
oracle

>  <origin>  (12) 
adgpu

>  <m_score__min__energy>  (12) 
-11.27

>  <m_primary>  (12) 
energy

$$$$
12:0
     RDKit          3D

 58 61  0  0  0  0  0  0  0  0999 V2000
   -7.0480   25.3540  -30.2750 O   0  0  0  0  0  0  0  0  0  0  0  0
   -6.0550   24.2380  -30.4390 S   0  0  0  0  0  0  0  0  0  0  0  0
   -5.0320   24.6370  -31.4650 O   0  0  0  0  0  0  0  0  0  0  0  0
   -5.2640   23.9610  -28.9170 N   0  0  0  0  0  0  0  0  0  0  0  0
   -3.9720   23.3380  -28.7870 C   0  0  0  0  0  0  0  0  0  0  0  0
   -3.8300   22.0470  -28.2450 C   0  0  0  0  0  0  0  0  0  0  0  0
   -2.5750   21.4250  -28.1760 C   0  0  0  0  0  0  0  0  0  0  0  0
   -1.4220   22.1360  -28.5800 C   0  0  0  0  0  0  0  0  0  0  0  0
   -1.5610   23.4280  -29.1050 C   0  0  0  0  0  0  0  0  0  0  0  0
   -2.8200   24.0250  -29.2110 C   0  0  0  0  0  0  0  0  0  0  0  0
   -2.9170   25.3030  -29.7490 O   0  0  0  0  0  0  0  0  0  0  0  0
   -0.0530   21.4980  -28.5600 C   0  0  0  0  0  0  0  0  0  0  0  0
    0.0160   20.2830  -27.6300 C   0  0  0  0  0  0  0  0  0  0  0  0
   -1.1570   19.3430  -27.8990 C   0  0  0  0  0  0  0  0  0  0  0  0
   -2.4840   20.0380  -27.5840 C   0  0  0  0  0  0  0  0  0  0  0  0
   -6.8560   22.7660  -30.9830 C   0  0  0  0  0  0  0  0  0  0  0  0
   -8.2460   22.6470  -30.8720 C   0  0  0  0  0  0  0  0  0  0  0  0
   -8.8950   21.5150  -31.3720 C   0  0  0  0  0  0  0  0  0  0  0  0
   -8.1600   20.4990  -31.9870 C   0  0  0  0  0  0  0  0  0  0  0  0
   -6.7660   20.6050  -32.0960 C   0  0  0  0  0  0  0  0  0  0  0  0
   -5.8350   19.3490  -32.9110 S   0  0  0  0  0  0  0  0  0  0  0  0
   -6.2370   18.0050  -32.3690 O   0  0  0  0  0  0  0  0  0  0  0  0
   -6.1500   19.3680  -34.3820 O   0  0  0  0  0  0  0  0  0  0  0  0
   -4.1190   19.5870  -32.6810 N   0  0  0  0  0  0  0  0  0  0  0  0
   -3.3910   18.4010  -33.1760 C   0  0  0  0  0  0  0  0  0  0  0  0
   -1.9640   18.7130  -33.6670 C   0  0  0  0  0  0  0  0  0  0  0  0
   -1.0920   19.4690  -32.6470 C   0  0  0  0  0  0  0  0  0  0  0  0
   -1.1800   21.0130  -32.7080 C   0  0  0  0  0  0  0  0  0  0  0  0
   -2.5980   21.5840  -32.5190 C   0  0  0  0  0  0  0  0  0  0  0  0
   -3.6840   20.8400  -33.3340 C   0  0  0  0  0  0  0  0  0  0  0  0
   -6.1180   21.7370  -31.5840 C   0  0  0  0  0  0  0  0  0  0  0  0
   -5.7290   24.3630  -28.0730 H   0  0  0  0  0  0  0  0  0  0  0  0
   -4.7178   21.5172  -27.8694 H   0  0  0  0  0  0  0  0  0  0  0  0
   -0.6686   23.9785  -29.4375 H   0  0  0  0  0  0  0  0  0  0  0  0
    0.2005   21.1755  -29.5806 H   0  0  0  0  0  0  0  0  0  0  0  0
    0.6588   22.2473  -28.1832 H   0  0  0  0  0  0  0  0  0  0  0  0
    0.9595   19.7452  -27.8048 H   0  0  0  0  0  0  0  0  0  0  0  0
   -0.0334   20.6276  -26.5865 H   0  0  0  0  0  0  0  0  0  0  0  0
   -1.1468   19.0451  -28.9579 H   0  0  0  0  0  0  0  0  0  0  0  0
   -1.0578   18.4569  -27.2549 H   0  0  0  0  0  0  0  0  0  0  0  0
   -3.3047   19.4284  -27.9899 H   0  0  0  0  0  0  0  0  0  0  0  0
   -2.5525   20.1400  -26.4909 H   0  0  0  0  0  0  0  0  0  0  0  0
   -8.8287   23.4460  -30.3903 H   0  0  0  0  0  0  0  0  0  0  0  0
   -9.9874   21.4239  -31.2810 H   0  0  0  0  0  0  0  0  0  0  0  0
   -8.6759   19.6135  -32.3868 H   0  0  0  0  0  0  0  0  0  0  0  0
   -3.3249   17.6675  -32.3589 H   0  0  0  0  0  0  0  0  0  0  0  0
   -3.9522   18.0157  -34.0400 H   0  0  0  0  0  0  0  0  0  0  0  0
   -1.4667   17.7615  -33.9066 H   0  0  0  0  0  0  0  0  0  0  0  0
   -2.0696   19.3731  -34.5406 H   0  0  0  0  0  0  0  0  0  0  0  0
   -1.3979   19.1519  -31.6391 H   0  0  0  0  0  0  0  0  0  0  0  0
   -0.0505   19.2164  -32.8951 H   0  0  0  0  0  0  0  0  0  0  0  0
   -0.5364   21.4246  -31.9165 H   0  0  0  0  0  0  0  0  0  0  0  0
   -0.8602   21.3030  -33.7197 H   0  0  0  0  0  0  0  0  0  0  0  0
   -2.8590   21.5187  -31.4524 H   0  0  0  0  0  0  0  0  0  0  0  0
   -2.5774   22.6214  -32.8842 H   0  0  0  0  0  0  0  0  0  0  0  0
   -4.5561   21.5010  -33.4465 H   0  0  0  0  0  0  0  0  0  0  0  0
   -3.2495   20.5765  -34.3096 H   0  0  0  0  0  0  0  0  0  0  0  0
   -5.0233   21.8186  -31.6542 H   0  0  0  0  0  0  0  0  0  0  0  0
  1  2  2  0
  2  3  2  0
  2  4  1  0
  4  5  1  0
  5  6  2  0
  6  7  1  0
  7  8  2  0
  8  9  1  0
  9 10  2  0
 10 11  1  0
  8 12  1  0
 12 13  1  0
 13 14  1  0
 14 15  1  0
  2 16  1  0
 16 17  2  0
 17 18  1  0
 18 19  2  0
 19 20  1  0
 20 21  1  0
 21 22  2  0
 21 23  2  0
 21 24  1  0
 24 25  1  0
 25 26  1  0
 26 27  1  0
 27 28  1  0
 28 29  1  0
 29 30  1  0
 20 31  2  0
 10  5  1  0
 31 16  1  0
 15  7  1  0
 30 24  1  0
  4 32  1  0
  6 33  1  0
  9 34  1  0
 12 35  1  0
 12 36  1  0
 13 37  1  0
 13 38  1  0
 14 39  1  0
 14 40  1  0
 15 41  1  0
 15 42  1  0
 17 43  1  0
 18 44  1  0
 19 45  1  0
 25 46  1  0
 25 47  1  0
 26 48  1  0
 26 49  1  0
 27 50  1  0
 27 51  1  0
 28 52  1  0
 28 53  1  0
 29 54  1  0
 29 55  1  0
 30 56  1  0
 30 57  1  0
 31 58  1  0
M  CHG  1  11  -1
M  END
>  <UniqueID>  (13) 
13

>  <SMILES>  (13) 
O=S(=O)(Nc1cc2c(cc1[O-])CCCC2)c1cccc(S(=O)(=O)N2CCCCCC2)c1

>  <Energy>  (13) 
66.29704043483088

>  <Genealogy>  (13) 
O=S(=O)(Nc1cc2c(cc1[O-])CCCC2)c1cccc(S(=O)(=O)N2CCCCCC2)c1 (protonated)
O=S(=O)(Nc1cc2c(cc1[O-])CCCC2)c1cccc(S(=O)(=O)N2CCCCCC2)c1 (3D coordinates assigned)
O=S(=O)(Nc1cc2c(cc1[O-])CCCC2)c1cccc(S(=O)(=O)N2CCCCCC2)c1 (nonaromatic ring conformer: 66.29704043483088 kcal/mol)

>  <smiles>  (13) 
O=S(=O)(Nc1cc2c(cc1O)CCCC2)c1cccc(S(=O)(=O)N2CCCCCC2)c1

>  <score_type>  (13) 
oracle

>  <origin>  (13) 
adgpu

>  <m_score__min__energy>  (13) 
-12.32

>  <m_primary>  (13) 
energy

$$$$
13:0
     RDKit          3D

 56 59  0  0  0  0  0  0  0  0999 V2000
   -5.3790   26.0510  -30.4520 C   0  0  0  0  0  0  0  0  0  0  0  0
   -4.2380   25.2190  -30.6410 O   0  0  0  0  0  0  0  0  0  0  0  0
   -4.2800   23.8200  -30.7680 C   0  0  0  0  0  0  0  0  0  0  0  0
   -5.4610   23.1470  -31.1470 C   0  0  0  0  0  0  0  0  0  0  0  0
   -5.4960   21.7490  -31.2070 C   0  0  0  0  0  0  0  0  0  0  0  0
   -6.9570   20.9110  -31.7220 S   0  0  0  0  0  0  0  0  0  0  0  0
   -8.1250   21.4460  -30.9440 O   0  0  0  0  0  0  0  0  0  0  0  0
   -7.2030   21.1270  -33.1880 O   0  0  0  0  0  0  0  0  0  0  0  0
   -6.8010   19.2090  -31.4190 N   0  0  0  0  0  0  0  0  0  0  0  0
   -6.1520   18.3870  -32.1870 C   0  0  0  0  0  0  0  0  0  0  0  0
   -6.0410   17.0690  -31.9150 N   0  0  0  0  0  0  0  0  0  0  0  0
   -5.3330   16.3950  -32.8190 N   0  0  0  0  0  0  0  0  0  0  0  0
   -4.8610   17.1800  -33.8130 C   0  0  0  0  0  0  0  0  0  0  0  0
   -4.0920   16.6610  -34.9790 C   0  0  0  0  0  0  0  0  0  0  0  0
   -5.3480   18.7850  -33.6190 S   0  0  0  0  0  0  0  0  0  0  0  0
   -4.3580   21.0130  -30.8620 C   0  0  0  0  0  0  0  0  0  0  0  0
   -3.1830   21.6680  -30.4970 C   0  0  0  0  0  0  0  0  0  0  0  0
   -3.1220   23.0670  -30.4840 C   0  0  0  0  0  0  0  0  0  0  0  0
   -1.8800   23.6880  -30.1250 N   0  0  0  0  0  0  0  0  0  0  0  0
   -1.6490   24.4530  -28.9360 C   0  0  0  0  0  0  0  0  0  0  0  0
   -1.9970   25.6640  -28.8710 O   0  0  0  0  0  0  0  0  0  0  0  0
   -0.8950   23.8390  -27.8010 C   0  0  0  0  0  0  0  0  0  0  0  0
   -0.9870   22.3400  -27.8760 C   0  0  0  0  0  0  0  0  0  0  0  0
   -1.6280   21.6180  -26.8570 C   0  0  0  0  0  0  0  0  0  0  0  0
   -1.7400   20.2280  -26.9420 C   0  0  0  0  0  0  0  0  0  0  0  0
   -1.2280   19.5500  -28.0530 C   0  0  0  0  0  0  0  0  0  0  0  0
   -0.6160   20.2570  -29.0950 C   0  0  0  0  0  0  0  0  0  0  0  0
   -0.1090   19.5400  -30.1900 O   0  0  0  0  0  0  0  0  0  0  0  0
   -0.5600   19.6560  -31.5130 C   0  0  0  0  0  0  0  0  0  0  0  0
   -0.2760   20.8310  -32.2200 C   0  0  0  0  0  0  0  0  0  0  0  0
   -0.7030   20.9790  -33.5440 C   0  0  0  0  0  0  0  0  0  0  0  0
   -1.4060   19.9480  -34.1720 C   0  0  0  0  0  0  0  0  0  0  0  0
   -1.6750   18.7640  -33.4820 C   0  0  0  0  0  0  0  0  0  0  0  0
   -1.2490   18.6110  -32.1590 C   0  0  0  0  0  0  0  0  0  0  0  0
   -0.4850   21.6540  -28.9960 C   0  0  0  0  0  0  0  0  0  0  0  0
   -5.5615   26.1841  -29.3754 H   0  0  0  0  0  0  0  0  0  0  0  0
   -5.1991   27.0314  -30.9173 H   0  0  0  0  0  0  0  0  0  0  0  0
   -6.2574   25.5800  -30.9173 H   0  0  0  0  0  0  0  0  0  0  0  0
   -6.3620   23.7261  -31.3975 H   0  0  0  0  0  0  0  0  0  0  0  0
   -6.4660   16.6070  -31.0820 H   0  0  0  0  0  0  0  0  0  0  0  0
   -3.2301   16.0793  -34.6202 H   0  0  0  0  0  0  0  0  0  0  0  0
   -4.7415   16.0158  -35.5888 H   0  0  0  0  0  0  0  0  0  0  0  0
   -3.7367   17.5047  -35.5888 H   0  0  0  0  0  0  0  0  0  0  0  0
   -4.3903   19.9136  -30.8787 H   0  0  0  0  0  0  0  0  0  0  0  0
   -2.2960   21.0809  -30.2167 H   0  0  0  0  0  0  0  0  0  0  0  0
    0.1607   24.1428  -27.8578 H   0  0  0  0  0  0  0  0  0  0  0  0
   -1.3301   24.1811  -26.8504 H   0  0  0  0  0  0  0  0  0  0  0  0
   -2.0438   22.1489  -25.9879 H   0  0  0  0  0  0  0  0  0  0  0  0
   -2.2315   19.6661  -26.1341 H   0  0  0  0  0  0  0  0  0  0  0  0
   -1.3067   18.4542  -28.1085 H   0  0  0  0  0  0  0  0  0  0  0  0
    0.2854   21.6414  -31.7320 H   0  0  0  0  0  0  0  0  0  0  0  0
   -0.4850   21.9081  -34.0911 H   0  0  0  0  0  0  0  0  0  0  0  0
   -1.7478   20.0688  -35.2105 H   0  0  0  0  0  0  0  0  0  0  0  0
   -2.2229   17.9505  -33.9801 H   0  0  0  0  0  0  0  0  0  0  0  0
   -1.4523   17.6729  -31.6218 H   0  0  0  0  0  0  0  0  0  0  0  0
    0.0139   22.2139  -29.8007 H   0  0  0  0  0  0  0  0  0  0  0  0
  1  2  1  0
  2  3  1  0
  3  4  2  0
  4  5  1  0
  5  6  1  0
  6  7  2  0
  6  8  2  0
  6  9  1  0
  9 10  2  3
 10 11  1  0
 11 12  1  0
 12 13  2  0
 13 14  1  0
 13 15  1  0
  5 16  2  0
 16 17  1  0
 17 18  2  0
 18 19  1  0
 19 20  1  0
 20 21  2  0
 20 22  1  0
 22 23  1  0
 23 24  2  0
 24 25  1  0
 25 26  2  0
 26 27  1  0
 27 28  1  0
 28 29  1  0
 29 30  2  0
 30 31  1  0
 31 32  2  0
 32 33  1  0
 33 34  2  0
 27 35  2  0
 18  3  1  0
 35 23  1  0
 15 10  1  0
 34 29  1  0
  1 36  1  0
  1 37  1  0
  1 38  1  0
  4 39  1  0
 11 40  1  0
 14 41  1  0
 14 42  1  0
 14 43  1  0
 16 44  1  0
 17 45  1  0
 22 46  1  0
 22 47  1  0
 24 48  1  0
 25 49  1  0
 26 50  1  0
 30 51  1  0
 31 52  1  0
 32 53  1  0
 33 54  1  0
 34 55  1  0
 35 56  1  0
M  CHG  1  19  -1
M  END
>  <UniqueID>  (14) 
14

>  <SMILES>  (14) 
COc1cc(S(=O)(=O)N=c2[nH]nc(C)s2)ccc1[N-]C(=O)Cc1cccc(Oc2ccccc2)c1

>  <Energy>  (14) 
104.66568586881617

>  <Genealogy>  (14) 
COc1cc(S(=O)(=O)N=c2[nH]nc(C)s2)ccc1[N-]C(=O)Cc1cccc(Oc2ccccc2)c1 (protonated)
COc1cc(S(=O)(=O)N=c2[nH]nc(C)s2)ccc1[N-]C(=O)Cc1cccc(Oc2ccccc2)c1 (3D coordinates assigned)
COc1cc(S(=O)(=O)N=c2[nH]nc(C)s2)ccc1[N-]C(=O)Cc1cccc(Oc2ccccc2)c1 (optimized conformer: 104.66568586881617 kcal/mol)

>  <smiles>  (14) 
COc1cc(S(=O)(=O)N=c2[nH]nc(C)s2)ccc1NC(=O)Cc1cccc(Oc2ccccc2)c1

>  <score_type>  (14) 
oracle

>  <origin>  (14) 
adgpu

>  <m_score__min__energy>  (14) 
-12.539999999999999

>  <m_primary>  (14) 
energy

$$$$
14:0
     RDKit          3D

 61 64  0  0  0  0  0  0  0  0999 V2000
   -0.9820   22.8840  -28.8050 O   0  0  0  0  0  0  0  0  0  0  0  0
   -1.8810   23.6000  -29.3220 C   0  0  0  0  0  0  0  0  0  0  0  0
   -2.5470   23.1240  -30.4960 N   0  0  0  0  0  0  0  0  0  0  0  0
   -3.9490   23.2540  -30.7710 C   0  0  0  0  0  0  0  0  0  0  0  0
   -4.6800   22.1080  -31.1050 C   0  0  0  0  0  0  0  0  0  0  0  0
   -6.0470   22.1940  -31.4050 C   0  0  0  0  0  0  0  0  0  0  0  0
   -6.9590   20.7420  -31.8240 S   0  0  0  0  0  0  0  0  0  0  0  0
   -7.5480   20.9060  -33.1980 O   0  0  0  0  0  0  0  0  0  0  0  0
   -8.0920   20.5690  -30.8510 O   0  0  0  0  0  0  0  0  0  0  0  0
   -5.9480   19.3150  -31.8000 N   0  0  0  0  0  0  0  0  0  0  0  0
   -5.0780   19.2790  -32.9900 C   0  0  0  0  0  0  0  0  0  0  0  0
   -4.5790   17.8480  -33.2540 C   0  0  0  0  0  0  0  0  0  0  0  0
   -5.6190   16.9070  -33.4890 O   0  0  0  0  0  0  0  0  0  0  0  0
   -6.8730   17.2870  -32.9380 C   0  0  0  0  0  0  0  0  0  0  0  0
   -6.7460   18.0810  -31.6260 C   0  0  0  0  0  0  0  0  0  0  0  0
   -6.6820   23.4420  -31.3710 C   0  0  0  0  0  0  0  0  0  0  0  0
   -5.9530   24.5950  -31.0720 C   0  0  0  0  0  0  0  0  0  0  0  0
   -4.5870   24.5110  -30.7870 C   0  0  0  0  0  0  0  0  0  0  0  0
   -3.8710   25.6800  -30.5490 O   0  0  0  0  0  0  0  0  0  0  0  0
   -2.2450   24.8590  -28.7270 N   0  0  0  0  0  0  0  0  0  0  0  0
   -1.6230   25.4040  -27.5510 C   0  0  0  0  0  0  0  0  0  0  0  0
   -2.0290   25.0230  -26.2600 C   0  0  0  0  0  0  0  0  0  0  0  0
   -1.4220   25.5870  -25.1340 C   0  0  0  0  0  0  0  0  0  0  0  0
   -0.4150   26.5500  -25.2810 C   0  0  0  0  0  0  0  0  0  0  0  0
    0.3410   27.2670  -23.8560 S   0  0  0  0  0  0  0  0  0  0  0  0
    0.5840   28.7290  -24.1110 O   0  0  0  0  0  0  0  0  0  0  0  0
   -0.5950   27.1480  -22.6840 O   0  0  0  0  0  0  0  0  0  0  0  0
    1.8560   26.4880  -23.4710 N   0  0  0  0  0  0  0  0  0  0  0  0
    2.0950   25.3530  -24.3860 C   0  0  0  0  0  0  0  0  0  0  0  0
    3.5360   24.8050  -24.2830 C   0  0  0  0  0  0  0  0  0  0  0  0
    4.2430   25.3030  -23.0180 C   0  0  0  0  0  0  0  0  0  0  0  0
    4.2490   26.8400  -22.9570 C   0  0  0  0  0  0  0  0  0  0  0  0
    2.9620   27.4570  -23.5350 C   0  0  0  0  0  0  0  0  0  0  0  0
   -0.0250   26.9490  -26.5660 C   0  0  0  0  0  0  0  0  0  0  0  0
   -0.6310   26.3860  -27.6930 C   0  0  0  0  0  0  0  0  0  0  0  0
   -4.1770   21.1301  -31.1324 H   0  0  0  0  0  0  0  0  0  0  0  0
   -5.6463   19.6305  -33.8638 H   0  0  0  0  0  0  0  0  0  0  0  0
   -4.2092   19.9302  -32.8134 H   0  0  0  0  0  0  0  0  0  0  0  0
   -3.9240   17.8675  -34.1375 H   0  0  0  0  0  0  0  0  0  0  0  0
   -4.0536   17.5212  -32.3445 H   0  0  0  0  0  0  0  0  0  0  0  0
   -7.4030   17.9102  -33.6733 H   0  0  0  0  0  0  0  0  0  0  0  0
   -7.4211   16.3617  -32.7070 H   0  0  0  0  0  0  0  0  0  0  0  0
   -7.7528   18.3552  -31.2780 H   0  0  0  0  0  0  0  0  0  0  0  0
   -6.2310   17.4440  -30.8918 H   0  0  0  0  0  0  0  0  0  0  0  0
   -7.7594   23.5142  -31.5807 H   0  0  0  0  0  0  0  0  0  0  0  0
   -6.4557   25.5733  -31.0607 H   0  0  0  0  0  0  0  0  0  0  0  0
   -2.9440   25.4580  -29.2180 H   0  0  0  0  0  0  0  0  0  0  0  0
   -2.8282   24.2775  -26.1353 H   0  0  0  0  0  0  0  0  0  0  0  0
   -1.7365   25.2732  -24.1277 H   0  0  0  0  0  0  0  0  0  0  0  0
    1.3914   24.5449  -24.1373 H   0  0  0  0  0  0  0  0  0  0  0  0
    1.9471   25.7149  -25.4142 H   0  0  0  0  0  0  0  0  0  0  0  0
    3.4986   23.7059  -24.2612 H   0  0  0  0  0  0  0  0  0  0  0  0
    4.1021   25.1631  -25.1556 H   0  0  0  0  0  0  0  0  0  0  0  0
    3.7182   24.9102  -22.1346 H   0  0  0  0  0  0  0  0  0  0  0  0
    5.2845   24.9496  -23.0371 H   0  0  0  0  0  0  0  0  0  0  0  0
    4.3488   27.1512  -21.9067 H   0  0  0  0  0  0  0  0  0  0  0  0
    5.0934   27.1958  -23.5656 H   0  0  0  0  0  0  0  0  0  0  0  0
    2.6950   28.3510  -22.9523 H   0  0  0  0  0  0  0  0  0  0  0  0
    3.1375   27.7299  -24.5861 H   0  0  0  0  0  0  0  0  0  0  0  0
    0.7613   27.7084  -26.6887 H   0  0  0  0  0  0  0  0  0  0  0  0
   -0.3280   26.7151  -28.6979 H   0  0  0  0  0  0  0  0  0  0  0  0
  1  2  2  0
  2  3  1  0
  3  4  1  0
  4  5  2  0
  5  6  1  0
  6  7  1  0
  7  8  2  0
  7  9  2  0
  7 10  1  0
 10 11  1  0
 11 12  1  0
 12 13  1  0
 13 14  1  0
 14 15  1  0
  6 16  2  0
 16 17  1  0
 17 18  2  0
 18 19  1  0
  2 20  1  0
 20 21  1  0
 21 22  2  0
 22 23  1  0
 23 24  2  0
 24 25  1  0
 25 26  2  0
 25 27  2  0
 25 28  1  0
 28 29  1  0
 29 30  1  0
 30 31  1  0
 31 32  1  0
 32 33  1  0
 24 34  1  0
 34 35  2  0
 18  4  1  0
 35 21  1  0
 15 10  1  0
 33 28  1  0
  5 36  1  0
 11 37  1  0
 11 38  1  0
 12 39  1  0
 12 40  1  0
 14 41  1  0
 14 42  1  0
 15 43  1  0
 15 44  1  0
 16 45  1  0
 17 46  1  0
 20 47  1  0
 22 48  1  0
 23 49  1  0
 29 50  1  0
 29 51  1  0
 30 52  1  0
 30 53  1  0
 31 54  1  0
 31 55  1  0
 32 56  1  0
 32 57  1  0
 33 58  1  0
 33 59  1  0
 34 60  1  0
 35 61  1  0
M  CHG  2   3  -1  19  -1
M  END
>  <UniqueID>  (15) 
15

>  <SMILES>  (15) 
O=C([N-]c1cc(S(=O)(=O)N2CCOCC2)ccc1[O-])Nc1ccc(S(=O)(=O)N2CCCCC2)cc1

>  <Energy>  (15) 
86.99657628824515

>  <Genealogy>  (15) 
O=C([N-]c1cc(S(=O)(=O)N2CCOCC2)ccc1[O-])Nc1ccc(S(=O)(=O)N2CCCCC2)cc1 (protonated)
O=C([N-]c1cc(S(=O)(=O)N2CCOCC2)ccc1[O-])Nc1ccc(S(=O)(=O)N2CCCCC2)cc1 (3D coordinates assigned)
O=C([N-]c1cc(S(=O)(=O)N2CCOCC2)ccc1[O-])Nc1ccc(S(=O)(=O)N2CCCCC2)cc1 (nonaromatic ring conformer: 86.99657628824515 kcal/mol)

>  <smiles>  (15) 
O=C(Nc1ccc(S(=O)(=O)N2CCCCC2)cc1)Nc1cc(S(=O)(=O)N2CCOCC2)ccc1O

>  <score_type>  (15) 
oracle

>  <origin>  (15) 
adgpu

>  <m_score__min__energy>  (15) 
-13.16

>  <m_primary>  (15) 
energy

$$$$
15:0
     RDKit          3D

 60 63  0  0  0  0  0  0  0  0999 V2000
   -5.0210   16.9800  -32.3610 C   0  0  0  0  0  0  0  0  0  0  0  0
   -4.8610   18.2750  -33.0420 N   0  0  0  0  0  0  0  0  0  0  0  0
   -4.2810   19.2740  -32.1110 C   0  0  0  0  0  0  0  0  0  0  0  0
   -3.6830   20.4680  -32.8640 C   0  0  0  0  0  0  0  0  0  0  0  0
   -2.5310   20.0290  -33.8010 C   0  0  0  0  0  0  0  0  0  0  0  0
   -0.9240   20.3430  -33.0590 S   0  0  0  0  0  0  0  0  0  0  0  0
   -0.3090   21.5630  -33.6840 O   0  0  0  0  0  0  0  0  0  0  0  0
   -0.0140   19.1780  -33.3350 O   0  0  0  0  0  0  0  0  0  0  0  0
   -1.1110   20.6080  -31.3100 C   0  0  0  0  0  0  0  0  0  0  0  0
   -0.5420   19.7020  -30.3870 C   0  0  0  0  0  0  0  0  0  0  0  0
    0.3800   18.2890  -30.8950 Cl  0  0  0  0  0  0  0  0  0  0  0  0
   -0.6750   19.9240  -29.0150 C   0  0  0  0  0  0  0  0  0  0  0  0
   -1.3700   21.0330  -28.5410 C   0  0  0  0  0  0  0  0  0  0  0  0
   -1.9540   21.9400  -29.4370 C   0  0  0  0  0  0  0  0  0  0  0  0
   -2.6420   23.1070  -28.9620 N   0  0  0  0  0  0  0  0  0  0  0  0
   -2.7320   24.3700  -29.6330 C   0  0  0  0  0  0  0  0  0  0  0  0
   -1.9020   25.2720  -29.3460 O   0  0  0  0  0  0  0  0  0  0  0  0
   -3.7490   24.5990  -30.6180 N   0  0  0  0  0  0  0  0  0  0  0  0
   -5.0130   23.9290  -30.7230 C   0  0  0  0  0  0  0  0  0  0  0  0
   -6.0030   24.2180  -29.7790 C   0  0  0  0  0  0  0  0  0  0  0  0
   -7.2450   23.5840  -29.8370 C   0  0  0  0  0  0  0  0  0  0  0  0
   -7.5140   22.6390  -30.8390 C   0  0  0  0  0  0  0  0  0  0  0  0
   -6.5040   22.3000  -31.7620 C   0  0  0  0  0  0  0  0  0  0  0  0
   -5.2630   22.9550  -31.7050 C   0  0  0  0  0  0  0  0  0  0  0  0
   -6.7680   21.3110  -32.8750 C   0  0  0  0  0  0  0  0  0  0  0  0
   -7.8980   20.4050  -32.5870 N   0  0  0  0  0  0  0  0  0  0  0  0
   -7.5200   19.3320  -31.6510 C   0  0  0  0  0  0  0  0  0  0  0  0
   -9.0900   21.1540  -32.1420 C   0  0  0  0  0  0  0  0  0  0  0  0
   -8.8430   21.9310  -30.8410 C   0  0  0  0  0  0  0  0  0  0  0  0
   -1.8010   21.7430  -30.8240 C   0  0  0  0  0  0  0  0  0  0  0  0
   -2.3300   22.6710  -31.7240 O   0  0  0  0  0  0  0  0  0  0  0  0
   -2.6480   18.5450  -34.2090 C   0  0  0  0  0  0  0  0  0  0  0  0
   -4.1200   18.1250  -34.3220 C   0  0  0  0  0  0  0  0  0  0  0  0
   -5.0020   17.1336  -31.2719 H   0  0  0  0  0  0  0  0  0  0  0  0
   -5.9816   16.5294  -32.6511 H   0  0  0  0  0  0  0  0  0  0  0  0
   -4.1989   16.3092  -32.6511 H   0  0  0  0  0  0  0  0  0  0  0  0
   -5.0723   19.6364  -31.4383 H   0  0  0  0  0  0  0  0  0  0  0  0
   -3.4746   18.7870  -31.5431 H   0  0  0  0  0  0  0  0  0  0  0  0
   -4.4721   20.9425  -33.4658 H   0  0  0  0  0  0  0  0  0  0  0  0
   -3.2765   21.1737  -32.1246 H   0  0  0  0  0  0  0  0  0  0  0  0
   -2.6207   20.6379  -34.7127 H   0  0  0  0  0  0  0  0  0  0  0  0
   -0.2266   19.2162  -28.3023 H   0  0  0  0  0  0  0  0  0  0  0  0
   -1.4616   21.1989  -27.4574 H   0  0  0  0  0  0  0  0  0  0  0  0
   -5.8014   24.9511  -28.9841 H   0  0  0  0  0  0  0  0  0  0  0  0
   -8.0178   23.8265  -29.0927 H   0  0  0  0  0  0  0  0  0  0  0  0
   -4.4798   22.7035  -32.4353 H   0  0  0  0  0  0  0  0  0  0  0  0
   -6.9933   21.8706  -33.7948 H   0  0  0  0  0  0  0  0  0  0  0  0
   -5.8672   20.6889  -32.9824 H   0  0  0  0  0  0  0  0  0  0  0  0
   -7.6449   19.6864  -30.6172 H   0  0  0  0  0  0  0  0  0  0  0  0
   -8.1636   18.4558  -31.8185 H   0  0  0  0  0  0  0  0  0  0  0  0
   -6.4693   19.0526  -31.8185 H   0  0  0  0  0  0  0  0  0  0  0  0
   -9.3736   21.8668  -32.9304 H   0  0  0  0  0  0  0  0  0  0  0  0
   -9.8908   20.4249  -31.9495 H   0  0  0  0  0  0  0  0  0  0  0  0
   -9.6413   22.6778  -30.7185 H   0  0  0  0  0  0  0  0  0  0  0  0
   -8.8384   21.2065  -30.0133 H   0  0  0  0  0  0  0  0  0  0  0  0
   -2.8960   23.4590  -31.4320 H   0  0  0  0  0  0  0  0  0  0  0  0
   -2.1555   18.3985  -35.1816 H   0  0  0  0  0  0  0  0  0  0  0  0
   -2.1636   17.9281  -33.4377 H   0  0  0  0  0  0  0  0  0  0  0  0
   -4.6064   18.7502  -35.0852 H   0  0  0  0  0  0  0  0  0  0  0  0
   -4.1407   17.0594  -34.5942 H   0  0  0  0  0  0  0  0  0  0  0  0
  1  2  1  0
  2  3  1  0
  3  4  1  0
  4  5  1  0
  5  6  1  0
  6  7  2  0
  6  8  2  0
  6  9  1  0
  9 10  2  0
 10 11  1  0
 10 12  1  0
 12 13  2  0
 13 14  1  0
 14 15  1  0
 15 16  1  0
 16 17  2  0
 16 18  1  0
 18 19  1  0
 19 20  2  0
 20 21  1  0
 21 22  2  0
 22 23  1  0
 23 24  2  0
 23 25  1  0
 25 26  1  0
 26 27  1  0
 26 28  1  0
 28 29  1  0
 14 30  2  0
 30 31  1  0
  5 32  1  0
 32 33  1  0
 33  2  1  0
 30  9  1  0
 24 19  1  0
 29 22  1  0
  1 34  1  0
  1 35  1  0
  1 36  1  0
  3 37  1  0
  3 38  1  0
  4 39  1  0
  4 40  1  0
  5 41  1  0
 12 42  1  0
 13 43  1  0
 20 44  1  0
 21 45  1  0
 24 46  1  0
 25 47  1  0
 25 48  1  0
 27 49  1  0
 27 50  1  0
 27 51  1  0
 28 52  1  0
 28 53  1  0
 29 54  1  0
 29 55  1  0
 31 56  1  0
 32 57  1  0
 32 58  1  0
 33 59  1  0
 33 60  1  0
M  CHG  2  15  -1  18  -1
M  END
>  <UniqueID>  (16) 
16

>  <SMILES>  (16) 
CN1CCC(S(=O)(=O)c2c(Cl)ccc([N-]C(=O)[N-]c3ccc4c(c3)CN(C)CC4)c2O)CC1

>  <Energy>  (16) 
82.91527676937318

>  <Genealogy>  (16) 
CN1CCC(S(=O)(=O)c2c(Cl)ccc([N-]C(=O)[N-]c3ccc4c(c3)CN(C)CC4)c2O)CC1 (protonated)
CN1CCC(S(=O)(=O)c2c(Cl)ccc([N-]C(=O)[N-]c3ccc4c(c3)CN(C)CC4)c2O)CC1 (3D coordinates assigned)
CN1CCC(S(=O)(=O)c2c(Cl)ccc([N-]C(=O)[N-]c3ccc4c(c3)CN(C)CC4)c2O)CC1 (nonaromatic ring conformer: 82.91527676937318 kcal/mol)

>  <smiles>  (16) 
CN1CCC(S(=O)(=O)c2c(Cl)ccc(NC(=O)Nc3ccc4c(c3)CN(C)CC4)c2O)CC1

>  <score_type>  (16) 
oracle

>  <origin>  (16) 
adgpu

>  <m_score__min__energy>  (16) 
-14.68

>  <m_primary>  (16) 
energy

$$$$
16:0
     RDKit          3D

 57 59  0  0  0  0  0  0  0  0999 V2000
   -0.8980   21.5290  -33.8390 C   0  0  0  0  0  0  0  0  0  0  0  0
   -2.3330   21.2460  -33.7090 N   0  0  0  0  0  0  0  0  0  0  0  0
   -2.5940   20.0010  -33.0160 C   0  0  0  0  0  0  0  0  0  0  0  0
   -1.9310   18.5990  -33.5610 S   0  0  0  0  0  0  0  0  0  0  0  0
   -3.6750   19.8980  -32.0710 N   0  0  0  0  0  0  0  0  0  0  0  0
   -4.6410   20.9350  -31.8630 C   0  0  0  0  0  0  0  0  0  0  0  0
   -4.2910   22.0810  -31.1350 C   0  0  0  0  0  0  0  0  0  0  0  0
   -5.2480   23.0690  -30.8630 C   0  0  0  0  0  0  0  0  0  0  0  0
   -4.7910   24.5280  -29.9770 S   0  0  0  0  0  0  0  0  0  0  0  0
   -3.8650   25.3410  -30.8410 O   0  0  0  0  0  0  0  0  0  0  0  0
   -6.0300   25.3540  -29.7390 O   0  0  0  0  0  0  0  0  0  0  0  0
   -3.9910   24.2130  -28.4460 N   0  0  0  0  0  0  0  0  0  0  0  0
   -2.5660   24.6010  -28.4150 C   0  0  0  0  0  0  0  0  0  0  0  0
   -1.6190   23.4930  -28.9030 C   0  0  0  0  0  0  0  0  0  0  0  0
   -1.9000   22.1740  -28.1870 C   0  0  0  0  0  0  0  0  0  0  0  0
   -3.3630   21.7790  -28.3640 C   0  0  0  0  0  0  0  0  0  0  0  0
   -4.2870   22.8900  -27.8560 C   0  0  0  0  0  0  0  0  0  0  0  0
   -6.5550   22.9140  -31.3410 C   0  0  0  0  0  0  0  0  0  0  0  0
   -6.9160   21.7650  -32.0450 C   0  0  0  0  0  0  0  0  0  0  0  0
   -5.9670   20.7680  -32.3050 C   0  0  0  0  0  0  0  0  0  0  0  0
   -6.3530   19.6000  -33.0430 N   0  0  0  0  0  0  0  0  0  0  0  0
   -7.5680   18.8660  -32.6890 C   0  0  0  0  0  0  0  0  0  0  0  0
   -7.2880   17.3520  -32.6760 C   0  0  0  0  0  0  0  0  0  0  0  0
   -6.3830   16.8800  -33.7580 N   0  0  0  0  0  0  0  0  0  0  0  0
   -5.1390   16.3050  -33.2200 C   0  0  0  0  0  0  0  0  0  0  0  0
   -6.1110   17.8860  -34.8080 C   0  0  0  0  0  0  0  0  0  0  0  0
   -5.5770   19.2020  -34.2200 C   0  0  0  0  0  0  0  0  0  0  0  0
   -0.4496   21.6174  -32.8384 H   0  0  0  0  0  0  0  0  0  0  0  0
   -0.4109   20.7096  -34.3880 H   0  0  0  0  0  0  0  0  0  0  0  0
   -0.7585   22.4720  -34.3880 H   0  0  0  0  0  0  0  0  0  0  0  0
   -2.7550   22.0450  -33.1850 H   0  0  0  0  0  0  0  0  0  0  0  0
   -2.7690   21.2000  -34.6600 H   0  0  0  0  0  0  0  0  0  0  0  0
   -3.9120   18.9530  -31.6900 H   0  0  0  0  0  0  0  0  0  0  0  0
   -3.2591   22.2058  -30.7750 H   0  0  0  0  0  0  0  0  0  0  0  0
   -2.4310   25.4829  -29.0584 H   0  0  0  0  0  0  0  0  0  0  0  0
   -2.3093   24.8076  -27.3655 H   0  0  0  0  0  0  0  0  0  0  0  0
   -1.7592   23.3514  -29.9848 H   0  0  0  0  0  0  0  0  0  0  0  0
   -0.5846   23.7960  -28.6833 H   0  0  0  0  0  0  0  0  0  0  0  0
   -1.2577   21.3873  -28.6095 H   0  0  0  0  0  0  0  0  0  0  0  0
   -1.6887   22.2960  -27.1144 H   0  0  0  0  0  0  0  0  0  0  0  0
   -3.5631   21.6022  -29.4311 H   0  0  0  0  0  0  0  0  0  0  0  0
   -3.5560   20.8645  -27.7839 H   0  0  0  0  0  0  0  0  0  0  0  0
   -5.3246   22.6216  -28.1038 H   0  0  0  0  0  0  0  0  0  0  0  0
   -4.1283   22.9746  -26.7708 H   0  0  0  0  0  0  0  0  0  0  0  0
   -7.3008   23.7022  -31.1605 H   0  0  0  0  0  0  0  0  0  0  0  0
   -7.9506   21.6414  -32.3975 H   0  0  0  0  0  0  0  0  0  0  0  0
   -7.9059   19.1819  -31.6910 H   0  0  0  0  0  0  0  0  0  0  0  0
   -8.3480   19.0810  -33.4342 H   0  0  0  0  0  0  0  0  0  0  0  0
   -6.8295   17.0962  -31.7094 H   0  0  0  0  0  0  0  0  0  0  0  0
   -8.2554   16.8548  -32.8399 H   0  0  0  0  0  0  0  0  0  0  0  0
   -5.1732   16.3208  -32.1206 H   0  0  0  0  0  0  0  0  0  0  0  0
   -5.0340   15.2670  -33.5687 H   0  0  0  0  0  0  0  0  0  0  0  0
   -4.2804   16.8976  -33.5687 H   0  0  0  0  0  0  0  0  0  0  0  0
   -5.3633   17.4790  -35.5046 H   0  0  0  0  0  0  0  0  0  0  0  0
   -7.0580   18.1037  -35.3235 H   0  0  0  0  0  0  0  0  0  0  0  0
   -4.5250   19.0660  -33.9290 H   0  0  0  0  0  0  0  0  0  0  0  0
   -5.6652   19.9897  -34.9827 H   0  0  0  0  0  0  0  0  0  0  0  0
  1  2  1  0
  2  3  1  0
  3  4  2  0
  3  5  1  0
  5  6  1  0
  6  7  2  0
  7  8  1  0
  8  9  1  0
  9 10  2  0
  9 11  2  0
  9 12  1  0
 12 13  1  0
 13 14  1  0
 14 15  1  0
 15 16  1  0
 16 17  1  0
  8 18  2  0
 18 19  1  0
 19 20  2  0
 20 21  1  0
 21 22  1  0
 22 23  1  0
 23 24  1  0
 24 25  1  0
 24 26  1  0
 26 27  1  0
 20  6  1  0
 27 21  1  0
 17 12  1  0
  1 28  1  0
  1 29  1  0
  1 30  1  0
  2 31  1  0
  2 32  1  0
  5 33  1  0
  7 34  1  0
 13 35  1  0
 13 36  1  0
 14 37  1  0
 14 38  1  0
 15 39  1  0
 15 40  1  0
 16 41  1  0
 16 42  1  0
 17 43  1  0
 17 44  1  0
 18 45  1  0
 19 46  1  0
 22 47  1  0
 22 48  1  0
 23 49  1  0
 23 50  1  0
 25 51  1  0
 25 52  1  0
 25 53  1  0
 26 54  1  0
 26 55  1  0
 27 56  1  0
 27 57  1  0
M  CHG  1   2   1
M  END
>  <UniqueID>  (17) 
17

>  <SMILES>  (17) 
C[NH2+]C(=S)Nc1cc(S(=O)(=O)N2CCCCC2)ccc1N1CCN(C)CC1

>  <Energy>  (17) 
76.99097353287141

>  <Genealogy>  (17) 
C[NH2+]C(=S)Nc1cc(S(=O)(=O)N2CCCCC2)ccc1N1CCN(C)CC1 (protonated)
C[NH2+]C(=S)Nc1cc(S(=O)(=O)N2CCCCC2)ccc1N1CCN(C)CC1 (3D coordinates assigned)
C[NH2+]C(=S)Nc1cc(S(=O)(=O)N2CCCCC2)ccc1N1CCN(C)CC1 (nonaromatic ring conformer: 76.99097353287141 kcal/mol)

>  <smiles>  (17) 
CNC(=S)Nc1cc(S(=O)(=O)N2CCCCC2)ccc1N1CCN(C)CC1

>  <score_type>  (17) 
oracle

>  <origin>  (17) 
adgpu

>  <m_score__min__energy>  (17) 
-8.7300000000000004

>  <m_primary>  (17) 
energy

$$$$
17:0
     RDKit          3D

 57 61  0  0  0  0  0  0  0  0999 V2000
   -3.4690   25.2960  -30.3990 O   0  0  0  0  0  0  0  0  0  0  0  0
   -3.4090   23.9290  -30.1540 C   0  0  0  0  0  0  0  0  0  0  0  0
   -3.2160   23.0450  -31.2210 C   0  0  0  0  0  0  0  0  0  0  0  0
   -3.1550   21.6560  -30.9980 C   0  0  0  0  0  0  0  0  0  0  0  0
   -2.9540   20.7180  -32.1290 C   0  0  0  0  0  0  0  0  0  0  0  0
   -2.0880   21.0520  -33.1860 C   0  0  0  0  0  0  0  0  0  0  0  0
   -1.9060   20.1740  -34.2550 C   0  0  0  0  0  0  0  0  0  0  0  0
   -2.5890   18.9560  -34.2870 C   0  0  0  0  0  0  0  0  0  0  0  0
   -3.4540   18.6020  -33.2410 C   0  0  0  0  0  0  0  0  0  0  0  0
   -4.2170   17.3000  -33.3000 C   0  0  0  0  0  0  0  0  0  0  0  0
   -5.4570   17.4210  -34.0900 N   0  0  0  0  0  0  0  0  0  0  0  0
   -6.5050   18.2300  -33.4340 C   0  0  0  0  0  0  0  0  0  0  0  0
   -6.5190   19.7050  -33.8870 C   0  0  0  0  0  0  0  0  0  0  0  0
   -7.0360   20.6280  -32.8110 C   0  0  0  0  0  0  0  0  0  0  0  0
   -8.2880   20.3960  -32.2150 C   0  0  0  0  0  0  0  0  0  0  0  0
   -8.7690   21.2640  -31.2310 C   0  0  0  0  0  0  0  0  0  0  0  0
   -8.0100   22.3690  -30.8360 C   0  0  0  0  0  0  0  0  0  0  0  0
   -6.7670   22.6100  -31.4280 C   0  0  0  0  0  0  0  0  0  0  0  0
   -6.2800   21.7440  -32.4130 C   0  0  0  0  0  0  0  0  0  0  0  0
   -3.6300   19.4850  -32.1640 C   0  0  0  0  0  0  0  0  0  0  0  0
   -3.2890   21.1710  -29.6840 C   0  0  0  0  0  0  0  0  0  0  0  0
   -3.4730   22.0560  -28.6180 C   0  0  0  0  0  0  0  0  0  0  0  0
   -3.5380   23.4330  -28.8480 C   0  0  0  0  0  0  0  0  0  0  0  0
   -3.7800   24.5500  -27.4630 S   0  0  0  0  0  0  0  0  0  0  0  0
   -2.0330   24.9160  -27.3460 C   0  0  0  0  0  0  0  0  0  0  0  0
   -1.5640   26.1200  -26.9270 N   0  0  0  0  0  0  0  0  0  0  0  0
   -0.2360   25.9490  -26.9970 C   0  0  0  0  0  0  0  0  0  0  0  0
    0.7610   26.8670  -26.6740 C   0  0  0  0  0  0  0  0  0  0  0  0
    2.0990   26.4550  -26.8190 C   0  0  0  0  0  0  0  0  0  0  0  0
    2.4000   25.1520  -27.2800 C   0  0  0  0  0  0  0  0  0  0  0  0
    1.3660   24.2520  -27.5980 C   0  0  0  0  0  0  0  0  0  0  0  0
    0.0530   24.6950  -27.4410 C   0  0  0  0  0  0  0  0  0  0  0  0
   -1.0760   24.0100  -27.6730 N   0  0  0  0  0  0  0  0  0  0  0  0
   -3.1110   23.4384  -32.2429 H   0  0  0  0  0  0  0  0  0  0  0  0
   -1.5507   22.0117  -33.1697 H   0  0  0  0  0  0  0  0  0  0  0  0
   -1.2229   20.4417  -35.0746 H   0  0  0  0  0  0  0  0  0  0  0  0
   -2.4479   18.2713  -35.1363 H   0  0  0  0  0  0  0  0  0  0  0  0
   -3.5762   16.5335  -33.7602 H   0  0  0  0  0  0  0  0  0  0  0  0
   -4.4947   17.0223  -32.2725 H   0  0  0  0  0  0  0  0  0  0  0  0
   -5.8200   16.4620  -34.2970 H   0  0  0  0  0  0  0  0  0  0  0  0
   -5.2310   17.8580  -35.0150 H   0  0  0  0  0  0  0  0  0  0  0  0
   -7.4840   17.7854  -33.6660 H   0  0  0  0  0  0  0  0  0  0  0  0
   -6.2891   18.2252  -32.3554 H   0  0  0  0  0  0  0  0  0  0  0  0
   -5.4934   20.0049  -34.1480 H   0  0  0  0  0  0  0  0  0  0  0  0
   -7.1928   19.7855  -34.7527 H   0  0  0  0  0  0  0  0  0  0  0  0
   -8.8905   19.5291  -32.5240 H   0  0  0  0  0  0  0  0  0  0  0  0
   -9.7481   21.0769  -30.7659 H   0  0  0  0  0  0  0  0  0  0  0  0
   -8.3907   23.0488  -30.0595 H   0  0  0  0  0  0  0  0  0  0  0  0
   -6.1710   23.4815  -31.1191 H   0  0  0  0  0  0  0  0  0  0  0  0
   -5.3019   21.9372  -32.8776 H   0  0  0  0  0  0  0  0  0  0  0  0
   -4.3035   19.2098  -31.3390 H   0  0  0  0  0  0  0  0  0  0  0  0
   -3.2487   20.0882  -29.4945 H   0  0  0  0  0  0  0  0  0  0  0  0
   -3.5671   21.6670  -27.5934 H   0  0  0  0  0  0  0  0  0  0  0  0
    0.5114   27.8776  -26.3184 H   0  0  0  0  0  0  0  0  0  0  0  0
    2.9151   27.1501  -26.5725 H   0  0  0  0  0  0  0  0  0  0  0  0
    3.4491   24.8402  -27.3906 H   0  0  0  0  0  0  0  0  0  0  0  0
    1.5855   23.2358  -27.9574 H   0  0  0  0  0  0  0  0  0  0  0  0
  1  2  1  0
  2  3  2  0
  3  4  1  0
  4  5  1  0
  5  6  2  0
  6  7  1  0
  7  8  2  0
  8  9  1  0
  9 10  1  0
 10 11  1  0
 11 12  1  0
 12 13  1  0
 13 14  1  0
 14 15  2  0
 15 16  1  0
 16 17  2  0
 17 18  1  0
 18 19  2  0
  9 20  2  0
  4 21  2  0
 21 22  1  0
 22 23  2  0
 23 24  1  0
 24 25  1  0
 25 26  2  0
 26 27  1  0
 27 28  2  0
 28 29  1  0
 29 30  2  0
 30 31  1  0
 31 32  2  0
 32 33  1  0
 23  2  1  0
 33 25  1  0
 20  5  1  0
 32 27  1  0
 19 14  1  0
  3 34  1  0
  6 35  1  0
  7 36  1  0
  8 37  1  0
 10 38  1  0
 10 39  1  0
 11 40  1  0
 11 41  1  0
 12 42  1  0
 12 43  1  0
 13 44  1  0
 13 45  1  0
 15 46  1  0
 16 47  1  0
 17 48  1  0
 18 49  1  0
 19 50  1  0
 20 51  1  0
 21 52  1  0
 22 53  1  0
 28 54  1  0
 29 55  1  0
 30 56  1  0
 31 57  1  0
M  CHG  3   1  -1  11   1  33  -1
M  END
>  <UniqueID>  (18) 
18

>  <SMILES>  (18) 
[O-]c1cc(-c2cccc(C[NH2+]CCc3ccccc3)c2)ccc1Sc1nc2ccccc2[n-]1

>  <Energy>  (18) 
99.25692674005995

>  <Genealogy>  (18) 
[O-]c1cc(-c2cccc(C[NH2+]CCc3ccccc3)c2)ccc1Sc1nc2ccccc2[n-]1 (protonated)
[O-]c1cc(-c2cccc(C[NH2+]CCc3ccccc3)c2)ccc1Sc1nc2ccccc2[n-]1 (3D coordinates assigned)
[O-]c1cc(-c2cccc(C[NH2+]CCc3ccccc3)c2)ccc1Sc1nc2ccccc2[n-]1 (optimized conformer: 99.25692674005995 kcal/mol)

>  <smiles>  (18) 
Oc1cc(-c2cccc(CNCCc3ccccc3)c2)ccc1Sc1nc2ccccc2[nH]1

>  <score_type>  (18) 
oracle

>  <origin>  (18) 
adgpu

>  <m_score__min__energy>  (18) 
-12.77

>  <m_primary>  (18) 
energy

$$$$
18:0
     RDKit          3D

 29 31  0  0  0  0  0  0  0  0999 V2000
   -6.4260   19.6800  -33.7170 O   0  0  0  0  0  0  0  0  0  0  0  0
   -6.6910   20.7410  -32.8600 C   0  0  0  0  0  0  0  0  0  0  0  0
   -5.6270   21.4560  -32.3000 C   0  0  0  0  0  0  0  0  0  0  0  0
   -5.8680   22.5350  -31.4280 C   0  0  0  0  0  0  0  0  0  0  0  0
   -4.7510   23.3040  -30.8240 C   0  0  0  0  0  0  0  0  0  0  0  0
   -3.7040   22.8040  -30.0700 C   0  0  0  0  0  0  0  0  0  0  0  0
   -2.9440   23.9180  -29.7610 C   0  0  0  0  0  0  0  0  0  0  0  0
   -1.6740   23.9550  -28.9960 C   0  0  0  0  0  0  0  0  0  0  0  0
   -1.0460   22.7420  -28.6590 C   0  0  0  0  0  0  0  0  0  0  0  0
    0.1470   22.7330  -27.9280 C   0  0  0  0  0  0  0  0  0  0  0  0
    0.8970   21.2000  -27.5130 Cl  0  0  0  0  0  0  0  0  0  0  0  0
    0.7330   23.9420  -27.5340 C   0  0  0  0  0  0  0  0  0  0  0  0
    1.9170   23.9450  -26.8060 O   0  0  0  0  0  0  0  0  0  0  0  0
    0.1280   25.1530  -27.8750 C   0  0  0  0  0  0  0  0  0  0  0  0
   -1.0630   25.1690  -28.6090 C   0  0  0  0  0  0  0  0  0  0  0  0
   -1.6090   26.3970  -28.9670 O   0  0  0  0  0  0  0  0  0  0  0  0
   -3.5090   25.0090  -30.3160 N   0  0  0  0  0  0  0  0  0  0  0  0
   -4.6060   24.6370  -30.9560 N   0  0  0  0  0  0  0  0  0  0  0  0
   -7.1970   22.8790  -31.1280 C   0  0  0  0  0  0  0  0  0  0  0  0
   -8.2600   22.1640  -31.6880 C   0  0  0  0  0  0  0  0  0  0  0  0
   -8.0140   21.0950  -32.5540 C   0  0  0  0  0  0  0  0  0  0  0  0
   -9.0920   20.3990  -33.0990 O   0  0  0  0  0  0  0  0  0  0  0  0
   -4.5923   21.1726  -32.5432 H   0  0  0  0  0  0  0  0  0  0  0  0
   -3.5182   21.7588  -29.7819 H   0  0  0  0  0  0  0  0  0  0  0  0
   -1.4980   21.7899  -28.9738 H   0  0  0  0  0  0  0  0  0  0  0  0
    0.5909   26.1013  -27.5644 H   0  0  0  0  0  0  0  0  0  0  0  0
   -7.4028   23.7179  -30.4469 H   0  0  0  0  0  0  0  0  0  0  0  0
   -9.2957   22.4444  -31.4456 H   0  0  0  0  0  0  0  0  0  0  0  0
   -8.9770   19.7370  -33.8560 H   0  0  0  0  0  0  0  0  0  0  0  0
  1  2  1  0
  2  3  2  0
  3  4  1  0
  4  5  1  0
  5  6  1  0
  6  7  2  0
  7  8  1  0
  8  9  2  0
  9 10  1  0
 10 11  1  0
 10 12  2  0
 12 13  1  0
 12 14  1  0
 14 15  2  0
 15 16  1  0
  7 17  1  0
 17 18  1  0
  4 19  2  0
 19 20  1  0
 20 21  2  0
 21 22  1  0
 21  2  1  0
 18  5  2  0
 15  8  1  0
  3 23  1  0
  6 24  1  0
  9 25  1  0
 14 26  1  0
 19 27  1  0
 20 28  1  0
 22 29  1  0
M  CHG  4   1  -1  13  -1  16  -1  17  -1
M  END
>  <UniqueID>  (19) 
19

>  <SMILES>  (19) 
[O-]c1cc(-c2cc(-c3cc(Cl)c([O-])cc3[O-])[n-]n2)ccc1O

>  <Energy>  (19) 
67.755667049093

>  <Genealogy>  (19) 
[O-]c1cc(-c2cc(-c3cc(Cl)c([O-])cc3[O-])[n-]n2)ccc1O (protonated)
[O-]c1cc(-c2cc(-c3cc(Cl)c([O-])cc3[O-])[n-]n2)ccc1O (3D coordinates assigned)
[O-]c1cc(-c2cc(-c3cc(Cl)c([O-])cc3[O-])[n-]n2)ccc1O (optimized conformer: 67.755667049093 kcal/mol)

>  <smiles>  (19) 
Oc1ccc(-c2cc(-c3cc(Cl)c(O)cc3O)[nH]n2)cc1O

>  <score_type>  (19) 
oracle

>  <origin>  (19) 
adgpu

>  <m_score__min__energy>  (19) 
-12.51

>  <m_primary>  (19) 
energy

$$$$
19:0
     RDKit          3D

 49 51  0  0  0  0  0  0  0  0999 V2000
   -8.9140   19.1260  -32.3640 C   0  0  0  0  0  0  0  0  0  0  0  0
   -7.9240   20.2590  -32.2870 C   0  0  0  0  0  0  0  0  0  0  0  0
   -8.3200   21.4630  -31.6790 C   0  0  0  0  0  0  0  0  0  0  0  0
   -7.4320   22.5350  -31.5710 C   0  0  0  0  0  0  0  0  0  0  0  0
   -6.1300   22.4210  -32.0730 C   0  0  0  0  0  0  0  0  0  0  0  0
   -5.1700   23.4730  -31.9380 N   0  0  0  0  0  0  0  0  0  0  0  0
   -4.2490   23.8330  -30.5110 S   0  0  0  0  0  0  0  0  0  0  0  0
   -3.8620   25.2850  -30.5480 O   0  0  0  0  0  0  0  0  0  0  0  0
   -5.0390   23.5780  -29.2600 O   0  0  0  0  0  0  0  0  0  0  0  0
   -2.8090   22.7990  -30.5010 C   0  0  0  0  0  0  0  0  0  0  0  0
   -2.8220   21.6100  -31.2520 C   0  0  0  0  0  0  0  0  0  0  0  0
   -1.7430   20.7260  -31.2020 C   0  0  0  0  0  0  0  0  0  0  0  0
   -0.6360   21.0160  -30.4020 C   0  0  0  0  0  0  0  0  0  0  0  0
    0.4090   20.1540  -30.3550 F   0  0  0  0  0  0  0  0  0  0  0  0
   -0.6000   22.1960  -29.6590 C   0  0  0  0  0  0  0  0  0  0  0  0
   -1.6760   23.1010  -29.7010 C   0  0  0  0  0  0  0  0  0  0  0  0
   -1.5800   24.3360  -28.8940 C   0  0  0  0  0  0  0  0  0  0  0  0
   -2.7520   24.9210  -28.3260 N   0  0  0  0  0  0  0  0  0  0  0  0
   -0.4590   24.8720  -28.6900 O   0  0  0  0  0  0  0  0  0  0  0  0
   -5.7480   21.2530  -32.7370 C   0  0  0  0  0  0  0  0  0  0  0  0
   -6.6260   20.1650  -32.8510 C   0  0  0  0  0  0  0  0  0  0  0  0
   -6.0540   18.6940  -33.6610 S   0  0  0  0  0  0  0  0  0  0  0  0
   -6.9330   17.5320  -33.2910 O   0  0  0  0  0  0  0  0  0  0  0  0
   -6.1370   18.9020  -35.1480 O   0  0  0  0  0  0  0  0  0  0  0  0
   -4.4060   18.3380  -33.2070 N   0  0  0  0  0  0  0  0  0  0  0  0
   -3.4830   19.0160  -34.1290 C   0  0  0  0  0  0  0  0  0  0  0  0
   -2.0230   18.7090  -33.7350 C   0  0  0  0  0  0  0  0  0  0  0  0
   -1.9320   17.6990  -32.7420 O   0  0  0  0  0  0  0  0  0  0  0  0
   -2.6690   16.5620  -33.1490 C   0  0  0  0  0  0  0  0  0  0  0  0
   -4.1750   16.8820  -33.2370 C   0  0  0  0  0  0  0  0  0  0  0  0
   -9.1898   18.8103  -31.3470 H   0  0  0  0  0  0  0  0  0  0  0  0
   -9.8138   19.4612  -32.9006 H   0  0  0  0  0  0  0  0  0  0  0  0
   -8.4612   18.2792  -32.9006 H   0  0  0  0  0  0  0  0  0  0  0  0
   -9.3417   21.5617  -31.2836 H   0  0  0  0  0  0  0  0  0  0  0  0
   -7.7557   23.4703  -31.0909 H   0  0  0  0  0  0  0  0  0  0  0  0
   -3.6905   21.3745  -31.8846 H   0  0  0  0  0  0  0  0  0  0  0  0
   -1.7648   19.7991  -31.7940 H   0  0  0  0  0  0  0  0  0  0  0  0
    0.2774   22.4207  -29.0348 H   0  0  0  0  0  0  0  0  0  0  0  0
   -2.6830   25.8000  -27.7680 H   0  0  0  0  0  0  0  0  0  0  0  0
   -3.6960   24.5070  -28.5000 H   0  0  0  0  0  0  0  0  0  0  0  0
   -4.7424   21.1853  -33.1776 H   0  0  0  0  0  0  0  0  0  0  0  0
   -3.6660   18.6611  -35.1540 H   0  0  0  0  0  0  0  0  0  0  0  0
   -3.6510   20.1017  -34.0745 H   0  0  0  0  0  0  0  0  0  0  0  0
   -1.4783   18.3745  -34.6302 H   0  0  0  0  0  0  0  0  0  0  0  0
   -1.5872   19.6292  -33.3187 H   0  0  0  0  0  0  0  0  0  0  0  0
   -2.3120   16.2368  -34.1373 H   0  0  0  0  0  0  0  0  0  0  0  0
   -2.5230   15.7650  -32.4051 H   0  0  0  0  0  0  0  0  0  0  0  0
   -4.5758   16.4730  -34.1762 H   0  0  0  0  0  0  0  0  0  0  0  0
   -4.6820   16.4278  -32.3729 H   0  0  0  0  0  0  0  0  0  0  0  0
  1  2  1  0
  2  3  2  0
  3  4  1  0
  4  5  2  0
  5  6  1  0
  6  7  1  0
  7  8  2  0
  7  9  2  0
  7 10  1  0
 10 11  2  0
 11 12  1  0
 12 13  2  0
 13 14  1  0
 13 15  1  0
 15 16  2  0
 16 17  1  0
 17 18  1  0
 17 19  2  0
  5 20  1  0
 20 21  2  0
 21 22  1  0
 22 23  2  0
 22 24  2  0
 22 25  1  0
 25 26  1  0
 26 27  1  0
 27 28  1  0
 28 29  1  0
 29 30  1  0
 21  2  1  0
 30 25  1  0
 16 10  1  0
  1 31  1  0
  1 32  1  0
  1 33  1  0
  3 34  1  0
  4 35  1  0
 11 36  1  0
 12 37  1  0
 15 38  1  0
 18 39  1  0
 18 40  1  0
 20 41  1  0
 26 42  1  0
 26 43  1  0
 27 44  1  0
 27 45  1  0
 29 46  1  0
 29 47  1  0
 30 48  1  0
 30 49  1  0
M  CHG  1   6  -1
M  END
>  <UniqueID>  (20) 
20

>  <SMILES>  (20) 
Cc1ccc([N-]S(=O)(=O)c2ccc(F)cc2C(N)=O)cc1S(=O)(=O)N1CCOCC1

>  <Energy>  (20) 
70.34741420636216

>  <Genealogy>  (20) 
Cc1ccc([N-]S(=O)(=O)c2ccc(F)cc2C(N)=O)cc1S(=O)(=O)N1CCOCC1 (protonated)
Cc1ccc([N-]S(=O)(=O)c2ccc(F)cc2C(N)=O)cc1S(=O)(=O)N1CCOCC1 (3D coordinates assigned)
Cc1ccc([N-]S(=O)(=O)c2ccc(F)cc2C(N)=O)cc1S(=O)(=O)N1CCOCC1 (nonaromatic ring conformer: 70.34741420636216 kcal/mol)

>  <smiles>  (20) 
Cc1ccc(NS(=O)(=O)c2ccc(F)cc2C(N)=O)cc1S(=O)(=O)N1CCOCC1

>  <score_type>  (20) 
oracle

>  <origin>  (20) 
adgpu

>  <m_score__min__energy>  (20) 
-10.31

>  <m_primary>  (20) 
energy

$$$$
20:0
     RDKit          3D

 62 65  0  0  0  0  0  0  0  0999 V2000
   -0.3780   15.6550  -32.9900 C   0  0  0  0  0  0  0  0  0  0  0  0
    0.3880   16.7150  -33.7300 C   0  0  0  0  0  0  0  0  0  0  0  0
    1.3440   17.2270  -33.1690 O   0  0  0  0  0  0  0  0  0  0  0  0
    0.0060   17.1210  -35.0770 N   0  0  2  0  0  0  0  0  0  0  0  0
    0.8940   18.1610  -35.6470 C   0  0  0  0  0  0  0  0  0  0  0  0
    0.8610   19.5140  -34.9260 C   0  0  0  0  0  0  0  0  0  0  0  0
   -0.4090   20.1440  -35.0360 O   0  0  0  0  0  0  0  0  0  0  0  0
   -1.4900   19.7660  -34.2430 C   0  0  0  0  0  0  0  0  0  0  0  0
   -2.0770   20.7250  -33.4120 C   0  0  0  0  0  0  0  0  0  0  0  0
   -3.1160   20.3730  -32.5430 C   0  0  0  0  0  0  0  0  0  0  0  0
   -3.7230   21.5480  -31.3800 S   0  0  0  0  0  0  0  0  0  0  0  0
   -3.8840   20.9010  -30.0340 O   0  0  0  0  0  0  0  0  0  0  0  0
   -2.7420   22.6810  -31.2420 O   0  0  0  0  0  0  0  0  0  0  0  0
   -5.2660   22.1460  -31.9240 N   0  0  0  0  0  0  0  0  0  0  0  0
   -5.3690   23.5390  -32.3680 C   0  0  0  0  0  0  0  0  0  0  0  0
   -5.3380   24.4610  -31.1910 C   0  0  0  0  0  0  0  0  0  0  0  0
   -6.4220   24.8340  -30.6680 O   0  0  0  0  0  0  0  0  0  0  0  0
   -4.0810   24.9620  -30.7150 N   0  0  0  0  0  0  0  0  0  0  0  0
   -3.4670   24.6560  -29.4540 C   0  0  0  0  0  0  0  0  0  0  0  0
   -4.2800   24.2320  -28.3980 C   0  0  0  0  0  0  0  0  0  0  0  0
   -3.7200   23.9210  -27.1550 C   0  0  0  0  0  0  0  0  0  0  0  0
   -2.3450   24.0450  -26.9540 C   0  0  0  0  0  0  0  0  0  0  0  0
   -1.5270   24.4950  -27.9930 C   0  0  0  0  0  0  0  0  0  0  0  0
   -0.1940   24.6330  -27.7930 F   0  0  0  0  0  0  0  0  0  0  0  0
   -2.0840   24.8110  -29.2370 C   0  0  0  0  0  0  0  0  0  0  0  0
   -6.4480   21.3320  -31.8180 C   0  0  0  0  0  0  0  0  0  0  0  0
   -7.6320   21.8670  -31.2830 C   0  0  0  0  0  0  0  0  0  0  0  0
   -8.7850   21.0860  -31.2030 C   0  0  0  0  0  0  0  0  0  0  0  0
   -8.7740   19.7710  -31.6700 C   0  0  0  0  0  0  0  0  0  0  0  0
   -7.6080   19.2310  -32.2310 C   0  0  0  0  0  0  0  0  0  0  0  0
   -7.5850   17.8110  -32.7090 C   0  0  0  0  0  0  0  0  0  0  0  0
   -6.4430   20.0100  -32.2890 C   0  0  0  0  0  0  0  0  0  0  0  0
   -3.5990   19.0580  -32.5430 C   0  0  0  0  0  0  0  0  0  0  0  0
   -3.0410   18.1050  -33.3970 C   0  0  0  0  0  0  0  0  0  0  0  0
   -1.9780   18.4460  -34.2510 C   0  0  0  0  0  0  0  0  0  0  0  0
   -1.4400   17.4190  -35.2240 C   0  0  0  0  0  0  0  0  0  0  0  0
   -0.2658   15.8103  -31.9068 H   0  0  0  0  0  0  0  0  0  0  0  0
   -1.4424   15.7154  -33.2607 H   0  0  0  0  0  0  0  0  0  0  0  0
    0.0135   14.6633  -33.2607 H   0  0  0  0  0  0  0  0  0  0  0  0
    0.1590   16.2920  -35.6980 H   0  0  0  0  0  0  0  0  0  0  0  0
    1.9264   17.7827  -35.6137 H   0  0  0  0  0  0  0  0  0  0  0  0
    0.5280   18.3495  -36.6670 H   0  0  0  0  0  0  0  0  0  0  0  0
    1.0878   19.3550  -33.8614 H   0  0  0  0  0  0  0  0  0  0  0  0
    1.6080   20.1693  -35.3977 H   0  0  0  0  0  0  0  0  0  0  0  0
   -1.7192   21.7648  -33.4415 H   0  0  0  0  0  0  0  0  0  0  0  0
   -4.5247   23.7714  -33.0336 H   0  0  0  0  0  0  0  0  0  0  0  0
   -6.3195   23.6748  -32.9048 H   0  0  0  0  0  0  0  0  0  0  0  0
   -5.3663   24.1426  -28.5461 H   0  0  0  0  0  0  0  0  0  0  0  0
   -4.3655   23.5776  -26.3332 H   0  0  0  0  0  0  0  0  0  0  0  0
   -1.9056   23.7887  -25.9787 H   0  0  0  0  0  0  0  0  0  0  0  0
   -1.4399   25.1816  -30.0480 H   0  0  0  0  0  0  0  0  0  0  0  0
   -7.6498   22.9071  -30.9254 H   0  0  0  0  0  0  0  0  0  0  0  0
   -9.7046   21.5075  -30.7710 H   0  0  0  0  0  0  0  0  0  0  0  0
   -9.6832   19.1560  -31.5977 H   0  0  0  0  0  0  0  0  0  0  0  0
   -7.5740   17.1328  -31.8431 H   0  0  0  0  0  0  0  0  0  0  0  0
   -8.4801   17.6144  -33.3174 H   0  0  0  0  0  0  0  0  0  0  0  0
   -6.6840   17.6435  -33.3174 H   0  0  0  0  0  0  0  0  0  0  0  0
   -5.5196   19.5820  -32.7063 H   0  0  0  0  0  0  0  0  0  0  0  0
   -4.4204   18.7755  -31.8681 H   0  0  0  0  0  0  0  0  0  0  0  0
   -3.4366   17.0786  -33.4016 H   0  0  0  0  0  0  0  0  0  0  0  0
   -1.9990   16.4830  -35.0776 H   0  0  0  0  0  0  0  0  0  0  0  0
   -1.5675   17.8477  -36.2290 H   0  0  0  0  0  0  0  0  0  0  0  0
  1  2  1  0
  2  3  2  0
  2  4  1  0
  4  5  1  0
  5  6  1  0
  6  7  1  0
  7  8  1  0
  8  9  2  0
  9 10  1  0
 10 11  1  0
 11 12  2  0
 11 13  2  0
 11 14  1  0
 14 15  1  0
 15 16  1  0
 16 17  2  0
 16 18  1  0
 18 19  1  0
 19 20  2  0
 20 21  1  0
 21 22  2  0
 22 23  1  0
 23 24  1  0
 23 25  2  0
 14 26  1  0
 26 27  2  0
 27 28  1  0
 28 29  2  0
 29 30  1  0
 30 31  1  0
 30 32  2  0
 10 33  2  0
 33 34  1  0
 34 35  2  0
 35 36  1  0
 36  4  1  0
 35  8  1  0
 25 19  1  0
 32 26  1  0
  1 37  1  0
  1 38  1  0
  1 39  1  0
  4 40  1  6
  5 41  1  0
  5 42  1  0
  6 43  1  0
  6 44  1  0
  9 45  1  0
 15 46  1  0
 15 47  1  0
 20 48  1  0
 21 49  1  0
 22 50  1  0
 25 51  1  0
 27 52  1  0
 28 53  1  0
 29 54  1  0
 31 55  1  0
 31 56  1  0
 31 57  1  0
 32 58  1  0
 33 59  1  0
 34 60  1  0
 36 61  1  0
 36 62  1  0
M  CHG  2   4   1  18  -1
M  END
>  <UniqueID>  (21) 
21

>  <SMILES>  (21) 
CC(=O)[N@@H+]1CCOc2cc(S(=O)(=O)N(CC(=O)[N-]c3cccc(F)c3)c3cccc(C)c3)ccc2C1

>  <Energy>  (21) 
84.18325429083235

>  <Genealogy>  (21) 
CC(=O)[NH+]1CCOc2cc(S(=O)(=O)N(CC(=O)[N-]c3cccc(F)c3)c3cccc(C)c3)ccc2C1 (protonated)
CC(=O)[N@@H+]1CCOc2cc(S(=O)(=O)N(CC(=O)[N-]c3cccc(F)c3)c3cccc(C)c3)ccc2C1 (chirality)
CC(=O)[N@@H+]1CCOc2cc(S(=O)(=O)N(CC(=O)[N-]c3cccc(F)c3)c3cccc(C)c3)ccc2C1 (3D coordinates assigned)
CC(=O)[N@@H+]1CCOc2cc(S(=O)(=O)N(CC(=O)[N-]c3cccc(F)c3)c3cccc(C)c3)ccc2C1 (nonaromatic ring conformer: 84.18325429083235 kcal/mol)

>  <smiles>  (21) 
CC(=O)N1CCOc2cc(S(=O)(=O)N(CC(=O)Nc3cccc(F)c3)c3cccc(C)c3)ccc2C1

>  <score_type>  (21) 
oracle

>  <origin>  (21) 
adgpu

>  <m_score__min__energy>  (21) 
-9.2599999999999998

>  <m_primary>  (21) 
energy

$$$$
21:0
     RDKit          3D

 38 40  0  0  0  0  0  0  0  0999 V2000
   -7.7650   20.0310  -33.2420 N   0  0  0  0  0  0  0  0  0  0  0  0
   -8.0590   21.0840  -32.3200 C   0  0  0  0  0  0  0  0  0  0  0  0
   -9.2400   21.2020  -31.8940 O   0  0  0  0  0  0  0  0  0  0  0  0
   -7.0170   22.0370  -31.8590 C   0  0  0  0  0  0  0  0  0  0  0  0
   -5.8690   21.5560  -31.2050 C   0  0  0  0  0  0  0  0  0  0  0  0
   -4.8710   22.4360  -30.7790 C   0  0  0  0  0  0  0  0  0  0  0  0
   -4.9930   23.8110  -30.9990 C   0  0  0  0  0  0  0  0  0  0  0  0
   -3.9450   24.6760  -30.5420 N   0  0  0  0  0  0  0  0  0  0  0  0
   -2.7840   24.2780  -29.3150 S   0  0  0  0  0  0  0  0  0  0  0  0
   -1.6840   25.3000  -29.3330 O   0  0  0  0  0  0  0  0  0  0  0  0
   -3.4640   24.3070  -27.9740 O   0  0  0  0  0  0  0  0  0  0  0  0
   -2.0900   22.6870  -29.6280 C   0  0  0  0  0  0  0  0  0  0  0  0
   -1.7280   22.3330  -30.9350 C   0  0  0  0  0  0  0  0  0  0  0  0
   -1.2090   21.0620  -31.2060 C   0  0  0  0  0  0  0  0  0  0  0  0
   -0.7840   20.6210  -32.8910 S   0  0  0  0  0  0  0  0  0  0  0  0
   -2.3890   19.8820  -33.2040 C   0  0  0  0  0  0  0  0  0  0  0  0
   -2.5140   18.5300  -33.2080 N   0  0  0  0  0  0  0  0  0  0  0  0
   -3.6890   17.9460  -33.4480 N   0  0  0  0  0  0  0  0  0  0  0  0
   -4.7960   18.6910  -33.7000 C   0  0  0  0  0  0  0  0  0  0  0  0
   -5.8950   18.1270  -33.9340 O   0  0  0  0  0  0  0  0  0  0  0  0
   -4.7080   20.0460  -33.7030 N   0  0  0  0  0  0  0  0  0  0  0  0
   -3.5230   20.6600  -33.4580 C   0  0  0  0  0  0  0  0  0  0  0  0
   -3.4570   21.9170  -33.4660 O   0  0  0  0  0  0  0  0  0  0  0  0
   -1.0230   20.1470  -30.1610 C   0  0  0  0  0  0  0  0  0  0  0  0
   -0.5150   18.9140  -30.4090 F   0  0  0  0  0  0  0  0  0  0  0  0
   -1.3650   20.5040  -28.8540 C   0  0  0  0  0  0  0  0  0  0  0  0
   -1.8970   21.7680  -28.5830 C   0  0  0  0  0  0  0  0  0  0  0  0
   -2.2190   22.0940  -27.3070 F   0  0  0  0  0  0  0  0  0  0  0  0
   -6.1340   24.2990  -31.6580 C   0  0  0  0  0  0  0  0  0  0  0  0
   -7.1340   23.4210  -32.0870 C   0  0  0  0  0  0  0  0  0  0  0  0
   -8.5140   19.3570  -33.5140 H   0  0  0  0  0  0  0  0  0  0  0  0
   -6.8410   19.9520  -33.7190 H   0  0  0  0  0  0  0  0  0  0  0  0
   -5.7556   20.4764  -31.0271 H   0  0  0  0  0  0  0  0  0  0  0  0
   -3.9809   22.0432  -30.2657 H   0  0  0  0  0  0  0  0  0  0  0  0
   -1.8526   23.0585  -31.7524 H   0  0  0  0  0  0  0  0  0  0  0  0
   -1.2148   19.7865  -28.0339 H   0  0  0  0  0  0  0  0  0  0  0  0
   -6.2412   25.3789  -31.8376 H   0  0  0  0  0  0  0  0  0  0  0  0
   -8.0196   23.8151  -32.6070 H   0  0  0  0  0  0  0  0  0  0  0  0
  1  2  1  0
  2  3  2  0
  2  4  1  0
  4  5  2  0
  5  6  1  0
  6  7  2  0
  7  8  1  0
  8  9  1  0
  9 10  2  0
  9 11  2  0
  9 12  1  0
 12 13  2  0
 13 14  1  0
 14 15  1  0
 15 16  1  0
 16 17  2  0
 17 18  1  0
 18 19  1  0
 19 20  2  0
 19 21  1  0
 21 22  1  0
 22 23  2  0
 14 24  2  0
 24 25  1  0
 24 26  1  0
 26 27  2  0
 27 28  1  0
  7 29  1  0
 29 30  2  0
 30  4  1  0
 27 12  1  0
 22 16  1  0
  1 31  1  0
  1 32  1  0
  5 33  1  0
  6 34  1  0
 13 35  1  0
 26 36  1  0
 29 37  1  0
 30 38  1  0
M  CHG  3   8  -1  18  -1  21  -1
M  END
>  <UniqueID>  (22) 
22

>  <SMILES>  (22) 
NC(=O)c1ccc([N-]S(=O)(=O)c2cc(Sc3n[n-]c(=O)[n-]c3=O)c(F)cc2F)cc1

>  <Energy>  (22) 
41.375951436742824

>  <Genealogy>  (22) 
NC(=O)c1ccc([N-]S(=O)(=O)c2cc(Sc3n[n-]c(=O)[n-]c3=O)c(F)cc2F)cc1 (protonated)
NC(=O)c1ccc([N-]S(=O)(=O)c2cc(Sc3n[n-]c(=O)[n-]c3=O)c(F)cc2F)cc1 (3D coordinates assigned)
NC(=O)c1ccc([N-]S(=O)(=O)c2cc(Sc3n[n-]c(=O)[n-]c3=O)c(F)cc2F)cc1 (optimized conformer: 41.375951436742824 kcal/mol)

>  <smiles>  (22) 
NC(=O)c1ccc(NS(=O)(=O)c2cc(Sc3n[nH]c(=O)[nH]c3=O)c(F)cc2F)cc1

>  <score_type>  (22) 
oracle

>  <origin>  (22) 
adgpu

>  <m_score__min__energy>  (22) 
-11.23

>  <m_primary>  (22) 
energy

$$$$
22:0
     RDKit          3D

 59 62  0  0  0  0  0  0  0  0999 V2000
    0.1750   13.6850  -36.3460 C   0  0  0  0  0  0  0  0  0  0  0  0
   -0.8720   14.6120  -35.8040 C   0  0  0  0  0  0  0  0  0  0  0  0
   -2.0710   14.8140  -36.5050 C   0  0  0  0  0  0  0  0  0  0  0  0
   -3.0600   15.6530  -35.9820 C   0  0  0  0  0  0  0  0  0  0  0  0
   -2.8600   16.2960  -34.7520 C   0  0  0  0  0  0  0  0  0  0  0  0
   -4.0940   17.3580  -34.0880 S   0  0  0  0  0  0  0  0  0  0  0  0
   -5.2880   17.4280  -34.9970 O   0  0  0  0  0  0  0  0  0  0  0  0
   -4.5440   16.7430  -32.7920 O   0  0  0  0  0  0  0  0  0  0  0  0
   -3.4710   18.9990  -33.7970 C   0  0  0  0  0  0  0  0  0  0  0  0
   -2.1480   19.2620  -34.1980 C   0  0  0  0  0  0  0  0  0  0  0  0
   -1.5690   20.5190  -34.0110 C   0  0  0  0  0  0  0  0  0  0  0  0
    0.0970   20.8080  -34.5060 S   0  0  0  0  0  0  0  0  0  0  0  0
    1.1620   20.4620  -33.1890 N   0  0  0  0  0  0  0  0  0  0  0  0
    0.4380   19.9250  -35.6740 O   0  0  0  0  0  0  0  0  0  0  0  0
    0.2650   22.2430  -34.9220 O   0  0  0  0  0  0  0  0  0  0  0  0
   -2.3070   21.5340  -33.4030 C   0  0  0  0  0  0  0  0  0  0  0  0
   -3.6180   21.2990  -32.9960 C   0  0  0  0  0  0  0  0  0  0  0  0
   -4.2240   20.0420  -33.1790 C   0  0  0  0  0  0  0  0  0  0  0  0
   -5.8990   19.8590  -32.6080 S   0  0  0  0  0  0  0  0  0  0  0  0
   -5.9520   18.8140  -31.5310 O   0  0  0  0  0  0  0  0  0  0  0  0
   -6.7780   19.3970  -33.7380 O   0  0  0  0  0  0  0  0  0  0  0  0
   -6.5590   21.3860  -32.0390 C   0  0  0  0  0  0  0  0  0  0  0  0
   -7.9350   21.6440  -32.1260 C   0  0  0  0  0  0  0  0  0  0  0  0
   -8.4510   22.8540  -31.6540 C   0  0  0  0  0  0  0  0  0  0  0  0
   -7.5970   23.8130  -31.0990 C   0  0  0  0  0  0  0  0  0  0  0  0
   -6.2190   23.5700  -31.0270 C   0  0  0  0  0  0  0  0  0  0  0  0
   -5.1340   24.7470  -30.2990 S   0  0  0  0  0  0  0  0  0  0  0  0
   -5.3980   26.0980  -30.9050 O   0  0  0  0  0  0  0  0  0  0  0  0
   -5.3670   24.8090  -28.8150 O   0  0  0  0  0  0  0  0  0  0  0  0
   -3.4980   24.2560  -30.6200 N   0  0  0  0  0  0  0  0  0  0  0  0
   -2.8830   23.2280  -30.1120 C   0  0  0  0  0  0  0  0  0  0  0  0
   -3.5010   22.3460  -29.2010 C   0  0  0  0  0  0  0  0  0  0  0  0
   -2.7760   21.2630  -28.6990 C   0  0  0  0  0  0  0  0  0  0  0  0
   -1.4550   21.0610  -29.0960 C   0  0  0  0  0  0  0  0  0  0  0  0
   -0.8710   21.9510  -29.9990 C   0  0  0  0  0  0  0  0  0  0  0  0
   -1.5900   23.0000  -30.4790 N   0  0  0  0  0  0  0  0  0  0  0  0
   -5.7030   22.3570  -31.5030 C   0  0  0  0  0  0  0  0  0  0  0  0
   -1.6780   16.0680  -34.0350 C   0  0  0  0  0  0  0  0  0  0  0  0
   -0.6890   15.2300  -34.5580 C   0  0  0  0  0  0  0  0  0  0  0  0
    0.7116   13.2099  -35.5115 H   0  0  0  0  0  0  0  0  0  0  0  0
   -0.3047   12.9101  -36.9620 H   0  0  0  0  0  0  0  0  0  0  0  0
    0.8860   14.2550  -36.9620 H   0  0  0  0  0  0  0  0  0  0  0  0
   -2.2334   14.3105  -37.4694 H   0  0  0  0  0  0  0  0  0  0  0  0
   -3.9970   15.8089  -36.5367 H   0  0  0  0  0  0  0  0  0  0  0  0
   -1.5581   18.4614  -34.6682 H   0  0  0  0  0  0  0  0  0  0  0  0
    1.3460   19.4340  -33.2080 H   0  0  0  0  0  0  0  0  0  0  0  0
    0.6330   20.6570  -32.3100 H   0  0  0  0  0  0  0  0  0  0  0  0
   -1.8524   22.5230  -33.2444 H   0  0  0  0  0  0  0  0  0  0  0  0
   -4.1902   22.1106  -32.5229 H   0  0  0  0  0  0  0  0  0  0  0  0
   -8.6083   20.8936  -32.5660 H   0  0  0  0  0  0  0  0  0  0  0  0
   -9.5309   23.0527  -31.7190 H   0  0  0  0  0  0  0  0  0  0  0  0
   -8.0081   24.7596  -30.7184 H   0  0  0  0  0  0  0  0  0  0  0  0
   -4.5431   22.5095  -28.8892 H   0  0  0  0  0  0  0  0  0  0  0  0
   -3.2482   20.5681  -27.9890 H   0  0  0  0  0  0  0  0  0  0  0  0
   -0.8796   20.2102  -28.7023 H   0  0  0  0  0  0  0  0  0  0  0  0
    0.1702   21.8036  -30.3219 H   0  0  0  0  0  0  0  0  0  0  0  0
   -4.6207   22.1664  -31.4555 H   0  0  0  0  0  0  0  0  0  0  0  0
   -1.5279   16.5499  -33.0576 H   0  0  0  0  0  0  0  0  0  0  0  0
    0.2366   15.0544  -33.9902 H   0  0  0  0  0  0  0  0  0  0  0  0
  1  2  1  0
  2  3  2  0
  3  4  1  0
  4  5  2  0
  5  6  1  0
  6  7  2  0
  6  8  2  0
  6  9  1  0
  9 10  2  0
 10 11  1  0
 11 12  1  0
 12 13  1  0
 12 14  2  0
 12 15  2  0
 11 16  2  0
 16 17  1  0
 17 18  2  0
 18 19  1  0
 19 20  2  0
 19 21  2  0
 19 22  1  0
 22 23  2  0
 23 24  1  0
 24 25  2  0
 25 26  1  0
 26 27  1  0
 27 28  2  0
 27 29  2  0
 27 30  1  0
 30 31  2  3
 31 32  1  0
 32 33  2  0
 33 34  1  0
 34 35  2  0
 35 36  1  0
 26 37  2  0
  5 38  1  0
 38 39  2  0
 39  2  1  0
 18  9  1  0
 37 22  1  0
 36 31  1  0
  1 40  1  0
  1 41  1  0
  1 42  1  0
  3 43  1  0
  4 44  1  0
 10 45  1  0
 13 46  1  0
 13 47  1  0
 16 48  1  0
 17 49  1  0
 23 50  1  0
 24 51  1  0
 25 52  1  0
 32 53  1  0
 33 54  1  0
 34 55  1  0
 35 56  1  0
 37 57  1  0
 38 58  1  0
 39 59  1  0
M  CHG  1  36  -1
M  END
>  <UniqueID>  (23) 
23

>  <SMILES>  (23) 
Cc1ccc(S(=O)(=O)c2cc(S(N)(=O)=O)ccc2S(=O)(=O)c2cccc(S(=O)(=O)N=c3cccc[n-]3)c2)cc1

>  <Energy>  (23) 
74.83727112342389

>  <Genealogy>  (23) 
Cc1ccc(S(=O)(=O)c2cc(S(N)(=O)=O)ccc2S(=O)(=O)c2cccc(S(=O)(=O)N=c3cccc[n-]3)c2)cc1 (protonated)
Cc1ccc(S(=O)(=O)c2cc(S(N)(=O)=O)ccc2S(=O)(=O)c2cccc(S(=O)(=O)N=c3cccc[n-]3)c2)cc1 (3D coordinates assigned)
Cc1ccc(S(=O)(=O)c2cc(S(N)(=O)=O)ccc2S(=O)(=O)c2cccc(S(=O)(=O)N=c3cccc[n-]3)c2)cc1 (optimized conformer: 74.83727112342389 kcal/mol)

>  <smiles>  (23) 
Cc1ccc(S(=O)(=O)c2cc(S(N)(=O)=O)ccc2S(=O)(=O)c2cccc(S(=O)(=O)N=c3cccc[nH]3)c2)cc1

>  <score_type>  (23) 
oracle

>  <origin>  (23) 
adgpu

>  <m_score__min__energy>  (23) 
-13.31

>  <m_primary>  (23) 
energy

$$$$
23:0
     RDKit          3D

 45 47  0  0  1  0  0  0  0  0999 V2000
   -4.3160   21.7640  -33.1710 O   0  0  0  0  0  0  0  0  0  0  0  0
   -5.4650   21.7390  -32.6570 C   0  0  0  0  0  0  0  0  0  0  0  0
   -6.0910   22.8760  -32.0750 N   0  0  0  0  0  0  0  0  0  0  0  0
   -5.3990   23.6250  -31.2940 C   0  0  0  0  0  0  0  0  0  0  0  0
   -4.0930   23.5500  -30.8790 C   0  0  0  0  0  0  0  0  0  0  0  0
   -3.8470   24.5930  -30.0140 C   0  0  0  0  0  0  0  0  0  0  0  0
   -2.6130   24.9120  -29.3290 N   0  0  0  0  0  0  0  0  0  0  0  0
   -2.3040   24.1360  -28.1730 C   0  0  0  0  0  0  0  0  0  0  0  0
   -2.5930   24.8330  -26.9030 C   0  0  0  0  0  0  0  0  0  0  0  0
   -1.6440   25.8300  -26.4930 N   0  0  0  0  0  0  0  0  0  0  0  0
   -1.2490   25.9810  -25.0850 C   0  0  0  0  0  0  0  0  0  0  0  0
   -0.9540   27.4580  -24.9720 C   0  0  0  0  0  0  0  0  0  0  0  0
   -0.1790   27.7090  -26.2470 C   0  0  0  0  0  0  0  0  0  0  0  0
   -0.9040   26.8010  -27.2040 C   0  0  0  0  0  0  0  0  0  0  0  0
   -0.8680   26.8770  -28.4790 O   0  0  0  0  0  0  0  0  0  0  0  0
   -5.0210   25.2780  -29.9290 N   0  0  0  0  0  0  0  0  0  0  0  0
   -5.9390   24.7090  -30.6840 N   0  0  0  0  0  0  0  0  0  0  0  0
   -6.2680   20.4960  -32.6170 C   0  0  0  0  0  0  0  0  0  0  0  0
   -7.5520   20.6070  -32.1130 C   0  0  0  0  0  0  0  0  0  0  0  0
   -8.4070   19.5090  -32.0300 C   0  0  0  0  0  0  0  0  0  0  0  0
   -7.9180   18.2950  -32.4750 C   0  0  0  0  0  0  0  0  0  0  0  0
   -6.6210   18.1760  -32.9860 C   0  0  0  0  0  0  0  0  0  0  0  0
   -6.1570   16.8380  -33.4480 C   0  0  0  0  0  0  0  0  0  0  0  0
   -7.2390   16.0470  -33.7890 F   0  0  0  0  0  0  0  0  0  0  0  0
   -5.3600   16.9980  -34.5520 F   0  0  0  0  0  0  0  0  0  0  0  0
   -5.5150   16.1550  -32.4120 F   0  0  0  0  0  0  0  0  0  0  0  0
   -5.7820   19.2910  -33.0590 C   0  0  0  0  0  0  0  0  0  0  0  0
   -3.3647   22.7849  -31.1859 H   0  0  0  0  0  0  0  0  0  0  0  0
   -2.0460   25.6830  -29.7340 H   0  0  0  0  0  0  0  0  0  0  0  0
   -2.8977   23.2106  -28.2056 H   0  0  0  0  0  0  0  0  0  0  0  0
   -1.2223   23.9376  -28.1952 H   0  0  0  0  0  0  0  0  0  0  0  0
   -3.5717   25.3244  -27.0058 H   0  0  0  0  0  0  0  0  0  0  0  0
   -2.5542   24.0549  -26.1265 H   0  0  0  0  0  0  0  0  0  0  0  0
   -2.0677   25.6886  -24.4111 H   0  0  0  0  0  0  0  0  0  0  0  0
   -0.3964   25.3456  -24.8032 H   0  0  0  0  0  0  0  0  0  0  0  0
   -1.8797   28.0515  -24.9409 H   0  0  0  0  0  0  0  0  0  0  0  0
   -0.4136   27.7387  -24.0559 H   0  0  0  0  0  0  0  0  0  0  0  0
   -0.2448   28.7616  -26.5597 H   0  0  0  0  0  0  0  0  0  0  0  0
    0.9011   27.5165  -26.1677 H   0  0  0  0  0  0  0  0  0  0  0  0
   -5.1420   26.1310  -29.3400 H   0  0  0  0  0  0  0  0  0  0  0  0
   -6.9390   25.0510  -30.7910 H   0  0  0  0  0  0  0  0  0  0  0  0
   -7.9080   21.5890  -31.7682 H   0  0  0  0  0  0  0  0  0  0  0  0
   -9.4264   19.6045  -31.6279 H   0  0  0  0  0  0  0  0  0  0  0  0
   -8.5617   17.4044  -32.4263 H   0  0  0  0  0  0  0  0  0  0  0  0
   -4.7610   19.2054  -33.4593 H   0  0  0  0  0  0  0  0  0  0  0  0
  1  2  2  0
  2  3  1  0
  3  4  2  0
  4  5  1  0
  5  6  2  0
  6  7  1  0
  7  8  1  0
  8  9  1  0
  9 10  1  0
 10 11  1  0
 11 12  1  0
 12 13  1  0
 13 14  1  0
 14 15  2  0
  6 16  1  0
 16 17  1  0
  2 18  1  0
 18 19  2  0
 19 20  1  0
 20 21  2  0
 21 22  1  0
 22 23  1  0
 23 24  1  0
 23 25  1  0
 23 26  1  0
 22 27  2  0
 17  4  1  0
 27 18  1  0
 14 10  1  0
  5 28  1  0
  7 29  1  0
  8 30  1  0
  8 31  1  0
  9 32  1  0
  9 33  1  0
 11 34  1  0
 11 35  1  0
 12 36  1  0
 12 37  1  0
 13 38  1  0
 13 39  1  0
 16 40  1  0
 17 41  1  0
 19 42  1  0
 20 43  1  0
 21 44  1  0
 27 45  1  0
M  END
>  <smiles>  (24) 
O=C(N=c1cc(NCCN2CCCC2=O)[nH][nH]1)c1cccc(C(F)(F)F)c1

>  <score_type>  (24) 
oracle

>  <origin>  (24) 
adgpu

>  <m_score__min__energy>  (24) 
-8.8800000000000008

>  <m_primary>  (24) 
energy

$$$$
24:0
     RDKit          3D

 46 48  0  0  0  0  0  0  0  0999 V2000
   -4.8390   19.6440  -33.1210 C   0  0  0  0  0  0  0  0  0  0  0  0
   -5.3420   20.2830  -31.9530 O   0  0  0  0  0  0  0  0  0  0  0  0
   -6.4710   21.1190  -31.9260 C   0  0  0  0  0  0  0  0  0  0  0  0
   -7.7810   20.5990  -31.9420 C   0  0  0  0  0  0  0  0  0  0  0  0
   -8.8820   21.4570  -31.9570 C   0  0  0  0  0  0  0  0  0  0  0  0
   -8.6930   22.8380  -31.9650 C   0  0  0  0  0  0  0  0  0  0  0  0
   -7.4020   23.3680  -31.9400 C   0  0  0  0  0  0  0  0  0  0  0  0
   -6.2860   22.5170  -31.8970 C   0  0  0  0  0  0  0  0  0  0  0  0
   -4.9370   23.1100  -31.8320 C   0  0  0  0  0  0  0  0  0  0  0  0
   -3.9820   22.5080  -32.3910 O   0  0  0  0  0  0  0  0  0  0  0  0
   -4.6820   24.3750  -31.2010 N   0  0  0  0  0  0  0  0  0  0  0  0
   -4.4200   24.5980  -29.7810 C   0  0  0  0  0  0  0  0  0  0  0  0
   -2.9870   24.3220  -29.4540 C   0  0  0  0  0  0  0  0  0  0  0  0
   -2.4860   23.0710  -29.6230 N   0  0  0  0  0  0  0  0  0  0  0  0
   -1.2040   22.7630  -29.2950 C   0  0  0  0  0  0  0  0  0  0  0  0
   -0.7310   21.3620  -29.4330 C   0  0  0  0  0  0  0  0  0  0  0  0
   -0.3240   20.6660  -28.2800 C   0  0  0  0  0  0  0  0  0  0  0  0
    0.0410   19.3210  -28.3500 C   0  0  0  0  0  0  0  0  0  0  0  0
    0.0150   18.6440  -29.5730 C   0  0  0  0  0  0  0  0  0  0  0  0
    0.3500   17.1830  -29.6340 C   0  0  0  0  0  0  0  0  0  0  0  0
   -0.3960   19.3230  -30.7270 C   0  0  0  0  0  0  0  0  0  0  0  0
   -0.7500   20.6820  -30.6780 C   0  0  0  0  0  0  0  0  0  0  0  0
   -1.1670   21.3640  -31.9550 C   0  0  0  0  0  0  0  0  0  0  0  0
   -0.3780   23.7660  -28.7680 C   0  0  0  0  0  0  0  0  0  0  0  0
   -0.9070   25.0470  -28.5970 C   0  0  0  0  0  0  0  0  0  0  0  0
   -0.1920   25.9700  -28.1250 O   0  0  0  0  0  0  0  0  0  0  0  0
   -2.1980   25.3000  -28.9360 N   0  0  0  0  0  0  0  0  0  0  0  0
   -4.1830   18.8106  -32.8293 H   0  0  0  0  0  0  0  0  0  0  0  0
   -5.6784   19.2582  -33.7182 H   0  0  0  0  0  0  0  0  0  0  0  0
   -4.2669   20.3693  -33.7182 H   0  0  0  0  0  0  0  0  0  0  0  0
   -7.9367   19.5101  -31.9427 H   0  0  0  0  0  0  0  0  0  0  0  0
   -9.9009   21.0424  -31.9625 H   0  0  0  0  0  0  0  0  0  0  0  0
   -9.5626   23.5112  -31.9911 H   0  0  0  0  0  0  0  0  0  0  0  0
   -7.2581   24.4585  -31.9541 H   0  0  0  0  0  0  0  0  0  0  0  0
   -4.6514   25.6441  -29.5318 H   0  0  0  0  0  0  0  0  0  0  0  0
   -5.0525   23.9150  -29.1950 H   0  0  0  0  0  0  0  0  0  0  0  0
   -0.2932   21.1881  -27.3123 H   0  0  0  0  0  0  0  0  0  0  0  0
    0.3510   18.7903  -27.4377 H   0  0  0  0  0  0  0  0  0  0  0  0
    0.4413   16.7848  -28.6127 H   0  0  0  0  0  0  0  0  0  0  0  0
   -0.4483   16.6457  -30.1670 H   0  0  0  0  0  0  0  0  0  0  0  0
    1.3026   17.0472  -30.1670 H   0  0  0  0  0  0  0  0  0  0  0  0
   -0.4423   18.7848  -31.6852 H   0  0  0  0  0  0  0  0  0  0  0  0
   -1.7271   22.2800  -31.7155 H   0  0  0  0  0  0  0  0  0  0  0  0
   -0.2729   21.6235  -32.5409 H   0  0  0  0  0  0  0  0  0  0  0  0
   -1.8055   20.6865  -32.5409 H   0  0  0  0  0  0  0  0  0  0  0  0
    0.6651   23.5483  -28.4949 H   0  0  0  0  0  0  0  0  0  0  0  0
  1  2  1  0
  2  3  1  0
  3  4  2  0
  4  5  1  0
  5  6  2  0
  6  7  1  0
  7  8  2  0
  8  9  1  0
  9 10  2  0
  9 11  1  0
 11 12  1  0
 12 13  1  0
 13 14  2  0
 14 15  1  0
 15 16  1  0
 16 17  2  0
 17 18  1  0
 18 19  2  0
 19 20  1  0
 19 21  1  0
 21 22  2  0
 22 23  1  0
 15 24  2  0
 24 25  1  0
 25 26  2  0
 25 27  1  0
  8  3  1  0
 27 13  1  0
 22 16  1  0
  1 28  1  0
  1 29  1  0
  1 30  1  0
  4 31  1  0
  5 32  1  0
  6 33  1  0
  7 34  1  0
 12 35  1  0
 12 36  1  0
 17 37  1  0
 18 38  1  0
 20 39  1  0
 20 40  1  0
 20 41  1  0
 21 42  1  0
 23 43  1  0
 23 44  1  0
 23 45  1  0
 24 46  1  0
M  CHG  2  11  -1  27  -1
M  END
>  <UniqueID>  (25) 
24

>  <SMILES>  (25) 
COc1ccccc1C(=O)[N-]Cc1nc(-c2ccc(C)cc2C)cc(=O)[n-]1

>  <Energy>  (25) 
52.788266937028226

>  <Genealogy>  (25) 
COc1ccccc1C(=O)[N-]Cc1nc(-c2ccc(C)cc2C)cc(=O)[n-]1 (protonated)
COc1ccccc1C(=O)[N-]Cc1nc(-c2ccc(C)cc2C)cc(=O)[n-]1 (3D coordinates assigned)
COc1ccccc1C(=O)[N-]Cc1nc(-c2ccc(C)cc2C)cc(=O)[n-]1 (optimized conformer: 52.788266937028226 kcal/mol)

>  <smiles>  (25) 
COc1ccccc1C(=O)NCc1nc(-c2ccc(C)cc2C)cc(=O)[nH]1

>  <score_type>  (25) 
oracle

>  <origin>  (25) 
adgpu

>  <m_score__min__energy>  (25) 
-11.34

>  <m_primary>  (25) 
energy

$$$$
25:0
     RDKit          3D

 51 54  0  0  0  0  0  0  0  0999 V2000
   -6.5260   17.1040  -31.9130 C   0  0  0  0  0  0  0  0  0  0  0  0
   -6.0180   16.0610  -32.7380 O   0  0  0  0  0  0  0  0  0  0  0  0
   -4.6860   15.6200  -32.7410 C   0  0  0  0  0  0  0  0  0  0  0  0
   -4.3400   14.3060  -32.3650 C   0  0  0  0  0  0  0  0  0  0  0  0
   -3.0090   13.8870  -32.4030 C   0  0  0  0  0  0  0  0  0  0  0  0
   -2.0090   14.7670  -32.8130 C   0  0  0  0  0  0  0  0  0  0  0  0
   -2.3350   16.0720  -33.1830 C   0  0  0  0  0  0  0  0  0  0  0  0
   -3.6700   16.5120  -33.1460 C   0  0  0  0  0  0  0  0  0  0  0  0
   -3.9860   17.8690  -33.5120 N   0  0  0  0  0  0  0  0  0  0  0  0
   -3.0540   18.9360  -33.1320 C   0  0  0  0  0  0  0  0  0  0  0  0
   -3.4750   20.2820  -33.7360 C   0  0  0  0  0  0  0  0  0  0  0  0
   -4.9330   20.5000  -33.6390 N   0  0  0  0  0  0  0  0  0  0  0  0
   -5.4640   20.7030  -31.9790 S   0  0  0  0  0  0  0  0  0  0  0  0
   -5.1890   19.4540  -31.1890 O   0  0  0  0  0  0  0  0  0  0  0  0
   -6.9470   20.9500  -31.9630 O   0  0  0  0  0  0  0  0  0  0  0  0
   -4.6700   22.0810  -31.2160 C   0  0  0  0  0  0  0  0  0  0  0  0
   -5.3740   23.2710  -30.9790 C   0  0  0  0  0  0  0  0  0  0  0  0
   -4.7500   24.3610  -30.3510 C   0  0  0  0  0  0  0  0  0  0  0  0
   -5.5190   25.6280  -30.0960 C   0  0  0  0  0  0  0  0  0  0  0  0
   -3.4030   24.2480  -29.9570 C   0  0  0  0  0  0  0  0  0  0  0  0
   -2.7620   25.2790  -29.3430 N   0  0  0  0  0  0  0  0  0  0  0  0
   -1.4620   25.1780  -28.9570 C   0  0  0  0  0  0  0  0  0  0  0  0
   -0.8990   26.1520  -28.3910 O   0  0  0  0  0  0  0  0  0  0  0  0
   -0.7630   23.9870  -29.1970 C   0  0  0  0  0  0  0  0  0  0  0  0
    0.4410   23.8660  -28.8510 O   0  0  0  0  0  0  0  0  0  0  0  0
   -1.3970   22.9520  -29.8100 N   0  0  0  0  0  0  0  0  0  0  0  0
   -2.6960   23.0500  -30.1960 C   0  0  0  0  0  0  0  0  0  0  0  0
   -3.3300   21.9750  -30.8230 C   0  0  0  0  0  0  0  0  0  0  0  0
   -5.7310   19.4490  -34.3280 C   0  0  0  0  0  0  0  0  0  0  0  0
   -4.9770   18.1220  -34.5630 C   0  0  0  0  0  0  0  0  0  0  0  0
   -6.3937   16.8323  -30.8553 H   0  0  0  0  0  0  0  0  0  0  0  0
   -5.9810   18.0361  -32.1231 H   0  0  0  0  0  0  0  0  0  0  0  0
   -7.5959   17.2495  -32.1231 H   0  0  0  0  0  0  0  0  0  0  0  0
   -5.1240   13.6064  -32.0396 H   0  0  0  0  0  0  0  0  0  0  0  0
   -2.7487   12.8596  -32.1086 H   0  0  0  0  0  0  0  0  0  0  0  0
   -0.9617   14.4322  -32.8449 H   0  0  0  0  0  0  0  0  0  0  0  0
   -1.5416   16.7620  -33.5061 H   0  0  0  0  0  0  0  0  0  0  0  0
   -3.0374   19.0242  -32.0357 H   0  0  0  0  0  0  0  0  0  0  0  0
   -2.0556   18.6792  -33.5157 H   0  0  0  0  0  0  0  0  0  0  0  0
   -2.9584   21.0901  -33.1974 H   0  0  0  0  0  0  0  0  0  0  0  0
   -3.2023   20.2765  -34.8016 H   0  0  0  0  0  0  0  0  0  0  0  0
   -5.1330   21.4120  -34.1120 H   0  0  0  0  0  0  0  0  0  0  0  0
   -6.4265   23.3512  -31.2885 H   0  0  0  0  0  0  0  0  0  0  0  0
   -5.6152   25.7866  -29.0118 H   0  0  0  0  0  0  0  0  0  0  0  0
   -4.9843   26.4781  -30.5449 H   0  0  0  0  0  0  0  0  0  0  0  0
   -6.5199   25.5461  -30.5449 H   0  0  0  0  0  0  0  0  0  0  0  0
   -2.7757   21.0432  -31.0085 H   0  0  0  0  0  0  0  0  0  0  0  0
   -6.6192   19.2354  -33.7153 H   0  0  0  0  0  0  0  0  0  0  0  0
   -5.9796   19.8474  -35.3227 H   0  0  0  0  0  0  0  0  0  0  0  0
   -5.7035   17.2961  -34.5745 H   0  0  0  0  0  0  0  0  0  0  0  0
   -4.4473   18.1936  -35.5244 H   0  0  0  0  0  0  0  0  0  0  0  0
  1  2  1  0
  2  3  1  0
  3  4  2  0
  4  5  1  0
  5  6  2  0
  6  7  1  0
  7  8  2  0
  8  9  1  0
  9 10  1  0
 10 11  1  0
 11 12  1  0
 12 13  1  0
 13 14  2  0
 13 15  2  0
 13 16  1  0
 16 17  2  0
 17 18  1  0
 18 19  1  0
 18 20  2  0
 20 21  1  0
 21 22  1  0
 22 23  2  0
 22 24  1  0
 24 25  2  0
 24 26  1  0
 26 27  1  0
 27 28  2  0
 12 29  1  0
 29 30  1  0
  8  3  1  0
 30  9  1  0
 28 16  1  0
 27 20  1  0
  1 31  1  0
  1 32  1  0
  1 33  1  0
  4 34  1  0
  5 35  1  0
  6 36  1  0
  7 37  1  0
 10 38  1  0
 10 39  1  0
 11 40  1  0
 11 41  1  0
 12 42  1  0
 17 43  1  0
 19 44  1  0
 19 45  1  0
 19 46  1  0
 28 47  1  0
 29 48  1  0
 29 49  1  0
 30 50  1  0
 30 51  1  0
M  CHG  3  12   1  21  -1  26  -1
M  END
>  <UniqueID>  (26) 
25

>  <SMILES>  (26) 
COc1ccccc1N1CC[NH+](S(=O)(=O)c2cc(C)c3[n-]c(=O)c(=O)[n-]c3c2)CC1

>  <Energy>  (26) 
68.85062412228821

>  <Genealogy>  (26) 
COc1ccccc1N1CC[NH+](S(=O)(=O)c2cc(C)c3[n-]c(=O)c(=O)[n-]c3c2)CC1 (protonated)
COc1ccccc1N1CC[NH+](S(=O)(=O)c2cc(C)c3[n-]c(=O)c(=O)[n-]c3c2)CC1 (3D coordinates assigned)
COc1ccccc1N1CC[NH+](S(=O)(=O)c2cc(C)c3[n-]c(=O)c(=O)[n-]c3c2)CC1 (nonaromatic ring conformer: 68.85062412228821 kcal/mol)

>  <smiles>  (26) 
COc1ccccc1N1CCN(S(=O)(=O)c2cc(C)c3[nH]c(=O)c(=O)[nH]c3c2)CC1

>  <score_type>  (26) 
oracle

>  <origin>  (26) 
adgpu

>  <m_score__min__energy>  (26) 
-10.06

>  <m_primary>  (26) 
energy

$$$$
26:0
     RDKit          3D

 50 53  0  0  0  0  0  0  0  0999 V2000
   -1.9030   21.5170  -28.7080 O   0  0  0  0  0  0  0  0  0  0  0  0
   -1.9330   21.8720  -29.9140 C   0  0  0  0  0  0  0  0  0  0  0  0
   -2.5810   23.1050  -30.2590 N   0  0  0  0  0  0  0  0  0  0  0  0
   -3.9530   23.2490  -30.6530 C   0  0  0  0  0  0  0  0  0  0  0  0
   -4.6760   22.1020  -31.0060 C   0  0  0  0  0  0  0  0  0  0  0  0
   -6.0290   22.1930  -31.3590 C   0  0  0  0  0  0  0  0  0  0  0  0
   -6.9510   20.7420  -31.7570 S   0  0  0  0  0  0  0  0  0  0  0  0
   -7.4680   20.8730  -33.1640 O   0  0  0  0  0  0  0  0  0  0  0  0
   -8.1400   20.6770  -30.8420 O   0  0  0  0  0  0  0  0  0  0  0  0
   -6.0420   19.2500  -31.5790 N   0  0  0  0  0  0  0  0  0  0  0  0
   -6.8660   18.0270  -31.5880 C   0  0  0  0  0  0  0  0  0  0  0  0
   -7.2140   17.5660  -33.0050 C   0  0  0  0  0  0  0  0  0  0  0  0
   -5.9380   17.3590  -33.8170 C   0  0  0  0  0  0  0  0  0  0  0  0
   -5.1110   18.6420  -33.8470 C   0  0  0  0  0  0  0  0  0  0  0  0
   -4.8330   19.1680  -32.4250 C   0  0  0  0  0  0  0  0  0  0  0  0
   -6.6470   23.4490  -31.4040 C   0  0  0  0  0  0  0  0  0  0  0  0
   -5.9230   24.6020  -31.0940 C   0  0  0  0  0  0  0  0  0  0  0  0
   -4.5760   24.5100  -30.7300 C   0  0  0  0  0  0  0  0  0  0  0  0
   -3.8660   25.6770  -30.4710 O   0  0  0  0  0  0  0  0  0  0  0  0
   -1.2670   21.0300  -30.9260 C   0  0  0  0  0  0  0  0  0  0  0  0
   -1.1510   21.2980  -32.2760 C   0  0  0  0  0  0  0  0  0  0  0  0
   -0.4640   20.2100  -32.7730 C   0  0  0  0  0  0  0  0  0  0  0  0
   -0.0480   20.0180  -34.1790 C   0  0  0  0  0  0  0  0  0  0  0  0
    0.0130   21.1400  -35.0250 C   0  0  0  0  0  0  0  0  0  0  0  0
    0.4390   21.0100  -36.3480 C   0  0  0  0  0  0  0  0  0  0  0  0
    0.8180   19.7620  -36.8410 C   0  0  0  0  0  0  0  0  0  0  0  0
    0.7570   18.6370  -36.0170 C   0  0  0  0  0  0  0  0  0  0  0  0
    0.3110   18.7470  -34.6930 C   0  0  0  0  0  0  0  0  0  0  0  0
    0.2090   17.5760  -33.9380 O   0  0  0  0  0  0  0  0  0  0  0  0
   -0.1640   19.3660  -31.7660 N   0  0  0  0  0  0  0  0  0  0  0  0
   -0.6540   19.8660  -30.6420 N   0  0  0  0  0  0  0  0  0  0  0  0
   -4.1772   21.1216  -31.0060 H   0  0  0  0  0  0  0  0  0  0  0  0
   -6.3106   17.2236  -31.0820 H   0  0  0  0  0  0  0  0  0  0  0  0
   -7.8089   18.2551  -31.0695 H   0  0  0  0  0  0  0  0  0  0  0  0
   -7.7701   16.6183  -32.9531 H   0  0  0  0  0  0  0  0  0  0  0  0
   -7.8306   18.3353  -33.4928 H   0  0  0  0  0  0  0  0  0  0  0  0
   -5.3432   16.5553  -33.3585 H   0  0  0  0  0  0  0  0  0  0  0  0
   -6.2113   17.0870  -34.8472 H   0  0  0  0  0  0  0  0  0  0  0  0
   -4.1524   18.4378  -34.3464 H   0  0  0  0  0  0  0  0  0  0  0  0
   -5.6815   19.4078  -34.3930 H   0  0  0  0  0  0  0  0  0  0  0  0
   -4.1132   18.4931  -31.9388 H   0  0  0  0  0  0  0  0  0  0  0  0
   -4.4417   20.1907  -32.5295 H   0  0  0  0  0  0  0  0  0  0  0  0
   -7.7076   23.5275  -31.6849 H   0  0  0  0  0  0  0  0  0  0  0  0
   -6.4137   25.5856  -31.1362 H   0  0  0  0  0  0  0  0  0  0  0  0
   -1.5207   22.1754  -32.8269 H   0  0  0  0  0  0  0  0  0  0  0  0
   -0.2776   22.1288  -34.6407 H   0  0  0  0  0  0  0  0  0  0  0  0
    0.4757   21.8933  -37.0025 H   0  0  0  0  0  0  0  0  0  0  0  0
    1.1653   19.6639  -37.8801 H   0  0  0  0  0  0  0  0  0  0  0  0
    1.0616   17.6558  -36.4102 H   0  0  0  0  0  0  0  0  0  0  0  0
    0.0710   17.5720  -32.9370 H   0  0  0  0  0  0  0  0  0  0  0  0
  1  2  2  0
  2  3  1  0
  3  4  1  0
  4  5  2  0
  5  6  1  0
  6  7  1  0
  7  8  2  0
  7  9  2  0
  7 10  1  0
 10 11  1  0
 11 12  1  0
 12 13  1  0
 13 14  1  0
 14 15  1  0
  6 16  2  0
 16 17  1  0
 17 18  2  0
 18 19  1  0
  2 20  1  0
 20 21  1  0
 21 22  2  0
 22 23  1  0
 23 24  2  0
 24 25  1  0
 25 26  2  0
 26 27  1  0
 27 28  2  0
 28 29  1  0
 22 30  1  0
 30 31  1  0
 18  4  1  0
 31 20  2  0
 15 10  1  0
 28 23  1  0
  5 32  1  0
 11 33  1  0
 11 34  1  0
 12 35  1  0
 12 36  1  0
 13 37  1  0
 13 38  1  0
 14 39  1  0
 14 40  1  0
 15 41  1  0
 15 42  1  0
 16 43  1  0
 17 44  1  0
 21 45  1  0
 24 46  1  0
 25 47  1  0
 26 48  1  0
 27 49  1  0
 29 50  1  0
M  CHG  3   3  -1  19  -1  30  -1
M  END
>  <UniqueID>  (27) 
26

>  <SMILES>  (27) 
O=C([N-]c1cc(S(=O)(=O)N2CCCCC2)ccc1[O-])c1cc(-c2ccccc2O)[n-]n1

>  <Energy>  (27) 
94.1149656472654

>  <Genealogy>  (27) 
O=C([N-]c1cc(S(=O)(=O)N2CCCCC2)ccc1[O-])c1cc(-c2ccccc2O)[n-]n1 (protonated)
O=C([N-]c1cc(S(=O)(=O)N2CCCCC2)ccc1[O-])c1cc(-c2ccccc2O)[n-]n1 (3D coordinates assigned)
O=C([N-]c1cc(S(=O)(=O)N2CCCCC2)ccc1[O-])c1cc(-c2ccccc2O)[n-]n1 (nonaromatic ring conformer: 94.1149656472654 kcal/mol)

>  <smiles>  (27) 
O=C(Nc1cc(S(=O)(=O)N2CCCCC2)ccc1O)c1cc(-c2ccccc2O)[nH]n1

>  <score_type>  (27) 
oracle

>  <origin>  (27) 
adgpu

>  <m_score__min__energy>  (27) 
-14.93

>  <m_primary>  (27) 
energy

$$$$
27:0
     RDKit          3D

 38 40  0  0  0  0  0  0  0  0999 V2000
   -2.1060   23.7750  -29.3490 C   0  0  0  0  0  0  0  0  0  0  0  0
   -3.4000   23.8520  -30.0870 C   0  0  0  0  0  0  0  0  0  0  0  0
   -4.2750   22.8330  -30.1790 N   0  0  0  0  0  0  0  0  0  0  0  0
   -5.2660   23.4000  -30.9030 C   0  0  0  0  0  0  0  0  0  0  0  0
   -6.5020   22.6920  -31.3000 C   0  0  0  0  0  0  0  0  0  0  0  0
   -7.6850   23.4100  -31.5490 C   0  0  0  0  0  0  0  0  0  0  0  0
   -8.8500   22.7410  -31.9320 C   0  0  0  0  0  0  0  0  0  0  0  0
   -8.8490   21.3520  -32.0690 C   0  0  0  0  0  0  0  0  0  0  0  0
   -7.6820   20.6200  -31.8170 C   0  0  0  0  0  0  0  0  0  0  0  0
   -7.6820   18.8700  -32.0190 S   0  0  0  0  0  0  0  0  0  0  0  0
   -9.1060   18.3900  -32.0690 O   0  0  0  0  0  0  0  0  0  0  0  0
   -6.9990   18.2200  -30.8470 O   0  0  0  0  0  0  0  0  0  0  0  0
   -6.8640   18.4390  -33.5020 N   0  0  0  0  0  0  0  0  0  0  0  0
   -5.5260   19.0710  -33.5410 C   0  0  0  0  0  0  0  0  0  0  0  0
   -4.6100   18.3830  -34.5590 C   0  0  0  0  0  0  0  0  0  0  0  0
   -4.3690   16.9120  -34.1790 C   0  0  0  0  0  0  0  0  0  0  0  0
   -5.5120   16.3200  -33.3380 C   0  0  0  0  0  0  0  0  0  0  0  0
   -6.8580   16.9670  -33.6970 C   0  0  0  0  0  0  0  0  0  0  0  0
   -6.5100   21.2930  -31.4390 C   0  0  0  0  0  0  0  0  0  0  0  0
   -5.0000   24.6830  -31.2190 N   0  0  0  0  0  0  0  0  0  0  0  0
   -3.8390   24.9260  -30.6940 O   0  0  0  0  0  0  0  0  0  0  0  0
   -2.3001   23.7866  -28.2663 H   0  0  0  0  0  0  0  0  0  0  0  0
   -1.5852   22.8443  -29.6182 H   0  0  0  0  0  0  0  0  0  0  0  0
   -1.4785   24.6374  -29.6182 H   0  0  0  0  0  0  0  0  0  0  0  0
   -7.6932   24.5047  -31.4416 H   0  0  0  0  0  0  0  0  0  0  0  0
   -9.7708   23.3106  -32.1262 H   0  0  0  0  0  0  0  0  0  0  0  0
   -9.7677   20.8307  -32.3759 H   0  0  0  0  0  0  0  0  0  0  0  0
   -5.6384   20.1293  -33.8191 H   0  0  0  0  0  0  0  0  0  0  0  0
   -5.0693   18.9746  -32.5449 H   0  0  0  0  0  0  0  0  0  0  0  0
   -5.0806   18.4253  -35.5524 H   0  0  0  0  0  0  0  0  0  0  0  0
   -3.6420   18.9054  -34.5682 H   0  0  0  0  0  0  0  0  0  0  0  0
   -4.2696   16.3221  -35.1021 H   0  0  0  0  0  0  0  0  0  0  0  0
   -3.4541   16.8725  -33.5696 H   0  0  0  0  0  0  0  0  0  0  0  0
   -5.5725   15.2379  -33.5259 H   0  0  0  0  0  0  0  0  0  0  0  0
   -5.3023   16.5180  -32.2765 H   0  0  0  0  0  0  0  0  0  0  0  0
   -7.0797   16.7523  -34.7528 H   0  0  0  0  0  0  0  0  0  0  0  0
   -7.6173   16.5426  -33.0237 H   0  0  0  0  0  0  0  0  0  0  0  0
   -5.5897   20.7210  -31.2498 H   0  0  0  0  0  0  0  0  0  0  0  0
  1  2  1  0
  2  3  2  0
  3  4  1  0
  4  5  1  0
  5  6  2  0
  6  7  1  0
  7  8  2  0
  8  9  1  0
  9 10  1  0
 10 11  2  0
 10 12  2  0
 10 13  1  0
 13 14  1  0
 14 15  1  0
 15 16  1  0
 16 17  1  0
 17 18  1  0
  9 19  2  0
  4 20  2  0
 20 21  1  0
 21  2  1  0
 19  5  1  0
 18 13  1  0
  1 22  1  0
  1 23  1  0
  1 24  1  0
  6 25  1  0
  7 26  1  0
  8 27  1  0
 14 28  1  0
 14 29  1  0
 15 30  1  0
 15 31  1  0
 16 32  1  0
 16 33  1  0
 17 34  1  0
 17 35  1  0
 18 36  1  0
 18 37  1  0
 19 38  1  0
M  END
>  <UniqueID>  (28) 
27

>  <SMILES>  (28) 
Cc1nc(-c2cccc(S(=O)(=O)N3CCCCC3)c2)no1

>  <Energy>  (28) 
75.9135539922868

>  <Genealogy>  (28) 
Cc1nc(-c2cccc(S(=O)(=O)N3CCCCC3)c2)no1 (3D coordinates assigned)
Cc1nc(-c2cccc(S(=O)(=O)N3CCCCC3)c2)no1 (nonaromatic ring conformer: 75.9135539922868 kcal/mol)

>  <smiles>  (28) 
Cc1nc(-c2cccc(S(=O)(=O)N3CCCCC3)c2)no1

>  <score_type>  (28) 
oracle

>  <origin>  (28) 
adgpu

>  <m_score__min__energy>  (28) 
-9.5399999999999991

>  <m_primary>  (28) 
energy

$$$$
28:0
     RDKit          3D

 65 68  0  0  0  0  0  0  0  0999 V2000
   -6.6830   21.5010  -32.7690 N   0  0  0  0  0  0  0  0  0  0  0  0
   -5.5300   21.3380  -32.1940 C   0  0  0  0  0  0  0  0  0  0  0  0
   -5.0990   22.2780  -31.2060 N   0  0  0  0  0  0  0  0  0  0  0  0
   -4.1480   23.2510  -31.4580 O   0  0  0  0  0  0  0  0  0  0  0  0
   -3.6530   24.1360  -30.4870 C   0  0  0  0  0  0  0  0  0  0  0  0
   -4.0470   25.3330  -30.4620 O   0  0  0  0  0  0  0  0  0  0  0  0
   -2.6840   23.6680  -29.4690 C   0  0  0  0  0  0  0  0  0  0  0  0
   -2.7390   22.3340  -29.0210 C   0  0  0  0  0  0  0  0  0  0  0  0
   -1.8580   21.8720  -28.0360 C   0  0  0  0  0  0  0  0  0  0  0  0
   -1.9050   20.1760  -27.5500 S   0  0  0  0  0  0  0  0  0  0  0  0
   -3.2160   19.5810  -27.9840 O   0  0  0  0  0  0  0  0  0  0  0  0
   -1.8060   20.0690  -26.0510 O   0  0  0  0  0  0  0  0  0  0  0  0
   -0.5860   19.3140  -28.3060 N   0  0  0  0  0  0  0  0  0  0  0  0
   -0.4160   17.9810  -27.6710 C   0  0  0  0  0  0  0  0  0  0  0  0
    0.9820   17.3640  -27.9170 C   0  0  0  0  0  0  0  0  0  0  0  0
    1.6490   17.9460  -29.1660 C   0  0  0  0  0  0  0  0  0  0  0  0
    1.7830   19.4760  -29.0620 C   0  0  0  0  0  0  0  0  0  0  0  0
    0.6500   20.1170  -28.2320 C   0  0  0  0  0  0  0  0  0  0  0  0
   -0.9140   22.7480  -27.4810 C   0  0  0  0  0  0  0  0  0  0  0  0
   -0.8400   24.0680  -27.9250 C   0  0  0  0  0  0  0  0  0  0  0  0
   -1.7090   24.5300  -28.9190 C   0  0  0  0  0  0  0  0  0  0  0  0
   -1.5950   25.8480  -29.3440 O   0  0  0  0  0  0  0  0  0  0  0  0
   -4.6690   20.1740  -32.5180 C   0  0  0  0  0  0  0  0  0  0  0  0
   -5.1850   19.0670  -33.2090 C   0  0  0  0  0  0  0  0  0  0  0  0
   -4.3630   17.9750  -33.4980 C   0  0  0  0  0  0  0  0  0  0  0  0
   -3.0210   17.9790  -33.1100 C   0  0  0  0  0  0  0  0  0  0  0  0
   -2.4890   19.0820  -32.4300 C   0  0  0  0  0  0  0  0  0  0  0  0
   -0.8010   19.0830  -31.9130 S   0  0  0  0  0  0  0  0  0  0  0  0
   -0.5430   20.3210  -31.0990 O   0  0  0  0  0  0  0  0  0  0  0  0
   -0.5490   17.8920  -31.0310 O   0  0  0  0  0  0  0  0  0  0  0  0
    0.3040   19.0350  -33.2700 N   0  0  0  0  0  0  0  0  0  0  0  0
    1.2870   20.1220  -33.1990 C   0  0  0  0  0  0  0  0  0  0  0  0
    0.8550   21.2300  -34.1510 C   0  0  0  0  0  0  0  0  0  0  0  0
   -0.2930   20.6640  -34.9600 C   0  0  0  0  0  0  0  0  0  0  0  0
   -0.4140   19.2070  -34.5390 C   0  0  0  0  0  0  0  0  0  0  0  0
   -3.3150   20.1780  -32.1390 C   0  0  0  0  0  0  0  0  0  0  0  0
   -7.0530   20.8200  -33.4670 H   0  0  0  0  0  0  0  0  0  0  0  0
   -7.2780   22.3280  -32.5340 H   0  0  0  0  0  0  0  0  0  0  0  0
   -5.3620   22.0900  -30.2110 H   0  0  0  0  0  0  0  0  0  0  0  0
   -3.4831   21.6468  -29.4502 H   0  0  0  0  0  0  0  0  0  0  0  0
   -0.8430   19.1830  -29.3140 H   0  0  0  0  0  0  0  0  0  0  0  0
   -0.5651   18.0885  -26.5865 H   0  0  0  0  0  0  0  0  0  0  0  0
   -1.1565   17.3055  -28.1241 H   0  0  0  0  0  0  0  0  0  0  0  0
    1.6200   17.5687  -27.0446 H   0  0  0  0  0  0  0  0  0  0  0  0
    0.8559   16.2820  -28.0697 H   0  0  0  0  0  0  0  0  0  0  0  0
    2.6504   17.5046  -29.2770 H   0  0  0  0  0  0  0  0  0  0  0  0
    1.0226   17.7091  -30.0386 H   0  0  0  0  0  0  0  0  0  0  0  0
    2.7459   19.7136  -28.5862 H   0  0  0  0  0  0  0  0  0  0  0  0
    1.7216   19.8855  -30.0811 H   0  0  0  0  0  0  0  0  0  0  0  0
    0.9700   20.1870  -27.1819 H   0  0  0  0  0  0  0  0  0  0  0  0
    0.4410   21.1164  -28.6414 H   0  0  0  0  0  0  0  0  0  0  0  0
   -0.2312   22.3937  -26.6947 H   0  0  0  0  0  0  0  0  0  0  0  0
   -0.0939   24.7498  -27.4910 H   0  0  0  0  0  0  0  0  0  0  0  0
   -6.2390   19.0591  -33.5238 H   0  0  0  0  0  0  0  0  0  0  0  0
   -4.7748   17.1072  -34.0341 H   0  0  0  0  0  0  0  0  0  0  0  0
   -2.3808   17.1143  -33.3389 H   0  0  0  0  0  0  0  0  0  0  0  0
    1.3337   20.5130  -32.1719 H   0  0  0  0  0  0  0  0  0  0  0  0
    2.2818   19.7485  -33.4833 H   0  0  0  0  0  0  0  0  0  0  0  0
    0.5241   22.1128  -33.5843 H   0  0  0  0  0  0  0  0  0  0  0  0
    1.6845   21.5494  -34.7990 H   0  0  0  0  0  0  0  0  0  0  0  0
   -1.2236   21.2063  -34.7368 H   0  0  0  0  0  0  0  0  0  0  0  0
   -0.1145   20.7609  -36.0411 H   0  0  0  0  0  0  0  0  0  0  0  0
   -1.4739   18.9447  -34.4056 H   0  0  0  0  0  0  0  0  0  0  0  0
    0.0160   18.5516  -35.3107 H   0  0  0  0  0  0  0  0  0  0  0  0
   -2.8997   21.0482  -31.6096 H   0  0  0  0  0  0  0  0  0  0  0  0
  1  2  2  0
  2  3  1  0
  3  4  1  0
  4  5  1  0
  5  6  2  0
  5  7  1  0
  7  8  2  0
  8  9  1  0
  9 10  1  0
 10 11  2  0
 10 12  2  0
 10 13  1  0
 13 14  1  0
 14 15  1  0
 15 16  1  0
 16 17  1  0
 17 18  1  0
  9 19  2  0
 19 20  1  0
 20 21  2  0
 21 22  1  0
  2 23  1  0
 23 24  2  0
 24 25  1  0
 25 26  2  0
 26 27  1  0
 27 28  1  0
 28 29  2  0
 28 30  2  0
 28 31  1  0
 31 32  1  0
 32 33  1  0
 33 34  1  0
 34 35  1  0
 27 36  2  0
 21  7  1  0
 36 23  1  0
 18 13  1  0
 35 31  1  0
  1 37  1  0
  1 38  1  0
  3 39  1  0
  8 40  1  0
 13 41  1  0
 14 42  1  0
 14 43  1  0
 15 44  1  0
 15 45  1  0
 16 46  1  0
 16 47  1  0
 17 48  1  0
 17 49  1  0
 18 50  1  0
 18 51  1  0
 19 52  1  0
 20 53  1  0
 24 54  1  0
 25 55  1  0
 26 56  1  0
 32 57  1  0
 32 58  1  0
 33 59  1  0
 33 60  1  0
 34 61  1  0
 34 62  1  0
 35 63  1  0
 35 64  1  0
 36 65  1  0
M  CHG  3   1   1  13   1  22  -1
M  END
>  <UniqueID>  (29) 
28

>  <SMILES>  (29) 
[NH2+]=C(NOC(=O)c1cc(S(=O)(=O)[NH+]2CCCCC2)ccc1[O-])c1cccc(S(=O)(=O)N2CCCC2)c1

>  <Energy>  (29) 
83.40164790407756

>  <Genealogy>  (29) 
[NH2+]=C(NOC(=O)c1cc(S(=O)(=O)[NH+]2CCCCC2)ccc1[O-])c1cccc(S(=O)(=O)N2CCCC2)c1 (protonated)
[NH2+]=C(NOC(=O)c1cc(S(=O)(=O)[NH+]2CCCCC2)ccc1[O-])c1cccc(S(=O)(=O)N2CCCC2)c1 (3D coordinates assigned)
[NH2+]=C(NOC(=O)c1cc(S(=O)(=O)[NH+]2CCCCC2)ccc1[O-])c1cccc(S(=O)(=O)N2CCCC2)c1 (nonaromatic ring conformer: 83.40164790407756 kcal/mol)

>  <smiles>  (29) 
N=C(NOC(=O)c1cc(S(=O)(=O)N2CCCCC2)ccc1O)c1cccc(S(=O)(=O)N2CCCC2)c1

>  <score_type>  (29) 
oracle

>  <origin>  (29) 
adgpu

>  <m_score__min__energy>  (29) 
-13.869999999999999

>  <m_primary>  (29) 
energy

$$$$
29:0
     RDKit          3D

 35 37  0  0  0  0  0  0  0  0999 V2000
   -5.4510   26.1970  -30.2410 O   0  0  0  0  0  0  0  0  0  0  0  0
   -4.8200   25.2900  -30.8440 C   0  0  0  0  0  0  0  0  0  0  0  0
   -3.5010   24.9170  -30.4200 N   0  0  0  0  0  0  0  0  0  0  0  0
   -3.1520   23.7950  -29.5990 C   0  0  0  0  0  0  0  0  0  0  0  0
   -4.0860   23.3270  -28.6690 C   0  0  0  0  0  0  0  0  0  0  0  0
   -3.7960   22.2220  -27.8630 C   0  0  0  0  0  0  0  0  0  0  0  0
   -2.5650   21.5540  -27.9860 C   0  0  0  0  0  0  0  0  0  0  0  0
   -2.2600   20.4160  -27.1590 N   0  0  0  0  0  0  0  0  0  0  0  0
   -1.3060   20.4500  -26.3550 O   0  0  0  0  0  0  0  0  0  0  0  0
   -3.0150   19.2680  -27.2440 O   0  0  0  0  0  0  0  0  0  0  0  0
   -1.6370   22.0100  -28.9390 C   0  0  0  0  0  0  0  0  0  0  0  0
   -1.9290   23.1160  -29.7430 C   0  0  0  0  0  0  0  0  0  0  0  0
   -5.4800   24.5620  -31.8840 N   0  0  0  0  0  0  0  0  0  0  0  0
   -6.1520   23.2990  -31.7380 C   0  0  0  0  0  0  0  0  0  0  0  0
   -7.4200   23.2240  -31.1330 C   0  0  0  0  0  0  0  0  0  0  0  0
   -8.0600   21.9950  -30.9710 C   0  0  0  0  0  0  0  0  0  0  0  0
   -7.4420   20.8190  -31.3930 C   0  0  0  0  0  0  0  0  0  0  0  0
   -6.1670   20.8610  -31.9750 C   0  0  0  0  0  0  0  0  0  0  0  0
   -5.5390   19.6760  -32.3860 C   0  0  0  0  0  0  0  0  0  0  0  0
   -4.2680   19.7160  -32.9620 C   0  0  0  0  0  0  0  0  0  0  0  0
   -3.6100   20.9390  -33.1340 C   0  0  0  0  0  0  0  0  0  0  0  0
   -2.3410   20.9860  -33.7080 O   0  0  0  0  0  0  0  0  0  0  0  0
   -4.2270   22.1280  -32.7290 C   0  0  0  0  0  0  0  0  0  0  0  0
   -5.5090   22.1070  -32.1440 C   0  0  0  0  0  0  0  0  0  0  0  0
   -5.0578   23.8330  -28.5708 H   0  0  0  0  0  0  0  0  0  0  0  0
   -4.5359   21.8729  -27.1277 H   0  0  0  0  0  0  0  0  0  0  0  0
   -0.6732   21.4922  -29.0529 H   0  0  0  0  0  0  0  0  0  0  0  0
   -1.1986   23.4566  -30.4917 H   0  0  0  0  0  0  0  0  0  0  0  0
   -7.9119   24.1440  -30.7841 H   0  0  0  0  0  0  0  0  0  0  0  0
   -9.0570   21.9538  -30.5081 H   0  0  0  0  0  0  0  0  0  0  0  0
   -7.9564   19.8546  -31.2690 H   0  0  0  0  0  0  0  0  0  0  0  0
   -6.0502   18.7110  -32.2539 H   0  0  0  0  0  0  0  0  0  0  0  0
   -3.7818   18.7826  -33.2819 H   0  0  0  0  0  0  0  0  0  0  0  0
   -2.1540   21.5400  -34.5360 H   0  0  0  0  0  0  0  0  0  0  0  0
   -3.7069   23.0872  -32.8685 H   0  0  0  0  0  0  0  0  0  0  0  0
  1  2  2  0
  2  3  1  0
  3  4  1  0
  4  5  2  0
  5  6  1  0
  6  7  2  0
  7  8  1  0
  8  9  2  0
  8 10  1  0
  7 11  1  0
 11 12  2  0
  2 13  1  0
 13 14  1  0
 14 15  2  0
 15 16  1  0
 16 17  2  0
 17 18  1  0
 18 19  2  0
 19 20  1  0
 20 21  2  0
 21 22  1  0
 21 23  1  0
 23 24  2  0
 12  4  1  0
 24 14  1  0
 24 18  1  0
  5 25  1  0
  6 26  1  0
 11 27  1  0
 12 28  1  0
 15 29  1  0
 16 30  1  0
 17 31  1  0
 19 32  1  0
 20 33  1  0
 22 34  1  0
 23 35  1  0
M  CHG  4   3  -1   8   1  10  -1  13  -1
M  END
>  <UniqueID>  (30) 
29

>  <SMILES>  (30) 
O=C([N-]c1ccc([N+](=O)[O-])cc1)[N-]c1cccc2ccc(O)cc12

>  <Energy>  (30) 
49.847675761999874

>  <Genealogy>  (30) 
O=C([N-]c1ccc([N+](=O)[O-])cc1)[N-]c1cccc2ccc(O)cc12 (protonated)
O=C([N-]c1ccc([N+](=O)[O-])cc1)[N-]c1cccc2ccc(O)cc12 (3D coordinates assigned)
O=C([N-]c1ccc([N+](=O)[O-])cc1)[N-]c1cccc2ccc(O)cc12 (optimized conformer: 49.847675761999874 kcal/mol)

>  <smiles>  (30) 
O=C(Nc1ccc([N+](=O)[O-])cc1)Nc1cccc2ccc(O)cc12

>  <score_type>  (30) 
oracle

>  <origin>  (30) 
adgpu

>  <m_score__min__energy>  (30) 
-10.81

>  <m_primary>  (30) 
energy

$$$$
30:0
     RDKit          3D

 60 63  0  0  0  0  0  0  0  0999 V2000
   -4.0030   20.8200  -32.5770 O   0  0  0  0  0  0  0  0  0  0  0  0
   -3.0030   21.5370  -32.2940 C   0  0  0  0  0  0  0  0  0  0  0  0
   -3.1970   22.8180  -31.6700 N   0  0  0  0  0  0  0  0  0  0  0  0
   -4.4940   23.3240  -31.3130 C   0  0  0  0  0  0  0  0  0  0  0  0
   -5.6550   22.6030  -31.6360 C   0  0  0  0  0  0  0  0  0  0  0  0
   -6.9170   23.0690  -31.2430 C   0  0  0  0  0  0  0  0  0  0  0  0
   -8.3560   22.0900  -31.5380 S   0  0  0  0  0  0  0  0  0  0  0  0
   -8.8600   21.5430  -30.2330 O   0  0  0  0  0  0  0  0  0  0  0  0
   -9.4330   22.9610  -32.1250 O   0  0  0  0  0  0  0  0  0  0  0  0
   -8.0190   20.7570  -32.6200 N   0  0  0  0  0  0  0  0  0  0  0  0
   -9.1780   19.8420  -32.7480 C   0  0  0  0  0  0  0  0  0  0  0  0
   -9.1170   18.6340  -31.7920 C   0  0  0  0  0  0  0  0  0  0  0  0
   -7.7750   17.8720  -31.8550 C   0  0  0  0  0  0  0  0  0  0  0  0
   -6.7100   18.6230  -32.6650 C   0  0  0  0  0  0  0  0  0  0  0  0
   -6.7270   20.1100  -32.2970 C   0  0  0  0  0  0  0  0  0  0  0  0
   -7.0210   24.2930  -30.5690 C   0  0  0  0  0  0  0  0  0  0  0  0
   -5.8730   25.0370  -30.2850 C   0  0  0  0  0  0  0  0  0  0  0  0
   -4.6120   24.5570  -30.6510 C   0  0  0  0  0  0  0  0  0  0  0  0
   -3.4790   25.2980  -30.3390 O   0  0  0  0  0  0  0  0  0  0  0  0
   -1.6510   21.0500  -32.6550 C   0  0  0  0  0  0  0  0  0  0  0  0
   -1.1570   21.2680  -33.9530 C   0  0  0  0  0  0  0  0  0  0  0  0
    0.1230   20.8400  -34.3080 C   0  0  0  0  0  0  0  0  0  0  0  0
    0.9280   20.1720  -33.3770 C   0  0  0  0  0  0  0  0  0  0  0  0
    2.5590   19.6650  -33.8170 S   0  0  0  0  0  0  0  0  0  0  0  0
    3.2500   20.7950  -34.5290 O   0  0  0  0  0  0  0  0  0  0  0  0
    3.3320   19.3780  -32.5580 O   0  0  0  0  0  0  0  0  0  0  0  0
    2.5750   18.2420  -34.8380 N   0  0  0  0  0  0  0  0  0  0  0  0
    1.2920   17.5050  -34.8140 C   0  0  0  0  0  0  0  0  0  0  0  0
    0.4590   17.7120  -36.0870 C   0  0  0  0  0  0  0  0  0  0  0  0
    0.6710   19.0070  -36.5980 O   0  0  0  0  0  0  0  0  0  0  0  0
    1.9800   19.1080  -37.1290 C   0  0  0  0  0  0  0  0  0  0  0  0
    3.0710   18.5260  -36.1980 C   0  0  0  0  0  0  0  0  0  0  0  0
    0.4370   19.9330  -32.0870 C   0  0  0  0  0  0  0  0  0  0  0  0
   -0.8440   20.3620  -31.7280 C   0  0  0  0  0  0  0  0  0  0  0  0
   -2.3710   23.4010  -31.4110 H   0  0  0  0  0  0  0  0  0  0  0  0
   -5.5732   21.6638  -32.2027 H   0  0  0  0  0  0  0  0  0  0  0  0
  -10.0952   20.4099  -32.5332 H   0  0  0  0  0  0  0  0  0  0  0  0
   -9.1640   19.4439  -33.7733 H   0  0  0  0  0  0  0  0  0  0  0  0
   -9.2656   18.9948  -30.7636 H   0  0  0  0  0  0  0  0  0  0  0  0
   -9.9049   17.9323  -32.1031 H   0  0  0  0  0  0  0  0  0  0  0  0
   -7.4024   17.7285  -30.8300 H   0  0  0  0  0  0  0  0  0  0  0  0
   -7.9599   16.9106  -32.3566 H   0  0  0  0  0  0  0  0  0  0  0  0
   -5.7182   18.2032  -32.4410 H   0  0  0  0  0  0  0  0  0  0  0  0
   -6.9268   18.5131  -33.7378 H   0  0  0  0  0  0  0  0  0  0  0  0
   -6.5428   20.2087  -31.2170 H   0  0  0  0  0  0  0  0  0  0  0  0
   -5.9448   20.6103  -32.8869 H   0  0  0  0  0  0  0  0  0  0  0  0
   -8.0084   24.6689  -30.2629 H   0  0  0  0  0  0  0  0  0  0  0  0
   -5.9618   26.0054  -29.7708 H   0  0  0  0  0  0  0  0  0  0  0  0
   -1.7854   21.7809  -34.6960 H   0  0  0  0  0  0  0  0  0  0  0  0
    0.5012   21.0282  -35.3236 H   0  0  0  0  0  0  0  0  0  0  0  0
    1.5061   16.4315  -34.7056 H   0  0  0  0  0  0  0  0  0  0  0  0
    0.7046   17.8932  -33.9689 H   0  0  0  0  0  0  0  0  0  0  0  0
    0.7573   16.9695  -36.8419 H   0  0  0  0  0  0  0  0  0  0  0  0
   -0.6069   17.5906  -35.8438 H   0  0  0  0  0  0  0  0  0  0  0  0
    2.0110   18.5637  -38.0844 H   0  0  0  0  0  0  0  0  0  0  0  0
    2.1974   20.1793  -37.2517 H   0  0  0  0  0  0  0  0  0  0  0  0
    3.4444   17.5895  -36.6379 H   0  0  0  0  0  0  0  0  0  0  0  0
    3.8651   19.2819  -36.1081 H   0  0  0  0  0  0  0  0  0  0  0  0
    1.0629   19.4049  -31.3526 H   0  0  0  0  0  0  0  0  0  0  0  0
   -1.2241   20.1611  -30.7155 H   0  0  0  0  0  0  0  0  0  0  0  0
  1  2  2  0
  2  3  1  0
  3  4  1  0
  4  5  2  0
  5  6  1  0
  6  7  1  0
  7  8  2  0
  7  9  2  0
  7 10  1  0
 10 11  1  0
 11 12  1  0
 12 13  1  0
 13 14  1  0
 14 15  1  0
  6 16  2  0
 16 17  1  0
 17 18  2  0
 18 19  1  0
  2 20  1  0
 20 21  2  0
 21 22  1  0
 22 23  2  0
 23 24  1  0
 24 25  2  0
 24 26  2  0
 24 27  1  0
 27 28  1  0
 28 29  1  0
 29 30  1  0
 30 31  1  0
 31 32  1  0
 23 33  1  0
 33 34  2  0
 18  4  1  0
 34 20  1  0
 15 10  1  0
 32 27  1  0
  3 35  1  0
  5 36  1  0
 11 37  1  0
 11 38  1  0
 12 39  1  0
 12 40  1  0
 13 41  1  0
 13 42  1  0
 14 43  1  0
 14 44  1  0
 15 45  1  0
 15 46  1  0
 16 47  1  0
 17 48  1  0
 21 49  1  0
 22 50  1  0
 28 51  1  0
 28 52  1  0
 29 53  1  0
 29 54  1  0
 31 55  1  0
 31 56  1  0
 32 57  1  0
 32 58  1  0
 33 59  1  0
 34 60  1  0
M  CHG  1  19  -1
M  END
>  <UniqueID>  (31) 
30

>  <SMILES>  (31) 
O=C(Nc1cc(S(=O)(=O)N2CCCCC2)ccc1[O-])c1ccc(S(=O)(=O)N2CCOCC2)cc1

>  <Energy>  (31) 
85.93203474123575

>  <Genealogy>  (31) 
O=C(Nc1cc(S(=O)(=O)N2CCCCC2)ccc1[O-])c1ccc(S(=O)(=O)N2CCOCC2)cc1 (protonated)
O=C(Nc1cc(S(=O)(=O)N2CCCCC2)ccc1[O-])c1ccc(S(=O)(=O)N2CCOCC2)cc1 (3D coordinates assigned)
O=C(Nc1cc(S(=O)(=O)N2CCCCC2)ccc1[O-])c1ccc(S(=O)(=O)N2CCOCC2)cc1 (nonaromatic ring conformer: 85.93203474123575 kcal/mol)

>  <smiles>  (31) 
O=C(Nc1cc(S(=O)(=O)N2CCCCC2)ccc1O)c1ccc(S(=O)(=O)N2CCOCC2)cc1

>  <score_type>  (31) 
oracle

>  <origin>  (31) 
adgpu

>  <m_score__min__energy>  (31) 
-13.09

>  <m_primary>  (31) 
energy

$$$$
31:0
     RDKit          3D

 62 65  0  0  0  0  0  0  0  0999 V2000
   -6.8780   17.3030  -34.1060 O   0  0  0  0  0  0  0  0  0  0  0  0
   -6.3970   18.1630  -33.3170 C   0  0  0  0  0  0  0  0  0  0  0  0
   -4.9510   18.4600  -33.3900 C   0  0  0  0  0  0  0  0  0  0  0  0
   -4.0070   17.4230  -33.4100 C   0  0  0  0  0  0  0  0  0  0  0  0
   -2.6400   17.7090  -33.4680 C   0  0  0  0  0  0  0  0  0  0  0  0
   -2.1920   19.0370  -33.5140 C   0  0  0  0  0  0  0  0  0  0  0  0
   -0.7780   19.2990  -33.5580 N   0  0  0  0  0  0  0  0  0  0  0  0
   -0.0560   20.8010  -33.0660 S   0  0  0  0  0  0  0  0  0  0  0  0
    1.4390   20.7110  -33.2150 O   0  0  0  0  0  0  0  0  0  0  0  0
   -0.5560   21.9030  -33.9600 O   0  0  0  0  0  0  0  0  0  0  0  0
   -0.5050   21.1680  -31.4030 C   0  0  0  0  0  0  0  0  0  0  0  0
    0.0410   20.4440  -30.3340 C   0  0  0  0  0  0  0  0  0  0  0  0
   -0.3170   20.7580  -29.0200 C   0  0  0  0  0  0  0  0  0  0  0  0
   -1.2190   21.7950  -28.7670 C   0  0  0  0  0  0  0  0  0  0  0  0
   -1.7650   22.5270  -29.8290 C   0  0  0  0  0  0  0  0  0  0  0  0
   -2.8780   23.8490  -29.4920 S   0  0  0  0  0  0  0  0  0  0  0  0
   -3.6250   23.5700  -28.2190 O   0  0  0  0  0  0  0  0  0  0  0  0
   -2.0710   25.1040  -29.3040 O   0  0  0  0  0  0  0  0  0  0  0  0
   -3.9800   24.0580  -30.8370 N   0  0  0  0  0  0  0  0  0  0  0  0
   -4.7810   22.8520  -31.1250 C   0  0  0  0  0  0  0  0  0  0  0  0
   -5.9570   22.6640  -30.1530 C   0  0  0  0  0  0  0  0  0  0  0  0
   -6.8230   23.9220  -30.1010 C   0  0  0  0  0  0  0  0  0  0  0  0
   -5.9750   25.1460  -29.7590 C   0  0  0  0  0  0  0  0  0  0  0  0
   -4.7920   25.2860  -30.7300 C   0  0  0  0  0  0  0  0  0  0  0  0
   -1.4050   22.2120  -31.1470 C   0  0  0  0  0  0  0  0  0  0  0  0
   -3.1400   20.0780  -33.5400 C   0  0  0  0  0  0  0  0  0  0  0  0
   -4.5070   19.7900  -33.4820 C   0  0  0  0  0  0  0  0  0  0  0  0
   -7.2630   18.8420  -32.3800 N   0  0  0  0  0  0  0  0  0  0  0  0
   -6.9830   20.2350  -31.9920 C   0  0  0  0  0  0  0  0  0  0  0  0
   -8.2410   20.9390  -31.4560 C   0  0  0  0  0  0  0  0  0  0  0  0
   -9.4560   20.6090  -32.3290 C   0  0  0  0  0  0  0  0  0  0  0  0
   -9.7140   19.0900  -32.4540 C   0  0  0  0  0  0  0  0  0  0  0  0
   -8.5350   18.2340  -31.9680 C   0  0  0  0  0  0  0  0  0  0  0  0
   -4.3449   16.3766  -33.3798 H   0  0  0  0  0  0  0  0  0  0  0  0
   -1.9101   16.8861  -33.4776 H   0  0  0  0  0  0  0  0  0  0  0  0
   -0.1270   18.5200  -33.7960 H   0  0  0  0  0  0  0  0  0  0  0  0
    0.7520   19.6278  -30.5296 H   0  0  0  0  0  0  0  0  0  0  0  0
    0.1122   20.1876  -28.1831 H   0  0  0  0  0  0  0  0  0  0  0  0
   -1.5008   22.0369  -27.7316 H   0  0  0  0  0  0  0  0  0  0  0  0
   -5.1805   22.9326  -32.1467 H   0  0  0  0  0  0  0  0  0  0  0  0
   -4.1177   21.9820  -31.0101 H   0  0  0  0  0  0  0  0  0  0  0  0
   -6.5718   21.8164  -30.4901 H   0  0  0  0  0  0  0  0  0  0  0  0
   -5.5562   22.4695  -29.1473 H   0  0  0  0  0  0  0  0  0  0  0  0
   -7.2984   24.0742  -31.0812 H   0  0  0  0  0  0  0  0  0  0  0  0
   -7.5889   23.7928  -29.3221 H   0  0  0  0  0  0  0  0  0  0  0  0
   -6.6021   26.0474  -29.8239 H   0  0  0  0  0  0  0  0  0  0  0  0
   -5.5791   25.0241  -28.7400 H   0  0  0  0  0  0  0  0  0  0  0  0
   -5.1853   25.5332  -31.7271 H   0  0  0  0  0  0  0  0  0  0  0  0
   -4.1376   26.0777  -30.3364 H   0  0  0  0  0  0  0  0  0  0  0  0
   -1.8303   22.7862  -31.9833 H   0  0  0  0  0  0  0  0  0  0  0  0
   -2.8033   21.1231  -33.6063 H   0  0  0  0  0  0  0  0  0  0  0  0
   -5.2397   20.6100  -33.5086 H   0  0  0  0  0  0  0  0  0  0  0  0
   -6.2110   20.2387  -31.2084 H   0  0  0  0  0  0  0  0  0  0  0  0
   -6.6400   20.7778  -32.8851 H   0  0  0  0  0  0  0  0  0  0  0  0
   -8.4331   20.6021  -30.4266 H   0  0  0  0  0  0  0  0  0  0  0  0
   -8.0748   22.0262  -31.4754 H   0  0  0  0  0  0  0  0  0  0  0  0
  -10.3452   21.0804  -31.8851 H   0  0  0  0  0  0  0  0  0  0  0  0
   -9.2497   20.9924  -33.3392 H   0  0  0  0  0  0  0  0  0  0  0  0
  -10.6010   18.8356  -31.8552 H   0  0  0  0  0  0  0  0  0  0  0  0
   -9.8594   18.8699  -33.5219 H   0  0  0  0  0  0  0  0  0  0  0  0
   -8.5653   18.1632  -30.8707 H   0  0  0  0  0  0  0  0  0  0  0  0
   -8.6133   17.2303  -32.4113 H   0  0  0  0  0  0  0  0  0  0  0  0
  1  2  2  0
  2  3  1  0
  3  4  2  0
  4  5  1  0
  5  6  2  0
  6  7  1  0
  7  8  1  0
  8  9  2  0
  8 10  2  0
  8 11  1  0
 11 12  2  0
 12 13  1  0
 13 14  2  0
 14 15  1  0
 15 16  1  0
 16 17  2  0
 16 18  2  0
 16 19  1  0
 19 20  1  0
 20 21  1  0
 21 22  1  0
 22 23  1  0
 23 24  1  0
 15 25  2  0
  6 26  1  0
 26 27  2  0
  2 28  1  0
 28 29  1  0
 29 30  1  0
 30 31  1  0
 31 32  1  0
 32 33  1  0
 27  3  1  0
 33 28  1  0
 25 11  1  0
 24 19  1  0
  4 34  1  0
  5 35  1  0
  7 36  1  0
 12 37  1  0
 13 38  1  0
 14 39  1  0
 20 40  1  0
 20 41  1  0
 21 42  1  0
 21 43  1  0
 22 44  1  0
 22 45  1  0
 23 46  1  0
 23 47  1  0
 24 48  1  0
 24 49  1  0
 25 50  1  0
 26 51  1  0
 27 52  1  0
 29 53  1  0
 29 54  1  0
 30 55  1  0
 30 56  1  0
 31 57  1  0
 31 58  1  0
 32 59  1  0
 32 60  1  0
 33 61  1  0
 33 62  1  0
M  END
>  <UniqueID>  (32) 
31

>  <SMILES>  (32) 
O=C(c1ccc(NS(=O)(=O)c2cccc(S(=O)(=O)N3CCCCC3)c2)cc1)N1CCCCC1

>  <Energy>  (32) 
73.0791251343481

>  <Genealogy>  (32) 
O=C(c1ccc(NS(=O)(=O)c2cccc(S(=O)(=O)N3CCCCC3)c2)cc1)N1CCCCC1 (3D coordinates assigned)
O=C(c1ccc(NS(=O)(=O)c2cccc(S(=O)(=O)N3CCCCC3)c2)cc1)N1CCCCC1 (nonaromatic ring conformer: 73.0791251343481 kcal/mol)

>  <smiles>  (32) 
O=C(c1ccc(NS(=O)(=O)c2cccc(S(=O)(=O)N3CCCCC3)c2)cc1)N1CCCCC1

>  <score_type>  (32) 
oracle

>  <origin>  (32) 
adgpu

>  <m_score__min__energy>  (32) 
-11.85

>  <m_primary>  (32) 
energy

$$$$
32:0
     RDKit          3D

 51 53  0  0  0  0  0  0  0  0999 V2000
   -6.3100   17.4690  -31.2880 C   0  0  0  0  0  0  0  0  0  0  0  0
   -6.4060   18.0570  -32.6200 N   0  0  0  0  0  0  0  0  0  0  0  0
   -6.9520   19.7030  -32.4970 S   0  0  0  0  0  0  0  0  0  0  0  0
   -8.0410   19.7870  -31.4670 O   0  0  0  0  0  0  0  0  0  0  0  0
   -7.5030   20.1440  -33.8260 O   0  0  0  0  0  0  0  0  0  0  0  0
   -5.6230   20.7540  -32.0110 C   0  0  0  0  0  0  0  0  0  0  0  0
   -4.3040   20.3060  -32.1330 C   0  0  0  0  0  0  0  0  0  0  0  0
   -3.2440   21.1310  -31.7580 C   0  0  0  0  0  0  0  0  0  0  0  0
   -3.4880   22.4180  -31.2450 C   0  0  0  0  0  0  0  0  0  0  0  0
   -2.4110   23.2870  -30.8640 N   0  0  0  0  0  0  0  0  0  0  0  0
   -1.7660   23.4450  -29.2610 S   0  0  0  0  0  0  0  0  0  0  0  0
   -0.5340   24.3050  -29.3120 O   0  0  0  0  0  0  0  0  0  0  0  0
   -2.7810   24.1200  -28.3820 O   0  0  0  0  0  0  0  0  0  0  0  0
   -1.4060   21.8410  -28.5980 C   0  0  0  0  0  0  0  0  0  0  0  0
   -1.8820   21.5320  -27.3160 C   0  0  0  0  0  0  0  0  0  0  0  0
   -1.5950   20.3050  -26.7240 C   0  0  0  0  0  0  0  0  0  0  0  0
   -0.8330   19.3580  -27.4030 C   0  0  0  0  0  0  0  0  0  0  0  0
   -0.3540   19.6210  -28.6990 C   0  0  0  0  0  0  0  0  0  0  0  0
    0.4120   18.6560  -29.3970 C   0  0  0  0  0  0  0  0  0  0  0  0
    0.6790   17.3640  -28.8240 N   0  0  0  0  0  0  0  0  0  0  0  0
    1.3930   17.2750  -27.5520 C   0  0  0  0  0  0  0  0  0  0  0  0
    0.6430   16.1870  -29.6910 C   0  0  0  0  0  0  0  0  0  0  0  0
    0.9020   18.9500  -30.6740 C   0  0  0  0  0  0  0  0  0  0  0  0
    0.6280   20.1770  -31.2710 C   0  0  0  0  0  0  0  0  0  0  0  0
   -0.1360   21.1310  -30.6030 C   0  0  0  0  0  0  0  0  0  0  0  0
   -0.6360   20.8780  -29.3070 C   0  0  0  0  0  0  0  0  0  0  0  0
   -4.8160   22.8690  -31.1160 C   0  0  0  0  0  0  0  0  0  0  0  0
   -5.1550   24.4770  -30.4630 S   0  0  0  0  0  0  0  0  0  0  0  0
   -3.8680   25.5780  -30.8170 N   0  0  0  0  0  0  0  0  0  0  0  0
   -5.3090   24.3840  -28.9700 O   0  0  0  0  0  0  0  0  0  0  0  0
   -6.4280   25.0010  -31.0660 O   0  0  0  0  0  0  0  0  0  0  0  0
   -5.8760   22.0310  -31.4970 C   0  0  0  0  0  0  0  0  0  0  0  0
   -6.4384   18.2556  -30.5298 H   0  0  0  0  0  0  0  0  0  0  0  0
   -7.0960   16.7094  -31.1650 H   0  0  0  0  0  0  0  0  0  0  0  0
   -5.3232   16.9988  -31.1650 H   0  0  0  0  0  0  0  0  0  0  0  0
   -4.1017   19.2988  -32.5263 H   0  0  0  0  0  0  0  0  0  0  0  0
   -2.2094   20.7727  -31.8641 H   0  0  0  0  0  0  0  0  0  0  0  0
   -2.4902   22.2687  -26.7707 H   0  0  0  0  0  0  0  0  0  0  0  0
   -1.9721   20.0827  -25.7149 H   0  0  0  0  0  0  0  0  0  0  0  0
   -0.6036   18.3958  -26.9217 H   0  0  0  0  0  0  0  0  0  0  0  0
    0.6764   17.3643  -26.7222 H   0  0  0  0  0  0  0  0  0  0  0  0
    1.9089   16.3056  -27.4882 H   0  0  0  0  0  0  0  0  0  0  0  0
    2.1311   18.0881  -27.4882 H   0  0  0  0  0  0  0  0  0  0  0  0
    0.6152   15.2773  -29.0733 H   0  0  0  0  0  0  0  0  0  0  0  0
   -0.2544   16.2266  -30.3260 H   0  0  0  0  0  0  0  0  0  0  0  0
    1.5411   16.1717  -30.3260 H   0  0  0  0  0  0  0  0  0  0  0  0
    1.5086   18.2055  -31.2104 H   0  0  0  0  0  0  0  0  0  0  0  0
    1.0172   20.3947  -32.2766 H   0  0  0  0  0  0  0  0  0  0  0  0
   -0.3524   22.0929  -31.0909 H   0  0  0  0  0  0  0  0  0  0  0  0
   -3.0380   25.2710  -30.2600 H   0  0  0  0  0  0  0  0  0  0  0  0
   -6.9135   22.3808  -31.3907 H   0  0  0  0  0  0  0  0  0  0  0  0
  1  2  1  0
  2  3  1  0
  3  4  2  0
  3  5  2  0
  3  6  1  0
  6  7  2  0
  7  8  1  0
  8  9  2  0
  9 10  1  0
 10 11  1  0
 11 12  2  0
 11 13  2  0
 11 14  1  0
 14 15  2  0
 15 16  1  0
 16 17  2  0
 17 18  1  0
 18 19  2  0
 19 20  1  0
 20 21  1  0
 20 22  1  0
 19 23  1  0
 23 24  2  0
 24 25  1  0
 25 26  2  0
  9 27  1  0
 27 28  1  0
 28 29  1  0
 28 30  2  0
 28 31  2  0
 27 32  2  0
 32  6  1  0
 26 14  1  0
 26 18  1  0
  1 33  1  0
  1 34  1  0
  1 35  1  0
  7 36  1  0
  8 37  1  0
 15 38  1  0
 16 39  1  0
 17 40  1  0
 21 41  1  0
 21 42  1  0
 21 43  1  0
 22 44  1  0
 22 45  1  0
 22 46  1  0
 23 47  1  0
 24 48  1  0
 25 49  1  0
 29 50  1  0
 32 51  1  0
M  CHG  3   2  -1  10  -1  29  -1
M  END
>  <UniqueID>  (33) 
32

>  <SMILES>  (33) 
C[N-]S(=O)(=O)c1ccc([N-]S(=O)(=O)c2cccc3c(N(C)C)cccc23)c(S([NH-])(=O)=O)c1

>  <Energy>  (33) 
65.19569437938766

>  <Genealogy>  (33) 
C[N-]S(=O)(=O)c1ccc([N-]S(=O)(=O)c2cccc3c(N(C)C)cccc23)c(S([NH-])(=O)=O)c1 (protonated)
C[N-]S(=O)(=O)c1ccc([N-]S(=O)(=O)c2cccc3c(N(C)C)cccc23)c(S([NH-])(=O)=O)c1 (3D coordinates assigned)
C[N-]S(=O)(=O)c1ccc([N-]S(=O)(=O)c2cccc3c(N(C)C)cccc23)c(S([NH-])(=O)=O)c1 (optimized conformer: 65.19569437938766 kcal/mol)

>  <smiles>  (33) 
CNS(=O)(=O)c1ccc(NS(=O)(=O)c2cccc3c(N(C)C)cccc23)c(S(N)(=O)=O)c1

>  <score_type>  (33) 
oracle

>  <origin>  (33) 
adgpu

>  <m_score__min__energy>  (33) 
-13.07

>  <m_primary>  (33) 
energy

$$$$
33:0
     RDKit          3D

 59 63  0  0  1  0  0  0  0  0999 V2000
   -1.3270   20.0060  -33.9050 C   0  0  0  0  0  0  0  0  0  0  0  0
   -2.3480   18.9540  -33.9930 N   0  0  0  0  0  0  0  0  0  0  0  0
   -1.9570   17.7140  -34.6050 C   0  0  0  0  0  0  0  0  0  0  0  0
   -0.7890   17.5400  -35.0490 O   0  0  0  0  0  0  0  0  0  0  0  0
   -2.9930   16.6900  -34.6740 C   0  0  0  0  0  0  0  0  0  0  0  0
   -2.7670   15.4480  -35.2450 C   0  0  0  0  0  0  0  0  0  0  0  0
   -3.9170   14.7770  -35.1280 N   0  0  0  0  0  0  0  0  0  0  0  0
   -4.8470   15.5080  -34.5250 N   0  0  0  0  0  0  0  0  0  0  0  0
   -6.1260   15.1870  -34.2180 C   0  0  0  0  0  0  0  0  0  0  0  0
   -6.6470   13.9060  -34.5480 N   0  0  0  0  0  0  0  0  0  0  0  0
   -6.4270   12.7150  -33.7630 C   0  0  0  0  0  0  0  0  0  0  0  0
   -5.3190   12.8320  -32.7210 C   0  0  0  0  0  0  0  0  0  0  0  0
   -5.0850   12.0660  -33.9520 C   0  0  0  0  0  0  0  0  0  0  0  0
   -6.8620   16.1640  -33.5780 C   0  0  0  0  0  0  0  0  0  0  0  0
   -6.2560   17.3930  -33.2920 C   0  0  0  0  0  0  0  0  0  0  0  0
   -6.9370   18.2530  -32.6850 N   0  0  0  0  0  0  0  0  0  0  0  0
   -6.5980   19.5500  -32.2760 C   0  0  0  0  0  0  0  0  0  0  0  0
   -5.2680   19.7060  -31.8130 C   0  0  0  0  0  0  0  0  0  0  0  0
   -4.8150   20.9300  -31.3790 C   0  0  0  0  0  0  0  0  0  0  0  0
   -5.6400   22.0290  -31.3850 C   0  0  0  0  0  0  0  0  0  0  0  0
   -5.1130   23.2980  -30.9280 N   0  0  0  0  0  0  0  0  0  0  0  0
   -3.8410   23.2440  -30.2630 C   0  0  0  0  0  0  0  0  0  0  0  0
   -3.5570   24.5770  -29.6220 C   0  0  0  0  0  0  0  0  0  0  0  0
   -3.9780   25.5470  -30.5170 O   0  0  0  0  0  0  0  0  0  0  0  0
   -5.3640   25.6390  -30.4560 C   0  0  0  0  0  0  0  0  0  0  0  0
   -5.9190   24.4460  -31.1940 C   0  0  0  0  0  0  0  0  0  0  0  0
   -6.9400   21.8970  -31.8320 C   0  0  0  0  0  0  0  0  0  0  0  0
   -7.4210   20.6530  -32.2790 C   0  0  0  0  0  0  0  0  0  0  0  0
   -8.7130   20.5390  -32.7190 O   0  0  0  0  0  0  0  0  0  0  0  0
   -9.7570   21.1320  -31.9660 C   0  0  0  0  0  0  0  0  0  0  0  0
   -4.9870   17.6550  -33.6170 N   0  0  0  0  0  0  0  0  0  0  0  0
   -4.2930   16.6930  -34.2380 C   0  0  0  0  0  0  0  0  0  0  0  0
   -1.1154   20.2241  -32.8478 H   0  0  0  0  0  0  0  0  0  0  0  0
   -0.4059   19.6654  -34.4006 H   0  0  0  0  0  0  0  0  0  0  0  0
   -1.6950   20.9165  -34.4006 H   0  0  0  0  0  0  0  0  0  0  0  0
   -3.3130   19.1170  -33.6230 H   0  0  0  0  0  0  0  0  0  0  0  0
   -1.8329   15.0881  -35.7010 H   0  0  0  0  0  0  0  0  0  0  0  0
   -4.0710   13.7840  -35.4720 H   0  0  0  0  0  0  0  0  0  0  0  0
   -7.2360   13.8340  -35.4320 H   0  0  0  0  0  0  0  0  0  0  0  0
   -7.4745   12.3794  -33.7726 H   0  0  0  0  0  0  0  0  0  0  0  0
   -4.8087   13.7943  -32.5673 H   0  0  0  0  0  0  0  0  0  0  0  0
   -5.2387   12.6167  -31.6453 H   0  0  0  0  0  0  0  0  0  0  0  0
   -4.3934   12.4559  -34.7134 H   0  0  0  0  0  0  0  0  0  0  0  0
   -4.7524   11.0394  -34.1653 H   0  0  0  0  0  0  0  0  0  0  0  0
   -7.9093   15.9794  -33.2969 H   0  0  0  0  0  0  0  0  0  0  0  0
   -4.5908   18.8393  -31.8005 H   0  0  0  0  0  0  0  0  0  0  0  0
   -3.7792   21.0305  -31.0226 H   0  0  0  0  0  0  0  0  0  0  0  0
   -3.8636   22.4619  -29.4898 H   0  0  0  0  0  0  0  0  0  0  0  0
   -3.0527   23.0115  -30.9941 H   0  0  0  0  0  0  0  0  0  0  0  0
   -4.1106   24.6683  -28.6759 H   0  0  0  0  0  0  0  0  0  0  0  0
   -2.4864   24.6865  -29.3946 H   0  0  0  0  0  0  0  0  0  0  0  0
   -5.6977   25.6234  -29.4080 H   0  0  0  0  0  0  0  0  0  0  0  0
   -5.7150   26.5782  -30.9085 H   0  0  0  0  0  0  0  0  0  0  0  0
   -6.9491   24.2553  -30.8585 H   0  0  0  0  0  0  0  0  0  0  0  0
   -5.9146   24.6517  -32.2746 H   0  0  0  0  0  0  0  0  0  0  0  0
   -7.6055   22.7728  -31.8386 H   0  0  0  0  0  0  0  0  0  0  0  0
   -9.5480   21.0133  -30.8926 H   0  0  0  0  0  0  0  0  0  0  0  0
   -9.8231   22.2024  -32.2105 H   0  0  0  0  0  0  0  0  0  0  0  0
  -10.7103   20.6405  -32.2105 H   0  0  0  0  0  0  0  0  0  0  0  0
  1  2  1  0
  2  3  1  0
  3  4  2  0
  3  5  1  0
  5  6  2  0
  6  7  1  0
  7  8  1  0
  8  9  1  0
  9 10  1  0
 10 11  1  0
 11 12  1  0
 12 13  1  0
  9 14  2  0
 14 15  1  0
 15 16  2  0
 16 17  1  0
 17 18  2  0
 18 19  1  0
 19 20  2  0
 20 21  1  0
 21 22  1  0
 22 23  1  0
 23 24  1  0
 24 25  1  0
 25 26  1  0
 20 27  1  0
 27 28  2  0
 28 29  1  0
 29 30  1  0
 15 31  1  0
 31 32  2  0
 32  5  1  0
 32  8  1  0
 13 11  1  0
 28 17  1  0
 26 21  1  0
  1 33  1  0
  1 34  1  0
  1 35  1  0
  2 36  1  0
  6 37  1  0
  7 38  1  0
 10 39  1  0
 11 40  1  0
 12 41  1  0
 12 42  1  0
 13 43  1  0
 13 44  1  0
 14 45  1  0
 18 46  1  0
 19 47  1  0
 22 48  1  0
 22 49  1  0
 23 50  1  0
 23 51  1  0
 25 52  1  0
 25 53  1  0
 26 54  1  0
 26 55  1  0
 27 56  1  0
 30 57  1  0
 30 58  1  0
 30 59  1  0
M  END
>  <smiles>  (34) 
CNC(=O)c1c[nH]n2c(NC3CC3)cc(=Nc3ccc(N4CCOCC4)cc3OC)nc12

>  <score_type>  (34) 
oracle

>  <origin>  (34) 
adgpu

>  <m_score__min__energy>  (34) 
-9.2799999999999994

>  <m_primary>  (34) 
energy

$$$$
34:0
     RDKit          3D

 49 52  0  0  0  0  0  0  0  0999 V2000
   -1.1620   26.7900  -24.0080 C   0  0  0  0  0  0  0  0  0  0  0  0
   -0.9960   25.8390  -25.1180 N   0  0  0  0  0  0  0  0  0  0  0  0
   -0.4980   24.5490  -24.6100 C   0  0  0  0  0  0  0  0  0  0  0  0
   -0.1050   23.6510  -25.7840 C   0  0  0  0  0  0  0  0  0  0  0  0
   -1.1800   23.6090  -26.8400 C   0  0  0  0  0  0  0  0  0  0  0  0
   -1.1250   22.6250  -27.8380 C   0  0  0  0  0  0  0  0  0  0  0  0
   -2.0830   22.5950  -28.8530 C   0  0  0  0  0  0  0  0  0  0  0  0
   -3.1150   23.5380  -28.8840 C   0  0  0  0  0  0  0  0  0  0  0  0
   -4.0730   23.4740  -29.9510 N   0  0  0  0  0  0  0  0  0  0  0  0
   -4.4850   24.5540  -30.7940 C   0  0  0  0  0  0  0  0  0  0  0  0
   -3.8830   25.6620  -30.7620 O   0  0  0  0  0  0  0  0  0  0  0  0
   -5.5980   24.3630  -31.6730 N   0  0  0  0  0  0  0  0  0  0  0  0
   -6.3630   23.1540  -31.7860 C   0  0  0  0  0  0  0  0  0  0  0  0
   -7.7540   23.2510  -31.7700 C   0  0  0  0  0  0  0  0  0  0  0  0
   -8.5390   22.1070  -31.8350 C   0  0  0  0  0  0  0  0  0  0  0  0
   -7.9530   20.8460  -31.9670 C   0  0  0  0  0  0  0  0  0  0  0  0
   -9.0490   19.4680  -31.9500 Cl  0  0  0  0  0  0  0  0  0  0  0  0
   -6.5440   20.7240  -32.0770 C   0  0  0  0  0  0  0  0  0  0  0  0
   -5.7720   19.1450  -32.3800 S   0  0  0  0  0  0  0  0  0  0  0  0
   -4.2730   19.2630  -32.4380 O   0  0  0  0  0  0  0  0  0  0  0  0
   -6.0970   18.2020  -31.2560 O   0  0  0  0  0  0  0  0  0  0  0  0
   -6.4150   18.4860  -33.9170 C   0  0  0  0  0  0  0  0  0  0  0  0
   -5.3590   18.1450  -34.9550 C   0  0  0  0  0  0  0  0  0  0  0  0
   -6.0640   17.0330  -34.1940 C   0  0  0  0  0  0  0  0  0  0  0  0
   -5.7470   21.8960  -31.9510 C   0  0  0  0  0  0  0  0  0  0  0  0
   -4.3510   21.8490  -31.9970 O   0  0  0  0  0  0  0  0  0  0  0  0
   -3.1520   24.5500  -27.9080 C   0  0  0  0  0  0  0  0  0  0  0  0
   -2.1830   24.5980  -26.8940 C   0  0  0  0  0  0  0  0  0  0  0  0
   -2.2850   25.6490  -25.8130 C   0  0  0  0  0  0  0  0  0  0  0  0
   -1.0688   26.2562  -23.0508 H   0  0  0  0  0  0  0  0  0  0  0  0
   -0.3859   27.5669  -24.0716 H   0  0  0  0  0  0  0  0  0  0  0  0
   -2.1554   27.2580  -24.0716 H   0  0  0  0  0  0  0  0  0  0  0  0
    0.3809   24.7219  -23.9715 H   0  0  0  0  0  0  0  0  0  0  0  0
   -1.2888   24.0580  -24.0240 H   0  0  0  0  0  0  0  0  0  0  0  0
    0.8213   24.0378  -26.2338 H   0  0  0  0  0  0  0  0  0  0  0  0
    0.0385   22.6299  -25.4008 H   0  0  0  0  0  0  0  0  0  0  0  0
   -0.3226   21.8728  -27.8208 H   0  0  0  0  0  0  0  0  0  0  0  0
   -2.0255   21.8233  -29.6347 H   0  0  0  0  0  0  0  0  0  0  0  0
   -8.2324   24.2394  -31.7055 H   0  0  0  0  0  0  0  0  0  0  0  0
   -9.6342   22.1950  -31.7819 H   0  0  0  0  0  0  0  0  0  0  0  0
   -7.3447   19.0739  -33.9116 H   0  0  0  0  0  0  0  0  0  0  0  0
   -5.5687   18.2986  -36.0239 H   0  0  0  0  0  0  0  0  0  0  0  0
   -4.3096   18.4306  -35.1198 H   0  0  0  0  0  0  0  0  0  0  0  0
   -6.7838   16.3823  -34.7122 H   0  0  0  0  0  0  0  0  0  0  0  0
   -5.7361   16.1811  -33.5802 H   0  0  0  0  0  0  0  0  0  0  0  0
   -3.7440   22.5230  -31.5520 H   0  0  0  0  0  0  0  0  0  0  0  0
   -3.9467   25.3099  -27.9397 H   0  0  0  0  0  0  0  0  0  0  0  0
   -2.5887   26.6026  -26.2695 H   0  0  0  0  0  0  0  0  0  0  0  0
   -3.0283   25.3132  -25.0749 H   0  0  0  0  0  0  0  0  0  0  0  0
  1  2  1  0
  2  3  1  0
  3  4  1  0
  4  5  1  0
  5  6  2  0
  6  7  1  0
  7  8  2  0
  8  9  1  0
  9 10  1  0
 10 11  2  0
 10 12  1  0
 12 13  1  0
 13 14  2  0
 14 15  1  0
 15 16  2  0
 16 17  1  0
 16 18  1  0
 18 19  1  0
 19 20  2  0
 19 21  2  0
 19 22  1  0
 22 23  1  0
 23 24  1  0
 18 25  2  0
 25 26  1  0
  8 27  1  0
 27 28  2  0
 28 29  1  0
 29  2  1  0
 28  5  1  0
 25 13  1  0
 24 22  1  0
  1 30  1  0
  1 31  1  0
  1 32  1  0
  3 33  1  0
  3 34  1  0
  4 35  1  0
  4 36  1  0
  6 37  1  0
  7 38  1  0
 14 39  1  0
 15 40  1  0
 22 41  1  0
 23 42  1  0
 23 43  1  0
 24 44  1  0
 24 45  1  0
 26 46  1  0
 27 47  1  0
 29 48  1  0
 29 49  1  0
M  CHG  2   9  -1  12  -1
M  END
>  <UniqueID>  (35) 
33

>  <SMILES>  (35) 
CN1CCc2ccc([N-]C(=O)[N-]c3ccc(Cl)c(S(=O)(=O)C4CC4)c3O)cc2C1

>  <Energy>  (35) 
332.1993854263766

>  <Genealogy>  (35) 
CN1CCc2ccc([N-]C(=O)[N-]c3ccc(Cl)c(S(=O)(=O)C4CC4)c3O)cc2C1 (protonated)
CN1CCc2ccc([N-]C(=O)[N-]c3ccc(Cl)c(S(=O)(=O)C4CC4)c3O)cc2C1 (3D coordinates assigned)
CN1CCc2ccc([N-]C(=O)[N-]c3ccc(Cl)c(S(=O)(=O)C4CC4)c3O)cc2C1 (nonaromatic ring conformer: 332.1993854263766 kcal/mol)

>  <smiles>  (35) 
CN1CCc2ccc(NC(=O)Nc3ccc(Cl)c(S(=O)(=O)C4CC4)c3O)cc2C1

>  <score_type>  (35) 
oracle

>  <origin>  (35) 
adgpu

>  <m_score__min__energy>  (35) 
-13.949999999999999

>  <m_primary>  (35) 
energy

$$$$
35:0
     RDKit          3D

 56 59  0  0  0  0  0  0  0  0999 V2000
   -2.4580   22.3710  -31.7330 O   0  0  0  0  0  0  0  0  0  0  0  0
   -3.2390   22.4100  -30.7440 C   0  0  0  0  0  0  0  0  0  0  0  0
   -2.8610   21.8130  -29.4970 N   0  0  0  0  0  0  0  0  0  0  0  0
   -2.0660   22.3850  -28.4440 C   0  0  0  0  0  0  0  0  0  0  0  0
   -1.6950   23.7430  -28.4350 C   0  0  0  0  0  0  0  0  0  0  0  0
   -0.8930   24.2590  -27.4050 C   0  0  0  0  0  0  0  0  0  0  0  0
   -0.4470   25.9740  -27.4090 S   0  0  0  0  0  0  0  0  0  0  0  0
   -1.0360   26.6230  -28.6280 O   0  0  0  0  0  0  0  0  0  0  0  0
    1.0470   26.0810  -27.4930 O   0  0  0  0  0  0  0  0  0  0  0  0
   -1.0290   26.8620  -26.0140 N   0  0  0  0  0  0  0  0  0  0  0  0
   -0.0110   27.7550  -25.4500 C   0  0  0  0  0  0  0  0  0  0  0  0
   -0.1210   27.6670  -23.9400 C   0  0  0  0  0  0  0  0  0  0  0  0
   -0.7070   26.2990  -23.6840 C   0  0  0  0  0  0  0  0  0  0  0  0
   -1.5140   25.9900  -24.9350 C   0  0  0  0  0  0  0  0  0  0  0  0
   -0.4200   23.3970  -26.4070 C   0  0  0  0  0  0  0  0  0  0  0  0
   -0.7790   22.0490  -26.4140 C   0  0  0  0  0  0  0  0  0  0  0  0
   -1.5940   21.5430  -27.4310 C   0  0  0  0  0  0  0  0  0  0  0  0
   -1.9210   20.1910  -27.4360 O   0  0  0  0  0  0  0  0  0  0  0  0
   -4.5380   23.1250  -30.8470 C   0  0  0  0  0  0  0  0  0  0  0  0
   -5.7130   22.3910  -31.0960 C   0  0  0  0  0  0  0  0  0  0  0  0
   -6.9560   23.0340  -31.1850 C   0  0  0  0  0  0  0  0  0  0  0  0
   -8.4300   22.0870  -31.4250 S   0  0  0  0  0  0  0  0  0  0  0  0
   -8.8960   21.5660  -30.0960 O   0  0  0  0  0  0  0  0  0  0  0  0
   -9.5050   22.9750  -31.9810 O   0  0  0  0  0  0  0  0  0  0  0  0
   -8.1630   20.7470  -32.5170 N   0  0  0  0  0  0  0  0  0  0  0  0
   -6.7980   20.7620  -33.0900 C   0  0  0  0  0  0  0  0  0  0  0  0
   -5.8780   19.7230  -32.4180 C   0  0  0  0  0  0  0  0  0  0  0  0
   -6.3610   18.3900  -32.5310 O   0  0  0  0  0  0  0  0  0  0  0  0
   -7.7810   18.2930  -32.5280 C   0  0  0  0  0  0  0  0  0  0  0  0
   -8.4900   19.4750  -31.8410 C   0  0  0  0  0  0  0  0  0  0  0  0
   -7.0250   24.4280  -31.0690 C   0  0  0  0  0  0  0  0  0  0  0  0
   -5.8670   25.1700  -30.8320 C   0  0  0  0  0  0  0  0  0  0  0  0
   -4.6280   24.5300  -30.7100 C   0  0  0  0  0  0  0  0  0  0  0  0
   -3.4960   25.3000  -30.4660 O   0  0  0  0  0  0  0  0  0  0  0  0
   -2.0370   24.4063  -29.2431 H   0  0  0  0  0  0  0  0  0  0  0  0
    0.9907   27.4360  -25.7737 H   0  0  0  0  0  0  0  0  0  0  0  0
   -0.1667   28.7887  -25.7924 H   0  0  0  0  0  0  0  0  0  0  0  0
    0.8700   27.7596  -23.4717 H   0  0  0  0  0  0  0  0  0  0  0  0
   -0.7388   28.4730  -23.5174 H   0  0  0  0  0  0  0  0  0  0  0  0
    0.0905   25.5548  -23.5422 H   0  0  0  0  0  0  0  0  0  0  0  0
   -1.3219   26.2714  -22.7723 H   0  0  0  0  0  0  0  0  0  0  0  0
   -1.3770   24.9356  -25.2169 H   0  0  0  0  0  0  0  0  0  0  0  0
   -2.5845   26.1660  -24.7529 H   0  0  0  0  0  0  0  0  0  0  0  0
    0.2372   23.7847  -25.6146 H   0  0  0  0  0  0  0  0  0  0  0  0
   -0.4196   21.3819  -25.6166 H   0  0  0  0  0  0  0  0  0  0  0  0
   -5.6555   21.2998  -31.2223 H   0  0  0  0  0  0  0  0  0  0  0  0
   -6.8616   20.5375  -34.1650 H   0  0  0  0  0  0  0  0  0  0  0  0
   -6.3677   21.7594  -32.9166 H   0  0  0  0  0  0  0  0  0  0  0  0
   -4.8863   19.7767  -32.8908 H   0  0  0  0  0  0  0  0  0  0  0  0
   -5.8387   19.9664  -31.3460 H   0  0  0  0  0  0  0  0  0  0  0  0
   -8.1261   18.2421  -33.5712 H   0  0  0  0  0  0  0  0  0  0  0  0
   -8.0364   17.3914  -31.9519 H   0  0  0  0  0  0  0  0  0  0  0  0
   -9.5776   19.3151  -31.8798 H   0  0  0  0  0  0  0  0  0  0  0  0
   -8.1486   19.5325  -30.7969 H   0  0  0  0  0  0  0  0  0  0  0  0
   -7.9942   24.9393  -31.1649 H   0  0  0  0  0  0  0  0  0  0  0  0
   -5.9282   26.2645  -30.7405 H   0  0  0  0  0  0  0  0  0  0  0  0
  1  2  2  0
  2  3  1  0
  3  4  1  0
  4  5  2  0
  5  6  1  0
  6  7  1  0
  7  8  2  0
  7  9  2  0
  7 10  1  0
 10 11  1  0
 11 12  1  0
 12 13  1  0
 13 14  1  0
  6 15  2  0
 15 16  1  0
 16 17  2  0
 17 18  1  0
  2 19  1  0
 19 20  2  0
 20 21  1  0
 21 22  1  0
 22 23  2  0
 22 24  2  0
 22 25  1  0
 25 26  1  0
 26 27  1  0
 27 28  1  0
 28 29  1  0
 29 30  1  0
 21 31  2  0
 31 32  1  0
 32 33  2  0
 33 34  1  0
 17  4  1  0
 33 19  1  0
 14 10  1  0
 30 25  1  0
  5 35  1  0
 11 36  1  0
 11 37  1  0
 12 38  1  0
 12 39  1  0
 13 40  1  0
 13 41  1  0
 14 42  1  0
 14 43  1  0
 15 44  1  0
 16 45  1  0
 20 46  1  0
 26 47  1  0
 26 48  1  0
 27 49  1  0
 27 50  1  0
 29 51  1  0
 29 52  1  0
 30 53  1  0
 30 54  1  0
 31 55  1  0
 32 56  1  0
M  CHG  3   3  -1  18  -1  34  -1
M  END
>  <UniqueID>  (36) 
34

>  <SMILES>  (36) 
O=C([N-]c1cc(S(=O)(=O)N2CCCC2)ccc1[O-])c1cc(S(=O)(=O)N2CCOCC2)ccc1[O-]

>  <Energy>  (36) 
80.56222644964524

>  <Genealogy>  (36) 
O=C([N-]c1cc(S(=O)(=O)N2CCCC2)ccc1[O-])c1cc(S(=O)(=O)N2CCOCC2)ccc1[O-] (protonated)
O=C([N-]c1cc(S(=O)(=O)N2CCCC2)ccc1[O-])c1cc(S(=O)(=O)N2CCOCC2)ccc1[O-] (3D coordinates assigned)
O=C([N-]c1cc(S(=O)(=O)N2CCCC2)ccc1[O-])c1cc(S(=O)(=O)N2CCOCC2)ccc1[O-] (nonaromatic ring conformer: 80.56222644964524 kcal/mol)

>  <smiles>  (36) 
O=C(Nc1cc(S(=O)(=O)N2CCCC2)ccc1O)c1cc(S(=O)(=O)N2CCOCC2)ccc1O

>  <score_type>  (36) 
oracle

>  <origin>  (36) 
adgpu

>  <m_score__min__energy>  (36) 
-14.65

>  <m_primary>  (36) 
energy

$$$$
36:0
     RDKit          3D

 46 47  0  0  0  0  0  0  0  0999 V2000
   -7.6040   22.6710  -30.0530 C   0  0  0  0  0  0  0  0  0  0  0  0
   -6.2600   23.3330  -30.0030 C   0  0  0  0  0  0  0  0  0  0  0  0
   -6.1180   24.6730  -30.3900 C   0  0  0  0  0  0  0  0  0  0  0  0
   -4.8770   25.3050  -30.2990 C   0  0  0  0  0  0  0  0  0  0  0  0
   -3.7670   24.6120  -29.8050 C   0  0  0  0  0  0  0  0  0  0  0  0
   -2.5450   25.2710  -29.7140 O   0  0  0  0  0  0  0  0  0  0  0  0
   -3.8960   23.2690  -29.4000 C   0  0  0  0  0  0  0  0  0  0  0  0
   -2.7330   22.5070  -28.8150 C   0  0  0  0  0  0  0  0  0  0  0  0
   -2.6600   21.1470  -29.3720 N   0  0  0  0  0  0  0  0  0  0  0  0
   -1.2750   20.6580  -29.5000 C   0  0  0  0  0  0  0  0  0  0  0  0
   -0.9560   20.3620  -30.9660 C   0  0  0  0  0  0  0  0  0  0  0  0
   -2.1090   19.7330  -31.6140 N   0  0  0  0  0  0  0  0  0  0  0  0
   -2.9470   20.8630  -32.6390 S   0  0  0  0  0  0  0  0  0  0  0  0
   -2.4000   20.7600  -34.0340 O   0  0  0  0  0  0  0  0  0  0  0  0
   -2.7260   22.2570  -32.1240 O   0  0  0  0  0  0  0  0  0  0  0  0
   -4.6710   20.5010  -32.6690 C   0  0  0  0  0  0  0  0  0  0  0  0
   -5.6040   21.5410  -32.7110 C   0  0  0  0  0  0  0  0  0  0  0  0
   -6.9720   21.2580  -32.7230 C   0  0  0  0  0  0  0  0  0  0  0  0
   -7.4280   19.9310  -32.6910 C   0  0  0  0  0  0  0  0  0  0  0  0
   -8.9090   19.6580  -32.7000 C   0  0  0  0  0  0  0  0  0  0  0  0
   -6.4860   18.8740  -32.6560 C   0  0  0  0  0  0  0  0  0  0  0  0
   -6.9290   17.4340  -32.6160 C   0  0  0  0  0  0  0  0  0  0  0  0
   -5.1140   19.1730  -32.6510 C   0  0  0  0  0  0  0  0  0  0  0  0
   -5.1490   22.6390  -29.4980 C   0  0  0  0  0  0  0  0  0  0  0  0
   -7.9638   22.4938  -29.0287 H   0  0  0  0  0  0  0  0  0  0  0  0
   -8.3141   23.3224  -30.5835 H   0  0  0  0  0  0  0  0  0  0  0  0
   -7.5204   21.7110  -30.5835 H   0  0  0  0  0  0  0  0  0  0  0  0
   -6.9890   25.2290  -30.7672 H   0  0  0  0  0  0  0  0  0  0  0  0
   -4.7714   26.3527  -30.6172 H   0  0  0  0  0  0  0  0  0  0  0  0
   -1.7998   23.0412  -29.0468 H   0  0  0  0  0  0  0  0  0  0  0  0
   -2.8745   22.4329  -27.7267 H   0  0  0  0  0  0  0  0  0  0  0  0
   -3.0800   21.1850  -30.3310 H   0  0  0  0  0  0  0  0  0  0  0  0
   -0.5820   21.4253  -29.1246 H   0  0  0  0  0  0  0  0  0  0  0  0
   -1.1636   19.7341  -28.9135 H   0  0  0  0  0  0  0  0  0  0  0  0
   -0.7160   21.3026  -31.4834 H   0  0  0  0  0  0  0  0  0  0  0  0
   -0.0963   19.6776  -31.0167 H   0  0  0  0  0  0  0  0  0  0  0  0
   -5.2600   22.5856  -32.7347 H   0  0  0  0  0  0  0  0  0  0  0  0
   -7.6987   22.0830  -32.7579 H   0  0  0  0  0  0  0  0  0  0  0  0
   -9.2757   19.5904  -31.6651 H   0  0  0  0  0  0  0  0  0  0  0  0
   -9.4294   20.4754  -33.2207 H   0  0  0  0  0  0  0  0  0  0  0  0
   -9.1037   18.7088  -33.2207 H   0  0  0  0  0  0  0  0  0  0  0  0
   -7.0287   17.1100  -31.5695 H   0  0  0  0  0  0  0  0  0  0  0  0
   -7.8993   17.3346  -33.1246 H   0  0  0  0  0  0  0  0  0  0  0  0
   -6.1824   16.8064  -33.1246 H   0  0  0  0  0  0  0  0  0  0  0  0
   -4.3791   18.3547  -32.6327 H   0  0  0  0  0  0  0  0  0  0  0  0
   -5.2599   21.5930  -29.1761 H   0  0  0  0  0  0  0  0  0  0  0  0
  1  2  1  0
  2  3  2  0
  3  4  1  0
  4  5  2  0
  5  6  1  0
  5  7  1  0
  7  8  1  0
  8  9  1  0
  9 10  1  0
 10 11  1  0
 11 12  1  0
 12 13  1  0
 13 14  2  0
 13 15  2  0
 13 16  1  0
 16 17  2  0
 17 18  1  0
 18 19  2  0
 19 20  1  0
 19 21  1  0
 21 22  1  0
 21 23  2  0
  7 24  2  0
 24  2  1  0
 23 16  1  0
  1 25  1  0
  1 26  1  0
  1 27  1  0
  3 28  1  0
  4 29  1  0
  8 30  1  0
  8 31  1  0
  9 32  1  0
 10 33  1  0
 10 34  1  0
 11 35  1  0
 11 36  1  0
 17 37  1  0
 18 38  1  0
 20 39  1  0
 20 40  1  0
 20 41  1  0
 22 42  1  0
 22 43  1  0
 22 44  1  0
 23 45  1  0
 24 46  1  0
M  CHG  2   6  -1  12  -1
M  END
>  <UniqueID>  (37) 
35

>  <SMILES>  (37) 
Cc1ccc([O-])c(CNCC[N-]S(=O)(=O)c2ccc(C)c(C)c2)c1

>  <Energy>  (37) 
43.544220103395794

>  <Genealogy>  (37) 
Cc1ccc([O-])c(CNCC[N-]S(=O)(=O)c2ccc(C)c(C)c2)c1 (protonated)
Cc1ccc([O-])c(CNCC[N-]S(=O)(=O)c2ccc(C)c(C)c2)c1 (3D coordinates assigned)
Cc1ccc([O-])c(CNCC[N-]S(=O)(=O)c2ccc(C)c(C)c2)c1 (optimized conformer: 43.544220103395794 kcal/mol)

>  <smiles>  (37) 
Cc1ccc(O)c(CNCCNS(=O)(=O)c2ccc(C)c(C)c2)c1

>  <score_type>  (37) 
oracle

>  <origin>  (37) 
adgpu

>  <m_score__min__energy>  (37) 
-12.220000000000001

>  <m_primary>  (37) 
energy

$$$$
37:0
     RDKit          3D

 65 68  0  0  0  0  0  0  0  0999 V2000
    2.7240   16.2130  -29.3160 C   0  0  0  0  0  0  0  0  0  0  0  0
    2.1470   17.0020  -28.1150 C   0  0  0  0  0  0  0  0  0  0  0  0
    1.5910   15.9770  -27.1030 C   0  0  0  0  0  0  0  0  0  0  0  0
    3.3120   17.7830  -27.4680 C   0  0  0  0  0  0  0  0  0  0  0  0
    1.0270   17.9850  -28.5180 C   0  0  0  0  0  0  0  0  0  0  0  0
    0.2860   18.7260  -27.5730 C   0  0  0  0  0  0  0  0  0  0  0  0
   -0.7140   19.6110  -27.9790 C   0  0  0  0  0  0  0  0  0  0  0  0
   -1.0150   19.7770  -29.3340 C   0  0  0  0  0  0  0  0  0  0  0  0
   -2.0710   20.6770  -29.6980 N   0  0  0  0  0  0  0  0  0  0  0  0
   -1.8210   22.0190  -30.1450 C   0  0  0  0  0  0  0  0  0  0  0  0
   -0.6350   22.4210  -30.2950 O   0  0  0  0  0  0  0  0  0  0  0  0
   -2.9520   22.9390  -30.4140 C   0  0  0  0  0  0  0  0  0  0  0  0
   -2.9730   24.1870  -29.7730 C   0  0  0  0  0  0  0  0  0  0  0  0
   -3.9390   25.0950  -30.0610 N   0  0  0  0  0  0  0  0  0  0  0  0
   -4.9260   24.8350  -30.9530 C   0  0  0  0  0  0  0  0  0  0  0  0
   -5.8000   25.7120  -31.1820 O   0  0  0  0  0  0  0  0  0  0  0  0
   -4.9840   23.5910  -31.5970 C   0  0  0  0  0  0  0  0  0  0  0  0
   -6.0660   23.3160  -32.5020 N   0  0  0  0  0  0  0  0  0  0  0  0
   -7.0710   22.3140  -32.2610 C   0  0  0  0  0  0  0  0  0  0  0  0
   -8.2140   22.6500  -31.5180 C   0  0  0  0  0  0  0  0  0  0  0  0
   -9.2020   21.6930  -31.2640 C   0  0  0  0  0  0  0  0  0  0  0  0
   -9.0530   20.3900  -31.7450 C   0  0  0  0  0  0  0  0  0  0  0  0
   -7.9160   20.0410  -32.4770 C   0  0  0  0  0  0  0  0  0  0  0  0
   -6.9250   20.9940  -32.7320 C   0  0  0  0  0  0  0  0  0  0  0  0
   -3.9820   22.6310  -31.3370 C   0  0  0  0  0  0  0  0  0  0  0  0
   -4.0300   21.3520  -31.9900 N   0  0  0  0  0  0  0  0  0  0  0  0
   -0.2690   19.0720  -30.3040 C   0  0  0  0  0  0  0  0  0  0  0  0
   -0.4680   19.2980  -31.7130 N   0  0  0  0  0  0  0  0  0  0  0  0
   -1.2920   18.3800  -32.5070 C   0  0  0  0  0  0  0  0  0  0  0  0
   -2.2570   19.1700  -33.4100 C   0  0  0  0  0  0  0  0  0  0  0  0
   -1.6730   20.3870  -34.0190 N   0  0  0  0  0  0  0  0  0  0  0  0
   -0.2160   20.5020  -33.8520 C   0  0  0  0  0  0  0  0  0  0  0  0
    0.1610   20.4510  -32.3680 C   0  0  0  0  0  0  0  0  0  0  0  0
    0.7370   18.1860  -29.8850 C   0  0  0  0  0  0  0  0  0  0  0  0
    3.3354   15.3769  -28.9457 H   0  0  0  0  0  0  0  0  0  0  0  0
    1.8983   15.8206  -29.9277 H   0  0  0  0  0  0  0  0  0  0  0  0
    3.3482   16.8810  -29.9277 H   0  0  0  0  0  0  0  0  0  0  0  0
    1.7831   16.3311  -26.0794 H   0  0  0  0  0  0  0  0  0  0  0  0
    0.5074   15.8631  -27.2543 H   0  0  0  0  0  0  0  0  0  0  0  0
    2.0864   15.0066  -27.2543 H   0  0  0  0  0  0  0  0  0  0  0  0
    3.2277   17.7265  -26.3727 H   0  0  0  0  0  0  0  0  0  0  0  0
    4.2691   17.3433  -27.7853 H   0  0  0  0  0  0  0  0  0  0  0  0
    3.2689   18.8354  -27.7853 H   0  0  0  0  0  0  0  0  0  0  0  0
    0.4996   18.6044  -26.5008 H   0  0  0  0  0  0  0  0  0  0  0  0
   -1.2717   20.1845  -27.2240 H   0  0  0  0  0  0  0  0  0  0  0  0
   -3.0230   20.2750  -29.8530 H   0  0  0  0  0  0  0  0  0  0  0  0
   -2.1993   24.4314  -29.0303 H   0  0  0  0  0  0  0  0  0  0  0  0
   -6.1860   23.9570  -33.3180 H   0  0  0  0  0  0  0  0  0  0  0  0
   -8.3334   23.6734  -31.1328 H   0  0  0  0  0  0  0  0  0  0  0  0
  -10.0966   21.9665  -30.6853 H   0  0  0  0  0  0  0  0  0  0  0  0
   -9.8315   19.6385  -31.5471 H   0  0  0  0  0  0  0  0  0  0  0  0
   -7.7998   19.0141  -32.8538 H   0  0  0  0  0  0  0  0  0  0  0  0
   -6.0278   20.7121  -33.3026 H   0  0  0  0  0  0  0  0  0  0  0  0
   -4.7860   20.6630  -31.7880 H   0  0  0  0  0  0  0  0  0  0  0  0
   -3.3520   21.1030  -32.7440 H   0  0  0  0  0  0  0  0  0  0  0  0
   -0.6381   17.7558  -33.1338 H   0  0  0  0  0  0  0  0  0  0  0  0
   -1.8788   17.7467  -31.8254 H   0  0  0  0  0  0  0  0  0  0  0  0
   -2.5893   18.5057  -34.2214 H   0  0  0  0  0  0  0  0  0  0  0  0
   -3.0814   19.5084  -32.7652 H   0  0  0  0  0  0  0  0  0  0  0  0
   -2.1170   21.2290  -33.5820 H   0  0  0  0  0  0  0  0  0  0  0  0
    0.2752   19.6706  -34.3788 H   0  0  0  0  0  0  0  0  0  0  0  0
    0.1145   21.4645  -34.2696 H   0  0  0  0  0  0  0  0  0  0  0  0
    1.2539   20.3671  -32.2756 H   0  0  0  0  0  0  0  0  0  0  0  0
   -0.1933   21.3715  -31.8810 H   0  0  0  0  0  0  0  0  0  0  0  0
    1.3140   17.6343  -30.6417 H   0  0  0  0  0  0  0  0  0  0  0  0
  1  2  1  0
  2  3  1  0
  2  4  1  0
  2  5  1  0
  5  6  2  0
  6  7  1  0
  7  8  2  0
  8  9  1  0
  9 10  1  0
 10 11  2  0
 10 12  1  0
 12 13  2  0
 13 14  1  0
 14 15  1  0
 15 16  2  0
 15 17  1  0
 17 18  1  0
 18 19  1  0
 19 20  2  0
 20 21  1  0
 21 22  2  0
 22 23  1  0
 23 24  2  0
 17 25  2  0
 25 26  1  0
  8 27  1  0
 27 28  1  0
 28 29  1  0
 29 30  1  0
 30 31  1  0
 31 32  1  0
 32 33  1  0
 27 34  2  0
 34  5  1  0
 25 12  1  0
 33 28  1  0
 24 19  1  0
  1 35  1  0
  1 36  1  0
  1 37  1  0
  3 38  1  0
  3 39  1  0
  3 40  1  0
  4 41  1  0
  4 42  1  0
  4 43  1  0
  6 44  1  0
  7 45  1  0
  9 46  1  0
 13 47  1  0
 18 48  1  0
 20 49  1  0
 21 50  1  0
 22 51  1  0
 23 52  1  0
 24 53  1  0
 26 54  1  0
 26 55  1  0
 29 56  1  0
 29 57  1  0
 30 58  1  0
 30 59  1  0
 31 60  1  0
 32 61  1  0
 32 62  1  0
 33 63  1  0
 33 64  1  0
 34 65  1  0
M  CHG  1  14  -1
M  END
>  <UniqueID>  (38) 
36

>  <SMILES>  (38) 
CC(C)(C)c1ccc(NC(=O)c2c[n-]c(=O)c(Nc3ccccc3)c2N)c(N2CCNCC2)c1

>  <Energy>  (38) 
97.0783256095215

>  <Genealogy>  (38) 
CC(C)(C)c1ccc(NC(=O)c2c[n-]c(=O)c(Nc3ccccc3)c2N)c(N2CCNCC2)c1 (protonated)
CC(C)(C)c1ccc(NC(=O)c2c[n-]c(=O)c(Nc3ccccc3)c2N)c(N2CCNCC2)c1 (3D coordinates assigned)
CC(C)(C)c1ccc(NC(=O)c2c[n-]c(=O)c(Nc3ccccc3)c2N)c(N2CCNCC2)c1 (nonaromatic ring conformer: 97.0783256095215 kcal/mol)

>  <smiles>  (38) 
CC(C)(C)c1ccc(NC(=O)c2c[nH]c(=O)c(Nc3ccccc3)c2N)c(N2CCNCC2)c1

>  <score_type>  (38) 
oracle

>  <origin>  (38) 
adgpu

>  <m_score__min__energy>  (38) 
-9.6899999999999995

>  <m_primary>  (38) 
energy

$$$$
38:0
     RDKit          3D

 39 40  0  0  0  0  0  0  0  0999 V2000
   -0.8210   22.1560  -27.2430 C   0  0  0  0  0  0  0  0  0  0  0  0
   -1.6450   22.9620  -28.2010 C   0  0  0  0  0  0  0  0  0  0  0  0
   -1.7300   24.3520  -28.0750 C   0  0  0  0  0  0  0  0  0  0  0  0
   -2.4670   25.0730  -28.9580 N   0  0  0  0  0  0  0  0  0  0  0  0
   -3.1290   24.5000  -29.9980 C   0  0  0  0  0  0  0  0  0  0  0  0
   -3.8420   25.2660  -30.7650 N   0  0  0  0  0  0  0  0  0  0  0  0
   -3.0380   23.0980  -30.1940 C   0  0  0  0  0  0  0  0  0  0  0  0
   -3.8600   22.2500  -31.5190 S   0  0  0  0  0  0  0  0  0  0  0  0
   -4.2340   20.8610  -31.0800 O   0  0  0  0  0  0  0  0  0  0  0  0
   -2.9350   22.1240  -32.6970 O   0  0  0  0  0  0  0  0  0  0  0  0
   -5.3060   23.0960  -31.9960 N   0  0  0  0  0  0  0  0  0  0  0  0
   -6.5270   22.3520  -31.6230 C   0  0  0  0  0  0  0  0  0  0  0  0
   -6.6950   21.1870  -32.6160 C   0  0  0  0  0  0  0  0  0  0  0  0
   -7.3860   19.9270  -32.0600 C   0  0  0  0  0  0  0  0  0  0  0  0
   -8.9160   20.0430  -31.9230 C   0  0  0  0  0  0  0  0  0  0  0  0
   -9.4490   21.3300  -31.2360 C   0  0  0  0  0  0  0  0  0  0  0  0
   -9.1240   22.6530  -31.9540 C   0  0  0  0  0  0  0  0  0  0  0  0
   -7.7630   23.2920  -31.5880 C   0  0  0  0  0  0  0  0  0  0  0  0
   -2.2900   22.3440  -29.2780 C   0  0  0  0  0  0  0  0  0  0  0  0
   -1.0933   22.4224  -26.2111 H   0  0  0  0  0  0  0  0  0  0  0  0
   -1.0105   21.0850  -27.4074 H   0  0  0  0  0  0  0  0  0  0  0  0
    0.2456   22.3691  -27.4074 H   0  0  0  0  0  0  0  0  0  0  0  0
   -1.1984   24.8624  -27.2584 H   0  0  0  0  0  0  0  0  0  0  0  0
   -4.4080   24.9390  -31.5760 H   0  0  0  0  0  0  0  0  0  0  0  0
   -5.2920   24.0490  -31.5670 H   0  0  0  0  0  0  0  0  0  0  0  0
   -6.4357   21.9426  -30.6061 H   0  0  0  0  0  0  0  0  0  0  0  0
   -7.2905   21.5513  -33.4661 H   0  0  0  0  0  0  0  0  0  0  0  0
   -5.6753   20.8745  -32.8855 H   0  0  0  0  0  0  0  0  0  0  0  0
   -7.1646   19.0877  -32.7357 H   0  0  0  0  0  0  0  0  0  0  0  0
   -6.9922   19.7779  -31.0438 H   0  0  0  0  0  0  0  0  0  0  0  0
   -9.3474   19.9993  -32.9339 H   0  0  0  0  0  0  0  0  0  0  0  0
   -9.2157   19.2136  -31.2655 H   0  0  0  0  0  0  0  0  0  0  0  0
  -10.5432   21.2454  -31.1621 H   0  0  0  0  0  0  0  0  0  0  0  0
   -8.9393   21.3837  -30.2627 H   0  0  0  0  0  0  0  0  0  0  0  0
   -9.1280   22.4608  -33.0371 H   0  0  0  0  0  0  0  0  0  0  0  0
   -9.8919   23.3702  -31.6285 H   0  0  0  0  0  0  0  0  0  0  0  0
   -7.5783   24.1141  -32.2951 H   0  0  0  0  0  0  0  0  0  0  0  0
   -7.8609   23.6070  -30.5386 H   0  0  0  0  0  0  0  0  0  0  0  0
   -2.2095   21.2546  -29.4077 H   0  0  0  0  0  0  0  0  0  0  0  0
  1  2  1  0
  2  3  2  0
  3  4  1  0
  4  5  1  0
  5  6  2  3
  5  7  1  0
  7  8  1  0
  8  9  2  0
  8 10  2  0
  8 11  1  0
 11 12  1  0
 12 13  1  0
 13 14  1  0
 14 15  1  0
 15 16  1  0
 16 17  1  0
 17 18  1  0
  7 19  2  0
 19  2  1  0
 18 12  1  0
  1 20  1  0
  1 21  1  0
  1 22  1  0
  3 23  1  0
  6 24  1  0
 11 25  1  0
 12 26  1  0
 13 27  1  0
 13 28  1  0
 14 29  1  0
 14 30  1  0
 15 31  1  0
 15 32  1  0
 16 33  1  0
 16 34  1  0
 17 35  1  0
 17 36  1  0
 18 37  1  0
 18 38  1  0
 19 39  1  0
M  CHG  1   4  -1
M  END
>  <UniqueID>  (39) 
37

>  <SMILES>  (39) 
Cc1c[n-]c(=N)c(S(=O)(=O)NC2CCCCCC2)c1

>  <Energy>  (39) 
48.86594832029767

>  <Genealogy>  (39) 
Cc1c[n-]c(=N)c(S(=O)(=O)NC2CCCCCC2)c1 (protonated)
Cc1c[n-]c(=N)c(S(=O)(=O)NC2CCCCCC2)c1 (3D coordinates assigned)
Cc1c[n-]c(=N)c(S(=O)(=O)NC2CCCCCC2)c1 (nonaromatic ring conformer: 48.86594832029767 kcal/mol)

>  <smiles>  (39) 
Cc1c[nH]c(=N)c(S(=O)(=O)NC2CCCCCC2)c1

>  <score_type>  (39) 
oracle

>  <origin>  (39) 
adgpu

>  <m_score__min__energy>  (39) 
-8.2899999999999991

>  <m_primary>  (39) 
energy

$$$$
39:0
     RDKit          3D

 49 51  0  0  0  0  0  0  0  0999 V2000
   -1.0750   26.8200  -24.7170 C   0  0  0  0  0  0  0  0  0  0  0  0
   -1.5300   26.0760  -25.9380 C   0  0  0  0  0  0  0  0  0  0  0  0
   -2.7140   25.3240  -25.9080 C   0  0  0  0  0  0  0  0  0  0  0  0
   -3.1550   24.6590  -27.0550 C   0  0  0  0  0  0  0  0  0  0  0  0
   -2.4240   24.7470  -28.2510 C   0  0  0  0  0  0  0  0  0  0  0  0
   -2.8970   24.0180  -29.4810 C   0  0  0  0  0  0  0  0  0  0  0  0
   -3.4820   24.9370  -30.4590 N   0  0  0  0  0  0  0  0  0  0  0  0
   -5.2220   24.9570  -30.3660 S   0  0  0  0  0  0  0  0  0  0  0  0
   -5.6400   25.1350  -28.9340 O   0  0  0  0  0  0  0  0  0  0  0  0
   -5.7400   26.1210  -31.1610 O   0  0  0  0  0  0  0  0  0  0  0  0
   -5.9150   23.4750  -31.0230 C   0  0  0  0  0  0  0  0  0  0  0  0
   -5.2620   22.2540  -30.8180 C   0  0  0  0  0  0  0  0  0  0  0  0
   -5.8190   21.0670  -31.3040 C   0  0  0  0  0  0  0  0  0  0  0  0
   -7.0320   21.0930  -32.0040 C   0  0  0  0  0  0  0  0  0  0  0  0
   -7.7420   19.5860  -32.5800 S   0  0  0  0  0  0  0  0  0  0  0  0
   -7.8500   18.6120  -31.4390 O   0  0  0  0  0  0  0  0  0  0  0  0
   -9.1260   19.8780  -33.0910 O   0  0  0  0  0  0  0  0  0  0  0  0
   -6.7490   18.9300  -33.8650 N   0  0  0  0  0  0  0  0  0  0  0  0
   -5.3740   19.4880  -33.8400 C   0  0  0  0  0  0  0  0  0  0  0  0
   -4.3660   18.5530  -33.1440 C   0  0  0  0  0  0  0  0  0  0  0  0
   -5.0010   17.8170  -32.1250 O   0  0  0  0  0  0  0  0  0  0  0  0
   -5.9040   16.8800  -32.6860 C   0  0  0  0  0  0  0  0  0  0  0  0
   -6.7490   17.4530  -33.8480 C   0  0  0  0  0  0  0  0  0  0  0  0
   -7.6860   22.3160  -32.2110 C   0  0  0  0  0  0  0  0  0  0  0  0
   -7.1290   23.5020  -31.7250 C   0  0  0  0  0  0  0  0  0  0  0  0
   -1.2540   25.5210  -28.2870 C   0  0  0  0  0  0  0  0  0  0  0  0
   -0.8120   26.1840  -27.1390 C   0  0  0  0  0  0  0  0  0  0  0  0
   -1.4041   26.2818  -23.8159 H   0  0  0  0  0  0  0  0  0  0  0  0
    0.0226   26.8932  -24.7200 H   0  0  0  0  0  0  0  0  0  0  0  0
   -1.5099   27.8304  -24.7200 H   0  0  0  0  0  0  0  0  0  0  0  0
   -3.2974   25.2576  -24.9778 H   0  0  0  0  0  0  0  0  0  0  0  0
   -4.0793   24.0636  -27.0211 H   0  0  0  0  0  0  0  0  0  0  0  0
   -2.0414   23.5029  -29.9421 H   0  0  0  0  0  0  0  0  0  0  0  0
   -3.6716   23.2980  -29.1784 H   0  0  0  0  0  0  0  0  0  0  0  0
   -4.3071   22.2281  -30.2726 H   0  0  0  0  0  0  0  0  0  0  0  0
   -5.3031   20.1101  -31.1361 H   0  0  0  0  0  0  0  0  0  0  0  0
   -7.2020   19.2310  -34.7600 H   0  0  0  0  0  0  0  0  0  0  0  0
   -5.0427   19.6544  -34.8757 H   0  0  0  0  0  0  0  0  0  0  0  0
   -5.4065   20.4269  -33.2678 H   0  0  0  0  0  0  0  0  0  0  0  0
   -3.9455   17.8574  -33.8852 H   0  0  0  0  0  0  0  0  0  0  0  0
   -3.5647   19.1608  -32.6985 H   0  0  0  0  0  0  0  0  0  0  0  0
   -5.3261   16.0244  -33.0654 H   0  0  0  0  0  0  0  0  0  0  0  0
   -6.6053   16.5912  -31.8893 H   0  0  0  0  0  0  0  0  0  0  0  0
   -6.3354   17.0882  -34.7997 H   0  0  0  0  0  0  0  0  0  0  0  0
   -7.7871   17.1178  -33.7067 H   0  0  0  0  0  0  0  0  0  0  0  0
   -8.6403   22.3419  -32.7575 H   0  0  0  0  0  0  0  0  0  0  0  0
   -7.6440   24.4593  -31.8935 H   0  0  0  0  0  0  0  0  0  0  0  0
   -0.6823   25.6062  -29.2229 H   0  0  0  0  0  0  0  0  0  0  0  0
    0.1030   26.7934  -27.1769 H   0  0  0  0  0  0  0  0  0  0  0  0
  1  2  1  0
  2  3  2  0
  3  4  1  0
  4  5  2  0
  5  6  1  0
  6  7  1  0
  7  8  1  0
  8  9  2  0
  8 10  2  0
  8 11  1  0
 11 12  2  0
 12 13  1  0
 13 14  2  0
 14 15  1  0
 15 16  2  0
 15 17  2  0
 15 18  1  0
 18 19  1  0
 19 20  1  0
 20 21  1  0
 21 22  1  0
 22 23  1  0
 14 24  1  0
 24 25  2  0
  5 26  1  0
 26 27  2  0
 27  2  1  0
 25 11  1  0
 23 18  1  0
  1 28  1  0
  1 29  1  0
  1 30  1  0
  3 31  1  0
  4 32  1  0
  6 33  1  0
  6 34  1  0
 12 35  1  0
 13 36  1  0
 18 37  1  0
 19 38  1  0
 19 39  1  0
 20 40  1  0
 20 41  1  0
 22 42  1  0
 22 43  1  0
 23 44  1  0
 23 45  1  0
 24 46  1  0
 25 47  1  0
 26 48  1  0
 27 49  1  0
M  CHG  2   7  -1  18   1
M  END
>  <UniqueID>  (40) 
38

>  <SMILES>  (40) 
Cc1ccc(C[N-]S(=O)(=O)c2ccc(S(=O)(=O)[NH+]3CCOCC3)cc2)cc1

>  <Energy>  (40) 
57.97986987947685

>  <Genealogy>  (40) 
Cc1ccc(C[N-]S(=O)(=O)c2ccc(S(=O)(=O)[NH+]3CCOCC3)cc2)cc1 (protonated)
Cc1ccc(C[N-]S(=O)(=O)c2ccc(S(=O)(=O)[NH+]3CCOCC3)cc2)cc1 (3D coordinates assigned)
Cc1ccc(C[N-]S(=O)(=O)c2ccc(S(=O)(=O)[NH+]3CCOCC3)cc2)cc1 (nonaromatic ring conformer: 57.97986987947685 kcal/mol)

>  <smiles>  (40) 
Cc1ccc(CNS(=O)(=O)c2ccc(S(=O)(=O)N3CCOCC3)cc2)cc1

>  <score_type>  (40) 
oracle

>  <origin>  (40) 
adgpu

>  <m_score__min__energy>  (40) 
-11.01

>  <m_primary>  (40) 
energy

$$$$
40:0
     RDKit          3D

 64 67  0  0  0  0  0  0  0  0999 V2000
   -9.4810   19.1010  -32.3790 C   0  0  0  0  0  0  0  0  0  0  0  0
   -8.2840   20.0170  -32.3910 C   0  0  0  0  0  0  0  0  0  0  0  0
   -7.1950   19.7000  -33.2180 C   0  0  0  0  0  0  0  0  0  0  0  0
   -6.0680   20.5180  -33.2500 C   0  0  0  0  0  0  0  0  0  0  0  0
   -6.0070   21.6620  -32.4580 C   0  0  0  0  0  0  0  0  0  0  0  0
   -7.0870   22.0130  -31.6260 C   0  0  0  0  0  0  0  0  0  0  0  0
   -7.0360   23.1530  -30.8050 O   0  0  0  0  0  0  0  0  0  0  0  0
   -6.4490   24.3990  -31.1740 C   0  0  0  0  0  0  0  0  0  0  0  0
   -4.9940   24.3990  -30.8290 C   0  0  0  0  0  0  0  0  0  0  0  0
   -4.3430   25.4800  -30.8570 O   0  0  0  0  0  0  0  0  0  0  0  0
   -4.3540   23.1840  -30.4200 N   0  0  0  0  0  0  0  0  0  0  0  0
   -2.9730   23.1480  -30.0580 C   0  0  0  0  0  0  0  0  0  0  0  0
   -2.5090   24.0840  -29.1240 C   0  0  0  0  0  0  0  0  0  0  0  0
   -1.1620   24.1170  -28.7530 C   0  0  0  0  0  0  0  0  0  0  0  0
   -0.5830   25.2790  -27.5620 S   0  0  0  0  0  0  0  0  0  0  0  0
   -0.9980   26.6680  -27.9640 O   0  0  0  0  0  0  0  0  0  0  0  0
    0.9190   25.2180  -27.5290 O   0  0  0  0  0  0  0  0  0  0  0  0
   -1.2390   24.8670  -25.9910 N   0  0  0  0  0  0  0  0  0  0  0  0
   -2.0220   25.9810  -25.4100 C   0  0  0  0  0  0  0  0  0  0  0  0
   -1.2250   26.7900  -24.3710 C   0  0  0  0  0  0  0  0  0  0  0  0
    0.1420   26.8130  -24.7120 O   0  0  0  0  0  0  0  0  0  0  0  0
    0.7070   25.5230  -24.5480 C   0  0  0  0  0  0  0  0  0  0  0  0
   -0.1940   24.3800  -25.0750 C   0  0  0  0  0  0  0  0  0  0  0  0
   -0.2710   23.2030  -29.3170 C   0  0  0  0  0  0  0  0  0  0  0  0
   -0.7160   22.2700  -30.2550 C   0  0  0  0  0  0  0  0  0  0  0  0
   -2.0710   22.2160  -30.6410 C   0  0  0  0  0  0  0  0  0  0  0  0
   -2.4960   21.2450  -31.6310 N   0  0  0  0  0  0  0  0  0  0  0  0
   -2.0290   21.2540  -33.0130 C   0  0  0  0  0  0  0  0  0  0  0  0
   -2.7700   20.1220  -33.7080 C   0  0  0  0  0  0  0  0  0  0  0  0
   -3.2100   19.1910  -32.5870 C   0  0  0  0  0  0  0  0  0  0  0  0
   -3.3250   20.0790  -31.3580 C   0  0  0  0  0  0  0  0  0  0  0  0
   -8.2470   21.2020  -31.6100 C   0  0  0  0  0  0  0  0  0  0  0  0
   -9.4100   21.5670  -30.7170 C   0  0  0  0  0  0  0  0  0  0  0  0
   -9.7656   18.8832  -31.3390 H   0  0  0  0  0  0  0  0  0  0  0  0
  -10.3213   19.5889  -32.8946 H   0  0  0  0  0  0  0  0  0  0  0  0
   -9.2296   18.1624  -32.8946 H   0  0  0  0  0  0  0  0  0  0  0  0
   -7.2319   18.7978  -33.8462 H   0  0  0  0  0  0  0  0  0  0  0  0
   -5.2222   20.2592  -33.9039 H   0  0  0  0  0  0  0  0  0  0  0  0
   -5.1084   22.2959  -32.4828 H   0  0  0  0  0  0  0  0  0  0  0  0
   -6.5669   24.5510  -32.2570 H   0  0  0  0  0  0  0  0  0  0  0  0
   -6.9505   25.2112  -30.6273 H   0  0  0  0  0  0  0  0  0  0  0  0
   -4.9230   22.3150  -30.3040 H   0  0  0  0  0  0  0  0  0  0  0  0
   -3.2134   24.8013  -28.6775 H   0  0  0  0  0  0  0  0  0  0  0  0
   -2.3284   26.6567  -26.2222 H   0  0  0  0  0  0  0  0  0  0  0  0
   -2.8899   25.5434  -24.8951 H   0  0  0  0  0  0  0  0  0  0  0  0
   -1.6089   27.8204  -24.3415 H   0  0  0  0  0  0  0  0  0  0  0  0
   -1.3395   26.3164  -23.3848 H   0  0  0  0  0  0  0  0  0  0  0  0
    1.6631   25.4906  -25.0910 H   0  0  0  0  0  0  0  0  0  0  0  0
    0.8338   25.3615  -23.4673 H   0  0  0  0  0  0  0  0  0  0  0  0
    0.4343   23.6529  -25.6103 H   0  0  0  0  0  0  0  0  0  0  0  0
   -0.6937   23.9202  -24.2096 H   0  0  0  0  0  0  0  0  0  0  0  0
    0.7882   23.2179  -29.0206 H   0  0  0  0  0  0  0  0  0  0  0  0
    0.0020   21.5655  -30.7002 H   0  0  0  0  0  0  0  0  0  0  0  0
   -2.2647   22.2164  -33.4908 H   0  0  0  0  0  0  0  0  0  0  0  0
   -0.9387   21.1211  -33.0729 H   0  0  0  0  0  0  0  0  0  0  0  0
   -3.6430   20.5093  -34.2537 H   0  0  0  0  0  0  0  0  0  0  0  0
   -2.1384   19.6080  -34.4475 H   0  0  0  0  0  0  0  0  0  0  0  0
   -4.1812   18.7324  -32.8245 H   0  0  0  0  0  0  0  0  0  0  0  0
   -2.4998   18.3650  -32.4341 H   0  0  0  0  0  0  0  0  0  0  0  0
   -4.3709   20.3812  -31.2004 H   0  0  0  0  0  0  0  0  0  0  0  0
   -2.9983   19.5545  -30.4479 H   0  0  0  0  0  0  0  0  0  0  0  0
   -9.1074   21.4720  -29.6637 H   0  0  0  0  0  0  0  0  0  0  0  0
   -9.7157   22.6043  -30.9186 H   0  0  0  0  0  0  0  0  0  0  0  0
  -10.2535   20.8904  -30.9186 H   0  0  0  0  0  0  0  0  0  0  0  0
  1  2  1  0
  2  3  2  0
  3  4  1  0
  4  5  2  0
  5  6  1  0
  6  7  1  0
  7  8  1  0
  8  9  1  0
  9 10  2  0
  9 11  1  0
 11 12  1  0
 12 13  2  0
 13 14  1  0
 14 15  1  0
 15 16  2  0
 15 17  2  0
 15 18  1  0
 18 19  1  0
 19 20  1  0
 20 21  1  0
 21 22  1  0
 22 23  1  0
 14 24  2  0
 24 25  1  0
 25 26  2  0
 26 27  1  0
 27 28  1  0
 28 29  1  0
 29 30  1  0
 30 31  1  0
  6 32  2  0
 32 33  1  0
 32  2  1  0
 26 12  1  0
 31 27  1  0
 23 18  1  0
  1 34  1  0
  1 35  1  0
  1 36  1  0
  3 37  1  0
  4 38  1  0
  5 39  1  0
  8 40  1  0
  8 41  1  0
 11 42  1  0
 13 43  1  0
 19 44  1  0
 19 45  1  0
 20 46  1  0
 20 47  1  0
 22 48  1  0
 22 49  1  0
 23 50  1  0
 23 51  1  0
 24 52  1  0
 25 53  1  0
 28 54  1  0
 28 55  1  0
 29 56  1  0
 29 57  1  0
 30 58  1  0
 30 59  1  0
 31 60  1  0
 31 61  1  0
 33 62  1  0
 33 63  1  0
 33 64  1  0
M  END
>  <UniqueID>  (41) 
39

>  <SMILES>  (41) 
Cc1cccc(OCC(=O)Nc2cc(S(=O)(=O)N3CCOCC3)ccc2N2CCCC2)c1C

>  <Energy>  (41) 
87.75497751793979

>  <Genealogy>  (41) 
Cc1cccc(OCC(=O)Nc2cc(S(=O)(=O)N3CCOCC3)ccc2N2CCCC2)c1C (3D coordinates assigned)
Cc1cccc(OCC(=O)Nc2cc(S(=O)(=O)N3CCOCC3)ccc2N2CCCC2)c1C (nonaromatic ring conformer: 87.75497751793979 kcal/mol)

>  <smiles>  (41) 
Cc1cccc(OCC(=O)Nc2cc(S(=O)(=O)N3CCOCC3)ccc2N2CCCC2)c1C

>  <score_type>  (41) 
oracle

>  <origin>  (41) 
adgpu

>  <m_score__min__energy>  (41) 
-10.44

>  <m_primary>  (41) 
energy

$$$$
41:0
     RDKit          3D

 47 51  0  0  0  0  0  0  0  0999 V2000
   -7.8470   19.0360  -33.9020 H   0  0  0  0  0  0  0  0  0  0  0  0
   -7.2260   19.7400  -33.4450 N   0  0  0  0  0  0  0  0  0  0  0  0
   -5.9330   19.7030  -33.5610 C   0  0  0  0  0  0  0  0  0  0  0  0
   -5.1320   20.6690  -32.9130 C   0  0  0  0  0  0  0  0  0  0  0  0
   -5.7210   21.7740  -32.1150 C   0  0  0  0  0  0  0  0  0  0  0  0
   -7.0460   21.6700  -31.6260 C   0  0  0  0  0  0  0  0  0  0  0  0
   -7.6391   20.7710  -31.8495 H   0  0  0  0  0  0  0  0  0  0  0  0
   -7.6120   22.7030  -30.8580 C   0  0  0  0  0  0  0  0  0  0  0  0
   -8.6424   22.6237  -30.4811 H   0  0  0  0  0  0  0  0  0  0  0  0
   -6.8380   23.8300  -30.5850 C   0  0  0  0  0  0  0  0  0  0  0  0
   -5.5520   23.9290  -31.0530 C   0  0  0  0  0  0  0  0  0  0  0  0
   -4.9590   22.9250  -31.8160 C   0  0  0  0  0  0  0  0  0  0  0  0
   -3.9245   23.0262  -32.1760 H   0  0  0  0  0  0  0  0  0  0  0  0
   -5.0320   25.1900  -30.5950 C   0  0  0  0  0  0  0  0  0  0  0  0
   -3.8780   25.6360  -30.8230 O   0  0  0  0  0  0  0  0  0  0  0  0
   -6.0120   25.8860  -29.8330 N   0  0  0  0  0  0  0  0  0  0  0  0
   -7.2160   25.0470  -29.7920 C   0  0  0  0  0  0  0  0  0  0  0  0
   -7.4685   24.7759  -28.7563 H   0  0  0  0  0  0  0  0  0  0  0  0
   -8.1019   25.5579  -30.1972 H   0  0  0  0  0  0  0  0  0  0  0  0
   -3.7380   20.5690  -33.0250 C   0  0  0  0  0  0  0  0  0  0  0  0
   -3.0972   21.3056  -32.5183 H   0  0  0  0  0  0  0  0  0  0  0  0
   -3.1520   19.5400  -33.7760 C   0  0  0  0  0  0  0  0  0  0  0  0
   -1.6760   19.4330  -33.8970 C   0  0  0  0  0  0  0  0  0  0  0  0
   -0.9980   18.3020  -33.4040 C   0  0  0  0  0  0  0  0  0  0  0  0
   -1.5644   17.4949  -32.9164 H   0  0  0  0  0  0  0  0  0  0  0  0
    0.3890   18.1980  -33.5300 C   0  0  0  0  0  0  0  0  0  0  0  0
    0.9097   17.3101  -33.1421 H   0  0  0  0  0  0  0  0  0  0  0  0
    1.1170   19.2180  -34.1470 C   0  0  0  0  0  0  0  0  0  0  0  0
    2.2088   19.1298  -34.2475 H   0  0  0  0  0  0  0  0  0  0  0  0
    0.4590   20.3530  -34.6380 C   0  0  0  0  0  0  0  0  0  0  0  0
    1.3810   21.6140  -35.4500 S   0  0  0  0  0  0  0  0  0  0  0  0
    1.7590   21.1410  -36.8250 O   0  0  0  0  0  0  0  0  0  0  0  0
    2.6410   21.9240  -34.6900 O   0  0  0  0  0  0  0  0  0  0  0  0
    0.4170   23.0490  -35.5860 N   0  0  0  0  0  0  0  0  0  0  0  0
    0.7870   24.0890  -36.2670 C   0  0  0  0  0  0  0  0  0  0  0  0
    1.9530   24.1740  -36.9440 N   0  0  0  0  0  0  0  0  0  0  0  0
    2.0800   25.3780  -37.5600 C   0  0  0  0  0  0  0  0  0  0  0  0
    2.9613   25.6419  -38.1631 H   0  0  0  0  0  0  0  0  0  0  0  0
    1.0150   26.2530  -37.3730 C   0  0  0  0  0  0  0  0  0  0  0  0
    0.9336   27.2683  -37.7883 H   0  0  0  0  0  0  0  0  0  0  0  0
   -0.1280   25.4890  -36.4010 S   0  0  0  0  0  0  0  0  0  0  0  0
   -0.9340   20.4560  -34.5140 C   0  0  0  0  0  0  0  0  0  0  0  0
   -1.4513   21.3454  -34.9030 H   0  0  0  0  0  0  0  0  0  0  0  0
   -3.9930   18.6120  -34.4070 C   0  0  0  0  0  0  0  0  0  0  0  0
   -3.5557   17.7973  -35.0029 H   0  0  0  0  0  0  0  0  0  0  0  0
   -5.3440   18.7100  -34.2890 N   0  0  0  0  0  0  0  0  0  0  0  0
   -5.9340   17.9960  -34.7730 H   0  0  0  0  0  0  0  0  0  0  0  0
  1  2  1  0
  2  3  2  0
  3  4  1  0
  4  5  1  0
  5  6  2  0
  6  7  1  0
  6  8  1  0
  8  9  1  0
  8 10  2  0
 10 11  1  0
 11 12  2  0
 12 13  1  0
 11 14  1  0
 14 15  2  0
 14 16  1  0
 16 17  1  0
 17 18  1  0
 17 19  1  0
  4 20  2  0
 20 21  1  0
 20 22  1  0
 22 23  1  0
 23 24  2  0
 24 25  1  0
 24 26  1  0
 26 27  1  0
 26 28  2  0
 28 29  1  0
 28 30  1  0
 30 31  1  0
 31 32  2  0
 31 33  2  0
 31 34  1  0
 34 35  2  0
 35 36  1  0
 36 37  1  0
 37 38  1  0
 37 39  2  0
 39 40  1  0
 39 41  1  0
 30 42  2  0
 42 43  1  0
 22 44  2  0
 44 45  1  0
 44 46  1  0
 46 47  1  0
 46  3  1  0
 12  5  1  0
 42 23  1  0
 17 10  1  0
 41 35  1  0
M  CHG  2  16  -1  36  -1
M  END
>  <UniqueID>  (42) 
40

>  <SMILES>  (42) 
[H]/N=c1\[nH]cc(-c2cccc(S(=O)(=O)/N=c3\[n-]ccs3)c2)cc1-c1ccc2c(c1)C(=O)[N-]C2

>  <Energy>  (42) 
121.07159481205527

>  <Genealogy>  (42) 
N=c1[nH]cc(-c2cccc(S(=O)(=O)N=c3[n-]ccs3)c2)cc1-c1ccc2c(c1)C(=O)[N-]C2 (protonated)
[H]/N=c1\[nH]cc(-c2cccc(S(=O)(=O)/N=c3\[n-]ccs3)c2)cc1-c1ccc2c(c1)C(=O)[N-]C2 (cis-trans isomerization)
[H]/N=c1\[nH]cc(-c2cccc(S(=O)(=O)/N=c3\[n-]ccs3)c2)cc1-c1ccc2c(c1)C(=O)[N-]C2 (3D coordinates assigned)
[H]/N=c1\[nH]cc(-c2cccc(S(=O)(=O)/N=c3\[n-]ccs3)c2)cc1-c1ccc2c(c1)C(=O)[N-]C2 (nonaromatic ring conformer: 121.07159481205527 kcal/mol)

>  <smiles>  (42) 
N=c1[nH]cc(-c2cccc(S(=O)(=O)N=c3[nH]ccs3)c2)cc1-c1ccc2c(c1)C(=O)NC2

>  <score_type>  (42) 
oracle

>  <origin>  (42) 
adgpu

>  <m_score__min__energy>  (42) 
-12.67

>  <m_primary>  (42) 
energy

$$$$
42:0
     RDKit          3D

 56 59  0  0  0  0  0  0  0  0999 V2000
   -7.7190   24.2697  -32.0414 H   0  0  0  0  0  0  0  0  0  0  0  0
   -6.7890   23.7990  -31.6900 C   0  0  0  0  0  0  0  0  0  0  0  0
   -6.6430   22.4100  -31.7310 C   0  0  0  0  0  0  0  0  0  0  0  0
   -7.7410   21.5500  -32.2710 C   0  0  0  0  0  0  0  0  0  0  0  0
   -8.3050   21.1083  -31.4363 H   0  0  0  0  0  0  0  0  0  0  0  0
   -8.4166   22.1617  -32.8870 H   0  0  0  0  0  0  0  0  0  0  0  0
   -7.3090   20.7475  -32.8870 H   0  0  0  0  0  0  0  0  0  0  0  0
   -5.4910   21.8400  -31.2870 N   0  0  0  0  0  0  0  0  0  0  0  0
   -4.4570   22.5740  -30.7870 C   0  0  0  0  0  0  0  0  0  0  0  0
   -3.2450   21.8650  -30.3150 C   0  0  0  0  0  0  0  0  0  0  0  0
   -2.1290   21.7080  -31.1500 C   0  0  0  0  0  0  0  0  0  0  0  0
   -2.1547   22.1028  -32.1764 H   0  0  0  0  0  0  0  0  0  0  0  0
   -0.9860   21.0540  -30.6870 C   0  0  0  0  0  0  0  0  0  0  0  0
   -0.1208   20.9289  -31.3546 H   0  0  0  0  0  0  0  0  0  0  0  0
   -0.9320   20.5550  -29.3770 C   0  0  0  0  0  0  0  0  0  0  0  0
    0.5170   19.7250  -28.7920 S   0  0  0  0  0  0  0  0  0  0  0  0
    1.4320   19.4580  -29.9540 O   0  0  0  0  0  0  0  0  0  0  0  0
    1.2190   20.6060  -27.7980 O   0  0  0  0  0  0  0  0  0  0  0  0
    0.1450   18.1690  -28.0080 C   0  0  0  0  0  0  0  0  0  0  0  0
    0.1746   18.2926  -26.9154 H   0  0  0  0  0  0  0  0  0  0  0  0
   -0.8581   17.8357  -28.3123 H   0  0  0  0  0  0  0  0  0  0  0  0
    0.8889   17.4180  -28.3123 H   0  0  0  0  0  0  0  0  0  0  0  0
   -2.0410   20.7160  -28.5230 C   0  0  0  0  0  0  0  0  0  0  0  0
   -1.9690   20.2070  -27.2150 O   0  0  0  0  0  0  0  0  0  0  0  0
   -2.8920   19.2760  -26.6580 C   0  0  0  0  0  0  0  0  0  0  0  0
   -2.8441   19.3243  -25.5601 H   0  0  0  0  0  0  0  0  0  0  0  0
   -3.9102   19.5247  -26.9919 H   0  0  0  0  0  0  0  0  0  0  0  0
   -2.6345   18.2600  -26.9919 H   0  0  0  0  0  0  0  0  0  0  0  0
   -3.1900   21.3800  -28.9990 C   0  0  0  0  0  0  0  0  0  0  0  0
   -4.0531   21.5196  -28.3315 H   0  0  0  0  0  0  0  0  0  0  0  0
   -4.5640   23.9790  -30.7380 C   0  0  0  0  0  0  0  0  0  0  0  0
   -3.4760   24.7530  -30.3060 O   0  0  0  0  0  0  0  0  0  0  0  0
   -2.7170   24.5110  -29.1530 C   0  0  0  0  0  0  0  0  0  0  0  0
   -1.3500   24.2460  -29.2890 C   0  0  0  0  0  0  0  0  0  0  0  0
   -0.8923   24.2351  -30.2892 H   0  0  0  0  0  0  0  0  0  0  0  0
   -0.5620   23.9950  -28.1620 C   0  0  0  0  0  0  0  0  0  0  0  0
    0.5138   23.7970  -28.2779 H   0  0  0  0  0  0  0  0  0  0  0  0
   -1.1390   23.9950  -26.8850 C   0  0  0  0  0  0  0  0  0  0  0  0
   -0.1450   23.6960  -25.4620 S   0  0  0  0  0  0  0  0  0  0  0  0
    1.3140   23.7240  -25.8230 O   0  0  0  0  0  0  0  0  0  0  0  0
   -0.4870   22.3440  -24.9060 O   0  0  0  0  0  0  0  0  0  0  0  0
   -0.4520   24.9010  -24.2520 N   0  0  0  0  0  0  0  0  0  0  0  0
    0.2360   25.9930  -24.1060 C   0  0  0  0  0  0  0  0  0  0  0  0
   -0.1060   27.1490  -22.9340 S   0  0  0  0  0  0  0  0  0  0  0  0
    1.1520   28.1490  -23.4350 C   0  0  0  0  0  0  0  0  0  0  0  0
    1.4770   29.3400  -22.8770 F   0  0  0  0  0  0  0  0  0  0  0  0
    1.8080   27.5540  -24.5040 C   0  0  0  0  0  0  0  0  0  0  0  0
    2.6700   28.0159  -25.0076 H   0  0  0  0  0  0  0  0  0  0  0  0
    1.2940   26.3520  -24.8750 N   0  0  0  0  0  0  0  0  0  0  0  0
    1.6890   25.7920  -25.6620 H   0  0  0  0  0  0  0  0  0  0  0  0
   -2.5130   24.2270  -26.7460 C   0  0  0  0  0  0  0  0  0  0  0  0
   -2.9742   24.2086  -25.7475 H   0  0  0  0  0  0  0  0  0  0  0  0
   -3.3000   24.4820  -27.8730 C   0  0  0  0  0  0  0  0  0  0  0  0
   -4.3793   24.6607  -27.7584 H   0  0  0  0  0  0  0  0  0  0  0  0
   -5.7460   24.5830  -31.2000 C   0  0  0  0  0  0  0  0  0  0  0  0
   -5.8483   25.6779  -31.1748 H   0  0  0  0  0  0  0  0  0  0  0  0
  1  2  1  0
  2  3  2  0
  3  4  1  0
  4  5  1  0
  4  6  1  0
  4  7  1  0
  3  8  1  0
  8  9  2  0
  9 10  1  0
 10 11  2  0
 11 12  1  0
 11 13  1  0
 13 14  1  0
 13 15  2  0
 15 16  1  0
 16 17  2  0
 16 18  2  0
 16 19  1  0
 19 20  1  0
 19 21  1  0
 19 22  1  0
 15 23  1  0
 23 24  1  0
 24 25  1  0
 25 26  1  0
 25 27  1  0
 25 28  1  0
 23 29  2  0
 29 30  1  0
  9 31  1  0
 31 32  1  0
 32 33  1  0
 33 34  2  0
 34 35  1  0
 34 36  1  0
 36 37  1  0
 36 38  2  0
 38 39  1  0
 39 40  2  0
 39 41  2  0
 39 42  1  0
 42 43  2  0
 43 44  1  0
 44 45  1  0
 45 46  1  0
 45 47  2  0
 47 48  1  0
 47 49  1  0
 49 50  1  0
 38 51  1  0
 51 52  1  0
 51 53  2  0
 53 54  1  0
 31 55  2  0
 55 56  1  0
 55  2  1  0
 29 10  1  0
 53 33  1  0
 49 43  1  0
M  END
>  <UniqueID>  (43) 
41

>  <SMILES>  (43) 
COc1cc(-c2nc(C)ccc2Oc2ccc(S(=O)(=O)/N=c3\[nH]cc(F)s3)cc2)ccc1S(C)(=O)=O

>  <Energy>  (43) 
103.0709895335317

>  <Genealogy>  (43) 
COc1cc(-c2nc(C)ccc2Oc2ccc(S(=O)(=O)/N=c3\[nH]cc(F)s3)cc2)ccc1S(C)(=O)=O (cis-trans isomerization)
COc1cc(-c2nc(C)ccc2Oc2ccc(S(=O)(=O)/N=c3\[nH]cc(F)s3)cc2)ccc1S(C)(=O)=O (3D coordinates assigned)
COc1cc(-c2nc(C)ccc2Oc2ccc(S(=O)(=O)/N=c3\[nH]cc(F)s3)cc2)ccc1S(C)(=O)=O (optimized conformer: 103.0709895335317 kcal/mol)

>  <smiles>  (43) 
COc1cc(-c2nc(C)ccc2Oc2ccc(S(=O)(=O)N=c3[nH]cc(F)s3)cc2)ccc1S(C)(=O)=O

>  <score_type>  (43) 
oracle

>  <origin>  (43) 
adgpu

>  <m_score__min__energy>  (43) 
-10.949999999999999

>  <m_primary>  (43) 
energy

$$$$
43:0
     RDKit          3D

 56 59  0  0  0  0  0  0  0  0999 V2000
   -3.9920   25.6510  -30.8390 O   0  0  0  0  0  0  0  0  0  0  0  0
   -4.6000   24.5520  -30.7420 C   0  0  0  0  0  0  0  0  0  0  0  0
   -5.8720   24.4120  -31.3840 N   0  0  0  0  0  0  0  0  0  0  0  0
   -6.5560   23.1770  -31.6300 C   0  0  0  0  0  0  0  0  0  0  0  0
   -7.9580   23.0850  -31.5600 C   0  0  0  0  0  0  0  0  0  0  0  0
   -8.5970   21.8730  -31.8320 C   0  0  0  0  0  0  0  0  0  0  0  0
   -7.8470   20.7470  -32.1910 C   0  0  0  0  0  0  0  0  0  0  0  0
   -8.6680   19.1900  -32.5270 S   0  0  0  0  0  0  0  0  0  0  0  0
   -7.1270   18.3560  -32.8910 C   0  0  0  0  0  0  0  0  0  0  0  0
   -6.5760   17.4550  -31.9720 C   0  0  0  0  0  0  0  0  0  0  0  0
   -5.3770   16.8100  -32.2840 C   0  0  0  0  0  0  0  0  0  0  0  0
   -4.7450   17.0710  -33.5010 C   0  0  0  0  0  0  0  0  0  0  0  0
   -5.3240   17.9780  -34.3920 C   0  0  0  0  0  0  0  0  0  0  0  0
   -6.4920   18.5960  -34.0700 N   0  0  0  0  0  0  0  0  0  0  0  0
   -6.4540   20.8430  -32.2940 C   0  0  0  0  0  0  0  0  0  0  0  0
   -5.8130   22.0560  -32.0230 C   0  0  0  0  0  0  0  0  0  0  0  0
   -4.0100   23.4510  -30.0270 N   0  0  0  0  0  0  0  0  0  0  0  0
   -2.7540   23.5220  -29.3320 C   0  0  0  0  0  0  0  0  0  0  0  0
   -2.4990   24.6100  -28.4860 C   0  0  0  0  0  0  0  0  0  0  0  0
   -1.2950   24.6940  -27.7800 C   0  0  0  0  0  0  0  0  0  0  0  0
   -0.3310   23.6760  -27.8980 C   0  0  0  0  0  0  0  0  0  0  0  0
    0.8940   23.7150  -27.2180 O   0  0  0  0  0  0  0  0  0  0  0  0
    1.8150   24.7990  -27.2720 C   0  0  0  0  0  0  0  0  0  0  0  0
    1.5710   25.7880  -26.1140 C   0  0  0  0  0  0  0  0  0  0  0  0
    0.1580   25.9470  -25.6910 N   0  0  0  0  0  0  0  0  0  0  0  0
   -0.1670   25.3110  -24.4060 C   0  0  0  0  0  0  0  0  0  0  0  0
   -0.4810   26.4090  -23.3940 C   0  0  0  0  0  0  0  0  0  0  0  0
   -0.3620   27.7210  -24.1470 C   0  0  0  0  0  0  0  0  0  0  0  0
   -0.3030   27.3370  -25.6150 C   0  0  0  0  0  0  0  0  0  0  0  0
   -0.5980   22.5770  -28.7220 C   0  0  0  0  0  0  0  0  0  0  0  0
   -1.8000   22.4940  -29.4300 C   0  0  0  0  0  0  0  0  0  0  0  0
   -8.5528   23.9701  -31.2903 H   0  0  0  0  0  0  0  0  0  0  0  0
   -9.6927   21.8033  -31.7639 H   0  0  0  0  0  0  0  0  0  0  0  0
   -7.0815   17.2573  -31.0152 H   0  0  0  0  0  0  0  0  0  0  0  0
   -4.9321   16.0985  -31.5728 H   0  0  0  0  0  0  0  0  0  0  0  0
   -3.8007   16.5676  -33.7559 H   0  0  0  0  0  0  0  0  0  0  0  0
   -4.8353   18.1923  -35.3539 H   0  0  0  0  0  0  0  0  0  0  0  0
   -5.8630   19.9632  -32.5885 H   0  0  0  0  0  0  0  0  0  0  0  0
   -4.7197   22.1304  -32.1189 H   0  0  0  0  0  0  0  0  0  0  0  0
   -4.5530   22.5640  -29.9430 H   0  0  0  0  0  0  0  0  0  0  0  0
   -3.2521   25.4042  -28.3766 H   0  0  0  0  0  0  0  0  0  0  0  0
   -1.1007   25.5596  -27.1296 H   0  0  0  0  0  0  0  0  0  0  0  0
    2.8394   24.4050  -27.1990 H   0  0  0  0  0  0  0  0  0  0  0  0
    1.6747   25.3318  -28.2241 H   0  0  0  0  0  0  0  0  0  0  0  0
    2.1469   25.4389  -25.2443 H   0  0  0  0  0  0  0  0  0  0  0  0
    1.8842   26.7732  -26.4900 H   0  0  0  0  0  0  0  0  0  0  0  0
   -1.0417   24.6549  -24.5264 H   0  0  0  0  0  0  0  0  0  0  0  0
    0.6826   24.7056  -24.0571 H   0  0  0  0  0  0  0  0  0  0  0  0
   -1.5009   26.2856  -23.0007 H   0  0  0  0  0  0  0  0  0  0  0  0
    0.2067   26.3739  -22.5362 H   0  0  0  0  0  0  0  0  0  0  0  0
   -1.2365   28.3587  -23.9505 H   0  0  0  0  0  0  0  0  0  0  0  0
    0.5251   28.2927  -23.8368 H   0  0  0  0  0  0  0  0  0  0  0  0
   -1.3021   27.4262  -26.0666 H   0  0  0  0  0  0  0  0  0  0  0  0
    0.3822   28.0019  -26.1612 H   0  0  0  0  0  0  0  0  0  0  0  0
    0.1450   21.7710  -28.8133 H   0  0  0  0  0  0  0  0  0  0  0  0
   -2.0007   21.6200  -30.0671 H   0  0  0  0  0  0  0  0  0  0  0  0
  1  2  2  0
  2  3  1  0
  3  4  1  0
  4  5  2  0
  5  6  1  0
  6  7  2  0
  7  8  1  0
  8  9  1  0
  9 10  2  0
 10 11  1  0
 11 12  2  0
 12 13  1  0
 13 14  2  0
  7 15  1  0
 15 16  2  0
  2 17  1  0
 17 18  1  0
 18 19  2  0
 19 20  1  0
 20 21  2  0
 21 22  1  0
 22 23  1  0
 23 24  1  0
 24 25  1  0
 25 26  1  0
 26 27  1  0
 27 28  1  0
 28 29  1  0
 21 30  1  0
 30 31  2  0
 16  4  1  0
 31 18  1  0
 14  9  1  0
 29 25  1  0
  5 32  1  0
  6 33  1  0
 10 34  1  0
 11 35  1  0
 12 36  1  0
 13 37  1  0
 15 38  1  0
 16 39  1  0
 17 40  1  0
 19 41  1  0
 20 42  1  0
 23 43  1  0
 23 44  1  0
 24 45  1  0
 24 46  1  0
 26 47  1  0
 26 48  1  0
 27 49  1  0
 27 50  1  0
 28 51  1  0
 28 52  1  0
 29 53  1  0
 29 54  1  0
 30 55  1  0
 31 56  1  0
M  CHG  1   3  -1
M  END
>  <UniqueID>  (44) 
42

>  <SMILES>  (44) 
O=C([N-]c1ccc(Sc2ccccn2)cc1)Nc1ccc(OCCN2CCCC2)cc1

>  <Energy>  (44) 
68.03509267194697

>  <Genealogy>  (44) 
O=C([N-]c1ccc(Sc2ccccn2)cc1)Nc1ccc(OCCN2CCCC2)cc1 (protonated)
O=C([N-]c1ccc(Sc2ccccn2)cc1)Nc1ccc(OCCN2CCCC2)cc1 (3D coordinates assigned)
O=C([N-]c1ccc(Sc2ccccn2)cc1)Nc1ccc(OCCN2CCCC2)cc1 (nonaromatic ring conformer: 68.03509267194697 kcal/mol)

>  <smiles>  (44) 
O=C(Nc1ccc(OCCN2CCCC2)cc1)Nc1ccc(Sc2ccccn2)cc1

>  <score_type>  (44) 
oracle

>  <origin>  (44) 
adgpu

>  <m_score__min__energy>  (44) 
-10.460000000000001

>  <m_primary>  (44) 
energy

$$$$
44:0
     RDKit          3D

 54 56  0  0  0  0  0  0  0  0999 V2000
   -1.1520   16.7340  -33.6470 O   0  0  0  0  0  0  0  0  0  0  0  0
   -2.1850   17.4370  -33.8120 C   0  0  0  0  0  0  0  0  0  0  0  0
   -3.4910   16.8540  -33.7020 N   0  0  0  0  0  0  0  0  0  0  0  0
   -4.7050   17.5410  -33.3670 C   0  0  0  0  0  0  0  0  0  0  0  0
   -5.2980   18.4750  -34.2360 C   0  0  0  0  0  0  0  0  0  0  0  0
   -6.4940   19.1070  -33.8800 C   0  0  0  0  0  0  0  0  0  0  0  0
   -7.1150   18.8100  -32.6600 C   0  0  0  0  0  0  0  0  0  0  0  0
   -8.6110   19.6280  -32.2000 S   0  0  0  0  0  0  0  0  0  0  0  0
   -9.6900   19.2820  -33.1910 O   0  0  0  0  0  0  0  0  0  0  0  0
   -9.0480   19.1390  -30.8480 O   0  0  0  0  0  0  0  0  0  0  0  0
   -8.4020   21.3630  -32.1470 N   0  0  0  0  0  0  0  0  0  0  0  0
   -8.8630   21.9310  -30.8550 C   0  0  0  0  0  0  0  0  0  0  0  0
   -7.7060   22.3020  -29.9150 C   0  0  0  0  0  0  0  0  0  0  0  0
   -6.7570   23.3180  -30.5730 C   0  0  0  0  0  0  0  0  0  0  0  0
   -6.6820   23.1590  -32.1030 C   0  0  0  0  0  0  0  0  0  0  0  0
   -7.0180   21.7260  -32.5240 C   0  0  0  0  0  0  0  0  0  0  0  0
   -6.5400   17.8580  -31.8080 C   0  0  0  0  0  0  0  0  0  0  0  0
   -5.3470   17.2240  -32.1640 C   0  0  0  0  0  0  0  0  0  0  0  0
   -2.0660   18.8190  -34.1660 N   0  0  0  0  0  0  0  0  0  0  0  0
   -0.7600   19.4590  -34.3270 C   0  0  0  0  0  0  0  0  0  0  0  0
   -0.8800   20.9880  -34.1560 C   0  0  0  0  0  0  0  0  0  0  0  0
   -1.6120   21.4100  -32.9430 N   0  0  0  0  0  0  0  0  0  0  0  0
   -1.2530   20.6450  -31.7330 C   0  0  0  0  0  0  0  0  0  0  0  0
   -2.2360   20.9690  -30.5940 C   0  0  0  0  0  0  0  0  0  0  0  0
   -3.6010   20.6870  -30.8930 O   0  0  0  0  0  0  0  0  0  0  0  0
   -3.8800   20.5920  -32.2830 C   0  0  0  0  0  0  0  0  0  0  0  0
   -3.0700   21.5880  -33.1330 C   0  0  0  0  0  0  0  0  0  0  0  0
   -4.8196   18.7090  -35.1985 H   0  0  0  0  0  0  0  0  0  0  0  0
   -6.9491   19.8408  -34.5614 H   0  0  0  0  0  0  0  0  0  0  0  0
   -9.4517   22.8371  -31.0607 H   0  0  0  0  0  0  0  0  0  0  0  0
   -9.4614   21.1579  -30.3508 H   0  0  0  0  0  0  0  0  0  0  0  0
   -8.1185   22.7406  -28.9944 H   0  0  0  0  0  0  0  0  0  0  0  0
   -7.1355   21.3892  -29.6886 H   0  0  0  0  0  0  0  0  0  0  0  0
   -7.1133   24.3327  -30.3420 H   0  0  0  0  0  0  0  0  0  0  0  0
   -5.7489   23.1387  -30.1711 H   0  0  0  0  0  0  0  0  0  0  0  0
   -7.3992   23.8489  -32.5717 H   0  0  0  0  0  0  0  0  0  0  0  0
   -5.6566   23.3881  -32.4288 H   0  0  0  0  0  0  0  0  0  0  0  0
   -6.9098   21.6389  -33.6152 H   0  0  0  0  0  0  0  0  0  0  0  0
   -6.3279   21.0426  -32.0075 H   0  0  0  0  0  0  0  0  0  0  0  0
   -7.0297   17.6087  -30.8551 H   0  0  0  0  0  0  0  0  0  0  0  0
   -4.9087   16.4698  -31.4938 H   0  0  0  0  0  0  0  0  0  0  0  0
   -2.9430   19.3700  -34.3090 H   0  0  0  0  0  0  0  0  0  0  0  0
   -0.0677   19.0636  -33.5691 H   0  0  0  0  0  0  0  0  0  0  0  0
   -0.3815   19.2436  -35.3371 H   0  0  0  0  0  0  0  0  0  0  0  0
    0.1348   21.4100  -34.1100 H   0  0  0  0  0  0  0  0  0  0  0  0
   -1.4582   21.3562  -35.0163 H   0  0  0  0  0  0  0  0  0  0  0  0
   -1.2963   19.5688  -31.9563 H   0  0  0  0  0  0  0  0  0  0  0  0
   -0.2350   20.9207  -31.4205 H   0  0  0  0  0  0  0  0  0  0  0  0
   -1.9479   20.3770  -29.7128 H   0  0  0  0  0  0  0  0  0  0  0  0
   -2.1707   22.0538  -30.4236 H   0  0  0  0  0  0  0  0  0  0  0  0
   -3.6423   19.5717  -32.6185 H   0  0  0  0  0  0  0  0  0  0  0  0
   -4.9441   20.8344  -32.4204 H   0  0  0  0  0  0  0  0  0  0  0  0
   -3.3131   21.4313  -34.1943 H   0  0  0  0  0  0  0  0  0  0  0  0
   -3.3358   22.6067  -32.8144 H   0  0  0  0  0  0  0  0  0  0  0  0
  1  2  2  0
  2  3  1  0
  3  4  1  0
  4  5  2  0
  5  6  1  0
  6  7  2  0
  7  8  1  0
  8  9  2  0
  8 10  2  0
  8 11  1  0
 11 12  1  0
 12 13  1  0
 13 14  1  0
 14 15  1  0
 15 16  1  0
  7 17  1  0
 17 18  2  0
  2 19  1  0
 19 20  1  0
 20 21  1  0
 21 22  1  0
 22 23  1  0
 23 24  1  0
 24 25  1  0
 25 26  1  0
 26 27  1  0
 18  4  1  0
 27 22  1  0
 16 11  1  0
  5 28  1  0
  6 29  1  0
 12 30  1  0
 12 31  1  0
 13 32  1  0
 13 33  1  0
 14 34  1  0
 14 35  1  0
 15 36  1  0
 15 37  1  0
 16 38  1  0
 16 39  1  0
 17 40  1  0
 18 41  1  0
 19 42  1  0
 20 43  1  0
 20 44  1  0
 21 45  1  0
 21 46  1  0
 23 47  1  0
 23 48  1  0
 24 49  1  0
 24 50  1  0
 26 51  1  0
 26 52  1  0
 27 53  1  0
 27 54  1  0
M  CHG  1   3  -1
M  END
>  <UniqueID>  (45) 
43

>  <SMILES>  (45) 
O=C([N-]c1ccc(S(=O)(=O)N2CCCCC2)cc1)NCCN1CCOCC1

>  <Energy>  (45) 
74.6944600036608

>  <Genealogy>  (45) 
O=C([N-]c1ccc(S(=O)(=O)N2CCCCC2)cc1)NCCN1CCOCC1 (protonated)
O=C([N-]c1ccc(S(=O)(=O)N2CCCCC2)cc1)NCCN1CCOCC1 (3D coordinates assigned)
O=C([N-]c1ccc(S(=O)(=O)N2CCCCC2)cc1)NCCN1CCOCC1 (nonaromatic ring conformer: 74.6944600036608 kcal/mol)

>  <smiles>  (45) 
O=C(NCCN1CCOCC1)Nc1ccc(S(=O)(=O)N2CCCCC2)cc1

>  <score_type>  (45) 
oracle

>  <origin>  (45) 
adgpu

>  <m_score__min__energy>  (45) 
-10.93

>  <m_primary>  (45) 
energy

$$$$
45:0
     RDKit          3D

 67 71  0  0  0  0  0  0  0  0999 V2000
    4.4490   23.8130  -36.0310 C   0  0  0  0  0  0  0  0  0  0  0  0
    3.0550   23.2970  -36.1770 C   0  0  0  0  0  0  0  0  0  0  0  0
    2.0760   23.9550  -36.8260 N   0  0  0  0  0  0  0  0  0  0  0  0
    0.9970   23.2370  -36.7130 O   0  0  0  0  0  0  0  0  0  0  0  0
    1.2210   22.1450  -36.0200 C   0  0  0  0  0  0  0  0  0  0  0  0
    0.2780   21.2780  -35.7860 N   0  0  0  0  0  0  0  0  0  0  0  0
    0.3470   19.7660  -34.9320 S   0  0  0  0  0  0  0  0  0  0  0  0
    1.6100   19.0560  -35.3300 O   0  0  0  0  0  0  0  0  0  0  0  0
   -0.8110   18.9030  -35.3530 O   0  0  0  0  0  0  0  0  0  0  0  0
    0.3820   19.9960  -33.1700 C   0  0  0  0  0  0  0  0  0  0  0  0
   -0.0900   21.2160  -32.6540 C   0  0  0  0  0  0  0  0  0  0  0  0
   -0.1290   21.4480  -31.2810 C   0  0  0  0  0  0  0  0  0  0  0  0
    0.2730   20.4550  -30.3940 C   0  0  0  0  0  0  0  0  0  0  0  0
    0.7020   19.2200  -30.8790 C   0  0  0  0  0  0  0  0  0  0  0  0
    0.7610   18.9640  -32.2620 C   0  0  0  0  0  0  0  0  0  0  0  0
    1.1800   17.6060  -32.6890 C   0  0  0  0  0  0  0  0  0  0  0  0
    2.3830   17.3570  -32.9540 O   0  0  0  0  0  0  0  0  0  0  0  0
    0.1920   16.5700  -32.8030 N   0  0  0  0  0  0  0  0  0  0  0  0
   -1.1860   16.7410  -33.1600 C   0  0  0  0  0  0  0  0  0  0  0  0
   -1.8290   15.8940  -34.0800 C   0  0  0  0  0  0  0  0  0  0  0  0
   -3.1780   16.0880  -34.3910 C   0  0  0  0  0  0  0  0  0  0  0  0
   -3.9030   17.1170  -33.7800 C   0  0  0  0  0  0  0  0  0  0  0  0
   -5.5900   17.3690  -34.2130 S   0  0  0  0  0  0  0  0  0  0  0  0
   -5.7110   17.4940  -35.7060 O   0  0  0  0  0  0  0  0  0  0  0  0
   -6.4320   16.2070  -33.7660 O   0  0  0  0  0  0  0  0  0  0  0  0
   -6.1620   18.8370  -33.4300 C   0  0  0  0  0  0  0  0  0  0  0  0
   -7.3180   18.8050  -32.6400 C   0  0  0  0  0  0  0  0  0  0  0  0
   -7.7530   19.9590  -31.9820 C   0  0  0  0  0  0  0  0  0  0  0  0
   -7.0280   21.1530  -32.0980 C   0  0  0  0  0  0  0  0  0  0  0  0
   -7.5610   22.6010  -31.2400 S   0  0  0  0  0  0  0  0  0  0  0  0
   -8.7180   23.2150  -31.9770 O   0  0  0  0  0  0  0  0  0  0  0  0
   -8.0370   22.2120  -29.8680 O   0  0  0  0  0  0  0  0  0  0  0  0
   -6.2780   23.7760  -31.0910 N   0  0  0  0  0  0  0  0  0  0  0  0
   -6.7190   24.9200  -30.2790 C   0  0  0  0  0  0  0  0  0  0  0  0
   -5.5830   25.9600  -30.1800 C   0  0  0  0  0  0  0  0  0  0  0  0
   -4.3630   25.4810  -30.7220 O   0  0  0  0  0  0  0  0  0  0  0  0
   -4.0350   24.2380  -30.1360 C   0  0  0  0  0  0  0  0  0  0  0  0
   -5.0800   23.1600  -30.4950 C   0  0  0  0  0  0  0  0  0  0  0  0
   -5.8710   21.1840  -32.8890 C   0  0  0  0  0  0  0  0  0  0  0  0
   -5.4390   20.0320  -33.5500 C   0  0  0  0  0  0  0  0  0  0  0  0
   -3.2710   17.9480  -32.8440 C   0  0  0  0  0  0  0  0  0  0  0  0
   -1.9230   17.7520  -32.5300 C   0  0  0  0  0  0  0  0  0  0  0  0
    2.5560   22.1290  -35.6330 C   0  0  0  0  0  0  0  0  0  0  0  0
    3.4730   21.0080  -34.6420 Cl  0  0  0  0  0  0  0  0  0  0  0  0
    4.6961   23.9045  -34.9630 H   0  0  0  0  0  0  0  0  0  0  0  0
    5.1505   23.1150  -36.5112 H   0  0  0  0  0  0  0  0  0  0  0  0
    4.5270   24.7996  -36.5112 H   0  0  0  0  0  0  0  0  0  0  0  0
   -0.4338   21.9994  -33.3454 H   0  0  0  0  0  0  0  0  0  0  0  0
   -0.4783   22.4181  -30.8977 H   0  0  0  0  0  0  0  0  0  0  0  0
    0.2525   20.6438  -29.3105 H   0  0  0  0  0  0  0  0  0  0  0  0
    0.9990   18.4334  -30.1697 H   0  0  0  0  0  0  0  0  0  0  0  0
   -1.2687   15.0761  -34.5565 H   0  0  0  0  0  0  0  0  0  0  0  0
   -3.6720   15.4284  -35.1197 H   0  0  0  0  0  0  0  0  0  0  0  0
   -7.8856   17.8684  -32.5370 H   0  0  0  0  0  0  0  0  0  0  0  0
   -8.6673   19.9300  -31.3711 H   0  0  0  0  0  0  0  0  0  0  0  0
   -7.5987   25.3838  -30.7490 H   0  0  0  0  0  0  0  0  0  0  0  0
   -6.9795   24.5697  -29.2694 H   0  0  0  0  0  0  0  0  0  0  0  0
   -5.8830   26.8643  -30.7298 H   0  0  0  0  0  0  0  0  0  0  0  0
   -5.4156   26.1735  -29.1140 H   0  0  0  0  0  0  0  0  0  0  0  0
   -3.0484   23.9177  -30.5021 H   0  0  0  0  0  0  0  0  0  0  0  0
   -4.0214   24.3604  -29.0429 H   0  0  0  0  0  0  0  0  0  0  0  0
   -4.6394   22.4555  -31.2158 H   0  0  0  0  0  0  0  0  0  0  0  0
   -5.3735   22.6313  -29.5761 H   0  0  0  0  0  0  0  0  0  0  0  0
   -5.3011   22.1195  -32.9895 H   0  0  0  0  0  0  0  0  0  0  0  0
   -4.5286   20.0625  -34.1667 H   0  0  0  0  0  0  0  0  0  0  0  0
   -3.8368   18.7554  -32.3561 H   0  0  0  0  0  0  0  0  0  0  0  0
   -1.4373   18.3966  -31.7825 H   0  0  0  0  0  0  0  0  0  0  0  0
  1  2  1  0
  2  3  1  0
  3  4  1  0
  4  5  1  0
  5  6  2  3
  6  7  1  0
  7  8  2  0
  7  9  2  0
  7 10  1  0
 10 11  2  0
 11 12  1  0
 12 13  2  0
 13 14  1  0
 14 15  2  0
 15 16  1  0
 16 17  2  0
 16 18  1  0
 18 19  1  0
 19 20  2  0
 20 21  1  0
 21 22  2  0
 22 23  1  0
 23 24  2  0
 23 25  2  0
 23 26  1  0
 26 27  2  0
 27 28  1  0
 28 29  2  0
 29 30  1  0
 30 31  2  0
 30 32  2  0
 30 33  1  0
 33 34  1  0
 34 35  1  0
 35 36  1  0
 36 37  1  0
 37 38  1  0
 29 39  1  0
 39 40  2  0
 22 41  1  0
 41 42  2  0
  5 43  1  0
 43 44  1  0
 43  2  2  0
 15 10  1  0
 42 19  1  0
 40 26  1  0
 38 33  1  0
  1 45  1  0
  1 46  1  0
  1 47  1  0
 11 48  1  0
 12 49  1  0
 13 50  1  0
 14 51  1  0
 20 52  1  0
 21 53  1  0
 27 54  1  0
 28 55  1  0
 34 56  1  0
 34 57  1  0
 35 58  1  0
 35 59  1  0
 37 60  1  0
 37 61  1  0
 38 62  1  0
 38 63  1  0
 39 64  1  0
 40 65  1  0
 41 66  1  0
 42 67  1  0
M  CHG  2   3  -1  18  -1
M  END
>  <UniqueID>  (46) 
44

>  <SMILES>  (46) 
Cc1[n-]oc(=NS(=O)(=O)c2ccccc2C(=O)[N-]c2ccc(S(=O)(=O)c3ccc(S(=O)(=O)N4CCOCC4)cc3)cc2)c1Cl

>  <Energy>  (46) 
132.2972537049445

>  <Genealogy>  (46) 
Cc1[n-]oc(=NS(=O)(=O)c2ccccc2C(=O)[N-]c2ccc(S(=O)(=O)c3ccc(S(=O)(=O)N4CCOCC4)cc3)cc2)c1Cl (protonated)
Cc1[n-]oc(=NS(=O)(=O)c2ccccc2C(=O)[N-]c2ccc(S(=O)(=O)c3ccc(S(=O)(=O)N4CCOCC4)cc3)cc2)c1Cl (3D coordinates assigned)
Cc1[n-]oc(=NS(=O)(=O)c2ccccc2C(=O)[N-]c2ccc(S(=O)(=O)c3ccc(S(=O)(=O)N4CCOCC4)cc3)cc2)c1Cl (nonaromatic ring conformer: 132.2972537049445 kcal/mol)

>  <smiles>  (46) 
Cc1[nH]oc(=NS(=O)(=O)c2ccccc2C(=O)Nc2ccc(S(=O)(=O)c3ccc(S(=O)(=O)N4CCOCC4)cc3)cc2)c1Cl

>  <score_type>  (46) 
oracle

>  <origin>  (46) 
adgpu

>  <m_score__min__energy>  (46) 
-13.65

>  <m_primary>  (46) 
energy

$$$$
46:0
     RDKit          3D

 49 52  0  0  0  0  0  0  0  0999 V2000
   -2.0070   24.9880  -27.4120 C   0  0  0  0  0  0  0  0  0  0  0  0
   -2.1330   24.9180  -28.9300 C   0  0  0  0  0  0  0  0  0  0  0  0
   -3.2580   24.0690  -29.3110 N   0  0  0  0  0  0  0  0  0  0  0  0
   -4.3090   24.5260  -30.1810 C   0  0  0  0  0  0  0  0  0  0  0  0
   -4.2030   25.6400  -30.7610 O   0  0  0  0  0  0  0  0  0  0  0  0
   -5.5010   23.7010  -30.4490 C   0  0  0  0  0  0  0  0  0  0  0  0
   -6.7540   24.0990  -30.1480 N   0  0  0  0  0  0  0  0  0  0  0  0
   -7.5780   23.1460  -30.5620 N   0  0  0  0  0  0  0  0  0  0  0  0
   -6.9030   22.1450  -31.1090 N   0  0  0  0  0  0  0  0  0  0  0  0
   -7.5330   20.9530  -31.6180 C   0  0  0  0  0  0  0  0  0  0  0  0
   -6.8420   19.7310  -31.5880 C   0  0  0  0  0  0  0  0  0  0  0  0
   -7.4360   18.5670  -32.0820 C   0  0  0  0  0  0  0  0  0  0  0  0
   -8.7250   18.6130  -32.6180 C   0  0  0  0  0  0  0  0  0  0  0  0
   -9.4120   19.8280  -32.6780 C   0  0  0  0  0  0  0  0  0  0  0  0
   -8.8160   20.9960  -32.1920 C   0  0  0  0  0  0  0  0  0  0  0  0
   -5.5870   22.4570  -31.0600 C   0  0  0  0  0  0  0  0  0  0  0  0
   -4.4800   21.6320  -31.5850 C   0  0  0  0  0  0  0  0  0  0  0  0
   -4.4420   21.2850  -32.9440 C   0  0  0  0  0  0  0  0  0  0  0  0
   -3.3990   20.4970  -33.4350 C   0  0  0  0  0  0  0  0  0  0  0  0
   -2.3890   20.0550  -32.5780 C   0  0  0  0  0  0  0  0  0  0  0  0
   -2.4090   20.4100  -31.2170 C   0  0  0  0  0  0  0  0  0  0  0  0
   -1.4280   19.9680  -30.3180 O   0  0  0  0  0  0  0  0  0  0  0  0
   -1.2730   20.4180  -28.9990 C   0  0  0  0  0  0  0  0  0  0  0  0
   -0.5430   21.5810  -28.6910 C   0  0  0  0  0  0  0  0  0  0  0  0
   -0.4210   22.0040  -27.3630 C   0  0  0  0  0  0  0  0  0  0  0  0
   -1.0330   21.2790  -26.3370 C   0  0  0  0  0  0  0  0  0  0  0  0
   -1.7820   20.1390  -26.6420 C   0  0  0  0  0  0  0  0  0  0  0  0
   -1.9070   19.7140  -27.9690 C   0  0  0  0  0  0  0  0  0  0  0  0
   -3.4650   21.1860  -30.7260 C   0  0  0  0  0  0  0  0  0  0  0  0
   -2.8792   24.5034  -26.9489 H   0  0  0  0  0  0  0  0  0  0  0  0
   -1.0893   24.4704  -27.0960 H   0  0  0  0  0  0  0  0  0  0  0  0
   -1.9616   26.0407  -27.0960 H   0  0  0  0  0  0  0  0  0  0  0  0
   -2.2934   25.9312  -29.3271 H   0  0  0  0  0  0  0  0  0  0  0  0
   -1.2082   24.4903  -29.3444 H   0  0  0  0  0  0  0  0  0  0  0  0
   -3.2590   23.0820  -28.9670 H   0  0  0  0  0  0  0  0  0  0  0  0
   -5.8245   19.6899  -31.1721 H   0  0  0  0  0  0  0  0  0  0  0  0
   -6.8882   17.6137  -32.0488 H   0  0  0  0  0  0  0  0  0  0  0  0
   -9.1987   17.6936  -32.9925 H   0  0  0  0  0  0  0  0  0  0  0  0
  -10.4236   19.8660  -33.1083 H   0  0  0  0  0  0  0  0  0  0  0  0
   -9.3536   21.9533  -32.2591 H   0  0  0  0  0  0  0  0  0  0  0  0
   -5.2341   21.6338  -33.6229 H   0  0  0  0  0  0  0  0  0  0  0  0
   -3.3729   20.2236  -34.5002 H   0  0  0  0  0  0  0  0  0  0  0  0
   -1.5748   19.4269  -32.9686 H   0  0  0  0  0  0  0  0  0  0  0  0
   -0.0669   22.1592  -29.4967 H   0  0  0  0  0  0  0  0  0  0  0  0
    0.1577   22.9089  -27.1261 H   0  0  0  0  0  0  0  0  0  0  0  0
   -0.9255   21.6047  -25.2918 H   0  0  0  0  0  0  0  0  0  0  0  0
   -2.2745   19.5745  -25.8365 H   0  0  0  0  0  0  0  0  0  0  0  0
   -2.5065   18.8222  -28.2039 H   0  0  0  0  0  0  0  0  0  0  0  0
   -3.4992   21.4482  -29.6582 H   0  0  0  0  0  0  0  0  0  0  0  0
  1  2  1  0
  2  3  1  0
  3  4  1  0
  4  5  2  0
  4  6  1  0
  6  7  1  0
  7  8  2  0
  8  9  1  0
  9 10  1  0
 10 11  2  0
 11 12  1  0
 12 13  2  0
 13 14  1  0
 14 15  2  0
  9 16  1  0
 16 17  1  0
 17 18  2  0
 18 19  1  0
 19 20  2  0
 20 21  1  0
 21 22  1  0
 22 23  1  0
 23 24  2  0
 24 25  1  0
 25 26  2  0
 26 27  1  0
 27 28  2  0
 21 29  2  0
 16  6  2  0
 29 17  1  0
 15 10  1  0
 28 23  1  0
  1 30  1  0
  1 31  1  0
  1 32  1  0
  2 33  1  0
  2 34  1  0
  3 35  1  0
 11 36  1  0
 12 37  1  0
 13 38  1  0
 14 39  1  0
 15 40  1  0
 18 41  1  0
 19 42  1  0
 20 43  1  0
 24 44  1  0
 25 45  1  0
 26 46  1  0
 27 47  1  0
 28 48  1  0
 29 49  1  0
M  END
>  <UniqueID>  (47) 
45

>  <SMILES>  (47) 
CCNC(=O)c1nnn(-c2ccccc2)c1-c1cccc(Oc2ccccc2)c1

>  <Energy>  (47) 
101.90494432536178

>  <Genealogy>  (47) 
CCNC(=O)c1nnn(-c2ccccc2)c1-c1cccc(Oc2ccccc2)c1 (3D coordinates assigned)
CCNC(=O)c1nnn(-c2ccccc2)c1-c1cccc(Oc2ccccc2)c1 (optimized conformer: 101.90494432536178 kcal/mol)

>  <smiles>  (47) 
CCNC(=O)c1nnn(-c2ccccc2)c1-c1cccc(Oc2ccccc2)c1

>  <score_type>  (47) 
oracle

>  <origin>  (47) 
adgpu

>  <m_score__min__energy>  (47) 
-9.4600000000000009

>  <m_primary>  (47) 
energy

$$$$
47:0
     RDKit          3D

 62 65  0  0  0  0  0  0  0  0999 V2000
    1.8030   18.5520  -28.5250 C   0  0  0  0  0  0  0  0  0  0  0  0
    0.7510   19.4730  -27.9730 C   0  0  0  0  0  0  0  0  0  0  0  0
    0.8510   20.8600  -28.1810 C   0  0  0  0  0  0  0  0  0  0  0  0
   -0.1380   21.7190  -27.6930 C   0  0  0  0  0  0  0  0  0  0  0  0
   -0.0320   23.4830  -28.0110 S   0  0  0  0  0  0  0  0  0  0  0  0
   -1.4200   23.4440  -29.1510 C   0  0  0  0  0  0  0  0  0  0  0  0
   -1.6980   22.2650  -29.8490 C   0  0  0  0  0  0  0  0  0  0  0  0
   -2.7530   22.2150  -30.7730 C   0  0  0  0  0  0  0  0  0  0  0  0
   -3.0790   21.0180  -31.4940 N   0  0  0  0  0  0  0  0  0  0  0  0
   -2.0280   20.2060  -32.6090 S   0  0  0  0  0  0  0  0  0  0  0  0
   -1.6450   21.1600  -33.7050 O   0  0  0  0  0  0  0  0  0  0  0  0
   -0.7740   19.7680  -31.9040 O   0  0  0  0  0  0  0  0  0  0  0  0
   -2.8780   18.8370  -33.3190 C   0  0  0  0  0  0  0  0  0  0  0  0
   -2.2760   18.0480  -34.3110 C   0  0  0  0  0  0  0  0  0  0  0  0
   -2.9400   16.9260  -34.8140 C   0  0  0  0  0  0  0  0  0  0  0  0
   -4.2150   16.5920  -34.3470 C   0  0  0  0  0  0  0  0  0  0  0  0
   -4.8630   15.4790  -34.8730 O   0  0  0  0  0  0  0  0  0  0  0  0
   -4.8320   17.3820  -33.3600 C   0  0  0  0  0  0  0  0  0  0  0  0
   -6.4690   17.0140  -32.8080 S   0  0  0  0  0  0  0  0  0  0  0  0
   -6.4500   16.6830  -31.3410 O   0  0  0  0  0  0  0  0  0  0  0  0
   -6.9660   15.8230  -33.5790 O   0  0  0  0  0  0  0  0  0  0  0  0
   -7.5250   18.3780  -33.0870 N   0  0  0  0  0  0  0  0  0  0  0  0
   -6.7670   19.5610  -33.5720 C   0  0  0  0  0  0  0  0  0  0  0  0
   -6.6950   20.7050  -32.5480 C   0  0  0  0  0  0  0  0  0  0  0  0
   -8.1010   21.1430  -32.1030 C   0  0  0  0  0  0  0  0  0  0  0  0
   -9.0890   19.9660  -31.9980 C   0  0  0  0  0  0  0  0  0  0  0  0
   -8.3560   18.6250  -31.8900 C   0  0  0  0  0  0  0  0  0  0  0  0
   -4.1560   18.5040  -32.8540 C   0  0  0  0  0  0  0  0  0  0  0  0
   -3.5270   23.3620  -30.9900 C   0  0  0  0  0  0  0  0  0  0  0  0
   -3.2680   24.5430  -30.2830 C   0  0  0  0  0  0  0  0  0  0  0  0
   -4.0770   25.6580  -30.5020 O   0  0  0  0  0  0  0  0  0  0  0  0
   -2.2100   24.5850  -29.3600 C   0  0  0  0  0  0  0  0  0  0  0  0
   -1.9470   25.7540  -28.6520 O   0  0  0  0  0  0  0  0  0  0  0  0
   -1.2270   21.2020  -26.9830 C   0  0  0  0  0  0  0  0  0  0  0  0
   -1.3450   19.8180  -26.7710 C   0  0  0  0  0  0  0  0  0  0  0  0
   -2.5430   19.2690  -26.0480 C   0  0  0  0  0  0  0  0  0  0  0  0
   -0.3610   18.9520  -27.2850 C   0  0  0  0  0  0  0  0  0  0  0  0
   -0.4900   17.5740  -27.1110 O   0  0  0  0  0  0  0  0  0  0  0  0
    2.3461   18.0765  -27.6950 H   0  0  0  0  0  0  0  0  0  0  0  0
    1.3247   17.7770  -29.1420 H   0  0  0  0  0  0  0  0  0  0  0  0
    2.5080   19.1285  -29.1420 H   0  0  0  0  0  0  0  0  0  0  0  0
    1.7111   21.2709  -28.7300 H   0  0  0  0  0  0  0  0  0  0  0  0
   -1.0847   21.3691  -29.6724 H   0  0  0  0  0  0  0  0  0  0  0  0
   -1.2793   18.3132  -34.6935 H   0  0  0  0  0  0  0  0  0  0  0  0
   -2.4573   16.3025  -35.5810 H   0  0  0  0  0  0  0  0  0  0  0  0
   -5.7415   19.2432  -33.8116 H   0  0  0  0  0  0  0  0  0  0  0  0
   -7.3003   19.9482  -34.4527 H   0  0  0  0  0  0  0  0  0  0  0  0
   -6.1302   20.3637  -31.6679 H   0  0  0  0  0  0  0  0  0  0  0  0
   -6.1958   21.5640  -33.0201 H   0  0  0  0  0  0  0  0  0  0  0  0
   -8.0231   21.6252  -31.1174 H   0  0  0  0  0  0  0  0  0  0  0  0
   -8.4892   21.8334  -32.8663 H   0  0  0  0  0  0  0  0  0  0  0  0
   -9.7154   20.1039  -31.1043 H   0  0  0  0  0  0  0  0  0  0  0  0
   -9.7047   19.9501  -32.9094 H   0  0  0  0  0  0  0  0  0  0  0  0
   -7.7097   18.6389  -31.0000 H   0  0  0  0  0  0  0  0  0  0  0  0
   -9.1038   17.8222  -31.8106 H   0  0  0  0  0  0  0  0  0  0  0  0
   -4.6352   19.1274  -32.0848 H   0  0  0  0  0  0  0  0  0  0  0  0
   -4.3466   23.3350  -31.7231 H   0  0  0  0  0  0  0  0  0  0  0  0
   -3.8610   26.5660  -30.1080 H   0  0  0  0  0  0  0  0  0  0  0  0
   -1.9954   21.8830  -26.5884 H   0  0  0  0  0  0  0  0  0  0  0  0
   -2.3817   19.3429  -24.9624 H   0  0  0  0  0  0  0  0  0  0  0  0
   -3.4362   19.8477  -26.3263 H   0  0  0  0  0  0  0  0  0  0  0  0
   -2.6878   18.2147  -26.3263 H   0  0  0  0  0  0  0  0  0  0  0  0
  1  2  1  0
  2  3  2  0
  3  4  1  0
  4  5  1  0
  5  6  1  0
  6  7  2  0
  7  8  1  0
  8  9  1  0
  9 10  1  0
 10 11  2  0
 10 12  2  0
 10 13  1  0
 13 14  2  0
 14 15  1  0
 15 16  2  0
 16 17  1  0
 16 18  1  0
 18 19  1  0
 19 20  2  0
 19 21  2  0
 19 22  1  0
 22 23  1  0
 23 24  1  0
 24 25  1  0
 25 26  1  0
 26 27  1  0
 18 28  2  0
  8 29  2  0
 29 30  1  0
 30 31  1  0
 30 32  2  0
 32 33  1  0
  4 34  2  0
 34 35  1  0
 35 36  1  0
 35 37  2  0
 37 38  1  0
 37  2  1  0
 32  6  1  0
 28 13  1  0
 27 22  1  0
  1 39  1  0
  1 40  1  0
  1 41  1  0
  3 42  1  0
  7 43  1  0
 14 44  1  0
 15 45  1  0
 23 46  1  0
 23 47  1  0
 24 48  1  0
 24 49  1  0
 25 50  1  0
 25 51  1  0
 26 52  1  0
 26 53  1  0
 27 54  1  0
 27 55  1  0
 28 56  1  0
 29 57  1  0
 31 58  1  0
 34 59  1  0
 36 60  1  0
 36 61  1  0
 36 62  1  0
M  CHG  4   9  -1  17  -1  33  -1  38  -1
M  END
>  <UniqueID>  (48) 
46

>  <SMILES>  (48) 
Cc1cc(Sc2cc([N-]S(=O)(=O)c3ccc([O-])c(S(=O)(=O)N4CCCCC4)c3)cc(O)c2[O-])cc(C)c1[O-]

>  <Energy>  (48) 
70.01686325009685

>  <Genealogy>  (48) 
Cc1cc(Sc2cc([N-]S(=O)(=O)c3ccc([O-])c(S(=O)(=O)N4CCCCC4)c3)cc(O)c2[O-])cc(C)c1[O-] (protonated)
Cc1cc(Sc2cc([N-]S(=O)(=O)c3ccc([O-])c(S(=O)(=O)N4CCCCC4)c3)cc(O)c2[O-])cc(C)c1[O-] (3D coordinates assigned)
Cc1cc(Sc2cc([N-]S(=O)(=O)c3ccc([O-])c(S(=O)(=O)N4CCCCC4)c3)cc(O)c2[O-])cc(C)c1[O-] (nonaromatic ring conformer: 70.01686325009685 kcal/mol)

>  <smiles>  (48) 
Cc1cc(Sc2cc(NS(=O)(=O)c3ccc(O)c(S(=O)(=O)N4CCCCC4)c3)cc(O)c2O)cc(C)c1O

>  <score_type>  (48) 
oracle

>  <origin>  (48) 
adgpu

>  <m_score__min__energy>  (48) 
-14.18

>  <m_primary>  (48) 
energy

$$$$
48:0
     RDKit          3D

 52 55  0  0  0  0  0  0  0  0999 V2000
   -2.2370   23.6070  -28.9350 O   0  0  0  0  0  0  0  0  0  0  0  0
   -2.4460   23.1630  -30.0940 C   0  0  0  0  0  0  0  0  0  0  0  0
   -1.3430   22.6220  -30.8330 N   0  0  0  0  0  0  0  0  0  0  0  0
   -1.2570   21.2980  -31.3840 C   0  0  0  0  0  0  0  0  0  0  0  0
   -1.9520   20.9510  -32.5580 C   0  0  0  0  0  0  0  0  0  0  0  0
   -1.8600   19.6560  -33.0740 C   0  0  0  0  0  0  0  0  0  0  0  0
   -1.0840   18.6950  -32.4240 C   0  0  0  0  0  0  0  0  0  0  0  0
   -0.4080   19.0230  -31.2470 C   0  0  0  0  0  0  0  0  0  0  0  0
   -0.5010   20.3170  -30.7170 C   0  0  0  0  0  0  0  0  0  0  0  0
    0.3800   20.7050  -29.1990 S   0  0  0  0  0  0  0  0  0  0  0  0
   -0.9090   20.0200  -28.1580 C   0  0  0  0  0  0  0  0  0  0  0  0
   -2.1220   20.7040  -28.0040 C   0  0  0  0  0  0  0  0  0  0  0  0
   -3.1270   20.1700  -27.1900 C   0  0  0  0  0  0  0  0  0  0  0  0
   -2.9230   18.9530  -26.5320 C   0  0  0  0  0  0  0  0  0  0  0  0
   -1.7160   18.2670  -26.6910 C   0  0  0  0  0  0  0  0  0  0  0  0
   -0.7090   18.7970  -27.5040 C   0  0  0  0  0  0  0  0  0  0  0  0
   -3.8110   23.2400  -30.6660 C   0  0  0  0  0  0  0  0  0  0  0  0
   -4.4850   22.0530  -31.0030 C   0  0  0  0  0  0  0  0  0  0  0  0
   -5.7720   22.0980  -31.5600 C   0  0  0  0  0  0  0  0  0  0  0  0
   -6.6240   20.6150  -31.9820 S   0  0  0  0  0  0  0  0  0  0  0  0
   -7.2520   20.7520  -33.3420 O   0  0  0  0  0  0  0  0  0  0  0  0
   -7.7130   20.3900  -30.9700 O   0  0  0  0  0  0  0  0  0  0  0  0
   -5.4910   19.2810  -31.9600 N   0  0  0  0  0  0  0  0  0  0  0  0
   -4.8530   19.0780  -33.2800 C   0  0  0  0  0  0  0  0  0  0  0  0
   -5.4920   17.9300  -34.0800 C   0  0  0  0  0  0  0  0  0  0  0  0
   -6.8700   17.8430  -33.7960 O   0  0  0  0  0  0  0  0  0  0  0  0
   -7.0690   17.3950  -32.4660 C   0  0  0  0  0  0  0  0  0  0  0  0
   -6.1110   18.0490  -31.4400 C   0  0  0  0  0  0  0  0  0  0  0  0
   -6.3940   23.3330  -31.7660 C   0  0  0  0  0  0  0  0  0  0  0  0
   -5.7410   24.5160  -31.4150 C   0  0  0  0  0  0  0  0  0  0  0  0
   -4.4610   24.4760  -30.8570 C   0  0  0  0  0  0  0  0  0  0  0  0
   -3.8550   25.6690  -30.4730 O   0  0  0  0  0  0  0  0  0  0  0  0
   -2.5700   21.7025  -33.0711 H   0  0  0  0  0  0  0  0  0  0  0  0
   -2.4006   19.3930  -33.9951 H   0  0  0  0  0  0  0  0  0  0  0  0
   -1.0050   17.6793  -32.8389 H   0  0  0  0  0  0  0  0  0  0  0  0
    0.1997   18.2630  -30.7340 H   0  0  0  0  0  0  0  0  0  0  0  0
   -2.2842   21.6603  -28.5228 H   0  0  0  0  0  0  0  0  0  0  0  0
   -4.0786   20.7080  -27.0675 H   0  0  0  0  0  0  0  0  0  0  0  0
   -3.7124   18.5359  -25.8895 H   0  0  0  0  0  0  0  0  0  0  0  0
   -1.5576   17.3082  -26.1757 H   0  0  0  0  0  0  0  0  0  0  0  0
    0.2394   18.2542  -27.6300 H   0  0  0  0  0  0  0  0  0  0  0  0
   -3.9995   21.0815  -30.8286 H   0  0  0  0  0  0  0  0  0  0  0  0
   -4.9463   20.0067  -33.8621 H   0  0  0  0  0  0  0  0  0  0  0  0
   -3.8005   18.8123  -33.1021 H   0  0  0  0  0  0  0  0  0  0  0  0
   -5.3543   18.1165  -35.1553 H   0  0  0  0  0  0  0  0  0  0  0  0
   -5.0080   16.9838  -33.7964 H   0  0  0  0  0  0  0  0  0  0  0  0
   -8.1034   17.6268  -32.1724 H   0  0  0  0  0  0  0  0  0  0  0  0
   -6.8625   16.3146  -32.4560 H   0  0  0  0  0  0  0  0  0  0  0  0
   -6.6803   18.2957  -30.5317 H   0  0  0  0  0  0  0  0  0  0  0  0
   -5.3054   17.3310  -31.2266 H   0  0  0  0  0  0  0  0  0  0  0  0
   -7.4013   23.3727  -32.2061 H   0  0  0  0  0  0  0  0  0  0  0  0
   -6.2368   25.4842  -31.5786 H   0  0  0  0  0  0  0  0  0  0  0  0
  1  2  2  0
  2  3  1  0
  3  4  1  0
  4  5  2  0
  5  6  1  0
  6  7  2  0
  7  8  1  0
  8  9  2  0
  9 10  1  0
 10 11  1  0
 11 12  2  0
 12 13  1  0
 13 14  2  0
 14 15  1  0
 15 16  2  0
  2 17  1  0
 17 18  2  0
 18 19  1  0
 19 20  1  0
 20 21  2  0
 20 22  2  0
 20 23  1  0
 23 24  1  0
 24 25  1  0
 25 26  1  0
 26 27  1  0
 27 28  1  0
 19 29  2  0
 29 30  1  0
 30 31  2  0
 31 32  1  0
  9  4  1  0
 16 11  1  0
 31 17  1  0
 28 23  1  0
  5 33  1  0
  6 34  1  0
  7 35  1  0
  8 36  1  0
 12 37  1  0
 13 38  1  0
 14 39  1  0
 15 40  1  0
 16 41  1  0
 18 42  1  0
 24 43  1  0
 24 44  1  0
 25 45  1  0
 25 46  1  0
 27 47  1  0
 27 48  1  0
 28 49  1  0
 28 50  1  0
 29 51  1  0
 30 52  1  0
M  CHG  2   3  -1  32  -1
M  END
>  <UniqueID>  (49) 
47

>  <SMILES>  (49) 
O=C([N-]c1ccccc1Sc1ccccc1)c1cc(S(=O)(=O)N2CCOCC2)ccc1[O-]

>  <Energy>  (49) 
70.67179224575176

>  <Genealogy>  (49) 
O=C([N-]c1ccccc1Sc1ccccc1)c1cc(S(=O)(=O)N2CCOCC2)ccc1[O-] (protonated)
O=C([N-]c1ccccc1Sc1ccccc1)c1cc(S(=O)(=O)N2CCOCC2)ccc1[O-] (3D coordinates assigned)
O=C([N-]c1ccccc1Sc1ccccc1)c1cc(S(=O)(=O)N2CCOCC2)ccc1[O-] (nonaromatic ring conformer: 70.67179224575176 kcal/mol)

>  <smiles>  (49) 
O=C(Nc1ccccc1Sc1ccccc1)c1cc(S(=O)(=O)N2CCOCC2)ccc1O

>  <score_type>  (49) 
oracle

>  <origin>  (49) 
adgpu

>  <m_score__min__energy>  (49) 
-14.199999999999999

>  <m_primary>  (49) 
energy

$$$$
49:0
     RDKit          3D

 61 64  0  0  0  0  0  0  0  0999 V2000
    1.6140   23.1960  -36.8000 N   0  0  0  0  0  0  0  0  0  0  0  0
    1.1810   22.0560  -35.5730 S   0  0  0  0  0  0  0  0  0  0  0  0
   -0.2030   22.3800  -35.0870 O   0  0  0  0  0  0  0  0  0  0  0  0
    2.1520   22.1690  -34.4350 O   0  0  0  0  0  0  0  0  0  0  0  0
    1.2320   20.4080  -36.2080 C   0  0  0  0  0  0  0  0  0  0  0  0
    2.1550   20.0830  -37.2140 C   0  0  0  0  0  0  0  0  0  0  0  0
    2.2440   18.7720  -37.6930 C   0  0  0  0  0  0  0  0  0  0  0  0
    1.4160   17.7830  -37.1740 C   0  0  0  0  0  0  0  0  0  0  0  0
    0.4900   18.0960  -36.1790 C   0  0  0  0  0  0  0  0  0  0  0  0
    0.3840   19.4100  -35.6890 C   0  0  0  0  0  0  0  0  0  0  0  0
   -0.5600   19.7470  -34.6600 N   0  0  0  0  0  0  0  0  0  0  0  0
   -0.5130   19.1340  -33.0390 S   0  0  0  0  0  0  0  0  0  0  0  0
   -1.3100   17.8590  -32.9610 O   0  0  0  0  0  0  0  0  0  0  0  0
    0.9120   18.8370  -32.6620 O   0  0  0  0  0  0  0  0  0  0  0  0
   -1.1560   20.3490  -31.9390 C   0  0  0  0  0  0  0  0  0  0  0  0
   -0.3150   21.3110  -31.3640 C   0  0  0  0  0  0  0  0  0  0  0  0
   -0.8100   22.1990  -30.4080 C   0  0  0  0  0  0  0  0  0  0  0  0
   -2.1630   22.1630  -30.0410 C   0  0  0  0  0  0  0  0  0  0  0  0
   -2.7050   23.1260  -29.0150 C   0  0  0  0  0  0  0  0  0  0  0  0
   -2.7520   24.5420  -29.5290 C   0  0  0  0  0  0  0  0  0  0  0  0
   -1.9470   25.3950  -29.0650 O   0  0  0  0  0  0  0  0  0  0  0  0
   -3.7640   24.9750  -30.4440 N   0  0  0  0  0  0  0  0  0  0  0  0
   -4.9690   24.2640  -30.7500 C   0  0  0  0  0  0  0  0  0  0  0  0
   -6.0910   24.3440  -29.9120 C   0  0  0  0  0  0  0  0  0  0  0  0
   -7.2440   23.6100  -30.2070 C   0  0  0  0  0  0  0  0  0  0  0  0
   -7.2830   22.7790  -31.3360 C   0  0  0  0  0  0  0  0  0  0  0  0
   -8.7400   21.8590  -31.7190 S   0  0  0  0  0  0  0  0  0  0  0  0
   -9.7460   22.7670  -32.3700 O   0  0  0  0  0  0  0  0  0  0  0  0
   -9.3420   21.3390  -30.4430 O   0  0  0  0  0  0  0  0  0  0  0  0
   -8.4000   20.5140  -32.7860 N   0  0  0  0  0  0  0  0  0  0  0  0
   -7.1480   19.8440  -32.4170 C   0  0  0  0  0  0  0  0  0  0  0  0
   -7.4890   18.6100  -31.5910 C   0  0  0  0  0  0  0  0  0  0  0  0
   -8.9700   18.3600  -31.8110 C   0  0  0  0  0  0  0  0  0  0  0  0
   -9.4550   19.4950  -32.7040 C   0  0  0  0  0  0  0  0  0  0  0  0
   -6.1460   22.6700  -32.1510 C   0  0  0  0  0  0  0  0  0  0  0  0
   -4.9920   23.4020  -31.8520 C   0  0  0  0  0  0  0  0  0  0  0  0
   -2.9990   21.1970  -30.6210 C   0  0  0  0  0  0  0  0  0  0  0  0
   -2.4960   20.2930  -31.5600 C   0  0  0  0  0  0  0  0  0  0  0  0
    2.5270   22.8860  -37.1970 H   0  0  0  0  0  0  0  0  0  0  0  0
    2.8114   20.8628  -37.6276 H   0  0  0  0  0  0  0  0  0  0  0  0
    2.9698   18.5231  -38.4812 H   0  0  0  0  0  0  0  0  0  0  0  0
    1.4913   16.7516  -37.5488 H   0  0  0  0  0  0  0  0  0  0  0  0
   -0.1628   17.3086  -35.7742 H   0  0  0  0  0  0  0  0  0  0  0  0
    0.7408   21.3665  -31.6677 H   0  0  0  0  0  0  0  0  0  0  0  0
   -0.1354   22.9310  -29.9399 H   0  0  0  0  0  0  0  0  0  0  0  0
   -3.7240   22.8149  -28.7413 H   0  0  0  0  0  0  0  0  0  0  0  0
   -2.0318   23.1056  -28.1453 H   0  0  0  0  0  0  0  0  0  0  0  0
   -6.0637   24.9865  -29.0195 H   0  0  0  0  0  0  0  0  0  0  0  0
   -8.1238   23.6847  -29.5510 H   0  0  0  0  0  0  0  0  0  0  0  0
   -6.6050   19.5446  -33.3256 H   0  0  0  0  0  0  0  0  0  0  0  0
   -6.5119   20.5258  -31.8334 H   0  0  0  0  0  0  0  0  0  0  0  0
   -6.9000   17.7460  -31.9324 H   0  0  0  0  0  0  0  0  0  0  0  0
   -7.2580   18.7597  -30.5260 H   0  0  0  0  0  0  0  0  0  0  0  0
   -9.1252   17.3901  -32.3062 H   0  0  0  0  0  0  0  0  0  0  0  0
   -9.5210   18.3301  -30.8594 H   0  0  0  0  0  0  0  0  0  0  0  0
   -9.6737   19.1070  -33.7098 H   0  0  0  0  0  0  0  0  0  0  0  0
  -10.3708   19.9368  -32.2842 H   0  0  0  0  0  0  0  0  0  0  0  0
   -6.1621   22.0065  -33.0282 H   0  0  0  0  0  0  0  0  0  0  0  0
   -4.0989   23.2995  -32.4859 H   0  0  0  0  0  0  0  0  0  0  0  0
   -4.0599   21.1510  -30.3339 H   0  0  0  0  0  0  0  0  0  0  0  0
   -3.1595   19.5348  -32.0015 H   0  0  0  0  0  0  0  0  0  0  0  0
  1  2  1  0
  2  3  2  0
  2  4  2  0
  2  5  1  0
  5  6  2  0
  6  7  1  0
  7  8  2  0
  8  9  1  0
  9 10  2  0
 10 11  1  0
 11 12  1  0
 12 13  2  0
 12 14  2  0
 12 15  1  0
 15 16  2  0
 16 17  1  0
 17 18  2  0
 18 19  1  0
 19 20  1  0
 20 21  2  0
 20 22  1  0
 22 23  1  0
 23 24  2  0
 24 25  1  0
 25 26  2  0
 26 27  1  0
 27 28  2  0
 27 29  2  0
 27 30  1  0
 30 31  1  0
 31 32  1  0
 32 33  1  0
 33 34  1  0
 26 35  1  0
 35 36  2  0
 18 37  1  0
 37 38  2  0
 10  5  1  0
 38 15  1  0
 36 23  1  0
 34 30  1  0
  1 39  1  0
  6 40  1  0
  7 41  1  0
  8 42  1  0
  9 43  1  0
 16 44  1  0
 17 45  1  0
 19 46  1  0
 19 47  1  0
 24 48  1  0
 25 49  1  0
 31 50  1  0
 31 51  1  0
 32 52  1  0
 32 53  1  0
 33 54  1  0
 33 55  1  0
 34 56  1  0
 34 57  1  0
 35 58  1  0
 36 59  1  0
 37 60  1  0
 38 61  1  0
M  CHG  3   1  -1  11  -1  22  -1
M  END
>  <UniqueID>  (50) 
48

>  <SMILES>  (50) 
[NH-]S(=O)(=O)c1ccccc1[N-]S(=O)(=O)c1ccc(CC(=O)[N-]c2ccc(S(=O)(=O)N3CCCC3)cc2)cc1

>  <Energy>  (50) 
72.78747675631301

>  <Genealogy>  (50) 
[NH-]S(=O)(=O)c1ccccc1[N-]S(=O)(=O)c1ccc(CC(=O)[N-]c2ccc(S(=O)(=O)N3CCCC3)cc2)cc1 (protonated)
[NH-]S(=O)(=O)c1ccccc1[N-]S(=O)(=O)c1ccc(CC(=O)[N-]c2ccc(S(=O)(=O)N3CCCC3)cc2)cc1 (3D coordinates assigned)
[NH-]S(=O)(=O)c1ccccc1[N-]S(=O)(=O)c1ccc(CC(=O)[N-]c2ccc(S(=O)(=O)N3CCCC3)cc2)cc1 (nonaromatic ring conformer: 72.78747675631301 kcal/mol)

>  <smiles>  (50) 
NS(=O)(=O)c1ccccc1NS(=O)(=O)c1ccc(CC(=O)Nc2ccc(S(=O)(=O)N3CCCC3)cc2)cc1

>  <score_type>  (50) 
oracle

>  <origin>  (50) 
adgpu

>  <m_score__min__energy>  (50) 
-14.01

>  <m_primary>  (50) 
energy

$$$$
