0:0
     RDKit          3D

 45 47  0  0  0  0  0  0  0  0999 V2000
   -4.4550   24.5580  -28.8240 O   0  0  0  0  0  0  0  0  0  0  0  0
   -3.9750   24.1690  -30.1940 S   0  0  0  0  0  0  0  0  0  0  0  0
   -3.9330   25.3900  -31.0670 O   0  0  0  0  0  0  0  0  0  0  0  0
   -2.3760   23.5010  -30.0820 N   0  0  0  0  0  0  0  0  0  0  0  0
   -1.5150   23.6320  -28.9400 C   0  0  0  0  0  0  0  0  0  0  0  0
   -0.9300   22.5060  -28.3300 C   0  0  0  0  0  0  0  0  0  0  0  0
   -0.1360   22.6510  -27.1910 C   0  0  0  0  0  0  0  0  0  0  0  0
    0.0830   23.9190  -26.6480 C   0  0  0  0  0  0  0  0  0  0  0  0
   -0.4860   25.0450  -27.2470 C   0  0  0  0  0  0  0  0  0  0  0  0
   -1.2880   24.9110  -28.3870 C   0  0  0  0  0  0  0  0  0  0  0  0
   -1.8700   26.0560  -28.9350 O   0  0  0  0  0  0  0  0  0  0  0  0
   -5.0590   22.9500  -30.8590 C   0  0  0  0  0  0  0  0  0  0  0  0
   -6.4190   23.2440  -31.0050 C   0  0  0  0  0  0  0  0  0  0  0  0
   -7.3100   22.2590  -31.4390 C   0  0  0  0  0  0  0  0  0  0  0  0
   -6.8480   20.9660  -31.7230 C   0  0  0  0  0  0  0  0  0  0  0  0
   -7.9920   19.6870  -32.1430 S   0  0  0  0  0  0  0  0  0  0  0  0
   -8.7360   19.2680  -30.9040 O   0  0  0  0  0  0  0  0  0  0  0  0
   -8.9930   20.2230  -33.1300 O   0  0  0  0  0  0  0  0  0  0  0  0
   -7.1860   18.3020  -32.8470 N   0  0  0  0  0  0  0  0  0  0  0  0
   -6.4950   18.6410  -34.1150 C   0  0  0  0  0  0  0  0  0  0  0  0
   -5.0020   18.9710  -33.9300 C   0  0  0  0  0  0  0  0  0  0  0  0
   -4.2300   17.8840  -33.1520 C   0  0  0  0  0  0  0  0  0  0  0  0
   -5.1600   16.8750  -32.4750 C   0  0  0  0  0  0  0  0  0  0  0  0
   -6.3500   17.6040  -31.8420 C   0  0  0  0  0  0  0  0  0  0  0  0
   -5.4780   20.6810  -31.6120 C   0  0  0  0  0  0  0  0  0  0  0  0
   -4.5860   21.6710  -31.1870 C   0  0  0  0  0  0  0  0  0  0  0  0
   -1.0997   21.5052  -28.7538 H   0  0  0  0  0  0  0  0  0  0  0  0
    0.3175   21.7660  -26.7208 H   0  0  0  0  0  0  0  0  0  0  0  0
    0.7045   24.0309  -25.7473 H   0  0  0  0  0  0  0  0  0  0  0  0
   -0.3032   26.0425  -26.8210 H   0  0  0  0  0  0  0  0  0  0  0  0
   -2.7960   26.0420  -29.3460 H   0  0  0  0  0  0  0  0  0  0  0  0
   -6.7884   24.2548  -30.7772 H   0  0  0  0  0  0  0  0  0  0  0  0
   -8.3769   22.4987  -31.5582 H   0  0  0  0  0  0  0  0  0  0  0  0
   -6.5802   17.7833  -34.7984 H   0  0  0  0  0  0  0  0  0  0  0  0
   -6.9791   19.5433  -34.5169 H   0  0  0  0  0  0  0  0  0  0  0  0
   -4.5430   19.0822  -34.9234 H   0  0  0  0  0  0  0  0  0  0  0  0
   -4.9431   19.8981  -33.3410 H   0  0  0  0  0  0  0  0  0  0  0  0
   -3.5762   17.3453  -33.8537 H   0  0  0  0  0  0  0  0  0  0  0  0
   -3.6507   18.3859  -32.3630 H   0  0  0  0  0  0  0  0  0  0  0  0
   -5.5280   16.1586  -33.2243 H   0  0  0  0  0  0  0  0  0  0  0  0
   -4.6042   16.3407  -31.6904 H   0  0  0  0  0  0  0  0  0  0  0  0
   -6.9740   16.8684  -31.3133 H   0  0  0  0  0  0  0  0  0  0  0  0
   -5.9500   18.3631  -31.1537 H   0  0  0  0  0  0  0  0  0  0  0  0
   -5.1049   19.6763  -31.8599 H   0  0  0  0  0  0  0  0  0  0  0  0
   -3.5120   21.4462  -31.1099 H   0  0  0  0  0  0  0  0  0  0  0  0
  1  2  2  0
  2  3  2  0
  2  4  1  0
  4  5  1  0
  5  6  2  0
  6  7  1  0
  7  8  2  0
  8  9  1  0
  9 10  2  0
 10 11  1  0
  2 12  1  0
 12 13  2  0
 13 14  1  0
 14 15  2  0
 15 16  1  0
 16 17  2  0
 16 18  2  0
 16 19  1  0
 19 20  1  0
 20 21  1  0
 21 22  1  0
 22 23  1  0
 23 24  1  0
 15 25  1  0
 25 26  2  0
 10  5  1  0
 26 12  1  0
 24 19  1  0
  6 27  1  0
  7 28  1  0
  8 29  1  0
  9 30  1  0
 11 31  1  0
 13 32  1  0
 14 33  1  0
 20 34  1  0
 20 35  1  0
 21 36  1  0
 21 37  1  0
 22 38  1  0
 22 39  1  0
 23 40  1  0
 23 41  1  0
 24 42  1  0
 24 43  1  0
 25 44  1  0
 26 45  1  0
M  CHG  1   4  -1
M  END
>  <UniqueID>  (1) 
1

>  <SMILES>  (1) 
O=S(=O)([N-]c1ccccc1O)c1ccc(S(=O)(=O)N2CCCCC2)cc1

>  <Energy>  (1) 
53.90897892032205

>  <Genealogy>  (1) 
O=S(=O)([N-]c1ccccc1O)c1ccc(S(=O)(=O)N2CCCCC2)cc1 (protonated)
O=S(=O)([N-]c1ccccc1O)c1ccc(S(=O)(=O)N2CCCCC2)cc1 (3D coordinates assigned)
O=S(=O)([N-]c1ccccc1O)c1ccc(S(=O)(=O)N2CCCCC2)cc1 (nonaromatic ring conformer: 53.90897892032205 kcal/mol)

>  <smiles>  (1) 
O=S(=O)(Nc1ccccc1O)c1ccc(S(=O)(=O)N2CCCCC2)cc1

>  <score_type>  (1) 
oracle

>  <origin>  (1) 
adgpu

>  <m_score__min__energy>  (1) 
-11.720000000000001

>  <m_primary>  (1) 
energy

$$$$
1:0
     RDKit          3D

 35 37  0  0  0  0  0  0  0  0999 V2000
   -3.5919   18.5875  -34.5418 H   0  0  0  0  0  0  0  0  0  0  0  0
   -3.4680   19.4100  -33.8220 C   0  0  0  0  0  0  0  0  0  0  0  0
   -2.3550   20.1890  -33.8650 N   0  0  0  0  0  0  0  0  0  0  0  0
   -2.1610   21.2100  -32.9880 C   0  0  0  0  0  0  0  0  0  0  0  0
   -1.2529   21.8269  -33.0577 H   0  0  0  0  0  0  0  0  0  0  0  0
   -3.1150   21.4800  -31.9940 C   0  0  0  0  0  0  0  0  0  0  0  0
   -2.9100   22.6120  -31.0600 C   0  0  0  0  0  0  0  0  0  0  0  0
   -3.8140   23.6260  -31.0750 N   0  0  0  0  0  0  0  0  0  0  0  0
   -3.7060   24.7010  -30.2470 C   0  0  0  0  0  0  0  0  0  0  0  0
   -4.5870   25.6550  -30.2810 N   0  0  0  0  0  0  0  0  0  0  0  0
   -5.7400   25.6740  -31.1760 C   0  0  0  0  0  0  0  0  0  0  0  0
   -6.4132   26.4956  -30.8900 H   0  0  0  0  0  0  0  0  0  0  0  0
   -5.3994   25.8239  -32.2112 H   0  0  0  0  0  0  0  0  0  0  0  0
   -6.4720   24.3680  -31.0730 C   0  0  0  0  0  0  0  0  0  0  0  0
   -6.7270   23.6060  -32.2250 C   0  0  0  0  0  0  0  0  0  0  0  0
   -6.4136   23.9811  -33.2104 H   0  0  0  0  0  0  0  0  0  0  0  0
   -7.3780   22.3720  -32.1240 C   0  0  0  0  0  0  0  0  0  0  0  0
   -7.5825   21.7827  -33.0300 H   0  0  0  0  0  0  0  0  0  0  0  0
   -7.7690   21.8870  -30.8720 C   0  0  0  0  0  0  0  0  0  0  0  0
   -8.2853   20.9188  -30.7941 H   0  0  0  0  0  0  0  0  0  0  0  0
   -7.5040   22.6320  -29.7200 C   0  0  0  0  0  0  0  0  0  0  0  0
   -7.8079   22.2473  -28.7353 H   0  0  0  0  0  0  0  0  0  0  0  0
   -6.8530   23.8660  -29.8170 C   0  0  0  0  0  0  0  0  0  0  0  0
   -6.6385   24.4456  -28.9070 H   0  0  0  0  0  0  0  0  0  0  0  0
   -2.6640   24.7760  -29.3750 N   0  0  0  0  0  0  0  0  0  0  0  0
   -2.5830   25.6000  -28.7370 H   0  0  0  0  0  0  0  0  0  0  0  0
   -1.7190   23.7990  -29.3260 C   0  0  0  0  0  0  0  0  0  0  0  0
   -0.7550   23.9070  -28.5180 O   0  0  0  0  0  0  0  0  0  0  0  0
   -1.8130   22.6860  -30.1760 C   0  0  0  0  0  0  0  0  0  0  0  0
   -0.7660   21.6870  -30.1750 C   0  0  0  0  0  0  0  0  0  0  0  0
    0.0730   20.8890  -30.1740 N   0  0  0  0  0  0  0  0  0  0  0  0
   -4.2790   20.6970  -31.9530 C   0  0  0  0  0  0  0  0  0  0  0  0
   -5.0548   20.9056  -31.2016 H   0  0  0  0  0  0  0  0  0  0  0  0
   -4.4540   19.6540  -32.8640 C   0  0  0  0  0  0  0  0  0  0  0  0
   -5.3596   19.0306  -32.8275 H   0  0  0  0  0  0  0  0  0  0  0  0
  1  2  1  0
  2  3  2  0
  3  4  1  0
  4  5  1  0
  4  6  2  0
  6  7  1  0
  7  8  1  0
  8  9  1  0
  9 10  2  0
 10 11  1  0
 11 12  1  0
 11 13  1  0
 11 14  1  0
 14 15  2  0
 15 16  1  0
 15 17  1  0
 17 18  1  0
 17 19  2  0
 19 20  1  0
 19 21  1  0
 21 22  1  0
 21 23  2  0
 23 24  1  0
  9 25  1  0
 25 26  1  0
 25 27  1  0
 27 28  2  0
 27 29  1  0
 29 30  1  0
 30 31  3  0
  6 32  1  0
 32 33  1  0
 32 34  2  0
 34 35  1  0
 34  2  1  0
 29  7  2  0
 23 14  1  0
M  CHG  1   8  -1
M  END
>  <UniqueID>  (2) 
2

>  <SMILES>  (2) 
N#Cc1c(-c2cccnc2)[n-]/c(=N\Cc2ccccc2)[nH]c1=O

>  <Energy>  (2) 
45.28313869615325

>  <Genealogy>  (2) 
N#Cc1c(-c2cccnc2)[n-]c(=NCc2ccccc2)[nH]c1=O (protonated)
N#Cc1c(-c2cccnc2)[n-]/c(=N\Cc2ccccc2)[nH]c1=O (cis-trans isomerization)
N#Cc1c(-c2cccnc2)[n-]/c(=N\Cc2ccccc2)[nH]c1=O (3D coordinates assigned)
N#Cc1c(-c2cccnc2)[n-]/c(=N\Cc2ccccc2)[nH]c1=O (optimized conformer: 45.28313869615325 kcal/mol)

>  <smiles>  (2) 
N#Cc1c(-c2cccnc2)[nH]c(=NCc2ccccc2)[nH]c1=O

>  <score_type>  (2) 
oracle

>  <origin>  (2) 
adgpu

>  <m_score__min__energy>  (2) 
-8.8499999999999996

>  <m_primary>  (2) 
energy

$$$$
2:0
     RDKit          3D

 43 46  0  0  0  0  0  0  0  0999 V2000
   -9.2190   22.6840  -32.6670 O   0  0  0  0  0  0  0  0  0  0  0  0
   -7.9960   22.8290  -32.0250 C   0  0  0  0  0  0  0  0  0  0  0  0
   -7.8570   22.4410  -30.6880 C   0  0  0  0  0  0  0  0  0  0  0  0
   -6.6260   22.5860  -30.0400 C   0  0  0  0  0  0  0  0  0  0  0  0
   -5.5260   23.1260  -30.7260 C   0  0  0  0  0  0  0  0  0  0  0  0
   -4.2200   23.2670  -30.0470 C   0  0  0  0  0  0  0  0  0  0  0  0
   -3.5550   22.1200  -29.5780 C   0  0  0  0  0  0  0  0  0  0  0  0
   -4.1220   20.8630  -29.7840 O   0  0  0  0  0  0  0  0  0  0  0  0
   -2.3230   22.2290  -28.9070 C   0  0  0  0  0  0  0  0  0  0  0  0
   -1.6300   20.9980  -28.4570 C   0  0  0  0  0  0  0  0  0  0  0  0
   -0.4680   20.5590  -29.1140 C   0  0  0  0  0  0  0  0  0  0  0  0
    0.1730   19.3880  -28.7000 C   0  0  0  0  0  0  0  0  0  0  0  0
   -0.3370   18.6490  -27.6280 C   0  0  0  0  0  0  0  0  0  0  0  0
    0.3010   17.4840  -27.2200 O   0  0  0  0  0  0  0  0  0  0  0  0
   -1.4910   19.0830  -26.9670 C   0  0  0  0  0  0  0  0  0  0  0  0
   -2.1350   20.2540  -27.3770 C   0  0  0  0  0  0  0  0  0  0  0  0
   -1.7540   23.5080  -28.6950 C   0  0  0  0  0  0  0  0  0  0  0  0
   -0.4820   23.6690  -27.9480 C   0  0  0  0  0  0  0  0  0  0  0  0
   -0.4340   23.4110  -26.5690 C   0  0  0  0  0  0  0  0  0  0  0  0
    0.7610   23.5810  -25.8620 C   0  0  0  0  0  0  0  0  0  0  0  0
    1.9140   24.0070  -26.5270 C   0  0  0  0  0  0  0  0  0  0  0  0
    3.1000   24.1760  -25.8220 O   0  0  0  0  0  0  0  0  0  0  0  0
    1.8740   24.2610  -27.9010 C   0  0  0  0  0  0  0  0  0  0  0  0
    0.6820   24.0920  -28.6110 C   0  0  0  0  0  0  0  0  0  0  0  0
   -2.4190   24.6510  -29.1750 C   0  0  0  0  0  0  0  0  0  0  0  0
   -1.8760   25.9160  -28.9670 O   0  0  0  0  0  0  0  0  0  0  0  0
   -3.6370   24.5380  -29.8540 C   0  0  0  0  0  0  0  0  0  0  0  0
   -4.2360   25.7030  -30.3390 O   0  0  0  0  0  0  0  0  0  0  0  0
   -5.6690   23.5080  -32.0700 C   0  0  0  0  0  0  0  0  0  0  0  0
   -6.9010   23.3610  -32.7150 C   0  0  0  0  0  0  0  0  0  0  0  0
   -8.7171   22.0213  -30.1457 H   0  0  0  0  0  0  0  0  0  0  0  0
   -6.5192   22.2762  -28.9900 H   0  0  0  0  0  0  0  0  0  0  0  0
   -0.0618   21.1384  -29.9562 H   0  0  0  0  0  0  0  0  0  0  0  0
    1.0810   19.0468  -29.2188 H   0  0  0  0  0  0  0  0  0  0  0  0
   -1.8922   18.5020  -26.1235 H   0  0  0  0  0  0  0  0  0  0  0  0
   -3.0401   20.5942  -26.8525 H   0  0  0  0  0  0  0  0  0  0  0  0
   -1.3392   23.0740  -26.0426 H   0  0  0  0  0  0  0  0  0  0  0  0
    0.7932   23.3791  -24.7812 H   0  0  0  0  0  0  0  0  0  0  0  0
    2.7822   24.5945  -28.4244 H   0  0  0  0  0  0  0  0  0  0  0  0
    0.6553   24.2909  -29.6925 H   0  0  0  0  0  0  0  0  0  0  0  0
   -3.8650   26.6290  -30.1650 H   0  0  0  0  0  0  0  0  0  0  0  0
   -4.8097   23.9238  -32.6166 H   0  0  0  0  0  0  0  0  0  0  0  0
   -7.0096   23.6642  -33.7668 H   0  0  0  0  0  0  0  0  0  0  0  0
  1  2  1  0
  2  3  2  0
  3  4  1  0
  4  5  2  0
  5  6  1  0
  6  7  2  0
  7  8  1  0
  7  9  1  0
  9 10  1  0
 10 11  2  0
 11 12  1  0
 12 13  2  0
 13 14  1  0
 13 15  1  0
 15 16  2  0
  9 17  2  0
 17 18  1  0
 18 19  2  0
 19 20  1  0
 20 21  2  0
 21 22  1  0
 21 23  1  0
 23 24  2  0
 17 25  1  0
 25 26  1  0
 25 27  2  0
 27 28  1  0
  5 29  1  0
 29 30  2  0
 30  2  1  0
 27  6  1  0
 16 10  1  0
 24 18  1  0
  3 31  1  0
  4 32  1  0
 11 33  1  0
 12 34  1  0
 15 35  1  0
 16 36  1  0
 19 37  1  0
 20 38  1  0
 23 39  1  0
 24 40  1  0
 28 41  1  0
 29 42  1  0
 30 43  1  0
M  CHG  5   1  -1   8  -1  14  -1  22  -1  26  -1
M  END
>  <UniqueID>  (3) 
3

>  <SMILES>  (3) 
[O-]c1ccc(-c2c([O-])c(-c3ccc([O-])cc3)c(-c3ccc([O-])cc3)c([O-])c2O)cc1

>  <Energy>  (3) 
72.2600312353044

>  <Genealogy>  (3) 
[O-]c1ccc(-c2c([O-])c(-c3ccc([O-])cc3)c(-c3ccc([O-])cc3)c([O-])c2O)cc1 (protonated)
[O-]c1ccc(-c2c([O-])c(-c3ccc([O-])cc3)c(-c3ccc([O-])cc3)c([O-])c2O)cc1 (3D coordinates assigned)
[O-]c1ccc(-c2c([O-])c(-c3ccc([O-])cc3)c(-c3ccc([O-])cc3)c([O-])c2O)cc1 (optimized conformer: 72.2600312353044 kcal/mol)

>  <smiles>  (3) 
Oc1ccc(-c2c(O)c(O)c(-c3ccc(O)cc3)c(-c3ccc(O)cc3)c2O)cc1

>  <score_type>  (3) 
oracle

>  <origin>  (3) 
adgpu

>  <m_score__min__energy>  (3) 
-11.130000000000001

>  <m_primary>  (3) 
energy

$$$$
3:0
     RDKit          3D

 41 44  0  0  0  0  0  0  0  0999 V2000
   -0.7590   25.8060  -24.9180 C   0  0  0  0  0  0  0  0  0  0  0  0
   -0.8740   25.3950  -26.3490 C   0  0  0  0  0  0  0  0  0  0  0  0
    0.1810   25.0170  -27.1720 C   0  0  0  0  0  0  0  0  0  0  0  0
   -0.1860   24.6170  -28.4190 N   0  0  0  0  0  0  0  0  0  0  0  0
   -1.5260   24.6600  -28.5830 C   0  0  0  0  0  0  0  0  0  0  0  0
   -2.0970   24.3030  -29.6930 N   0  0  0  0  0  0  0  0  0  0  0  0
   -3.8120   24.3210  -29.9610 S   0  0  0  0  0  0  0  0  0  0  0  0
   -4.2350   25.6710  -30.4720 O   0  0  0  0  0  0  0  0  0  0  0  0
   -4.5380   24.0260  -28.6780 O   0  0  0  0  0  0  0  0  0  0  0  0
   -4.2130   23.0850  -31.1490 C   0  0  0  0  0  0  0  0  0  0  0  0
   -3.1990   22.3450  -31.7730 C   0  0  0  0  0  0  0  0  0  0  0  0
   -3.5220   21.3510  -32.7020 C   0  0  0  0  0  0  0  0  0  0  0  0
   -4.8600   21.0750  -33.0080 C   0  0  0  0  0  0  0  0  0  0  0  0
   -5.1390   20.0550  -33.9330 O   0  0  0  0  0  0  0  0  0  0  0  0
   -5.2560   18.6980  -33.6020 C   0  0  0  0  0  0  0  0  0  0  0  0
   -4.1710   17.8560  -33.8740 C   0  0  0  0  0  0  0  0  0  0  0  0
   -4.2580   16.4860  -33.6200 C   0  0  0  0  0  0  0  0  0  0  0  0
   -5.4290   15.9470  -33.0860 C   0  0  0  0  0  0  0  0  0  0  0  0
   -6.5090   16.7800  -32.7840 C   0  0  0  0  0  0  0  0  0  0  0  0
   -6.4290   18.1650  -33.0120 C   0  0  0  0  0  0  0  0  0  0  0  0
   -7.5600   19.0210  -32.5910 C   0  0  0  0  0  0  0  0  0  0  0  0
   -8.0880   20.0180  -33.3300 N   0  0  0  0  0  0  0  0  0  0  0  0
   -9.0580   20.5470  -32.6010 N   0  0  0  0  0  0  0  0  0  0  0  0
   -9.0840   19.8610  -31.4420 C   0  0  0  0  0  0  0  0  0  0  0  0
   -8.1650   18.9250  -31.4300 O   0  0  0  0  0  0  0  0  0  0  0  0
   -5.8780   21.8250  -32.3870 C   0  0  0  0  0  0  0  0  0  0  0  0
   -5.5540   22.8170  -31.4580 C   0  0  0  0  0  0  0  0  0  0  0  0
   -2.3170   25.1980  -27.1900 S   0  0  0  0  0  0  0  0  0  0  0  0
   -0.9986   24.9498  -24.2702 H   0  0  0  0  0  0  0  0  0  0  0  0
    0.2681   26.1434  -24.7148 H   0  0  0  0  0  0  0  0  0  0  0  0
   -1.4618   26.6275  -24.7148 H   0  0  0  0  0  0  0  0  0  0  0  0
    1.2297   25.0397  -26.8407 H   0  0  0  0  0  0  0  0  0  0  0  0
   -2.1452   22.5470  -31.5309 H   0  0  0  0  0  0  0  0  0  0  0  0
   -2.7199   20.7825  -33.1954 H   0  0  0  0  0  0  0  0  0  0  0  0
   -3.2439   18.2767  -34.2906 H   0  0  0  0  0  0  0  0  0  0  0  0
   -3.4025   15.8308  -33.8411 H   0  0  0  0  0  0  0  0  0  0  0  0
   -5.5018   14.8648  -32.9026 H   0  0  0  0  0  0  0  0  0  0  0  0
   -7.4298   16.3487  -32.3643 H   0  0  0  0  0  0  0  0  0  0  0  0
   -9.7827   20.0593  -30.6158 H   0  0  0  0  0  0  0  0  0  0  0  0
   -6.9317   21.6289  -32.6344 H   0  0  0  0  0  0  0  0  0  0  0  0
   -6.3543   23.3901  -30.9670 H   0  0  0  0  0  0  0  0  0  0  0  0
  1  2  1  0
  2  3  2  0
  3  4  1  0
  4  5  1  0
  5  6  2  3
  6  7  1  0
  7  8  2  0
  7  9  2  0
  7 10  1  0
 10 11  2  0
 11 12  1  0
 12 13  2  0
 13 14  1  0
 14 15  1  0
 15 16  2  0
 16 17  1  0
 17 18  2  0
 18 19  1  0
 19 20  2  0
 20 21  1  0
 21 22  2  0
 22 23  1  0
 23 24  2  0
 24 25  1  0
 13 26  1  0
 26 27  2  0
  5 28  1  0
 28  2  1  0
 27 10  1  0
 20 15  1  0
 25 21  1  0
  1 29  1  0
  1 30  1  0
  1 31  1  0
  3 32  1  0
 11 33  1  0
 12 34  1  0
 16 35  1  0
 17 36  1  0
 18 37  1  0
 19 38  1  0
 24 39  1  0
 26 40  1  0
 27 41  1  0
M  CHG  1   4  -1
M  END
>  <UniqueID>  (4) 
4

>  <SMILES>  (4) 
Cc1c[n-]c(=NS(=O)(=O)c2ccc(Oc3ccccc3-c3nnco3)cc2)s1

>  <Energy>  (4) 
123.47566369334375

>  <Genealogy>  (4) 
Cc1c[n-]c(=NS(=O)(=O)c2ccc(Oc3ccccc3-c3nnco3)cc2)s1 (protonated)
Cc1c[n-]c(=NS(=O)(=O)c2ccc(Oc3ccccc3-c3nnco3)cc2)s1 (3D coordinates assigned)
Cc1c[n-]c(=NS(=O)(=O)c2ccc(Oc3ccccc3-c3nnco3)cc2)s1 (optimized conformer: 123.47566369334375 kcal/mol)

>  <smiles>  (4) 
Cc1c[nH]c(=NS(=O)(=O)c2ccc(Oc3ccccc3-c3nnco3)cc2)s1

>  <score_type>  (4) 
oracle

>  <origin>  (4) 
adgpu

>  <m_score__min__energy>  (4) 
-10.57

>  <m_primary>  (4) 
energy

$$$$
4:0
     RDKit          3D

 53 56  0  0  0  0  0  0  0  0999 V2000
    1.7150   16.8410  -27.4660 C   0  0  0  0  0  0  0  0  0  0  0  0
    2.7450   17.8090  -27.1030 N   0  0  0  0  0  0  0  0  0  0  0  0
    3.0410   18.8800  -28.4380 S   0  0  0  0  0  0  0  0  0  0  0  0
    4.1560   18.3390  -29.2900 O   0  0  0  0  0  0  0  0  0  0  0  0
    3.4590   20.2230  -27.9070 O   0  0  0  0  0  0  0  0  0  0  0  0
    1.5800   19.0730  -29.4050 C   0  0  0  0  0  0  0  0  0  0  0  0
    1.3220   18.2160  -30.4820 C   0  0  0  0  0  0  0  0  0  0  0  0
    0.1550   18.3660  -31.2370 C   0  0  0  0  0  0  0  0  0  0  0  0
   -0.7760   19.3640  -30.9160 C   0  0  0  0  0  0  0  0  0  0  0  0
   -1.9590   19.5130  -31.7210 N   0  0  0  0  0  0  0  0  0  0  0  0
   -2.1740   18.8230  -32.9640 C   0  0  0  0  0  0  0  0  0  0  0  0
   -1.1920   18.3350  -33.5870 O   0  0  0  0  0  0  0  0  0  0  0  0
   -3.5430   18.7150  -33.5370 C   0  0  0  0  0  0  0  0  0  0  0  0
   -3.8440   17.6580  -34.4140 C   0  0  0  0  0  0  0  0  0  0  0  0
   -5.1170   17.5420  -34.9730 C   0  0  0  0  0  0  0  0  0  0  0  0
   -6.0900   18.4840  -34.6540 C   0  0  0  0  0  0  0  0  0  0  0  0
   -5.7950   19.5030  -33.8080 N   0  0  0  0  0  0  0  0  0  0  0  0
   -4.5600   19.6580  -33.2490 C   0  0  0  0  0  0  0  0  0  0  0  0
   -4.3330   20.6300  -32.4110 N   0  0  0  0  0  0  0  0  0  0  0  0
   -5.2300   21.6910  -32.0420 C   0  0  0  0  0  0  0  0  0  0  0  0
   -6.6190   21.5970  -32.2420 C   0  0  0  0  0  0  0  0  0  0  0  0
   -7.4530   22.6640  -31.8970 C   0  0  0  0  0  0  0  0  0  0  0  0
   -6.9090   23.8410  -31.3790 C   0  0  0  0  0  0  0  0  0  0  0  0
   -5.5200   23.9720  -31.2230 C   0  0  0  0  0  0  0  0  0  0  0  0
   -4.9260   25.2140  -30.6830 C   0  0  0  0  0  0  0  0  0  0  0  0
   -5.6590   26.2270  -30.5320 O   0  0  0  0  0  0  0  0  0  0  0  0
   -3.5510   25.2990  -30.2920 N   0  0  0  0  0  0  0  0  0  0  0  0
   -2.9650   24.5680  -29.1750 C   0  0  0  0  0  0  0  0  0  0  0  0
   -1.8870   23.5810  -29.5820 C   0  0  0  0  0  0  0  0  0  0  0  0
   -1.5040   24.9150  -28.9620 C   0  0  0  0  0  0  0  0  0  0  0  0
   -4.6890   22.8870  -31.5510 C   0  0  0  0  0  0  0  0  0  0  0  0
   -0.5070   20.2330  -29.8430 C   0  0  0  0  0  0  0  0  0  0  0  0
    0.6600   20.0810  -29.0870 C   0  0  0  0  0  0  0  0  0  0  0  0
    1.2682   16.4211  -26.5527 H   0  0  0  0  0  0  0  0  0  0  0  0
    0.9351   17.3406  -28.0595 H   0  0  0  0  0  0  0  0  0  0  0  0
    2.1653   16.0316  -28.0595 H   0  0  0  0  0  0  0  0  0  0  0  0
    2.0401   17.4220  -30.7348 H   0  0  0  0  0  0  0  0  0  0  0  0
   -0.0342   17.6963  -32.0889 H   0  0  0  0  0  0  0  0  0  0  0  0
   -2.6520   20.2430  -31.4400 H   0  0  0  0  0  0  0  0  0  0  0  0
   -3.0698   16.9168  -34.6613 H   0  0  0  0  0  0  0  0  0  0  0  0
   -5.3491   16.7141  -35.6591 H   0  0  0  0  0  0  0  0  0  0  0  0
   -7.0978   18.4027  -35.0874 H   0  0  0  0  0  0  0  0  0  0  0  0
   -7.0503   20.6807  -32.6714 H   0  0  0  0  0  0  0  0  0  0  0  0
   -8.5409   22.5764  -32.0339 H   0  0  0  0  0  0  0  0  0  0  0  0
   -7.5724   24.6701  -31.0916 H   0  0  0  0  0  0  0  0  0  0  0  0
   -3.8637   24.5117  -28.5433 H   0  0  0  0  0  0  0  0  0  0  0  0
   -1.7500   22.6500  -29.0124 H   0  0  0  0  0  0  0  0  0  0  0  0
   -1.6273   23.0510  -30.5102 H   0  0  0  0  0  0  0  0  0  0  0  0
   -1.0896   24.9496  -27.9436 H   0  0  0  0  0  0  0  0  0  0  0  0
   -0.8520   25.7509  -29.2555 H   0  0  0  0  0  0  0  0  0  0  0  0
   -3.6005   22.9777  -31.4207 H   0  0  0  0  0  0  0  0  0  0  0  0
   -1.2177   21.0358  -29.5973 H   0  0  0  0  0  0  0  0  0  0  0  0
    0.8562   20.7550  -28.2401 H   0  0  0  0  0  0  0  0  0  0  0  0
  1  2  1  0
  2  3  1  0
  3  4  2  0
  3  5  2  0
  3  6  1  0
  6  7  2  0
  7  8  1  0
  8  9  2  0
  9 10  1  0
 10 11  1  0
 11 12  2  0
 11 13  1  0
 13 14  2  0
 14 15  1  0
 15 16  2  0
 16 17  1  0
 17 18  1  0
 18 19  2  3
 19 20  1  0
 20 21  2  0
 21 22  1  0
 22 23  2  0
 23 24  1  0
 24 25  1  0
 25 26  2  0
 25 27  1  0
 27 28  1  0
 28 29  1  0
 29 30  1  0
 24 31  2  0
  9 32  1  0
 32 33  2  0
 33  6  1  0
 18 13  1  0
 31 20  1  0
 30 28  1  0
  1 34  1  0
  1 35  1  0
  1 36  1  0
  7 37  1  0
  8 38  1  0
 10 39  1  0
 14 40  1  0
 15 41  1  0
 16 42  1  0
 21 43  1  0
 22 44  1  0
 23 45  1  0
 28 46  1  0
 29 47  1  0
 29 48  1  0
 30 49  1  0
 30 50  1  0
 31 51  1  0
 32 52  1  0
 33 53  1  0
M  CHG  3   2  -1  17  -1  27  -1
M  END
>  <UniqueID>  (5) 
5

>  <SMILES>  (5) 
C[N-]S(=O)(=O)c1ccc(NC(=O)c2ccc[n-]c2=Nc2cccc(C(=O)[N-]C3CC3)c2)cc1

>  <Energy>  (5) 
337.3271629891304

>  <Genealogy>  (5) 
C[N-]S(=O)(=O)c1ccc(NC(=O)c2ccc[n-]c2=Nc2cccc(C(=O)[N-]C3CC3)c2)cc1 (protonated)
C[N-]S(=O)(=O)c1ccc(NC(=O)c2ccc[n-]c2=Nc2cccc(C(=O)[N-]C3CC3)c2)cc1 (3D coordinates assigned)
C[N-]S(=O)(=O)c1ccc(NC(=O)c2ccc[n-]c2=Nc2cccc(C(=O)[N-]C3CC3)c2)cc1 (nonaromatic ring conformer: 337.3271629891304 kcal/mol)

>  <smiles>  (5) 
CNS(=O)(=O)c1ccc(NC(=O)c2ccc[nH]c2=Nc2cccc(C(=O)NC3CC3)c2)cc1

>  <score_type>  (5) 
oracle

>  <origin>  (5) 
adgpu

>  <m_score__min__energy>  (5) 
-11.130000000000001

>  <m_primary>  (5) 
energy

$$$$
5:0
     RDKit          3D

 43 46  0  0  0  0  0  0  0  0999 V2000
   -9.2891   18.3018  -30.3459 H   0  0  0  0  0  0  0  0  0  0  0  0
   -8.7090   18.6190  -31.2250 C   0  0  0  0  0  0  0  0  0  0  0  0
   -9.1690   19.6250  -32.0130 N   0  0  0  0  0  0  0  0  0  0  0  0
   -8.4810   20.0440  -33.1070 C   0  0  0  0  0  0  0  0  0  0  0  0
   -8.8800   20.8607  -33.7265 H   0  0  0  0  0  0  0  0  0  0  0  0
   -7.2680   19.4400  -33.4470 C   0  0  0  0  0  0  0  0  0  0  0  0
   -6.7127   19.7751  -34.3355 H   0  0  0  0  0  0  0  0  0  0  0  0
   -6.7620   18.4020  -32.6470 C   0  0  0  0  0  0  0  0  0  0  0  0
   -5.4790   17.7430  -32.9960 C   0  0  0  0  0  0  0  0  0  0  0  0
   -5.3210   16.3660  -32.7610 C   0  0  0  0  0  0  0  0  0  0  0  0
   -6.1526   15.7868  -32.3333 H   0  0  0  0  0  0  0  0  0  0  0  0
   -4.1170   15.7270  -33.0660 C   0  0  0  0  0  0  0  0  0  0  0  0
   -3.9740   14.4000  -32.8300 F   0  0  0  0  0  0  0  0  0  0  0  0
   -3.0610   16.4540  -33.6170 C   0  0  0  0  0  0  0  0  0  0  0  0
   -2.1134   15.9495  -33.8571 H   0  0  0  0  0  0  0  0  0  0  0  0
   -3.2050   17.8200  -33.8640 C   0  0  0  0  0  0  0  0  0  0  0  0
   -2.3721   18.3857  -34.3070 H   0  0  0  0  0  0  0  0  0  0  0  0
   -4.4090   18.4790  -33.5500 C   0  0  0  0  0  0  0  0  0  0  0  0
   -4.5820   19.8410  -33.8440 O   0  0  0  0  0  0  0  0  0  0  0  0
   -4.4980   20.8890  -32.9160 C   0  0  0  0  0  0  0  0  0  0  0  0
   -5.5940   21.7270  -32.6380 C   0  0  0  0  0  0  0  0  0  0  0  0
   -6.5562   21.5577  -33.1436 H   0  0  0  0  0  0  0  0  0  0  0  0
   -5.4630   22.7740  -31.7210 C   0  0  0  0  0  0  0  0  0  0  0  0
   -6.3260   23.4189  -31.4988 H   0  0  0  0  0  0  0  0  0  0  0  0
   -4.2370   23.0050  -31.0840 C   0  0  0  0  0  0  0  0  0  0  0  0
   -4.0730   24.3160  -29.9200 S   0  0  0  0  0  0  0  0  0  0  0  0
   -4.2260   25.6350  -30.6240 O   0  0  0  0  0  0  0  0  0  0  0  0
   -5.1350   24.1700  -28.8660 O   0  0  0  0  0  0  0  0  0  0  0  0
   -2.5000   24.2390  -29.1920 N   0  0  0  0  0  0  0  0  0  0  0  0
   -2.2280   24.6170  -27.9800 C   0  0  0  0  0  0  0  0  0  0  0  0
   -0.6900   24.5250  -27.3080 S   0  0  0  0  0  0  0  0  0  0  0  0
   -1.2020   25.1690  -25.8390 C   0  0  0  0  0  0  0  0  0  0  0  0
   -0.1760   25.4490  -24.4480 Cl  0  0  0  0  0  0  0  0  0  0  0  0
   -2.5620   25.4380  -25.9130 C   0  0  0  0  0  0  0  0  0  0  0  0
   -3.1318   25.8647  -25.0744 H   0  0  0  0  0  0  0  0  0  0  0  0
   -3.1300   25.1300  -27.1080 N   0  0  0  0  0  0  0  0  0  0  0  0
   -4.1430   25.2810  -27.3040 H   0  0  0  0  0  0  0  0  0  0  0  0
   -3.1430   22.1780  -31.3690 C   0  0  0  0  0  0  0  0  0  0  0  0
   -2.1791   22.3520  -30.8683 H   0  0  0  0  0  0  0  0  0  0  0  0
   -3.2720   21.1330  -32.2870 C   0  0  0  0  0  0  0  0  0  0  0  0
   -2.4040   20.4976  -32.5170 H   0  0  0  0  0  0  0  0  0  0  0  0
   -7.5010   17.9860  -31.5280 C   0  0  0  0  0  0  0  0  0  0  0  0
   -7.1311   17.1668  -30.8939 H   0  0  0  0  0  0  0  0  0  0  0  0
  1  2  1  0
  2  3  2  0
  3  4  1  0
  4  5  1  0
  4  6  2  0
  6  7  1  0
  6  8  1  0
  8  9  1  0
  9 10  2  0
 10 11  1  0
 10 12  1  0
 12 13  1  0
 12 14  2  0
 14 15  1  0
 14 16  1  0
 16 17  1  0
 16 18  2  0
 18 19  1  0
 19 20  1  0
 20 21  2  0
 21 22  1  0
 21 23  1  0
 23 24  1  0
 23 25  2  0
 25 26  1  0
 26 27  2  0
 26 28  2  0
 26 29  1  0
 29 30  2  0
 30 31  1  0
 31 32  1  0
 32 33  1  0
 32 34  2  0
 34 35  1  0
 34 36  1  0
 36 37  1  0
 25 38  1  0
 38 39  1  0
 38 40  2  0
 40 41  1  0
  8 42  2  0
 42 43  1  0
 42  2  1  0
 18  9  1  0
 40 20  1  0
 36 30  1  0
M  END
>  <UniqueID>  (6) 
6

>  <SMILES>  (6) 
O=S(=O)(/N=c1\[nH]cc(Cl)s1)c1ccc(Oc2ccc(F)cc2-c2ccncc2)cc1

>  <Energy>  (6) 
95.94885747474376

>  <Genealogy>  (6) 
O=S(=O)(/N=c1\[nH]cc(Cl)s1)c1ccc(Oc2ccc(F)cc2-c2ccncc2)cc1 (cis-trans isomerization)
O=S(=O)(/N=c1\[nH]cc(Cl)s1)c1ccc(Oc2ccc(F)cc2-c2ccncc2)cc1 (3D coordinates assigned)
O=S(=O)(/N=c1\[nH]cc(Cl)s1)c1ccc(Oc2ccc(F)cc2-c2ccncc2)cc1 (optimized conformer: 95.94885747474376 kcal/mol)

>  <smiles>  (6) 
O=S(=O)(N=c1[nH]cc(Cl)s1)c1ccc(Oc2ccc(F)cc2-c2ccncc2)cc1

>  <score_type>  (6) 
oracle

>  <origin>  (6) 
adgpu

>  <m_score__min__energy>  (6) 
-9.4299999999999997

>  <m_primary>  (6) 
energy

$$$$
6:0
     RDKit          3D

 47 49  0  0  0  0  0  0  0  0999 V2000
   -4.3314   18.5301  -35.5690 H   0  0  0  0  0  0  0  0  0  0  0  0
   -4.7830   18.5420  -34.5660 C   0  0  0  0  0  0  0  0  0  0  0  0
   -6.4080   18.7980  -34.2180 S   0  0  0  0  0  0  0  0  0  0  0  0
   -6.1820   18.6590  -32.5520 C   0  0  0  0  0  0  0  0  0  0  0  0
   -7.0970   18.7620  -31.6310 N   0  0  0  0  0  0  0  0  0  0  0  0
   -8.4950   19.0350  -31.8110 C   0  0  0  0  0  0  0  0  0  0  0  0
   -9.3720   18.1600  -31.5810 O   0  0  0  0  0  0  0  0  0  0  0  0
   -8.9160   20.3910  -32.2790 C   0  0  0  0  0  0  0  0  0  0  0  0
   -8.9507   20.4009  -33.3784 H   0  0  0  0  0  0  0  0  0  0  0  0
   -9.9109   20.6183  -31.8685 H   0  0  0  0  0  0  0  0  0  0  0  0
   -7.9410   21.4330  -31.8040 C   0  0  0  0  0  0  0  0  0  0  0  0
   -6.8960   21.8600  -32.6390 C   0  0  0  0  0  0  0  0  0  0  0  0
   -6.7844   21.4264  -33.6438 H   0  0  0  0  0  0  0  0  0  0  0  0
   -5.9960   22.8360  -32.1960 C   0  0  0  0  0  0  0  0  0  0  0  0
   -5.1722   23.1586  -32.8497 H   0  0  0  0  0  0  0  0  0  0  0  0
   -6.1400   23.4040  -30.9230 C   0  0  0  0  0  0  0  0  0  0  0  0
   -4.9970   24.6130  -30.3440 S   0  0  0  0  0  0  0  0  0  0  0  0
   -5.4110   25.9710  -30.8420 O   0  0  0  0  0  0  0  0  0  0  0  0
   -3.6160   24.3100  -30.8550 O   0  0  0  0  0  0  0  0  0  0  0  0
   -4.9770   24.6080  -28.6160 N   0  0  0  0  0  0  0  0  0  0  0  0
   -5.9360   24.3430  -28.3000 H   0  0  0  0  0  0  0  0  0  0  0  0
   -4.8200   25.5950  -28.3100 H   0  0  0  0  0  0  0  0  0  0  0  0
   -7.1890   22.9880  -30.0940 C   0  0  0  0  0  0  0  0  0  0  0  0
   -7.3071   23.4317  -29.0944 H   0  0  0  0  0  0  0  0  0  0  0  0
   -8.0860   22.0110  -30.5330 C   0  0  0  0  0  0  0  0  0  0  0  0
   -8.9109   21.6927  -29.8787 H   0  0  0  0  0  0  0  0  0  0  0  0
   -4.8910   18.4240  -32.2480 N   0  0  0  0  0  0  0  0  0  0  0  0
   -4.1060   18.3470  -33.3590 C   0  0  0  0  0  0  0  0  0  0  0  0
   -2.6420   18.1430  -33.2550 C   0  0  0  0  0  0  0  0  0  0  0  0
   -2.1530   16.8310  -33.1010 C   0  0  0  0  0  0  0  0  0  0  0  0
   -2.8587   15.9874  -33.0798 H   0  0  0  0  0  0  0  0  0  0  0  0
   -0.7740   16.5860  -32.9740 C   0  0  0  0  0  0  0  0  0  0  0  0
   -0.2510   15.2960  -32.8070 O   0  0  0  0  0  0  0  0  0  0  0  0
   -1.0000   14.1750  -32.3470 C   0  0  0  0  0  0  0  0  0  0  0  0
   -1.0067   14.1649  -31.2471 H   0  0  0  0  0  0  0  0  0  0  0  0
   -2.0326   14.2462  -32.7194 H   0  0  0  0  0  0  0  0  0  0  0  0
   -0.5390   13.2483  -32.7194 H   0  0  0  0  0  0  0  0  0  0  0  0
    0.1150   17.6610  -33.0130 C   0  0  0  0  0  0  0  0  0  0  0  0
    1.1945   17.4793  -32.9047 H   0  0  0  0  0  0  0  0  0  0  0  0
   -0.3520   18.9640  -33.1880 C   0  0  0  0  0  0  0  0  0  0  0  0
    0.3634   19.7989  -33.2225 H   0  0  0  0  0  0  0  0  0  0  0  0
   -1.7310   19.2210  -33.3210 C   0  0  0  0  0  0  0  0  0  0  0  0
   -2.2160   20.5200  -33.5430 O   0  0  0  0  0  0  0  0  0  0  0  0
   -2.8600   21.3270  -32.5610 C   0  0  0  0  0  0  0  0  0  0  0  0
   -2.5799   20.9760  -31.5568 H   0  0  0  0  0  0  0  0  0  0  0  0
   -2.5466   22.3742  -32.6840 H   0  0  0  0  0  0  0  0  0  0  0  0
   -3.9506   21.2538  -32.6840 H   0  0  0  0  0  0  0  0  0  0  0  0
  1  2  1  0
  2  3  1  0
  3  4  1  0
  4  5  2  0
  5  6  1  0
  6  7  2  0
  6  8  1  0
  8  9  1  0
  8 10  1  0
  8 11  1  0
 11 12  2  0
 12 13  1  0
 12 14  1  0
 14 15  1  0
 14 16  2  0
 16 17  1  0
 17 18  2  0
 17 19  2  0
 17 20  1  0
 20 21  1  0
 20 22  1  0
 16 23  1  0
 23 24  1  0
 23 25  2  0
 25 26  1  0
  4 27  1  0
 27 28  1  0
 28 29  1  0
 29 30  2  0
 30 31  1  0
 30 32  1  0
 32 33  1  0
 33 34  1  0
 34 35  1  0
 34 36  1  0
 34 37  1  0
 32 38  2  0
 38 39  1  0
 38 40  1  0
 40 41  1  0
 40 42  2  0
 42 43  1  0
 43 44  1  0
 44 45  1  0
 44 46  1  0
 44 47  1  0
 28  2  2  0
 42 29  1  0
 25 11  1  0
M  CHG  1  27  -1
M  END
>  <UniqueID>  (7) 
7

>  <SMILES>  (7) 
COc1ccc(OC)c(-c2cs/c(=N\C(=O)Cc3ccc(S(N)(=O)=O)cc3)[n-]2)c1

>  <Energy>  (7) 
83.0798943967178

>  <Genealogy>  (7) 
COc1ccc(OC)c(-c2csc(=NC(=O)Cc3ccc(S(N)(=O)=O)cc3)[n-]2)c1 (protonated)
COc1ccc(OC)c(-c2cs/c(=N\C(=O)Cc3ccc(S(N)(=O)=O)cc3)[n-]2)c1 (cis-trans isomerization)
COc1ccc(OC)c(-c2cs/c(=N\C(=O)Cc3ccc(S(N)(=O)=O)cc3)[n-]2)c1 (3D coordinates assigned)
COc1ccc(OC)c(-c2cs/c(=N\C(=O)Cc3ccc(S(N)(=O)=O)cc3)[n-]2)c1 (optimized conformer: 83.0798943967178 kcal/mol)

>  <smiles>  (7) 
COc1ccc(OC)c(-c2csc(=NC(=O)Cc3ccc(S(N)(=O)=O)cc3)[nH]2)c1

>  <score_type>  (7) 
oracle

>  <origin>  (7) 
adgpu

>  <m_score__min__energy>  (7) 
-9.9299999999999997

>  <m_primary>  (7) 
energy

$$$$
7:0
     RDKit          3D

 50 53  0  0  0  0  0  0  0  0999 V2000
   -0.8420   26.7860  -27.6550 C   0  0  0  0  0  0  0  0  0  0  0  0
   -1.6080   26.1100  -28.6460 O   0  0  0  0  0  0  0  0  0  0  0  0
   -1.9600   24.7530  -28.5890 C   0  0  0  0  0  0  0  0  0  0  0  0
   -2.9310   24.3590  -27.6680 C   0  0  0  0  0  0  0  0  0  0  0  0
   -3.3170   23.0230  -27.5680 C   0  0  0  0  0  0  0  0  0  0  0  0
   -2.7350   22.0450  -28.3960 C   0  0  0  0  0  0  0  0  0  0  0  0
   -3.1100   20.6940  -28.3070 O   0  0  0  0  0  0  0  0  0  0  0  0
   -2.7850   19.8300  -27.2230 C   0  0  0  0  0  0  0  0  0  0  0  0
   -1.7500   22.4300  -29.3340 C   0  0  0  0  0  0  0  0  0  0  0  0
   -1.1080   21.4360  -30.2260 C   0  0  0  0  0  0  0  0  0  0  0  0
   -0.7440   20.1940  -29.8410 N   0  0  0  0  0  0  0  0  0  0  0  0
   -0.2140   19.6110  -30.9050 N   0  0  0  0  0  0  0  0  0  0  0  0
   -0.2770   20.5170  -31.8970 C   0  0  0  0  0  0  0  0  0  0  0  0
    0.2980   20.2180  -33.5650 S   0  0  0  0  0  0  0  0  0  0  0  0
   -1.0830   19.1040  -34.0010 C   0  0  0  0  0  0  0  0  0  0  0  0
   -2.3990   19.6740  -33.5460 C   0  0  0  0  0  0  0  0  0  0  0  0
   -2.7310   21.0090  -33.8240 C   0  0  0  0  0  0  0  0  0  0  0  0
   -3.9380   21.5460  -33.3700 C   0  0  0  0  0  0  0  0  0  0  0  0
   -4.8270   20.7590  -32.6200 C   0  0  0  0  0  0  0  0  0  0  0  0
   -6.1100   21.3330  -32.1440 C   0  0  0  0  0  0  0  0  0  0  0  0
   -7.3050   20.6420  -32.4100 C   0  0  0  0  0  0  0  0  0  0  0  0
   -8.5310   21.1460  -31.9670 C   0  0  0  0  0  0  0  0  0  0  0  0
   -8.5780   22.3470  -31.2590 C   0  0  0  0  0  0  0  0  0  0  0  0
   -7.4010   23.0520  -30.9950 C   0  0  0  0  0  0  0  0  0  0  0  0
   -6.1650   22.5570  -31.4340 C   0  0  0  0  0  0  0  0  0  0  0  0
   -4.9800   23.3440  -31.1880 C   0  0  0  0  0  0  0  0  0  0  0  0
   -4.0300   23.9750  -30.9900 N   0  0  0  0  0  0  0  0  0  0  0  0
   -4.5000   19.4200  -32.3520 C   0  0  0  0  0  0  0  0  0  0  0  0
   -3.2910   18.8830  -32.8070 C   0  0  0  0  0  0  0  0  0  0  0  0
   -0.8180   21.6380  -31.4900 O   0  0  0  0  0  0  0  0  0  0  0  0
   -1.3720   23.7840  -29.4220 C   0  0  0  0  0  0  0  0  0  0  0  0
   -1.1861   26.4823  -26.6553 H   0  0  0  0  0  0  0  0  0  0  0  0
    0.2203   26.5256  -27.7719 H   0  0  0  0  0  0  0  0  0  0  0  0
   -0.9683   27.8725  -27.7719 H   0  0  0  0  0  0  0  0  0  0  0  0
   -3.3971   25.1105  -27.0137 H   0  0  0  0  0  0  0  0  0  0  0  0
   -4.0835   22.7306  -26.8352 H   0  0  0  0  0  0  0  0  0  0  0  0
   -2.9793   20.3465  -26.2715 H   0  0  0  0  0  0  0  0  0  0  0  0
   -3.4029   18.9218  -27.2800 H   0  0  0  0  0  0  0  0  0  0  0  0
   -1.7217   19.5542  -27.2800 H   0  0  0  0  0  0  0  0  0  0  0  0
   -1.1068   18.9706  -35.0926 H   0  0  0  0  0  0  0  0  0  0  0  0
   -0.9266   18.1381  -33.4984 H   0  0  0  0  0  0  0  0  0  0  0  0
   -2.0368   21.6360  -34.4027 H   0  0  0  0  0  0  0  0  0  0  0  0
   -4.1934   22.5907  -33.6011 H   0  0  0  0  0  0  0  0  0  0  0  0
   -7.2749   19.6966  -32.9716 H   0  0  0  0  0  0  0  0  0  0  0  0
   -9.4597   20.5951  -32.1768 H   0  0  0  0  0  0  0  0  0  0  0  0
   -9.5436   22.7398  -30.9079 H   0  0  0  0  0  0  0  0  0  0  0  0
   -7.4444   24.0006  -30.4397 H   0  0  0  0  0  0  0  0  0  0  0  0
   -5.1981   18.7900  -31.7813 H   0  0  0  0  0  0  0  0  0  0  0  0
   -3.0388   17.8357  -32.5842 H   0  0  0  0  0  0  0  0  0  0  0  0
   -0.6069   24.0876  -30.1517 H   0  0  0  0  0  0  0  0  0  0  0  0
  1  2  1  0
  2  3  1  0
  3  4  2  0
  4  5  1  0
  5  6  2  0
  6  7  1  0
  7  8  1  0
  6  9  1  0
  9 10  1  0
 10 11  2  0
 11 12  1  0
 12 13  2  0
 13 14  1  0
 14 15  1  0
 15 16  1  0
 16 17  2  0
 17 18  1  0
 18 19  2  0
 19 20  1  0
 20 21  2  0
 21 22  1  0
 22 23  2  0
 23 24  1  0
 24 25  2  0
 25 26  1  0
 26 27  3  0
 19 28  1  0
 28 29  2  0
 13 30  1  0
  9 31  2  0
 31  3  1  0
 30 10  1  0
 29 16  1  0
 25 20  1  0
  1 32  1  0
  1 33  1  0
  1 34  1  0
  4 35  1  0
  5 36  1  0
  8 37  1  0
  8 38  1  0
  8 39  1  0
 15 40  1  0
 15 41  1  0
 17 42  1  0
 18 43  1  0
 21 44  1  0
 22 45  1  0
 23 46  1  0
 24 47  1  0
 28 48  1  0
 29 49  1  0
 31 50  1  0
M  END
>  <UniqueID>  (8) 
8

>  <SMILES>  (8) 
COc1ccc(OC)c(-c2nnc(SCc3ccc(-c4ccccc4C#N)cc3)o2)c1

>  <Energy>  (8) 
91.68250832147213

>  <Genealogy>  (8) 
COc1ccc(OC)c(-c2nnc(SCc3ccc(-c4ccccc4C#N)cc3)o2)c1 (3D coordinates assigned)
COc1ccc(OC)c(-c2nnc(SCc3ccc(-c4ccccc4C#N)cc3)o2)c1 (optimized conformer: 91.68250832147213 kcal/mol)

>  <smiles>  (8) 
COc1ccc(OC)c(-c2nnc(SCc3ccc(-c4ccccc4C#N)cc3)o2)c1

>  <score_type>  (8) 
oracle

>  <origin>  (8) 
adgpu

>  <m_score__min__energy>  (8) 
-10.09

>  <m_primary>  (8) 
energy

$$$$
8:0
     RDKit          3D

 37 39  0  0  0  0  0  0  0  0999 V2000
    0.6140   24.4340  -28.0870 C   0  0  0  0  0  0  0  0  0  0  0  0
   -0.5240   23.6280  -28.6620 C   0  0  0  0  0  0  0  0  0  0  0  0
   -0.4600   22.2260  -28.6650 C   0  0  0  0  0  0  0  0  0  0  0  0
    0.6530   21.5950  -28.1140 O   0  0  0  0  0  0  0  0  0  0  0  0
   -1.5040   21.4600  -29.2180 C   0  0  0  0  0  0  0  0  0  0  0  0
   -1.4110   19.9480  -29.1890 C   0  0  0  0  0  0  0  0  0  0  0  0
   -2.6240   22.1170  -29.7980 C   0  0  0  0  0  0  0  0  0  0  0  0
   -3.6870   21.3820  -30.3590 C   0  0  0  0  0  0  0  0  0  0  0  0
   -4.7960   22.0160  -30.9260 C   0  0  0  0  0  0  0  0  0  0  0  0
   -4.8510   23.4230  -30.9790 C   0  0  0  0  0  0  0  0  0  0  0  0
   -3.7970   24.1790  -30.4210 C   0  0  0  0  0  0  0  0  0  0  0  0
   -3.8630   25.5700  -30.4610 O   0  0  0  0  0  0  0  0  0  0  0  0
   -2.6790   23.5370  -29.8260 C   0  0  0  0  0  0  0  0  0  0  0  0
   -1.6140   24.2800  -29.2610 C   0  0  0  0  0  0  0  0  0  0  0  0
   -1.6220   25.6730  -29.2910 O   0  0  0  0  0  0  0  0  0  0  0  0
   -6.0430   24.0760  -31.5970 C   0  0  0  0  0  0  0  0  0  0  0  0
   -6.1420   25.3310  -31.6470 O   0  0  0  0  0  0  0  0  0  0  0  0
   -7.1340   23.2510  -32.2230 C   0  0  0  0  0  0  0  0  0  0  0  0
   -7.2590   21.8590  -31.5640 C   0  0  1  0  0  0  0  0  0  0  0  0
   -7.8090   21.9870  -30.1300 C   0  0  0  0  0  0  0  0  0  0  0  0
   -8.1760   21.0750  -32.2920 O   0  0  0  0  0  0  0  0  0  0  0  0
   -5.8770   21.1630  -31.5520 C   0  0  0  0  0  0  0  0  0  0  0  0
    0.5680   24.4014  -26.9884 H   0  0  0  0  0  0  0  0  0  0  0  0
    1.5710   24.0112  -28.4266 H   0  0  0  0  0  0  0  0  0  0  0  0
    0.5328   25.4771  -28.4266 H   0  0  0  0  0  0  0  0  0  0  0  0
   -1.3897   19.6019  -28.1451 H   0  0  0  0  0  0  0  0  0  0  0  0
   -2.2843   19.5170  -29.7004 H   0  0  0  0  0  0  0  0  0  0  0  0
   -0.4914   19.6273  -29.7004 H   0  0  0  0  0  0  0  0  0  0  0  0
   -3.6431   20.2829  -30.3505 H   0  0  0  0  0  0  0  0  0  0  0  0
   -8.0900   23.7836  -32.1116 H   0  0  0  0  0  0  0  0  0  0  0  0
   -6.8815   23.1030  -33.2834 H   0  0  0  0  0  0  0  0  0  0  0  0
   -7.0000   21.7987  -29.4088 H   0  0  0  0  0  0  0  0  0  0  0  0
   -8.2062   23.0016  -29.9788 H   0  0  0  0  0  0  0  0  0  0  0  0
   -8.6134   21.2520  -29.9788 H   0  0  0  0  0  0  0  0  0  0  0  0
   -7.9900   20.1180  -32.1000 H   0  0  0  0  0  0  0  0  0  0  0  0
   -5.9602   20.2264  -30.9811 H   0  0  0  0  0  0  0  0  0  0  0  0
   -5.5897   20.9795  -32.5979 H   0  0  0  0  0  0  0  0  0  0  0  0
  1  2  1  0
  2  3  2  0
  3  4  1  0
  3  5  1  0
  5  6  1  0
  5  7  2  0
  7  8  1  0
  8  9  2  0
  9 10  1  0
 10 11  2  0
 11 12  1  0
 11 13  1  0
 13 14  2  0
 14 15  1  0
 10 16  1  0
 16 17  2  0
 16 18  1  0
 18 19  1  0
 19 20  1  0
 19 21  1  6
 19 22  1  0
 14  2  1  0
 13  7  1  0
 22  9  1  0
  1 23  1  0
  1 24  1  0
  1 25  1  0
  6 26  1  0
  6 27  1  0
  6 28  1  0
  8 29  1  0
 18 30  1  0
 18 31  1  0
 20 32  1  0
 20 33  1  0
 20 34  1  0
 21 35  1  0
 22 36  1  0
 22 37  1  0
M  CHG  3   4  -1  12  -1  15  -1
M  END
>  <UniqueID>  (9) 
9

>  <SMILES>  (9) 
Cc1c([O-])c(C)c2cc3c(c([O-])c2c1[O-])C(=O)C[C@@](C)(O)C3

>  <Energy>  (9) 
53.64306884935582

>  <Genealogy>  (9) 
Cc1c([O-])c(C)c2cc3c(c([O-])c2c1[O-])C(=O)CC(C)(O)C3 (protonated)
Cc1c([O-])c(C)c2cc3c(c([O-])c2c1[O-])C(=O)C[C@@](C)(O)C3 (chirality)
Cc1c([O-])c(C)c2cc3c(c([O-])c2c1[O-])C(=O)C[C@@](C)(O)C3 (3D coordinates assigned)
Cc1c([O-])c(C)c2cc3c(c([O-])c2c1[O-])C(=O)C[C@@](C)(O)C3 (nonaromatic ring conformer: 53.64306884935582 kcal/mol)

>  <smiles>  (9) 
Cc1c(O)c(C)c2cc3c(c(O)c2c1O)C(=O)CC(C)(O)C3

>  <score_type>  (9) 
oracle

>  <origin>  (9) 
adgpu

>  <m_score__min__energy>  (9) 
-13.550000000000001

>  <m_primary>  (9) 
energy

$$$$
9:0
     RDKit          3D

 43 45  0  0  0  0  0  0  0  0999 V2000
   -7.0300   19.8130  -32.5030 C   0  0  0  0  0  0  0  0  0  0  0  0
   -7.8170   20.9970  -32.1850 N   0  0  0  0  0  0  0  0  0  0  0  0
   -9.1350   21.0340  -32.0950 N   0  0  0  0  0  0  0  0  0  0  0  0
   -9.5000   22.2640  -31.7580 N   0  0  0  0  0  0  0  0  0  0  0  0
   -8.4290   23.0370  -31.6190 N   0  0  0  0  0  0  0  0  0  0  0  0
   -7.3840   22.2310  -31.8830 C   0  0  0  0  0  0  0  0  0  0  0  0
   -5.6640   22.7510  -31.8330 S   0  0  0  0  0  0  0  0  0  0  0  0
   -5.8420   23.6800  -30.2700 C   0  0  0  0  0  0  0  0  0  0  0  0
   -5.2700   25.0620  -30.4140 C   0  0  0  0  0  0  0  0  0  0  0  0
   -6.0510   26.0380  -30.5470 O   0  0  0  0  0  0  0  0  0  0  0  0
   -3.8580   25.2850  -30.5150 N   0  0  0  0  0  0  0  0  0  0  0  0
   -2.8570   24.3810  -30.0350 C   0  0  0  0  0  0  0  0  0  0  0  0
   -2.9300   23.0280  -30.3920 C   0  0  0  0  0  0  0  0  0  0  0  0
   -1.9570   22.1230  -29.9450 C   0  0  0  0  0  0  0  0  0  0  0  0
   -2.0770   20.4230  -30.3950 S   0  0  0  0  0  0  0  0  0  0  0  0
   -3.5330   20.0530  -30.4670 O   0  0  0  0  0  0  0  0  0  0  0  0
   -1.4080   19.5690  -29.3510 O   0  0  0  0  0  0  0  0  0  0  0  0
   -1.3180   20.1790  -31.9540 N   0  0  0  0  0  0  0  0  0  0  0  0
   -1.7670   18.9240  -32.5980 C   0  0  0  0  0  0  0  0  0  0  0  0
   -2.8360   19.1570  -33.6800 C   0  0  0  0  0  0  0  0  0  0  0  0
   -3.6540   20.2500  -33.3290 O   0  0  0  0  0  0  0  0  0  0  0  0
   -2.9190   21.4580  -33.4120 C   0  0  0  0  0  0  0  0  0  0  0  0
   -1.4870   21.3550  -32.8300 C   0  0  0  0  0  0  0  0  0  0  0  0
   -0.8950   22.5810  -29.1510 C   0  0  0  0  0  0  0  0  0  0  0  0
   -0.8020   23.9360  -28.8190 C   0  0  0  0  0  0  0  0  0  0  0  0
   -1.7710   24.8400  -29.2690 C   0  0  0  0  0  0  0  0  0  0  0  0
   -1.6370   26.1910  -28.9690 O   0  0  0  0  0  0  0  0  0  0  0  0
   -6.7066   19.3265  -31.5710 H   0  0  0  0  0  0  0  0  0  0  0  0
   -7.6426   19.1121  -33.0891 H   0  0  0  0  0  0  0  0  0  0  0  0
   -6.1466   20.1064  -33.0891 H   0  0  0  0  0  0  0  0  0  0  0  0
   -6.9087   23.7543  -30.0120 H   0  0  0  0  0  0  0  0  0  0  0  0
   -5.2970   23.1493  -29.4754 H   0  0  0  0  0  0  0  0  0  0  0  0
   -3.7556   22.6738  -31.0267 H   0  0  0  0  0  0  0  0  0  0  0  0
   -0.8971   18.4370  -33.0628 H   0  0  0  0  0  0  0  0  0  0  0  0
   -2.2187   18.2947  -31.8170 H   0  0  0  0  0  0  0  0  0  0  0  0
   -2.3416   19.3667  -34.6400 H   0  0  0  0  0  0  0  0  0  0  0  0
   -3.4600   18.2554  -33.7679 H   0  0  0  0  0  0  0  0  0  0  0  0
   -2.8440   21.7472  -34.4707 H   0  0  0  0  0  0  0  0  0  0  0  0
   -3.4581   22.2051  -32.8109 H   0  0  0  0  0  0  0  0  0  0  0  0
   -0.7720   21.2808  -33.6626 H   0  0  0  0  0  0  0  0  0  0  0  0
   -1.3069   22.2541  -32.2223 H   0  0  0  0  0  0  0  0  0  0  0  0
   -0.1346   21.8733  -28.7892 H   0  0  0  0  0  0  0  0  0  0  0  0
    0.0358   24.2928  -28.2019 H   0  0  0  0  0  0  0  0  0  0  0  0
  1  2  1  0
  2  3  1  0
  3  4  2  0
  4  5  1  0
  5  6  2  0
  6  7  1  0
  7  8  1  0
  8  9  1  0
  9 10  2  0
  9 11  1  0
 11 12  1  0
 12 13  2  0
 13 14  1  0
 14 15  1  0
 15 16  2  0
 15 17  2  0
 15 18  1  0
 18 19  1  0
 19 20  1  0
 20 21  1  0
 21 22  1  0
 22 23  1  0
 14 24  2  0
 24 25  1  0
 25 26  2  0
 26 27  1  0
  6  2  1  0
 26 12  1  0
 23 18  1  0
  1 28  1  0
  1 29  1  0
  1 30  1  0
  8 31  1  0
  8 32  1  0
 13 33  1  0
 19 34  1  0
 19 35  1  0
 20 36  1  0
 20 37  1  0
 22 38  1  0
 22 39  1  0
 23 40  1  0
 23 41  1  0
 24 42  1  0
 25 43  1  0
M  CHG  2  11  -1  27  -1
M  END
>  <UniqueID>  (10) 
10

>  <SMILES>  (10) 
Cn1nnnc1SCC(=O)[N-]c1cc(S(=O)(=O)N2CCOCC2)ccc1[O-]

>  <Energy>  (10) 
96.68739910240116

>  <Genealogy>  (10) 
Cn1nnnc1SCC(=O)[N-]c1cc(S(=O)(=O)N2CCOCC2)ccc1[O-] (protonated)
Cn1nnnc1SCC(=O)[N-]c1cc(S(=O)(=O)N2CCOCC2)ccc1[O-] (3D coordinates assigned)
Cn1nnnc1SCC(=O)[N-]c1cc(S(=O)(=O)N2CCOCC2)ccc1[O-] (nonaromatic ring conformer: 96.68739910240116 kcal/mol)

>  <smiles>  (10) 
Cn1nnnc1SCC(=O)Nc1cc(S(=O)(=O)N2CCOCC2)ccc1O

>  <score_type>  (10) 
oracle

>  <origin>  (10) 
adgpu

>  <m_score__min__energy>  (10) 
-12.890000000000001

>  <m_primary>  (10) 
energy

$$$$
10:0
     RDKit          3D

 53 56  0  0  0  0  0  0  0  0999 V2000
   -2.0470   26.5590  -24.7960 N   0  0  0  0  0  0  0  0  0  0  0  0
   -2.3030   25.8490  -25.8410 C   0  0  0  0  0  0  0  0  0  0  0  0
   -3.5100   25.2770  -26.0610 N   0  0  0  0  0  0  0  0  0  0  0  0
   -3.7540   24.5390  -27.1640 C   0  0  0  0  0  0  0  0  0  0  0  0
   -2.7560   24.3620  -28.0850 C   0  0  0  0  0  0  0  0  0  0  0  0
   -2.8900   23.5750  -29.3300 C   0  0  0  0  0  0  0  0  0  0  0  0
   -4.2210   23.8500  -29.9190 C   0  0  0  0  0  0  0  0  0  0  0  0
   -4.8180   25.0660  -29.9950 C   0  0  0  0  0  0  0  0  0  0  0  0
   -6.0740   25.2600  -30.5510 C   0  0  0  0  0  0  0  0  0  0  0  0
   -6.7480   24.1650  -31.0480 C   0  0  0  0  0  0  0  0  0  0  0  0
   -6.1700   22.9120  -30.9860 C   0  0  0  0  0  0  0  0  0  0  0  0
   -6.9320   21.7890  -31.5230 C   0  0  0  0  0  0  0  0  0  0  0  0
   -8.3040   21.8330  -31.3720 C   0  0  0  0  0  0  0  0  0  0  0  0
   -9.0390   20.7950  -31.8610 C   0  0  0  0  0  0  0  0  0  0  0  0
   -8.4240   19.7130  -32.4990 C   0  0  0  0  0  0  0  0  0  0  0  0
   -7.0650   19.6560  -32.6570 C   0  0  0  0  0  0  0  0  0  0  0  0
   -6.3820   18.5300  -33.3230 C   0  0  0  0  0  0  0  0  0  0  0  0
   -6.4520   18.5220  -34.5710 O   0  0  0  0  0  0  0  0  0  0  0  0
   -5.6970   17.5320  -32.6090 N   0  0  0  0  0  0  0  0  0  0  0  0
   -4.9960   16.4220  -33.0860 C   0  0  0  0  0  0  0  0  0  0  0  0
   -4.9740   15.2870  -32.2630 C   0  0  0  0  0  0  0  0  0  0  0  0
   -4.3030   14.1410  -32.5950 C   0  0  0  0  0  0  0  0  0  0  0  0
   -3.6140   14.0450  -33.7620 C   0  0  0  0  0  0  0  0  0  0  0  0
   -3.6100   15.1390  -34.6000 C   0  0  0  0  0  0  0  0  0  0  0  0
   -4.2980   16.3140  -34.2570 C   0  0  0  0  0  0  0  0  0  0  0  0
   -4.1760   17.3710  -35.1920 N   0  0  0  0  0  0  0  0  0  0  0  0
   -6.3370   20.7170  -32.1540 C   0  0  0  0  0  0  0  0  0  0  0  0
   -4.9160   22.7610  -30.4230 C   0  0  0  0  0  0  0  0  0  0  0  0
   -1.5050   24.9500  -27.8650 C   0  0  0  0  0  0  0  0  0  0  0  0
   -0.5360   24.8010  -28.7320 N   0  0  0  0  0  0  0  0  0  0  0  0
   -1.3310   25.6720  -26.7460 N   0  0  0  0  0  0  0  0  0  0  0  0
   -2.8220   26.6790  -24.1120 H   0  0  0  0  0  0  0  0  0  0  0  0
   -4.2410   25.4440  -25.3240 H   0  0  0  0  0  0  0  0  0  0  0  0
   -4.7433   24.0847  -27.3216 H   0  0  0  0  0  0  0  0  0  0  0  0
   -2.1024   23.8671  -30.0402 H   0  0  0  0  0  0  0  0  0  0  0  0
   -2.7896   22.5019  -29.1101 H   0  0  0  0  0  0  0  0  0  0  0  0
   -4.2806   25.9393  -29.5969 H   0  0  0  0  0  0  0  0  0  0  0  0
   -6.5216   26.2639  -30.5943 H   0  0  0  0  0  0  0  0  0  0  0  0
   -7.7459   24.2891  -31.4939 H   0  0  0  0  0  0  0  0  0  0  0  0
   -8.7903   22.6828  -30.8706 H   0  0  0  0  0  0  0  0  0  0  0  0
  -10.1335   20.8083  -31.7522 H   0  0  0  0  0  0  0  0  0  0  0  0
   -9.0453   18.8901  -32.8821 H   0  0  0  0  0  0  0  0  0  0  0  0
   -5.7110   17.6530  -31.5440 H   0  0  0  0  0  0  0  0  0  0  0  0
   -5.5200   15.3189  -31.3086 H   0  0  0  0  0  0  0  0  0  0  0  0
   -4.3219   13.2839  -31.9058 H   0  0  0  0  0  0  0  0  0  0  0  0
   -3.0764   13.1233  -34.0295 H   0  0  0  0  0  0  0  0  0  0  0  0
   -3.0599   15.0911  -35.5514 H   0  0  0  0  0  0  0  0  0  0  0  0
   -3.2910   17.4200  -35.7430 H   0  0  0  0  0  0  0  0  0  0  0  0
   -4.9710   18.0480  -35.2980 H   0  0  0  0  0  0  0  0  0  0  0  0
   -5.2423   20.7062  -32.2608 H   0  0  0  0  0  0  0  0  0  0  0  0
   -4.4622   21.7602  -30.3741 H   0  0  0  0  0  0  0  0  0  0  0  0
    0.3940   25.2340  -28.5750 H   0  0  0  0  0  0  0  0  0  0  0  0
   -0.3900   26.1010  -26.6030 H   0  0  0  0  0  0  0  0  0  0  0  0
  1  2  2  3
  2  3  1  0
  3  4  1  0
  4  5  2  0
  5  6  1  0
  6  7  1  0
  7  8  2  0
  8  9  1  0
  9 10  2  0
 10 11  1  0
 11 12  1  0
 12 13  2  0
 13 14  1  0
 14 15  2  0
 15 16  1  0
 16 17  1  0
 17 18  2  0
 17 19  1  0
 19 20  1  0
 20 21  2  0
 21 22  1  0
 22 23  2  0
 23 24  1  0
 24 25  2  0
 25 26  1  0
 16 27  2  0
 11 28  2  0
  5 29  1  0
 29 30  2  3
 29 31  1  0
 31  2  1  0
 28  7  1  0
 27 12  1  0
 25 20  1  0
  1 32  1  0
  3 33  1  0
  4 34  1  0
  6 35  1  0
  6 36  1  0
  8 37  1  0
  9 38  1  0
 10 39  1  0
 13 40  1  0
 14 41  1  0
 15 42  1  0
 19 43  1  0
 21 44  1  0
 22 45  1  0
 23 46  1  0
 24 47  1  0
 26 48  1  0
 26 49  1  0
 27 50  1  0
 28 51  1  0
 30 52  1  0
 31 53  1  0
M  END
>  <smiles>  (11) 
N=c1[nH]cc(Cc2cccc(-c3cccc(C(=O)Nc4ccccc4N)c3)c2)c(=N)[nH]1

>  <score_type>  (11) 
oracle

>  <origin>  (11) 
adgpu

>  <m_score__min__energy>  (11) 
-10.58

>  <m_primary>  (11) 
energy

$$$$
11:0
     RDKit          3D

 43 45  0  0  0  0  0  0  0  0999 V2000
   -6.8600   16.4210  -33.4870 C   0  0  0  0  0  0  0  0  0  0  0  0
   -6.0430   17.6630  -33.3370 C   0  0  0  0  0  0  0  0  0  0  0  0
   -6.5140   18.9590  -33.3970 C   0  0  0  0  0  0  0  0  0  0  0  0
   -5.4050   19.7350  -33.1210 C   0  0  0  0  0  0  0  0  0  0  0  0
   -5.4390   21.0390  -33.1010 N   0  0  0  0  0  0  0  0  0  0  0  0
   -4.4100   21.9510  -32.7010 C   0  0  0  0  0  0  0  0  0  0  0  0
   -3.2680   21.8740  -33.2300 O   0  0  0  0  0  0  0  0  0  0  0  0
   -4.6530   22.9070  -31.5960 C   0  0  0  0  0  0  0  0  0  0  0  0
   -5.9590   23.1550  -31.1390 C   0  0  0  0  0  0  0  0  0  0  0  0
   -6.1870   24.0630  -30.1030 C   0  0  0  0  0  0  0  0  0  0  0  0
   -5.1170   24.7400  -29.5180 C   0  0  0  0  0  0  0  0  0  0  0  0
   -3.8080   24.5160  -29.9580 C   0  0  0  0  0  0  0  0  0  0  0  0
   -2.7430   25.2480  -29.3380 N   0  0  0  0  0  0  0  0  0  0  0  0
   -1.5830   24.5880  -28.2320 S   0  0  0  0  0  0  0  0  0  0  0  0
   -1.9340   25.0020  -26.8300 O   0  0  0  0  0  0  0  0  0  0  0  0
   -0.2060   25.0840  -28.5710 O   0  0  0  0  0  0  0  0  0  0  0  0
   -1.6120   22.8340  -28.3650 C   0  0  0  0  0  0  0  0  0  0  0  0
   -2.3670   22.0570  -27.4710 C   0  0  0  0  0  0  0  0  0  0  0  0
   -2.3860   20.6640  -27.5960 C   0  0  0  0  0  0  0  0  0  0  0  0
   -1.6550   20.0400  -28.6120 C   0  0  0  0  0  0  0  0  0  0  0  0
   -0.9060   20.8100  -29.5060 C   0  0  0  0  0  0  0  0  0  0  0  0
   -0.8850   22.2040  -29.3840 C   0  0  0  0  0  0  0  0  0  0  0  0
   -3.5790   23.5920  -30.9950 C   0  0  0  0  0  0  0  0  0  0  0  0
   -4.3230   18.9310  -32.9310 N   0  0  0  0  0  0  0  0  0  0  0  0
   -2.9210   19.2860  -32.7200 C   0  0  0  0  0  0  0  0  0  0  0  0
   -4.7280   17.6750  -33.0450 N   0  0  0  0  0  0  0  0  0  0  0  0
   -7.1177   16.0292  -32.4920 H   0  0  0  0  0  0  0  0  0  0  0  0
   -7.7822   16.6533  -34.0397 H   0  0  0  0  0  0  0  0  0  0  0  0
   -6.2815   15.6661  -34.0397 H   0  0  0  0  0  0  0  0  0  0  0  0
   -7.5380   19.2966  -33.6147 H   0  0  0  0  0  0  0  0  0  0  0  0
   -6.8079   22.6297  -31.6011 H   0  0  0  0  0  0  0  0  0  0  0  0
   -7.2121   24.2447  -29.7477 H   0  0  0  0  0  0  0  0  0  0  0  0
   -5.3039   25.4559  -28.7040 H   0  0  0  0  0  0  0  0  0  0  0  0
   -2.9441   22.5447  -26.6715 H   0  0  0  0  0  0  0  0  0  0  0  0
   -2.9772   20.0580  -26.8937 H   0  0  0  0  0  0  0  0  0  0  0  0
   -1.6696   18.9442  -28.7073 H   0  0  0  0  0  0  0  0  0  0  0  0
   -0.3324   20.3198  -30.3064 H   0  0  0  0  0  0  0  0  0  0  0  0
   -0.2958   22.8072  -30.0904 H   0  0  0  0  0  0  0  0  0  0  0  0
   -2.5515   23.4031  -31.3393 H   0  0  0  0  0  0  0  0  0  0  0  0
   -2.7144   19.3383  -31.6408 H   0  0  0  0  0  0  0  0  0  0  0  0
   -2.2762   18.5228  -33.1802 H   0  0  0  0  0  0  0  0  0  0  0  0
   -2.7172   20.2641  -33.1802 H   0  0  0  0  0  0  0  0  0  0  0  0
   -4.1140   16.8360  -32.9420 H   0  0  0  0  0  0  0  0  0  0  0  0
  1  2  1  0
  2  3  2  0
  3  4  1  0
  4  5  2  3
  5  6  1  0
  6  7  2  0
  6  8  1  0
  8  9  2  0
  9 10  1  0
 10 11  2  0
 11 12  1  0
 12 13  1  0
 13 14  1  0
 14 15  2  0
 14 16  2  0
 14 17  1  0
 17 18  2  0
 18 19  1  0
 19 20  2  0
 20 21  1  0
 21 22  2  0
 12 23  2  0
  4 24  1  0
 24 25  1  0
 24 26  1  0
 26  2  1  0
 23  8  1  0
 22 17  1  0
  1 27  1  0
  1 28  1  0
  1 29  1  0
  3 30  1  0
  9 31  1  0
 10 32  1  0
 11 33  1  0
 18 34  1  0
 19 35  1  0
 20 36  1  0
 21 37  1  0
 22 38  1  0
 23 39  1  0
 25 40  1  0
 25 41  1  0
 25 42  1  0
 26 43  1  0
M  CHG  1  13  -1
M  END
>  <UniqueID>  (12) 
11

>  <SMILES>  (12) 
Cc1cc(=NC(=O)c2cccc([N-]S(=O)(=O)c3ccccc3)c2)n(C)[nH]1

>  <Energy>  (12) 
91.70814322823712

>  <Genealogy>  (12) 
Cc1cc(=NC(=O)c2cccc([N-]S(=O)(=O)c3ccccc3)c2)n(C)[nH]1 (protonated)
Cc1cc(=NC(=O)c2cccc([N-]S(=O)(=O)c3ccccc3)c2)n(C)[nH]1 (3D coordinates assigned)
Cc1cc(=NC(=O)c2cccc([N-]S(=O)(=O)c3ccccc3)c2)n(C)[nH]1 (optimized conformer: 91.70814322823712 kcal/mol)

>  <smiles>  (12) 
Cc1cc(=NC(=O)c2cccc(NS(=O)(=O)c3ccccc3)c2)n(C)[nH]1

>  <score_type>  (12) 
oracle

>  <origin>  (12) 
adgpu

>  <m_score__min__energy>  (12) 
-10.09

>  <m_primary>  (12) 
energy

$$$$
12:0
     RDKit          3D

 40 43  0  0  0  0  0  0  0  0999 V2000
   -5.7230   24.6300  -29.3530 O   0  0  0  0  0  0  0  0  0  0  0  0
   -5.4340   23.4600  -29.7270 C   0  0  0  0  0  0  0  0  0  0  0  0
   -4.2370   22.8350  -29.2350 N   0  0  0  0  0  0  0  0  0  0  0  0
   -3.1550   23.5710  -28.6410 C   0  0  0  0  0  0  0  0  0  0  0  0
   -2.5060   23.0440  -27.5150 C   0  0  0  0  0  0  0  0  0  0  0  0
   -1.4450   23.7350  -26.9200 C   0  0  0  0  0  0  0  0  0  0  0  0
   -1.0140   24.9510  -27.4570 C   0  0  0  0  0  0  0  0  0  0  0  0
   -1.6360   25.4720  -28.5950 C   0  0  0  0  0  0  0  0  0  0  0  0
   -2.6950   24.7840  -29.1970 C   0  0  0  0  0  0  0  0  0  0  0  0
   -3.2610   25.2960  -30.3590 O   0  0  0  0  0  0  0  0  0  0  0  0
   -6.3560   22.7320  -30.6320 C   0  0  0  0  0  0  0  0  0  0  0  0
   -7.6030   23.2890  -30.9660 C   0  0  0  0  0  0  0  0  0  0  0  0
   -8.4760   22.6110  -31.8200 C   0  0  0  0  0  0  0  0  0  0  0  0
   -8.1140   21.3730  -32.3550 C   0  0  0  0  0  0  0  0  0  0  0  0
   -6.8690   20.8030  -32.0460 C   0  0  0  0  0  0  0  0  0  0  0  0
   -6.4920   19.5350  -32.6080 N   0  0  0  0  0  0  0  0  0  0  0  0
   -7.2660   18.3300  -32.6510 C   0  0  0  0  0  0  0  0  0  0  0  0
   -8.4120   18.1980  -32.1440 O   0  0  0  0  0  0  0  0  0  0  0  0
   -6.5090   17.2720  -33.3110 C   0  0  0  0  0  0  0  0  0  0  0  0
   -6.8430   15.9470  -33.5810 C   0  0  0  0  0  0  0  0  0  0  0  0
   -5.8920   15.1480  -34.2400 C   0  0  0  0  0  0  0  0  0  0  0  0
   -4.6400   15.6850  -34.6120 C   0  0  0  0  0  0  0  0  0  0  0  0
   -4.3270   17.0260  -34.3270 C   0  0  0  0  0  0  0  0  0  0  0  0
   -5.2850   17.7960  -33.6710 C   0  0  0  0  0  0  0  0  0  0  0  0
   -5.2570   19.1910  -33.2470 C   0  0  0  0  0  0  0  0  0  0  0  0
   -4.3110   19.9970  -33.4510 O   0  0  0  0  0  0  0  0  0  0  0  0
   -5.9950   21.4890  -31.1860 C   0  0  0  0  0  0  0  0  0  0  0  0
   -4.2280   21.7940  -29.1380 H   0  0  0  0  0  0  0  0  0  0  0  0
   -2.8334   22.0807  -27.0968 H   0  0  0  0  0  0  0  0  0  0  0  0
   -0.9499   23.3210  -26.0292 H   0  0  0  0  0  0  0  0  0  0  0  0
   -0.1852   25.4981  -26.9840 H   0  0  0  0  0  0  0  0  0  0  0  0
   -1.2915   26.4268  -29.0190 H   0  0  0  0  0  0  0  0  0  0  0  0
   -7.8932   24.2658  -30.5518 H   0  0  0  0  0  0  0  0  0  0  0  0
   -9.4511   23.0534  -32.0717 H   0  0  0  0  0  0  0  0  0  0  0  0
   -8.8084   20.8415  -33.0223 H   0  0  0  0  0  0  0  0  0  0  0  0
   -7.8211   15.5381  -33.2876 H   0  0  0  0  0  0  0  0  0  0  0  0
   -6.1249   14.0973  -34.4674 H   0  0  0  0  0  0  0  0  0  0  0  0
   -3.9048   15.0501  -35.1281 H   0  0  0  0  0  0  0  0  0  0  0  0
   -3.3550   17.4541  -34.6134 H   0  0  0  0  0  0  0  0  0  0  0  0
   -5.0165   21.0495  -30.9425 H   0  0  0  0  0  0  0  0  0  0  0  0
  1  2  2  0
  2  3  1  0
  3  4  1  0
  4  5  2  0
  5  6  1  0
  6  7  2  0
  7  8  1  0
  8  9  2  0
  9 10  1  0
  2 11  1  0
 11 12  2  0
 12 13  1  0
 13 14  2  0
 14 15  1  0
 15 16  1  0
 16 17  1  0
 17 18  2  0
 17 19  1  0
 19 20  2  0
 20 21  1  0
 21 22  2  0
 22 23  1  0
 23 24  2  0
 24 25  1  0
 25 26  2  0
 15 27  2  0
  9  4  1  0
 27 11  1  0
 25 16  1  0
 24 19  1  0
  3 28  1  0
  5 29  1  0
  6 30  1  0
  7 31  1  0
  8 32  1  0
 12 33  1  0
 13 34  1  0
 14 35  1  0
 20 36  1  0
 21 37  1  0
 22 38  1  0
 23 39  1  0
 27 40  1  0
M  CHG  1  10  -1
M  END
>  <UniqueID>  (13) 
12

>  <SMILES>  (13) 
O=C(Nc1ccccc1[O-])c1cccc(N2C(=O)c3ccccc3C2=O)c1

>  <Energy>  (13) 
89.22876012223678

>  <Genealogy>  (13) 
O=C(Nc1ccccc1[O-])c1cccc(N2C(=O)c3ccccc3C2=O)c1 (protonated)
O=C(Nc1ccccc1[O-])c1cccc(N2C(=O)c3ccccc3C2=O)c1 (3D coordinates assigned)
O=C(Nc1ccccc1[O-])c1cccc(N2C(=O)c3ccccc3C2=O)c1 (nonaromatic ring conformer: 89.22876012223678 kcal/mol)

>  <smiles>  (13) 
O=C(Nc1ccccc1O)c1cccc(N2C(=O)c3ccccc3C2=O)c1

>  <score_type>  (13) 
oracle

>  <origin>  (13) 
adgpu

>  <m_score__min__energy>  (13) 
-12.24

>  <m_primary>  (13) 
energy

$$$$
13:0
     RDKit          3D

 45 47  0  0  0  0  0  0  0  0999 V2000
   -2.9200   24.9250  -29.6100 N   0  0  0  0  0  0  0  0  0  0  0  0
   -4.4480   24.4400  -30.2550 S   0  0  0  0  0  0  0  0  0  0  0  0
   -4.9370   25.4900  -31.2130 O   0  0  0  0  0  0  0  0  0  0  0  0
   -5.4450   24.3010  -29.1400 O   0  0  0  0  0  0  0  0  0  0  0  0
   -4.2720   22.8990  -31.0860 C   0  0  0  0  0  0  0  0  0  0  0  0
   -3.6950   21.8090  -30.4190 C   0  0  0  0  0  0  0  0  0  0  0  0
   -3.5360   20.5870  -31.0770 C   0  0  0  0  0  0  0  0  0  0  0  0
   -3.9510   20.4450  -32.4080 C   0  0  0  0  0  0  0  0  0  0  0  0
   -3.7710   19.1940  -33.0900 N   0  0  0  0  0  0  0  0  0  0  0  0
   -4.8840   18.6430  -33.8730 C   0  0  0  0  0  0  0  0  0  0  0  0
   -6.1830   18.8170  -33.1340 C   0  0  0  0  0  0  0  0  0  0  0  0
   -6.5010   17.9780  -32.0540 C   0  0  0  0  0  0  0  0  0  0  0  0
   -7.6820   18.1770  -31.3310 C   0  0  0  0  0  0  0  0  0  0  0  0
   -8.5490   19.2170  -31.6780 C   0  0  0  0  0  0  0  0  0  0  0  0
   -8.2380   20.0570  -32.7510 C   0  0  0  0  0  0  0  0  0  0  0  0
   -7.0590   19.8620  -33.4760 C   0  0  0  0  0  0  0  0  0  0  0  0
   -2.4320   18.5950  -33.1370 C   0  0  0  0  0  0  0  0  0  0  0  0
   -1.4100   19.6280  -33.5290 C   0  0  0  0  0  0  0  0  0  0  0  0
   -0.7130   20.3440  -32.5420 C   0  0  0  0  0  0  0  0  0  0  0  0
    0.2790   21.2590  -32.9020 C   0  0  0  0  0  0  0  0  0  0  0  0
    0.5890   21.4650  -34.2540 C   0  0  0  0  0  0  0  0  0  0  0  0
    1.5810   22.3730  -34.6200 O   0  0  0  0  0  0  0  0  0  0  0  0
   -0.1010   20.7520  -35.2410 C   0  0  0  0  0  0  0  0  0  0  0  0
    0.2000   20.9490  -36.5850 O   0  0  0  0  0  0  0  0  0  0  0  0
   -1.0940   19.8360  -34.8800 C   0  0  0  0  0  0  0  0  0  0  0  0
   -4.5200   21.5340  -33.0780 C   0  0  0  0  0  0  0  0  0  0  0  0
   -4.6790   22.7580  -32.4200 C   0  0  0  0  0  0  0  0  0  0  0  0
   -2.3600   25.3020  -30.4060 H   0  0  0  0  0  0  0  0  0  0  0  0
   -3.3666   21.9164  -29.3747 H   0  0  0  0  0  0  0  0  0  0  0  0
   -3.0840   19.7343  -30.5492 H   0  0  0  0  0  0  0  0  0  0  0  0
   -4.9430   19.1679  -34.8379 H   0  0  0  0  0  0  0  0  0  0  0  0
   -4.7079   17.5696  -34.0364 H   0  0  0  0  0  0  0  0  0  0  0  0
   -5.8190   17.1612  -31.7754 H   0  0  0  0  0  0  0  0  0  0  0  0
   -7.9286   17.5142  -30.4884 H   0  0  0  0  0  0  0  0  0  0  0  0
   -9.4758   19.3743  -31.1068 H   0  0  0  0  0  0  0  0  0  0  0  0
   -8.9225   20.8732  -33.0254 H   0  0  0  0  0  0  0  0  0  0  0  0
   -6.8158   20.5283  -34.3168 H   0  0  0  0  0  0  0  0  0  0  0  0
   -2.1794   18.1932  -32.1447 H   0  0  0  0  0  0  0  0  0  0  0  0
   -2.4279   17.7870  -33.8834 H   0  0  0  0  0  0  0  0  0  0  0  0
   -0.9496   20.1833  -31.4798 H   0  0  0  0  0  0  0  0  0  0  0  0
    0.8180   21.8190  -32.1236 H   0  0  0  0  0  0  0  0  0  0  0  0
    1.8300   22.5210  -35.5910 H   0  0  0  0  0  0  0  0  0  0  0  0
   -1.6304   19.2753  -35.6597 H   0  0  0  0  0  0  0  0  0  0  0  0
   -4.8428   21.4272  -34.1241 H   0  0  0  0  0  0  0  0  0  0  0  0
   -5.1246   23.6122  -32.9507 H   0  0  0  0  0  0  0  0  0  0  0  0
  1  2  1  0
  2  3  2  0
  2  4  2  0
  2  5  1  0
  5  6  2  0
  6  7  1  0
  7  8  2  0
  8  9  1  0
  9 10  1  0
 10 11  1  0
 11 12  2  0
 12 13  1  0
 13 14  2  0
 14 15  1  0
 15 16  2  0
  9 17  1  0
 17 18  1  0
 18 19  2  0
 19 20  1  0
 20 21  2  0
 21 22  1  0
 21 23  1  0
 23 24  1  0
 23 25  2  0
  8 26  1  0
 26 27  2  0
 27  5  1  0
 16 11  1  0
 25 18  1  0
  1 28  1  0
  6 29  1  0
  7 30  1  0
 10 31  1  0
 10 32  1  0
 12 33  1  0
 13 34  1  0
 14 35  1  0
 15 36  1  0
 16 37  1  0
 17 38  1  0
 17 39  1  0
 19 40  1  0
 20 41  1  0
 22 42  1  0
 25 43  1  0
 26 44  1  0
 27 45  1  0
M  CHG  2   1  -1  24  -1
M  END
>  <UniqueID>  (14) 
13

>  <SMILES>  (14) 
[NH-]S(=O)(=O)c1ccc(N(Cc2ccccc2)Cc2ccc(O)c([O-])c2)cc1

>  <Energy>  (14) 
48.04328895988931

>  <Genealogy>  (14) 
[NH-]S(=O)(=O)c1ccc(N(Cc2ccccc2)Cc2ccc(O)c([O-])c2)cc1 (protonated)
[NH-]S(=O)(=O)c1ccc(N(Cc2ccccc2)Cc2ccc(O)c([O-])c2)cc1 (3D coordinates assigned)
[NH-]S(=O)(=O)c1ccc(N(Cc2ccccc2)Cc2ccc(O)c([O-])c2)cc1 (optimized conformer: 48.04328895988931 kcal/mol)

>  <smiles>  (14) 
NS(=O)(=O)c1ccc(N(Cc2ccccc2)Cc2ccc(O)c(O)c2)cc1

>  <score_type>  (14) 
oracle

>  <origin>  (14) 
adgpu

>  <m_score__min__energy>  (14) 
-12.109999999999999

>  <m_primary>  (14) 
energy

$$$$
14:0
     RDKit          3D

 59 62  0  0  0  0  0  0  0  0999 V2000
    1.3860   24.7960  -25.2840 C   0  0  0  0  0  0  0  0  0  0  0  0
    0.4710   24.5740  -26.4610 C   0  0  0  0  0  0  0  0  0  0  0  0
    0.2470   23.2560  -26.8850 C   0  0  0  0  0  0  0  0  0  0  0  0
   -0.5870   22.9840  -27.9660 C   0  0  0  0  0  0  0  0  0  0  0  0
   -1.2260   24.0260  -28.6470 C   0  0  0  0  0  0  0  0  0  0  0  0
   -2.0810   23.7580  -29.7710 N   0  0  0  0  0  0  0  0  0  0  0  0
   -3.4280   24.2490  -29.8860 C   0  0  0  0  0  0  0  0  0  0  0  0
   -3.9840   24.8260  -28.9150 O   0  0  0  0  0  0  0  0  0  0  0  0
   -4.1740   24.0650  -31.0950 N   0  0  0  0  0  0  0  0  0  0  0  0
   -5.0480   22.9640  -31.3790 C   0  0  0  0  0  0  0  0  0  0  0  0
   -4.5510   21.7190  -31.8020 C   0  0  0  0  0  0  0  0  0  0  0  0
   -5.4290   20.6740  -32.1000 C   0  0  0  0  0  0  0  0  0  0  0  0
   -6.8150   20.8660  -32.0040 C   0  0  0  0  0  0  0  0  0  0  0  0
   -7.9260   19.5510  -32.4000 S   0  0  0  0  0  0  0  0  0  0  0  0
   -9.1540   20.1200  -33.0540 O   0  0  0  0  0  0  0  0  0  0  0  0
   -8.3500   18.8640  -31.1320 O   0  0  0  0  0  0  0  0  0  0  0  0
   -7.1870   18.3800  -33.4700 N   0  0  0  0  0  0  0  0  0  0  0  0
   -6.6440   17.2240  -32.7240 C   0  0  0  0  0  0  0  0  0  0  0  0
   -5.1090   17.2680  -32.6270 C   0  0  0  0  0  0  0  0  0  0  0  0
   -4.4660   17.2950  -33.8940 O   0  0  0  0  0  0  0  0  0  0  0  0
   -5.1970   17.9970  -34.8940 C   0  0  0  0  0  0  0  0  0  0  0  0
   -6.1870   19.0320  -34.3360 C   0  0  0  0  0  0  0  0  0  0  0  0
   -7.3110   22.1140  -31.6010 C   0  0  0  0  0  0  0  0  0  0  0  0
   -6.4310   23.1590  -31.3010 C   0  0  0  0  0  0  0  0  0  0  0  0
   -0.9840   25.3560  -28.2610 C   0  0  0  0  0  0  0  0  0  0  0  0
   -1.6160   26.3800  -28.9570 O   0  0  0  0  0  0  0  0  0  0  0  0
   -0.1260   25.6470  -27.1760 C   0  0  0  0  0  0  0  0  0  0  0  0
    0.1510   27.3440  -26.7070 S   0  0  0  0  0  0  0  0  0  0  0  0
   -0.2810   28.2730  -27.8090 O   0  0  0  0  0  0  0  0  0  0  0  0
    1.6130   27.5840  -26.4590 O   0  0  0  0  0  0  0  0  0  0  0  0
   -0.7740   27.7070  -25.2110 C   0  0  0  0  0  0  0  0  0  0  0  0
   -1.6560   26.5480  -24.7550 C   0  0  0  0  0  0  0  0  0  0  0  0
   -0.8280   26.4230  -23.4830 C   0  0  0  0  0  0  0  0  0  0  0  0
    0.0550   27.5770  -23.9370 C   0  0  0  0  0  0  0  0  0  0  0  0
    0.8216   24.6591  -24.3498 H   0  0  0  0  0  0  0  0  0  0  0  0
    2.2139   24.0727  -25.3216 H   0  0  0  0  0  0  0  0  0  0  0  0
    1.7903   25.8183  -25.3216 H   0  0  0  0  0  0  0  0  0  0  0  0
    0.7372   22.4255  -26.3559 H   0  0  0  0  0  0  0  0  0  0  0  0
   -0.7446   21.9437  -28.2867 H   0  0  0  0  0  0  0  0  0  0  0  0
   -1.6670   23.2480  -30.5830 H   0  0  0  0  0  0  0  0  0  0  0  0
   -3.4659   21.5669  -31.8988 H   0  0  0  0  0  0  0  0  0  0  0  0
   -5.0317   19.6966  -32.4112 H   0  0  0  0  0  0  0  0  0  0  0  0
   -7.0641   17.2287  -31.7074 H   0  0  0  0  0  0  0  0  0  0  0  0
   -6.9234   16.3088  -33.2666 H   0  0  0  0  0  0  0  0  0  0  0  0
   -4.8202   18.1713  -32.0696 H   0  0  0  0  0  0  0  0  0  0  0  0
   -4.7883   16.3468  -32.1186 H   0  0  0  0  0  0  0  0  0  0  0  0
   -4.4795   18.5201  -35.5433 H   0  0  0  0  0  0  0  0  0  0  0  0
   -5.7926   17.2481  -35.4365 H   0  0  0  0  0  0  0  0  0  0  0  0
   -5.6346   19.7811  -33.7497 H   0  0  0  0  0  0  0  0  0  0  0  0
   -6.7069   19.5144  -35.1768 H   0  0  0  0  0  0  0  0  0  0  0  0
   -8.3966   22.2719  -31.5204 H   0  0  0  0  0  0  0  0  0  0  0  0
   -6.8288   24.1400  -31.0020 H   0  0  0  0  0  0  0  0  0  0  0  0
   -1.2180   28.6742  -25.4891 H   0  0  0  0  0  0  0  0  0  0  0  0
   -2.7068   26.8236  -24.5822 H   0  0  0  0  0  0  0  0  0  0  0  0
   -1.8124   25.6759  -25.4069 H   0  0  0  0  0  0  0  0  0  0  0  0
   -1.3910   26.6257  -22.5600 H   0  0  0  0  0  0  0  0  0  0  0  0
   -0.3798   25.4575  -23.2055 H   0  0  0  0  0  0  0  0  0  0  0  0
    0.0134   28.4595  -23.2817 H   0  0  0  0  0  0  0  0  0  0  0  0
    1.1468   27.4553  -23.9923 H   0  0  0  0  0  0  0  0  0  0  0  0
  1  2  1  0
  2  3  2  0
  3  4  1  0
  4  5  2  0
  5  6  1  0
  6  7  1  0
  7  8  2  0
  7  9  1  0
  9 10  1  0
 10 11  2  0
 11 12  1  0
 12 13  2  0
 13 14  1  0
 14 15  2  0
 14 16  2  0
 14 17  1  0
 17 18  1  0
 18 19  1  0
 19 20  1  0
 20 21  1  0
 21 22  1  0
 13 23  1  0
 23 24  2  0
  5 25  1  0
 25 26  1  0
 25 27  2  0
 27 28  1  0
 28 29  2  0
 28 30  2  0
 28 31  1  0
 31 32  1  0
 32 33  1  0
 33 34  1  0
 27  2  1  0
 34 31  1  0
 24 10  1  0
 22 17  1  0
  1 35  1  0
  1 36  1  0
  1 37  1  0
  3 38  1  0
  4 39  1  0
  6 40  1  0
 11 41  1  0
 12 42  1  0
 18 43  1  0
 18 44  1  0
 19 45  1  0
 19 46  1  0
 21 47  1  0
 21 48  1  0
 22 49  1  0
 22 50  1  0
 23 51  1  0
 24 52  1  0
 31 53  1  0
 32 54  1  0
 32 55  1  0
 33 56  1  0
 33 57  1  0
 34 58  1  0
 34 59  1  0
M  CHG  2   9  -1  26  -1
M  END
>  <UniqueID>  (15) 
14

>  <SMILES>  (15) 
Cc1ccc(NC(=O)[N-]c2ccc(S(=O)(=O)N3CCOCC3)cc2)c([O-])c1S(=O)(=O)C1CCC1

>  <Energy>  (15) 
142.15619276191933

>  <Genealogy>  (15) 
Cc1ccc(NC(=O)[N-]c2ccc(S(=O)(=O)N3CCOCC3)cc2)c([O-])c1S(=O)(=O)C1CCC1 (protonated)
Cc1ccc(NC(=O)[N-]c2ccc(S(=O)(=O)N3CCOCC3)cc2)c([O-])c1S(=O)(=O)C1CCC1 (3D coordinates assigned)
Cc1ccc(NC(=O)[N-]c2ccc(S(=O)(=O)N3CCOCC3)cc2)c([O-])c1S(=O)(=O)C1CCC1 (nonaromatic ring conformer: 142.15619276191933 kcal/mol)

>  <smiles>  (15) 
Cc1ccc(NC(=O)Nc2ccc(S(=O)(=O)N3CCOCC3)cc2)c(O)c1S(=O)(=O)C1CCC1

>  <score_type>  (15) 
oracle

>  <origin>  (15) 
adgpu

>  <m_score__min__energy>  (15) 
-14.41

>  <m_primary>  (15) 
energy

$$$$
15:0
     RDKit          3D

 49 52  0  0  0  0  0  0  0  0999 V2000
   -2.5136   20.2678  -34.6485 H   0  0  0  0  0  0  0  0  0  0  0  0
   -2.9920   20.3860  -33.6650 C   0  0  0  0  0  0  0  0  0  0  0  0
   -2.2300   20.7850  -32.5640 C   0  0  0  0  0  0  0  0  0  0  0  0
   -1.1522   20.9697  -32.6835 H   0  0  0  0  0  0  0  0  0  0  0  0
   -2.8320   20.9520  -31.3040 C   0  0  0  0  0  0  0  0  0  0  0  0
   -2.0210   21.3550  -30.1260 C   0  0  0  0  0  0  0  0  0  0  0  0
   -2.2070   20.7320  -28.8790 C   0  0  0  0  0  0  0  0  0  0  0  0
   -2.9664   19.9437  -28.7706 H   0  0  0  0  0  0  0  0  0  0  0  0
   -1.4340   21.1070  -27.7760 C   0  0  0  0  0  0  0  0  0  0  0  0
   -1.5873   20.6130  -26.8052 H   0  0  0  0  0  0  0  0  0  0  0  0
   -0.4660   22.1090  -27.9040 C   0  0  0  0  0  0  0  0  0  0  0  0
    0.3350   22.4880  -26.7690 C   0  0  0  0  0  0  0  0  0  0  0  0
    0.9800   22.7910  -25.8580 N   0  0  0  0  0  0  0  0  0  0  0  0
   -0.2730   22.7360  -29.1390 C   0  0  0  0  0  0  0  0  0  0  0  0
    0.4857   23.5260  -29.2409 H   0  0  0  0  0  0  0  0  0  0  0  0
   -1.0420   22.3610  -30.2440 C   0  0  0  0  0  0  0  0  0  0  0  0
   -0.8816   22.8553  -31.2135 H   0  0  0  0  0  0  0  0  0  0  0  0
   -4.2130   20.7180  -31.1730 C   0  0  0  0  0  0  0  0  0  0  0  0
   -4.7028   20.8770  -30.2010 H   0  0  0  0  0  0  0  0  0  0  0  0
   -4.9710   20.2840  -32.2700 C   0  0  0  0  0  0  0  0  0  0  0  0
   -6.4080   19.9820  -32.1110 C   0  0  0  0  0  0  0  0  0  0  0  0
   -6.8330   18.6530  -32.2620 C   0  0  0  0  0  0  0  0  0  0  0  0
   -6.0955   17.8651  -32.4750 H   0  0  0  0  0  0  0  0  0  0  0  0
   -8.1850   18.3230  -32.1440 C   0  0  0  0  0  0  0  0  0  0  0  0
   -8.5089   17.2790  -32.2674 H   0  0  0  0  0  0  0  0  0  0  0  0
   -9.1240   19.3160  -31.8700 C   0  0  0  0  0  0  0  0  0  0  0  0
  -10.1893   19.0553  -31.7859 H   0  0  0  0  0  0  0  0  0  0  0  0
   -8.7160   20.6410  -31.7020 C   0  0  0  0  0  0  0  0  0  0  0  0
   -9.4631   21.4185  -31.4841 H   0  0  0  0  0  0  0  0  0  0  0  0
   -7.3590   20.9890  -31.8090 C   0  0  0  0  0  0  0  0  0  0  0  0
   -6.8900   22.6750  -31.5360 S   0  0  0  0  0  0  0  0  0  0  0  0
   -6.1170   23.1990  -32.7140 O   0  0  0  0  0  0  0  0  0  0  0  0
   -8.1280   23.5130  -31.3680 O   0  0  0  0  0  0  0  0  0  0  0  0
   -5.8920   22.7600  -30.1200 N   0  0  0  0  0  0  0  0  0  0  0  0
   -4.8970   23.5820  -29.9890 C   0  0  0  0  0  0  0  0  0  0  0  0
   -4.5060   24.4450  -30.8960 O   0  0  0  0  0  0  0  0  0  0  0  0
   -3.4920   25.1400  -30.4640 N   0  0  0  0  0  0  0  0  0  0  0  0
   -3.2220   24.7100  -29.2130 C   0  0  0  0  0  0  0  0  0  0  0  0
   -2.0930   25.2270  -28.3830 C   0  0  0  0  0  0  0  0  0  0  0  0
   -2.3398   25.1140  -27.3170 H   0  0  0  0  0  0  0  0  0  0  0  0
   -1.1799   24.6573  -28.6103 H   0  0  0  0  0  0  0  0  0  0  0  0
   -1.9278   26.2905  -28.6103 H   0  0  0  0  0  0  0  0  0  0  0  0
   -4.0920   23.6880  -28.8780 C   0  0  0  0  0  0  0  0  0  0  0  0
   -4.2080   22.9580  -27.5770 C   0  0  0  0  0  0  0  0  0  0  0  0
   -4.0949   23.6697  -26.7459 H   0  0  0  0  0  0  0  0  0  0  0  0
   -5.1942   22.4748  -27.5143 H   0  0  0  0  0  0  0  0  0  0  0  0
   -3.4202   22.1929  -27.5143 H   0  0  0  0  0  0  0  0  0  0  0  0
   -4.3570   20.1370  -33.5220 C   0  0  0  0  0  0  0  0  0  0  0  0
   -4.9526   19.8249  -34.3926 H   0  0  0  0  0  0  0  0  0  0  0  0
  1  2  1  0
  2  3  2  0
  3  4  1  0
  3  5  1  0
  5  6  1  0
  6  7  2  0
  7  8  1  0
  7  9  1  0
  9 10  1  0
  9 11  2  0
 11 12  1  0
 12 13  3  0
 11 14  1  0
 14 15  1  0
 14 16  2  0
 16 17  1  0
  5 18  2  0
 18 19  1  0
 18 20  1  0
 20 21  1  0
 21 22  2  0
 22 23  1  0
 22 24  1  0
 24 25  1  0
 24 26  2  0
 26 27  1  0
 26 28  1  0
 28 29  1  0
 28 30  2  0
 30 31  1  0
 31 32  2  0
 31 33  2  0
 31 34  1  0
 34 35  2  0
 35 36  1  0
 36 37  1  0
 37 38  1  0
 38 39  1  0
 39 40  1  0
 39 41  1  0
 39 42  1  0
 38 43  2  0
 43 44  1  0
 44 45  1  0
 44 46  1  0
 44 47  1  0
 20 48  2  0
 48 49  1  0
 48  2  1  0
 16  6  1  0
 30 21  1  0
 43 35  1  0
M  CHG  1  37  -1
M  END
>  <UniqueID>  (16) 
15

>  <SMILES>  (16) 
Cc1[n-]o/c(=N\S(=O)(=O)c2ccccc2-c2cccc(-c3ccc(C#N)cc3)c2)c1C

>  <Energy>  (16) 
93.48270735787173

>  <Genealogy>  (16) 
Cc1[n-]oc(=NS(=O)(=O)c2ccccc2-c2cccc(-c3ccc(C#N)cc3)c2)c1C (protonated)
Cc1[n-]o/c(=N\S(=O)(=O)c2ccccc2-c2cccc(-c3ccc(C#N)cc3)c2)c1C (cis-trans isomerization)
Cc1[n-]o/c(=N\S(=O)(=O)c2ccccc2-c2cccc(-c3ccc(C#N)cc3)c2)c1C (3D coordinates assigned)
Cc1[n-]o/c(=N\S(=O)(=O)c2ccccc2-c2cccc(-c3ccc(C#N)cc3)c2)c1C (optimized conformer: 93.48270735787173 kcal/mol)

>  <smiles>  (16) 
Cc1[nH]oc(=NS(=O)(=O)c2ccccc2-c2cccc(-c3ccc(C#N)cc3)c2)c1C

>  <score_type>  (16) 
oracle

>  <origin>  (16) 
adgpu

>  <m_score__min__energy>  (16) 
-12.390000000000001

>  <m_primary>  (16) 
energy

$$$$
16:0
     RDKit          3D

 26 27  0  0  0  0  0  0  0  0999 V2000
   -5.3200   23.9120  -31.8220 O   0  0  0  0  0  0  0  0  0  0  0  0
   -4.7180   22.9650  -31.2470 C   0  0  0  0  0  0  0  0  0  0  0  0
   -5.2290   21.6310  -31.3640 N   0  0  0  0  0  0  0  0  0  0  0  0
   -6.5910   21.2820  -31.6490 C   0  0  0  0  0  0  0  0  0  0  0  0
   -7.6140   22.0200  -31.0380 C   0  0  0  0  0  0  0  0  0  0  0  0
   -8.9550   21.7070  -31.2810 C   0  0  0  0  0  0  0  0  0  0  0  0
   -9.2830   20.6420  -32.1220 C   0  0  0  0  0  0  0  0  0  0  0  0
   -8.2710   19.8780  -32.7100 C   0  0  0  0  0  0  0  0  0  0  0  0
   -6.9270   20.1820  -32.4660 C   0  0  0  0  0  0  0  0  0  0  0  0
   -5.9410   19.3660  -33.0090 O   0  0  0  0  0  0  0  0  0  0  0  0
   -3.5210   23.2510  -30.4100 C   0  0  0  0  0  0  0  0  0  0  0  0
   -2.7480   22.1770  -29.9240 C   0  0  0  0  0  0  0  0  0  0  0  0
   -1.6180   22.4080  -29.1380 C   0  0  0  0  0  0  0  0  0  0  0  0
   -1.2350   23.7110  -28.8170 C   0  0  0  0  0  0  0  0  0  0  0  0
   -0.1000   23.9110  -28.0310 O   0  0  0  0  0  0  0  0  0  0  0  0
   -1.9940   24.7930  -29.2870 C   0  0  0  0  0  0  0  0  0  0  0  0
   -1.6230   26.0950  -28.9690 O   0  0  0  0  0  0  0  0  0  0  0  0
   -3.1310   24.5700  -30.0760 C   0  0  0  0  0  0  0  0  0  0  0  0
   -3.8640   25.6690  -30.5140 O   0  0  0  0  0  0  0  0  0  0  0  0
   -7.3603   22.8507  -30.3630 H   0  0  0  0  0  0  0  0  0  0  0  0
   -9.7521   22.3003  -30.8092 H   0  0  0  0  0  0  0  0  0  0  0  0
  -10.3382   20.4041  -32.3219 H   0  0  0  0  0  0  0  0  0  0  0  0
   -8.5319   19.0350  -33.3667 H   0  0  0  0  0  0  0  0  0  0  0  0
   -3.0389   21.1444  -30.1672 H   0  0  0  0  0  0  0  0  0  0  0  0
   -1.0256   21.5577  -28.7692 H   0  0  0  0  0  0  0  0  0  0  0  0
    0.1950   24.8350  -27.7370 H   0  0  0  0  0  0  0  0  0  0  0  0
  1  2  2  0
  2  3  1  0
  3  4  1  0
  4  5  2  0
  5  6  1  0
  6  7  2  0
  7  8  1  0
  8  9  2  0
  9 10  1  0
  2 11  1  0
 11 12  2  0
 12 13  1  0
 13 14  2  0
 14 15  1  0
 14 16  1  0
 16 17  1  0
 16 18  2  0
 18 19  1  0
  9  4  1  0
 18 11  1  0
  5 20  1  0
  6 21  1  0
  7 22  1  0
  8 23  1  0
 12 24  1  0
 13 25  1  0
 15 26  1  0
M  CHG  4   3  -1  10  -1  17  -1  19  -1
M  END
>  <UniqueID>  (17) 
16

>  <SMILES>  (17) 
O=C([N-]c1ccccc1[O-])c1ccc(O)c([O-])c1[O-]

>  <Energy>  (17) 
36.199230142114295

>  <Genealogy>  (17) 
O=C([N-]c1ccccc1[O-])c1ccc(O)c([O-])c1[O-] (protonated)
O=C([N-]c1ccccc1[O-])c1ccc(O)c([O-])c1[O-] (3D coordinates assigned)
O=C([N-]c1ccccc1[O-])c1ccc(O)c([O-])c1[O-] (optimized conformer: 36.199230142114295 kcal/mol)

>  <smiles>  (17) 
O=C(Nc1ccccc1O)c1ccc(O)c(O)c1O

>  <score_type>  (17) 
oracle

>  <origin>  (17) 
adgpu

>  <m_score__min__energy>  (17) 
-12.279999999999999

>  <m_primary>  (17) 
energy

$$$$
17:0
     RDKit          3D

 59 62  0  0  0  0  0  0  0  0999 V2000
    2.9640   19.0550  -33.2850 C   0  0  0  0  0  0  0  0  0  0  0  0
    2.0970   20.1770  -33.1870 O   0  0  0  0  0  0  0  0  0  0  0  0
    0.7000   20.0990  -33.0640 C   0  0  0  0  0  0  0  0  0  0  0  0
    0.0900   19.5880  -31.9030 C   0  0  0  0  0  0  0  0  0  0  0  0
   -1.3020   19.5230  -31.8020 C   0  0  0  0  0  0  0  0  0  0  0  0
   -2.1200   19.9750  -32.8510 C   0  0  0  0  0  0  0  0  0  0  0  0
   -3.6000   19.8880  -32.7290 C   0  0  0  0  0  0  0  0  0  0  0  0
   -4.1320   18.7810  -32.4380 O   0  0  0  0  0  0  0  0  0  0  0  0
   -4.4340   21.0290  -32.9990 N   0  0  0  0  0  0  0  0  0  0  0  0
   -5.8450   21.0740  -32.7130 C   0  0  0  0  0  0  0  0  0  0  0  0
   -6.6990   20.0530  -33.1650 C   0  0  0  0  0  0  0  0  0  0  0  0
   -8.0600   20.0720  -32.8480 C   0  0  0  0  0  0  0  0  0  0  0  0
   -8.5810   21.1000  -32.0620 C   0  0  0  0  0  0  0  0  0  0  0  0
   -7.7430   22.1110  -31.5900 C   0  0  0  0  0  0  0  0  0  0  0  0
   -6.3780   22.1080  -31.9090 C   0  0  0  0  0  0  0  0  0  0  0  0
   -5.5510   23.1730  -31.4200 N   0  0  0  0  0  0  0  0  0  0  0  0
   -5.9790   24.5640  -31.5960 C   0  0  0  0  0  0  0  0  0  0  0  0
   -5.3380   25.4430  -30.5180 C   0  0  0  0  0  0  0  0  0  0  0  0
   -3.9380   25.2400  -30.4730 O   0  0  0  0  0  0  0  0  0  0  0  0
   -3.6590   23.9180  -30.0510 C   0  0  0  0  0  0  0  0  0  0  0  0
   -4.1540   22.8990  -31.0820 C   0  0  0  0  0  0  0  0  0  0  0  0
   -1.5090   20.5100  -34.0000 C   0  0  0  0  0  0  0  0  0  0  0  0
   -0.1130   20.5490  -34.1240 C   0  0  0  0  0  0  0  0  0  0  0  0
    0.5910   21.1910  -35.6140 S   0  0  0  0  0  0  0  0  0  0  0  0
    1.7220   20.3100  -36.0790 O   0  0  0  0  0  0  0  0  0  0  0  0
   -0.4680   21.1960  -36.6840 O   0  0  0  0  0  0  0  0  0  0  0  0
    1.1560   22.8230  -35.3530 N   0  0  0  0  0  0  0  0  0  0  0  0
    2.5590   22.9520  -35.7840 C   0  0  0  0  0  0  0  0  0  0  0  0
    3.0010   24.4280  -35.7710 C   0  0  0  0  0  0  0  0  0  0  0  0
    2.0270   25.2520  -35.1630 O   0  0  0  0  0  0  0  0  0  0  0  0
    0.8290   25.2100  -35.9160 C   0  0  0  0  0  0  0  0  0  0  0  0
    0.3080   23.7680  -36.0970 C   0  0  0  0  0  0  0  0  0  0  0  0
    3.2314   18.7090  -32.2757 H   0  0  0  0  0  0  0  0  0  0  0  0
    2.4551   18.2447  -33.8276 H   0  0  0  0  0  0  0  0  0  0  0  0
    3.8765   19.3430  -33.8276 H   0  0  0  0  0  0  0  0  0  0  0  0
    0.7144   19.2369  -31.0682 H   0  0  0  0  0  0  0  0  0  0  0  0
   -1.7626   19.1133  -30.8910 H   0  0  0  0  0  0  0  0  0  0  0  0
   -4.0270   21.8200  -33.5420 H   0  0  0  0  0  0  0  0  0  0  0  0
   -6.2924   19.2318  -33.7736 H   0  0  0  0  0  0  0  0  0  0  0  0
   -8.7214   19.2751  -33.2188 H   0  0  0  0  0  0  0  0  0  0  0  0
   -9.6526   21.1136  -31.8142 H   0  0  0  0  0  0  0  0  0  0  0  0
   -8.1561   22.9154  -30.9637 H   0  0  0  0  0  0  0  0  0  0  0  0
   -5.6680   24.9191  -32.5896 H   0  0  0  0  0  0  0  0  0  0  0  0
   -7.0740   24.6215  -31.5085 H   0  0  0  0  0  0  0  0  0  0  0  0
   -5.5424   26.4997  -30.7453 H   0  0  0  0  0  0  0  0  0  0  0  0
   -5.7657   25.1726  -29.5413 H   0  0  0  0  0  0  0  0  0  0  0  0
   -2.5726   23.8024  -29.9234 H   0  0  0  0  0  0  0  0  0  0  0  0
   -4.1793   23.7358  -29.0991 H   0  0  0  0  0  0  0  0  0  0  0  0
   -3.5379   22.9703  -31.9905 H   0  0  0  0  0  0  0  0  0  0  0  0
   -4.0751   21.8869  -30.6585 H   0  0  0  0  0  0  0  0  0  0  0  0
   -2.1362   20.9037  -34.8134 H   0  0  0  0  0  0  0  0  0  0  0  0
    3.2008   22.3772  -35.1002 H   0  0  0  0  0  0  0  0  0  0  0  0
    2.6501   22.5653  -36.8098 H   0  0  0  0  0  0  0  0  0  0  0  0
    3.9435   24.5145  -35.2105 H   0  0  0  0  0  0  0  0  0  0  0  0
    3.1342   24.7590  -36.8115 H   0  0  0  0  0  0  0  0  0  0  0  0
    0.0617   25.8018  -35.3954 H   0  0  0  0  0  0  0  0  0  0  0  0
    1.0411   25.6217  -36.9138 H   0  0  0  0  0  0  0  0  0  0  0  0
   -0.7235   23.7046  -35.7202 H   0  0  0  0  0  0  0  0  0  0  0  0
    0.3346   23.5087  -37.1657 H   0  0  0  0  0  0  0  0  0  0  0  0
  1  2  1  0
  2  3  1  0
  3  4  2  0
  4  5  1  0
  5  6  2  0
  6  7  1  0
  7  8  2  0
  7  9  1  0
  9 10  1  0
 10 11  2  0
 11 12  1  0
 12 13  2  0
 13 14  1  0
 14 15  2  0
 15 16  1  0
 16 17  1  0
 17 18  1  0
 18 19  1  0
 19 20  1  0
 20 21  1  0
  6 22  1  0
 22 23  2  0
 23 24  1  0
 24 25  2  0
 24 26  2  0
 24 27  1  0
 27 28  1  0
 28 29  1  0
 29 30  1  0
 30 31  1  0
 31 32  1  0
 23  3  1  0
 32 27  1  0
 15 10  1  0
 21 16  1  0
  1 33  1  0
  1 34  1  0
  1 35  1  0
  4 36  1  0
  5 37  1  0
  9 38  1  0
 11 39  1  0
 12 40  1  0
 13 41  1  0
 14 42  1  0
 17 43  1  0
 17 44  1  0
 18 45  1  0
 18 46  1  0
 20 47  1  0
 20 48  1  0
 21 49  1  0
 21 50  1  0
 22 51  1  0
 28 52  1  0
 28 53  1  0
 29 54  1  0
 29 55  1  0
 31 56  1  0
 31 57  1  0
 32 58  1  0
 32 59  1  0
M  END
>  <UniqueID>  (18) 
17

>  <SMILES>  (18) 
COc1ccc(C(=O)Nc2ccccc2N2CCOCC2)cc1S(=O)(=O)N1CCOCC1

>  <Energy>  (18) 
81.08654404288491

>  <Genealogy>  (18) 
COc1ccc(C(=O)Nc2ccccc2N2CCOCC2)cc1S(=O)(=O)N1CCOCC1 (3D coordinates assigned)
COc1ccc(C(=O)Nc2ccccc2N2CCOCC2)cc1S(=O)(=O)N1CCOCC1 (nonaromatic ring conformer: 81.08654404288491 kcal/mol)

>  <smiles>  (18) 
COc1ccc(C(=O)Nc2ccccc2N2CCOCC2)cc1S(=O)(=O)N1CCOCC1

>  <score_type>  (18) 
oracle

>  <origin>  (18) 
adgpu

>  <m_score__min__energy>  (18) 
-9.6400000000000006

>  <m_primary>  (18) 
energy

$$$$
18:0
     RDKit          3D

 49 51  0  0  0  0  0  0  0  0999 V2000
    0.1740   18.9750  -34.1510 C   0  0  0  0  0  0  0  0  0  0  0  0
   -1.2870   19.0530  -34.0010 N   0  0  0  0  0  0  0  0  0  0  0  0
   -1.6350   19.5700  -32.6590 C   0  0  0  0  0  0  0  0  0  0  0  0
   -3.1490   19.4620  -32.3610 C   0  0  0  0  0  0  0  0  0  0  0  0
   -3.9520   19.1350  -33.6260 C   0  0  0  0  0  0  0  0  0  0  0  0
   -5.7210   19.0720  -33.2900 S   0  0  0  0  0  0  0  0  0  0  0  0
   -6.0020   17.9390  -32.3430 O   0  0  0  0  0  0  0  0  0  0  0  0
   -6.4370   18.7420  -34.5690 O   0  0  0  0  0  0  0  0  0  0  0  0
   -6.3460   20.6090  -32.6230 C   0  0  0  0  0  0  0  0  0  0  0  0
   -7.6370   20.6580  -32.0320 C   0  0  0  0  0  0  0  0  0  0  0  0
   -8.7340   19.2810  -31.9800 Cl  0  0  0  0  0  0  0  0  0  0  0  0
   -8.1070   21.8440  -31.4640 C   0  0  0  0  0  0  0  0  0  0  0  0
   -7.3120   22.9850  -31.4450 C   0  0  0  0  0  0  0  0  0  0  0  0
   -6.0350   22.9630  -31.9990 C   0  0  0  0  0  0  0  0  0  0  0  0
   -5.2650   24.1730  -31.9670 N   0  0  0  0  0  0  0  0  0  0  0  0
   -5.1270   25.0390  -30.8340 C   0  0  0  0  0  0  0  0  0  0  0  0
   -6.1420   25.5840  -30.3240 O   0  0  0  0  0  0  0  0  0  0  0  0
   -3.8410   25.2900  -30.2580 N   0  0  0  0  0  0  0  0  0  0  0  0
   -2.9740   24.3120  -29.6650 C   0  0  0  0  0  0  0  0  0  0  0  0
   -3.3390   22.9560  -29.5790 C   0  0  0  0  0  0  0  0  0  0  0  0
   -2.4620   22.0230  -29.0180 C   0  0  0  0  0  0  0  0  0  0  0  0
   -1.2050   22.4290  -28.5550 C   0  0  0  0  0  0  0  0  0  0  0  0
   -0.3010   21.4680  -27.9820 C   0  0  0  0  0  0  0  0  0  0  0  0
    0.4260   20.6940  -27.5200 N   0  0  0  0  0  0  0  0  0  0  0  0
   -0.8240   23.7720  -28.6650 C   0  0  0  0  0  0  0  0  0  0  0  0
   -1.7010   24.7080  -29.2250 C   0  0  0  0  0  0  0  0  0  0  0  0
   -1.3060   26.0370  -29.3330 O   0  0  0  0  0  0  0  0  0  0  0  0
   -5.5630   21.8000  -32.6430 C   0  0  0  0  0  0  0  0  0  0  0  0
   -4.3450   21.8860  -33.3220 O   0  0  0  0  0  0  0  0  0  0  0  0
   -3.4370   17.8250  -34.2500 C   0  0  0  0  0  0  0  0  0  0  0  0
   -1.8960   17.7290  -34.2240 C   0  0  0  0  0  0  0  0  0  0  0  0
    0.6439   18.9499  -33.1567 H   0  0  0  0  0  0  0  0  0  0  0  0
    0.4375   18.0615  -34.7042 H   0  0  0  0  0  0  0  0  0  0  0  0
    0.5333   19.8552  -34.7042 H   0  0  0  0  0  0  0  0  0  0  0  0
   -1.0839   18.9910  -31.9033 H   0  0  0  0  0  0  0  0  0  0  0  0
   -1.3618   20.6351  -32.6282 H   0  0  0  0  0  0  0  0  0  0  0  0
   -3.3109   18.6656  -31.6197 H   0  0  0  0  0  0  0  0  0  0  0  0
   -3.4938   20.4331  -31.9763 H   0  0  0  0  0  0  0  0  0  0  0  0
   -3.8030   19.9446  -34.3556 H   0  0  0  0  0  0  0  0  0  0  0  0
   -9.1161   21.8761  -31.0273 H   0  0  0  0  0  0  0  0  0  0  0  0
   -7.6945   23.9103  -30.9895 H   0  0  0  0  0  0  0  0  0  0  0  0
   -4.3194   22.6283  -29.9551 H   0  0  0  0  0  0  0  0  0  0  0  0
   -2.7605   20.9671  -28.9402 H   0  0  0  0  0  0  0  0  0  0  0  0
    0.1669   24.0921  -28.3104 H   0  0  0  0  0  0  0  0  0  0  0  0
   -3.8830   22.7480  -33.5690 H   0  0  0  0  0  0  0  0  0  0  0  0
   -3.8537   16.9771  -33.6865 H   0  0  0  0  0  0  0  0  0  0  0  0
   -3.7575   17.8049  -35.3021 H   0  0  0  0  0  0  0  0  0  0  0  0
   -1.5916   17.0519  -33.4123 H   0  0  0  0  0  0  0  0  0  0  0  0
   -1.5527   17.3450  -35.1959 H   0  0  0  0  0  0  0  0  0  0  0  0
  1  2  1  0
  2  3  1  0
  3  4  1  0
  4  5  1  0
  5  6  1  0
  6  7  2  0
  6  8  2  0
  6  9  1  0
  9 10  2  0
 10 11  1  0
 10 12  1  0
 12 13  2  0
 13 14  1  0
 14 15  1  0
 15 16  1  0
 16 17  2  0
 16 18  1  0
 18 19  1  0
 19 20  2  0
 20 21  1  0
 21 22  2  0
 22 23  1  0
 23 24  3  0
 22 25  1  0
 25 26  2  0
 26 27  1  0
 14 28  2  0
 28 29  1  0
  5 30  1  0
 30 31  1  0
 31  2  1  0
 28  9  1  0
 26 19  1  0
  1 32  1  0
  1 33  1  0
  1 34  1  0
  3 35  1  0
  3 36  1  0
  4 37  1  0
  4 38  1  0
  5 39  1  0
 12 40  1  0
 13 41  1  0
 20 42  1  0
 21 43  1  0
 25 44  1  0
 29 45  1  0
 30 46  1  0
 30 47  1  0
 31 48  1  0
 31 49  1  0
M  CHG  3  15  -1  18  -1  27  -1
M  END
>  <UniqueID>  (19) 
18

>  <SMILES>  (19) 
CN1CCC(S(=O)(=O)c2c(Cl)ccc([N-]C(=O)[N-]c3ccc(C#N)cc3[O-])c2O)CC1

>  <Energy>  (19) 
68.50288171692524

>  <Genealogy>  (19) 
CN1CCC(S(=O)(=O)c2c(Cl)ccc([N-]C(=O)[N-]c3ccc(C#N)cc3[O-])c2O)CC1 (protonated)
CN1CCC(S(=O)(=O)c2c(Cl)ccc([N-]C(=O)[N-]c3ccc(C#N)cc3[O-])c2O)CC1 (3D coordinates assigned)
CN1CCC(S(=O)(=O)c2c(Cl)ccc([N-]C(=O)[N-]c3ccc(C#N)cc3[O-])c2O)CC1 (nonaromatic ring conformer: 68.50288171692524 kcal/mol)

>  <smiles>  (19) 
CN1CCC(S(=O)(=O)c2c(Cl)ccc(NC(=O)Nc3ccc(C#N)cc3O)c2O)CC1

>  <score_type>  (19) 
oracle

>  <origin>  (19) 
adgpu

>  <m_score__min__energy>  (19) 
-15.550000000000001

>  <m_primary>  (19) 
energy

$$$$
19:0
     RDKit          3D

 34 35  0  0  0  0  0  0  0  0999 V2000
   -2.3320   20.1830  -27.7640 C   0  0  0  0  0  0  0  0  0  0  0  0
   -2.2390   21.6180  -28.1930 C   0  0  0  0  0  0  0  0  0  0  0  0
   -0.9970   22.1800  -28.5170 C   0  0  0  0  0  0  0  0  0  0  0  0
   -0.9080   23.5250  -28.8800 C   0  0  0  0  0  0  0  0  0  0  0  0
   -2.0550   24.3230  -28.9170 C   0  0  0  0  0  0  0  0  0  0  0  0
   -1.9390   25.6570  -29.2920 O   0  0  0  0  0  0  0  0  0  0  0  0
   -3.3110   23.7790  -28.5850 C   0  0  0  0  0  0  0  0  0  0  0  0
   -4.4850   24.6120  -28.6310 N   0  0  0  0  0  0  0  0  0  0  0  0
   -5.3490   24.9710  -30.0930 S   0  0  0  0  0  0  0  0  0  0  0  0
   -6.5050   25.8780  -29.7710 O   0  0  0  0  0  0  0  0  0  0  0  0
   -4.4310   25.6720  -31.0540 O   0  0  0  0  0  0  0  0  0  0  0  0
   -5.9130   23.4790  -30.8380 C   0  0  0  0  0  0  0  0  0  0  0  0
   -5.0010   22.6390  -31.4920 C   0  0  0  0  0  0  0  0  0  0  0  0
   -5.4330   21.4360  -32.0590 C   0  0  0  0  0  0  0  0  0  0  0  0
   -6.7820   21.0650  -31.9820 C   0  0  0  0  0  0  0  0  0  0  0  0
   -7.3220   19.5390  -32.6730 S   0  0  0  0  0  0  0  0  0  0  0  0
   -6.3860   19.1810  -34.0800 N   0  0  0  0  0  0  0  0  0  0  0  0
   -7.1580   18.4360  -31.6650 O   0  0  0  0  0  0  0  0  0  0  0  0
   -8.7740   19.6370  -33.0500 O   0  0  0  0  0  0  0  0  0  0  0  0
   -7.6940   21.9050  -31.3280 C   0  0  0  0  0  0  0  0  0  0  0  0
   -7.2630   23.1070  -30.7610 C   0  0  0  0  0  0  0  0  0  0  0  0
   -3.3870   22.4250  -28.2050 C   0  0  0  0  0  0  0  0  0  0  0  0
   -2.3355   20.1282  -26.6654 H   0  0  0  0  0  0  0  0  0  0  0  0
   -3.2606   19.7425  -28.1561 H   0  0  0  0  0  0  0  0  0  0  0  0
   -1.4680   19.6264  -28.1561 H   0  0  0  0  0  0  0  0  0  0  0  0
   -0.0893   21.5594  -28.4852 H   0  0  0  0  0  0  0  0  0  0  0  0
    0.0693   23.9589  -29.1381 H   0  0  0  0  0  0  0  0  0  0  0  0
   -4.7890   25.1220  -27.7720 H   0  0  0  0  0  0  0  0  0  0  0  0
   -3.9416   22.9273  -31.5594 H   0  0  0  0  0  0  0  0  0  0  0  0
   -4.7117   20.7790  -32.5670 H   0  0  0  0  0  0  0  0  0  0  0  0
   -6.9180   19.5470  -34.9010 H   0  0  0  0  0  0  0  0  0  0  0  0
   -8.7534   21.6166  -31.2609 H   0  0  0  0  0  0  0  0  0  0  0  0
   -7.9846   23.7635  -30.2527 H   0  0  0  0  0  0  0  0  0  0  0  0
   -4.3570   21.9953  -27.9144 H   0  0  0  0  0  0  0  0  0  0  0  0
  1  2  1  0
  2  3  2  0
  3  4  1  0
  4  5  2  0
  5  6  1  0
  5  7  1  0
  7  8  1  0
  8  9  1  0
  9 10  2  0
  9 11  2  0
  9 12  1  0
 12 13  2  0
 13 14  1  0
 14 15  2  0
 15 16  1  0
 16 17  1  0
 16 18  2  0
 16 19  2  0
 15 20  1  0
 20 21  2  0
  7 22  2  0
 22  2  1  0
 21 12  1  0
  1 23  1  0
  1 24  1  0
  1 25  1  0
  3 26  1  0
  4 27  1  0
  8 28  1  0
 13 29  1  0
 14 30  1  0
 17 31  1  0
 20 32  1  0
 21 33  1  0
 22 34  1  0
M  CHG  2   6  -1  17  -1
M  END
>  <UniqueID>  (20) 
19

>  <SMILES>  (20) 
Cc1ccc([O-])c(NS(=O)(=O)c2ccc(S([NH-])(=O)=O)cc2)c1

>  <Energy>  (20) 
36.52082434501091

>  <Genealogy>  (20) 
Cc1ccc([O-])c(NS(=O)(=O)c2ccc(S([NH-])(=O)=O)cc2)c1 (protonated)
Cc1ccc([O-])c(NS(=O)(=O)c2ccc(S([NH-])(=O)=O)cc2)c1 (3D coordinates assigned)
Cc1ccc([O-])c(NS(=O)(=O)c2ccc(S([NH-])(=O)=O)cc2)c1 (optimized conformer: 36.52082434501091 kcal/mol)

>  <smiles>  (20) 
Cc1ccc(O)c(NS(=O)(=O)c2ccc(S(N)(=O)=O)cc2)c1

>  <score_type>  (20) 
oracle

>  <origin>  (20) 
adgpu

>  <m_score__min__energy>  (20) 
-12.210000000000001

>  <m_primary>  (20) 
energy

$$$$
20:0
     RDKit          3D

 57 60  0  0  0  0  0  0  0  0999 V2000
   -1.8520   18.8528  -34.4746 H   0  0  0  0  0  0  0  0  0  0  0  0
   -2.6930   19.1670  -33.8390 C   0  0  0  0  0  0  0  0  0  0  0  0
   -3.7520   18.4430  -33.5640 O   0  0  0  0  0  0  0  0  0  0  0  0
   -4.5550   19.1380  -32.7870 C   0  0  0  0  0  0  0  0  0  0  0  0
   -5.8370   18.6020  -32.2090 C   0  0  0  0  0  0  0  0  0  0  0  0
   -5.8210   17.5038  -32.2690 H   0  0  0  0  0  0  0  0  0  0  0  0
   -5.9070   18.9442  -31.1659 H   0  0  0  0  0  0  0  0  0  0  0  0
   -7.0270   19.1020  -32.9330 N   0  0  0  0  0  0  0  0  0  0  0  0
   -8.2910   18.5940  -32.3310 C   0  0  0  0  0  0  0  0  0  0  0  0
   -8.5165   17.6089  -32.7655 H   0  0  0  0  0  0  0  0  0  0  0  0
   -8.1399   18.5343  -31.2431 H   0  0  0  0  0  0  0  0  0  0  0  0
   -9.4830   19.5250  -32.5820 C   0  0  0  0  0  0  0  0  0  0  0  0
   -9.6294   19.6372  -33.6664 H   0  0  0  0  0  0  0  0  0  0  0  0
  -10.3760   19.0835  -32.1155 H   0  0  0  0  0  0  0  0  0  0  0  0
   -9.2420   20.9100  -31.9620 C   0  0  0  0  0  0  0  0  0  0  0  0
   -9.7902   21.6602  -32.5508 H   0  0  0  0  0  0  0  0  0  0  0  0
   -9.5951   20.8760  -30.9208 H   0  0  0  0  0  0  0  0  0  0  0  0
   -7.7520   21.2940  -31.9380 C   0  0  0  0  0  0  0  0  0  0  0  0
   -7.6592   22.3820  -32.0706 H   0  0  0  0  0  0  0  0  0  0  0  0
   -7.3269   20.9847  -30.9717 H   0  0  0  0  0  0  0  0  0  0  0  0
   -6.9810   20.5850  -33.0590 C   0  0  0  0  0  0  0  0  0  0  0  0
   -7.4216   20.8708  -34.0256 H   0  0  0  0  0  0  0  0  0  0  0  0
   -5.9277   20.8940  -32.9875 H   0  0  0  0  0  0  0  0  0  0  0  0
   -4.0130   20.3870  -32.5360 C   0  0  0  0  0  0  0  0  0  0  0  0
   -4.4482   21.2011  -31.9379 H   0  0  0  0  0  0  0  0  0  0  0  0
   -2.8040   20.3830  -33.2040 C   0  0  0  0  0  0  0  0  0  0  0  0
   -1.8190   21.3780  -33.2130 O   0  0  0  0  0  0  0  0  0  0  0  0
   -0.4270   21.1230  -33.0430 C   0  0  0  0  0  0  0  0  0  0  0  0
    0.1434   22.0187  -33.3299 H   0  0  0  0  0  0  0  0  0  0  0  0
   -0.1394   20.2726  -33.6787 H   0  0  0  0  0  0  0  0  0  0  0  0
   -0.1290   20.7840  -31.6110 C   0  0  0  0  0  0  0  0  0  0  0  0
    0.6800   19.6770  -31.3110 C   0  0  0  0  0  0  0  0  0  0  0  0
    1.1086   19.0748  -32.1256 H   0  0  0  0  0  0  0  0  0  0  0  0
    0.9430   19.3370  -29.9810 C   0  0  0  0  0  0  0  0  0  0  0  0
    1.5761   18.4673  -29.7511 H   0  0  0  0  0  0  0  0  0  0  0  0
    0.4030   20.1000  -28.9440 C   0  0  0  0  0  0  0  0  0  0  0  0
    0.5985   19.8208  -27.8981 H   0  0  0  0  0  0  0  0  0  0  0  0
   -0.3870   21.2200  -29.2320 C   0  0  0  0  0  0  0  0  0  0  0  0
   -1.0500   22.2010  -27.9320 S   0  0  0  0  0  0  0  0  0  0  0  0
   -2.2230   21.4640  -27.3530 O   0  0  0  0  0  0  0  0  0  0  0  0
   -0.0440   22.4200  -26.8350 O   0  0  0  0  0  0  0  0  0  0  0  0
   -1.6070   23.7360  -28.5200 N   0  0  0  0  0  0  0  0  0  0  0  0
   -2.6030   24.0170  -29.3140 C   0  0  0  0  0  0  0  0  0  0  0  0
   -2.8380   25.2480  -29.6990 O   0  0  0  0  0  0  0  0  0  0  0  0
   -3.8660   25.3110  -30.4940 N   0  0  0  0  0  0  0  0  0  0  0  0
   -4.3300   24.0570  -30.6380 C   0  0  0  0  0  0  0  0  0  0  0  0
   -5.5420   23.7180  -31.4450 C   0  0  0  0  0  0  0  0  0  0  0  0
   -6.3784   23.4841  -30.7699 H   0  0  0  0  0  0  0  0  0  0  0  0
   -5.8116   24.5752  -32.0794 H   0  0  0  0  0  0  0  0  0  0  0  0
   -5.3278   22.8453  -32.0794 H   0  0  0  0  0  0  0  0  0  0  0  0
   -3.5530   23.1760  -29.8990 C   0  0  0  0  0  0  0  0  0  0  0  0
   -3.8520   21.7210  -29.6910 C   0  0  0  0  0  0  0  0  0  0  0  0
   -3.8961   21.5062  -28.6131 H   0  0  0  0  0  0  0  0  0  0  0  0
   -4.8193   21.4757  -30.1537 H   0  0  0  0  0  0  0  0  0  0  0  0
   -3.0598   21.1141  -30.1537 H   0  0  0  0  0  0  0  0  0  0  0  0
   -0.6590   21.5560  -30.5650 C   0  0  0  0  0  0  0  0  0  0  0  0
   -1.2900   22.4278  -30.7926 H   0  0  0  0  0  0  0  0  0  0  0  0
  1  2  1  0
  2  3  1  0
  3  4  1  0
  4  5  1  0
  5  6  1  0
  5  7  1  0
  5  8  1  0
  8  9  1  0
  9 10  1  0
  9 11  1  0
  9 12  1  0
 12 13  1  0
 12 14  1  0
 12 15  1  0
 15 16  1  0
 15 17  1  0
 15 18  1  0
 18 19  1  0
 18 20  1  0
 18 21  1  0
 21 22  1  0
 21 23  1  0
  4 24  2  0
 24 25  1  0
 24 26  1  0
 26 27  1  0
 27 28  1  0
 28 29  1  0
 28 30  1  0
 28 31  1  0
 31 32  2  0
 32 33  1  0
 32 34  1  0
 34 35  1  0
 34 36  2  0
 36 37  1  0
 36 38  1  0
 38 39  1  0
 39 40  2  0
 39 41  2  0
 39 42  1  0
 42 43  2  0
 43 44  1  0
 44 45  1  0
 45 46  1  0
 46 47  1  0
 47 48  1  0
 47 49  1  0
 47 50  1  0
 46 51  2  0
 51 52  1  0
 52 53  1  0
 52 54  1  0
 52 55  1  0
 38 56  2  0
 56 57  1  0
 26  2  2  0
 56 31  1  0
 21  8  1  0
 51 43  1  0
M  CHG  1  45  -1
M  END
>  <UniqueID>  (21) 
20

>  <SMILES>  (21) 
Cc1[n-]o/c(=N/S(=O)(=O)c2cccc(COc3coc(CN4CCCCC4)c3)c2)c1C

>  <Energy>  (21) 
128.1477703842154

>  <Genealogy>  (21) 
Cc1[n-]oc(=NS(=O)(=O)c2cccc(COc3coc(CN4CCCCC4)c3)c2)c1C (protonated)
Cc1[n-]o/c(=N/S(=O)(=O)c2cccc(COc3coc(CN4CCCCC4)c3)c2)c1C (cis-trans isomerization)
Cc1[n-]o/c(=N/S(=O)(=O)c2cccc(COc3coc(CN4CCCCC4)c3)c2)c1C (3D coordinates assigned)
Cc1[n-]o/c(=N/S(=O)(=O)c2cccc(COc3coc(CN4CCCCC4)c3)c2)c1C (nonaromatic ring conformer: 128.1477703842154 kcal/mol)

>  <smiles>  (21) 
Cc1[nH]oc(=NS(=O)(=O)c2cccc(COc3coc(CN4CCCCC4)c3)c2)c1C

>  <score_type>  (21) 
oracle

>  <origin>  (21) 
adgpu

>  <m_score__min__energy>  (21) 
-12.19

>  <m_primary>  (21) 
energy

$$$$
21:0
     RDKit          3D

 40 43  0  0  0  0  0  0  0  0999 V2000
   -0.7760   24.7080  -25.7690 C   0  0  0  0  0  0  0  0  0  0  0  0
   -0.5250   25.0170  -27.5020 S   0  0  0  0  0  0  0  0  0  0  0  0
    0.8470   24.5530  -27.9030 O   0  0  0  0  0  0  0  0  0  0  0  0
   -0.6330   26.4930  -27.7710 O   0  0  0  0  0  0  0  0  0  0  0  0
   -1.7430   24.1510  -28.4330 C   0  0  0  0  0  0  0  0  0  0  0  0
   -3.0310   23.9710  -27.9120 C   0  0  0  0  0  0  0  0  0  0  0  0
   -4.0030   23.2950  -28.6560 C   0  0  0  0  0  0  0  0  0  0  0  0
   -3.6920   22.7830  -29.9250 C   0  0  0  0  0  0  0  0  0  0  0  0
   -4.7300   22.1060  -30.7210 C   0  0  0  0  0  0  0  0  0  0  0  0
   -4.6020   20.8430  -31.2940 C   0  0  0  0  0  0  0  0  0  0  0  0
   -5.7580   20.4740  -31.8950 N   0  0  0  0  0  0  0  0  0  0  0  0
   -6.0020   19.2360  -32.5910 C   0  0  0  0  0  0  0  0  0  0  0  0
   -5.4710   19.0150  -33.8750 C   0  0  0  0  0  0  0  0  0  0  0  0
   -5.7180   17.8140  -34.5450 C   0  0  0  0  0  0  0  0  0  0  0  0
   -6.4990   16.8230  -33.9450 C   0  0  0  0  0  0  0  0  0  0  0  0
   -6.7380   15.6590  -34.5970 F   0  0  0  0  0  0  0  0  0  0  0  0
   -7.0380   17.0350  -32.6730 C   0  0  0  0  0  0  0  0  0  0  0  0
   -6.7940   18.2360  -31.9990 C   0  0  0  0  0  0  0  0  0  0  0  0
   -6.6070   21.5070  -31.7160 C   0  0  0  0  0  0  0  0  0  0  0  0
   -7.8650   21.6070  -32.2120 N   0  0  0  0  0  0  0  0  0  0  0  0
   -8.5680   22.7540  -31.9890 C   0  0  0  0  0  0  0  0  0  0  0  0
   -7.9950   23.7950  -31.3100 N   0  0  0  0  0  0  0  0  0  0  0  0
   -6.7260   23.7180  -30.8170 C   0  0  0  0  0  0  0  0  0  0  0  0
   -6.0230   25.1350  -30.0580 Cl  0  0  0  0  0  0  0  0  0  0  0  0
   -6.0210   22.5260  -31.0150 C   0  0  0  0  0  0  0  0  0  0  0  0
   -2.4110   22.9930  -30.4570 C   0  0  0  0  0  0  0  0  0  0  0  0
   -1.4400   23.6690  -29.7120 C   0  0  0  0  0  0  0  0  0  0  0  0
   -0.1905   25.4288  -25.1795 H   0  0  0  0  0  0  0  0  0  0  0  0
   -1.8435   24.8183  -25.5277 H   0  0  0  0  0  0  0  0  0  0  0  0
   -0.4493   23.6857  -25.5277 H   0  0  0  0  0  0  0  0  0  0  0  0
   -3.2785   24.3628  -26.9144 H   0  0  0  0  0  0  0  0  0  0  0  0
   -5.0149   23.1641  -28.2451 H   0  0  0  0  0  0  0  0  0  0  0  0
   -3.6889   20.2305  -31.2627 H   0  0  0  0  0  0  0  0  0  0  0  0
   -4.8578   19.7923  -34.3543 H   0  0  0  0  0  0  0  0  0  0  0  0
   -5.2965   17.6483  -35.5474 H   0  0  0  0  0  0  0  0  0  0  0  0
   -7.6551   16.2561  -32.2013 H   0  0  0  0  0  0  0  0  0  0  0  0
   -7.2242   18.3994  -30.9999 H   0  0  0  0  0  0  0  0  0  0  0  0
   -9.6009   22.8430  -32.3567 H   0  0  0  0  0  0  0  0  0  0  0  0
   -2.1694   22.6242  -31.4648 H   0  0  0  0  0  0  0  0  0  0  0  0
   -0.4350   23.8226  -30.1320 H   0  0  0  0  0  0  0  0  0  0  0  0
  1  2  1  0
  2  3  2  0
  2  4  2  0
  2  5  1  0
  5  6  2  0
  6  7  1  0
  7  8  2  0
  8  9  1  0
  9 10  2  0
 10 11  1  0
 11 12  1  0
 12 13  2  0
 13 14  1  0
 14 15  2  0
 15 16  1  0
 15 17  1  0
 17 18  2  0
 11 19  1  0
 19 20  2  0
 20 21  1  0
 21 22  2  0
 22 23  1  0
 23 24  1  0
 23 25  2  0
  8 26  1  0
 26 27  2  0
 27  5  1  0
 25  9  1  0
 18 12  1  0
 25 19  1  0
  1 28  1  0
  1 29  1  0
  1 30  1  0
  6 31  1  0
  7 32  1  0
 10 33  1  0
 13 34  1  0
 14 35  1  0
 17 36  1  0
 18 37  1  0
 21 38  1  0
 26 39  1  0
 27 40  1  0
M  END
>  <UniqueID>  (22) 
21

>  <SMILES>  (22) 
CS(=O)(=O)c1ccc(-c2cn(-c3ccc(F)cc3)c3ncnc(Cl)c23)cc1

>  <Energy>  (22) 
90.96356700954986

>  <Genealogy>  (22) 
CS(=O)(=O)c1ccc(-c2cn(-c3ccc(F)cc3)c3ncnc(Cl)c23)cc1 (3D coordinates assigned)
CS(=O)(=O)c1ccc(-c2cn(-c3ccc(F)cc3)c3ncnc(Cl)c23)cc1 (optimized conformer: 90.96356700954986 kcal/mol)

>  <smiles>  (22) 
CS(=O)(=O)c1ccc(-c2cn(-c3ccc(F)cc3)c3ncnc(Cl)c23)cc1

>  <score_type>  (22) 
oracle

>  <origin>  (22) 
adgpu

>  <m_score__min__energy>  (22) 
-9.1899999999999995

>  <m_primary>  (22) 
energy

$$$$
22:0
     RDKit          3D

 60 63  0  0  0  0  0  0  0  0999 V2000
   -0.8390   30.9180  -38.3660 C   0  0  0  0  0  0  0  0  0  0  0  0
   -0.7130   30.3100  -37.0850 O   0  0  0  0  0  0  0  0  0  0  0  0
   -0.2160   29.0150  -36.8690 C   0  0  0  0  0  0  0  0  0  0  0  0
   -1.0780   27.9310  -37.0660 C   0  0  0  0  0  0  0  0  0  0  0  0
   -0.6320   26.6210  -36.8660 C   0  0  0  0  0  0  0  0  0  0  0  0
    0.6920   26.3730  -36.4610 C   0  0  0  0  0  0  0  0  0  0  0  0
    1.1670   24.9810  -36.2460 C   0  0  0  0  0  0  0  0  0  0  0  0
    2.5330   24.6690  -36.3530 C   0  0  0  0  0  0  0  0  0  0  0  0
    2.9760   23.3590  -36.1600 C   0  0  0  0  0  0  0  0  0  0  0  0
    2.0660   22.3480  -35.8480 C   0  0  0  0  0  0  0  0  0  0  0  0
    0.6990   22.6420  -35.7130 C   0  0  0  0  0  0  0  0  0  0  0  0
   -0.2640   21.6150  -35.4230 N   0  0  0  0  0  0  0  0  0  0  0  0
   -0.4780   21.0670  -34.1080 C   0  0  0  0  0  0  0  0  0  0  0  0
    0.1450   21.5420  -33.1190 O   0  0  0  0  0  0  0  0  0  0  0  0
   -1.4280   19.9510  -33.8840 C   0  0  0  0  0  0  0  0  0  0  0  0
   -2.4680   20.0970  -32.9510 C   0  0  0  0  0  0  0  0  0  0  0  0
   -3.3790   19.0610  -32.7320 C   0  0  0  0  0  0  0  0  0  0  0  0
   -3.2870   17.8640  -33.4590 C   0  0  0  0  0  0  0  0  0  0  0  0
   -4.2810   16.7450  -33.2210 C   0  0  0  0  0  0  0  0  0  0  0  0
   -5.6860   17.2010  -33.1150 N   0  0  0  0  0  0  0  0  0  0  0  0
   -6.1170   17.4940  -31.7300 C   0  0  0  0  0  0  0  0  0  0  0  0
   -7.4470   18.2530  -31.7310 C   0  0  0  0  0  0  0  0  0  0  0  0
   -7.3110   19.5740  -32.3900 N   0  0  0  0  0  0  0  0  0  0  0  0
   -8.6210   20.0500  -32.8610 C   0  0  0  0  0  0  0  0  0  0  0  0
   -6.3000   19.6020  -33.4770 C   0  0  0  0  0  0  0  0  0  0  0  0
   -6.0850   18.2190  -34.1150 C   0  0  0  0  0  0  0  0  0  0  0  0
   -2.2400   17.7100  -34.3830 C   0  0  0  0  0  0  0  0  0  0  0  0
   -1.3280   18.7450  -34.6020 C   0  0  0  0  0  0  0  0  0  0  0  0
    0.2550   23.9560  -35.9330 C   0  0  0  0  0  0  0  0  0  0  0  0
    1.5570   27.4630  -36.2630 C   0  0  0  0  0  0  0  0  0  0  0  0
    1.1090   28.7720  -36.4640 C   0  0  0  0  0  0  0  0  0  0  0  0
   -1.0608   31.9884  -38.2436 H   0  0  0  0  0  0  0  0  0  0  0  0
    0.1027   30.7999  -38.9221 H   0  0  0  0  0  0  0  0  0  0  0  0
   -1.6562   30.4354  -38.9221 H   0  0  0  0  0  0  0  0  0  0  0  0
   -2.1164   28.1109  -37.3812 H   0  0  0  0  0  0  0  0  0  0  0  0
   -1.3211   25.7788  -37.0264 H   0  0  0  0  0  0  0  0  0  0  0  0
    3.2578   25.4617  -36.5903 H   0  0  0  0  0  0  0  0  0  0  0  0
    4.0462   23.1230  -36.2542 H   0  0  0  0  0  0  0  0  0  0  0  0
    2.4207   21.3163  -35.7072 H   0  0  0  0  0  0  0  0  0  0  0  0
   -0.8690   21.2990  -36.2120 H   0  0  0  0  0  0  0  0  0  0  0  0
   -2.5659   21.0365  -32.3873 H   0  0  0  0  0  0  0  0  0  0  0  0
   -4.1754   19.1844  -31.9833 H   0  0  0  0  0  0  0  0  0  0  0  0
   -4.2098   16.0350  -34.0582 H   0  0  0  0  0  0  0  0  0  0  0  0
   -4.0207   16.2876  -32.2551 H   0  0  0  0  0  0  0  0  0  0  0  0
   -6.2403   16.5484  -31.1816 H   0  0  0  0  0  0  0  0  0  0  0  0
   -5.3521   18.1175  -31.2440 H   0  0  0  0  0  0  0  0  0  0  0  0
   -8.1987   17.6586  -32.2709 H   0  0  0  0  0  0  0  0  0  0  0  0
   -7.7560   18.4148  -30.6878 H   0  0  0  0  0  0  0  0  0  0  0  0
   -9.2595   20.2820  -31.9959 H   0  0  0  0  0  0  0  0  0  0  0  0
   -8.4847   20.9561  -33.4696 H   0  0  0  0  0  0  0  0  0  0  0  0
   -9.0982   19.2678  -33.4696 H   0  0  0  0  0  0  0  0  0  0  0  0
   -6.6382   20.3014  -34.2558 H   0  0  0  0  0  0  0  0  0  0  0  0
   -5.3435   19.9201  -33.0367 H   0  0  0  0  0  0  0  0  0  0  0  0
   -7.0227   17.8988  -34.5926 H   0  0  0  0  0  0  0  0  0  0  0  0
   -5.2727   18.3077  -34.8514 H   0  0  0  0  0  0  0  0  0  0  0  0
   -2.1376   16.7663  -34.9387 H   0  0  0  0  0  0  0  0  0  0  0  0
   -0.5246   18.6162  -35.3422 H   0  0  0  0  0  0  0  0  0  0  0  0
   -0.8180   24.1867  -35.8598 H   0  0  0  0  0  0  0  0  0  0  0  0
    2.5955   27.2846  -35.9472 H   0  0  0  0  0  0  0  0  0  0  0  0
    1.7961   29.6161  -36.3046 H   0  0  0  0  0  0  0  0  0  0  0  0
  1  2  1  0
  2  3  1  0
  3  4  2  0
  4  5  1  0
  5  6  2  0
  6  7  1  0
  7  8  2  0
  8  9  1  0
  9 10  2  0
 10 11  1  0
 11 12  1  0
 12 13  1  0
 13 14  2  0
 13 15  1  0
 15 16  2  0
 16 17  1  0
 17 18  2  0
 18 19  1  0
 19 20  1  0
 20 21  1  0
 21 22  1  0
 22 23  1  0
 23 24  1  0
 23 25  1  0
 25 26  1  0
 18 27  1  0
 27 28  2  0
 11 29  2  0
  6 30  1  0
 30 31  2  0
 31  3  1  0
 29  7  1  0
 28 15  1  0
 26 20  1  0
  1 32  1  0
  1 33  1  0
  1 34  1  0
  4 35  1  0
  5 36  1  0
  8 37  1  0
  9 38  1  0
 10 39  1  0
 12 40  1  0
 16 41  1  0
 17 42  1  0
 19 43  1  0
 19 44  1  0
 21 45  1  0
 21 46  1  0
 22 47  1  0
 22 48  1  0
 24 49  1  0
 24 50  1  0
 24 51  1  0
 25 52  1  0
 25 53  1  0
 26 54  1  0
 26 55  1  0
 27 56  1  0
 28 57  1  0
 29 58  1  0
 30 59  1  0
 31 60  1  0
M  END
>  <UniqueID>  (23) 
22

>  <SMILES>  (23) 
COc1ccc(-c2cccc(NC(=O)c3ccc(CN4CCN(C)CC4)cc3)c2)cc1

>  <Energy>  (23) 
89.48256085821012

>  <Genealogy>  (23) 
COc1ccc(-c2cccc(NC(=O)c3ccc(CN4CCN(C)CC4)cc3)c2)cc1 (3D coordinates assigned)
COc1ccc(-c2cccc(NC(=O)c3ccc(CN4CCN(C)CC4)cc3)c2)cc1 (nonaromatic ring conformer: 89.48256085821012 kcal/mol)

>  <smiles>  (23) 
COc1ccc(-c2cccc(NC(=O)c3ccc(CN4CCN(C)CC4)cc3)c2)cc1

>  <score_type>  (23) 
oracle

>  <origin>  (23) 
adgpu

>  <m_score__min__energy>  (23) 
-9.3599999999999994

>  <m_primary>  (23) 
energy

$$$$
23:0
     RDKit          3D

 48 50  0  0  0  0  0  0  0  0999 V2000
   -5.3990   26.8040  -29.7450 H   0  0  0  0  0  0  0  0  0  0  0  0
   -5.4410   26.0470  -30.4630 N   0  0  0  0  0  0  0  0  0  0  0  0
   -4.6280   25.0390  -30.4470 C   0  0  0  0  0  0  0  0  0  0  0  0
   -4.7310   24.0880  -31.4050 N   0  0  0  0  0  0  0  0  0  0  0  0
   -3.8920   23.0210  -31.4060 C   0  0  0  0  0  0  0  0  0  0  0  0
   -3.9870   21.9940  -32.4890 C   0  0  0  0  0  0  0  0  0  0  0  0
   -4.8140   22.2576  -33.1647 H   0  0  0  0  0  0  0  0  0  0  0  0
   -3.0351   21.9727  -33.0399 H   0  0  0  0  0  0  0  0  0  0  0  0
   -4.2940   20.3360  -31.7840 S   0  0  0  0  0  0  0  0  0  0  0  0
   -6.0860   20.4380  -31.9260 C   0  0  0  0  0  0  0  0  0  0  0  0
   -6.6610   21.6710  -31.9010 N   0  0  0  0  0  0  0  0  0  0  0  0
   -8.0060   21.8500  -31.9970 C   0  0  0  0  0  0  0  0  0  0  0  0
   -8.5770   23.2290  -31.9330 C   0  0  0  0  0  0  0  0  0  0  0  0
   -8.7001   23.5264  -30.8812 H   0  0  0  0  0  0  0  0  0  0  0  0
   -7.8958   23.9316  -32.4354 H   0  0  0  0  0  0  0  0  0  0  0  0
   -9.5555   23.2444  -32.4354 H   0  0  0  0  0  0  0  0  0  0  0  0
   -8.8440   20.7400  -32.1290 C   0  0  0  0  0  0  0  0  0  0  0  0
   -9.9336   20.8730  -32.2000 H   0  0  0  0  0  0  0  0  0  0  0  0
   -8.2870   19.4610  -32.1700 C   0  0  0  0  0  0  0  0  0  0  0  0
   -8.9398   18.5836  -32.2883 H   0  0  0  0  0  0  0  0  0  0  0  0
   -6.8970   19.2880  -32.0610 C   0  0  0  0  0  0  0  0  0  0  0  0
   -6.3150   17.9000  -32.1620 C   0  0  0  0  0  0  0  0  0  0  0  0
   -5.2389   17.9435  -31.9381 H   0  0  0  0  0  0  0  0  0  0  0  0
   -6.8314   17.2491  -31.4412 H   0  0  0  0  0  0  0  0  0  0  0  0
   -6.5110   17.3280  -33.5630 C   0  0  0  0  0  0  0  0  0  0  0  0
   -6.8668   16.2898  -33.4887 H   0  0  0  0  0  0  0  0  0  0  0  0
   -7.2534   17.9321  -34.1051 H   0  0  0  0  0  0  0  0  0  0  0  0
   -5.5541   17.3498  -34.1051 H   0  0  0  0  0  0  0  0  0  0  0  0
   -2.9320   22.9180  -30.4510 N   0  0  0  0  0  0  0  0  0  0  0  0
   -2.8120   23.8670  -29.4890 C   0  0  0  0  0  0  0  0  0  0  0  0
   -1.8880   23.7190  -28.5780 N   0  0  0  0  0  0  0  0  0  0  0  0
   -1.5710   24.6400  -27.5250 C   0  0  0  0  0  0  0  0  0  0  0  0
   -2.5830   25.0310  -26.6410 C   0  0  0  0  0  0  0  0  0  0  0  0
   -3.6007   24.6324  -26.7646 H   0  0  0  0  0  0  0  0  0  0  0  0
   -2.3090   25.9240  -25.6030 C   0  0  0  0  0  0  0  0  0  0  0  0
   -3.1121   26.2330  -24.9178 H   0  0  0  0  0  0  0  0  0  0  0  0
   -1.0170   26.4250  -25.4340 C   0  0  0  0  0  0  0  0  0  0  0  0
   -0.8068   27.1423  -24.6270 H   0  0  0  0  0  0  0  0  0  0  0  0
    0.0090   26.0160  -26.2890 C   0  0  0  0  0  0  0  0  0  0  0  0
    1.0278   26.4049  -26.1447 H   0  0  0  0  0  0  0  0  0  0  0  0
   -0.2520   25.1080  -27.3360 C   0  0  0  0  0  0  0  0  0  0  0  0
    0.7620   24.6490  -28.1930 O   0  0  0  0  0  0  0  0  0  0  0  0
    2.1370   24.5590  -27.8370 C   0  0  0  0  0  0  0  0  0  0  0  0
    2.2324   24.5528  -26.7412 H   0  0  0  0  0  0  0  0  0  0  0  0
    2.5620   23.6311  -28.2473 H   0  0  0  0  0  0  0  0  0  0  0  0
    2.6793   25.4236  -28.2473 H   0  0  0  0  0  0  0  0  0  0  0  0
   -3.6770   24.9260  -29.4770 N   0  0  0  0  0  0  0  0  0  0  0  0
   -3.6410   25.6450  -28.7210 H   0  0  0  0  0  0  0  0  0  0  0  0
  1  2  1  0
  2  3  2  0
  3  4  1  0
  4  5  2  0
  5  6  1  0
  6  7  1  0
  6  8  1  0
  6  9  1  0
  9 10  1  0
 10 11  2  0
 11 12  1  0
 12 13  1  0
 13 14  1  0
 13 15  1  0
 13 16  1  0
 12 17  2  0
 17 18  1  0
 17 19  1  0
 19 20  1  0
 19 21  2  0
 21 22  1  0
 22 23  1  0
 22 24  1  0
 22 25  1  0
 25 26  1  0
 25 27  1  0
 25 28  1  0
  5 29  1  0
 29 30  1  0
 30 31  2  0
 31 32  1  0
 32 33  2  0
 33 34  1  0
 33 35  1  0
 35 36  1  0
 35 37  2  0
 37 38  1  0
 37 39  1  0
 39 40  1  0
 39 41  2  0
 41 42  1  0
 42 43  1  0
 43 44  1  0
 43 45  1  0
 43 46  1  0
 30 47  1  0
 47 48  1  0
 47  3  1  0
 21 10  1  0
 41 32  1  0
M  CHG  1  29  -1
M  END
>  <UniqueID>  (24) 
23

>  <SMILES>  (24) 
[H]/N=c1/nc(CSc2nc(C)ccc2CC)[n-]/c(=N/c2ccccc2OC)[nH]1

>  <Energy>  (24) 
49.79805186758568

>  <Genealogy>  (24) 
CCc1ccc(C)nc1SCc1nc(=N)[nH]c(=Nc2ccccc2OC)[n-]1 (protonated)
[H]/N=c1/nc(CSc2nc(C)ccc2CC)[n-]/c(=N/c2ccccc2OC)[nH]1 (cis-trans isomerization)
[H]/N=c1/nc(CSc2nc(C)ccc2CC)[n-]/c(=N/c2ccccc2OC)[nH]1 (3D coordinates assigned)
[H]/N=c1/nc(CSc2nc(C)ccc2CC)[n-]/c(=N/c2ccccc2OC)[nH]1 (optimized conformer: 49.79805186758568 kcal/mol)

>  <smiles>  (24) 
CCc1ccc(C)nc1SCc1nc(=N)[nH]c(=Nc2ccccc2OC)[nH]1

>  <score_type>  (24) 
oracle

>  <origin>  (24) 
adgpu

>  <m_score__min__energy>  (24) 
-10.630000000000001

>  <m_primary>  (24) 
energy

$$$$
24:0
     RDKit          3D

 44 46  0  0  0  0  0  0  0  0999 V2000
   -0.0450   19.9740  -30.5870 C   0  0  0  0  0  0  0  0  0  0  0  0
   -0.3730   20.7480  -31.7830 N   0  0  0  0  0  0  0  0  0  0  0  0
    0.6020   20.8070  -32.8710 C   0  0  0  0  0  0  0  0  0  0  0  0
   -1.7530   20.9590  -32.0970 C   0  0  0  0  0  0  0  0  0  0  0  0
   -2.2670   20.3230  -33.1810 N   0  0  0  0  0  0  0  0  0  0  0  0
   -3.5600   20.4750  -33.5390 C   0  0  0  0  0  0  0  0  0  0  0  0
   -4.3730   21.2710  -32.8090 N   0  0  0  0  0  0  0  0  0  0  0  0
   -3.9330   21.9410  -31.7130 C   0  0  0  0  0  0  0  0  0  0  0  0
   -5.1570   22.8920  -30.8530 S   0  0  0  0  0  0  0  0  0  0  0  0
   -4.9700   24.3380  -31.2210 O   0  0  0  0  0  0  0  0  0  0  0  0
   -4.9950   22.7720  -29.3660 O   0  0  0  0  0  0  0  0  0  0  0  0
   -6.7850   22.4210  -31.3330 C   0  0  0  0  0  0  0  0  0  0  0  0
   -7.7560   23.3960  -31.6060 C   0  0  0  0  0  0  0  0  0  0  0  0
   -9.0540   23.0140  -31.9570 C   0  0  0  0  0  0  0  0  0  0  0  0
   -9.3930   21.6610  -32.0270 C   0  0  0  0  0  0  0  0  0  0  0  0
   -8.4330   20.6850  -31.7420 C   0  0  0  0  0  0  0  0  0  0  0  0
   -8.8550   18.9850  -31.8390 Cl  0  0  0  0  0  0  0  0  0  0  0  0
   -7.1330   21.0640  -31.3900 C   0  0  0  0  0  0  0  0  0  0  0  0
   -2.5730   21.8060  -31.3110 C   0  0  0  0  0  0  0  0  0  0  0  0
   -1.8900   22.6780  -29.9070 S   0  0  0  0  0  0  0  0  0  0  0  0
   -0.4410   23.0160  -30.1110 O   0  0  0  0  0  0  0  0  0  0  0  0
   -2.6310   23.9740  -29.7310 O   0  0  0  0  0  0  0  0  0  0  0  0
   -1.9660   21.7020  -28.4460 C   0  0  0  0  0  0  0  0  0  0  0  0
   -2.7330   20.5290  -28.4360 C   0  0  0  0  0  0  0  0  0  0  0  0
   -2.7470   19.7070  -27.3040 C   0  0  0  0  0  0  0  0  0  0  0  0
   -1.9890   20.0490  -26.1810 C   0  0  0  0  0  0  0  0  0  0  0  0
   -1.2180   21.2140  -26.1880 C   0  0  0  0  0  0  0  0  0  0  0  0
   -1.2010   22.0380  -27.3180 C   0  0  0  0  0  0  0  0  0  0  0  0
   -0.2938   20.5611  -29.6907 H   0  0  0  0  0  0  0  0  0  0  0  0
   -0.6242   19.0388  -30.5852 H   0  0  0  0  0  0  0  0  0  0  0  0
    1.0298   19.7397  -30.5852 H   0  0  0  0  0  0  0  0  0  0  0  0
    1.6168   20.8684  -32.4510 H   0  0  0  0  0  0  0  0  0  0  0  0
    0.5156   19.9020  -33.4903 H   0  0  0  0  0  0  0  0  0  0  0  0
    0.4071   21.6950  -33.4903 H   0  0  0  0  0  0  0  0  0  0  0  0
   -3.9515   19.9516  -34.4238 H   0  0  0  0  0  0  0  0  0  0  0  0
   -7.4955   24.4629  -31.5437 H   0  0  0  0  0  0  0  0  0  0  0  0
   -9.8105   23.7812  -32.1787 H   0  0  0  0  0  0  0  0  0  0  0  0
  -10.4145   21.3633  -32.3061 H   0  0  0  0  0  0  0  0  0  0  0  0
   -6.3817   20.2950  -31.1573 H   0  0  0  0  0  0  0  0  0  0  0  0
   -3.3257   20.2538  -29.3208 H   0  0  0  0  0  0  0  0  0  0  0  0
   -3.3553   18.7905  -27.2980 H   0  0  0  0  0  0  0  0  0  0  0  0
   -1.9994   19.4013  -25.2920 H   0  0  0  0  0  0  0  0  0  0  0  0
   -0.6231   21.4838  -25.3030 H   0  0  0  0  0  0  0  0  0  0  0  0
   -0.5872   22.9508  -27.3228 H   0  0  0  0  0  0  0  0  0  0  0  0
  1  2  1  0
  2  3  1  0
  2  4  1  0
  4  5  2  0
  5  6  1  0
  6  7  2  0
  7  8  1  0
  8  9  1  0
  9 10  2  0
  9 11  2  0
  9 12  1  0
 12 13  2  0
 13 14  1  0
 14 15  2  0
 15 16  1  0
 16 17  1  0
 16 18  2  0
  8 19  2  0
 19 20  1  0
 20 21  2  0
 20 22  2  0
 20 23  1  0
 23 24  2  0
 24 25  1  0
 25 26  2  0
 26 27  1  0
 27 28  2  0
 19  4  1  0
 28 23  1  0
 18 12  1  0
  1 29  1  0
  1 30  1  0
  1 31  1  0
  3 32  1  0
  3 33  1  0
  3 34  1  0
  6 35  1  0
 13 36  1  0
 14 37  1  0
 15 38  1  0
 18 39  1  0
 24 40  1  0
 25 41  1  0
 26 42  1  0
 27 43  1  0
 28 44  1  0
M  END
>  <UniqueID>  (25) 
24

>  <SMILES>  (25) 
CN(C)c1ncnc(S(=O)(=O)c2cccc(Cl)c2)c1S(=O)(=O)c1ccccc1

>  <Energy>  (25) 
57.675757926888735

>  <Genealogy>  (25) 
CN(C)c1ncnc(S(=O)(=O)c2cccc(Cl)c2)c1S(=O)(=O)c1ccccc1 (3D coordinates assigned)
CN(C)c1ncnc(S(=O)(=O)c2cccc(Cl)c2)c1S(=O)(=O)c1ccccc1 (optimized conformer: 57.675757926888735 kcal/mol)

>  <smiles>  (25) 
CN(C)c1ncnc(S(=O)(=O)c2cccc(Cl)c2)c1S(=O)(=O)c1ccccc1

>  <score_type>  (25) 
oracle

>  <origin>  (25) 
adgpu

>  <m_score__min__energy>  (25) 
-9.0600000000000005

>  <m_primary>  (25) 
energy

$$$$
25:0
     RDKit          3D

 51 54  0  0  0  0  0  0  0  0999 V2000
   -0.0910   23.0900  -29.1170 C   0  0  0  0  0  0  0  0  0  0  0  0
    0.6060   24.1900  -28.5450 O   0  0  0  0  0  0  0  0  0  0  0  0
    0.1140   24.9840  -27.4960 C   0  0  0  0  0  0  0  0  0  0  0  0
    0.7810   25.0870  -26.2590 C   0  0  0  0  0  0  0  0  0  0  0  0
    0.2590   25.8890  -25.2410 C   0  0  0  0  0  0  0  0  0  0  0  0
   -0.9330   26.5850  -25.4390 C   0  0  0  0  0  0  0  0  0  0  0  0
   -1.6040   26.4880  -26.6590 C   0  0  0  0  0  0  0  0  0  0  0  0
   -1.0770   25.7020  -27.7000 C   0  0  0  0  0  0  0  0  0  0  0  0
   -1.7500   25.5950  -28.9630 N   0  0  0  0  0  0  0  0  0  0  0  0
   -2.9860   24.9060  -29.1950 C   0  0  0  0  0  0  0  0  0  0  0  0
   -3.5480   24.3210  -28.2340 O   0  0  0  0  0  0  0  0  0  0  0  0
   -3.5970   24.8670  -30.4910 N   0  0  0  0  0  0  0  0  0  0  0  0
   -4.2520   23.7260  -31.0620 C   0  0  0  0  0  0  0  0  0  0  0  0
   -5.6510   23.6430  -31.1220 C   0  0  0  0  0  0  0  0  0  0  0  0
   -6.2610   22.5520  -31.7360 C   0  0  0  0  0  0  0  0  0  0  0  0
   -5.4860   21.5160  -32.2650 C   0  0  0  0  0  0  0  0  0  0  0  0
   -6.0980   20.5250  -32.9620 N   0  0  0  0  0  0  0  0  0  0  0  0
   -5.4000   19.5260  -33.5600 C   0  0  0  0  0  0  0  0  0  0  0  0
   -6.1250   18.4780  -34.3420 C   0  0  0  0  0  0  0  0  0  0  0  0
   -4.0110   19.4700  -33.4220 C   0  0  0  0  0  0  0  0  0  0  0  0
   -3.3380   20.4120  -32.6320 C   0  0  0  0  0  0  0  0  0  0  0  0
   -2.0800   20.1580  -32.3740 N   0  0  0  0  0  0  0  0  0  0  0  0
   -1.2250   20.6990  -31.3560 C   0  0  0  0  0  0  0  0  0  0  0  0
   -0.4310   21.6370  -31.6400 O   0  0  0  0  0  0  0  0  0  0  0  0
   -1.3450   20.2300  -29.9560 C   0  0  0  0  0  0  0  0  0  0  0  0
   -2.3230   20.7720  -29.1010 C   0  0  0  0  0  0  0  0  0  0  0  0
   -2.4340   20.3270  -27.7810 C   0  0  0  0  0  0  0  0  0  0  0  0
   -1.5770   19.3340  -27.3000 C   0  0  0  0  0  0  0  0  0  0  0  0
   -0.6040   18.7840  -28.1400 C   0  0  0  0  0  0  0  0  0  0  0  0
    0.4700   17.5360  -27.5360 Cl  0  0  0  0  0  0  0  0  0  0  0  0
   -0.4870   19.2290  -29.4620 C   0  0  0  0  0  0  0  0  0  0  0  0
   -4.0720   21.5290  -32.1280 C   0  0  0  0  0  0  0  0  0  0  0  0
   -3.4740   22.6980  -31.6050 C   0  0  0  0  0  0  0  0  0  0  0  0
   -0.4939   22.4541  -28.3149 H   0  0  0  0  0  0  0  0  0  0  0  0
   -0.9177   23.4633  -29.7392 H   0  0  0  0  0  0  0  0  0  0  0  0
    0.5996   22.5019  -29.7392 H   0  0  0  0  0  0  0  0  0  0  0  0
    1.7171   24.5333  -26.0941 H   0  0  0  0  0  0  0  0  0  0  0  0
    0.7896   25.9716  -24.2810 H   0  0  0  0  0  0  0  0  0  0  0  0
   -1.3446   27.2107  -24.6334 H   0  0  0  0  0  0  0  0  0  0  0  0
   -2.5501   27.0291  -26.8074 H   0  0  0  0  0  0  0  0  0  0  0  0
   -6.2675   24.4413  -30.6832 H   0  0  0  0  0  0  0  0  0  0  0  0
   -7.3578   22.5053  -31.8050 H   0  0  0  0  0  0  0  0  0  0  0  0
   -6.6114   17.7749  -33.6498 H   0  0  0  0  0  0  0  0  0  0  0  0
   -6.8871   18.9550  -34.9757 H   0  0  0  0  0  0  0  0  0  0  0  0
   -5.4099   17.9331  -34.9757 H   0  0  0  0  0  0  0  0  0  0  0  0
   -3.4419   18.6817  -33.9365 H   0  0  0  0  0  0  0  0  0  0  0  0
   -3.0043   21.5508  -29.4743 H   0  0  0  0  0  0  0  0  0  0  0  0
   -3.1983   20.7598  -27.1188 H   0  0  0  0  0  0  0  0  0  0  0  0
   -1.6677   18.9850  -26.2608 H   0  0  0  0  0  0  0  0  0  0  0  0
    0.2803   18.7938  -30.1192 H   0  0  0  0  0  0  0  0  0  0  0  0
   -2.3790   22.8011  -31.6253 H   0  0  0  0  0  0  0  0  0  0  0  0
  1  2  1  0
  2  3  1  0
  3  4  2  0
  4  5  1  0
  5  6  2  0
  6  7  1  0
  7  8  2  0
  8  9  1  0
  9 10  1  0
 10 11  2  0
 10 12  1  0
 12 13  1  0
 13 14  2  0
 14 15  1  0
 15 16  2  0
 16 17  1  0
 17 18  1  0
 18 19  1  0
 18 20  2  0
 20 21  1  0
 21 22  2  3
 22 23  1  0
 23 24  2  0
 23 25  1  0
 25 26  2  0
 26 27  1  0
 27 28  2  0
 28 29  1  0
 29 30  1  0
 29 31  2  0
 21 32  1  0
 32 33  2  0
  8  3  1  0
 33 13  1  0
 32 16  1  0
 31 25  1  0
  1 34  1  0
  1 35  1  0
  1 36  1  0
  4 37  1  0
  5 38  1  0
  6 39  1  0
  7 40  1  0
 14 41  1  0
 15 42  1  0
 19 43  1  0
 19 44  1  0
 19 45  1  0
 20 46  1  0
 26 47  1  0
 27 48  1  0
 28 49  1  0
 31 50  1  0
 33 51  1  0
M  CHG  3   9  -1  12  -1  17  -1
M  END
>  <UniqueID>  (26) 
25

>  <SMILES>  (26) 
COc1ccccc1[N-]C(=O)[N-]c1ccc2[n-]c(C)cc(=NC(=O)c3cccc(Cl)c3)c2c1

>  <Energy>  (26) 
83.39945724731531

>  <Genealogy>  (26) 
COc1ccccc1[N-]C(=O)[N-]c1ccc2[n-]c(C)cc(=NC(=O)c3cccc(Cl)c3)c2c1 (protonated)
COc1ccccc1[N-]C(=O)[N-]c1ccc2[n-]c(C)cc(=NC(=O)c3cccc(Cl)c3)c2c1 (3D coordinates assigned)
COc1ccccc1[N-]C(=O)[N-]c1ccc2[n-]c(C)cc(=NC(=O)c3cccc(Cl)c3)c2c1 (optimized conformer: 83.39945724731531 kcal/mol)

>  <smiles>  (26) 
COc1ccccc1NC(=O)Nc1ccc2[nH]c(C)cc(=NC(=O)c3cccc(Cl)c3)c2c1

>  <score_type>  (26) 
oracle

>  <origin>  (26) 
adgpu

>  <m_score__min__energy>  (26) 
-12.550000000000001

>  <m_primary>  (26) 
energy

$$$$
26:0
     RDKit          3D

 39 41  0  0  0  0  0  0  0  0999 V2000
   -9.7130   20.8070  -31.4950 O   0  0  0  0  0  0  0  0  0  0  0  0
   -8.4870   21.0130  -31.2910 C   0  0  0  0  0  0  0  0  0  0  0  0
   -8.1050   22.0080  -30.3290 N   0  0  0  0  0  0  0  0  0  0  0  0
   -6.9960   22.9140  -30.4440 C   0  0  0  0  0  0  0  0  0  0  0  0
   -7.0050   23.8740  -31.4610 C   0  0  0  0  0  0  0  0  0  0  0  0
   -5.9510   24.7840  -31.5820 C   0  0  0  0  0  0  0  0  0  0  0  0
   -4.8760   24.7410  -30.6890 C   0  0  0  0  0  0  0  0  0  0  0  0
   -3.8590   25.6820  -30.8000 O   0  0  0  0  0  0  0  0  0  0  0  0
   -4.8400   23.7610  -29.6810 C   0  0  0  0  0  0  0  0  0  0  0  0
   -3.7520   23.6970  -28.7440 N   0  0  0  0  0  0  0  0  0  0  0  0
   -3.8640   24.3530  -27.4370 C   0  0  0  0  0  0  0  0  0  0  0  0
   -2.4730   24.5740  -26.8420 C   0  0  0  0  0  0  0  0  0  0  0  0
   -1.5850   24.9730  -27.8650 O   0  0  0  0  0  0  0  0  0  0  0  0
   -1.2730   23.8740  -28.7080 C   0  0  0  0  0  0  0  0  0  0  0  0
   -2.5010   23.0240  -29.1120 C   0  0  0  0  0  0  0  0  0  0  0  0
   -5.8900   22.8380  -29.5810 C   0  0  0  0  0  0  0  0  0  0  0  0
   -7.4870   20.2120  -32.0330 C   0  0  0  0  0  0  0  0  0  0  0  0
   -6.2600   20.8000  -32.3870 C   0  0  0  0  0  0  0  0  0  0  0  0
   -5.2720   20.0450  -33.0260 C   0  0  0  0  0  0  0  0  0  0  0  0
   -3.7310   20.7790  -33.4280 Cl  0  0  0  0  0  0  0  0  0  0  0  0
   -5.5070   18.7040  -33.3340 C   0  0  0  0  0  0  0  0  0  0  0  0
   -6.7320   18.1160  -33.0120 C   0  0  0  0  0  0  0  0  0  0  0  0
   -7.7290   18.8630  -32.3670 C   0  0  0  0  0  0  0  0  0  0  0  0
   -8.9570   18.2730  -32.0720 O   0  0  0  0  0  0  0  0  0  0  0  0
   -7.8458   23.9131  -32.1692 H   0  0  0  0  0  0  0  0  0  0  0  0
   -5.9673   25.5374  -32.3834 H   0  0  0  0  0  0  0  0  0  0  0  0
   -4.3667   25.3239  -27.5586 H   0  0  0  0  0  0  0  0  0  0  0  0
   -4.4486   23.7124  -26.7603 H   0  0  0  0  0  0  0  0  0  0  0  0
   -2.5231   25.3584  -26.0725 H   0  0  0  0  0  0  0  0  0  0  0  0
   -2.1143   23.6389  -26.3872 H   0  0  0  0  0  0  0  0  0  0  0  0
   -0.8045   24.2626  -29.6242 H   0  0  0  0  0  0  0  0  0  0  0  0
   -0.6027   23.2146  -28.1372 H   0  0  0  0  0  0  0  0  0  0  0  0
   -2.4854   22.8643  -30.2002 H   0  0  0  0  0  0  0  0  0  0  0  0
   -2.4513   22.0625  -28.5800 H   0  0  0  0  0  0  0  0  0  0  0  0
   -5.8477   22.0459  -28.8189 H   0  0  0  0  0  0  0  0  0  0  0  0
   -6.0763   21.8605  -32.1598 H   0  0  0  0  0  0  0  0  0  0  0  0
   -4.7262   18.1096  -33.8310 H   0  0  0  0  0  0  0  0  0  0  0  0
   -6.9162   17.0616  -33.2654 H   0  0  0  0  0  0  0  0  0  0  0  0
   -9.7070   18.7950  -31.6350 H   0  0  0  0  0  0  0  0  0  0  0  0
  1  2  2  0
  2  3  1  0
  3  4  1  0
  4  5  2  0
  5  6  1  0
  6  7  2  0
  7  8  1  0
  7  9  1  0
  9 10  1  0
 10 11  1  0
 11 12  1  0
 12 13  1  0
 13 14  1  0
 14 15  1  0
  9 16  2  0
  2 17  1  0
 17 18  2  0
 18 19  1  0
 19 20  1  0
 19 21  2  0
 21 22  1  0
 22 23  2  0
 23 24  1  0
 16  4  1  0
 23 17  1  0
 15 10  1  0
  5 25  1  0
  6 26  1  0
 11 27  1  0
 11 28  1  0
 12 29  1  0
 12 30  1  0
 14 31  1  0
 14 32  1  0
 15 33  1  0
 15 34  1  0
 16 35  1  0
 18 36  1  0
 21 37  1  0
 22 38  1  0
 24 39  1  0
M  CHG  2   3  -1   8  -1
M  END
>  <UniqueID>  (27) 
26

>  <SMILES>  (27) 
O=C([N-]c1ccc([O-])c(N2CCOCC2)c1)c1cc(Cl)ccc1O

>  <Energy>  (27) 
58.81367085275813

>  <Genealogy>  (27) 
O=C([N-]c1ccc([O-])c(N2CCOCC2)c1)c1cc(Cl)ccc1O (protonated)
O=C([N-]c1ccc([O-])c(N2CCOCC2)c1)c1cc(Cl)ccc1O (3D coordinates assigned)
O=C([N-]c1ccc([O-])c(N2CCOCC2)c1)c1cc(Cl)ccc1O (nonaromatic ring conformer: 58.81367085275813 kcal/mol)

>  <smiles>  (27) 
O=C(Nc1ccc(O)c(N2CCOCC2)c1)c1cc(Cl)ccc1O

>  <score_type>  (27) 
oracle

>  <origin>  (27) 
adgpu

>  <m_score__min__energy>  (27) 
-10.74

>  <m_primary>  (27) 
energy

$$$$
27:0
     RDKit          3D

 56 59  0  0  0  0  0  0  0  0999 V2000
   -3.0745   18.5590  -35.0022 H   0  0  0  0  0  0  0  0  0  0  0  0
   -3.5140   18.8700  -34.0430 C   0  0  0  0  0  0  0  0  0  0  0  0
   -2.7600   19.5390  -33.1620 C   0  0  0  0  0  0  0  0  0  0  0  0
   -3.2068   19.7888  -32.1883 H   0  0  0  0  0  0  0  0  0  0  0  0
   -1.3600   19.9660  -33.4130 C   0  0  0  0  0  0  0  0  0  0  0  0
   -0.3000   19.6720  -32.5280 C   0  0  0  0  0  0  0  0  0  0  0  0
   -0.4984   19.1102  -31.6033 H   0  0  0  0  0  0  0  0  0  0  0  0
    1.0010   20.0920  -32.8220 C   0  0  0  0  0  0  0  0  0  0  0  0
    1.8232   19.8538  -32.1312 H   0  0  0  0  0  0  0  0  0  0  0  0
    1.2600   20.8130  -33.9900 C   0  0  0  0  0  0  0  0  0  0  0  0
    2.2859   21.1364  -34.2202 H   0  0  0  0  0  0  0  0  0  0  0  0
    0.2160   21.1240  -34.8670 C   0  0  0  0  0  0  0  0  0  0  0  0
    0.4203   21.6972  -35.7834 H   0  0  0  0  0  0  0  0  0  0  0  0
   -1.0870   20.7070  -34.5800 C   0  0  0  0  0  0  0  0  0  0  0  0
   -1.9054   20.9592  -35.2704 H   0  0  0  0  0  0  0  0  0  0  0  0
   -4.9170   18.5430  -33.7540 C   0  0  0  0  0  0  0  0  0  0  0  0
   -5.5780   17.5100  -34.3110 N   0  0  0  0  0  0  0  0  0  0  0  0
   -6.8130   17.5590  -33.8340 N   0  0  0  0  0  0  0  0  0  0  0  0
   -6.8550   18.6200  -33.0060 C   0  0  0  0  0  0  0  0  0  0  0  0
   -8.0730   19.0610  -32.2570 C   0  0  0  0  0  0  0  0  0  0  0  0
   -7.9140   18.9001  -31.1805 H   0  0  0  0  0  0  0  0  0  0  0  0
   -8.9362   18.4745  -32.6046 H   0  0  0  0  0  0  0  0  0  0  0  0
   -8.3370   20.4800  -32.4980 N   0  0  0  0  0  0  0  0  0  0  0  0
   -9.1180   20.7450  -33.1440 H   0  0  0  0  0  0  0  0  0  0  0  0
   -7.5870   21.5480  -31.8900 C   0  0  0  0  0  0  0  0  0  0  0  0
   -7.9780   22.1260  -30.6670 C   0  0  0  0  0  0  0  0  0  0  0  0
   -8.8768   21.7589  -30.1499 H   0  0  0  0  0  0  0  0  0  0  0  0
   -7.2270   23.1660  -30.1070 C   0  0  0  0  0  0  0  0  0  0  0  0
   -7.5390   23.6134  -29.1517 H   0  0  0  0  0  0  0  0  0  0  0  0
   -6.0800   23.6400  -30.7570 C   0  0  0  0  0  0  0  0  0  0  0  0
   -5.1490   24.9550  -30.0500 S   0  0  0  0  0  0  0  0  0  0  0  0
   -5.6870   26.2610  -30.5580 O   0  0  0  0  0  0  0  0  0  0  0  0
   -5.2570   24.9360  -28.5510 O   0  0  0  0  0  0  0  0  0  0  0  0
   -3.4800   24.8160  -30.4940 N   0  0  0  0  0  0  0  0  0  0  0  0
   -2.4530   24.2020  -29.6990 C   0  0  0  0  0  0  0  0  0  0  0  0
   -1.8380   24.8920  -28.6330 C   0  0  0  0  0  0  0  0  0  0  0  0
   -2.1351   25.9265  -28.4058 H   0  0  0  0  0  0  0  0  0  0  0  0
   -0.8530   24.2660  -27.8650 C   0  0  0  0  0  0  0  0  0  0  0  0
   -0.3754   24.8141  -27.0395 H   0  0  0  0  0  0  0  0  0  0  0  0
   -0.4690   22.9500  -28.1360 C   0  0  0  0  0  0  0  0  0  0  0  0
    0.6160   22.2960  -27.3320 C   0  0  0  0  0  0  0  0  0  0  0  0
    0.4052   22.4231  -26.2599 H   0  0  0  0  0  0  0  0  0  0  0  0
    0.6555   21.2235  -27.5733 H   0  0  0  0  0  0  0  0  0  0  0  0
    1.5828   22.7620  -27.5733 H   0  0  0  0  0  0  0  0  0  0  0  0
   -1.0660   22.2640  -29.2050 C   0  0  0  0  0  0  0  0  0  0  0  0
   -0.7544   21.2339  -29.4326 H   0  0  0  0  0  0  0  0  0  0  0  0
   -2.0570   22.8790  -29.9870 C   0  0  0  0  0  0  0  0  0  0  0  0
   -2.7100   22.1130  -31.1060 C   0  0  0  0  0  0  0  0  0  0  0  0
   -3.3693   21.3396  -30.6850 H   0  0  0  0  0  0  0  0  0  0  0  0
   -3.3025   22.8024  -31.7254 H   0  0  0  0  0  0  0  0  0  0  0  0
   -1.9355   21.6371  -31.7254 H   0  0  0  0  0  0  0  0  0  0  0  0
   -5.6860   23.0650  -31.9710 C   0  0  0  0  0  0  0  0  0  0  0  0
   -4.7820   23.4276  -32.4822 H   0  0  0  0  0  0  0  0  0  0  0  0
   -6.4390   22.0310  -32.5350 C   0  0  0  0  0  0  0  0  0  0  0  0
   -6.1280   21.5917  -33.4943 H   0  0  0  0  0  0  0  0  0  0  0  0
   -5.6930   19.2230  -32.9440 O   0  0  0  0  0  0  0  0  0  0  0  0
  1  2  1  0
  2  3  2  0
  3  4  1  0
  3  5  1  0
  5  6  2  0
  6  7  1  0
  6  8  1  0
  8  9  1  0
  8 10  2  0
 10 11  1  0
 10 12  1  0
 12 13  1  0
 12 14  2  0
 14 15  1  0
  2 16  1  0
 16 17  2  0
 17 18  1  0
 18 19  2  0
 19 20  1  0
 20 21  1  0
 20 22  1  0
 20 23  1  0
 23 24  1  0
 23 25  1  0
 25 26  2  0
 26 27  1  0
 26 28  1  0
 28 29  1  0
 28 30  2  0
 30 31  1  0
 31 32  2  0
 31 33  2  0
 31 34  1  0
 34 35  1  0
 35 36  2  0
 36 37  1  0
 36 38  1  0
 38 39  1  0
 38 40  2  0
 40 41  1  0
 41 42  1  0
 41 43  1  0
 41 44  1  0
 40 45  1  0
 45 46  1  0
 45 47  2  0
 47 48  1  0
 48 49  1  0
 48 50  1  0
 48 51  1  0
 30 52  1  0
 52 53  1  0
 52 54  2  0
 54 55  1  0
 19 56  1  0
 14  5  1  0
 56 16  1  0
 54 25  1  0
 47 35  1  0
M  CHG  1  34  -1
M  END
>  <UniqueID>  (28) 
27

>  <SMILES>  (28) 
Cc1ccc([N-]S(=O)(=O)c2ccc(NCc3nnc(/C=C/c4ccccc4)o3)cc2)c(C)c1

>  <Energy>  (28) 
97.5142794685451

>  <Genealogy>  (28) 
Cc1ccc([N-]S(=O)(=O)c2ccc(NCc3nnc(C=Cc4ccccc4)o3)cc2)c(C)c1 (protonated)
Cc1ccc([N-]S(=O)(=O)c2ccc(NCc3nnc(/C=C/c4ccccc4)o3)cc2)c(C)c1 (cis-trans isomerization)
Cc1ccc([N-]S(=O)(=O)c2ccc(NCc3nnc(/C=C/c4ccccc4)o3)cc2)c(C)c1 (3D coordinates assigned)
Cc1ccc([N-]S(=O)(=O)c2ccc(NCc3nnc(/C=C/c4ccccc4)o3)cc2)c(C)c1 (optimized conformer: 97.5142794685451 kcal/mol)

>  <smiles>  (28) 
Cc1ccc(NS(=O)(=O)c2ccc(NCc3nnc(C=Cc4ccccc4)o3)cc2)c(C)c1

>  <score_type>  (28) 
oracle

>  <origin>  (28) 
adgpu

>  <m_score__min__energy>  (28) 
-11.130000000000001

>  <m_primary>  (28) 
energy

$$$$
28:0
     RDKit          3D

 50 53  0  0  0  0  0  0  0  0999 V2000
   -4.2430   25.6480  -30.8190 O   0  0  0  0  0  0  0  0  0  0  0  0
   -4.5820   24.5610  -30.2810 C   0  0  0  0  0  0  0  0  0  0  0  0
   -4.1860   24.3110  -28.9230 N   0  0  0  0  0  0  0  0  0  0  0  0
   -3.0280   24.6090  -28.4080 C   0  0  0  0  0  0  0  0  0  0  0  0
   -2.7490   24.2420  -27.0850 C   0  0  0  0  0  0  0  0  0  0  0  0
   -1.5090   24.5660  -26.5300 C   0  0  0  0  0  0  0  0  0  0  0  0
   -0.5680   25.2640  -27.2890 C   0  0  0  0  0  0  0  0  0  0  0  0
   -0.8850   25.6300  -28.5990 C   0  0  0  0  0  0  0  0  0  0  0  0
   -2.0930   25.2970  -29.1260 N   0  0  0  0  0  0  0  0  0  0  0  0
   -5.4220   23.6110  -31.0430 C   0  0  0  0  0  0  0  0  0  0  0  0
   -4.8530   22.5490  -31.7640 C   0  0  0  0  0  0  0  0  0  0  0  0
   -5.6820   21.6610  -32.4680 C   0  0  0  0  0  0  0  0  0  0  0  0
   -5.1570   20.5890  -33.2070 O   0  0  0  0  0  0  0  0  0  0  0  0
   -3.7900   20.3530  -33.4100 C   0  0  0  0  0  0  0  0  0  0  0  0
   -3.3510   19.0420  -33.6260 C   0  0  0  0  0  0  0  0  0  0  0  0
   -1.9930   18.7750  -33.8220 C   0  0  0  0  0  0  0  0  0  0  0  0
   -1.0600   19.8220  -33.8220 C   0  0  0  0  0  0  0  0  0  0  0  0
    0.6550   19.4910  -34.0700 S   0  0  0  0  0  0  0  0  0  0  0  0
    0.8910   18.0090  -33.9700 O   0  0  0  0  0  0  0  0  0  0  0  0
    1.4370   20.1530  -32.9690 O   0  0  0  0  0  0  0  0  0  0  0  0
    1.2380   20.0670  -35.6180 N   0  0  0  0  0  0  0  0  0  0  0  0
    2.5930   20.6510  -35.5400 C   0  0  0  0  0  0  0  0  0  0  0  0
    2.5840   22.1890  -35.5430 C   0  0  0  0  0  0  0  0  0  0  0  0
    1.3980   22.6750  -34.9590 O   0  0  0  0  0  0  0  0  0  0  0  0
    0.3010   22.3990  -35.8060 C   0  0  0  0  0  0  0  0  0  0  0  0
    0.2620   20.9340  -36.3040 C   0  0  0  0  0  0  0  0  0  0  0  0
   -1.4990   21.1380  -33.6260 C   0  0  0  0  0  0  0  0  0  0  0  0
   -2.8570   21.4040  -33.4350 C   0  0  0  0  0  0  0  0  0  0  0  0
   -7.0680   21.8220  -32.3990 C   0  0  0  0  0  0  0  0  0  0  0  0
   -7.6020   22.8770  -31.6560 C   0  0  0  0  0  0  0  0  0  0  0  0
   -6.7780   23.7370  -31.0010 N   0  0  0  0  0  0  0  0  0  0  0  0
   -3.5001   23.7033  -26.4885 H   0  0  0  0  0  0  0  0  0  0  0  0
   -1.2742   24.2716  -25.4964 H   0  0  0  0  0  0  0  0  0  0  0  0
    0.4115   25.5227  -26.8604 H   0  0  0  0  0  0  0  0  0  0  0  0
   -0.1563   26.1884  -29.2050 H   0  0  0  0  0  0  0  0  0  0  0  0
   -3.7615   22.4132  -31.7773 H   0  0  0  0  0  0  0  0  0  0  0  0
   -4.0785   18.2171  -33.6416 H   0  0  0  0  0  0  0  0  0  0  0  0
   -1.6549   17.7398  -33.9768 H   0  0  0  0  0  0  0  0  0  0  0  0
    3.0713   20.3048  -34.6119 H   0  0  0  0  0  0  0  0  0  0  0  0
    3.1453   20.3228  -36.4329 H   0  0  0  0  0  0  0  0  0  0  0  0
    3.4475   22.5575  -34.9698 H   0  0  0  0  0  0  0  0  0  0  0  0
    2.6407   22.5438  -36.5827 H   0  0  0  0  0  0  0  0  0  0  0  0
   -0.6272   22.6039  -35.2523 H   0  0  0  0  0  0  0  0  0  0  0  0
    0.4063   23.0408  -36.6932 H   0  0  0  0  0  0  0  0  0  0  0  0
   -0.7470   20.5315  -36.1310 H   0  0  0  0  0  0  0  0  0  0  0  0
    0.5226   20.9423  -37.3726 H   0  0  0  0  0  0  0  0  0  0  0  0
   -0.7724   21.9639  -33.6225 H   0  0  0  0  0  0  0  0  0  0  0  0
   -3.1980   22.4415  -33.3035 H   0  0  0  0  0  0  0  0  0  0  0  0
   -7.7339   21.1228  -32.9261 H   0  0  0  0  0  0  0  0  0  0  0  0
   -8.6922   23.0124  -31.6007 H   0  0  0  0  0  0  0  0  0  0  0  0
  1  2  2  0
  2  3  1  0
  3  4  2  3
  4  5  1  0
  5  6  2  0
  6  7  1  0
  7  8  2  0
  8  9  1  0
  2 10  1  0
 10 11  2  0
 11 12  1  0
 12 13  1  0
 13 14  1  0
 14 15  2  0
 15 16  1  0
 16 17  2  0
 17 18  1  0
 18 19  2  0
 18 20  2  0
 18 21  1  0
 21 22  1  0
 22 23  1  0
 23 24  1  0
 24 25  1  0
 25 26  1  0
 17 27  1  0
 27 28  2  0
 12 29  2  0
 29 30  1  0
 30 31  2  0
  9  4  1  0
 31 10  1  0
 28 14  1  0
 26 21  1  0
  5 32  1  0
  6 33  1  0
  7 34  1  0
  8 35  1  0
 11 36  1  0
 15 37  1  0
 16 38  1  0
 22 39  1  0
 22 40  1  0
 23 41  1  0
 23 42  1  0
 25 43  1  0
 25 44  1  0
 26 45  1  0
 26 46  1  0
 27 47  1  0
 28 48  1  0
 29 49  1  0
 30 50  1  0
M  CHG  1   9  -1
M  END
>  <UniqueID>  (29) 
28

>  <SMILES>  (29) 
O=C(N=c1cccc[n-]1)c1cc(Oc2ccc(S(=O)(=O)N3CCOCC3)cc2)ccn1

>  <Energy>  (29) 
76.80737813755553

>  <Genealogy>  (29) 
O=C(N=c1cccc[n-]1)c1cc(Oc2ccc(S(=O)(=O)N3CCOCC3)cc2)ccn1 (protonated)
O=C(N=c1cccc[n-]1)c1cc(Oc2ccc(S(=O)(=O)N3CCOCC3)cc2)ccn1 (3D coordinates assigned)
O=C(N=c1cccc[n-]1)c1cc(Oc2ccc(S(=O)(=O)N3CCOCC3)cc2)ccn1 (nonaromatic ring conformer: 76.80737813755553 kcal/mol)

>  <smiles>  (29) 
O=C(N=c1cccc[nH]1)c1cc(Oc2ccc(S(=O)(=O)N3CCOCC3)cc2)ccn1

>  <score_type>  (29) 
oracle

>  <origin>  (29) 
adgpu

>  <m_score__min__energy>  (29) 
-10.31

>  <m_primary>  (29) 
energy

$$$$
29:0
     RDKit          3D

 25 26  0  0  0  0  0  0  0  0999 V2000
   -2.1810   19.9250  -30.7470 O   0  0  0  0  0  0  0  0  0  0  0  0
   -3.0640   20.8170  -30.6160 C   0  0  0  0  0  0  0  0  0  0  0  0
   -4.4320   20.5040  -30.8970 N   0  0  0  0  0  0  0  0  0  0  0  0
   -4.9920   20.5360  -32.2400 C   0  0  0  0  0  0  0  0  0  0  0  0
   -6.4060   20.0610  -32.1970 C   0  0  0  0  0  0  0  0  0  0  0  0
   -7.5360   20.8680  -32.2350 C   0  0  0  0  0  0  0  0  0  0  0  0
   -8.7290   20.1490  -32.0960 C   0  0  0  0  0  0  0  0  0  0  0  0
   -8.5410   18.7830  -31.9340 C   0  0  0  0  0  0  0  0  0  0  0  0
   -6.8890   18.4680  -31.9590 S   0  0  0  0  0  0  0  0  0  0  0  0
   -2.6850   22.1790  -30.1720 C   0  0  0  0  0  0  0  0  0  0  0  0
   -1.5410   22.3810  -29.3770 C   0  0  0  0  0  0  0  0  0  0  0  0
   -1.1880   23.6670  -28.9590 C   0  0  0  0  0  0  0  0  0  0  0  0
   -1.9680   24.7660  -29.3290 C   0  0  0  0  0  0  0  0  0  0  0  0
   -1.6090   26.0420  -28.9090 O   0  0  0  0  0  0  0  0  0  0  0  0
   -3.1070   24.5780  -30.1190 C   0  0  0  0  0  0  0  0  0  0  0  0
   -3.8860   25.6680  -30.4900 O   0  0  0  0  0  0  0  0  0  0  0  0
   -3.4640   23.2920  -30.5400 C   0  0  0  0  0  0  0  0  0  0  0  0
   -4.9620   21.5656  -32.6261 H   0  0  0  0  0  0  0  0  0  0  0  0
   -4.4037   19.8815  -32.8999 H   0  0  0  0  0  0  0  0  0  0  0  0
   -7.4973   21.9600  -32.3614 H   0  0  0  0  0  0  0  0  0  0  0  0
   -9.7220   20.6218  -32.1135 H   0  0  0  0  0  0  0  0  0  0  0  0
   -9.3371   18.0341  -31.8103 H   0  0  0  0  0  0  0  0  0  0  0  0
   -0.9210   21.5213  -29.0829 H   0  0  0  0  0  0  0  0  0  0  0  0
   -0.2931   23.8147  -28.3366 H   0  0  0  0  0  0  0  0  0  0  0  0
   -4.3595   23.1501  -31.1628 H   0  0  0  0  0  0  0  0  0  0  0  0
  1  2  2  0
  2  3  1  0
  3  4  1  0
  4  5  1  0
  5  6  2  0
  6  7  1  0
  7  8  2  0
  8  9  1  0
  2 10  1  0
 10 11  2  0
 11 12  1  0
 12 13  2  0
 13 14  1  0
 13 15  1  0
 15 16  1  0
 15 17  2  0
  9  5  1  0
 17 10  1  0
  4 18  1  0
  4 19  1  0
  6 20  1  0
  7 21  1  0
  8 22  1  0
 11 23  1  0
 12 24  1  0
 17 25  1  0
M  CHG  3   3  -1  14  -1  16  -1
M  END
>  <UniqueID>  (30) 
29

>  <SMILES>  (30) 
O=C([N-]Cc1cccs1)c1ccc([O-])c([O-])c1

>  <Energy>  (30) 
49.12646969434453

>  <Genealogy>  (30) 
O=C([N-]Cc1cccs1)c1ccc([O-])c([O-])c1 (protonated)
O=C([N-]Cc1cccs1)c1ccc([O-])c([O-])c1 (3D coordinates assigned)
O=C([N-]Cc1cccs1)c1ccc([O-])c([O-])c1 (optimized conformer: 49.12646969434453 kcal/mol)

>  <smiles>  (30) 
O=C(NCc1cccs1)c1ccc(O)c(O)c1

>  <score_type>  (30) 
oracle

>  <origin>  (30) 
adgpu

>  <m_score__min__energy>  (30) 
-11.52

>  <m_primary>  (30) 
energy

$$$$
30:0
     RDKit          3D

 34 35  0  0  0  0  0  0  0  0999 V2000
   -6.8650   16.8630  -33.5360 C   0  0  0  0  0  0  0  0  0  0  0  0
   -6.7330   18.2980  -33.0950 C   0  0  0  0  0  0  0  0  0  0  0  0
   -7.8010   18.9130  -32.4240 C   0  0  0  0  0  0  0  0  0  0  0  0
   -7.7250   20.2500  -32.0060 C   0  0  0  0  0  0  0  0  0  0  0  0
   -8.8970   20.8520  -31.2760 C   0  0  0  0  0  0  0  0  0  0  0  0
   -6.5410   20.9850  -32.2470 C   0  0  0  0  0  0  0  0  0  0  0  0
   -6.3650   22.6690  -31.7200 S   0  0  0  0  0  0  0  0  0  0  0  0
   -6.7140   22.7760  -30.2620 O   0  0  0  0  0  0  0  0  0  0  0  0
   -7.2780   23.5370  -32.5390 O   0  0  0  0  0  0  0  0  0  0  0  0
   -4.7270   23.1960  -31.9420 N   0  0  0  0  0  0  0  0  0  0  0  0
   -3.7800   23.4230  -30.8870 C   0  0  0  0  0  0  0  0  0  0  0  0
   -3.0040   22.3860  -30.3440 C   0  0  0  0  0  0  0  0  0  0  0  0
   -2.0960   22.6560  -29.3190 C   0  0  0  0  0  0  0  0  0  0  0  0
   -1.9680   23.9610  -28.8430 C   0  0  0  0  0  0  0  0  0  0  0  0
   -2.7260   24.9560  -29.3780 N   0  0  0  0  0  0  0  0  0  0  0  0
   -3.6180   24.7210  -30.3760 C   0  0  0  0  0  0  0  0  0  0  0  0
   -4.2960   25.6760  -30.8390 O   0  0  0  0  0  0  0  0  0  0  0  0
   -5.4790   20.3740  -32.9300 C   0  0  0  0  0  0  0  0  0  0  0  0
   -5.5650   19.0430  -33.3660 C   0  0  0  0  0  0  0  0  0  0  0  0
   -4.3940   18.4260  -34.0890 C   0  0  0  0  0  0  0  0  0  0  0  0
   -6.9249   16.2117  -32.6516 H   0  0  0  0  0  0  0  0  0  0  0  0
   -7.7776   16.7472  -34.1391 H   0  0  0  0  0  0  0  0  0  0  0  0
   -5.9888   16.5827  -34.1391 H   0  0  0  0  0  0  0  0  0  0  0  0
   -8.7153   18.3357  -32.2219 H   0  0  0  0  0  0  0  0  0  0  0  0
   -8.7352   20.7689  -30.1911 H   0  0  0  0  0  0  0  0  0  0  0  0
   -8.9955   21.9123  -31.5519 H   0  0  0  0  0  0  0  0  0  0  0  0
   -9.8162   20.3144  -31.5519 H   0  0  0  0  0  0  0  0  0  0  0  0
   -3.1119   21.3604  -30.7268 H   0  0  0  0  0  0  0  0  0  0  0  0
   -1.4866   21.8468  -28.8902 H   0  0  0  0  0  0  0  0  0  0  0  0
   -1.2550   24.1853  -28.0360 H   0  0  0  0  0  0  0  0  0  0  0  0
   -4.5621   20.9487  -33.1274 H   0  0  0  0  0  0  0  0  0  0  0  0
   -3.6695   18.0442  -33.3546 H   0  0  0  0  0  0  0  0  0  0  0  0
   -4.7479   17.5973  -34.7199 H   0  0  0  0  0  0  0  0  0  0  0  0
   -3.9106   19.1865  -34.7199 H   0  0  0  0  0  0  0  0  0  0  0  0
  1  2  1  0
  2  3  2  0
  3  4  1  0
  4  5  1  0
  4  6  2  0
  6  7  1  0
  7  8  2  0
  7  9  2  0
  7 10  1  0
 10 11  1  0
 11 12  2  0
 12 13  1  0
 13 14  2  0
 14 15  1  0
 15 16  1  0
 16 17  2  0
  6 18  1  0
 18 19  2  0
 19 20  1  0
 19  2  1  0
 16 11  1  0
  1 21  1  0
  1 22  1  0
  1 23  1  0
  3 24  1  0
  5 25  1  0
  5 26  1  0
  5 27  1  0
 12 28  1  0
 13 29  1  0
 14 30  1  0
 18 31  1  0
 20 32  1  0
 20 33  1  0
 20 34  1  0
M  CHG  2  10  -1  15  -1
M  END
>  <UniqueID>  (31) 
30

>  <SMILES>  (31) 
Cc1cc(C)c(S(=O)(=O)[N-]c2ccc[n-]c2=O)cc1C

>  <Energy>  (31) 
41.48025503993956

>  <Genealogy>  (31) 
Cc1cc(C)c(S(=O)(=O)[N-]c2ccc[n-]c2=O)cc1C (protonated)
Cc1cc(C)c(S(=O)(=O)[N-]c2ccc[n-]c2=O)cc1C (3D coordinates assigned)
Cc1cc(C)c(S(=O)(=O)[N-]c2ccc[n-]c2=O)cc1C (optimized conformer: 41.48025503993956 kcal/mol)

>  <smiles>  (31) 
Cc1cc(C)c(S(=O)(=O)Nc2ccc[nH]c2=O)cc1C

>  <score_type>  (31) 
oracle

>  <origin>  (31) 
adgpu

>  <m_score__min__energy>  (31) 
-10.619999999999999

>  <m_primary>  (31) 
energy

$$$$
31:0
     RDKit          3D

 24 24  0  0  0  0  0  0  0  0999 V2000
   -3.9330   24.5160  -27.0610 C   0  0  0  0  0  0  0  0  0  0  0  0
   -4.0880   23.9300  -28.4610 C   0  0  0  0  0  0  0  0  0  0  0  0
   -3.1180   24.5880  -29.4470 C   0  0  0  0  0  0  0  0  0  0  0  0
   -3.8530   25.2880  -30.4950 N   0  0  0  0  0  0  0  0  0  0  0  0
   -5.2800   25.4090  -30.5190 C   0  0  0  0  0  0  0  0  0  0  0  0
   -5.8420   26.4170  -30.0130 O   0  0  0  0  0  0  0  0  0  0  0  0
   -6.0860   24.3540  -31.1410 C   0  0  0  0  0  0  0  0  0  0  0  0
   -5.8300   23.7360  -32.3480 C   0  0  0  0  0  0  0  0  0  0  0  0
   -6.7910   22.8260  -32.5590 N   0  0  0  0  0  0  0  0  0  0  0  0
   -7.6080   22.9160  -31.4920 C   0  0  0  0  0  0  0  0  0  0  0  0
   -8.7940   22.0340  -31.2840 C   0  0  0  0  0  0  0  0  0  0  0  0
   -7.2040   23.8370  -30.5900 N   0  0  0  0  0  0  0  0  0  0  0  0
   -4.1391   23.7368  -26.3125 H   0  0  0  0  0  0  0  0  0  0  0  0
   -2.9058   24.8872  -26.9305 H   0  0  0  0  0  0  0  0  0  0  0  0
   -4.6423   25.3465  -26.9305 H   0  0  0  0  0  0  0  0  0  0  0  0
   -3.8831   22.8499  -28.4227 H   0  0  0  0  0  0  0  0  0  0  0  0
   -5.1157   24.1176  -28.8055 H   0  0  0  0  0  0  0  0  0  0  0  0
   -2.4846   25.3070  -28.9067 H   0  0  0  0  0  0  0  0  0  0  0  0
   -2.4956   23.8075  -29.9089 H   0  0  0  0  0  0  0  0  0  0  0  0
   -4.9856   23.9523  -33.0190 H   0  0  0  0  0  0  0  0  0  0  0  0
   -6.8790   22.1800  -33.3750 H   0  0  0  0  0  0  0  0  0  0  0  0
   -8.9694   21.9036  -30.2059 H   0  0  0  0  0  0  0  0  0  0  0  0
   -9.6793   22.4949  -31.7464 H   0  0  0  0  0  0  0  0  0  0  0  0
   -8.6074   21.0535  -31.7464 H   0  0  0  0  0  0  0  0  0  0  0  0
  1  2  1  0
  2  3  1  0
  3  4  1  0
  4  5  1  0
  5  6  2  0
  5  7  1  0
  7  8  2  0
  8  9  1  0
  9 10  1  0
 10 11  1  0
 10 12  2  0
 12  7  1  0
  1 13  1  0
  1 14  1  0
  1 15  1  0
  2 16  1  0
  2 17  1  0
  3 18  1  0
  3 19  1  0
  8 20  1  0
  9 21  1  0
 11 22  1  0
 11 23  1  0
 11 24  1  0
M  CHG  1   4  -1
M  END
>  <UniqueID>  (32) 
31

>  <SMILES>  (32) 
CCC[N-]C(=O)c1c[nH]c(C)n1

>  <Energy>  (32) 
41.01481961365727

>  <Genealogy>  (32) 
CCC[N-]C(=O)c1c[nH]c(C)n1 (protonated)
CCC[N-]C(=O)c1c[nH]c(C)n1 (3D coordinates assigned)
CCC[N-]C(=O)c1c[nH]c(C)n1 (optimized conformer: 41.01481961365727 kcal/mol)

>  <smiles>  (32) 
CCCNC(=O)c1c[nH]c(C)n1

>  <score_type>  (32) 
oracle

>  <origin>  (32) 
adgpu

>  <m_score__min__energy>  (32) 
-6.3799999999999999

>  <m_primary>  (32) 
energy

$$$$
32:0
     RDKit          3D

 72 75  0  0  0  0  0  0  0  0999 V2000
    1.3060   17.9030  -29.8000 C   0  0  0  0  0  0  0  0  0  0  0  0
    0.2460   17.0800  -30.5310 C   0  0  0  0  0  0  0  0  0  0  0  0
    0.3590   17.2250  -32.0570 C   0  0  0  0  0  0  0  0  0  0  0  0
   -0.0660   18.5630  -32.4990 N   0  0  0  0  0  0  0  0  0  0  0  0
    0.8750   19.4170  -33.2390 C   0  0  0  0  0  0  0  0  0  0  0  0
    0.2310   20.0480  -34.4830 C   0  0  0  0  0  0  0  0  0  0  0  0
   -0.3860   21.4150  -34.1940 C   0  0  0  0  0  0  0  0  0  0  0  0
   -1.2440   19.1460  -31.9100 C   0  0  0  0  0  0  0  0  0  0  0  0
   -1.1650   19.7060  -30.6660 N   0  0  0  0  0  0  0  0  0  0  0  0
   -2.2350   20.3200  -30.0750 C   0  0  0  0  0  0  0  0  0  0  0  0
   -2.1220   20.8320  -28.6770 C   0  0  0  0  0  0  0  0  0  0  0  0
   -1.9030   22.3180  -28.7070 C   0  0  0  0  0  0  0  0  0  0  0  0
   -0.6430   22.8550  -28.3940 C   0  0  0  0  0  0  0  0  0  0  0  0
   -0.4220   24.2330  -28.4830 C   0  0  0  0  0  0  0  0  0  0  0  0
   -1.4530   25.0830  -28.8930 C   0  0  0  0  0  0  0  0  0  0  0  0
   -1.2380   26.4180  -28.9810 F   0  0  0  0  0  0  0  0  0  0  0  0
   -2.7070   24.5550  -29.2190 C   0  0  0  0  0  0  0  0  0  0  0  0
   -2.9310   23.1770  -29.1330 C   0  0  0  0  0  0  0  0  0  0  0  0
   -3.4350   20.3750  -30.7200 N   0  0  0  0  0  0  0  0  0  0  0  0
   -3.5380   19.8210  -31.9500 C   0  0  0  0  0  0  0  0  0  0  0  0
   -2.4900   19.1850  -32.5590 C   0  0  0  0  0  0  0  0  0  0  0  0
   -3.0040   18.6170  -33.7240 C   0  0  0  0  0  0  0  0  0  0  0  0
   -2.3220   17.7000  -34.6920 C   0  0  0  0  0  0  0  0  0  0  0  0
   -4.3500   18.9990  -33.7710 C   0  0  0  0  0  0  0  0  0  0  0  0
   -5.3450   18.5450  -34.7980 C   0  0  0  0  0  0  0  0  0  0  0  0
   -4.6680   19.7240  -32.6700 N   0  0  0  0  0  0  0  0  0  0  0  0
   -5.9660   20.1900  -32.2740 C   0  0  0  0  0  0  0  0  0  0  0  0
   -6.9880   19.2660  -31.9720 C   0  0  0  0  0  0  0  0  0  0  0  0
   -6.7360   17.7850  -32.0650 C   0  0  0  0  0  0  0  0  0  0  0  0
   -8.2510   19.7340  -31.5760 C   0  0  0  0  0  0  0  0  0  0  0  0
   -8.5020   21.1080  -31.4730 C   0  0  0  0  0  0  0  0  0  0  0  0
   -9.8670   21.6010  -31.0920 C   0  0  0  0  0  0  0  0  0  0  0  0
   -7.4900   22.0230  -31.7910 C   0  0  0  0  0  0  0  0  0  0  0  0
   -6.2170   21.5750  -32.1770 C   0  0  0  0  0  0  0  0  0  0  0  0
   -5.1380   22.5730  -32.4980 C   0  0  0  0  0  0  0  0  0  0  0  0
    1.1685   17.7962  -28.7139 H   0  0  0  0  0  0  0  0  0  0  0  0
    2.3071   17.5432  -30.0800 H   0  0  0  0  0  0  0  0  0  0  0  0
    1.2055   18.9620  -30.0800 H   0  0  0  0  0  0  0  0  0  0  0  0
    0.3722   16.0203  -30.2642 H   0  0  0  0  0  0  0  0  0  0  0  0
   -0.7436   17.4508  -30.2258 H   0  0  0  0  0  0  0  0  0  0  0  0
    1.4053   17.0643  -32.3559 H   0  0  0  0  0  0  0  0  0  0  0  0
   -0.2984   16.4786  -32.5267 H   0  0  0  0  0  0  0  0  0  0  0  0
    1.2223   20.2210  -32.5735 H   0  0  0  0  0  0  0  0  0  0  0  0
    1.7112   18.7861  -33.5748 H   0  0  0  0  0  0  0  0  0  0  0  0
    1.0027   20.1662  -35.2579 H   0  0  0  0  0  0  0  0  0  0  0  0
   -0.5776   19.3804  -34.8152 H   0  0  0  0  0  0  0  0  0  0  0  0
   -0.4534   21.5643  -33.1063 H   0  0  0  0  0  0  0  0  0  0  0  0
    0.2441   22.2021  -34.6338 H   0  0  0  0  0  0  0  0  0  0  0  0
   -1.3931   21.4631  -34.6338 H   0  0  0  0  0  0  0  0  0  0  0  0
   -3.0487   20.6084  -28.1281 H   0  0  0  0  0  0  0  0  0  0  0  0
   -1.2732   20.3452  -28.1745 H   0  0  0  0  0  0  0  0  0  0  0  0
    0.1731   22.1887  -28.0776 H   0  0  0  0  0  0  0  0  0  0  0  0
    0.5646   24.6485  -28.2300 H   0  0  0  0  0  0  0  0  0  0  0  0
   -3.5175   25.2242  -29.5433 H   0  0  0  0  0  0  0  0  0  0  0  0
   -3.9150   22.7640  -29.3997 H   0  0  0  0  0  0  0  0  0  0  0  0
   -1.7550   16.9376  -34.1376 H   0  0  0  0  0  0  0  0  0  0  0  0
   -3.0757   17.2084  -35.3247 H   0  0  0  0  0  0  0  0  0  0  0  0
   -1.6344   18.2804  -35.3247 H   0  0  0  0  0  0  0  0  0  0  0  0
   -6.2340   18.1393  -34.2930 H   0  0  0  0  0  0  0  0  0  0  0  0
   -5.6381   19.3985  -35.4270 H   0  0  0  0  0  0  0  0  0  0  0  0
   -4.8924   17.7643  -35.4270 H   0  0  0  0  0  0  0  0  0  0  0  0
   -6.6639   17.3611  -31.0525 H   0  0  0  0  0  0  0  0  0  0  0  0
   -7.5654   17.3051  -32.6052 H   0  0  0  0  0  0  0  0  0  0  0  0
   -5.7946   17.6065  -32.6052 H   0  0  0  0  0  0  0  0  0  0  0  0
   -9.0507   19.0150  -31.3445 H   0  0  0  0  0  0  0  0  0  0  0  0
   -9.9529   21.6320  -29.9958 H   0  0  0  0  0  0  0  0  0  0  0  0
  -10.0193   22.6109  -31.5004 H   0  0  0  0  0  0  0  0  0  0  0  0
  -10.6295   20.9215  -31.5004 H   0  0  0  0  0  0  0  0  0  0  0  0
   -7.6949   23.1024  -31.7377 H   0  0  0  0  0  0  0  0  0  0  0  0
   -4.7126   22.9665  -31.5630 H   0  0  0  0  0  0  0  0  0  0  0  0
   -4.3464   22.0818  -33.0828 H   0  0  0  0  0  0  0  0  0  0  0  0
   -5.5661   23.4005  -33.0828 H   0  0  0  0  0  0  0  0  0  0  0  0
  1  2  1  0
  2  3  1  0
  3  4  1  0
  4  5  1  0
  5  6  1  0
  6  7  1  0
  4  8  1  0
  8  9  2  0
  9 10  1  0
 10 11  1  0
 11 12  1  0
 12 13  2  0
 13 14  1  0
 14 15  2  0
 15 16  1  0
 15 17  1  0
 17 18  2  0
 10 19  2  0
 19 20  1  0
 20 21  2  0
 21 22  1  0
 22 23  1  0
 22 24  2  0
 24 25  1  0
 24 26  1  0
 26 27  1  0
 27 28  2  0
 28 29  1  0
 28 30  1  0
 30 31  2  0
 31 32  1  0
 31 33  1  0
 33 34  2  0
 34 35  1  0
 21  8  1  0
 34 27  1  0
 18 12  1  0
 26 20  1  0
  1 36  1  0
  1 37  1  0
  1 38  1  0
  2 39  1  0
  2 40  1  0
  3 41  1  0
  3 42  1  0
  5 43  1  0
  5 44  1  0
  6 45  1  0
  6 46  1  0
  7 47  1  0
  7 48  1  0
  7 49  1  0
 11 50  1  0
 11 51  1  0
 13 52  1  0
 14 53  1  0
 17 54  1  0
 18 55  1  0
 23 56  1  0
 23 57  1  0
 23 58  1  0
 25 59  1  0
 25 60  1  0
 25 61  1  0
 29 62  1  0
 29 63  1  0
 29 64  1  0
 30 65  1  0
 32 66  1  0
 32 67  1  0
 32 68  1  0
 33 69  1  0
 35 70  1  0
 35 71  1  0
 35 72  1  0
M  END
>  <UniqueID>  (33) 
32

>  <SMILES>  (33) 
CCCN(CCC)c1nc(Cc2ccc(F)cc2)nc2c1c(C)c(C)n2-c1c(C)cc(C)cc1C

>  <Energy>  (33) 
107.6969789384561

>  <Genealogy>  (33) 
CCCN(CCC)c1nc(Cc2ccc(F)cc2)nc2c1c(C)c(C)n2-c1c(C)cc(C)cc1C (3D coordinates assigned)
CCCN(CCC)c1nc(Cc2ccc(F)cc2)nc2c1c(C)c(C)n2-c1c(C)cc(C)cc1C (optimized conformer: 107.6969789384561 kcal/mol)

>  <smiles>  (33) 
CCCN(CCC)c1nc(Cc2ccc(F)cc2)nc2c1c(C)c(C)n2-c1c(C)cc(C)cc1C

>  <score_type>  (33) 
oracle

>  <origin>  (33) 
adgpu

>  <m_score__min__energy>  (33) 
-8.5999999999999996

>  <m_primary>  (33) 
energy

$$$$
33:0
     RDKit          3D

 64 68  0  0  0  0  0  0  0  0999 V2000
   -8.2190   18.6460  -31.8730 C   0  0  0  0  0  0  0  0  0  0  0  0
   -6.8510   17.9910  -32.1040 C   0  0  1  0  0  0  0  0  0  0  0  0
   -6.8420   17.0740  -33.3440 C   0  0  0  0  0  0  0  0  0  0  0  0
   -5.4230   17.1350  -33.7280 C   0  0  0  0  0  0  0  0  0  0  0  0
   -4.7370   16.2930  -34.6040 C   0  0  0  0  0  0  0  0  0  0  0  0
   -3.3590   16.4860  -34.7720 C   0  0  0  0  0  0  0  0  0  0  0  0
   -2.6990   17.5040  -34.0640 C   0  0  0  0  0  0  0  0  0  0  0  0
   -3.4130   18.3480  -33.1980 C   0  0  0  0  0  0  0  0  0  0  0  0
   -4.7920   18.1490  -33.0500 C   0  0  0  0  0  0  0  0  0  0  0  0
   -5.6670   18.9040  -32.2010 N   0  0  1  0  0  0  0  0  0  0  0  0
   -5.9630   20.4610  -32.9580 S   0  0  0  0  0  0  0  0  0  0  0  0
   -4.7800   20.8720  -33.7900 O   0  0  0  0  0  0  0  0  0  0  0  0
   -7.1730   20.4090  -33.8480 O   0  0  0  0  0  0  0  0  0  0  0  0
   -6.2950   21.6980  -31.7400 C   0  0  0  0  0  0  0  0  0  0  0  0
   -7.4450   21.5860  -30.9450 C   0  0  0  0  0  0  0  0  0  0  0  0
   -7.8070   22.6190  -30.0790 C   0  0  0  0  0  0  0  0  0  0  0  0
   -7.0190   23.7680  -29.9940 C   0  0  0  0  0  0  0  0  0  0  0  0
   -5.8340   23.8670  -30.7360 C   0  0  0  0  0  0  0  0  0  0  0  0
   -4.9940   25.0680  -30.6090 C   0  0  0  0  0  0  0  0  0  0  0  0
   -5.5500   26.1950  -30.5150 O   0  0  0  0  0  0  0  0  0  0  0  0
   -3.5610   25.0000  -30.6140 N   0  0  0  0  0  0  0  0  0  0  0  0
   -2.7220   24.2470  -29.7240 C   0  0  0  0  0  0  0  0  0  0  0  0
   -2.7130   22.8500  -29.8330 C   0  0  0  0  0  0  0  0  0  0  0  0
   -1.8640   22.0810  -29.0310 C   0  0  0  0  0  0  0  0  0  0  0  0
   -1.0190   22.7030  -28.1090 C   0  0  0  0  0  0  0  0  0  0  0  0
   -0.9980   24.0990  -28.0060 C   0  0  0  0  0  0  0  0  0  0  0  0
    0.0930   24.9120  -26.8870 S   0  0  0  0  0  0  0  0  0  0  0  0
    0.4540   23.9960  -25.7480 O   0  0  0  0  0  0  0  0  0  0  0  0
    1.3470   25.2840  -27.6290 O   0  0  0  0  0  0  0  0  0  0  0  0
   -0.6830   26.3510  -26.2650 N   0  0  0  0  0  0  0  0  0  0  0  0
   -1.4440   26.0560  -25.0310 C   0  0  0  0  0  0  0  0  0  0  0  0
   -0.6970   26.5150  -23.7660 C   0  0  0  0  0  0  0  0  0  0  0  0
   -0.4050   27.9070  -23.7570 O   0  0  0  0  0  0  0  0  0  0  0  0
   -0.1810   28.4540  -25.0520 C   0  0  0  0  0  0  0  0  0  0  0  0
    0.3130   27.4250  -26.0830 C   0  0  0  0  0  0  0  0  0  0  0  0
   -1.8350   24.8670  -28.8240 C   0  0  0  0  0  0  0  0  0  0  0  0
   -5.4760   22.8320  -31.6170 C   0  0  0  0  0  0  0  0  0  0  0  0
   -8.4051   18.7351  -30.7925 H   0  0  0  0  0  0  0  0  0  0  0  0
   -8.2285   19.6463  -32.3304 H   0  0  0  0  0  0  0  0  0  0  0  0
   -9.0042   18.0262  -32.3304 H   0  0  0  0  0  0  0  0  0  0  0  0
   -6.7271   17.4184  -31.1730 H   0  0  0  0  0  0  0  0  0  0  0  0
   -7.1481   16.0484  -33.0902 H   0  0  0  0  0  0  0  0  0  0  0  0
   -7.5401   17.3781  -34.1379 H   0  0  0  0  0  0  0  0  0  0  0  0
   -5.2649   15.4970  -35.1495 H   0  0  0  0  0  0  0  0  0  0  0  0
   -2.7936   15.8394  -35.4592 H   0  0  0  0  0  0  0  0  0  0  0  0
   -1.6147   17.6411  -34.1889 H   0  0  0  0  0  0  0  0  0  0  0  0
   -2.8997   19.1496  -32.6467 H   0  0  0  0  0  0  0  0  0  0  0  0
   -5.2310   19.0430  -31.2590 H   0  0  0  0  0  0  0  0  0  0  0  0
   -8.0649   20.6793  -31.0043 H   0  0  0  0  0  0  0  0  0  0  0  0
   -8.7138   22.5276  -29.4631 H   0  0  0  0  0  0  0  0  0  0  0  0
   -7.3290   24.5984  -29.3426 H   0  0  0  0  0  0  0  0  0  0  0  0
   -3.3788   22.3545  -30.5549 H   0  0  0  0  0  0  0  0  0  0  0  0
   -1.8616   20.9851  -29.1263 H   0  0  0  0  0  0  0  0  0  0  0  0
   -0.3689   22.0949  -27.4627 H   0  0  0  0  0  0  0  0  0  0  0  0
   -2.4125   26.5753  -25.0790 H   0  0  0  0  0  0  0  0  0  0  0  0
   -1.5780   24.9660  -24.9683 H   0  0  0  0  0  0  0  0  0  0  0  0
   -1.3203   26.2837  -22.8896 H   0  0  0  0  0  0  0  0  0  0  0  0
    0.2645   25.9811  -23.7446 H   0  0  0  0  0  0  0  0  0  0  0  0
   -1.1264   28.8830  -25.4156 H   0  0  0  0  0  0  0  0  0  0  0  0
    0.6116   29.2097  -24.9481 H   0  0  0  0  0  0  0  0  0  0  0  0
    0.4800   27.9299  -27.0459 H   0  0  0  0  0  0  0  0  0  0  0  0
    1.2507   26.9803  -25.7182 H   0  0  0  0  0  0  0  0  0  0  0  0
   -1.7992   25.9647  -28.7629 H   0  0  0  0  0  0  0  0  0  0  0  0
   -4.5533   22.9104  -32.2107 H   0  0  0  0  0  0  0  0  0  0  0  0
  1  2  1  0
  2  3  1  0
  3  4  1  0
  4  5  2  0
  5  6  1  0
  6  7  2  0
  7  8  1  0
  8  9  2  0
  9 10  1  0
 10 11  1  0
 11 12  2  0
 11 13  2  0
 11 14  1  0
 14 15  2  0
 15 16  1  0
 16 17  2  0
 17 18  1  0
 18 19  1  0
 19 20  2  0
 19 21  1  0
 21 22  1  0
 22 23  2  0
 23 24  1  0
 24 25  2  0
 25 26  1  0
 26 27  1  0
 27 28  2  0
 27 29  2  0
 27 30  1  0
 30 31  1  0
 31 32  1  0
 32 33  1  0
 33 34  1  0
 34 35  1  0
 26 36  2  0
 18 37  2  0
 10  2  1  0
 37 14  1  0
  9  4  1  0
 36 22  1  0
 35 30  1  0
  1 38  1  0
  1 39  1  0
  1 40  1  0
  2 41  1  1
  3 42  1  0
  3 43  1  0
  5 44  1  0
  6 45  1  0
  7 46  1  0
  8 47  1  0
 10 48  1  1
 15 49  1  0
 16 50  1  0
 17 51  1  0
 23 52  1  0
 24 53  1  0
 25 54  1  0
 31 55  1  0
 31 56  1  0
 32 57  1  0
 32 58  1  0
 34 59  1  0
 34 60  1  0
 35 61  1  0
 35 62  1  0
 36 63  1  0
 37 64  1  0
M  CHG  2  10   1  21  -1
M  END
>  <UniqueID>  (34) 
33

>  <SMILES>  (34) 
C[C@H]1Cc2ccccc2[N@H+]1S(=O)(=O)c1cccc(C(=O)[N-]c2cccc(S(=O)(=O)N3CCOCC3)c2)c1

>  <Energy>  (34) 
101.8316040867163

>  <Genealogy>  (34) 
CC1Cc2ccccc2[NH+]1S(=O)(=O)c1cccc(C(=O)[N-]c2cccc(S(=O)(=O)N3CCOCC3)c2)c1 (protonated)
C[C@H]1Cc2ccccc2[N@H+]1S(=O)(=O)c1cccc(C(=O)[N-]c2cccc(S(=O)(=O)N3CCOCC3)c2)c1 (chirality)
C[C@H]1Cc2ccccc2[N@H+]1S(=O)(=O)c1cccc(C(=O)[N-]c2cccc(S(=O)(=O)N3CCOCC3)c2)c1 (3D coordinates assigned)
C[C@H]1Cc2ccccc2[N@H+]1S(=O)(=O)c1cccc(C(=O)[N-]c2cccc(S(=O)(=O)N3CCOCC3)c2)c1 (nonaromatic ring conformer: 101.8316040867163 kcal/mol)

>  <smiles>  (34) 
CC1Cc2ccccc2N1S(=O)(=O)c1cccc(C(=O)Nc2cccc(S(=O)(=O)N3CCOCC3)c2)c1

>  <score_type>  (34) 
oracle

>  <origin>  (34) 
adgpu

>  <m_score__min__energy>  (34) 
-13.300000000000001

>  <m_primary>  (34) 
energy

$$$$
34:0
     RDKit          3D

 45 48  0  0  0  0  0  0  0  0999 V2000
   -1.1930   29.7630  -36.8340 F   0  0  0  0  0  0  0  0  0  0  0  0
   -0.7540   28.4880  -36.6970 C   0  0  0  0  0  0  0  0  0  0  0  0
   -0.9310   27.5710  -37.7360 C   0  0  0  0  0  0  0  0  0  0  0  0
   -0.4800   26.2550  -37.5960 C   0  0  0  0  0  0  0  0  0  0  0  0
    0.1550   25.8450  -36.4120 C   0  0  0  0  0  0  0  0  0  0  0  0
    0.6320   24.4560  -36.2690 C   0  0  0  0  0  0  0  0  0  0  0  0
    1.7860   23.9880  -36.7840 N   0  0  0  0  0  0  0  0  0  0  0  0
    1.8540   22.7080  -36.4480 N   0  0  0  0  0  0  0  0  0  0  0  0
    0.7390   22.4470  -35.7390 C   0  0  0  0  0  0  0  0  0  0  0  0
    0.3970   21.0980  -35.1670 C   0  0  0  0  0  0  0  0  0  0  0  0
   -0.8700   21.0820  -34.3960 N   0  0  0  0  0  0  0  0  0  0  0  0
   -0.6590   21.3880  -32.9630 C   0  0  0  0  0  0  0  0  0  0  0  0
   -2.0070   21.6760  -32.2830 C   0  0  0  0  0  0  0  0  0  0  0  0
   -3.0570   20.7990  -32.8210 N   0  0  0  0  0  0  0  0  0  0  0  0
   -4.4460   21.1410  -32.6440 C   0  0  0  0  0  0  0  0  0  0  0  0
   -5.4540   20.2230  -32.9890 C   0  0  0  0  0  0  0  0  0  0  0  0
   -6.8010   20.5610  -32.8300 C   0  0  0  0  0  0  0  0  0  0  0  0
   -7.1560   21.8170  -32.3310 C   0  0  0  0  0  0  0  0  0  0  0  0
   -6.1620   22.7390  -31.9940 C   0  0  0  0  0  0  0  0  0  0  0  0
   -4.8130   22.4070  -32.1530 C   0  0  0  0  0  0  0  0  0  0  0  0
   -2.6640   19.5490  -33.4810 C   0  0  0  0  0  0  0  0  0  0  0  0
   -1.6270   19.8160  -34.5940 C   0  0  0  0  0  0  0  0  0  0  0  0
   -0.0150   23.5130  -35.6260 O   0  0  0  0  0  0  0  0  0  0  0  0
    0.3300   26.7740  -35.3700 C   0  0  0  0  0  0  0  0  0  0  0  0
   -0.1230   28.0900  -35.5150 C   0  0  0  0  0  0  0  0  0  0  0  0
   -1.4264   27.8851  -38.6665 H   0  0  0  0  0  0  0  0  0  0  0  0
   -0.6231   25.5371  -38.4171 H   0  0  0  0  0  0  0  0  0  0  0  0
    0.3079   20.3813  -35.9967 H   0  0  0  0  0  0  0  0  0  0  0  0
    1.2029   20.8314  -34.4674 H   0  0  0  0  0  0  0  0  0  0  0  0
   -1.4540   21.8540  -34.7960 H   0  0  0  0  0  0  0  0  0  0  0  0
   -0.1805   20.5271  -32.4733 H   0  0  0  0  0  0  0  0  0  0  0  0
   -0.0132   22.2740  -32.8742 H   0  0  0  0  0  0  0  0  0  0  0  0
   -1.9103   21.5022  -31.2011 H   0  0  0  0  0  0  0  0  0  0  0  0
   -2.2854   22.7223  -32.4775 H   0  0  0  0  0  0  0  0  0  0  0  0
   -5.1811   19.2341  -33.3859 H   0  0  0  0  0  0  0  0  0  0  0  0
   -7.5837   19.8362  -33.0984 H   0  0  0  0  0  0  0  0  0  0  0  0
   -8.2166   22.0794  -32.2037 H   0  0  0  0  0  0  0  0  0  0  0  0
   -6.4412   23.7284  -31.6027 H   0  0  0  0  0  0  0  0  0  0  0  0
   -4.0348   23.1396  -31.8928 H   0  0  0  0  0  0  0  0  0  0  0  0
   -2.2249   18.8704  -32.7349 H   0  0  0  0  0  0  0  0  0  0  0  0
   -3.5574   19.0950  -33.9345 H   0  0  0  0  0  0  0  0  0  0  0  0
   -0.9121   18.9802  -34.6140 H   0  0  0  0  0  0  0  0  0  0  0  0
   -2.1791   19.9090  -35.5409 H   0  0  0  0  0  0  0  0  0  0  0  0
    0.8249   26.4646  -34.4376 H   0  0  0  0  0  0  0  0  0  0  0  0
    0.0177   28.8124  -34.6975 H   0  0  0  0  0  0  0  0  0  0  0  0
  1  2  1  0
  2  3  2  0
  3  4  1  0
  4  5  2  0
  5  6  1  0
  6  7  2  0
  7  8  1  0
  8  9  2  0
  9 10  1  0
 10 11  1  0
 11 12  1  0
 12 13  1  0
 13 14  1  0
 14 15  1  0
 15 16  2  0
 16 17  1  0
 17 18  2  0
 18 19  1  0
 19 20  2  0
 14 21  1  0
 21 22  1  0
  9 23  1  0
  5 24  1  0
 24 25  2  0
 25  2  1  0
 23  6  1  0
 22 11  1  0
 20 15  1  0
  3 26  1  0
  4 27  1  0
 10 28  1  0
 10 29  1  0
 11 30  1  0
 12 31  1  0
 12 32  1  0
 13 33  1  0
 13 34  1  0
 16 35  1  0
 17 36  1  0
 18 37  1  0
 19 38  1  0
 20 39  1  0
 21 40  1  0
 21 41  1  0
 22 42  1  0
 22 43  1  0
 24 44  1  0
 25 45  1  0
M  CHG  1  11   1
M  END
>  <UniqueID>  (35) 
34

>  <SMILES>  (35) 
Fc1ccc(-c2nnc(C[NH+]3CCN(c4ccccc4)CC3)o2)cc1

>  <Energy>  (35) 
95.19799419084381

>  <Genealogy>  (35) 
Fc1ccc(-c2nnc(C[NH+]3CCN(c4ccccc4)CC3)o2)cc1 (protonated)
Fc1ccc(-c2nnc(C[NH+]3CCN(c4ccccc4)CC3)o2)cc1 (3D coordinates assigned)
Fc1ccc(-c2nnc(C[NH+]3CCN(c4ccccc4)CC3)o2)cc1 (nonaromatic ring conformer: 95.19799419084381 kcal/mol)

>  <smiles>  (35) 
Fc1ccc(-c2nnc(CN3CCN(c4ccccc4)CC3)o2)cc1

>  <score_type>  (35) 
oracle

>  <origin>  (35) 
adgpu

>  <m_score__min__energy>  (35) 
-7.6900000000000004

>  <m_primary>  (35) 
energy

$$$$
35:0
     RDKit          3D

 54 57  0  0  0  0  0  0  0  0999 V2000
    1.0340   16.1860  -30.4780 C   0  0  0  0  0  0  0  0  0  0  0  0
    0.1440   17.2070  -30.0380 O   0  0  0  0  0  0  0  0  0  0  0  0
   -0.1200   18.3920  -30.7430 C   0  0  0  0  0  0  0  0  0  0  0  0
   -0.6350   18.3760  -32.0550 C   0  0  0  0  0  0  0  0  0  0  0  0
   -0.8910   19.5710  -32.7280 C   0  0  0  0  0  0  0  0  0  0  0  0
   -0.6410   20.7940  -32.1050 C   0  0  0  0  0  0  0  0  0  0  0  0
   -0.1300   20.8250  -30.8070 C   0  0  0  0  0  0  0  0  0  0  0  0
    0.1430   19.6310  -30.1190 C   0  0  0  0  0  0  0  0  0  0  0  0
    0.6860   19.6880  -28.7110 C   0  0  0  0  0  0  0  0  0  0  0  0
   -0.3980   19.6420  -27.7230 N   0  0  0  0  0  0  0  0  0  0  0  0
   -0.8810   18.5410  -27.1140 C   0  0  0  0  0  0  0  0  0  0  0  0
   -2.0380   18.7970  -26.4780 N   0  0  0  0  0  0  0  0  0  0  0  0
   -2.3270   20.0720  -26.6920 N   0  0  0  0  0  0  0  0  0  0  0  0
   -1.3380   20.5780  -27.4540 C   0  0  0  0  0  0  0  0  0  0  0  0
   -1.3300   21.9720  -27.9410 C   0  0  0  0  0  0  0  0  0  0  0  0
   -2.1860   22.3530  -28.9830 C   0  0  0  0  0  0  0  0  0  0  0  0
   -2.2090   23.6760  -29.4640 C   0  0  0  0  0  0  0  0  0  0  0  0
   -3.1740   24.0470  -30.5310 C   0  0  0  0  0  0  0  0  0  0  0  0
   -3.3820   23.2740  -31.5060 O   0  0  0  0  0  0  0  0  0  0  0  0
   -3.8610   25.3020  -30.4650 N   0  0  0  0  0  0  0  0  0  0  0  0
   -5.3080   25.4500  -30.5770 C   0  0  0  0  0  0  0  0  0  0  0  0
   -6.0340   24.4000  -29.7290 C   0  0  0  0  0  0  0  0  0  0  0  0
   -6.6110   23.2980  -30.5820 C   0  0  0  0  0  0  0  0  0  0  0  0
   -7.8590   23.4630  -31.2020 C   0  0  0  0  0  0  0  0  0  0  0  0
   -8.3940   22.4410  -31.9940 C   0  0  0  0  0  0  0  0  0  0  0  0
   -7.6830   21.2510  -32.1750 C   0  0  0  0  0  0  0  0  0  0  0  0
   -8.2220   20.2310  -32.9500 O   0  0  0  0  0  0  0  0  0  0  0  0
   -6.4290   21.0880  -31.5780 C   0  0  0  0  0  0  0  0  0  0  0  0
   -5.8910   22.1090  -30.7900 C   0  0  0  0  0  0  0  0  0  0  0  0
   -1.3180   24.6160  -28.8980 C   0  0  0  0  0  0  0  0  0  0  0  0
   -1.2900   25.9360  -29.3370 O   0  0  0  0  0  0  0  0  0  0  0  0
   -0.4400   24.2280  -27.8810 C   0  0  0  0  0  0  0  0  0  0  0  0
   -0.4410   22.9150  -27.4030 C   0  0  0  0  0  0  0  0  0  0  0  0
    0.4340   22.5630  -26.3810 O   0  0  0  0  0  0  0  0  0  0  0  0
    1.4737   15.6816  -29.6049 H   0  0  0  0  0  0  0  0  0  0  0  0
    0.4808   15.4537  -31.0845 H   0  0  0  0  0  0  0  0  0  0  0  0
    1.8349   16.6341  -31.0845 H   0  0  0  0  0  0  0  0  0  0  0  0
   -0.8363   17.4152  -32.5514 H   0  0  0  0  0  0  0  0  0  0  0  0
   -1.2910   19.5488  -33.7525 H   0  0  0  0  0  0  0  0  0  0  0  0
   -0.8468   21.7343  -32.6373 H   0  0  0  0  0  0  0  0  0  0  0  0
    0.0606   21.7920  -30.3186 H   0  0  0  0  0  0  0  0  0  0  0  0
    1.3556   18.8304  -28.5495 H   0  0  0  0  0  0  0  0  0  0  0  0
    1.2320   20.6347  -28.5858 H   0  0  0  0  0  0  0  0  0  0  0  0
   -0.3905   17.5566  -27.1346 H   0  0  0  0  0  0  0  0  0  0  0  0
   -2.8531   21.6037  -29.4340 H   0  0  0  0  0  0  0  0  0  0  0  0
   -5.5950   26.4537  -30.2302 H   0  0  0  0  0  0  0  0  0  0  0  0
   -5.5945   25.3098  -31.6297 H   0  0  0  0  0  0  0  0  0  0  0  0
   -5.3205   23.9623  -29.0153 H   0  0  0  0  0  0  0  0  0  0  0  0
   -6.8625   24.8965  -29.2026 H   0  0  0  0  0  0  0  0  0  0  0  0
   -8.4191   24.3997  -31.0648 H   0  0  0  0  0  0  0  0  0  0  0  0
   -9.3746   22.5740  -32.4744 H   0  0  0  0  0  0  0  0  0  0  0  0
   -5.8656   20.1553  -31.7288 H   0  0  0  0  0  0  0  0  0  0  0  0
   -4.8997   21.9816  -30.3305 H   0  0  0  0  0  0  0  0  0  0  0  0
    0.2577   24.9631  -27.4535 H   0  0  0  0  0  0  0  0  0  0  0  0
  1  2  1  0
  2  3  1  0
  3  4  2  0
  4  5  1  0
  5  6  2  0
  6  7  1  0
  7  8  2  0
  8  9  1  0
  9 10  1  0
 10 11  1  0
 11 12  2  0
 12 13  1  0
 13 14  2  0
 14 15  1  0
 15 16  2  0
 16 17  1  0
 17 18  1  0
 18 19  2  0
 18 20  1  0
 20 21  1  0
 21 22  1  0
 22 23  1  0
 23 24  2  0
 24 25  1  0
 25 26  2  0
 26 27  1  0
 26 28  1  0
 28 29  2  0
 17 30  2  0
 30 31  1  0
 30 32  1  0
 32 33  2  0
 33 34  1  0
  8  3  1  0
 14 10  1  0
 33 15  1  0
 29 23  1  0
  1 35  1  0
  1 36  1  0
  1 37  1  0
  4 38  1  0
  5 39  1  0
  6 40  1  0
  7 41  1  0
  9 42  1  0
  9 43  1  0
 11 44  1  0
 16 45  1  0
 21 46  1  0
 21 47  1  0
 22 48  1  0
 22 49  1  0
 24 50  1  0
 25 51  1  0
 28 52  1  0
 29 53  1  0
 32 54  1  0
M  CHG  4  20  -1  27  -1  31  -1  34  -1
M  END
>  <UniqueID>  (36) 
35

>  <SMILES>  (36) 
COc1ccccc1Cn1cnnc1-c1cc(C(=O)[N-]CCc2ccc([O-])cc2)c([O-])cc1[O-]

>  <Energy>  (36) 
89.40900780294682

>  <Genealogy>  (36) 
COc1ccccc1Cn1cnnc1-c1cc(C(=O)[N-]CCc2ccc([O-])cc2)c([O-])cc1[O-] (protonated)
COc1ccccc1Cn1cnnc1-c1cc(C(=O)[N-]CCc2ccc([O-])cc2)c([O-])cc1[O-] (3D coordinates assigned)
COc1ccccc1Cn1cnnc1-c1cc(C(=O)[N-]CCc2ccc([O-])cc2)c([O-])cc1[O-] (optimized conformer: 89.40900780294682 kcal/mol)

>  <smiles>  (36) 
COc1ccccc1Cn1cnnc1-c1cc(C(=O)NCCc2ccc(O)cc2)c(O)cc1O

>  <score_type>  (36) 
oracle

>  <origin>  (36) 
adgpu

>  <m_score__min__energy>  (36) 
-13.35

>  <m_primary>  (36) 
energy

$$$$
36:0
     RDKit          3D

 45 47  0  0  0  0  0  0  0  0999 V2000
   -5.2124   20.5922  -34.1821 H   0  0  0  0  0  0  0  0  0  0  0  0
   -5.7690   19.7450  -33.7550 C   0  0  0  0  0  0  0  0  0  0  0  0
   -6.8580   19.9830  -32.9080 C   0  0  0  0  0  0  0  0  0  0  0  0
   -7.1402   21.0157  -32.6554 H   0  0  0  0  0  0  0  0  0  0  0  0
   -7.5910   18.9090  -32.3800 C   0  0  0  0  0  0  0  0  0  0  0  0
   -8.7430   19.1530  -31.4530 C   0  0  0  0  0  0  0  0  0  0  0  0
   -8.3973   19.0798  -30.4113 H   0  0  0  0  0  0  0  0  0  0  0  0
   -9.1525   20.1578  -31.6336 H   0  0  0  0  0  0  0  0  0  0  0  0
   -9.5247   18.4005  -31.6336 H   0  0  0  0  0  0  0  0  0  0  0  0
   -7.2070   17.5960  -32.6880 C   0  0  0  0  0  0  0  0  0  0  0  0
   -7.7634   16.7486  -32.2610 H   0  0  0  0  0  0  0  0  0  0  0  0
   -6.1220   17.3590  -33.5340 C   0  0  0  0  0  0  0  0  0  0  0  0
   -5.8424   16.3262  -33.7894 H   0  0  0  0  0  0  0  0  0  0  0  0
   -5.3850   18.4340  -34.0610 C   0  0  0  0  0  0  0  0  0  0  0  0
   -4.2640   18.2140  -34.9300 N   0  0  0  0  0  0  0  0  0  0  0  0
   -3.0060   17.6650  -34.5120 C   0  0  0  0  0  0  0  0  0  0  0  0
   -2.9010   16.4230  -34.3440 O   0  0  0  0  0  0  0  0  0  0  0  0
   -1.8680   18.5050  -34.2830 N   0  0  0  0  0  0  0  0  0  0  0  0
   -1.7400   19.3730  -33.1510 C   0  0  0  0  0  0  0  0  0  0  0  0
   -2.1170   20.7230  -33.2310 C   0  0  0  0  0  0  0  0  0  0  0  0
   -2.4956   21.1310  -34.1798 H   0  0  0  0  0  0  0  0  0  0  0  0
   -2.0130   21.5500  -32.1100 C   0  0  0  0  0  0  0  0  0  0  0  0
   -2.2866   22.6128  -32.1850 H   0  0  0  0  0  0  0  0  0  0  0  0
   -1.5610   21.0290  -30.8900 C   0  0  0  0  0  0  0  0  0  0  0  0
   -1.4340   22.0560  -29.4650 S   0  0  0  0  0  0  0  0  0  0  0  0
   -0.0210   22.1400  -28.9640 O   0  0  0  0  0  0  0  0  0  0  0  0
   -2.2690   21.4370  -28.3810 O   0  0  0  0  0  0  0  0  0  0  0  0
   -2.0560   23.6460  -29.7870 N   0  0  0  0  0  0  0  0  0  0  0  0
   -3.2340   24.0270  -30.1940 C   0  0  0  0  0  0  0  0  0  0  0  0
   -3.4990   25.2920  -30.4240 O   0  0  0  0  0  0  0  0  0  0  0  0
   -4.7140   25.4550  -30.8590 N   0  0  0  0  0  0  0  0  0  0  0  0
   -5.2820   24.2360  -30.9110 C   0  0  0  0  0  0  0  0  0  0  0  0
   -6.6710   23.9970  -31.4080 C   0  0  0  0  0  0  0  0  0  0  0  0
   -7.3517   23.8799  -30.5519 H   0  0  0  0  0  0  0  0  0  0  0  0
   -6.9941   24.8527  -32.0190 H   0  0  0  0  0  0  0  0  0  0  0  0
   -6.6895   23.0825  -32.0190 H   0  0  0  0  0  0  0  0  0  0  0  0
   -4.3770   23.2770  -30.4790 C   0  0  0  0  0  0  0  0  0  0  0  0
   -4.6380   21.8030  -30.4010 C   0  0  0  0  0  0  0  0  0  0  0  0
   -4.6924   21.4956  -29.3462 H   0  0  0  0  0  0  0  0  0  0  0  0
   -5.5909   21.5725  -30.8998 H   0  0  0  0  0  0  0  0  0  0  0  0
   -3.8222   21.2593  -30.8998 H   0  0  0  0  0  0  0  0  0  0  0  0
   -1.1620   19.6880  -30.8160 C   0  0  0  0  0  0  0  0  0  0  0  0
   -0.7893   19.2786  -29.8655 H   0  0  0  0  0  0  0  0  0  0  0  0
   -1.2360   18.8680  -31.9470 C   0  0  0  0  0  0  0  0  0  0  0  0
   -0.8970   17.8231  -31.8898 H   0  0  0  0  0  0  0  0  0  0  0  0
  1  2  1  0
  2  3  2  0
  3  4  1  0
  3  5  1  0
  5  6  1  0
  6  7  1  0
  6  8  1  0
  6  9  1  0
  5 10  2  0
 10 11  1  0
 10 12  1  0
 12 13  1  0
 12 14  2  0
 14 15  1  0
 15 16  1  0
 16 17  2  0
 16 18  1  0
 18 19  1  0
 19 20  2  0
 20 21  1  0
 20 22  1  0
 22 23  1  0
 22 24  2  0
 24 25  1  0
 25 26  2  0
 25 27  2  0
 25 28  1  0
 28 29  2  0
 29 30  1  0
 30 31  1  0
 31 32  1  0
 32 33  1  0
 33 34  1  0
 33 35  1  0
 33 36  1  0
 32 37  2  0
 37 38  1  0
 38 39  1  0
 38 40  1  0
 38 41  1  0
 24 42  1  0
 42 43  1  0
 42 44  2  0
 44 45  1  0
 14  2  1  0
 44 19  1  0
 37 29  1  0
M  CHG  3  15  -1  18  -1  31  -1
M  END
>  <UniqueID>  (37) 
36

>  <SMILES>  (37) 
Cc1ccc([N-]C(=O)[N-]c2ccc(S(=O)(=O)/N=c3/o[n-]c(C)c3C)cc2)cc1

>  <Energy>  (37) 
90.85482751940155

>  <Genealogy>  (37) 
Cc1ccc([N-]C(=O)[N-]c2ccc(S(=O)(=O)N=c3o[n-]c(C)c3C)cc2)cc1 (protonated)
Cc1ccc([N-]C(=O)[N-]c2ccc(S(=O)(=O)/N=c3/o[n-]c(C)c3C)cc2)cc1 (cis-trans isomerization)
Cc1ccc([N-]C(=O)[N-]c2ccc(S(=O)(=O)/N=c3/o[n-]c(C)c3C)cc2)cc1 (3D coordinates assigned)
Cc1ccc([N-]C(=O)[N-]c2ccc(S(=O)(=O)/N=c3/o[n-]c(C)c3C)cc2)cc1 (optimized conformer: 90.85482751940155 kcal/mol)

>  <smiles>  (37) 
Cc1ccc(NC(=O)Nc2ccc(S(=O)(=O)N=c3o[nH]c(C)c3C)cc2)cc1

>  <score_type>  (37) 
oracle

>  <origin>  (37) 
adgpu

>  <m_score__min__energy>  (37) 
-12.34

>  <m_primary>  (37) 
energy

$$$$
37:0
     RDKit          3D

 66 69  0  0  0  0  0  0  0  0999 V2000
   -7.7371   18.6985  -33.4889 H   0  0  0  0  0  0  0  0  0  0  0  0
   -7.2930   19.6540  -33.1730 C   0  0  0  0  0  0  0  0  0  0  0  0
   -8.0730   20.5930  -32.4930 C   0  0  0  0  0  0  0  0  0  0  0  0
   -9.1306   20.3757  -32.2827 H   0  0  0  0  0  0  0  0  0  0  0  0
   -7.5140   21.8140  -32.0760 C   0  0  0  0  0  0  0  0  0  0  0  0
   -8.3450   22.7920  -31.2910 C   0  0  0  0  0  0  0  0  0  0  0  0
   -8.1971   22.6180  -30.2150 H   0  0  0  0  0  0  0  0  0  0  0  0
   -8.0383   23.8181  -31.5420 H   0  0  0  0  0  0  0  0  0  0  0  0
   -9.4072   22.6550  -31.5420 H   0  0  0  0  0  0  0  0  0  0  0  0
   -6.1560   22.0790  -32.3400 C   0  0  0  0  0  0  0  0  0  0  0  0
   -5.5640   23.3160  -31.9010 N   0  0  0  0  0  0  0  0  0  0  0  0
   -4.6080   23.4520  -31.0250 C   0  0  0  0  0  0  0  0  0  0  0  0
   -4.1300   24.6990  -30.7680 N   0  0  0  0  0  0  0  0  0  0  0  0
   -3.1680   24.9140  -29.8700 N   0  0  0  0  0  0  0  0  0  0  0  0
   -2.6050   23.8960  -29.1630 C   0  0  0  0  0  0  0  0  0  0  0  0
   -1.5890   24.1780  -28.1820 N   0  0  0  0  0  0  0  0  0  0  0  0
   -0.6080   23.1400  -27.8380 C   0  0  0  0  0  0  0  0  0  0  0  0
   -1.1004   22.3623  -27.2358 H   0  0  0  0  0  0  0  0  0  0  0  0
   -0.2097   22.7059  -28.7669 H   0  0  0  0  0  0  0  0  0  0  0  0
    0.5550   23.7420  -27.0330 C   0  0  0  0  0  0  0  0  0  0  0  0
    0.2439   23.8657  -25.9852 H   0  0  0  0  0  0  0  0  0  0  0  0
    1.4187   23.0637  -27.0953 H   0  0  0  0  0  0  0  0  0  0  0  0
    0.9390   25.0510  -27.5810 N   0  0  0  0  0  0  0  0  0  0  0  0
    1.1820   24.9230  -28.5930 H   0  0  0  0  0  0  0  0  0  0  0  0
   -0.1440   26.0530  -27.4780 C   0  0  0  0  0  0  0  0  0  0  0  0
    0.0086   26.6341  -26.5566 H   0  0  0  0  0  0  0  0  0  0  0  0
   -0.0903   26.6746  -28.3840 H   0  0  0  0  0  0  0  0  0  0  0  0
   -1.5600   25.4430  -27.4380 C   0  0  0  0  0  0  0  0  0  0  0  0
   -1.8455   25.2560  -26.3923 H   0  0  0  0  0  0  0  0  0  0  0  0
   -2.2671   26.1473  -27.9005 H   0  0  0  0  0  0  0  0  0  0  0  0
   -3.0790   22.5950  -29.3630 C   0  0  0  0  0  0  0  0  0  0  0  0
   -2.6596   21.7574  -28.7863 H   0  0  0  0  0  0  0  0  0  0  0  0
   -4.0850   22.3690  -30.2970 C   0  0  0  0  0  0  0  0  0  0  0  0
   -4.4680   21.3515  -30.4645 H   0  0  0  0  0  0  0  0  0  0  0  0
   -5.3960   21.1520  -33.0710 C   0  0  0  0  0  0  0  0  0  0  0  0
   -4.3582   21.3929  -33.3448 H   0  0  0  0  0  0  0  0  0  0  0  0
   -5.9470   19.9250  -33.4540 C   0  0  0  0  0  0  0  0  0  0  0  0
   -5.1260   18.9810  -34.1530 N   0  0  0  0  0  0  0  0  0  0  0  0
   -3.9390   18.3830  -33.6250 C   0  0  0  0  0  0  0  0  0  0  0  0
   -3.9950   17.2700  -33.0310 O   0  0  0  0  0  0  0  0  0  0  0  0
   -2.6950   19.0760  -33.7400 N   0  0  0  0  0  0  0  0  0  0  0  0
   -2.5460   19.6740  -34.5860 H   0  0  0  0  0  0  0  0  0  0  0  0
   -1.6780   19.0590  -32.7230 C   0  0  0  0  0  0  0  0  0  0  0  0
   -0.9700   17.8810  -32.4180 C   0  0  0  0  0  0  0  0  0  0  0  0
   -1.1459   16.9698  -33.0085 H   0  0  0  0  0  0  0  0  0  0  0  0
   -0.0450   17.8610  -31.3700 C   0  0  0  0  0  0  0  0  0  0  0  0
    0.4946   16.9316  -31.1353 H   0  0  0  0  0  0  0  0  0  0  0  0
    0.2000   19.0190  -30.6150 C   0  0  0  0  0  0  0  0  0  0  0  0
    1.1490   18.9950  -29.4770 C   0  0  0  0  0  0  0  0  0  0  0  0
    2.3740   19.2140  -29.6870 O   0  0  0  0  0  0  0  0  0  0  0  0
    0.7030   18.7370  -28.1330 N   0  0  0  0  0  0  0  0  0  0  0  0
    0.9120   17.4110  -27.5520 C   0  0  0  0  0  0  0  0  0  0  0  0
    0.9003   17.4855  -26.4546 H   0  0  0  0  0  0  0  0  0  0  0  0
    0.1093   16.7353  -27.8822 H   0  0  0  0  0  0  0  0  0  0  0  0
    1.8837   17.0150  -27.8822 H   0  0  0  0  0  0  0  0  0  0  0  0
   -0.2060   19.6760  -27.4570 C   0  0  0  0  0  0  0  0  0  0  0  0
   -0.4096   20.5257  -28.1252 H   0  0  0  0  0  0  0  0  0  0  0  0
    0.2720   20.0254  -26.5299 H   0  0  0  0  0  0  0  0  0  0  0  0
   -1.5230   18.9910  -27.1020 C   0  0  0  0  0  0  0  0  0  0  0  0
   -1.6254   18.9377  -26.0081 H   0  0  0  0  0  0  0  0  0  0  0  0
   -2.3608   19.5676  -27.5210 H   0  0  0  0  0  0  0  0  0  0  0  0
   -1.5319   17.9740  -27.5210 H   0  0  0  0  0  0  0  0  0  0  0  0
   -0.5180   20.1920  -30.9130 C   0  0  0  0  0  0  0  0  0  0  0  0
   -0.3438   21.1034  -30.3223 H   0  0  0  0  0  0  0  0  0  0  0  0
   -1.4510   20.2080  -31.9540 C   0  0  0  0  0  0  0  0  0  0  0  0
   -2.0111   21.1295  -32.1710 H   0  0  0  0  0  0  0  0  0  0  0  0
  1  2  1  0
  2  3  2  0
  3  4  1  0
  3  5  1  0
  5  6  1  0
  6  7  1  0
  6  8  1  0
  6  9  1  0
  5 10  2  0
 10 11  1  0
 11 12  2  0
 12 13  1  0
 13 14  1  0
 14 15  2  0
 15 16  1  0
 16 17  1  0
 17 18  1  0
 17 19  1  0
 17 20  1  0
 20 21  1  0
 20 22  1  0
 20 23  1  0
 23 24  1  0
 23 25  1  0
 25 26  1  0
 25 27  1  0
 25 28  1  0
 28 29  1  0
 28 30  1  0
 15 31  1  0
 31 32  1  0
 31 33  2  0
 33 34  1  0
 10 35  1  0
 35 36  1  0
 35 37  2  0
 37 38  1  0
 38 39  1  0
 39 40  2  0
 39 41  1  0
 41 42  1  0
 41 43  1  0
 43 44  2  0
 44 45  1  0
 44 46  1  0
 46 47  1  0
 46 48  2  0
 48 49  1  0
 49 50  2  0
 49 51  1  0
 51 52  1  0
 52 53  1  0
 52 54  1  0
 52 55  1  0
 51 56  1  0
 56 57  1  0
 56 58  1  0
 56 59  1  0
 59 60  1  0
 59 61  1  0
 59 62  1  0
 48 63  1  0
 63 64  1  0
 63 65  2  0
 65 66  1  0
 37  2  1  0
 65 43  1  0
 33 12  1  0
 28 16  1  0
M  CHG  2  13  -1  38  -1
M  END
>  <UniqueID>  (38) 
37

>  <SMILES>  (38) 
CCN(C)C(=O)c1ccc(NC(=O)[N-]c2ccc(C)c(/N=c3\ccc(N4CCNCC4)n[n-]3)c2)cc1

>  <Energy>  (38) 
96.72470433204117

>  <Genealogy>  (38) 
CCN(C)C(=O)c1ccc(NC(=O)[N-]c2ccc(C)c(N=c3ccc(N4CCNCC4)n[n-]3)c2)cc1 (protonated)
CCN(C)C(=O)c1ccc(NC(=O)[N-]c2ccc(C)c(/N=c3\ccc(N4CCNCC4)n[n-]3)c2)cc1 (cis-trans isomerization)
CCN(C)C(=O)c1ccc(NC(=O)[N-]c2ccc(C)c(/N=c3\ccc(N4CCNCC4)n[n-]3)c2)cc1 (3D coordinates assigned)
CCN(C)C(=O)c1ccc(NC(=O)[N-]c2ccc(C)c(/N=c3\ccc(N4CCNCC4)n[n-]3)c2)cc1 (nonaromatic ring conformer: 96.72470433204117 kcal/mol)

>  <smiles>  (38) 
CCN(C)C(=O)c1ccc(NC(=O)Nc2ccc(C)c(N=c3ccc(N4CCNCC4)n[nH]3)c2)cc1

>  <score_type>  (38) 
oracle

>  <origin>  (38) 
adgpu

>  <m_score__min__energy>  (38) 
-11.19

>  <m_primary>  (38) 
energy

$$$$
38:0
     RDKit          3D

 43 45  0  0  0  0  0  0  0  0999 V2000
   -9.4360   18.9370  -32.6440 C   0  0  0  0  0  0  0  0  0  0  0  0
   -9.8200   20.2890  -32.2640 N   0  0  0  0  0  0  0  0  0  0  0  0
   -9.0860   21.1250  -31.3600 C   0  0  0  0  0  0  0  0  0  0  0  0
   -9.6790   21.5960  -30.3550 O   0  0  0  0  0  0  0  0  0  0  0  0
   -7.6500   21.4190  -31.5460 C   0  0  0  0  0  0  0  0  0  0  0  0
   -6.7150   20.3810  -31.6710 C   0  0  0  0  0  0  0  0  0  0  0  0
   -5.3590   20.6720  -31.8410 C   0  0  0  0  0  0  0  0  0  0  0  0
   -4.9310   21.9990  -31.9100 C   0  0  0  0  0  0  0  0  0  0  0  0
   -5.8550   23.0480  -31.8360 C   0  0  0  0  0  0  0  0  0  0  0  0
   -5.3690   24.3950  -31.9040 N   0  0  0  0  0  0  0  0  0  0  0  0
   -5.0370   25.2500  -30.8000 C   0  0  0  0  0  0  0  0  0  0  0  0
   -5.9110   25.9810  -30.2660 O   0  0  0  0  0  0  0  0  0  0  0  0
   -3.6920   25.3030  -30.3140 N   0  0  0  0  0  0  0  0  0  0  0  0
   -3.1490   24.3640  -29.3780 C   0  0  0  0  0  0  0  0  0  0  0  0
   -3.8960   23.2250  -29.0750 C   0  0  0  0  0  0  0  0  0  0  0  0
   -3.3720   22.2380  -28.2450 C   0  0  0  0  0  0  0  0  0  0  0  0
   -2.0980   22.3830  -27.6870 C   0  0  0  0  0  0  0  0  0  0  0  0
   -1.4880   21.0420  -26.7250 Cl  0  0  0  0  0  0  0  0  0  0  0  0
   -1.3510   23.5610  -27.9240 C   0  0  0  0  0  0  0  0  0  0  0  0
    0.2650   23.7850  -27.2160 S   0  0  0  0  0  0  0  0  0  0  0  0
    1.1820   24.4730  -28.1900 O   0  0  0  0  0  0  0  0  0  0  0  0
    0.8760   22.4530  -26.8830 O   0  0  0  0  0  0  0  0  0  0  0  0
    0.0900   24.7260  -25.7010 C   0  0  0  0  0  0  0  0  0  0  0  0
   -1.3490   24.9590  -25.2720 C   0  0  0  0  0  0  0  0  0  0  0  0
   -0.4810   23.9620  -24.5170 C   0  0  0  0  0  0  0  0  0  0  0  0
   -1.8860   24.5560  -28.7740 C   0  0  0  0  0  0  0  0  0  0  0  0
   -1.1640   25.7320  -28.9930 O   0  0  0  0  0  0  0  0  0  0  0  0
   -7.2180   22.7520  -31.6410 C   0  0  0  0  0  0  0  0  0  0  0  0
   -9.2653   18.3361  -31.7386 H   0  0  0  0  0  0  0  0  0  0  0  0
  -10.2402   18.4813  -33.2403 H   0  0  0  0  0  0  0  0  0  0  0  0
   -8.5123   18.9721  -33.2403 H   0  0  0  0  0  0  0  0  0  0  0  0
   -7.0505   19.3340  -31.6351 H   0  0  0  0  0  0  0  0  0  0  0  0
   -4.6276   19.8542  -31.9206 H   0  0  0  0  0  0  0  0  0  0  0  0
   -3.8598   22.2220  -32.0233 H   0  0  0  0  0  0  0  0  0  0  0  0
   -4.9058   23.1063  -29.4949 H   0  0  0  0  0  0  0  0  0  0  0  0
   -3.9645   21.3373  -28.0264 H   0  0  0  0  0  0  0  0  0  0  0  0
    0.9763   25.3586  -25.8570 H   0  0  0  0  0  0  0  0  0  0  0  0
   -1.6345   25.9095  -24.7977 H   0  0  0  0  0  0  0  0  0  0  0  0
   -2.3271   24.9156  -25.7735 H   0  0  0  0  0  0  0  0  0  0  0  0
   -0.1390   24.1920  -23.4971 H   0  0  0  0  0  0  0  0  0  0  0  0
   -0.5714   22.8995  -24.2468 H   0  0  0  0  0  0  0  0  0  0  0  0
   -1.5780   26.5730  -29.3740 H   0  0  0  0  0  0  0  0  0  0  0  0
   -7.9490   23.5702  -31.5626 H   0  0  0  0  0  0  0  0  0  0  0  0
  1  2  1  0
  2  3  1  0
  3  4  2  0
  3  5  1  0
  5  6  2  0
  6  7  1  0
  7  8  2  0
  8  9  1  0
  9 10  1  0
 10 11  1  0
 11 12  2  0
 11 13  1  0
 13 14  1  0
 14 15  2  0
 15 16  1  0
 16 17  2  0
 17 18  1  0
 17 19  1  0
 19 20  1  0
 20 21  2  0
 20 22  2  0
 20 23  1  0
 23 24  1  0
 24 25  1  0
 19 26  2  0
 26 27  1  0
  9 28  2  0
 28  5  1  0
 26 14  1  0
 25 23  1  0
  1 29  1  0
  1 30  1  0
  1 31  1  0
  6 32  1  0
  7 33  1  0
  8 34  1  0
 15 35  1  0
 16 36  1  0
 23 37  1  0
 24 38  1  0
 24 39  1  0
 25 40  1  0
 25 41  1  0
 27 42  1  0
 28 43  1  0
M  CHG  3   2  -1  10  -1  13  -1
M  END
>  <UniqueID>  (39) 
38

>  <SMILES>  (39) 
C[N-]C(=O)c1cccc([N-]C(=O)[N-]c2ccc(Cl)c(S(=O)(=O)C3CC3)c2O)c1

>  <Energy>  (39) 
324.2571631797313

>  <Genealogy>  (39) 
C[N-]C(=O)c1cccc([N-]C(=O)[N-]c2ccc(Cl)c(S(=O)(=O)C3CC3)c2O)c1 (protonated)
C[N-]C(=O)c1cccc([N-]C(=O)[N-]c2ccc(Cl)c(S(=O)(=O)C3CC3)c2O)c1 (3D coordinates assigned)
C[N-]C(=O)c1cccc([N-]C(=O)[N-]c2ccc(Cl)c(S(=O)(=O)C3CC3)c2O)c1 (nonaromatic ring conformer: 324.2571631797313 kcal/mol)

>  <smiles>  (39) 
CNC(=O)c1cccc(NC(=O)Nc2ccc(Cl)c(S(=O)(=O)C3CC3)c2O)c1

>  <score_type>  (39) 
oracle

>  <origin>  (39) 
adgpu

>  <m_score__min__energy>  (39) 
-12.27

>  <m_primary>  (39) 
energy

$$$$
39:0
     RDKit          3D

 36 39  0  0  0  0  0  0  0  0999 V2000
   -5.0920   15.8720  -32.7970 O   0  0  0  0  0  0  0  0  0  0  0  0
   -6.0600   15.5940  -33.5550 C   0  0  0  0  0  0  0  0  0  0  0  0
   -7.0540   16.5870  -33.8470 N   0  0  0  0  0  0  0  0  0  0  0  0
   -7.1700   17.8130  -33.1080 C   0  0  0  0  0  0  0  0  0  0  0  0
   -8.3280   18.0760  -32.3470 C   0  0  0  0  0  0  0  0  0  0  0  0
   -8.4560   19.2850  -31.6280 C   0  0  0  0  0  0  0  0  0  0  0  0
   -7.4190   20.2340  -31.6340 C   0  0  0  0  0  0  0  0  0  0  0  0
   -6.2590   19.9290  -32.3500 C   0  0  0  0  0  0  0  0  0  0  0  0
   -6.1470   18.7700  -33.0730 C   0  0  0  0  0  0  0  0  0  0  0  0
   -4.8940   18.8210  -33.6520 C   0  0  0  0  0  0  0  0  0  0  0  0
   -4.3000   19.9820  -33.2930 N   0  0  0  0  0  0  0  0  0  0  0  0
   -5.1280   20.6500  -32.4970 N   0  0  0  0  0  0  0  0  0  0  0  0
   -4.8020   21.9220  -31.9120 C   0  0  0  0  0  0  0  0  0  0  0  0
   -3.5410   22.1490  -31.3360 C   0  0  0  0  0  0  0  0  0  0  0  0
   -3.2290   23.3980  -30.7920 C   0  0  0  0  0  0  0  0  0  0  0  0
   -4.1670   24.4350  -30.8330 C   0  0  0  0  0  0  0  0  0  0  0  0
   -3.8560   25.6750  -30.2910 O   0  0  0  0  0  0  0  0  0  0  0  0
   -5.4160   24.2220  -31.4240 C   0  0  0  0  0  0  0  0  0  0  0  0
   -5.7300   22.9740  -31.9690 C   0  0  0  0  0  0  0  0  0  0  0  0
   -6.1310   14.2530  -34.1560 C   0  0  0  0  0  0  0  0  0  0  0  0
   -5.2170   13.2270  -33.9990 C   0  0  0  0  0  0  0  0  0  0  0  0
   -5.7020   12.1790  -34.7520 C   0  0  0  0  0  0  0  0  0  0  0  0
   -6.8760   12.6260  -35.3220 C   0  0  0  0  0  0  0  0  0  0  0  0
   -7.1040   13.8650  -34.9490 O   0  0  0  0  0  0  0  0  0  0  0  0
   -7.6000   16.5020  -34.7330 H   0  0  0  0  0  0  0  0  0  0  0  0
   -9.1385   17.3331  -32.3131 H   0  0  0  0  0  0  0  0  0  0  0  0
   -9.3753   19.4857  -31.0583 H   0  0  0  0  0  0  0  0  0  0  0  0
   -7.5178   21.1862  -31.0923 H   0  0  0  0  0  0  0  0  0  0  0  0
   -4.4529   18.0469  -34.2972 H   0  0  0  0  0  0  0  0  0  0  0  0
   -2.7959   21.3401  -31.3130 H   0  0  0  0  0  0  0  0  0  0  0  0
   -2.2445   23.5658  -30.3310 H   0  0  0  0  0  0  0  0  0  0  0  0
   -6.1527   25.0380  -31.4601 H   0  0  0  0  0  0  0  0  0  0  0  0
   -6.7089   22.8152  -32.4449 H   0  0  0  0  0  0  0  0  0  0  0  0
   -4.2954   13.2437  -33.3986 H   0  0  0  0  0  0  0  0  0  0  0  0
   -5.2448   11.1860  -34.8738 H   0  0  0  0  0  0  0  0  0  0  0  0
   -7.5227   12.0352  -35.9874 H   0  0  0  0  0  0  0  0  0  0  0  0
  1  2  2  0
  2  3  1  0
  3  4  1  0
  4  5  2  0
  5  6  1  0
  6  7  2  0
  7  8  1  0
  8  9  2  0
  9 10  1  0
 10 11  2  0
 11 12  1  0
 12 13  1  0
 13 14  2  0
 14 15  1  0
 15 16  2  0
 16 17  1  0
 16 18  1  0
 18 19  2  0
  2 20  1  0
 20 21  2  0
 21 22  1  0
 22 23  2  0
 23 24  1  0
  9  4  1  0
 19 13  1  0
 24 20  1  0
 12  8  1  0
  3 25  1  0
  5 26  1  0
  6 27  1  0
  7 28  1  0
 10 29  1  0
 14 30  1  0
 15 31  1  0
 18 32  1  0
 19 33  1  0
 21 34  1  0
 22 35  1  0
 23 36  1  0
M  CHG  1  17  -1
M  END
>  <UniqueID>  (40) 
39

>  <SMILES>  (40) 
O=C(Nc1cccc2c1cnn2-c1ccc([O-])cc1)c1ccco1

>  <Energy>  (40) 
115.11631217695981

>  <Genealogy>  (40) 
O=C(Nc1cccc2c1cnn2-c1ccc([O-])cc1)c1ccco1 (protonated)
O=C(Nc1cccc2c1cnn2-c1ccc([O-])cc1)c1ccco1 (3D coordinates assigned)
O=C(Nc1cccc2c1cnn2-c1ccc([O-])cc1)c1ccco1 (optimized conformer: 115.11631217695981 kcal/mol)

>  <smiles>  (40) 
O=C(Nc1cccc2c1cnn2-c1ccc(O)cc1)c1ccco1

>  <score_type>  (40) 
oracle

>  <origin>  (40) 
adgpu

>  <m_score__min__energy>  (40) 
-10.050000000000001

>  <m_primary>  (40) 
energy

$$$$
40:0
     RDKit          3D

 56 59  0  0  0  0  0  0  0  0999 V2000
    1.3110   26.2880  -38.2120 C   0  0  0  0  0  0  0  0  0  0  0  0
    2.1700   25.3530  -37.4210 C   0  0  0  0  0  0  0  0  0  0  0  0
    3.5400   25.5890  -37.2900 C   0  0  0  0  0  0  0  0  0  0  0  0
    4.3030   24.6820  -36.5580 C   0  0  0  0  0  0  0  0  0  0  0  0
    3.7110   23.5970  -35.9950 N   0  0  0  0  0  0  0  0  0  0  0  0
    2.3760   23.3720  -36.1300 C   0  0  0  0  0  0  0  0  0  0  0  0
    1.7550   22.2210  -35.5350 N   0  0  0  0  0  0  0  0  0  0  0  0
    0.6070   22.2940  -34.8780 N   0  0  0  0  0  0  0  0  0  0  0  0
    0.2980   21.0580  -34.4440 C   0  0  0  0  0  0  0  0  0  0  0  0
   -0.9070   20.7340  -33.6630 C   0  0  0  0  0  0  0  0  0  0  0  0
   -0.9030   19.7230  -32.9090 O   0  0  0  0  0  0  0  0  0  0  0  0
   -2.0860   21.5470  -33.7810 N   0  0  0  0  0  0  0  0  0  0  0  0
   -3.2180   21.4310  -32.8990 C   0  0  0  0  0  0  0  0  0  0  0  0
   -3.4900   22.4460  -31.9660 C   0  0  0  0  0  0  0  0  0  0  0  0
   -4.6150   22.3730  -31.1370 C   0  0  0  0  0  0  0  0  0  0  0  0
   -4.9570   23.6700  -29.9910 S   0  0  0  0  0  0  0  0  0  0  0  0
   -6.4410   23.9050  -29.9560 O   0  0  0  0  0  0  0  0  0  0  0  0
   -4.3050   24.9380  -30.4720 O   0  0  0  0  0  0  0  0  0  0  0  0
   -4.3930   23.3080  -28.3720 N   0  0  0  0  0  0  0  0  0  0  0  0
   -3.8900   24.5010  -27.6670 C   0  0  0  0  0  0  0  0  0  0  0  0
   -2.4280   24.8490  -28.0330 C   0  0  0  0  0  0  0  0  0  0  0  0
   -1.7920   23.8520  -28.8070 O   0  0  0  0  0  0  0  0  0  0  0  0
   -1.9890   22.5910  -28.2120 C   0  0  0  0  0  0  0  0  0  0  0  0
   -3.4610   22.1610  -28.3310 C   0  0  0  0  0  0  0  0  0  0  0  0
   -5.4760   21.2750  -31.2350 C   0  0  0  0  0  0  0  0  0  0  0  0
   -5.2250   20.2650  -32.1660 C   0  0  0  0  0  0  0  0  0  0  0  0
   -4.0990   20.3300  -33.0020 C   0  0  0  0  0  0  0  0  0  0  0  0
   -3.8580   19.2320  -34.0030 C   0  0  0  0  0  0  0  0  0  0  0  0
    1.2790   20.1640  -34.8310 C   0  0  0  0  0  0  0  0  0  0  0  0
    2.1890   20.9370  -35.5240 C   0  0  0  0  0  0  0  0  0  0  0  0
    3.4500   20.4210  -36.1480 C   0  0  0  0  0  0  0  0  0  0  0  0
    1.6200   24.2500  -36.8440 N   0  0  0  0  0  0  0  0  0  0  0  0
    0.7294   26.9210  -37.5256 H   0  0  0  0  0  0  0  0  0  0  0  0
    1.9473   26.9229  -38.8460 H   0  0  0  0  0  0  0  0  0  0  0  0
    0.6246   25.7076  -38.8460 H   0  0  0  0  0  0  0  0  0  0  0  0
    4.0060   26.4707  -37.7541 H   0  0  0  0  0  0  0  0  0  0  0  0
    5.3841   24.8444  -36.4361 H   0  0  0  0  0  0  0  0  0  0  0  0
   -2.1430   22.2190  -34.5790 H   0  0  0  0  0  0  0  0  0  0  0  0
   -2.8109   23.3077  -31.8864 H   0  0  0  0  0  0  0  0  0  0  0  0
   -4.5296   25.3573  -27.9271 H   0  0  0  0  0  0  0  0  0  0  0  0
   -3.9155   24.2811  -26.5895 H   0  0  0  0  0  0  0  0  0  0  0  0
   -2.4256   25.7889  -28.6045 H   0  0  0  0  0  0  0  0  0  0  0  0
   -1.8682   24.9352  -27.0900 H   0  0  0  0  0  0  0  0  0  0  0  0
   -1.3535   21.8492  -28.7179 H   0  0  0  0  0  0  0  0  0  0  0  0
   -1.7232   22.6559  -27.1466 H   0  0  0  0  0  0  0  0  0  0  0  0
   -3.5825   21.5766  -29.2550 H   0  0  0  0  0  0  0  0  0  0  0  0
   -3.7055   21.5683  -27.4372 H   0  0  0  0  0  0  0  0  0  0  0  0
   -6.3542   21.2069  -30.5761 H   0  0  0  0  0  0  0  0  0  0  0  0
   -5.9148   19.4118  -32.2450 H   0  0  0  0  0  0  0  0  0  0  0  0
   -3.6514   18.2909  -33.4723 H   0  0  0  0  0  0  0  0  0  0  0  0
   -4.7505   19.1088  -34.6341 H   0  0  0  0  0  0  0  0  0  0  0  0
   -2.9960   19.4939  -34.6341 H   0  0  0  0  0  0  0  0  0  0  0  0
    1.3242   19.0831  -34.6321 H   0  0  0  0  0  0  0  0  0  0  0  0
    4.1582   20.1312  -35.3578 H   0  0  0  0  0  0  0  0  0  0  0  0
    3.2186   19.5453  -36.7721 H   0  0  0  0  0  0  0  0  0  0  0  0
    3.8988   21.2078  -36.7721 H   0  0  0  0  0  0  0  0  0  0  0  0
  1  2  1  0
  2  3  2  0
  3  4  1  0
  4  5  2  0
  5  6  1  0
  6  7  1  0
  7  8  1  0
  8  9  2  0
  9 10  1  0
 10 11  2  0
 10 12  1  0
 12 13  1  0
 13 14  2  0
 14 15  1  0
 15 16  1  0
 16 17  2  0
 16 18  2  0
 16 19  1  0
 19 20  1  0
 20 21  1  0
 21 22  1  0
 22 23  1  0
 23 24  1  0
 15 25  2  0
 25 26  1  0
 26 27  2  0
 27 28  1  0
  9 29  1  0
 29 30  2  0
 30 31  1  0
  6 32  2  0
 32  2  1  0
 30  7  1  0
 27 13  1  0
 24 19  1  0
  1 33  1  0
  1 34  1  0
  1 35  1  0
  3 36  1  0
  4 37  1  0
 12 38  1  0
 14 39  1  0
 20 40  1  0
 20 41  1  0
 21 42  1  0
 21 43  1  0
 23 44  1  0
 23 45  1  0
 24 46  1  0
 24 47  1  0
 25 48  1  0
 26 49  1  0
 28 50  1  0
 28 51  1  0
 28 52  1  0
 29 53  1  0
 31 54  1  0
 31 55  1  0
 31 56  1  0
M  END
>  <UniqueID>  (41) 
40

>  <SMILES>  (41) 
Cc1ccnc(-n2nc(C(=O)Nc3cc(S(=O)(=O)N4CCOCC4)ccc3C)cc2C)n1

>  <Energy>  (41) 
102.77702118074941

>  <Genealogy>  (41) 
Cc1ccnc(-n2nc(C(=O)Nc3cc(S(=O)(=O)N4CCOCC4)ccc3C)cc2C)n1 (3D coordinates assigned)
Cc1ccnc(-n2nc(C(=O)Nc3cc(S(=O)(=O)N4CCOCC4)ccc3C)cc2C)n1 (nonaromatic ring conformer: 102.77702118074941 kcal/mol)

>  <smiles>  (41) 
Cc1ccnc(-n2nc(C(=O)Nc3cc(S(=O)(=O)N4CCOCC4)ccc3C)cc2C)n1

>  <score_type>  (41) 
oracle

>  <origin>  (41) 
adgpu

>  <m_score__min__energy>  (41) 
-10.59

>  <m_primary>  (41) 
energy

$$$$
41:0
     RDKit          3D

 34 35  0  0  0  0  0  0  0  0999 V2000
   -6.1340   16.3430  -33.9030 C   0  0  0  0  0  0  0  0  0  0  0  0
   -6.9120   17.4230  -33.8370 C   0  0  0  0  0  0  0  0  0  0  0  0
   -6.6440   18.5380  -32.9090 C   0  0  0  0  0  0  0  0  0  0  0  0
   -6.2010   18.3080  -31.7510 O   0  0  0  0  0  0  0  0  0  0  0  0
   -6.9350   19.8840  -33.3210 N   0  0  0  0  0  0  0  0  0  0  0  0
   -6.4990   21.0560  -32.6120 C   0  0  0  0  0  0  0  0  0  0  0  0
   -5.1380   21.4140  -32.5510 C   0  0  0  0  0  0  0  0  0  0  0  0
   -4.7440   22.5760  -31.8810 C   0  0  0  0  0  0  0  0  0  0  0  0
   -5.7010   23.4020  -31.2780 C   0  0  0  0  0  0  0  0  0  0  0  0
   -5.2130   24.8760  -30.4470 S   0  0  0  0  0  0  0  0  0  0  0  0
   -5.7630   26.0580  -31.1920 O   0  0  0  0  0  0  0  0  0  0  0  0
   -5.7400   24.8940  -29.0400 O   0  0  0  0  0  0  0  0  0  0  0  0
   -3.4830   24.9870  -30.4060 N   0  0  0  0  0  0  0  0  0  0  0  0
   -2.6310   24.2900  -29.4850 C   0  0  0  0  0  0  0  0  0  0  0  0
   -2.8860   22.9620  -29.0920 C   0  0  0  0  0  0  0  0  0  0  0  0
   -2.0270   22.3160  -28.1970 C   0  0  0  0  0  0  0  0  0  0  0  0
   -0.9150   22.9860  -27.6830 C   0  0  0  0  0  0  0  0  0  0  0  0
   -0.6560   24.3040  -28.0660 C   0  0  0  0  0  0  0  0  0  0  0  0
   -1.5090   24.9550  -28.9640 C   0  0  0  0  0  0  0  0  0  0  0  0
   -1.2370   26.2670  -29.3400 O   0  0  0  0  0  0  0  0  0  0  0  0
   -7.0570   23.0590  -31.3530 C   0  0  0  0  0  0  0  0  0  0  0  0
   -7.4530   21.8990  -32.0220 C   0  0  0  0  0  0  0  0  0  0  0  0
   -6.3728   15.5356  -34.6109 H   0  0  0  0  0  0  0  0  0  0  0  0
   -5.2531   16.2590  -33.2496 H   0  0  0  0  0  0  0  0  0  0  0  0
   -7.7876   17.4854  -34.4999 H   0  0  0  0  0  0  0  0  0  0  0  0
   -7.5700   20.0160  -34.1410 H   0  0  0  0  0  0  0  0  0  0  0  0
   -4.3819   20.7765  -33.0326 H   0  0  0  0  0  0  0  0  0  0  0  0
   -3.6782   22.8427  -31.8272 H   0  0  0  0  0  0  0  0  0  0  0  0
   -3.7633   22.4312  -29.4901 H   0  0  0  0  0  0  0  0  0  0  0  0
   -2.2281   21.2769  -27.8971 H   0  0  0  0  0  0  0  0  0  0  0  0
   -0.2433   22.4761  -26.9768 H   0  0  0  0  0  0  0  0  0  0  0  0
    0.2203   24.8312  -27.6609 H   0  0  0  0  0  0  0  0  0  0  0  0
   -7.8127   23.7057  -30.8832 H   0  0  0  0  0  0  0  0  0  0  0  0
   -8.5211   21.6441  -32.0870 H   0  0  0  0  0  0  0  0  0  0  0  0
  1  2  2  0
  2  3  1  0
  3  4  2  0
  3  5  1  0
  5  6  1  0
  6  7  2  0
  7  8  1  0
  8  9  2  0
  9 10  1  0
 10 11  2  0
 10 12  2  0
 10 13  1  0
 13 14  1  0
 14 15  2  0
 15 16  1  0
 16 17  2  0
 17 18  1  0
 18 19  2  0
 19 20  1  0
  9 21  1  0
 21 22  2  0
 22  6  1  0
 19 14  1  0
  1 23  1  0
  1 24  1  0
  2 25  1  0
  5 26  1  0
  7 27  1  0
  8 28  1  0
 15 29  1  0
 16 30  1  0
 17 31  1  0
 18 32  1  0
 21 33  1  0
 22 34  1  0
M  CHG  2  13  -1  20  -1
M  END
>  <UniqueID>  (42) 
41

>  <SMILES>  (42) 
C=CC(=O)Nc1ccc(S(=O)(=O)[N-]c2ccccc2[O-])cc1

>  <Energy>  (42) 
39.486731904337155

>  <Genealogy>  (42) 
C=CC(=O)Nc1ccc(S(=O)(=O)[N-]c2ccccc2[O-])cc1 (protonated)
C=CC(=O)Nc1ccc(S(=O)(=O)[N-]c2ccccc2[O-])cc1 (3D coordinates assigned)
C=CC(=O)Nc1ccc(S(=O)(=O)[N-]c2ccccc2[O-])cc1 (optimized conformer: 39.486731904337155 kcal/mol)

>  <smiles>  (42) 
C=CC(=O)Nc1ccc(S(=O)(=O)Nc2ccccc2O)cc1

>  <score_type>  (42) 
oracle

>  <origin>  (42) 
adgpu

>  <m_score__min__energy>  (42) 
-13.17

>  <m_primary>  (42) 
energy

$$$$
42:0
     RDKit          3D

 30 33  0  0  0  0  0  0  0  0999 V2000
   -8.6261   17.5377  -33.0818 H   0  0  0  0  0  0  0  0  0  0  0  0
   -8.3750   18.5450  -32.7180 C   0  0  0  0  0  0  0  0  0  0  0  0
   -9.2110   19.3490  -32.0160 N   0  0  0  0  0  0  0  0  0  0  0  0
   -8.4770   20.4610  -31.8100 C   0  0  0  0  0  0  0  0  0  0  0  0
   -8.8950   21.6090  -31.1600 C   0  0  0  0  0  0  0  0  0  0  0  0
   -9.8967   21.6752  -30.7104 H   0  0  0  0  0  0  0  0  0  0  0  0
   -7.9990   22.6840  -31.0940 C   0  0  0  0  0  0  0  0  0  0  0  0
   -8.2882   23.6078  -30.5714 H   0  0  0  0  0  0  0  0  0  0  0  0
   -6.7140   22.5840  -31.7020 C   0  0  0  0  0  0  0  0  0  0  0  0
   -5.8200   23.5440  -31.7150 N   0  0  0  0  0  0  0  0  0  0  0  0
   -5.6840   24.9270  -31.2170 C   0  0  0  0  0  0  0  0  0  0  0  0
   -5.8966   25.3628  -32.2044 H   0  0  0  0  0  0  0  0  0  0  0  0
   -6.1510   25.2130  -29.8040 C   0  0  0  0  0  0  0  0  0  0  0  0
   -6.6471   26.1664  -29.5697 H   0  0  0  0  0  0  0  0  0  0  0  0
   -6.7974   24.7000  -29.0766 H   0  0  0  0  0  0  0  0  0  0  0  0
   -4.6510   25.1870  -30.1390 C   0  0  0  0  0  0  0  0  0  0  0  0
   -4.0712   26.1217  -30.1450 H   0  0  0  0  0  0  0  0  0  0  0  0
   -3.7739   24.6476  -29.7519 H   0  0  0  0  0  0  0  0  0  0  0  0
   -6.3870   21.4110  -32.3280 N   0  0  0  0  0  0  0  0  0  0  0  0
   -5.4710   21.3330  -32.8230 H   0  0  0  0  0  0  0  0  0  0  0  0
   -7.2490   20.3920  -32.3360 N   0  0  0  0  0  0  0  0  0  0  0  0
   -7.1570   19.1790  -32.9100 C   0  0  0  0  0  0  0  0  0  0  0  0
   -5.9920   18.5980  -33.5990 C   0  0  0  0  0  0  0  0  0  0  0  0
   -4.8360   19.2120  -33.7010 O   0  0  0  0  0  0  0  0  0  0  0  0
   -4.0160   18.4590  -34.3950 C   0  0  0  0  0  0  0  0  0  0  0  0
   -2.9733   18.7128  -34.6364 H   0  0  0  0  0  0  0  0  0  0  0  0
   -4.6610   17.3000  -34.7760 C   0  0  0  0  0  0  0  0  0  0  0  0
   -4.2401   16.4724  -35.3659 H   0  0  0  0  0  0  0  0  0  0  0  0
   -5.9390   17.3890  -34.2680 C   0  0  0  0  0  0  0  0  0  0  0  0
   -6.7485   16.6517  -34.3729 H   0  0  0  0  0  0  0  0  0  0  0  0
  1  2  1  0
  2  3  1  0
  3  4  2  0
  4  5  1  0
  5  6  1  0
  5  7  2  0
  7  8  1  0
  7  9  1  0
  9 10  2  0
 10 11  1  0
 11 12  1  0
 11 13  1  0
 13 14  1  0
 13 15  1  0
 13 16  1  0
 16 17  1  0
 16 18  1  0
  9 19  1  0
 19 20  1  0
 19 21  1  0
 21 22  1  0
 22 23  1  0
 23 24  1  0
 24 25  1  0
 25 26  1  0
 25 27  2  0
 27 28  1  0
 27 29  1  0
 29 30  1  0
 22  2  2  0
 29 23  2  0
 21  4  1  0
 16 11  1  0
M  END
>  <UniqueID>  (43) 
42

>  <SMILES>  (43) 
c1coc(-c2cnc3cc/c(=N\C4CC4)[nH]n23)c1

>  <Energy>  (43) 
382.2549553019556

>  <Genealogy>  (43) 
c1coc(-c2cnc3cc/c(=N\C4CC4)[nH]n23)c1 (cis-trans isomerization)
c1coc(-c2cnc3cc/c(=N\C4CC4)[nH]n23)c1 (3D coordinates assigned)
c1coc(-c2cnc3cc/c(=N\C4CC4)[nH]n23)c1 (nonaromatic ring conformer: 382.2549553019556 kcal/mol)

>  <smiles>  (43) 
c1coc(-c2cnc3ccc(=NC4CC4)[nH]n23)c1

>  <score_type>  (43) 
oracle

>  <origin>  (43) 
adgpu

>  <m_score__min__energy>  (43) 
-6.5099999999999998

>  <m_primary>  (43) 
energy

$$$$
43:0
     RDKit          3D

 52 54  0  0  0  0  0  0  0  0999 V2000
   -7.7650   23.2390  -31.2070 C   0  0  0  0  0  0  0  0  0  0  0  0
   -6.4850   22.5560  -31.6100 C   0  0  0  0  0  0  0  0  0  0  0  0
   -6.5580   21.3750  -32.3670 C   0  0  0  0  0  0  0  0  0  0  0  0
   -5.4000   20.7080  -32.7740 C   0  0  0  0  0  0  0  0  0  0  0  0
   -5.5790   19.2310  -33.7160 Cl  0  0  0  0  0  0  0  0  0  0  0  0
   -4.1370   21.2210  -32.4290 C   0  0  0  0  0  0  0  0  0  0  0  0
   -2.6550   20.3950  -32.9220 S   0  0  0  0  0  0  0  0  0  0  0  0
   -2.7540   18.9450  -32.5400 O   0  0  0  0  0  0  0  0  0  0  0  0
   -2.4630   20.5070  -34.4080 O   0  0  0  0  0  0  0  0  0  0  0  0
   -1.3080   21.1340  -32.1170 N   0  0  0  0  0  0  0  0  0  0  0  0
   -1.2090   21.3500  -30.7040 C   0  0  0  0  0  0  0  0  0  0  0  0
   -1.0450   20.2420  -29.8660 C   0  0  0  0  0  0  0  0  0  0  0  0
   -0.9250   20.4100  -28.4840 C   0  0  0  0  0  0  0  0  0  0  0  0
   -0.9650   21.6910  -27.9290 C   0  0  0  0  0  0  0  0  0  0  0  0
   -1.1250   22.8120  -28.7550 C   0  0  0  0  0  0  0  0  0  0  0  0
   -1.1630   24.4330  -28.0580 S   0  0  0  0  0  0  0  0  0  0  0  0
   -2.0830   25.2960  -28.8760 O   0  0  0  0  0  0  0  0  0  0  0  0
    0.2140   25.0340  -28.1270 O   0  0  0  0  0  0  0  0  0  0  0  0
   -1.7020   24.4230  -26.3930 N   0  0  0  0  0  0  0  0  0  0  0  0
   -2.4240   25.6570  -26.0150 C   0  0  0  0  0  0  0  0  0  0  0  0
   -1.5110   26.7950  -25.5110 C   0  0  0  0  0  0  0  0  0  0  0  0
   -0.2960   26.3110  -24.7060 C   0  0  0  0  0  0  0  0  0  0  0  0
   -0.4660   24.8720  -24.2380 C   0  0  0  0  0  0  0  0  0  0  0  0
   -0.6550   23.9560  -25.4540 C   0  0  0  0  0  0  0  0  0  0  0  0
   -1.2640   22.6380  -30.1400 C   0  0  0  0  0  0  0  0  0  0  0  0
   -4.0570   22.4050  -31.6830 C   0  0  0  0  0  0  0  0  0  0  0  0
   -5.2150   23.0890  -31.2780 C   0  0  0  0  0  0  0  0  0  0  0  0
   -5.0580   24.5910  -30.3420 S   0  0  0  0  0  0  0  0  0  0  0  0
   -4.8340   24.2820  -28.6530 N   0  0  0  0  0  0  0  0  0  0  0  0
   -6.3020   25.4160  -30.5170 O   0  0  0  0  0  0  0  0  0  0  0  0
   -3.8710   25.3680  -30.8340 O   0  0  0  0  0  0  0  0  0  0  0  0
   -7.8318   23.2746  -30.1096 H   0  0  0  0  0  0  0  0  0  0  0  0
   -7.7763   24.2630  -31.6085 H   0  0  0  0  0  0  0  0  0  0  0  0
   -8.6220   22.6783  -31.6085 H   0  0  0  0  0  0  0  0  0  0  0  0
   -7.5422   20.9691  -32.6436 H   0  0  0  0  0  0  0  0  0  0  0  0
   -1.0102   19.2310  -30.2981 H   0  0  0  0  0  0  0  0  0  0  0  0
   -0.7989   19.5326  -27.8326 H   0  0  0  0  0  0  0  0  0  0  0  0
   -0.8707   21.8205  -26.8407 H   0  0  0  0  0  0  0  0  0  0  0  0
   -2.9725   26.0197  -26.8969 H   0  0  0  0  0  0  0  0  0  0  0  0
   -3.0883   25.3912  -25.1795 H   0  0  0  0  0  0  0  0  0  0  0  0
   -1.1463   27.3577  -26.3830 H   0  0  0  0  0  0  0  0  0  0  0  0
   -2.1173   27.4123  -24.8318 H   0  0  0  0  0  0  0  0  0  0  0  0
    0.6004   26.3758  -25.3403 H   0  0  0  0  0  0  0  0  0  0  0  0
   -0.1975   26.9509  -23.8167 H   0  0  0  0  0  0  0  0  0  0  0  0
    0.4291   24.5601  -23.6799 H   0  0  0  0  0  0  0  0  0  0  0  0
   -1.3489   24.8012  -23.5857 H   0  0  0  0  0  0  0  0  0  0  0  0
    0.2994   23.8992  -25.9980 H   0  0  0  0  0  0  0  0  0  0  0  0
   -0.9786   22.9765  -25.0721 H   0  0  0  0  0  0  0  0  0  0  0  0
   -1.4168   23.5131  -30.7887 H   0  0  0  0  0  0  0  0  0  0  0  0
   -3.0696   22.8057  -31.4099 H   0  0  0  0  0  0  0  0  0  0  0  0
   -5.7550   24.4200  -28.1810 H   0  0  0  0  0  0  0  0  0  0  0  0
   -4.1730   25.0020  -28.2830 H   0  0  0  0  0  0  0  0  0  0  0  0
  1  2  1  0
  2  3  2  0
  3  4  1  0
  4  5  1  0
  4  6  2  0
  6  7  1  0
  7  8  2  0
  7  9  2  0
  7 10  1  0
 10 11  1  0
 11 12  2  0
 12 13  1  0
 13 14  2  0
 14 15  1  0
 15 16  1  0
 16 17  2  0
 16 18  2  0
 16 19  1  0
 19 20  1  0
 20 21  1  0
 21 22  1  0
 22 23  1  0
 23 24  1  0
 15 25  2  0
  6 26  1  0
 26 27  2  0
 27 28  1  0
 28 29  1  0
 28 30  2  0
 28 31  2  0
 27  2  1  0
 25 11  1  0
 24 19  1  0
  1 32  1  0
  1 33  1  0
  1 34  1  0
  3 35  1  0
 12 36  1  0
 13 37  1  0
 14 38  1  0
 20 39  1  0
 20 40  1  0
 21 41  1  0
 21 42  1  0
 22 43  1  0
 22 44  1  0
 23 45  1  0
 23 46  1  0
 24 47  1  0
 24 48  1  0
 25 49  1  0
 26 50  1  0
 29 51  1  0
 29 52  1  0
M  CHG  1  10  -1
M  END
>  <UniqueID>  (44) 
43

>  <SMILES>  (44) 
Cc1cc(Cl)c(S(=O)(=O)[N-]c2cccc(S(=O)(=O)N3CCCCC3)c2)cc1S(N)(=O)=O

>  <Energy>  (44) 
66.02889280880831

>  <Genealogy>  (44) 
Cc1cc(Cl)c(S(=O)(=O)[N-]c2cccc(S(=O)(=O)N3CCCCC3)c2)cc1S(N)(=O)=O (protonated)
Cc1cc(Cl)c(S(=O)(=O)[N-]c2cccc(S(=O)(=O)N3CCCCC3)c2)cc1S(N)(=O)=O (3D coordinates assigned)
Cc1cc(Cl)c(S(=O)(=O)[N-]c2cccc(S(=O)(=O)N3CCCCC3)c2)cc1S(N)(=O)=O (nonaromatic ring conformer: 66.02889280880831 kcal/mol)

>  <smiles>  (44) 
Cc1cc(Cl)c(S(=O)(=O)Nc2cccc(S(=O)(=O)N3CCCCC3)c2)cc1S(N)(=O)=O

>  <score_type>  (44) 
oracle

>  <origin>  (44) 
adgpu

>  <m_score__min__energy>  (44) 
-11.94

>  <m_primary>  (44) 
energy

$$$$
44:0
     RDKit          3D

 62 66  0  0  0  0  0  0  0  0999 V2000
   -2.1410   18.8620  -27.0880 C   0  0  0  0  0  0  0  0  0  0  0  0
   -2.0290   20.3040  -27.4920 C   0  0  0  0  0  0  0  0  0  0  0  0
   -3.0390   21.2090  -27.1320 C   0  0  0  0  0  0  0  0  0  0  0  0
   -2.9470   22.5530  -27.5050 C   0  0  0  0  0  0  0  0  0  0  0  0
   -1.8450   23.0050  -28.2460 C   0  0  0  0  0  0  0  0  0  0  0  0
   -1.6750   24.7060  -28.6690 S   0  0  0  0  0  0  0  0  0  0  0  0
   -1.4740   25.5000  -27.4100 O   0  0  0  0  0  0  0  0  0  0  0  0
   -0.4910   24.9280  -29.5690 O   0  0  0  0  0  0  0  0  0  0  0  0
   -3.1250   25.2440  -29.4570 N   0  0  0  0  0  0  0  0  0  0  0  0
   -3.9990   24.4030  -30.2190 C   0  0  0  0  0  0  0  0  0  0  0  0
   -5.1970   24.9020  -30.8060 C   0  0  0  0  0  0  0  0  0  0  0  0
   -6.0450   24.0490  -31.5380 C   0  0  0  0  0  0  0  0  0  0  0  0
   -5.6650   22.7170  -31.6640 C   0  0  0  0  0  0  0  0  0  0  0  0
   -6.2790   21.7440  -32.2790 O   0  0  0  0  0  0  0  0  0  0  0  0
   -5.5250   20.6710  -32.0970 C   0  0  0  0  0  0  0  0  0  0  0  0
   -5.8680   19.3400  -32.6370 C   0  0  0  0  0  0  0  0  0  0  0  0
   -6.3800   18.3360  -31.7990 C   0  0  0  0  0  0  0  0  0  0  0  0
   -6.6880   17.0730  -32.3160 C   0  0  0  0  0  0  0  0  0  0  0  0
   -6.4790   16.7900  -33.6770 C   0  0  0  0  0  0  0  0  0  0  0  0
   -6.7750   15.4970  -34.2300 N   0  0  0  0  0  0  0  0  0  0  0  0
   -5.6170   14.2080  -34.3020 S   0  0  0  0  0  0  0  0  0  0  0  0
   -5.6220   13.4530  -33.0040 O   0  0  0  0  0  0  0  0  0  0  0  0
   -5.9990   13.2630  -35.4060 O   0  0  0  0  0  0  0  0  0  0  0  0
   -4.0150   14.8560  -34.6460 C   0  0  0  0  0  0  0  0  0  0  0  0
   -3.2810   14.4020  -35.7470 C   0  0  0  0  0  0  0  0  0  0  0  0
   -2.0110   14.9210  -36.0070 C   0  0  0  0  0  0  0  0  0  0  0  0
   -1.4530   15.9040  -35.1690 C   0  0  0  0  0  0  0  0  0  0  0  0
   -0.0770   16.4360  -35.4710 C   0  0  0  0  0  0  0  0  0  0  0  0
   -2.1850   16.3530  -34.0420 C   0  0  0  0  0  0  0  0  0  0  0  0
   -1.6380   17.4100  -33.1190 C   0  0  0  0  0  0  0  0  0  0  0  0
   -3.4660   15.8290  -33.8000 C   0  0  0  0  0  0  0  0  0  0  0  0
   -6.0050   17.8080  -34.5190 C   0  0  0  0  0  0  0  0  0  0  0  0
   -5.6950   19.0700  -34.0040 C   0  0  0  0  0  0  0  0  0  0  0  0
   -4.4050   20.9200  -31.3650 N   0  0  0  0  0  0  0  0  0  0  0  0
   -4.5250   22.2320  -31.1060 C   0  0  0  0  0  0  0  0  0  0  0  0
   -3.6630   23.0410  -30.3700 C   0  0  0  0  0  0  0  0  0  0  0  0
   -0.8410   22.1000  -28.6160 C   0  0  0  0  0  0  0  0  0  0  0  0
   -0.9330   20.7560  -28.2450 C   0  0  0  0  0  0  0  0  0  0  0  0
   -2.1467   18.7881  -25.9905 H   0  0  0  0  0  0  0  0  0  0  0  0
   -3.0746   18.4404  -27.4888 H   0  0  0  0  0  0  0  0  0  0  0  0
   -1.2837   18.3013  -27.4888 H   0  0  0  0  0  0  0  0  0  0  0  0
   -3.9070   20.8593  -26.5537 H   0  0  0  0  0  0  0  0  0  0  0  0
   -3.7407   23.2579  -27.2168 H   0  0  0  0  0  0  0  0  0  0  0  0
   -5.4620   25.9629  -30.6864 H   0  0  0  0  0  0  0  0  0  0  0  0
   -6.9740   24.4224  -31.9935 H   0  0  0  0  0  0  0  0  0  0  0  0
   -6.5397   18.5437  -30.7307 H   0  0  0  0  0  0  0  0  0  0  0  0
   -7.0965   16.2961  -31.6530 H   0  0  0  0  0  0  0  0  0  0  0  0
   -7.6580   15.3690  -34.7740 H   0  0  0  0  0  0  0  0  0  0  0  0
   -3.7056   13.6338  -36.4100 H   0  0  0  0  0  0  0  0  0  0  0  0
   -1.4414   14.5579  -36.8752 H   0  0  0  0  0  0  0  0  0  0  0  0
    0.4520   16.6405  -34.5285 H   0  0  0  0  0  0  0  0  0  0  0  0
    0.4849   15.6903  -36.0525 H   0  0  0  0  0  0  0  0  0  0  0  0
   -0.1628   17.3658  -36.0525 H   0  0  0  0  0  0  0  0  0  0  0  0
   -1.7969   17.1029  -32.0748 H   0  0  0  0  0  0  0  0  0  0  0  0
   -0.5611   17.5368  -33.3041 H   0  0  0  0  0  0  0  0  0  0  0  0
   -2.1564   18.3624  -33.3041 H   0  0  0  0  0  0  0  0  0  0  0  0
   -4.0450   16.1869  -32.9359 H   0  0  0  0  0  0  0  0  0  0  0  0
   -5.8763   17.6110  -35.5935 H   0  0  0  0  0  0  0  0  0  0  0  0
   -5.3136   19.8555  -34.6730 H   0  0  0  0  0  0  0  0  0  0  0  0
   -2.7473   22.6304  -29.9197 H   0  0  0  0  0  0  0  0  0  0  0  0
    0.0228   22.4490  -29.2008 H   0  0  0  0  0  0  0  0  0  0  0  0
   -0.1444   20.0496  -28.5437 H   0  0  0  0  0  0  0  0  0  0  0  0
  1  2  1  0
  2  3  2  0
  3  4  1  0
  4  5  2  0
  5  6  1  0
  6  7  2  0
  6  8  2  0
  6  9  1  0
  9 10  1  0
 10 11  2  0
 11 12  1  0
 12 13  2  0
 13 14  1  0
 14 15  1  0
 15 16  1  0
 16 17  2  0
 17 18  1  0
 18 19  2  0
 19 20  1  0
 20 21  1  0
 21 22  2  0
 21 23  2  0
 21 24  1  0
 24 25  2  0
 25 26  1  0
 26 27  2  0
 27 28  1  0
 27 29  1  0
 29 30  1  0
 29 31  2  0
 19 32  1  0
 32 33  2  0
 15 34  2  0
 34 35  1  0
 35 36  2  0
  5 37  1  0
 37 38  2  0
 38  2  1  0
 36 10  1  0
 35 13  1  0
 33 16  1  0
 31 24  1  0
  1 39  1  0
  1 40  1  0
  1 41  1  0
  3 42  1  0
  4 43  1  0
 11 44  1  0
 12 45  1  0
 17 46  1  0
 18 47  1  0
 20 48  1  0
 25 49  1  0
 26 50  1  0
 28 51  1  0
 28 52  1  0
 28 53  1  0
 30 54  1  0
 30 55  1  0
 30 56  1  0
 31 57  1  0
 32 58  1  0
 33 59  1  0
 36 60  1  0
 37 61  1  0
 38 62  1  0
M  CHG  1   9  -1
M  END
>  <UniqueID>  (45) 
44

>  <SMILES>  (45) 
Cc1ccc(S(=O)(=O)[N-]c2ccc3oc(-c4ccc(NS(=O)(=O)c5ccc(C)c(C)c5)cc4)nc3c2)cc1

>  <Energy>  (45) 
112.20620789350792

>  <Genealogy>  (45) 
Cc1ccc(S(=O)(=O)[N-]c2ccc3oc(-c4ccc(NS(=O)(=O)c5ccc(C)c(C)c5)cc4)nc3c2)cc1 (protonated)
Cc1ccc(S(=O)(=O)[N-]c2ccc3oc(-c4ccc(NS(=O)(=O)c5ccc(C)c(C)c5)cc4)nc3c2)cc1 (3D coordinates assigned)
Cc1ccc(S(=O)(=O)[N-]c2ccc3oc(-c4ccc(NS(=O)(=O)c5ccc(C)c(C)c5)cc4)nc3c2)cc1 (optimized conformer: 112.20620789350792 kcal/mol)

>  <smiles>  (45) 
Cc1ccc(S(=O)(=O)Nc2ccc3oc(-c4ccc(NS(=O)(=O)c5ccc(C)c(C)c5)cc4)nc3c2)cc1

>  <score_type>  (45) 
oracle

>  <origin>  (45) 
adgpu

>  <m_score__min__energy>  (45) 
-10.890000000000001

>  <m_primary>  (45) 
energy

$$$$
45:0
     RDKit          3D

 43 45  0  0  0  0  0  0  0  0999 V2000
   -8.8730   21.8190  -30.5960 C   0  0  0  0  0  0  0  0  0  0  0  0
   -8.1390   20.9350  -31.5700 C   0  0  0  0  0  0  0  0  0  0  0  0
   -8.6380   19.6480  -31.8200 C   0  0  0  0  0  0  0  0  0  0  0  0
   -7.9930   18.7920  -32.7140 C   0  0  0  0  0  0  0  0  0  0  0  0
   -6.8310   19.2080  -33.3830 C   0  0  0  0  0  0  0  0  0  0  0  0
   -6.1330   18.3490  -34.3030 N   0  0  0  0  0  0  0  0  0  0  0  0
   -4.4930   17.8260  -34.0890 S   0  0  0  0  0  0  0  0  0  0  0  0
   -3.9220   17.4150  -35.4180 O   0  0  0  0  0  0  0  0  0  0  0  0
   -4.4660   16.6480  -33.1570 O   0  0  0  0  0  0  0  0  0  0  0  0
   -3.5400   19.1220  -33.3930 C   0  0  0  0  0  0  0  0  0  0  0  0
   -3.6620   19.6120  -32.1010 C   0  0  0  0  0  0  0  0  0  0  0  0
   -2.7730   20.6580  -31.8290 C   0  0  0  0  0  0  0  0  0  0  0  0
   -1.9540   20.9860  -32.9020 C   0  0  0  0  0  0  0  0  0  0  0  0
   -2.3340   19.9750  -34.1930 S   0  0  0  0  0  0  0  0  0  0  0  0
   -6.3360   20.4980  -33.1450 C   0  0  0  0  0  0  0  0  0  0  0  0
   -6.9870   21.3770  -32.2660 C   0  0  0  0  0  0  0  0  0  0  0  0
   -6.3130   23.0020  -32.0330 S   0  0  0  0  0  0  0  0  0  0  0  0
   -7.2380   23.9940  -32.6790 O   0  0  0  0  0  0  0  0  0  0  0  0
   -4.9590   23.0880  -32.6820 O   0  0  0  0  0  0  0  0  0  0  0  0
   -6.1640   23.3480  -30.3200 N   0  0  0  0  0  0  0  0  0  0  0  0
   -4.8390   22.9510  -29.7920 C   0  0  0  0  0  0  0  0  0  0  0  0
   -3.8680   24.1400  -29.6660 C   0  0  0  0  0  0  0  0  0  0  0  0
   -4.1180   25.0860  -30.6800 O   0  0  0  0  0  0  0  0  0  0  0  0
   -5.3660   25.7210  -30.4630 C   0  0  0  0  0  0  0  0  0  0  0  0
   -6.4860   24.7520  -30.0150 C   0  0  0  0  0  0  0  0  0  0  0  0
   -8.6233   21.5182  -29.5678 H   0  0  0  0  0  0  0  0  0  0  0  0
   -8.5749   22.8659  -30.7545 H   0  0  0  0  0  0  0  0  0  0  0  0
   -9.9569   21.7184  -30.7545 H   0  0  0  0  0  0  0  0  0  0  0  0
   -9.5490   19.3092  -31.3050 H   0  0  0  0  0  0  0  0  0  0  0  0
   -8.3976   17.7853  -32.8955 H   0  0  0  0  0  0  0  0  0  0  0  0
   -6.6510   17.9520  -35.1190 H   0  0  0  0  0  0  0  0  0  0  0  0
   -4.3818   19.2197  -31.3675 H   0  0  0  0  0  0  0  0  0  0  0  0
   -2.7271   21.1718  -30.8575 H   0  0  0  0  0  0  0  0  0  0  0  0
   -1.1863   21.7738  -32.9071 H   0  0  0  0  0  0  0  0  0  0  0  0
   -5.4199   20.8273  -33.6571 H   0  0  0  0  0  0  0  0  0  0  0  0
   -4.9768   22.5024  -28.7971 H   0  0  0  0  0  0  0  0  0  0  0  0
   -4.3986   22.2367  -30.5033 H   0  0  0  0  0  0  0  0  0  0  0  0
   -4.0036   24.6165  -28.6839 H   0  0  0  0  0  0  0  0  0  0  0  0
   -2.8365   23.7715  -29.7673 H   0  0  0  0  0  0  0  0  0  0  0  0
   -5.2358   26.4859  -29.6832 H   0  0  0  0  0  0  0  0  0  0  0  0
   -5.6793   26.1525  -31.4251 H   0  0  0  0  0  0  0  0  0  0  0  0
   -6.6292   24.8544  -28.9292 H   0  0  0  0  0  0  0  0  0  0  0  0
   -7.4003   25.0156  -30.5670 H   0  0  0  0  0  0  0  0  0  0  0  0
  1  2  1  0
  2  3  2  0
  3  4  1  0
  4  5  2  0
  5  6  1  0
  6  7  1  0
  7  8  2  0
  7  9  2  0
  7 10  1  0
 10 11  2  0
 11 12  1  0
 12 13  2  0
 13 14  1  0
  5 15  1  0
 15 16  2  0
 16 17  1  0
 17 18  2  0
 17 19  2  0
 17 20  1  0
 20 21  1  0
 21 22  1  0
 22 23  1  0
 23 24  1  0
 24 25  1  0
 16  2  1  0
 25 20  1  0
 14 10  1  0
  1 26  1  0
  1 27  1  0
  1 28  1  0
  3 29  1  0
  4 30  1  0
  6 31  1  0
 11 32  1  0
 12 33  1  0
 13 34  1  0
 15 35  1  0
 21 36  1  0
 21 37  1  0
 22 38  1  0
 22 39  1  0
 24 40  1  0
 24 41  1  0
 25 42  1  0
 25 43  1  0
M  END
>  <UniqueID>  (46) 
45

>  <SMILES>  (46) 
Cc1ccc(NS(=O)(=O)c2cccs2)cc1S(=O)(=O)N1CCOCC1

>  <Energy>  (46) 
85.23928075172162

>  <Genealogy>  (46) 
Cc1ccc(NS(=O)(=O)c2cccs2)cc1S(=O)(=O)N1CCOCC1 (3D coordinates assigned)
Cc1ccc(NS(=O)(=O)c2cccs2)cc1S(=O)(=O)N1CCOCC1 (nonaromatic ring conformer: 85.23928075172162 kcal/mol)

>  <smiles>  (46) 
Cc1ccc(NS(=O)(=O)c2cccs2)cc1S(=O)(=O)N1CCOCC1

>  <score_type>  (46) 
oracle

>  <origin>  (46) 
adgpu

>  <m_score__min__energy>  (46) 
-9.75

>  <m_primary>  (46) 
energy

$$$$
46:0
     RDKit          3D

 58 60  0  0  1  0  0  0  0  0999 V2000
   -6.4900   19.8140  -31.1960 O   0  0  0  0  0  0  0  0  0  0  0  0
   -5.5770   20.0840  -32.3880 S   0  0  0  0  0  0  0  0  0  0  0  0
   -6.3540   21.0600  -33.2420 O   0  0  0  0  0  0  0  0  0  0  0  0
   -4.1020   20.7480  -31.8500 N   0  0  0  0  0  0  0  0  0  0  0  0
   -2.8460   20.6170  -32.4850 C   0  0  0  0  0  0  0  0  0  0  0  0
   -2.3090   21.5340  -33.3530 C   0  0  0  0  0  0  0  0  0  0  0  0
   -1.0870   21.3480  -33.9540 C   0  0  0  0  0  0  0  0  0  0  0  0
   -0.4030   20.1880  -33.6510 C   0  0  0  0  0  0  0  0  0  0  0  0
   -0.8710   19.2230  -32.7940 C   0  0  0  0  0  0  0  0  0  0  0  0
   -0.2560   18.0640  -32.4510 O   0  0  0  0  0  0  0  0  0  0  0  0
    0.9200   17.7480  -31.8330 C   0  0  0  0  0  0  0  0  0  0  0  0
    1.0180   18.0030  -30.3550 C   0  0  0  0  0  0  0  0  0  0  0  0
   -0.2610   18.3800  -29.8220 N   0  0  0  0  0  0  0  0  0  0  0  0
   -0.0860   19.1030  -28.5900 C   0  0  0  0  0  0  0  0  0  0  0  0
   -1.1340   20.1280  -28.4220 C   0  0  0  0  0  0  0  0  0  0  0  0
   -2.2120   20.0370  -27.5830 C   0  0  0  0  0  0  0  0  0  0  0  0
   -3.1540   21.0130  -27.4760 C   0  0  0  0  0  0  0  0  0  0  0  0
   -3.0850   22.1950  -28.2270 C   0  0  0  0  0  0  0  0  0  0  0  0
   -4.0840   23.1760  -27.9490 C   0  0  0  0  0  0  0  0  0  0  0  0
   -4.6130   24.0510  -28.7590 C   0  0  0  0  0  0  0  0  0  0  0  0
   -4.3370   24.2420  -30.1470 C   0  0  0  0  0  0  0  0  0  0  0  0
   -3.5740   25.1890  -30.7680 O   0  0  0  0  0  0  0  0  0  0  0  0
   -4.8920   23.3850  -30.9750 N   0  0  0  0  0  0  0  0  0  0  0  0
   -5.6910   22.3620  -30.5490 O   0  0  0  0  0  0  0  0  0  0  0  0
   -2.0080   22.2940  -29.0630 C   0  0  0  0  0  0  0  0  0  0  0  0
   -1.0350   21.2850  -29.1750 C   0  0  0  0  0  0  0  0  0  0  0  0
   -2.1220   19.4750  -32.2150 C   0  0  0  0  0  0  0  0  0  0  0  0
   -5.4400   18.5670  -33.2260 C   0  0  0  0  0  0  0  0  0  0  0  0
   -5.9590   17.3890  -32.6820 C   0  0  0  0  0  0  0  0  0  0  0  0
   -5.8550   16.1750  -33.3200 C   0  0  0  0  0  0  0  0  0  0  0  0
   -5.2160   16.1230  -34.5410 C   0  0  0  0  0  0  0  0  0  0  0  0
   -4.6860   17.2560  -35.1210 C   0  0  0  0  0  0  0  0  0  0  0  0
   -4.8190   18.4640  -34.4310 C   0  0  0  0  0  0  0  0  0  0  0  0
   -4.0960   21.3230  -30.9520 H   0  0  0  0  0  0  0  0  0  0  0  0
   -2.8762   22.4498  -33.5756 H   0  0  0  0  0  0  0  0  0  0  0  0
   -0.6711   22.0931  -34.6481 H   0  0  0  0  0  0  0  0  0  0  0  0
    0.5765   20.0270  -34.1250 H   0  0  0  0  0  0  0  0  0  0  0  0
    1.0991   16.6748  -31.9947 H   0  0  0  0  0  0  0  0  0  0  0  0
    1.6632   18.4224  -32.2834 H   0  0  0  0  0  0  0  0  0  0  0  0
    1.3638   17.0878  -29.8522 H   0  0  0  0  0  0  0  0  0  0  0  0
    1.7301   18.8235  -30.1828 H   0  0  0  0  0  0  0  0  0  0  0  0
   -0.8350   17.5450  -29.6450 H   0  0  0  0  0  0  0  0  0  0  0  0
   -0.1365   18.3964  -27.7485 H   0  0  0  0  0  0  0  0  0  0  0  0
    0.8925   19.6048  -28.6154 H   0  0  0  0  0  0  0  0  0  0  0  0
   -2.3217   19.1326  -26.9666 H   0  0  0  0  0  0  0  0  0  0  0  0
   -3.9940   20.8706  -26.7802 H   0  0  0  0  0  0  0  0  0  0  0  0
   -4.4573   23.1969  -26.9145 H   0  0  0  0  0  0  0  0  0  0  0  0
   -5.3636   24.7241  -28.3190 H   0  0  0  0  0  0  0  0  0  0  0  0
   -3.8830   25.6710  -31.6040 H   0  0  0  0  0  0  0  0  0  0  0  0
   -6.2750   21.8380  -31.1640 H   0  0  0  0  0  0  0  0  0  0  0  0
   -1.8978   23.2018  -29.6743 H   0  0  0  0  0  0  0  0  0  0  0  0
   -0.1892   21.4162  -29.8660 H   0  0  0  0  0  0  0  0  0  0  0  0
   -2.5422   18.7340  -31.5190 H   0  0  0  0  0  0  0  0  0  0  0  0
   -6.4691   17.4343  -31.7085 H   0  0  0  0  0  0  0  0  0  0  0  0
   -6.2728   15.2644  -32.8658 H   0  0  0  0  0  0  0  0  0  0  0  0
   -5.1274   15.1585  -35.0625 H   0  0  0  0  0  0  0  0  0  0  0  0
   -4.1755   17.2106  -36.0943 H   0  0  0  0  0  0  0  0  0  0  0  0
   -4.4013   19.3750  -34.8845 H   0  0  0  0  0  0  0  0  0  0  0  0
  1  2  2  0
  2  3  2  0
  2  4  1  0
  4  5  1  0
  5  6  2  0
  6  7  1  0
  7  8  2  0
  8  9  1  0
  9 10  1  0
 10 11  1  0
 11 12  1  0
 12 13  1  0
 13 14  1  0
 14 15  1  0
 15 16  2  0
 16 17  1  0
 17 18  2  0
 18 19  1  0
 19 20  2  0
 20 21  1  0
 21 22  1  0
 21 23  2  0
 23 24  1  0
 18 25  1  0
 25 26  2  0
  9 27  2  0
  2 28  1  0
 28 29  2  0
 29 30  1  0
 30 31  2  0
 31 32  1  0
 32 33  2  0
 27  5  1  0
 33 28  1  0
 26 15  1  0
  4 34  1  0
  6 35  1  0
  7 36  1  0
  8 37  1  0
 11 38  1  0
 11 39  1  0
 12 40  1  0
 12 41  1  0
 13 42  1  0
 14 43  1  0
 14 44  1  0
 16 45  1  0
 17 46  1  0
 19 47  1  0
 20 48  1  0
 22 49  1  0
 24 50  1  0
 25 51  1  0
 26 52  1  0
 27 53  1  0
 29 54  1  0
 30 55  1  0
 31 56  1  0
 32 57  1  0
 33 58  1  0
M  END
>  <smiles>  (47) 
O=S(=O)(Nc1cccc(OCCNCc2ccc(C=CC(O)=NO)cc2)c1)c1ccccc1

>  <score_type>  (47) 
oracle

>  <origin>  (47) 
adgpu

>  <m_score__min__energy>  (47) 
-10.69

>  <m_primary>  (47) 
energy

$$$$
