0:0
     RDKit          3D

 33 34  0  0  0  0  0  0  0  0999 V2000
   -5.6160   26.0500  -30.4610 C   0  0  0  0  0  0  0  0  0  0  0  0
   -4.2580   25.6690  -30.6540 O   0  0  0  0  0  0  0  0  0  0  0  0
   -3.7600   24.3690  -30.4690 C   0  0  0  0  0  0  0  0  0  0  0  0
   -4.3830   23.2440  -31.0470 C   0  0  0  0  0  0  0  0  0  0  0  0
   -3.8390   21.9620  -30.8900 C   0  0  0  0  0  0  0  0  0  0  0  0
   -4.4880   20.8400  -31.5150 N   0  0  0  0  0  0  0  0  0  0  0  0
   -5.9060   20.7460  -31.7250 C   0  0  0  0  0  0  0  0  0  0  0  0
   -6.6420   21.7590  -31.5790 O   0  0  0  0  0  0  0  0  0  0  0  0
   -6.5030   19.4730  -32.1520 C   0  0  0  0  0  0  0  0  0  0  0  0
   -7.8240   19.0980  -31.9820 C   0  0  0  0  0  0  0  0  0  0  0  0
   -7.9280   17.8370  -32.5300 C   0  0  0  0  0  0  0  0  0  0  0  0
   -6.6680   17.5250  -32.9960 C   0  0  0  0  0  0  0  0  0  0  0  0
   -6.1750   15.9000  -33.8620 Br  0  0  0  0  0  0  0  0  0  0  0  0
   -5.8390   18.5140  -32.7580 O   0  0  0  0  0  0  0  0  0  0  0  0
   -2.6340   21.8100  -30.1860 C   0  0  0  0  0  0  0  0  0  0  0  0
   -2.0150   22.9170  -29.6040 C   0  0  0  0  0  0  0  0  0  0  0  0
   -2.5870   24.1880  -29.7090 C   0  0  0  0  0  0  0  0  0  0  0  0
   -1.9140   25.2970  -29.0950 N   0  0  0  0  0  0  0  0  0  0  0  0
   -0.9730   25.2110  -28.0160 C   0  0  0  0  0  0  0  0  0  0  0  0
   -1.3730   25.4570  -26.5920 C   0  0  0  0  0  0  0  0  0  0  0  0
    0.2170   24.8910  -28.2690 O   0  0  0  0  0  0  0  0  0  0  0  0
   -5.8304   26.1102  -29.3838 H   0  0  0  0  0  0  0  0  0  0  0  0
   -5.7909   27.0319  -30.9250 H   0  0  0  0  0  0  0  0  0  0  0  0
   -6.2761   25.3024  -30.9250 H   0  0  0  0  0  0  0  0  0  0  0  0
   -5.3076   23.3741  -31.6285 H   0  0  0  0  0  0  0  0  0  0  0  0
   -3.8820   20.0880  -31.9170 H   0  0  0  0  0  0  0  0  0  0  0  0
   -8.6250   19.6842  -31.5080 H   0  0  0  0  0  0  0  0  0  0  0  0
   -8.8298   17.2094  -32.5843 H   0  0  0  0  0  0  0  0  0  0  0  0
   -2.1759   20.8143  -30.0928 H   0  0  0  0  0  0  0  0  0  0  0  0
   -1.0688   22.7882  -29.0579 H   0  0  0  0  0  0  0  0  0  0  0  0
   -0.6319   25.0012  -25.9190 H   0  0  0  0  0  0  0  0  0  0  0  0
   -1.4198   26.5402  -26.4062 H   0  0  0  0  0  0  0  0  0  0  0  0
   -2.3608   25.0101  -26.4062 H   0  0  0  0  0  0  0  0  0  0  0  0
  1  2  1  0
  2  3  1  0
  3  4  2  0
  4  5  1  0
  5  6  1  0
  6  7  1  0
  7  8  2  0
  7  9  1  0
  9 10  2  0
 10 11  1  0
 11 12  2  0
 12 13  1  0
 12 14  1  0
  5 15  2  0
 15 16  1  0
 16 17  2  0
 17 18  1  0
 18 19  1  0
 19 20  1  0
 19 21  2  0
 17  3  1  0
 14  9  1  0
  1 22  1  0
  1 23  1  0
  1 24  1  0
  4 25  1  0
  6 26  1  0
 10 27  1  0
 11 28  1  0
 15 29  1  0
 16 30  1  0
 20 31  1  0
 20 32  1  0
 20 33  1  0
M  CHG  1  18  -1
M  END
>  <UniqueID>  (1) 
1

>  <SMILES>  (1) 
COc1cc(NC(=O)c2ccc(Br)o2)ccc1[N-]C(C)=O

>  <Energy>  (1) 
65.87481943264257

>  <Genealogy>  (1) 
COc1cc(NC(=O)c2ccc(Br)o2)ccc1[N-]C(C)=O (protonated)
COc1cc(NC(=O)c2ccc(Br)o2)ccc1[N-]C(C)=O (3D coordinates assigned)
COc1cc(NC(=O)c2ccc(Br)o2)ccc1[N-]C(C)=O (optimized conformer: 65.87481943264257 kcal/mol)

>  <smiles>  (1) 
COc1cc(NC(=O)c2ccc(Br)o2)ccc1NC(C)=O

>  <score_type>  (1) 
oracle

>  <origin>  (1) 
adgpu

>  <m_score__min__energy>  (1) 
-9.2300000000000004

>  <m_primary>  (1) 
energy

$$$$
1:0
     RDKit          3D

 45 48  0  0  0  0  0  0  0  0999 V2000
   -1.3620   25.3120  -28.4320 C   0  0  0  0  0  0  0  0  0  0  0  0
   -1.7790   24.0650  -29.1600 C   0  0  0  0  0  0  0  0  0  0  0  0
   -1.1290   22.8470  -28.9020 C   0  0  0  0  0  0  0  0  0  0  0  0
   -1.5290   21.6710  -29.5580 C   0  0  0  0  0  0  0  0  0  0  0  0
   -0.8760   20.4160  -29.3060 N   0  0  0  0  0  0  0  0  0  0  0  0
   -0.5700   19.9370  -27.9830 C   0  0  0  0  0  0  0  0  0  0  0  0
   -1.1260   20.4640  -26.9810 O   0  0  0  0  0  0  0  0  0  0  0  0
    0.3580   18.7960  -27.7800 C   0  0  0  0  0  0  0  0  0  0  0  0
    1.7420   18.9570  -27.9900 C   0  0  0  0  0  0  0  0  0  0  0  0
    2.6120   17.8840  -27.7970 C   0  0  0  0  0  0  0  0  0  0  0  0
    2.0960   16.6510  -27.3940 C   0  0  0  0  0  0  0  0  0  0  0  0
    0.7600   16.5000  -27.2060 N   0  0  0  0  0  0  0  0  0  0  0  0
   -0.1110   17.5290  -27.3910 C   0  0  0  0  0  0  0  0  0  0  0  0
   -2.5610   21.7310  -30.5050 C   0  0  0  0  0  0  0  0  0  0  0  0
   -3.2280   22.9350  -30.7550 C   0  0  0  0  0  0  0  0  0  0  0  0
   -4.5790   22.9700  -31.9380 S   0  0  0  0  0  0  0  0  0  0  0  0
   -3.9860   21.5060  -32.7990 C   0  0  0  0  0  0  0  0  0  0  0  0
   -2.6770   21.4620  -33.1620 N   0  0  0  0  0  0  0  0  0  0  0  0
   -2.1620   20.4040  -33.8390 C   0  0  0  0  0  0  0  0  0  0  0  0
   -2.9590   19.3570  -34.1750 N   0  0  0  0  0  0  0  0  0  0  0  0
   -4.2740   19.3420  -33.8370 C   0  0  0  0  0  0  0  0  0  0  0  0
   -5.0720   18.2480  -34.1930 C   0  0  0  0  0  0  0  0  0  0  0  0
   -6.4210   18.2160  -33.8290 C   0  0  0  0  0  0  0  0  0  0  0  0
   -6.9850   19.2750  -33.1050 C   0  0  0  0  0  0  0  0  0  0  0  0
   -8.3600   19.2260  -32.7150 N   0  0  0  0  0  0  0  0  0  0  0  0
   -6.1910   20.3760  -32.7510 C   0  0  0  0  0  0  0  0  0  0  0  0
   -4.8320   20.4230  -33.1170 C   0  0  0  0  0  0  0  0  0  0  0  0
   -2.8410   24.1040  -30.0820 C   0  0  0  0  0  0  0  0  0  0  0  0
   -3.5060   25.3010  -30.3310 O   0  0  0  0  0  0  0  0  0  0  0  0
   -1.4196   25.1398  -27.3471 H   0  0  0  0  0  0  0  0  0  0  0  0
   -0.3288   25.5696  -28.7080 H   0  0  0  0  0  0  0  0  0  0  0  0
   -2.0324   26.1393  -28.7080 H   0  0  0  0  0  0  0  0  0  0  0  0
   -0.2997   22.8137  -28.1801 H   0  0  0  0  0  0  0  0  0  0  0  0
   -0.7760   19.7510  -30.1060 H   0  0  0  0  0  0  0  0  0  0  0  0
    2.1379   19.9329  -28.3075 H   0  0  0  0  0  0  0  0  0  0  0  0
    3.6927   18.0079  -27.9605 H   0  0  0  0  0  0  0  0  0  0  0  0
    2.7733   15.8002  -27.2285 H   0  0  0  0  0  0  0  0  0  0  0  0
   -1.1880   17.3686  -27.2353 H   0  0  0  0  0  0  0  0  0  0  0  0
   -2.8487   20.8236  -31.0562 H   0  0  0  0  0  0  0  0  0  0  0  0
   -1.0975   20.3948  -34.1159 H   0  0  0  0  0  0  0  0  0  0  0  0
   -4.6364   17.4122  -34.7602 H   0  0  0  0  0  0  0  0  0  0  0  0
   -7.0436   17.3546  -34.1124 H   0  0  0  0  0  0  0  0  0  0  0  0
   -8.6270   19.1810  -31.7070 H   0  0  0  0  0  0  0  0  0  0  0  0
   -9.1200   19.2070  -33.4310 H   0  0  0  0  0  0  0  0  0  0  0  0
   -6.6330   21.2083  -32.1836 H   0  0  0  0  0  0  0  0  0  0  0  0
  1  2  1  0
  2  3  2  0
  3  4  1  0
  4  5  1  0
  5  6  1  0
  6  7  2  0
  6  8  1  0
  8  9  2  0
  9 10  1  0
 10 11  2  0
 11 12  1  0
 12 13  2  0
  4 14  2  0
 14 15  1  0
 15 16  1  0
 16 17  1  0
 17 18  2  0
 18 19  1  0
 19 20  2  0
 20 21  1  0
 21 22  2  0
 22 23  1  0
 23 24  2  0
 24 25  1  0
 24 26  1  0
 26 27  2  0
 15 28  2  0
 28 29  1  0
 28  2  1  0
 13  8  1  0
 27 17  1  0
 27 21  1  0
  1 30  1  0
  1 31  1  0
  1 32  1  0
  3 33  1  0
  5 34  1  0
  9 35  1  0
 10 36  1  0
 11 37  1  0
 13 38  1  0
 14 39  1  0
 19 40  1  0
 22 41  1  0
 23 42  1  0
 25 43  1  0
 25 44  1  0
 26 45  1  0
M  CHG  1  29  -1
M  END
>  <UniqueID>  (2) 
2

>  <SMILES>  (2) 
Cc1cc(NC(=O)c2cccnc2)cc(Sc2ncnc3ccc(N)cc23)c1[O-]

>  <Energy>  (2) 
56.184298605458096

>  <Genealogy>  (2) 
Cc1cc(NC(=O)c2cccnc2)cc(Sc2ncnc3ccc(N)cc23)c1[O-] (protonated)
Cc1cc(NC(=O)c2cccnc2)cc(Sc2ncnc3ccc(N)cc23)c1[O-] (3D coordinates assigned)
Cc1cc(NC(=O)c2cccnc2)cc(Sc2ncnc3ccc(N)cc23)c1[O-] (optimized conformer: 56.184298605458096 kcal/mol)

>  <smiles>  (2) 
Cc1cc(NC(=O)c2cccnc2)cc(Sc2ncnc3ccc(N)cc23)c1O

>  <score_type>  (2) 
oracle

>  <origin>  (2) 
adgpu

>  <m_score__min__energy>  (2) 
-11.23

>  <m_primary>  (2) 
energy

$$$$
2:0
     RDKit          3D

 52 54  0  0  0  0  0  0  0  0999 V2000
   -1.6299   21.6118  -34.8476 H   0  0  0  0  0  0  0  0  0  0  0  0
   -1.9070   20.8120  -34.1450 C   0  0  0  0  0  0  0  0  0  0  0  0
   -2.9320   21.0210  -33.2180 C   0  0  0  0  0  0  0  0  0  0  0  0
   -3.4642   21.9835  -33.2006 H   0  0  0  0  0  0  0  0  0  0  0  0
   -3.2880   20.0110  -32.3080 C   0  0  0  0  0  0  0  0  0  0  0  0
   -4.3940   20.2890  -31.3150 C   0  0  0  0  0  0  0  0  0  0  0  0
   -4.0223   20.0573  -30.3059 H   0  0  0  0  0  0  0  0  0  0  0  0
   -5.2499   19.6591  -31.5990 H   0  0  0  0  0  0  0  0  0  0  0  0
   -4.8630   21.6950  -31.3310 N   0  0  0  0  0  0  0  0  0  0  0  0
   -3.9660   22.6600  -30.9140 C   0  0  0  0  0  0  0  0  0  0  0  0
   -2.7500   22.3680  -30.7330 O   0  0  0  0  0  0  0  0  0  0  0  0
   -4.3800   23.9850  -30.7140 C   0  0  0  0  0  0  0  0  0  0  0  0
   -3.4890   25.0140  -30.2540 N   0  0  0  0  0  0  0  0  0  0  0  0
   -2.6410   24.9160  -29.1050 C   0  0  0  0  0  0  0  0  0  0  0  0
   -1.6180   25.6440  -28.9990 O   0  0  0  0  0  0  0  0  0  0  0  0
   -2.9090   23.8650  -28.0820 C   0  0  0  0  0  0  0  0  0  0  0  0
   -2.7991   24.2961  -27.0760 H   0  0  0  0  0  0  0  0  0  0  0  0
   -3.9331   23.4837  -28.2076 H   0  0  0  0  0  0  0  0  0  0  0  0
   -2.1925   23.0398  -28.2076 H   0  0  0  0  0  0  0  0  0  0  0  0
   -5.6860   24.3210  -31.0230 C   0  0  0  0  0  0  0  0  0  0  0  0
   -6.0311   25.3577  -30.8959 H   0  0  0  0  0  0  0  0  0  0  0  0
   -6.5390   23.3770  -31.4810 N   0  0  0  0  0  0  0  0  0  0  0  0
   -7.5120   23.6720  -31.7250 H   0  0  0  0  0  0  0  0  0  0  0  0
   -6.1600   22.0800  -31.6670 C   0  0  0  0  0  0  0  0  0  0  0  0
   -7.0650   21.2860  -32.1910 N   0  0  0  0  0  0  0  0  0  0  0  0
   -7.0130   19.9330  -32.6520 C   0  0  0  0  0  0  0  0  0  0  0  0
   -7.7640   18.9500  -31.9990 C   0  0  0  0  0  0  0  0  0  0  0  0
   -8.4363   19.2309  -31.1749 H   0  0  0  0  0  0  0  0  0  0  0  0
   -7.6630   17.6130  -32.3900 C   0  0  0  0  0  0  0  0  0  0  0  0
   -8.2772   16.8491  -31.8909 H   0  0  0  0  0  0  0  0  0  0  0  0
   -6.7840   17.2400  -33.4140 C   0  0  0  0  0  0  0  0  0  0  0  0
   -6.7360   15.9000  -33.8080 O   0  0  0  0  0  0  0  0  0  0  0  0
   -5.5480   15.1100  -33.7350 C   0  0  0  0  0  0  0  0  0  0  0  0
   -4.8550   15.4050  -34.5367 H   0  0  0  0  0  0  0  0  0  0  0  0
   -4.8440   15.3360  -32.3950 C   0  0  0  0  0  0  0  0  0  0  0  0
   -5.5399   15.1126  -31.5729 H   0  0  0  0  0  0  0  0  0  0  0  0
   -3.9685   14.6738  -32.3245 H   0  0  0  0  0  0  0  0  0  0  0  0
   -4.5176   16.3841  -32.3245 H   0  0  0  0  0  0  0  0  0  0  0  0
   -5.9220   13.6390  -33.9050 C   0  0  0  0  0  0  0  0  0  0  0  0
   -6.0402   13.1740  -32.9152 H   0  0  0  0  0  0  0  0  0  0  0  0
   -6.8680   13.5631  -34.4611 H   0  0  0  0  0  0  0  0  0  0  0  0
   -5.1271   13.1205  -34.4611 H   0  0  0  0  0  0  0  0  0  0  0  0
   -5.9900   18.2210  -34.0400 C   0  0  0  0  0  0  0  0  0  0  0  0
   -4.9360   17.8180  -35.3870 Cl  0  0  0  0  0  0  0  0  0  0  0  0
   -6.0810   19.5560  -33.6300 C   0  0  0  0  0  0  0  0  0  0  0  0
   -5.4190   20.3126  -34.0765 H   0  0  0  0  0  0  0  0  0  0  0  0
   -2.6370   18.7650  -32.3810 C   0  0  0  0  0  0  0  0  0  0  0  0
   -2.9386   17.9485  -31.7084 H   0  0  0  0  0  0  0  0  0  0  0  0
   -1.6080   18.5620  -33.3060 C   0  0  0  0  0  0  0  0  0  0  0  0
   -1.0909   17.5920  -33.3464 H   0  0  0  0  0  0  0  0  0  0  0  0
   -1.2340   19.5880  -34.1800 C   0  0  0  0  0  0  0  0  0  0  0  0
    0.0660   19.3330  -35.3290 Cl  0  0  0  0  0  0  0  0  0  0  0  0
  1  2  1  0
  2  3  2  0
  3  4  1  0
  3  5  1  0
  5  6  1  0
  6  7  1  0
  6  8  1  0
  6  9  1  0
  9 10  1  0
 10 11  2  0
 10 12  1  0
 12 13  1  0
 13 14  1  0
 14 15  2  0
 14 16  1  0
 16 17  1  0
 16 18  1  0
 16 19  1  0
 12 20  2  0
 20 21  1  0
 20 22  1  0
 22 23  1  0
 22 24  1  0
 24 25  2  0
 25 26  1  0
 26 27  2  0
 27 28  1  0
 27 29  1  0
 29 30  1  0
 29 31  2  0
 31 32  1  0
 32 33  1  0
 33 34  1  0
 33 35  1  0
 35 36  1  0
 35 37  1  0
 35 38  1  0
 33 39  1  0
 39 40  1  0
 39 41  1  0
 39 42  1  0
 31 43  1  0
 43 44  1  0
 43 45  2  0
 45 46  1  0
  5 47  2  0
 47 48  1  0
 47 49  1  0
 49 50  1  0
 49 51  2  0
 51 52  1  0
 51  2  1  0
 24  9  1  0
 45 26  1  0
M  CHG  1  13  -1
M  END
>  <UniqueID>  (3) 
3

>  <SMILES>  (3) 
CC(=O)[N-]c1c[nH]/c(=N/c2ccc(OC(C)C)c(Cl)c2)n(Cc2ccc(Cl)cc2)c1=O

>  <Energy>  (3) 
84.53828164639056

>  <Genealogy>  (3) 
CC(=O)[N-]c1c[nH]c(=Nc2ccc(OC(C)C)c(Cl)c2)n(Cc2ccc(Cl)cc2)c1=O (protonated)
CC(=O)[N-]c1c[nH]/c(=N/c2ccc(OC(C)C)c(Cl)c2)n(Cc2ccc(Cl)cc2)c1=O (cis-trans isomerization)
CC(=O)[N-]c1c[nH]/c(=N/c2ccc(OC(C)C)c(Cl)c2)n(Cc2ccc(Cl)cc2)c1=O (3D coordinates assigned)
CC(=O)[N-]c1c[nH]/c(=N/c2ccc(OC(C)C)c(Cl)c2)n(Cc2ccc(Cl)cc2)c1=O (optimized conformer: 84.53828164639056 kcal/mol)

>  <smiles>  (3) 
CC(=O)Nc1c[nH]c(=Nc2ccc(OC(C)C)c(Cl)c2)n(Cc2ccc(Cl)cc2)c1=O

>  <score_type>  (3) 
oracle

>  <origin>  (3) 
adgpu

>  <m_score__min__energy>  (3) 
-10.289999999999999

>  <m_primary>  (3) 
energy

$$$$
3:0
     RDKit          3D

 26 27  0  0  0  0  0  0  0  0999 V2000
   -7.6173   17.1402  -33.3414 H   0  0  0  0  0  0  0  0  0  0  0  0
   -7.2330   18.1390  -33.0870 C   0  0  0  0  0  0  0  0  0  0  0  0
   -5.8800   18.4070  -33.1820 C   0  0  0  0  0  0  0  0  0  0  0  0
   -5.1830   17.6167  -33.4977 H   0  0  0  0  0  0  0  0  0  0  0  0
   -5.4010   19.6770  -32.8780 C   0  0  0  0  0  0  0  0  0  0  0  0
   -4.3228   19.8746  -32.9694 H   0  0  0  0  0  0  0  0  0  0  0  0
   -6.2610   20.7310  -32.4520 C   0  0  0  0  0  0  0  0  0  0  0  0
   -5.6640   22.0070  -32.2750 C   0  0  0  0  0  0  0  0  0  0  0  0
   -4.4980   22.1560  -32.7520 O   0  0  0  0  0  0  0  0  0  0  0  0
   -6.1810   23.1320  -31.5960 C   0  0  0  0  0  0  0  0  0  0  0  0
   -5.3640   24.1530  -31.4950 N   0  0  0  0  0  0  0  0  0  0  0  0
   -5.6080   25.4390  -30.8430 C   0  0  0  0  0  0  0  0  0  0  0  0
   -6.5363   25.8791  -31.2360 H   0  0  0  0  0  0  0  0  0  0  0  0
   -4.7664   26.1180  -31.0447 H   0  0  0  0  0  0  0  0  0  0  0  0
   -5.7420   25.2290  -29.3420 C   0  0  0  0  0  0  0  0  0  0  0  0
   -5.2240   26.0409  -28.8105 H   0  0  0  0  0  0  0  0  0  0  0  0
   -6.8066   25.2303  -29.0652 H   0  0  0  0  0  0  0  0  0  0  0  0
   -5.2923   24.2640  -29.0652 H   0  0  0  0  0  0  0  0  0  0  0  0
   -7.4120   23.2120  -31.0090 N   0  0  0  0  0  0  0  0  0  0  0  0
   -7.6160   24.0370  -30.4080 H   0  0  0  0  0  0  0  0  0  0  0  0
   -8.4860   22.4720  -31.2440 N   0  0  0  0  0  0  0  0  0  0  0  0
   -8.6440   21.3120  -31.9040 C   0  0  0  0  0  0  0  0  0  0  0  0
   -9.6787   21.0244  -32.1419 H   0  0  0  0  0  0  0  0  0  0  0  0
   -7.6470   20.4310  -32.3220 C   0  0  0  0  0  0  0  0  0  0  0  0
   -8.1050   19.1360  -32.6690 C   0  0  0  0  0  0  0  0  0  0  0  0
   -9.1805   18.9141  -32.6056 H   0  0  0  0  0  0  0  0  0  0  0  0
  1  2  1  0
  2  3  2  0
  3  4  1  0
  3  5  1  0
  5  6  1  0
  5  7  2  0
  7  8  1  0
  8  9  2  0
  8 10  1  0
 10 11  2  0
 11 12  1  0
 12 13  1  0
 12 14  1  0
 12 15  1  0
 15 16  1  0
 15 17  1  0
 15 18  1  0
 10 19  1  0
 19 20  1  0
 19 21  1  0
 21 22  2  0
 22 23  1  0
 22 24  1  0
 24 25  2  0
 25 26  1  0
 25  2  1  0
 24  7  1  0
M  END
>  <UniqueID>  (4) 
4

>  <SMILES>  (4) 
CC/N=c1\[nH]ncc2ccccc2c1=O

>  <Energy>  (4) 
65.36117233199117

>  <Genealogy>  (4) 
CC/N=c1\[nH]ncc2ccccc2c1=O (cis-trans isomerization)
CC/N=c1\[nH]ncc2ccccc2c1=O (3D coordinates assigned)
CC/N=c1\[nH]ncc2ccccc2c1=O (optimized conformer: 65.36117233199117 kcal/mol)

>  <smiles>  (4) 
CCN=c1[nH]ncc2ccccc2c1=O

>  <score_type>  (4) 
oracle

>  <origin>  (4) 
adgpu

>  <m_score__min__energy>  (4) 
-6.3399999999999999

>  <m_primary>  (4) 
energy

$$$$
4:0
     RDKit          3D

 47 49  0  0  0  0  0  0  0  0999 V2000
    0.0494   23.6987  -25.3982 H   0  0  0  0  0  0  0  0  0  0  0  0
    0.8200   24.1240  -26.0580 C   0  0  0  0  0  0  0  0  0  0  0  0
    1.7900   24.9830  -25.6820 N   0  0  0  0  0  0  0  0  0  0  0  0
    2.4840   25.3040  -26.7670 N   0  0  0  0  0  0  0  0  0  0  0  0
    3.6560   26.1700  -26.7540 C   0  0  0  0  0  0  0  0  0  0  0  0
    3.9434   26.3824  -25.7137 H   0  0  0  0  0  0  0  0  0  0  0  0
    4.4884   25.6683  -27.2693 H   0  0  0  0  0  0  0  0  0  0  0  0
    3.4209   27.1130  -27.2693 H   0  0  0  0  0  0  0  0  0  0  0  0
    1.9960   24.6530  -27.8430 C   0  0  0  0  0  0  0  0  0  0  0  0
    2.3643   24.7369  -28.8761 H   0  0  0  0  0  0  0  0  0  0  0  0
    0.9550   23.8660  -27.4130 C   0  0  0  0  0  0  0  0  0  0  0  0
    0.0310   23.1670  -28.2580 N   0  0  0  0  0  0  0  0  0  0  0  0
   -1.0310   23.6270  -28.8610 C   0  0  0  0  0  0  0  0  0  0  0  0
   -1.6620   22.8050  -29.7450 N   0  0  0  0  0  0  0  0  0  0  0  0
   -2.7730   23.1820  -30.4370 C   0  0  0  0  0  0  0  0  0  0  0  0
   -3.3750   22.2430  -31.4210 C   0  0  0  0  0  0  0  0  0  0  0  0
   -2.5460   21.3850  -32.1670 C   0  0  0  0  0  0  0  0  0  0  0  0
   -1.4610   21.3797  -31.9858 H   0  0  0  0  0  0  0  0  0  0  0  0
   -3.0910   20.5410  -33.1350 C   0  0  0  0  0  0  0  0  0  0  0  0
   -2.4340   19.8763  -33.7151 H   0  0  0  0  0  0  0  0  0  0  0  0
   -4.4670   20.5370  -33.3700 C   0  0  0  0  0  0  0  0  0  0  0  0
   -4.8862   19.8910  -34.1555 H   0  0  0  0  0  0  0  0  0  0  0  0
   -5.3160   21.3510  -32.6110 C   0  0  0  0  0  0  0  0  0  0  0  0
   -6.7230   21.3650  -32.8980 N   0  0  0  0  0  0  0  0  0  0  0  0
   -7.1140   22.1990  -33.3950 H   0  0  0  0  0  0  0  0  0  0  0  0
   -7.6150   20.2980  -32.5400 C   0  0  0  0  0  0  0  0  0  0  0  0
   -7.1710   19.1310  -32.3530 O   0  0  0  0  0  0  0  0  0  0  0  0
   -9.0890   20.5670  -32.3930 C   0  0  0  0  0  0  0  0  0  0  0  0
   -9.5613   19.6858  -31.9344 H   0  0  0  0  0  0  0  0  0  0  0  0
   -9.4861   20.7720  -33.3981 H   0  0  0  0  0  0  0  0  0  0  0  0
   -9.3980   21.8050  -31.5140 C   0  0  0  0  0  0  0  0  0  0  0  0
  -10.4092   21.6461  -31.1113 H   0  0  0  0  0  0  0  0  0  0  0  0
   -9.4230   23.1110  -32.3300 C   0  0  0  0  0  0  0  0  0  0  0  0
   -9.4395   23.9713  -31.6447 H   0  0  0  0  0  0  0  0  0  0  0  0
   -8.5257   23.1644  -32.9641 H   0  0  0  0  0  0  0  0  0  0  0  0
  -10.3217   23.1300  -32.9641 H   0  0  0  0  0  0  0  0  0  0  0  0
   -8.4300   21.9260  -30.3220 C   0  0  0  0  0  0  0  0  0  0  0  0
   -8.9960   21.8553  -29.3814 H   0  0  0  0  0  0  0  0  0  0  0  0
   -7.6900   21.1134  -30.3667 H   0  0  0  0  0  0  0  0  0  0  0  0
   -7.9128   22.8958  -30.3667 H   0  0  0  0  0  0  0  0  0  0  0  0
   -4.7670   22.2020  -31.6370 C   0  0  0  0  0  0  0  0  0  0  0  0
   -5.4303   22.8425  -31.0372 H   0  0  0  0  0  0  0  0  0  0  0  0
   -3.2840   24.4760  -30.2290 C   0  0  0  0  0  0  0  0  0  0  0  0
   -4.1642   24.8195  -30.7923 H   0  0  0  0  0  0  0  0  0  0  0  0
   -2.6860   25.2990  -29.3300 N   0  0  0  0  0  0  0  0  0  0  0  0
   -1.5840   24.9140  -28.6310 C   0  0  0  0  0  0  0  0  0  0  0  0
   -1.1120   25.7020  -27.7710 O   0  0  0  0  0  0  0  0  0  0  0  0
  1  2  1  0
  2  3  2  0
  3  4  1  0
  4  5  1  0
  5  6  1  0
  5  7  1  0
  5  8  1  0
  4  9  1  0
  9 10  1  0
  9 11  2  0
 11 12  1  0
 12 13  2  0
 13 14  1  0
 14 15  1  0
 15 16  1  0
 16 17  2  0
 17 18  1  0
 17 19  1  0
 19 20  1  0
 19 21  2  0
 21 22  1  0
 21 23  1  0
 23 24  1  0
 24 25  1  0
 24 26  1  0
 26 27  2  0
 26 28  1  0
 28 29  1  0
 28 30  1  0
 28 31  1  0
 31 32  1  0
 31 33  1  0
 33 34  1  0
 33 35  1  0
 33 36  1  0
 31 37  1  0
 37 38  1  0
 37 39  1  0
 37 40  1  0
 23 41  2  0
 41 42  1  0
 15 43  2  0
 43 44  1  0
 43 45  1  0
 45 46  1  0
 46 47  2  0
 11  2  1  0
 46 13  1  0
 41 16  1  0
M  CHG  2  14  -1  45  -1
M  END
>  <UniqueID>  (5) 
5

>  <SMILES>  (5) 
CC(C)CC(=O)Nc1cccc(-c2c[n-]c(=O)/c(=N\c3cnn(C)c3)[n-]2)c1

>  <Energy>  (5) 
95.04041459478921

>  <Genealogy>  (5) 
CC(C)CC(=O)Nc1cccc(-c2c[n-]c(=O)c(=Nc3cnn(C)c3)[n-]2)c1 (protonated)
CC(C)CC(=O)Nc1cccc(-c2c[n-]c(=O)/c(=N\c3cnn(C)c3)[n-]2)c1 (cis-trans isomerization)
CC(C)CC(=O)Nc1cccc(-c2c[n-]c(=O)/c(=N\c3cnn(C)c3)[n-]2)c1 (3D coordinates assigned)
CC(C)CC(=O)Nc1cccc(-c2c[n-]c(=O)/c(=N\c3cnn(C)c3)[n-]2)c1 (optimized conformer: 95.04041459478921 kcal/mol)

>  <smiles>  (5) 
CC(C)CC(=O)Nc1cccc(-c2c[nH]c(=O)c(=Nc3cnn(C)c3)[nH]2)c1

>  <score_type>  (5) 
oracle

>  <origin>  (5) 
adgpu

>  <m_score__min__energy>  (5) 
-11.300000000000001

>  <m_primary>  (5) 
energy

$$$$
5:0
     RDKit          3D

 32 33  0  0  0  0  0  0  0  0999 V2000
   -9.5310   21.4520  -31.4210 C   0  0  0  0  0  0  0  0  0  0  0  0
   -8.1370   21.2100  -31.9060 C   0  0  0  0  0  0  0  0  0  0  0  0
   -7.1990   22.2350  -31.7520 C   0  0  0  0  0  0  0  0  0  0  0  0
   -5.9040   22.0570  -32.1810 C   0  0  0  0  0  0  0  0  0  0  0  0
   -4.8240   23.0380  -32.0790 C   0  0  0  0  0  0  0  0  0  0  0  0
   -4.2450   23.2180  -30.7550 C   0  0  0  0  0  0  0  0  0  0  0  0
   -4.0020   22.0770  -29.9780 C   0  0  0  0  0  0  0  0  0  0  0  0
   -3.4850   22.1730  -28.7340 N   0  0  0  0  0  0  0  0  0  0  0  0
   -3.1890   23.3770  -28.2080 C   0  0  0  0  0  0  0  0  0  0  0  0
   -2.6930   23.5170  -27.0100 N   0  0  0  0  0  0  0  0  0  0  0  0
   -3.4090   24.4940  -28.9270 N   0  0  0  0  0  0  0  0  0  0  0  0
   -3.9220   24.4160  -30.1650 C   0  0  0  0  0  0  0  0  0  0  0  0
   -4.1210   25.4950  -30.8400 N   0  0  0  0  0  0  0  0  0  0  0  0
   -5.5720   20.8240  -32.7690 C   0  0  0  0  0  0  0  0  0  0  0  0
   -6.4960   19.8180  -32.9200 C   0  0  0  0  0  0  0  0  0  0  0  0
   -5.9870   18.1690  -33.7270 Br  0  0  0  0  0  0  0  0  0  0  0  0
   -7.7960   19.9990  -32.4880 C   0  0  0  0  0  0  0  0  0  0  0  0
   -8.7790   18.9770  -32.6280 N   0  0  0  0  0  0  0  0  0  0  0  0
   -9.5414   21.4538  -30.3211 H   0  0  0  0  0  0  0  0  0  0  0  0
   -9.8848   22.4250  -31.7926 H   0  0  0  0  0  0  0  0  0  0  0  0
  -10.1920   20.6552  -31.7926 H   0  0  0  0  0  0  0  0  0  0  0  0
   -7.4970   23.1861  -31.2867 H   0  0  0  0  0  0  0  0  0  0  0  0
   -4.0182   22.7226  -32.7581 H   0  0  0  0  0  0  0  0  0  0  0  0
   -5.2787   24.0059  -32.3367 H   0  0  0  0  0  0  0  0  0  0  0  0
   -4.2369   21.0842  -30.3894 H   0  0  0  0  0  0  0  0  0  0  0  0
   -3.3090   21.3180  -28.1640 H   0  0  0  0  0  0  0  0  0  0  0  0
   -2.5140   22.6700  -26.4280 H   0  0  0  0  0  0  0  0  0  0  0  0
   -3.1840   25.4210  -28.5330 H   0  0  0  0  0  0  0  0  0  0  0  0
   -3.8930   26.4270  -30.4360 H   0  0  0  0  0  0  0  0  0  0  0  0
   -4.5421   20.6596  -33.1186 H   0  0  0  0  0  0  0  0  0  0  0  0
   -8.9730   18.2880  -31.8390 H   0  0  0  0  0  0  0  0  0  0  0  0
   -9.3300   18.8990  -33.5340 H   0  0  0  0  0  0  0  0  0  0  0  0
  1  2  1  0
  2  3  2  0
  3  4  1  0
  4  5  1  0
  5  6  1  0
  6  7  2  0
  7  8  1  0
  8  9  1  0
  9 10  2  3
  9 11  1  0
 11 12  1  0
 12 13  2  3
  4 14  2  0
 14 15  1  0
 15 16  1  0
 15 17  2  0
 17 18  1  0
 17  2  1  0
 12  6  1  0
  1 19  1  0
  1 20  1  0
  1 21  1  0
  3 22  1  0
  5 23  1  0
  5 24  1  0
  7 25  1  0
  8 26  1  0
 10 27  1  0
 11 28  1  0
 13 29  1  0
 14 30  1  0
 18 31  1  0
 18 32  1  0
M  END
>  <smiles>  (6) 
Cc1cc(Cc2c[nH]c(=N)[nH]c2=N)cc(Br)c1N

>  <score_type>  (6) 
oracle

>  <origin>  (6) 
adgpu

>  <m_score__min__energy>  (6) 
-8.1600000000000001

>  <m_primary>  (6) 
energy

$$$$
6:0
     RDKit          3D

 56 59  0  0  0  0  0  0  0  0999 V2000
   -4.8330   23.7970  -30.4860 C   0  0  0  0  0  0  0  0  0  0  0  0
   -3.6290   23.5300  -31.1970 O   0  0  0  0  0  0  0  0  0  0  0  0
   -3.2580   22.2660  -31.6800 C   0  0  0  0  0  0  0  0  0  0  0  0
   -2.5160   21.3520  -30.9140 C   0  0  0  0  0  0  0  0  0  0  0  0
   -2.1690   20.1050  -31.4390 C   0  0  0  0  0  0  0  0  0  0  0  0
   -2.5500   19.7290  -32.7480 C   0  0  0  0  0  0  0  0  0  0  0  0
   -2.1900   18.4250  -33.3010 N   0  0  0  0  0  0  0  0  0  0  0  0
   -2.9970   17.8740  -34.4070 C   0  0  0  0  0  0  0  0  0  0  0  0
   -2.4210   16.5980  -35.0170 C   0  0  0  0  0  0  0  0  0  0  0  0
   -1.9430   15.6610  -33.9930 N   0  0  0  0  0  0  0  0  0  0  0  0
   -3.0170   15.1890  -33.1340 C   0  0  0  0  0  0  0  0  0  0  0  0
   -2.7650   14.4980  -32.1090 O   0  0  0  0  0  0  0  0  0  0  0  0
   -4.4240   15.5450  -33.4020 C   0  0  0  0  0  0  0  0  0  0  0  0
   -5.3330   14.8310  -34.1660 C   0  0  0  0  0  0  0  0  0  0  0  0
   -6.5070   15.5510  -34.1250 C   0  0  0  0  0  0  0  0  0  0  0  0
   -6.2400   16.6570  -33.3420 C   0  0  0  0  0  0  0  0  0  0  0  0
   -7.2240   17.7150  -32.9600 C   0  0  0  0  0  0  0  0  0  0  0  0
   -6.4110   19.2980  -32.8700 S   0  0  0  0  0  0  0  0  0  0  0  0
   -5.3080   19.2420  -31.8500 O   0  0  0  0  0  0  0  0  0  0  0  0
   -5.8110   19.6290  -34.2080 O   0  0  0  0  0  0  0  0  0  0  0  0
   -7.5780   20.5400  -32.4230 C   0  0  0  0  0  0  0  0  0  0  0  0
   -7.1630   21.8700  -32.2620 C   0  0  0  0  0  0  0  0  0  0  0  0
   -8.0950   22.8630  -31.9420 C   0  0  0  0  0  0  0  0  0  0  0  0
   -9.4450   22.5330  -31.7880 C   0  0  0  0  0  0  0  0  0  0  0  0
   -9.8640   21.2090  -31.9550 C   0  0  0  0  0  0  0  0  0  0  0  0
   -8.9340   20.2150  -32.2730 C   0  0  0  0  0  0  0  0  0  0  0  0
   -4.9970   16.6270  -32.9250 O   0  0  0  0  0  0  0  0  0  0  0  0
   -0.8150   16.2580  -33.2590 C   0  0  0  0  0  0  0  0  0  0  0  0
   -1.1110   17.6460  -32.6490 C   0  0  0  0  0  0  0  0  0  0  0  0
   -3.3020   20.6620  -33.5020 C   0  0  0  0  0  0  0  0  0  0  0  0
   -3.6460   21.9090  -32.9720 C   0  0  0  0  0  0  0  0  0  0  0  0
   -4.6374   23.7536  -29.4044 H   0  0  0  0  0  0  0  0  0  0  0  0
   -5.2015   24.7987  -30.7521 H   0  0  0  0  0  0  0  0  0  0  0  0
   -5.5904   23.0450  -30.7521 H   0  0  0  0  0  0  0  0  0  0  0  0
   -2.2059   21.6201  -29.8932 H   0  0  0  0  0  0  0  0  0  0  0  0
   -1.5887   19.4024  -30.8229 H   0  0  0  0  0  0  0  0  0  0  0  0
   -4.0036   17.6509  -34.0236 H   0  0  0  0  0  0  0  0  0  0  0  0
   -3.0072   18.6325  -35.2036 H   0  0  0  0  0  0  0  0  0  0  0  0
   -3.2042   16.1044  -35.6110 H   0  0  0  0  0  0  0  0  0  0  0  0
   -1.5622   16.8808  -35.6434 H   0  0  0  0  0  0  0  0  0  0  0  0
   -1.5490   14.8280  -34.4920 H   0  0  0  0  0  0  0  0  0  0  0  0
   -5.1541   13.8840  -34.6963 H   0  0  0  0  0  0  0  0  0  0  0  0
   -7.4591   15.2976  -34.6142 H   0  0  0  0  0  0  0  0  0  0  0  0
   -8.0237   17.7583  -33.7141 H   0  0  0  0  0  0  0  0  0  0  0  0
   -7.6522   17.4721  -31.9763 H   0  0  0  0  0  0  0  0  0  0  0  0
   -6.1023   22.1329  -32.3876 H   0  0  0  0  0  0  0  0  0  0  0  0
   -7.7655   23.9043  -31.8114 H   0  0  0  0  0  0  0  0  0  0  0  0
  -10.1771   23.3142  -31.5356 H   0  0  0  0  0  0  0  0  0  0  0  0
  -10.9264   20.9497  -31.8360 H   0  0  0  0  0  0  0  0  0  0  0  0
   -9.2667   19.1750  -32.4060 H   0  0  0  0  0  0  0  0  0  0  0  0
   -0.5370   15.5758  -32.4421 H   0  0  0  0  0  0  0  0  0  0  0  0
   -0.0071   16.4037  -33.9912 H   0  0  0  0  0  0  0  0  0  0  0  0
   -1.3920   17.4979  -31.5959 H   0  0  0  0  0  0  0  0  0  0  0  0
   -0.1926   18.2346  -32.7911 H   0  0  0  0  0  0  0  0  0  0  0  0
   -3.6209   20.4013  -34.5220 H   0  0  0  0  0  0  0  0  0  0  0  0
   -4.2289   22.6165  -33.5800 H   0  0  0  0  0  0  0  0  0  0  0  0
  1  2  1  0
  2  3  1  0
  3  4  2  0
  4  5  1  0
  5  6  2  0
  6  7  1  0
  7  8  1  0
  8  9  1  0
  9 10  1  0
 10 11  1  0
 11 12  2  0
 11 13  1  0
 13 14  2  0
 14 15  1  0
 15 16  2  0
 16 17  1  0
 17 18  1  0
 18 19  2  0
 18 20  2  0
 18 21  1  0
 21 22  2  0
 22 23  1  0
 23 24  2  0
 24 25  1  0
 25 26  2  0
 16 27  1  0
 10 28  1  0
 28 29  1  0
  6 30  1  0
 30 31  2  0
 31  3  1  0
 29  7  1  0
 27 13  1  0
 26 21  1  0
  1 32  1  0
  1 33  1  0
  1 34  1  0
  4 35  1  0
  5 36  1  0
  8 37  1  0
  8 38  1  0
  9 39  1  0
  9 40  1  0
 10 41  1  0
 14 42  1  0
 15 43  1  0
 17 44  1  0
 17 45  1  0
 22 46  1  0
 23 47  1  0
 24 48  1  0
 25 49  1  0
 26 50  1  0
 28 51  1  0
 28 52  1  0
 29 53  1  0
 29 54  1  0
 30 55  1  0
 31 56  1  0
M  CHG  1  10   1
M  END
>  <UniqueID>  (7) 
6

>  <SMILES>  (7) 
COc1ccc(N2CC[NH+](C(=O)c3ccc(CS(=O)(=O)c4ccccc4)o3)CC2)cc1

>  <Energy>  (7) 
92.97623043895574

>  <Genealogy>  (7) 
COc1ccc(N2CC[NH+](C(=O)c3ccc(CS(=O)(=O)c4ccccc4)o3)CC2)cc1 (protonated)
COc1ccc(N2CC[NH+](C(=O)c3ccc(CS(=O)(=O)c4ccccc4)o3)CC2)cc1 (3D coordinates assigned)
COc1ccc(N2CC[NH+](C(=O)c3ccc(CS(=O)(=O)c4ccccc4)o3)CC2)cc1 (nonaromatic ring conformer: 92.97623043895574 kcal/mol)

>  <smiles>  (7) 
COc1ccc(N2CCN(C(=O)c3ccc(CS(=O)(=O)c4ccccc4)o3)CC2)cc1

>  <score_type>  (7) 
oracle

>  <origin>  (7) 
adgpu

>  <m_score__min__energy>  (7) 
-8.4600000000000009

>  <m_primary>  (7) 
energy

$$$$
7:0
     RDKit          3D

 55 58  0  0  0  0  0  0  0  0999 V2000
   -2.5050   17.5410  -34.4670 C   0  0  0  0  0  0  0  0  0  0  0  0
   -1.9910   17.7890  -33.0530 C   0  0  0  0  0  0  0  0  0  0  0  0
   -0.4860   18.1390  -33.0520 C   0  0  0  0  0  0  0  0  0  0  0  0
   -0.0600   19.0560  -34.1980 C   0  0  0  0  0  0  0  0  0  0  0  0
    0.4200   18.4780  -35.3910 C   0  0  0  0  0  0  0  0  0  0  0  0
    0.8050   19.2810  -36.4610 C   0  0  0  0  0  0  0  0  0  0  0  0
    1.4020   18.5460  -37.9470 S   0  0  0  0  0  0  0  0  0  0  0  0
    1.4760   16.7820  -37.7400 C   0  0  0  0  0  0  0  0  0  0  0  0
    2.7760   19.0680  -38.2650 O   0  0  0  0  0  0  0  0  0  0  0  0
    0.4810   18.8870  -39.0850 O   0  0  0  0  0  0  0  0  0  0  0  0
    0.7420   20.6630  -36.3330 C   0  0  0  0  0  0  0  0  0  0  0  0
    0.3240   21.2290  -35.1300 C   0  0  0  0  0  0  0  0  0  0  0  0
    0.2860   22.4890  -35.0440 O   0  0  0  0  0  0  0  0  0  0  0  0
   -0.0400   20.4360  -34.0620 N   0  0  0  0  0  0  0  0  0  0  0  0
   -0.3900   21.0850  -32.7780 C   0  0  0  0  0  0  0  0  0  0  0  0
   -1.8850   21.1770  -32.5700 C   0  0  0  0  0  0  0  0  0  0  0  0
   -2.4360   21.4980  -31.3180 C   0  0  0  0  0  0  0  0  0  0  0  0
   -3.8210   21.5760  -31.1550 C   0  0  0  0  0  0  0  0  0  0  0  0
   -4.6760   21.3230  -32.2390 C   0  0  0  0  0  0  0  0  0  0  0  0
   -6.1410   21.4130  -32.0670 C   0  0  0  0  0  0  0  0  0  0  0  0
   -6.9280   20.3530  -32.5520 C   0  0  0  0  0  0  0  0  0  0  0  0
   -8.3040   20.3360  -32.3330 C   0  0  0  0  0  0  0  0  0  0  0  0
   -8.9140   21.3750  -31.6260 C   0  0  0  0  0  0  0  0  0  0  0  0
   -8.1520   22.4430  -31.1530 C   0  0  0  0  0  0  0  0  0  0  0  0
   -6.7620   22.4900  -31.3750 C   0  0  0  0  0  0  0  0  0  0  0  0
   -6.0080   23.6840  -30.9100 C   0  0  0  0  0  0  0  0  0  0  0  0
   -5.0020   24.2780  -31.5850 N   0  0  0  0  0  0  0  0  0  0  0  0
   -4.6470   25.3120  -30.8380 N   0  0  0  0  0  0  0  0  0  0  0  0
   -5.4130   25.3470  -29.7610 N   0  0  0  0  0  0  0  0  0  0  0  0
   -6.2810   24.3500  -29.7690 N   0  0  0  0  0  0  0  0  0  0  0  0
   -4.1320   20.9580  -33.4780 C   0  0  0  0  0  0  0  0  0  0  0  0
   -2.7460   20.8830  -33.6420 C   0  0  0  0  0  0  0  0  0  0  0  0
   -3.4948   17.0635  -34.4189 H   0  0  0  0  0  0  0  0  0  0  0  0
   -2.5858   18.4992  -35.0011 H   0  0  0  0  0  0  0  0  0  0  0  0
   -1.8052   16.8814  -35.0011 H   0  0  0  0  0  0  0  0  0  0  0  0
   -2.5528   18.6244  -32.6096 H   0  0  0  0  0  0  0  0  0  0  0  0
   -2.1321   16.8685  -32.4676 H   0  0  0  0  0  0  0  0  0  0  0  0
   -0.2480   18.6395  -32.1018 H   0  0  0  0  0  0  0  0  0  0  0  0
    0.0606   17.1932  -33.1813 H   0  0  0  0  0  0  0  0  0  0  0  0
    0.4909   17.3837  -35.4770 H   0  0  0  0  0  0  0  0  0  0  0  0
    1.4862   16.5388  -36.6673 H   0  0  0  0  0  0  0  0  0  0  0  0
    0.5964   16.3202  -38.2123 H   0  0  0  0  0  0  0  0  0  0  0  0
    2.3912   16.3955  -38.2123 H   0  0  0  0  0  0  0  0  0  0  0  0
    1.0212   21.3086  -37.1787 H   0  0  0  0  0  0  0  0  0  0  0  0
    0.0462   20.4995  -31.9553 H   0  0  0  0  0  0  0  0  0  0  0  0
    0.0105   22.1093  -32.7986 H   0  0  0  0  0  0  0  0  0  0  0  0
   -1.7729   21.6890  -30.4614 H   0  0  0  0  0  0  0  0  0  0  0  0
   -4.2433   21.8367  -30.1733 H   0  0  0  0  0  0  0  0  0  0  0  0
   -6.4537   19.5312  -33.1084 H   0  0  0  0  0  0  0  0  0  0  0  0
   -8.9109   19.5030  -32.7175 H   0  0  0  0  0  0  0  0  0  0  0  0
   -9.9982   21.3507  -31.4419 H   0  0  0  0  0  0  0  0  0  0  0  0
   -8.6422   23.2580  -30.6002 H   0  0  0  0  0  0  0  0  0  0  0  0
   -5.3430   26.0670  -29.0080 H   0  0  0  0  0  0  0  0  0  0  0  0
   -4.7976   20.7300  -34.3236 H   0  0  0  0  0  0  0  0  0  0  0  0
   -2.3260   20.5920  -34.6161 H   0  0  0  0  0  0  0  0  0  0  0  0
  1  2  1  0
  2  3  1  0
  3  4  1  0
  4  5  2  0
  5  6  1  0
  6  7  1  0
  7  8  1  0
  7  9  2  0
  7 10  2  0
  6 11  2  0
 11 12  1  0
 12 13  2  0
 12 14  1  0
 14 15  1  0
 15 16  1  0
 16 17  2  0
 17 18  1  0
 18 19  2  0
 19 20  1  0
 20 21  2  0
 21 22  1  0
 22 23  2  0
 23 24  1  0
 24 25  2  0
 25 26  1  0
 26 27  1  0
 27 28  2  0
 28 29  1  0
 29 30  1  0
 19 31  1  0
 31 32  2  0
 14  4  1  0
 32 16  1  0
 25 20  1  0
 30 26  2  0
  1 33  1  0
  1 34  1  0
  1 35  1  0
  2 36  1  0
  2 37  1  0
  3 38  1  0
  3 39  1  0
  5 40  1  0
  8 41  1  0
  8 42  1  0
  8 43  1  0
 11 44  1  0
 15 45  1  0
 15 46  1  0
 17 47  1  0
 18 48  1  0
 21 49  1  0
 22 50  1  0
 23 51  1  0
 24 52  1  0
 29 53  1  0
 31 54  1  0
 32 55  1  0
M  END
>  <UniqueID>  (8) 
7

>  <SMILES>  (8) 
CCCc1cc(S(C)(=O)=O)cc(=O)n1Cc1ccc(-c2ccccc2-c2nn[nH]n2)cc1

>  <Energy>  (8) 
109.08196645444892

>  <Genealogy>  (8) 
CCCc1cc(S(C)(=O)=O)cc(=O)n1Cc1ccc(-c2ccccc2-c2nn[nH]n2)cc1 (3D coordinates assigned)
CCCc1cc(S(C)(=O)=O)cc(=O)n1Cc1ccc(-c2ccccc2-c2nn[nH]n2)cc1 (optimized conformer: 109.08196645444892 kcal/mol)

>  <smiles>  (8) 
CCCc1cc(S(C)(=O)=O)cc(=O)n1Cc1ccc(-c2ccccc2-c2nn[nH]n2)cc1

>  <score_type>  (8) 
oracle

>  <origin>  (8) 
adgpu

>  <m_score__min__energy>  (8) 
-10.779999999999999

>  <m_primary>  (8) 
energy

$$$$
8:0
     RDKit          3D

 29 30  0  0  0  0  0  0  0  0999 V2000
   -5.3166   20.5590  -33.3055 H   0  0  0  0  0  0  0  0  0  0  0  0
   -5.9630   21.2160  -32.7050 C   0  0  0  0  0  0  0  0  0  0  0  0
   -5.4040   22.2840  -31.9950 C   0  0  0  0  0  0  0  0  0  0  0  0
   -4.3202   22.4666  -32.0409 H   0  0  0  0  0  0  0  0  0  0  0  0
   -6.2230   23.1220  -31.2250 C   0  0  0  0  0  0  0  0  0  0  0  0
   -5.5290   24.4660  -30.3230 S   0  0  0  0  0  0  0  0  0  0  0  0
   -4.5560   25.2280  -31.1780 O   0  0  0  0  0  0  0  0  0  0  0  0
   -6.6320   25.3890  -29.8920 O   0  0  0  0  0  0  0  0  0  0  0  0
   -4.7010   23.8730  -28.9200 N   0  0  0  0  0  0  0  0  0  0  0  0
   -3.4620   24.1510  -28.6580 C   0  0  0  0  0  0  0  0  0  0  0  0
   -2.6780   24.9240  -29.4410 N   0  0  0  0  0  0  0  0  0  0  0  0
   -1.4410   25.0540  -28.9660 N   0  0  0  0  0  0  0  0  0  0  0  0
   -1.2460   24.3960  -27.8010 C   0  0  0  0  0  0  0  0  0  0  0  0
    0.0730   24.3330  -27.0990 C   0  0  0  0  0  0  0  0  0  0  0  0
    0.5278   25.3346  -27.0939 H   0  0  0  0  0  0  0  0  0  0  0  0
    0.7232   23.6220  -27.6298 H   0  0  0  0  0  0  0  0  0  0  0  0
   -0.1050   23.8570  -25.6630 C   0  0  0  0  0  0  0  0  0  0  0  0
    0.1946   24.6582  -24.9714 H   0  0  0  0  0  0  0  0  0  0  0  0
   -1.1603   23.5991  -25.4903 H   0  0  0  0  0  0  0  0  0  0  0  0
    0.5222   22.9700  -25.4903 H   0  0  0  0  0  0  0  0  0  0  0  0
   -2.6390   23.5780  -27.3100 S   0  0  0  0  0  0  0  0  0  0  0  0
   -7.6040   22.8880  -31.1760 C   0  0  0  0  0  0  0  0  0  0  0  0
   -8.2508   23.5467  -30.5779 H   0  0  0  0  0  0  0  0  0  0  0  0
   -8.1620   21.8200  -31.8850 C   0  0  0  0  0  0  0  0  0  0  0  0
   -9.2459   21.6382  -31.8394 H   0  0  0  0  0  0  0  0  0  0  0  0
   -7.3440   20.9800  -32.6540 C   0  0  0  0  0  0  0  0  0  0  0  0
   -7.9140   19.8900  -33.3830 N   0  0  0  0  0  0  0  0  0  0  0  0
   -8.7950   20.0150  -33.9310 H   0  0  0  0  0  0  0  0  0  0  0  0
   -7.4500   18.9550  -33.3960 H   0  0  0  0  0  0  0  0  0  0  0  0
  1  2  1  0
  2  3  2  0
  3  4  1  0
  3  5  1  0
  5  6  1  0
  6  7  2  0
  6  8  2  0
  6  9  1  0
  9 10  2  0
 10 11  1  0
 11 12  1  0
 12 13  2  0
 13 14  1  0
 14 15  1  0
 14 16  1  0
 14 17  1  0
 17 18  1  0
 17 19  1  0
 17 20  1  0
 13 21  1  0
  5 22  2  0
 22 23  1  0
 22 24  1  0
 24 25  1  0
 24 26  2  0
 26 27  1  0
 27 28  1  0
 27 29  1  0
 26  2  1  0
 21 10  1  0
M  CHG  1  11  -1
M  END
>  <UniqueID>  (9) 
8

>  <SMILES>  (9) 
CCc1n[n-]/c(=N\S(=O)(=O)c2ccc(N)cc2)s1

>  <Energy>  (9) 
61.007898141986594

>  <Genealogy>  (9) 
CCc1n[n-]c(=NS(=O)(=O)c2ccc(N)cc2)s1 (protonated)
CCc1n[n-]/c(=N\S(=O)(=O)c2ccc(N)cc2)s1 (cis-trans isomerization)
CCc1n[n-]/c(=N\S(=O)(=O)c2ccc(N)cc2)s1 (3D coordinates assigned)
CCc1n[n-]/c(=N\S(=O)(=O)c2ccc(N)cc2)s1 (optimized conformer: 61.007898141986594 kcal/mol)

>  <smiles>  (9) 
CCc1n[nH]c(=NS(=O)(=O)c2ccc(N)cc2)s1

>  <score_type>  (9) 
oracle

>  <origin>  (9) 
adgpu

>  <m_score__min__energy>  (9) 
-9.3399999999999999

>  <m_primary>  (9) 
energy

$$$$
9:0
     RDKit          3D

 30 32  0  0  0  0  0  0  0  0999 V2000
   -8.4805   24.2579  -30.4827 H   0  0  0  0  0  0  0  0  0  0  0  0
   -7.5030   23.9110  -30.8490 C   0  0  0  0  0  0  0  0  0  0  0  0
   -7.4310   22.8180  -31.7120 C   0  0  0  0  0  0  0  0  0  0  0  0
   -8.3509   22.2976  -32.0168 H   0  0  0  0  0  0  0  0  0  0  0  0
   -6.1930   22.3830  -32.1900 C   0  0  0  0  0  0  0  0  0  0  0  0
   -6.1423   21.5271  -32.8791 H   0  0  0  0  0  0  0  0  0  0  0  0
   -5.0090   23.0350  -31.7940 C   0  0  0  0  0  0  0  0  0  0  0  0
   -3.7460   22.6330  -32.2610 O   0  0  0  0  0  0  0  0  0  0  0  0
   -2.9500   21.6170  -31.6580 C   0  0  0  0  0  0  0  0  0  0  0  0
   -3.0159   21.7011  -30.5632 H   0  0  0  0  0  0  0  0  0  0  0  0
   -3.3168   20.6288  -31.9726 H   0  0  0  0  0  0  0  0  0  0  0  0
   -1.9028   21.7366  -31.9726 H   0  0  0  0  0  0  0  0  0  0  0  0
   -5.0790   24.1180  -30.8990 C   0  0  0  0  0  0  0  0  0  0  0  0
   -3.8620   24.7910  -30.5310 N   0  0  0  0  0  0  0  0  0  0  0  0
   -3.0480   24.4530  -29.5750 C   0  0  0  0  0  0  0  0  0  0  0  0
   -3.1900   23.3280  -28.8210 N   0  0  0  0  0  0  0  0  0  0  0  0
   -2.1150   23.3830  -28.0130 C   0  0  0  0  0  0  0  0  0  0  0  0
   -1.7460   22.4750  -27.0230 C   0  0  0  0  0  0  0  0  0  0  0  0
   -2.3561   21.5845  -26.8113 H   0  0  0  0  0  0  0  0  0  0  0  0
   -0.5650   22.7370  -26.3030 C   0  0  0  0  0  0  0  0  0  0  0  0
   -0.2419   22.0440  -25.5122 H   0  0  0  0  0  0  0  0  0  0  0  0
    0.2090   23.8860  -26.5900 C   0  0  0  0  0  0  0  0  0  0  0  0
    1.1299   24.0809  -26.0209 H   0  0  0  0  0  0  0  0  0  0  0  0
   -0.1920   24.7810  -27.5990 C   0  0  0  0  0  0  0  0  0  0  0  0
    0.3998   25.6780  -27.8341 H   0  0  0  0  0  0  0  0  0  0  0  0
   -1.3660   24.4890  -28.2890 C   0  0  0  0  0  0  0  0  0  0  0  0
   -1.9420   25.1780  -29.2800 N   0  0  0  0  0  0  0  0  0  0  0  0
   -1.6130   26.0650  -29.7260 H   0  0  0  0  0  0  0  0  0  0  0  0
   -6.3360   24.5660  -30.4490 C   0  0  0  0  0  0  0  0  0  0  0  0
   -6.3991   25.4362  -29.7791 H   0  0  0  0  0  0  0  0  0  0  0  0
  1  2  1  0
  2  3  2  0
  3  4  1  0
  3  5  1  0
  5  6  1  0
  5  7  2  0
  7  8  1  0
  8  9  1  0
  9 10  1  0
  9 11  1  0
  9 12  1  0
  7 13  1  0
 13 14  1  0
 14 15  2  0
 15 16  1  0
 16 17  1  0
 17 18  2  0
 18 19  1  0
 18 20  1  0
 20 21  1  0
 20 22  2  0
 22 23  1  0
 22 24  1  0
 24 25  1  0
 24 26  2  0
 26 27  1  0
 27 28  1  0
 13 29  2  0
 29 30  1  0
 29  2  1  0
 27 15  1  0
 26 17  1  0
M  CHG  1  16  -1
M  END
>  <UniqueID>  (10) 
9

>  <SMILES>  (10) 
COc1ccccc1/N=c1\[n-]c2ccccc2[nH]1

>  <Energy>  (10) 
74.91013221082592

>  <Genealogy>  (10) 
COc1ccccc1N=c1[n-]c2ccccc2[nH]1 (protonated)
COc1ccccc1/N=c1\[n-]c2ccccc2[nH]1 (cis-trans isomerization)
COc1ccccc1/N=c1\[n-]c2ccccc2[nH]1 (3D coordinates assigned)
COc1ccccc1/N=c1\[n-]c2ccccc2[nH]1 (optimized conformer: 74.91013221082592 kcal/mol)

>  <smiles>  (10) 
COc1ccccc1N=c1[nH]c2ccccc2[nH]1

>  <score_type>  (10) 
oracle

>  <origin>  (10) 
adgpu

>  <m_score__min__energy>  (10) 
-8.3599999999999994

>  <m_primary>  (10) 
energy

$$$$
10:0
     RDKit          3D

 37 38  0  0  0  0  0  0  0  0999 V2000
   -7.1910   20.0810  -33.0380 C   0  0  0  0  0  0  0  0  0  0  0  0
   -6.6850   21.3090  -32.3290 C   0  0  0  0  0  0  0  0  0  0  0  0
   -5.3090   21.5930  -32.3390 C   0  0  0  0  0  0  0  0  0  0  0  0
   -4.8100   22.7180  -31.6810 C   0  0  0  0  0  0  0  0  0  0  0  0
   -5.6760   23.5780  -31.0010 C   0  0  0  0  0  0  0  0  0  0  0  0
   -5.0410   24.9880  -30.1580 S   0  0  0  0  0  0  0  0  0  0  0  0
   -5.4650   26.2510  -30.8520 O   0  0  0  0  0  0  0  0  0  0  0  0
   -5.5740   24.9940  -28.7530 O   0  0  0  0  0  0  0  0  0  0  0  0
   -3.3080   24.9280  -30.1030 N   0  0  0  0  0  0  0  0  0  0  0  0
   -2.5290   24.6130  -28.9410 C   0  0  0  0  0  0  0  0  0  0  0  0
   -2.7830   23.4110  -28.2700 C   0  0  0  0  0  0  0  0  0  0  0  0
   -2.0380   23.0580  -27.1410 C   0  0  0  0  0  0  0  0  0  0  0  0
   -1.0300   23.9080  -26.6680 C   0  0  0  0  0  0  0  0  0  0  0  0
   -0.0750   23.4750  -25.2530 S   0  0  0  0  0  0  0  0  0  0  0  0
   -0.3020   24.6610  -24.0150 N   0  0  0  0  0  0  0  0  0  0  0  0
   -0.5130   22.1290  -24.7480 O   0  0  0  0  0  0  0  0  0  0  0  0
    1.3830   23.4090  -25.6090 O   0  0  0  0  0  0  0  0  0  0  0  0
   -0.7770   25.1150  -27.3320 C   0  0  0  0  0  0  0  0  0  0  0  0
   -1.5210   25.4690  -28.4610 C   0  0  0  0  0  0  0  0  0  0  0  0
   -7.0510   23.3130  -30.9930 C   0  0  0  0  0  0  0  0  0  0  0  0
   -7.5670   22.1810  -31.6460 C   0  0  0  0  0  0  0  0  0  0  0  0
   -9.0500   21.9180  -31.6070 C   0  0  0  0  0  0  0  0  0  0  0  0
   -7.5003   19.3304  -32.2958 H   0  0  0  0  0  0  0  0  0  0  0  0
   -8.0516   20.3499  -33.6681 H   0  0  0  0  0  0  0  0  0  0  0  0
   -6.3908   19.6655  -33.6681 H   0  0  0  0  0  0  0  0  0  0  0  0
   -4.6183   20.9220  -32.8707 H   0  0  0  0  0  0  0  0  0  0  0  0
   -3.7305   22.9285  -31.6978 H   0  0  0  0  0  0  0  0  0  0  0  0
   -3.5746   22.7393  -28.6337 H   0  0  0  0  0  0  0  0  0  0  0  0
   -2.2439   22.1100  -26.6225 H   0  0  0  0  0  0  0  0  0  0  0  0
   -0.7460   24.1750  -23.2040 H   0  0  0  0  0  0  0  0  0  0  0  0
    0.6460   24.9660  -23.7040 H   0  0  0  0  0  0  0  0  0  0  0  0
    0.0112   25.7877  -26.9631 H   0  0  0  0  0  0  0  0  0  0  0  0
   -1.3178   26.4197  -28.9757 H   0  0  0  0  0  0  0  0  0  0  0  0
   -7.7343   23.9983  -30.4700 H   0  0  0  0  0  0  0  0  0  0  0  0
   -9.3845   21.8587  -30.5608 H   0  0  0  0  0  0  0  0  0  0  0  0
   -9.5810   22.7360  -32.1159 H   0  0  0  0  0  0  0  0  0  0  0  0
   -9.2673   20.9673  -32.1159 H   0  0  0  0  0  0  0  0  0  0  0  0
  1  2  1  0
  2  3  2  0
  3  4  1  0
  4  5  2  0
  5  6  1  0
  6  7  2  0
  6  8  2  0
  6  9  1  0
  9 10  1  0
 10 11  2  0
 11 12  1  0
 12 13  2  0
 13 14  1  0
 14 15  1  0
 14 16  2  0
 14 17  2  0
 13 18  1  0
 18 19  2  0
  5 20  1  0
 20 21  2  0
 21 22  1  0
 21  2  1  0
 19 10  1  0
  1 23  1  0
  1 24  1  0
  1 25  1  0
  3 26  1  0
  4 27  1  0
 11 28  1  0
 12 29  1  0
 15 30  1  0
 15 31  1  0
 18 32  1  0
 19 33  1  0
 20 34  1  0
 22 35  1  0
 22 36  1  0
 22 37  1  0
M  CHG  1   9  -1
M  END
>  <UniqueID>  (11) 
10

>  <SMILES>  (11) 
Cc1ccc(S(=O)(=O)[N-]c2ccc(S(N)(=O)=O)cc2)cc1C

>  <Energy>  (11) 
38.753096387518305

>  <Genealogy>  (11) 
Cc1ccc(S(=O)(=O)[N-]c2ccc(S(N)(=O)=O)cc2)cc1C (protonated)
Cc1ccc(S(=O)(=O)[N-]c2ccc(S(N)(=O)=O)cc2)cc1C (3D coordinates assigned)
Cc1ccc(S(=O)(=O)[N-]c2ccc(S(N)(=O)=O)cc2)cc1C (optimized conformer: 38.753096387518305 kcal/mol)

>  <smiles>  (11) 
Cc1ccc(S(=O)(=O)Nc2ccc(S(N)(=O)=O)cc2)cc1C

>  <score_type>  (11) 
oracle

>  <origin>  (11) 
adgpu

>  <m_score__min__energy>  (11) 
-10.02

>  <m_primary>  (11) 
energy

$$$$
11:0
     RDKit          3D

 37 38  0  0  0  0  0  0  0  0999 V2000
   -0.8500   26.5230  -28.0250 C   0  0  0  0  0  0  0  0  0  0  0  0
   -1.4950   25.6760  -28.9710 O   0  0  0  0  0  0  0  0  0  0  0  0
   -1.7380   24.3080  -28.7760 C   0  0  0  0  0  0  0  0  0  0  0  0
   -2.3620   23.8120  -27.6180 C   0  0  0  0  0  0  0  0  0  0  0  0
   -2.5810   22.4420  -27.4690 C   0  0  0  0  0  0  0  0  0  0  0  0
   -2.1840   21.5410  -28.4760 C   0  0  0  0  0  0  0  0  0  0  0  0
   -2.3930   20.1570  -28.3600 O   0  0  0  0  0  0  0  0  0  0  0  0
   -2.2580   19.4190  -27.1510 C   0  0  0  0  0  0  0  0  0  0  0  0
   -1.5630   22.0320  -29.6360 C   0  0  0  0  0  0  0  0  0  0  0  0
   -1.1770   21.0990  -30.6550 N   0  0  0  0  0  0  0  0  0  0  0  0
   -2.0860   20.7460  -32.0890 S   0  0  0  0  0  0  0  0  0  0  0  0
   -2.2790   19.2600  -32.1950 O   0  0  0  0  0  0  0  0  0  0  0  0
   -1.3190   21.2300  -33.2880 O   0  0  0  0  0  0  0  0  0  0  0  0
   -3.6680   21.5190  -32.0130 C   0  0  0  0  0  0  0  0  0  0  0  0
   -4.8000   20.8550  -32.5000 C   0  0  0  0  0  0  0  0  0  0  0  0
   -6.0490   21.4760  -32.4520 C   0  0  0  0  0  0  0  0  0  0  0  0
   -6.1770   22.7600  -31.9190 C   0  0  0  0  0  0  0  0  0  0  0  0
   -5.0500   23.4400  -31.4200 C   0  0  0  0  0  0  0  0  0  0  0  0
   -5.1830   24.8040  -30.8570 C   0  0  0  0  0  0  0  0  0  0  0  0
   -4.0380   25.6440  -30.7090 N   0  0  0  0  0  0  0  0  0  0  0  0
   -6.3130   25.2390  -30.5020 O   0  0  0  0  0  0  0  0  0  0  0  0
   -3.7950   22.8040  -31.4690 C   0  0  0  0  0  0  0  0  0  0  0  0
   -1.3410   23.4140  -29.7750 C   0  0  0  0  0  0  0  0  0  0  0  0
   -1.1013   26.1930  -27.0062 H   0  0  0  0  0  0  0  0  0  0  0  0
    0.2393   26.4710  -28.1691 H   0  0  0  0  0  0  0  0  0  0  0  0
   -1.1898   27.5592  -28.1691 H   0  0  0  0  0  0  0  0  0  0  0  0
   -2.6789   24.5067  -26.8262 H   0  0  0  0  0  0  0  0  0  0  0  0
   -3.0674   22.0629  -26.5581 H   0  0  0  0  0  0  0  0  0  0  0  0
   -2.3818   20.0956  -26.2926 H   0  0  0  0  0  0  0  0  0  0  0  0
   -3.0274   18.6338  -27.1129 H   0  0  0  0  0  0  0  0  0  0  0  0
   -1.2604   18.9570  -27.1129 H   0  0  0  0  0  0  0  0  0  0  0  0
   -4.7051   19.8431  -32.9208 H   0  0  0  0  0  0  0  0  0  0  0  0
   -6.9364   20.9515  -32.8358 H   0  0  0  0  0  0  0  0  0  0  0  0
   -7.1647   23.2433  -31.8888 H   0  0  0  0  0  0  0  0  0  0  0  0
   -3.5030   25.6690  -29.8130 H   0  0  0  0  0  0  0  0  0  0  0  0
   -2.9064   23.3203  -31.0768 H   0  0  0  0  0  0  0  0  0  0  0  0
   -0.8487   23.7963  -30.6813 H   0  0  0  0  0  0  0  0  0  0  0  0
  1  2  1  0
  2  3  1  0
  3  4  2  0
  4  5  1  0
  5  6  2  0
  6  7  1  0
  7  8  1  0
  6  9  1  0
  9 10  1  0
 10 11  1  0
 11 12  2  0
 11 13  2  0
 11 14  1  0
 14 15  2  0
 15 16  1  0
 16 17  2  0
 17 18  1  0
 18 19  1  0
 19 20  1  0
 19 21  2  0
 18 22  2  0
  9 23  2  0
 23  3  1  0
 22 14  1  0
  1 24  1  0
  1 25  1  0
  1 26  1  0
  4 27  1  0
  5 28  1  0
  8 29  1  0
  8 30  1  0
  8 31  1  0
 15 32  1  0
 16 33  1  0
 17 34  1  0
 20 35  1  0
 22 36  1  0
 23 37  1  0
M  CHG  2  10  -1  20  -1
M  END
>  <UniqueID>  (12) 
11

>  <SMILES>  (12) 
COc1ccc(OC)c([N-]S(=O)(=O)c2cccc(C([NH-])=O)c2)c1

>  <Energy>  (12) 
39.42781807971649

>  <Genealogy>  (12) 
COc1ccc(OC)c([N-]S(=O)(=O)c2cccc(C([NH-])=O)c2)c1 (protonated)
COc1ccc(OC)c([N-]S(=O)(=O)c2cccc(C([NH-])=O)c2)c1 (3D coordinates assigned)
COc1ccc(OC)c([N-]S(=O)(=O)c2cccc(C([NH-])=O)c2)c1 (optimized conformer: 39.42781807971649 kcal/mol)

>  <smiles>  (12) 
COc1ccc(OC)c(NS(=O)(=O)c2cccc(C(N)=O)c2)c1

>  <score_type>  (12) 
oracle

>  <origin>  (12) 
adgpu

>  <m_score__min__energy>  (12) 
-9.9299999999999997

>  <m_primary>  (12) 
energy

$$$$
12:0
     RDKit          3D

 30 32  0  0  0  0  0  0  0  0999 V2000
    0.3670   25.2050  -26.5620 C   0  0  0  0  0  0  0  0  0  0  0  0
   -0.8130   24.5300  -27.1950 C   0  0  0  0  0  0  0  0  0  0  0  0
   -1.1330   23.2050  -26.8560 C   0  0  0  0  0  0  0  0  0  0  0  0
   -2.2100   22.5580  -27.4700 C   0  0  0  0  0  0  0  0  0  0  0  0
   -2.9680   23.2280  -28.4410 C   0  0  0  0  0  0  0  0  0  0  0  0
   -4.0510   22.6140  -29.0730 C   0  0  0  0  0  0  0  0  0  0  0  0
   -4.7880   23.3180  -30.0370 C   0  0  0  0  0  0  0  0  0  0  0  0
   -5.9460   22.6730  -30.7040 C   0  0  0  0  0  0  0  0  0  0  0  0
   -7.2310   22.7410  -30.1370 C   0  0  0  0  0  0  0  0  0  0  0  0
   -8.3160   22.1220  -30.7660 C   0  0  0  0  0  0  0  0  0  0  0  0
   -8.1280   21.4270  -31.9630 C   0  0  0  0  0  0  0  0  0  0  0  0
   -6.8550   21.3470  -32.5310 C   0  0  0  0  0  0  0  0  0  0  0  0
   -5.7670   21.9630  -31.9060 C   0  0  0  0  0  0  0  0  0  0  0  0
   -4.3880   24.6370  -30.3450 C   0  0  0  0  0  0  0  0  0  0  0  0
   -4.9940   25.3020  -31.2270 O   0  0  0  0  0  0  0  0  0  0  0  0
   -3.3510   25.1910  -29.7210 O   0  0  0  0  0  0  0  0  0  0  0  0
   -2.6410   24.5510  -28.7970 C   0  0  0  0  0  0  0  0  0  0  0  0
   -1.5630   25.1940  -28.1790 C   0  0  0  0  0  0  0  0  0  0  0  0
    0.2755   25.1527  -25.4671 H   0  0  0  0  0  0  0  0  0  0  0  0
    1.2915   24.6991  -26.8773 H   0  0  0  0  0  0  0  0  0  0  0  0
    0.3996   26.2583  -26.8773 H   0  0  0  0  0  0  0  0  0  0  0  0
   -0.5328   22.6731  -26.1031 H   0  0  0  0  0  0  0  0  0  0  0  0
   -2.4624   21.5242  -27.1915 H   0  0  0  0  0  0  0  0  0  0  0  0
   -4.3258   21.5804  -28.8156 H   0  0  0  0  0  0  0  0  0  0  0  0
   -7.3838   23.2844  -29.1929 H   0  0  0  0  0  0  0  0  0  0  0  0
   -9.3186   22.1825  -30.3176 H   0  0  0  0  0  0  0  0  0  0  0  0
   -8.9827   20.9428  -32.4581 H   0  0  0  0  0  0  0  0  0  0  0  0
   -6.7079   20.7978  -33.4727 H   0  0  0  0  0  0  0  0  0  0  0  0
   -4.7657   21.8925  -32.3559 H   0  0  0  0  0  0  0  0  0  0  0  0
   -1.3020   26.2236  -28.4650 H   0  0  0  0  0  0  0  0  0  0  0  0
  1  2  1  0
  2  3  2  0
  3  4  1  0
  4  5  2  0
  5  6  1  0
  6  7  2  0
  7  8  1  0
  8  9  2  0
  9 10  1  0
 10 11  2  0
 11 12  1  0
 12 13  2  0
  7 14  1  0
 14 15  2  0
 14 16  1  0
 16 17  1  0
 17 18  2  0
 18  2  1  0
 17  5  1  0
 13  8  1  0
  1 19  1  0
  1 20  1  0
  1 21  1  0
  3 22  1  0
  4 23  1  0
  6 24  1  0
  9 25  1  0
 10 26  1  0
 11 27  1  0
 12 28  1  0
 13 29  1  0
 18 30  1  0
M  END
>  <UniqueID>  (13) 
12

>  <SMILES>  (13) 
Cc1ccc2cc(-c3ccccc3)c(=O)oc2c1

>  <Energy>  (13) 
42.744273804453044

>  <Genealogy>  (13) 
Cc1ccc2cc(-c3ccccc3)c(=O)oc2c1 (3D coordinates assigned)
Cc1ccc2cc(-c3ccccc3)c(=O)oc2c1 (optimized conformer: 42.744273804453044 kcal/mol)

>  <smiles>  (13) 
Cc1ccc2cc(-c3ccccc3)c(=O)oc2c1

>  <score_type>  (13) 
oracle

>  <origin>  (13) 
adgpu

>  <m_score__min__energy>  (13) 
-7.5099999999999998

>  <m_primary>  (13) 
energy

$$$$
13:0
     RDKit          3D

 35 37  0  0  0  0  0  0  0  0999 V2000
   -2.6360   24.5150  -27.3210 C   0  0  0  0  0  0  0  0  0  0  0  0
   -2.1060   24.9250  -28.9700 S   0  0  0  0  0  0  0  0  0  0  0  0
   -1.3800   23.7450  -29.5500 O   0  0  0  0  0  0  0  0  0  0  0  0
   -1.1720   26.1020  -28.9440 O   0  0  0  0  0  0  0  0  0  0  0  0
   -3.4790   25.2790  -29.9680 N   0  0  0  0  0  0  0  0  0  0  0  0
   -4.4850   24.3420  -30.3790 C   0  0  0  0  0  0  0  0  0  0  0  0
   -4.1610   23.0910  -30.9330 C   0  0  0  0  0  0  0  0  0  0  0  0
   -5.1730   22.2070  -31.3220 C   0  0  0  0  0  0  0  0  0  0  0  0
   -6.5250   22.5540  -31.1620 C   0  0  0  0  0  0  0  0  0  0  0  0
   -7.6040   21.6250  -31.5720 C   0  0  0  0  0  0  0  0  0  0  0  0
   -7.4350   20.2880  -31.6820 N   0  0  0  0  0  0  0  0  0  0  0  0
   -8.5740   19.6540  -32.0730 C   0  0  0  0  0  0  0  0  0  0  0  0
   -8.6070   18.1790  -32.3190 C   0  0  0  0  0  0  0  0  0  0  0  0
   -7.2630   17.6970  -32.6080 N   0  0  0  0  0  0  0  0  0  0  0  0
   -6.6450   17.7480  -33.8030 C   0  0  0  0  0  0  0  0  0  0  0  0
   -5.4260   17.1250  -33.6710 C   0  0  0  0  0  0  0  0  0  0  0  0
   -4.2160   16.8930  -34.9160 Cl  0  0  0  0  0  0  0  0  0  0  0  0
   -5.3650   16.7030  -32.3590 C   0  0  0  0  0  0  0  0  0  0  0  0
   -6.5020   17.0570  -31.7300 N   0  0  0  0  0  0  0  0  0  0  0  0
   -9.6670   20.4860  -32.3010 C   0  0  0  0  0  0  0  0  0  0  0  0
   -9.1820   22.0610  -31.9760 S   0  0  0  0  0  0  0  0  0  0  0  0
   -6.8430   23.8050  -30.6060 C   0  0  0  0  0  0  0  0  0  0  0  0
   -5.8320   24.6890  -30.2180 C   0  0  0  0  0  0  0  0  0  0  0  0
   -6.1660   25.8900  -29.6840 F   0  0  0  0  0  0  0  0  0  0  0  0
   -1.9852   25.0184  -26.5909 H   0  0  0  0  0  0  0  0  0  0  0  0
   -3.6747   24.8470  -27.1765 H   0  0  0  0  0  0  0  0  0  0  0  0
   -2.5756   23.4262  -27.1765 H   0  0  0  0  0  0  0  0  0  0  0  0
   -3.1063   22.8059  -31.0612 H   0  0  0  0  0  0  0  0  0  0  0  0
   -4.9080   21.2320  -31.7568 H   0  0  0  0  0  0  0  0  0  0  0  0
   -8.9938   17.6682  -31.4249 H   0  0  0  0  0  0  0  0  0  0  0  0
   -9.2610   17.9685  -33.1780 H   0  0  0  0  0  0  0  0  0  0  0  0
   -7.0435   18.2058  -34.7204 H   0  0  0  0  0  0  0  0  0  0  0  0
   -4.5230   16.1640  -31.9003 H   0  0  0  0  0  0  0  0  0  0  0  0
  -10.6666   20.1693  -32.6336 H   0  0  0  0  0  0  0  0  0  0  0  0
   -7.8970   24.0911  -30.4750 H   0  0  0  0  0  0  0  0  0  0  0  0
  1  2  1  0
  2  3  2  0
  2  4  2  0
  2  5  1  0
  5  6  1  0
  6  7  2  0
  7  8  1  0
  8  9  2  0
  9 10  1  0
 10 11  2  0
 11 12  1  0
 12 13  1  0
 13 14  1  0
 14 15  1  0
 15 16  2  0
 16 17  1  0
 16 18  1  0
 18 19  2  0
 12 20  2  0
 20 21  1  0
  9 22  1  0
 22 23  2  0
 23 24  1  0
 23  6  1  0
 21 10  1  0
 19 14  1  0
  1 25  1  0
  1 26  1  0
  1 27  1  0
  7 28  1  0
  8 29  1  0
 13 30  1  0
 13 31  1  0
 15 32  1  0
 18 33  1  0
 20 34  1  0
 22 35  1  0
M  CHG  1   5  -1
M  END
>  <UniqueID>  (14) 
13

>  <SMILES>  (14) 
CS(=O)(=O)[N-]c1ccc(-c2nc(Cn3cc(Cl)cn3)cs2)cc1F

>  <Energy>  (14) 
94.71845786454828

>  <Genealogy>  (14) 
CS(=O)(=O)[N-]c1ccc(-c2nc(Cn3cc(Cl)cn3)cs2)cc1F (protonated)
CS(=O)(=O)[N-]c1ccc(-c2nc(Cn3cc(Cl)cn3)cs2)cc1F (3D coordinates assigned)
CS(=O)(=O)[N-]c1ccc(-c2nc(Cn3cc(Cl)cn3)cs2)cc1F (optimized conformer: 94.71845786454828 kcal/mol)

>  <smiles>  (14) 
CS(=O)(=O)Nc1ccc(-c2nc(Cn3cc(Cl)cn3)cs2)cc1F

>  <score_type>  (14) 
oracle

>  <origin>  (14) 
adgpu

>  <m_score__min__energy>  (14) 
-10.66

>  <m_primary>  (14) 
energy

$$$$
14:0
     RDKit          3D

 44 46  0  0  1  0  0  0  0  0999 V2000
   -5.7200   16.8560  -31.6580 C   0  0  0  0  0  0  0  0  0  0  0  0
   -5.8330   16.6920  -33.0140 O   0  0  0  0  0  0  0  0  0  0  0  0
   -4.9790   17.4310  -33.7930 C   0  0  0  0  0  0  0  0  0  0  0  0
   -5.7560   18.2640  -34.7850 C   0  0  0  0  0  0  0  0  0  0  0  0
   -5.9040   19.6350  -34.3350 N   0  0  0  0  0  0  0  0  0  0  0  0
   -6.7380   19.9580  -33.3750 C   0  0  0  0  0  0  0  0  0  0  0  0
   -6.8560   21.2590  -32.9740 N   0  0  0  0  0  0  0  0  0  0  0  0
   -7.7130   21.5680  -31.9860 C   0  0  0  0  0  0  0  0  0  0  0  0
   -7.9170   22.8920  -31.5060 N   0  0  0  0  0  0  0  0  0  0  0  0
   -6.7390   23.6380  -31.1900 C   0  0  0  0  0  0  0  0  0  0  0  0
   -5.4470   23.6090  -31.6810 C   0  0  0  0  0  0  0  0  0  0  0  0
   -4.7580   22.8650  -32.6900 N   0  0  0  0  0  0  0  0  0  0  0  0
   -3.7900   21.9120  -32.2600 C   0  0  0  0  0  0  0  0  0  0  0  0
   -3.3460   21.8110  -30.9600 C   0  0  0  0  0  0  0  0  0  0  0  0
   -2.4000   20.8800  -30.5550 C   0  0  0  0  0  0  0  0  0  0  0  0
   -1.8610   20.7880  -28.8740 Cl  0  0  0  0  0  0  0  0  0  0  0  0
   -1.8460   19.9860  -31.4800 C   0  0  0  0  0  0  0  0  0  0  0  0
   -2.2890   20.0880  -32.7790 C   0  0  0  0  0  0  0  0  0  0  0  0
   -1.6610   19.0140  -34.0350 Cl  0  0  0  0  0  0  0  0  0  0  0  0
   -3.2260   21.0100  -33.1720 C   0  0  0  0  0  0  0  0  0  0  0  0
   -5.1230   24.6230  -30.7770 C   0  0  0  0  0  0  0  0  0  0  0  0
   -4.0580   25.2610  -30.5150 O   0  0  0  0  0  0  0  0  0  0  0  0
   -6.4310   24.6380  -30.2960 C   0  0  0  0  0  0  0  0  0  0  0  0
   -7.0010   25.3280  -29.3990 O   0  0  0  0  0  0  0  0  0  0  0  0
   -8.4870   20.5810  -31.3640 C   0  0  0  0  0  0  0  0  0  0  0  0
   -8.3550   19.2780  -31.7810 C   0  0  0  0  0  0  0  0  0  0  0  0
   -9.0560   18.3440  -31.2330 N   0  0  0  0  0  0  0  0  0  0  0  0
   -7.4860   19.0040  -32.7730 N   0  0  0  0  0  0  0  0  0  0  0  0
   -6.2719   16.0549  -31.1445 H   0  0  0  0  0  0  0  0  0  0  0  0
   -4.6591   16.8128  -31.3706 H   0  0  0  0  0  0  0  0  0  0  0  0
   -6.1383   17.8319  -31.3706 H   0  0  0  0  0  0  0  0  0  0  0  0
   -4.3848   18.0958  -33.1488 H   0  0  0  0  0  0  0  0  0  0  0  0
   -4.3172   16.7465  -34.3439 H   0  0  0  0  0  0  0  0  0  0  0  0
   -5.2238   18.2603  -35.7477 H   0  0  0  0  0  0  0  0  0  0  0  0
   -6.7601   17.8266  -34.8878 H   0  0  0  0  0  0  0  0  0  0  0  0
   -6.2900   22.0030  -33.4230 H   0  0  0  0  0  0  0  0  0  0  0  0
   -8.8830   23.2900  -31.3950 H   0  0  0  0  0  0  0  0  0  0  0  0
   -4.9240   22.9800  -33.7090 H   0  0  0  0  0  0  0  0  0  0  0  0
   -3.7601   22.4996  -30.2088 H   0  0  0  0  0  0  0  0  0  0  0  0
   -1.0944   19.2397  -31.1831 H   0  0  0  0  0  0  0  0  0  0  0  0
   -3.5412   21.0418  -34.2254 H   0  0  0  0  0  0  0  0  0  0  0  0
   -9.1872   20.8433  -30.5572 H   0  0  0  0  0  0  0  0  0  0  0  0
   -9.7130   18.6190  -30.4730 H   0  0  0  0  0  0  0  0  0  0  0  0
   -7.4170   18.0040  -33.0590 H   0  0  0  0  0  0  0  0  0  0  0  0
  1  2  1  0
  2  3  1  0
  3  4  1  0
  4  5  1  0
  5  6  2  0
  6  7  1  0
  7  8  1  0
  8  9  1  0
  9 10  1  0
 10 11  2  0
 11 12  1  0
 12 13  1  0
 13 14  2  0
 14 15  1  0
 15 16  1  0
 15 17  2  0
 17 18  1  0
 18 19  1  0
 18 20  2  0
 11 21  1  0
 21 22  2  0
 21 23  1  0
 23 24  2  0
  8 25  2  0
 25 26  1  0
 26 27  2  3
 26 28  1  0
 28  6  1  0
 23 10  1  0
 20 13  1  0
  1 29  1  0
  1 30  1  0
  1 31  1  0
  3 32  1  0
  3 33  1  0
  4 34  1  0
  4 35  1  0
  7 36  1  0
  9 37  1  0
 12 38  1  0
 14 39  1  0
 17 40  1  0
 20 41  1  0
 25 42  1  0
 27 43  1  0
 28 44  1  0
M  END
>  <smiles>  (15) 
COCCN=c1[nH]c(Nc2c(Nc3cc(Cl)cc(Cl)c3)c(=O)c2=O)cc(=N)[nH]1

>  <score_type>  (15) 
oracle

>  <origin>  (15) 
adgpu

>  <m_score__min__energy>  (15) 
-8.8800000000000008

>  <m_primary>  (15) 
energy

$$$$
15:0
     RDKit          3D

 37 39  0  0  0  0  0  0  0  0999 V2000
   -4.2887   16.7460  -35.5814 H   0  0  0  0  0  0  0  0  0  0  0  0
   -5.0250   17.3090  -34.9890 C   0  0  0  0  0  0  0  0  0  0  0  0
   -5.4970   18.5010  -35.2850 O   0  0  0  0  0  0  0  0  0  0  0  0
   -6.3550   18.9090  -34.3950 N   0  0  0  0  0  0  0  0  0  0  0  0
   -6.4360   17.9260  -33.4790 C   0  0  0  0  0  0  0  0  0  0  0  0
   -7.1910   17.9620  -32.4250 N   0  0  0  0  0  0  0  0  0  0  0  0
   -8.2160   19.3080  -32.0430 S   0  0  0  0  0  0  0  0  0  0  0  0
   -9.0520   18.9660  -30.8420 O   0  0  0  0  0  0  0  0  0  0  0  0
   -9.1230   19.5790  -33.2110 O   0  0  0  0  0  0  0  0  0  0  0  0
   -7.2390   20.7260  -31.6760 C   0  0  0  0  0  0  0  0  0  0  0  0
   -7.8010   21.8230  -31.0140 C   0  0  0  0  0  0  0  0  0  0  0  0
   -8.8603   21.8009  -30.7183 H   0  0  0  0  0  0  0  0  0  0  0  0
   -7.0210   22.9470  -30.7270 C   0  0  0  0  0  0  0  0  0  0  0  0
   -7.4736   23.8078  -30.2130 H   0  0  0  0  0  0  0  0  0  0  0  0
   -5.6650   22.9870  -31.0890 C   0  0  0  0  0  0  0  0  0  0  0  0
   -4.8880   24.1590  -30.7740 N   0  0  0  0  0  0  0  0  0  0  0  0
   -4.6090   24.7940  -31.5560 H   0  0  0  0  0  0  0  0  0  0  0  0
   -4.5270   24.5730  -29.4170 C   0  0  0  0  0  0  0  0  0  0  0  0
   -4.2794   25.6448  -29.4203 H   0  0  0  0  0  0  0  0  0  0  0  0
   -5.3800   24.3804  -28.7497 H   0  0  0  0  0  0  0  0  0  0  0  0
   -3.3360   23.7910  -28.9200 C   0  0  0  0  0  0  0  0  0  0  0  0
   -3.4970   22.4640  -28.4830 C   0  0  0  0  0  0  0  0  0  0  0  0
   -4.4922   21.9963  -28.5108 H   0  0  0  0  0  0  0  0  0  0  0  0
   -2.3990   21.7350  -28.0130 C   0  0  0  0  0  0  0  0  0  0  0  0
   -2.6140   20.0840  -27.4610 Cl  0  0  0  0  0  0  0  0  0  0  0  0
   -1.1310   22.3220  -27.9840 C   0  0  0  0  0  0  0  0  0  0  0  0
   -0.2687   21.7497  -27.6113 H   0  0  0  0  0  0  0  0  0  0  0  0
   -0.9580   23.6350  -28.4280 C   0  0  0  0  0  0  0  0  0  0  0  0
    0.0420   24.0929  -28.4081 H   0  0  0  0  0  0  0  0  0  0  0  0
   -2.0520   24.3700  -28.8980 C   0  0  0  0  0  0  0  0  0  0  0  0
   -1.8550   25.6730  -29.3420 O   0  0  0  0  0  0  0  0  0  0  0  0
   -5.1080   21.8820  -31.7590 C   0  0  0  0  0  0  0  0  0  0  0  0
   -4.0501   21.9023  -32.0598 H   0  0  0  0  0  0  0  0  0  0  0  0
   -5.8890   20.7590  -32.0450 C   0  0  0  0  0  0  0  0  0  0  0  0
   -5.4412   19.8976  -32.5621 H   0  0  0  0  0  0  0  0  0  0  0  0
   -5.6060   16.8820  -33.8130 C   0  0  0  0  0  0  0  0  0  0  0  0
   -5.4446   15.9368  -33.2739 H   0  0  0  0  0  0  0  0  0  0  0  0
  1  2  1  0
  2  3  1  0
  3  4  1  0
  4  5  1  0
  5  6  2  0
  6  7  1  0
  7  8  2  0
  7  9  2  0
  7 10  1  0
 10 11  2  0
 11 12  1  0
 11 13  1  0
 13 14  1  0
 13 15  2  0
 15 16  1  0
 16 17  1  0
 16 18  1  0
 18 19  1  0
 18 20  1  0
 18 21  1  0
 21 22  2  0
 22 23  1  0
 22 24  1  0
 24 25  1  0
 24 26  2  0
 26 27  1  0
 26 28  1  0
 28 29  1  0
 28 30  2  0
 30 31  1  0
 15 32  1  0
 32 33  1  0
 32 34  2  0
 34 35  1  0
  5 36  1  0
 36 37  1  0
 36  2  2  0
 34 10  1  0
 30 21  1  0
M  CHG  2   4  -1  31  -1
M  END
>  <UniqueID>  (16) 
14

>  <SMILES>  (16) 
O=S(=O)(/N=c1/cco[n-]1)c1ccc(NCc2cc(Cl)ccc2[O-])cc1

>  <Energy>  (16) 
73.06743612660604

>  <Genealogy>  (16) 
O=S(=O)(N=c1cco[n-]1)c1ccc(NCc2cc(Cl)ccc2[O-])cc1 (protonated)
O=S(=O)(/N=c1/cco[n-]1)c1ccc(NCc2cc(Cl)ccc2[O-])cc1 (cis-trans isomerization)
O=S(=O)(/N=c1/cco[n-]1)c1ccc(NCc2cc(Cl)ccc2[O-])cc1 (3D coordinates assigned)
O=S(=O)(/N=c1/cco[n-]1)c1ccc(NCc2cc(Cl)ccc2[O-])cc1 (optimized conformer: 73.06743612660604 kcal/mol)

>  <smiles>  (16) 
O=S(=O)(N=c1cco[nH]1)c1ccc(NCc2cc(Cl)ccc2O)cc1

>  <score_type>  (16) 
oracle

>  <origin>  (16) 
adgpu

>  <m_score__min__energy>  (16) 
-12.02

>  <m_primary>  (16) 
energy

$$$$
16:0
     RDKit          3D

 40 42  0  0  0  0  0  0  0  0999 V2000
    0.9291   24.9060  -28.1471 H   0  0  0  0  0  0  0  0  0  0  0  0
   -0.1550   24.9030  -27.9610 C   0  0  0  0  0  0  0  0  0  0  0  0
   -1.0250   24.9120  -29.0060 N   0  0  0  0  0  0  0  0  0  0  0  0
   -2.3750   24.9080  -28.8310 C   0  0  0  0  0  0  0  0  0  0  0  0
   -3.1360   24.9240  -29.8870 N   0  0  0  0  0  0  0  0  0  0  0  0
   -4.8740   24.9380  -29.9120 S   0  0  0  0  0  0  0  0  0  0  0  0
   -5.3480   26.2440  -30.4870 O   0  0  0  0  0  0  0  0  0  0  0  0
   -5.3850   24.8090  -28.5070 O   0  0  0  0  0  0  0  0  0  0  0  0
   -5.4800   23.5850  -30.8630 C   0  0  0  0  0  0  0  0  0  0  0  0
   -4.6160   22.8840  -31.7140 C   0  0  0  0  0  0  0  0  0  0  0  0
   -3.5562   23.1718  -31.7773 H   0  0  0  0  0  0  0  0  0  0  0  0
   -5.0960   21.8200  -32.4830 C   0  0  0  0  0  0  0  0  0  0  0  0
   -4.4117   21.2702  -33.1459 H   0  0  0  0  0  0  0  0  0  0  0  0
   -6.4510   21.4500  -32.4120 C   0  0  0  0  0  0  0  0  0  0  0  0
   -6.9680   20.3810  -33.1600 O   0  0  0  0  0  0  0  0  0  0  0  0
   -6.2930   19.1830  -33.4370 C   0  0  0  0  0  0  0  0  0  0  0  0
   -6.1160   18.7140  -34.7510 C   0  0  0  0  0  0  0  0  0  0  0  0
   -6.5019   19.3010  -35.5975 H   0  0  0  0  0  0  0  0  0  0  0  0
   -5.4530   17.5070  -34.9880 C   0  0  0  0  0  0  0  0  0  0  0  0
   -5.3108   17.1536  -36.0199 H   0  0  0  0  0  0  0  0  0  0  0  0
   -4.9660   16.7410  -33.9110 C   0  0  0  0  0  0  0  0  0  0  0  0
   -4.2900   15.5240  -34.0890 O   0  0  0  0  0  0  0  0  0  0  0  0
   -4.7060   14.2660  -33.5620 C   0  0  0  0  0  0  0  0  0  0  0  0
   -4.5370   14.2440  -32.1890 F   0  0  0  0  0  0  0  0  0  0  0  0
   -6.0440   14.0790  -33.8480 F   0  0  0  0  0  0  0  0  0  0  0  0
   -3.9790   13.2420  -34.1440 F   0  0  0  0  0  0  0  0  0  0  0  0
   -5.1630   17.2030  -32.6040 C   0  0  0  0  0  0  0  0  0  0  0  0
   -4.7928   16.6101  -31.7546 H   0  0  0  0  0  0  0  0  0  0  0  0
   -5.8260   18.4110  -32.3690 C   0  0  0  0  0  0  0  0  0  0  0  0
   -5.9814   18.7567  -31.3364 H   0  0  0  0  0  0  0  0  0  0  0  0
   -7.3030   22.1330  -31.5380 C   0  0  0  0  0  0  0  0  0  0  0  0
   -8.3571   21.8300  -31.4541 H   0  0  0  0  0  0  0  0  0  0  0  0
   -6.8230   23.1990  -30.7700 C   0  0  0  0  0  0  0  0  0  0  0  0
   -7.5022   23.7355  -30.0912 H   0  0  0  0  0  0  0  0  0  0  0  0
   -2.8940   24.8920  -27.5190 C   0  0  0  0  0  0  0  0  0  0  0  0
   -3.9813   24.8851  -27.3524 H   0  0  0  0  0  0  0  0  0  0  0  0
   -2.0150   24.8850  -26.4340 C   0  0  0  0  0  0  0  0  0  0  0  0
   -2.4091   24.8755  -25.4071 H   0  0  0  0  0  0  0  0  0  0  0  0
   -0.6390   24.8900  -26.6520 C   0  0  0  0  0  0  0  0  0  0  0  0
    0.2220   24.8830  -25.6040 F   0  0  0  0  0  0  0  0  0  0  0  0
  1  2  1  0
  2  3  1  0
  3  4  1  0
  4  5  2  0
  5  6  1  0
  6  7  2  0
  6  8  2  0
  6  9  1  0
  9 10  2  0
 10 11  1  0
 10 12  1  0
 12 13  1  0
 12 14  2  0
 14 15  1  0
 15 16  1  0
 16 17  2  0
 17 18  1  0
 17 19  1  0
 19 20  1  0
 19 21  2  0
 21 22  1  0
 22 23  1  0
 23 24  1  0
 23 25  1  0
 23 26  1  0
 21 27  1  0
 27 28  1  0
 27 29  2  0
 29 30  1  0
 14 31  1  0
 31 32  1  0
 31 33  2  0
 33 34  1  0
  4 35  1  0
 35 36  1  0
 35 37  2  0
 37 38  1  0
 37 39  1  0
 39 40  1  0
 39  2  2  0
 33  9  1  0
 29 16  1  0
M  CHG  1   3  -1
M  END
>  <UniqueID>  (17) 
15

>  <SMILES>  (17) 
O=S(=O)(/N=c1\ccc(F)c[n-]1)c1ccc(Oc2ccc(OC(F)(F)F)cc2)cc1

>  <Energy>  (17) 
55.4686019308439

>  <Genealogy>  (17) 
O=S(=O)(N=c1ccc(F)c[n-]1)c1ccc(Oc2ccc(OC(F)(F)F)cc2)cc1 (protonated)
O=S(=O)(/N=c1\ccc(F)c[n-]1)c1ccc(Oc2ccc(OC(F)(F)F)cc2)cc1 (cis-trans isomerization)
O=S(=O)(/N=c1\ccc(F)c[n-]1)c1ccc(Oc2ccc(OC(F)(F)F)cc2)cc1 (3D coordinates assigned)
O=S(=O)(/N=c1\ccc(F)c[n-]1)c1ccc(Oc2ccc(OC(F)(F)F)cc2)cc1 (optimized conformer: 55.4686019308439 kcal/mol)

>  <smiles>  (17) 
O=S(=O)(N=c1ccc(F)c[nH]1)c1ccc(Oc2ccc(OC(F)(F)F)cc2)cc1

>  <score_type>  (17) 
oracle

>  <origin>  (17) 
adgpu

>  <m_score__min__energy>  (17) 
-9.3100000000000005

>  <m_primary>  (17) 
energy

$$$$
17:0
     RDKit          3D

 39 42  0  0  0  0  0  0  0  0999 V2000
   -3.8820   25.6650  -30.8350 O   0  0  0  0  0  0  0  0  0  0  0  0
   -4.0710   24.4760  -30.4650 C   0  0  0  0  0  0  0  0  0  0  0  0
   -4.9650   23.6820  -31.1730 O   0  0  0  0  0  0  0  0  0  0  0  0
   -3.3050   23.9190  -29.3300 C   0  0  0  0  0  0  0  0  0  0  0  0
   -3.4990   24.4500  -28.0360 C   0  0  0  0  0  0  0  0  0  0  0  0
   -2.6630   24.0700  -26.9730 C   0  0  0  0  0  0  0  0  0  0  0  0
   -1.6110   23.1720  -27.1870 C   0  0  0  0  0  0  0  0  0  0  0  0
   -1.4440   22.6340  -28.4620 C   0  0  0  0  0  0  0  0  0  0  0  0
   -2.2930   22.9450  -29.4930 C   0  0  0  0  0  0  0  0  0  0  0  0
   -1.9540   22.2130  -30.6680 N   0  0  0  0  0  0  0  0  0  0  0  0
   -2.8920   21.7010  -31.6260 C   0  0  0  0  0  0  0  0  0  0  0  0
   -4.0640   21.0280  -31.3580 C   0  0  0  0  0  0  0  0  0  0  0  0
   -4.5510   20.6580  -32.5540 N   0  0  0  0  0  0  0  0  0  0  0  0
   -5.7450   19.8570  -32.8010 C   0  0  0  0  0  0  0  0  0  0  0  0
   -6.9720   20.6100  -32.3530 C   0  0  0  0  0  0  0  0  0  0  0  0
   -6.9420   22.0150  -32.3460 C   0  0  0  0  0  0  0  0  0  0  0  0
   -8.0730   22.7480  -31.9730 C   0  0  0  0  0  0  0  0  0  0  0  0
   -9.2460   22.0850  -31.6130 C   0  0  0  0  0  0  0  0  0  0  0  0
   -9.2950   20.6900  -31.6290 C   0  0  0  0  0  0  0  0  0  0  0  0
   -8.1690   19.9460  -32.0030 C   0  0  0  0  0  0  0  0  0  0  0  0
   -8.3030   18.1900  -32.0150 Cl  0  0  0  0  0  0  0  0  0  0  0  0
   -3.7080   21.0540  -33.4960 N   0  0  0  0  0  0  0  0  0  0  0  0
   -2.6790   21.6930  -32.9570 N   0  0  0  0  0  0  0  0  0  0  0  0
   -0.6920   21.5100  -30.4150 C   0  0  0  0  0  0  0  0  0  0  0  0
   -0.3850   21.6940  -28.9130 C   0  0  0  0  0  0  0  0  0  0  0  0
   -4.3129   25.1684  -27.8586 H   0  0  0  0  0  0  0  0  0  0  0  0
   -2.8361   24.4803  -25.9672 H   0  0  0  0  0  0  0  0  0  0  0  0
   -0.9311   22.8969  -26.3672 H   0  0  0  0  0  0  0  0  0  0  0  0
   -4.5083   20.8341  -30.3706 H   0  0  0  0  0  0  0  0  0  0  0  0
   -5.8227   19.6408  -33.8767 H   0  0  0  0  0  0  0  0  0  0  0  0
   -5.6721   18.9160  -32.2360 H   0  0  0  0  0  0  0  0  0  0  0  0
   -6.0214   22.5424  -32.6363 H   0  0  0  0  0  0  0  0  0  0  0  0
   -8.0375   23.8474  -31.9635 H   0  0  0  0  0  0  0  0  0  0  0  0
  -10.1340   22.6623  -31.3160 H   0  0  0  0  0  0  0  0  0  0  0  0
  -10.2234   20.1722  -31.3462 H   0  0  0  0  0  0  0  0  0  0  0  0
   -0.7971   20.4414  -30.6538 H   0  0  0  0  0  0  0  0  0  0  0  0
    0.1199   21.9099  -31.0402 H   0  0  0  0  0  0  0  0  0  0  0  0
   -0.4532   20.7362  -28.3763 H   0  0  0  0  0  0  0  0  0  0  0  0
    0.6322   22.0674  -28.7234 H   0  0  0  0  0  0  0  0  0  0  0  0
  1  2  2  0
  2  3  1  0
  2  4  1  0
  4  5  2  0
  5  6  1  0
  6  7  2  0
  7  8  1  0
  8  9  2  0
  9 10  1  0
 10 11  1  0
 11 12  2  0
 12 13  1  0
 13 14  1  0
 14 15  1  0
 15 16  2  0
 16 17  1  0
 17 18  2  0
 18 19  1  0
 19 20  2  0
 20 21  1  0
 13 22  1  0
 22 23  2  0
 10 24  1  0
 24 25  1  0
  9  4  1  0
 23 11  1  0
 25  8  1  0
 20 15  1  0
  5 26  1  0
  6 27  1  0
  7 28  1  0
 12 29  1  0
 14 30  1  0
 14 31  1  0
 16 32  1  0
 17 33  1  0
 18 34  1  0
 19 35  1  0
 24 36  1  0
 24 37  1  0
 25 38  1  0
 25 39  1  0
M  CHG  1   3  -1
M  END
>  <UniqueID>  (18) 
16

>  <SMILES>  (18) 
O=C([O-])c1cccc2c1N(c1cn(Cc3ccccc3Cl)nn1)CC2

>  <Energy>  (18) 
102.56444790349187

>  <Genealogy>  (18) 
O=C([O-])c1cccc2c1N(c1cn(Cc3ccccc3Cl)nn1)CC2 (protonated)
O=C([O-])c1cccc2c1N(c1cn(Cc3ccccc3Cl)nn1)CC2 (3D coordinates assigned)
O=C([O-])c1cccc2c1N(c1cn(Cc3ccccc3Cl)nn1)CC2 (nonaromatic ring conformer: 102.56444790349187 kcal/mol)

>  <smiles>  (18) 
O=C(O)c1cccc2c1N(c1cn(Cc3ccccc3Cl)nn1)CC2

>  <score_type>  (18) 
oracle

>  <origin>  (18) 
adgpu

>  <m_score__min__energy>  (18) 
-11.19

>  <m_primary>  (18) 
energy

$$$$
18:0
     RDKit          3D

 44 47  0  0  0  0  0  0  0  0999 V2000
    0.3960   17.2880  -35.3150 C   0  0  0  0  0  0  0  0  0  0  0  0
    0.4580   18.6020  -34.7730 O   0  0  0  0  0  0  0  0  0  0  0  0
   -0.6450   19.3010  -34.2570 C   0  0  0  0  0  0  0  0  0  0  0  0
   -1.8840   18.6540  -34.2250 C   0  0  0  0  0  0  0  0  0  0  0  0
   -3.0130   19.3060  -33.7200 C   0  0  0  0  0  0  0  0  0  0  0  0
   -2.9200   20.6200  -33.2280 C   0  0  0  0  0  0  0  0  0  0  0  0
   -4.1330   21.2990  -32.7020 C   0  0  0  0  0  0  0  0  0  0  0  0
   -4.0640   22.5550  -32.0800 C   0  0  0  0  0  0  0  0  0  0  0  0
   -5.2280   23.1790  -31.6070 C   0  0  0  0  0  0  0  0  0  0  0  0
   -5.1010   24.5370  -31.0330 C   0  0  0  0  0  0  0  0  0  0  0  0
   -6.1000   25.3050  -31.0330 O   0  0  0  0  0  0  0  0  0  0  0  0
   -3.8540   24.9650  -30.4690 N   0  0  0  0  0  0  0  0  0  0  0  0
   -3.0970   24.2930  -29.4530 C   0  0  0  0  0  0  0  0  0  0  0  0
   -3.6210   24.2310  -28.1550 C   0  0  0  0  0  0  0  0  0  0  0  0
   -2.9040   23.6020  -27.1320 C   0  0  0  0  0  0  0  0  0  0  0  0
   -1.6520   23.0420  -27.3960 C   0  0  0  0  0  0  0  0  0  0  0  0
   -1.1090   23.1210  -28.6810 C   0  0  0  0  0  0  0  0  0  0  0  0
   -1.8230   23.7490  -29.7070 C   0  0  0  0  0  0  0  0  0  0  0  0
   -6.4680   22.5010  -31.7190 C   0  0  0  0  0  0  0  0  0  0  0  0
   -7.6740   23.0100  -31.1890 C   0  0  0  0  0  0  0  0  0  0  0  0
   -8.8680   22.2960  -31.3320 C   0  0  0  0  0  0  0  0  0  0  0  0
   -8.8780   21.0660  -31.9880 C   0  0  0  0  0  0  0  0  0  0  0  0
   -7.6910   20.5310  -32.4910 C   0  0  0  0  0  0  0  0  0  0  0  0
   -6.4890   21.2330  -32.3520 C   0  0  0  0  0  0  0  0  0  0  0  0
   -5.3390   20.6810  -32.8160 N   0  0  0  0  0  0  0  0  0  0  0  0
   -1.6730   21.2730  -33.2730 C   0  0  0  0  0  0  0  0  0  0  0  0
   -0.5460   20.6200  -33.7790 C   0  0  0  0  0  0  0  0  0  0  0  0
    0.3614   16.5547  -34.4958 H   0  0  0  0  0  0  0  0  0  0  0  0
   -0.5078   17.1890  -35.9341 H   0  0  0  0  0  0  0  0  0  0  0  0
    1.2865   17.1043  -35.9341 H   0  0  0  0  0  0  0  0  0  0  0  0
   -1.9713   17.6236  -34.6002 H   0  0  0  0  0  0  0  0  0  0  0  0
   -3.9825   18.7865  -33.7075 H   0  0  0  0  0  0  0  0  0  0  0  0
   -3.0906   23.0537  -31.9625 H   0  0  0  0  0  0  0  0  0  0  0  0
   -4.6019   24.6796  -27.9393 H   0  0  0  0  0  0  0  0  0  0  0  0
   -3.3268   23.5483  -26.1179 H   0  0  0  0  0  0  0  0  0  0  0  0
   -1.0937   22.5390  -26.5927 H   0  0  0  0  0  0  0  0  0  0  0  0
   -0.1185   22.6887  -28.8862 H   0  0  0  0  0  0  0  0  0  0  0  0
   -1.3882   23.8181  -30.7150 H   0  0  0  0  0  0  0  0  0  0  0  0
   -7.6742   23.9745  -30.6602 H   0  0  0  0  0  0  0  0  0  0  0  0
   -9.8037   22.7069  -30.9249 H   0  0  0  0  0  0  0  0  0  0  0  0
   -9.8229   20.5161  -32.1094 H   0  0  0  0  0  0  0  0  0  0  0  0
   -7.7007   19.5549  -32.9980 H   0  0  0  0  0  0  0  0  0  0  0  0
   -1.5854   22.3064  -32.9065 H   0  0  0  0  0  0  0  0  0  0  0  0
    0.4230   21.1400  -33.8036 H   0  0  0  0  0  0  0  0  0  0  0  0
  1  2  1  0
  2  3  1  0
  3  4  2  0
  4  5  1  0
  5  6  2  0
  6  7  1  0
  7  8  2  0
  8  9  1  0
  9 10  1  0
 10 11  2  0
 10 12  1  0
 12 13  1  0
 13 14  2  0
 14 15  1  0
 15 16  2  0
 16 17  1  0
 17 18  2  0
  9 19  2  0
 19 20  1  0
 20 21  2  0
 21 22  1  0
 22 23  2  0
 23 24  1  0
 24 25  2  0
  6 26  1  0
 26 27  2  0
 27  3  1  0
 25  7  1  0
 18 13  1  0
 24 19  1  0
  1 28  1  0
  1 29  1  0
  1 30  1  0
  4 31  1  0
  5 32  1  0
  8 33  1  0
 14 34  1  0
 15 35  1  0
 16 36  1  0
 17 37  1  0
 18 38  1  0
 20 39  1  0
 21 40  1  0
 22 41  1  0
 23 42  1  0
 26 43  1  0
 27 44  1  0
M  CHG  1  12  -1
M  END
>  <UniqueID>  (19) 
17

>  <SMILES>  (19) 
COc1ccc(-c2cc(C(=O)[N-]c3ccccc3)c3ccccc3n2)cc1

>  <Energy>  (19) 
66.11931431462767

>  <Genealogy>  (19) 
COc1ccc(-c2cc(C(=O)[N-]c3ccccc3)c3ccccc3n2)cc1 (protonated)
COc1ccc(-c2cc(C(=O)[N-]c3ccccc3)c3ccccc3n2)cc1 (3D coordinates assigned)
COc1ccc(-c2cc(C(=O)[N-]c3ccccc3)c3ccccc3n2)cc1 (optimized conformer: 66.11931431462767 kcal/mol)

>  <smiles>  (19) 
COc1ccc(-c2cc(C(=O)Nc3ccccc3)c3ccccc3n2)cc1

>  <score_type>  (19) 
oracle

>  <origin>  (19) 
adgpu

>  <m_score__min__energy>  (19) 
-10.09

>  <m_primary>  (19) 
energy

$$$$
19:0
     RDKit          3D

 29 29  0  0  0  0  0  0  0  0999 V2000
   -5.7360   25.6680  -30.2790 C   0  0  0  0  0  0  0  0  0  0  0  0
   -5.7170   24.3020  -30.8870 C   0  0  0  0  0  0  0  0  0  0  0  0
   -6.9110   23.6120  -31.1150 C   0  0  0  0  0  0  0  0  0  0  0  0
   -6.8550   22.3300  -31.6900 C   0  0  0  0  0  0  0  0  0  0  0  0
   -8.0500   21.5570  -31.9540 N   0  0  0  0  0  0  0  0  0  0  0  0
   -9.3810   22.0630  -31.5940 C   0  0  0  0  0  0  0  0  0  0  0  0
   -7.9210   20.2430  -32.5940 C   0  0  0  0  0  0  0  0  0  0  0  0
   -5.6370   21.8080  -32.0030 N   0  0  0  0  0  0  0  0  0  0  0  0
   -4.4800   22.4870  -31.7770 C   0  0  0  0  0  0  0  0  0  0  0  0
   -3.2110   21.8970  -32.1230 N   0  0  0  0  0  0  0  0  0  0  0  0
   -2.0900   21.9800  -31.1820 C   0  0  0  0  0  0  0  0  0  0  0  0
   -3.0520   21.2200  -33.4130 C   0  0  0  0  0  0  0  0  0  0  0  0
   -4.5320   23.7280  -31.2220 N   0  0  0  0  0  0  0  0  0  0  0  0
   -5.7348   25.5813  -29.1824 H   0  0  0  0  0  0  0  0  0  0  0  0
   -4.8455   26.2263  -30.6037 H   0  0  0  0  0  0  0  0  0  0  0  0
   -6.6416   26.2013  -30.6037 H   0  0  0  0  0  0  0  0  0  0  0  0
   -7.8779   24.0641  -30.8492 H   0  0  0  0  0  0  0  0  0  0  0  0
   -9.4757   22.0990  -30.4987 H   0  0  0  0  0  0  0  0  0  0  0  0
   -9.5129   23.0740  -32.0069 H   0  0  0  0  0  0  0  0  0  0  0  0
  -10.1512   21.3950  -32.0069 H   0  0  0  0  0  0  0  0  0  0  0  0
   -7.8446   19.4644  -31.8207 H   0  0  0  0  0  0  0  0  0  0  0  0
   -8.8047   20.0520  -33.2206 H   0  0  0  0  0  0  0  0  0  0  0  0
   -7.0170   20.2275  -33.2206 H   0  0  0  0  0  0  0  0  0  0  0  0
   -2.4735   21.9516  -30.1514 H   0  0  0  0  0  0  0  0  0  0  0  0
   -1.4113   21.1296  -31.3442 H   0  0  0  0  0  0  0  0  0  0  0  0
   -1.5440   22.9210  -31.3442 H   0  0  0  0  0  0  0  0  0  0  0  0
   -2.8035   20.1619  -33.2436 H   0  0  0  0  0  0  0  0  0  0  0  0
   -3.9909   21.2896  -33.9818 H   0  0  0  0  0  0  0  0  0  0  0  0
   -2.2422   21.7003  -33.9818 H   0  0  0  0  0  0  0  0  0  0  0  0
  1  2  1  0
  2  3  2  0
  3  4  1  0
  4  5  1  0
  5  6  1  0
  5  7  1  0
  4  8  2  0
  8  9  1  0
  9 10  1  0
 10 11  1  0
 10 12  1  0
  9 13  2  0
 13  2  1  0
  1 14  1  0
  1 15  1  0
  1 16  1  0
  3 17  1  0
  6 18  1  0
  6 19  1  0
  6 20  1  0
  7 21  1  0
  7 22  1  0
  7 23  1  0
 11 24  1  0
 11 25  1  0
 11 26  1  0
 12 27  1  0
 12 28  1  0
 12 29  1  0
M  END
>  <UniqueID>  (20) 
18

>  <SMILES>  (20) 
Cc1cc(N(C)C)nc(N(C)C)n1

>  <Energy>  (20) 
21.958697520537967

>  <Genealogy>  (20) 
Cc1cc(N(C)C)nc(N(C)C)n1 (3D coordinates assigned)
Cc1cc(N(C)C)nc(N(C)C)n1 (optimized conformer: 21.958697520537967 kcal/mol)

>  <smiles>  (20) 
Cc1cc(N(C)C)nc(N(C)C)n1

>  <score_type>  (20) 
oracle

>  <origin>  (20) 
adgpu

>  <m_score__min__energy>  (20) 
-4.7300000000000004

>  <m_primary>  (20) 
energy

$$$$
20:0
     RDKit          3D

 37 39  0  0  0  0  0  0  0  0999 V2000
   -2.1930   20.9130  -30.9810 C   0  0  0  0  0  0  0  0  0  0  0  0
   -2.4190   22.3330  -30.5280 C   0  0  0  0  0  0  0  0  0  0  0  0
   -1.4900   22.9130  -29.7150 N   0  0  0  0  0  0  0  0  0  0  0  0
   -1.6330   24.1920  -29.2800 C   0  0  0  0  0  0  0  0  0  0  0  0
   -0.7670   24.7040  -28.5240 O   0  0  0  0  0  0  0  0  0  0  0  0
   -2.7100   24.9210  -29.6580 N   0  0  0  0  0  0  0  0  0  0  0  0
   -3.6590   24.4060  -30.4780 C   0  0  0  0  0  0  0  0  0  0  0  0
   -4.6420   25.1260  -30.7970 O   0  0  0  0  0  0  0  0  0  0  0  0
   -3.5380   23.0890  -30.9580 C   0  0  0  0  0  0  0  0  0  0  0  0
   -4.7550   22.4090  -32.0660 S   0  0  0  0  0  0  0  0  0  0  0  0
   -5.5500   23.5370  -32.6600 O   0  0  0  0  0  0  0  0  0  0  0  0
   -4.1200   21.6300  -33.1830 O   0  0  0  0  0  0  0  0  0  0  0  0
   -5.8240   21.3550  -31.1990 N   0  0  0  0  0  0  0  0  0  0  0  0
   -7.1920   21.0940  -31.5500 C   0  0  0  0  0  0  0  0  0  0  0  0
   -8.1480   22.1270  -31.5880 C   0  0  0  0  0  0  0  0  0  0  0  0
   -9.4640   21.8590  -31.9680 C   0  0  0  0  0  0  0  0  0  0  0  0
   -9.8440   20.5610  -32.3110 C   0  0  0  0  0  0  0  0  0  0  0  0
   -8.9070   19.5270  -32.2770 C   0  0  0  0  0  0  0  0  0  0  0  0
   -7.5770   19.7830  -31.9010 C   0  0  0  0  0  0  0  0  0  0  0  0
   -6.5980   18.6750  -31.8780 C   0  0  0  0  0  0  0  0  0  0  0  0
   -6.5240   17.9420  -30.8540 O   0  0  0  0  0  0  0  0  0  0  0  0
   -5.6920   18.4200  -33.0140 C   0  0  0  0  0  0  0  0  0  0  0  0
   -6.0820   18.0030  -34.2830 C   0  0  0  0  0  0  0  0  0  0  0  0
   -5.0050   17.7910  -35.1530 C   0  0  0  0  0  0  0  0  0  0  0  0
   -3.7650   18.0310  -34.5750 C   0  0  0  0  0  0  0  0  0  0  0  0
   -4.0100   18.5030  -32.9810 S   0  0  0  0  0  0  0  0  0  0  0  0
   -2.0891   20.2599  -30.1020 H   0  0  0  0  0  0  0  0  0  0  0  0
   -3.0495   20.5803  -31.5858 H   0  0  0  0  0  0  0  0  0  0  0  0
   -1.2755   20.8627  -31.5858 H   0  0  0  0  0  0  0  0  0  0  0  0
   -0.6490   22.3700  -29.4120 H   0  0  0  0  0  0  0  0  0  0  0  0
   -7.8558   23.1521  -31.3164 H   0  0  0  0  0  0  0  0  0  0  0  0
  -10.2033   22.6730  -31.9971 H   0  0  0  0  0  0  0  0  0  0  0  0
  -10.8823   20.3525  -32.6083 H   0  0  0  0  0  0  0  0  0  0  0  0
   -9.2115   18.5048  -32.5463 H   0  0  0  0  0  0  0  0  0  0  0  0
   -7.1323   17.8545  -34.5741 H   0  0  0  0  0  0  0  0  0  0  0  0
   -5.1295   17.4650  -36.1962 H   0  0  0  0  0  0  0  0  0  0  0  0
   -2.7903   17.9295  -35.0747 H   0  0  0  0  0  0  0  0  0  0  0  0
  1  2  1  0
  2  3  1  0
  3  4  1  0
  4  5  2  0
  4  6  1  0
  6  7  1  0
  7  8  2  0
  7  9  1  0
  9 10  1  0
 10 11  2  0
 10 12  2  0
 10 13  1  0
 13 14  1  0
 14 15  2  0
 15 16  1  0
 16 17  2  0
 17 18  1  0
 18 19  2  0
 19 20  1  0
 20 21  2  0
 20 22  1  0
 22 23  2  0
 23 24  1  0
 24 25  2  0
 25 26  1  0
  9  2  2  0
 19 14  1  0
 26 22  1  0
  1 27  1  0
  1 28  1  0
  1 29  1  0
  3 30  1  0
 15 31  1  0
 16 32  1  0
 17 33  1  0
 18 34  1  0
 23 35  1  0
 24 36  1  0
 25 37  1  0
M  CHG  2   6  -1  13  -1
M  END
>  <UniqueID>  (21) 
19

>  <SMILES>  (21) 
Cc1[nH]c(=O)[n-]c(=O)c1S(=O)(=O)[N-]c1ccccc1C(=O)c1cccs1

>  <Energy>  (21) 
77.50005981155374

>  <Genealogy>  (21) 
Cc1[nH]c(=O)[n-]c(=O)c1S(=O)(=O)[N-]c1ccccc1C(=O)c1cccs1 (protonated)
Cc1[nH]c(=O)[n-]c(=O)c1S(=O)(=O)[N-]c1ccccc1C(=O)c1cccs1 (3D coordinates assigned)
Cc1[nH]c(=O)[n-]c(=O)c1S(=O)(=O)[N-]c1ccccc1C(=O)c1cccs1 (optimized conformer: 77.50005981155374 kcal/mol)

>  <smiles>  (21) 
Cc1[nH]c(=O)[nH]c(=O)c1S(=O)(=O)Nc1ccccc1C(=O)c1cccs1

>  <score_type>  (21) 
oracle

>  <origin>  (21) 
adgpu

>  <m_score__min__energy>  (21) 
-10.289999999999999

>  <m_primary>  (21) 
energy

$$$$
21:0
     RDKit          3D

 35 37  0  0  0  0  0  0  0  0999 V2000
   -7.0720   19.2930  -33.0050 C   0  0  0  0  0  0  0  0  0  0  0  0
   -7.2680   20.6510  -32.3970 C   0  0  0  0  0  0  0  0  0  0  0  0
   -8.5610   21.1580  -32.2040 C   0  0  0  0  0  0  0  0  0  0  0  0
   -8.7440   22.4060  -31.6040 C   0  0  0  0  0  0  0  0  0  0  0  0
   -7.6400   23.1520  -31.1830 C   0  0  0  0  0  0  0  0  0  0  0  0
   -6.3370   22.6510  -31.3530 C   0  0  0  0  0  0  0  0  0  0  0  0
   -5.1690   23.4370  -30.8990 C   0  0  0  0  0  0  0  0  0  0  0  0
   -4.9690   24.7330  -31.2110 N   0  0  0  0  0  0  0  0  0  0  0  0
   -3.8550   25.0510  -30.6270 O   0  0  0  0  0  0  0  0  0  0  0  0
   -3.3850   24.0120  -29.9840 C   0  0  0  0  0  0  0  0  0  0  0  0
   -2.1160   24.0170  -29.1930 C   0  0  0  0  0  0  0  0  0  0  0  0
   -1.7000   25.3900  -28.9080 N   0  0  0  0  0  0  0  0  0  0  0  0
   -1.4190   25.8990  -27.5880 C   0  0  0  0  0  0  0  0  0  0  0  0
   -2.0300   25.3640  -26.4360 C   0  0  0  0  0  0  0  0  0  0  0  0
   -1.7350   25.8850  -25.1730 C   0  0  0  0  0  0  0  0  0  0  0  0
   -0.8280   26.9400  -25.0440 C   0  0  0  0  0  0  0  0  0  0  0  0
   -0.2140   27.4740  -26.1780 C   0  0  0  0  0  0  0  0  0  0  0  0
   -0.5060   26.9570  -27.4430 C   0  0  0  0  0  0  0  0  0  0  0  0
   -4.1840   22.9380  -30.1210 N   0  0  0  0  0  0  0  0  0  0  0  0
   -6.1600   21.3940  -31.9570 C   0  0  0  0  0  0  0  0  0  0  0  0
   -6.9641   18.5454  -32.2054 H   0  0  0  0  0  0  0  0  0  0  0  0
   -7.9431   19.0408  -33.6276 H   0  0  0  0  0  0  0  0  0  0  0  0
   -6.1652   19.2974  -33.6276 H   0  0  0  0  0  0  0  0  0  0  0  0
   -9.4338   20.5711  -32.5261 H   0  0  0  0  0  0  0  0  0  0  0  0
   -9.7602   22.8027  -31.4625 H   0  0  0  0  0  0  0  0  0  0  0  0
   -7.7909   24.1365  -30.7161 H   0  0  0  0  0  0  0  0  0  0  0  0
   -2.2773   23.4827  -28.2451 H   0  0  0  0  0  0  0  0  0  0  0  0
   -1.3285   23.5189  -29.7775 H   0  0  0  0  0  0  0  0  0  0  0  0
   -1.6200   26.0420  -29.7220 H   0  0  0  0  0  0  0  0  0  0  0  0
   -2.7430   24.5318  -26.5315 H   0  0  0  0  0  0  0  0  0  0  0  0
   -2.2178   25.4637  -24.2789 H   0  0  0  0  0  0  0  0  0  0  0  0
   -0.5980   27.3495  -24.0493 H   0  0  0  0  0  0  0  0  0  0  0  0
    0.5012   28.3035  -26.0757 H   0  0  0  0  0  0  0  0  0  0  0  0
   -0.0172   27.3817  -28.3322 H   0  0  0  0  0  0  0  0  0  0  0  0
   -5.1455   20.9889  -32.0861 H   0  0  0  0  0  0  0  0  0  0  0  0
  1  2  1  0
  2  3  2  0
  3  4  1  0
  4  5  2  0
  5  6  1  0
  6  7  1  0
  7  8  2  0
  8  9  1  0
  9 10  1  0
 10 11  1  0
 11 12  1  0
 12 13  1  0
 13 14  2  0
 14 15  1  0
 15 16  2  0
 16 17  1  0
 17 18  2  0
 10 19  2  0
  6 20  2  0
 20  2  1  0
 19  7  1  0
 18 13  1  0
  1 21  1  0
  1 22  1  0
  1 23  1  0
  3 24  1  0
  4 25  1  0
  5 26  1  0
 11 27  1  0
 11 28  1  0
 12 29  1  0
 14 30  1  0
 15 31  1  0
 16 32  1  0
 17 33  1  0
 18 34  1  0
 20 35  1  0
M  END
>  <UniqueID>  (22) 
20

>  <SMILES>  (22) 
Cc1cccc(-c2noc(CNc3ccccc3)n2)c1

>  <Energy>  (22) 
68.55961880918197

>  <Genealogy>  (22) 
Cc1cccc(-c2noc(CNc3ccccc3)n2)c1 (3D coordinates assigned)
Cc1cccc(-c2noc(CNc3ccccc3)n2)c1 (optimized conformer: 68.55961880918197 kcal/mol)

>  <smiles>  (22) 
Cc1cccc(-c2noc(CNc3ccccc3)n2)c1

>  <score_type>  (22) 
oracle

>  <origin>  (22) 
adgpu

>  <m_score__min__energy>  (22) 
-9.4199999999999999

>  <m_primary>  (22) 
energy

$$$$
22:0
     RDKit          3D

 26 28  0  0  0  0  0  0  0  0999 V2000
   -4.6440   21.5510  -33.4390 H   0  0  0  0  0  0  0  0  0  0  0  0
   -4.5530   20.5600  -33.7390 N   0  0  0  0  0  0  0  0  0  0  0  0
   -5.3690   19.5990  -33.4380 C   0  0  0  0  0  0  0  0  0  0  0  0
   -5.1610   18.3790  -34.0130 N   0  0  0  0  0  0  0  0  0  0  0  0
   -6.0260   17.3350  -33.8690 C   0  0  0  0  0  0  0  0  0  0  0  0
   -5.7973   16.3652  -34.3350 H   0  0  0  0  0  0  0  0  0  0  0  0
   -7.2010   17.4930  -33.1320 C   0  0  0  0  0  0  0  0  0  0  0  0
   -7.9286   16.6734  -33.0379 H   0  0  0  0  0  0  0  0  0  0  0  0
   -7.4190   18.7210  -32.5220 C   0  0  0  0  0  0  0  0  0  0  0  0
   -8.7310   19.1520  -31.5750 S   0  0  0  0  0  0  0  0  0  0  0  0
   -8.1670   20.6990  -31.2250 C   0  0  0  0  0  0  0  0  0  0  0  0
   -8.6950   21.4432  -30.6107 H   0  0  0  0  0  0  0  0  0  0  0  0
   -6.9250   20.8920  -31.8350 C   0  0  0  0  0  0  0  0  0  0  0  0
   -6.1140   22.0750  -31.4990 C   0  0  0  0  0  0  0  0  0  0  0  0
   -6.6150   23.3630  -31.7310 C   0  0  0  0  0  0  0  0  0  0  0  0
   -7.6059   23.4908  -32.1913 H   0  0  0  0  0  0  0  0  0  0  0  0
   -5.8610   24.4850  -31.3800 C   0  0  0  0  0  0  0  0  0  0  0  0
   -6.2567   25.4923  -31.5771 H   0  0  0  0  0  0  0  0  0  0  0  0
   -4.6050   24.3370  -30.7790 C   0  0  0  0  0  0  0  0  0  0  0  0
   -3.8850   25.4840  -30.4460 O   0  0  0  0  0  0  0  0  0  0  0  0
   -2.9550   25.6700  -30.8020 H   0  0  0  0  0  0  0  0  0  0  0  0
   -4.1050   23.0440  -30.5240 C   0  0  0  0  0  0  0  0  0  0  0  0
   -2.3990   22.7610  -29.6970 Br  0  0  0  0  0  0  0  0  0  0  0  0
   -4.8640   21.9230  -30.8770 C   0  0  0  0  0  0  0  0  0  0  0  0
   -4.4787   20.9146  -30.6657 H   0  0  0  0  0  0  0  0  0  0  0  0
   -6.5130   19.7750  -32.6130 C   0  0  0  0  0  0  0  0  0  0  0  0
  1  2  1  0
  2  3  2  0
  3  4  1  0
  4  5  1  0
  5  6  1  0
  5  7  2  0
  7  8  1  0
  7  9  1  0
  9 10  1  0
 10 11  1  0
 11 12  1  0
 11 13  2  0
 13 14  1  0
 14 15  2  0
 15 16  1  0
 15 17  1  0
 17 18  1  0
 17 19  2  0
 19 20  1  0
 20 21  1  0
 19 22  1  0
 22 23  1  0
 22 24  2  0
 24 25  1  0
 13 26  1  0
 26  3  1  0
 26  9  2  0
 24 14  1  0
M  CHG  1   4  -1
M  END
>  <UniqueID>  (23) 
21

>  <SMILES>  (23) 
[H]/N=c1/[n-]ccc2scc(-c3ccc(O)c(Br)c3)c12

>  <Energy>  (23) 
74.76676589947385

>  <Genealogy>  (23) 
N=c1[n-]ccc2scc(-c3ccc(O)c(Br)c3)c12 (protonated)
[H]/N=c1/[n-]ccc2scc(-c3ccc(O)c(Br)c3)c12 (cis-trans isomerization)
[H]/N=c1/[n-]ccc2scc(-c3ccc(O)c(Br)c3)c12 (3D coordinates assigned)
[H]/N=c1/[n-]ccc2scc(-c3ccc(O)c(Br)c3)c12 (optimized conformer: 74.76676589947385 kcal/mol)

>  <smiles>  (23) 
N=c1[nH]ccc2scc(-c3ccc(O)c(Br)c3)c12

>  <score_type>  (23) 
oracle

>  <origin>  (23) 
adgpu

>  <m_score__min__energy>  (23) 
-9.2400000000000002

>  <m_primary>  (23) 
energy

$$$$
23:0
     RDKit          3D

 32 34  0  0  0  0  0  0  0  0999 V2000
   -1.0752   25.6187  -29.0638 H   0  0  0  0  0  0  0  0  0  0  0  0
   -1.9540   25.1440  -28.6030 C   0  0  0  0  0  0  0  0  0  0  0  0
   -2.0490   25.1160  -27.2670 C   0  0  0  0  0  0  0  0  0  0  0  0
   -2.9170   24.6173  -26.8110 H   0  0  0  0  0  0  0  0  0  0  0  0
   -1.0350   25.7280  -26.3780 C   0  0  0  0  0  0  0  0  0  0  0  0
   -1.4800   26.3500  -25.2000 C   0  0  0  0  0  0  0  0  0  0  0  0
   -2.5542   26.3651  -24.9636 H   0  0  0  0  0  0  0  0  0  0  0  0
   -0.5710   26.9490  -24.3270 C   0  0  0  0  0  0  0  0  0  0  0  0
   -0.9315   27.4447  -23.4136 H   0  0  0  0  0  0  0  0  0  0  0  0
    0.7930   26.9200  -24.6110 C   0  0  0  0  0  0  0  0  0  0  0  0
    1.5061   27.4021  -23.9261 H   0  0  0  0  0  0  0  0  0  0  0  0
    1.2570   26.2810  -25.7620 C   0  0  0  0  0  0  0  0  0  0  0  0
    2.3355   26.2586  -25.9770 H   0  0  0  0  0  0  0  0  0  0  0  0
    0.3530   25.6640  -26.6510 C   0  0  0  0  0  0  0  0  0  0  0  0
    0.8010   24.9640  -27.7840 O   0  0  0  0  0  0  0  0  0  0  0  0
    0.9970   23.5560  -27.8420 C   0  0  0  0  0  0  0  0  0  0  0  0
    1.0533   23.1513  -26.8207 H   0  0  0  0  0  0  0  0  0  0  0  0
    0.1550   23.0902  -28.3751 H   0  0  0  0  0  0  0  0  0  0  0  0
    1.9342   23.3379  -28.3751 H   0  0  0  0  0  0  0  0  0  0  0  0
   -2.9860   24.5610  -29.4740 C   0  0  0  0  0  0  0  0  0  0  0  0
   -3.0620   23.2240  -29.7050 N   0  0  0  0  0  0  0  0  0  0  0  0
   -4.1170   23.1290  -30.5260 C   0  0  0  0  0  0  0  0  0  0  0  0
   -4.6590   21.9760  -31.0900 C   0  0  0  0  0  0  0  0  0  0  0  0
   -4.2280   20.9849  -30.8853 H   0  0  0  0  0  0  0  0  0  0  0  0
   -5.7790   22.1250  -31.9320 C   0  0  0  0  0  0  0  0  0  0  0  0
   -6.2348   21.2387  -32.3974 H   0  0  0  0  0  0  0  0  0  0  0  0
   -6.3200   23.4060  -32.1820 C   0  0  0  0  0  0  0  0  0  0  0  0
   -7.1953   23.5115  -32.8398 H   0  0  0  0  0  0  0  0  0  0  0  0
   -5.7440   24.5490  -31.5930 C   0  0  0  0  0  0  0  0  0  0  0  0
   -6.1533   25.5529  -31.7789 H   0  0  0  0  0  0  0  0  0  0  0  0
   -4.6380   24.3630  -30.7670 C   0  0  0  0  0  0  0  0  0  0  0  0
   -3.9380   25.2970  -30.1100 N   0  0  0  0  0  0  0  0  0  0  0  0
  1  2  1  0
  2  3  2  0
  3  4  1  0
  3  5  1  0
  5  6  2  0
  6  7  1  0
  6  8  1  0
  8  9  1  0
  8 10  2  0
 10 11  1  0
 10 12  1  0
 12 13  1  0
 12 14  2  0
 14 15  1  0
 15 16  1  0
 16 17  1  0
 16 18  1  0
 16 19  1  0
  2 20  1  0
 20 21  2  0
 21 22  1  0
 22 23  2  0
 23 24  1  0
 23 25  1  0
 25 26  1  0
 25 27  2  0
 27 28  1  0
 27 29  1  0
 29 30  1  0
 29 31  2  0
 31 32  1  0
 14  5  1  0
 32 20  1  0
 31 22  1  0
M  CHG  1  32  -1
M  END
>  <UniqueID>  (24) 
22

>  <SMILES>  (24) 
COc1ccccc1/C=C/c1nc2ccccc2[n-]1

>  <Energy>  (24) 
72.3591431432599

>  <Genealogy>  (24) 
COc1ccccc1C=Cc1nc2ccccc2[n-]1 (protonated)
COc1ccccc1/C=C/c1nc2ccccc2[n-]1 (cis-trans isomerization)
COc1ccccc1/C=C/c1nc2ccccc2[n-]1 (3D coordinates assigned)
COc1ccccc1/C=C/c1nc2ccccc2[n-]1 (optimized conformer: 72.3591431432599 kcal/mol)

>  <smiles>  (24) 
COc1ccccc1C=Cc1nc2ccccc2[nH]1

>  <score_type>  (24) 
oracle

>  <origin>  (24) 
adgpu

>  <m_score__min__energy>  (24) 
-7.4199999999999999

>  <m_primary>  (24) 
energy

$$$$
24:0
     RDKit          3D

 45 47  0  0  1  0  0  0  0  0999 V2000
   -5.4300   25.6740  -30.4530 C   0  0  0  0  0  0  0  0  0  0  0  0
   -4.6470   24.3930  -30.2680 C   0  0  0  0  0  0  0  0  0  0  0  0
   -4.5470   23.7390  -31.5110 O   0  0  0  0  0  0  0  0  0  0  0  0
   -5.4420   22.7230  -31.8080 C   0  0  0  0  0  0  0  0  0  0  0  0
   -6.7630   22.9640  -31.5650 C   0  0  0  0  0  0  0  0  0  0  0  0
   -7.6590   21.9720  -31.8520 C   0  0  0  0  0  0  0  0  0  0  0  0
   -8.9540   22.2100  -31.6110 N   0  0  0  0  0  0  0  0  0  0  0  0
   -9.8660   21.2650  -31.8730 C   0  0  0  0  0  0  0  0  0  0  0  0
   -9.4290   20.1060  -32.3730 N   0  0  0  0  0  0  0  0  0  0  0  0
   -8.1320   19.8310  -32.6290 C   0  0  0  0  0  0  0  0  0  0  0  0
   -7.8270   18.7370  -33.0740 N   0  0  0  0  0  0  0  0  0  0  0  0
   -6.6700   18.1280  -33.4370 C   0  0  0  0  0  0  0  0  0  0  0  0
   -6.0690   18.5190  -34.6630 C   0  0  0  0  0  0  0  0  0  0  0  0
   -4.9740   17.8560  -35.1560 C   0  0  0  0  0  0  0  0  0  0  0  0
   -4.4570   16.7870  -34.4280 C   0  0  0  0  0  0  0  0  0  0  0  0
   -5.0000   16.3740  -33.2410 C   0  0  0  0  0  0  0  0  0  0  0  0
   -4.4700   15.2340  -32.4410 C   0  0  0  0  0  0  0  0  0  0  0  0
   -4.9990   15.2230  -31.1650 F   0  0  0  0  0  0  0  0  0  0  0  0
   -4.8810   14.0710  -33.0580 F   0  0  0  0  0  0  0  0  0  0  0  0
   -3.0880   15.2840  -32.4300 F   0  0  0  0  0  0  0  0  0  0  0  0
   -6.1030   17.0330  -32.7360 C   0  0  0  0  0  0  0  0  0  0  0  0
   -7.1700   20.7810  -32.3730 C   0  0  0  0  0  0  0  0  0  0  0  0
   -5.8380   20.5590  -32.6100 C   0  0  0  0  0  0  0  0  0  0  0  0
   -4.9080   21.5690  -32.3190 C   0  0  0  0  0  0  0  0  0  0  0  0
   -3.5730   21.4970  -32.4980 O   0  0  0  0  0  0  0  0  0  0  0  0
   -2.8040   20.8980  -33.4720 C   0  0  0  0  0  0  0  0  0  0  0  0
   -2.5660   19.4480  -33.1070 C   0  0  0  0  0  0  0  0  0  0  0  0
   -5.6859   26.0927  -29.4685 H   0  0  0  0  0  0  0  0  0  0  0  0
   -4.8204   26.3988  -31.0125 H   0  0  0  0  0  0  0  0  0  0  0  0
   -6.3530   25.4620  -31.0125 H   0  0  0  0  0  0  0  0  0  0  0  0
   -3.6403   24.6262  -29.8908 H   0  0  0  0  0  0  0  0  0  0  0  0
   -5.1595   23.7429  -29.5437 H   0  0  0  0  0  0  0  0  0  0  0  0
   -7.0967   23.9269  -31.1509 H   0  0  0  0  0  0  0  0  0  0  0  0
   -9.2780   23.1340  -31.2130 H   0  0  0  0  0  0  0  0  0  0  0  0
  -10.9358   21.4369  -31.6834 H   0  0  0  0  0  0  0  0  0  0  0  0
   -6.4879   19.3663  -35.2257 H   0  0  0  0  0  0  0  0  0  0  0  0
   -4.5136   18.1623  -36.1069 H   0  0  0  0  0  0  0  0  0  0  0  0
   -3.5789   16.2542  -34.8218 H   0  0  0  0  0  0  0  0  0  0  0  0
   -6.5453   16.7066  -31.7832 H   0  0  0  0  0  0  0  0  0  0  0  0
   -5.5011   19.5975  -33.0247 H   0  0  0  0  0  0  0  0  0  0  0  0
   -3.3282   20.9517  -34.4376 H   0  0  0  0  0  0  0  0  0  0  0  0
   -1.8387   21.4197  -33.5492 H   0  0  0  0  0  0  0  0  0  0  0  0
   -2.5489   19.3436  -32.0121 H   0  0  0  0  0  0  0  0  0  0  0  0
   -3.3744   18.8280  -33.5219 H   0  0  0  0  0  0  0  0  0  0  0  0
   -1.6018   19.1190  -33.5219 H   0  0  0  0  0  0  0  0  0  0  0  0
  1  2  1  0
  2  3  1  0
  3  4  1  0
  4  5  2  0
  5  6  1  0
  6  7  1  0
  7  8  1  0
  8  9  2  0
  9 10  1  0
 10 11  2  0
 11 12  1  0
 12 13  2  0
 13 14  1  0
 14 15  2  0
 15 16  1  0
 16 17  1  0
 17 18  1  0
 17 19  1  0
 17 20  1  0
 16 21  2  0
 10 22  1  0
 22 23  1  0
 23 24  2  0
 24 25  1  0
 25 26  1  0
 26 27  1  0
 24  4  1  0
 22  6  2  0
 21 12  1  0
  1 28  1  0
  1 29  1  0
  1 30  1  0
  2 31  1  0
  2 32  1  0
  5 33  1  0
  7 34  1  0
  8 35  1  0
 13 36  1  0
 14 37  1  0
 15 38  1  0
 21 39  1  0
 23 40  1  0
 26 41  1  0
 26 42  1  0
 27 43  1  0
 27 44  1  0
 27 45  1  0
M  END
>  <smiles>  (25) 
CCOc1cc2[nH]cnc(=Nc3cccc(C(F)(F)F)c3)c2cc1OCC

>  <score_type>  (25) 
oracle

>  <origin>  (25) 
adgpu

>  <m_score__min__energy>  (25) 
-7.4500000000000002

>  <m_primary>  (25) 
energy

$$$$
25:0
     RDKit          3D

 40 43  0  0  0  0  0  0  0  0999 V2000
   -1.8120   25.4190  -28.9160 O   0  0  0  0  0  0  0  0  0  0  0  0
   -2.5580   24.5420  -29.4300 C   0  0  0  0  0  0  0  0  0  0  0  0
   -3.4870   24.9430  -30.4460 N   0  0  0  0  0  0  0  0  0  0  0  0
   -4.8520   24.5120  -30.5640 C   0  0  0  0  0  0  0  0  0  0  0  0
   -5.8600   25.3000  -29.9960 C   0  0  0  0  0  0  0  0  0  0  0  0
   -7.1970   24.9070  -30.0880 C   0  0  0  0  0  0  0  0  0  0  0  0
   -7.5370   23.7190  -30.7380 C   0  0  0  0  0  0  0  0  0  0  0  0
   -6.5380   22.9040  -31.2930 C   0  0  0  0  0  0  0  0  0  0  0  0
   -6.9020   21.6460  -31.9740 C   0  0  0  0  0  0  0  0  0  0  0  0
   -8.1620   21.2840  -32.2860 N   0  0  0  0  0  0  0  0  0  0  0  0
   -8.0750   20.1040  -32.8790 N   0  0  0  0  0  0  0  0  0  0  0  0
   -6.7650   19.7890  -32.9080 C   0  0  0  0  0  0  0  0  0  0  0  0
   -6.2150   18.5470  -33.4850 C   0  0  0  0  0  0  0  0  0  0  0  0
   -6.8690   17.3170  -33.2950 C   0  0  0  0  0  0  0  0  0  0  0  0
   -6.3410   16.1440  -33.8450 C   0  0  0  0  0  0  0  0  0  0  0  0
   -5.1600   16.1900  -34.5880 C   0  0  0  0  0  0  0  0  0  0  0  0
   -4.5020   17.4070  -34.7820 C   0  0  0  0  0  0  0  0  0  0  0  0
   -5.0260   18.5820  -34.2350 C   0  0  0  0  0  0  0  0  0  0  0  0
   -6.0410   20.7320  -32.3530 O   0  0  0  0  0  0  0  0  0  0  0  0
   -5.1930   23.3010  -31.1920 C   0  0  0  0  0  0  0  0  0  0  0  0
   -2.4140   23.1290  -29.0050 C   0  0  0  0  0  0  0  0  0  0  0  0
   -1.4280   22.3010  -29.5730 C   0  0  0  0  0  0  0  0  0  0  0  0
   -1.3050   20.9690  -29.1690 C   0  0  0  0  0  0  0  0  0  0  0  0
   -2.1540   20.4530  -28.1870 C   0  0  0  0  0  0  0  0  0  0  0  0
   -3.1250   21.2710  -27.6030 C   0  0  0  0  0  0  0  0  0  0  0  0
   -3.2530   22.6040  -28.0050 C   0  0  0  0  0  0  0  0  0  0  0  0
   -5.5979   26.2327  -29.4750 H   0  0  0  0  0  0  0  0  0  0  0  0
   -7.9847   25.5354  -29.6469 H   0  0  0  0  0  0  0  0  0  0  0  0
   -8.5928   23.4203  -30.8155 H   0  0  0  0  0  0  0  0  0  0  0  0
   -7.8003   17.2768  -32.7111 H   0  0  0  0  0  0  0  0  0  0  0  0
   -6.8569   15.1846  -33.6919 H   0  0  0  0  0  0  0  0  0  0  0  0
   -4.7471   15.2670  -35.0212 H   0  0  0  0  0  0  0  0  0  0  0  0
   -3.5704   17.4408  -35.3659 H   0  0  0  0  0  0  0  0  0  0  0  0
   -4.5058   19.5384  -34.3920 H   0  0  0  0  0  0  0  0  0  0  0  0
   -4.4017   22.6596  -31.6073 H   0  0  0  0  0  0  0  0  0  0  0  0
   -0.7501   22.7047  -30.3395 H   0  0  0  0  0  0  0  0  0  0  0  0
   -0.5382   20.3256  -29.6251 H   0  0  0  0  0  0  0  0  0  0  0  0
   -2.0583   19.4030  -27.8735 H   0  0  0  0  0  0  0  0  0  0  0  0
   -3.7896   20.8655  -26.8259 H   0  0  0  0  0  0  0  0  0  0  0  0
   -4.0139   23.2458  -27.5369 H   0  0  0  0  0  0  0  0  0  0  0  0
  1  2  2  0
  2  3  1  0
  3  4  1  0
  4  5  2  0
  5  6  1  0
  6  7  2  0
  7  8  1  0
  8  9  1  0
  9 10  2  0
 10 11  1  0
 11 12  2  0
 12 13  1  0
 13 14  2  0
 14 15  1  0
 15 16  2  0
 16 17  1  0
 17 18  2  0
 12 19  1  0
  8 20  2  0
  2 21  1  0
 21 22  2  0
 22 23  1  0
 23 24  2  0
 24 25  1  0
 25 26  2  0
 20  4  1  0
 26 21  1  0
 19  9  1  0
 18 13  1  0
  5 27  1  0
  6 28  1  0
  7 29  1  0
 14 30  1  0
 15 31  1  0
 16 32  1  0
 17 33  1  0
 18 34  1  0
 20 35  1  0
 22 36  1  0
 23 37  1  0
 24 38  1  0
 25 39  1  0
 26 40  1  0
M  CHG  1   3  -1
M  END
>  <UniqueID>  (26) 
23

>  <SMILES>  (26) 
O=C([N-]c1cccc(-c2nnc(-c3ccccc3)o2)c1)c1ccccc1

>  <Energy>  (26) 
86.38492530419906

>  <Genealogy>  (26) 
O=C([N-]c1cccc(-c2nnc(-c3ccccc3)o2)c1)c1ccccc1 (protonated)
O=C([N-]c1cccc(-c2nnc(-c3ccccc3)o2)c1)c1ccccc1 (3D coordinates assigned)
O=C([N-]c1cccc(-c2nnc(-c3ccccc3)o2)c1)c1ccccc1 (optimized conformer: 86.38492530419906 kcal/mol)

>  <smiles>  (26) 
O=C(Nc1cccc(-c2nnc(-c3ccccc3)o2)c1)c1ccccc1

>  <score_type>  (26) 
oracle

>  <origin>  (26) 
adgpu

>  <m_score__min__energy>  (26) 
-10.970000000000001

>  <m_primary>  (26) 
energy

$$$$
26:0
     RDKit          3D

 34 35  0  0  0  0  0  0  0  0999 V2000
   -6.4970   17.4050  -31.6770 C   0  0  0  0  0  0  0  0  0  0  0  0
   -7.5280   17.8060  -32.7210 C   0  0  0  0  0  0  0  0  0  0  0  0
   -8.4140   19.2940  -32.2690 S   0  0  0  0  0  0  0  0  0  0  0  0
   -8.8050   19.2580  -30.8180 O   0  0  0  0  0  0  0  0  0  0  0  0
   -9.6700   19.3390  -33.0920 O   0  0  0  0  0  0  0  0  0  0  0  0
   -7.5000   20.7000  -32.6270 O   0  0  0  0  0  0  0  0  0  0  0  0
   -6.4960   21.2710  -31.8300 C   0  0  0  0  0  0  0  0  0  0  0  0
   -6.8140   22.4330  -31.1170 C   0  0  0  0  0  0  0  0  0  0  0  0
   -5.8630   23.0540  -30.3030 C   0  0  0  0  0  0  0  0  0  0  0  0
   -4.5720   22.5200  -30.1880 C   0  0  0  0  0  0  0  0  0  0  0  0
   -3.5960   23.1480  -29.3430 N   0  0  0  0  0  0  0  0  0  0  0  0
   -3.1070   24.4000  -29.4740 C   0  0  0  0  0  0  0  0  0  0  0  0
   -3.4910   25.2860  -30.4750 O   0  0  0  0  0  0  0  0  0  0  0  0
   -2.1680   24.6760  -28.5000 C   0  0  0  0  0  0  0  0  0  0  0  0
   -2.0710   23.5260  -27.7390 C   0  0  0  0  0  0  0  0  0  0  0  0
   -1.2510   23.3530  -26.5020 C   0  0  0  0  0  0  0  0  0  0  0  0
   -2.9710   22.6210  -28.2660 C   0  0  0  0  0  0  0  0  0  0  0  0
   -3.2290   21.3590  -27.7320 O   0  0  0  0  0  0  0  0  0  0  0  0
   -4.2530   21.3460  -30.8860 C   0  0  0  0  0  0  0  0  0  0  0  0
   -5.2050   20.7250  -31.7000 C   0  0  0  0  0  0  0  0  0  0  0  0
   -6.9119   17.5664  -30.6711 H   0  0  0  0  0  0  0  0  0  0  0  0
   -6.2423   16.3423  -31.8025 H   0  0  0  0  0  0  0  0  0  0  0  0
   -5.5912   18.0164  -31.8025 H   0  0  0  0  0  0  0  0  0  0  0  0
   -7.0133   17.9783  -33.6778 H   0  0  0  0  0  0  0  0  0  0  0  0
   -8.2613   16.9898  -32.7989 H   0  0  0  0  0  0  0  0  0  0  0  0
   -7.8236   22.8619  -31.1984 H   0  0  0  0  0  0  0  0  0  0  0  0
   -6.1288   23.9667  -29.7495 H   0  0  0  0  0  0  0  0  0  0  0  0
   -1.6129   25.6151  -28.3590 H   0  0  0  0  0  0  0  0  0  0  0  0
   -1.8899   23.4878  -25.6168 H   0  0  0  0  0  0  0  0  0  0  0  0
   -0.8151   22.3431  -26.4893 H   0  0  0  0  0  0  0  0  0  0  0  0
   -0.4443   24.1007  -26.4893 H   0  0  0  0  0  0  0  0  0  0  0  0
   -4.0900   21.1510  -27.2410 H   0  0  0  0  0  0  0  0  0  0  0  0
   -3.2470   20.9110  -30.7923 H   0  0  0  0  0  0  0  0  0  0  0  0
   -4.9437   19.8042  -32.2421 H   0  0  0  0  0  0  0  0  0  0  0  0
  1  2  1  0
  2  3  1  0
  3  4  2  0
  3  5  2  0
  3  6  1  0
  6  7  1  0
  7  8  2  0
  8  9  1  0
  9 10  2  0
 10 11  1  0
 11 12  1  0
 12 13  1  0
 12 14  2  0
 14 15  1  0
 15 16  1  0
 15 17  2  0
 17 18  1  0
 10 19  1  0
 19 20  2  0
 20  7  1  0
 17 11  1  0
  1 21  1  0
  1 22  1  0
  1 23  1  0
  2 24  1  0
  2 25  1  0
  8 26  1  0
  9 27  1  0
 14 28  1  0
 16 29  1  0
 16 30  1  0
 16 31  1  0
 18 32  1  0
 19 33  1  0
 20 34  1  0
M  CHG  1  13  -1
M  END
>  <UniqueID>  (27) 
24

>  <SMILES>  (27) 
CCS(=O)(=O)Oc1ccc(-n2c([O-])cc(C)c2O)cc1

>  <Energy>  (27) 
61.95384959573116

>  <Genealogy>  (27) 
CCS(=O)(=O)Oc1ccc(-n2c([O-])cc(C)c2O)cc1 (protonated)
CCS(=O)(=O)Oc1ccc(-n2c([O-])cc(C)c2O)cc1 (3D coordinates assigned)
CCS(=O)(=O)Oc1ccc(-n2c([O-])cc(C)c2O)cc1 (optimized conformer: 61.95384959573116 kcal/mol)

>  <smiles>  (27) 
CCS(=O)(=O)Oc1ccc(-n2c(O)cc(C)c2O)cc1

>  <score_type>  (27) 
oracle

>  <origin>  (27) 
adgpu

>  <m_score__min__energy>  (27) 
-9.1899999999999995

>  <m_primary>  (27) 
energy

$$$$
27:0
     RDKit          3D

 41 43  0  0  0  0  0  0  0  0999 V2000
   -0.5120   24.4160  -29.2620 O   0  0  0  0  0  0  0  0  0  0  0  0
   -1.7190   24.2940  -28.9210 C   0  0  0  0  0  0  0  0  0  0  0  0
   -2.0580   23.5760  -27.6540 C   0  0  0  0  0  0  0  0  0  0  0  0
   -1.6260   24.3690  -26.4930 N   0  0  0  0  0  0  0  0  0  0  0  0
   -2.0850   25.6480  -26.3540 C   0  0  0  0  0  0  0  0  0  0  0  0
   -1.7170   26.4170  -25.2530 C   0  0  0  0  0  0  0  0  0  0  0  0
   -0.8830   25.8510  -24.2940 C   0  0  0  0  0  0  0  0  0  0  0  0
   -0.5330   26.5230  -23.2870 O   0  0  0  0  0  0  0  0  0  0  0  0
   -0.4490   24.5720  -24.4450 N   0  0  0  0  0  0  0  0  0  0  0  0
   -0.8140   23.8290  -25.5260 C   0  0  0  0  0  0  0  0  0  0  0  0
   -0.4020   22.6400  -25.6250 O   0  0  0  0  0  0  0  0  0  0  0  0
   -2.7620   24.9280  -29.6730 N   0  0  0  0  0  0  0  0  0  0  0  0
   -3.7900   24.2710  -30.4280 C   0  0  0  0  0  0  0  0  0  0  0  0
   -3.6260   22.9650  -30.9270 C   0  0  0  0  0  0  0  0  0  0  0  0
   -4.6540   22.3490  -31.6530 C   0  0  0  0  0  0  0  0  0  0  0  0
   -4.4110   20.7290  -32.2970 S   0  0  0  0  0  0  0  0  0  0  0  0
   -3.3720   19.9930  -31.4960 O   0  0  0  0  0  0  0  0  0  0  0  0
   -3.9310   20.8200  -33.7190 O   0  0  0  0  0  0  0  0  0  0  0  0
   -5.9350   19.8520  -32.2240 C   0  0  0  0  0  0  0  0  0  0  0  0
   -7.1130   20.4420  -32.7080 C   0  0  0  0  0  0  0  0  0  0  0  0
   -8.3270   19.7530  -32.6260 C   0  0  0  0  0  0  0  0  0  0  0  0
   -8.3720   18.4760  -32.0580 C   0  0  0  0  0  0  0  0  0  0  0  0
   -9.5500   17.8100  -31.9780 F   0  0  0  0  0  0  0  0  0  0  0  0
   -7.2010   17.8880  -31.5680 C   0  0  0  0  0  0  0  0  0  0  0  0
   -5.9860   18.5750  -31.6480 C   0  0  0  0  0  0  0  0  0  0  0  0
   -5.8560   23.0330  -31.8720 C   0  0  0  0  0  0  0  0  0  0  0  0
   -6.0350   24.3170  -31.3520 C   0  0  0  0  0  0  0  0  0  0  0  0
   -5.0100   24.9320  -30.6260 C   0  0  0  0  0  0  0  0  0  0  0  0
   -5.1980   26.1800  -30.1290 F   0  0  0  0  0  0  0  0  0  0  0  0
   -3.1458   23.4202  -27.6039 H   0  0  0  0  0  0  0  0  0  0  0  0
   -1.5401   22.6056  -27.6402 H   0  0  0  0  0  0  0  0  0  0  0  0
   -2.7512   26.0742  -27.1185 H   0  0  0  0  0  0  0  0  0  0  0  0
   -2.0781   27.4503  -25.1438 H   0  0  0  0  0  0  0  0  0  0  0  0
    0.1740   24.1510  -23.7180 H   0  0  0  0  0  0  0  0  0  0  0  0
   -2.6851   22.4247  -30.7459 H   0  0  0  0  0  0  0  0  0  0  0  0
   -7.0812   21.4477  -33.1524 H   0  0  0  0  0  0  0  0  0  0  0  0
   -9.2482   20.2163  -33.0090 H   0  0  0  0  0  0  0  0  0  0  0  0
   -7.2362   16.8843  -31.1194 H   0  0  0  0  0  0  0  0  0  0  0  0
   -5.0675   18.1122  -31.2579 H   0  0  0  0  0  0  0  0  0  0  0  0
   -6.6600   22.5588  -32.4540 H   0  0  0  0  0  0  0  0  0  0  0  0
   -6.9855   24.8463  -31.5141 H   0  0  0  0  0  0  0  0  0  0  0  0
  1  2  2  0
  2  3  1  0
  3  4  1  0
  4  5  1  0
  5  6  2  0
  6  7  1  0
  7  8  2  0
  7  9  1  0
  9 10  1  0
 10 11  2  0
  2 12  1  0
 12 13  1  0
 13 14  2  0
 14 15  1  0
 15 16  1  0
 16 17  2  0
 16 18  2  0
 16 19  1  0
 19 20  2  0
 20 21  1  0
 21 22  2  0
 22 23  1  0
 22 24  1  0
 24 25  2  0
 15 26  2  0
 26 27  1  0
 27 28  2  0
 28 29  1  0
 10  4  1  0
 28 13  1  0
 25 19  1  0
  3 30  1  0
  3 31  1  0
  5 32  1  0
  6 33  1  0
  9 34  1  0
 14 35  1  0
 20 36  1  0
 21 37  1  0
 24 38  1  0
 25 39  1  0
 26 40  1  0
 27 41  1  0
M  CHG  1  12  -1
M  END
>  <UniqueID>  (28) 
25

>  <SMILES>  (28) 
O=C(Cn1ccc(=O)[nH]c1=O)[N-]c1cc(S(=O)(=O)c2ccc(F)cc2)ccc1F

>  <Energy>  (28) 
50.17818461711918

>  <Genealogy>  (28) 
O=C(Cn1ccc(=O)[nH]c1=O)[N-]c1cc(S(=O)(=O)c2ccc(F)cc2)ccc1F (protonated)
O=C(Cn1ccc(=O)[nH]c1=O)[N-]c1cc(S(=O)(=O)c2ccc(F)cc2)ccc1F (3D coordinates assigned)
O=C(Cn1ccc(=O)[nH]c1=O)[N-]c1cc(S(=O)(=O)c2ccc(F)cc2)ccc1F (optimized conformer: 50.17818461711918 kcal/mol)

>  <smiles>  (28) 
O=C(Cn1ccc(=O)[nH]c1=O)Nc1cc(S(=O)(=O)c2ccc(F)cc2)ccc1F

>  <score_type>  (28) 
oracle

>  <origin>  (28) 
adgpu

>  <m_score__min__energy>  (28) 
-10.75

>  <m_primary>  (28) 
energy

$$$$
28:0
     RDKit          3D

 35 36  0  0  0  0  0  0  0  0999 V2000
   -2.1790   24.7430  -28.1820 C   0  0  0  0  0  0  0  0  0  0  0  0
   -2.7940   25.2800  -29.3470 O   0  0  0  0  0  0  0  0  0  0  0  0
   -3.8430   24.6620  -30.0450 C   0  0  0  0  0  0  0  0  0  0  0  0
   -5.1240   25.2380  -30.1480 C   0  0  0  0  0  0  0  0  0  0  0  0
   -6.1380   24.5830  -30.8540 C   0  0  0  0  0  0  0  0  0  0  0  0
   -5.8870   23.3480  -31.4710 C   0  0  0  0  0  0  0  0  0  0  0  0
   -6.9780   22.6260  -32.2140 C   0  0  0  0  0  0  0  0  0  0  0  0
   -6.4570   21.3980  -32.8110 N   0  0  0  0  0  0  0  0  0  0  0  0
   -6.8460   20.0950  -32.3530 C   0  0  0  0  0  0  0  0  0  0  0  0
   -7.5690   19.9750  -31.3270 O   0  0  0  0  0  0  0  0  0  0  0  0
   -6.3540   18.8810  -33.0230 C   0  0  0  0  0  0  0  0  0  0  0  0
   -7.1410   17.8170  -33.2800 N   0  0  0  0  0  0  0  0  0  0  0  0
   -6.3860   16.8810  -33.8350 N   0  0  0  0  0  0  0  0  0  0  0  0
   -6.8720   15.5620  -34.2100 C   0  0  0  0  0  0  0  0  0  0  0  0
   -5.1110   17.3050  -33.9320 C   0  0  0  0  0  0  0  0  0  0  0  0
   -5.0590   18.5890  -33.4320 C   0  0  0  0  0  0  0  0  0  0  0  0
   -3.9250   19.4650  -33.4850 N   0  0  0  0  0  0  0  0  0  0  0  0
   -4.0830   20.6680  -33.7770 O   0  0  0  0  0  0  0  0  0  0  0  0
   -2.6990   19.0460  -33.0230 O   0  0  0  0  0  0  0  0  0  0  0  0
   -4.6120   22.7730  -31.3650 C   0  0  0  0  0  0  0  0  0  0  0  0
   -3.5990   23.4280  -30.6580 C   0  0  0  0  0  0  0  0  0  0  0  0
   -2.6602   25.1632  -27.2865 H   0  0  0  0  0  0  0  0  0  0  0  0
   -2.2914   23.6488  -28.1793 H   0  0  0  0  0  0  0  0  0  0  0  0
   -1.1099   25.0018  -28.1793 H   0  0  0  0  0  0  0  0  0  0  0  0
   -5.3280   26.2079  -29.6708 H   0  0  0  0  0  0  0  0  0  0  0  0
   -7.1369   25.0380  -30.9260 H   0  0  0  0  0  0  0  0  0  0  0  0
   -7.7885   22.3740  -31.5142 H   0  0  0  0  0  0  0  0  0  0  0  0
   -7.3599   23.2787  -33.0129 H   0  0  0  0  0  0  0  0  0  0  0  0
   -5.7350   21.4830  -33.5610 H   0  0  0  0  0  0  0  0  0  0  0  0
   -7.0869   14.9787  -33.3025 H   0  0  0  0  0  0  0  0  0  0  0  0
   -7.7910   15.6655  -34.8055 H   0  0  0  0  0  0  0  0  0  0  0  0
   -6.1055   15.0445  -34.8055 H   0  0  0  0  0  0  0  0  0  0  0  0
   -4.2646   16.7308  -34.3368 H   0  0  0  0  0  0  0  0  0  0  0  0
   -4.4081   21.8022  -31.8403 H   0  0  0  0  0  0  0  0  0  0  0  0
   -2.6020   22.9694  -30.5831 H   0  0  0  0  0  0  0  0  0  0  0  0
  1  2  1  0
  2  3  1  0
  3  4  2  0
  4  5  1  0
  5  6  2  0
  6  7  1  0
  7  8  1  0
  8  9  1  0
  9 10  2  0
  9 11  1  0
 11 12  2  0
 12 13  1  0
 13 14  1  0
 13 15  1  0
 15 16  2  0
 16 17  1  0
 17 18  2  0
 17 19  1  0
  6 20  1  0
 20 21  2  0
 21  3  1  0
 16 11  1  0
  1 22  1  0
  1 23  1  0
  1 24  1  0
  4 25  1  0
  5 26  1  0
  7 27  1  0
  7 28  1  0
  8 29  1  0
 14 30  1  0
 14 31  1  0
 14 32  1  0
 15 33  1  0
 20 34  1  0
 21 35  1  0
M  CHG  2  17   1  19  -1
M  END
>  <UniqueID>  (29) 
26

>  <SMILES>  (29) 
COc1ccc(CNC(=O)c2nn(C)cc2[N+](=O)[O-])cc1

>  <Energy>  (29) 
66.5655497405683

>  <Genealogy>  (29) 
COc1ccc(CNC(=O)c2nn(C)cc2[N+](=O)[O-])cc1 (3D coordinates assigned)
COc1ccc(CNC(=O)c2nn(C)cc2[N+](=O)[O-])cc1 (optimized conformer: 66.5655497405683 kcal/mol)

>  <smiles>  (29) 
COc1ccc(CNC(=O)c2nn(C)cc2[N+](=O)[O-])cc1

>  <score_type>  (29) 
oracle

>  <origin>  (29) 
adgpu

>  <m_score__min__energy>  (29) 
-7.1799999999999997

>  <m_primary>  (29) 
energy

$$$$
29:0
     RDKit          3D

 46 48  0  0  0  0  0  0  0  0999 V2000
   -3.3848   20.3551  -32.5456 H   0  0  0  0  0  0  0  0  0  0  0  0
   -4.4420   20.6450  -32.4540 C   0  0  0  0  0  0  0  0  0  0  0  0
   -5.3730   19.7640  -32.8450 C   0  0  0  0  0  0  0  0  0  0  0  0
   -6.4341   20.0451  -32.7743 H   0  0  0  0  0  0  0  0  0  0  0  0
   -5.0220   18.4300  -33.3670 C   0  0  0  0  0  0  0  0  0  0  0  0
   -3.7990   18.1840  -33.9060 N   0  0  0  0  0  0  0  0  0  0  0  0
   -3.8850   16.8920  -34.2740 C   0  0  0  0  0  0  0  0  0  0  0  0
   -5.1000   16.3830  -33.9650 C   0  0  0  0  0  0  0  0  0  0  0  0
   -5.4120   15.0680  -34.2960 C   0  0  0  0  0  0  0  0  0  0  0  0
   -6.5560   14.5980  -34.0520 O   0  0  0  0  0  0  0  0  0  0  0  0
   -4.4480   14.3040  -34.9150 N   0  0  0  0  0  0  0  0  0  0  0  0
   -4.7540   12.9180  -35.3100 C   0  0  0  0  0  0  0  0  0  0  0  0
   -4.8901   12.3016  -34.4092 H   0  0  0  0  0  0  0  0  0  0  0  0
   -5.6772   12.9024  -35.9079 H   0  0  0  0  0  0  0  0  0  0  0  0
   -3.9232   12.5152  -35.9079 H   0  0  0  0  0  0  0  0  0  0  0  0
   -3.2210   14.8590  -35.2400 C   0  0  0  0  0  0  0  0  0  0  0  0
   -2.3680   14.1700  -35.8680 O   0  0  0  0  0  0  0  0  0  0  0  0
   -2.9210   16.1580  -34.8940 N   0  0  0  0  0  0  0  0  0  0  0  0
   -1.6340   16.7650  -35.2580 C   0  0  0  0  0  0  0  0  0  0  0  0
   -1.0803   17.0262  -34.3441 H   0  0  0  0  0  0  0  0  0  0  0  0
   -1.0458   16.0494  -35.8512 H   0  0  0  0  0  0  0  0  0  0  0  0
   -1.8121   17.6740  -35.8512 H   0  0  0  0  0  0  0  0  0  0  0  0
   -5.8380   17.3360  -33.3640 N   0  0  0  0  0  0  0  0  0  0  0  0
   -7.1770   17.1970  -32.7880 C   0  0  0  0  0  0  0  0  0  0  0  0
   -7.1065   17.2043  -31.6903 H   0  0  0  0  0  0  0  0  0  0  0  0
   -7.8079   18.0345  -33.1205 H   0  0  0  0  0  0  0  0  0  0  0  0
   -7.6225   16.2478  -33.1205 H   0  0  0  0  0  0  0  0  0  0  0  0
   -4.7520   21.9880  -31.9050 C   0  0  0  0  0  0  0  0  0  0  0  0
   -6.0460   22.4970  -32.0790 C   0  0  0  0  0  0  0  0  0  0  0  0
   -6.8002   21.8967  -32.6088 H   0  0  0  0  0  0  0  0  0  0  0  0
   -6.3880   23.7580  -31.5870 C   0  0  0  0  0  0  0  0  0  0  0  0
   -7.4108   24.1389  -31.7238 H   0  0  0  0  0  0  0  0  0  0  0  0
   -5.4340   24.5440  -30.9180 C   0  0  0  0  0  0  0  0  0  0  0  0
   -5.7420   25.8150  -30.4070 O   0  0  0  0  0  0  0  0  0  0  0  0
   -6.4960   26.0470  -29.2220 C   0  0  0  0  0  0  0  0  0  0  0  0
   -5.8651   25.8529  -28.3421 H   0  0  0  0  0  0  0  0  0  0  0  0
   -6.8386   27.0921  -29.2041 H   0  0  0  0  0  0  0  0  0  0  0  0
   -7.3669   25.3753  -29.2041 H   0  0  0  0  0  0  0  0  0  0  0  0
   -4.1300   24.0570  -30.7520 C   0  0  0  0  0  0  0  0  0  0  0  0
   -3.1960   24.8700  -30.0890 O   0  0  0  0  0  0  0  0  0  0  0  0
   -2.5380   24.5240  -28.8750 C   0  0  0  0  0  0  0  0  0  0  0  0
   -3.1513   24.8465  -28.0207 H   0  0  0  0  0  0  0  0  0  0  0  0
   -2.3951   23.4341  -28.8331 H   0  0  0  0  0  0  0  0  0  0  0  0
   -1.5591   25.0240  -28.8331 H   0  0  0  0  0  0  0  0  0  0  0  0
   -3.7900   22.7820  -31.2500 C   0  0  0  0  0  0  0  0  0  0  0  0
   -2.7644   22.4041  -31.1259 H   0  0  0  0  0  0  0  0  0  0  0  0
  1  2  1  0
  2  3  2  0
  3  4  1  0
  3  5  1  0
  5  6  2  0
  6  7  1  0
  7  8  2  0
  8  9  1  0
  9 10  2  0
  9 11  1  0
 11 12  1  0
 12 13  1  0
 12 14  1  0
 12 15  1  0
 11 16  1  0
 16 17  2  0
 16 18  1  0
 18 19  1  0
 19 20  1  0
 19 21  1  0
 19 22  1  0
  8 23  1  0
 23 24  1  0
 24 25  1  0
 24 26  1  0
 24 27  1  0
  2 28  1  0
 28 29  2  0
 29 30  1  0
 29 31  1  0
 31 32  1  0
 31 33  2  0
 33 34  1  0
 34 35  1  0
 35 36  1  0
 35 37  1  0
 35 38  1  0
 33 39  1  0
 39 40  1  0
 40 41  1  0
 41 42  1  0
 41 43  1  0
 41 44  1  0
 39 45  2  0
 45 46  1  0
 23  5  1  0
 45 28  1  0
 18  7  1  0
M  END
>  <UniqueID>  (30) 
27

>  <SMILES>  (30) 
COc1ccc(/C=C/c2nc3c(c(=O)n(C)c(=O)n3C)n2C)cc1OC

>  <Energy>  (30) 
99.27350087066948

>  <Genealogy>  (30) 
COc1ccc(/C=C/c2nc3c(c(=O)n(C)c(=O)n3C)n2C)cc1OC (cis-trans isomerization)
COc1ccc(/C=C/c2nc3c(c(=O)n(C)c(=O)n3C)n2C)cc1OC (3D coordinates assigned)
COc1ccc(/C=C/c2nc3c(c(=O)n(C)c(=O)n3C)n2C)cc1OC (optimized conformer: 99.27350087066948 kcal/mol)

>  <smiles>  (30) 
COc1ccc(C=Cc2nc3c(c(=O)n(C)c(=O)n3C)n2C)cc1OC

>  <score_type>  (30) 
oracle

>  <origin>  (30) 
adgpu

>  <m_score__min__energy>  (30) 
-7.4800000000000004

>  <m_primary>  (30) 
energy

$$$$
30:0
     RDKit          3D

 53 56  0  0  0  0  0  0  0  0999 V2000
   -9.7470   21.9400  -31.0960 C   0  0  0  0  0  0  0  0  0  0  0  0
   -8.4430   21.2760  -31.4300 C   0  0  0  0  0  0  0  0  0  0  0  0
   -7.1770   21.6760  -31.0250 C   0  0  0  0  0  0  0  0  0  0  0  0
   -6.8050   22.8330  -30.2710 N   0  0  0  0  0  0  0  0  0  0  0  0
   -5.5850   23.9340  -30.8270 S   0  0  0  0  0  0  0  0  0  0  0  0
   -5.7290   25.2200  -30.0630 O   0  0  0  0  0  0  0  0  0  0  0  0
   -5.7620   24.1990  -32.2970 O   0  0  0  0  0  0  0  0  0  0  0  0
   -3.9720   23.2500  -30.5720 C   0  0  0  0  0  0  0  0  0  0  0  0
   -3.3150   22.6430  -31.6560 C   0  0  0  0  0  0  0  0  0  0  0  0
   -2.0660   22.0460  -31.4860 C   0  0  0  0  0  0  0  0  0  0  0  0
   -1.4530   22.0530  -30.2340 C   0  0  0  0  0  0  0  0  0  0  0  0
   -2.0810   22.6710  -29.1520 C   0  0  0  0  0  0  0  0  0  0  0  0
   -3.3380   23.2880  -29.3050 C   0  0  0  0  0  0  0  0  0  0  0  0
   -3.9470   23.9750  -28.1930 N   0  0  0  0  0  0  0  0  0  0  0  0
   -3.2410   24.2350  -26.9380 C   0  0  0  0  0  0  0  0  0  0  0  0
   -2.1820   25.2710  -27.1390 C   0  0  0  0  0  0  0  0  0  0  0  0
   -1.5020   25.9360  -26.1380 C   0  0  0  0  0  0  0  0  0  0  0  0
   -0.6600   26.8140  -26.7840 C   0  0  0  0  0  0  0  0  0  0  0  0
   -0.8810   26.6350  -28.1360 C   0  0  0  0  0  0  0  0  0  0  0  0
   -1.7970   25.7100  -28.3160 O   0  0  0  0  0  0  0  0  0  0  0  0
   -6.3260   20.7040  -31.4930 C   0  0  0  0  0  0  0  0  0  0  0  0
   -5.0730   20.6890  -31.3490 O   0  0  0  0  0  0  0  0  0  0  0  0
   -7.0310   19.7780  -32.1730 N   0  0  0  0  0  0  0  0  0  0  0  0
   -6.4800   18.6340  -32.8510 C   0  0  0  0  0  0  0  0  0  0  0  0
   -5.9940   18.7530  -34.1630 C   0  0  0  0  0  0  0  0  0  0  0  0
   -5.4430   17.6430  -34.8130 C   0  0  0  0  0  0  0  0  0  0  0  0
   -5.3710   16.4120  -34.1560 C   0  0  0  0  0  0  0  0  0  0  0  0
   -5.8450   16.2890  -32.8470 C   0  0  0  0  0  0  0  0  0  0  0  0
   -6.3940   17.3960  -32.1940 C   0  0  0  0  0  0  0  0  0  0  0  0
   -8.3200   20.1150  -32.1240 N   0  0  0  0  0  0  0  0  0  0  0  0
   -9.4150   19.3590  -32.7390 C   0  0  0  0  0  0  0  0  0  0  0  0
   -9.8599   21.9975  -30.0033 H   0  0  0  0  0  0  0  0  0  0  0  0
   -9.7608   22.9549  -31.5200 H   0  0  0  0  0  0  0  0  0  0  0  0
  -10.5759   21.3542  -31.5200 H   0  0  0  0  0  0  0  0  0  0  0  0
   -7.0500   22.8610  -29.2560 H   0  0  0  0  0  0  0  0  0  0  0  0
   -3.7904   22.6387  -32.6480 H   0  0  0  0  0  0  0  0  0  0  0  0
   -1.5641   21.5691  -32.3408 H   0  0  0  0  0  0  0  0  0  0  0  0
   -0.4735   21.5710  -30.0989 H   0  0  0  0  0  0  0  0  0  0  0  0
   -1.5888   22.6764  -28.1683 H   0  0  0  0  0  0  0  0  0  0  0  0
   -4.9210   24.3400  -28.2960 H   0  0  0  0  0  0  0  0  0  0  0  0
   -3.9594   24.5927  -26.1857 H   0  0  0  0  0  0  0  0  0  0  0  0
   -2.7672   23.3030  -26.5962 H   0  0  0  0  0  0  0  0  0  0  0  0
   -1.6100   25.7943  -25.0525 H   0  0  0  0  0  0  0  0  0  0  0  0
    0.0463   27.5164  -26.3173 H   0  0  0  0  0  0  0  0  0  0  0  0
   -0.3681   27.1835  -28.9398 H   0  0  0  0  0  0  0  0  0  0  0  0
   -6.0466   19.7217  -34.6814 H   0  0  0  0  0  0  0  0  0  0  0  0
   -5.0663   17.7397  -35.8419 H   0  0  0  0  0  0  0  0  0  0  0  0
   -4.9410   15.5392  -34.6693 H   0  0  0  0  0  0  0  0  0  0  0  0
   -5.7859   15.3198  -32.3301 H   0  0  0  0  0  0  0  0  0  0  0  0
   -6.7601   17.2971  -31.1614 H   0  0  0  0  0  0  0  0  0  0  0  0
  -10.0470   18.9227  -31.9514 H   0  0  0  0  0  0  0  0  0  0  0  0
  -10.0202   20.0326  -33.3635 H   0  0  0  0  0  0  0  0  0  0  0  0
   -8.9996   18.5544  -33.3635 H   0  0  0  0  0  0  0  0  0  0  0  0
  1  2  1  0
  2  3  2  0
  3  4  1  0
  4  5  1  0
  5  6  2  0
  5  7  2  0
  5  8  1  0
  8  9  2  0
  9 10  1  0
 10 11  2  0
 11 12  1  0
 12 13  2  0
 13 14  1  0
 14 15  1  0
 15 16  1  0
 16 17  2  0
 17 18  1  0
 18 19  2  0
 19 20  1  0
  3 21  1  0
 21 22  2  0
 21 23  1  0
 23 24  1  0
 24 25  2  0
 25 26  1  0
 26 27  2  0
 27 28  1  0
 28 29  2  0
 23 30  1  0
 30 31  1  0
 30  2  1  0
 13  8  1  0
 20 16  1  0
 29 24  1  0
  1 32  1  0
  1 33  1  0
  1 34  1  0
  4 35  1  0
  9 36  1  0
 10 37  1  0
 11 38  1  0
 12 39  1  0
 14 40  1  0
 15 41  1  0
 15 42  1  0
 17 43  1  0
 18 44  1  0
 19 45  1  0
 25 46  1  0
 26 47  1  0
 27 48  1  0
 28 49  1  0
 29 50  1  0
 31 51  1  0
 31 52  1  0
 31 53  1  0
M  END
>  <UniqueID>  (31) 
28

>  <SMILES>  (31) 
Cc1c(NS(=O)(=O)c2ccccc2NCc2ccco2)c(=O)n(-c2ccccc2)n1C

>  <Energy>  (31) 
132.5155891008479

>  <Genealogy>  (31) 
Cc1c(NS(=O)(=O)c2ccccc2NCc2ccco2)c(=O)n(-c2ccccc2)n1C (3D coordinates assigned)
Cc1c(NS(=O)(=O)c2ccccc2NCc2ccco2)c(=O)n(-c2ccccc2)n1C (optimized conformer: 132.5155891008479 kcal/mol)

>  <smiles>  (31) 
Cc1c(NS(=O)(=O)c2ccccc2NCc2ccco2)c(=O)n(-c2ccccc2)n1C

>  <score_type>  (31) 
oracle

>  <origin>  (31) 
adgpu

>  <m_score__min__energy>  (31) 
-10.220000000000001

>  <m_primary>  (31) 
energy

$$$$
31:0
     RDKit          3D

 22 22  0  0  0  0  0  0  0  0999 V2000
   -8.4220   19.3330  -31.8380 C   0  0  0  0  0  0  0  0  0  0  0  0
   -8.0430   20.0620  -33.0490 N   0  0  0  0  0  0  0  0  0  0  0  0
   -6.6250   19.9380  -33.2820 C   0  0  0  0  0  0  0  0  0  0  0  0
   -6.0380   18.5540  -33.9410 S   0  0  0  0  0  0  0  0  0  0  0  0
   -5.7750   21.0960  -33.2590 N   0  0  0  0  0  0  0  0  0  0  0  0
   -5.9410   22.1920  -32.3470 C   0  0  0  0  0  0  0  0  0  0  0  0
   -7.2090   22.7420  -32.1000 C   0  0  0  0  0  0  0  0  0  0  0  0
   -7.3560   23.7880  -31.1850 C   0  0  0  0  0  0  0  0  0  0  0  0
   -6.2450   24.2840  -30.4940 C   0  0  0  0  0  0  0  0  0  0  0  0
   -6.4700   25.5990  -29.3500 Cl  0  0  0  0  0  0  0  0  0  0  0  0
   -4.9770   23.7200  -30.7170 C   0  0  0  0  0  0  0  0  0  0  0  0
   -3.5560   24.3040  -29.8600 Cl  0  0  0  0  0  0  0  0  0  0  0  0
   -4.8330   22.6720  -31.6350 C   0  0  0  0  0  0  0  0  0  0  0  0
   -8.1211   19.9118  -30.9523 H   0  0  0  0  0  0  0  0  0  0  0  0
   -9.5118   19.1839  -31.8257 H   0  0  0  0  0  0  0  0  0  0  0  0
   -7.9180   18.3553  -31.8257 H   0  0  0  0  0  0  0  0  0  0  0  0
   -8.3010   21.0700  -32.9390 H   0  0  0  0  0  0  0  0  0  0  0  0
   -8.5840   19.6800  -33.8560 H   0  0  0  0  0  0  0  0  0  0  0  0
   -5.0090   21.1610  -33.9680 H   0  0  0  0  0  0  0  0  0  0  0  0
   -8.0897   22.3482  -32.6285 H   0  0  0  0  0  0  0  0  0  0  0  0
   -8.3503   24.2237  -31.0071 H   0  0  0  0  0  0  0  0  0  0  0  0
   -3.8426   22.2221  -31.7985 H   0  0  0  0  0  0  0  0  0  0  0  0
  1  2  1  0
  2  3  1  0
  3  4  2  0
  3  5  1  0
  5  6  1  0
  6  7  2  0
  7  8  1  0
  8  9  2  0
  9 10  1  0
  9 11  1  0
 11 12  1  0
 11 13  2  0
 13  6  1  0
  1 14  1  0
  1 15  1  0
  1 16  1  0
  2 17  1  0
  2 18  1  0
  5 19  1  0
  7 20  1  0
  8 21  1  0
 13 22  1  0
M  CHG  1   2   1
M  END
>  <UniqueID>  (32) 
29

>  <SMILES>  (32) 
C[NH2+]C(=S)Nc1ccc(Cl)c(Cl)c1

>  <Energy>  (32) 
24.971329613468

>  <Genealogy>  (32) 
C[NH2+]C(=S)Nc1ccc(Cl)c(Cl)c1 (protonated)
C[NH2+]C(=S)Nc1ccc(Cl)c(Cl)c1 (3D coordinates assigned)
C[NH2+]C(=S)Nc1ccc(Cl)c(Cl)c1 (optimized conformer: 24.971329613468 kcal/mol)

>  <smiles>  (32) 
CNC(=S)Nc1ccc(Cl)c(Cl)c1

>  <score_type>  (32) 
oracle

>  <origin>  (32) 
adgpu

>  <m_score__min__energy>  (32) 
-5.6600000000000001

>  <m_primary>  (32) 
energy

$$$$
32:0
     RDKit          3D

 60 63  0  0  0  0  0  0  0  0999 V2000
    2.1010   17.2780  -30.2670 C   0  0  0  0  0  0  0  0  0  0  0  0
    0.6610   17.3250  -29.9500 N   0  0  0  0  0  0  0  0  0  0  0  0
   -0.0450   18.3830  -30.7040 C   0  0  0  0  0  0  0  0  0  0  0  0
    0.2700   19.7910  -30.1720 C   0  0  0  0  0  0  0  0  0  0  0  0
   -0.0040   19.9130  -28.7290 N   0  0  0  0  0  0  0  0  0  0  0  0
   -1.4480   20.0190  -28.4190 C   0  0  0  0  0  0  0  0  0  0  0  0
   -1.9880   21.3570  -28.8880 C   0  0  0  0  0  0  0  0  0  0  0  0
   -2.7820   21.3620  -30.0490 C   0  0  0  0  0  0  0  0  0  0  0  0
   -3.3050   22.5480  -30.5550 C   0  0  0  0  0  0  0  0  0  0  0  0
   -3.0790   23.7570  -29.9000 C   0  0  0  0  0  0  0  0  0  0  0  0
   -3.6060   24.9600  -30.4760 N   0  0  0  0  0  0  0  0  0  0  0  0
   -4.9920   25.2980  -30.6160 C   0  0  0  0  0  0  0  0  0  0  0  0
   -5.3690   26.4930  -30.4690 O   0  0  0  0  0  0  0  0  0  0  0  0
   -5.9900   24.2350  -30.8760 C   0  0  0  0  0  0  0  0  0  0  0  0
   -6.3140   23.8630  -32.1940 C   0  0  0  0  0  0  0  0  0  0  0  0
   -7.2560   22.8610  -32.4370 C   0  0  0  0  0  0  0  0  0  0  0  0
   -7.8820   22.2110  -31.3680 C   0  0  0  0  0  0  0  0  0  0  0  0
   -9.0850   20.9190  -31.6810 S   0  0  0  0  0  0  0  0  0  0  0  0
   -7.8450   19.7810  -32.2980 C   0  0  0  0  0  0  0  0  0  0  0  0
   -7.1370   20.0800  -33.4680 C   0  0  0  0  0  0  0  0  0  0  0  0
   -6.1640   19.1940  -33.9450 C   0  0  0  0  0  0  0  0  0  0  0  0
   -5.8990   18.0060  -33.2520 C   0  0  0  0  0  0  0  0  0  0  0  0
   -4.6750   16.8970  -33.8470 Cl  0  0  0  0  0  0  0  0  0  0  0  0
   -6.6030   17.7090  -32.0810 C   0  0  0  0  0  0  0  0  0  0  0  0
   -7.5750   18.5940  -31.6030 C   0  0  0  0  0  0  0  0  0  0  0  0
   -7.5690   22.5730  -30.0540 C   0  0  0  0  0  0  0  0  0  0  0  0
   -6.6310   23.5790  -29.8070 C   0  0  0  0  0  0  0  0  0  0  0  0
   -2.2920   23.7740  -28.7370 C   0  0  0  0  0  0  0  0  0  0  0  0
   -1.7510   22.5840  -28.2050 C   0  0  0  0  0  0  0  0  0  0  0  0
   -0.9250   22.6470  -26.9320 C   0  0  0  0  0  0  0  0  0  0  0  0
   -1.2860   21.6620  -26.0290 F   0  0  0  0  0  0  0  0  0  0  0  0
    0.4140   22.4730  -27.2310 F   0  0  0  0  0  0  0  0  0  0  0  0
   -1.1080   23.8720  -26.3190 F   0  0  0  0  0  0  0  0  0  0  0  0
    0.6820   18.8590  -27.9520 C   0  0  0  0  0  0  0  0  0  0  0  0
    0.4140   17.4400  -28.4970 C   0  0  0  0  0  0  0  0  0  0  0  0
    2.6816   17.2590  -29.3329 H   0  0  0  0  0  0  0  0  0  0  0  0
    2.3182   16.3723  -30.8522 H   0  0  0  0  0  0  0  0  0  0  0  0
    2.3768   18.1676  -30.8522 H   0  0  0  0  0  0  0  0  0  0  0  0
    0.2580   16.4090  -30.2580 H   0  0  0  0  0  0  0  0  0  0  0  0
    0.2596   18.3278  -31.7596 H   0  0  0  0  0  0  0  0  0  0  0  0
   -1.1257   18.2141  -30.5872 H   0  0  0  0  0  0  0  0  0  0  0  0
    1.3335   20.0078  -30.3506 H   0  0  0  0  0  0  0  0  0  0  0  0
   -0.3776   20.5056  -30.7012 H   0  0  0  0  0  0  0  0  0  0  0  0
   -1.9897   19.2093  -28.9299 H   0  0  0  0  0  0  0  0  0  0  0  0
   -1.5884   19.9368  -27.3311 H   0  0  0  0  0  0  0  0  0  0  0  0
   -2.9928   20.4136  -30.5649 H   0  0  0  0  0  0  0  0  0  0  0  0
   -3.9014   22.5311  -31.4791 H   0  0  0  0  0  0  0  0  0  0  0  0
   -5.8214   24.3654  -33.0395 H   0  0  0  0  0  0  0  0  0  0  0  0
   -7.5063   22.5823  -33.4712 H   0  0  0  0  0  0  0  0  0  0  0  0
   -7.3455   21.0124  -34.0132 H   0  0  0  0  0  0  0  0  0  0  0  0
   -5.6076   19.4307  -34.8639 H   0  0  0  0  0  0  0  0  0  0  0  0
   -6.3921   16.7778  -31.5348 H   0  0  0  0  0  0  0  0  0  0  0  0
   -8.1276   18.3585  -30.6815 H   0  0  0  0  0  0  0  0  0  0  0  0
   -8.0625   22.0645  -29.2126 H   0  0  0  0  0  0  0  0  0  0  0  0
   -6.3917   23.8604  -28.7709 H   0  0  0  0  0  0  0  0  0  0  0  0
   -2.0939   24.7310  -28.2322 H   0  0  0  0  0  0  0  0  0  0  0  0
    1.7651   19.0484  -27.9837 H   0  0  0  0  0  0  0  0  0  0  0  0
    0.2894   18.8977  -26.9252 H   0  0  0  0  0  0  0  0  0  0  0  0
    1.0725   16.7324  -27.9721 H   0  0  0  0  0  0  0  0  0  0  0  0
   -0.6490   17.2157  -28.3244 H   0  0  0  0  0  0  0  0  0  0  0  0
  1  2  1  0
  2  3  1  0
  3  4  1  0
  4  5  1  0
  5  6  1  0
  6  7  1  0
  7  8  2  0
  8  9  1  0
  9 10  2  0
 10 11  1  0
 11 12  1  0
 12 13  2  0
 12 14  1  0
 14 15  2  0
 15 16  1  0
 16 17  2  0
 17 18  1  0
 18 19  1  0
 19 20  2  0
 20 21  1  0
 21 22  2  0
 22 23  1  0
 22 24  1  0
 24 25  2  0
 17 26  1  0
 26 27  2  0
 10 28  1  0
 28 29  2  0
 29 30  1  0
 30 31  1  0
 30 32  1  0
 30 33  1  0
  5 34  1  0
 34 35  1  0
 35  2  1  0
 29  7  1  0
 27 14  1  0
 25 19  1  0
  1 36  1  0
  1 37  1  0
  1 38  1  0
  2 39  1  0
  3 40  1  0
  3 41  1  0
  4 42  1  0
  4 43  1  0
  6 44  1  0
  6 45  1  0
  8 46  1  0
  9 47  1  0
 15 48  1  0
 16 49  1  0
 20 50  1  0
 21 51  1  0
 24 52  1  0
 25 53  1  0
 26 54  1  0
 27 55  1  0
 28 56  1  0
 34 57  1  0
 34 58  1  0
 35 59  1  0
 35 60  1  0
M  CHG  2   2   1  11  -1
M  END
>  <UniqueID>  (33) 
30

>  <SMILES>  (33) 
C[NH+]1CCN(Cc2ccc([N-]C(=O)c3ccc(Sc4ccc(Cl)cc4)cc3)cc2C(F)(F)F)CC1

>  <Energy>  (33) 
74.14129214658196

>  <Genealogy>  (33) 
C[NH+]1CCN(Cc2ccc([N-]C(=O)c3ccc(Sc4ccc(Cl)cc4)cc3)cc2C(F)(F)F)CC1 (protonated)
C[NH+]1CCN(Cc2ccc([N-]C(=O)c3ccc(Sc4ccc(Cl)cc4)cc3)cc2C(F)(F)F)CC1 (3D coordinates assigned)
C[NH+]1CCN(Cc2ccc([N-]C(=O)c3ccc(Sc4ccc(Cl)cc4)cc3)cc2C(F)(F)F)CC1 (nonaromatic ring conformer: 74.14129214658196 kcal/mol)

>  <smiles>  (33) 
CN1CCN(Cc2ccc(NC(=O)c3ccc(Sc4ccc(Cl)cc4)cc3)cc2C(F)(F)F)CC1

>  <score_type>  (33) 
oracle

>  <origin>  (33) 
adgpu

>  <m_score__min__energy>  (33) 
-12.199999999999999

>  <m_primary>  (33) 
energy

$$$$
33:0
     RDKit          3D

 53 57  0  0  0  0  0  0  0  0999 V2000
   -5.9570   15.8090  -33.8780 C   0  0  0  0  0  0  0  0  0  0  0  0
   -5.7550   17.2650  -33.5640 C   0  0  0  0  0  0  0  0  0  0  0  0
   -6.8610   17.9990  -33.2600 N   0  0  0  0  0  0  0  0  0  0  0  0
   -6.7370   19.3090  -32.9590 C   0  0  0  0  0  0  0  0  0  0  0  0
   -7.7140   20.1920  -32.5890 C   0  0  0  0  0  0  0  0  0  0  0  0
   -9.0850   20.0310  -32.4040 C   0  0  0  0  0  0  0  0  0  0  0  0
   -9.8200   21.1460  -31.9680 C   0  0  0  0  0  0  0  0  0  0  0  0
   -9.1740   22.3780  -31.7270 C   0  0  0  0  0  0  0  0  0  0  0  0
   -7.7860   22.5100  -31.9210 C   0  0  0  0  0  0  0  0  0  0  0  0
   -7.0710   21.3900  -32.3660 C   0  0  0  0  0  0  0  0  0  0  0  0
   -5.7330   21.2820  -32.5950 N   0  0  0  0  0  0  0  0  0  0  0  0
   -4.7640   22.3840  -32.4940 C   0  0  0  0  0  0  0  0  0  0  0  0
   -4.6910   22.9880  -31.1090 C   0  0  0  0  0  0  0  0  0  0  0  0
   -4.0910   22.3230  -30.0180 C   0  0  0  0  0  0  0  0  0  0  0  0
   -4.0480   22.9320  -28.7600 C   0  0  0  0  0  0  0  0  0  0  0  0
   -4.6160   24.1970  -28.5710 C   0  0  0  0  0  0  0  0  0  0  0  0
   -5.2260   24.8590  -29.6400 C   0  0  0  0  0  0  0  0  0  0  0  0
   -5.2650   24.2580  -30.9020 C   0  0  0  0  0  0  0  0  0  0  0  0
   -5.5320   19.9720  -32.9400 C   0  0  0  0  0  0  0  0  0  0  0  0
   -4.3410   19.2580  -33.2070 C   0  0  0  0  0  0  0  0  0  0  0  0
   -3.0130   19.8920  -33.0790 C   0  0  0  0  0  0  0  0  0  0  0  0
   -2.4410   20.0670  -31.8110 C   0  0  0  0  0  0  0  0  0  0  0  0
   -1.1850   20.6660  -31.6840 C   0  0  0  0  0  0  0  0  0  0  0  0
   -0.4850   21.0730  -32.8240 C   0  0  0  0  0  0  0  0  0  0  0  0
   -1.0370   20.8750  -34.0920 C   0  0  0  0  0  0  0  0  0  0  0  0
   -2.2970   20.2830  -34.2220 C   0  0  0  0  0  0  0  0  0  0  0  0
   -4.4540   17.8650  -33.5160 C   0  0  0  0  0  0  0  0  0  0  0  0
   -3.2130   17.0290  -33.8020 C   0  0  0  0  0  0  0  0  0  0  0  0
   -3.0420   16.8090  -35.2380 N   0  0  0  0  0  0  0  0  0  0  0  0
   -6.0360   15.2392  -32.9404 H   0  0  0  0  0  0  0  0  0  0  0  0
   -6.8810   15.6845  -34.4617 H   0  0  0  0  0  0  0  0  0  0  0  0
   -5.1018   15.4377  -34.4617 H   0  0  0  0  0  0  0  0  0  0  0  0
   -9.5752   19.0645  -32.5927 H   0  0  0  0  0  0  0  0  0  0  0  0
  -10.9056   21.0586  -31.8134 H   0  0  0  0  0  0  0  0  0  0  0  0
   -9.7609   23.2430  -31.3844 H   0  0  0  0  0  0  0  0  0  0  0  0
   -7.2768   23.4659  -31.7286 H   0  0  0  0  0  0  0  0  0  0  0  0
   -3.7684   21.9997  -32.7608 H   0  0  0  0  0  0  0  0  0  0  0  0
   -5.0980   23.1769  -33.1793 H   0  0  0  0  0  0  0  0  0  0  0  0
   -3.6558   21.3225  -30.1579 H   0  0  0  0  0  0  0  0  0  0  0  0
   -3.5664   22.4154  -27.9167 H   0  0  0  0  0  0  0  0  0  0  0  0
   -4.5822   24.6712  -27.5790 H   0  0  0  0  0  0  0  0  0  0  0  0
   -5.6750   25.8518  -29.4888 H   0  0  0  0  0  0  0  0  0  0  0  0
   -5.7480   24.7813  -31.7404 H   0  0  0  0  0  0  0  0  0  0  0  0
   -2.9823   19.7319  -30.9139 H   0  0  0  0  0  0  0  0  0  0  0  0
   -0.7466   20.8175  -30.6866 H   0  0  0  0  0  0  0  0  0  0  0  0
    0.5012   21.5495  -32.7223 H   0  0  0  0  0  0  0  0  0  0  0  0
   -0.4801   21.1850  -34.9885 H   0  0  0  0  0  0  0  0  0  0  0  0
   -2.7281   20.1233  -35.2213 H   0  0  0  0  0  0  0  0  0  0  0  0
   -2.3288   17.5544  -33.4118 H   0  0  0  0  0  0  0  0  0  0  0  0
   -3.3314   16.0514  -33.3118 H   0  0  0  0  0  0  0  0  0  0  0  0
   -3.7950   17.2960  -35.7690 H   0  0  0  0  0  0  0  0  0  0  0  0
   -3.0620   15.7890  -35.4630 H   0  0  0  0  0  0  0  0  0  0  0  0
   -2.1180   17.1990  -35.5340 H   0  0  0  0  0  0  0  0  0  0  0  0
  1  2  1  0
  2  3  2  0
  3  4  1  0
  4  5  1  0
  5  6  2  0
  6  7  1  0
  7  8  2  0
  8  9  1  0
  9 10  2  0
 10 11  1  0
 11 12  1  0
 12 13  1  0
 13 14  2  0
 14 15  1  0
 15 16  2  0
 16 17  1  0
 17 18  2  0
 11 19  1  0
 19 20  1  0
 20 21  1  0
 21 22  2  0
 22 23  1  0
 23 24  2  0
 24 25  1  0
 25 26  2  0
 20 27  2  0
 27 28  1  0
 28 29  1  0
 27  2  1  0
 19  4  2  0
 26 21  1  0
 10  5  1  0
 18 13  1  0
  1 30  1  0
  1 31  1  0
  1 32  1  0
  6 33  1  0
  7 34  1  0
  8 35  1  0
  9 36  1  0
 12 37  1  0
 12 38  1  0
 14 39  1  0
 15 40  1  0
 16 41  1  0
 17 42  1  0
 18 43  1  0
 22 44  1  0
 23 45  1  0
 24 46  1  0
 25 47  1  0
 26 48  1  0
 28 49  1  0
 28 50  1  0
 29 51  1  0
 29 52  1  0
 29 53  1  0
M  CHG  1  29   1
M  END
>  <UniqueID>  (34) 
31

>  <SMILES>  (34) 
Cc1nc2c3ccccc3n(Cc3ccccc3)c2c(-c2ccccc2)c1C[NH3+]

>  <Energy>  (34) 
113.25293306221414

>  <Genealogy>  (34) 
Cc1nc2c3ccccc3n(Cc3ccccc3)c2c(-c2ccccc2)c1C[NH3+] (protonated)
Cc1nc2c3ccccc3n(Cc3ccccc3)c2c(-c2ccccc2)c1C[NH3+] (3D coordinates assigned)
Cc1nc2c3ccccc3n(Cc3ccccc3)c2c(-c2ccccc2)c1C[NH3+] (optimized conformer: 113.25293306221414 kcal/mol)

>  <smiles>  (34) 
Cc1nc2c3ccccc3n(Cc3ccccc3)c2c(-c2ccccc2)c1CN

>  <score_type>  (34) 
oracle

>  <origin>  (34) 
adgpu

>  <m_score__min__energy>  (34) 
-9.0500000000000007

>  <m_primary>  (34) 
energy

$$$$
34:0
     RDKit          3D

 37 39  0  0  0  0  0  0  0  0999 V2000
   -5.3140   17.6930  -34.9410 C   0  0  0  0  0  0  0  0  0  0  0  0
   -5.1630   18.9230  -34.1120 C   0  0  0  0  0  0  0  0  0  0  0  0
   -3.9750   19.4990  -33.8430 N   0  0  0  0  0  0  0  0  0  0  0  0
   -4.2700   20.5580  -33.1540 O   0  0  0  0  0  0  0  0  0  0  0  0
   -5.5710   20.6470  -33.0090 C   0  0  0  0  0  0  0  0  0  0  0  0
   -6.2550   21.7360  -32.2860 C   0  0  0  0  0  0  0  0  0  0  0  0
   -7.6580   21.8150  -32.2700 C   0  0  0  0  0  0  0  0  0  0  0  0
   -8.2980   22.8590  -31.5940 C   0  0  0  0  0  0  0  0  0  0  0  0
   -7.5470   23.8290  -30.9270 C   0  0  0  0  0  0  0  0  0  0  0  0
   -6.1480   23.7580  -30.9290 C   0  0  0  0  0  0  0  0  0  0  0  0
   -5.1830   24.9580  -30.0750 S   0  0  0  0  0  0  0  0  0  0  0  0
   -5.6190   26.3280  -30.5070 O   0  0  0  0  0  0  0  0  0  0  0  0
   -5.3680   24.8430  -28.5870 O   0  0  0  0  0  0  0  0  0  0  0  0
   -3.5080   24.7410  -30.4660 N   0  0  0  0  0  0  0  0  0  0  0  0
   -2.6720   23.6740  -29.9920 C   0  0  0  0  0  0  0  0  0  0  0  0
   -2.7690   22.3740  -30.5190 C   0  0  0  0  0  0  0  0  0  0  0  0
   -1.9440   21.3550  -30.0410 C   0  0  0  0  0  0  0  0  0  0  0  0
   -1.0080   21.6190  -29.0430 C   0  0  0  0  0  0  0  0  0  0  0  0
   -0.8940   22.9080  -28.5000 C   0  0  0  0  0  0  0  0  0  0  0  0
    0.1290   23.1770  -27.4300 C   0  0  0  0  0  0  0  0  0  0  0  0
   -1.7330   23.9380  -28.9770 C   0  0  0  0  0  0  0  0  0  0  0  0
   -1.6120   25.5710  -28.3140 Cl  0  0  0  0  0  0  0  0  0  0  0  0
   -5.5060   22.7140  -31.6090 C   0  0  0  0  0  0  0  0  0  0  0  0
   -6.2040   19.6210  -33.6140 N   0  0  0  0  0  0  0  0  0  0  0  0
   -5.4214   16.8182  -34.2829 H   0  0  0  0  0  0  0  0  0  0  0  0
   -6.2075   17.7861  -35.5759 H   0  0  0  0  0  0  0  0  0  0  0  0
   -4.4246   17.5672  -35.5759 H   0  0  0  0  0  0  0  0  0  0  0  0
   -8.2554   21.0526  -32.7913 H   0  0  0  0  0  0  0  0  0  0  0  0
   -9.3965   22.9161  -31.5878 H   0  0  0  0  0  0  0  0  0  0  0  0
   -8.0546   24.6499  -30.3993 H   0  0  0  0  0  0  0  0  0  0  0  0
   -3.4995   22.1589  -31.3128 H   0  0  0  0  0  0  0  0  0  0  0  0
   -2.0329   20.3392  -30.4537 H   0  0  0  0  0  0  0  0  0  0  0  0
   -0.3548   20.8124  -28.6787 H   0  0  0  0  0  0  0  0  0  0  0  0
   -0.3350   23.0550  -26.4401 H   0  0  0  0  0  0  0  0  0  0  0  0
    0.9634   22.4677  -27.5338 H   0  0  0  0  0  0  0  0  0  0  0  0
    0.5065   24.2050  -27.5338 H   0  0  0  0  0  0  0  0  0  0  0  0
   -4.4074   22.6596  -31.6129 H   0  0  0  0  0  0  0  0  0  0  0  0
  1  2  1  0
  2  3  2  0
  3  4  1  0
  4  5  1  0
  5  6  1  0
  6  7  2  0
  7  8  1  0
  8  9  2  0
  9 10  1  0
 10 11  1  0
 11 12  2  0
 11 13  2  0
 11 14  1  0
 14 15  1  0
 15 16  2  0
 16 17  1  0
 17 18  2  0
 18 19  1  0
 19 20  1  0
 19 21  2  0
 21 22  1  0
 10 23  2  0
  5 24  2  0
 24  2  1  0
 23  6  1  0
 21 15  1  0
  1 25  1  0
  1 26  1  0
  1 27  1  0
  7 28  1  0
  8 29  1  0
  9 30  1  0
 16 31  1  0
 17 32  1  0
 18 33  1  0
 20 34  1  0
 20 35  1  0
 20 36  1  0
 23 37  1  0
M  CHG  1  14  -1
M  END
>  <UniqueID>  (35) 
32

>  <SMILES>  (35) 
Cc1noc(-c2cccc(S(=O)(=O)[N-]c3cccc(C)c3Cl)c2)n1

>  <Energy>  (35) 
75.19416599570502

>  <Genealogy>  (35) 
Cc1noc(-c2cccc(S(=O)(=O)[N-]c3cccc(C)c3Cl)c2)n1 (protonated)
Cc1noc(-c2cccc(S(=O)(=O)[N-]c3cccc(C)c3Cl)c2)n1 (3D coordinates assigned)
Cc1noc(-c2cccc(S(=O)(=O)[N-]c3cccc(C)c3Cl)c2)n1 (optimized conformer: 75.19416599570502 kcal/mol)

>  <smiles>  (35) 
Cc1noc(-c2cccc(S(=O)(=O)Nc3cccc(C)c3Cl)c2)n1

>  <score_type>  (35) 
oracle

>  <origin>  (35) 
adgpu

>  <m_score__min__energy>  (35) 
-9.8800000000000008

>  <m_primary>  (35) 
energy

$$$$
35:0
     RDKit          3D

 33 34  0  0  0  0  0  0  0  0999 V2000
   -7.1290   18.9090  -31.9920 C   0  0  0  0  0  0  0  0  0  0  0  0
   -5.5780   19.6720  -32.4260 S   0  0  0  0  0  0  0  0  0  0  0  0
   -4.9030   18.8730  -33.5050 O   0  0  0  0  0  0  0  0  0  0  0  0
   -4.7040   19.6910  -31.2040 O   0  0  0  0  0  0  0  0  0  0  0  0
   -5.8260   21.3000  -32.9680 N   0  0  0  0  0  0  0  0  0  0  0  0
   -5.9210   22.3890  -32.0420 C   0  0  0  0  0  0  0  0  0  0  0  0
   -4.7640   23.1120  -31.7230 C   0  0  0  0  0  0  0  0  0  0  0  0
   -4.8200   24.1890  -30.8200 C   0  0  0  0  0  0  0  0  0  0  0  0
   -3.6460   24.9330  -30.4590 N   0  0  0  0  0  0  0  0  0  0  0  0
   -2.6760   24.5580  -29.4720 C   0  0  0  0  0  0  0  0  0  0  0  0
   -1.9520   25.4570  -28.9680 O   0  0  0  0  0  0  0  0  0  0  0  0
   -2.4670   23.1470  -29.0680 C   0  0  0  0  0  0  0  0  0  0  0  0
   -1.3840   22.4170  -29.5900 C   0  0  0  0  0  0  0  0  0  0  0  0
   -1.1810   21.0870  -29.2120 C   0  0  0  0  0  0  0  0  0  0  0  0
   -2.0600   20.4680  -28.3200 C   0  0  0  0  0  0  0  0  0  0  0  0
   -3.1490   21.1790  -27.8080 C   0  0  0  0  0  0  0  0  0  0  0  0
   -3.3570   22.5100  -28.1830 C   0  0  0  0  0  0  0  0  0  0  0  0
   -6.0380   24.5130  -30.2160 C   0  0  0  0  0  0  0  0  0  0  0  0
   -7.1980   23.8100  -30.5440 C   0  0  0  0  0  0  0  0  0  0  0  0
   -7.1510   22.7550  -31.4630 C   0  0  0  0  0  0  0  0  0  0  0  0
   -8.6540   21.9590  -31.9060 Cl  0  0  0  0  0  0  0  0  0  0  0  0
   -7.2215   18.8635  -30.8968 H   0  0  0  0  0  0  0  0  0  0  0  0
   -7.9579   19.5022  -32.4056 H   0  0  0  0  0  0  0  0  0  0  0  0
   -7.1650   17.8904  -32.4056 H   0  0  0  0  0  0  0  0  0  0  0  0
   -5.5340   21.5150  -33.9480 H   0  0  0  0  0  0  0  0  0  0  0  0
   -3.8038   22.8350  -32.1826 H   0  0  0  0  0  0  0  0  0  0  0  0
   -0.6930   22.8956  -30.2996 H   0  0  0  0  0  0  0  0  0  0  0  0
   -0.3265   20.5258  -29.6181 H   0  0  0  0  0  0  0  0  0  0  0  0
   -1.8953   19.4223  -28.0209 H   0  0  0  0  0  0  0  0  0  0  0  0
   -3.8437   20.6907  -27.1088 H   0  0  0  0  0  0  0  0  0  0  0  0
   -4.2208   23.0621  -27.7842 H   0  0  0  0  0  0  0  0  0  0  0  0
   -6.0825   25.3271  -29.4776 H   0  0  0  0  0  0  0  0  0  0  0  0
   -8.1551   24.0865  -30.0776 H   0  0  0  0  0  0  0  0  0  0  0  0
  1  2  1  0
  2  3  2  0
  2  4  2  0
  2  5  1  0
  5  6  1  0
  6  7  2  0
  7  8  1  0
  8  9  1  0
  9 10  1  0
 10 11  2  0
 10 12  1  0
 12 13  2  0
 13 14  1  0
 14 15  2  0
 15 16  1  0
 16 17  2  0
  8 18  2  0
 18 19  1  0
 19 20  2  0
 20 21  1  0
 20  6  1  0
 17 12  1  0
  1 22  1  0
  1 23  1  0
  1 24  1  0
  5 25  1  0
  7 26  1  0
 13 27  1  0
 14 28  1  0
 15 29  1  0
 16 30  1  0
 17 31  1  0
 18 32  1  0
 19 33  1  0
M  CHG  1   9  -1
M  END
>  <UniqueID>  (36) 
33

>  <SMILES>  (36) 
CS(=O)(=O)Nc1cc([N-]C(=O)c2ccccc2)ccc1Cl

>  <Energy>  (36) 
43.29343113121702

>  <Genealogy>  (36) 
CS(=O)(=O)Nc1cc([N-]C(=O)c2ccccc2)ccc1Cl (protonated)
CS(=O)(=O)Nc1cc([N-]C(=O)c2ccccc2)ccc1Cl (3D coordinates assigned)
CS(=O)(=O)Nc1cc([N-]C(=O)c2ccccc2)ccc1Cl (optimized conformer: 43.29343113121702 kcal/mol)

>  <smiles>  (36) 
CS(=O)(=O)Nc1cc(NC(=O)c2ccccc2)ccc1Cl

>  <score_type>  (36) 
oracle

>  <origin>  (36) 
adgpu

>  <m_score__min__energy>  (36) 
-9.3000000000000007

>  <m_primary>  (36) 
energy

$$$$
36:0
     RDKit          3D

 45 48  0  0  0  0  0  0  0  0999 V2000
   -9.8430   21.9250  -30.9110 C   0  0  0  0  0  0  0  0  0  0  0  0
   -9.0790   20.9920  -31.7940 C   0  0  0  0  0  0  0  0  0  0  0  0
   -9.6400   19.9430  -32.4260 N   0  0  0  0  0  0  0  0  0  0  0  0
   -8.6970   19.3540  -33.1030 O   0  0  0  0  0  0  0  0  0  0  0  0
   -7.5460   19.9680  -32.9520 C   0  0  0  0  0  0  0  0  0  0  0  0
   -6.2770   19.5290  -33.6060 C   0  0  0  0  0  0  0  0  0  0  0  0
   -7.7300   21.0490  -32.1060 C   0  0  0  0  0  0  0  0  0  0  0  0
   -6.7250   22.0310  -31.6460 C   0  0  0  0  0  0  0  0  0  0  0  0
   -6.8900   23.4000  -31.9270 C   0  0  0  0  0  0  0  0  0  0  0  0
   -5.9410   24.3320  -31.4940 C   0  0  0  0  0  0  0  0  0  0  0  0
   -4.8200   23.9040  -30.7760 C   0  0  0  0  0  0  0  0  0  0  0  0
   -3.8840   24.7940  -30.3590 N   0  0  0  0  0  0  0  0  0  0  0  0
   -2.7850   24.4020  -29.6600 C   0  0  0  0  0  0  0  0  0  0  0  0
   -1.9000   25.2970  -29.3440 N   0  0  0  0  0  0  0  0  0  0  0  0
   -2.6250   23.0280  -29.3430 C   0  0  0  0  0  0  0  0  0  0  0  0
   -1.4970   22.5060  -28.5430 C   0  0  0  0  0  0  0  0  0  0  0  0
   -0.8750   23.3310  -27.5930 C   0  0  0  0  0  0  0  0  0  0  0  0
    0.2200   22.8620  -26.8630 C   0  0  0  0  0  0  0  0  0  0  0  0
    0.7090   21.5710  -27.0830 C   0  0  0  0  0  0  0  0  0  0  0  0
    0.1070   20.7430  -28.0390 C   0  0  0  0  0  0  0  0  0  0  0  0
    0.7420   19.1310  -28.3440 S   0  0  0  0  0  0  0  0  0  0  0  0
    0.5990   18.7570  -30.0770 C   0  0  0  0  0  0  0  0  0  0  0  0
    2.1870   19.0640  -27.9330 O   0  0  0  0  0  0  0  0  0  0  0  0
   -0.0330   18.1210  -27.5450 O   0  0  0  0  0  0  0  0  0  0  0  0
   -0.9860   21.2180  -28.7790 C   0  0  0  0  0  0  0  0  0  0  0  0
   -3.5600   22.1420  -29.7830 N   0  0  0  0  0  0  0  0  0  0  0  0
   -4.6480   22.5390  -30.4910 C   0  0  0  0  0  0  0  0  0  0  0  0
   -5.5960   21.6070  -30.9230 C   0  0  0  0  0  0  0  0  0  0  0  0
   -9.6422   21.6798  -29.8576 H   0  0  0  0  0  0  0  0  0  0  0  0
   -9.5296   22.9599  -31.1128 H   0  0  0  0  0  0  0  0  0  0  0  0
  -10.9194   21.8219  -31.1128 H   0  0  0  0  0  0  0  0  0  0  0  0
   -5.5363   19.2728  -32.8342 H   0  0  0  0  0  0  0  0  0  0  0  0
   -6.4737   18.6467  -34.2327 H   0  0  0  0  0  0  0  0  0  0  0  0
   -5.8864   20.3442  -34.2327 H   0  0  0  0  0  0  0  0  0  0  0  0
   -7.7713   23.7395  -32.4910 H   0  0  0  0  0  0  0  0  0  0  0  0
   -6.0764   25.4004  -31.7181 H   0  0  0  0  0  0  0  0  0  0  0  0
   -1.0080   25.0920  -28.8450 H   0  0  0  0  0  0  0  0  0  0  0  0
   -1.2511   24.3506  -27.4226 H   0  0  0  0  0  0  0  0  0  0  0  0
    0.6983   23.5099  -26.1137 H   0  0  0  0  0  0  0  0  0  0  0  0
    1.5691   21.2043  -26.5036 H   0  0  0  0  0  0  0  0  0  0  0  0
    0.2086   17.7361  -30.2008 H   0  0  0  0  0  0  0  0  0  0  0  0
   -0.0890   19.4726  -30.5510 H   0  0  0  0  0  0  0  0  0  0  0  0
    1.5889   18.8311  -30.5510 H   0  0  0  0  0  0  0  0  0  0  0  0
   -1.4455   20.5793  -29.5478 H   0  0  0  0  0  0  0  0  0  0  0  0
   -5.4585   20.5393  -30.6968 H   0  0  0  0  0  0  0  0  0  0  0  0
  1  2  1  0
  2  3  2  0
  3  4  1  0
  4  5  1  0
  5  6  1  0
  5  7  2  0
  7  8  1  0
  8  9  2  0
  9 10  1  0
 10 11  2  0
 11 12  1  0
 12 13  1  0
 13 14  2  3
 13 15  1  0
 15 16  1  0
 16 17  2  0
 17 18  1  0
 18 19  2  0
 19 20  1  0
 20 21  1  0
 21 22  1  0
 21 23  2  0
 21 24  2  0
 20 25  2  0
 15 26  2  0
 26 27  1  0
 27 28  2  0
  7  2  1  0
 28  8  1  0
 27 11  1  0
 25 16  1  0
  1 29  1  0
  1 30  1  0
  1 31  1  0
  6 32  1  0
  6 33  1  0
  6 34  1  0
  9 35  1  0
 10 36  1  0
 14 37  1  0
 17 38  1  0
 18 39  1  0
 19 40  1  0
 22 41  1  0
 22 42  1  0
 22 43  1  0
 25 44  1  0
 28 45  1  0
M  CHG  1  12  -1
M  END
>  <UniqueID>  (37) 
34

>  <SMILES>  (37) 
Cc1noc(C)c1-c1ccc2[n-]c(=N)c(-c3cccc(S(C)(=O)=O)c3)nc2c1

>  <Energy>  (37) 
92.27782260100471

>  <Genealogy>  (37) 
Cc1noc(C)c1-c1ccc2[n-]c(=N)c(-c3cccc(S(C)(=O)=O)c3)nc2c1 (protonated)
Cc1noc(C)c1-c1ccc2[n-]c(=N)c(-c3cccc(S(C)(=O)=O)c3)nc2c1 (3D coordinates assigned)
Cc1noc(C)c1-c1ccc2[n-]c(=N)c(-c3cccc(S(C)(=O)=O)c3)nc2c1 (optimized conformer: 92.27782260100471 kcal/mol)

>  <smiles>  (37) 
Cc1noc(C)c1-c1ccc2[nH]c(=N)c(-c3cccc(S(C)(=O)=O)c3)nc2c1

>  <score_type>  (37) 
oracle

>  <origin>  (37) 
adgpu

>  <m_score__min__energy>  (37) 
-11.35

>  <m_primary>  (37) 
energy

$$$$
37:0
     RDKit          3D

 62 65  0  0  1  0  0  0  0  0999 V2000
   -9.1300   18.5130  -31.5870 C   0  0  0  0  0  0  0  0  0  0  0  0
   -8.6630   19.0350  -32.8230 O   0  0  0  0  0  0  0  0  0  0  0  0
   -7.3100   19.3160  -32.9590 C   0  0  0  0  0  0  0  0  0  0  0  0
   -6.4120   18.3280  -33.3760 C   0  0  0  0  0  0  0  0  0  0  0  0
   -5.0680   18.6110  -33.5110 C   0  0  0  0  0  0  0  0  0  0  0  0
   -4.6110   19.8820  -33.2280 C   0  0  0  0  0  0  0  0  0  0  0  0
   -3.2140   20.1120  -33.3840 N   0  0  0  0  0  0  0  0  0  0  0  0
   -2.5510   20.7210  -32.4330 C   0  0  0  0  0  0  0  0  0  0  0  0
   -3.1630   21.1360  -31.3080 N   0  0  0  0  0  0  0  0  0  0  0  0
   -2.4710   21.7540  -30.3510 C   0  0  0  0  0  0  0  0  0  0  0  0
   -3.0230   22.1740  -29.2400 N   0  0  0  0  0  0  0  0  0  0  0  0
   -2.1590   22.8250  -28.2960 C   0  0  0  0  0  0  0  0  0  0  0  0
   -1.9610   24.1760  -28.4930 C   0  0  0  0  0  0  0  0  0  0  0  0
   -1.1300   24.8640  -27.6080 C   0  0  0  0  0  0  0  0  0  0  0  0
   -0.5190   24.1950  -26.5540 C   0  0  0  0  0  0  0  0  0  0  0  0
   -0.7480   22.8450  -26.3980 C   0  0  0  0  0  0  0  0  0  0  0  0
   -1.5630   22.1440  -27.2580 C   0  0  0  0  0  0  0  0  0  0  0  0
   -1.8410   20.4470  -27.0500 S   0  0  0  0  0  0  0  0  0  0  0  0
   -3.2680   20.0700  -27.3250 O   0  0  0  0  0  0  0  0  0  0  0  0
   -1.5400   20.0570  -25.6120 O   0  0  0  0  0  0  0  0  0  0  0  0
   -0.7740   19.4940  -28.1400 C   0  0  0  0  0  0  0  0  0  0  0  0
   -0.4850   18.1690  -27.4760 C   0  0  0  0  0  0  0  0  0  0  0  0
    0.5420   20.2230  -28.3210 C   0  0  0  0  0  0  0  0  0  0  0  0
   -1.1510   21.9520  -30.5420 N   0  0  0  0  0  0  0  0  0  0  0  0
   -0.4970   21.5560  -31.6490 C   0  0  0  0  0  0  0  0  0  0  0  0
   -1.2030   20.9150  -32.6460 C   0  0  0  0  0  0  0  0  0  0  0  0
   -0.5350   20.4790  -33.8390 C   0  0  0  0  0  0  0  0  0  0  0  0
    0.0170   20.1110  -34.8050 N   0  0  0  0  0  0  0  0  0  0  0  0
   -5.4800   20.8680  -32.8160 C   0  0  0  0  0  0  0  0  0  0  0  0
   -6.8450   20.5940  -32.6760 C   0  0  0  0  0  0  0  0  0  0  0  0
   -7.7290   21.6820  -32.2320 C   0  0  0  0  0  0  0  0  0  0  0  0
   -7.0600   22.6840  -31.4340 N   0  0  0  0  0  0  0  0  0  0  0  0
   -6.4800   23.7750  -31.9700 C   0  0  0  0  0  0  0  0  0  0  0  0
   -5.9260   24.5420  -30.9570 C   0  0  0  0  0  0  0  0  0  0  0  0
   -6.1810   23.8900  -29.7660 C   0  0  0  0  0  0  0  0  0  0  0  0
   -6.8760   22.7590  -30.1070 C   0  0  0  0  0  0  0  0  0  0  0  0
   -8.6489   19.0507  -30.7567 H   0  0  0  0  0  0  0  0  0  0  0  0
  -10.2207   18.6409  -31.5236 H   0  0  0  0  0  0  0  0  0  0  0  0
   -8.8820   17.4432  -31.5236 H   0  0  0  0  0  0  0  0  0  0  0  0
   -6.7806   17.3157  -33.5985 H   0  0  0  0  0  0  0  0  0  0  0  0
   -4.3671   17.8302  -33.8413 H   0  0  0  0  0  0  0  0  0  0  0  0
   -4.1880   20.9730  -31.1780 H   0  0  0  0  0  0  0  0  0  0  0  0
   -2.4475   24.6993  -29.3293 H   0  0  0  0  0  0  0  0  0  0  0  0
   -0.9575   25.9417  -27.7453 H   0  0  0  0  0  0  0  0  0  0  0  0
    0.1371   24.7347  -25.8552 H   0  0  0  0  0  0  0  0  0  0  0  0
   -0.2667   22.3133  -25.5640 H   0  0  0  0  0  0  0  0  0  0  0  0
   -1.2648   19.3536  -29.1144 H   0  0  0  0  0  0  0  0  0  0  0  0
   -0.5120   18.2928  -26.3833 H   0  0  0  0  0  0  0  0  0  0  0  0
   -1.2437   17.4331  -27.7805 H   0  0  0  0  0  0  0  0  0  0  0  0
    0.5113   17.8159  -27.7805 H   0  0  0  0  0  0  0  0  0  0  0  0
    0.9688   20.4594  -27.3351 H   0  0  0  0  0  0  0  0  0  0  0  0
    1.2415   19.5837  -28.8796 H   0  0  0  0  0  0  0  0  0  0  0  0
    0.3711   21.1550  -28.8796 H   0  0  0  0  0  0  0  0  0  0  0  0
   -0.5640   22.4370  -29.8110 H   0  0  0  0  0  0  0  0  0  0  0  0
    0.5821   21.7401  -31.7573 H   0  0  0  0  0  0  0  0  0  0  0  0
   -5.0989   21.8761  -32.5959 H   0  0  0  0  0  0  0  0  0  0  0  0
   -8.1513   22.1716  -33.1219 H   0  0  0  0  0  0  0  0  0  0  0  0
   -8.5033   21.2283  -31.5959 H   0  0  0  0  0  0  0  0  0  0  0  0
   -6.4506   24.0188  -33.0422 H   0  0  0  0  0  0  0  0  0  0  0  0
   -5.3847   25.4919  -31.0786 H   0  0  0  0  0  0  0  0  0  0  0  0
   -5.8877   24.2113  -28.7557 H   0  0  0  0  0  0  0  0  0  0  0  0
   -7.2362   22.0100  -29.3864 H   0  0  0  0  0  0  0  0  0  0  0  0
  1  2  1  0
  2  3  1  0
  3  4  2  0
  4  5  1  0
  5  6  2  0
  6  7  1  0
  7  8  2  0
  8  9  1  0
  9 10  1  0
 10 11  2  0
 11 12  1  0
 12 13  2  0
 13 14  1  0
 14 15  2  0
 15 16  1  0
 16 17  2  0
 17 18  1  0
 18 19  2  0
 18 20  2  0
 18 21  1  0
 21 22  1  0
 21 23  1  0
 10 24  1  0
 24 25  1  0
 25 26  2  0
 26 27  1  0
 27 28  3  0
  6 29  1  0
 29 30  2  0
 30 31  1  0
 31 32  1  0
 32 33  1  0
 33 34  2  0
 34 35  1  0
 35 36  2  0
 30  3  1  0
 36 32  1  0
 26  8  1  0
 17 12  1  0
  1 37  1  0
  1 38  1  0
  1 39  1  0
  4 40  1  0
  5 41  1  0
  9 42  1  0
 13 43  1  0
 14 44  1  0
 15 45  1  0
 16 46  1  0
 21 47  1  0
 22 48  1  0
 22 49  1  0
 22 50  1  0
 23 51  1  0
 23 52  1  0
 23 53  1  0
 24 54  1  0
 25 55  1  0
 29 56  1  0
 31 57  1  0
 31 58  1  0
 33 59  1  0
 34 60  1  0
 35 61  1  0
 36 62  1  0
M  END
>  <smiles>  (38) 
COc1ccc(N=c2[nH]c(=Nc3ccccc3S(=O)(=O)C(C)C)[nH]cc2C#N)cc1Cn1cccc1

>  <score_type>  (38) 
oracle

>  <origin>  (38) 
adgpu

>  <m_score__min__energy>  (38) 
-10.039999999999999

>  <m_primary>  (38) 
energy

$$$$
38:0
     RDKit          3D

 29 30  0  0  0  0  0  0  0  0999 V2000
   -9.4881   22.0332  -30.9689 H   0  0  0  0  0  0  0  0  0  0  0  0
   -8.4600   21.9850  -31.3570 C   0  0  0  0  0  0  0  0  0  0  0  0
   -7.6050   23.0810  -31.2030 C   0  0  0  0  0  0  0  0  0  0  0  0
   -7.9588   23.9843  -30.6844 H   0  0  0  0  0  0  0  0  0  0  0  0
   -6.2930   23.0310  -31.7100 C   0  0  0  0  0  0  0  0  0  0  0  0
   -5.3740   24.1220  -31.5520 N   0  0  0  0  0  0  0  0  0  0  0  0
   -4.4430   24.3040  -30.4760 C   0  0  0  0  0  0  0  0  0  0  0  0
   -3.6700   25.2980  -30.4680 O   0  0  0  0  0  0  0  0  0  0  0  0
   -4.2660   23.2850  -29.4820 N   0  0  0  0  0  0  0  0  0  0  0  0
   -3.3310   22.3770  -29.4090 C   0  0  0  0  0  0  0  0  0  0  0  0
   -2.3870   22.1600  -30.4320 C   0  0  0  0  0  0  0  0  0  0  0  0
   -2.4026   22.7805  -31.3402 H   0  0  0  0  0  0  0  0  0  0  0  0
   -1.4320   21.1530  -30.2860 C   0  0  0  0  0  0  0  0  0  0  0  0
   -0.6923   20.9825  -31.0821 H   0  0  0  0  0  0  0  0  0  0  0  0
   -1.4090   20.3810  -29.1670 N   0  0  0  0  0  0  0  0  0  0  0  0
   -0.6910   19.6250  -29.1050 H   0  0  0  0  0  0  0  0  0  0  0  0
   -2.3050   20.5640  -28.1530 C   0  0  0  0  0  0  0  0  0  0  0  0
   -2.2890   19.6530  -26.9510 C   0  0  0  0  0  0  0  0  0  0  0  0
   -1.8670   20.3400  -25.8270 F   0  0  0  0  0  0  0  0  0  0  0  0
   -3.5550   19.1510  -26.7010 F   0  0  0  0  0  0  0  0  0  0  0  0
   -1.4250   18.6020  -27.1890 F   0  0  0  0  0  0  0  0  0  0  0  0
   -3.2970   21.5500  -28.2790 C   0  0  0  0  0  0  0  0  0  0  0  0
   -4.0504   21.6734  -27.4871 H   0  0  0  0  0  0  0  0  0  0  0  0
   -5.8440   21.8600  -32.3340 C   0  0  0  0  0  0  0  0  0  0  0  0
   -4.8104   21.8009  -32.7056 H   0  0  0  0  0  0  0  0  0  0  0  0
   -6.7020   20.7640  -32.4880 C   0  0  0  0  0  0  0  0  0  0  0  0
   -6.1230   19.3110  -33.2870 Cl  0  0  0  0  0  0  0  0  0  0  0  0
   -8.0130   20.8290  -32.0020 C   0  0  0  0  0  0  0  0  0  0  0  0
   -8.8500   19.7730  -32.1440 F   0  0  0  0  0  0  0  0  0  0  0  0
  1  2  1  0
  2  3  2  0
  3  4  1  0
  3  5  1  0
  5  6  1  0
  6  7  1  0
  7  8  2  0
  7  9  1  0
  9 10  2  0
 10 11  1  0
 11 12  1  0
 11 13  2  0
 13 14  1  0
 13 15  1  0
 15 16  1  0
 15 17  1  0
 17 18  1  0
 18 19  1  0
 18 20  1  0
 18 21  1  0
 17 22  2  0
 22 23  1  0
  5 24  2  0
 24 25  1  0
 24 26  1  0
 26 27  1  0
 26 28  2  0
 28 29  1  0
 28  2  1  0
 22 10  1  0
M  CHG  1   6  -1
M  END
>  <UniqueID>  (39) 
35

>  <SMILES>  (39) 
O=C(/N=c1\cc[nH]c(C(F)(F)F)c1)[N-]c1ccc(F)c(Cl)c1

>  <Energy>  (39) 
41.34054857883196

>  <Genealogy>  (39) 
O=C(N=c1cc[nH]c(C(F)(F)F)c1)[N-]c1ccc(F)c(Cl)c1 (protonated)
O=C(/N=c1\cc[nH]c(C(F)(F)F)c1)[N-]c1ccc(F)c(Cl)c1 (cis-trans isomerization)
O=C(/N=c1\cc[nH]c(C(F)(F)F)c1)[N-]c1ccc(F)c(Cl)c1 (3D coordinates assigned)
O=C(/N=c1\cc[nH]c(C(F)(F)F)c1)[N-]c1ccc(F)c(Cl)c1 (optimized conformer: 41.34054857883196 kcal/mol)

>  <smiles>  (39) 
O=C(N=c1cc[nH]c(C(F)(F)F)c1)Nc1ccc(F)c(Cl)c1

>  <score_type>  (39) 
oracle

>  <origin>  (39) 
adgpu

>  <m_score__min__energy>  (39) 
-7.6900000000000004

>  <m_primary>  (39) 
energy

$$$$
39:0
     RDKit          3D

 37 39  0  0  0  0  0  0  0  0999 V2000
   -6.2440   25.4660  -29.5080 C   0  0  0  0  0  0  0  0  0  0  0  0
   -5.8710   24.2630  -30.3310 C   0  0  0  0  0  0  0  0  0  0  0  0
   -6.8670   23.3450  -30.6880 C   0  0  0  0  0  0  0  0  0  0  0  0
   -6.5200   22.1920  -31.4110 C   0  0  0  0  0  0  0  0  0  0  0  0
   -7.5330   21.1800  -31.8060 C   0  0  0  0  0  0  0  0  0  0  0  0
   -8.8810   21.5630  -31.9350 C   0  0  0  0  0  0  0  0  0  0  0  0
   -9.8510   20.6310  -32.3140 C   0  0  0  0  0  0  0  0  0  0  0  0
   -9.4880   19.3080  -32.5770 C   0  0  0  0  0  0  0  0  0  0  0  0
   -8.1520   18.9170  -32.4670 C   0  0  0  0  0  0  0  0  0  0  0  0
   -7.1770   19.8450  -32.0880 C   0  0  0  0  0  0  0  0  0  0  0  0
   -5.2510   21.9980  -31.7640 O   0  0  0  0  0  0  0  0  0  0  0  0
   -4.2760   22.8500  -31.4690 C   0  0  0  0  0  0  0  0  0  0  0  0
   -3.1000   22.5920  -31.8390 O   0  0  0  0  0  0  0  0  0  0  0  0
   -4.5500   24.0300  -30.7640 C   0  0  0  0  0  0  0  0  0  0  0  0
   -3.4780   24.9360  -30.4660 N   0  0  0  0  0  0  0  0  0  0  0  0
   -2.4800   24.6980  -29.4650 C   0  0  0  0  0  0  0  0  0  0  0  0
   -1.9820   25.6740  -28.8410 O   0  0  0  0  0  0  0  0  0  0  0  0
   -2.0400   23.3090  -29.1760 C   0  0  0  0  0  0  0  0  0  0  0  0
   -0.8390   22.8470  -29.7470 C   0  0  0  0  0  0  0  0  0  0  0  0
   -0.3920   21.5450  -29.5190 C   0  0  0  0  0  0  0  0  0  0  0  0
   -1.1340   20.6820  -28.7120 C   0  0  0  0  0  0  0  0  0  0  0  0
   -2.3220   21.1220  -28.1300 C   0  0  0  0  0  0  0  0  0  0  0  0
   -2.7840   22.4260  -28.3500 C   0  0  0  0  0  0  0  0  0  0  0  0
   -4.2650   22.9050  -27.5250 Cl  0  0  0  0  0  0  0  0  0  0  0  0
   -6.1669   25.2173  -28.4393 H   0  0  0  0  0  0  0  0  0  0  0  0
   -5.5610   26.2961  -29.7415 H   0  0  0  0  0  0  0  0  0  0  0  0
   -7.2768   25.7641  -29.7415 H   0  0  0  0  0  0  0  0  0  0  0  0
   -7.9142   23.5260  -30.4039 H   0  0  0  0  0  0  0  0  0  0  0  0
   -9.1736   22.6045  -31.7359 H   0  0  0  0  0  0  0  0  0  0  0  0
  -10.9028   20.9400  -32.4054 H   0  0  0  0  0  0  0  0  0  0  0  0
  -10.2538   18.5749  -32.8705 H   0  0  0  0  0  0  0  0  0  0  0  0
   -7.8658   17.8763  -32.6790 H   0  0  0  0  0  0  0  0  0  0  0  0
   -6.1255   19.5316  -32.0093 H   0  0  0  0  0  0  0  0  0  0  0  0
   -0.2451   23.5214  -30.3814 H   0  0  0  0  0  0  0  0  0  0  0  0
    0.5466   21.1985  -29.9761 H   0  0  0  0  0  0  0  0  0  0  0  0
   -0.7819   19.6550  -28.5351 H   0  0  0  0  0  0  0  0  0  0  0  0
   -2.9020   20.4388  -27.4921 H   0  0  0  0  0  0  0  0  0  0  0  0
  1  2  1  0
  2  3  1  0
  3  4  2  0
  4  5  1  0
  5  6  2  0
  6  7  1  0
  7  8  2  0
  8  9  1  0
  9 10  2  0
  4 11  1  0
 11 12  1  0
 12 13  2  0
 12 14  1  0
 14 15  1  0
 15 16  1  0
 16 17  2  0
 16 18  1  0
 18 19  2  0
 19 20  1  0
 20 21  2  0
 21 22  1  0
 22 23  2  0
 23 24  1  0
 14  2  2  0
 23 18  1  0
 10  5  1  0
  1 25  1  0
  1 26  1  0
  1 27  1  0
  3 28  1  0
  6 29  1  0
  7 30  1  0
  8 31  1  0
  9 32  1  0
 10 33  1  0
 19 34  1  0
 20 35  1  0
 21 36  1  0
 22 37  1  0
M  CHG  1  15  -1
M  END
>  <UniqueID>  (40) 
36

>  <SMILES>  (40) 
Cc1cc(-c2ccccc2)oc(=O)c1[N-]C(=O)c1ccccc1Cl

>  <Energy>  (40) 
56.55053681006115

>  <Genealogy>  (40) 
Cc1cc(-c2ccccc2)oc(=O)c1[N-]C(=O)c1ccccc1Cl (protonated)
Cc1cc(-c2ccccc2)oc(=O)c1[N-]C(=O)c1ccccc1Cl (3D coordinates assigned)
Cc1cc(-c2ccccc2)oc(=O)c1[N-]C(=O)c1ccccc1Cl (optimized conformer: 56.55053681006115 kcal/mol)

>  <smiles>  (40) 
Cc1cc(-c2ccccc2)oc(=O)c1NC(=O)c1ccccc1Cl

>  <score_type>  (40) 
oracle

>  <origin>  (40) 
adgpu

>  <m_score__min__energy>  (40) 
-10.5

>  <m_primary>  (40) 
energy

$$$$
40:0
     RDKit          3D

 42 44  0  0  0  0  0  0  0  0999 V2000
   -1.9600   25.3090  -29.2060 O   0  0  0  0  0  0  0  0  0  0  0  0
   -2.8780   24.6010  -29.7000 C   0  0  0  0  0  0  0  0  0  0  0  0
   -3.8360   25.2190  -30.5730 N   0  0  0  0  0  0  0  0  0  0  0  0
   -5.2760   25.3150  -30.3340 C   0  0  0  0  0  0  0  0  0  0  0  0
   -5.9780   24.0620  -30.7890 C   0  0  0  0  0  0  0  0  0  0  0  0
   -7.1090   23.5900  -30.1030 C   0  0  0  0  0  0  0  0  0  0  0  0
   -7.7040   22.3820  -30.4740 C   0  0  0  0  0  0  0  0  0  0  0  0
   -7.1920   21.6420  -31.5460 C   0  0  0  0  0  0  0  0  0  0  0  0
   -7.9150   20.0900  -31.9530 S   0  0  0  0  0  0  0  0  0  0  0  0
   -9.0550   19.8260  -31.0100 O   0  0  0  0  0  0  0  0  0  0  0  0
   -8.4430   20.0880  -33.3600 O   0  0  0  0  0  0  0  0  0  0  0  0
   -6.7330   18.8350  -31.7750 N   0  0  0  0  0  0  0  0  0  0  0  0
   -5.7300   18.4910  -32.7430 C   0  0  0  0  0  0  0  0  0  0  0  0
   -4.4990   19.1710  -32.8190 C   0  0  0  0  0  0  0  0  0  0  0  0
   -3.5440   18.7950  -33.7680 C   0  0  0  0  0  0  0  0  0  0  0  0
   -3.8110   17.7490  -34.6550 C   0  0  0  0  0  0  0  0  0  0  0  0
   -5.0390   17.0810  -34.5980 C   0  0  0  0  0  0  0  0  0  0  0  0
   -5.9920   17.4490  -33.6440 C   0  0  0  0  0  0  0  0  0  0  0  0
   -7.1750   16.7850  -33.5940 F   0  0  0  0  0  0  0  0  0  0  0  0
   -6.0860   22.1290  -32.2580 C   0  0  0  0  0  0  0  0  0  0  0  0
   -5.4820   23.3310  -31.8800 C   0  0  0  0  0  0  0  0  0  0  0  0
   -2.9040   23.1550  -29.4070 C   0  0  0  0  0  0  0  0  0  0  0  0
   -3.1420   22.7100  -28.0960 C   0  0  0  0  0  0  0  0  0  0  0  0
   -3.1400   21.3410  -27.8060 C   0  0  0  0  0  0  0  0  0  0  0  0
   -2.9110   20.4110  -28.8240 C   0  0  0  0  0  0  0  0  0  0  0  0
   -2.6980   20.8470  -30.1360 C   0  0  0  0  0  0  0  0  0  0  0  0
   -2.7000   22.2140  -30.4290 C   0  0  0  0  0  0  0  0  0  0  0  0
   -5.4543   25.4579  -29.2580 H   0  0  0  0  0  0  0  0  0  0  0  0
   -5.6722   26.1682  -30.9042 H   0  0  0  0  0  0  0  0  0  0  0  0
   -7.5279   24.1740  -29.2702 H   0  0  0  0  0  0  0  0  0  0  0  0
   -8.5793   22.0104  -29.9210 H   0  0  0  0  0  0  0  0  0  0  0  0
   -4.2882   20.0012  -32.1289 H   0  0  0  0  0  0  0  0  0  0  0  0
   -2.5805   19.3236  -33.8166 H   0  0  0  0  0  0  0  0  0  0  0  0
   -3.0562   17.4509  -35.3976 H   0  0  0  0  0  0  0  0  0  0  0  0
   -5.2546   16.2658  -35.3043 H   0  0  0  0  0  0  0  0  0  0  0  0
   -5.6932   21.5634  -33.1158 H   0  0  0  0  0  0  0  0  0  0  0  0
   -4.6131   23.7065  -32.4404 H   0  0  0  0  0  0  0  0  0  0  0  0
   -3.3305   23.4399  -27.2949 H   0  0  0  0  0  0  0  0  0  0  0  0
   -3.3187   20.9967  -26.7767 H   0  0  0  0  0  0  0  0  0  0  0  0
   -2.8983   19.3355  -28.5933 H   0  0  0  0  0  0  0  0  0  0  0  0
   -2.5287   20.1135  -30.9380 H   0  0  0  0  0  0  0  0  0  0  0  0
   -2.5413   22.5534  -31.4632 H   0  0  0  0  0  0  0  0  0  0  0  0
  1  2  2  0
  2  3  1  0
  3  4  1  0
  4  5  1  0
  5  6  2  0
  6  7  1  0
  7  8  2  0
  8  9  1  0
  9 10  2  0
  9 11  2  0
  9 12  1  0
 12 13  1  0
 13 14  2  0
 14 15  1  0
 15 16  2  0
 16 17  1  0
 17 18  2  0
 18 19  1  0
  8 20  1  0
 20 21  2  0
  2 22  1  0
 22 23  2  0
 23 24  1  0
 24 25  2  0
 25 26  1  0
 26 27  2  0
 21  5  1  0
 27 22  1  0
 18 13  1  0
  4 28  1  0
  4 29  1  0
  6 30  1  0
  7 31  1  0
 14 32  1  0
 15 33  1  0
 16 34  1  0
 17 35  1  0
 20 36  1  0
 21 37  1  0
 23 38  1  0
 24 39  1  0
 25 40  1  0
 26 41  1  0
 27 42  1  0
M  CHG  2   3  -1  12  -1
M  END
>  <UniqueID>  (41) 
37

>  <SMILES>  (41) 
O=C([N-]Cc1ccc(S(=O)(=O)[N-]c2ccccc2F)cc1)c1ccccc1

>  <Energy>  (41) 
47.559594793152165

>  <Genealogy>  (41) 
O=C([N-]Cc1ccc(S(=O)(=O)[N-]c2ccccc2F)cc1)c1ccccc1 (protonated)
O=C([N-]Cc1ccc(S(=O)(=O)[N-]c2ccccc2F)cc1)c1ccccc1 (3D coordinates assigned)
O=C([N-]Cc1ccc(S(=O)(=O)[N-]c2ccccc2F)cc1)c1ccccc1 (optimized conformer: 47.559594793152165 kcal/mol)

>  <smiles>  (41) 
O=C(NCc1ccc(S(=O)(=O)Nc2ccccc2F)cc1)c1ccccc1

>  <score_type>  (41) 
oracle

>  <origin>  (41) 
adgpu

>  <m_score__min__energy>  (41) 
-10.74

>  <m_primary>  (41) 
energy

$$$$
41:0
     RDKit          3D

 35 37  0  0  0  0  0  0  0  0999 V2000
   -5.6290   22.7610  -30.1870 C   0  0  0  0  0  0  0  0  0  0  0  0
   -4.1990   22.3250  -30.1050 C   0  0  0  0  0  0  0  0  0  0  0  0
   -3.9040   21.1530  -30.4610 O   0  0  0  0  0  0  0  0  0  0  0  0
   -3.1470   23.2270  -29.5800 C   0  0  0  0  0  0  0  0  0  0  0  0
   -3.0850   24.6040  -29.7250 C   0  0  0  0  0  0  0  0  0  0  0  0
   -3.9750   25.4070  -30.4340 O   0  0  0  0  0  0  0  0  0  0  0  0
   -1.9910   25.0410  -29.0180 C   0  0  0  0  0  0  0  0  0  0  0  0
   -1.5800   26.3660  -28.9190 O   0  0  0  0  0  0  0  0  0  0  0  0
   -1.3550   24.0030  -28.4370 N   0  0  0  0  0  0  0  0  0  0  0  0
   -0.1570   24.0990  -27.6460 C   0  0  0  0  0  0  0  0  0  0  0  0
   -0.0820   24.0880  -26.2650 C   0  0  0  0  0  0  0  0  0  0  0  0
    1.2730   24.1610  -26.0270 C   0  0  0  0  0  0  0  0  0  0  0  0
    1.9310   24.1590  -24.6890 C   0  0  0  0  0  0  0  0  0  0  0  0
    1.9130   24.1930  -27.1720 O   0  0  0  0  0  0  0  0  0  0  0  0
    1.0820   24.1540  -28.1730 N   0  0  0  0  0  0  0  0  0  0  0  0
   -2.0560   22.8870  -28.7740 C   0  0  0  0  0  0  0  0  0  0  0  0
   -1.7440   21.5280  -28.2890 C   0  0  0  0  0  0  0  0  0  0  0  0
   -2.3920   21.0280  -27.1490 C   0  0  0  0  0  0  0  0  0  0  0  0
   -2.0920   19.7480  -26.6740 C   0  0  0  0  0  0  0  0  0  0  0  0
   -1.1420   18.9620  -27.3330 C   0  0  0  0  0  0  0  0  0  0  0  0
   -0.4900   19.4540  -28.4660 C   0  0  0  0  0  0  0  0  0  0  0  0
   -0.7870   20.7350  -28.9460 C   0  0  0  0  0  0  0  0  0  0  0  0
   -0.1310   21.2060  -30.0370 F   0  0  0  0  0  0  0  0  0  0  0  0
   -6.0335   22.8843  -29.1715 H   0  0  0  0  0  0  0  0  0  0  0  0
   -5.6901   23.7186  -30.7248 H   0  0  0  0  0  0  0  0  0  0  0  0
   -6.2140   22.0004  -30.7248 H   0  0  0  0  0  0  0  0  0  0  0  0
   -3.8890   26.4160  -30.4240 H   0  0  0  0  0  0  0  0  0  0  0  0
   -0.9033   24.0341  -25.5352 H   0  0  0  0  0  0  0  0  0  0  0  0
    1.1622   24.1613  -23.9023 H   0  0  0  0  0  0  0  0  0  0  0  0
    2.5554   23.2590  -24.5888 H   0  0  0  0  0  0  0  0  0  0  0  0
    2.5609   25.0552  -24.5888 H   0  0  0  0  0  0  0  0  0  0  0  0
   -3.1384   21.6453  -26.6276 H   0  0  0  0  0  0  0  0  0  0  0  0
   -2.6036   19.3590  -25.7813 H   0  0  0  0  0  0  0  0  0  0  0  0
   -0.9077   17.9546  -26.9586 H   0  0  0  0  0  0  0  0  0  0  0  0
    0.2580   18.8340  -28.9819 H   0  0  0  0  0  0  0  0  0  0  0  0
  1  2  1  0
  2  3  2  0
  2  4  1  0
  4  5  1  0
  5  6  1  0
  5  7  2  0
  7  8  1  0
  7  9  1  0
  9 10  1  0
 10 11  1  0
 11 12  2  0
 12 13  1  0
 12 14  1  0
 14 15  1  0
  9 16  1  0
 16 17  1  0
 17 18  2  0
 18 19  1  0
 19 20  2  0
 20 21  1  0
 21 22  2  0
 22 23  1  0
 16  4  2  0
 22 17  1  0
 15 10  2  0
  1 24  1  0
  1 25  1  0
  1 26  1  0
  6 27  1  0
 11 28  1  0
 13 29  1  0
 13 30  1  0
 13 31  1  0
 18 32  1  0
 19 33  1  0
 20 34  1  0
 21 35  1  0
M  CHG  1   8  -1
M  END
>  <UniqueID>  (42) 
38

>  <SMILES>  (42) 
CC(=O)c1c(O)c([O-])n(-c2cc(C)on2)c1-c1ccccc1F

>  <Energy>  (42) 
105.08799399793827

>  <Genealogy>  (42) 
CC(=O)c1c(O)c([O-])n(-c2cc(C)on2)c1-c1ccccc1F (protonated)
CC(=O)c1c(O)c([O-])n(-c2cc(C)on2)c1-c1ccccc1F (3D coordinates assigned)
CC(=O)c1c(O)c([O-])n(-c2cc(C)on2)c1-c1ccccc1F (optimized conformer: 105.08799399793827 kcal/mol)

>  <smiles>  (42) 
CC(=O)c1c(O)c(O)n(-c2cc(C)on2)c1-c1ccccc1F

>  <score_type>  (42) 
oracle

>  <origin>  (42) 
adgpu

>  <m_score__min__energy>  (42) 
-10.67

>  <m_primary>  (42) 
energy

$$$$
42:0
     RDKit          3D

 29 31  0  0  0  0  0  0  0  0999 V2000
   -5.8960   24.3980  -31.5680 O   0  0  0  0  0  0  0  0  0  0  0  0
   -5.9530   23.1700  -31.8400 C   0  0  0  0  0  0  0  0  0  0  0  0
   -7.1760   22.3820  -31.9530 C   0  0  0  0  0  0  0  0  0  0  0  0
   -8.5130   22.7510  -31.8120 C   0  0  0  0  0  0  0  0  0  0  0  0
   -9.4920   21.7530  -31.9670 C   0  0  0  0  0  0  0  0  0  0  0  0
   -9.1190   20.4220  -32.2520 C   0  0  0  0  0  0  0  0  0  0  0  0
   -7.7630   20.0750  -32.3860 C   0  0  0  0  0  0  0  0  0  0  0  0
   -6.8110   21.0830  -32.2310 C   0  0  0  0  0  0  0  0  0  0  0  0
   -5.3550   21.0370  -32.2970 C   0  0  0  0  0  0  0  0  0  0  0  0
   -4.6640   20.0050  -32.5070 O   0  0  0  0  0  0  0  0  0  0  0  0
   -4.8120   22.3410  -32.0740 N   0  0  0  0  0  0  0  0  0  0  0  0
   -3.4240   22.6580  -31.7430 C   0  0  0  0  0  0  0  0  0  0  0  0
   -3.2740   22.8540  -30.2570 C   0  0  0  0  0  0  0  0  0  0  0  0
   -3.1260   21.7370  -29.4160 C   0  0  0  0  0  0  0  0  0  0  0  0
   -3.0250   21.9030  -28.0320 C   0  0  0  0  0  0  0  0  0  0  0  0
   -3.0760   23.1830  -27.4740 C   0  0  0  0  0  0  0  0  0  0  0  0
   -3.2300   24.2990  -28.3010 C   0  0  0  0  0  0  0  0  0  0  0  0
   -3.3330   24.1400  -29.6870 C   0  0  0  0  0  0  0  0  0  0  0  0
   -3.4830   25.2390  -30.4680 F   0  0  0  0  0  0  0  0  0  0  0  0
   -8.7936   23.7904  -31.5865 H   0  0  0  0  0  0  0  0  0  0  0  0
  -10.5563   22.0118  -31.8653 H   0  0  0  0  0  0  0  0  0  0  0  0
   -9.8944   19.6508  -32.3701 H   0  0  0  0  0  0  0  0  0  0  0  0
   -7.4619   19.0402  -32.6064 H   0  0  0  0  0  0  0  0  0  0  0  0
   -2.7753   21.8310  -32.0675 H   0  0  0  0  0  0  0  0  0  0  0  0
   -3.1358   23.5864  -32.2578 H   0  0  0  0  0  0  0  0  0  0  0  0
   -3.0895   20.7268  -29.8498 H   0  0  0  0  0  0  0  0  0  0  0  0
   -2.9052   21.0245  -27.3809 H   0  0  0  0  0  0  0  0  0  0  0  0
   -2.9950   23.3122  -26.3846 H   0  0  0  0  0  0  0  0  0  0  0  0
   -3.2704   25.3061  -27.8605 H   0  0  0  0  0  0  0  0  0  0  0  0
  1  2  2  0
  2  3  1  0
  3  4  2  0
  4  5  1  0
  5  6  2  0
  6  7  1  0
  7  8  2  0
  8  9  1  0
  9 10  2  0
  9 11  1  0
 11 12  1  0
 12 13  1  0
 13 14  2  0
 14 15  1  0
 15 16  2  0
 16 17  1  0
 17 18  2  0
 18 19  1  0
 11  2  1  0
 18 13  1  0
  8  3  1  0
  4 20  1  0
  5 21  1  0
  6 22  1  0
  7 23  1  0
 12 24  1  0
 12 25  1  0
 14 26  1  0
 15 27  1  0
 16 28  1  0
 17 29  1  0
M  END
>  <UniqueID>  (43) 
39

>  <SMILES>  (43) 
O=C1c2ccccc2C(=O)N1Cc1ccccc1F

>  <Energy>  (43) 
62.54288306061029

>  <Genealogy>  (43) 
O=C1c2ccccc2C(=O)N1Cc1ccccc1F (3D coordinates assigned)
O=C1c2ccccc2C(=O)N1Cc1ccccc1F (nonaromatic ring conformer: 62.54288306061029 kcal/mol)

>  <smiles>  (43) 
O=C1c2ccccc2C(=O)N1Cc1ccccc1F

>  <score_type>  (43) 
oracle

>  <origin>  (43) 
adgpu

>  <m_score__min__energy>  (43) 
-7.1799999999999997

>  <m_primary>  (43) 
energy

$$$$
43:0
     RDKit          3D

 29 30  0  0  0  0  0  0  0  0999 V2000
   -2.6030   23.0370  -27.1620 C   0  0  0  0  0  0  0  0  0  0  0  0
   -3.3710   23.5260  -28.3410 C   0  0  0  0  0  0  0  0  0  0  0  0
   -4.6180   23.0280  -28.6590 C   0  0  0  0  0  0  0  0  0  0  0  0
   -5.3230   23.4700  -29.7340 N   0  0  0  0  0  0  0  0  0  0  0  0
   -6.6230   22.9570  -30.0710 C   0  0  0  0  0  0  0  0  0  0  0  0
   -6.5840   21.9740  -31.1600 C   0  0  0  0  0  0  0  0  0  0  0  0
   -7.7500   21.3880  -31.6040 C   0  0  0  0  0  0  0  0  0  0  0  0
   -7.8100   20.4630  -32.6130 C   0  0  0  0  0  0  0  0  0  0  0  0
   -6.6170   20.0930  -33.2290 C   0  0  0  0  0  0  0  0  0  0  0  0
   -5.4260   20.6720  -32.8000 C   0  0  0  0  0  0  0  0  0  0  0  0
   -5.4160   21.6090  -31.7680 C   0  0  0  0  0  0  0  0  0  0  0  0
   -2.7920   24.4990  -29.1110 C   0  0  0  0  0  0  0  0  0  0  0  0
   -5.3070   24.8950  -31.4820 O   0  0  0  0  0  0  0  0  0  0  0  0
   -3.5120   24.9310  -30.1830 N   0  0  0  0  0  0  0  0  0  0  0  0
   -4.7220   24.4280  -30.4670 C   0  0  0  0  0  0  0  0  0  0  0  0
   -1.6540   25.0260  -28.9110 N   0  0  0  0  0  0  0  0  0  0  0  0
   -3.1064   23.3575  -26.2379 H   0  0  0  0  0  0  0  0  0  0  0  0
   -2.5501   21.9386  -27.1887 H   0  0  0  0  0  0  0  0  0  0  0  0
   -1.5854   23.4538  -27.1887 H   0  0  0  0  0  0  0  0  0  0  0  0
   -5.0566   22.2467  -28.0209 H   0  0  0  0  0  0  0  0  0  0  0  0
   -7.0527   22.4766  -29.1796 H   0  0  0  0  0  0  0  0  0  0  0  0
   -7.2341   23.8051  -30.4134 H   0  0  0  0  0  0  0  0  0  0  0  0
   -8.6919   21.6816  -31.1175 H   0  0  0  0  0  0  0  0  0  0  0  0
   -8.7698   20.0265  -32.9265 H   0  0  0  0  0  0  0  0  0  0  0  0
   -6.6159   19.3535  -34.0433 H   0  0  0  0  0  0  0  0  0  0  0  0
   -4.4795   20.3861  -33.2821 H   0  0  0  0  0  0  0  0  0  0  0  0
   -4.4651   22.0558  -31.4421 H   0  0  0  0  0  0  0  0  0  0  0  0
   -3.0970   25.6780  -30.7950 H   0  0  0  0  0  0  0  0  0  0  0  0
   -0.9920   24.8190  -28.1590 H   0  0  0  0  0  0  0  0  0  0  0  0
  1  2  1  0
  2  3  2  0
  3  4  1  0
  4  5  1  0
  5  6  1  0
  6  7  2  0
  7  8  1  0
  8  9  2  0
  9 10  1  0
 10 11  2  0
  4 12  1  0
 12 13  2  0
 12 14  1  0
 14 15  1  0
 15 16  2  3
 15  2  1  0
 11  6  1  0
  1 17  1  0
  1 18  1  0
  1 19  1  0
  3 20  1  0
  5 21  1  0
  5 22  1  0
  7 23  1  0
  8 24  1  0
  9 25  1  0
 10 26  1  0
 11 27  1  0
 14 28  1  0
 16 29  1  0
M  END
>  <smiles>  (44) 
Cc1cn(Cc2ccccc2)c(=O)[nH]c1=N

>  <score_type>  (44) 
oracle

>  <origin>  (44) 
adgpu

>  <m_score__min__energy>  (44) 
-6.9199999999999999

>  <m_primary>  (44) 
energy

$$$$
44:0
     RDKit          3D

 50 53  0  0  0  0  0  0  0  0999 V2000
    5.1240   24.3210  -27.2960 C   0  0  0  0  0  0  0  0  0  0  0  0
    4.1160   23.8000  -26.4360 O   0  0  0  0  0  0  0  0  0  0  0  0
    2.8800   24.4190  -26.1860 C   0  0  0  0  0  0  0  0  0  0  0  0
    1.7560   24.1800  -26.9960 C   0  0  0  0  0  0  0  0  0  0  0  0
    0.5320   24.8070  -26.7270 C   0  0  0  0  0  0  0  0  0  0  0  0
   -0.6480   24.5530  -27.5910 C   0  0  0  0  0  0  0  0  0  0  0  0
   -0.4860   24.0450  -28.8910 C   0  0  0  0  0  0  0  0  0  0  0  0
   -1.5960   23.8090  -29.7070 C   0  0  0  0  0  0  0  0  0  0  0  0
   -2.8970   24.0730  -29.2400 C   0  0  0  0  0  0  0  0  0  0  0  0
   -4.0530   23.8340  -30.0680 N   0  0  0  0  0  0  0  0  0  0  0  0
   -4.8290   22.7340  -30.1090 C   0  0  0  0  0  0  0  0  0  0  0  0
   -5.7960   22.9710  -31.0700 C   0  0  0  0  0  0  0  0  0  0  0  0
   -6.8810   22.0640  -31.5120 C   0  0  0  0  0  0  0  0  0  0  0  0
   -8.2310   22.3410  -31.2170 C   0  0  0  0  0  0  0  0  0  0  0  0
   -9.2400   21.4660  -31.6330 C   0  0  0  0  0  0  0  0  0  0  0  0
   -8.9170   20.3090  -32.3440 C   0  0  0  0  0  0  0  0  0  0  0  0
   -7.5840   20.0250  -32.6440 C   0  0  0  0  0  0  0  0  0  0  0  0
   -6.5700   20.8950  -32.2320 C   0  0  0  0  0  0  0  0  0  0  0  0
   -5.5770   24.1980  -31.5820 N   0  0  0  0  0  0  0  0  0  0  0  0
   -4.5180   24.6960  -30.9610 N   0  0  0  0  0  0  0  0  0  0  0  0
   -3.0570   24.5740  -27.9360 C   0  0  0  0  0  0  0  0  0  0  0  0
   -1.9470   24.8140  -27.1220 C   0  0  0  0  0  0  0  0  0  0  0  0
    0.4390   25.6790  -25.6340 C   0  0  0  0  0  0  0  0  0  0  0  0
    1.5530   25.9360  -24.8090 C   0  0  0  0  0  0  0  0  0  0  0  0
    1.4520   26.8140  -23.7180 O   0  0  0  0  0  0  0  0  0  0  0  0
    0.2360   27.1930  -23.0820 C   0  0  0  0  0  0  0  0  0  0  0  0
    2.7860   25.2950  -25.0930 C   0  0  0  0  0  0  0  0  0  0  0  0
    3.9570   25.4850  -24.3340 O   0  0  0  0  0  0  0  0  0  0  0  0
    4.0770   25.3940  -22.9200 C   0  0  0  0  0  0  0  0  0  0  0  0
    5.9401   24.7428  -26.6910 H   0  0  0  0  0  0  0  0  0  0  0  0
    5.5177   23.5135  -27.9307 H   0  0  0  0  0  0  0  0  0  0  0  0
    4.6930   25.1092  -27.9307 H   0  0  0  0  0  0  0  0  0  0  0  0
    1.8384   23.4928  -27.8509 H   0  0  0  0  0  0  0  0  0  0  0  0
    0.5241   23.8310  -29.2702 H   0  0  0  0  0  0  0  0  0  0  0  0
   -1.4513   23.4134  -30.7232 H   0  0  0  0  0  0  0  0  0  0  0  0
   -4.7163   21.8258  -29.4986 H   0  0  0  0  0  0  0  0  0  0  0  0
   -8.4927   23.2505  -30.6564 H   0  0  0  0  0  0  0  0  0  0  0  0
  -10.2912   21.6904  -31.3991 H   0  0  0  0  0  0  0  0  0  0  0  0
   -9.7125   19.6217  -32.6676 H   0  0  0  0  0  0  0  0  0  0  0  0
   -7.3304   19.1142  -33.2062 H   0  0  0  0  0  0  0  0  0  0  0  0
   -5.5216   20.6643  -32.4722 H   0  0  0  0  0  0  0  0  0  0  0  0
   -4.0673   24.7793  -27.5524 H   0  0  0  0  0  0  0  0  0  0  0  0
   -2.0909   25.2104  -26.1060 H   0  0  0  0  0  0  0  0  0  0  0  0
   -0.5200   26.1716  -25.4159 H   0  0  0  0  0  0  0  0  0  0  0  0
    0.3651   27.1528  -21.9903 H   0  0  0  0  0  0  0  0  0  0  0  0
   -0.0311   28.2170  -23.3821 H   0  0  0  0  0  0  0  0  0  0  0  0
   -0.5656   26.5021  -23.3821 H   0  0  0  0  0  0  0  0  0  0  0  0
    3.2862   25.9937  -22.4456 H   0  0  0  0  0  0  0  0  0  0  0  0
    3.9761   24.3433  -22.6103 H   0  0  0  0  0  0  0  0  0  0  0  0
    5.0615   25.7746  -22.6103 H   0  0  0  0  0  0  0  0  0  0  0  0
  1  2  1  0
  2  3  1  0
  3  4  2  0
  4  5  1  0
  5  6  1  0
  6  7  2  0
  7  8  1  0
  8  9  2  0
  9 10  1  0
 10 11  1  0
 11 12  2  0
 12 13  1  0
 13 14  2  0
 14 15  1  0
 15 16  2  0
 16 17  1  0
 17 18  2  0
 12 19  1  0
 19 20  2  0
  9 21  1  0
 21 22  2  0
  5 23  2  0
 23 24  1  0
 24 25  1  0
 25 26  1  0
 24 27  2  0
 27 28  1  0
 28 29  1  0
 27  3  1  0
 22  6  1  0
 20 10  1  0
 18 13  1  0
  1 30  1  0
  1 31  1  0
  1 32  1  0
  4 33  1  0
  7 34  1  0
  8 35  1  0
 11 36  1  0
 14 37  1  0
 15 38  1  0
 16 39  1  0
 17 40  1  0
 18 41  1  0
 21 42  1  0
 22 43  1  0
 23 44  1  0
 26 45  1  0
 26 46  1  0
 26 47  1  0
 29 48  1  0
 29 49  1  0
 29 50  1  0
M  END
>  <UniqueID>  (45) 
40

>  <SMILES>  (45) 
COc1cc(-c2ccc(-n3cc(-c4ccccc4)nn3)cc2)cc(OC)c1OC

>  <Energy>  (45) 
100.09770490232098

>  <Genealogy>  (45) 
COc1cc(-c2ccc(-n3cc(-c4ccccc4)nn3)cc2)cc(OC)c1OC (3D coordinates assigned)
COc1cc(-c2ccc(-n3cc(-c4ccccc4)nn3)cc2)cc(OC)c1OC (optimized conformer: 100.09770490232098 kcal/mol)

>  <smiles>  (45) 
COc1cc(-c2ccc(-n3cc(-c4ccccc4)nn3)cc2)cc(OC)c1OC

>  <score_type>  (45) 
oracle

>  <origin>  (45) 
adgpu

>  <m_score__min__energy>  (45) 
-8

>  <m_primary>  (45) 
energy

$$$$
45:0
     RDKit          3D

 47 48  0  0  0  0  0  0  0  0999 V2000
   -4.2160   24.1750  -27.4980 C   0  0  0  0  0  0  0  0  0  0  0  0
   -3.1720   23.2000  -28.0310 C   0  0  0  0  0  0  0  0  0  0  0  0
   -3.0590   23.3050  -29.4510 O   0  0  0  0  0  0  0  0  0  0  0  0
   -3.8870   22.6630  -30.3900 C   0  0  0  0  0  0  0  0  0  0  0  0
   -3.9410   21.2620  -30.5140 C   0  0  0  0  0  0  0  0  0  0  0  0
   -4.7830   20.6680  -31.4550 C   0  0  0  0  0  0  0  0  0  0  0  0
   -5.5730   21.4600  -32.2960 C   0  0  0  0  0  0  0  0  0  0  0  0
   -6.5320   20.8150  -33.2610 C   0  0  0  0  0  0  0  0  0  0  0  0
   -7.1080   19.6080  -32.6640 N   0  0  0  0  0  0  0  0  0  0  0  0
   -6.4660   18.3350  -32.8550 C   0  0  0  0  0  0  0  0  0  0  0  0
   -6.1340   17.5350  -31.7500 C   0  0  0  0  0  0  0  0  0  0  0  0
   -5.4730   16.3170  -31.9350 C   0  0  0  0  0  0  0  0  0  0  0  0
   -5.1370   15.8910  -33.2230 C   0  0  0  0  0  0  0  0  0  0  0  0
   -4.4950   14.7100  -33.4010 F   0  0  0  0  0  0  0  0  0  0  0  0
   -5.4610   16.6850  -34.3280 C   0  0  0  0  0  0  0  0  0  0  0  0
   -6.1230   17.9030  -34.1460 C   0  0  0  0  0  0  0  0  0  0  0  0
   -8.6590   19.6870  -31.8790 S   0  0  0  0  0  0  0  0  0  0  0  0
   -8.8620   21.2580  -31.0650 C   0  0  0  0  0  0  0  0  0  0  0  0
   -9.7530   19.5460  -32.8990 O   0  0  0  0  0  0  0  0  0  0  0  0
   -8.7710   18.5790  -30.8710 O   0  0  0  0  0  0  0  0  0  0  0  0
   -5.5340   22.8560  -32.1680 C   0  0  0  0  0  0  0  0  0  0  0  0
   -4.6920   23.4650  -31.2160 C   0  0  0  0  0  0  0  0  0  0  0  0
   -4.6320   24.8600  -31.0480 O   0  0  0  0  0  0  0  0  0  0  0  0
   -5.6340   25.6710  -30.4370 C   0  0  0  0  0  0  0  0  0  0  0  0
   -6.7600   24.8100  -29.8760 C   0  0  0  0  0  0  0  0  0  0  0  0
   -4.2021   24.1620  -26.3982 H   0  0  0  0  0  0  0  0  0  0  0  0
   -3.9865   25.1896  -27.8556 H   0  0  0  0  0  0  0  0  0  0  0  0
   -5.2126   23.8768  -27.8556 H   0  0  0  0  0  0  0  0  0  0  0  0
   -2.1981   23.4288  -27.5737 H   0  0  0  0  0  0  0  0  0  0  0  0
   -3.4831   22.1760  -27.7765 H   0  0  0  0  0  0  0  0  0  0  0  0
   -3.3155   20.6314  -29.8651 H   0  0  0  0  0  0  0  0  0  0  0  0
   -4.8260   19.5718  -31.5362 H   0  0  0  0  0  0  0  0  0  0  0  0
   -7.3387   21.5233  -33.5009 H   0  0  0  0  0  0  0  0  0  0  0  0
   -5.9909   20.5408  -34.1786 H   0  0  0  0  0  0  0  0  0  0  0  0
   -6.3950   17.8679  -30.7346 H   0  0  0  0  0  0  0  0  0  0  0  0
   -5.2171   15.6933  -31.0658 H   0  0  0  0  0  0  0  0  0  0  0  0
   -5.1946   16.3507  -35.3416 H   0  0  0  0  0  0  0  0  0  0  0  0
   -6.3759   18.5249  -35.0173 H   0  0  0  0  0  0  0  0  0  0  0  0
   -8.8430   21.1113  -29.9750 H   0  0  0  0  0  0  0  0  0  0  0  0
   -8.0434   21.9316  -31.3586 H   0  0  0  0  0  0  0  0  0  0  0  0
   -9.8249   21.7014  -31.3586 H   0  0  0  0  0  0  0  0  0  0  0  0
   -6.1660   23.4809  -32.8161 H   0  0  0  0  0  0  0  0  0  0  0  0
   -5.1803   26.2493  -29.6186 H   0  0  0  0  0  0  0  0  0  0  0  0
   -6.0525   26.3468  -31.1974 H   0  0  0  0  0  0  0  0  0  0  0  0
   -6.7277   24.8347  -28.7768 H   0  0  0  0  0  0  0  0  0  0  0  0
   -7.7280   25.2005  -30.2232 H   0  0  0  0  0  0  0  0  0  0  0  0
   -6.6369   23.7735  -30.2232 H   0  0  0  0  0  0  0  0  0  0  0  0
  1  2  1  0
  2  3  1  0
  3  4  1  0
  4  5  2  0
  5  6  1  0
  6  7  2  0
  7  8  1  0
  8  9  1  0
  9 10  1  0
 10 11  2  0
 11 12  1  0
 12 13  2  0
 13 14  1  0
 13 15  1  0
 15 16  2  0
  9 17  1  0
 17 18  1  0
 17 19  2  0
 17 20  2  0
  7 21  1  0
 21 22  2  0
 22 23  1  0
 23 24  1  0
 24 25  1  0
 22  4  1  0
 16 10  1  0
  1 26  1  0
  1 27  1  0
  1 28  1  0
  2 29  1  0
  2 30  1  0
  5 31  1  0
  6 32  1  0
  8 33  1  0
  8 34  1  0
 11 35  1  0
 12 36  1  0
 15 37  1  0
 16 38  1  0
 18 39  1  0
 18 40  1  0
 18 41  1  0
 21 42  1  0
 24 43  1  0
 24 44  1  0
 25 45  1  0
 25 46  1  0
 25 47  1  0
M  END
>  <UniqueID>  (46) 
41

>  <SMILES>  (46) 
CCOc1ccc(CN(c2ccc(F)cc2)S(C)(=O)=O)cc1OCC

>  <Energy>  (46) 
41.47324447146948

>  <Genealogy>  (46) 
CCOc1ccc(CN(c2ccc(F)cc2)S(C)(=O)=O)cc1OCC (3D coordinates assigned)
CCOc1ccc(CN(c2ccc(F)cc2)S(C)(=O)=O)cc1OCC (optimized conformer: 41.47324447146948 kcal/mol)

>  <smiles>  (46) 
CCOc1ccc(CN(c2ccc(F)cc2)S(C)(=O)=O)cc1OCC

>  <score_type>  (46) 
oracle

>  <origin>  (46) 
adgpu

>  <m_score__min__energy>  (46) 
-8.5999999999999996

>  <m_primary>  (46) 
energy

$$$$
46:0
     RDKit          3D

 39 41  0  0  1  0  0  0  0  0999 V2000
   -5.1380   25.0510  -30.4510 C   0  0  0  0  0  0  0  0  0  0  0  0
   -4.6880   24.1410  -31.4320 O   0  0  0  0  0  0  0  0  0  0  0  0
   -5.5220   23.0800  -31.7440 C   0  0  0  0  0  0  0  0  0  0  0  0
   -6.8680   23.2550  -31.5430 C   0  0  0  0  0  0  0  0  0  0  0  0
   -7.6940   22.2030  -31.8520 C   0  0  0  0  0  0  0  0  0  0  0  0
   -9.0110   22.3670  -31.6570 N   0  0  0  0  0  0  0  0  0  0  0  0
   -9.8600   21.3680  -31.9430 C   0  0  0  0  0  0  0  0  0  0  0  0
   -9.3380   20.2320  -32.4180 N   0  0  0  0  0  0  0  0  0  0  0  0
   -8.0300   20.0330  -32.6240 C   0  0  0  0  0  0  0  0  0  0  0  0
   -7.6310   18.9560  -33.0630 N   0  0  0  0  0  0  0  0  0  0  0  0
   -6.4170   18.4190  -33.3840 C   0  0  0  0  0  0  0  0  0  0  0  0
   -5.7710   17.6050  -32.4270 C   0  0  0  0  0  0  0  0  0  0  0  0
   -4.5980   16.9480  -32.7310 C   0  0  0  0  0  0  0  0  0  0  0  0
   -4.0240   17.0720  -33.9960 C   0  0  0  0  0  0  0  0  0  0  0  0
   -2.7570   16.3660  -34.3410 C   0  0  0  0  0  0  0  0  0  0  0  0
   -2.8520   15.7720  -35.5870 F   0  0  0  0  0  0  0  0  0  0  0  0
   -1.7390   17.2970  -34.3220 F   0  0  0  0  0  0  0  0  0  0  0  0
   -2.4310   15.3980  -33.3870 F   0  0  0  0  0  0  0  0  0  0  0  0
   -4.6600   17.8640  -34.9200 C   0  0  0  0  0  0  0  0  0  0  0  0
   -5.8330   18.5450  -34.6720 C   0  0  0  0  0  0  0  0  0  0  0  0
   -7.1320   21.0350  -32.3420 C   0  0  0  0  0  0  0  0  0  0  0  0
   -5.7890   20.8860  -32.5330 C   0  0  0  0  0  0  0  0  0  0  0  0
   -4.9260   21.9550  -32.2220 C   0  0  0  0  0  0  0  0  0  0  0  0
   -3.5670   21.8850  -32.3860 O   0  0  0  0  0  0  0  0  0  0  0  0
   -2.8630   21.0100  -33.2010 C   0  0  0  0  0  0  0  0  0  0  0  0
   -4.9354   24.6414  -29.4504 H   0  0  0  0  0  0  0  0  0  0  0  0
   -4.6095   26.0085  -30.5691 H   0  0  0  0  0  0  0  0  0  0  0  0
   -6.2197   25.2122  -30.5691 H   0  0  0  0  0  0  0  0  0  0  0  0
   -7.2693   24.2007  -31.1499 H   0  0  0  0  0  0  0  0  0  0  0  0
   -9.4180   23.2670  -31.2820 H   0  0  0  0  0  0  0  0  0  0  0  0
  -10.9440   21.4792  -31.7925 H   0  0  0  0  0  0  0  0  0  0  0  0
   -6.2104   17.4939  -31.4247 H   0  0  0  0  0  0  0  0  0  0  0  0
   -4.1108   16.3209  -31.9698 H   0  0  0  0  0  0  0  0  0  0  0  0
   -4.2067   17.9610  -35.9175 H   0  0  0  0  0  0  0  0  0  0  0  0
   -6.3021   19.1671  -35.4485 H   0  0  0  0  0  0  0  0  0  0  0  0
   -5.3847   19.9413  -32.9256 H   0  0  0  0  0  0  0  0  0  0  0  0
   -2.2951   20.3042  -32.5770 H   0  0  0  0  0  0  0  0  0  0  0  0
   -3.5677   20.4531  -33.8360 H   0  0  0  0  0  0  0  0  0  0  0  0
   -2.1681   21.5791  -33.8360 H   0  0  0  0  0  0  0  0  0  0  0  0
  1  2  1  0
  2  3  1  0
  3  4  2  0
  4  5  1  0
  5  6  1  0
  6  7  1  0
  7  8  2  0
  8  9  1  0
  9 10  2  0
 10 11  1  0
 11 12  2  0
 12 13  1  0
 13 14  2  0
 14 15  1  0
 15 16  1  0
 15 17  1  0
 15 18  1  0
 14 19  1  0
 19 20  2  0
  9 21  1  0
 21 22  1  0
 22 23  2  0
 23 24  1  0
 24 25  1  0
 23  3  1  0
 21  5  2  0
 20 11  1  0
  1 26  1  0
  1 27  1  0
  1 28  1  0
  4 29  1  0
  6 30  1  0
  7 31  1  0
 12 32  1  0
 13 33  1  0
 19 34  1  0
 20 35  1  0
 22 36  1  0
 25 37  1  0
 25 38  1  0
 25 39  1  0
M  END
>  <smiles>  (47) 
COc1cc2[nH]cnc(=Nc3ccc(C(F)(F)F)cc3)c2cc1OC

>  <score_type>  (47) 
oracle

>  <origin>  (47) 
adgpu

>  <m_score__min__energy>  (47) 
-7.2000000000000002

>  <m_primary>  (47) 
energy

$$$$
