0:0
     RDKit          3D

 43 45  0  0  0  0  0  0  0  0999 V2000
   -0.8830   22.2150  -26.3660 C   0  0  0  0  0  0  0  0  0  0  0  0
   -1.5840   23.0220  -27.4230 C   0  0  0  0  0  0  0  0  0  0  0  0
   -1.2290   24.3610  -27.6330 C   0  0  0  0  0  0  0  0  0  0  0  0
   -1.8580   25.1130  -28.6310 C   0  0  0  0  0  0  0  0  0  0  0  0
   -1.5120   26.4490  -28.8300 O   0  0  0  0  0  0  0  0  0  0  0  0
   -2.8400   24.5260  -29.4360 C   0  0  0  0  0  0  0  0  0  0  0  0
   -3.4650   25.2960  -30.4110 O   0  0  0  0  0  0  0  0  0  0  0  0
   -3.1900   23.1710  -29.2610 C   0  0  0  0  0  0  0  0  0  0  0  0
   -4.2380   22.5380  -30.1520 C   0  0  0  0  0  0  0  0  0  0  0  0
   -3.6170   21.8930  -31.3730 C   0  0  0  0  0  0  0  0  0  0  0  0
   -2.2160   21.8180  -31.4810 C   0  0  0  0  0  0  0  0  0  0  0  0
   -1.6220   21.2300  -32.5970 C   0  0  0  0  0  0  0  0  0  0  0  0
   -2.4170   20.7140  -33.6200 C   0  0  0  0  0  0  0  0  0  0  0  0
   -3.8080   20.7840  -33.5310 C   0  0  0  0  0  0  0  0  0  0  0  0
   -4.4240   21.3680  -32.4060 C   0  0  0  0  0  0  0  0  0  0  0  0
   -5.8230   21.4450  -32.2820 O   0  0  0  0  0  0  0  0  0  0  0  0
   -6.6640   20.4330  -31.7300 C   0  0  0  0  0  0  0  0  0  0  0  0
   -6.3660   19.0920  -32.3470 C   0  0  0  0  0  0  0  0  0  0  0  0
   -6.4020   18.9200  -33.7410 C   0  0  0  0  0  0  0  0  0  0  0  0
   -6.1230   17.6700  -34.3040 C   0  0  0  0  0  0  0  0  0  0  0  0
   -5.8130   16.5840  -33.4810 C   0  0  0  0  0  0  0  0  0  0  0  0
   -5.7880   16.7440  -32.0940 C   0  0  0  0  0  0  0  0  0  0  0  0
   -6.0680   17.9910  -31.5280 C   0  0  0  0  0  0  0  0  0  0  0  0
   -2.5580   22.4240  -28.2430 C   0  0  0  0  0  0  0  0  0  0  0  0
   -2.8900   21.0860  -28.0440 O   0  0  0  0  0  0  0  0  0  0  0  0
   -1.1902   22.5687  -25.3707 H   0  0  0  0  0  0  0  0  0  0  0  0
   -1.1510   21.1539  -26.4769 H   0  0  0  0  0  0  0  0  0  0  0  0
    0.2051   22.3319  -26.4769 H   0  0  0  0  0  0  0  0  0  0  0  0
   -0.4505   24.8241  -27.0090 H   0  0  0  0  0  0  0  0  0  0  0  0
   -1.2520   26.8000  -29.7440 H   0  0  0  0  0  0  0  0  0  0  0  0
   -4.7775   21.7700  -29.5782 H   0  0  0  0  0  0  0  0  0  0  0  0
   -4.9231   23.3286  -30.4919 H   0  0  0  0  0  0  0  0  0  0  0  0
   -1.5843   22.2266  -30.6785 H   0  0  0  0  0  0  0  0  0  0  0  0
   -0.5259   21.1731  -32.6706 H   0  0  0  0  0  0  0  0  0  0  0  0
   -1.9464   20.2505  -34.4996 H   0  0  0  0  0  0  0  0  0  0  0  0
   -4.4281   20.3804  -34.3449 H   0  0  0  0  0  0  0  0  0  0  0  0
   -6.4942   20.3759  -30.6447 H   0  0  0  0  0  0  0  0  0  0  0  0
   -7.7118   20.6925  -31.9415 H   0  0  0  0  0  0  0  0  0  0  0  0
   -6.6504   19.7712  -34.3920 H   0  0  0  0  0  0  0  0  0  0  0  0
   -6.1477   17.5418  -35.3962 H   0  0  0  0  0  0  0  0  0  0  0  0
   -5.5887   15.6032  -33.9257 H   0  0  0  0  0  0  0  0  0  0  0  0
   -5.5478   15.8880  -31.4463 H   0  0  0  0  0  0  0  0  0  0  0  0
   -6.0548   18.1106  -30.4346 H   0  0  0  0  0  0  0  0  0  0  0  0
  1  2  1  0
  2  3  2  0
  3  4  1  0
  4  5  1  0
  4  6  2  0
  6  7  1  0
  6  8  1  0
  8  9  1  0
  9 10  1  0
 10 11  2  0
 11 12  1  0
 12 13  2  0
 13 14  1  0
 14 15  2  0
 15 16  1  0
 16 17  1  0
 17 18  1  0
 18 19  2  0
 19 20  1  0
 20 21  2  0
 21 22  1  0
 22 23  2  0
  8 24  2  0
 24 25  1  0
 24  2  1  0
 15 10  1  0
 23 18  1  0
  1 26  1  0
  1 27  1  0
  1 28  1  0
  3 29  1  0
  5 30  1  0
  9 31  1  0
  9 32  1  0
 11 33  1  0
 12 34  1  0
 13 35  1  0
 14 36  1  0
 17 37  1  0
 17 38  1  0
 19 39  1  0
 20 40  1  0
 21 41  1  0
 22 42  1  0
 23 43  1  0
M  CHG  2   7  -1  25  -1
M  END
>  <UniqueID>  (1) 
1

>  <SMILES>  (1) 
Cc1cc(O)c([O-])c(Cc2ccccc2OCc2ccccc2)c1[O-]

>  <Energy>  (1) 
44.42431848461447

>  <Genealogy>  (1) 
Cc1cc(O)c([O-])c(Cc2ccccc2OCc2ccccc2)c1[O-] (protonated)
Cc1cc(O)c([O-])c(Cc2ccccc2OCc2ccccc2)c1[O-] (3D coordinates assigned)
Cc1cc(O)c([O-])c(Cc2ccccc2OCc2ccccc2)c1[O-] (optimized conformer: 44.42431848461447 kcal/mol)

>  <smiles>  (1) 
Cc1cc(O)c(O)c(Cc2ccccc2OCc2ccccc2)c1O

>  <score_type>  (1) 
oracle

>  <origin>  (1) 
adgpu

>  <m_score__min__energy>  (1) 
-11.960000000000001

>  <m_primary>  (1) 
energy

$$$$
1:0
     RDKit          3D

 58 61  0  0  0  0  0  0  0  0999 V2000
    2.9870   17.2400  -29.4060 C   0  0  0  0  0  0  0  0  0  0  0  0
    1.9830   18.3160  -29.3160 N   0  0  0  0  0  0  0  0  0  0  0  0
    2.0760   18.9820  -28.0000 C   0  0  0  0  0  0  0  0  0  0  0  0
    1.0690   20.1300  -27.9280 C   0  0  0  0  0  0  0  0  0  0  0  0
   -0.2850   19.6520  -28.2560 N   0  0  0  0  0  0  0  0  0  0  0  0
   -1.4280   20.4540  -27.9020 C   0  0  0  0  0  0  0  0  0  0  0  0
   -2.4120   19.9100  -27.3270 O   0  0  0  0  0  0  0  0  0  0  0  0
   -1.4820   21.9000  -28.2170 C   0  0  0  0  0  0  0  0  0  0  0  0
   -0.2980   22.6510  -28.3070 C   0  0  0  0  0  0  0  0  0  0  0  0
   -0.3560   24.0230  -28.5700 C   0  0  0  0  0  0  0  0  0  0  0  0
   -1.5910   24.6620  -28.7400 C   0  0  0  0  0  0  0  0  0  0  0  0
   -1.6210   26.0300  -29.0010 O   0  0  0  0  0  0  0  0  0  0  0  0
   -2.7890   23.9250  -28.6540 C   0  0  0  0  0  0  0  0  0  0  0  0
   -4.0550   24.5930  -28.8180 N   0  0  0  0  0  0  0  0  0  0  0  0
   -5.0540   24.4200  -30.2320 S   0  0  0  0  0  0  0  0  0  0  0  0
   -6.5010   24.5060  -29.8300 O   0  0  0  0  0  0  0  0  0  0  0  0
   -4.7440   25.5400  -31.1890 O   0  0  0  0  0  0  0  0  0  0  0  0
   -4.7690   22.8620  -31.0030 C   0  0  0  0  0  0  0  0  0  0  0  0
   -3.4920   22.5240  -31.4670 C   0  0  0  0  0  0  0  0  0  0  0  0
   -3.2640   21.2730  -32.0420 C   0  0  0  0  0  0  0  0  0  0  0  0
   -4.3100   20.3430  -32.1630 C   0  0  0  0  0  0  0  0  0  0  0  0
   -5.5920   20.6700  -31.6730 C   0  0  0  0  0  0  0  0  0  0  0  0
   -5.8160   21.9380  -31.1150 C   0  0  0  0  0  0  0  0  0  0  0  0
   -6.7510   19.7180  -31.8160 C   0  0  0  0  0  0  0  0  0  0  0  0
   -6.2950   18.2900  -32.1550 C   0  0  0  0  0  0  0  0  0  0  0  0
   -5.2340   18.2660  -33.1830 N   0  0  0  0  0  0  0  0  0  0  0  0
   -5.6970   18.7680  -34.4930 C   0  0  0  0  0  0  0  0  0  0  0  0
   -4.0190   18.9710  -32.7260 C   0  0  0  0  0  0  0  0  0  0  0  0
   -2.7190   22.5460  -28.3760 C   0  0  0  0  0  0  0  0  0  0  0  0
   -0.4810   18.2570  -28.6600 C   0  0  0  0  0  0  0  0  0  0  0  0
    0.6210   17.8080  -29.6410 C   0  0  0  0  0  0  0  0  0  0  0  0
    3.2799   16.9261  -28.3932 H   0  0  0  0  0  0  0  0  0  0  0  0
    2.5584   16.3828  -29.9460 H   0  0  0  0  0  0  0  0  0  0  0  0
    3.8718   17.6083  -29.9460 H   0  0  0  0  0  0  0  0  0  0  0  0
    1.8565   18.2534  -27.2057 H   0  0  0  0  0  0  0  0  0  0  0  0
    3.0921   19.3814  -27.8662 H   0  0  0  0  0  0  0  0  0  0  0  0
    1.0685   20.5474  -26.9103 H   0  0  0  0  0  0  0  0  0  0  0  0
    1.3587   20.9025  -28.6555 H   0  0  0  0  0  0  0  0  0  0  0  0
    0.6762   22.1588  -28.1703 H   0  0  0  0  0  0  0  0  0  0  0  0
    0.5747   24.6047  -28.6439 H   0  0  0  0  0  0  0  0  0  0  0  0
   -4.3600   25.3050  -28.1190 H   0  0  0  0  0  0  0  0  0  0  0  0
   -2.6668   23.2459  -31.3781 H   0  0  0  0  0  0  0  0  0  0  0  0
   -2.2580   21.0132  -32.4031 H   0  0  0  0  0  0  0  0  0  0  0  0
   -6.8222   22.2087  -30.7626 H   0  0  0  0  0  0  0  0  0  0  0  0
   -7.3091   19.6954  -30.8684 H   0  0  0  0  0  0  0  0  0  0  0  0
   -7.3799   20.0758  -32.6445 H   0  0  0  0  0  0  0  0  0  0  0  0
   -5.9110   17.8153  -31.2400 H   0  0  0  0  0  0  0  0  0  0  0  0
   -7.1634   17.7475  -32.5569 H   0  0  0  0  0  0  0  0  0  0  0  0
   -6.4354   19.5686  -34.3387 H   0  0  0  0  0  0  0  0  0  0  0  0
   -4.8400   19.1635  -35.0578 H   0  0  0  0  0  0  0  0  0  0  0  0
   -6.1604   17.9457  -35.0578 H   0  0  0  0  0  0  0  0  0  0  0  0
   -3.5358   18.3664  -31.9443 H   0  0  0  0  0  0  0  0  0  0  0  0
   -3.3673   19.1058  -33.6018 H   0  0  0  0  0  0  0  0  0  0  0  0
   -3.6485   21.9653  -28.2819 H   0  0  0  0  0  0  0  0  0  0  0  0
   -0.4510   17.6158  -27.7667 H   0  0  0  0  0  0  0  0  0  0  0  0
   -1.4556   18.1704  -29.1627 H   0  0  0  0  0  0  0  0  0  0  0  0
    0.6551   16.7085  -29.6393 H   0  0  0  0  0  0  0  0  0  0  0  0
    0.3564   18.2291  -30.6221 H   0  0  0  0  0  0  0  0  0  0  0  0
  1  2  1  0
  2  3  1  0
  3  4  1  0
  4  5  1  0
  5  6  1  0
  6  7  2  0
  6  8  1  0
  8  9  2  0
  9 10  1  0
 10 11  2  0
 11 12  1  0
 11 13  1  0
 13 14  1  0
 14 15  1  0
 15 16  2  0
 15 17  2  0
 15 18  1  0
 18 19  2  0
 19 20  1  0
 20 21  2  0
 21 22  1  0
 22 23  2  0
 22 24  1  0
 24 25  1  0
 25 26  1  0
 26 27  1  0
 26 28  1  0
 13 29  2  0
  5 30  1  0
 30 31  1  0
 31  2  1  0
 29  8  1  0
 23 18  1  0
 28 21  1  0
  1 32  1  0
  1 33  1  0
  1 34  1  0
  3 35  1  0
  3 36  1  0
  4 37  1  0
  4 38  1  0
  9 39  1  0
 10 40  1  0
 14 41  1  0
 19 42  1  0
 20 43  1  0
 23 44  1  0
 24 45  1  0
 24 46  1  0
 25 47  1  0
 25 48  1  0
 27 49  1  0
 27 50  1  0
 27 51  1  0
 28 52  1  0
 28 53  1  0
 29 54  1  0
 30 55  1  0
 30 56  1  0
 31 57  1  0
 31 58  1  0
M  CHG  1  12  -1
M  END
>  <UniqueID>  (2) 
2

>  <SMILES>  (2) 
CN1CCN(C(=O)c2ccc([O-])c(NS(=O)(=O)c3ccc4c(c3)CCN(C)C4)c2)CC1

>  <Energy>  (2) 
76.56048680029511

>  <Genealogy>  (2) 
CN1CCN(C(=O)c2ccc([O-])c(NS(=O)(=O)c3ccc4c(c3)CCN(C)C4)c2)CC1 (protonated)
CN1CCN(C(=O)c2ccc([O-])c(NS(=O)(=O)c3ccc4c(c3)CCN(C)C4)c2)CC1 (3D coordinates assigned)
CN1CCN(C(=O)c2ccc([O-])c(NS(=O)(=O)c3ccc4c(c3)CCN(C)C4)c2)CC1 (nonaromatic ring conformer: 76.56048680029511 kcal/mol)

>  <smiles>  (2) 
CN1CCN(C(=O)c2ccc(O)c(NS(=O)(=O)c3ccc4c(c3)CCN(C)C4)c2)CC1

>  <score_type>  (2) 
oracle

>  <origin>  (2) 
adgpu

>  <m_score__min__energy>  (2) 
-13.970000000000001

>  <m_primary>  (2) 
energy

$$$$
2:0
     RDKit          3D

 43 45  0  0  0  0  0  0  0  0999 V2000
   -0.1730   23.1430  -25.7670 C   0  0  0  0  0  0  0  0  0  0  0  0
    0.1310   22.4870  -27.0510 N   0  0  0  0  0  0  0  0  0  0  0  0
   -0.5350   21.1780  -27.1920 C   0  0  0  0  0  0  0  0  0  0  0  0
   -2.0650   21.3000  -27.2460 C   0  0  0  0  0  0  0  0  0  0  0  0
   -2.5210   22.4300  -28.1310 C   0  0  0  0  0  0  0  0  0  0  0  0
   -3.8740   22.5110  -28.4900 C   0  0  0  0  0  0  0  0  0  0  0  0
   -4.3510   23.5730  -29.2820 C   0  0  0  0  0  0  0  0  0  0  0  0
   -5.7340   23.6540  -29.6820 N   0  0  0  0  0  0  0  0  0  0  0  0
   -6.2960   23.3670  -31.2990 S   0  0  0  0  0  0  0  0  0  0  0  0
   -5.2190   23.7630  -32.2700 O   0  0  0  0  0  0  0  0  0  0  0  0
   -7.5200   24.2010  -31.5510 O   0  0  0  0  0  0  0  0  0  0  0  0
   -6.6550   21.6580  -31.5200 C   0  0  0  0  0  0  0  0  0  0  0  0
   -5.7190   20.6610  -31.7240 C   0  0  0  0  0  0  0  0  0  0  0  0
   -6.3710   19.4840  -31.8030 N   0  0  0  0  0  0  0  0  0  0  0  0
   -5.7830   18.1760  -32.0690 C   0  0  0  0  0  0  0  0  0  0  0  0
   -7.6790   19.7860  -31.6750 C   0  0  0  0  0  0  0  0  0  0  0  0
   -8.6020   18.9270  -31.7080 O   0  0  0  0  0  0  0  0  0  0  0  0
   -7.8900   21.1070  -31.5060 N   0  0  0  0  0  0  0  0  0  0  0  0
   -9.1660   21.7790  -31.2690 C   0  0  0  0  0  0  0  0  0  0  0  0
   -3.4480   24.5720  -29.6900 C   0  0  0  0  0  0  0  0  0  0  0  0
   -3.8780   25.6360  -30.4750 O   0  0  0  0  0  0  0  0  0  0  0  0
   -2.1030   24.5040  -29.3180 C   0  0  0  0  0  0  0  0  0  0  0  0
   -1.6330   23.4480  -28.5270 C   0  0  0  0  0  0  0  0  0  0  0  0
   -0.1580   23.3660  -28.2010 C   0  0  0  0  0  0  0  0  0  0  0  0
    0.1313   22.4863  -24.9387 H   0  0  0  0  0  0  0  0  0  0  0  0
    0.3763   24.0938  -25.7019 H   0  0  0  0  0  0  0  0  0  0  0  0
   -1.2535   23.3386  -25.7019 H   0  0  0  0  0  0  0  0  0  0  0  0
   -0.1859   20.7027  -28.1206 H   0  0  0  0  0  0  0  0  0  0  0  0
   -0.2785   20.5753  -26.3083 H   0  0  0  0  0  0  0  0  0  0  0  0
   -2.4808   20.3582  -27.6335 H   0  0  0  0  0  0  0  0  0  0  0  0
   -2.4205   21.5088  -26.2262 H   0  0  0  0  0  0  0  0  0  0  0  0
   -4.5730   21.7336  -28.1479 H   0  0  0  0  0  0  0  0  0  0  0  0
   -6.4540   23.9510  -28.9870 H   0  0  0  0  0  0  0  0  0  0  0  0
   -4.6315   20.8036  -31.8073 H   0  0  0  0  0  0  0  0  0  0  0  0
   -5.5576   17.6747  -31.1162 H   0  0  0  0  0  0  0  0  0  0  0  0
   -6.4931   17.5652  -32.6457 H   0  0  0  0  0  0  0  0  0  0  0  0
   -4.8548   18.3017  -32.6457 H   0  0  0  0  0  0  0  0  0  0  0  0
   -9.3373   21.8692  -30.1862 H   0  0  0  0  0  0  0  0  0  0  0  0
   -9.1420   22.7815  -31.7212 H   0  0  0  0  0  0  0  0  0  0  0  0
   -9.9790   21.1921  -31.7212 H   0  0  0  0  0  0  0  0  0  0  0  0
   -1.4061   25.2878  -29.6497 H   0  0  0  0  0  0  0  0  0  0  0  0
    0.3744   22.9774  -29.0816 H   0  0  0  0  0  0  0  0  0  0  0  0
    0.1763   24.3791  -27.9327 H   0  0  0  0  0  0  0  0  0  0  0  0
  1  2  1  0
  2  3  1  0
  3  4  1  0
  4  5  1  0
  5  6  2  0
  6  7  1  0
  7  8  1  0
  8  9  1  0
  9 10  2  0
  9 11  2  0
  9 12  1  0
 12 13  2  0
 13 14  1  0
 14 15  1  0
 14 16  1  0
 16 17  2  0
 16 18  1  0
 18 19  1  0
  7 20  2  0
 20 21  1  0
 20 22  1  0
 22 23  2  0
 23 24  1  0
 24  2  1  0
 23  5  1  0
 18 12  1  0
  1 25  1  0
  1 26  1  0
  1 27  1  0
  3 28  1  0
  3 29  1  0
  4 30  1  0
  4 31  1  0
  6 32  1  0
  8 33  1  0
 13 34  1  0
 15 35  1  0
 15 36  1  0
 15 37  1  0
 19 38  1  0
 19 39  1  0
 19 40  1  0
 22 41  1  0
 24 42  1  0
 24 43  1  0
M  CHG  1  21  -1
M  END
>  <UniqueID>  (3) 
3

>  <SMILES>  (3) 
CN1CCc2cc(NS(=O)(=O)c3cn(C)c(=O)n3C)c([O-])cc2C1

>  <Energy>  (3) 
84.30541193342572

>  <Genealogy>  (3) 
CN1CCc2cc(NS(=O)(=O)c3cn(C)c(=O)n3C)c([O-])cc2C1 (protonated)
CN1CCc2cc(NS(=O)(=O)c3cn(C)c(=O)n3C)c([O-])cc2C1 (3D coordinates assigned)
CN1CCc2cc(NS(=O)(=O)c3cn(C)c(=O)n3C)c([O-])cc2C1 (nonaromatic ring conformer: 84.30541193342572 kcal/mol)

>  <smiles>  (3) 
CN1CCc2cc(NS(=O)(=O)c3cn(C)c(=O)n3C)c(O)cc2C1

>  <score_type>  (3) 
oracle

>  <origin>  (3) 
adgpu

>  <m_score__min__energy>  (3) 
-11.08

>  <m_primary>  (3) 
energy

$$$$
3:0
     RDKit          3D

 64 68  0  0  0  0  0  0  0  0999 V2000
   -2.5654   21.6305  -32.0731 H   0  0  0  0  0  0  0  0  0  0  0  0
   -3.6000   21.2900  -32.2270 C   0  0  0  0  0  0  0  0  0  0  0  0
   -3.8380   20.0490  -32.8170 C   0  0  0  0  0  0  0  0  0  0  0  0
   -2.9860   19.4228  -33.1203 H   0  0  0  0  0  0  0  0  0  0  0  0
   -5.1530   19.5820  -33.0320 C   0  0  0  0  0  0  0  0  0  0  0  0
   -5.4040   18.2740  -33.6350 N   0  0  0  0  0  0  0  0  0  0  0  0
   -4.2830   17.5320  -34.2470 C   0  0  0  0  0  0  0  0  0  0  0  0
   -3.7825   18.1901  -34.9725 H   0  0  0  0  0  0  0  0  0  0  0  0
   -3.6088   17.2272  -33.4330 H   0  0  0  0  0  0  0  0  0  0  0  0
   -4.7270   16.2620  -34.9690 C   0  0  0  0  0  0  0  0  0  0  0  0
   -5.1678   16.5318  -35.9400 H   0  0  0  0  0  0  0  0  0  0  0  0
   -3.8527   15.6118  -35.1198 H   0  0  0  0  0  0  0  0  0  0  0  0
   -5.6840   15.5720  -34.2000 O   0  0  0  0  0  0  0  0  0  0  0  0
   -6.8850   16.3090  -34.2200 C   0  0  0  0  0  0  0  0  0  0  0  0
   -7.1667   16.5042  -35.2652 H   0  0  0  0  0  0  0  0  0  0  0  0
   -7.6594   15.7189  -33.7081 H   0  0  0  0  0  0  0  0  0  0  0  0
   -6.7380   17.6490  -33.4850 C   0  0  0  0  0  0  0  0  0  0  0  0
   -7.4927   18.3450  -33.8800 H   0  0  0  0  0  0  0  0  0  0  0  0
   -6.8739   17.4412  -32.4134 H   0  0  0  0  0  0  0  0  0  0  0  0
   -6.2200   20.4340  -32.6580 C   0  0  0  0  0  0  0  0  0  0  0  0
   -7.2561   20.1074  -32.8307 H   0  0  0  0  0  0  0  0  0  0  0  0
   -5.9820   21.6920  -32.0690 C   0  0  0  0  0  0  0  0  0  0  0  0
   -7.0300   22.5550  -31.7020 O   0  0  0  0  0  0  0  0  0  0  0  0
   -8.3710   22.1430  -31.4580 C   0  0  0  0  0  0  0  0  0  0  0  0
   -8.5464   22.0891  -30.3734 H   0  0  0  0  0  0  0  0  0  0  0  0
   -9.0650   22.8694  -31.9060 H   0  0  0  0  0  0  0  0  0  0  0  0
   -8.5375   21.1523  -31.9060 H   0  0  0  0  0  0  0  0  0  0  0  0
   -4.6670   22.1080  -31.8280 C   0  0  0  0  0  0  0  0  0  0  0  0
   -4.4410   23.4050  -31.2490 N   0  0  0  0  0  0  0  0  0  0  0  0
   -3.4530   23.7340  -30.4700 C   0  0  0  0  0  0  0  0  0  0  0  0
   -3.3010   25.0030  -30.0090 N   0  0  0  0  0  0  0  0  0  0  0  0
   -2.2140   24.8960  -29.2310 C   0  0  0  0  0  0  0  0  0  0  0  0
   -1.5910   25.9000  -28.4960 C   0  0  0  0  0  0  0  0  0  0  0  0
   -1.9691   26.9329  -28.5089 H   0  0  0  0  0  0  0  0  0  0  0  0
   -0.4610   25.5480  -27.7360 C   0  0  0  0  0  0  0  0  0  0  0  0
    0.0635   26.3178  -27.1509 H   0  0  0  0  0  0  0  0  0  0  0  0
    0.0080   24.2110  -27.7170 C   0  0  0  0  0  0  0  0  0  0  0  0
    1.4050   23.7760  -26.7350 S   0  0  0  0  0  0  0  0  0  0  0  0
    1.8270   22.3770  -27.0870 O   0  0  0  0  0  0  0  0  0  0  0  0
    2.5440   24.7000  -27.0670 O   0  0  0  0  0  0  0  0  0  0  0  0
    1.0830   23.8560  -24.9630 C   0  0  2  0  0  0  0  0  0  0  0  0
    1.1723   22.8278  -24.5825 H   0  0  0  0  0  0  0  0  0  0  0  0
   -0.3660   24.2980  -24.6420 C   0  0  0  0  0  0  0  0  0  0  0  0
   -0.9004   24.4598  -25.5897 H   0  0  0  0  0  0  0  0  0  0  0  0
   -0.8258   23.5004  -24.0400 H   0  0  0  0  0  0  0  0  0  0  0  0
   -0.4340   25.5910  -23.8160 C   0  0  0  0  0  0  0  0  0  0  0  0
   -1.4616   25.9828  -23.8400 H   0  0  0  0  0  0  0  0  0  0  0  0
   -0.1384   25.3687  -22.7800 H   0  0  0  0  0  0  0  0  0  0  0  0
    0.4850   26.6030  -24.3690 N   0  0  1  0  0  0  0  0  0  0  0  0
    0.2720   26.7210  -25.3860 H   0  0  0  0  0  0  0  0  0  0  0  0
    0.2440   27.9100  -23.7340 C   0  0  0  0  0  0  0  0  0  0  0  0
    0.2651   27.7957  -22.6402 H   0  0  0  0  0  0  0  0  0  0  0  0
    1.0267   28.6181  -24.0438 H   0  0  0  0  0  0  0  0  0  0  0  0
   -0.7398   28.2923  -24.0438 H   0  0  0  0  0  0  0  0  0  0  0  0
    1.9090   26.2070  -24.2200 C   0  0  0  0  0  0  0  0  0  0  0  0
    2.4759   26.6379  -25.0584 H   0  0  0  0  0  0  0  0  0  0  0  0
    2.2400   26.5843  -23.2412 H   0  0  0  0  0  0  0  0  0  0  0  0
    2.1470   24.6800  -24.2090 C   0  0  0  0  0  0  0  0  0  0  0  0
    3.1250   24.4824  -24.6722 H   0  0  0  0  0  0  0  0  0  0  0  0
    2.0950   24.3652  -23.1563 H   0  0  0  0  0  0  0  0  0  0  0  0
   -0.6440   23.2270  -28.4910 C   0  0  0  0  0  0  0  0  0  0  0  0
   -0.2839   22.1878  -28.5086 H   0  0  0  0  0  0  0  0  0  0  0  0
   -1.7570   23.6140  -29.2310 C   0  0  0  0  0  0  0  0  0  0  0  0
   -2.5300   22.8450  -30.0110 N   0  0  0  0  0  0  0  0  0  0  0  0
  1  2  1  0
  2  3  2  0
  3  4  1  0
  3  5  1  0
  5  6  1  0
  6  7  1  0
  7  8  1  0
  7  9  1  0
  7 10  1  0
 10 11  1  0
 10 12  1  0
 10 13  1  0
 13 14  1  0
 14 15  1  0
 14 16  1  0
 14 17  1  0
 17 18  1  0
 17 19  1  0
  5 20  2  0
 20 21  1  0
 20 22  1  0
 22 23  1  0
 23 24  1  0
 24 25  1  0
 24 26  1  0
 24 27  1  0
 22 28  2  0
 28 29  1  0
 29 30  2  0
 30 31  1  0
 31 32  1  0
 32 33  2  0
 33 34  1  0
 33 35  1  0
 35 36  1  0
 35 37  2  0
 37 38  1  0
 38 39  2  0
 38 40  2  0
 38 41  1  0
 41 42  1  1
 41 43  1  0
 43 44  1  0
 43 45  1  0
 43 46  1  0
 46 47  1  0
 46 48  1  0
 46 49  1  0
 49 50  1  6
 49 51  1  0
 51 52  1  0
 51 53  1  0
 51 54  1  0
 49 55  1  0
 55 56  1  0
 55 57  1  0
 55 58  1  0
 58 59  1  0
 58 60  1  0
 37 61  1  0
 61 62  1  0
 61 63  2  0
 63 64  1  0
 28  2  1  0
 64 30  1  0
 17  6  1  0
 63 32  1  0
 58 41  1  0
M  CHG  3  31  -1  49   1  64  -1
M  END
>  <UniqueID>  (4) 
4

>  <SMILES>  (4) 
COc1cc(N2CCOCC2)ccc1/N=c1/[n-]c2ccc(S(=O)(=O)C3CC[NH+](C)CC3)cc2[n-]1

>  <Energy>  (4) 
121.41565199349569

>  <Genealogy>  (4) 
COc1cc(N2CCOCC2)ccc1N=c1[n-]c2ccc(S(=O)(=O)C3CC[NH+](C)CC3)cc2[n-]1 (protonated)
COc1cc(N2CCOCC2)ccc1/N=c1/[n-]c2ccc(S(=O)(=O)C3CC[NH+](C)CC3)cc2[n-]1 (cis-trans isomerization)
COc1cc(N2CCOCC2)ccc1/N=c1/[n-]c2ccc(S(=O)(=O)C3CC[NH+](C)CC3)cc2[n-]1 (3D coordinates assigned)
COc1cc(N2CCOCC2)ccc1/N=c1/[n-]c2ccc(S(=O)(=O)C3CC[NH+](C)CC3)cc2[n-]1 (nonaromatic ring conformer: 121.41565199349569 kcal/mol)

>  <smiles>  (4) 
COc1cc(N2CCOCC2)ccc1N=c1[nH]c2ccc(S(=O)(=O)C3CCN(C)CC3)cc2[nH]1

>  <score_type>  (4) 
oracle

>  <origin>  (4) 
adgpu

>  <m_score__min__energy>  (4) 
-10.460000000000001

>  <m_primary>  (4) 
energy

$$$$
4:0
     RDKit          3D

 42 45  0  0  0  0  0  0  0  0999 V2000
   -5.4770   16.6800  -34.1050 O   0  0  0  0  0  0  0  0  0  0  0  0
   -5.7470   18.1570  -34.1790 S   0  0  0  0  0  0  0  0  0  0  0  0
   -5.8560   18.5380  -35.6300 O   0  0  0  0  0  0  0  0  0  0  0  0
   -4.3880   19.0270  -33.4580 C   0  0  0  0  0  0  0  0  0  0  0  0
   -4.4530   20.4150  -33.2790 C   0  0  0  0  0  0  0  0  0  0  0  0
   -3.3740   21.1050  -32.7190 C   0  0  0  0  0  0  0  0  0  0  0  0
   -2.2130   20.4150  -32.3380 C   0  0  0  0  0  0  0  0  0  0  0  0
   -1.0320   21.1590  -31.7760 C   0  0  0  0  0  0  0  0  0  0  0  0
   -1.2010   21.3910  -29.9710 S   0  0  0  0  0  0  0  0  0  0  0  0
   -2.6270   22.4660  -30.0920 C   0  0  0  0  0  0  0  0  0  0  0  0
   -3.8920   22.0270  -29.8520 N   0  0  0  0  0  0  0  0  0  0  0  0
   -4.6150   23.1410  -30.0230 C   0  0  0  0  0  0  0  0  0  0  0  0
   -5.9890   23.3120  -29.8950 C   0  0  0  0  0  0  0  0  0  0  0  0
   -6.5010   24.6020  -30.1220 C   0  0  0  0  0  0  0  0  0  0  0  0
   -5.6200   25.6560  -30.4640 C   0  0  0  0  0  0  0  0  0  0  0  0
   -4.2760   25.4290  -30.5740 N   0  0  0  0  0  0  0  0  0  0  0  0
   -3.8040   24.1780  -30.3520 C   0  0  0  0  0  0  0  0  0  0  0  0
   -2.5250   23.7850  -30.4060 N   0  0  0  0  0  0  0  0  0  0  0  0
   -2.1450   19.0260  -32.5280 C   0  0  0  0  0  0  0  0  0  0  0  0
   -3.2260   18.3370  -33.0850 C   0  0  0  0  0  0  0  0  0  0  0  0
   -7.2680   18.4960  -33.3860 N   0  0  0  0  0  0  0  0  0  0  0  0
   -7.3740   17.8260  -32.0930 C   0  0  0  0  0  0  0  0  0  0  0  0
   -8.3530   18.6450  -31.2660 C   0  0  0  0  0  0  0  0  0  0  0  0
   -8.3930   20.0140  -31.9280 C   0  0  0  0  0  0  0  0  0  0  0  0
   -7.4350   19.9200  -33.1050 C   0  0  0  0  0  0  0  0  0  0  0  0
   -5.3571   20.9642  -33.5805 H   0  0  0  0  0  0  0  0  0  0  0  0
   -3.4353   22.1940  -32.5763 H   0  0  0  0  0  0  0  0  0  0  0  0
   -0.1156   20.5860  -31.9806 H   0  0  0  0  0  0  0  0  0  0  0  0
   -0.9827   22.1490  -32.2530 H   0  0  0  0  0  0  0  0  0  0  0  0
   -6.6481   22.4730  -29.6273 H   0  0  0  0  0  0  0  0  0  0  0  0
   -7.5811   24.7911  -30.0342 H   0  0  0  0  0  0  0  0  0  0  0  0
   -6.0196   26.6652  -30.6426 H   0  0  0  0  0  0  0  0  0  0  0  0
   -1.2370   18.4773  -32.2373 H   0  0  0  0  0  0  0  0  0  0  0  0
   -3.1648   17.2485  -33.2314 H   0  0  0  0  0  0  0  0  0  0  0  0
   -7.7513   16.8012  -32.2250 H   0  0  0  0  0  0  0  0  0  0  0  0
   -6.3942   17.7556  -31.5980 H   0  0  0  0  0  0  0  0  0  0  0  0
   -9.3505   18.1814  -31.2796 H   0  0  0  0  0  0  0  0  0  0  0  0
   -8.0453   18.7088  -30.2118 H   0  0  0  0  0  0  0  0  0  0  0  0
   -9.4106   20.2433  -32.2771 H   0  0  0  0  0  0  0  0  0  0  0  0
   -8.1073   20.8149  -31.2302 H   0  0  0  0  0  0  0  0  0  0  0  0
   -7.8568   20.4341  -33.9812 H   0  0  0  0  0  0  0  0  0  0  0  0
   -6.4712   20.3975  -32.8747 H   0  0  0  0  0  0  0  0  0  0  0  0
  1  2  2  0
  2  3  2  0
  2  4  1  0
  4  5  2  0
  5  6  1  0
  6  7  2  0
  7  8  1  0
  8  9  1  0
  9 10  1  0
 10 11  2  0
 11 12  1  0
 12 13  2  0
 13 14  1  0
 14 15  2  0
 15 16  1  0
 16 17  2  0
 17 18  1  0
  7 19  1  0
 19 20  2  0
  2 21  1  0
 21 22  1  0
 22 23  1  0
 23 24  1  0
 24 25  1  0
 20  4  1  0
 25 21  1  0
 18 10  1  0
 17 12  1  0
  5 26  1  0
  6 27  1  0
  8 28  1  0
  8 29  1  0
 13 30  1  0
 14 31  1  0
 15 32  1  0
 19 33  1  0
 20 34  1  0
 22 35  1  0
 22 36  1  0
 23 37  1  0
 23 38  1  0
 24 39  1  0
 24 40  1  0
 25 41  1  0
 25 42  1  0
M  CHG  1  18  -1
M  END
>  <UniqueID>  (5) 
5

>  <SMILES>  (5) 
O=S(=O)(c1ccc(CSc2nc3cccnc3[n-]2)cc1)N1CCCC1

>  <Energy>  (5) 
78.3167568809431

>  <Genealogy>  (5) 
O=S(=O)(c1ccc(CSc2nc3cccnc3[n-]2)cc1)N1CCCC1 (protonated)
O=S(=O)(c1ccc(CSc2nc3cccnc3[n-]2)cc1)N1CCCC1 (3D coordinates assigned)
O=S(=O)(c1ccc(CSc2nc3cccnc3[n-]2)cc1)N1CCCC1 (nonaromatic ring conformer: 78.3167568809431 kcal/mol)

>  <smiles>  (5) 
O=S(=O)(c1ccc(CSc2nc3cccnc3[nH]2)cc1)N1CCCC1

>  <score_type>  (5) 
oracle

>  <origin>  (5) 
adgpu

>  <m_score__min__energy>  (5) 
-10.51

>  <m_primary>  (5) 
energy

$$$$
5:0
     RDKit          3D

 41 43  0  0  0  0  0  0  0  0999 V2000
   -5.6540   26.0700  -31.2440 O   0  0  0  0  0  0  0  0  0  0  0  0
   -5.2340   24.9500  -30.3350 S   0  0  0  0  0  0  0  0  0  0  0  0
   -5.6040   25.3090  -28.9230 O   0  0  0  0  0  0  0  0  0  0  0  0
   -3.5160   24.7430  -30.4430 N   0  0  0  0  0  0  0  0  0  0  0  0
   -2.6980   24.0740  -29.4720 C   0  0  0  0  0  0  0  0  0  0  0  0
   -2.9740   22.7610  -29.0440 C   0  0  0  0  0  0  0  0  0  0  0  0
   -2.1490   22.1380  -28.1020 C   0  0  0  0  0  0  0  0  0  0  0  0
   -2.4970   20.5010  -27.5780 Cl  0  0  0  0  0  0  0  0  0  0  0  0
   -1.0480   22.8210  -27.5760 C   0  0  0  0  0  0  0  0  0  0  0  0
   -0.7730   24.1260  -27.9900 C   0  0  0  0  0  0  0  0  0  0  0  0
   -1.5930   24.7520  -28.9340 C   0  0  0  0  0  0  0  0  0  0  0  0
   -1.3040   26.0510  -29.3390 O   0  0  0  0  0  0  0  0  0  0  0  0
   -6.0430   23.4720  -30.8450 C   0  0  0  0  0  0  0  0  0  0  0  0
   -5.3080   22.3240  -31.1700 C   0  0  0  0  0  0  0  0  0  0  0  0
   -5.9640   21.1650  -31.5930 C   0  0  0  0  0  0  0  0  0  0  0  0
   -7.3640   21.1360  -31.6800 C   0  0  0  0  0  0  0  0  0  0  0  0
   -8.1930   19.6710  -32.2180 S   0  0  0  0  0  0  0  0  0  0  0  0
   -9.3430   20.0580  -33.1050 O   0  0  0  0  0  0  0  0  0  0  0  0
   -8.7510   18.9570  -31.0180 O   0  0  0  0  0  0  0  0  0  0  0  0
   -7.1440   18.5770  -33.0890 N   0  0  0  0  0  0  0  0  0  0  0  0
   -6.2560   17.8350  -32.1950 C   0  0  0  0  0  0  0  0  0  0  0  0
   -5.0150   17.4850  -33.0050 C   0  0  0  0  0  0  0  0  0  0  0  0
   -5.0660   18.3780  -34.2350 C   0  0  0  0  0  0  0  0  0  0  0  0
   -6.2650   19.2840  -34.0160 C   0  0  0  0  0  0  0  0  0  0  0  0
   -8.0970   22.2870  -31.3610 C   0  0  0  0  0  0  0  0  0  0  0  0
   -7.4400   23.4480  -30.9430 C   0  0  0  0  0  0  0  0  0  0  0  0
   -3.8422   22.2231  -29.4524 H   0  0  0  0  0  0  0  0  0  0  0  0
   -0.3985   22.3303  -26.8361 H   0  0  0  0  0  0  0  0  0  0  0  0
    0.0913   24.6632  -27.5723 H   0  0  0  0  0  0  0  0  0  0  0  0
   -4.2108   22.3353  -31.0919 H   0  0  0  0  0  0  0  0  0  0  0  0
   -5.3802   20.2714  -31.8589 H   0  0  0  0  0  0  0  0  0  0  0  0
   -5.9817   18.4573  -31.3304 H   0  0  0  0  0  0  0  0  0  0  0  0
   -6.7472   16.9288  -31.8110 H   0  0  0  0  0  0  0  0  0  0  0  0
   -4.1052   17.6873  -32.4208 H   0  0  0  0  0  0  0  0  0  0  0  0
   -4.9922   16.4191  -33.2758 H   0  0  0  0  0  0  0  0  0  0  0  0
   -4.1438   18.9715  -34.3199 H   0  0  0  0  0  0  0  0  0  0  0  0
   -5.1534   17.7956  -35.1641 H   0  0  0  0  0  0  0  0  0  0  0  0
   -5.9447   20.2427  -33.5821 H   0  0  0  0  0  0  0  0  0  0  0  0
   -6.7773   19.5079  -34.9633 H   0  0  0  0  0  0  0  0  0  0  0  0
   -9.1941   22.2769  -31.4399 H   0  0  0  0  0  0  0  0  0  0  0  0
   -8.0225   24.3462  -30.6901 H   0  0  0  0  0  0  0  0  0  0  0  0
  1  2  2  0
  2  3  2  0
  2  4  1  0
  4  5  1  0
  5  6  2  0
  6  7  1  0
  7  8  1  0
  7  9  2  0
  9 10  1  0
 10 11  2  0
 11 12  1  0
  2 13  1  0
 13 14  2  0
 14 15  1  0
 15 16  2  0
 16 17  1  0
 17 18  2  0
 17 19  2  0
 17 20  1  0
 20 21  1  0
 21 22  1  0
 22 23  1  0
 23 24  1  0
 16 25  1  0
 25 26  2  0
 11  5  1  0
 26 13  1  0
 24 20  1  0
  6 27  1  0
  9 28  1  0
 10 29  1  0
 14 30  1  0
 15 31  1  0
 21 32  1  0
 21 33  1  0
 22 34  1  0
 22 35  1  0
 23 36  1  0
 23 37  1  0
 24 38  1  0
 24 39  1  0
 25 40  1  0
 26 41  1  0
M  CHG  2   4  -1  12  -1
M  END
>  <UniqueID>  (6) 
6

>  <SMILES>  (6) 
O=S(=O)([N-]c1cc(Cl)ccc1[O-])c1ccc(S(=O)(=O)N2CCCC2)cc1

>  <Energy>  (6) 
46.67193925189919

>  <Genealogy>  (6) 
O=S(=O)([N-]c1cc(Cl)ccc1[O-])c1ccc(S(=O)(=O)N2CCCC2)cc1 (protonated)
O=S(=O)([N-]c1cc(Cl)ccc1[O-])c1ccc(S(=O)(=O)N2CCCC2)cc1 (3D coordinates assigned)
O=S(=O)([N-]c1cc(Cl)ccc1[O-])c1ccc(S(=O)(=O)N2CCCC2)cc1 (nonaromatic ring conformer: 46.67193925189919 kcal/mol)

>  <smiles>  (6) 
O=S(=O)(Nc1cc(Cl)ccc1O)c1ccc(S(=O)(=O)N2CCCC2)cc1

>  <score_type>  (6) 
oracle

>  <origin>  (6) 
adgpu

>  <m_score__min__energy>  (6) 
-14.890000000000001

>  <m_primary>  (6) 
energy

$$$$
6:0
     RDKit          3D

 53 56  0  0  0  0  0  0  0  0999 V2000
   -4.5850   25.3480  -31.2190 O   0  0  0  0  0  0  0  0  0  0  0  0
   -5.6360   24.6590  -30.3980 S   0  0  0  0  0  0  0  0  0  0  0  0
   -6.6550   25.6740  -29.9620 O   0  0  0  0  0  0  0  0  0  0  0  0
   -4.9050   23.9370  -28.9980 N   0  0  0  0  0  0  0  0  0  0  0  0
   -3.6510   23.2390  -29.0330 C   0  0  0  0  0  0  0  0  0  0  0  0
   -3.5690   21.8710  -28.7270 C   0  0  0  0  0  0  0  0  0  0  0  0
   -2.3190   21.2440  -28.6240 C   0  0  0  0  0  0  0  0  0  0  0  0
   -1.1480   21.9710  -28.8820 C   0  0  0  0  0  0  0  0  0  0  0  0
   -1.2330   23.3160  -29.2650 C   0  0  0  0  0  0  0  0  0  0  0  0
   -2.4790   23.9500  -29.3320 C   0  0  0  0  0  0  0  0  0  0  0  0
   -2.5430   25.2960  -29.6700 O   0  0  0  0  0  0  0  0  0  0  0  0
    0.1780   21.2640  -28.7680 C   0  0  0  0  0  0  0  0  0  0  0  0
    0.2320   20.3850  -27.5030 C   0  0  0  0  0  0  0  0  0  0  0  0
   -1.0920   19.6550  -27.1560 C   0  0  0  0  0  0  0  0  0  0  0  0
   -2.1920   19.8020  -28.2210 C   0  0  0  0  0  0  0  0  0  0  0  0
   -6.4460   23.3990  -31.3280 C   0  0  0  0  0  0  0  0  0  0  0  0
   -7.8400   23.3090  -31.2940 C   0  0  0  0  0  0  0  0  0  0  0  0
   -8.4860   22.2290  -31.8940 C   0  0  0  0  0  0  0  0  0  0  0  0
   -7.7510   21.2180  -32.5260 C   0  0  0  0  0  0  0  0  0  0  0  0
   -8.4520   20.1300  -33.0460 O   0  0  0  0  0  0  0  0  0  0  0  0
   -6.3420   21.3200  -32.5980 C   0  0  0  0  0  0  0  0  0  0  0  0
   -5.3600   20.0770  -33.3860 S   0  0  0  0  0  0  0  0  0  0  0  0
   -4.0600   20.6850  -33.8380 O   0  0  0  0  0  0  0  0  0  0  0  0
   -6.1140   19.5640  -34.5820 O   0  0  0  0  0  0  0  0  0  0  0  0
   -5.0430   18.7630  -32.2690 N   0  0  0  0  0  0  0  0  0  0  0  0
   -4.7890   17.4910  -32.9780 C   0  0  0  0  0  0  0  0  0  0  0  0
   -6.0480   16.6090  -33.0870 C   0  0  0  0  0  0  0  0  0  0  0  0
   -7.2090   17.4060  -33.1230 O   0  0  0  0  0  0  0  0  0  0  0  0
   -7.4080   18.0430  -31.8720 C   0  0  0  0  0  0  0  0  0  0  0  0
   -6.1090   18.6240  -31.2640 C   0  0  0  0  0  0  0  0  0  0  0  0
   -5.7030   22.4140  -31.9950 C   0  0  0  0  0  0  0  0  0  0  0  0
   -4.4887   21.2891  -28.5675 H   0  0  0  0  0  0  0  0  0  0  0  0
   -0.3187   23.8748  -29.5135 H   0  0  0  0  0  0  0  0  0  0  0  0
    0.3232   20.6280  -29.6537 H   0  0  0  0  0  0  0  0  0  0  0  0
    0.9728   22.0214  -28.7010 H   0  0  0  0  0  0  0  0  0  0  0  0
    1.0131   19.6244  -27.6489 H   0  0  0  0  0  0  0  0  0  0  0  0
    0.4373   21.0658  -26.6637 H   0  0  0  0  0  0  0  0  0  0  0  0
   -0.8730   18.5842  -27.0320 H   0  0  0  0  0  0  0  0  0  0  0  0
   -1.4779   20.1208  -26.2372 H   0  0  0  0  0  0  0  0  0  0  0  0
   -1.9304   19.1979  -29.1023 H   0  0  0  0  0  0  0  0  0  0  0  0
   -3.1494   19.4548  -27.8054 H   0  0  0  0  0  0  0  0  0  0  0  0
   -8.4287   24.0916  -30.7930 H   0  0  0  0  0  0  0  0  0  0  0  0
   -9.5842   22.1703  -31.8708 H   0  0  0  0  0  0  0  0  0  0  0  0
   -8.0230   19.4000  -33.5990 H   0  0  0  0  0  0  0  0  0  0  0  0
   -4.4303   17.7192  -33.9925 H   0  0  0  0  0  0  0  0  0  0  0  0
   -4.0404   16.9312  -32.3981 H   0  0  0  0  0  0  0  0  0  0  0  0
   -5.9916   16.0103  -34.0081 H   0  0  0  0  0  0  0  0  0  0  0  0
   -6.0970   15.9499  -32.2077 H   0  0  0  0  0  0  0  0  0  0  0  0
   -8.1263   18.8646  -32.0096 H   0  0  0  0  0  0  0  0  0  0  0  0
   -7.7792   17.2783  -31.1739 H   0  0  0  0  0  0  0  0  0  0  0  0
   -6.3280   19.6149  -30.8395 H   0  0  0  0  0  0  0  0  0  0  0  0
   -5.7561   17.9277  -30.4890 H   0  0  0  0  0  0  0  0  0  0  0  0
   -4.6076   22.5001  -32.0459 H   0  0  0  0  0  0  0  0  0  0  0  0
  1  2  2  0
  2  3  2  0
  2  4  1  0
  4  5  1  0
  5  6  2  0
  6  7  1  0
  7  8  2  0
  8  9  1  0
  9 10  2  0
 10 11  1  0
  8 12  1  0
 12 13  1  0
 13 14  1  0
 14 15  1  0
  2 16  1  0
 16 17  2  0
 17 18  1  0
 18 19  2  0
 19 20  1  0
 19 21  1  0
 21 22  1  0
 22 23  2  0
 22 24  2  0
 22 25  1  0
 25 26  1  0
 26 27  1  0
 27 28  1  0
 28 29  1  0
 29 30  1  0
 21 31  2  0
 10  5  1  0
 31 16  1  0
 15  7  1  0
 30 25  1  0
  6 32  1  0
  9 33  1  0
 12 34  1  0
 12 35  1  0
 13 36  1  0
 13 37  1  0
 14 38  1  0
 14 39  1  0
 15 40  1  0
 15 41  1  0
 17 42  1  0
 18 43  1  0
 20 44  1  0
 26 45  1  0
 26 46  1  0
 27 47  1  0
 27 48  1  0
 29 49  1  0
 29 50  1  0
 30 51  1  0
 30 52  1  0
 31 53  1  0
M  CHG  2   4  -1  11  -1
M  END
>  <UniqueID>  (7) 
7

>  <SMILES>  (7) 
O=S(=O)([N-]c1cc2c(cc1[O-])CCCC2)c1ccc(O)c(S(=O)(=O)N2CCOCC2)c1

>  <Energy>  (7) 
75.88661918822058

>  <Genealogy>  (7) 
O=S(=O)([N-]c1cc2c(cc1[O-])CCCC2)c1ccc(O)c(S(=O)(=O)N2CCOCC2)c1 (protonated)
O=S(=O)([N-]c1cc2c(cc1[O-])CCCC2)c1ccc(O)c(S(=O)(=O)N2CCOCC2)c1 (3D coordinates assigned)
O=S(=O)([N-]c1cc2c(cc1[O-])CCCC2)c1ccc(O)c(S(=O)(=O)N2CCOCC2)c1 (nonaromatic ring conformer: 75.88661918822058 kcal/mol)

>  <smiles>  (7) 
O=S(=O)(Nc1cc2c(cc1O)CCCC2)c1ccc(O)c(S(=O)(=O)N2CCOCC2)c1

>  <score_type>  (7) 
oracle

>  <origin>  (7) 
adgpu

>  <m_score__min__energy>  (7) 
-14.9

>  <m_primary>  (7) 
energy

$$$$
7:0
     RDKit          3D

 62 65  0  0  0  0  0  0  0  0999 V2000
   -0.0470   17.4920  -30.4410 C   0  0  0  0  0  0  0  0  0  0  0  0
   -0.2320   17.6510  -31.9120 C   0  0  0  0  0  0  0  0  0  0  0  0
    0.0600   18.7750  -32.5970 N   0  0  0  0  0  0  0  0  0  0  0  0
   -0.2880   18.4820  -33.8710 C   0  0  0  0  0  0  0  0  0  0  0  0
   -0.1130   19.6590  -35.2170 S   0  0  0  0  0  0  0  0  0  0  0  0
   -0.1010   21.1230  -34.1270 C   0  0  0  0  0  0  0  0  0  0  0  0
   -1.3300   21.1490  -33.2600 C   0  0  0  0  0  0  0  0  0  0  0  0
   -2.5810   20.7980  -33.8000 C   0  0  0  0  0  0  0  0  0  0  0  0
   -3.7180   20.7710  -32.9870 C   0  0  0  0  0  0  0  0  0  0  0  0
   -3.6180   21.1030  -31.6320 C   0  0  0  0  0  0  0  0  0  0  0  0
   -4.7210   21.0700  -30.8440 F   0  0  0  0  0  0  0  0  0  0  0  0
   -2.3780   21.4580  -31.0880 C   0  0  0  0  0  0  0  0  0  0  0  0
   -1.2380   21.4840  -31.8990 C   0  0  0  0  0  0  0  0  0  0  0  0
   -0.7910   17.2350  -34.0110 N   0  0  0  0  0  0  0  0  0  0  0  0
   -1.3580   16.6240  -35.2130 C   0  0  0  0  0  0  0  0  0  0  0  0
   -2.8550   16.9180  -35.2970 C   0  0  0  0  0  0  0  0  0  0  0  0
   -3.4720   16.8110  -33.9760 N   0  0  0  0  0  0  0  0  0  0  0  0
   -4.6500   17.5330  -33.5670 C   0  0  0  0  0  0  0  0  0  0  0  0
   -5.3160   18.4260  -34.4290 C   0  0  0  0  0  0  0  0  0  0  0  0
   -6.4820   19.0760  -34.0100 C   0  0  0  0  0  0  0  0  0  0  0  0
   -7.0030   18.8360  -32.7330 C   0  0  0  0  0  0  0  0  0  0  0  0
   -8.5060   19.6080  -32.2240 S   0  0  0  0  0  0  0  0  0  0  0  0
   -8.8660   19.1400  -30.8410 O   0  0  0  0  0  0  0  0  0  0  0  0
   -9.6010   19.1930  -33.1660 O   0  0  0  0  0  0  0  0  0  0  0  0
   -8.3440   21.3500  -32.2430 N   0  0  0  0  0  0  0  0  0  0  0  0
   -6.9610   21.7270  -32.6150 C   0  0  0  0  0  0  0  0  0  0  0  0
   -6.6360   23.1640  -32.1940 C   0  0  0  0  0  0  0  0  0  0  0  0
   -6.7150   23.3230  -30.6660 C   0  0  0  0  0  0  0  0  0  0  0  0
   -7.6710   22.3100  -30.0130 C   0  0  0  0  0  0  0  0  0  0  0  0
   -8.8180   21.9390  -30.9630 C   0  0  0  0  0  0  0  0  0  0  0  0
   -6.3300   17.9690  -31.8660 C   0  0  0  0  0  0  0  0  0  0  0  0
   -5.1590   17.3290  -32.2760 C   0  0  0  0  0  0  0  0  0  0  0  0
   -0.7690   16.7220  -32.7710 C   0  0  0  0  0  0  0  0  0  0  0  0
   -1.2370   15.4580  -32.4290 O   0  0  0  0  0  0  0  0  0  0  0  0
   -0.7774   18.1198  -29.9096 H   0  0  0  0  0  0  0  0  0  0  0  0
   -0.1990   16.4383  -30.1641 H   0  0  0  0  0  0  0  0  0  0  0  0
    0.9719   17.8006  -30.1641 H   0  0  0  0  0  0  0  0  0  0  0  0
    0.7925   21.0891  -33.4863 H   0  0  0  0  0  0  0  0  0  0  0  0
   -0.0884   22.0289  -34.7508 H   0  0  0  0  0  0  0  0  0  0  0  0
   -2.6648   20.5436  -34.8669 H   0  0  0  0  0  0  0  0  0  0  0  0
   -4.6919   20.4885  -33.4133 H   0  0  0  0  0  0  0  0  0  0  0  0
   -2.2997   21.7168  -30.0218 H   0  0  0  0  0  0  0  0  0  0  0  0
   -0.2661   21.7679  -31.4691 H   0  0  0  0  0  0  0  0  0  0  0  0
   -0.8563   17.0355  -36.1012 H   0  0  0  0  0  0  0  0  0  0  0  0
   -1.2075   15.5353  -35.1679 H   0  0  0  0  0  0  0  0  0  0  0  0
   -3.0028   17.9369  -35.6842 H   0  0  0  0  0  0  0  0  0  0  0  0
   -3.3246   16.1852  -35.9697 H   0  0  0  0  0  0  0  0  0  0  0  0
   -3.1040   16.0610  -33.3440 H   0  0  0  0  0  0  0  0  0  0  0  0
   -4.9173   18.6133  -35.4369 H   0  0  0  0  0  0  0  0  0  0  0  0
   -6.9912   19.7782  -34.6865 H   0  0  0  0  0  0  0  0  0  0  0  0
   -6.2583   21.0418  -32.1183 H   0  0  0  0  0  0  0  0  0  0  0  0
   -6.8682   21.6594  -33.7090 H   0  0  0  0  0  0  0  0  0  0  0  0
   -5.6191   23.4157  -32.5296 H   0  0  0  0  0  0  0  0  0  0  0  0
   -7.3725   23.8388  -32.6547 H   0  0  0  0  0  0  0  0  0  0  0  0
   -5.7090   23.1798  -30.2447 H   0  0  0  0  0  0  0  0  0  0  0  0
   -7.1039   24.3303  -30.4562 H   0  0  0  0  0  0  0  0  0  0  0  0
   -7.1090   21.4000  -29.7561 H   0  0  0  0  0  0  0  0  0  0  0  0
   -8.1005   22.7678  -29.1097 H   0  0  0  0  0  0  0  0  0  0  0  0
   -9.4674   21.2076  -30.4597 H   0  0  0  0  0  0  0  0  0  0  0  0
   -9.3566   22.8666  -31.2069 H   0  0  0  0  0  0  0  0  0  0  0  0
   -6.7257   17.7904  -30.8553 H   0  0  0  0  0  0  0  0  0  0  0  0
   -4.6312   16.6593  -31.5810 H   0  0  0  0  0  0  0  0  0  0  0  0
  1  2  1  0
  2  3  1  0
  3  4  2  0
  4  5  1  0
  5  6  1  0
  6  7  1  0
  7  8  2  0
  8  9  1  0
  9 10  2  0
 10 11  1  0
 10 12  1  0
 12 13  2  0
  4 14  1  0
 14 15  1  0
 15 16  1  0
 16 17  1  0
 17 18  1  0
 18 19  2  0
 19 20  1  0
 20 21  2  0
 21 22  1  0
 22 23  2  0
 22 24  2  0
 22 25  1  0
 25 26  1  0
 26 27  1  0
 27 28  1  0
 28 29  1  0
 29 30  1  0
 21 31  1  0
 31 32  2  0
 14 33  1  0
 33 34  1  0
 33  2  2  0
 13  7  1  0
 32 18  1  0
 30 25  1  0
  1 35  1  0
  1 36  1  0
  1 37  1  0
  6 38  1  0
  6 39  1  0
  8 40  1  0
  9 41  1  0
 12 42  1  0
 13 43  1  0
 15 44  1  0
 15 45  1  0
 16 46  1  0
 16 47  1  0
 17 48  1  0
 19 49  1  0
 20 50  1  0
 26 51  1  0
 26 52  1  0
 27 53  1  0
 27 54  1  0
 28 55  1  0
 28 56  1  0
 29 57  1  0
 29 58  1  0
 30 59  1  0
 30 60  1  0
 31 61  1  0
 32 62  1  0
M  CHG  1  34  -1
M  END
>  <UniqueID>  (8) 
8

>  <SMILES>  (8) 
Cc1nc(SCc2ccc(F)cc2)n(CCNc2ccc(S(=O)(=O)N3CCCCC3)cc2)c1[O-]

>  <Energy>  (8) 
92.6153188383233

>  <Genealogy>  (8) 
Cc1nc(SCc2ccc(F)cc2)n(CCNc2ccc(S(=O)(=O)N3CCCCC3)cc2)c1[O-] (protonated)
Cc1nc(SCc2ccc(F)cc2)n(CCNc2ccc(S(=O)(=O)N3CCCCC3)cc2)c1[O-] (3D coordinates assigned)
Cc1nc(SCc2ccc(F)cc2)n(CCNc2ccc(S(=O)(=O)N3CCCCC3)cc2)c1[O-] (nonaromatic ring conformer: 92.6153188383233 kcal/mol)

>  <smiles>  (8) 
Cc1nc(SCc2ccc(F)cc2)n(CCNc2ccc(S(=O)(=O)N3CCCCC3)cc2)c1O

>  <score_type>  (8) 
oracle

>  <origin>  (8) 
adgpu

>  <m_score__min__energy>  (8) 
-12.56

>  <m_primary>  (8) 
energy

$$$$
8:0
     RDKit          3D

 52 55  0  0  0  0  0  0  0  0999 V2000
   -1.2520   25.7050  -29.3010 O   0  0  0  0  0  0  0  0  0  0  0  0
   -2.3500   24.6840  -29.1740 S   0  0  0  0  0  0  0  0  0  0  0  0
   -3.0540   24.8800  -27.8590 O   0  0  0  0  0  0  0  0  0  0  0  0
   -3.4850   24.9030  -30.4650 N   0  0  0  0  0  0  0  0  0  0  0  0
   -4.6810   24.1220  -30.6610 C   0  0  0  0  0  0  0  0  0  0  0  0
   -4.7260   23.0690  -31.5980 C   0  0  0  0  0  0  0  0  0  0  0  0
   -5.9080   22.3330  -31.8010 C   0  0  0  0  0  0  0  0  0  0  0  0
   -7.0690   22.6630  -31.0550 C   0  0  0  0  0  0  0  0  0  0  0  0
   -7.0210   23.7150  -30.1280 C   0  0  0  0  0  0  0  0  0  0  0  0
   -5.8380   24.4330  -29.9180 C   0  0  0  0  0  0  0  0  0  0  0  0
   -5.8330   25.4510  -28.9620 O   0  0  0  0  0  0  0  0  0  0  0  0
   -8.3830   21.9550  -31.2970 C   0  0  0  0  0  0  0  0  0  0  0  0
   -8.1770   20.5380  -31.8360 C   0  0  0  0  0  0  0  0  0  0  0  0
   -7.2500   20.5740  -33.0560 C   0  0  0  0  0  0  0  0  0  0  0  0
   -5.8580   21.0890  -32.6620 C   0  0  0  0  0  0  0  0  0  0  0  0
   -1.7010   23.0540  -29.2460 C   0  0  0  0  0  0  0  0  0  0  0  0
   -1.2750   22.3950  -28.0830 C   0  0  0  0  0  0  0  0  0  0  0  0
   -0.7420   21.1070  -28.1690 C   0  0  0  0  0  0  0  0  0  0  0  0
   -0.6200   20.4790  -29.4150 C   0  0  0  0  0  0  0  0  0  0  0  0
   -1.0270   21.1430  -30.5830 C   0  0  0  0  0  0  0  0  0  0  0  0
   -0.7960   20.4050  -32.1680 S   0  0  0  0  0  0  0  0  0  0  0  0
    0.4750   19.5940  -32.1440 O   0  0  0  0  0  0  0  0  0  0  0  0
   -0.6850   21.4760  -33.2190 O   0  0  0  0  0  0  0  0  0  0  0  0
   -2.1540   19.3590  -32.5200 N   0  0  0  0  0  0  0  0  0  0  0  0
   -3.0440   19.9470  -33.5160 C   0  0  0  0  0  0  0  0  0  0  0  0
   -3.7810   18.7830  -34.1500 C   0  0  0  0  0  0  0  0  0  0  0  0
   -2.8660   17.5780  -33.9520 C   0  0  0  0  0  0  0  0  0  0  0  0
   -1.7200   18.0860  -33.0890 C   0  0  0  0  0  0  0  0  0  0  0  0
   -1.5910   22.4200  -30.4900 C   0  0  0  0  0  0  0  0  0  0  0  0
   -3.8251   22.8197  -32.1779 H   0  0  0  0  0  0  0  0  0  0  0  0
   -7.9246   23.9789  -29.5590 H   0  0  0  0  0  0  0  0  0  0  0  0
   -5.0240   25.6730  -28.3940 H   0  0  0  0  0  0  0  0  0  0  0  0
   -8.9360   21.8975  -30.3479 H   0  0  0  0  0  0  0  0  0  0  0  0
   -8.9451   22.5275  -32.0495 H   0  0  0  0  0  0  0  0  0  0  0  0
   -7.7249   19.9119  -31.0527 H   0  0  0  0  0  0  0  0  0  0  0  0
   -9.1496   20.1181  -32.1322 H   0  0  0  0  0  0  0  0  0  0  0  0
   -7.1563   19.5588  -33.4690 H   0  0  0  0  0  0  0  0  0  0  0  0
   -7.6795   21.2524  -33.8078 H   0  0  0  0  0  0  0  0  0  0  0  0
   -5.3367   20.2974  -32.1038 H   0  0  0  0  0  0  0  0  0  0  0  0
   -5.3306   21.3532  -33.5905 H   0  0  0  0  0  0  0  0  0  0  0  0
   -1.3606   22.8918  -27.1053 H   0  0  0  0  0  0  0  0  0  0  0  0
   -0.4175   20.5849  -27.2568 H   0  0  0  0  0  0  0  0  0  0  0  0
   -0.2041   19.4626  -29.4785 H   0  0  0  0  0  0  0  0  0  0  0  0
   -3.7554   20.6348  -33.0355 H   0  0  0  0  0  0  0  0  0  0  0  0
   -2.4860   20.5288  -34.2644 H   0  0  0  0  0  0  0  0  0  0  0  0
   -4.7476   18.6200  -33.6509 H   0  0  0  0  0  0  0  0  0  0  0  0
   -4.0005   18.9637  -35.2126 H   0  0  0  0  0  0  0  0  0  0  0  0
   -3.4031   16.7654  -33.4409 H   0  0  0  0  0  0  0  0  0  0  0  0
   -2.5104   17.1695  -34.9095 H   0  0  0  0  0  0  0  0  0  0  0  0
   -1.5027   17.3665  -32.2859 H   0  0  0  0  0  0  0  0  0  0  0  0
   -0.8029   18.2110  -33.6835 H   0  0  0  0  0  0  0  0  0  0  0  0
   -1.9494   22.9280  -31.3974 H   0  0  0  0  0  0  0  0  0  0  0  0
  1  2  2  0
  2  3  2  0
  2  4  1  0
  4  5  1  0
  5  6  2  0
  6  7  1  0
  7  8  2  0
  8  9  1  0
  9 10  2  0
 10 11  1  0
  8 12  1  0
 12 13  1  0
 13 14  1  0
 14 15  1  0
  2 16  1  0
 16 17  2  0
 17 18  1  0
 18 19  2  0
 19 20  1  0
 20 21  1  0
 21 22  2  0
 21 23  2  0
 21 24  1  0
 24 25  1  0
 25 26  1  0
 26 27  1  0
 27 28  1  0
 20 29  2  0
 10  5  1  0
 29 16  1  0
 15  7  1  0
 28 24  1  0
  6 30  1  0
  9 31  1  0
 11 32  1  0
 12 33  1  0
 12 34  1  0
 13 35  1  0
 13 36  1  0
 14 37  1  0
 14 38  1  0
 15 39  1  0
 15 40  1  0
 17 41  1  0
 18 42  1  0
 19 43  1  0
 25 44  1  0
 25 45  1  0
 26 46  1  0
 26 47  1  0
 27 48  1  0
 27 49  1  0
 28 50  1  0
 28 51  1  0
 29 52  1  0
M  CHG  1   4  -1
M  END
>  <UniqueID>  (9) 
9

>  <SMILES>  (9) 
O=S(=O)([N-]c1cc2c(cc1O)CCCC2)c1cccc(S(=O)(=O)N2CCCC2)c1

>  <Energy>  (9) 
55.33057604079956

>  <Genealogy>  (9) 
O=S(=O)([N-]c1cc2c(cc1O)CCCC2)c1cccc(S(=O)(=O)N2CCCC2)c1 (protonated)
O=S(=O)([N-]c1cc2c(cc1O)CCCC2)c1cccc(S(=O)(=O)N2CCCC2)c1 (3D coordinates assigned)
O=S(=O)([N-]c1cc2c(cc1O)CCCC2)c1cccc(S(=O)(=O)N2CCCC2)c1 (nonaromatic ring conformer: 55.33057604079956 kcal/mol)

>  <smiles>  (9) 
O=S(=O)(Nc1cc2c(cc1O)CCCC2)c1cccc(S(=O)(=O)N2CCCC2)c1

>  <score_type>  (9) 
oracle

>  <origin>  (9) 
adgpu

>  <m_score__min__energy>  (9) 
-13.18

>  <m_primary>  (9) 
energy

$$$$
9:0
     RDKit          3D

 57 61  0  0  0  0  0  0  0  0999 V2000
   -2.0950   17.2730  -34.9500 C   0  0  0  0  0  0  0  0  0  0  0  0
   -3.3240   17.7330  -34.2250 C   0  0  0  0  0  0  0  0  0  0  0  0
   -4.4820   16.9400  -34.2230 C   0  0  0  0  0  0  0  0  0  0  0  0
   -5.6230   17.3520  -33.5170 C   0  0  0  0  0  0  0  0  0  0  0  0
   -6.8450   16.4830  -33.4870 C   0  0  0  0  0  0  0  0  0  0  0  0
   -5.5870   18.5440  -32.7780 C   0  0  0  0  0  0  0  0  0  0  0  0
   -4.4310   19.3350  -32.7670 C   0  0  0  0  0  0  0  0  0  0  0  0
   -4.3700   20.8200  -31.8160 S   0  0  0  0  0  0  0  0  0  0  0  0
   -3.9370   20.4540  -30.4240 O   0  0  0  0  0  0  0  0  0  0  0  0
   -3.3580   21.7590  -32.4100 O   0  0  0  0  0  0  0  0  0  0  0  0
   -5.9550   21.6140  -31.7750 C   0  0  0  0  0  0  0  0  0  0  0  0
   -7.0440   20.9880  -32.4040 C   0  0  0  0  0  0  0  0  0  0  0  0
   -8.3210   21.5500  -32.3470 C   0  0  0  0  0  0  0  0  0  0  0  0
   -8.5260   22.7480  -31.6660 C   0  0  0  0  0  0  0  0  0  0  0  0
   -7.4550   23.3940  -31.0490 C   0  0  0  0  0  0  0  0  0  0  0  0
   -6.1610   22.8460  -31.1000 C   0  0  0  0  0  0  0  0  0  0  0  0
   -5.0520   23.5950  -30.4730 C   0  0  0  0  0  0  0  0  0  0  0  0
   -4.8580   24.7990  -30.7930 O   0  0  0  0  0  0  0  0  0  0  0  0
   -4.2370   22.9730  -29.4630 N   0  0  0  0  0  0  0  0  0  0  0  0
   -3.0380   23.5580  -28.9260 C   0  0  0  0  0  0  0  0  0  0  0  0
   -1.8010   23.4140  -29.5740 C   0  0  0  0  0  0  0  0  0  0  0  0
   -0.6450   23.9690  -29.0200 C   0  0  0  0  0  0  0  0  0  0  0  0
   -0.7010   24.6670  -27.8030 C   0  0  0  0  0  0  0  0  0  0  0  0
   -1.9360   24.7970  -27.1340 C   0  0  0  0  0  0  0  0  0  0  0  0
   -3.0930   24.2320  -27.7000 C   0  0  0  0  0  0  0  0  0  0  0  0
   -2.0050   25.5220  -25.8420 C   0  0  0  0  0  0  0  0  0  0  0  0
   -3.1100   25.6390  -25.2430 O   0  0  0  0  0  0  0  0  0  0  0  0
   -0.7800   26.1130  -25.2540 C   0  0  0  0  0  0  0  0  0  0  0  0
   -0.8330   26.8040  -24.0290 C   0  0  0  0  0  0  0  0  0  0  0  0
    0.3230   27.3580  -23.4790 C   0  0  0  0  0  0  0  0  0  0  0  0
    1.5440   27.2320  -24.1420 C   0  0  0  0  0  0  0  0  0  0  0  0
    1.6130   26.5490  -25.3580 C   0  0  0  0  0  0  0  0  0  0  0  0
    0.4560   25.9840  -25.9250 C   0  0  0  0  0  0  0  0  0  0  0  0
    0.5250   25.2590  -27.2160 C   0  0  0  0  0  0  0  0  0  0  0  0
    1.6290   25.1440  -27.8150 O   0  0  0  0  0  0  0  0  0  0  0  0
   -3.3000   18.9230  -33.4840 C   0  0  0  0  0  0  0  0  0  0  0  0
   -1.3247   16.9847  -34.2196 H   0  0  0  0  0  0  0  0  0  0  0  0
   -2.3441   16.4072  -35.5812 H   0  0  0  0  0  0  0  0  0  0  0  0
   -1.7144   18.0896  -35.5812 H   0  0  0  0  0  0  0  0  0  0  0  0
   -4.4955   15.9903  -34.7778 H   0  0  0  0  0  0  0  0  0  0  0  0
   -7.1268   16.2826  -32.4428 H   0  0  0  0  0  0  0  0  0  0  0  0
   -7.6727   16.9965  -33.9981 H   0  0  0  0  0  0  0  0  0  0  0  0
   -6.6317   15.5326  -33.9981 H   0  0  0  0  0  0  0  0  0  0  0  0
   -6.4711   18.8590  -32.2043 H   0  0  0  0  0  0  0  0  0  0  0  0
   -6.8890   20.0444  -32.9476 H   0  0  0  0  0  0  0  0  0  0  0  0
   -9.1656   21.0465  -32.8401 H   0  0  0  0  0  0  0  0  0  0  0  0
   -9.5342   23.1850  -31.6149 H   0  0  0  0  0  0  0  0  0  0  0  0
   -7.6242   24.3418  -30.5170 H   0  0  0  0  0  0  0  0  0  0  0  0
   -4.5560   22.0660  -29.0570 H   0  0  0  0  0  0  0  0  0  0  0  0
   -1.7417   22.8611  -30.5231 H   0  0  0  0  0  0  0  0  0  0  0  0
    0.3172   23.8583  -29.5415 H   0  0  0  0  0  0  0  0  0  0  0  0
   -4.0541   24.3208  -27.1723 H   0  0  0  0  0  0  0  0  0  0  0  0
   -1.7927   26.9079  -23.5016 H   0  0  0  0  0  0  0  0  0  0  0  0
    0.2718   27.8953  -22.5205 H   0  0  0  0  0  0  0  0  0  0  0  0
    2.4535   27.6712  -23.7063 H   0  0  0  0  0  0  0  0  0  0  0  0
    2.5785   26.4521  -25.8761 H   0  0  0  0  0  0  0  0  0  0  0  0
   -2.3875   19.5370  -33.4655 H   0  0  0  0  0  0  0  0  0  0  0  0
  1  2  1  0
  2  3  2  0
  3  4  1  0
  4  5  1  0
  4  6  2  0
  6  7  1  0
  7  8  1  0
  8  9  2  0
  8 10  2  0
  8 11  1  0
 11 12  2  0
 12 13  1  0
 13 14  2  0
 14 15  1  0
 15 16  2  0
 16 17  1  0
 17 18  2  0
 17 19  1  0
 19 20  1  0
 20 21  2  0
 21 22  1  0
 22 23  2  0
 23 24  1  0
 24 25  2  0
 24 26  1  0
 26 27  2  0
 26 28  1  0
 28 29  2  0
 29 30  1  0
 30 31  2  0
 31 32  1  0
 32 33  2  0
 33 34  1  0
 34 35  2  0
  7 36  2  0
 36  2  1  0
 16 11  1  0
 25 20  1  0
 33 28  1  0
 34 23  1  0
  1 37  1  0
  1 38  1  0
  1 39  1  0
  3 40  1  0
  5 41  1  0
  5 42  1  0
  5 43  1  0
  6 44  1  0
 12 45  1  0
 13 46  1  0
 14 47  1  0
 15 48  1  0
 19 49  1  0
 21 50  1  0
 22 51  1  0
 25 52  1  0
 29 53  1  0
 30 54  1  0
 31 55  1  0
 32 56  1  0
 36 57  1  0
M  END
>  <UniqueID>  (10) 
10

>  <SMILES>  (10) 
Cc1cc(C)cc(S(=O)(=O)c2ccccc2C(=O)Nc2ccc3c(c2)C(=O)c2ccccc2C3=O)c1

>  <Energy>  (10) 
79.38765762923241

>  <Genealogy>  (10) 
Cc1cc(C)cc(S(=O)(=O)c2ccccc2C(=O)Nc2ccc3c(c2)C(=O)c2ccccc2C3=O)c1 (3D coordinates assigned)
Cc1cc(C)cc(S(=O)(=O)c2ccccc2C(=O)Nc2ccc3c(c2)C(=O)c2ccccc2C3=O)c1 (nonaromatic ring conformer: 79.38765762923241 kcal/mol)

>  <smiles>  (10) 
Cc1cc(C)cc(S(=O)(=O)c2ccccc2C(=O)Nc2ccc3c(c2)C(=O)c2ccccc2C3=O)c1

>  <score_type>  (10) 
oracle

>  <origin>  (10) 
adgpu

>  <m_score__min__energy>  (10) 
-11.58

>  <m_primary>  (10) 
energy

$$$$
10:0
     RDKit          3D

 43 45  0  0  0  0  0  0  0  0999 V2000
   -6.1910   17.4290  -31.2620 C   0  0  0  0  0  0  0  0  0  0  0  0
   -7.1410   17.7100  -32.3520 N   0  0  0  0  0  0  0  0  0  0  0  0
   -6.4430   18.0310  -33.6250 C   0  0  0  0  0  0  0  0  0  0  0  0
   -6.4910   19.5220  -34.0070 C   0  0  0  0  0  0  0  0  0  0  0  0
   -6.4830   20.3570  -32.8030 N   0  0  0  0  0  0  0  0  0  0  0  0
   -5.3740   21.2360  -32.5300 C   0  0  0  0  0  0  0  0  0  0  0  0
   -4.2190   20.9220  -32.9290 O   0  0  0  0  0  0  0  0  0  0  0  0
   -5.5560   22.4930  -31.7720 C   0  0  0  0  0  0  0  0  0  0  0  0
   -6.8460   22.9510  -31.4670 C   0  0  0  0  0  0  0  0  0  0  0  0
   -7.0240   24.1340  -30.7490 C   0  0  0  0  0  0  0  0  0  0  0  0
   -5.9180   24.8740  -30.3170 C   0  0  0  0  0  0  0  0  0  0  0  0
   -6.1380   26.0550  -29.6070 O   0  0  0  0  0  0  0  0  0  0  0  0
   -4.6150   24.4200  -30.6000 C   0  0  0  0  0  0  0  0  0  0  0  0
   -3.4920   25.1880  -30.1430 N   0  0  0  0  0  0  0  0  0  0  0  0
   -2.3720   24.6950  -28.9130 S   0  0  0  0  0  0  0  0  0  0  0  0
   -2.9890   24.8690  -27.5540 O   0  0  0  0  0  0  0  0  0  0  0  0
   -1.1180   25.5170  -29.0230 O   0  0  0  0  0  0  0  0  0  0  0  0
   -1.9760   23.0050  -29.1510 C   0  0  0  0  0  0  0  0  0  0  0  0
   -1.1260   22.5020  -30.1240 C   0  0  0  0  0  0  0  0  0  0  0  0
   -1.0110   21.1090  -30.0790 C   0  0  0  0  0  0  0  0  0  0  0  0
   -1.7700   20.5180  -29.0760 C   0  0  0  0  0  0  0  0  0  0  0  0
   -2.5870   21.7320  -28.2420 S   0  0  0  0  0  0  0  0  0  0  0  0
   -4.4440   23.2230  -31.3190 C   0  0  0  0  0  0  0  0  0  0  0  0
   -7.5090   20.1160  -31.7800 C   0  0  0  0  0  0  0  0  0  0  0  0
   -8.1430   18.7250  -31.9600 C   0  0  0  0  0  0  0  0  0  0  0  0
   -6.6905   17.5767  -30.2931 H   0  0  0  0  0  0  0  0  0  0  0  0
   -5.8413   16.3889  -31.3394 H   0  0  0  0  0  0  0  0  0  0  0  0
   -5.3318   18.1115  -31.3394 H   0  0  0  0  0  0  0  0  0  0  0  0
   -5.3887   17.7331  -33.5261 H   0  0  0  0  0  0  0  0  0  0  0  0
   -6.9656   17.4814  -34.4218 H   0  0  0  0  0  0  0  0  0  0  0  0
   -5.6138   19.7668  -34.6239 H   0  0  0  0  0  0  0  0  0  0  0  0
   -7.4152   19.7169  -34.5709 H   0  0  0  0  0  0  0  0  0  0  0  0
   -7.7229   22.3740  -31.7959 H   0  0  0  0  0  0  0  0  0  0  0  0
   -8.0405   24.4872  -30.5211 H   0  0  0  0  0  0  0  0  0  0  0  0
   -5.4390   26.4590  -28.9950 H   0  0  0  0  0  0  0  0  0  0  0  0
   -0.5977   23.1323  -30.8545 H   0  0  0  0  0  0  0  0  0  0  0  0
   -0.3790   20.5349  -30.7725 H   0  0  0  0  0  0  0  0  0  0  0  0
   -1.8274   19.4404  -28.8630 H   0  0  0  0  0  0  0  0  0  0  0  0
   -3.4290   22.8545  -31.5288 H   0  0  0  0  0  0  0  0  0  0  0  0
   -7.0462   20.1754  -30.7839 H   0  0  0  0  0  0  0  0  0  0  0  0
   -8.2954   20.8783  -31.8824 H   0  0  0  0  0  0  0  0  0  0  0  0
   -8.6062   18.4195  -31.0102 H   0  0  0  0  0  0  0  0  0  0  0  0
   -8.8924   18.7926  -32.7623 H   0  0  0  0  0  0  0  0  0  0  0  0
  1  2  1  0
  2  3  1  0
  3  4  1  0
  4  5  1  0
  5  6  1  0
  6  7  2  0
  6  8  1  0
  8  9  2  0
  9 10  1  0
 10 11  2  0
 11 12  1  0
 11 13  1  0
 13 14  1  0
 14 15  1  0
 15 16  2  0
 15 17  2  0
 15 18  1  0
 18 19  2  0
 19 20  1  0
 20 21  2  0
 21 22  1  0
 13 23  2  0
  5 24  1  0
 24 25  1  0
 25  2  1  0
 23  8  1  0
 22 18  1  0
  1 26  1  0
  1 27  1  0
  1 28  1  0
  3 29  1  0
  3 30  1  0
  4 31  1  0
  4 32  1  0
  9 33  1  0
 10 34  1  0
 12 35  1  0
 19 36  1  0
 20 37  1  0
 21 38  1  0
 23 39  1  0
 24 40  1  0
 24 41  1  0
 25 42  1  0
 25 43  1  0
M  CHG  1  14  -1
M  END
>  <UniqueID>  (11) 
11

>  <SMILES>  (11) 
CN1CCN(C(=O)c2ccc(O)c([N-]S(=O)(=O)c3cccs3)c2)CC1

>  <Energy>  (11) 
86.93472877488217

>  <Genealogy>  (11) 
CN1CCN(C(=O)c2ccc(O)c([N-]S(=O)(=O)c3cccs3)c2)CC1 (protonated)
CN1CCN(C(=O)c2ccc(O)c([N-]S(=O)(=O)c3cccs3)c2)CC1 (3D coordinates assigned)
CN1CCN(C(=O)c2ccc(O)c([N-]S(=O)(=O)c3cccs3)c2)CC1 (nonaromatic ring conformer: 86.93472877488217 kcal/mol)

>  <smiles>  (11) 
CN1CCN(C(=O)c2ccc(O)c(NS(=O)(=O)c3cccs3)c2)CC1

>  <score_type>  (11) 
oracle

>  <origin>  (11) 
adgpu

>  <m_score__min__energy>  (11) 
-10.42

>  <m_primary>  (11) 
energy

$$$$
11:0
     RDKit          3D

 54 57  0  0  0  0  0  0  0  0999 V2000
   -4.9780   15.3120  -33.1720 C   0  0  0  0  0  0  0  0  0  0  0  0
   -4.2140   16.1720  -34.0130 O   0  0  0  0  0  0  0  0  0  0  0  0
   -3.3650   17.1940  -33.5530 C   0  0  0  0  0  0  0  0  0  0  0  0
   -1.9630   17.1010  -33.6680 C   0  0  0  0  0  0  0  0  0  0  0  0
   -1.1460   18.1530  -33.2490 C   0  0  0  0  0  0  0  0  0  0  0  0
   -1.7140   19.3200  -32.7240 C   0  0  0  0  0  0  0  0  0  0  0  0
   -0.6920   20.6640  -32.2360 S   0  0  0  0  0  0  0  0  0  0  0  0
    0.7220   20.3490  -32.6290 O   0  0  0  0  0  0  0  0  0  0  0  0
   -1.1200   21.9110  -32.9690 O   0  0  0  0  0  0  0  0  0  0  0  0
   -0.7940   20.8720  -30.5020 N   0  0  0  0  0  0  0  0  0  0  0  0
   -1.9770   20.2420  -29.9110 C   0  0  0  0  0  0  0  0  0  0  0  0
   -3.2960   20.9530  -30.2540 C   0  0  0  0  0  0  0  0  0  0  0  0
   -3.1720   22.4230  -30.2220 N   0  0  0  0  0  0  0  0  0  0  0  0
   -4.3790   23.2030  -30.1580 C   0  0  0  0  0  0  0  0  0  0  0  0
   -5.6170   22.5660  -30.1990 C   0  0  0  0  0  0  0  0  0  0  0  0
   -6.7970   23.3110  -30.1580 C   0  0  0  0  0  0  0  0  0  0  0  0
   -6.7510   24.7040  -30.0830 C   0  0  0  0  0  0  0  0  0  0  0  0
   -5.5250   25.3520  -30.0390 C   0  0  0  0  0  0  0  0  0  0  0  0
   -4.3410   24.6140  -30.0880 C   0  0  0  0  0  0  0  0  0  0  0  0
   -3.1320   25.2980  -30.0960 O   0  0  0  0  0  0  0  0  0  0  0  0
   -1.9000   23.1060  -30.4790 C   0  0  0  0  0  0  0  0  0  0  0  0
   -0.6860   22.2700  -30.0770 C   0  0  0  0  0  0  0  0  0  0  0  0
   -3.1060   19.4190  -32.6030 C   0  0  0  0  0  0  0  0  0  0  0  0
   -3.9340   18.3520  -32.9800 C   0  0  0  0  0  0  0  0  0  0  0  0
   -5.3540   18.4890  -32.8250 N   0  0  0  0  0  0  0  0  0  0  0  0
   -5.9880   19.7630  -32.5950 C   0  0  0  0  0  0  0  0  0  0  0  0
   -5.2990   20.8120  -32.4760 O   0  0  0  0  0  0  0  0  0  0  0  0
   -7.4560   19.8540  -32.5470 C   0  0  0  0  0  0  0  0  0  0  0  0
   -8.1950   20.9970  -32.2870 C   0  0  0  0  0  0  0  0  0  0  0  0
   -9.5170   20.6130  -32.3830 C   0  0  0  0  0  0  0  0  0  0  0  0
   -9.5010   19.2660  -32.6940 C   0  0  0  0  0  0  0  0  0  0  0  0
   -8.2590   18.8450  -32.7830 O   0  0  0  0  0  0  0  0  0  0  0  0
   -4.7681   15.5483  -32.1184 H   0  0  0  0  0  0  0  0  0  0  0  0
   -6.0493   15.4584  -33.3742 H   0  0  0  0  0  0  0  0  0  0  0  0
   -4.7064   14.2654  -33.3742 H   0  0  0  0  0  0  0  0  0  0  0  0
   -1.5092   16.1927  -34.0911 H   0  0  0  0  0  0  0  0  0  0  0  0
   -0.0527   18.0646  -33.3317 H   0  0  0  0  0  0  0  0  0  0  0  0
   -2.0367   19.2059  -30.2756 H   0  0  0  0  0  0  0  0  0  0  0  0
   -1.8577   20.2982  -28.8189 H   0  0  0  0  0  0  0  0  0  0  0  0
   -3.6090   20.6475  -31.2633 H   0  0  0  0  0  0  0  0  0  0  0  0
   -4.0379   20.6642  -29.4950 H   0  0  0  0  0  0  0  0  0  0  0  0
   -5.6653   21.4690  -30.2641 H   0  0  0  0  0  0  0  0  0  0  0  0
   -7.7691   22.7969  -30.1850 H   0  0  0  0  0  0  0  0  0  0  0  0
   -7.6839   25.2863  -30.0589 H   0  0  0  0  0  0  0  0  0  0  0  0
   -5.4859   26.4488  -29.9654 H   0  0  0  0  0  0  0  0  0  0  0  0
   -1.8322   23.3294  -31.5539 H   0  0  0  0  0  0  0  0  0  0  0  0
   -1.8873   24.0217  -29.8697 H   0  0  0  0  0  0  0  0  0  0  0  0
    0.2113   22.7091  -30.5375 H   0  0  0  0  0  0  0  0  0  0  0  0
   -0.6266   22.2788  -28.9786 H   0  0  0  0  0  0  0  0  0  0  0  0
   -3.5540   20.3429  -32.2083 H   0  0  0  0  0  0  0  0  0  0  0  0
   -5.9560   17.6910  -33.1260 H   0  0  0  0  0  0  0  0  0  0  0  0
   -7.8088   22.0001  -32.0531 H   0  0  0  0  0  0  0  0  0  0  0  0
  -10.4031   21.2491  -32.2410 H   0  0  0  0  0  0  0  0  0  0  0  0
  -10.3934   18.6407  -32.8443 H   0  0  0  0  0  0  0  0  0  0  0  0
  1  2  1  0
  2  3  1  0
  3  4  2  0
  4  5  1  0
  5  6  2  0
  6  7  1  0
  7  8  2  0
  7  9  2  0
  7 10  1  0
 10 11  1  0
 11 12  1  0
 12 13  1  0
 13 14  1  0
 14 15  2  0
 15 16  1  0
 16 17  2  0
 17 18  1  0
 18 19  2  0
 19 20  1  0
 13 21  1  0
 21 22  1  0
  6 23  1  0
 23 24  2  0
 24 25  1  0
 25 26  1  0
 26 27  2  0
 26 28  1  0
 28 29  2  0
 29 30  1  0
 30 31  2  0
 31 32  1  0
 24  3  1  0
 32 28  1  0
 22 10  1  0
 19 14  1  0
  1 33  1  0
  1 34  1  0
  1 35  1  0
  4 36  1  0
  5 37  1  0
 11 38  1  0
 11 39  1  0
 12 40  1  0
 12 41  1  0
 15 42  1  0
 16 43  1  0
 17 44  1  0
 18 45  1  0
 21 46  1  0
 21 47  1  0
 22 48  1  0
 22 49  1  0
 23 50  1  0
 25 51  1  0
 29 52  1  0
 30 53  1  0
 31 54  1  0
M  CHG  1  20  -1
M  END
>  <UniqueID>  (12) 
12

>  <SMILES>  (12) 
COc1ccc(S(=O)(=O)N2CCN(c3ccccc3[O-])CC2)cc1NC(=O)c1ccco1

>  <Energy>  (12) 
97.62557765834508

>  <Genealogy>  (12) 
COc1ccc(S(=O)(=O)N2CCN(c3ccccc3[O-])CC2)cc1NC(=O)c1ccco1 (protonated)
COc1ccc(S(=O)(=O)N2CCN(c3ccccc3[O-])CC2)cc1NC(=O)c1ccco1 (3D coordinates assigned)
COc1ccc(S(=O)(=O)N2CCN(c3ccccc3[O-])CC2)cc1NC(=O)c1ccco1 (nonaromatic ring conformer: 97.62557765834508 kcal/mol)

>  <smiles>  (12) 
COc1ccc(S(=O)(=O)N2CCN(c3ccccc3O)CC2)cc1NC(=O)c1ccco1

>  <score_type>  (12) 
oracle

>  <origin>  (12) 
adgpu

>  <m_score__min__energy>  (12) 
-12.49

>  <m_primary>  (12) 
energy

$$$$
12:0
     RDKit          3D

 48 51  0  0  0  0  0  0  0  0999 V2000
    2.1240   15.3950  -27.4540 N   0  0  0  0  0  0  0  0  0  0  0  0
    1.6490   16.7360  -27.3160 C   0  0  0  0  0  0  0  0  0  0  0  0
    2.4750   17.7310  -27.4470 N   0  0  0  0  0  0  0  0  0  0  0  0
    0.2770   16.9600  -26.9500 N   0  0  0  0  0  0  0  0  0  0  0  0
   -0.4910   18.1130  -27.3330 C   0  0  0  0  0  0  0  0  0  0  0  0
   -1.7760   18.3540  -26.7870 C   0  0  0  0  0  0  0  0  0  0  0  0
   -2.5040   19.4980  -27.1460 C   0  0  0  0  0  0  0  0  0  0  0  0
   -1.9250   20.3930  -28.0440 C   0  0  0  0  0  0  0  0  0  0  0  0
   -0.6640   20.1840  -28.5660 C   0  0  0  0  0  0  0  0  0  0  0  0
    0.0750   19.0540  -28.2190 C   0  0  0  0  0  0  0  0  0  0  0  0
   -0.2540   21.3030  -29.4800 C   0  0  0  0  0  0  0  0  0  0  0  0
   -1.4680   22.1830  -29.3980 C   0  0  0  0  0  0  0  0  0  0  0  0
   -1.6850   23.4010  -30.0390 C   0  0  0  0  0  0  0  0  0  0  0  0
   -2.8960   24.0780  -29.8160 C   0  0  0  0  0  0  0  0  0  0  0  0
   -3.1100   25.2990  -30.4440 O   0  0  0  0  0  0  0  0  0  0  0  0
   -3.8830   23.5310  -28.9530 C   0  0  0  0  0  0  0  0  0  0  0  0
   -5.1090   24.2520  -28.7230 N   0  0  0  0  0  0  0  0  0  0  0  0
   -6.2090   24.6920  -29.9910 S   0  0  0  0  0  0  0  0  0  0  0  0
   -5.5280   25.6560  -30.9230 O   0  0  0  0  0  0  0  0  0  0  0  0
   -7.4160   25.3600  -29.3960 O   0  0  0  0  0  0  0  0  0  0  0  0
   -6.7320   23.2470  -30.8530 C   0  0  0  0  0  0  0  0  0  0  0  0
   -7.9610   22.6550  -30.5310 C   0  0  0  0  0  0  0  0  0  0  0  0
   -8.3690   21.4870  -31.1790 C   0  0  0  0  0  0  0  0  0  0  0  0
   -7.5530   20.9020  -32.1510 C   0  0  0  0  0  0  0  0  0  0  0  0
   -6.3210   21.4850  -32.4810 C   0  0  0  0  0  0  0  0  0  0  0  0
   -5.4810   20.8820  -33.4690 N   0  0  0  0  0  0  0  0  0  0  0  0
   -5.9140   22.6600  -31.8310 C   0  0  0  0  0  0  0  0  0  0  0  0
   -3.6430   22.2840  -28.3340 C   0  0  0  0  0  0  0  0  0  0  0  0
   -2.4290   21.6440  -28.5670 C   0  0  0  0  0  0  0  0  0  0  0  0
    1.4700   14.5890  -27.3300 H   0  0  0  0  0  0  0  0  0  0  0  0
    3.1220   15.1980  -27.6900 H   0  0  0  0  0  0  0  0  0  0  0  0
    3.4770   17.5640  -27.6930 H   0  0  0  0  0  0  0  0  0  0  0  0
    2.1750   18.7160  -27.2800 H   0  0  0  0  0  0  0  0  0  0  0  0
   -0.1960   16.2220  -26.3800 H   0  0  0  0  0  0  0  0  0  0  0  0
   -2.2074   17.6362  -26.0738 H   0  0  0  0  0  0  0  0  0  0  0  0
   -3.5052   19.6838  -26.7299 H   0  0  0  0  0  0  0  0  0  0  0  0
    1.0836   18.8984  -28.6295 H   0  0  0  0  0  0  0  0  0  0  0  0
    0.6462   21.8178  -29.1130 H   0  0  0  0  0  0  0  0  0  0  0  0
    0.0149   20.9872  -30.4988 H   0  0  0  0  0  0  0  0  0  0  0  0
   -0.9217   23.8252  -30.7079 H   0  0  0  0  0  0  0  0  0  0  0  0
   -5.4250   24.4320  -27.7440 H   0  0  0  0  0  0  0  0  0  0  0  0
   -8.6060   23.1116  -29.7658 H   0  0  0  0  0  0  0  0  0  0  0  0
   -9.3348   21.0265  -30.9237 H   0  0  0  0  0  0  0  0  0  0  0  0
   -7.8779   19.9818  -32.6586 H   0  0  0  0  0  0  0  0  0  0  0  0
   -4.9420   21.4700  -34.1430 H   0  0  0  0  0  0  0  0  0  0  0  0
   -5.3920   19.8430  -33.5320 H   0  0  0  0  0  0  0  0  0  0  0  0
   -4.9501   23.1230  -32.0889 H   0  0  0  0  0  0  0  0  0  0  0  0
   -4.4009   21.8275  -27.6804 H   0  0  0  0  0  0  0  0  0  0  0  0
  1  2  1  0
  2  3  2  0
  2  4  1  0
  4  5  1  0
  5  6  2  0
  6  7  1  0
  7  8  2  0
  8  9  1  0
  9 10  2  0
  9 11  1  0
 11 12  1  0
 12 13  2  0
 13 14  1  0
 14 15  1  0
 14 16  2  0
 16 17  1  0
 17 18  1  0
 18 19  2  0
 18 20  2  0
 18 21  1  0
 21 22  2  0
 22 23  1  0
 23 24  2  0
 24 25  1  0
 25 26  1  0
 25 27  2  0
 16 28  1  0
 28 29  2  0
 10  5  1  0
 29 12  1  0
 29  8  1  0
 27 21  1  0
  1 30  1  0
  1 31  1  0
  3 32  1  0
  3 33  1  0
  4 34  1  0
  6 35  1  0
  7 36  1  0
 10 37  1  0
 11 38  1  0
 11 39  1  0
 13 40  1  0
 17 41  1  0
 22 42  1  0
 23 43  1  0
 24 44  1  0
 26 45  1  0
 26 46  1  0
 27 47  1  0
 28 48  1  0
M  CHG  2   3   1  15  -1
M  END
>  <UniqueID>  (13) 
13

>  <SMILES>  (13) 
NC(=[NH2+])Nc1ccc2c(c1)Cc1cc([O-])c(NS(=O)(=O)c3cccc(N)c3)cc1-2

>  <Energy>  (13) 
78.43753528194067

>  <Genealogy>  (13) 
NC(=[NH2+])Nc1ccc2c(c1)Cc1cc([O-])c(NS(=O)(=O)c3cccc(N)c3)cc1-2 (protonated)
NC(=[NH2+])Nc1ccc2c(c1)Cc1cc([O-])c(NS(=O)(=O)c3cccc(N)c3)cc1-2 (3D coordinates assigned)
NC(=[NH2+])Nc1ccc2c(c1)Cc1cc([O-])c(NS(=O)(=O)c3cccc(N)c3)cc1-2 (nonaromatic ring conformer: 78.43753528194067 kcal/mol)

>  <smiles>  (13) 
N=C(N)Nc1ccc2c(c1)Cc1cc(O)c(NS(=O)(=O)c3cccc(N)c3)cc1-2

>  <score_type>  (13) 
oracle

>  <origin>  (13) 
adgpu

>  <m_score__min__energy>  (13) 
-12.19

>  <m_primary>  (13) 
energy

$$$$
13:0
     RDKit          3D

 43 46  0  0  0  0  0  0  0  0999 V2000
   -1.5720   25.7100  -28.9680 O   0  0  0  0  0  0  0  0  0  0  0  0
   -2.6490   24.6590  -28.9750 S   0  0  0  0  0  0  0  0  0  0  0  0
   -3.5750   24.8960  -27.8150 O   0  0  0  0  0  0  0  0  0  0  0  0
   -3.5510   24.7810  -30.4510 N   0  0  0  0  0  0  0  0  0  0  0  0
   -4.7380   24.0370  -30.7650 C   0  0  0  0  0  0  0  0  0  0  0  0
   -4.6960   22.9020  -31.5960 C   0  0  0  0  0  0  0  0  0  0  0  0
   -5.8580   22.1630  -31.8600 C   0  0  0  0  0  0  0  0  0  0  0  0
   -7.0780   22.5460  -31.2660 C   0  0  0  0  0  0  0  0  0  0  0  0
   -7.1260   23.7000  -30.4720 C   0  0  0  0  0  0  0  0  0  0  0  0
   -5.9680   24.4410  -30.2150 C   0  0  0  0  0  0  0  0  0  0  0  0
   -6.0640   25.5720  -29.4040 O   0  0  0  0  0  0  0  0  0  0  0  0
   -8.3510   21.7870  -31.5550 C   0  0  0  0  0  0  0  0  0  0  0  0
   -8.0910   20.4160  -32.0160 N   0  0  0  0  0  0  0  0  0  0  0  0
   -7.1460   20.4180  -33.1390 C   0  0  0  0  0  0  0  0  0  0  0  0
   -5.7640   20.9120  -32.6940 C   0  0  0  0  0  0  0  0  0  0  0  0
   -1.9490   23.0500  -28.8200 C   0  0  0  0  0  0  0  0  0  0  0  0
   -1.1300   22.5400  -29.8360 C   0  0  0  0  0  0  0  0  0  0  0  0
   -0.5560   21.2720  -29.7070 C   0  0  0  0  0  0  0  0  0  0  0  0
   -0.8030   20.4880  -28.5670 C   0  0  0  0  0  0  0  0  0  0  0  0
   -0.1870   19.1460  -28.4530 C   0  0  0  0  0  0  0  0  0  0  0  0
   -0.4240   18.2010  -27.4690 C   0  0  0  0  0  0  0  0  0  0  0  0
    0.3660   17.1190  -27.7900 C   0  0  0  0  0  0  0  0  0  0  0  0
    1.0380   17.4640  -28.9440 C   0  0  0  0  0  0  0  0  0  0  0  0
    0.6870   18.6730  -29.3150 O   0  0  0  0  0  0  0  0  0  0  0  0
   -1.6330   21.0040  -27.5540 C   0  0  0  0  0  0  0  0  0  0  0  0
   -2.2000   22.2760  -27.6810 C   0  0  0  0  0  0  0  0  0  0  0  0
   -3.7405   22.5910  -32.0436 H   0  0  0  0  0  0  0  0  0  0  0  0
   -8.0860   24.0268  -30.0459 H   0  0  0  0  0  0  0  0  0  0  0  0
   -5.3610   25.8060  -28.7120 H   0  0  0  0  0  0  0  0  0  0  0  0
   -8.9529   21.7427  -30.6353 H   0  0  0  0  0  0  0  0  0  0  0  0
   -8.8834   22.3168  -32.3587 H   0  0  0  0  0  0  0  0  0  0  0  0
   -7.6820   19.8630  -31.2240 H   0  0  0  0  0  0  0  0  0  0  0  0
   -7.0528   19.3950  -33.5324 H   0  0  0  0  0  0  0  0  0  0  0  0
   -7.5271   21.0967  -33.9162 H   0  0  0  0  0  0  0  0  0  0  0  0
   -5.2786   20.1238  -32.0998 H   0  0  0  0  0  0  0  0  0  0  0  0
   -5.1783   21.1456  -33.5953 H   0  0  0  0  0  0  0  0  0  0  0  0
   -0.9381   23.1394  -30.7381 H   0  0  0  0  0  0  0  0  0  0  0  0
    0.0947   20.8844  -30.5047 H   0  0  0  0  0  0  0  0  0  0  0  0
   -1.1029   18.2949  -26.6086 H   0  0  0  0  0  0  0  0  0  0  0  0
    0.4449   16.1711  -27.2374 H   0  0  0  0  0  0  0  0  0  0  0  0
    1.7587   16.8232  -29.4731 H   0  0  0  0  0  0  0  0  0  0  0  0
   -1.8371   20.4024  -26.6560 H   0  0  0  0  0  0  0  0  0  0  0  0
   -2.8459   22.6700  -26.8825 H   0  0  0  0  0  0  0  0  0  0  0  0
  1  2  2  0
  2  3  2  0
  2  4  1  0
  4  5  1  0
  5  6  2  0
  6  7  1  0
  7  8  2  0
  8  9  1  0
  9 10  2  0
 10 11  1  0
  8 12  1  0
 12 13  1  0
 13 14  1  0
 14 15  1  0
  2 16  1  0
 16 17  2  0
 17 18  1  0
 18 19  2  0
 19 20  1  0
 20 21  2  0
 21 22  1  0
 22 23  2  0
 23 24  1  0
 19 25  1  0
 25 26  2  0
 10  5  1  0
 26 16  1  0
 15  7  1  0
 24 20  1  0
  6 27  1  0
  9 28  1  0
 11 29  1  0
 12 30  1  0
 12 31  1  0
 13 32  1  0
 14 33  1  0
 14 34  1  0
 15 35  1  0
 15 36  1  0
 17 37  1  0
 18 38  1  0
 21 39  1  0
 22 40  1  0
 23 41  1  0
 25 42  1  0
 26 43  1  0
M  CHG  1   4  -1
M  END
>  <UniqueID>  (14) 
14

>  <SMILES>  (14) 
O=S(=O)([N-]c1cc2c(cc1O)CNCC2)c1ccc(-c2ccco2)cc1

>  <Energy>  (14) 
78.91172278344999

>  <Genealogy>  (14) 
O=S(=O)([N-]c1cc2c(cc1O)CNCC2)c1ccc(-c2ccco2)cc1 (protonated)
O=S(=O)([N-]c1cc2c(cc1O)CNCC2)c1ccc(-c2ccco2)cc1 (3D coordinates assigned)
O=S(=O)([N-]c1cc2c(cc1O)CNCC2)c1ccc(-c2ccco2)cc1 (nonaromatic ring conformer: 78.91172278344999 kcal/mol)

>  <smiles>  (14) 
O=S(=O)(Nc1cc2c(cc1O)CNCC2)c1ccc(-c2ccco2)cc1

>  <score_type>  (14) 
oracle

>  <origin>  (14) 
adgpu

>  <m_score__min__energy>  (14) 
-11.49

>  <m_primary>  (14) 
energy

$$$$
14:0
     RDKit          3D

 79 83  0  0  0  0  0  0  0  0999 V2000
   -3.8360   19.9150  -33.8460 C   0  0  0  0  0  0  0  0  0  0  0  0
   -5.0840   19.1460  -33.9440 N   0  0  0  0  0  0  0  0  0  0  0  0
   -5.8280   19.1670  -32.6700 C   0  0  0  0  0  0  0  0  0  0  0  0
   -5.5010   20.4230  -31.9130 C   0  0  0  0  0  0  0  0  0  0  0  0
   -6.2290   21.6030  -32.1290 C   0  0  0  0  0  0  0  0  0  0  0  0
   -5.8880   22.7750  -31.4450 C   0  0  0  0  0  0  0  0  0  0  0  0
   -4.8210   22.7770  -30.5350 C   0  0  0  0  0  0  0  0  0  0  0  0
   -4.3380   24.2760  -29.7330 S   0  0  0  0  0  0  0  0  0  0  0  0
   -5.5310   24.8670  -29.0330 O   0  0  0  0  0  0  0  0  0  0  0  0
   -3.8750   25.2680  -30.7670 O   0  0  0  0  0  0  0  0  0  0  0  0
   -3.0600   24.0120  -28.5740 N   0  0  0  0  0  0  0  0  0  0  0  0
   -1.7770   24.5020  -29.1010 C   0  0  0  0  0  0  0  0  0  0  0  0
   -0.6180   24.0330  -28.2000 C   0  0  0  0  0  0  0  0  0  0  0  0
   -1.0860   23.6910  -26.7770 C   0  0  0  0  0  0  0  0  0  0  0  0
   -2.1870   24.6530  -26.3130 C   0  0  0  0  0  0  0  0  0  0  0  0
   -3.3830   24.6700  -27.2910 C   0  0  0  0  0  0  0  0  0  0  0  0
   -4.1120   21.5920  -30.2980 C   0  0  0  0  0  0  0  0  0  0  0  0
   -4.4470   20.4200  -30.9840 C   0  0  0  0  0  0  0  0  0  0  0  0
   -4.7360   17.5120  -34.4680 S   0  0  0  0  0  0  0  0  0  0  0  0
   -5.8150   16.5820  -33.9890 O   0  0  0  0  0  0  0  0  0  0  0  0
   -4.7450   17.4860  -35.9720 O   0  0  0  0  0  0  0  0  0  0  0  0
   -3.1730   16.9210  -33.8820 C   0  0  0  0  0  0  0  0  0  0  0  0
   -3.1000   15.7380  -33.1310 C   0  0  0  0  0  0  0  0  0  0  0  0
   -1.8620   15.2330  -32.7310 C   0  0  0  0  0  0  0  0  0  0  0  0
   -0.6840   15.8890  -33.0980 C   0  0  0  0  0  0  0  0  0  0  0  0
   -0.7350   17.0720  -33.8440 C   0  0  0  0  0  0  0  0  0  0  0  0
    0.4970   17.6690  -34.2780 N   0  0  0  0  0  0  0  0  0  0  0  0
    1.1140   18.8340  -33.7130 C   0  0  0  0  0  0  0  0  0  0  0  0
    2.2690   19.1740  -34.0890 O   0  0  0  0  0  0  0  0  0  0  0  0
    0.3640   19.6610  -32.7330 C   0  0  0  0  0  0  0  0  0  0  0  0
    0.4810   19.3840  -31.3570 C   0  0  0  0  0  0  0  0  0  0  0  0
   -0.1930   20.1650  -30.4090 C   0  0  0  0  0  0  0  0  0  0  0  0
   -0.0420   19.8080  -28.6880 S   0  0  0  0  0  0  0  0  0  0  0  0
    1.0880   18.8380  -28.4650 O   0  0  0  0  0  0  0  0  0  0  0  0
    0.2680   21.0790  -27.9460 O   0  0  0  0  0  0  0  0  0  0  0  0
   -1.5470   19.1460  -28.1020 N   0  0  0  0  0  0  0  0  0  0  0  0
   -1.3650   18.4590  -26.8230 C   0  0  0  0  0  0  0  0  0  0  0  0
   -2.6950   18.5490  -26.0870 C   0  0  0  0  0  0  0  0  0  0  0  0
   -3.4630   19.6670  -26.7730 C   0  0  0  0  0  0  0  0  0  0  0  0
   -2.5220   20.2030  -27.8410 C   0  0  0  0  0  0  0  0  0  0  0  0
   -1.0110   21.2190  -30.8330 C   0  0  0  0  0  0  0  0  0  0  0  0
   -1.1390   21.5030  -32.1930 C   0  0  0  0  0  0  0  0  0  0  0  0
   -0.4590   20.7340  -33.1430 C   0  0  0  0  0  0  0  0  0  0  0  0
   -0.6250   21.0370  -34.4880 O   0  0  0  0  0  0  0  0  0  0  0  0
   -1.9850   17.5860  -34.2340 C   0  0  0  0  0  0  0  0  0  0  0  0
   -3.5834   20.0706  -32.7868 H   0  0  0  0  0  0  0  0  0  0  0  0
   -3.0239   19.3604  -34.3389 H   0  0  0  0  0  0  0  0  0  0  0  0
   -3.9662   20.8897  -34.3389 H   0  0  0  0  0  0  0  0  0  0  0  0
   -6.9079   19.1354  -32.8767 H   0  0  0  0  0  0  0  0  0  0  0  0
   -5.5416   18.2930  -32.0665 H   0  0  0  0  0  0  0  0  0  0  0  0
   -7.0700   21.6066  -32.8380 H   0  0  0  0  0  0  0  0  0  0  0  0
   -6.4591   23.6984  -31.6217 H   0  0  0  0  0  0  0  0  0  0  0  0
   -1.6283   24.1099  -30.1179 H   0  0  0  0  0  0  0  0  0  0  0  0
   -1.7936   25.6017  -29.1214 H   0  0  0  0  0  0  0  0  0  0  0  0
   -0.1626   23.1372  -28.6473 H   0  0  0  0  0  0  0  0  0  0  0  0
    0.1057   24.8581  -28.1266 H   0  0  0  0  0  0  0  0  0  0  0  0
   -1.4780   22.6633  -26.7647 H   0  0  0  0  0  0  0  0  0  0  0  0
   -0.2285   23.7852  -26.0945 H   0  0  0  0  0  0  0  0  0  0  0  0
   -2.5423   24.3360  -25.3214 H   0  0  0  0  0  0  0  0  0  0  0  0
   -1.7618   25.6668  -26.2749 H   0  0  0  0  0  0  0  0  0  0  0  0
   -4.2295   24.1439  -26.8256 H   0  0  0  0  0  0  0  0  0  0  0  0
   -3.6337   25.7201  -27.5020 H   0  0  0  0  0  0  0  0  0  0  0  0
   -3.2882   21.5833  -29.5691 H   0  0  0  0  0  0  0  0  0  0  0  0
   -3.8840   19.4939  -30.7957 H   0  0  0  0  0  0  0  0  0  0  0  0
   -4.0228   15.2062  -32.8563 H   0  0  0  0  0  0  0  0  0  0  0  0
   -1.8134   14.3161  -32.1252 H   0  0  0  0  0  0  0  0  0  0  0  0
    0.2893   15.4730  -32.7987 H   0  0  0  0  0  0  0  0  0  0  0  0
    1.1088   18.5448  -31.0228 H   0  0  0  0  0  0  0  0  0  0  0  0
   -1.0958   17.4061  -26.9928 H   0  0  0  0  0  0  0  0  0  0  0  0
   -0.5558   18.9195  -26.2372 H   0  0  0  0  0  0  0  0  0  0  0  0
   -3.2442   17.5993  -26.1677 H   0  0  0  0  0  0  0  0  0  0  0  0
   -2.5554   18.7479  -25.0142 H   0  0  0  0  0  0  0  0  0  0  0  0
   -4.3839   19.2772  -27.2312 H   0  0  0  0  0  0  0  0  0  0  0  0
   -3.7677   20.4507  -26.0638 H   0  0  0  0  0  0  0  0  0  0  0  0
   -3.0822   20.4383  -28.7579 H   0  0  0  0  0  0  0  0  0  0  0  0
   -2.0275   21.1276  -27.5084 H   0  0  0  0  0  0  0  0  0  0  0  0
   -1.5540   21.8245  -30.0924 H   0  0  0  0  0  0  0  0  0  0  0  0
   -1.7783   22.3363  -32.5199 H   0  0  0  0  0  0  0  0  0  0  0  0
   -2.0336   18.5161  -34.8193 H   0  0  0  0  0  0  0  0  0  0  0  0
  1  2  1  0
  2  3  1  0
  3  4  1  0
  4  5  2  0
  5  6  1  0
  6  7  2  0
  7  8  1  0
  8  9  2  0
  8 10  2  0
  8 11  1  0
 11 12  1  0
 12 13  1  0
 13 14  1  0
 14 15  1  0
 15 16  1  0
  7 17  1  0
 17 18  2  0
  2 19  1  0
 19 20  2  0
 19 21  2  0
 19 22  1  0
 22 23  2  0
 23 24  1  0
 24 25  2  0
 25 26  1  0
 26 27  1  0
 27 28  1  0
 28 29  2  0
 28 30  1  0
 30 31  2  0
 31 32  1  0
 32 33  1  0
 33 34  2  0
 33 35  2  0
 33 36  1  0
 36 37  1  0
 37 38  1  0
 38 39  1  0
 39 40  1  0
 32 41  2  0
 41 42  1  0
 42 43  2  0
 43 44  1  0
 26 45  2  0
 18  4  1  0
 45 22  1  0
 16 11  1  0
 43 30  1  0
 40 36  1  0
  1 46  1  0
  1 47  1  0
  1 48  1  0
  3 49  1  0
  3 50  1  0
  5 51  1  0
  6 52  1  0
 12 53  1  0
 12 54  1  0
 13 55  1  0
 13 56  1  0
 14 57  1  0
 14 58  1  0
 15 59  1  0
 15 60  1  0
 16 61  1  0
 16 62  1  0
 17 63  1  0
 18 64  1  0
 23 65  1  0
 24 66  1  0
 25 67  1  0
 31 68  1  0
 37 69  1  0
 37 70  1  0
 38 71  1  0
 38 72  1  0
 39 73  1  0
 39 74  1  0
 40 75  1  0
 40 76  1  0
 41 77  1  0
 42 78  1  0
 45 79  1  0
M  CHG  2  27  -1  44  -1
M  END
>  <UniqueID>  (15) 
15

>  <SMILES>  (15) 
CN(Cc1ccc(S(=O)(=O)N2CCCCC2)cc1)S(=O)(=O)c1cccc([N-]C(=O)c2cc(S(=O)(=O)N3CCCC3)ccc2[O-])c1

>  <Energy>  (15) 
92.92243943023814

>  <Genealogy>  (15) 
CN(Cc1ccc(S(=O)(=O)N2CCCCC2)cc1)S(=O)(=O)c1cccc([N-]C(=O)c2cc(S(=O)(=O)N3CCCC3)ccc2[O-])c1 (protonated)
CN(Cc1ccc(S(=O)(=O)N2CCCCC2)cc1)S(=O)(=O)c1cccc([N-]C(=O)c2cc(S(=O)(=O)N3CCCC3)ccc2[O-])c1 (3D coordinates assigned)
CN(Cc1ccc(S(=O)(=O)N2CCCCC2)cc1)S(=O)(=O)c1cccc([N-]C(=O)c2cc(S(=O)(=O)N3CCCC3)ccc2[O-])c1 (nonaromatic ring conformer: 92.92243943023814 kcal/mol)

>  <smiles>  (15) 
CN(Cc1ccc(S(=O)(=O)N2CCCCC2)cc1)S(=O)(=O)c1cccc(NC(=O)c2cc(S(=O)(=O)N3CCCC3)ccc2O)c1

>  <score_type>  (15) 
oracle

>  <origin>  (15) 
adgpu

>  <m_score__min__energy>  (15) 
-16.52

>  <m_primary>  (15) 
energy

$$$$
15:0
     RDKit          3D

 58 61  0  0  0  0  0  0  0  0999 V2000
   -1.0290   24.1870  -27.4440 C   0  0  0  0  0  0  0  0  0  0  0  0
   -2.0750   24.2320  -28.5110 C   0  0  0  0  0  0  0  0  0  0  0  0
   -2.2360   25.2740  -29.3450 N   0  0  0  0  0  0  0  0  0  0  0  0
   -3.3210   25.0600  -30.0730 N   0  0  0  0  0  0  0  0  0  0  0  0
   -3.8740   23.8800  -29.7160 C   0  0  0  0  0  0  0  0  0  0  0  0
   -5.1840   23.4260  -30.2580 C   0  0  0  0  0  0  0  0  0  0  0  0
   -6.1310   22.8690  -29.3790 C   0  0  0  0  0  0  0  0  0  0  0  0
   -7.3710   22.4280  -29.8460 C   0  0  0  0  0  0  0  0  0  0  0  0
   -7.6940   22.5410  -31.2040 C   0  0  0  0  0  0  0  0  0  0  0  0
   -9.2560   21.9680  -31.7790 S   0  0  0  0  0  0  0  0  0  0  0  0
   -9.0460   20.4240  -32.6380 C   0  0  0  0  0  0  0  0  0  0  0  0
   -9.8480   22.9900  -32.7090 O   0  0  0  0  0  0  0  0  0  0  0  0
  -10.1950   21.7600  -30.6220 O   0  0  0  0  0  0  0  0  0  0  0  0
   -6.7670   23.1070  -32.0850 C   0  0  0  0  0  0  0  0  0  0  0  0
   -5.5250   23.5490  -31.6180 C   0  0  0  0  0  0  0  0  0  0  0  0
   -3.0840   23.3090  -28.7180 C   0  0  0  0  0  0  0  0  0  0  0  0
   -3.3430   22.1320  -27.8710 C   0  0  0  0  0  0  0  0  0  0  0  0
   -3.0290   20.9140  -28.2140 N   0  0  0  0  0  0  0  0  0  0  0  0
   -2.3640   20.4920  -29.4170 C   0  0  0  0  0  0  0  0  0  0  0  0
   -1.1130   19.8490  -29.3940 C   0  0  0  0  0  0  0  0  0  0  0  0
   -0.4970   19.4680  -30.5880 C   0  0  0  0  0  0  0  0  0  0  0  0
   -1.1290   19.7080  -31.8110 C   0  0  0  0  0  0  0  0  0  0  0  0
   -2.3930   20.3120  -31.8450 C   0  0  0  0  0  0  0  0  0  0  0  0
   -3.1740   20.6540  -33.3890 S   0  0  0  0  0  0  0  0  0  0  0  0
   -3.6440   22.0820  -33.4020 O   0  0  0  0  0  0  0  0  0  0  0  0
   -2.1720   20.4860  -34.4970 O   0  0  0  0  0  0  0  0  0  0  0  0
   -4.5400   19.5990  -33.6590 N   0  0  0  0  0  0  0  0  0  0  0  0
   -4.0790   18.2940  -34.1650 C   0  0  0  0  0  0  0  0  0  0  0  0
   -5.2810   17.4030  -34.4900 C   0  0  0  0  0  0  0  0  0  0  0  0
   -6.1620   17.2210  -33.2500 C   0  0  0  0  0  0  0  0  0  0  0  0
   -6.5460   18.5780  -32.6520 C   0  0  0  0  0  0  0  0  0  0  0  0
   -5.2940   19.4260  -32.4040 C   0  0  0  0  0  0  0  0  0  0  0  0
   -3.0140   20.6830  -30.6440 C   0  0  0  0  0  0  0  0  0  0  0  0
   -1.5120   24.2078  -26.4559 H   0  0  0  0  0  0  0  0  0  0  0  0
   -0.4413   23.2627  -27.5455 H   0  0  0  0  0  0  0  0  0  0  0  0
   -0.3640   25.0574  -27.5455 H   0  0  0  0  0  0  0  0  0  0  0  0
   -5.8913   22.7797  -28.3092 H   0  0  0  0  0  0  0  0  0  0  0  0
   -8.0966   21.9903  -29.1447 H   0  0  0  0  0  0  0  0  0  0  0  0
   -8.9352   19.6097  -31.9068 H   0  0  0  0  0  0  0  0  0  0  0  0
   -9.9264   20.2328  -33.2691 H   0  0  0  0  0  0  0  0  0  0  0  0
   -8.1465   20.4749  -33.2691 H   0  0  0  0  0  0  0  0  0  0  0  0
   -7.0163   23.2052  -33.1519 H   0  0  0  0  0  0  0  0  0  0  0  0
   -4.8073   23.9974  -32.3208 H   0  0  0  0  0  0  0  0  0  0  0  0
   -3.8277   22.2893  -26.8961 H   0  0  0  0  0  0  0  0  0  0  0  0
   -0.6185   19.6457  -28.4327 H   0  0  0  0  0  0  0  0  0  0  0  0
    0.4876   18.9780  -30.5657 H   0  0  0  0  0  0  0  0  0  0  0  0
   -0.6327   19.4219  -32.7500 H   0  0  0  0  0  0  0  0  0  0  0  0
   -3.4822   18.4470  -35.0763 H   0  0  0  0  0  0  0  0  0  0  0  0
   -3.4652   17.8047  -33.3943 H   0  0  0  0  0  0  0  0  0  0  0  0
   -5.8734   17.8712  -35.2899 H   0  0  0  0  0  0  0  0  0  0  0  0
   -4.9167   16.4177  -34.8165 H   0  0  0  0  0  0  0  0  0  0  0  0
   -7.0768   16.6800  -33.5337 H   0  0  0  0  0  0  0  0  0  0  0  0
   -5.5980   16.6507  -32.4972 H   0  0  0  0  0  0  0  0  0  0  0  0
   -7.2097   19.1075  -33.3514 H   0  0  0  0  0  0  0  0  0  0  0  0
   -7.0607   18.4129  -31.6940 H   0  0  0  0  0  0  0  0  0  0  0  0
   -5.5934   20.4127  -32.0209 H   0  0  0  0  0  0  0  0  0  0  0  0
   -4.6547   18.9160  -31.6684 H   0  0  0  0  0  0  0  0  0  0  0  0
   -4.0199   21.1277  -30.6649 H   0  0  0  0  0  0  0  0  0  0  0  0
  1  2  1  0
  2  3  1  0
  3  4  1  0
  4  5  2  0
  5  6  1  0
  6  7  2  0
  7  8  1  0
  8  9  2  0
  9 10  1  0
 10 11  1  0
 10 12  2  0
 10 13  2  0
  9 14  1  0
 14 15  2  0
  5 16  1  0
 16 17  1  0
 17 18  2  3
 18 19  1  0
 19 20  2  0
 20 21  1  0
 21 22  2  0
 22 23  1  0
 23 24  1  0
 24 25  2  0
 24 26  2  0
 24 27  1  0
 27 28  1  0
 28 29  1  0
 29 30  1  0
 30 31  1  0
 31 32  1  0
 23 33  2  0
 16  2  2  0
 33 19  1  0
 15  6  1  0
 32 27  1  0
  1 34  1  0
  1 35  1  0
  1 36  1  0
  7 37  1  0
  8 38  1  0
 11 39  1  0
 11 40  1  0
 11 41  1  0
 14 42  1  0
 15 43  1  0
 17 44  1  0
 20 45  1  0
 21 46  1  0
 22 47  1  0
 28 48  1  0
 28 49  1  0
 29 50  1  0
 29 51  1  0
 30 52  1  0
 30 53  1  0
 31 54  1  0
 31 55  1  0
 32 56  1  0
 32 57  1  0
 33 58  1  0
M  CHG  1   3  -1
M  END
>  <UniqueID>  (16) 
16

>  <SMILES>  (16) 
Cc1[n-]nc(-c2ccc(S(C)(=O)=O)cc2)c1C=Nc1cccc(S(=O)(=O)N2CCCCC2)c1

>  <Energy>  (16) 
95.62886298749909

>  <Genealogy>  (16) 
Cc1[n-]nc(-c2ccc(S(C)(=O)=O)cc2)c1C=Nc1cccc(S(=O)(=O)N2CCCCC2)c1 (protonated)
Cc1[n-]nc(-c2ccc(S(C)(=O)=O)cc2)c1C=Nc1cccc(S(=O)(=O)N2CCCCC2)c1 (3D coordinates assigned)
Cc1[n-]nc(-c2ccc(S(C)(=O)=O)cc2)c1C=Nc1cccc(S(=O)(=O)N2CCCCC2)c1 (nonaromatic ring conformer: 95.62886298749909 kcal/mol)

>  <smiles>  (16) 
Cc1[nH]nc(-c2ccc(S(C)(=O)=O)cc2)c1C=Nc1cccc(S(=O)(=O)N2CCCCC2)c1

>  <score_type>  (16) 
oracle

>  <origin>  (16) 
adgpu

>  <m_score__min__energy>  (16) 
-12.27

>  <m_primary>  (16) 
energy

$$$$
16:0
     RDKit          3D

 72 76  0  0  0  0  0  0  0  0999 V2000
   -3.5860   21.2520  -32.6780 O   0  0  0  0  0  0  0  0  0  0  0  0
   -2.6720   21.5880  -31.8820 C   0  0  0  0  0  0  0  0  0  0  0  0
   -2.8930   22.6490  -30.9360 N   0  0  0  0  0  0  0  0  0  0  0  0
   -4.1620   23.2970  -30.7730 C   0  0  0  0  0  0  0  0  0  0  0  0
   -5.3320   22.6000  -31.1080 C   0  0  0  0  0  0  0  0  0  0  0  0
   -6.5930   23.2000  -30.9640 C   0  0  0  0  0  0  0  0  0  0  0  0
   -8.0450   22.2970  -31.4430 S   0  0  0  0  0  0  0  0  0  0  0  0
   -8.8390   21.9720  -30.2060 O   0  0  0  0  0  0  0  0  0  0  0  0
   -8.8830   23.1850  -32.3240 O   0  0  0  0  0  0  0  0  0  0  0  0
   -7.7380   20.8280  -32.3490 N   0  0  0  0  0  0  0  0  0  0  0  0
   -8.9520   20.0640  -32.6520 C   0  0  0  0  0  0  0  0  0  0  0  0
   -8.6730   18.5990  -32.3270 C   0  0  0  0  0  0  0  0  0  0  0  0
   -7.1820   18.5240  -32.0740 C   0  0  0  0  0  0  0  0  0  0  0  0
   -6.8010   19.9320  -31.6670 C   0  0  0  0  0  0  0  0  0  0  0  0
   -6.6700   24.5160  -30.4870 C   0  0  0  0  0  0  0  0  0  0  0  0
   -5.5100   25.2070  -30.1180 C   0  0  0  0  0  0  0  0  0  0  0  0
   -4.2600   24.6000  -30.2490 C   0  0  0  0  0  0  0  0  0  0  0  0
   -3.1250   25.2870  -29.8350 O   0  0  0  0  0  0  0  0  0  0  0  0
   -1.3800   20.8670  -31.9220 C   0  0  0  0  0  0  0  0  0  0  0  0
   -0.8760   20.3970  -33.1490 C   0  0  0  0  0  0  0  0  0  0  0  0
    0.3730   19.7610  -33.2160 C   0  0  0  0  0  0  0  0  0  0  0  0
    0.9680   19.1480  -34.7640 S   0  0  0  0  0  0  0  0  0  0  0  0
   -0.1540   18.4020  -35.4380 O   0  0  0  0  0  0  0  0  0  0  0  0
    2.1010   18.1870  -34.5200 O   0  0  0  0  0  0  0  0  0  0  0  0
    1.4930   20.4680  -35.7950 N   0  0  0  0  0  0  0  0  0  0  0  0
    0.3400   21.2570  -36.3160 C   0  0  0  0  0  0  0  0  0  0  0  0
    0.2650   22.6890  -35.7610 C   0  0  0  0  0  0  0  0  0  0  0  0
    1.5720   23.4500  -36.0310 C   0  0  0  0  0  0  0  0  0  0  0  0
    2.8230   22.5640  -35.8690 C   0  0  0  0  0  0  0  0  0  0  0  0
    2.5160   21.2760  -35.0970 C   0  0  0  0  0  0  0  0  0  0  0  0
    1.1260   19.6040  -32.0460 C   0  0  0  0  0  0  0  0  0  0  0  0
    0.6330   20.0600  -30.8230 C   0  0  0  0  0  0  0  0  0  0  0  0
   -0.6180   20.6840  -30.7480 C   0  0  0  0  0  0  0  0  0  0  0  0
   -1.1420   21.0570  -29.4650 N   0  0  0  0  0  0  0  0  0  0  0  0
   -2.0220   20.1010  -28.7820 C   0  0  0  0  0  0  0  0  0  0  0  0
   -2.6810   20.7080  -27.5320 C   0  0  0  0  0  0  0  0  0  0  0  0
   -1.7800   21.5100  -26.8010 O   0  0  0  0  0  0  0  0  0  0  0  0
   -1.4160   22.6250  -27.5870 C   0  0  0  0  0  0  0  0  0  0  0  0
   -0.5330   22.1860  -28.7550 C   0  0  0  0  0  0  0  0  0  0  0  0
   -2.1510   22.8580  -30.2310 H   0  0  0  0  0  0  0  0  0  0  0  0
   -5.2607   21.5703  -31.4883 H   0  0  0  0  0  0  0  0  0  0  0  0
   -9.7882   20.4309  -32.0387 H   0  0  0  0  0  0  0  0  0  0  0  0
   -9.2239   20.1780  -33.7118 H   0  0  0  0  0  0  0  0  0  0  0  0
   -9.2320   18.2896  -31.4316 H   0  0  0  0  0  0  0  0  0  0  0  0
   -8.9851   17.9308  -33.1431 H   0  0  0  0  0  0  0  0  0  0  0  0
   -6.9590   17.8110  -31.2666 H   0  0  0  0  0  0  0  0  0  0  0  0
   -6.6230   18.1750  -32.9548 H   0  0  0  0  0  0  0  0  0  0  0  0
   -6.8877   20.0494  -30.5767 H   0  0  0  0  0  0  0  0  0  0  0  0
   -5.7605   20.1588  -31.9425 H   0  0  0  0  0  0  0  0  0  0  0  0
   -7.6495   25.0093  -30.4021 H   0  0  0  0  0  0  0  0  0  0  0  0
   -5.5837   26.2312  -29.7237 H   0  0  0  0  0  0  0  0  0  0  0  0
   -1.4682   20.5298  -34.0664 H   0  0  0  0  0  0  0  0  0  0  0  0
    0.4256   21.3138  -37.4112 H   0  0  0  0  0  0  0  0  0  0  0  0
   -0.5746   20.7396  -35.9908 H   0  0  0  0  0  0  0  0  0  0  0  0
   -0.5677   23.2200  -36.2454 H   0  0  0  0  0  0  0  0  0  0  0  0
    0.1064   22.6370  -34.6737 H   0  0  0  0  0  0  0  0  0  0  0  0
    1.5468   23.8379  -37.0600 H   0  0  0  0  0  0  0  0  0  0  0  0
    1.6422   24.2609  -35.2911 H   0  0  0  0  0  0  0  0  0  0  0  0
    3.2022   22.2985  -36.8668 H   0  0  0  0  0  0  0  0  0  0  0  0
    3.5717   23.1329  -35.2982 H   0  0  0  0  0  0  0  0  0  0  0  0
    3.4387   20.6845  -35.0036 H   0  0  0  0  0  0  0  0  0  0  0  0
    2.1288   21.5478  -34.1039 H   0  0  0  0  0  0  0  0  0  0  0  0
    2.1119   19.1183  -32.0913 H   0  0  0  0  0  0  0  0  0  0  0  0
    1.2323   19.9281  -29.9101 H   0  0  0  0  0  0  0  0  0  0  0  0
   -2.8110   19.7847  -29.4801 H   0  0  0  0  0  0  0  0  0  0  0  0
   -1.4074   19.2478  -28.4589 H   0  0  0  0  0  0  0  0  0  0  0  0
   -3.5350   21.3267  -27.8448 H   0  0  0  0  0  0  0  0  0  0  0  0
   -3.0073   19.8821  -26.8828 H   0  0  0  0  0  0  0  0  0  0  0  0
   -2.3249   23.1044  -27.9796 H   0  0  0  0  0  0  0  0  0  0  0  0
   -0.8550   23.3353  -26.9619 H   0  0  0  0  0  0  0  0  0  0  0  0
   -0.4104   23.0280  -29.4521 H   0  0  0  0  0  0  0  0  0  0  0  0
    0.4454   21.8723  -28.3622 H   0  0  0  0  0  0  0  0  0  0  0  0
  1  2  2  0
  2  3  1  0
  3  4  1  0
  4  5  2  0
  5  6  1  0
  6  7  1  0
  7  8  2  0
  7  9  2  0
  7 10  1  0
 10 11  1  0
 11 12  1  0
 12 13  1  0
 13 14  1  0
  6 15  2  0
 15 16  1  0
 16 17  2  0
 17 18  1  0
  2 19  1  0
 19 20  2  0
 20 21  1  0
 21 22  1  0
 22 23  2  0
 22 24  2  0
 22 25  1  0
 25 26  1  0
 26 27  1  0
 27 28  1  0
 28 29  1  0
 29 30  1  0
 21 31  2  0
 31 32  1  0
 32 33  2  0
 33 34  1  0
 34 35  1  0
 35 36  1  0
 36 37  1  0
 37 38  1  0
 38 39  1  0
 17  4  1  0
 33 19  1  0
 39 34  1  0
 14 10  1  0
 30 25  1  0
  3 40  1  0
  5 41  1  0
 11 42  1  0
 11 43  1  0
 12 44  1  0
 12 45  1  0
 13 46  1  0
 13 47  1  0
 14 48  1  0
 14 49  1  0
 15 50  1  0
 16 51  1  0
 20 52  1  0
 26 53  1  0
 26 54  1  0
 27 55  1  0
 27 56  1  0
 28 57  1  0
 28 58  1  0
 29 59  1  0
 29 60  1  0
 30 61  1  0
 30 62  1  0
 31 63  1  0
 32 64  1  0
 35 65  1  0
 35 66  1  0
 36 67  1  0
 36 68  1  0
 38 69  1  0
 38 70  1  0
 39 71  1  0
 39 72  1  0
M  CHG  1  18  -1
M  END
>  <UniqueID>  (17) 
17

>  <SMILES>  (17) 
O=C(Nc1cc(S(=O)(=O)N2CCCC2)ccc1[O-])c1cc(S(=O)(=O)N2CCCCC2)ccc1N1CCOCC1

>  <Energy>  (17) 
103.03389892194988

>  <Genealogy>  (17) 
O=C(Nc1cc(S(=O)(=O)N2CCCC2)ccc1[O-])c1cc(S(=O)(=O)N2CCCCC2)ccc1N1CCOCC1 (protonated)
O=C(Nc1cc(S(=O)(=O)N2CCCC2)ccc1[O-])c1cc(S(=O)(=O)N2CCCCC2)ccc1N1CCOCC1 (3D coordinates assigned)
O=C(Nc1cc(S(=O)(=O)N2CCCC2)ccc1[O-])c1cc(S(=O)(=O)N2CCCCC2)ccc1N1CCOCC1 (nonaromatic ring conformer: 103.03389892194988 kcal/mol)

>  <smiles>  (17) 
O=C(Nc1cc(S(=O)(=O)N2CCCC2)ccc1O)c1cc(S(=O)(=O)N2CCCCC2)ccc1N1CCOCC1

>  <score_type>  (17) 
oracle

>  <origin>  (17) 
adgpu

>  <m_score__min__energy>  (17) 
-13.789999999999999

>  <m_primary>  (17) 
energy

$$$$
17:0
     RDKit          3D

 64 67  0  0  0  0  0  0  0  0999 V2000
   -1.0050   18.8890  -34.3770 C   0  0  0  0  0  0  0  0  0  0  0  0
   -2.1860   18.0660  -33.9760 C   0  0  0  0  0  0  0  0  0  0  0  0
   -2.6020   18.1120  -32.7880 O   0  0  0  0  0  0  0  0  0  0  0  0
   -2.8300   17.2220  -34.9400 N   0  0  0  0  0  0  0  0  0  0  0  0
   -4.0080   16.4180  -34.6190 C   0  0  0  0  0  0  0  0  0  0  0  0
   -5.0830   17.2840  -34.0220 C   0  0  0  0  0  0  0  0  0  0  0  0
   -5.7480   16.8900  -32.8480 C   0  0  0  0  0  0  0  0  0  0  0  0
   -6.7150   17.7200  -32.2730 C   0  0  0  0  0  0  0  0  0  0  0  0
   -7.0310   18.9500  -32.8660 C   0  0  0  0  0  0  0  0  0  0  0  0
   -8.2060   20.0190  -32.1110 S   0  0  0  0  0  0  0  0  0  0  0  0
   -8.7830   19.3720  -30.8820 O   0  0  0  0  0  0  0  0  0  0  0  0
   -9.3300   20.2910  -33.0730 O   0  0  0  0  0  0  0  0  0  0  0  0
   -7.3970   21.5170  -31.6680 C   0  0  0  0  0  0  0  0  0  0  0  0
   -8.1300   22.6940  -31.4650 C   0  0  0  0  0  0  0  0  0  0  0  0
   -7.4710   23.8880  -31.1550 C   0  0  0  0  0  0  0  0  0  0  0  0
   -6.0710   23.9190  -31.0520 C   0  0  0  0  0  0  0  0  0  0  0  0
   -5.3660   25.2060  -30.7280 C   0  0  0  0  0  0  0  0  0  0  0  0
   -3.9210   25.0340  -30.8250 N   0  0  0  0  0  0  0  0  0  0  0  0
   -3.1040   24.5560  -29.7510 C   0  0  0  0  0  0  0  0  0  0  0  0
   -3.3720   23.4600  -29.1900 O   0  0  0  0  0  0  0  0  0  0  0  0
   -1.9410   25.2830  -29.3390 N   0  0  0  0  0  0  0  0  0  0  0  0
   -1.6170   25.6770  -27.9990 C   0  0  0  0  0  0  0  0  0  0  0  0
   -2.0210   24.9230  -26.8820 C   0  0  0  0  0  0  0  0  0  0  0  0
   -1.6790   25.3370  -25.5910 C   0  0  0  0  0  0  0  0  0  0  0  0
   -0.9070   26.4920  -25.4080 C   0  0  0  0  0  0  0  0  0  0  0  0
   -0.4740   27.2250  -26.5150 C   0  0  0  0  0  0  0  0  0  0  0  0
   -0.8310   26.8200  -27.8080 C   0  0  0  0  0  0  0  0  0  0  0  0
    0.3060   28.4790  -26.2630 C   0  0  0  0  0  0  0  0  0  0  0  0
    1.3370   28.2710  -25.1340 C   0  0  0  0  0  0  0  0  0  0  0  0
    0.8710   27.4150  -24.0000 N   0  0  0  0  0  0  0  0  0  0  0  0
    1.1760   28.0520  -22.7060 C   0  0  0  0  0  0  0  0  0  0  0  0
   -0.5520   27.0140  -24.0450 C   0  0  0  0  0  0  0  0  0  0  0  0
   -5.3420   22.7350  -31.2440 C   0  0  0  0  0  0  0  0  0  0  0  0
   -6.0010   21.5440  -31.5550 C   0  0  0  0  0  0  0  0  0  0  0  0
   -6.3600   19.3520  -34.0290 C   0  0  0  0  0  0  0  0  0  0  0  0
   -5.3920   18.5230  -34.6040 C   0  0  0  0  0  0  0  0  0  0  0  0
   -0.4869   19.2501  -33.4763 H   0  0  0  0  0  0  0  0  0  0  0  0
   -0.3159   18.2745  -34.9749 H   0  0  0  0  0  0  0  0  0  0  0  0
   -1.3429   19.7483  -34.9749 H   0  0  0  0  0  0  0  0  0  0  0  0
   -2.4470   17.1760  -35.9100 H   0  0  0  0  0  0  0  0  0  0  0  0
   -4.3886   15.9486  -35.5381 H   0  0  0  0  0  0  0  0  0  0  0  0
   -3.7257   15.6440  -33.8902 H   0  0  0  0  0  0  0  0  0  0  0  0
   -5.5065   15.9244  -32.3796 H   0  0  0  0  0  0  0  0  0  0  0  0
   -7.2293   17.4068  -31.3525 H   0  0  0  0  0  0  0  0  0  0  0  0
   -9.2266   22.6787  -31.5497 H   0  0  0  0  0  0  0  0  0  0  0  0
   -8.0523   24.8073  -30.9911 H   0  0  0  0  0  0  0  0  0  0  0  0
   -5.6867   25.9832  -31.4373 H   0  0  0  0  0  0  0  0  0  0  0  0
   -5.6212   25.5030  -29.7001 H   0  0  0  0  0  0  0  0  0  0  0  0
   -2.6084   24.0040  -27.0249 H   0  0  0  0  0  0  0  0  0  0  0  0
   -2.0158   24.7564  -24.7195 H   0  0  0  0  0  0  0  0  0  0  0  0
   -0.4922   27.4028  -28.6772 H   0  0  0  0  0  0  0  0  0  0  0  0
    0.8343   28.7654  -27.1844 H   0  0  0  0  0  0  0  0  0  0  0  0
   -0.3932   29.2714  -25.9577 H   0  0  0  0  0  0  0  0  0  0  0  0
    2.2307   27.8013  -25.5708 H   0  0  0  0  0  0  0  0  0  0  0  0
    1.5297   29.2665  -24.7076 H   0  0  0  0  0  0  0  0  0  0  0  0
    0.8587   27.3894  -21.8873 H   0  0  0  0  0  0  0  0  0  0  0  0
    2.2585   28.2331  -22.6326 H   0  0  0  0  0  0  0  0  0  0  0  0
    0.6384   29.0088  -22.6326 H   0  0  0  0  0  0  0  0  0  0  0  0
   -0.7303   26.2267  -23.2978 H   0  0  0  0  0  0  0  0  0  0  0  0
   -1.1769   27.8923  -23.8258 H   0  0  0  0  0  0  0  0  0  0  0  0
   -4.2462   22.7455  -31.1490 H   0  0  0  0  0  0  0  0  0  0  0  0
   -5.4212   20.6225  -31.7120 H   0  0  0  0  0  0  0  0  0  0  0  0
   -6.5956   20.3223  -34.4906 H   0  0  0  0  0  0  0  0  0  0  0  0
   -4.8698   18.8437  -35.5175 H   0  0  0  0  0  0  0  0  0  0  0  0
  1  2  1  0
  2  3  2  0
  2  4  1  0
  4  5  1  0
  5  6  1  0
  6  7  2  0
  7  8  1  0
  8  9  2  0
  9 10  1  0
 10 11  2  0
 10 12  2  0
 10 13  1  0
 13 14  2  0
 14 15  1  0
 15 16  2  0
 16 17  1  0
 17 18  1  0
 18 19  1  0
 19 20  2  0
 19 21  1  0
 21 22  1  0
 22 23  2  0
 23 24  1  0
 24 25  2  0
 25 26  1  0
 26 27  2  0
 26 28  1  0
 28 29  1  0
 29 30  1  0
 30 31  1  0
 30 32  1  0
 16 33  1  0
 33 34  2  0
  9 35  1  0
 35 36  2  0
 36  6  1  0
 34 13  1  0
 27 22  1  0
 32 25  1  0
  1 37  1  0
  1 38  1  0
  1 39  1  0
  4 40  1  0
  5 41  1  0
  5 42  1  0
  7 43  1  0
  8 44  1  0
 14 45  1  0
 15 46  1  0
 17 47  1  0
 17 48  1  0
 23 49  1  0
 24 50  1  0
 27 51  1  0
 28 52  1  0
 28 53  1  0
 29 54  1  0
 29 55  1  0
 31 56  1  0
 31 57  1  0
 31 58  1  0
 32 59  1  0
 32 60  1  0
 33 61  1  0
 34 62  1  0
 35 63  1  0
 36 64  1  0
M  CHG  2  18  -1  21  -1
M  END
>  <UniqueID>  (18) 
18

>  <SMILES>  (18) 
CC(=O)NCc1ccc(S(=O)(=O)c2ccc(C[N-]C(=O)[N-]c3ccc4c(c3)CCN(C)C4)cc2)cc1

>  <Energy>  (18) 
75.2025097832997

>  <Genealogy>  (18) 
CC(=O)NCc1ccc(S(=O)(=O)c2ccc(C[N-]C(=O)[N-]c3ccc4c(c3)CCN(C)C4)cc2)cc1 (protonated)
CC(=O)NCc1ccc(S(=O)(=O)c2ccc(C[N-]C(=O)[N-]c3ccc4c(c3)CCN(C)C4)cc2)cc1 (3D coordinates assigned)
CC(=O)NCc1ccc(S(=O)(=O)c2ccc(C[N-]C(=O)[N-]c3ccc4c(c3)CCN(C)C4)cc2)cc1 (nonaromatic ring conformer: 75.2025097832997 kcal/mol)

>  <smiles>  (18) 
CC(=O)NCc1ccc(S(=O)(=O)c2ccc(CNC(=O)Nc3ccc4c(c3)CCN(C)C4)cc2)cc1

>  <score_type>  (18) 
oracle

>  <origin>  (18) 
adgpu

>  <m_score__min__energy>  (18) 
-14.57

>  <m_primary>  (18) 
energy

$$$$
18:0
     RDKit          3D

 41 43  0  0  0  0  0  0  0  0999 V2000
   -2.0320   23.0260  -30.8650 O   0  0  0  0  0  0  0  0  0  0  0  0
   -2.6280   22.9240  -29.7610 C   0  0  0  0  0  0  0  0  0  0  0  0
   -3.9610   22.3950  -29.7460 N   0  0  0  0  0  0  0  0  0  0  0  0
   -5.0580   22.8790  -30.5330 C   0  0  0  0  0  0  0  0  0  0  0  0
   -6.1520   22.0310  -30.7410 C   0  0  0  0  0  0  0  0  0  0  0  0
   -7.2230   22.4330  -31.5510 C   0  0  0  0  0  0  0  0  0  0  0  0
   -8.5930   21.3510  -31.8110 S   0  0  0  0  0  0  0  0  0  0  0  0
   -9.7520   22.1410  -32.3530 O   0  0  0  0  0  0  0  0  0  0  0  0
   -9.0130   20.7610  -30.4930 O   0  0  0  0  0  0  0  0  0  0  0  0
   -8.2050   20.0550  -32.9250 N   0  0  0  0  0  0  0  0  0  0  0  0
   -8.4690   18.7440  -32.3240 C   0  0  0  0  0  0  0  0  0  0  0  0
   -7.1570   18.1880  -31.7910 C   0  0  0  0  0  0  0  0  0  0  0  0
   -6.0660   19.0370  -32.4140 C   0  0  0  0  0  0  0  0  0  0  0  0
   -6.7810   20.0670  -33.2760 C   0  0  0  0  0  0  0  0  0  0  0  0
   -7.1950   23.6940  -32.1570 C   0  0  0  0  0  0  0  0  0  0  0  0
   -6.1250   24.5600  -31.9270 C   0  0  0  0  0  0  0  0  0  0  0  0
   -5.0650   24.1760  -31.0990 C   0  0  0  0  0  0  0  0  0  0  0  0
   -4.0610   25.1080  -30.8330 O   0  0  0  0  0  0  0  0  0  0  0  0
   -1.9510   23.3770  -28.5210 C   0  0  0  0  0  0  0  0  0  0  0  0
   -1.6700   22.4590  -27.4930 C   0  0  0  0  0  0  0  0  0  0  0  0
   -1.0340   22.8800  -26.3210 C   0  0  0  0  0  0  0  0  0  0  0  0
   -0.6820   24.2200  -26.1590 C   0  0  0  0  0  0  0  0  0  0  0  0
   -0.9660   25.1450  -27.1670 C   0  0  0  0  0  0  0  0  0  0  0  0
   -1.5990   24.7320  -28.3450 C   0  0  0  0  0  0  0  0  0  0  0  0
   -1.8590   25.6700  -29.3390 O   0  0  0  0  0  0  0  0  0  0  0  0
   -6.1714   21.0398  -30.2643 H   0  0  0  0  0  0  0  0  0  0  0  0
   -9.1894   18.8513  -31.4996 H   0  0  0  0  0  0  0  0  0  0  0  0
   -8.8915   18.0613  -33.0760 H   0  0  0  0  0  0  0  0  0  0  0  0
   -7.1247   18.2669  -30.6943 H   0  0  0  0  0  0  0  0  0  0  0  0
   -7.0358   17.1240  -32.0426 H   0  0  0  0  0  0  0  0  0  0  0  0
   -5.4757   19.5363  -31.6315 H   0  0  0  0  0  0  0  0  0  0  0  0
   -5.3688   18.4273  -33.0075 H   0  0  0  0  0  0  0  0  0  0  0  0
   -6.3602   21.0657  -33.0877 H   0  0  0  0  0  0  0  0  0  0  0  0
   -6.6519   19.8241  -34.3411 H   0  0  0  0  0  0  0  0  0  0  0  0
   -8.0189   24.0037  -32.8167 H   0  0  0  0  0  0  0  0  0  0  0  0
   -6.1151   25.5527  -32.4007 H   0  0  0  0  0  0  0  0  0  0  0  0
   -3.1300   24.8440  -30.5430 H   0  0  0  0  0  0  0  0  0  0  0  0
   -1.9525   21.4026  -27.6118 H   0  0  0  0  0  0  0  0  0  0  0  0
   -0.8110   22.1535  -25.5257 H   0  0  0  0  0  0  0  0  0  0  0  0
   -0.1804   24.5488  -25.2369 H   0  0  0  0  0  0  0  0  0  0  0  0
   -0.6911   26.2018  -27.0342 H   0  0  0  0  0  0  0  0  0  0  0  0
  1  2  2  0
  2  3  1  0
  3  4  1  0
  4  5  2  0
  5  6  1  0
  6  7  1  0
  7  8  2  0
  7  9  2  0
  7 10  1  0
 10 11  1  0
 11 12  1  0
 12 13  1  0
 13 14  1  0
  6 15  2  0
 15 16  1  0
 16 17  2  0
 17 18  1  0
  2 19  1  0
 19 20  2  0
 20 21  1  0
 21 22  2  0
 22 23  1  0
 23 24  2  0
 24 25  1  0
 17  4  1  0
 24 19  1  0
 14 10  1  0
  5 26  1  0
 11 27  1  0
 11 28  1  0
 12 29  1  0
 12 30  1  0
 13 31  1  0
 13 32  1  0
 14 33  1  0
 14 34  1  0
 15 35  1  0
 16 36  1  0
 18 37  1  0
 20 38  1  0
 21 39  1  0
 22 40  1  0
 23 41  1  0
M  CHG  2   3  -1  25  -1
M  END
>  <UniqueID>  (19) 
19

>  <SMILES>  (19) 
O=C([N-]c1cc(S(=O)(=O)N2CCCC2)ccc1O)c1ccccc1[O-]

>  <Energy>  (19) 
53.47319000334958

>  <Genealogy>  (19) 
O=C([N-]c1cc(S(=O)(=O)N2CCCC2)ccc1O)c1ccccc1[O-] (protonated)
O=C([N-]c1cc(S(=O)(=O)N2CCCC2)ccc1O)c1ccccc1[O-] (3D coordinates assigned)
O=C([N-]c1cc(S(=O)(=O)N2CCCC2)ccc1O)c1ccccc1[O-] (nonaromatic ring conformer: 53.47319000334958 kcal/mol)

>  <smiles>  (19) 
O=C(Nc1cc(S(=O)(=O)N2CCCC2)ccc1O)c1ccccc1O

>  <score_type>  (19) 
oracle

>  <origin>  (19) 
adgpu

>  <m_score__min__energy>  (19) 
-12.81

>  <m_primary>  (19) 
energy

$$$$
19:0
     RDKit          3D

 52 55  0  0  0  0  0  0  0  0999 V2000
   -6.1220   25.7880  -29.6360 O   0  0  0  0  0  0  0  0  0  0  0  0
   -4.9780   24.8900  -30.0130 S   0  0  0  0  0  0  0  0  0  0  0  0
   -4.0210   25.6650  -30.8780 O   0  0  0  0  0  0  0  0  0  0  0  0
   -4.1640   24.3940  -28.5640 N   0  0  0  0  0  0  0  0  0  0  0  0
   -3.0330   23.5160  -28.4240 C   0  0  0  0  0  0  0  0  0  0  0  0
   -3.2790   22.2360  -27.9110 C   0  0  0  0  0  0  0  0  0  0  0  0
   -2.2410   21.3100  -27.7350 C   0  0  0  0  0  0  0  0  0  0  0  0
   -0.9320   21.6540  -28.1210 C   0  0  0  0  0  0  0  0  0  0  0  0
   -0.6740   22.9380  -28.6160 C   0  0  0  0  0  0  0  0  0  0  0  0
   -1.7090   23.8740  -28.7680 C   0  0  0  0  0  0  0  0  0  0  0  0
   -1.4030   25.1440  -29.2460 O   0  0  0  0  0  0  0  0  0  0  0  0
    0.2110   20.6920  -27.8990 C   0  0  0  0  0  0  0  0  0  0  0  0
   -0.2580   19.3040  -27.8020 N   0  0  0  0  0  0  0  0  0  0  0  0
   -1.2980   19.1840  -26.7750 C   0  0  0  0  0  0  0  0  0  0  0  0
   -2.5590   19.9290  -27.2220 C   0  0  0  0  0  0  0  0  0  0  0  0
   -5.6300   23.5000  -30.8790 C   0  0  0  0  0  0  0  0  0  0  0  0
   -4.7740   22.6410  -31.5790 C   0  0  0  0  0  0  0  0  0  0  0  0
   -5.2880   21.5330  -32.2550 C   0  0  0  0  0  0  0  0  0  0  0  0
   -6.6650   21.2730  -32.2370 C   0  0  0  0  0  0  0  0  0  0  0  0
   -7.3320   19.8800  -33.0840 S   0  0  0  0  0  0  0  0  0  0  0  0
   -8.8330   19.9850  -33.0610 O   0  0  0  0  0  0  0  0  0  0  0  0
   -6.8670   19.8790  -34.5130 O   0  0  0  0  0  0  0  0  0  0  0  0
   -6.8150   18.4130  -32.2800 N   0  0  0  0  0  0  0  0  0  0  0  0
   -5.3710   18.4440  -31.9520 C   0  0  0  0  0  0  0  0  0  0  0  0
   -4.5140   17.6510  -32.9570 C   0  0  0  0  0  0  0  0  0  0  0  0
   -5.0750   17.7330  -34.2470 O   0  0  0  0  0  0  0  0  0  0  0  0
   -6.2970   17.0150  -34.2990 C   0  0  0  0  0  0  0  0  0  0  0  0
   -7.1890   17.2130  -33.0500 C   0  0  0  0  0  0  0  0  0  0  0  0
   -7.5220   22.1360  -31.5430 C   0  0  0  0  0  0  0  0  0  0  0  0
   -7.0090   23.2480  -30.8720 C   0  0  0  0  0  0  0  0  0  0  0  0
   -4.3067   21.9517  -27.6409 H   0  0  0  0  0  0  0  0  0  0  0  0
    0.3542   23.2172  -28.8896 H   0  0  0  0  0  0  0  0  0  0  0  0
   -2.0570   25.6800  -29.8070 H   0  0  0  0  0  0  0  0  0  0  0  0
    0.9136   20.7728  -28.7415 H   0  0  0  0  0  0  0  0  0  0  0  0
    0.7012   20.9553  -26.9501 H   0  0  0  0  0  0  0  0  0  0  0  0
    0.5540   18.7120  -27.5060 H   0  0  0  0  0  0  0  0  0  0  0  0
   -1.5374   18.1215  -26.6205 H   0  0  0  0  0  0  0  0  0  0  0  0
   -0.9317   19.6227  -25.8351 H   0  0  0  0  0  0  0  0  0  0  0  0
   -3.0464   19.3548  -28.0237 H   0  0  0  0  0  0  0  0  0  0  0  0
   -3.2221   20.0323  -26.3504 H   0  0  0  0  0  0  0  0  0  0  0  0
   -3.6923   22.8400  -31.5963 H   0  0  0  0  0  0  0  0  0  0  0  0
   -4.6103   20.8621  -32.8033 H   0  0  0  0  0  0  0  0  0  0  0  0
   -5.0331   19.4908  -31.9509 H   0  0  0  0  0  0  0  0  0  0  0  0
   -5.2450   17.9739  -30.9655 H   0  0  0  0  0  0  0  0  0  0  0  0
   -3.4967   18.0690  -32.9761 H   0  0  0  0  0  0  0  0  0  0  0  0
   -4.4813   16.5962  -32.6465 H   0  0  0  0  0  0  0  0  0  0  0  0
   -6.8589   17.3496  -35.1835 H   0  0  0  0  0  0  0  0  0  0  0  0
   -6.0401   15.9464  -34.3442 H   0  0  0  0  0  0  0  0  0  0  0  0
   -8.2352   17.3129  -33.3747 H   0  0  0  0  0  0  0  0  0  0  0  0
   -7.0528   16.3383  -32.3971 H   0  0  0  0  0  0  0  0  0  0  0  0
   -8.6037   21.9371  -31.5263 H   0  0  0  0  0  0  0  0  0  0  0  0
   -7.6884   23.9277  -30.3368 H   0  0  0  0  0  0  0  0  0  0  0  0
  1  2  2  0
  2  3  2  0
  2  4  1  0
  4  5  1  0
  5  6  2  0
  6  7  1  0
  7  8  2  0
  8  9  1  0
  9 10  2  0
 10 11  1  0
  8 12  1  0
 12 13  1  0
 13 14  1  0
 14 15  1  0
  2 16  1  0
 16 17  2  0
 17 18  1  0
 18 19  2  0
 19 20  1  0
 20 21  2  0
 20 22  2  0
 20 23  1  0
 23 24  1  0
 24 25  1  0
 25 26  1  0
 26 27  1  0
 27 28  1  0
 19 29  1  0
 29 30  2  0
 10  5  1  0
 30 16  1  0
 15  7  1  0
 28 23  1  0
  6 31  1  0
  9 32  1  0
 11 33  1  0
 12 34  1  0
 12 35  1  0
 13 36  1  0
 14 37  1  0
 14 38  1  0
 15 39  1  0
 15 40  1  0
 17 41  1  0
 18 42  1  0
 24 43  1  0
 24 44  1  0
 25 45  1  0
 25 46  1  0
 27 47  1  0
 27 48  1  0
 28 49  1  0
 28 50  1  0
 29 51  1  0
 30 52  1  0
M  CHG  1   4  -1
M  END
>  <UniqueID>  (20) 
20

>  <SMILES>  (20) 
O=S(=O)([N-]c1cc2c(cc1O)CNCC2)c1ccc(S(=O)(=O)N2CCOCC2)cc1

>  <Energy>  (20) 
72.48178314905667

>  <Genealogy>  (20) 
O=S(=O)([N-]c1cc2c(cc1O)CNCC2)c1ccc(S(=O)(=O)N2CCOCC2)cc1 (protonated)
O=S(=O)([N-]c1cc2c(cc1O)CNCC2)c1ccc(S(=O)(=O)N2CCOCC2)cc1 (3D coordinates assigned)
O=S(=O)([N-]c1cc2c(cc1O)CNCC2)c1ccc(S(=O)(=O)N2CCOCC2)cc1 (nonaromatic ring conformer: 72.48178314905667 kcal/mol)

>  <smiles>  (20) 
O=S(=O)(Nc1cc2c(cc1O)CNCC2)c1ccc(S(=O)(=O)N2CCOCC2)cc1

>  <score_type>  (20) 
oracle

>  <origin>  (20) 
adgpu

>  <m_score__min__energy>  (20) 
-12.58

>  <m_primary>  (20) 
energy

$$$$
20:0
     RDKit          3D

 53 56  0  0  0  0  0  0  0  0999 V2000
    0.0230   21.6180  -29.5340 O   0  0  0  0  0  0  0  0  0  0  0  0
   -0.9150   22.2110  -30.1300 C   0  0  0  0  0  0  0  0  0  0  0  0
   -1.2040   23.5660  -29.7560 N   0  0  0  0  0  0  0  0  0  0  0  0
   -1.1920   24.0970  -28.4230 C   0  0  0  0  0  0  0  0  0  0  0  0
   -1.1840   23.2560  -27.2980 C   0  0  0  0  0  0  0  0  0  0  0  0
   -1.1940   23.8030  -26.0100 C   0  0  0  0  0  0  0  0  0  0  0  0
   -1.2160   25.1890  -25.8340 C   0  0  0  0  0  0  0  0  0  0  0  0
   -1.2380   26.0310  -26.9480 C   0  0  0  0  0  0  0  0  0  0  0  0
   -1.2240   25.4900  -28.2400 C   0  0  0  0  0  0  0  0  0  0  0  0
   -1.2340   26.3400  -29.3410 O   0  0  0  0  0  0  0  0  0  0  0  0
   -1.7460   21.4650  -31.1150 C   0  0  0  0  0  0  0  0  0  0  0  0
   -3.0950   21.1850  -30.8270 C   0  0  0  0  0  0  0  0  0  0  0  0
   -3.9170   20.5740  -31.7790 C   0  0  0  0  0  0  0  0  0  0  0  0
   -3.4060   20.2060  -33.0260 C   0  0  0  0  0  0  0  0  0  0  0  0
   -4.2990   19.6640  -34.0100 N   0  0  0  0  0  0  0  0  0  0  0  0
   -5.4180   18.8270  -33.7070 C   0  0  0  0  0  0  0  0  0  0  0  0
   -5.4230   17.6340  -34.1130 O   0  0  0  0  0  0  0  0  0  0  0  0
   -6.5910   19.3640  -32.9890 C   0  0  0  0  0  0  0  0  0  0  0  0
   -6.6730   20.7430  -32.7390 C   0  0  0  0  0  0  0  0  0  0  0  0
   -7.7960   21.2880  -32.1030 C   0  0  0  0  0  0  0  0  0  0  0  0
   -7.9340   23.0360  -31.8860 S   0  0  0  0  0  0  0  0  0  0  0  0
   -9.3740   23.4400  -32.0350 O   0  0  0  0  0  0  0  0  0  0  0  0
   -7.1460   23.7300  -32.9630 O   0  0  0  0  0  0  0  0  0  0  0  0
   -7.3610   23.5580  -30.3170 N   0  0  0  0  0  0  0  0  0  0  0  0
   -6.2670   22.7000  -29.8380 C   0  0  0  0  0  0  0  0  0  0  0  0
   -4.9790   23.5120  -29.8290 C   0  0  0  0  0  0  0  0  0  0  0  0
   -5.3290   24.8540  -30.4250 C   0  0  0  0  0  0  0  0  0  0  0  0
   -6.8410   24.9280  -30.3650 C   0  0  0  0  0  0  0  0  0  0  0  0
   -8.8350   20.4410  -31.6940 C   0  0  0  0  0  0  0  0  0  0  0  0
   -8.7590   19.0660  -31.9340 C   0  0  0  0  0  0  0  0  0  0  0  0
   -7.6480   18.5260  -32.5890 C   0  0  0  0  0  0  0  0  0  0  0  0
   -7.5970   17.1550  -32.8240 O   0  0  0  0  0  0  0  0  0  0  0  0
   -2.0570   20.4780  -33.3250 C   0  0  0  0  0  0  0  0  0  0  0  0
   -1.5290   20.1730  -34.5730 O   0  0  0  0  0  0  0  0  0  0  0  0
   -1.2400   21.1030  -32.3770 C   0  0  0  0  0  0  0  0  0  0  0  0
   -1.1698   22.1640  -27.4298 H   0  0  0  0  0  0  0  0  0  0  0  0
   -1.1845   23.1394  -25.1328 H   0  0  0  0  0  0  0  0  0  0  0  0
   -1.2160   25.6160  -24.8202 H   0  0  0  0  0  0  0  0  0  0  0  0
   -1.2664   27.1220  -26.8105 H   0  0  0  0  0  0  0  0  0  0  0  0
   -3.5072   21.4498  -29.8421 H   0  0  0  0  0  0  0  0  0  0  0  0
   -4.9743   20.3816  -31.5442 H   0  0  0  0  0  0  0  0  0  0  0  0
   -5.8474   21.4021  -33.0455 H   0  0  0  0  0  0  0  0  0  0  0  0
   -6.4905   22.3488  -28.8198 H   0  0  0  0  0  0  0  0  0  0  0  0
   -6.1564   21.8285  -30.5000 H   0  0  0  0  0  0  0  0  0  0  0  0
   -4.6120   23.6351  -28.7994 H   0  0  0  0  0  0  0  0  0  0  0  0
   -4.1836   23.0121  -30.4012 H   0  0  0  0  0  0  0  0  0  0  0  0
   -4.8786   25.6673  -29.8371 H   0  0  0  0  0  0  0  0  0  0  0  0
   -4.9508   24.9609  -31.4524 H   0  0  0  0  0  0  0  0  0  0  0  0
   -7.1522   25.4770  -29.4641 H   0  0  0  0  0  0  0  0  0  0  0  0
   -7.2328   25.4543  -31.2479 H   0  0  0  0  0  0  0  0  0  0  0  0
   -9.7139   20.8599  -31.1820 H   0  0  0  0  0  0  0  0  0  0  0  0
   -9.5761   18.4065  -31.6064 H   0  0  0  0  0  0  0  0  0  0  0  0
   -0.1885   21.3142  -32.6213 H   0  0  0  0  0  0  0  0  0  0  0  0
  1  2  2  0
  2  3  1  0
  3  4  1  0
  4  5  2  0
  5  6  1  0
  6  7  2  0
  7  8  1  0
  8  9  2  0
  9 10  1  0
  2 11  1  0
 11 12  2  0
 12 13  1  0
 13 14  2  0
 14 15  1  0
 15 16  1  0
 16 17  2  0
 16 18  1  0
 18 19  2  0
 19 20  1  0
 20 21  1  0
 21 22  2  0
 21 23  2  0
 21 24  1  0
 24 25  1  0
 25 26  1  0
 26 27  1  0
 27 28  1  0
 20 29  2  0
 29 30  1  0
 30 31  2  0
 31 32  1  0
 14 33  1  0
 33 34  1  0
 33 35  2  0
  9  4  1  0
 35 11  1  0
 31 18  1  0
 28 24  1  0
  5 36  1  0
  6 37  1  0
  7 38  1  0
  8 39  1  0
 12 40  1  0
 13 41  1  0
 19 42  1  0
 25 43  1  0
 25 44  1  0
 26 45  1  0
 26 46  1  0
 27 47  1  0
 27 48  1  0
 28 49  1  0
 28 50  1  0
 29 51  1  0
 30 52  1  0
 35 53  1  0
M  CHG  5   3  -1  10  -1  15  -1  32  -1  34  -1
M  END
>  <UniqueID>  (21) 
21

>  <SMILES>  (21) 
O=C([N-]c1ccccc1[O-])c1ccc([N-]C(=O)c2cc(S(=O)(=O)N3CCCC3)ccc2[O-])c([O-])c1

>  <Energy>  (21) 
72.76735503383603

>  <Genealogy>  (21) 
O=C([N-]c1ccccc1[O-])c1ccc([N-]C(=O)c2cc(S(=O)(=O)N3CCCC3)ccc2[O-])c([O-])c1 (protonated)
O=C([N-]c1ccccc1[O-])c1ccc([N-]C(=O)c2cc(S(=O)(=O)N3CCCC3)ccc2[O-])c([O-])c1 (3D coordinates assigned)
O=C([N-]c1ccccc1[O-])c1ccc([N-]C(=O)c2cc(S(=O)(=O)N3CCCC3)ccc2[O-])c([O-])c1 (nonaromatic ring conformer: 72.76735503383603 kcal/mol)

>  <smiles>  (21) 
O=C(Nc1ccccc1O)c1ccc(NC(=O)c2cc(S(=O)(=O)N3CCCC3)ccc2O)c(O)c1

>  <score_type>  (21) 
oracle

>  <origin>  (21) 
adgpu

>  <m_score__min__energy>  (21) 
-15.09

>  <m_primary>  (21) 
energy

$$$$
21:0
     RDKit          3D

 46 49  0  0  0  0  0  0  0  0999 V2000
   -0.4040   19.0990  -29.0670 C   0  0  0  0  0  0  0  0  0  0  0  0
   -0.1640   19.6490  -27.7200 N   0  0  0  0  0  0  0  0  0  0  0  0
   -1.2690   19.3600  -26.7830 C   0  0  0  0  0  0  0  0  0  0  0  0
   -2.5820   20.0490  -27.1910 C   0  0  0  0  0  0  0  0  0  0  0  0
   -2.3700   21.4690  -27.6460 C   0  0  0  0  0  0  0  0  0  0  0  0
   -3.4860   22.2950  -27.8370 C   0  0  0  0  0  0  0  0  0  0  0  0
   -3.3330   23.6080  -28.3130 C   0  0  0  0  0  0  0  0  0  0  0  0
   -4.4630   24.4560  -28.5610 N   0  0  0  0  0  0  0  0  0  0  0  0
   -5.0320   24.8990  -30.1390 S   0  0  0  0  0  0  0  0  0  0  0  0
   -6.1370   25.9090  -30.0040 O   0  0  0  0  0  0  0  0  0  0  0  0
   -3.9020   25.5090  -30.9190 O   0  0  0  0  0  0  0  0  0  0  0  0
   -5.5910   23.4600  -30.9850 C   0  0  0  0  0  0  0  0  0  0  0  0
   -4.6520   22.6300  -31.6410 C   0  0  0  0  0  0  0  0  0  0  0  0
   -5.0650   21.4560  -32.2920 C   0  0  0  0  0  0  0  0  0  0  0  0
   -6.4220   21.1250  -32.2710 C   0  0  0  0  0  0  0  0  0  0  0  0
   -7.3400   21.9410  -31.6300 C   0  0  0  0  0  0  0  0  0  0  0  0
   -6.9570   23.1130  -30.9830 C   0  0  0  0  0  0  0  0  0  0  0  0
   -8.6560   21.3540  -31.8130 C   0  0  0  0  0  0  0  0  0  0  0  0
   -9.7560   21.8020  -31.3950 O   0  0  0  0  0  0  0  0  0  0  0  0
   -8.4400   20.1530  -32.6050 C   0  0  0  0  0  0  0  0  0  0  0  0
   -9.3430   19.3850  -33.0320 O   0  0  0  0  0  0  0  0  0  0  0  0
   -7.0450   19.9790  -32.8670 N   0  0  0  0  0  0  0  0  0  0  0  0
   -6.4820   19.1420  -33.9190 C   0  0  0  0  0  0  0  0  0  0  0  0
   -2.0480   24.1040  -28.5660 C   0  0  0  0  0  0  0  0  0  0  0  0
   -1.8880   25.4190  -29.0030 O   0  0  0  0  0  0  0  0  0  0  0  0
   -0.9300   23.2780  -28.3910 C   0  0  0  0  0  0  0  0  0  0  0  0
   -1.0850   21.9530  -27.9630 C   0  0  0  0  0  0  0  0  0  0  0  0
    0.1430   21.0930  -27.7600 C   0  0  0  0  0  0  0  0  0  0  0  0
   -0.8426   18.0940  -28.9799 H   0  0  0  0  0  0  0  0  0  0  0  0
   -1.0974   19.7556  -29.6130 H   0  0  0  0  0  0  0  0  0  0  0  0
    0.5489   19.0372  -29.6130 H   0  0  0  0  0  0  0  0  0  0  0  0
   -1.4343   18.2728  -26.7570 H   0  0  0  0  0  0  0  0  0  0  0  0
   -0.9802   19.7487  -25.7953 H   0  0  0  0  0  0  0  0  0  0  0  0
   -3.0387   19.4793  -28.0137 H   0  0  0  0  0  0  0  0  0  0  0  0
   -3.2352   20.0751  -26.3063 H   0  0  0  0  0  0  0  0  0  0  0  0
   -4.4921   21.9114  -27.6119 H   0  0  0  0  0  0  0  0  0  0  0  0
   -3.5874   22.9069  -31.6413 H   0  0  0  0  0  0  0  0  0  0  0  0
   -4.3367   20.8120  -32.8066 H   0  0  0  0  0  0  0  0  0  0  0  0
   -7.7009   23.7511  -30.4836 H   0  0  0  0  0  0  0  0  0  0  0  0
   -5.9226   18.3103  -33.4659 H   0  0  0  0  0  0  0  0  0  0  0  0
   -7.2945   18.7407  -34.5425 H   0  0  0  0  0  0  0  0  0  0  0  0
   -5.8040   19.7433  -34.5425 H   0  0  0  0  0  0  0  0  0  0  0  0
   -1.9880   25.6710  -29.9810 H   0  0  0  0  0  0  0  0  0  0  0  0
    0.0770   23.6727  -28.5911 H   0  0  0  0  0  0  0  0  0  0  0  0
    0.8426   21.2798  -28.5881 H   0  0  0  0  0  0  0  0  0  0  0  0
    0.5773   21.3641  -26.7864 H   0  0  0  0  0  0  0  0  0  0  0  0
  1  2  1  0
  2  3  1  0
  3  4  1  0
  4  5  1  0
  5  6  2  0
  6  7  1  0
  7  8  1  0
  8  9  1  0
  9 10  2  0
  9 11  2  0
  9 12  1  0
 12 13  2  0
 13 14  1  0
 14 15  2  0
 15 16  1  0
 16 17  2  0
 16 18  1  0
 18 19  2  0
 18 20  1  0
 20 21  2  0
 20 22  1  0
 22 23  1  0
  7 24  2  0
 24 25  1  0
 24 26  1  0
 26 27  2  0
 27 28  1  0
 28  2  1  0
 27  5  1  0
 17 12  1  0
 22 15  1  0
  1 29  1  0
  1 30  1  0
  1 31  1  0
  3 32  1  0
  3 33  1  0
  4 34  1  0
  4 35  1  0
  6 36  1  0
 13 37  1  0
 14 38  1  0
 17 39  1  0
 23 40  1  0
 23 41  1  0
 23 42  1  0
 25 43  1  0
 26 44  1  0
 28 45  1  0
 28 46  1  0
M  CHG  1   8  -1
M  END
>  <UniqueID>  (22) 
22

>  <SMILES>  (22) 
CN1CCc2cc([N-]S(=O)(=O)c3ccc4c(c3)C(=O)C(=O)N4C)c(O)cc2C1

>  <Energy>  (22) 
88.39578293751404

>  <Genealogy>  (22) 
CN1CCc2cc([N-]S(=O)(=O)c3ccc4c(c3)C(=O)C(=O)N4C)c(O)cc2C1 (protonated)
CN1CCc2cc([N-]S(=O)(=O)c3ccc4c(c3)C(=O)C(=O)N4C)c(O)cc2C1 (3D coordinates assigned)
CN1CCc2cc([N-]S(=O)(=O)c3ccc4c(c3)C(=O)C(=O)N4C)c(O)cc2C1 (nonaromatic ring conformer: 88.39578293751404 kcal/mol)

>  <smiles>  (22) 
CN1CCc2cc(NS(=O)(=O)c3ccc4c(c3)C(=O)C(=O)N4C)c(O)cc2C1

>  <score_type>  (22) 
oracle

>  <origin>  (22) 
adgpu

>  <m_score__min__energy>  (22) 
-13.07

>  <m_primary>  (22) 
energy

$$$$
22:0
     RDKit          3D

 50 52  0  0  0  0  0  0  0  0999 V2000
   -2.7080   20.0050  -33.3990 C   0  0  0  0  0  0  0  0  0  0  0  0
   -2.1170   21.5600  -32.6630 S   0  0  0  0  0  0  0  0  0  0  0  0
   -1.2180   20.7340  -31.3380 C   0  0  0  0  0  0  0  0  0  0  0  0
   -0.6970   19.4560  -31.5830 C   0  0  0  0  0  0  0  0  0  0  0  0
   -0.0640   18.7430  -30.5620 C   0  0  0  0  0  0  0  0  0  0  0  0
    0.0510   19.3020  -29.2880 C   0  0  0  0  0  0  0  0  0  0  0  0
   -0.4550   20.5800  -29.0340 C   0  0  0  0  0  0  0  0  0  0  0  0
   -1.0720   21.3160  -30.0570 C   0  0  0  0  0  0  0  0  0  0  0  0
   -1.5980   22.6170  -29.7530 N   0  0  0  0  0  0  0  0  0  0  0  0
   -2.5590   22.8460  -28.7160 C   0  0  0  0  0  0  0  0  0  0  0  0
   -3.0800   21.8750  -28.1030 O   0  0  0  0  0  0  0  0  0  0  0  0
   -2.9990   24.2410  -28.3940 C   0  0  0  0  0  0  0  0  0  0  0  0
   -4.5250   24.3250  -28.3590 C   0  0  0  0  0  0  0  0  0  0  0  0
   -5.1800   24.7260  -29.9710 S   0  0  0  0  0  0  0  0  0  0  0  0
   -4.0930   25.2890  -30.8460 O   0  0  0  0  0  0  0  0  0  0  0  0
   -6.2590   25.7620  -29.8250 O   0  0  0  0  0  0  0  0  0  0  0  0
   -5.8550   23.2780  -30.7130 C   0  0  0  0  0  0  0  0  0  0  0  0
   -4.9990   22.2680  -31.1940 C   0  0  0  0  0  0  0  0  0  0  0  0
   -5.5250   21.1140  -31.7940 C   0  0  0  0  0  0  0  0  0  0  0  0
   -6.9170   20.9920  -31.9130 C   0  0  0  0  0  0  0  0  0  0  0  0
   -7.7470   21.9840  -31.4580 C   0  0  0  0  0  0  0  0  0  0  0  0
   -7.2470   23.1360  -30.8510 C   0  0  0  0  0  0  0  0  0  0  0  0
   -9.1710   21.6370  -31.7030 C   0  0  0  0  0  0  0  0  0  0  0  0
   -9.0890   20.2580  -32.3960 C   0  0  0  0  0  0  0  0  0  0  0  0
   -7.6630   19.9200  -32.4830 N   0  0  0  0  0  0  0  0  0  0  0  0
   -7.1640   18.6760  -33.0180 C   0  0  0  0  0  0  0  0  0  0  0  0
   -6.1000   18.6720  -34.0730 C   0  0  0  0  0  0  0  0  0  0  0  0
   -7.6180   17.5740  -32.6140 O   0  0  0  0  0  0  0  0  0  0  0  0
   -2.9762   19.2993  -32.5989 H   0  0  0  0  0  0  0  0  0  0  0  0
   -3.5921   20.2068  -34.0216 H   0  0  0  0  0  0  0  0  0  0  0  0
   -1.9130   19.5686  -34.0216 H   0  0  0  0  0  0  0  0  0  0  0  0
   -0.7871   19.0118  -32.5853 H   0  0  0  0  0  0  0  0  0  0  0  0
    0.3438   17.7411  -30.7619 H   0  0  0  0  0  0  0  0  0  0  0  0
    0.5409   18.7355  -28.4823 H   0  0  0  0  0  0  0  0  0  0  0  0
   -0.3690   21.0115  -28.0258 H   0  0  0  0  0  0  0  0  0  0  0  0
   -1.4440   23.3800  -30.4470 H   0  0  0  0  0  0  0  0  0  0  0  0
   -2.5977   24.5297  -27.4113 H   0  0  0  0  0  0  0  0  0  0  0  0
   -2.6224   24.9218  -29.1716 H   0  0  0  0  0  0  0  0  0  0  0  0
   -4.9315   23.3551  -28.0365 H   0  0  0  0  0  0  0  0  0  0  0  0
   -4.8166   25.1180  -27.6547 H   0  0  0  0  0  0  0  0  0  0  0  0
   -3.9094   22.3850  -31.0984 H   0  0  0  0  0  0  0  0  0  0  0  0
   -4.8588   20.3206  -32.1638 H   0  0  0  0  0  0  0  0  0  0  0  0
   -7.9289   23.9187  -30.4871 H   0  0  0  0  0  0  0  0  0  0  0  0
   -9.7282   21.5697  -30.7570 H   0  0  0  0  0  0  0  0  0  0  0  0
   -9.6991   22.3902  -32.3061 H   0  0  0  0  0  0  0  0  0  0  0  0
   -9.6233   19.5018  -31.8022 H   0  0  0  0  0  0  0  0  0  0  0  0
   -9.5531   20.2853  -33.3929 H   0  0  0  0  0  0  0  0  0  0  0  0
   -5.1094   18.6683  -33.5947 H   0  0  0  0  0  0  0  0  0  0  0  0
   -6.2081   17.7743  -34.6994 H   0  0  0  0  0  0  0  0  0  0  0  0
   -6.2014   19.5705  -34.6994 H   0  0  0  0  0  0  0  0  0  0  0  0
  1  2  1  0
  2  3  1  0
  3  4  2  0
  4  5  1  0
  5  6  2  0
  6  7  1  0
  7  8  2  0
  8  9  1  0
  9 10  1  0
 10 11  2  0
 10 12  1  0
 12 13  1  0
 13 14  1  0
 14 15  2  0
 14 16  2  0
 14 17  1  0
 17 18  2  0
 18 19  1  0
 19 20  2  0
 20 21  1  0
 21 22  2  0
 21 23  1  0
 23 24  1  0
 24 25  1  0
 25 26  1  0
 26 27  1  0
 26 28  2  0
  8  3  1  0
 22 17  1  0
 25 20  1  0
  1 29  1  0
  1 30  1  0
  1 31  1  0
  4 32  1  0
  5 33  1  0
  6 34  1  0
  7 35  1  0
  9 36  1  0
 12 37  1  0
 12 38  1  0
 13 39  1  0
 13 40  1  0
 18 41  1  0
 19 42  1  0
 22 43  1  0
 23 44  1  0
 23 45  1  0
 24 46  1  0
 24 47  1  0
 27 48  1  0
 27 49  1  0
 27 50  1  0
M  END
>  <UniqueID>  (23) 
23

>  <SMILES>  (23) 
CSc1ccccc1NC(=O)CCS(=O)(=O)c1ccc2c(c1)CCN2C(C)=O

>  <Energy>  (23) 
61.44763974112711

>  <Genealogy>  (23) 
CSc1ccccc1NC(=O)CCS(=O)(=O)c1ccc2c(c1)CCN2C(C)=O (3D coordinates assigned)
CSc1ccccc1NC(=O)CCS(=O)(=O)c1ccc2c(c1)CCN2C(C)=O (nonaromatic ring conformer: 61.44763974112711 kcal/mol)

>  <smiles>  (23) 
CSc1ccccc1NC(=O)CCS(=O)(=O)c1ccc2c(c1)CCN2C(C)=O

>  <score_type>  (23) 
oracle

>  <origin>  (23) 
adgpu

>  <m_score__min__energy>  (23) 
-10.1

>  <m_primary>  (23) 
energy

$$$$
23:0
     RDKit          3D

 33 33  0  0  0  0  0  0  0  0999 V2000
   -3.2080   25.2850  -26.1840 C   0  0  0  0  0  0  0  0  0  0  0  0
   -1.6890   25.4090  -26.2850 C   0  0  0  0  0  0  0  0  0  0  0  0
   -1.2410   25.9640  -27.6420 C   0  0  0  0  0  0  0  0  0  0  0  0
   -1.9750   25.3250  -28.7330 N   0  0  0  0  0  0  0  0  0  0  0  0
   -1.5450   24.1090  -29.3560 C   0  0  0  0  0  0  0  0  0  0  0  0
   -0.4310   23.5980  -29.0600 O   0  0  0  0  0  0  0  0  0  0  0  0
   -2.3960   23.4720  -30.3100 N   0  0  0  0  0  0  0  0  0  0  0  0
   -3.3000   22.0400  -29.9470 S   0  0  0  0  0  0  0  0  0  0  0  0
   -3.4950   21.9100  -28.4630 O   0  0  0  0  0  0  0  0  0  0  0  0
   -2.5310   20.8430  -30.4340 O   0  0  0  0  0  0  0  0  0  0  0  0
   -4.8720   22.1240  -30.7610 C   0  0  0  0  0  0  0  0  0  0  0  0
   -5.3080   20.9900  -31.4680 C   0  0  0  0  0  0  0  0  0  0  0  0
   -6.5380   20.9860  -32.1260 C   0  0  0  0  0  0  0  0  0  0  0  0
   -7.3510   22.1140  -32.0900 C   0  0  0  0  0  0  0  0  0  0  0  0
   -6.9350   23.2540  -31.4020 C   0  0  0  0  0  0  0  0  0  0  0  0
   -5.6940   23.2860  -30.7430 C   0  0  0  0  0  0  0  0  0  0  0  0
   -5.2410   24.7790  -29.8950 S   0  0  0  0  0  0  0  0  0  0  0  0
   -4.0630   25.6560  -30.8080 N   0  0  0  0  0  0  0  0  0  0  0  0
   -6.4550   25.6460  -29.7230 O   0  0  0  0  0  0  0  0  0  0  0  0
   -4.6470   24.4660  -28.5520 O   0  0  0  0  0  0  0  0  0  0  0  0
   -3.5043   25.2608  -25.1249 H   0  0  0  0  0  0  0  0  0  0  0  0
   -3.6799   26.1476  -26.6772 H   0  0  0  0  0  0  0  0  0  0  0  0
   -3.5338   24.3573  -26.6772 H   0  0  0  0  0  0  0  0  0  0  0  0
   -1.3354   26.0845  -25.4921 H   0  0  0  0  0  0  0  0  0  0  0  0
   -1.2604   24.4020  -26.1745 H   0  0  0  0  0  0  0  0  0  0  0  0
   -1.4281   27.0477  -27.6678 H   0  0  0  0  0  0  0  0  0  0  0  0
   -0.1683   25.7571  -27.7704 H   0  0  0  0  0  0  0  0  0  0  0  0
   -2.9130   25.7090  -28.9890 H   0  0  0  0  0  0  0  0  0  0  0  0
   -4.6709   20.0940  -31.5028 H   0  0  0  0  0  0  0  0  0  0  0  0
   -6.8653   20.0900  -32.6738 H   0  0  0  0  0  0  0  0  0  0  0  0
   -8.3232   22.1071  -32.6047 H   0  0  0  0  0  0  0  0  0  0  0  0
   -7.5869   24.1396  -31.3749 H   0  0  0  0  0  0  0  0  0  0  0  0
   -3.1230   25.3020  -30.5160 H   0  0  0  0  0  0  0  0  0  0  0  0
  1  2  1  0
  2  3  1  0
  3  4  1  0
  4  5  1  0
  5  6  2  0
  5  7  1  0
  7  8  1  0
  8  9  2  0
  8 10  2  0
  8 11  1  0
 11 12  2  0
 12 13  1  0
 13 14  2  0
 14 15  1  0
 15 16  2  0
 16 17  1  0
 17 18  1  0
 17 19  2  0
 17 20  2  0
 16 11  1  0
  1 21  1  0
  1 22  1  0
  1 23  1  0
  2 24  1  0
  2 25  1  0
  3 26  1  0
  3 27  1  0
  4 28  1  0
 12 29  1  0
 13 30  1  0
 14 31  1  0
 15 32  1  0
 18 33  1  0
M  CHG  2   7  -1  18  -1
M  END
>  <UniqueID>  (24) 
24

>  <SMILES>  (24) 
CCCNC(=O)[N-]S(=O)(=O)c1ccccc1S([NH-])(=O)=O

>  <Energy>  (24) 
30.57217311824149

>  <Genealogy>  (24) 
CCCNC(=O)[N-]S(=O)(=O)c1ccccc1S([NH-])(=O)=O (protonated)
CCCNC(=O)[N-]S(=O)(=O)c1ccccc1S([NH-])(=O)=O (3D coordinates assigned)
CCCNC(=O)[N-]S(=O)(=O)c1ccccc1S([NH-])(=O)=O (optimized conformer: 30.57217311824149 kcal/mol)

>  <smiles>  (24) 
CCCNC(=O)NS(=O)(=O)c1ccccc1S(N)(=O)=O

>  <score_type>  (24) 
oracle

>  <origin>  (24) 
adgpu

>  <m_score__min__energy>  (24) 
-10.01

>  <m_primary>  (24) 
energy

$$$$
24:0
     RDKit          3D

 44 46  0  0  1  0  0  0  0  0999 V2000
   -4.1850   15.7760  -35.1490 C   0  0  0  0  0  0  0  0  0  0  0  0
   -5.0220   16.9280  -35.1610 N   0  0  0  0  0  0  0  0  0  0  0  0
   -5.6180   17.3200  -34.1110 C   0  0  0  0  0  0  0  0  0  0  0  0
   -6.3890   18.4340  -34.2660 N   0  0  0  0  0  0  0  0  0  0  0  0
   -7.1060   18.9720  -33.2730 C   0  0  0  0  0  0  0  0  0  0  0  0
   -7.8210   20.0250  -33.4650 N   0  0  0  0  0  0  0  0  0  0  0  0
   -8.6100   20.6180  -32.3740 C   0  0  0  0  0  0  0  0  0  0  0  0
   -7.8660   21.6770  -31.6890 C   0  0  0  0  0  0  0  0  0  0  0  0
   -6.9720   22.4500  -32.4390 C   0  0  0  0  0  0  0  0  0  0  0  0
   -6.2350   23.4670  -31.8620 C   0  0  0  0  0  0  0  0  0  0  0  0
   -6.3820   23.7340  -30.4950 C   0  0  0  0  0  0  0  0  0  0  0  0
   -5.4830   24.9980  -29.7420 S   0  0  0  0  0  0  0  0  0  0  0  0
   -4.5160   25.5350  -30.7890 O   0  0  0  0  0  0  0  0  0  0  0  0
   -6.3860   26.1440  -29.3850 O   0  0  0  0  0  0  0  0  0  0  0  0
   -4.5190   24.5010  -28.4160 N   0  0  0  0  0  0  0  0  0  0  0  0
   -3.5240   23.7750  -28.5610 C   0  0  0  0  0  0  0  0  0  0  0  0
   -2.6570   23.2810  -27.7030 N   0  0  0  0  0  0  0  0  0  0  0  0
   -1.6680   22.5290  -28.0650 C   0  0  0  0  0  0  0  0  0  0  0  0
   -1.5220   22.2330  -29.4260 C   0  0  0  0  0  0  0  0  0  0  0  0
   -0.6140   21.4950  -30.0920 F   0  0  0  0  0  0  0  0  0  0  0  0
   -2.9310   23.1230  -30.2040 S   0  0  0  0  0  0  0  0  0  0  0  0
   -7.2690   22.9730  -29.7240 C   0  0  0  0  0  0  0  0  0  0  0  0
   -7.9830   21.9690  -30.3470 C   0  0  0  0  0  0  0  0  0  0  0  0
   -7.0490   18.3710  -32.0770 N   0  0  0  0  0  0  0  0  0  0  0  0
   -6.3080   17.2790  -31.8740 C   0  0  0  0  0  0  0  0  0  0  0  0
   -5.5320   16.6690  -32.8790 C   0  0  0  0  0  0  0  0  0  0  0  0
   -4.7070   15.5040  -32.6370 C   0  0  0  0  0  0  0  0  0  0  0  0
   -3.3650   15.6670  -32.3550 F   0  0  0  0  0  0  0  0  0  0  0  0
   -4.9880   15.3130  -31.2380 F   0  0  0  0  0  0  0  0  0  0  0  0
   -5.1420   14.2570  -32.9640 F   0  0  0  0  0  0  0  0  0  0  0  0
   -3.9746   15.4864  -34.1089 H   0  0  0  0  0  0  0  0  0  0  0  0
   -4.6935   14.9479  -35.6644 H   0  0  0  0  0  0  0  0  0  0  0  0
   -3.2403   16.0038  -35.6644 H   0  0  0  0  0  0  0  0  0  0  0  0
   -6.4530   18.9300  -35.1990 H   0  0  0  0  0  0  0  0  0  0  0  0
   -9.5346   21.0432  -32.7915 H   0  0  0  0  0  0  0  0  0  0  0  0
   -8.8379   19.8278  -31.6434 H   0  0  0  0  0  0  0  0  0  0  0  0
   -6.8532   22.2432  -33.5128 H   0  0  0  0  0  0  0  0  0  0  0  0
   -5.5387   24.0618  -32.4714 H   0  0  0  0  0  0  0  0  0  0  0  0
   -2.7960   23.5290  -26.6420 H   0  0  0  0  0  0  0  0  0  0  0  0
   -0.9599   22.1323  -27.3225 H   0  0  0  0  0  0  0  0  0  0  0  0
   -7.3938   23.1701  -28.6490 H   0  0  0  0  0  0  0  0  0  0  0  0
   -8.6807   21.3717  -29.7417 H   0  0  0  0  0  0  0  0  0  0  0  0
   -7.6060   18.7800  -31.2860 H   0  0  0  0  0  0  0  0  0  0  0  0
   -6.3032   16.8321  -30.8689 H   0  0  0  0  0  0  0  0  0  0  0  0
  1  2  1  0
  2  3  2  0
  3  4  1  0
  4  5  1  0
  5  6  2  0
  6  7  1  0
  7  8  1  0
  8  9  2  0
  9 10  1  0
 10 11  2  0
 11 12  1  0
 12 13  2  0
 12 14  2  0
 12 15  1  0
 15 16  2  0
 16 17  1  0
 17 18  1  0
 18 19  2  0
 19 20  1  0
 19 21  1  0
 11 22  1  0
 22 23  2  0
  5 24  1  0
 24 25  1  0
 25 26  2  0
 26 27  1  0
 27 28  1  0
 27 29  1  0
 27 30  1  0
 26  3  1  0
 23  8  1  0
 21 16  1  0
  1 31  1  0
  1 32  1  0
  1 33  1  0
  4 34  1  0
  7 35  1  0
  7 36  1  0
  9 37  1  0
 10 38  1  0
 17 39  1  0
 18 40  1  0
 22 41  1  0
 23 42  1  0
 24 43  1  0
 25 44  1  0
M  END
>  <smiles>  (25) 
CN=c1[nH]c(=NCc2ccc(S(=O)(=O)N=c3[nH]cc(F)s3)cc2)[nH]cc1C(F)(F)F

>  <score_type>  (25) 
oracle

>  <origin>  (25) 
adgpu

>  <m_score__min__energy>  (25) 
-9.7899999999999991

>  <m_primary>  (25) 
energy

$$$$
25:0
     RDKit          3D

 49 51  0  0  0  0  0  0  0  0999 V2000
   -1.2400   26.0420  -29.9860 H   0  0  0  0  0  0  0  0  0  0  0  0
   -1.2120   26.2860  -28.9710 N   0  0  0  0  0  0  0  0  0  0  0  0
   -0.8470   24.8320  -28.1120 S   0  0  0  0  0  0  0  0  0  0  0  0
    0.6350   24.5800  -28.1510 O   0  0  0  0  0  0  0  0  0  0  0  0
   -1.2710   24.9840  -26.6780 O   0  0  0  0  0  0  0  0  0  0  0  0
   -1.6930   23.4800  -28.8560 C   0  0  0  0  0  0  0  0  0  0  0  0
   -2.8060   22.9020  -28.2300 C   0  0  0  0  0  0  0  0  0  0  0  0
   -3.1547   23.2921  -27.2624 H   0  0  0  0  0  0  0  0  0  0  0  0
   -3.4740   21.8320  -28.8310 C   0  0  0  0  0  0  0  0  0  0  0  0
   -4.3371   21.3729  -28.3268 H   0  0  0  0  0  0  0  0  0  0  0  0
   -3.0480   21.3390  -30.0780 C   0  0  0  0  0  0  0  0  0  0  0  0
   -3.6860   20.2170  -30.7080 N   0  0  0  0  0  0  0  0  0  0  0  0
   -4.8430   20.2190  -31.3030 C   0  0  0  0  0  0  0  0  0  0  0  0
   -5.5480   21.3690  -31.4730 N   0  0  0  0  0  0  0  0  0  0  0  0
   -6.7450   21.3520  -32.1100 C   0  0  0  0  0  0  0  0  0  0  0  0
   -7.6610   22.8800  -32.3150 S   0  0  0  0  0  0  0  0  0  0  0  0
   -6.8660   23.7140  -30.9010 C   0  0  0  0  0  0  0  0  0  0  0  0
   -5.5730   24.0790  -31.2280 F   0  0  0  0  0  0  0  0  0  0  0  0
   -6.8320   22.8450  -29.8280 F   0  0  0  0  0  0  0  0  0  0  0  0
   -7.5900   24.8380  -30.5490 F   0  0  0  0  0  0  0  0  0  0  0  0
   -7.2500   20.1800  -32.5730 N   0  0  0  0  0  0  0  0  0  0  0  0
   -8.1850   20.1660  -33.0410 H   0  0  0  0  0  0  0  0  0  0  0  0
   -6.5430   19.0280  -32.4160 C   0  0  0  0  0  0  0  0  0  0  0  0
   -7.1310   17.7110  -32.8280 C   0  0  0  0  0  0  0  0  0  0  0  0
   -8.2251   17.8073  -32.8879 H   0  0  0  0  0  0  0  0  0  0  0  0
   -6.8542   16.9518  -32.0816 H   0  0  0  0  0  0  0  0  0  0  0  0
   -6.4840   17.1940  -34.4590 S   0  0  0  0  0  0  0  0  0  0  0  0
   -4.7510   17.4250  -34.0220 C   0  0  0  0  0  0  0  0  0  0  0  0
   -4.1980   18.6520  -34.2080 N   0  0  0  0  0  0  0  0  0  0  0  0
   -2.8840   18.9000  -33.9730 C   0  0  0  0  0  0  0  0  0  0  0  0
   -2.3350   20.2700  -34.2150 C   0  0  0  0  0  0  0  0  0  0  0  0
   -2.1380   20.7616  -33.2509 H   0  0  0  0  0  0  0  0  0  0  0  0
   -1.3979   20.1939  -34.7860 H   0  0  0  0  0  0  0  0  0  0  0  0
   -3.0653   20.8621  -34.7860 H   0  0  0  0  0  0  0  0  0  0  0  0
   -2.0610   17.8780  -33.4890 C   0  0  0  0  0  0  0  0  0  0  0  0
   -0.9976   18.0747  -33.2877 H   0  0  0  0  0  0  0  0  0  0  0  0
   -2.5960   16.6010  -33.2610 C   0  0  0  0  0  0  0  0  0  0  0  0
   -1.6980   15.4990  -32.7640 C   0  0  0  0  0  0  0  0  0  0  0  0
   -1.6956   15.4960  -31.6640 H   0  0  0  0  0  0  0  0  0  0  0  0
   -2.0675   14.5307  -33.1325 H   0  0  0  0  0  0  0  0  0  0  0  0
   -0.6750   15.6654  -33.1325 H   0  0  0  0  0  0  0  0  0  0  0  0
   -3.9600   16.3640  -33.5430 C   0  0  0  0  0  0  0  0  0  0  0  0
   -4.5380   15.0540  -33.3480 C   0  0  0  0  0  0  0  0  0  0  0  0
   -5.0050   14.0060  -33.1890 N   0  0  0  0  0  0  0  0  0  0  0  0
   -5.3400   19.0550  -31.7870 N   0  0  0  0  0  0  0  0  0  0  0  0
   -1.9190   21.9020  -30.6850 C   0  0  0  0  0  0  0  0  0  0  0  0
   -1.5537   21.4973  -31.6404 H   0  0  0  0  0  0  0  0  0  0  0  0
   -1.2530   22.9740  -30.0860 C   0  0  0  0  0  0  0  0  0  0  0  0
   -0.3797   23.4226  -30.5821 H   0  0  0  0  0  0  0  0  0  0  0  0
  1  2  1  0
  2  3  1  0
  3  4  2  0
  3  5  2  0
  3  6  1  0
  6  7  2  0
  7  8  1  0
  7  9  1  0
  9 10  1  0
  9 11  2  0
 11 12  1  0
 12 13  2  0
 13 14  1  0
 14 15  2  0
 15 16  1  0
 16 17  1  0
 17 18  1  0
 17 19  1  0
 17 20  1  0
 15 21  1  0
 21 22  1  0
 21 23  1  0
 23 24  1  0
 24 25  1  0
 24 26  1  0
 24 27  1  0
 27 28  1  0
 28 29  2  0
 29 30  1  0
 30 31  1  0
 31 32  1  0
 31 33  1  0
 31 34  1  0
 30 35  2  0
 35 36  1  0
 35 37  1  0
 37 38  1  0
 38 39  1  0
 38 40  1  0
 38 41  1  0
 37 42  2  0
 42 43  1  0
 43 44  3  0
 23 45  2  0
 11 46  1  0
 46 47  1  0
 46 48  2  0
 48 49  1  0
 48  6  1  0
 45 13  1  0
 42 28  1  0
M  CHG  1   2  -1
M  END
>  <UniqueID>  (26) 
25

>  <SMILES>  (26) 
Cc1cc(C)c(C#N)c(SCc2n/c(=N/c3ccc(S([NH-])(=O)=O)cc3)nc(SC(F)(F)F)[nH]2)n1

>  <Energy>  (26) 
46.604883926089336

>  <Genealogy>  (26) 
Cc1cc(C)c(C#N)c(SCc2nc(=Nc3ccc(S([NH-])(=O)=O)cc3)nc(SC(F)(F)F)[nH]2)n1 (protonated)
Cc1cc(C)c(C#N)c(SCc2n/c(=N/c3ccc(S([NH-])(=O)=O)cc3)nc(SC(F)(F)F)[nH]2)n1 (cis-trans isomerization)
Cc1cc(C)c(C#N)c(SCc2n/c(=N/c3ccc(S([NH-])(=O)=O)cc3)nc(SC(F)(F)F)[nH]2)n1 (3D coordinates assigned)
Cc1cc(C)c(C#N)c(SCc2n/c(=N/c3ccc(S([NH-])(=O)=O)cc3)nc(SC(F)(F)F)[nH]2)n1 (optimized conformer: 46.604883926089336 kcal/mol)

>  <smiles>  (26) 
Cc1cc(C)c(C#N)c(SCc2nc(=Nc3ccc(S(N)(=O)=O)cc3)nc(SC(F)(F)F)[nH]2)n1

>  <score_type>  (26) 
oracle

>  <origin>  (26) 
adgpu

>  <m_score__min__energy>  (26) 
-10.43

>  <m_primary>  (26) 
energy

$$$$
26:0
     RDKit          3D

 52 55  0  0  0  0  0  0  0  0999 V2000
    0.2620   22.7250  -25.4480 C   0  0  0  0  0  0  0  0  0  0  0  0
   -0.2350   23.3090  -26.7320 C   0  0  0  0  0  0  0  0  0  0  0  0
   -1.4730   23.1090  -27.2200 N   0  0  0  0  0  0  0  0  0  0  0  0
   -1.4490   23.7760  -28.3960 C   0  0  0  0  0  0  0  0  0  0  0  0
   -2.5950   23.8550  -29.3070 C   0  0  0  0  0  0  0  0  0  0  0  0
   -3.0010   22.8710  -30.1900 C   0  0  0  0  0  0  0  0  0  0  0  0
   -4.1130   23.4150  -30.8000 C   0  0  0  0  0  0  0  0  0  0  0  0
   -4.9230   22.7580  -31.7930 N   0  0  0  0  0  0  0  0  0  0  0  0
   -4.3530   21.6890  -32.6180 C   0  0  0  0  0  0  0  0  0  0  0  0
   -5.0040   20.3360  -32.2840 C   0  0  0  0  0  0  0  0  0  0  0  0
   -6.4780   20.4640  -31.8100 C   0  0  0  0  0  0  0  0  0  0  0  0
   -7.3170   19.2280  -32.2010 C   0  0  0  0  0  0  0  0  0  0  0  0
   -6.4860   18.1900  -32.9130 C   0  0  0  0  0  0  0  0  0  0  0  0
   -6.0430   17.0480  -32.2270 C   0  0  0  0  0  0  0  0  0  0  0  0
   -5.2510   16.0970  -32.8770 C   0  0  0  0  0  0  0  0  0  0  0  0
   -4.8920   16.2810  -34.2160 C   0  0  0  0  0  0  0  0  0  0  0  0
   -4.1240   15.3580  -34.8440 F   0  0  0  0  0  0  0  0  0  0  0  0
   -5.3240   17.4180  -34.9050 C   0  0  0  0  0  0  0  0  0  0  0  0
   -6.1170   18.3710  -34.2580 C   0  0  0  0  0  0  0  0  0  0  0  0
   -7.1260   21.7510  -32.3540 C   0  0  0  0  0  0  0  0  0  0  0  0
   -6.3760   22.9870  -31.8300 C   0  0  0  0  0  0  0  0  0  0  0  0
   -4.3320   24.6520  -30.3030 N   0  0  0  0  0  0  0  0  0  0  0  0
   -5.3780   25.5940  -30.6860 C   0  0  0  0  0  0  0  0  0  0  0  0
   -3.4130   24.9240  -29.3900 N   0  0  0  0  0  0  0  0  0  0  0  0
   -0.2880   24.3450  -28.6410 O   0  0  0  0  0  0  0  0  0  0  0  0
    0.4900   24.0660  -27.6270 C   0  0  0  0  0  0  0  0  0  0  0  0
    1.9080   24.5130  -27.4950 C   0  0  0  0  0  0  0  0  0  0  0  0
   -0.1932   23.2599  -24.6014 H   0  0  0  0  0  0  0  0  0  0  0  0
   -0.0116   21.6607  -25.3991 H   0  0  0  0  0  0  0  0  0  0  0  0
    1.3564   22.8249  -25.3991 H   0  0  0  0  0  0  0  0  0  0  0  0
   -2.5445   21.8856  -30.3651 H   0  0  0  0  0  0  0  0  0  0  0  0
   -4.5267   21.9207  -33.6792 H   0  0  0  0  0  0  0  0  0  0  0  0
   -3.2744   21.6219  -32.4126 H   0  0  0  0  0  0  0  0  0  0  0  0
   -4.9804   19.7053  -33.1849 H   0  0  0  0  0  0  0  0  0  0  0  0
   -4.4320   19.8950  -31.4544 H   0  0  0  0  0  0  0  0  0  0  0  0
   -6.4596   20.5209  -30.7116 H   0  0  0  0  0  0  0  0  0  0  0  0
   -7.7397   18.7815  -31.2889 H   0  0  0  0  0  0  0  0  0  0  0  0
   -8.1129   19.5573  -32.8852 H   0  0  0  0  0  0  0  0  0  0  0  0
   -6.3205   16.9008  -31.1728 H   0  0  0  0  0  0  0  0  0  0  0  0
   -4.9098   15.2029  -32.3346 H   0  0  0  0  0  0  0  0  0  0  0  0
   -5.0398   17.5633  -35.9577 H   0  0  0  0  0  0  0  0  0  0  0  0
   -6.4533   19.2653  -34.8030 H   0  0  0  0  0  0  0  0  0  0  0  0
   -7.0861   21.7410  -33.4532 H   0  0  0  0  0  0  0  0  0  0  0  0
   -8.1718   21.7963  -32.0160 H   0  0  0  0  0  0  0  0  0  0  0  0
   -6.5870   23.8405  -32.4911 H   0  0  0  0  0  0  0  0  0  0  0  0
   -6.7202   23.1921  -30.8056 H   0  0  0  0  0  0  0  0  0  0  0  0
   -5.8432   26.0130  -29.7816 H   0  0  0  0  0  0  0  0  0  0  0  0
   -4.9387   26.4071  -31.2826 H   0  0  0  0  0  0  0  0  0  0  0  0
   -6.1408   25.0723  -31.2826 H   0  0  0  0  0  0  0  0  0  0  0  0
    2.1689   24.5952  -26.4295 H   0  0  0  0  0  0  0  0  0  0  0  0
    2.5701   23.7800  -27.9791 H   0  0  0  0  0  0  0  0  0  0  0  0
    2.0300   25.4932  -27.9791 H   0  0  0  0  0  0  0  0  0  0  0  0
  1  2  1  0
  2  3  1  0
  3  4  2  0
  4  5  1  0
  5  6  1  0
  6  7  2  0
  7  8  1  0
  8  9  1  0
  9 10  1  0
 10 11  1  0
 11 12  1  0
 12 13  1  0
 13 14  2  0
 14 15  1  0
 15 16  2  0
 16 17  1  0
 16 18  1  0
 18 19  2  0
 11 20  1  0
 20 21  1  0
  7 22  1  0
 22 23  1  0
 22 24  1  0
  4 25  1  0
 25 26  1  0
 26 27  1  0
 26  2  2  0
 24  5  2  0
 21  8  1  0
 19 13  1  0
  1 28  1  0
  1 29  1  0
  1 30  1  0
  6 31  1  0
  9 32  1  0
  9 33  1  0
 10 34  1  0
 10 35  1  0
 11 36  1  0
 12 37  1  0
 12 38  1  0
 14 39  1  0
 15 40  1  0
 18 41  1  0
 19 42  1  0
 20 43  1  0
 20 44  1  0
 21 45  1  0
 21 46  1  0
 23 47  1  0
 23 48  1  0
 23 49  1  0
 27 50  1  0
 27 51  1  0
 27 52  1  0
M  END
>  <UniqueID>  (27) 
26

>  <SMILES>  (27) 
Cc1nc(-c2cc(N3CCC(Cc4ccc(F)cc4)CC3)n(C)n2)oc1C

>  <Energy>  (27) 
114.55359504369108

>  <Genealogy>  (27) 
Cc1nc(-c2cc(N3CCC(Cc4ccc(F)cc4)CC3)n(C)n2)oc1C (3D coordinates assigned)
Cc1nc(-c2cc(N3CCC(Cc4ccc(F)cc4)CC3)n(C)n2)oc1C (nonaromatic ring conformer: 114.55359504369108 kcal/mol)

>  <smiles>  (27) 
Cc1nc(-c2cc(N3CCC(Cc4ccc(F)cc4)CC3)n(C)n2)oc1C

>  <score_type>  (27) 
oracle

>  <origin>  (27) 
adgpu

>  <m_score__min__energy>  (27) 
-8.8200000000000003

>  <m_primary>  (27) 
energy

$$$$
27:0
     RDKit          3D

 55 57  0  0  0  0  0  0  0  0999 V2000
   -8.7760   19.4760  -31.7740 C   0  0  0  0  0  0  0  0  0  0  0  0
   -7.8980   20.2070  -32.7970 C   0  0  0  0  0  0  0  0  0  0  0  0
   -6.8300   19.2710  -33.3780 C   0  0  0  0  0  0  0  0  0  0  0  0
   -7.2630   21.4460  -32.1950 C   0  0  0  0  0  0  0  0  0  0  0  0
   -5.9270   21.7900  -32.4720 C   0  0  0  0  0  0  0  0  0  0  0  0
   -5.3600   22.9350  -31.9090 C   0  0  0  0  0  0  0  0  0  0  0  0
   -6.1180   23.7580  -31.0690 C   0  0  0  0  0  0  0  0  0  0  0  0
   -5.3840   25.1530  -30.2840 S   0  0  0  0  0  0  0  0  0  0  0  0
   -5.7590   26.4000  -31.0290 O   0  0  0  0  0  0  0  0  0  0  0  0
   -5.8710   25.2700  -28.8660 O   0  0  0  0  0  0  0  0  0  0  0  0
   -3.6600   24.9710  -30.3120 N   0  0  0  0  0  0  0  0  0  0  0  0
   -2.9750   24.3710  -29.2100 C   0  0  0  0  0  0  0  0  0  0  0  0
   -3.5370   23.2580  -28.5750 C   0  0  0  0  0  0  0  0  0  0  0  0
   -4.7280   22.7170  -29.0530 O   0  0  0  0  0  0  0  0  0  0  0  0
   -2.9120   22.7070  -27.4500 C   0  0  0  0  0  0  0  0  0  0  0  0
   -1.7260   23.2600  -26.9640 C   0  0  0  0  0  0  0  0  0  0  0  0
   -1.1380   24.3560  -27.6100 C   0  0  0  0  0  0  0  0  0  0  0  0
    0.1250   24.9170  -27.0890 C   0  0  0  0  0  0  0  0  0  0  0  0
    1.1280   24.9660  -27.8500 O   0  0  0  0  0  0  0  0  0  0  0  0
    0.2180   25.4270  -25.7440 N   0  0  0  0  0  0  0  0  0  0  0  0
   -0.9440   26.0770  -25.1190 C   0  0  0  0  0  0  0  0  0  0  0  0
   -0.5160   26.9320  -23.9240 C   0  0  0  0  0  0  0  0  0  0  0  0
    0.7380   27.6250  -24.2610 N   0  0  0  0  0  0  0  0  0  0  0  0
    1.0310   28.6700  -23.2700 C   0  0  0  0  0  0  0  0  0  0  0  0
    1.8710   26.6760  -24.3650 C   0  0  0  0  0  0  0  0  0  0  0  0
    1.4750   25.3210  -24.9900 C   0  0  0  0  0  0  0  0  0  0  0  0
   -1.7780   24.9260  -28.7280 C   0  0  0  0  0  0  0  0  0  0  0  0
   -1.2380   26.0470  -29.3490 O   0  0  0  0  0  0  0  0  0  0  0  0
   -7.4470   23.4230  -30.7920 C   0  0  0  0  0  0  0  0  0  0  0  0
   -8.0170   22.2770  -31.3520 C   0  0  0  0  0  0  0  0  0  0  0  0
   -8.4543   19.7439  -30.7568 H   0  0  0  0  0  0  0  0  0  0  0  0
   -9.8264   19.7701  -31.9157 H   0  0  0  0  0  0  0  0  0  0  0  0
   -8.6771   18.3897  -31.9157 H   0  0  0  0  0  0  0  0  0  0  0  0
   -8.5501   20.5316  -33.6213 H   0  0  0  0  0  0  0  0  0  0  0  0
   -6.2795   18.7885  -32.5570 H   0  0  0  0  0  0  0  0  0  0  0  0
   -7.3144   18.5013  -33.9968 H   0  0  0  0  0  0  0  0  0  0  0  0
   -6.1305   19.8522  -33.9968 H   0  0  0  0  0  0  0  0  0  0  0  0
   -5.3253   21.1526  -33.1365 H   0  0  0  0  0  0  0  0  0  0  0  0
   -4.3127   23.1912  -32.1268 H   0  0  0  0  0  0  0  0  0  0  0  0
   -5.6270   23.1230  -28.8200 H   0  0  0  0  0  0  0  0  0  0  0  0
   -3.3569   21.8355  -26.9474 H   0  0  0  0  0  0  0  0  0  0  0  0
   -1.2502   22.8331  -26.0688 H   0  0  0  0  0  0  0  0  0  0  0  0
   -1.4398   26.7192  -25.8618 H   0  0  0  0  0  0  0  0  0  0  0  0
   -1.6332   25.2969  -24.7634 H   0  0  0  0  0  0  0  0  0  0  0  0
   -1.2985   27.6719  -23.6998 H   0  0  0  0  0  0  0  0  0  0  0  0
   -0.3639   26.2922  -23.0422 H   0  0  0  0  0  0  0  0  0  0  0  0
    0.9153   28.2574  -22.2569 H   0  0  0  0  0  0  0  0  0  0  0  0
    2.0633   29.0249  -23.4057 H   0  0  0  0  0  0  0  0  0  0  0  0
    0.3337   29.5099  -23.4057 H   0  0  0  0  0  0  0  0  0  0  0  0
    2.6536   27.1330  -24.9885 H   0  0  0  0  0  0  0  0  0  0  0  0
    2.2224   26.4737  -23.3425 H   0  0  0  0  0  0  0  0  0  0  0  0
    2.2745   24.9932  -25.6707 H   0  0  0  0  0  0  0  0  0  0  0  0
    1.3321   24.5929  -24.1779 H   0  0  0  0  0  0  0  0  0  0  0  0
   -8.0466   24.0649  -30.1299 H   0  0  0  0  0  0  0  0  0  0  0  0
   -9.0644   22.0242  -31.1306 H   0  0  0  0  0  0  0  0  0  0  0  0
  1  2  1  0
  2  3  1  0
  2  4  1  0
  4  5  2  0
  5  6  1  0
  6  7  2  0
  7  8  1  0
  8  9  2  0
  8 10  2  0
  8 11  1  0
 11 12  1  0
 12 13  2  0
 13 14  1  0
 13 15  1  0
 15 16  2  0
 16 17  1  0
 17 18  1  0
 18 19  2  0
 18 20  1  0
 20 21  1  0
 21 22  1  0
 22 23  1  0
 23 24  1  0
 23 25  1  0
 25 26  1  0
 17 27  2  0
 27 28  1  0
  7 29  1  0
 29 30  2  0
 30  4  1  0
 27 12  1  0
 26 20  1  0
  1 31  1  0
  1 32  1  0
  1 33  1  0
  2 34  1  0
  3 35  1  0
  3 36  1  0
  3 37  1  0
  5 38  1  0
  6 39  1  0
 14 40  1  0
 15 41  1  0
 16 42  1  0
 21 43  1  0
 21 44  1  0
 22 45  1  0
 22 46  1  0
 24 47  1  0
 24 48  1  0
 24 49  1  0
 25 50  1  0
 25 51  1  0
 26 52  1  0
 26 53  1  0
 29 54  1  0
 30 55  1  0
M  CHG  2  11  -1  28  -1
M  END
>  <UniqueID>  (28) 
27

>  <SMILES>  (28) 
CC(C)c1ccc(S(=O)(=O)[N-]c2c(O)ccc(C(=O)N3CCN(C)CC3)c2[O-])cc1

>  <Energy>  (28) 
72.81607219513951

>  <Genealogy>  (28) 
CC(C)c1ccc(S(=O)(=O)[N-]c2c(O)ccc(C(=O)N3CCN(C)CC3)c2[O-])cc1 (protonated)
CC(C)c1ccc(S(=O)(=O)[N-]c2c(O)ccc(C(=O)N3CCN(C)CC3)c2[O-])cc1 (3D coordinates assigned)
CC(C)c1ccc(S(=O)(=O)[N-]c2c(O)ccc(C(=O)N3CCN(C)CC3)c2[O-])cc1 (nonaromatic ring conformer: 72.81607219513951 kcal/mol)

>  <smiles>  (28) 
CC(C)c1ccc(S(=O)(=O)Nc2c(O)ccc(C(=O)N3CCN(C)CC3)c2O)cc1

>  <score_type>  (28) 
oracle

>  <origin>  (28) 
adgpu

>  <m_score__min__energy>  (28) 
-14.5

>  <m_primary>  (28) 
energy

$$$$
28:0
     RDKit          3D

 54 57  0  0  0  0  0  0  0  0999 V2000
   -5.2160   18.1680  -35.0310 O   0  0  0  0  0  0  0  0  0  0  0  0
   -5.3430   18.8580  -33.9850 C   0  0  0  0  0  0  0  0  0  0  0  0
   -4.1880   19.5240  -33.4570 N   0  0  0  0  0  0  0  0  0  0  0  0
   -4.1960   20.7050  -32.6430 C   0  0  0  0  0  0  0  0  0  0  0  0
   -3.0890   20.9790  -31.8310 C   0  0  0  0  0  0  0  0  0  0  0  0
   -3.0680   22.1230  -31.0290 C   0  0  0  0  0  0  0  0  0  0  0  0
   -4.1460   23.0170  -31.0470 C   0  0  0  0  0  0  0  0  0  0  0  0
   -4.1450   24.4300  -29.9990 S   0  0  0  0  0  0  0  0  0  0  0  0
   -5.4920   24.5940  -29.3500 O   0  0  0  0  0  0  0  0  0  0  0  0
   -3.8630   25.6630  -30.8120 O   0  0  0  0  0  0  0  0  0  0  0  0
   -2.9150   24.2170  -28.7600 C   0  0  0  0  0  0  0  0  0  0  0  0
   -1.7190   24.9490  -28.8050 C   0  0  0  0  0  0  0  0  0  0  0  0
   -0.7400   24.7560  -27.8260 C   0  0  0  0  0  0  0  0  0  0  0  0
   -0.9430   23.8220  -26.8000 C   0  0  0  0  0  0  0  0  0  0  0  0
    0.2730   23.5840  -25.5470 S   0  0  0  0  0  0  0  0  0  0  0  0
   -0.0460   22.3180  -24.8010 O   0  0  0  0  0  0  0  0  0  0  0  0
    1.6330   23.4420  -26.1730 O   0  0  0  0  0  0  0  0  0  0  0  0
    0.2570   24.9380  -24.4470 N   0  0  0  0  0  0  0  0  0  0  0  0
   -0.9990   25.6950  -24.5910 C   0  0  0  0  0  0  0  0  0  0  0  0
   -0.9640   26.9540  -23.7130 C   0  0  0  0  0  0  0  0  0  0  0  0
    0.1420   27.7690  -24.0510 O   0  0  0  0  0  0  0  0  0  0  0  0
    1.3460   27.0630  -23.8210 C   0  0  0  0  0  0  0  0  0  0  0  0
    1.4180   25.8090  -24.7050 C   0  0  0  0  0  0  0  0  0  0  0  0
   -2.1370   23.0900  -26.7570 C   0  0  0  0  0  0  0  0  0  0  0  0
   -3.1170   23.2840  -27.7330 C   0  0  0  0  0  0  0  0  0  0  0  0
   -5.2450   22.7590  -31.8770 C   0  0  0  0  0  0  0  0  0  0  0  0
   -5.2670   21.6150  -32.6790 C   0  0  0  0  0  0  0  0  0  0  0  0
   -6.6510   18.9050  -33.2930 C   0  0  0  0  0  0  0  0  0  0  0  0
   -7.0440   17.8760  -32.4210 C   0  0  0  0  0  0  0  0  0  0  0  0
   -8.2820   17.9560  -31.7790 C   0  0  0  0  0  0  0  0  0  0  0  0
   -9.1130   19.0550  -32.0030 C   0  0  0  0  0  0  0  0  0  0  0  0
   -8.6900   20.0640  -32.8690 C   0  0  0  0  0  0  0  0  0  0  0  0
   -7.4810   19.9700  -33.4850 N   0  0  0  0  0  0  0  0  0  0  0  0
   -2.2314   20.2902  -31.8243 H   0  0  0  0  0  0  0  0  0  0  0  0
   -2.2016   22.3222  -30.3811 H   0  0  0  0  0  0  0  0  0  0  0  0
   -1.5512   25.6766  -29.6127 H   0  0  0  0  0  0  0  0  0  0  0  0
    0.1924   25.3386  -27.8606 H   0  0  0  0  0  0  0  0  0  0  0  0
    0.3220   24.5580  -23.4730 H   0  0  0  0  0  0  0  0  0  0  0  0
   -1.1270   25.9894  -25.6431 H   0  0  0  0  0  0  0  0  0  0  0  0
   -1.8389   25.0597  -24.2734 H   0  0  0  0  0  0  0  0  0  0  0  0
   -1.8923   27.5247  -23.8630 H   0  0  0  0  0  0  0  0  0  0  0  0
   -0.8696   26.6486  -22.6605 H   0  0  0  0  0  0  0  0  0  0  0  0
    2.1986   27.7180  -24.0535 H   0  0  0  0  0  0  0  0  0  0  0  0
    1.3784   26.7539  -22.7658 H   0  0  0  0  0  0  0  0  0  0  0  0
    1.4188   26.1097  -25.7631 H   0  0  0  0  0  0  0  0  0  0  0  0
    2.3403   25.2570  -24.4712 H   0  0  0  0  0  0  0  0  0  0  0  0
   -2.3032   22.3597  -25.9514 H   0  0  0  0  0  0  0  0  0  0  0  0
   -4.0503   22.7030  -27.6959 H   0  0  0  0  0  0  0  0  0  0  0  0
   -6.0931   23.4592  -31.8973 H   0  0  0  0  0  0  0  0  0  0  0  0
   -6.1251   21.4258  -33.3407 H   0  0  0  0  0  0  0  0  0  0  0  0
   -6.3826   17.0148  -32.2453 H   0  0  0  0  0  0  0  0  0  0  0  0
   -8.6017   17.1538  -31.0976 H   0  0  0  0  0  0  0  0  0  0  0  0
  -10.0901   19.1248  -31.5026 H   0  0  0  0  0  0  0  0  0  0  0  0
   -9.3347   20.9360  -33.0536 H   0  0  0  0  0  0  0  0  0  0  0  0
  1  2  2  0
  2  3  1  0
  3  4  1  0
  4  5  2  0
  5  6  1  0
  6  7  2  0
  7  8  1  0
  8  9  2  0
  8 10  2  0
  8 11  1  0
 11 12  2  0
 12 13  1  0
 13 14  2  0
 14 15  1  0
 15 16  2  0
 15 17  2  0
 15 18  1  0
 18 19  1  0
 19 20  1  0
 20 21  1  0
 21 22  1  0
 22 23  1  0
 14 24  1  0
 24 25  2  0
  7 26  1  0
 26 27  2  0
  2 28  1  0
 28 29  2  0
 29 30  1  0
 30 31  2  0
 31 32  1  0
 32 33  2  0
 27  4  1  0
 33 28  1  0
 25 11  1  0
 23 18  1  0
  5 34  1  0
  6 35  1  0
 12 36  1  0
 13 37  1  0
 18 38  1  0
 19 39  1  0
 19 40  1  0
 20 41  1  0
 20 42  1  0
 22 43  1  0
 22 44  1  0
 23 45  1  0
 23 46  1  0
 24 47  1  0
 25 48  1  0
 26 49  1  0
 27 50  1  0
 29 51  1  0
 30 52  1  0
 31 53  1  0
 32 54  1  0
M  CHG  2   3  -1  18   1
M  END
>  <UniqueID>  (29) 
28

>  <SMILES>  (29) 
O=C([N-]c1ccc(S(=O)(=O)c2ccc(S(=O)(=O)[NH+]3CCOCC3)cc2)cc1)c1ccccn1

>  <Energy>  (29) 
65.75482754463015

>  <Genealogy>  (29) 
O=C([N-]c1ccc(S(=O)(=O)c2ccc(S(=O)(=O)[NH+]3CCOCC3)cc2)cc1)c1ccccn1 (protonated)
O=C([N-]c1ccc(S(=O)(=O)c2ccc(S(=O)(=O)[NH+]3CCOCC3)cc2)cc1)c1ccccn1 (3D coordinates assigned)
O=C([N-]c1ccc(S(=O)(=O)c2ccc(S(=O)(=O)[NH+]3CCOCC3)cc2)cc1)c1ccccn1 (nonaromatic ring conformer: 65.75482754463015 kcal/mol)

>  <smiles>  (29) 
O=C(Nc1ccc(S(=O)(=O)c2ccc(S(=O)(=O)N3CCOCC3)cc2)cc1)c1ccccn1

>  <score_type>  (29) 
oracle

>  <origin>  (29) 
adgpu

>  <m_score__min__energy>  (29) 
-11.66

>  <m_primary>  (29) 
energy

$$$$
29:0
     RDKit          3D

 51 54  0  0  0  0  0  0  0  0999 V2000
   -0.8190   26.7400  -23.3990 C   0  0  0  0  0  0  0  0  0  0  0  0
   -0.8390   26.5600  -24.8880 C   0  0  0  0  0  0  0  0  0  0  0  0
    0.0780   27.2420  -25.7050 C   0  0  0  0  0  0  0  0  0  0  0  0
    0.0360   27.0790  -27.0910 C   0  0  0  0  0  0  0  0  0  0  0  0
   -0.9240   26.2450  -27.6700 C   0  0  0  0  0  0  0  0  0  0  0  0
   -1.8550   25.5710  -26.8650 C   0  0  0  0  0  0  0  0  0  0  0  0
   -3.1060   24.5620  -27.5890 S   0  0  0  0  0  0  0  0  0  0  0  0
   -2.7620   23.1160  -27.3480 O   0  0  0  0  0  0  0  0  0  0  0  0
   -4.4360   24.8680  -26.9580 O   0  0  0  0  0  0  0  0  0  0  0  0
   -3.1710   24.9070  -29.2900 N   0  0  0  0  0  0  0  0  0  0  0  0
   -4.0130   24.2620  -30.2580 C   0  0  0  0  0  0  0  0  0  0  0  0
   -3.5420   23.2310  -31.0920 C   0  0  0  0  0  0  0  0  0  0  0  0
   -4.3840   22.6620  -32.0570 C   0  0  0  0  0  0  0  0  0  0  0  0
   -3.8870   21.5970  -32.9420 C   0  0  0  0  0  0  0  0  0  0  0  0
   -2.7150   21.7010  -33.3950 O   0  0  0  0  0  0  0  0  0  0  0  0
   -4.6940   20.4460  -33.2790 N   0  0  0  0  0  0  0  0  0  0  0  0
   -6.1610   20.5280  -33.3210 C   0  0  0  0  0  0  0  0  0  0  0  0
   -6.7750   19.2780  -32.7020 C   0  0  0  0  0  0  0  0  0  0  0  0
   -6.1790   18.0240  -33.2790 C   0  0  0  0  0  0  0  0  0  0  0  0
   -6.8990   16.8200  -33.2010 C   0  0  0  0  0  0  0  0  0  0  0  0
   -6.3400   15.6280  -33.6700 C   0  0  0  0  0  0  0  0  0  0  0  0
   -5.0580   15.6280  -34.2230 C   0  0  0  0  0  0  0  0  0  0  0  0
   -4.3280   16.8160  -34.2930 C   0  0  0  0  0  0  0  0  0  0  0  0
   -4.8710   18.0190  -33.8090 C   0  0  0  0  0  0  0  0  0  0  0  0
   -4.0360   19.2770  -33.8870 C   0  0  0  0  0  0  0  0  0  0  0  0
   -5.7100   23.0940  -32.1670 C   0  0  0  0  0  0  0  0  0  0  0  0
   -6.1970   24.0830  -31.3070 C   0  0  0  0  0  0  0  0  0  0  0  0
   -5.3550   24.6630  -30.3500 C   0  0  0  0  0  0  0  0  0  0  0  0
   -5.8440   25.6490  -29.4910 O   0  0  0  0  0  0  0  0  0  0  0  0
   -1.8060   25.7270  -25.4750 C   0  0  0  0  0  0  0  0  0  0  0  0
   -0.9278   25.7608  -22.9098 H   0  0  0  0  0  0  0  0  0  0  0  0
    0.1354   27.1964  -23.0976 H   0  0  0  0  0  0  0  0  0  0  0  0
   -1.6499   27.3948  -23.0976 H   0  0  0  0  0  0  0  0  0  0  0  0
    0.8299   27.9051  -25.2523 H   0  0  0  0  0  0  0  0  0  0  0  0
    0.7599   27.6080  -27.7282 H   0  0  0  0  0  0  0  0  0  0  0  0
   -0.9501   26.1162  -28.7621 H   0  0  0  0  0  0  0  0  0  0  0  0
   -2.5083   22.8701  -30.9860 H   0  0  0  0  0  0  0  0  0  0  0  0
   -6.4919   21.4128  -32.7575 H   0  0  0  0  0  0  0  0  0  0  0  0
   -6.4866   20.6072  -34.3687 H   0  0  0  0  0  0  0  0  0  0  0  0
   -6.5953   19.2920  -31.6169 H   0  0  0  0  0  0  0  0  0  0  0  0
   -7.8528   19.2792  -32.9221 H   0  0  0  0  0  0  0  0  0  0  0  0
   -7.9100   16.8155  -32.7676 H   0  0  0  0  0  0  0  0  0  0  0  0
   -6.9102   14.6897  -33.6034 H   0  0  0  0  0  0  0  0  0  0  0  0
   -4.6231   14.6920  -34.6035 H   0  0  0  0  0  0  0  0  0  0  0  0
   -3.3189   16.8107  -34.7308 H   0  0  0  0  0  0  0  0  0  0  0  0
   -3.0851   19.0990  -33.3635 H   0  0  0  0  0  0  0  0  0  0  0  0
   -3.8835   19.5038  -34.9525 H   0  0  0  0  0  0  0  0  0  0  0  0
   -6.3697   22.6555  -32.9303 H   0  0  0  0  0  0  0  0  0  0  0  0
   -7.2456   24.4068  -31.3824 H   0  0  0  0  0  0  0  0  0  0  0  0
   -5.3730   25.8800  -28.6220 H   0  0  0  0  0  0  0  0  0  0  0  0
   -2.5284   25.1946  -24.8389 H   0  0  0  0  0  0  0  0  0  0  0  0
  1  2  1  0
  2  3  2  0
  3  4  1  0
  4  5  2  0
  5  6  1  0
  6  7  1  0
  7  8  2  0
  7  9  2  0
  7 10  1  0
 10 11  1  0
 11 12  2  0
 12 13  1  0
 13 14  1  0
 14 15  2  0
 14 16  1  0
 16 17  1  0
 17 18  1  0
 18 19  1  0
 19 20  2  0
 20 21  1  0
 21 22  2  0
 22 23  1  0
 23 24  2  0
 24 25  1  0
 13 26  2  0
 26 27  1  0
 27 28  2  0
 28 29  1  0
  6 30  2  0
 30  2  1  0
 28 11  1  0
 25 16  1  0
 24 19  1  0
  1 31  1  0
  1 32  1  0
  1 33  1  0
  3 34  1  0
  4 35  1  0
  5 36  1  0
 12 37  1  0
 17 38  1  0
 17 39  1  0
 18 40  1  0
 18 41  1  0
 20 42  1  0
 21 43  1  0
 22 44  1  0
 23 45  1  0
 25 46  1  0
 25 47  1  0
 26 48  1  0
 27 49  1  0
 29 50  1  0
 30 51  1  0
M  CHG  1  10  -1
M  END
>  <UniqueID>  (30) 
29

>  <SMILES>  (30) 
Cc1cccc(S(=O)(=O)[N-]c2cc(C(=O)N3CCc4ccccc4C3)ccc2O)c1

>  <Energy>  (30) 
71.05772662092056

>  <Genealogy>  (30) 
Cc1cccc(S(=O)(=O)[N-]c2cc(C(=O)N3CCc4ccccc4C3)ccc2O)c1 (protonated)
Cc1cccc(S(=O)(=O)[N-]c2cc(C(=O)N3CCc4ccccc4C3)ccc2O)c1 (3D coordinates assigned)
Cc1cccc(S(=O)(=O)[N-]c2cc(C(=O)N3CCc4ccccc4C3)ccc2O)c1 (nonaromatic ring conformer: 71.05772662092056 kcal/mol)

>  <smiles>  (30) 
Cc1cccc(S(=O)(=O)Nc2cc(C(=O)N3CCc4ccccc4C3)ccc2O)c1

>  <score_type>  (30) 
oracle

>  <origin>  (30) 
adgpu

>  <m_score__min__energy>  (30) 
-12.24

>  <m_primary>  (30) 
energy

$$$$
30:0
     RDKit          3D

 53 56  0  0  0  0  0  0  0  0999 V2000
   -5.1390   17.8100  -33.3710 C   0  0  0  0  0  0  0  0  0  0  0  0
   -6.1230   18.8330  -33.8560 C   0  0  0  0  0  0  0  0  0  0  0  0
   -6.1800   19.1020  -35.0880 O   0  0  0  0  0  0  0  0  0  0  0  0
   -6.9610   19.5490  -32.9320 N   0  0  0  0  0  0  0  0  0  0  0  0
   -8.3250   19.0370  -32.7380 C   0  0  0  0  0  0  0  0  0  0  0  0
   -9.0280   19.7000  -31.5450 C   0  0  0  0  0  0  0  0  0  0  0  0
   -8.9440   21.2170  -31.6560 C   0  0  0  0  0  0  0  0  0  0  0  0
   -7.5060   21.6510  -31.7390 C   0  0  0  0  0  0  0  0  0  0  0  0
   -7.1110   22.8820  -31.1870 C   0  0  0  0  0  0  0  0  0  0  0  0
   -5.7630   23.2720  -31.2060 C   0  0  0  0  0  0  0  0  0  0  0  0
   -5.2450   24.7620  -30.4120 S   0  0  0  0  0  0  0  0  0  0  0  0
   -5.8480   25.9310  -31.1340 O   0  0  0  0  0  0  0  0  0  0  0  0
   -5.7090   24.7980  -28.9800 O   0  0  0  0  0  0  0  0  0  0  0  0
   -3.5120   24.8870  -30.4960 N   0  0  0  0  0  0  0  0  0  0  0  0
   -2.6010   24.0760  -29.7410 C   0  0  0  0  0  0  0  0  0  0  0  0
   -2.8210   22.6980  -29.5720 C   0  0  0  0  0  0  0  0  0  0  0  0
   -1.9200   21.9070  -28.8470 C   0  0  0  0  0  0  0  0  0  0  0  0
   -0.7640   22.5020  -28.2960 C   0  0  0  0  0  0  0  0  0  0  0  0
   -0.5660   23.8880  -28.4240 C   0  0  0  0  0  0  0  0  0  0  0  0
   -1.4730   24.6730  -29.1410 C   0  0  0  0  0  0  0  0  0  0  0  0
   -1.2250   26.0420  -29.2630 O   0  0  0  0  0  0  0  0  0  0  0  0
    0.2120   21.6950  -27.4820 C   0  0  0  0  0  0  0  0  0  0  0  0
    0.0090   20.1820  -27.6620 C   0  0  0  0  0  0  0  0  0  0  0  0
   -1.4170   19.7940  -27.6280 N   0  0  0  0  0  0  0  0  0  0  0  0
   -2.0470   20.0740  -26.3180 C   0  0  0  0  0  0  0  0  0  0  0  0
   -2.1620   20.4180  -28.7390 C   0  0  0  0  0  0  0  0  0  0  0  0
   -4.8130   22.4370  -31.8050 C   0  0  0  0  0  0  0  0  0  0  0  0
   -5.2020   21.2280  -32.3870 C   0  0  0  0  0  0  0  0  0  0  0  0
   -6.5540   20.8250  -32.3770 C   0  0  0  0  0  0  0  0  0  0  0  0
   -5.1309   17.8016  -32.2711 H   0  0  0  0  0  0  0  0  0  0  0  0
   -5.4295   16.8165  -33.7431 H   0  0  0  0  0  0  0  0  0  0  0  0
   -4.1349   18.0617  -33.7431 H   0  0  0  0  0  0  0  0  0  0  0  0
   -8.9103   19.2338  -33.6484 H   0  0  0  0  0  0  0  0  0  0  0  0
   -8.2554   17.9586  -32.5328 H   0  0  0  0  0  0  0  0  0  0  0  0
  -10.0849   19.3954  -31.5319 H   0  0  0  0  0  0  0  0  0  0  0  0
   -8.5318   19.3819  -30.6163 H   0  0  0  0  0  0  0  0  0  0  0  0
   -9.4759   21.5455  -32.5611 H   0  0  0  0  0  0  0  0  0  0  0  0
   -9.4054   21.6690  -30.7656 H   0  0  0  0  0  0  0  0  0  0  0  0
   -7.8645   23.5449  -30.7366 H   0  0  0  0  0  0  0  0  0  0  0  0
   -3.7140   22.2336  -30.0157 H   0  0  0  0  0  0  0  0  0  0  0  0
    0.3108   24.3588  -27.9555 H   0  0  0  0  0  0  0  0  0  0  0  0
   -1.2380   26.5160  -30.1590 H   0  0  0  0  0  0  0  0  0  0  0  0
    1.2340   21.9548  -27.7952 H   0  0  0  0  0  0  0  0  0  0  0  0
    0.0447   21.9337  -26.4213 H   0  0  0  0  0  0  0  0  0  0  0  0
    0.4331   19.8821  -28.6316 H   0  0  0  0  0  0  0  0  0  0  0  0
    0.5132   19.6754  -26.8258 H   0  0  0  0  0  0  0  0  0  0  0  0
   -1.3644   19.7706  -25.5105 H   0  0  0  0  0  0  0  0  0  0  0  0
   -2.2576   21.1505  -26.2350 H   0  0  0  0  0  0  0  0  0  0  0  0
   -2.9871   19.5090  -26.2350 H   0  0  0  0  0  0  0  0  0  0  0  0
   -1.8509   19.9426  -29.6809 H   0  0  0  0  0  0  0  0  0  0  0  0
   -3.2340   20.2713  -28.5410 H   0  0  0  0  0  0  0  0  0  0  0  0
   -3.7540   22.7343  -31.8176 H   0  0  0  0  0  0  0  0  0  0  0  0
   -4.4457   20.5831  -32.8583 H   0  0  0  0  0  0  0  0  0  0  0  0
  1  2  1  0
  2  3  2  0
  2  4  1  0
  4  5  1  0
  5  6  1  0
  6  7  1  0
  7  8  1  0
  8  9  2  0
  9 10  1  0
 10 11  1  0
 11 12  2  0
 11 13  2  0
 11 14  1  0
 14 15  1  0
 15 16  2  0
 16 17  1  0
 17 18  2  0
 18 19  1  0
 19 20  2  0
 20 21  1  0
 18 22  1  0
 22 23  1  0
 23 24  1  0
 24 25  1  0
 24 26  1  0
 10 27  2  0
 27 28  1  0
 28 29  2  0
 29  4  1  0
 29  8  1  0
 20 15  1  0
 26 17  1  0
  1 30  1  0
  1 31  1  0
  1 32  1  0
  5 33  1  0
  5 34  1  0
  6 35  1  0
  6 36  1  0
  7 37  1  0
  7 38  1  0
  9 39  1  0
 16 40  1  0
 19 41  1  0
 21 42  1  0
 22 43  1  0
 22 44  1  0
 23 45  1  0
 23 46  1  0
 25 47  1  0
 25 48  1  0
 25 49  1  0
 26 50  1  0
 26 51  1  0
 27 52  1  0
 28 53  1  0
M  CHG  1  14  -1
M  END
>  <UniqueID>  (31) 
30

>  <SMILES>  (31) 
CC(=O)N1CCCc2cc(S(=O)(=O)[N-]c3cc4c(cc3O)CCN(C)C4)ccc21

>  <Energy>  (31) 
70.8264267620322

>  <Genealogy>  (31) 
CC(=O)N1CCCc2cc(S(=O)(=O)[N-]c3cc4c(cc3O)CCN(C)C4)ccc21 (protonated)
CC(=O)N1CCCc2cc(S(=O)(=O)[N-]c3cc4c(cc3O)CCN(C)C4)ccc21 (3D coordinates assigned)
CC(=O)N1CCCc2cc(S(=O)(=O)[N-]c3cc4c(cc3O)CCN(C)C4)ccc21 (nonaromatic ring conformer: 70.8264267620322 kcal/mol)

>  <smiles>  (31) 
CC(=O)N1CCCc2cc(S(=O)(=O)Nc3cc4c(cc3O)CCN(C)C4)ccc21

>  <score_type>  (31) 
oracle

>  <origin>  (31) 
adgpu

>  <m_score__min__energy>  (31) 
-13.5

>  <m_primary>  (31) 
energy

$$$$
31:0
     RDKit          3D

 61 65  0  0  0  0  0  0  0  0999 V2000
   -8.1170   19.3930  -31.2400 O   0  0  0  0  0  0  0  0  0  0  0  0
   -7.2490   20.2400  -31.5900 C   0  0  0  0  0  0  0  0  0  0  0  0
   -7.5270   21.6110  -31.5190 O   0  0  0  0  0  0  0  0  0  0  0  0
   -6.6040   22.6080  -31.1700 C   0  0  0  0  0  0  0  0  0  0  0  0
   -6.6610   23.8340  -31.8390 C   0  0  0  0  0  0  0  0  0  0  0  0
   -5.7540   24.8510  -31.5340 C   0  0  0  0  0  0  0  0  0  0  0  0
   -4.7700   24.6500  -30.5630 C   0  0  0  0  0  0  0  0  0  0  0  0
   -3.8600   25.6690  -30.3010 O   0  0  0  0  0  0  0  0  0  0  0  0
   -4.6920   23.4180  -29.8820 C   0  0  0  0  0  0  0  0  0  0  0  0
   -3.6520   23.1730  -28.8540 C   0  0  0  0  0  0  0  0  0  0  0  0
   -3.0080   22.0380  -28.8500 N   0  0  0  0  0  0  0  0  0  0  0  0
   -1.7840   21.6580  -27.6960 S   0  0  0  0  0  0  0  0  0  0  0  0
   -2.2360   20.5060  -26.8440 O   0  0  0  0  0  0  0  0  0  0  0  0
   -0.5120   21.3070  -28.4150 O   0  0  0  0  0  0  0  0  0  0  0  0
   -1.5290   23.0630  -26.7040 C   0  0  0  0  0  0  0  0  0  0  0  0
   -0.5340   23.0590  -25.7170 C   0  0  0  0  0  0  0  0  0  0  0  0
   -0.3380   24.1870  -24.9170 C   0  0  0  0  0  0  0  0  0  0  0  0
   -1.1370   25.3180  -25.0990 C   0  0  0  0  0  0  0  0  0  0  0  0
   -2.1320   25.3210  -26.0830 C   0  0  0  0  0  0  0  0  0  0  0  0
   -2.3350   24.1930  -26.8950 C   0  0  0  0  0  0  0  0  0  0  0  0
   -3.3670   24.2200  -27.8990 N   0  0  0  0  0  0  0  0  0  0  0  0
   -5.6040   22.3980  -30.2030 C   0  0  0  0  0  0  0  0  0  0  0  0
   -5.9800   19.7770  -32.1900 C   0  0  0  0  0  0  0  0  0  0  0  0
   -4.7730   20.3490  -31.7500 C   0  0  0  0  0  0  0  0  0  0  0  0
   -3.5430   19.8960  -32.2420 C   0  0  0  0  0  0  0  0  0  0  0  0
   -2.0390   20.6300  -31.6790 S   0  0  0  0  0  0  0  0  0  0  0  0
   -1.6270   19.9910  -30.3810 O   0  0  0  0  0  0  0  0  0  0  0  0
   -2.2700   22.0930  -31.4230 O   0  0  0  0  0  0  0  0  0  0  0  0
   -0.7560   20.4450  -32.8500 N   0  0  0  0  0  0  0  0  0  0  0  0
   -0.3520   19.0260  -32.9430 C   0  0  0  0  0  0  0  0  0  0  0  0
    0.5650   18.7530  -34.1570 C   0  0  0  0  0  0  0  0  0  0  0  0
    1.1400   20.0490  -34.7360 C   0  0  0  0  0  0  0  0  0  0  0  0
    0.0190   21.0280  -35.1240 C   0  0  0  0  0  0  0  0  0  0  0  0
   -1.1810   20.9580  -34.1620 C   0  0  0  0  0  0  0  0  0  0  0  0
   -3.5140   18.8580  -33.1800 C   0  0  0  0  0  0  0  0  0  0  0  0
   -4.7040   18.2940  -33.6390 C   0  0  0  0  0  0  0  0  0  0  0  0
   -5.9390   18.7550  -33.1720 C   0  0  0  0  0  0  0  0  0  0  0  0
   -7.0950   18.2040  -33.7280 O   0  0  0  0  0  0  0  0  0  0  0  0
   -7.4263   23.9989  -32.6117 H   0  0  0  0  0  0  0  0  0  0  0  0
   -5.8146   25.8148  -32.0607 H   0  0  0  0  0  0  0  0  0  0  0  0
   -3.2060   21.3170  -29.5800 H   0  0  0  0  0  0  0  0  0  0  0  0
    0.0930   22.1669  -25.5723 H   0  0  0  0  0  0  0  0  0  0  0  0
    0.4449   24.1846  -24.1443 H   0  0  0  0  0  0  0  0  0  0  0  0
   -0.9841   26.2065  -24.4688 H   0  0  0  0  0  0  0  0  0  0  0  0
   -2.7599   26.2135  -26.2216 H   0  0  0  0  0  0  0  0  0  0  0  0
   -3.9660   25.0760  -27.9420 H   0  0  0  0  0  0  0  0  0  0  0  0
   -5.5352   21.4258  -29.6931 H   0  0  0  0  0  0  0  0  0  0  0  0
   -4.7955   21.1626  -31.0100 H   0  0  0  0  0  0  0  0  0  0  0  0
    0.1869   18.7512  -32.0243 H   0  0  0  0  0  0  0  0  0  0  0  0
   -1.2645   18.4250  -33.0700 H   0  0  0  0  0  0  0  0  0  0  0  0
    1.3954   18.1059  -33.8380 H   0  0  0  0  0  0  0  0  0  0  0  0
   -0.0369   18.2660  -34.9384 H   0  0  0  0  0  0  0  0  0  0  0  0
    1.7862   20.5233  -33.9827 H   0  0  0  0  0  0  0  0  0  0  0  0
    1.7163   19.8021  -35.6399 H   0  0  0  0  0  0  0  0  0  0  0  0
    0.4232   22.0510  -35.1106 H   0  0  0  0  0  0  0  0  0  0  0  0
   -0.3381   20.7485  -36.1262 H   0  0  0  0  0  0  0  0  0  0  0  0
   -1.6052   21.9652  -34.0375 H   0  0  0  0  0  0  0  0  0  0  0  0
   -1.9374   20.2793  -34.5831 H   0  0  0  0  0  0  0  0  0  0  0  0
   -2.5497   18.4858  -33.5564 H   0  0  0  0  0  0  0  0  0  0  0  0
   -4.6709   17.4781  -34.3760 H   0  0  0  0  0  0  0  0  0  0  0  0
   -8.0290   18.4670  -33.4450 H   0  0  0  0  0  0  0  0  0  0  0  0
  1  2  2  0
  2  3  1  0
  3  4  1  0
  4  5  2  0
  5  6  1  0
  6  7  2  0
  7  8  1  0
  7  9  1  0
  9 10  1  0
 10 11  2  0
 11 12  1  0
 12 13  2  0
 12 14  2  0
 12 15  1  0
 15 16  2  0
 16 17  1  0
 17 18  2  0
 18 19  1  0
 19 20  2  0
 20 21  1  0
  9 22  2  0
  2 23  1  0
 23 24  2  0
 24 25  1  0
 25 26  1  0
 26 27  2  0
 26 28  2  0
 26 29  1  0
 29 30  1  0
 30 31  1  0
 31 32  1  0
 32 33  1  0
 33 34  1  0
 25 35  2  0
 35 36  1  0
 36 37  2  0
 37 38  1  0
 22  4  1  0
 37 23  1  0
 21 10  1  0
 34 29  1  0
 20 15  1  0
  5 39  1  0
  6 40  1  0
 11 41  1  0
 16 42  1  0
 17 43  1  0
 18 44  1  0
 19 45  1  0
 21 46  1  0
 22 47  1  0
 24 48  1  0
 30 49  1  0
 30 50  1  0
 31 51  1  0
 31 52  1  0
 32 53  1  0
 32 54  1  0
 33 55  1  0
 33 56  1  0
 34 57  1  0
 34 58  1  0
 35 59  1  0
 36 60  1  0
 38 61  1  0
M  CHG  2   8  -1  11   1
M  END
>  <UniqueID>  (32) 
31

>  <SMILES>  (32) 
O=C(Oc1ccc([O-])c(C2=[NH+]S(=O)(=O)c3ccccc3N2)c1)c1cc(S(=O)(=O)N2CCCCC2)ccc1O

>  <Energy>  (32) 
89.11697784984962

>  <Genealogy>  (32) 
O=C(Oc1ccc([O-])c(C2=[NH+]S(=O)(=O)c3ccccc3N2)c1)c1cc(S(=O)(=O)N2CCCCC2)ccc1O (protonated)
O=C(Oc1ccc([O-])c(C2=[NH+]S(=O)(=O)c3ccccc3N2)c1)c1cc(S(=O)(=O)N2CCCCC2)ccc1O (3D coordinates assigned)
O=C(Oc1ccc([O-])c(C2=[NH+]S(=O)(=O)c3ccccc3N2)c1)c1cc(S(=O)(=O)N2CCCCC2)ccc1O (nonaromatic ring conformer: 89.11697784984962 kcal/mol)

>  <smiles>  (32) 
O=C(Oc1ccc(O)c(C2=NS(=O)(=O)c3ccccc3N2)c1)c1cc(S(=O)(=O)N2CCCCC2)ccc1O

>  <score_type>  (32) 
oracle

>  <origin>  (32) 
adgpu

>  <m_score__min__energy>  (32) 
-12.82

>  <m_primary>  (32) 
energy

$$$$
32:0
     RDKit          3D

 54 56  0  0  0  0  0  0  0  0999 V2000
    0.9860   22.3640  -35.0230 N   0  0  0  0  0  0  0  0  0  0  0  0
    0.4690   21.3300  -34.9660 C   0  0  0  0  0  0  0  0  0  0  0  0
   -0.1840   20.0180  -34.8900 C   0  0  0  0  0  0  0  0  0  0  0  0
   -1.4960   20.1060  -34.2240 N   0  0  0  0  0  0  0  0  0  0  0  0
   -1.8490   21.3280  -33.4800 C   0  0  0  0  0  0  0  0  0  0  0  0
   -1.7090   21.1640  -31.9890 C   0  0  0  0  0  0  0  0  0  0  0  0
   -0.6650   21.6020  -31.4350 O   0  0  0  0  0  0  0  0  0  0  0  0
   -2.7540   20.5870  -31.1870 N   0  0  0  0  0  0  0  0  0  0  0  0
   -2.6460   20.4660  -29.7340 C   0  0  0  0  0  0  0  0  0  0  0  0
   -3.0060   21.7730  -29.0780 C   0  0  0  0  0  0  0  0  0  0  0  0
   -2.5120   22.0740  -27.7990 C   0  0  0  0  0  0  0  0  0  0  0  0
   -2.8190   23.2960  -27.1960 C   0  0  0  0  0  0  0  0  0  0  0  0
   -3.6140   24.2300  -27.8670 C   0  0  0  0  0  0  0  0  0  0  0  0
   -4.1040   23.9490  -29.1520 C   0  0  0  0  0  0  0  0  0  0  0  0
   -4.9880   24.9400  -29.8570 C   0  0  0  0  0  0  0  0  0  0  0  0
   -4.2990   25.4790  -31.0240 N   0  0  0  0  0  0  0  0  0  0  0  0
   -3.8050   22.7130  -29.7500 C   0  0  0  0  0  0  0  0  0  0  0  0
   -2.2700   18.9050  -34.0000 C   0  0  0  0  0  0  0  0  0  0  0  0
   -1.6460   17.6460  -34.0690 C   0  0  0  0  0  0  0  0  0  0  0  0
   -2.3730   16.4750  -33.8410 C   0  0  0  0  0  0  0  0  0  0  0  0
   -1.5750   14.9150  -33.9250 Cl  0  0  0  0  0  0  0  0  0  0  0  0
   -3.7320   16.5480  -33.5350 C   0  0  0  0  0  0  0  0  0  0  0  0
   -4.3710   17.7860  -33.4780 C   0  0  0  0  0  0  0  0  0  0  0  0
   -3.6580   18.9700  -33.7390 C   0  0  0  0  0  0  0  0  0  0  0  0
   -4.2960   20.2210  -33.7100 O   0  0  0  0  0  0  0  0  0  0  0  0
   -5.5260   20.5060  -33.0990 C   0  0  0  0  0  0  0  0  0  0  0  0
   -5.6190   21.6400  -32.2840 C   0  0  0  0  0  0  0  0  0  0  0  0
   -6.8310   21.9770  -31.6710 C   0  0  0  0  0  0  0  0  0  0  0  0
   -7.9640   21.1830  -31.8790 C   0  0  0  0  0  0  0  0  0  0  0  0
   -9.4860   21.6080  -31.1160 Cl  0  0  0  0  0  0  0  0  0  0  0  0
   -7.8850   20.0580  -32.7080 C   0  0  0  0  0  0  0  0  0  0  0  0
   -6.6740   19.7210  -33.3210 C   0  0  0  0  0  0  0  0  0  0  0  0
   -0.3258   19.6296  -35.9093 H   0  0  0  0  0  0  0  0  0  0  0  0
    0.4579   19.3463  -34.3011 H   0  0  0  0  0  0  0  0  0  0  0  0
   -1.1867   22.1428  -33.8078 H   0  0  0  0  0  0  0  0  0  0  0  0
   -2.9052   21.5511  -33.6912 H   0  0  0  0  0  0  0  0  0  0  0  0
   -3.5980   20.1730  -31.6420 H   0  0  0  0  0  0  0  0  0  0  0  0
   -3.3318   19.6812  -29.3822 H   0  0  0  0  0  0  0  0  0  0  0  0
   -1.6107   20.2038  -29.4704 H   0  0  0  0  0  0  0  0  0  0  0  0
   -1.8809   21.3449  -27.2697 H   0  0  0  0  0  0  0  0  0  0  0  0
   -2.4344   23.5240  -26.1910 H   0  0  0  0  0  0  0  0  0  0  0  0
   -3.8565   25.1890  -27.3859 H   0  0  0  0  0  0  0  0  0  0  0  0
   -5.9129   24.4391  -30.1788 H   0  0  0  0  0  0  0  0  0  0  0  0
   -5.2304   25.7626  -29.1681 H   0  0  0  0  0  0  0  0  0  0  0  0
   -3.4670   24.8730  -31.2100 H   0  0  0  0  0  0  0  0  0  0  0  0
   -3.9270   26.4270  -30.7810 H   0  0  0  0  0  0  0  0  0  0  0  0
   -4.1989   22.4801  -30.7503 H   0  0  0  0  0  0  0  0  0  0  0  0
   -0.5735   17.5829  -34.3052 H   0  0  0  0  0  0  0  0  0  0  0  0
   -4.3006   15.6272  -33.3383 H   0  0  0  0  0  0  0  0  0  0  0  0
   -5.4408   17.8371  -33.2270 H   0  0  0  0  0  0  0  0  0  0  0  0
   -4.7325   22.2713  -32.1241 H   0  0  0  0  0  0  0  0  0  0  0  0
   -6.8929   22.8658  -31.0259 H   0  0  0  0  0  0  0  0  0  0  0  0
   -8.7774   19.4376  -32.8777 H   0  0  0  0  0  0  0  0  0  0  0  0
   -6.6180   18.8407  -33.9782 H   0  0  0  0  0  0  0  0  0  0  0  0
  1  2  3  0
  2  3  1  0
  3  4  1  0
  4  5  1  0
  5  6  1  0
  6  7  2  0
  6  8  1  0
  8  9  1  0
  9 10  1  0
 10 11  2  0
 11 12  1  0
 12 13  2  0
 13 14  1  0
 14 15  1  0
 15 16  1  0
 14 17  2  0
  4 18  1  0
 18 19  2  0
 19 20  1  0
 20 21  1  0
 20 22  2  0
 22 23  1  0
 23 24  2  0
 24 25  1  0
 25 26  1  0
 26 27  2  0
 27 28  1  0
 28 29  2  0
 29 30  1  0
 29 31  1  0
 31 32  2  0
 17 10  1  0
 24 18  1  0
 32 26  1  0
  3 33  1  0
  3 34  1  0
  5 35  1  0
  5 36  1  0
  8 37  1  0
  9 38  1  0
  9 39  1  0
 11 40  1  0
 12 41  1  0
 13 42  1  0
 15 43  1  0
 15 44  1  0
 16 45  1  0
 16 46  1  0
 17 47  1  0
 19 48  1  0
 22 49  1  0
 23 50  1  0
 27 51  1  0
 28 52  1  0
 31 53  1  0
 32 54  1  0
M  END
>  <UniqueID>  (33) 
32

>  <SMILES>  (33) 
N#CCN(CC(=O)NCc1cccc(CN)c1)c1cc(Cl)ccc1Oc1ccc(Cl)cc1

>  <Energy>  (33) 
60.58641030858823

>  <Genealogy>  (33) 
N#CCN(CC(=O)NCc1cccc(CN)c1)c1cc(Cl)ccc1Oc1ccc(Cl)cc1 (3D coordinates assigned)
N#CCN(CC(=O)NCc1cccc(CN)c1)c1cc(Cl)ccc1Oc1ccc(Cl)cc1 (optimized conformer: 60.58641030858823 kcal/mol)

>  <smiles>  (33) 
N#CCN(CC(=O)NCc1cccc(CN)c1)c1cc(Cl)ccc1Oc1ccc(Cl)cc1

>  <score_type>  (33) 
oracle

>  <origin>  (33) 
adgpu

>  <m_score__min__energy>  (33) 
-9.9499999999999993

>  <m_primary>  (33) 
energy

$$$$
33:0
     RDKit          3D

 52 55  0  0  0  0  0  0  0  0999 V2000
   -2.9570   19.7490  -27.3050 N   0  0  0  0  0  0  0  0  0  0  0  0
   -2.8010   20.8710  -27.5390 C   0  0  0  0  0  0  0  0  0  0  0  0
   -2.6050   22.2700  -27.8330 C   0  0  0  0  0  0  0  0  0  0  0  0
   -3.3200   22.9740  -28.8060 C   0  0  0  0  0  0  0  0  0  0  0  0
   -4.3720   22.4650  -29.6370 N   0  0  0  0  0  0  0  0  0  0  0  0
   -5.0890   23.2760  -30.5790 C   0  0  0  0  0  0  0  0  0  0  0  0
   -4.5690   24.3440  -31.0050 O   0  0  0  0  0  0  0  0  0  0  0  0
   -6.4150   22.8540  -31.0930 C   0  0  0  0  0  0  0  0  0  0  0  0
   -7.3850   23.8060  -31.4560 C   0  0  0  0  0  0  0  0  0  0  0  0
   -8.6240   23.3990  -31.9570 C   0  0  0  0  0  0  0  0  0  0  0  0
   -8.9100   22.0410  -32.1050 C   0  0  0  0  0  0  0  0  0  0  0  0
   -7.9570   21.0790  -31.7490 C   0  0  0  0  0  0  0  0  0  0  0  0
   -8.3130   19.3670  -31.9720 S   0  0  0  0  0  0  0  0  0  0  0  0
   -8.9680   18.8160  -30.7350 O   0  0  0  0  0  0  0  0  0  0  0  0
   -9.2670   19.2190  -33.1250 O   0  0  0  0  0  0  0  0  0  0  0  0
   -6.8410   18.4900  -32.3110 N   0  0  0  0  0  0  0  0  0  0  0  0
   -7.1650   17.1480  -32.8460 C   0  0  0  0  0  0  0  0  0  0  0  0
   -5.9680   16.5280  -33.5710 C   0  0  0  0  0  0  0  0  0  0  0  0
   -5.5580   17.3760  -34.7880 C   0  0  0  0  0  0  0  0  0  0  0  0
   -5.9510   18.8560  -34.6400 C   0  0  0  0  0  0  0  0  0  0  0  0
   -5.9290   19.2910  -33.1670 C   0  0  0  0  0  0  0  0  0  0  0  0
   -6.7110   21.4870  -31.2520 C   0  0  0  0  0  0  0  0  0  0  0  0
   -2.6730   24.5210  -28.9640 S   0  0  0  0  0  0  0  0  0  0  0  0
   -1.4930   24.3210  -27.7820 C   0  0  0  0  0  0  0  0  0  0  0  0
   -1.5950   23.0460  -27.2350 C   0  0  0  0  0  0  0  0  0  0  0  0
   -0.6140   22.5420  -26.2080 C   0  0  0  0  0  0  0  0  0  0  0  0
    0.1080   23.7040  -25.5020 C   0  0  0  0  0  0  0  0  0  0  0  0
    0.6190   24.7440  -26.5150 C   0  0  0  0  0  0  0  0  0  0  0  0
   -0.5430   25.3740  -27.3000 C   0  0  0  0  0  0  0  0  0  0  0  0
   -4.4970   21.4290  -29.6740 H   0  0  0  0  0  0  0  0  0  0  0  0
   -7.1664   24.8783  -31.3446 H   0  0  0  0  0  0  0  0  0  0  0  0
   -9.3766   24.1513  -32.2357 H   0  0  0  0  0  0  0  0  0  0  0  0
   -9.8862   21.7258  -32.5022 H   0  0  0  0  0  0  0  0  0  0  0  0
   -7.4568   16.4921  -32.0126 H   0  0  0  0  0  0  0  0  0  0  0  0
   -7.9880   17.2543  -33.5680 H   0  0  0  0  0  0  0  0  0  0  0  0
   -5.1191   16.4652  -32.8743 H   0  0  0  0  0  0  0  0  0  0  0  0
   -6.2535   15.5259  -33.9234 H   0  0  0  0  0  0  0  0  0  0  0  0
   -4.4666   17.3122  -34.9098 H   0  0  0  0  0  0  0  0  0  0  0  0
   -6.0892   16.9773  -35.6649 H   0  0  0  0  0  0  0  0  0  0  0  0
   -5.2403   19.4746  -35.2076 H   0  0  0  0  0  0  0  0  0  0  0  0
   -6.9726   18.9859  -35.0267 H   0  0  0  0  0  0  0  0  0  0  0  0
   -4.9034   19.1817  -32.7846 H   0  0  0  0  0  0  0  0  0  0  0  0
   -6.2733   20.3350  -33.1273 H   0  0  0  0  0  0  0  0  0  0  0  0
   -5.9576   20.7317  -30.9838 H   0  0  0  0  0  0  0  0  0  0  0  0
   -1.1557   21.9483  -25.4569 H   0  0  0  0  0  0  0  0  0  0  0  0
    0.1399   21.9277  -26.7221 H   0  0  0  0  0  0  0  0  0  0  0  0
   -0.5927   24.1930  -24.8093 H   0  0  0  0  0  0  0  0  0  0  0  0
    0.9726   23.2958  -24.9580 H   0  0  0  0  0  0  0  0  0  0  0  0
    1.1581   25.5362  -25.9748 H   0  0  0  0  0  0  0  0  0  0  0  0
    1.2861   24.2371  -27.2277 H   0  0  0  0  0  0  0  0  0  0  0  0
   -1.0827   26.0740  -26.6453 H   0  0  0  0  0  0  0  0  0  0  0  0
   -0.1325   25.9040  -28.1722 H   0  0  0  0  0  0  0  0  0  0  0  0
  1  2  3  0
  2  3  1  0
  3  4  2  0
  4  5  1  0
  5  6  1  0
  6  7  2  0
  6  8  1  0
  8  9  2  0
  9 10  1  0
 10 11  2  0
 11 12  1  0
 12 13  1  0
 13 14  2  0
 13 15  2  0
 13 16  1  0
 16 17  1  0
 17 18  1  0
 18 19  1  0
 19 20  1  0
 20 21  1  0
 12 22  2  0
  4 23  1  0
 23 24  1  0
 24 25  2  0
 25 26  1  0
 26 27  1  0
 27 28  1  0
 28 29  1  0
 25  3  1  0
 22  8  1  0
 29 24  1  0
 21 16  1  0
  5 30  1  0
  9 31  1  0
 10 32  1  0
 11 33  1  0
 17 34  1  0
 17 35  1  0
 18 36  1  0
 18 37  1  0
 19 38  1  0
 19 39  1  0
 20 40  1  0
 20 41  1  0
 21 42  1  0
 21 43  1  0
 22 44  1  0
 26 45  1  0
 26 46  1  0
 27 47  1  0
 27 48  1  0
 28 49  1  0
 28 50  1  0
 29 51  1  0
 29 52  1  0
M  END
>  <UniqueID>  (34) 
33

>  <SMILES>  (34) 
N#Cc1c(NC(=O)c2cccc(S(=O)(=O)N3CCCCC3)c2)sc2c1CCCC2

>  <Energy>  (34) 
89.88069240760477

>  <Genealogy>  (34) 
N#Cc1c(NC(=O)c2cccc(S(=O)(=O)N3CCCCC3)c2)sc2c1CCCC2 (3D coordinates assigned)
N#Cc1c(NC(=O)c2cccc(S(=O)(=O)N3CCCCC3)c2)sc2c1CCCC2 (nonaromatic ring conformer: 89.88069240760477 kcal/mol)

>  <smiles>  (34) 
N#Cc1c(NC(=O)c2cccc(S(=O)(=O)N3CCCCC3)c2)sc2c1CCCC2

>  <score_type>  (34) 
oracle

>  <origin>  (34) 
adgpu

>  <m_score__min__energy>  (34) 
-10.77

>  <m_primary>  (34) 
energy

$$$$
34:0
     RDKit          3D

 61 63  0  0  0  0  0  0  0  0999 V2000
   -0.6090   21.1660  -31.5500 C   0  0  0  0  0  0  0  0  0  0  0  0
   -0.8800   22.1490  -30.4190 C   0  0  0  0  0  0  0  0  0  0  0  0
   -2.2800   22.6770  -30.4970 C   0  0  0  0  0  0  0  0  0  0  0  0
   -3.0930   22.4530  -31.5460 N   0  0  0  0  0  0  0  0  0  0  0  0
   -4.2360   23.0800  -31.3250 N   0  0  0  0  0  0  0  0  0  0  0  0
   -5.3510   23.0460  -32.2790 C   0  0  0  0  0  0  0  0  0  0  0  0
   -6.1200   21.7400  -32.1790 C   0  0  0  0  0  0  0  0  0  0  0  0
   -7.3680   21.7640  -31.5430 C   0  0  0  0  0  0  0  0  0  0  0  0
   -8.1590   20.6280  -31.4830 C   0  0  0  0  0  0  0  0  0  0  0  0
   -7.7600   19.4400  -32.1060 C   0  0  0  0  0  0  0  0  0  0  0  0
   -8.7210   18.2820  -32.0330 C   0  0  0  0  0  0  0  0  0  0  0  0
   -6.5180   19.3910  -32.7990 C   0  0  0  0  0  0  0  0  0  0  0  0
   -6.1520   18.0050  -33.8850 S   0  0  0  0  0  0  0  0  0  0  0  0
   -6.0350   18.5160  -35.2960 O   0  0  0  0  0  0  0  0  0  0  0  0
   -7.2460   16.9710  -33.8580 O   0  0  0  0  0  0  0  0  0  0  0  0
   -4.6570   17.2040  -33.4280 N   0  0  0  0  0  0  0  0  0  0  0  0
   -4.0130   16.5800  -34.5940 C   0  0  0  0  0  0  0  0  0  0  0  0
   -4.3920   15.1000  -34.6040 C   0  0  0  0  0  0  0  0  0  0  0  0
   -5.1350   14.8550  -33.3040 C   0  0  0  0  0  0  0  0  0  0  0  0
   -4.9060   16.1100  -32.4840 C   0  0  0  0  0  0  0  0  0  0  0  0
   -5.6280   20.5040  -32.6830 C   0  0  0  0  0  0  0  0  0  0  0  0
   -4.1700   20.3780  -33.0710 C   0  0  0  0  0  0  0  0  0  0  0  0
   -4.1740   23.7330  -30.1380 C   0  0  0  0  0  0  0  0  0  0  0  0
   -5.2900   24.5340  -29.5160 C   0  0  0  0  0  0  0  0  0  0  0  0
   -5.7380   25.6680  -30.4320 C   0  0  0  0  0  0  0  0  0  0  0  0
   -2.9170   23.5050  -29.5840 C   0  0  0  0  0  0  0  0  0  0  0  0
   -2.3440   24.0580  -28.3080 C   0  0  0  0  0  0  0  0  0  0  0  0
   -1.2000   24.9790  -28.5780 C   0  0  0  0  0  0  0  0  0  0  0  0
   -0.0170   24.5620  -28.4830 O   0  0  0  0  0  0  0  0  0  0  0  0
   -1.4370   26.2920  -28.9670 O   0  0  0  0  0  0  0  0  0  0  0  0
   -0.3390   20.1867  -31.1279 H   0  0  0  0  0  0  0  0  0  0  0  0
   -1.5119   21.0619  -32.1696 H   0  0  0  0  0  0  0  0  0  0  0  0
    0.2197   21.5393  -32.1696 H   0  0  0  0  0  0  0  0  0  0  0  0
   -0.7407   21.6373  -29.4553 H   0  0  0  0  0  0  0  0  0  0  0  0
   -0.1796   22.9923  -30.5094 H   0  0  0  0  0  0  0  0  0  0  0  0
   -6.0333   23.8815  -32.0634 H   0  0  0  0  0  0  0  0  0  0  0  0
   -4.9416   23.1321  -33.2964 H   0  0  0  0  0  0  0  0  0  0  0  0
   -7.7251   22.6981  -31.0847 H   0  0  0  0  0  0  0  0  0  0  0  0
   -9.1140   20.6603  -30.9381 H   0  0  0  0  0  0  0  0  0  0  0  0
   -8.9228   18.0388  -30.9794 H   0  0  0  0  0  0  0  0  0  0  0  0
   -9.6621   18.5544  -32.5332 H   0  0  0  0  0  0  0  0  0  0  0  0
   -8.2798   17.4073  -32.5332 H   0  0  0  0  0  0  0  0  0  0  0  0
   -4.0010   17.9000  -33.0080 H   0  0  0  0  0  0  0  0  0  0  0  0
   -4.3650   17.0622  -35.5179 H   0  0  0  0  0  0  0  0  0  0  0  0
   -2.9206   16.6953  -34.5356 H   0  0  0  0  0  0  0  0  0  0  0  0
   -5.0405   14.8764  -35.4639 H   0  0  0  0  0  0  0  0  0  0  0  0
   -3.5049   14.4554  -34.6911 H   0  0  0  0  0  0  0  0  0  0  0  0
   -6.2083   14.7064  -33.4933 H   0  0  0  0  0  0  0  0  0  0  0  0
   -4.7803   13.9511  -32.7872 H   0  0  0  0  0  0  0  0  0  0  0  0
   -5.7961   16.3312  -31.8767 H   0  0  0  0  0  0  0  0  0  0  0  0
   -4.0531   15.9808  -31.8015 H   0  0  0  0  0  0  0  0  0  0  0  0
   -3.5521   20.3246  -32.1625 H   0  0  0  0  0  0  0  0  0  0  0  0
   -4.0266   19.4641  -33.6662 H   0  0  0  0  0  0  0  0  0  0  0  0
   -3.8720   21.2537  -33.6662 H   0  0  0  0  0  0  0  0  0  0  0  0
   -6.1450   23.8687  -29.3255 H   0  0  0  0  0  0  0  0  0  0  0  0
   -4.9201   24.9725  -28.5774 H   0  0  0  0  0  0  0  0  0  0  0  0
   -6.0746   26.5200  -29.8231 H   0  0  0  0  0  0  0  0  0  0  0  0
   -4.8960   25.9810  -31.0668 H   0  0  0  0  0  0  0  0  0  0  0  0
   -6.5666   25.3210  -31.0668 H   0  0  0  0  0  0  0  0  0  0  0  0
   -3.1300   24.6111  -27.7730 H   0  0  0  0  0  0  0  0  0  0  0  0
   -1.9758   23.2176  -27.7013 H   0  0  0  0  0  0  0  0  0  0  0  0
  1  2  1  0
  2  3  1  0
  3  4  2  0
  4  5  1  0
  5  6  1  0
  6  7  1  0
  7  8  2  0
  8  9  1  0
  9 10  2  0
 10 11  1  0
 10 12  1  0
 12 13  1  0
 13 14  2  0
 13 15  2  0
 13 16  1  0
 16 17  1  0
 17 18  1  0
 18 19  1  0
 19 20  1  0
 12 21  2  0
 21 22  1  0
  5 23  1  0
 23 24  1  0
 24 25  1  0
 23 26  2  0
 26 27  1  0
 27 28  1  0
 28 29  2  0
 28 30  1  0
 26  3  1  0
 21  7  1  0
 20 16  1  0
  1 31  1  0
  1 32  1  0
  1 33  1  0
  2 34  1  0
  2 35  1  0
  6 36  1  0
  6 37  1  0
  8 38  1  0
  9 39  1  0
 11 40  1  0
 11 41  1  0
 11 42  1  0
 16 43  1  0
 17 44  1  0
 17 45  1  0
 18 46  1  0
 18 47  1  0
 19 48  1  0
 19 49  1  0
 20 50  1  0
 20 51  1  0
 22 52  1  0
 22 53  1  0
 22 54  1  0
 24 55  1  0
 24 56  1  0
 25 57  1  0
 25 58  1  0
 25 59  1  0
 27 60  1  0
 27 61  1  0
M  CHG  2  16   1  30  -1
M  END
>  <UniqueID>  (35) 
34

>  <SMILES>  (35) 
CCc1nn(Cc2ccc(C)c(S(=O)(=O)[NH+]3CCCC3)c2C)c(CC)c1CC(=O)[O-]

>  <Energy>  (35) 
96.22325074182339

>  <Genealogy>  (35) 
CCc1nn(Cc2ccc(C)c(S(=O)(=O)[NH+]3CCCC3)c2C)c(CC)c1CC(=O)[O-] (protonated)
CCc1nn(Cc2ccc(C)c(S(=O)(=O)[NH+]3CCCC3)c2C)c(CC)c1CC(=O)[O-] (3D coordinates assigned)
CCc1nn(Cc2ccc(C)c(S(=O)(=O)[NH+]3CCCC3)c2C)c(CC)c1CC(=O)[O-] (nonaromatic ring conformer: 96.22325074182339 kcal/mol)

>  <smiles>  (35) 
CCc1nn(Cc2ccc(C)c(S(=O)(=O)N3CCCC3)c2C)c(CC)c1CC(=O)O

>  <score_type>  (35) 
oracle

>  <origin>  (35) 
adgpu

>  <m_score__min__energy>  (35) 
-11.699999999999999

>  <m_primary>  (35) 
energy

$$$$
35:0
     RDKit          3D

 52 55  0  0  1  0  0  0  0  0999 V2000
   -4.5670   25.6740  -30.8510 O   0  0  0  0  0  0  0  0  0  0  0  0
   -5.4700   24.7350  -30.1150 S   0  0  0  0  0  0  0  0  0  0  0  0
   -6.8300   25.4190  -30.0650 O   0  0  0  0  0  0  0  0  0  0  0  0
   -4.8350   24.5530  -28.5190 N   0  0  0  0  0  0  0  0  0  0  0  0
   -3.5830   24.2880  -28.3980 C   0  0  0  0  0  0  0  0  0  0  0  0
   -3.0860   24.1440  -27.1280 C   0  0  0  0  0  0  0  0  0  0  0  0
   -1.7560   23.8600  -26.9010 C   0  0  0  0  0  0  0  0  0  0  0  0
   -0.9490   23.7260  -27.9680 N   0  0  0  0  0  0  0  0  0  0  0  0
   -1.4320   23.8660  -29.2290 C   0  0  0  0  0  0  0  0  0  0  0  0
   -2.7460   24.1460  -29.4400 N   0  0  0  0  0  0  0  0  0  0  0  0
   -5.6120   23.1840  -30.9360 C   0  0  0  0  0  0  0  0  0  0  0  0
   -4.6590   22.7740  -31.8730 C   0  0  0  0  0  0  0  0  0  0  0  0
   -4.7750   21.5470  -32.5180 C   0  0  0  0  0  0  0  0  0  0  0  0
   -5.8520   20.7380  -32.2180 C   0  0  0  0  0  0  0  0  0  0  0  0
   -6.0660   19.4350  -32.8380 C   0  0  0  0  0  0  0  0  0  0  0  0
   -5.5390   19.0890  -34.0670 C   0  0  0  0  0  0  0  0  0  0  0  0
   -5.7880   17.8180  -34.5940 C   0  0  0  0  0  0  0  0  0  0  0  0
   -6.5480   16.8920  -33.9230 C   0  0  0  0  0  0  0  0  0  0  0  0
   -6.8560   15.5390  -34.4050 C   0  0  0  0  0  0  0  0  0  0  0  0
   -6.1160   14.5850  -33.6500 N   0  0  0  0  0  0  0  0  0  0  0  0
   -6.1960   13.2440  -34.1870 C   0  0  0  0  0  0  0  0  0  0  0  0
   -5.7650   12.2850  -33.0980 C   0  0  0  0  0  0  0  0  0  0  0  0
   -4.4380   12.6530  -32.6280 N   0  0  0  0  0  0  0  0  0  0  0  0
   -4.3920   13.9860  -32.1120 C   0  0  0  0  0  0  0  0  0  0  0  0
   -4.8250   14.9760  -33.2010 C   0  0  0  0  0  0  0  0  0  0  0  0
   -7.0790   17.2500  -32.6780 C   0  0  0  0  0  0  0  0  0  0  0  0
   -6.8330   18.5060  -32.1580 C   0  0  0  0  0  0  0  0  0  0  0  0
   -6.7950   21.1630  -31.2790 C   0  0  0  0  0  0  0  0  0  0  0  0
   -6.6890   22.3780  -30.6320 C   0  0  0  0  0  0  0  0  0  0  0  0
   -3.7647   24.2578  -26.2698 H   0  0  0  0  0  0  0  0  0  0  0  0
   -1.3671   23.7465  -25.8783 H   0  0  0  0  0  0  0  0  0  0  0  0
    0.0670   23.5110  -27.8570 H   0  0  0  0  0  0  0  0  0  0  0  0
   -0.7543   23.7519  -30.0879 H   0  0  0  0  0  0  0  0  0  0  0  0
   -3.8065   23.4300  -32.1032 H   0  0  0  0  0  0  0  0  0  0  0  0
   -4.0221   21.2275  -33.2536 H   0  0  0  0  0  0  0  0  0  0  0  0
   -4.9264   19.8098  -34.6284 H   0  0  0  0  0  0  0  0  0  0  0  0
   -5.3632   17.5526  -35.5734 H   0  0  0  0  0  0  0  0  0  0  0  0
   -7.9322   15.3442  -34.2874 H   0  0  0  0  0  0  0  0  0  0  0  0
   -6.5819   15.4575  -35.4672 H   0  0  0  0  0  0  0  0  0  0  0  0
   -7.2296   13.0239  -34.4924 H   0  0  0  0  0  0  0  0  0  0  0  0
   -5.5459   13.1429  -35.0685 H   0  0  0  0  0  0  0  0  0  0  0  0
   -6.4777   12.3351  -32.2616 H   0  0  0  0  0  0  0  0  0  0  0  0
   -5.7423   11.2606  -33.4981 H   0  0  0  0  0  0  0  0  0  0  0  0
   -4.2110   11.9950  -31.8460 H   0  0  0  0  0  0  0  0  0  0  0  0
   -5.0717   14.0687  -31.2511 H   0  0  0  0  0  0  0  0  0  0  0  0
   -3.3649   14.2191  -31.7947 H   0  0  0  0  0  0  0  0  0  0  0  0
   -4.8644   15.9946  -32.7875 H   0  0  0  0  0  0  0  0  0  0  0  0
   -4.1081   14.9699  -34.0352 H   0  0  0  0  0  0  0  0  0  0  0  0
   -7.6919   16.5314  -32.1141 H   0  0  0  0  0  0  0  0  0  0  0  0
   -7.2574   18.7740  -31.1792 H   0  0  0  0  0  0  0  0  0  0  0  0
   -7.6488   20.5091  -31.0479 H   0  0  0  0  0  0  0  0  0  0  0  0
   -7.4420   22.6941  -29.8951 H   0  0  0  0  0  0  0  0  0  0  0  0
  1  2  2  0
  2  3  2  0
  2  4  1  0
  4  5  2  0
  5  6  1  0
  6  7  2  0
  7  8  1  0
  8  9  1  0
  9 10  2  0
  2 11  1  0
 11 12  2  0
 12 13  1  0
 13 14  2  0
 14 15  1  0
 15 16  2  0
 16 17  1  0
 17 18  2  0
 18 19  1  0
 19 20  1  0
 20 21  1  0
 21 22  1  0
 22 23  1  0
 23 24  1  0
 24 25  1  0
 18 26  1  0
 26 27  2  0
 14 28  1  0
 28 29  2  0
 10  5  1  0
 29 11  1  0
 27 15  1  0
 25 20  1  0
  6 30  1  0
  7 31  1  0
  8 32  1  0
  9 33  1  0
 12 34  1  0
 13 35  1  0
 16 36  1  0
 17 37  1  0
 19 38  1  0
 19 39  1  0
 21 40  1  0
 21 41  1  0
 22 42  1  0
 22 43  1  0
 23 44  1  0
 24 45  1  0
 24 46  1  0
 25 47  1  0
 25 48  1  0
 26 49  1  0
 27 50  1  0
 28 51  1  0
 29 52  1  0
M  END
>  <smiles>  (36) 
O=S(=O)(N=c1cc[nH]cn1)c1ccc(-c2ccc(CN3CCNCC3)cc2)cc1

>  <score_type>  (36) 
oracle

>  <origin>  (36) 
adgpu

>  <m_score__min__energy>  (36) 
-9.4900000000000002

>  <m_primary>  (36) 
energy

$$$$
36:0
     RDKit          3D

 49 53  0  0  0  0  0  0  0  0999 V2000
    3.8730   23.5510  -27.2350 O   0  0  0  0  0  0  0  0  0  0  0  0
    2.6210   24.0380  -26.8840 C   0  0  0  0  0  0  0  0  0  0  0  0
    2.4450   24.6970  -25.6630 C   0  0  0  0  0  0  0  0  0  0  0  0
    1.1860   25.1920  -25.3070 C   0  0  0  0  0  0  0  0  0  0  0  0
    1.0260   25.8510  -24.0900 O   0  0  0  0  0  0  0  0  0  0  0  0
    0.1000   25.0230  -26.1760 C   0  0  0  0  0  0  0  0  0  0  0  0
    0.2650   24.3500  -27.3980 C   0  0  0  0  0  0  0  0  0  0  0  0
   -0.8790   24.1750  -28.3190 C   0  0  0  0  0  0  0  0  0  0  0  0
   -1.5660   25.1890  -28.9580 C   0  0  0  0  0  0  0  0  0  0  0  0
   -1.2990   26.5500  -28.8790 O   0  0  0  0  0  0  0  0  0  0  0  0
   -2.5800   24.6070  -29.6740 C   0  0  0  0  0  0  0  0  0  0  0  0
   -3.4900   25.2900  -30.4730 O   0  0  0  0  0  0  0  0  0  0  0  0
   -2.5700   23.2670  -29.5060 N   0  0  0  0  0  0  0  0  0  0  0  0
   -3.4530   22.3250  -30.2000 C   0  0  0  0  0  0  0  0  0  0  0  0
   -4.9130   22.7740  -30.0860 C   0  0  0  0  0  0  0  0  0  0  0  0
   -5.7830   21.9920  -31.0320 C   0  0  0  0  0  0  0  0  0  0  0  0
   -5.2130   21.0280  -31.8820 C   0  0  0  0  0  0  0  0  0  0  0  0
   -6.0250   20.2770  -32.7370 C   0  0  0  0  0  0  0  0  0  0  0  0
   -7.4080   20.4740  -32.7430 C   0  0  0  0  0  0  0  0  0  0  0  0
   -7.9830   21.4210  -31.8900 C   0  0  0  0  0  0  0  0  0  0  0  0
   -7.1750   22.1750  -31.0330 C   0  0  0  0  0  0  0  0  0  0  0  0
   -1.5200   22.9870  -28.6870 C   0  0  0  0  0  0  0  0  0  0  0  0
   -1.0510   21.6240  -28.3480 C   0  0  0  0  0  0  0  0  0  0  0  0
    0.1660   21.1510  -28.7290 N   0  0  0  0  0  0  0  0  0  0  0  0
    0.1640   19.9030  -28.2430 C   0  0  0  0  0  0  0  0  0  0  0  0
    1.1700   18.9460  -28.3410 C   0  0  0  0  0  0  0  0  0  0  0  0
    0.9360   17.6880  -27.7540 C   0  0  0  0  0  0  0  0  0  0  0  0
   -0.2870   17.4260  -27.0930 C   0  0  0  0  0  0  0  0  0  0  0  0
   -1.2820   18.4180  -27.0140 C   0  0  0  0  0  0  0  0  0  0  0  0
   -1.0110   19.6500  -27.6050 C   0  0  0  0  0  0  0  0  0  0  0  0
   -1.8040   20.7280  -27.6560 N   0  0  0  0  0  0  0  0  0  0  0  0
    1.5360   23.8680  -27.7510 C   0  0  0  0  0  0  0  0  0  0  0  0
    3.2984   24.8263  -24.9812 H   0  0  0  0  0  0  0  0  0  0  0  0
    1.0370   25.3470  -23.2110 H   0  0  0  0  0  0  0  0  0  0  0  0
   -0.8880   25.4198  -25.8996 H   0  0  0  0  0  0  0  0  0  0  0  0
   -3.1703   22.2793  -31.2621 H   0  0  0  0  0  0  0  0  0  0  0  0
   -3.3489   21.3328  -29.7366 H   0  0  0  0  0  0  0  0  0  0  0  0
   -5.2619   22.6111  -29.0556 H   0  0  0  0  0  0  0  0  0  0  0  0
   -4.9771   23.8411  -30.3453 H   0  0  0  0  0  0  0  0  0  0  0  0
   -4.1253   20.8643  -31.8743 H   0  0  0  0  0  0  0  0  0  0  0  0
   -5.5741   19.5295  -33.4063 H   0  0  0  0  0  0  0  0  0  0  0  0
   -8.0446   19.8841  -33.4188 H   0  0  0  0  0  0  0  0  0  0  0  0
   -9.0724   21.5732  -31.8930 H   0  0  0  0  0  0  0  0  0  0  0  0
   -7.6314   22.9137  -30.3577 H   0  0  0  0  0  0  0  0  0  0  0  0
    2.1152   19.1651  -28.8592 H   0  0  0  0  0  0  0  0  0  0  0  0
    1.7072   16.9056  -27.8095 H   0  0  0  0  0  0  0  0  0  0  0  0
   -0.4614   16.4400  -26.6376 H   0  0  0  0  0  0  0  0  0  0  0  0
   -2.2382   18.2277  -26.5045 H   0  0  0  0  0  0  0  0  0  0  0  0
    1.6792   23.3546  -28.7133 H   0  0  0  0  0  0  0  0  0  0  0  0
  1  2  1  0
  2  3  2  0
  3  4  1  0
  4  5  1  0
  4  6  2  0
  6  7  1  0
  7  8  1  0
  8  9  1  0
  9 10  1  0
  9 11  2  0
 11 12  1  0
 11 13  1  0
 13 14  1  0
 14 15  1  0
 15 16  1  0
 16 17  2  0
 17 18  1  0
 18 19  2  0
 19 20  1  0
 20 21  2  0
 13 22  1  0
 22 23  1  0
 23 24  2  0
 24 25  1  0
 25 26  2  0
 26 27  1  0
 27 28  2  0
 28 29  1  0
 29 30  2  0
 30 31  1  0
  7 32  2  0
 32  2  1  0
 22  8  2  0
 31 23  1  0
 21 16  1  0
 30 25  1  0
  3 33  1  0
  5 34  1  0
  6 35  1  0
 14 36  1  0
 14 37  1  0
 15 38  1  0
 15 39  1  0
 17 40  1  0
 18 41  1  0
 19 42  1  0
 20 43  1  0
 21 44  1  0
 26 45  1  0
 27 46  1  0
 28 47  1  0
 29 48  1  0
 32 49  1  0
M  CHG  4   1  -1  10  -1  12  -1  31  -1
M  END
>  <UniqueID>  (37) 
35

>  <SMILES>  (37) 
[O-]c1cc(O)cc(-c2c([O-])c([O-])n(CCc3ccccc3)c2-c2nc3ccccc3[n-]2)c1

>  <Energy>  (37) 
123.05961731339997

>  <Genealogy>  (37) 
[O-]c1cc(O)cc(-c2c([O-])c([O-])n(CCc3ccccc3)c2-c2nc3ccccc3[n-]2)c1 (protonated)
[O-]c1cc(O)cc(-c2c([O-])c([O-])n(CCc3ccccc3)c2-c2nc3ccccc3[n-]2)c1 (3D coordinates assigned)
[O-]c1cc(O)cc(-c2c([O-])c([O-])n(CCc3ccccc3)c2-c2nc3ccccc3[n-]2)c1 (optimized conformer: 123.05961731339997 kcal/mol)

>  <smiles>  (37) 
Oc1cc(O)cc(-c2c(O)c(O)n(CCc3ccccc3)c2-c2nc3ccccc3[nH]2)c1

>  <score_type>  (37) 
oracle

>  <origin>  (37) 
adgpu

>  <m_score__min__energy>  (37) 
-14.880000000000001

>  <m_primary>  (37) 
energy

$$$$
37:0
     RDKit          3D

 49 52  0  0  1  0  0  0  0  0999 V2000
   -9.0690   19.5800  -32.1160 C   0  0  0  0  0  0  0  0  0  0  0  0
   -8.7470   21.0400  -32.0000 C   0  0  0  0  0  0  0  0  0  0  0  0
   -7.5200   21.6180  -31.6980 C   0  0  0  0  0  0  0  0  0  0  0  0
   -7.6700   22.9830  -31.6930 C   0  0  0  0  0  0  0  0  0  0  0  0
   -6.8170   23.9200  -31.4680 N   0  0  0  0  0  0  0  0  0  0  0  0
   -5.4770   23.5430  -31.1670 C   0  0  0  0  0  0  0  0  0  0  0  0
   -4.8560   24.0630  -30.0350 C   0  0  0  0  0  0  0  0  0  0  0  0
   -3.5570   23.7270  -29.7010 C   0  0  0  0  0  0  0  0  0  0  0  0
   -2.9100   24.2630  -28.5320 N   0  0  0  0  0  0  0  0  0  0  0  0
   -3.6110   24.2410  -27.2700 C   0  0  0  0  0  0  0  0  0  0  0  0
   -3.0640   25.2940  -26.3570 C   0  0  0  0  0  0  0  0  0  0  0  0
   -1.6410   25.4460  -26.3850 N   0  0  0  0  0  0  0  0  0  0  0  0
   -0.9290   24.3110  -25.8710 C   0  0  0  0  0  0  0  0  0  0  0  0
   -1.1640   25.8120  -27.7060 C   0  0  0  0  0  0  0  0  0  0  0  0
   -1.5770   24.7920  -28.7150 C   0  0  0  0  0  0  0  0  0  0  0  0
   -2.9310   22.8700  -30.5310 N   0  0  0  0  0  0  0  0  0  0  0  0
   -3.4940   22.3460  -31.6350 C   0  0  0  0  0  0  0  0  0  0  0  0
   -2.6020   21.2120  -32.6950 S   0  0  0  0  0  0  0  0  0  0  0  0
   -3.6800   19.9820  -33.4170 C   0  0  0  0  0  0  0  0  0  0  0  0
   -5.0550   20.1180  -33.4120 C   0  0  0  0  0  0  0  0  0  0  0  0
   -5.8460   19.1390  -33.9820 C   0  0  0  0  0  0  0  0  0  0  0  0
   -5.2880   18.0210  -34.5630 C   0  0  0  0  0  0  0  0  0  0  0  0
   -3.9130   17.9140  -34.5520 C   0  0  0  0  0  0  0  0  0  0  0  0
   -3.1610   18.8790  -33.9890 N   0  0  0  0  0  0  0  0  0  0  0  0
   -4.7610   22.7030  -31.9190 N   0  0  0  0  0  0  0  0  0  0  0  0
   -8.9580   23.2230  -31.9870 N   0  0  0  0  0  0  0  0  0  0  0  0
   -9.6060   22.0640  -32.1700 N   0  0  0  0  0  0  0  0  0  0  0  0
   -9.1650   19.1447  -31.1104 H   0  0  0  0  0  0  0  0  0  0  0  0
  -10.0162   19.4556  -32.6614 H   0  0  0  0  0  0  0  0  0  0  0  0
   -8.2620   19.0687  -32.6614 H   0  0  0  0  0  0  0  0  0  0  0  0
   -6.5856   21.0736  -31.4968 H   0  0  0  0  0  0  0  0  0  0  0  0
   -5.4126   24.7587  -29.3899 H   0  0  0  0  0  0  0  0  0  0  0  0
   -4.6802   24.4312  -27.4448 H   0  0  0  0  0  0  0  0  0  0  0  0
   -3.4769   23.2547  -26.8018 H   0  0  0  0  0  0  0  0  0  0  0  0
   -3.5146   26.2569  -26.6396 H   0  0  0  0  0  0  0  0  0  0  0  0
   -3.3166   24.9734  -25.3355 H   0  0  0  0  0  0  0  0  0  0  0  0
   -0.9445   24.3357  -24.7714 H   0  0  0  0  0  0  0  0  0  0  0  0
   -1.4092   23.3864  -26.2238 H   0  0  0  0  0  0  0  0  0  0  0  0
    0.1125   24.3409  -26.2238 H   0  0  0  0  0  0  0  0  0  0  0  0
   -1.5865   26.7885  -27.9852 H   0  0  0  0  0  0  0  0  0  0  0  0
   -0.0655   25.8649  -27.6843 H   0  0  0  0  0  0  0  0  0  0  0  0
   -1.5268   25.2561  -29.7110 H   0  0  0  0  0  0  0  0  0  0  0  0
   -0.8880   23.9428  -28.5966 H   0  0  0  0  0  0  0  0  0  0  0  0
   -5.5192   21.0043  -32.9549 H   0  0  0  0  0  0  0  0  0  0  0  0
   -6.9399   19.2540  -33.9718 H   0  0  0  0  0  0  0  0  0  0  0  0
   -5.9165   17.2420  -35.0191 H   0  0  0  0  0  0  0  0  0  0  0  0
   -3.4284   17.0366  -35.0051 H   0  0  0  0  0  0  0  0  0  0  0  0
   -9.4100   24.1710  -32.0640 H   0  0  0  0  0  0  0  0  0  0  0  0
  -10.6250   21.9420  -32.4100 H   0  0  0  0  0  0  0  0  0  0  0  0
  1  2  1  0
  2  3  2  0
  3  4  1  0
  4  5  2  0
  5  6  1  0
  6  7  2  0
  7  8  1  0
  8  9  1  0
  9 10  1  0
 10 11  1  0
 11 12  1  0
 12 13  1  0
 12 14  1  0
 14 15  1  0
  8 16  2  0
 16 17  1  0
 17 18  1  0
 18 19  1  0
 19 20  2  0
 20 21  1  0
 21 22  2  0
 22 23  1  0
 23 24  2  0
 17 25  2  0
  4 26  1  0
 26 27  1  0
 27  2  1  0
 25  6  1  0
 15  9  1  0
 24 19  1  0
  1 28  1  0
  1 29  1  0
  1 30  1  0
  3 31  1  0
  7 32  1  0
 10 33  1  0
 10 34  1  0
 11 35  1  0
 11 36  1  0
 13 37  1  0
 13 38  1  0
 13 39  1  0
 14 40  1  0
 14 41  1  0
 15 42  1  0
 15 43  1  0
 20 44  1  0
 21 45  1  0
 22 46  1  0
 23 47  1  0
 26 48  1  0
 27 49  1  0
M  END
>  <smiles>  (38) 
Cc1cc(=Nc2cc(N3CCN(C)CC3)nc(Sc3ccccn3)n2)[nH][nH]1

>  <score_type>  (38) 
oracle

>  <origin>  (38) 
adgpu

>  <m_score__min__energy>  (38) 
-8.5299999999999994

>  <m_primary>  (38) 
energy

$$$$
38:0
     RDKit          3D

 50 53  0  0  0  0  0  0  0  0999 V2000
   -7.9220   22.6940  -30.3390 O   0  0  0  0  0  0  0  0  0  0  0  0
   -6.9090   23.3670  -30.6710 C   0  0  0  0  0  0  0  0  0  0  0  0
   -6.5820   24.6210  -29.9160 C   0  0  0  0  0  0  0  0  0  0  0  0
   -5.3670   25.6500  -30.8150 S   0  0  0  0  0  0  0  0  0  0  0  0
   -3.9570   24.6350  -30.3840 C   0  0  0  0  0  0  0  0  0  0  0  0
   -3.6740   23.5200  -31.1080 N   0  0  0  0  0  0  0  0  0  0  0  0
   -2.5910   22.7510  -30.8220 C   0  0  0  0  0  0  0  0  0  0  0  0
   -2.3600   21.7260  -31.5190 O   0  0  0  0  0  0  0  0  0  0  0  0
   -1.7430   23.1080  -29.7590 C   0  0  0  0  0  0  0  0  0  0  0  0
   -0.5980   22.3620  -29.4220 C   0  0  0  0  0  0  0  0  0  0  0  0
    0.2090   22.7670  -28.3530 C   0  0  0  0  0  0  0  0  0  0  0  0
   -0.1190   23.9110  -27.6170 C   0  0  0  0  0  0  0  0  0  0  0  0
   -1.2550   24.6570  -27.9450 C   0  0  0  0  0  0  0  0  0  0  0  0
   -2.0660   24.2620  -29.0150 C   0  0  0  0  0  0  0  0  0  0  0  0
   -3.1610   24.9950  -29.3450 N   0  0  0  0  0  0  0  0  0  0  0  0
   -6.1090   22.9730  -31.7960 N   0  0  0  0  0  0  0  0  0  0  0  0
   -6.0880   21.6420  -32.3430 C   0  0  0  0  0  0  0  0  0  0  0  0
   -4.9190   21.1710  -32.9580 C   0  0  0  0  0  0  0  0  0  0  0  0
   -4.8610   19.8710  -33.4690 C   0  0  0  0  0  0  0  0  0  0  0  0
   -5.9670   19.0180  -33.3570 C   0  0  0  0  0  0  0  0  0  0  0  0
   -5.8960   17.3810  -34.0080 S   0  0  0  0  0  0  0  0  0  0  0  0
   -5.6780   17.4510  -35.4950 O   0  0  0  0  0  0  0  0  0  0  0  0
   -7.2210   16.7090  -33.7710 O   0  0  0  0  0  0  0  0  0  0  0  0
   -4.6270   16.4190  -33.2760 N   0  0  0  0  0  0  0  0  0  0  0  0
   -3.3770   17.1820  -33.0740 C   0  0  0  0  0  0  0  0  0  0  0  0
   -2.3080   16.8730  -34.1370 C   0  0  0  0  0  0  0  0  0  0  0  0
   -2.9120   16.5020  -35.3540 O   0  0  0  0  0  0  0  0  0  0  0  0
   -3.5280   15.2370  -35.2140 C   0  0  0  0  0  0  0  0  0  0  0  0
   -4.4270   15.1270  -33.9600 C   0  0  0  0  0  0  0  0  0  0  0  0
   -7.1280   19.4740  -32.7170 C   0  0  0  0  0  0  0  0  0  0  0  0
   -7.1890   20.7760  -32.2160 C   0  0  0  0  0  0  0  0  0  0  0  0
   -7.5049   25.2020  -29.7721 H   0  0  0  0  0  0  0  0  0  0  0  0
   -6.1427   24.3357  -28.9487 H   0  0  0  0  0  0  0  0  0  0  0  0
   -0.3379   21.4618  -29.9982 H   0  0  0  0  0  0  0  0  0  0  0  0
    1.1042   22.1842  -28.0904 H   0  0  0  0  0  0  0  0  0  0  0  0
    0.5191   24.2244  -26.7776 H   0  0  0  0  0  0  0  0  0  0  0  0
   -1.5113   25.5541  -27.3623 H   0  0  0  0  0  0  0  0  0  0  0  0
   -5.5280   23.7070  -32.2610 H   0  0  0  0  0  0  0  0  0  0  0  0
   -4.0414   21.8292  -33.0389 H   0  0  0  0  0  0  0  0  0  0  0  0
   -3.9433   19.5163  -33.9610 H   0  0  0  0  0  0  0  0  0  0  0  0
   -3.6112   18.2561  -33.1137 H   0  0  0  0  0  0  0  0  0  0  0  0
   -2.9654   16.8884  -32.0971 H   0  0  0  0  0  0  0  0  0  0  0  0
   -1.6894   17.7681  -34.2985 H   0  0  0  0  0  0  0  0  0  0  0  0
   -1.6850   16.0391  -33.7815 H   0  0  0  0  0  0  0  0  0  0  0  0
   -4.1467   15.0500  -36.1041 H   0  0  0  0  0  0  0  0  0  0  0  0
   -2.7238   14.4947  -35.1032 H   0  0  0  0  0  0  0  0  0  0  0  0
   -5.4090   14.7374  -34.2663 H   0  0  0  0  0  0  0  0  0  0  0  0
   -3.9204   14.4556  -33.2511 H   0  0  0  0  0  0  0  0  0  0  0  0
   -7.9937   18.8040  -32.6091 H   0  0  0  0  0  0  0  0  0  0  0  0
   -8.1050   21.1270  -31.7183 H   0  0  0  0  0  0  0  0  0  0  0  0
  1  2  2  0
  2  3  1  0
  3  4  1  0
  4  5  1  0
  5  6  2  0
  6  7  1  0
  7  8  2  0
  7  9  1  0
  9 10  2  0
 10 11  1  0
 11 12  2  0
 12 13  1  0
 13 14  2  0
 14 15  1  0
  2 16  1  0
 16 17  1  0
 17 18  2  0
 18 19  1  0
 19 20  2  0
 20 21  1  0
 21 22  2  0
 21 23  2  0
 21 24  1  0
 24 25  1  0
 25 26  1  0
 26 27  1  0
 27 28  1  0
 28 29  1  0
 20 30  1  0
 30 31  2  0
 15  5  1  0
 31 17  1  0
 14  9  1  0
 29 24  1  0
  3 32  1  0
  3 33  1  0
 10 34  1  0
 11 35  1  0
 12 36  1  0
 13 37  1  0
 16 38  1  0
 18 39  1  0
 19 40  1  0
 25 41  1  0
 25 42  1  0
 26 43  1  0
 26 44  1  0
 28 45  1  0
 28 46  1  0
 29 47  1  0
 29 48  1  0
 30 49  1  0
 31 50  1  0
M  CHG  1  15  -1
M  END
>  <UniqueID>  (39) 
36

>  <SMILES>  (39) 
O=C(CSc1nc(=O)c2ccccc2[n-]1)Nc1ccc(S(=O)(=O)N2CCOCC2)cc1

>  <Energy>  (39) 
65.39330645025032

>  <Genealogy>  (39) 
O=C(CSc1nc(=O)c2ccccc2[n-]1)Nc1ccc(S(=O)(=O)N2CCOCC2)cc1 (protonated)
O=C(CSc1nc(=O)c2ccccc2[n-]1)Nc1ccc(S(=O)(=O)N2CCOCC2)cc1 (3D coordinates assigned)
O=C(CSc1nc(=O)c2ccccc2[n-]1)Nc1ccc(S(=O)(=O)N2CCOCC2)cc1 (nonaromatic ring conformer: 65.39330645025032 kcal/mol)

>  <smiles>  (39) 
O=C(CSc1nc(=O)c2ccccc2[nH]1)Nc1ccc(S(=O)(=O)N2CCOCC2)cc1

>  <score_type>  (39) 
oracle

>  <origin>  (39) 
adgpu

>  <m_score__min__energy>  (39) 
-10.390000000000001

>  <m_primary>  (39) 
energy

$$$$
39:0
     RDKit          3D

 58 61  0  0  0  0  0  0  0  0999 V2000
   -5.1270   18.4930  -34.8890 O   0  0  0  0  0  0  0  0  0  0  0  0
   -5.3580   18.9730  -33.7480 C   0  0  0  0  0  0  0  0  0  0  0  0
   -6.6950   18.9280  -33.2360 N   0  0  0  0  0  0  0  0  0  0  0  0
   -7.3980   20.0200  -32.6270 C   0  0  0  0  0  0  0  0  0  0  0  0
   -8.8020   20.0910  -32.6330 C   0  0  0  0  0  0  0  0  0  0  0  0
   -9.4540   21.1540  -32.0030 C   0  0  0  0  0  0  0  0  0  0  0  0
   -8.7150   22.1440  -31.3520 C   0  0  0  0  0  0  0  0  0  0  0  0
   -7.3170   22.0740  -31.3240 C   0  0  0  0  0  0  0  0  0  0  0  0
   -6.3920   23.3080  -30.4770 S   0  0  0  0  0  0  0  0  0  0  0  0
   -6.1590   22.8680  -29.0590 O   0  0  0  0  0  0  0  0  0  0  0  0
   -7.1440   24.6090  -30.4530 O   0  0  0  0  0  0  0  0  0  0  0  0
   -4.8670   23.5340  -31.2620 N   0  0  0  0  0  0  0  0  0  0  0  0
   -3.7140   24.0300  -30.5770 C   0  0  0  0  0  0  0  0  0  0  0  0
   -3.5300   25.2740  -30.4860 O   0  0  0  0  0  0  0  0  0  0  0  0
   -2.7640   23.0820  -29.9470 C   0  0  0  0  0  0  0  0  0  0  0  0
   -2.8450   21.7170  -30.2820 C   0  0  0  0  0  0  0  0  0  0  0  0
   -1.9910   20.7850  -29.6890 C   0  0  0  0  0  0  0  0  0  0  0  0
   -1.0390   21.2010  -28.7600 C   0  0  0  0  0  0  0  0  0  0  0  0
   -0.9320   22.5520  -28.4270 C   0  0  0  0  0  0  0  0  0  0  0  0
   -1.7830   23.4980  -29.0110 C   0  0  0  0  0  0  0  0  0  0  0  0
   -1.5360   25.1880  -28.5780 Cl  0  0  0  0  0  0  0  0  0  0  0  0
   -6.6640   21.0030  -31.9520 C   0  0  0  0  0  0  0  0  0  0  0  0
   -4.2780   19.4670  -32.9390 N   0  0  0  0  0  0  0  0  0  0  0  0
   -3.0010   19.8670  -33.4640 C   0  0  0  0  0  0  0  0  0  0  0  0
   -2.1740   18.9090  -34.0690 C   0  0  0  0  0  0  0  0  0  0  0  0
   -0.9160   19.2680  -34.5610 C   0  0  0  0  0  0  0  0  0  0  0  0
   -0.4600   20.5850  -34.4360 C   0  0  0  0  0  0  0  0  0  0  0  0
    1.1240   21.0190  -35.0700 S   0  0  0  0  0  0  0  0  0  0  0  0
    1.2470   20.4950  -36.4730 O   0  0  0  0  0  0  0  0  0  0  0  0
    2.2060   20.4000  -34.2260 O   0  0  0  0  0  0  0  0  0  0  0  0
    1.2810   22.7560  -35.0780 N   0  0  0  0  0  0  0  0  0  0  0  0
    2.6280   23.1680  -35.4740 C   0  0  0  0  0  0  0  0  0  0  0  0
    2.4940   24.5400  -36.1230 C   0  0  0  0  0  0  0  0  0  0  0  0
    1.0150   24.6930  -36.4430 C   0  0  0  0  0  0  0  0  0  0  0  0
    0.3840   23.3680  -36.0570 C   0  0  0  0  0  0  0  0  0  0  0  0
   -1.2740   21.5440  -33.8180 C   0  0  0  0  0  0  0  0  0  0  0  0
   -2.5340   21.1860  -33.3290 C   0  0  0  0  0  0  0  0  0  0  0  0
   -9.3888   19.3076  -33.1350 H   0  0  0  0  0  0  0  0  0  0  0  0
  -10.5524   21.2112  -32.0198 H   0  0  0  0  0  0  0  0  0  0  0  0
   -9.2325   22.9808  -30.8601 H   0  0  0  0  0  0  0  0  0  0  0  0
   -3.5893   21.3810  -31.0190 H   0  0  0  0  0  0  0  0  0  0  0  0
   -2.0697   19.7207  -29.9555 H   0  0  0  0  0  0  0  0  0  0  0  0
   -0.3717   20.4642  -28.2891 H   0  0  0  0  0  0  0  0  0  0  0  0
   -0.1730   22.8762  -27.6999 H   0  0  0  0  0  0  0  0  0  0  0  0
   -5.5668   20.9349  -31.9139 H   0  0  0  0  0  0  0  0  0  0  0  0
   -4.4040   19.4610  -31.9010 H   0  0  0  0  0  0  0  0  0  0  0  0
   -2.5180   17.8679  -34.1568 H   0  0  0  0  0  0  0  0  0  0  0  0
   -0.2821   18.5125  -35.0482 H   0  0  0  0  0  0  0  0  0  0  0  0
    3.2808   23.2287  -34.5907 H   0  0  0  0  0  0  0  0  0  0  0  0
    3.0744   22.4431  -36.1705 H   0  0  0  0  0  0  0  0  0  0  0  0
    2.8209   25.3278  -35.4284 H   0  0  0  0  0  0  0  0  0  0  0  0
    3.1187   24.6290  -37.0240 H   0  0  0  0  0  0  0  0  0  0  0  0
    0.5766   25.5141  -35.8568 H   0  0  0  0  0  0  0  0  0  0  0  0
    0.8470   24.9345  -37.5029 H   0  0  0  0  0  0  0  0  0  0  0  0
   -0.6085   23.5339  -35.6127 H   0  0  0  0  0  0  0  0  0  0  0  0
    0.2478   22.7193  -36.9348 H   0  0  0  0  0  0  0  0  0  0  0  0
   -0.9207   22.5809  -33.7174 H   0  0  0  0  0  0  0  0  0  0  0  0
   -3.1637   21.9411  -32.8356 H   0  0  0  0  0  0  0  0  0  0  0  0
  1  2  2  0
  2  3  1  0
  3  4  1  0
  4  5  2  0
  5  6  1  0
  6  7  2  0
  7  8  1  0
  8  9  1  0
  9 10  2  0
  9 11  2  0
  9 12  1  0
 12 13  1  0
 13 14  2  0
 13 15  1  0
 15 16  2  0
 16 17  1  0
 17 18  2  0
 18 19  1  0
 19 20  2  0
 20 21  1  0
  8 22  2  0
  2 23  1  0
 23 24  1  0
 24 25  2  0
 25 26  1  0
 26 27  2  0
 27 28  1  0
 28 29  2  0
 28 30  2  0
 28 31  1  0
 31 32  1  0
 32 33  1  0
 33 34  1  0
 34 35  1  0
 27 36  1  0
 36 37  2  0
 22  4  1  0
 37 24  1  0
 20 15  1  0
 35 31  1  0
  5 38  1  0
  6 39  1  0
  7 40  1  0
 16 41  1  0
 17 42  1  0
 18 43  1  0
 19 44  1  0
 22 45  1  0
 23 46  1  0
 25 47  1  0
 26 48  1  0
 32 49  1  0
 32 50  1  0
 33 51  1  0
 33 52  1  0
 34 53  1  0
 34 54  1  0
 35 55  1  0
 35 56  1  0
 36 57  1  0
 37 58  1  0
M  CHG  2   3  -1  12  -1
M  END
>  <UniqueID>  (40) 
37

>  <SMILES>  (40) 
O=C([N-]c1cccc(S(=O)(=O)[N-]C(=O)c2ccccc2Cl)c1)Nc1ccc(S(=O)(=O)N2CCCC2)cc1

>  <Energy>  (40) 
75.3425428266674

>  <Genealogy>  (40) 
O=C([N-]c1cccc(S(=O)(=O)[N-]C(=O)c2ccccc2Cl)c1)Nc1ccc(S(=O)(=O)N2CCCC2)cc1 (protonated)
O=C([N-]c1cccc(S(=O)(=O)[N-]C(=O)c2ccccc2Cl)c1)Nc1ccc(S(=O)(=O)N2CCCC2)cc1 (3D coordinates assigned)
O=C([N-]c1cccc(S(=O)(=O)[N-]C(=O)c2ccccc2Cl)c1)Nc1ccc(S(=O)(=O)N2CCCC2)cc1 (nonaromatic ring conformer: 75.3425428266674 kcal/mol)

>  <smiles>  (40) 
O=C(Nc1ccc(S(=O)(=O)N2CCCC2)cc1)Nc1cccc(S(=O)(=O)NC(=O)c2ccccc2Cl)c1

>  <score_type>  (40) 
oracle

>  <origin>  (40) 
adgpu

>  <m_score__min__energy>  (40) 
-12.109999999999999

>  <m_primary>  (40) 
energy

$$$$
40:0
     RDKit          3D

 48 52  0  0  0  0  0  0  0  0999 V2000
   -8.5690   19.3230  -31.7690 O   0  0  0  0  0  0  0  0  0  0  0  0
   -7.4040   19.6830  -32.0880 C   0  0  0  0  0  0  0  0  0  0  0  0
   -6.5600   18.7960  -32.9240 C   0  0  0  0  0  0  0  0  0  0  0  0
   -7.0460   17.5510  -33.3650 C   0  0  0  0  0  0  0  0  0  0  0  0
   -6.2480   16.7170  -34.1480 C   0  0  0  0  0  0  0  0  0  0  0  0
   -4.9580   17.1120  -34.4970 C   0  0  0  0  0  0  0  0  0  0  0  0
   -4.4610   18.3450  -34.0670 C   0  0  0  0  0  0  0  0  0  0  0  0
   -5.2540   19.1980  -33.2790 C   0  0  0  0  0  0  0  0  0  0  0  0
   -4.7330   20.5080  -32.8180 C   0  0  0  0  0  0  0  0  0  0  0  0
   -3.5660   20.8670  -33.1370 O   0  0  0  0  0  0  0  0  0  0  0  0
   -5.5760   21.3930  -31.9820 C   0  0  0  0  0  0  0  0  0  0  0  0
   -5.0880   22.6330  -31.5360 C   0  0  0  0  0  0  0  0  0  0  0  0
   -5.8900   23.4730  -30.7490 C   0  0  0  0  0  0  0  0  0  0  0  0
   -5.3090   25.0530  -30.2300 S   0  0  0  0  0  0  0  0  0  0  0  0
   -5.8000   26.0930  -31.1990 O   0  0  0  0  0  0  0  0  0  0  0  0
   -5.8270   25.4010  -28.8640 O   0  0  0  0  0  0  0  0  0  0  0  0
   -3.5750   25.0570  -30.2350 N   0  0  0  0  0  0  0  0  0  0  0  0
   -2.7310   24.2140  -29.4350 C   0  0  0  0  0  0  0  0  0  0  0  0
   -3.1060   22.9000  -29.1030 C   0  0  0  0  0  0  0  0  0  0  0  0
   -2.2770   22.0960  -28.3090 C   0  0  0  0  0  0  0  0  0  0  0  0
   -1.0310   22.5910  -27.8760 C   0  0  0  0  0  0  0  0  0  0  0  0
   -0.6630   23.9070  -28.1950 C   0  0  0  0  0  0  0  0  0  0  0  0
   -1.5010   24.7160  -28.9670 C   0  0  0  0  0  0  0  0  0  0  0  0
   -1.0850   26.0160  -29.2690 O   0  0  0  0  0  0  0  0  0  0  0  0
   -0.1330   21.7650  -26.9800 C   0  0  0  0  0  0  0  0  0  0  0  0
   -0.4590   20.3280  -27.0200 N   0  0  0  0  0  0  0  0  0  0  0  0
   -1.8980   20.1110  -26.8250 C   0  0  0  0  0  0  0  0  0  0  0  0
   -2.6920   20.6820  -28.0030 C   0  0  0  0  0  0  0  0  0  0  0  0
   -7.1810   23.0670  -30.3960 C   0  0  0  0  0  0  0  0  0  0  0  0
   -7.6730   21.8340  -30.8260 C   0  0  0  0  0  0  0  0  0  0  0  0
   -6.8810   20.9890  -31.6230 C   0  0  0  0  0  0  0  0  0  0  0  0
   -8.0626   17.2333  -33.0902 H   0  0  0  0  0  0  0  0  0  0  0  0
   -6.6372   15.7468  -34.4903 H   0  0  0  0  0  0  0  0  0  0  0  0
   -4.3295   16.4515  -35.1125 H   0  0  0  0  0  0  0  0  0  0  0  0
   -3.4421   18.6507  -34.3469 H   0  0  0  0  0  0  0  0  0  0  0  0
   -4.0691   22.9475  -31.8061 H   0  0  0  0  0  0  0  0  0  0  0  0
   -4.0616   22.4983  -29.4710 H   0  0  0  0  0  0  0  0  0  0  0  0
    0.2960   24.3063  -27.8333 H   0  0  0  0  0  0  0  0  0  0  0  0
   -1.2380   26.4410  -30.1750 H   0  0  0  0  0  0  0  0  0  0  0  0
    0.9091   21.8990  -27.3057 H   0  0  0  0  0  0  0  0  0  0  0  0
   -0.2831   22.1120  -25.9470 H   0  0  0  0  0  0  0  0  0  0  0  0
   -0.1740   19.9410  -27.9530 H   0  0  0  0  0  0  0  0  0  0  0  0
   -2.0937   19.0314  -26.7462 H   0  0  0  0  0  0  0  0  0  0  0  0
   -2.2127   20.6223  -25.9033 H   0  0  0  0  0  0  0  0  0  0  0  0
   -2.5154   20.0568  -28.8907 H   0  0  0  0  0  0  0  0  0  0  0  0
   -3.7586   20.6840  -27.7340 H   0  0  0  0  0  0  0  0  0  0  0  0
   -7.8112   23.7224  -29.7768 H   0  0  0  0  0  0  0  0  0  0  0  0
   -8.6878   21.5210  -30.5393 H   0  0  0  0  0  0  0  0  0  0  0  0
  1  2  2  0
  2  3  1  0
  3  4  2  0
  4  5  1  0
  5  6  2  0
  6  7  1  0
  7  8  2  0
  8  9  1  0
  9 10  2  0
  9 11  1  0
 11 12  2  0
 12 13  1  0
 13 14  1  0
 14 15  2  0
 14 16  2  0
 14 17  1  0
 17 18  1  0
 18 19  2  0
 19 20  1  0
 20 21  2  0
 21 22  1  0
 22 23  2  0
 23 24  1  0
 21 25  1  0
 25 26  1  0
 26 27  1  0
 27 28  1  0
 13 29  2  0
 29 30  1  0
 30 31  2  0
 31  2  1  0
  8  3  1  0
 31 11  1  0
 23 18  1  0
 28 20  1  0
  4 32  1  0
  5 33  1  0
  6 34  1  0
  7 35  1  0
 12 36  1  0
 19 37  1  0
 22 38  1  0
 24 39  1  0
 25 40  1  0
 25 41  1  0
 26 42  1  0
 27 43  1  0
 27 44  1  0
 28 45  1  0
 28 46  1  0
 29 47  1  0
 30 48  1  0
M  CHG  1  17  -1
M  END
>  <UniqueID>  (41) 
38

>  <SMILES>  (41) 
O=C1c2ccccc2C(=O)c2cc(S(=O)(=O)[N-]c3cc4c(cc3O)CNCC4)ccc21

>  <Energy>  (41) 
64.55923421444304

>  <Genealogy>  (41) 
O=C1c2ccccc2C(=O)c2cc(S(=O)(=O)[N-]c3cc4c(cc3O)CNCC4)ccc21 (protonated)
O=C1c2ccccc2C(=O)c2cc(S(=O)(=O)[N-]c3cc4c(cc3O)CNCC4)ccc21 (3D coordinates assigned)
O=C1c2ccccc2C(=O)c2cc(S(=O)(=O)[N-]c3cc4c(cc3O)CNCC4)ccc21 (nonaromatic ring conformer: 64.55923421444304 kcal/mol)

>  <smiles>  (41) 
O=C1c2ccccc2C(=O)c2cc(S(=O)(=O)Nc3cc4c(cc3O)CNCC4)ccc21

>  <score_type>  (41) 
oracle

>  <origin>  (41) 
adgpu

>  <m_score__min__energy>  (41) 
-14.27

>  <m_primary>  (41) 
energy

$$$$
41:0
     RDKit          3D

 47 49  0  0  0  0  0  0  0  0999 V2000
   -1.4620   19.4300  -33.9130 C   0  0  0  0  0  0  0  0  0  0  0  0
   -2.5790   18.4360  -33.7850 C   0  0  0  0  0  0  0  0  0  0  0  0
   -2.4420   17.1530  -34.3300 C   0  0  0  0  0  0  0  0  0  0  0  0
   -3.4980   16.2420  -34.2570 C   0  0  0  0  0  0  0  0  0  0  0  0
   -4.6990   16.6060  -33.6440 C   0  0  0  0  0  0  0  0  0  0  0  0
   -4.8550   17.8890  -33.0900 C   0  0  0  0  0  0  0  0  0  0  0  0
   -6.0950   18.2710  -32.4640 N   0  0  0  0  0  0  0  0  0  0  0  0
   -6.5130   17.6590  -31.2020 C   0  0  0  0  0  0  0  0  0  0  0  0
   -7.0600   19.5590  -33.1250 S   0  0  0  0  0  0  0  0  0  0  0  0
   -8.5130   19.2700  -32.8630 O   0  0  0  0  0  0  0  0  0  0  0  0
   -6.8400   19.6750  -34.6080 O   0  0  0  0  0  0  0  0  0  0  0  0
   -6.5800   21.0800  -32.3760 C   0  0  0  0  0  0  0  0  0  0  0  0
   -7.4570   21.7720  -31.5280 C   0  0  0  0  0  0  0  0  0  0  0  0
   -7.0480   22.9600  -30.9140 C   0  0  0  0  0  0  0  0  0  0  0  0
   -5.7600   23.4650  -31.1440 C   0  0  0  0  0  0  0  0  0  0  0  0
   -5.2220   24.9380  -30.3440 S   0  0  0  0  0  0  0  0  0  0  0  0
   -5.7940   26.1220  -31.0690 O   0  0  0  0  0  0  0  0  0  0  0  0
   -5.6850   24.9650  -28.9130 O   0  0  0  0  0  0  0  0  0  0  0  0
   -3.4920   25.0310  -30.3820 N   0  0  0  0  0  0  0  0  0  0  0  0
   -2.6050   24.3110  -29.5120 C   0  0  0  0  0  0  0  0  0  0  0  0
   -2.8330   22.9650  -29.1670 C   0  0  0  0  0  0  0  0  0  0  0  0
   -1.9420   22.2930  -28.3240 C   0  0  0  0  0  0  0  0  0  0  0  0
   -0.8220   22.9530  -27.8180 C   0  0  0  0  0  0  0  0  0  0  0  0
   -0.5900   24.2900  -28.1520 C   0  0  0  0  0  0  0  0  0  0  0  0
   -1.4800   24.9690  -28.9920 C   0  0  0  0  0  0  0  0  0  0  0  0
   -1.2340   26.2970  -29.3190 O   0  0  0  0  0  0  0  0  0  0  0  0
   -4.8910   22.7820  -32.0070 C   0  0  0  0  0  0  0  0  0  0  0  0
   -5.2990   21.5930  -32.6180 C   0  0  0  0  0  0  0  0  0  0  0  0
   -3.7920   18.8050  -33.1800 C   0  0  0  0  0  0  0  0  0  0  0  0
   -1.1230   19.7317  -32.9110 H   0  0  0  0  0  0  0  0  0  0  0  0
   -0.6251   18.9725  -34.4609 H   0  0  0  0  0  0  0  0  0  0  0  0
   -1.8192   20.3144  -34.4609 H   0  0  0  0  0  0  0  0  0  0  0  0
   -1.4996   16.8620  -34.8171 H   0  0  0  0  0  0  0  0  0  0  0  0
   -3.3835   15.2346  -34.6836 H   0  0  0  0  0  0  0  0  0  0  0  0
   -5.5279   15.8846  -33.5943 H   0  0  0  0  0  0  0  0  0  0  0  0
   -6.1133   18.2441  -30.3606 H   0  0  0  0  0  0  0  0  0  0  0  0
   -7.6116   17.6430  -31.1484 H   0  0  0  0  0  0  0  0  0  0  0  0
   -6.1283   16.6299  -31.1484 H   0  0  0  0  0  0  0  0  0  0  0  0
   -8.4683   21.3796  -31.3456 H   0  0  0  0  0  0  0  0  0  0  0  0
   -7.7382   23.4997  -30.2490 H   0  0  0  0  0  0  0  0  0  0  0  0
   -3.7153   22.4400  -29.5620 H   0  0  0  0  0  0  0  0  0  0  0  0
   -2.1249   21.2411  -28.0592 H   0  0  0  0  0  0  0  0  0  0  0  0
   -0.1220   22.4214  -27.1566 H   0  0  0  0  0  0  0  0  0  0  0  0
    0.2939   24.8098  -27.7539 H   0  0  0  0  0  0  0  0  0  0  0  0
   -3.8857   23.1830  -32.2036 H   0  0  0  0  0  0  0  0  0  0  0  0
   -4.6123   21.0585  -33.2908 H   0  0  0  0  0  0  0  0  0  0  0  0
   -3.9113   19.8199  -32.7729 H   0  0  0  0  0  0  0  0  0  0  0  0
  1  2  1  0
  2  3  2  0
  3  4  1  0
  4  5  2  0
  5  6  1  0
  6  7  1  0
  7  8  1  0
  7  9  1  0
  9 10  2  0
  9 11  2  0
  9 12  1  0
 12 13  2  0
 13 14  1  0
 14 15  2  0
 15 16  1  0
 16 17  2  0
 16 18  2  0
 16 19  1  0
 19 20  1  0
 20 21  2  0
 21 22  1  0
 22 23  2  0
 23 24  1  0
 24 25  2  0
 25 26  1  0
 15 27  1  0
 27 28  2  0
  6 29  2  0
 29  2  1  0
 28 12  1  0
 25 20  1  0
  1 30  1  0
  1 31  1  0
  1 32  1  0
  3 33  1  0
  4 34  1  0
  5 35  1  0
  8 36  1  0
  8 37  1  0
  8 38  1  0
 13 39  1  0
 14 40  1  0
 21 41  1  0
 22 42  1  0
 23 43  1  0
 24 44  1  0
 27 45  1  0
 28 46  1  0
 29 47  1  0
M  CHG  2  19  -1  26  -1
M  END
>  <UniqueID>  (42) 
39

>  <SMILES>  (42) 
Cc1cccc(N(C)S(=O)(=O)c2ccc(S(=O)(=O)[N-]c3ccccc3[O-])cc2)c1

>  <Energy>  (42) 
56.601846950505454

>  <Genealogy>  (42) 
Cc1cccc(N(C)S(=O)(=O)c2ccc(S(=O)(=O)[N-]c3ccccc3[O-])cc2)c1 (protonated)
Cc1cccc(N(C)S(=O)(=O)c2ccc(S(=O)(=O)[N-]c3ccccc3[O-])cc2)c1 (3D coordinates assigned)
Cc1cccc(N(C)S(=O)(=O)c2ccc(S(=O)(=O)[N-]c3ccccc3[O-])cc2)c1 (optimized conformer: 56.601846950505454 kcal/mol)

>  <smiles>  (42) 
Cc1cccc(N(C)S(=O)(=O)c2ccc(S(=O)(=O)Nc3ccccc3O)cc2)c1

>  <score_type>  (42) 
oracle

>  <origin>  (42) 
adgpu

>  <m_score__min__energy>  (42) 
-14.23

>  <m_primary>  (42) 
energy

$$$$
42:0
     RDKit          3D

 33 35  0  0  0  0  0  0  0  0999 V2000
   -4.3300   25.3820  -31.1400 O   0  0  0  0  0  0  0  0  0  0  0  0
   -4.3770   24.1300  -30.3110 S   0  0  0  0  0  0  0  0  0  0  0  0
   -4.5420   24.5070  -28.8650 O   0  0  0  0  0  0  0  0  0  0  0  0
   -2.8860   23.2650  -30.5030 N   0  0  0  0  0  0  0  0  0  0  0  0
   -1.8250   23.2070  -29.5360 C   0  0  0  0  0  0  0  0  0  0  0  0
   -1.1880   21.9940  -29.2210 C   0  0  0  0  0  0  0  0  0  0  0  0
   -0.1550   21.9560  -28.2860 C   0  0  0  0  0  0  0  0  0  0  0  0
    0.2630   23.1270  -27.6450 C   0  0  0  0  0  0  0  0  0  0  0  0
    1.3050   23.0900  -26.7050 C   0  0  0  0  0  0  0  0  0  0  0  0
    1.7210   24.2630  -26.0680 C   0  0  0  0  0  0  0  0  0  0  0  0
    1.1020   25.4780  -26.3640 C   0  0  0  0  0  0  0  0  0  0  0  0
    0.0620   25.5310  -27.2970 C   0  0  0  0  0  0  0  0  0  0  0  0
   -0.3690   24.3590  -27.9490 C   0  0  0  0  0  0  0  0  0  0  0  0
   -1.4140   24.3950  -28.8960 C   0  0  0  0  0  0  0  0  0  0  0  0
   -2.0340   25.6120  -29.1940 O   0  0  0  0  0  0  0  0  0  0  0  0
   -5.7250   23.1360  -30.8550 C   0  0  0  0  0  0  0  0  0  0  0  0
   -6.9130   23.0810  -30.1110 C   0  0  0  0  0  0  0  0  0  0  0  0
   -7.9740   22.2800  -30.5440 C   0  0  0  0  0  0  0  0  0  0  0  0
   -7.8560   21.5320  -31.7210 C   0  0  0  0  0  0  0  0  0  0  0  0
   -9.1880   20.5270  -32.2600 Cl  0  0  0  0  0  0  0  0  0  0  0  0
   -6.6750   21.5930  -32.4700 C   0  0  0  0  0  0  0  0  0  0  0  0
   -5.6130   22.3930  -32.0390 C   0  0  0  0  0  0  0  0  0  0  0  0
   -1.5079   21.0659  -29.7172 H   0  0  0  0  0  0  0  0  0  0  0  0
    0.3345   20.9994  -28.0507 H   0  0  0  0  0  0  0  0  0  0  0  0
    1.7961   22.1345  -26.4687 H   0  0  0  0  0  0  0  0  0  0  0  0
    2.5378   24.2280  -25.3321 H   0  0  0  0  0  0  0  0  0  0  0  0
    1.4337   26.3983  -25.8610 H   0  0  0  0  0  0  0  0  0  0  0  0
   -0.4220   26.4926  -27.5230 H   0  0  0  0  0  0  0  0  0  0  0  0
   -2.9000   25.6720  -29.7160 H   0  0  0  0  0  0  0  0  0  0  0  0
   -7.0099   23.6686  -29.1861 H   0  0  0  0  0  0  0  0  0  0  0  0
   -8.9040   22.2376  -29.9580 H   0  0  0  0  0  0  0  0  0  0  0  0
   -6.5827   21.0108  -33.3987 H   0  0  0  0  0  0  0  0  0  0  0  0
   -4.6866   22.4399  -32.6303 H   0  0  0  0  0  0  0  0  0  0  0  0
  1  2  2  0
  2  3  2  0
  2  4  1  0
  4  5  1  0
  5  6  2  0
  6  7  1  0
  7  8  2  0
  8  9  1  0
  9 10  2  0
 10 11  1  0
 11 12  2  0
 12 13  1  0
 13 14  2  0
 14 15  1  0
  2 16  1  0
 16 17  2  0
 17 18  1  0
 18 19  2  0
 19 20  1  0
 19 21  1  0
 21 22  2  0
 14  5  1  0
 22 16  1  0
 13  8  1  0
  6 23  1  0
  7 24  1  0
  9 25  1  0
 10 26  1  0
 11 27  1  0
 12 28  1  0
 15 29  1  0
 17 30  1  0
 18 31  1  0
 21 32  1  0
 22 33  1  0
M  CHG  1   4  -1
M  END
>  <UniqueID>  (43) 
40

>  <SMILES>  (43) 
O=S(=O)([N-]c1ccc2ccccc2c1O)c1ccc(Cl)cc1

>  <Energy>  (43) 
43.29236338905934

>  <Genealogy>  (43) 
O=S(=O)([N-]c1ccc2ccccc2c1O)c1ccc(Cl)cc1 (protonated)
O=S(=O)([N-]c1ccc2ccccc2c1O)c1ccc(Cl)cc1 (3D coordinates assigned)
O=S(=O)([N-]c1ccc2ccccc2c1O)c1ccc(Cl)cc1 (optimized conformer: 43.29236338905934 kcal/mol)

>  <smiles>  (43) 
O=S(=O)(Nc1ccc2ccccc2c1O)c1ccc(Cl)cc1

>  <score_type>  (43) 
oracle

>  <origin>  (43) 
adgpu

>  <m_score__min__energy>  (43) 
-10.75

>  <m_primary>  (43) 
energy

$$$$
43:0
     RDKit          3D

 50 52  0  0  0  0  0  0  0  0999 V2000
   -9.1410   20.7670  -31.8580 C   0  0  0  0  0  0  0  0  0  0  0  0
   -8.5050   19.9920  -33.0060 C   0  0  0  0  0  0  0  0  0  0  0  0
   -7.8990   18.7870  -32.5360 O   0  0  0  0  0  0  0  0  0  0  0  0
   -6.8530   18.0890  -33.1710 C   0  0  0  0  0  0  0  0  0  0  0  0
   -6.9090   16.6900  -33.3940 C   0  0  0  0  0  0  0  0  0  0  0  0
   -5.8060   16.0760  -33.9890 C   0  0  0  0  0  0  0  0  0  0  0  0
   -4.6920   16.7810  -34.3470 C   0  0  0  0  0  0  0  0  0  0  0  0
   -4.6040   18.1580  -34.1550 C   0  0  0  0  0  0  0  0  0  0  0  0
   -5.7000   18.8180  -33.5750 C   0  0  0  0  0  0  0  0  0  0  0  0
   -5.6510   20.2370  -33.4310 N   0  0  0  0  0  0  0  0  0  0  0  0
   -4.2920   21.0100  -32.6880 S   0  0  0  0  0  0  0  0  0  0  0  0
   -3.5100   20.0170  -31.8800 O   0  0  0  0  0  0  0  0  0  0  0  0
   -3.3980   21.5770  -33.7530 O   0  0  0  0  0  0  0  0  0  0  0  0
   -4.8770   22.3240  -31.6730 C   0  0  0  0  0  0  0  0  0  0  0  0
   -6.2470   22.5170  -31.4730 C   0  0  0  0  0  0  0  0  0  0  0  0
   -6.7040   23.5940  -30.7070 C   0  0  0  0  0  0  0  0  0  0  0  0
   -5.7960   24.4990  -30.1500 C   0  0  0  0  0  0  0  0  0  0  0  0
   -6.2900   25.5590  -29.3850 O   0  0  0  0  0  0  0  0  0  0  0  0
   -4.4130   24.3370  -30.3790 C   0  0  0  0  0  0  0  0  0  0  0  0
   -3.4830   25.2680  -29.8080 N   0  0  0  0  0  0  0  0  0  0  0  0
   -2.3670   24.9480  -28.9670 C   0  0  0  0  0  0  0  0  0  0  0  0
   -2.3650   23.7480  -28.0650 C   0  0  0  0  0  0  0  0  0  0  0  0
   -1.3330   25.6690  -29.0250 O   0  0  0  0  0  0  0  0  0  0  0  0
   -3.9640   23.2310  -31.1240 C   0  0  0  0  0  0  0  0  0  0  0  0
   -3.8010   15.9450  -34.9180 N   0  0  0  0  0  0  0  0  0  0  0  0
   -2.5140   16.2740  -35.5240 C   0  0  0  0  0  0  0  0  0  0  0  0
   -4.4220   14.7400  -34.9120 C   0  0  0  0  0  0  0  0  0  0  0  0
   -3.9210   13.6950  -35.4130 O   0  0  0  0  0  0  0  0  0  0  0  0
   -5.6420   14.7790  -34.3280 N   0  0  0  0  0  0  0  0  0  0  0  0
   -6.6170   13.6980  -34.2160 C   0  0  0  0  0  0  0  0  0  0  0  0
   -8.7985   20.3496  -30.8996 H   0  0  0  0  0  0  0  0  0  0  0  0
   -8.8475   21.8251  -31.9229 H   0  0  0  0  0  0  0  0  0  0  0  0
  -10.2361   20.6856  -31.9229 H   0  0  0  0  0  0  0  0  0  0  0  0
   -9.2811   19.7404  -33.7438 H   0  0  0  0  0  0  0  0  0  0  0  0
   -7.7269   20.6201  -33.4644 H   0  0  0  0  0  0  0  0  0  0  0  0
   -7.7956   16.1058  -33.1065 H   0  0  0  0  0  0  0  0  0  0  0  0
   -3.7012   18.7131  -34.4495 H   0  0  0  0  0  0  0  0  0  0  0  0
   -6.9692   21.8182  -31.9204 H   0  0  0  0  0  0  0  0  0  0  0  0
   -7.7831   23.7296  -30.5420 H   0  0  0  0  0  0  0  0  0  0  0  0
   -5.6870   26.1360  -28.8080 H   0  0  0  0  0  0  0  0  0  0  0  0
   -2.3656   24.0780  -27.0157 H   0  0  0  0  0  0  0  0  0  0  0  0
   -3.2621   23.1418  -28.2592 H   0  0  0  0  0  0  0  0  0  0  0  0
   -1.4658   23.1448  -28.2592 H   0  0  0  0  0  0  0  0  0  0  0  0
   -2.8854   23.0781  -31.2762 H   0  0  0  0  0  0  0  0  0  0  0  0
   -1.7738   16.4632  -34.7326 H   0  0  0  0  0  0  0  0  0  0  0  0
   -2.1769   15.4332  -36.1480 H   0  0  0  0  0  0  0  0  0  0  0  0
   -2.6218   17.1735  -36.1480 H   0  0  0  0  0  0  0  0  0  0  0  0
   -6.8086   13.4856  -33.1538 H   0  0  0  0  0  0  0  0  0  0  0  0
   -7.5554   13.9985  -34.7049 H   0  0  0  0  0  0  0  0  0  0  0  0
   -6.2216   12.7954  -34.7049 H   0  0  0  0  0  0  0  0  0  0  0  0
  1  2  1  0
  2  3  1  0
  3  4  1  0
  4  5  2  0
  5  6  1  0
  6  7  2  0
  7  8  1  0
  8  9  2  0
  9 10  1  0
 10 11  1  0
 11 12  2  0
 11 13  2  0
 11 14  1  0
 14 15  2  0
 15 16  1  0
 16 17  2  0
 17 18  1  0
 17 19  1  0
 19 20  1  0
 20 21  1  0
 21 22  1  0
 21 23  2  0
 19 24  2  0
  7 25  1  0
 25 26  1  0
 25 27  1  0
 27 28  2  0
 27 29  1  0
 29 30  1  0
  9  4  1  0
 24 14  1  0
 29  6  1  0
  1 31  1  0
  1 32  1  0
  1 33  1  0
  2 34  1  0
  2 35  1  0
  5 36  1  0
  8 37  1  0
 15 38  1  0
 16 39  1  0
 18 40  1  0
 22 41  1  0
 22 42  1  0
 22 43  1  0
 24 44  1  0
 26 45  1  0
 26 46  1  0
 26 47  1  0
 30 48  1  0
 30 49  1  0
 30 50  1  0
M  CHG  2  10  -1  20  -1
M  END
>  <UniqueID>  (44) 
41

>  <SMILES>  (44) 
CCOc1cc2c(cc1[N-]S(=O)(=O)c1ccc(O)c([N-]C(C)=O)c1)n(C)c(=O)n2C

>  <Energy>  (44) 
99.2299386473701

>  <Genealogy>  (44) 
CCOc1cc2c(cc1[N-]S(=O)(=O)c1ccc(O)c([N-]C(C)=O)c1)n(C)c(=O)n2C (protonated)
CCOc1cc2c(cc1[N-]S(=O)(=O)c1ccc(O)c([N-]C(C)=O)c1)n(C)c(=O)n2C (3D coordinates assigned)
CCOc1cc2c(cc1[N-]S(=O)(=O)c1ccc(O)c([N-]C(C)=O)c1)n(C)c(=O)n2C (optimized conformer: 99.2299386473701 kcal/mol)

>  <smiles>  (44) 
CCOc1cc2c(cc1NS(=O)(=O)c1ccc(O)c(NC(C)=O)c1)n(C)c(=O)n2C

>  <score_type>  (44) 
oracle

>  <origin>  (44) 
adgpu

>  <m_score__min__energy>  (44) 
-10.51

>  <m_primary>  (44) 
energy

$$$$
44:0
     RDKit          3D

 58 61  0  0  0  0  0  0  0  0999 V2000
    1.4630   16.0990  -34.5130 C   0  0  0  0  0  0  0  0  0  0  0  0
    0.5560   17.0500  -33.7990 C   0  0  0  0  0  0  0  0  0  0  0  0
    1.0650   18.1780  -33.1570 C   0  0  0  0  0  0  0  0  0  0  0  0
    0.2180   19.0260  -32.5140 N   0  0  0  0  0  0  0  0  0  0  0  0
   -1.1300   18.7860  -32.4570 C   0  0  0  0  0  0  0  0  0  0  0  0
   -1.9410   19.6070  -31.8490 N   0  0  0  0  0  0  0  0  0  0  0  0
   -1.6130   20.7450  -31.0390 C   0  0  0  0  0  0  0  0  0  0  0  0
   -0.7560   20.6340  -29.9300 C   0  0  0  0  0  0  0  0  0  0  0  0
   -0.5080   21.7430  -29.1180 C   0  0  0  0  0  0  0  0  0  0  0  0
   -1.1330   22.9700  -29.3890 C   0  0  0  0  0  0  0  0  0  0  0  0
   -0.8220   24.3700  -28.3600 S   0  0  0  0  0  0  0  0  0  0  0  0
   -1.5480   24.1510  -26.7480 C   0  0  0  0  0  0  0  0  0  0  0  0
    0.6620   24.5730  -28.2200 O   0  0  0  0  0  0  0  0  0  0  0  0
   -1.4310   25.5970  -28.9790 O   0  0  0  0  0  0  0  0  0  0  0  0
   -2.0320   23.0620  -30.4590 C   0  0  0  0  0  0  0  0  0  0  0  0
   -2.2740   21.9530  -31.2740 C   0  0  0  0  0  0  0  0  0  0  0  0
   -1.6510   17.6520  -33.1310 C   0  0  0  0  0  0  0  0  0  0  0  0
   -3.1040   17.3260  -33.1680 C   0  0  0  0  0  0  0  0  0  0  0  0
   -3.5630   16.0410  -32.8300 C   0  0  0  0  0  0  0  0  0  0  0  0
   -4.8920   15.7670  -32.8860 N   0  0  0  0  0  0  0  0  0  0  0  0
   -5.7960   16.7110  -33.2600 C   0  0  0  0  0  0  0  0  0  0  0  0
   -5.3530   17.9990  -33.5870 C   0  0  0  0  0  0  0  0  0  0  0  0
   -6.2900   19.0570  -33.9950 C   0  0  0  0  0  0  0  0  0  0  0  0
   -6.4690   19.2840  -35.2220 O   0  0  0  0  0  0  0  0  0  0  0  0
   -7.0510   19.7690  -33.0110 N   0  0  0  0  0  0  0  0  0  0  0  0
   -6.6250   20.9520  -32.3250 C   0  0  0  0  0  0  0  0  0  0  0  0
   -5.4350   21.6150  -32.6740 C   0  0  0  0  0  0  0  0  0  0  0  0
   -5.0330   22.7520  -31.9680 C   0  0  0  0  0  0  0  0  0  0  0  0
   -5.8110   23.2370  -30.9080 C   0  0  0  0  0  0  0  0  0  0  0  0
   -5.3010   24.6840  -30.0420 S   0  0  0  0  0  0  0  0  0  0  0  0
   -4.6160   24.2220  -28.4660 C   0  0  0  0  0  0  0  0  0  0  0  0
   -4.2590   25.4260  -30.8350 O   0  0  0  0  0  0  0  0  0  0  0  0
   -6.4860   25.5890  -29.8340 O   0  0  0  0  0  0  0  0  0  0  0  0
   -6.9910   22.5690  -30.5530 C   0  0  0  0  0  0  0  0  0  0  0  0
   -7.3880   21.4250  -31.2470 C   0  0  0  0  0  0  0  0  0  0  0  0
   -8.5280   20.7860  -30.8840 F   0  0  0  0  0  0  0  0  0  0  0  0
   -4.0210   18.2670  -33.5260 N   0  0  0  0  0  0  0  0  0  0  0  0
   -0.7820   16.8230  -33.7740 N   0  0  0  0  0  0  0  0  0  0  0  0
    2.0271   15.5076  -33.7768 H   0  0  0  0  0  0  0  0  0  0  0  0
    0.8646   15.4251  -35.1437 H   0  0  0  0  0  0  0  0  0  0  0  0
    2.1645   16.6649  -35.1437 H   0  0  0  0  0  0  0  0  0  0  0  0
    2.1460   18.3811  -33.1704 H   0  0  0  0  0  0  0  0  0  0  0  0
    0.6380   19.8870  -32.1020 H   0  0  0  0  0  0  0  0  0  0  0  0
   -0.2788   19.6697  -29.7009 H   0  0  0  0  0  0  0  0  0  0  0  0
    0.1792   21.6545  -28.2636 H   0  0  0  0  0  0  0  0  0  0  0  0
   -0.7990   24.3769  -25.9748 H   0  0  0  0  0  0  0  0  0  0  0  0
   -2.4060   24.8303  -26.6369 H   0  0  0  0  0  0  0  0  0  0  0  0
   -1.8873   23.1105  -26.6369 H   0  0  0  0  0  0  0  0  0  0  0  0
   -2.5500   24.0116  -30.6587 H   0  0  0  0  0  0  0  0  0  0  0  0
   -2.9895   22.0317  -32.1058 H   0  0  0  0  0  0  0  0  0  0  0  0
   -2.8500   15.2621  -32.5220 H   0  0  0  0  0  0  0  0  0  0  0  0
   -6.8672   16.4652  -33.3055 H   0  0  0  0  0  0  0  0  0  0  0  0
   -4.8196   21.2380  -33.5041 H   0  0  0  0  0  0  0  0  0  0  0  0
   -4.1022   23.2684  -32.2454 H   0  0  0  0  0  0  0  0  0  0  0  0
   -5.2364   24.6404  -27.6597 H   0  0  0  0  0  0  0  0  0  0  0  0
   -4.5963   23.1254  -28.3820 H   0  0  0  0  0  0  0  0  0  0  0  0
   -3.5919   24.6146  -28.3820 H   0  0  0  0  0  0  0  0  0  0  0  0
   -7.6067   22.9480  -29.7240 H   0  0  0  0  0  0  0  0  0  0  0  0
  1  2  1  0
  2  3  2  0
  3  4  1  0
  4  5  1  0
  5  6  2  3
  6  7  1  0
  7  8  2  0
  8  9  1  0
  9 10  2  0
 10 11  1  0
 11 12  1  0
 11 13  2  0
 11 14  2  0
 10 15  1  0
 15 16  2  0
  5 17  1  0
 17 18  1  0
 18 19  2  0
 19 20  1  0
 20 21  2  0
 21 22  1  0
 22 23  1  0
 23 24  2  0
 23 25  1  0
 25 26  1  0
 26 27  2  0
 27 28  1  0
 28 29  2  0
 29 30  1  0
 30 31  1  0
 30 32  2  0
 30 33  2  0
 29 34  1  0
 34 35  2  0
 35 36  1  0
 22 37  2  0
 17 38  2  0
 38  2  1  0
 16  7  1  0
 37 18  1  0
 35 26  1  0
  1 39  1  0
  1 40  1  0
  1 41  1  0
  3 42  1  0
  4 43  1  0
  8 44  1  0
  9 45  1  0
 12 46  1  0
 12 47  1  0
 12 48  1  0
 15 49  1  0
 16 50  1  0
 19 51  1  0
 21 52  1  0
 27 53  1  0
 28 54  1  0
 31 55  1  0
 31 56  1  0
 31 57  1  0
 34 58  1  0
M  CHG  1  25  -1
M  END
>  <UniqueID>  (45) 
42

>  <SMILES>  (45) 
Cc1c[nH]c(=Nc2ccc(S(C)(=O)=O)cc2)c(-c2cncc(C(=O)[N-]c3ccc(S(C)(=O)=O)cc3F)n2)n1

>  <Energy>  (45) 
76.06253918291901

>  <Genealogy>  (45) 
Cc1c[nH]c(=Nc2ccc(S(C)(=O)=O)cc2)c(-c2cncc(C(=O)[N-]c3ccc(S(C)(=O)=O)cc3F)n2)n1 (protonated)
Cc1c[nH]c(=Nc2ccc(S(C)(=O)=O)cc2)c(-c2cncc(C(=O)[N-]c3ccc(S(C)(=O)=O)cc3F)n2)n1 (3D coordinates assigned)
Cc1c[nH]c(=Nc2ccc(S(C)(=O)=O)cc2)c(-c2cncc(C(=O)[N-]c3ccc(S(C)(=O)=O)cc3F)n2)n1 (optimized conformer: 76.06253918291901 kcal/mol)

>  <smiles>  (45) 
Cc1c[nH]c(=Nc2ccc(S(C)(=O)=O)cc2)c(-c2cncc(C(=O)Nc3ccc(S(C)(=O)=O)cc3F)n2)n1

>  <score_type>  (45) 
oracle

>  <origin>  (45) 
adgpu

>  <m_score__min__energy>  (45) 
-11.33

>  <m_primary>  (45) 
energy

$$$$
45:0
     RDKit          3D

 81 85  0  0  0  0  0  0  0  0999 V2000
   -1.2370   18.9960  -27.7510 C   0  0  0  0  0  0  0  0  0  0  0  0
   -0.4770   18.9700  -29.0730 C   0  0  0  0  0  0  0  0  0  0  0  0
   -0.6810   20.2250  -29.8090 N   0  0  0  0  0  0  0  0  0  0  0  0
   -0.8040   21.4680  -29.1010 C   0  0  0  0  0  0  0  0  0  0  0  0
    0.1680   21.8500  -28.1680 C   0  0  0  0  0  0  0  0  0  0  0  0
    0.0400   23.0540  -27.4690 C   0  0  0  0  0  0  0  0  0  0  0  0
   -1.0630   23.8900  -27.6910 C   0  0  0  0  0  0  0  0  0  0  0  0
   -1.1780   25.1160  -26.9540 N   0  0  0  0  0  0  0  0  0  0  0  0
   -0.5500   26.3160  -27.5180 C   0  0  0  0  0  0  0  0  0  0  0  0
   -0.8470   27.5660  -26.6880 C   0  0  0  0  0  0  0  0  0  0  0  0
   -0.7890   27.2710  -25.3080 O   0  0  0  0  0  0  0  0  0  0  0  0
   -1.8890   26.4550  -24.9700 C   0  0  0  0  0  0  0  0  0  0  0  0
   -1.7640   25.0690  -25.6050 C   0  0  0  0  0  0  0  0  0  0  0  0
   -2.0410   23.5090  -28.6310 C   0  0  0  0  0  0  0  0  0  0  0  0
   -3.2430   24.3120  -28.8670 C   0  0  0  0  0  0  0  0  0  0  0  0
   -4.0270   24.5600  -27.9100 O   0  0  0  0  0  0  0  0  0  0  0  0
   -3.4580   24.8960  -30.1550 N   0  0  0  0  0  0  0  0  0  0  0  0
   -4.7570   25.3970  -30.5820 C   0  0  0  0  0  0  0  0  0  0  0  0
   -5.6930   24.2390  -30.7930 C   0  0  0  0  0  0  0  0  0  0  0  0
   -5.9730   23.7930  -32.0930 C   0  0  0  0  0  0  0  0  0  0  0  0
   -6.9310   22.7980  -32.3080 C   0  0  0  0  0  0  0  0  0  0  0  0
   -7.6340   22.2490  -31.2270 C   0  0  0  0  0  0  0  0  0  0  0  0
   -8.6890   21.2110  -31.4710 C   0  0  0  0  0  0  0  0  0  0  0  0
   -7.3540   22.6940  -29.9250 C   0  0  0  0  0  0  0  0  0  0  0  0
   -6.3890   23.6800  -29.7090 C   0  0  0  0  0  0  0  0  0  0  0  0
   -1.9030   22.3060  -29.3350 C   0  0  0  0  0  0  0  0  0  0  0  0
   -0.5630   20.2310  -31.5410 S   0  0  0  0  0  0  0  0  0  0  0  0
   -0.0650   21.5700  -32.0020 O   0  0  0  0  0  0  0  0  0  0  0  0
    0.4050   19.1800  -32.0050 O   0  0  0  0  0  0  0  0  0  0  0  0
   -2.1540   19.9010  -32.2130 C   0  0  0  0  0  0  0  0  0  0  0  0
   -2.3200   18.8950  -33.1770 C   0  0  0  0  0  0  0  0  0  0  0  0
   -3.5800   18.6560  -33.7360 C   0  0  0  0  0  0  0  0  0  0  0  0
   -4.6860   19.4240  -33.3380 C   0  0  0  0  0  0  0  0  0  0  0  0
   -6.2700   19.1470  -34.0590 S   0  0  0  0  0  0  0  0  0  0  0  0
   -7.0690   20.4170  -33.9570 O   0  0  0  0  0  0  0  0  0  0  0  0
   -6.1120   18.8040  -35.5140 O   0  0  0  0  0  0  0  0  0  0  0  0
   -7.1070   17.8570  -33.2220 N   0  0  0  0  0  0  0  0  0  0  0  0
   -7.2790   18.1640  -31.7970 C   0  0  0  0  0  0  0  0  0  0  0  0
   -6.1350   17.5090  -31.0340 C   0  0  0  0  0  0  0  0  0  0  0  0
   -5.4600   16.5800  -32.0220 C   0  0  0  0  0  0  0  0  0  0  0  0
   -6.3300   16.6140  -33.2650 C   0  0  0  0  0  0  0  0  0  0  0  0
   -4.5190   20.4290  -32.3760 C   0  0  0  0  0  0  0  0  0  0  0  0
   -3.2570   20.6740  -31.8240 C   0  0  0  0  0  0  0  0  0  0  0  0
   -0.5213   18.9715  -26.9161 H   0  0  0  0  0  0  0  0  0  0  0  0
   -1.8382   19.9152  -27.6917 H   0  0  0  0  0  0  0  0  0  0  0  0
   -1.8997   18.1200  -27.6917 H   0  0  0  0  0  0  0  0  0  0  0  0
    0.5963   18.8393  -28.8709 H   0  0  0  0  0  0  0  0  0  0  0  0
   -0.8527   18.1351  -29.6828 H   0  0  0  0  0  0  0  0  0  0  0  0
    1.0361   21.1998  -27.9843 H   0  0  0  0  0  0  0  0  0  0  0  0
    0.8099   23.3472  -26.7401 H   0  0  0  0  0  0  0  0  0  0  0  0
    0.5389   26.1636  -27.5522 H   0  0  0  0  0  0  0  0  0  0  0  0
   -0.9633   26.4726  -28.5253 H   0  0  0  0  0  0  0  0  0  0  0  0
   -0.1034   28.3416  -26.9236 H   0  0  0  0  0  0  0  0  0  0  0  0
   -1.8585   27.9223  -26.9325 H   0  0  0  0  0  0  0  0  0  0  0  0
   -1.9326   26.3462  -23.8763 H   0  0  0  0  0  0  0  0  0  0  0  0
   -2.8056   26.9308  -25.3487 H   0  0  0  0  0  0  0  0  0  0  0  0
   -1.1242   24.4443  -24.9644 H   0  0  0  0  0  0  0  0  0  0  0  0
   -2.7775   24.6514  -25.6961 H   0  0  0  0  0  0  0  0  0  0  0  0
   -5.1659   26.0634  -29.8083 H   0  0  0  0  0  0  0  0  0  0  0  0
   -4.6447   25.9555  -31.5230 H   0  0  0  0  0  0  0  0  0  0  0  0
   -5.4356   24.2287  -32.9482 H   0  0  0  0  0  0  0  0  0  0  0  0
   -7.1339   22.4445  -33.3297 H   0  0  0  0  0  0  0  0  0  0  0  0
   -9.0671   20.8390  -30.5074 H   0  0  0  0  0  0  0  0  0  0  0  0
   -9.5167   21.6566  -32.0423 H   0  0  0  0  0  0  0  0  0  0  0  0
   -8.2569   20.3762  -32.0423 H   0  0  0  0  0  0  0  0  0  0  0  0
   -7.8975   22.2638  -29.0709 H   0  0  0  0  0  0  0  0  0  0  0  0
   -6.1732   24.0202  -28.6854 H   0  0  0  0  0  0  0  0  0  0  0  0
   -2.6623   22.0169  -30.0766 H   0  0  0  0  0  0  0  0  0  0  0  0
   -1.4564   18.2921  -33.4943 H   0  0  0  0  0  0  0  0  0  0  0  0
   -3.7046   17.8642  -34.4894 H   0  0  0  0  0  0  0  0  0  0  0  0
   -8.0370   17.7130  -33.6850 H   0  0  0  0  0  0  0  0  0  0  0  0
   -7.2547   19.2530  -31.6440 H   0  0  0  0  0  0  0  0  0  0  0  0
   -8.2462   17.7828  -31.4376 H   0  0  0  0  0  0  0  0  0  0  0  0
   -5.4258   18.2709  -30.6782 H   0  0  0  0  0  0  0  0  0  0  0  0
   -6.4969   16.9655  -30.1488 H   0  0  0  0  0  0  0  0  0  0  0  0
   -4.4448   16.9352  -32.2528 H   0  0  0  0  0  0  0  0  0  0  0  0
   -5.3579   15.5606  -31.6215 H   0  0  0  0  0  0  0  0  0  0  0  0
   -5.6993   16.5957  -34.1661 H   0  0  0  0  0  0  0  0  0  0  0  0
   -6.9969   15.7398  -33.2966 H   0  0  0  0  0  0  0  0  0  0  0  0
   -5.3836   21.0277  -32.0535 H   0  0  0  0  0  0  0  0  0  0  0  0
   -3.1297   21.4761  -31.0821 H   0  0  0  0  0  0  0  0  0  0  0  0
  1  2  1  0
  2  3  1  0
  3  4  1  0
  4  5  2  0
  5  6  1  0
  6  7  2  0
  7  8  1  0
  8  9  1  0
  9 10  1  0
 10 11  1  0
 11 12  1  0
 12 13  1  0
  7 14  1  0
 14 15  1  0
 15 16  2  0
 15 17  1  0
 17 18  1  0
 18 19  1  0
 19 20  2  0
 20 21  1  0
 21 22  2  0
 22 23  1  0
 22 24  1  0
 24 25  2  0
 14 26  2  0
  3 27  1  0
 27 28  2  0
 27 29  2  0
 27 30  1  0
 30 31  2  0
 31 32  1  0
 32 33  2  0
 33 34  1  0
 34 35  2  0
 34 36  2  0
 34 37  1  0
 37 38  1  0
 38 39  1  0
 39 40  1  0
 40 41  1  0
 33 42  1  0
 42 43  2  0
 26  4  1  0
 43 30  1  0
 13  8  1  0
 25 19  1  0
 41 37  1  0
  1 44  1  0
  1 45  1  0
  1 46  1  0
  2 47  1  0
  2 48  1  0
  5 49  1  0
  6 50  1  0
  9 51  1  0
  9 52  1  0
 10 53  1  0
 10 54  1  0
 12 55  1  0
 12 56  1  0
 13 57  1  0
 13 58  1  0
 18 59  1  0
 18 60  1  0
 20 61  1  0
 21 62  1  0
 23 63  1  0
 23 64  1  0
 23 65  1  0
 24 66  1  0
 25 67  1  0
 26 68  1  0
 31 69  1  0
 32 70  1  0
 37 71  1  0
 38 72  1  0
 38 73  1  0
 39 74  1  0
 39 75  1  0
 40 76  1  0
 40 77  1  0
 41 78  1  0
 41 79  1  0
 42 80  1  0
 43 81  1  0
M  CHG  2  17  -1  37   1
M  END
>  <UniqueID>  (46) 
43

>  <SMILES>  (46) 
CCN(c1ccc(N2CCOCC2)c(C(=O)[N-]Cc2ccc(C)cc2)c1)S(=O)(=O)c1ccc(S(=O)(=O)[NH+]2CCCC2)cc1

>  <Energy>  (46) 
98.34806650012855

>  <Genealogy>  (46) 
CCN(c1ccc(N2CCOCC2)c(C(=O)[N-]Cc2ccc(C)cc2)c1)S(=O)(=O)c1ccc(S(=O)(=O)[NH+]2CCCC2)cc1 (protonated)
CCN(c1ccc(N2CCOCC2)c(C(=O)[N-]Cc2ccc(C)cc2)c1)S(=O)(=O)c1ccc(S(=O)(=O)[NH+]2CCCC2)cc1 (3D coordinates assigned)
CCN(c1ccc(N2CCOCC2)c(C(=O)[N-]Cc2ccc(C)cc2)c1)S(=O)(=O)c1ccc(S(=O)(=O)[NH+]2CCCC2)cc1 (nonaromatic ring conformer: 98.34806650012855 kcal/mol)

>  <smiles>  (46) 
CCN(c1ccc(N2CCOCC2)c(C(=O)NCc2ccc(C)cc2)c1)S(=O)(=O)c1ccc(S(=O)(=O)N2CCCC2)cc1

>  <score_type>  (46) 
oracle

>  <origin>  (46) 
adgpu

>  <m_score__min__energy>  (46) 
-12.33

>  <m_primary>  (46) 
energy

$$$$
46:0
     RDKit          3D

 54 56  0  0  0  0  0  0  0  0999 V2000
   -6.4950   25.2890  -29.8690 C   0  0  0  0  0  0  0  0  0  0  0  0
   -6.3340   24.7580  -31.1800 O   0  0  0  0  0  0  0  0  0  0  0  0
   -6.7050   23.4590  -31.5630 C   0  0  0  0  0  0  0  0  0  0  0  0
   -8.0500   23.0440  -31.5900 C   0  0  0  0  0  0  0  0  0  0  0  0
   -8.3820   21.7450  -31.9770 C   0  0  0  0  0  0  0  0  0  0  0  0
   -7.3810   20.8310  -32.3450 C   0  0  0  0  0  0  0  0  0  0  0  0
   -7.7220   19.4910  -32.7460 N   0  0  0  0  0  0  0  0  0  0  0  0
   -8.8060   18.9790  -32.3970 O   0  0  0  0  0  0  0  0  0  0  0  0
   -6.8590   18.7510  -33.5220 O   0  0  0  0  0  0  0  0  0  0  0  0
   -6.0380   21.2460  -32.3180 C   0  0  0  0  0  0  0  0  0  0  0  0
   -5.6960   22.5570  -31.9290 C   0  0  0  0  0  0  0  0  0  0  0  0
   -4.3640   23.0000  -31.8930 O   0  0  0  0  0  0  0  0  0  0  0  0
   -3.5110   22.9100  -30.7550 C   0  0  0  0  0  0  0  0  0  0  0  0
   -3.5050   24.2200  -30.0240 C   0  0  0  0  0  0  0  0  0  0  0  0
   -3.5180   25.2920  -30.6850 O   0  0  0  0  0  0  0  0  0  0  0  0
   -3.4540   24.2910  -28.5930 N   0  0  0  0  0  0  0  0  0  0  0  0
   -2.2950   24.5620  -27.7930 C   0  0  0  0  0  0  0  0  0  0  0  0
   -1.4200   25.6200  -28.0980 C   0  0  0  0  0  0  0  0  0  0  0  0
   -0.2880   25.8460  -27.3110 C   0  0  0  0  0  0  0  0  0  0  0  0
   -0.0040   25.0080  -26.2250 C   0  0  0  0  0  0  0  0  0  0  0  0
    1.4140   25.3210  -25.2260 S   0  0  0  0  0  0  0  0  0  0  0  0
    2.3340   26.2410  -25.9810 O   0  0  0  0  0  0  0  0  0  0  0  0
    2.1390   24.0310  -24.9580 O   0  0  0  0  0  0  0  0  0  0  0  0
    0.9070   26.0660  -23.7230 N   0  0  0  0  0  0  0  0  0  0  0  0
    1.8060   27.1930  -23.3420 C   0  0  0  0  0  0  0  0  0  0  0  0
    1.1120   28.5660  -23.3020 C   0  0  0  0  0  0  0  0  0  0  0  0
    0.2220   28.7540  -24.5280 C   0  0  0  0  0  0  0  0  0  0  0  0
   -0.8320   27.6390  -24.6490 C   0  0  0  0  0  0  0  0  0  0  0  0
   -0.5300   26.4190  -23.7560 C   0  0  0  0  0  0  0  0  0  0  0  0
   -0.8620   23.9370  -25.9350 C   0  0  0  0  0  0  0  0  0  0  0  0
   -1.9950   23.7110  -26.7240 C   0  0  0  0  0  0  0  0  0  0  0  0
   -6.2593   24.5118  -29.1271 H   0  0  0  0  0  0  0  0  0  0  0  0
   -5.8155   26.1434  -29.7334 H   0  0  0  0  0  0  0  0  0  0  0  0
   -7.5345   25.6222  -29.7334 H   0  0  0  0  0  0  0  0  0  0  0  0
   -8.8448   23.7486  -31.3040 H   0  0  0  0  0  0  0  0  0  0  0  0
   -9.4370   21.4341  -31.9940 H   0  0  0  0  0  0  0  0  0  0  0  0
   -5.2449   20.5394  -32.6038 H   0  0  0  0  0  0  0  0  0  0  0  0
   -3.8777   22.1187  -30.0846 H   0  0  0  0  0  0  0  0  0  0  0  0
   -2.4888   22.6709  -31.0834 H   0  0  0  0  0  0  0  0  0  0  0  0
   -1.6277   26.2719  -28.9593 H   0  0  0  0  0  0  0  0  0  0  0  0
    0.3831   26.6855  -27.5451 H   0  0  0  0  0  0  0  0  0  0  0  0
    1.0100   25.3200  -22.9950 H   0  0  0  0  0  0  0  0  0  0  0  0
    2.2166   26.9845  -22.3430 H   0  0  0  0  0  0  0  0  0  0  0  0
    2.5837   27.2538  -24.1175 H   0  0  0  0  0  0  0  0  0  0  0  0
    0.4951   28.6329  -22.3937 H   0  0  0  0  0  0  0  0  0  0  0  0
    1.8813   29.3523  -23.2982 H   0  0  0  0  0  0  0  0  0  0  0  0
   -0.2928   29.7228  -24.4484 H   0  0  0  0  0  0  0  0  0  0  0  0
    0.8615   28.7168  -25.4222 H   0  0  0  0  0  0  0  0  0  0  0  0
   -1.8106   28.0500  -24.3603 H   0  0  0  0  0  0  0  0  0  0  0  0
   -0.8219   27.2911  -25.6925 H   0  0  0  0  0  0  0  0  0  0  0  0
   -0.8587   26.6454  -22.7309 H   0  0  0  0  0  0  0  0  0  0  0  0
   -1.0695   25.5596  -24.1808 H   0  0  0  0  0  0  0  0  0  0  0  0
   -0.6436   23.2733  -25.0854 H   0  0  0  0  0  0  0  0  0  0  0  0
   -2.6541   22.8587  -26.5024 H   0  0  0  0  0  0  0  0  0  0  0  0
  1  2  1  0
  2  3  1  0
  3  4  2  0
  4  5  1  0
  5  6  2  0
  6  7  1  0
  7  8  2  0
  7  9  1  0
  6 10  1  0
 10 11  2  0
 11 12  1  0
 12 13  1  0
 13 14  1  0
 14 15  2  0
 14 16  1  0
 16 17  1  0
 17 18  2  0
 18 19  1  0
 19 20  2  0
 20 21  1  0
 21 22  2  0
 21 23  2  0
 21 24  1  0
 24 25  1  0
 25 26  1  0
 26 27  1  0
 27 28  1  0
 28 29  1  0
 20 30  1  0
 30 31  2  0
 11  3  1  0
 31 17  1  0
 29 24  1  0
  1 32  1  0
  1 33  1  0
  1 34  1  0
  4 35  1  0
  5 36  1  0
 10 37  1  0
 13 38  1  0
 13 39  1  0
 18 40  1  0
 19 41  1  0
 24 42  1  0
 25 43  1  0
 25 44  1  0
 26 45  1  0
 26 46  1  0
 27 47  1  0
 27 48  1  0
 28 49  1  0
 28 50  1  0
 29 51  1  0
 29 52  1  0
 30 53  1  0
 31 54  1  0
M  CHG  4   7   1   9  -1  16  -1  24   1
M  END
>  <UniqueID>  (47) 
44

>  <SMILES>  (47) 
COc1ccc([N+](=O)[O-])cc1OCC(=O)[N-]c1ccc(S(=O)(=O)[NH+]2CCCCC2)cc1

>  <Energy>  (47) 
66.28866376032678

>  <Genealogy>  (47) 
COc1ccc([N+](=O)[O-])cc1OCC(=O)[N-]c1ccc(S(=O)(=O)[NH+]2CCCCC2)cc1 (protonated)
COc1ccc([N+](=O)[O-])cc1OCC(=O)[N-]c1ccc(S(=O)(=O)[NH+]2CCCCC2)cc1 (3D coordinates assigned)
COc1ccc([N+](=O)[O-])cc1OCC(=O)[N-]c1ccc(S(=O)(=O)[NH+]2CCCCC2)cc1 (nonaromatic ring conformer: 66.28866376032678 kcal/mol)

>  <smiles>  (47) 
COc1ccc([N+](=O)[O-])cc1OCC(=O)Nc1ccc(S(=O)(=O)N2CCCCC2)cc1

>  <score_type>  (47) 
oracle

>  <origin>  (47) 
adgpu

>  <m_score__min__energy>  (47) 
-10.9

>  <m_primary>  (47) 
energy

$$$$
47:0
     RDKit          3D

 45 47  0  0  0  0  0  0  0  0999 V2000
   -0.7610   25.5750  -27.9290 C   0  0  0  0  0  0  0  0  0  0  0  0
   -1.5990   26.0670  -28.9410 O   0  0  0  0  0  0  0  0  0  0  0  0
   -2.2860   24.9980  -29.4230 N   0  0  0  0  0  0  0  0  0  0  0  0
   -3.5210   24.5500  -28.8510 C   0  0  0  0  0  0  0  0  0  0  0  0
   -3.6040   24.4510  -27.5990 O   0  0  0  0  0  0  0  0  0  0  0  0
   -4.7010   24.2280  -29.6850 C   0  0  0  0  0  0  0  0  0  0  0  0
   -5.8110   25.0850  -29.6800 C   0  0  0  0  0  0  0  0  0  0  0  0
   -6.9280   24.8010  -30.4660 C   0  0  0  0  0  0  0  0  0  0  0  0
   -6.9700   23.6430  -31.2590 C   0  0  0  0  0  0  0  0  0  0  0  0
   -8.1880   23.3640  -32.0960 C   0  0  0  0  0  0  0  0  0  0  0  0
   -5.8660   22.7590  -31.2560 C   0  0  0  0  0  0  0  0  0  0  0  0
   -5.8690   21.5800  -32.0830 N   0  0  0  0  0  0  0  0  0  0  0  0
   -6.7950   20.4970  -31.9020 C   0  0  0  0  0  0  0  0  0  0  0  0
   -7.8660   20.6920  -31.2640 O   0  0  0  0  0  0  0  0  0  0  0  0
   -6.5320   19.1620  -32.4920 C   0  0  0  0  0  0  0  0  0  0  0  0
   -6.4200   18.0310  -31.6640 C   0  0  0  0  0  0  0  0  0  0  0  0
   -6.1670   16.7710  -32.2130 C   0  0  0  0  0  0  0  0  0  0  0  0
   -6.0360   16.6110  -33.5970 C   0  0  0  0  0  0  0  0  0  0  0  0
   -5.7420   15.3020  -34.1160 N   0  0  0  0  0  0  0  0  0  0  0  0
   -4.8580   14.4610  -33.6620 C   0  0  0  0  0  0  0  0  0  0  0  0
   -4.0180   14.7970  -32.6440 N   0  0  0  0  0  0  0  0  0  0  0  0
   -3.0810   13.9250  -32.1890 C   0  0  0  0  0  0  0  0  0  0  0  0
   -2.9650   12.6640  -32.7740 C   0  0  0  0  0  0  0  0  0  0  0  0
   -1.7630   11.5190  -32.2080 Cl  0  0  0  0  0  0  0  0  0  0  0  0
   -3.8240   12.3370  -33.8230 C   0  0  0  0  0  0  0  0  0  0  0  0
   -4.7480   13.2390  -34.2470 N   0  0  0  0  0  0  0  0  0  0  0  0
   -6.1030   17.7440  -34.4270 C   0  0  0  0  0  0  0  0  0  0  0  0
   -6.3570   19.0060  -33.8790 C   0  0  0  0  0  0  0  0  0  0  0  0
   -4.7410   23.0640  -30.4680 C   0  0  0  0  0  0  0  0  0  0  0  0
   -1.1871   25.8252  -26.9462 H   0  0  0  0  0  0  0  0  0  0  0  0
   -0.6742   24.4825  -28.0237 H   0  0  0  0  0  0  0  0  0  0  0  0
    0.2353   26.0316  -28.0237 H   0  0  0  0  0  0  0  0  0  0  0  0
   -5.8008   25.9878  -29.0517 H   0  0  0  0  0  0  0  0  0  0  0  0
   -7.7845   25.4912  -30.4645 H   0  0  0  0  0  0  0  0  0  0  0  0
   -9.0475   23.1671  -31.4384 H   0  0  0  0  0  0  0  0  0  0  0  0
   -8.4042   24.2359  -32.7309 H   0  0  0  0  0  0  0  0  0  0  0  0
   -8.0031   22.4849  -32.7309 H   0  0  0  0  0  0  0  0  0  0  0  0
   -5.2270   21.5470  -32.9060 H   0  0  0  0  0  0  0  0  0  0  0  0
   -6.5325   18.1389  -30.5751 H   0  0  0  0  0  0  0  0  0  0  0  0
   -6.0700   15.8975  -31.5515 H   0  0  0  0  0  0  0  0  0  0  0  0
   -2.4156   14.2125  -31.3616 H   0  0  0  0  0  0  0  0  0  0  0  0
   -3.7538   11.3513  -34.3061 H   0  0  0  0  0  0  0  0  0  0  0  0
   -5.9551   17.6377  -35.5118 H   0  0  0  0  0  0  0  0  0  0  0  0
   -6.4204   19.8840  -34.5386 H   0  0  0  0  0  0  0  0  0  0  0  0
   -3.8797   22.3797  -30.4656 H   0  0  0  0  0  0  0  0  0  0  0  0
  1  2  1  0
  2  3  1  0
  3  4  1  0
  4  5  2  0
  4  6  1  0
  6  7  2  0
  7  8  1  0
  8  9  2  0
  9 10  1  0
  9 11  1  0
 11 12  1  0
 12 13  1  0
 13 14  2  0
 13 15  1  0
 15 16  2  0
 16 17  1  0
 17 18  2  0
 18 19  1  0
 19 20  2  3
 20 21  1  0
 21 22  2  0
 22 23  1  0
 23 24  1  0
 23 25  2  0
 25 26  1  0
 18 27  1  0
 27 28  2  0
 11 29  2  0
 29  6  1  0
 28 15  1  0
 26 20  1  0
  1 30  1  0
  1 31  1  0
  1 32  1  0
  7 33  1  0
  8 34  1  0
 10 35  1  0
 10 36  1  0
 10 37  1  0
 12 38  1  0
 16 39  1  0
 17 40  1  0
 22 41  1  0
 25 42  1  0
 27 43  1  0
 28 44  1  0
 29 45  1  0
M  CHG  2   3  -1  26  -1
M  END
>  <UniqueID>  (48) 
45

>  <SMILES>  (48) 
CO[N-]C(=O)c1ccc(C)c(NC(=O)c2ccc(N=c3ncc(Cl)c[n-]3)cc2)c1

>  <Energy>  (48) 
63.10532442864068

>  <Genealogy>  (48) 
CO[N-]C(=O)c1ccc(C)c(NC(=O)c2ccc(N=c3ncc(Cl)c[n-]3)cc2)c1 (protonated)
CO[N-]C(=O)c1ccc(C)c(NC(=O)c2ccc(N=c3ncc(Cl)c[n-]3)cc2)c1 (3D coordinates assigned)
CO[N-]C(=O)c1ccc(C)c(NC(=O)c2ccc(N=c3ncc(Cl)c[n-]3)cc2)c1 (optimized conformer: 63.10532442864068 kcal/mol)

>  <smiles>  (48) 
CONC(=O)c1ccc(C)c(NC(=O)c2ccc(N=c3ncc(Cl)c[nH]3)cc2)c1

>  <score_type>  (48) 
oracle

>  <origin>  (48) 
adgpu

>  <m_score__min__energy>  (48) 
-10.359999999999999

>  <m_primary>  (48) 
energy

$$$$
48:0
     RDKit          3D

 53 56  0  0  0  0  0  0  0  0999 V2000
   -2.9610   15.7030  -33.1670 C   0  0  0  0  0  0  0  0  0  0  0  0
   -4.3500   15.1430  -32.8740 C   0  0  0  0  0  0  0  0  0  0  0  0
   -5.2980   16.2460  -32.3840 C   0  0  0  0  0  0  0  0  0  0  0  0
   -5.8050   17.1350  -33.5310 C   0  0  0  0  0  0  0  0  0  0  0  0
   -6.0720   18.5170  -33.0740 N   0  0  0  0  0  0  0  0  0  0  0  0
   -5.1930   19.5340  -33.3680 C   0  0  0  0  0  0  0  0  0  0  0  0
   -3.6190   19.2420  -34.1960 S   0  0  0  0  0  0  0  0  0  0  0  0
   -2.6990   19.5310  -32.6890 C   0  0  0  0  0  0  0  0  0  0  0  0
   -2.6800   20.6900  -31.9480 C   0  0  0  0  0  0  0  0  0  0  0  0
   -1.7870   20.4810  -30.9670 N   0  0  0  0  0  0  0  0  0  0  0  0
   -1.3060   21.4710  -30.0100 C   0  0  0  0  0  0  0  0  0  0  0  0
   -2.4410   22.3680  -29.6020 C   0  0  0  0  0  0  0  0  0  0  0  0
   -3.3700   21.9420  -28.6400 C   0  0  0  0  0  0  0  0  0  0  0  0
   -4.4690   22.7430  -28.3180 C   0  0  0  0  0  0  0  0  0  0  0  0
   -4.6540   23.9690  -28.9610 C   0  0  0  0  0  0  0  0  0  0  0  0
   -3.7410   24.3970  -29.9330 C   0  0  0  0  0  0  0  0  0  0  0  0
   -3.9200   25.6130  -30.5890 O   0  0  0  0  0  0  0  0  0  0  0  0
   -2.6400   23.5960  -30.2550 C   0  0  0  0  0  0  0  0  0  0  0  0
   -1.2820   19.2650  -31.1050 N   0  0  0  0  0  0  0  0  0  0  0  0
   -1.8280   18.6560  -32.1490 N   0  0  0  0  0  0  0  0  0  0  0  0
   -5.4730   20.8090  -32.9990 N   0  0  0  0  0  0  0  0  0  0  0  0
   -6.6010   21.1330  -32.3240 C   0  0  0  0  0  0  0  0  0  0  0  0
   -6.8500   22.4690  -31.9520 C   0  0  0  0  0  0  0  0  0  0  0  0
   -5.8700   23.5560  -32.2960 C   0  0  0  0  0  0  0  0  0  0  0  0
   -8.0290   22.7800  -31.2560 C   0  0  0  0  0  0  0  0  0  0  0  0
   -8.9450   21.7760  -30.9320 C   0  0  0  0  0  0  0  0  0  0  0  0
   -8.6960   20.4520  -31.2970 C   0  0  0  0  0  0  0  0  0  0  0  0
   -7.5200   20.1200  -31.9950 C   0  0  0  0  0  0  0  0  0  0  0  0
   -7.2310   18.8000  -32.3880 C   0  0  0  0  0  0  0  0  0  0  0  0
   -8.0510   17.8800  -32.1150 O   0  0  0  0  0  0  0  0  0  0  0  0
   -2.4426   15.9120  -32.2196 H   0  0  0  0  0  0  0  0  0  0  0  0
   -2.3838   14.9673  -33.7463 H   0  0  0  0  0  0  0  0  0  0  0  0
   -3.0554   16.6333  -33.7463 H   0  0  0  0  0  0  0  0  0  0  0  0
   -4.7598   14.6992  -33.7933 H   0  0  0  0  0  0  0  0  0  0  0  0
   -4.2608   14.3825  -32.0843 H   0  0  0  0  0  0  0  0  0  0  0  0
   -6.1627   15.7761  -31.8926 H   0  0  0  0  0  0  0  0  0  0  0  0
   -4.7367   16.8855  -31.6869 H   0  0  0  0  0  0  0  0  0  0  0  0
   -5.0435   17.1625  -34.3243 H   0  0  0  0  0  0  0  0  0  0  0  0
   -6.7477   16.7088  -33.9048 H   0  0  0  0  0  0  0  0  0  0  0  0
   -3.2734   21.5996  -32.1229 H   0  0  0  0  0  0  0  0  0  0  0  0
   -0.9065   20.9587  -29.1223 H   0  0  0  0  0  0  0  0  0  0  0  0
   -0.5118   22.0737  -30.4747 H   0  0  0  0  0  0  0  0  0  0  0  0
   -3.2324   20.9733  -28.1373 H   0  0  0  0  0  0  0  0  0  0  0  0
   -5.1892   22.4075  -27.5572 H   0  0  0  0  0  0  0  0  0  0  0  0
   -5.5180   24.5993  -28.7036 H   0  0  0  0  0  0  0  0  0  0  0  0
   -4.0830   25.6560  -31.5900 H   0  0  0  0  0  0  0  0  0  0  0  0
   -1.9267   23.9293  -31.0232 H   0  0  0  0  0  0  0  0  0  0  0  0
   -5.4721   23.9973  -31.3703 H   0  0  0  0  0  0  0  0  0  0  0  0
   -5.0434   23.1316  -32.8847 H   0  0  0  0  0  0  0  0  0  0  0  0
   -6.3775   24.3344  -32.8847 H   0  0  0  0  0  0  0  0  0  0  0  0
   -8.2328   23.8207  -30.9639 H   0  0  0  0  0  0  0  0  0  0  0  0
   -9.8661   22.0300  -30.3870 H   0  0  0  0  0  0  0  0  0  0  0  0
   -9.4209   19.6661  -31.0384 H   0  0  0  0  0  0  0  0  0  0  0  0
  1  2  1  0
  2  3  1  0
  3  4  1  0
  4  5  1  0
  5  6  1  0
  6  7  1  0
  7  8  1  0
  8  9  2  0
  9 10  1  0
 10 11  1  0
 11 12  1  0
 12 13  2  0
 13 14  1  0
 14 15  2  0
 15 16  1  0
 16 17  1  0
 16 18  2  0
 10 19  1  0
 19 20  2  0
  6 21  2  0
 21 22  1  0
 22 23  2  0
 23 24  1  0
 23 25  1  0
 25 26  2  0
 26 27  1  0
 27 28  2  0
 28 29  1  0
 29 30  2  0
 29  5  1  0
 20  8  1  0
 28 22  1  0
 18 12  1  0
  1 31  1  0
  1 32  1  0
  1 33  1  0
  2 34  1  0
  2 35  1  0
  3 36  1  0
  3 37  1  0
  4 38  1  0
  4 39  1  0
  9 40  1  0
 11 41  1  0
 11 42  1  0
 13 43  1  0
 14 44  1  0
 15 45  1  0
 17 46  1  0
 18 47  1  0
 24 48  1  0
 24 49  1  0
 24 50  1  0
 25 51  1  0
 26 52  1  0
 27 53  1  0
M  END
>  <UniqueID>  (49) 
46

>  <SMILES>  (49) 
CCCCn1c(Sc2cn(Cc3cccc(O)c3)nn2)nc2c(C)cccc2c1=O

>  <Energy>  (49) 
87.16420200921873

>  <Genealogy>  (49) 
CCCCn1c(Sc2cn(Cc3cccc(O)c3)nn2)nc2c(C)cccc2c1=O (3D coordinates assigned)
CCCCn1c(Sc2cn(Cc3cccc(O)c3)nn2)nc2c(C)cccc2c1=O (optimized conformer: 87.16420200921873 kcal/mol)

>  <smiles>  (49) 
CCCCn1c(Sc2cn(Cc3cccc(O)c3)nn2)nc2c(C)cccc2c1=O

>  <score_type>  (49) 
oracle

>  <origin>  (49) 
adgpu

>  <m_score__min__energy>  (49) 
-10.369999999999999

>  <m_primary>  (49) 
energy

$$$$
