0:0
     RDKit          3D

 59 62  0  0  0  0  0  0  0  0999 V2000
   -5.3310   26.0970  -30.3260 O   0  0  0  0  0  0  0  0  0  0  0  0
   -4.7690   24.9860  -30.5140 C   0  0  0  0  0  0  0  0  0  0  0  0
   -3.3410   24.8670  -30.4280 N   0  0  0  0  0  0  0  0  0  0  0  0
   -2.5460   24.2780  -29.3850 C   0  0  0  0  0  0  0  0  0  0  0  0
   -2.8130   22.9990  -28.8580 C   0  0  0  0  0  0  0  0  0  0  0  0
   -1.9920   22.4540  -27.8600 C   0  0  0  0  0  0  0  0  0  0  0  0
   -2.2600   20.8010  -27.2970 S   0  0  0  0  0  0  0  0  0  0  0  0
   -1.5680   20.6050  -25.9770 O   0  0  0  0  0  0  0  0  0  0  0  0
   -3.7320   20.5790  -27.0900 O   0  0  0  0  0  0  0  0  0  0  0  0
   -1.6490   19.6360  -28.4500 N   0  0  0  0  0  0  0  0  0  0  0  0
   -0.6440   18.7340  -27.8380 C   0  0  0  0  0  0  0  0  0  0  0  0
    0.7990   19.1120  -28.2010 C   0  0  0  0  0  0  0  0  0  0  0  0
    1.0120   19.0870  -29.7230 C   0  0  0  0  0  0  0  0  0  0  0  0
   -0.2630   19.4360  -30.5120 C   0  0  0  0  0  0  0  0  0  0  0  0
   -1.2020   20.3190  -29.6850 C   0  0  0  0  0  0  0  0  0  0  0  0
   -0.9340   23.2120  -27.3430 C   0  0  0  0  0  0  0  0  0  0  0  0
   -0.6870   24.4950  -27.8320 C   0  0  0  0  0  0  0  0  0  0  0  0
   -1.4840   25.0250  -28.8500 C   0  0  0  0  0  0  0  0  0  0  0  0
   -1.2130   26.3010  -29.3330 O   0  0  0  0  0  0  0  0  0  0  0  0
   -5.5920   23.7870  -30.7930 C   0  0  0  0  0  0  0  0  0  0  0  0
   -6.8450   23.6290  -30.1810 C   0  0  0  0  0  0  0  0  0  0  0  0
   -7.6360   22.5110  -30.4640 C   0  0  0  0  0  0  0  0  0  0  0  0
   -7.1750   21.5260  -31.3370 C   0  0  0  0  0  0  0  0  0  0  0  0
   -5.9220   21.6600  -31.9450 C   0  0  0  0  0  0  0  0  0  0  0  0
   -5.3390   20.4060  -33.0350 S   0  0  0  0  0  0  0  0  0  0  0  0
   -4.0400   20.8640  -33.6320 O   0  0  0  0  0  0  0  0  0  0  0  0
   -6.3380   20.1970  -34.1360 O   0  0  0  0  0  0  0  0  0  0  0  0
   -5.1040   18.9160  -32.1420 N   0  0  0  0  0  0  0  0  0  0  0  0
   -6.3690   18.4190  -31.5580 C   0  0  0  0  0  0  0  0  0  0  0  0
   -7.0060   17.2930  -32.3910 C   0  0  0  0  0  0  0  0  0  0  0  0
   -6.7440   17.4910  -33.7600 O   0  0  0  0  0  0  0  0  0  0  0  0
   -5.3680   17.2940  -34.0320 C   0  0  0  0  0  0  0  0  0  0  0  0
   -4.4280   17.8980  -32.9610 C   0  0  0  0  0  0  0  0  0  0  0  0
   -5.1340   22.7890  -31.6760 C   0  0  0  0  0  0  0  0  0  0  0  0
   -3.6723   22.4232  -29.2323 H   0  0  0  0  0  0  0  0  0  0  0  0
   -0.7535   18.7774  -26.7443 H   0  0  0  0  0  0  0  0  0  0  0  0
   -0.8279   17.7222  -28.2284 H   0  0  0  0  0  0  0  0  0  0  0  0
    1.0105   20.1240  -27.8253 H   0  0  0  0  0  0  0  0  0  0  0  0
    1.4781   18.3789  -27.7413 H   0  0  0  0  0  0  0  0  0  0  0  0
    1.7944   19.8162  -29.9800 H   0  0  0  0  0  0  0  0  0  0  0  0
    1.3010   18.0622  -29.9991 H   0  0  0  0  0  0  0  0  0  0  0  0
    0.0187   19.9729  -31.4298 H   0  0  0  0  0  0  0  0  0  0  0  0
   -0.7888   18.5010  -30.7554 H   0  0  0  0  0  0  0  0  0  0  0  0
   -0.6723   21.2429  -29.4097 H   0  0  0  0  0  0  0  0  0  0  0  0
   -2.0901   20.5409  -30.2950 H   0  0  0  0  0  0  0  0  0  0  0  0
   -0.2964   22.7949  -26.5496 H   0  0  0  0  0  0  0  0  0  0  0  0
    0.1378   25.0913  -27.4148 H   0  0  0  0  0  0  0  0  0  0  0  0
   -7.2074   24.3897  -29.4739 H   0  0  0  0  0  0  0  0  0  0  0  0
   -8.6261   22.4081  -29.9960 H   0  0  0  0  0  0  0  0  0  0  0  0
   -7.7967   20.6434  -31.5477 H   0  0  0  0  0  0  0  0  0  0  0  0
   -6.1635   18.0360  -30.5475 H   0  0  0  0  0  0  0  0  0  0  0  0
   -7.0784   19.2595  -31.5382 H   0  0  0  0  0  0  0  0  0  0  0  0
   -6.5851   16.3265  -32.0769 H   0  0  0  0  0  0  0  0  0  0  0  0
   -8.0941   17.2999  -32.2299 H   0  0  0  0  0  0  0  0  0  0  0  0
   -5.1773   16.2123  -34.0908 H   0  0  0  0  0  0  0  0  0  0  0  0
   -5.1507   17.8113  -34.9782 H   0  0  0  0  0  0  0  0  0  0  0  0
   -4.0750   17.0904  -32.3029 H   0  0  0  0  0  0  0  0  0  0  0  0
   -3.5896   18.3840  -33.4815 H   0  0  0  0  0  0  0  0  0  0  0  0
   -4.1511   22.8960  -32.1581 H   0  0  0  0  0  0  0  0  0  0  0  0
  1  2  2  0
  2  3  1  0
  3  4  1  0
  4  5  2  0
  5  6  1  0
  6  7  1  0
  7  8  2  0
  7  9  2  0
  7 10  1  0
 10 11  1  0
 11 12  1  0
 12 13  1  0
 13 14  1  0
 14 15  1  0
  6 16  2  0
 16 17  1  0
 17 18  2  0
 18 19  1  0
  2 20  1  0
 20 21  2  0
 21 22  1  0
 22 23  2  0
 23 24  1  0
 24 25  1  0
 25 26  2  0
 25 27  2  0
 25 28  1  0
 28 29  1  0
 29 30  1  0
 30 31  1  0
 31 32  1  0
 32 33  1  0
 24 34  2  0
 18  4  1  0
 34 20  1  0
 15 10  1  0
 33 28  1  0
  5 35  1  0
 11 36  1  0
 11 37  1  0
 12 38  1  0
 12 39  1  0
 13 40  1  0
 13 41  1  0
 14 42  1  0
 14 43  1  0
 15 44  1  0
 15 45  1  0
 16 46  1  0
 17 47  1  0
 21 48  1  0
 22 49  1  0
 23 50  1  0
 29 51  1  0
 29 52  1  0
 30 53  1  0
 30 54  1  0
 32 55  1  0
 32 56  1  0
 33 57  1  0
 33 58  1  0
 34 59  1  0
M  CHG  2   3  -1  19  -1
M  END
>  <UniqueID>  (1) 
1

>  <SMILES>  (1) 
O=C([N-]c1cc(S(=O)(=O)N2CCCCC2)ccc1[O-])c1cccc(S(=O)(=O)N2CCOCC2)c1

>  <Energy>  (1) 
81.69077323454941

>  <Genealogy>  (1) 
O=C([N-]c1cc(S(=O)(=O)N2CCCCC2)ccc1[O-])c1cccc(S(=O)(=O)N2CCOCC2)c1 (protonated)
O=C([N-]c1cc(S(=O)(=O)N2CCCCC2)ccc1[O-])c1cccc(S(=O)(=O)N2CCOCC2)c1 (3D coordinates assigned)
O=C([N-]c1cc(S(=O)(=O)N2CCCCC2)ccc1[O-])c1cccc(S(=O)(=O)N2CCOCC2)c1 (nonaromatic ring conformer: 81.69077323454941 kcal/mol)

>  <smiles>  (1) 
O=C(Nc1cc(S(=O)(=O)N2CCCCC2)ccc1O)c1cccc(S(=O)(=O)N2CCOCC2)c1

>  <score_type>  (1) 
oracle

>  <origin>  (1) 
adgpu

>  <m_score__min__energy>  (1) 
-15.49

>  <m_primary>  (1) 
energy

$$$$
1:0
     RDKit          3D

 60 61  0  0  1  0  0  0  0  0999 V2000
   -6.0380   24.5620  -30.4750 C   0  0  0  0  0  0  0  0  0  0  0  0
   -6.0210   23.0760  -30.2720 C   0  0  0  0  0  0  0  0  0  0  0  0
   -5.9470   22.4120  -31.5590 N   0  0  0  0  0  0  0  0  0  0  0  0
   -4.6780   22.6020  -32.2190 C   0  0  0  0  0  0  0  0  0  0  0  0
   -4.2810   21.2380  -32.7180 C   0  0  0  0  0  0  0  0  0  0  0  0
   -2.9450   20.8860  -32.5230 C   0  0  0  0  0  0  0  0  0  0  0  0
   -2.5370   19.6450  -32.9460 C   0  0  0  0  0  0  0  0  0  0  0  0
   -1.2030   19.1640  -32.8090 N   0  0  0  0  0  0  0  0  0  0  0  0
   -0.2390   19.8080  -33.3560 C   0  0  0  0  0  0  0  0  0  0  0  0
    1.0630   19.3770  -33.2480 C   0  0  0  0  0  0  0  0  0  0  0  0
    2.0670   20.1270  -33.8670 C   0  0  0  0  0  0  0  0  0  0  0  0
    3.4960   19.6830  -33.7710 C   0  0  0  0  0  0  0  0  0  0  0  0
    1.7690   21.2360  -34.5460 N   0  0  0  0  0  0  0  0  0  0  0  0
    0.4780   21.6320  -34.6330 C   0  0  0  0  0  0  0  0  0  0  0  0
    0.2170   22.6990  -35.2890 N   0  0  0  0  0  0  0  0  0  0  0  0
    1.1580   23.5400  -35.9590 C   0  0  1  0  0  0  0  0  0  0  0  0
    2.1220   22.8770  -36.7770 N   0  0  0  0  0  0  0  0  0  0  0  0
    0.3670   24.9460  -36.8110 S   0  0  0  0  0  0  0  0  0  0  0  0
   -0.5170   20.9290  -34.0460 N   0  0  0  0  0  0  0  0  0  0  0  0
   -3.4490   18.8080  -33.5380 C   0  0  0  0  0  0  0  0  0  0  0  0
   -4.7840   19.1640  -33.7330 C   0  0  0  0  0  0  0  0  0  0  0  0
   -5.6660   18.1660  -34.4200 C   0  0  0  0  0  0  0  0  0  0  0  0
   -6.9550   18.0750  -33.8420 N   0  0  0  0  0  0  0  0  0  0  0  0
   -7.0820   17.4560  -32.5690 C   0  0  0  0  0  0  0  0  0  0  0  0
   -7.9510   18.1950  -31.6060 C   0  0  0  0  0  0  0  0  0  0  0  0
   -9.0880   19.3460  -32.4030 S   0  0  0  0  0  0  0  0  0  0  0  0
   -8.9400   20.9580  -31.5840 C   0  0  0  0  0  0  0  0  0  0  0  0
   -5.1870   20.3880  -33.3150 C   0  0  0  0  0  0  0  0  0  0  0  0
   -6.5100   20.7650  -33.4970 O   0  0  0  0  0  0  0  0  0  0  0  0
   -6.0438   25.0656  -29.4971 H   0  0  0  0  0  0  0  0  0  0  0  0
   -5.1433   24.8654  -31.0384 H   0  0  0  0  0  0  0  0  0  0  0  0
   -6.9394   24.8448  -31.0384 H   0  0  0  0  0  0  0  0  0  0  0  0
   -5.1459   22.7989  -29.6659 H   0  0  0  0  0  0  0  0  0  0  0  0
   -6.9401   22.7668  -29.7528 H   0  0  0  0  0  0  0  0  0  0  0  0
   -6.0830   21.3690  -31.4600 H   0  0  0  0  0  0  0  0  0  0  0  0
   -4.7821   23.3043  -33.0592 H   0  0  0  0  0  0  0  0  0  0  0  0
   -3.9228   23.0263  -31.5410 H   0  0  0  0  0  0  0  0  0  0  0  0
   -2.2398   21.5817  -32.0448 H   0  0  0  0  0  0  0  0  0  0  0  0
    1.3083   18.4630  -32.6873 H   0  0  0  0  0  0  0  0  0  0  0  0
    3.7820   19.5941  -32.7126 H   0  0  0  0  0  0  0  0  0  0  0  0
    3.6106   18.7069  -34.2650 H   0  0  0  0  0  0  0  0  0  0  0  0
    4.1436   20.4223  -34.2650 H   0  0  0  0  0  0  0  0  0  0  0  0
    2.5100   21.8240  -35.0260 H   0  0  0  0  0  0  0  0  0  0  0  0
    1.7603   23.9479  -35.1339 H   0  0  0  0  0  0  0  0  0  0  0  0
    1.7850   21.9820  -37.2230 H   0  0  0  0  0  0  0  0  0  0  0  0
    2.5100   23.4450  -37.5680 H   0  0  0  0  0  0  0  0  0  0  0  0
   -1.0360   24.7310  -36.8310 H   0  0  0  0  0  0  0  0  0  0  0  0
   -1.4970   21.2690  -34.1350 H   0  0  0  0  0  0  0  0  0  0  0  0
   -3.1138   17.8152  -33.8727 H   0  0  0  0  0  0  0  0  0  0  0  0
   -5.7748   18.4616  -35.4739 H   0  0  0  0  0  0  0  0  0  0  0  0
   -5.1892   17.1801  -34.3165 H   0  0  0  0  0  0  0  0  0  0  0  0
   -7.5560   18.8850  -34.0230 H   0  0  0  0  0  0  0  0  0  0  0  0
   -7.5077   16.4524  -32.7158 H   0  0  0  0  0  0  0  0  0  0  0  0
   -6.0741   17.4352  -32.1289 H   0  0  0  0  0  0  0  0  0  0  0  0
   -8.5402   17.4622  -31.0351 H   0  0  0  0  0  0  0  0  0  0  0  0
   -7.2875   18.7893  -30.9606 H   0  0  0  0  0  0  0  0  0  0  0  0
   -8.9529   20.8176  -30.4931 H   0  0  0  0  0  0  0  0  0  0  0  0
   -7.9943   21.4348  -31.8812 H   0  0  0  0  0  0  0  0  0  0  0  0
   -9.7831   21.5990  -31.8812 H   0  0  0  0  0  0  0  0  0  0  0  0
   -7.1870   20.2310  -33.9970 H   0  0  0  0  0  0  0  0  0  0  0  0
  1  2  1  0
  2  3  1  0
  3  4  1  0
  4  5  1  0
  5  6  2  0
  6  7  1  0
  7  8  1  0
  8  9  2  0
  9 10  1  0
 10 11  2  0
 11 12  1  0
 11 13  1  0
 13 14  1  0
 14 15  2  0
 15 16  1  0
 16 17  1  0
 16 18  1  0
 14 19  1  0
  7 20  2  0
 20 21  1  0
 21 22  1  0
 22 23  1  0
 23 24  1  0
 24 25  1  0
 25 26  1  0
 26 27  1  0
 21 28  2  0
 28 29  1  0
 28  5  1  0
 19  9  1  0
  1 30  1  0
  1 31  1  0
  1 32  1  0
  2 33  1  0
  2 34  1  0
  3 35  1  0
  4 36  1  0
  4 37  1  0
  6 38  1  0
 10 39  1  0
 12 40  1  0
 12 41  1  0
 12 42  1  0
 13 43  1  0
 16 44  1  1
 17 45  1  0
 17 46  1  0
 18 47  1  0
 19 48  1  0
 20 49  1  0
 22 50  1  0
 22 51  1  0
 23 52  1  0
 24 53  1  0
 24 54  1  0
 25 55  1  0
 25 56  1  0
 27 57  1  0
 27 58  1  0
 27 59  1  0
 29 60  1  0
M  END
>  <smiles>  (2) 
CCNCc1cc(N=c2cc(C)[nH]c(=NC(N)S)[nH]2)cc(CNCCSC)c1O

>  <score_type>  (2) 
oracle

>  <origin>  (2) 
adgpu

>  <m_score__min__energy>  (2) 
-8.0500000000000007

>  <m_primary>  (2) 
energy

$$$$
2:0
     RDKit          3D

 55 59  0  0  0  0  0  0  0  0999 V2000
   -1.0570   21.1479  -32.4857 H   0  0  0  0  0  0  0  0  0  0  0  0
   -1.2700   21.7060  -31.5620 C   0  0  0  0  0  0  0  0  0  0  0  0
   -1.8728   22.6252  -31.6014 H   0  0  0  0  0  0  0  0  0  0  0  0
   -0.7940   21.2650  -30.3860 C   0  0  0  0  0  0  0  0  0  0  0  0
   -0.9710   21.8520  -29.1230 C   0  0  0  0  0  0  0  0  0  0  0  0
   -1.7880   22.8460  -28.7180 C   0  0  0  0  0  0  0  0  0  0  0  0
   -1.6061   23.2757  -27.7219 H   0  0  0  0  0  0  0  0  0  0  0  0
   -2.9070   23.4040  -29.5040 C   0  0  0  0  0  0  0  0  0  0  0  0
   -2.9740   24.7780  -29.7500 C   0  0  0  0  0  0  0  0  0  0  0  0
   -1.9800   25.6320  -29.2840 O   0  0  0  0  0  0  0  0  0  0  0  0
   -4.0110   25.2880  -30.4580 N   0  0  0  0  0  0  0  0  0  0  0  0
   -5.0050   24.4940  -30.9320 C   0  0  0  0  0  0  0  0  0  0  0  0
   -5.9470   25.0190  -31.5840 O   0  0  0  0  0  0  0  0  0  0  0  0
   -4.9870   23.1460  -30.6890 N   0  0  0  0  0  0  0  0  0  0  0  0
   -6.0430   22.3060  -31.1980 C   0  0  0  0  0  0  0  0  0  0  0  0
   -7.3470   22.4360  -30.7060 C   0  0  0  0  0  0  0  0  0  0  0  0
   -7.5678   23.1845  -29.9307 H   0  0  0  0  0  0  0  0  0  0  0  0
   -8.3680   21.6200  -31.1950 C   0  0  0  0  0  0  0  0  0  0  0  0
   -9.3891   21.7305  -30.8011 H   0  0  0  0  0  0  0  0  0  0  0  0
   -8.1050   20.6590  -32.1850 C   0  0  0  0  0  0  0  0  0  0  0  0
   -9.2270   19.7870  -32.6840 C   0  0  0  0  0  0  0  0  0  0  0  0
   -9.7715   19.3639  -31.8270 H   0  0  0  0  0  0  0  0  0  0  0  0
   -9.9157   20.3893  -33.2947 H   0  0  0  0  0  0  0  0  0  0  0  0
   -8.8134   18.9710  -33.2947 H   0  0  0  0  0  0  0  0  0  0  0  0
   -6.7840   20.5100  -32.6750 C   0  0  0  0  0  0  0  0  0  0  0  0
   -6.4510   19.4890  -33.7300 C   0  0  0  0  0  0  0  0  0  0  0  0
   -6.1445   18.5494  -33.2471 H   0  0  0  0  0  0  0  0  0  0  0  0
   -7.3365   19.3073  -34.3569 H   0  0  0  0  0  0  0  0  0  0  0  0
   -5.6287   19.8643  -34.3569 H   0  0  0  0  0  0  0  0  0  0  0  0
   -5.7660   21.3460  -32.1810 C   0  0  0  0  0  0  0  0  0  0  0  0
   -4.7421   21.2452  -32.5702 H   0  0  0  0  0  0  0  0  0  0  0  0
   -3.9600   22.5940  -29.9670 C   0  0  0  0  0  0  0  0  0  0  0  0
   -3.9490   21.3550  -29.7220 O   0  0  0  0  0  0  0  0  0  0  0  0
   -0.1260   21.1770  -28.2580 C   0  0  0  0  0  0  0  0  0  0  0  0
    0.0351   21.3987  -27.1927 H   0  0  0  0  0  0  0  0  0  0  0  0
    0.4750   20.1730  -28.9890 C   0  0  0  0  0  0  0  0  0  0  0  0
    1.4420   19.1770  -28.4250 C   0  0  0  0  0  0  0  0  0  0  0  0
    1.4067   19.2134  -27.3262 H   0  0  0  0  0  0  0  0  0  0  0  0
    1.1702   18.1676  -28.7674 H   0  0  0  0  0  0  0  0  0  0  0  0
    2.4590   19.4189  -28.7674 H   0  0  0  0  0  0  0  0  0  0  0  0
    0.0720   20.2250  -30.2780 N   0  0  0  0  0  0  0  0  0  0  0  0
    0.4820   19.3280  -31.3240 C   0  0  0  0  0  0  0  0  0  0  0  0
    1.7730   18.9220  -31.6250 C   0  0  0  0  0  0  0  0  0  0  0  0
    2.9170   19.3500  -30.9640 O   0  0  0  0  0  0  0  0  0  0  0  0
    1.7980   18.0610  -32.6700 N   0  0  0  0  0  0  0  0  0  0  0  0
    0.5020   17.9300  -33.0200 C   0  0  0  0  0  0  0  0  0  0  0  0
   -0.0040   17.1360  -34.0490 C   0  0  0  0  0  0  0  0  0  0  0  0
    0.6654   16.5373  -34.6842 H   0  0  0  0  0  0  0  0  0  0  0  0
   -1.3970   17.1240  -34.2500 C   0  0  0  0  0  0  0  0  0  0  0  0
   -1.8273   16.5101  -35.0550 H   0  0  0  0  0  0  0  0  0  0  0  0
   -2.2470   17.8950  -33.4250 C   0  0  0  0  0  0  0  0  0  0  0  0
   -3.3342   17.8761  -33.5914 H   0  0  0  0  0  0  0  0  0  0  0  0
   -1.7120   18.6860  -32.3930 C   0  0  0  0  0  0  0  0  0  0  0  0
   -2.3628   19.2862  -31.7402 H   0  0  0  0  0  0  0  0  0  0  0  0
   -0.3280   18.6830  -32.2260 C   0  0  0  0  0  0  0  0  0  0  0  0
  1  2  1  0
  2  3  1  0
  2  4  2  0
  4  5  1  0
  5  6  2  0
  6  7  1  0
  6  8  1  0
  8  9  2  0
  9 10  1  0
  9 11  1  0
 11 12  1  0
 12 13  2  0
 12 14  1  0
 14 15  1  0
 15 16  2  0
 16 17  1  0
 16 18  1  0
 18 19  1  0
 18 20  2  0
 20 21  1  0
 21 22  1  0
 21 23  1  0
 21 24  1  0
 20 25  1  0
 25 26  1  0
 26 27  1  0
 26 28  1  0
 26 29  1  0
 25 30  2  0
 30 31  1  0
 14 32  1  0
 32 33  2  0
  5 34  1  0
 34 35  1  0
 34 36  2  0
 36 37  1  0
 37 38  1  0
 37 39  1  0
 37 40  1  0
 36 41  1  0
 41 42  1  0
 42 43  2  0
 43 44  1  0
 43 45  1  0
 45 46  1  0
 46 47  2  0
 47 48  1  0
 47 49  1  0
 49 50  1  0
 49 51  2  0
 51 52  1  0
 51 53  1  0
 53 54  1  0
 53 55  2  0
 41  4  1  0
 55 42  1  0
 32  8  1  0
 55 46  1  0
 30 15  1  0
M  CHG  4  10  -1  11  -1  44  -1  45  -1
M  END
>  <UniqueID>  (3) 
2

>  <SMILES>  (3) 
C=c1/c(=C\c2c([O-])[n-]c(=O)n(-c3ccc(C)c(C)c3)c2=O)cc(C)n1-c1c([O-])[n-]c2ccccc12

>  <Energy>  (3) 
153.2227607223314

>  <Genealogy>  (3) 
C=c1c(=Cc2c([O-])[n-]c(=O)n(-c3ccc(C)c(C)c3)c2=O)cc(C)n1-c1c([O-])[n-]c2ccccc12 (protonated)
C=c1/c(=C\c2c([O-])[n-]c(=O)n(-c3ccc(C)c(C)c3)c2=O)cc(C)n1-c1c([O-])[n-]c2ccccc12 (cis-trans isomerization)
C=c1/c(=C\c2c([O-])[n-]c(=O)n(-c3ccc(C)c(C)c3)c2=O)cc(C)n1-c1c([O-])[n-]c2ccccc12 (3D coordinates assigned)
C=c1/c(=C\c2c([O-])[n-]c(=O)n(-c3ccc(C)c(C)c3)c2=O)cc(C)n1-c1c([O-])[n-]c2ccccc12 (optimized conformer: 153.2227607223314 kcal/mol)

>  <smiles>  (3) 
C=c1c(=Cc2c(O)[nH]c(=O)n(-c3ccc(C)c(C)c3)c2=O)cc(C)n1-c1c(O)[nH]c2ccccc12

>  <score_type>  (3) 
oracle

>  <origin>  (3) 
adgpu

>  <m_score__min__energy>  (3) 
-14.140000000000001

>  <m_primary>  (3) 
energy

$$$$
3:0
     RDKit          3D

 47 50  0  0  0  0  0  0  0  0999 V2000
   -6.8960   17.2310  -33.4240 C   0  0  0  0  0  0  0  0  0  0  0  0
   -7.0840   18.2580  -32.3930 N   0  0  0  0  0  0  0  0  0  0  0  0
   -8.4800   18.2630  -31.9360 C   0  0  0  0  0  0  0  0  0  0  0  0
   -6.6870   19.8250  -33.0500 S   0  0  0  0  0  0  0  0  0  0  0  0
   -6.1620   19.6810  -34.4520 O   0  0  0  0  0  0  0  0  0  0  0  0
   -7.9160   20.6900  -33.0850 O   0  0  0  0  0  0  0  0  0  0  0  0
   -5.4790   20.6080  -32.0330 C   0  0  0  0  0  0  0  0  0  0  0  0
   -4.3070   19.9350  -31.6660 C   0  0  0  0  0  0  0  0  0  0  0  0
   -3.3650   20.5610  -30.8440 C   0  0  0  0  0  0  0  0  0  0  0  0
   -3.5840   21.8660  -30.3740 C   0  0  0  0  0  0  0  0  0  0  0  0
   -4.7590   22.5340  -30.7420 C   0  0  0  0  0  0  0  0  0  0  0  0
   -5.7030   21.9090  -31.5660 C   0  0  0  0  0  0  0  0  0  0  0  0
   -5.0280   24.1550  -30.1750 S   0  0  0  0  0  0  0  0  0  0  0  0
   -5.0260   25.1090  -31.3360 O   0  0  0  0  0  0  0  0  0  0  0  0
   -6.3380   24.2250  -29.4440 O   0  0  0  0  0  0  0  0  0  0  0  0
   -3.7460   24.5580  -29.0940 N   0  0  0  0  0  0  0  0  0  0  0  0
   -2.7310   23.7690  -28.8730 C   0  0  0  0  0  0  0  0  0  0  0  0
   -1.6660   24.2000  -27.9340 C   0  0  0  0  0  0  0  0  0  0  0  0
   -1.1610   23.2920  -26.9910 C   0  0  0  0  0  0  0  0  0  0  0  0
   -0.1680   23.6850  -26.0960 C   0  0  0  0  0  0  0  0  0  0  0  0
    0.3320   24.9870  -26.1280 C   0  0  0  0  0  0  0  0  0  0  0  0
   -0.1540   25.9190  -27.0630 C   0  0  0  0  0  0  0  0  0  0  0  0
    0.3890   27.3000  -27.0670 C   0  0  0  0  0  0  0  0  0  0  0  0
   -0.3500   28.4730  -27.2190 C   0  0  0  0  0  0  0  0  0  0  0  0
    0.4340   29.6330  -27.2200 C   0  0  0  0  0  0  0  0  0  0  0  0
    1.7920   29.3910  -27.0780 C   0  0  0  0  0  0  0  0  0  0  0  0
    2.0150   27.7310  -26.9510 S   0  0  0  0  0  0  0  0  0  0  0  0
   -1.1510   25.5130  -27.9790 C   0  0  0  0  0  0  0  0  0  0  0  0
   -1.6000   26.3910  -28.9610 O   0  0  0  0  0  0  0  0  0  0  0  0
   -2.5980   22.4890  -29.5310 N   0  0  0  0  0  0  0  0  0  0  0  0
   -6.7178   16.2576  -32.9437 H   0  0  0  0  0  0  0  0  0  0  0  0
   -7.7981   17.1710  -34.0506 H   0  0  0  0  0  0  0  0  0  0  0  0
   -6.0312   17.4945  -34.0506 H   0  0  0  0  0  0  0  0  0  0  0  0
   -8.5058   18.2631  -30.8363 H   0  0  0  0  0  0  0  0  0  0  0  0
   -8.9866   19.1630  -32.3147 H   0  0  0  0  0  0  0  0  0  0  0  0
   -8.9930   17.3667  -32.3147 H   0  0  0  0  0  0  0  0  0  0  0  0
   -4.1270   18.9111  -32.0254 H   0  0  0  0  0  0  0  0  0  0  0  0
   -2.4452   20.0271  -30.5633 H   0  0  0  0  0  0  0  0  0  0  0  0
   -6.6234   22.4417  -31.8473 H   0  0  0  0  0  0  0  0  0  0  0  0
   -3.8230   25.4720  -28.5930 H   0  0  0  0  0  0  0  0  0  0  0  0
   -1.5512   22.2641  -26.9581 H   0  0  0  0  0  0  0  0  0  0  0  0
    0.2232   22.9658  -25.3613 H   0  0  0  0  0  0  0  0  0  0  0  0
    1.1139   25.2878  -25.4152 H   0  0  0  0  0  0  0  0  0  0  0  0
   -1.4445   28.4856  -27.3277 H   0  0  0  0  0  0  0  0  0  0  0  0
    0.0116   30.6433  -27.3239 H   0  0  0  0  0  0  0  0  0  0  0  0
    2.5848   30.1531  -27.0529 H   0  0  0  0  0  0  0  0  0  0  0  0
   -1.7050   21.9670  -29.3770 H   0  0  0  0  0  0  0  0  0  0  0  0
  1  2  1  0
  2  3  1  0
  2  4  1  0
  4  5  2  0
  4  6  2  0
  4  7  1  0
  7  8  2  0
  8  9  1  0
  9 10  2  0
 10 11  1  0
 11 12  2  0
 11 13  1  0
 13 14  2  0
 13 15  2  0
 13 16  1  0
 16 17  2  0
 17 18  1  0
 18 19  2  0
 19 20  1  0
 20 21  2  0
 21 22  1  0
 22 23  1  0
 23 24  2  0
 24 25  1  0
 25 26  2  0
 26 27  1  0
 22 28  2  0
 28 29  1  0
 17 30  1  0
 12  7  1  0
 28 18  1  0
 30 10  1  0
 27 23  1  0
  1 31  1  0
  1 32  1  0
  1 33  1  0
  3 34  1  0
  3 35  1  0
  3 36  1  0
  8 37  1  0
  9 38  1  0
 12 39  1  0
 16 40  1  0
 19 41  1  0
 20 42  1  0
 21 43  1  0
 24 44  1  0
 25 45  1  0
 26 46  1  0
 30 47  1  0
M  CHG  2  16   1  29  -1
M  END
>  <UniqueID>  (4) 
3

>  <SMILES>  (4) 
CN(C)S(=O)(=O)c1ccc2c(c1)S(=O)(=O)[NH+]=C(c1cccc(-c3cccs3)c1[O-])N2

>  <Energy>  (4) 
90.08129948803354

>  <Genealogy>  (4) 
CN(C)S(=O)(=O)c1ccc2c(c1)S(=O)(=O)[NH+]=C(c1cccc(-c3cccs3)c1[O-])N2 (protonated)
CN(C)S(=O)(=O)c1ccc2c(c1)S(=O)(=O)[NH+]=C(c1cccc(-c3cccs3)c1[O-])N2 (3D coordinates assigned)
CN(C)S(=O)(=O)c1ccc2c(c1)S(=O)(=O)[NH+]=C(c1cccc(-c3cccs3)c1[O-])N2 (nonaromatic ring conformer: 90.08129948803354 kcal/mol)

>  <smiles>  (4) 
CN(C)S(=O)(=O)c1ccc2c(c1)S(=O)(=O)N=C(c1cccc(-c3cccs3)c1O)N2

>  <score_type>  (4) 
oracle

>  <origin>  (4) 
adgpu

>  <m_score__min__energy>  (4) 
-11.449999999999999

>  <m_primary>  (4) 
energy

$$$$
4:0
     RDKit          3D

 65 68  0  0  0  0  0  0  0  0999 V2000
   -6.2700   24.1080  -31.9470 C   0  0  0  0  0  0  0  0  0  0  0  0
   -5.0120   23.8490  -31.2290 N   0  0  0  0  0  0  0  0  0  0  0  0
   -4.9280   22.4290  -30.8400 C   0  0  0  0  0  0  0  0  0  0  0  0
   -3.5330   22.0950  -30.2770 C   0  0  0  0  0  0  0  0  0  0  0  0
   -2.7840   23.3500  -29.7760 C   0  0  0  0  0  0  0  0  0  0  0  0
   -1.4170   22.8960  -28.6910 S   0  0  0  0  0  0  0  0  0  0  0  0
   -0.3290   23.9150  -28.8790 O   0  0  0  0  0  0  0  0  0  0  0  0
   -1.8480   23.0000  -27.2550 O   0  0  0  0  0  0  0  0  0  0  0  0
   -0.8170   21.2430  -29.0490 C   0  0  0  0  0  0  0  0  0  0  0  0
   -1.0040   20.1840  -28.1190 C   0  0  0  0  0  0  0  0  0  0  0  0
   -1.8150   20.3720  -26.5690 Cl  0  0  0  0  0  0  0  0  0  0  0  0
   -0.5010   18.9080  -28.3920 C   0  0  0  0  0  0  0  0  0  0  0  0
    0.2480   18.6670  -29.5370 C   0  0  0  0  0  0  0  0  0  0  0  0
    0.7760   17.4340  -29.7450 F   0  0  0  0  0  0  0  0  0  0  0  0
    0.5050   19.7020  -30.4340 C   0  0  0  0  0  0  0  0  0  0  0  0
    1.3940   19.4680  -31.5350 N   0  0  0  0  0  0  0  0  0  0  0  0
    0.9470   19.4960  -32.8940 C   0  0  0  0  0  0  0  0  0  0  0  0
    1.4650   18.7180  -33.7430 O   0  0  0  0  0  0  0  0  0  0  0  0
   -0.0500   20.4400  -33.2950 N   0  0  0  0  0  0  0  0  0  0  0  0
   -1.4320   20.1010  -33.4640 C   0  0  0  0  0  0  0  0  0  0  0  0
   -1.7850   18.7700  -33.7230 C   0  0  0  0  0  0  0  0  0  0  0  0
   -3.1310   18.3940  -33.7700 C   0  0  0  0  0  0  0  0  0  0  0  0
   -4.1380   19.3530  -33.5820 C   0  0  0  0  0  0  0  0  0  0  0  0
   -5.8350   18.8700  -33.5530 S   0  0  0  0  0  0  0  0  0  0  0  0
   -5.9060   17.3690  -33.4800 O   0  0  0  0  0  0  0  0  0  0  0  0
   -6.4890   19.2980  -34.8380 O   0  0  0  0  0  0  0  0  0  0  0  0
   -6.7060   19.5550  -32.1950 N   0  0  0  0  0  0  0  0  0  0  0  0
   -7.2660   20.8980  -32.4730 C   0  0  0  0  0  0  0  0  0  0  0  0
   -8.7910   20.9690  -32.2920 C   0  0  0  0  0  0  0  0  0  0  0  0
   -9.4340   19.8020  -32.8990 N   0  0  0  0  0  0  0  0  0  0  0  0
   -9.0320   18.5460  -32.2350 C   0  0  0  0  0  0  0  0  0  0  0  0
   -7.6390   18.6010  -31.5610 C   0  0  0  0  0  0  0  0  0  0  0  0
   -3.7860   20.6990  -33.4070 C   0  0  0  0  0  0  0  0  0  0  0  0
   -2.4400   21.0700  -33.3360 C   0  0  0  0  0  0  0  0  0  0  0  0
   -0.0790   20.9700  -30.2370 C   0  0  0  0  0  0  0  0  0  0  0  0
    0.0980   21.9140  -31.2550 O   0  0  0  0  0  0  0  0  0  0  0  0
   -3.7620   24.3200  -29.0960 C   0  0  0  0  0  0  0  0  0  0  0  0
   -4.9170   24.7260  -30.0380 C   0  0  0  0  0  0  0  0  0  0  0  0
   -7.0791   24.2746  -31.2207 H   0  0  0  0  0  0  0  0  0  0  0  0
   -6.1545   25.0012  -32.5785 H   0  0  0  0  0  0  0  0  0  0  0  0
   -6.5168   23.2418  -32.5785 H   0  0  0  0  0  0  0  0  0  0  0  0
   -5.6862   22.2208  -30.0707 H   0  0  0  0  0  0  0  0  0  0  0  0
   -5.1050   21.8092  -31.7314 H   0  0  0  0  0  0  0  0  0  0  0  0
   -3.6496   21.3944  -29.4370 H   0  0  0  0  0  0  0  0  0  0  0  0
   -2.9398   21.6531  -31.0912 H   0  0  0  0  0  0  0  0  0  0  0  0
   -2.3472   23.8699  -30.6414 H   0  0  0  0  0  0  0  0  0  0  0  0
   -0.7010   18.0843  -27.6909 H   0  0  0  0  0  0  0  0  0  0  0  0
   -1.0000   18.0177  -33.8901 H   0  0  0  0  0  0  0  0  0  0  0  0
   -3.4011   17.3438  -33.9548 H   0  0  0  0  0  0  0  0  0  0  0  0
   -6.7988   21.6201  -31.7873 H   0  0  0  0  0  0  0  0  0  0  0  0
   -7.0513   21.1293  -33.5268 H   0  0  0  0  0  0  0  0  0  0  0  0
   -9.0273   20.9948  -31.2180 H   0  0  0  0  0  0  0  0  0  0  0  0
   -9.1659   21.8783  -32.7846 H   0  0  0  0  0  0  0  0  0  0  0  0
   -9.1580   19.7600  -33.9110 H   0  0  0  0  0  0  0  0  0  0  0  0
   -9.7793   18.3094  -31.4633 H   0  0  0  0  0  0  0  0  0  0  0  0
   -8.9725   17.7785  -33.0208 H   0  0  0  0  0  0  0  0  0  0  0  0
   -7.7740   18.8950  -30.5096 H   0  0  0  0  0  0  0  0  0  0  0  0
   -7.1935   17.6007  -31.6652 H   0  0  0  0  0  0  0  0  0  0  0  0
   -4.5711   21.4651  -33.3254 H   0  0  0  0  0  0  0  0  0  0  0  0
   -2.1697   22.1247  -33.1793 H   0  0  0  0  0  0  0  0  0  0  0  0
    0.3670   21.7070  -32.1990 H   0  0  0  0  0  0  0  0  0  0  0  0
   -4.1842   23.8330  -28.2046 H   0  0  0  0  0  0  0  0  0  0  0  0
   -3.2069   25.2300  -28.8244 H   0  0  0  0  0  0  0  0  0  0  0  0
   -5.8637   24.6683  -29.4808 H   0  0  0  0  0  0  0  0  0  0  0  0
   -4.7174   25.7487  -30.3906 H   0  0  0  0  0  0  0  0  0  0  0  0
  1  2  1  0
  2  3  1  0
  3  4  1  0
  4  5  1  0
  5  6  1  0
  6  7  2  0
  6  8  2  0
  6  9  1  0
  9 10  2  0
 10 11  1  0
 10 12  1  0
 12 13  2  0
 13 14  1  0
 13 15  1  0
 15 16  1  0
 16 17  1  0
 17 18  2  0
 17 19  1  0
 19 20  1  0
 20 21  2  0
 21 22  1  0
 22 23  2  0
 23 24  1  0
 24 25  2  0
 24 26  2  0
 24 27  1  0
 27 28  1  0
 28 29  1  0
 29 30  1  0
 30 31  1  0
 31 32  1  0
 23 33  1  0
 33 34  2  0
 15 35  2  0
 35 36  1  0
  5 37  1  0
 37 38  1  0
 38  2  1  0
 35  9  1  0
 34 20  1  0
 32 27  1  0
  1 39  1  0
  1 40  1  0
  1 41  1  0
  3 42  1  0
  3 43  1  0
  4 44  1  0
  4 45  1  0
  5 46  1  0
 12 47  1  0
 21 48  1  0
 22 49  1  0
 28 50  1  0
 28 51  1  0
 29 52  1  0
 29 53  1  0
 30 54  1  0
 31 55  1  0
 31 56  1  0
 32 57  1  0
 32 58  1  0
 33 59  1  0
 34 60  1  0
 36 61  1  0
 37 62  1  0
 37 63  1  0
 38 64  1  0
 38 65  1  0
M  CHG  2  16  -1  19  -1
M  END
>  <UniqueID>  (5) 
4

>  <SMILES>  (5) 
CN1CCC(S(=O)(=O)c2c(Cl)cc(F)c([N-]C(=O)[N-]c3ccc(S(=O)(=O)N4CCNCC4)cc3)c2O)CC1

>  <Energy>  (5) 
98.17185678633572

>  <Genealogy>  (5) 
CN1CCC(S(=O)(=O)c2c(Cl)cc(F)c([N-]C(=O)[N-]c3ccc(S(=O)(=O)N4CCNCC4)cc3)c2O)CC1 (protonated)
CN1CCC(S(=O)(=O)c2c(Cl)cc(F)c([N-]C(=O)[N-]c3ccc(S(=O)(=O)N4CCNCC4)cc3)c2O)CC1 (3D coordinates assigned)
CN1CCC(S(=O)(=O)c2c(Cl)cc(F)c([N-]C(=O)[N-]c3ccc(S(=O)(=O)N4CCNCC4)cc3)c2O)CC1 (nonaromatic ring conformer: 98.17185678633572 kcal/mol)

>  <smiles>  (5) 
CN1CCC(S(=O)(=O)c2c(Cl)cc(F)c(NC(=O)Nc3ccc(S(=O)(=O)N4CCNCC4)cc3)c2O)CC1

>  <score_type>  (5) 
oracle

>  <origin>  (5) 
adgpu

>  <m_score__min__energy>  (5) 
-14.279999999999999

>  <m_primary>  (5) 
energy

$$$$
5:0
     RDKit          3D

 36 38  0  0  0  0  0  0  0  0999 V2000
   -4.0920   25.6520  -30.8720 O   0  0  0  0  0  0  0  0  0  0  0  0
   -4.3080   24.6260  -30.1730 C   0  0  0  0  0  0  0  0  0  0  0  0
   -3.5960   24.4760  -28.9370 N   0  0  0  0  0  0  0  0  0  0  0  0
   -2.1750   24.5590  -28.7840 C   0  0  0  0  0  0  0  0  0  0  0  0
   -1.2190   23.6700  -29.2210 C   0  0  0  0  0  0  0  0  0  0  0  0
   -0.0060   24.1800  -28.9350 N   0  0  0  0  0  0  0  0  0  0  0  0
   -0.1660   25.3590  -28.3470 N   0  0  0  0  0  0  0  0  0  0  0  0
   -1.4850   25.6190  -28.2520 C   0  0  0  0  0  0  0  0  0  0  0  0
   -5.3130   23.6400  -30.6260 C   0  0  0  0  0  0  0  0  0  0  0  0
   -4.9530   22.2930  -30.7980 C   0  0  0  0  0  0  0  0  0  0  0  0
   -5.9000   21.3540  -31.2170 C   0  0  0  0  0  0  0  0  0  0  0  0
   -7.2190   21.7490  -31.4760 C   0  0  0  0  0  0  0  0  0  0  0  0
   -8.4210   20.5590  -31.9930 S   0  0  0  0  0  0  0  0  0  0  0  0
   -9.5570   21.2730  -32.6690 O   0  0  0  0  0  0  0  0  0  0  0  0
   -8.9680   19.8590  -30.7790 O   0  0  0  0  0  0  0  0  0  0  0  0
   -7.7640   19.3670  -33.0880 N   0  0  0  0  0  0  0  0  0  0  0  0
   -6.5990   19.8710  -33.8140 C   0  0  0  0  0  0  0  0  0  0  0  0
   -5.7770   18.6530  -34.2040 C   0  0  0  0  0  0  0  0  0  0  0  0
   -6.2350   17.5410  -33.2710 C   0  0  0  0  0  0  0  0  0  0  0  0
   -7.3000   18.1710  -32.3870 C   0  0  0  0  0  0  0  0  0  0  0  0
   -7.5740   23.0980  -31.3390 C   0  0  0  0  0  0  0  0  0  0  0  0
   -6.6290   24.0360  -30.9190 C   0  0  0  0  0  0  0  0  0  0  0  0
   -1.4127   22.7082  -29.7184 H   0  0  0  0  0  0  0  0  0  0  0  0
   -1.9324   26.5268  -27.8211 H   0  0  0  0  0  0  0  0  0  0  0  0
   -3.9185   21.9749  -30.6016 H   0  0  0  0  0  0  0  0  0  0  0  0
   -5.6085   20.3009  -31.3438 H   0  0  0  0  0  0  0  0  0  0  0  0
   -6.9184   20.4183  -34.7131 H   0  0  0  0  0  0  0  0  0  0  0  0
   -6.0131   20.5662  -33.1948 H   0  0  0  0  0  0  0  0  0  0  0  0
   -5.9681   18.3792  -35.2521 H   0  0  0  0  0  0  0  0  0  0  0  0
   -4.6971   18.8427  -34.1154 H   0  0  0  0  0  0  0  0  0  0  0  0
   -6.6579   16.7047  -33.8470 H   0  0  0  0  0  0  0  0  0  0  0  0
   -5.4017   17.1322  -32.6807 H   0  0  0  0  0  0  0  0  0  0  0  0
   -8.1343   17.4697  -32.2379 H   0  0  0  0  0  0  0  0  0  0  0  0
   -6.8972   18.4216  -31.3945 H   0  0  0  0  0  0  0  0  0  0  0  0
   -8.6019   23.4191  -31.5634 H   0  0  0  0  0  0  0  0  0  0  0  0
   -6.9168   25.0928  -30.8167 H   0  0  0  0  0  0  0  0  0  0  0  0
  1  2  2  0
  2  3  1  0
  3  4  1  0
  4  5  1  0
  5  6  2  0
  6  7  1  0
  7  8  1  0
  2  9  1  0
  9 10  2  0
 10 11  1  0
 11 12  2  0
 12 13  1  0
 13 14  2  0
 13 15  2  0
 13 16  1  0
 16 17  1  0
 17 18  1  0
 18 19  1  0
 19 20  1  0
 12 21  1  0
 21 22  2  0
  8  4  2  0
 22  9  1  0
 20 16  1  0
  5 23  1  0
  8 24  1  0
 10 25  1  0
 11 26  1  0
 17 27  1  0
 17 28  1  0
 18 29  1  0
 18 30  1  0
 19 31  1  0
 19 32  1  0
 20 33  1  0
 20 34  1  0
 21 35  1  0
 22 36  1  0
M  CHG  2   3  -1   7  -1
M  END
>  <UniqueID>  (6) 
5

>  <SMILES>  (6) 
O=C([N-]c1cn[n-]c1)c1ccc(S(=O)(=O)N2CCCC2)cc1

>  <Energy>  (6) 
74.73934758084361

>  <Genealogy>  (6) 
O=C([N-]c1cn[n-]c1)c1ccc(S(=O)(=O)N2CCCC2)cc1 (protonated)
O=C([N-]c1cn[n-]c1)c1ccc(S(=O)(=O)N2CCCC2)cc1 (3D coordinates assigned)
O=C([N-]c1cn[n-]c1)c1ccc(S(=O)(=O)N2CCCC2)cc1 (nonaromatic ring conformer: 74.73934758084361 kcal/mol)

>  <smiles>  (6) 
O=C(Nc1cn[nH]c1)c1ccc(S(=O)(=O)N2CCCC2)cc1

>  <score_type>  (6) 
oracle

>  <origin>  (6) 
adgpu

>  <m_score__min__energy>  (6) 
-10.93

>  <m_primary>  (6) 
energy

$$$$
6:0
     RDKit          3D

 41 44  0  0  0  0  0  0  0  0999 V2000
   -0.7100   26.4720  -23.3050 C   0  0  0  0  0  0  0  0  0  0  0  0
   -0.4660   26.5660  -24.6130 C   0  0  0  0  0  0  0  0  0  0  0  0
   -0.8250   25.5190  -25.6010 C   0  0  0  0  0  0  0  0  0  0  0  0
   -0.2730   24.2220  -25.5670 C   0  0  0  0  0  0  0  0  0  0  0  0
   -0.6300   23.2760  -26.5330 C   0  0  0  0  0  0  0  0  0  0  0  0
   -1.5330   23.6090  -27.5480 C   0  0  0  0  0  0  0  0  0  0  0  0
   -1.9360   22.4210  -28.7840 S   0  0  0  0  0  0  0  0  0  0  0  0
   -2.9800   21.4620  -28.2840 O   0  0  0  0  0  0  0  0  0  0  0  0
   -0.6970   21.6520  -29.1420 O   0  0  0  0  0  0  0  0  0  0  0  0
   -2.5370   23.2250  -30.1990 N   0  0  0  0  0  0  0  0  0  0  0  0
   -3.9090   23.2370  -30.6190 C   0  0  0  0  0  0  0  0  0  0  0  0
   -4.6100   22.0420  -30.9020 C   0  0  0  0  0  0  0  0  0  0  0  0
   -5.9460   22.1310  -31.2850 C   0  0  0  0  0  0  0  0  0  0  0  0
   -6.5920   23.3460  -31.4050 C   0  0  0  0  0  0  0  0  0  0  0  0
   -5.9200   24.5380  -31.1390 C   0  0  0  0  0  0  0  0  0  0  0  0
   -4.5710   24.4810  -30.7450 C   0  0  0  0  0  0  0  0  0  0  0  0
   -3.8900   25.6630  -30.4770 O   0  0  0  0  0  0  0  0  0  0  0  0
   -8.0210   23.1720  -31.8320 C   0  0  0  0  0  0  0  0  0  0  0  0
   -8.0950   21.6750  -31.9380 C   0  0  0  0  0  0  0  0  0  0  0  0
   -9.1970   20.8980  -32.2980 C   0  0  0  0  0  0  0  0  0  0  0  0
   -9.0530   19.5010  -32.3270 C   0  0  0  0  0  0  0  0  0  0  0  0
   -7.8200   18.9030  -31.9950 C   0  0  0  0  0  0  0  0  0  0  0  0
   -6.7200   19.6990  -31.6340 C   0  0  0  0  0  0  0  0  0  0  0  0
   -6.8880   21.0840  -31.6170 C   0  0  0  0  0  0  0  0  0  0  0  0
   -2.0810   24.8960  -27.5920 C   0  0  0  0  0  0  0  0  0  0  0  0
   -1.7240   25.8450  -26.6290 C   0  0  0  0  0  0  0  0  0  0  0  0
   -0.4151   27.2893  -22.6304 H   0  0  0  0  0  0  0  0  0  0  0  0
   -1.2061   25.5772  -22.9010 H   0  0  0  0  0  0  0  0  0  0  0  0
    0.0317   27.4751  -24.9816 H   0  0  0  0  0  0  0  0  0  0  0  0
    0.4425   23.9528  -24.7761 H   0  0  0  0  0  0  0  0  0  0  0  0
   -0.1985   22.2649  -26.4945 H   0  0  0  0  0  0  0  0  0  0  0  0
   -4.1116   21.0647  -30.8215 H   0  0  0  0  0  0  0  0  0  0  0  0
   -6.4351   25.5051  -31.2354 H   0  0  0  0  0  0  0  0  0  0  0  0
   -8.7205   23.5607  -31.0773 H   0  0  0  0  0  0  0  0  0  0  0  0
   -8.2933   23.7106  -32.7516 H   0  0  0  0  0  0  0  0  0  0  0  0
  -10.1575   21.3693  -32.5535 H   0  0  0  0  0  0  0  0  0  0  0  0
   -9.9078   18.8694  -32.6106 H   0  0  0  0  0  0  0  0  0  0  0  0
   -7.7188   17.8079  -32.0188 H   0  0  0  0  0  0  0  0  0  0  0  0
   -5.7537   19.2432  -31.3722 H   0  0  0  0  0  0  0  0  0  0  0  0
   -2.7943   25.1617  -28.3861 H   0  0  0  0  0  0  0  0  0  0  0  0
   -2.1519   26.8572  -26.6774 H   0  0  0  0  0  0  0  0  0  0  0  0
  1  2  2  0
  2  3  1  0
  3  4  2  0
  4  5  1  0
  5  6  2  0
  6  7  1  0
  7  8  2  0
  7  9  2  0
  7 10  1  0
 10 11  1  0
 11 12  2  0
 12 13  1  0
 13 14  2  0
 14 15  1  0
 15 16  2  0
 16 17  1  0
 14 18  1  0
 18 19  1  0
 19 20  2  0
 20 21  1  0
 21 22  2  0
 22 23  1  0
 23 24  2  0
  6 25  1  0
 25 26  2  0
 26  3  1  0
 16 11  1  0
 24 19  1  0
 24 13  1  0
  1 27  1  0
  1 28  1  0
  2 29  1  0
  4 30  1  0
  5 31  1  0
 12 32  1  0
 15 33  1  0
 18 34  1  0
 18 35  1  0
 20 36  1  0
 21 37  1  0
 22 38  1  0
 23 39  1  0
 25 40  1  0
 26 41  1  0
M  CHG  2  10  -1  17  -1
M  END
>  <UniqueID>  (7) 
6

>  <SMILES>  (7) 
C=Cc1ccc(S(=O)(=O)[N-]c2cc3c(cc2[O-])Cc2ccccc2-3)cc1

>  <Energy>  (7) 
71.80706841689782

>  <Genealogy>  (7) 
C=Cc1ccc(S(=O)(=O)[N-]c2cc3c(cc2[O-])Cc2ccccc2-3)cc1 (protonated)
C=Cc1ccc(S(=O)(=O)[N-]c2cc3c(cc2[O-])Cc2ccccc2-3)cc1 (3D coordinates assigned)
C=Cc1ccc(S(=O)(=O)[N-]c2cc3c(cc2[O-])Cc2ccccc2-3)cc1 (nonaromatic ring conformer: 71.80706841689782 kcal/mol)

>  <smiles>  (7) 
C=Cc1ccc(S(=O)(=O)Nc2cc3c(cc2O)Cc2ccccc2-3)cc1

>  <score_type>  (7) 
oracle

>  <origin>  (7) 
adgpu

>  <m_score__min__energy>  (7) 
-13.85

>  <m_primary>  (7) 
energy

$$$$
7:0
     RDKit          3D

 34 36  0  0  0  0  0  0  0  0999 V2000
   -9.0420   22.2450  -31.5920 C   0  0  0  0  0  0  0  0  0  0  0  0
   -7.5490   22.4250  -31.6970 C   0  0  0  0  0  0  0  0  0  0  0  0
   -6.9580   23.5700  -31.1390 C   0  0  0  0  0  0  0  0  0  0  0  0
   -5.5770   23.7540  -31.2210 C   0  0  0  0  0  0  0  0  0  0  0  0
   -4.8170   25.2100  -30.5070 S   0  0  0  0  0  0  0  0  0  0  0  0
   -4.3830   24.3650  -28.9520 C   0  0  0  0  0  0  0  0  0  0  0  0
   -3.0820   23.6310  -29.1270 C   0  0  0  0  0  0  0  0  0  0  0  0
   -1.8620   24.3360  -29.1370 C   0  0  0  0  0  0  0  0  0  0  0  0
   -1.8400   25.6820  -28.9640 F   0  0  0  0  0  0  0  0  0  0  0  0
   -0.6570   23.6530  -29.3310 C   0  0  0  0  0  0  0  0  0  0  0  0
   -0.6560   22.2710  -29.5270 C   0  0  0  0  0  0  0  0  0  0  0  0
   -1.8620   21.5660  -29.5370 C   0  0  0  0  0  0  0  0  0  0  0  0
   -3.0720   22.2400  -29.3430 C   0  0  0  0  0  0  0  0  0  0  0  0
   -4.2330   21.5360  -29.3730 F   0  0  0  0  0  0  0  0  0  0  0  0
   -4.8020   22.8310  -31.8450 N   0  0  0  0  0  0  0  0  0  0  0  0
   -5.3280   21.7090  -32.4010 C   0  0  0  0  0  0  0  0  0  0  0  0
   -4.4820   20.7880  -33.0310 C   0  0  0  0  0  0  0  0  0  0  0  0
   -5.0090   19.6310  -33.6050 C   0  0  0  0  0  0  0  0  0  0  0  0
   -6.3830   19.3850  -33.5540 C   0  0  0  0  0  0  0  0  0  0  0  0
   -7.2390   20.2960  -32.9280 C   0  0  0  0  0  0  0  0  0  0  0  0
   -6.7240   21.4710  -32.3420 C   0  0  0  0  0  0  0  0  0  0  0  0
   -9.3334   22.2099  -30.5319 H   0  0  0  0  0  0  0  0  0  0  0  0
   -9.5485   23.0886  -32.0837 H   0  0  0  0  0  0  0  0  0  0  0  0
   -9.3335   21.3052  -32.0837 H   0  0  0  0  0  0  0  0  0  0  0  0
   -7.5839   24.3224  -30.6369 H   0  0  0  0  0  0  0  0  0  0  0  0
   -4.2796   25.1079  -28.1474 H   0  0  0  0  0  0  0  0  0  0  0  0
   -5.1758   23.6489  -28.6900 H   0  0  0  0  0  0  0  0  0  0  0  0
    0.2933   24.2069  -29.3291 H   0  0  0  0  0  0  0  0  0  0  0  0
    0.2944   21.7370  -29.6736 H   0  0  0  0  0  0  0  0  0  0  0  0
   -1.8599   20.4778  -29.6979 H   0  0  0  0  0  0  0  0  0  0  0  0
   -3.3992   20.9773  -33.0734 H   0  0  0  0  0  0  0  0  0  0  0  0
   -4.3407   18.9104  -34.0991 H   0  0  0  0  0  0  0  0  0  0  0  0
   -6.7931   18.4709  -34.0081 H   0  0  0  0  0  0  0  0  0  0  0  0
   -8.3199   20.0953  -32.8923 H   0  0  0  0  0  0  0  0  0  0  0  0
  1  2  1  0
  2  3  2  0
  3  4  1  0
  4  5  1  0
  5  6  1  0
  6  7  1  0
  7  8  2  0
  8  9  1  0
  8 10  1  0
 10 11  2  0
 11 12  1  0
 12 13  2  0
 13 14  1  0
  4 15  2  0
 15 16  1  0
 16 17  2  0
 17 18  1  0
 18 19  2  0
 19 20  1  0
 20 21  2  0
 21  2  1  0
 13  7  1  0
 21 16  1  0
  1 22  1  0
  1 23  1  0
  1 24  1  0
  3 25  1  0
  6 26  1  0
  6 27  1  0
 10 28  1  0
 11 29  1  0
 12 30  1  0
 17 31  1  0
 18 32  1  0
 19 33  1  0
 20 34  1  0
M  END
>  <UniqueID>  (8) 
7

>  <SMILES>  (8) 
Cc1cc(SCc2c(F)cccc2F)nc2ccccc12

>  <Energy>  (8) 
37.42719873217416

>  <Genealogy>  (8) 
Cc1cc(SCc2c(F)cccc2F)nc2ccccc12 (3D coordinates assigned)
Cc1cc(SCc2c(F)cccc2F)nc2ccccc12 (optimized conformer: 37.42719873217416 kcal/mol)

>  <smiles>  (8) 
Cc1cc(SCc2c(F)cccc2F)nc2ccccc12

>  <score_type>  (8) 
oracle

>  <origin>  (8) 
adgpu

>  <m_score__min__energy>  (8) 
-7.71

>  <m_primary>  (8) 
energy

$$$$
8:0
     RDKit          3D

 51 54  0  0  0  0  0  0  0  0999 V2000
    0.3910   23.3520  -25.4580 C   0  0  0  0  0  0  0  0  0  0  0  0
   -0.2120   24.3970  -26.2910 N   0  0  0  0  0  0  0  0  0  0  0  0
   -0.5610   24.0910  -27.6610 C   0  0  0  0  0  0  0  0  0  0  0  0
    0.2680   24.3230  -28.5840 O   0  0  0  0  0  0  0  0  0  0  0  0
   -1.8690   23.4960  -28.0180 C   0  0  0  0  0  0  0  0  0  0  0  0
   -2.2060   22.2100  -27.5610 C   0  0  0  0  0  0  0  0  0  0  0  0
   -3.4180   21.6240  -27.9350 C   0  0  0  0  0  0  0  0  0  0  0  0
   -4.3040   22.3120  -28.7660 C   0  0  0  0  0  0  0  0  0  0  0  0
   -3.9990   23.6080  -29.2030 C   0  0  0  0  0  0  0  0  0  0  0  0
   -5.1190   24.4600  -30.2680 S   0  0  0  0  0  0  0  0  0  0  0  0
   -6.0150   25.3540  -29.4560 O   0  0  0  0  0  0  0  0  0  0  0  0
   -4.3020   25.3010  -31.2090 O   0  0  0  0  0  0  0  0  0  0  0  0
   -6.0970   23.3360  -31.1740 N   0  0  0  0  0  0  0  0  0  0  0  0
   -7.5600   23.4350  -31.0240 C   0  0  0  0  0  0  0  0  0  0  0  0
   -8.3120   22.4710  -31.9490 C   0  0  0  0  0  0  0  0  0  0  0  0
   -7.7190   21.0660  -31.8530 C   0  0  0  0  0  0  0  0  0  0  0  0
   -6.2650   21.1040  -32.2270 C   0  0  0  0  0  0  0  0  0  0  0  0
   -5.6770   20.0120  -32.8850 C   0  0  0  0  0  0  0  0  0  0  0  0
   -4.3350   20.0650  -33.2680 C   0  0  0  0  0  0  0  0  0  0  0  0
   -3.5750   21.2060  -32.9990 C   0  0  0  0  0  0  0  0  0  0  0  0
   -4.1440   22.2830  -32.3160 C   0  0  0  0  0  0  0  0  0  0  0  0
   -5.4880   22.2350  -31.8940 C   0  0  0  0  0  0  0  0  0  0  0  0
   -2.7890   24.2020  -28.8140 C   0  0  0  0  0  0  0  0  0  0  0  0
   -0.4830   25.6980  -25.7230 C   0  0  0  0  0  0  0  0  0  0  0  0
   -0.6810   25.8420  -24.3370 C   0  0  0  0  0  0  0  0  0  0  0  0
   -0.8490   27.1110  -23.7760 C   0  0  0  0  0  0  0  0  0  0  0  0
   -0.8400   28.2440  -24.5940 C   0  0  0  0  0  0  0  0  0  0  0  0
   -0.6680   28.1090  -25.9740 C   0  0  0  0  0  0  0  0  0  0  0  0
   -0.4930   26.8420  -26.5380 C   0  0  0  0  0  0  0  0  0  0  0  0
    0.2473   23.6010  -24.3962 H   0  0  0  0  0  0  0  0  0  0  0  0
   -0.0889   22.3866  -25.6764 H   0  0  0  0  0  0  0  0  0  0  0  0
    1.4670   23.2844  -25.6764 H   0  0  0  0  0  0  0  0  0  0  0  0
   -1.5123   21.6625  -26.9059 H   0  0  0  0  0  0  0  0  0  0  0  0
   -3.6749   20.6174  -27.5735 H   0  0  0  0  0  0  0  0  0  0  0  0
   -5.2446   21.8352  -29.0788 H   0  0  0  0  0  0  0  0  0  0  0  0
   -7.8243   23.2021  -29.9819 H   0  0  0  0  0  0  0  0  0  0  0  0
   -7.8553   24.4588  -31.2972 H   0  0  0  0  0  0  0  0  0  0  0  0
   -9.3711   22.4380  -31.6537 H   0  0  0  0  0  0  0  0  0  0  0  0
   -8.2186   22.8267  -32.9857 H   0  0  0  0  0  0  0  0  0  0  0  0
   -7.8220   20.6952  -30.8225 H   0  0  0  0  0  0  0  0  0  0  0  0
   -8.2550   20.3964  -32.5416 H   0  0  0  0  0  0  0  0  0  0  0  0
   -6.2742   19.1134  -33.0992 H   0  0  0  0  0  0  0  0  0  0  0  0
   -3.8760   19.2076  -33.7819 H   0  0  0  0  0  0  0  0  0  0  0  0
   -2.5259   21.2561  -33.3260 H   0  0  0  0  0  0  0  0  0  0  0  0
   -3.5380   23.1766  -32.1055 H   0  0  0  0  0  0  0  0  0  0  0  0
   -2.5578   25.2286  -29.1342 H   0  0  0  0  0  0  0  0  0  0  0  0
   -0.7036   24.9512  -23.6920 H   0  0  0  0  0  0  0  0  0  0  0  0
   -0.9884   27.2180  -22.6901 H   0  0  0  0  0  0  0  0  0  0  0  0
   -0.9684   29.2427  -24.1512 H   0  0  0  0  0  0  0  0  0  0  0  0
   -0.6703   29.0011  -26.6176 H   0  0  0  0  0  0  0  0  0  0  0  0
   -0.3625   26.7403  -27.6255 H   0  0  0  0  0  0  0  0  0  0  0  0
  1  2  1  0
  2  3  1  0
  3  4  2  0
  3  5  1  0
  5  6  2  0
  6  7  1  0
  7  8  2  0
  8  9  1  0
  9 10  1  0
 10 11  2  0
 10 12  2  0
 10 13  1  0
 13 14  1  0
 14 15  1  0
 15 16  1  0
 16 17  1  0
 17 18  2  0
 18 19  1  0
 19 20  2  0
 20 21  1  0
 21 22  2  0
  9 23  2  0
  2 24  1  0
 24 25  2  0
 25 26  1  0
 26 27  2  0
 27 28  1  0
 28 29  2  0
 23  5  1  0
 29 24  1  0
 22 13  1  0
 22 17  1  0
  1 30  1  0
  1 31  1  0
  1 32  1  0
  6 33  1  0
  7 34  1  0
  8 35  1  0
 14 36  1  0
 14 37  1  0
 15 38  1  0
 15 39  1  0
 16 40  1  0
 16 41  1  0
 18 42  1  0
 19 43  1  0
 20 44  1  0
 21 45  1  0
 23 46  1  0
 25 47  1  0
 26 48  1  0
 27 49  1  0
 28 50  1  0
 29 51  1  0
M  END
>  <UniqueID>  (9) 
8

>  <SMILES>  (9) 
CN(C(=O)c1cccc(S(=O)(=O)N2CCCc3ccccc32)c1)c1ccccc1

>  <Energy>  (9) 
67.85157562237056

>  <Genealogy>  (9) 
CN(C(=O)c1cccc(S(=O)(=O)N2CCCc3ccccc32)c1)c1ccccc1 (3D coordinates assigned)
CN(C(=O)c1cccc(S(=O)(=O)N2CCCc3ccccc32)c1)c1ccccc1 (nonaromatic ring conformer: 67.85157562237056 kcal/mol)

>  <smiles>  (9) 
CN(C(=O)c1cccc(S(=O)(=O)N2CCCc3ccccc32)c1)c1ccccc1

>  <score_type>  (9) 
oracle

>  <origin>  (9) 
adgpu

>  <m_score__min__energy>  (9) 
-10.27

>  <m_primary>  (9) 
energy

$$$$
9:0
     RDKit          3D

 47 49  0  0  0  0  0  0  0  0999 V2000
   -6.1490   17.4560  -34.3500 C   0  0  0  0  0  0  0  0  0  0  0  0
   -4.9990   18.2990  -33.8830 C   0  0  0  0  0  0  0  0  0  0  0  0
   -3.7550   17.7100  -33.6130 C   0  0  0  0  0  0  0  0  0  0  0  0
   -2.6730   18.5000  -33.2140 C   0  0  0  0  0  0  0  0  0  0  0  0
   -2.8200   19.8890  -33.0920 C   0  0  0  0  0  0  0  0  0  0  0  0
   -1.4620   20.9010  -32.6100 S   0  0  0  0  0  0  0  0  0  0  0  0
   -0.3030   20.0200  -32.2360 O   0  0  0  0  0  0  0  0  0  0  0  0
   -1.0410   21.7880  -33.7490 O   0  0  0  0  0  0  0  0  0  0  0  0
   -1.9120   21.8700  -31.2380 N   0  0  0  0  0  0  0  0  0  0  0  0
   -2.5140   21.0480  -30.1850 C   0  0  0  0  0  0  0  0  0  0  0  0
   -3.8220   21.6730  -29.6840 C   0  0  0  0  0  0  0  0  0  0  0  0
   -4.0400   23.0700  -30.2130 C   0  0  0  0  0  0  0  0  0  0  0  0
   -3.2510   24.1860  -29.9810 C   0  0  0  0  0  0  0  0  0  0  0  0
   -1.9260   24.2300  -29.2910 C   0  0  0  0  0  0  0  0  0  0  0  0
   -3.8570   25.2820  -30.4760 N   0  0  0  0  0  0  0  0  0  0  0  0
   -5.0210   24.9190  -30.9930 N   0  0  0  0  0  0  0  0  0  0  0  0
   -5.1630   23.5870  -30.8500 C   0  0  0  0  0  0  0  0  0  0  0  0
   -6.3850   22.8670  -31.2590 C   0  0  0  0  0  0  0  0  0  0  0  0
   -7.5570   23.5620  -31.5880 C   0  0  0  0  0  0  0  0  0  0  0  0
   -8.7140   22.8670  -31.9500 C   0  0  0  0  0  0  0  0  0  0  0  0
   -8.7130   21.4700  -31.9770 C   0  0  0  0  0  0  0  0  0  0  0  0
   -7.5500   20.7600  -31.6440 C   0  0  0  0  0  0  0  0  0  0  0  0
   -7.5620   19.2600  -31.6240 C   0  0  0  0  0  0  0  0  0  0  0  0
   -6.3960   21.4620  -31.2640 C   0  0  0  0  0  0  0  0  0  0  0  0
   -4.0550   20.4810  -33.3840 C   0  0  0  0  0  0  0  0  0  0  0  0
   -5.1390   19.6910  -33.7820 C   0  0  0  0  0  0  0  0  0  0  0  0
   -6.6904   17.0592  -33.4785 H   0  0  0  0  0  0  0  0  0  0  0  0
   -6.8309   18.0698  -34.9569 H   0  0  0  0  0  0  0  0  0  0  0  0
   -5.7689   16.6210  -34.9569 H   0  0  0  0  0  0  0  0  0  0  0  0
   -3.6303   16.6219  -33.7157 H   0  0  0  0  0  0  0  0  0  0  0  0
   -1.7028   18.0302  -32.9950 H   0  0  0  0  0  0  0  0  0  0  0  0
   -2.7243   20.0457  -30.5864 H   0  0  0  0  0  0  0  0  0  0  0  0
   -1.8095   20.9843  -29.3426 H   0  0  0  0  0  0  0  0  0  0  0  0
   -4.6612   21.0394  -30.0070 H   0  0  0  0  0  0  0  0  0  0  0  0
   -3.7604   21.7386  -28.5877 H   0  0  0  0  0  0  0  0  0  0  0  0
   -2.0795   24.2249  -28.2018 H   0  0  0  0  0  0  0  0  0  0  0  0
   -1.3318   23.3511  -29.5817 H   0  0  0  0  0  0  0  0  0  0  0  0
   -1.3915   25.1464  -29.5817 H   0  0  0  0  0  0  0  0  0  0  0  0
   -7.5660   24.6616  -31.5610 H   0  0  0  0  0  0  0  0  0  0  0  0
   -9.6271   23.4206  -32.2141 H   0  0  0  0  0  0  0  0  0  0  0  0
   -9.6261   20.9259  -32.2600 H   0  0  0  0  0  0  0  0  0  0  0  0
   -7.5648   18.9072  -30.5821 H   0  0  0  0  0  0  0  0  0  0  0  0
   -8.4631   18.8936  -32.1376 H   0  0  0  0  0  0  0  0  0  0  0  0
   -6.6669   18.8793  -32.1376 H   0  0  0  0  0  0  0  0  0  0  0  0
   -5.4930   20.9081  -30.9677 H   0  0  0  0  0  0  0  0  0  0  0  0
   -4.1733   21.5714  -33.3001 H   0  0  0  0  0  0  0  0  0  0  0  0
   -6.1044   20.1632  -34.0165 H   0  0  0  0  0  0  0  0  0  0  0  0
  1  2  1  0
  2  3  2  0
  3  4  1  0
  4  5  2  0
  5  6  1  0
  6  7  2  0
  6  8  2  0
  6  9  1  0
  9 10  1  0
 10 11  1  0
 11 12  1  0
 12 13  1  0
 13 14  1  0
 13 15  2  0
 15 16  1  0
 16 17  1  0
 17 18  1  0
 18 19  2  0
 19 20  1  0
 20 21  2  0
 21 22  1  0
 22 23  1  0
 22 24  2  0
  5 25  1  0
 25 26  2  0
 26  2  1  0
 17 12  2  0
 24 18  1  0
  1 27  1  0
  1 28  1  0
  1 29  1  0
  3 30  1  0
  4 31  1  0
 10 32  1  0
 10 33  1  0
 11 34  1  0
 11 35  1  0
 14 36  1  0
 14 37  1  0
 14 38  1  0
 19 39  1  0
 20 40  1  0
 21 41  1  0
 23 42  1  0
 23 43  1  0
 23 44  1  0
 24 45  1  0
 25 46  1  0
 26 47  1  0
M  CHG  2   9  -1  16  -1
M  END
>  <UniqueID>  (10) 
9

>  <SMILES>  (10) 
Cc1ccc(S(=O)(=O)[N-]CCc2c(C)n[n-]c2-c2cccc(C)c2)cc1

>  <Energy>  (10) 
78.5286026470965

>  <Genealogy>  (10) 
Cc1ccc(S(=O)(=O)[N-]CCc2c(C)n[n-]c2-c2cccc(C)c2)cc1 (protonated)
Cc1ccc(S(=O)(=O)[N-]CCc2c(C)n[n-]c2-c2cccc(C)c2)cc1 (3D coordinates assigned)
Cc1ccc(S(=O)(=O)[N-]CCc2c(C)n[n-]c2-c2cccc(C)c2)cc1 (optimized conformer: 78.5286026470965 kcal/mol)

>  <smiles>  (10) 
Cc1ccc(S(=O)(=O)NCCc2c(C)n[nH]c2-c2cccc(C)c2)cc1

>  <score_type>  (10) 
oracle

>  <origin>  (10) 
adgpu

>  <m_score__min__energy>  (10) 
-11.09

>  <m_primary>  (10) 
energy

$$$$
10:0
     RDKit          3D

 39 41  0  0  0  0  0  0  0  0999 V2000
   -2.9300   14.0300  -35.6210 C   0  0  0  0  0  0  0  0  0  0  0  0
   -2.8140   15.4400  -35.4640 O   0  0  0  0  0  0  0  0  0  0  0  0
   -3.7890   16.2530  -34.8670 C   0  0  0  0  0  0  0  0  0  0  0  0
   -3.7370   17.6560  -34.9160 C   0  0  0  0  0  0  0  0  0  0  0  0
   -4.7320   18.4220  -34.3020 C   0  0  0  0  0  0  0  0  0  0  0  0
   -5.8030   17.8040  -33.6310 C   0  0  0  0  0  0  0  0  0  0  0  0
   -6.8540   18.6290  -32.9780 C   0  0  0  0  0  0  0  0  0  0  0  0
   -8.0530   18.1730  -32.4210 C   0  0  0  0  0  0  0  0  0  0  0  0
   -8.8370   19.1890  -31.8600 C   0  0  0  0  0  0  0  0  0  0  0  0
   -8.2650   20.4450  -31.9770 C   0  0  0  0  0  0  0  0  0  0  0  0
   -8.9310   21.9320  -31.3320 S   0  0  0  0  0  0  0  0  0  0  0  0
   -8.9470   23.0000  -32.3870 O   0  0  0  0  0  0  0  0  0  0  0  0
  -10.3390   21.6770  -30.8730 O   0  0  0  0  0  0  0  0  0  0  0  0
   -7.9770   22.4650  -29.9840 N   0  0  0  0  0  0  0  0  0  0  0  0
   -6.7200   23.1480  -30.0820 C   0  0  0  0  0  0  0  0  0  0  0  0
   -6.6650   24.4970  -29.7200 C   0  0  0  0  0  0  0  0  0  0  0  0
   -5.4590   25.1960  -29.7800 C   0  0  0  0  0  0  0  0  0  0  0  0
   -4.2890   24.5560  -30.2010 C   0  0  0  0  0  0  0  0  0  0  0  0
   -3.1050   25.2860  -30.2350 O   0  0  0  0  0  0  0  0  0  0  0  0
   -4.3230   23.1950  -30.5790 C   0  0  0  0  0  0  0  0  0  0  0  0
   -3.1050   22.4770  -31.0340 C   0  0  0  0  0  0  0  0  0  0  0  0
   -2.1180   22.3240  -30.2670 O   0  0  0  0  0  0  0  0  0  0  0  0
   -3.0350   21.9600  -32.3230 O   0  0  0  0  0  0  0  0  0  0  0  0
   -5.5480   22.5050  -30.5190 C   0  0  0  0  0  0  0  0  0  0  0  0
   -6.7900   20.3040  -32.7640 S   0  0  0  0  0  0  0  0  0  0  0  0
   -5.8480   16.3980  -33.5850 C   0  0  0  0  0  0  0  0  0  0  0  0
   -4.8500   15.6350  -34.1980 C   0  0  0  0  0  0  0  0  0  0  0  0
   -2.9693   13.5528  -34.6307 H   0  0  0  0  0  0  0  0  0  0  0  0
   -3.8503   13.7974  -36.1768 H   0  0  0  0  0  0  0  0  0  0  0  0
   -2.0601   13.6502  -36.1768 H   0  0  0  0  0  0  0  0  0  0  0  0
   -2.9086   18.1546  -35.4405 H   0  0  0  0  0  0  0  0  0  0  0  0
   -4.6770   19.5198  -34.3439 H   0  0  0  0  0  0  0  0  0  0  0  0
   -8.3526   17.1146  -32.4233 H   0  0  0  0  0  0  0  0  0  0  0  0
   -9.8080   19.0079  -31.3759 H   0  0  0  0  0  0  0  0  0  0  0  0
   -7.5784   25.0108  -29.3857 H   0  0  0  0  0  0  0  0  0  0  0  0
   -5.4283   26.2578  -29.4942 H   0  0  0  0  0  0  0  0  0  0  0  0
   -5.5895   21.4473  -30.8183 H   0  0  0  0  0  0  0  0  0  0  0  0
   -6.6753   15.8955  -33.0624 H   0  0  0  0  0  0  0  0  0  0  0  0
   -4.8998   14.5370  -34.1536 H   0  0  0  0  0  0  0  0  0  0  0  0
  1  2  1  0
  2  3  1  0
  3  4  2  0
  4  5  1  0
  5  6  2  0
  6  7  1  0
  7  8  2  0
  8  9  1  0
  9 10  2  0
 10 11  1  0
 11 12  2  0
 11 13  2  0
 11 14  1  0
 14 15  1  0
 15 16  2  0
 16 17  1  0
 17 18  2  0
 18 19  1  0
 18 20  1  0
 20 21  1  0
 21 22  2  0
 21 23  1  0
 20 24  2  0
 10 25  1  0
  6 26  1  0
 26 27  2  0
 27  3  1  0
 25  7  1  0
 24 15  1  0
  1 28  1  0
  1 29  1  0
  1 30  1  0
  4 31  1  0
  5 32  1  0
  8 33  1  0
  9 34  1  0
 16 35  1  0
 17 36  1  0
 24 37  1  0
 26 38  1  0
 27 39  1  0
M  CHG  3  14  -1  19  -1  23  -1
M  END
>  <UniqueID>  (11) 
10

>  <SMILES>  (11) 
COc1ccc(-c2ccc(S(=O)(=O)[N-]c3ccc([O-])c(C(=O)[O-])c3)s2)cc1

>  <Energy>  (11) 
74.7762820575433

>  <Genealogy>  (11) 
COc1ccc(-c2ccc(S(=O)(=O)[N-]c3ccc([O-])c(C(=O)[O-])c3)s2)cc1 (protonated)
COc1ccc(-c2ccc(S(=O)(=O)[N-]c3ccc([O-])c(C(=O)[O-])c3)s2)cc1 (3D coordinates assigned)
COc1ccc(-c2ccc(S(=O)(=O)[N-]c3ccc([O-])c(C(=O)[O-])c3)s2)cc1 (optimized conformer: 74.7762820575433 kcal/mol)

>  <smiles>  (11) 
COc1ccc(-c2ccc(S(=O)(=O)Nc3ccc(O)c(C(=O)O)c3)s2)cc1

>  <score_type>  (11) 
oracle

>  <origin>  (11) 
adgpu

>  <m_score__min__energy>  (11) 
-11.890000000000001

>  <m_primary>  (11) 
energy

$$$$
11:0
     RDKit          3D

 52 54  0  0  0  0  0  0  0  0999 V2000
    1.4020   19.1740  -30.2000 C   0  0  0  0  0  0  0  0  0  0  0  0
    1.2430   19.6350  -28.8630 O   0  0  0  0  0  0  0  0  0  0  0  0
    0.0270   19.6510  -28.1600 C   0  0  0  0  0  0  0  0  0  0  0  0
   -0.4540   18.5110  -27.4900 C   0  0  0  0  0  0  0  0  0  0  0  0
   -1.6720   18.5520  -26.8090 C   0  0  0  0  0  0  0  0  0  0  0  0
   -2.4280   19.7270  -26.7940 C   0  0  0  0  0  0  0  0  0  0  0  0
   -1.9570   20.8690  -27.4390 C   0  0  0  0  0  0  0  0  0  0  0  0
   -0.7300   20.8460  -28.1200 C   0  0  0  0  0  0  0  0  0  0  0  0
   -0.2730   22.0870  -28.8390 C   0  0  0  0  0  0  0  0  0  0  0  0
   -1.4170   22.9180  -29.2010 N   0  0  0  0  0  0  0  0  0  0  0  0
   -1.4640   24.3330  -28.9620 C   0  0  0  0  0  0  0  0  0  0  0  0
   -0.4500   24.9340  -28.5180 O   0  0  0  0  0  0  0  0  0  0  0  0
   -2.6530   25.0630  -29.2940 N   0  0  0  0  0  0  0  0  0  0  0  0
   -3.8600   24.5120  -29.8350 C   0  0  0  0  0  0  0  0  0  0  0  0
   -4.6290   25.1990  -30.7940 C   0  0  0  0  0  0  0  0  0  0  0  0
   -5.8170   24.6400  -31.2770 C   0  0  0  0  0  0  0  0  0  0  0  0
   -6.2520   23.3930  -30.8110 C   0  0  0  0  0  0  0  0  0  0  0  0
   -7.7170   22.6540  -31.4610 S   0  0  0  0  0  0  0  0  0  0  0  0
   -8.6310   23.7140  -32.0220 O   0  0  0  0  0  0  0  0  0  0  0  0
   -8.4170   21.9420  -30.3320 O   0  0  0  0  0  0  0  0  0  0  0  0
   -7.3520   21.4960  -32.7090 N   0  0  0  0  0  0  0  0  0  0  0  0
   -7.0320   20.1140  -32.4870 C   0  0  0  0  0  0  0  0  0  0  0  0
   -8.0370   19.1480  -32.2890 C   0  0  0  0  0  0  0  0  0  0  0  0
   -7.6990   17.7960  -32.1580 C   0  0  0  0  0  0  0  0  0  0  0  0
   -6.3580   17.3980  -32.2070 C   0  0  0  0  0  0  0  0  0  0  0  0
   -5.3540   18.3540  -32.3590 C   0  0  0  0  0  0  0  0  0  0  0  0
   -5.6780   19.7160  -32.4840 C   0  0  0  0  0  0  0  0  0  0  0  0
   -4.3880   20.9150  -32.6590 S   0  0  0  0  0  0  0  0  0  0  0  0
   -3.2410   20.4140  -33.8510 N   0  0  0  0  0  0  0  0  0  0  0  0
   -4.9760   22.2280  -33.0880 O   0  0  0  0  0  0  0  0  0  0  0  0
   -3.6890   21.0820  -31.3380 O   0  0  0  0  0  0  0  0  0  0  0  0
   -5.5050   22.7230  -29.8310 C   0  0  0  0  0  0  0  0  0  0  0  0
   -4.3200   23.2830  -29.3430 C   0  0  0  0  0  0  0  0  0  0  0  0
    1.7606   18.1342  -30.1891 H   0  0  0  0  0  0  0  0  0  0  0  0
    0.4351   19.2229  -30.7222 H   0  0  0  0  0  0  0  0  0  0  0  0
    2.1332   19.8086  -30.7222 H   0  0  0  0  0  0  0  0  0  0  0  0
    0.1336   17.5812  -27.5029 H   0  0  0  0  0  0  0  0  0  0  0  0
   -2.0373   17.6575  -26.2832 H   0  0  0  0  0  0  0  0  0  0  0  0
   -3.3962   19.7506  -26.2724 H   0  0  0  0  0  0  0  0  0  0  0  0
   -2.5508   21.7946  -27.4142 H   0  0  0  0  0  0  0  0  0  0  0  0
    0.3973   22.6602  -28.1817 H   0  0  0  0  0  0  0  0  0  0  0  0
    0.2572   21.7920  -29.7565 H   0  0  0  0  0  0  0  0  0  0  0  0
   -2.2420   22.4670  -29.6650 H   0  0  0  0  0  0  0  0  0  0  0  0
   -4.2943   26.1790  -31.1648 H   0  0  0  0  0  0  0  0  0  0  0  0
   -6.4122   25.1824  -32.0263 H   0  0  0  0  0  0  0  0  0  0  0  0
   -9.0915   19.4569  -32.2371 H   0  0  0  0  0  0  0  0  0  0  0  0
   -8.4894   17.0443  -32.0162 H   0  0  0  0  0  0  0  0  0  0  0  0
   -6.0964   16.3327  -32.1257 H   0  0  0  0  0  0  0  0  0  0  0  0
   -4.3001   18.0396  -32.3812 H   0  0  0  0  0  0  0  0  0  0  0  0
   -3.1420   21.1950  -34.5350 H   0  0  0  0  0  0  0  0  0  0  0  0
   -5.8525   21.7534  -29.4448 H   0  0  0  0  0  0  0  0  0  0  0  0
   -3.7451   22.7552  -28.5678 H   0  0  0  0  0  0  0  0  0  0  0  0
  1  2  1  0
  2  3  1  0
  3  4  2  0
  4  5  1  0
  5  6  2  0
  6  7  1  0
  7  8  2  0
  8  9  1  0
  9 10  1  0
 10 11  1  0
 11 12  2  0
 11 13  1  0
 13 14  1  0
 14 15  2  0
 15 16  1  0
 16 17  2  0
 17 18  1  0
 18 19  2  0
 18 20  2  0
 18 21  1  0
 21 22  1  0
 22 23  2  0
 23 24  1  0
 24 25  2  0
 25 26  1  0
 26 27  2  0
 27 28  1  0
 28 29  1  0
 28 30  2  0
 28 31  2  0
 17 32  1  0
 32 33  2  0
  8  3  1  0
 33 14  1  0
 27 22  1  0
  1 34  1  0
  1 35  1  0
  1 36  1  0
  4 37  1  0
  5 38  1  0
  6 39  1  0
  7 40  1  0
  9 41  1  0
  9 42  1  0
 10 43  1  0
 15 44  1  0
 16 45  1  0
 23 46  1  0
 24 47  1  0
 25 48  1  0
 26 49  1  0
 29 50  1  0
 32 51  1  0
 33 52  1  0
M  CHG  3  13  -1  21  -1  29  -1
M  END
>  <UniqueID>  (12) 
11

>  <SMILES>  (12) 
COc1ccccc1CNC(=O)[N-]c1ccc(S(=O)(=O)[N-]c2ccccc2S([NH-])(=O)=O)cc1

>  <Energy>  (12) 
62.04186644987894

>  <Genealogy>  (12) 
COc1ccccc1CNC(=O)[N-]c1ccc(S(=O)(=O)[N-]c2ccccc2S([NH-])(=O)=O)cc1 (protonated)
COc1ccccc1CNC(=O)[N-]c1ccc(S(=O)(=O)[N-]c2ccccc2S([NH-])(=O)=O)cc1 (3D coordinates assigned)
COc1ccccc1CNC(=O)[N-]c1ccc(S(=O)(=O)[N-]c2ccccc2S([NH-])(=O)=O)cc1 (optimized conformer: 62.04186644987894 kcal/mol)

>  <smiles>  (12) 
COc1ccccc1CNC(=O)Nc1ccc(S(=O)(=O)Nc2ccccc2S(N)(=O)=O)cc1

>  <score_type>  (12) 
oracle

>  <origin>  (12) 
adgpu

>  <m_score__min__energy>  (12) 
-13.41

>  <m_primary>  (12) 
energy

$$$$
12:0
     RDKit          3D

 65 68  0  0  0  0  0  0  0  0999 V2000
    0.0210   25.7630  -23.7700 C   0  0  0  0  0  0  0  0  0  0  0  0
    1.0210   25.1310  -24.7660 C   0  0  0  0  0  0  0  0  0  0  0  0
    1.6700   23.8410  -24.1930 C   0  0  0  0  0  0  0  0  0  0  0  0
    2.2120   26.1310  -24.9010 C   0  0  0  0  0  0  0  0  0  0  0  0
    0.3070   24.8580  -26.1330 C   0  0  0  0  0  0  0  0  0  0  0  0
    0.1400   23.5060  -26.5360 C   0  0  0  0  0  0  0  0  0  0  0  0
   -0.5890   23.1490  -27.6610 C   0  0  0  0  0  0  0  0  0  0  0  0
   -1.1760   24.1210  -28.4620 C   0  0  0  0  0  0  0  0  0  0  0  0
   -1.9910   23.7530  -29.5910 N   0  0  0  0  0  0  0  0  0  0  0  0
   -3.3430   24.1930  -29.7820 C   0  0  0  0  0  0  0  0  0  0  0  0
   -3.9710   24.7550  -28.8430 O   0  0  0  0  0  0  0  0  0  0  0  0
   -4.0040   23.9010  -31.0190 N   0  0  0  0  0  0  0  0  0  0  0  0
   -4.3660   22.5990  -31.4990 C   0  0  0  0  0  0  0  0  0  0  0  0
   -5.2900   22.4980  -32.5450 C   0  0  0  0  0  0  0  0  0  0  0  0
   -5.6800   21.2470  -33.0290 C   0  0  0  0  0  0  0  0  0  0  0  0
   -5.1670   20.0760  -32.4540 C   0  0  0  0  0  0  0  0  0  0  0  0
   -5.6690   18.4920  -33.0570 S   0  0  0  0  0  0  0  0  0  0  0  0
   -6.7390   17.9370  -32.1590 O   0  0  0  0  0  0  0  0  0  0  0  0
   -6.2530   18.6520  -34.4330 O   0  0  0  0  0  0  0  0  0  0  0  0
   -4.3290   17.3700  -33.1280 N   0  0  0  0  0  0  0  0  0  0  0  0
   -3.0810   18.0770  -33.4740 C   0  0  0  0  0  0  0  0  0  0  0  0
   -2.0390   17.0930  -34.0310 C   0  0  0  0  0  0  0  0  0  0  0  0
   -2.4570   16.4190  -35.2140 O   0  0  0  0  0  0  0  0  0  0  0  0
   -3.8670   16.3400  -35.3630 C   0  0  0  0  0  0  0  0  0  0  0  0
   -4.6170   16.2290  -34.0230 C   0  0  0  0  0  0  0  0  0  0  0  0
   -4.2560   20.1720  -31.3930 C   0  0  0  0  0  0  0  0  0  0  0  0
   -3.8610   21.4240  -30.9130 C   0  0  0  0  0  0  0  0  0  0  0  0
   -0.9920   25.4700  -28.1440 C   0  0  0  0  0  0  0  0  0  0  0  0
   -1.6150   26.4230  -28.9460 O   0  0  0  0  0  0  0  0  0  0  0  0
   -0.1880   25.8700  -27.0440 C   0  0  0  0  0  0  0  0  0  0  0  0
    0.1390   27.6350  -26.9570 S   0  0  0  0  0  0  0  0  0  0  0  0
    1.5930   27.9840  -27.0560 O   0  0  0  0  0  0  0  0  0  0  0  0
   -0.5240   28.3070  -28.1290 O   0  0  0  0  0  0  0  0  0  0  0  0
   -0.5310   28.2880  -25.4230 C   0  0  0  0  0  0  0  0  0  0  0  0
   -1.1000   29.6960  -25.4950 C   0  0  0  0  0  0  0  0  0  0  0  0
    0.2550   29.4540  -24.8470 C   0  0  0  0  0  0  0  0  0  0  0  0
    0.3485   25.5560  -22.7405 H   0  0  0  0  0  0  0  0  0  0  0  0
   -0.0186   26.8505  -23.9305 H   0  0  0  0  0  0  0  0  0  0  0  0
   -0.9783   25.3321  -23.9305 H   0  0  0  0  0  0  0  0  0  0  0  0
    1.6513   23.8782  -23.0938 H   0  0  0  0  0  0  0  0  0  0  0  0
    1.1068   22.9620  -24.5398 H   0  0  0  0  0  0  0  0  0  0  0  0
    2.7115   23.7693  -24.5398 H   0  0  0  0  0  0  0  0  0  0  0  0
    2.5604   26.4236  -23.8995 H   0  0  0  0  0  0  0  0  0  0  0  0
    3.0349   25.6492  -25.4493 H   0  0  0  0  0  0  0  0  0  0  0  0
    1.8799   27.0249  -25.4493 H   0  0  0  0  0  0  0  0  0  0  0  0
    0.6062   22.7125  -25.9335 H   0  0  0  0  0  0  0  0  0  0  0  0
   -0.7035   22.0864  -27.9214 H   0  0  0  0  0  0  0  0  0  0  0  0
   -1.6100   23.0680  -30.2820 H   0  0  0  0  0  0  0  0  0  0  0  0
   -5.7126   23.4110  -32.9897 H   0  0  0  0  0  0  0  0  0  0  0  0
   -6.3924   21.1805  -33.8645 H   0  0  0  0  0  0  0  0  0  0  0  0
   -3.2977   18.8426  -34.2336 H   0  0  0  0  0  0  0  0  0  0  0  0
   -2.6756   18.5467  -32.5657 H   0  0  0  0  0  0  0  0  0  0  0  0
   -1.1200   17.6533  -34.2578 H   0  0  0  0  0  0  0  0  0  0  0  0
   -1.8843   16.3221  -33.2617 H   0  0  0  0  0  0  0  0  0  0  0  0
   -4.2141   17.2449  -35.8832 H   0  0  0  0  0  0  0  0  0  0  0  0
   -4.0830   15.4246  -35.9334 H   0  0  0  0  0  0  0  0  0  0  0  0
   -5.6982   16.1994  -34.2231 H   0  0  0  0  0  0  0  0  0  0  0  0
   -4.2787   15.3108  -33.5206 H   0  0  0  0  0  0  0  0  0  0  0  0
   -3.8499   19.2576  -30.9359 H   0  0  0  0  0  0  0  0  0  0  0  0
   -3.1527   21.4907  -30.0740 H   0  0  0  0  0  0  0  0  0  0  0  0
   -0.9046   27.3249  -25.0450 H   0  0  0  0  0  0  0  0  0  0  0  0
   -1.1622   30.2154  -26.4626 H   0  0  0  0  0  0  0  0  0  0  0  0
   -2.0397   30.1726  -25.1790 H   0  0  0  0  0  0  0  0  0  0  0  0
    1.1727   29.7987  -25.3460 H   0  0  0  0  0  0  0  0  0  0  0  0
    0.7012   29.6834  -23.8681 H   0  0  0  0  0  0  0  0  0  0  0  0
  1  2  1  0
  2  3  1  0
  2  4  1  0
  2  5  1  0
  5  6  2  0
  6  7  1  0
  7  8  2  0
  8  9  1  0
  9 10  1  0
 10 11  2  0
 10 12  1  0
 12 13  1  0
 13 14  2  0
 14 15  1  0
 15 16  2  0
 16 17  1  0
 17 18  2  0
 17 19  2  0
 17 20  1  0
 20 21  1  0
 21 22  1  0
 22 23  1  0
 23 24  1  0
 24 25  1  0
 16 26  1  0
 26 27  2  0
  8 28  1  0
 28 29  1  0
 28 30  2  0
 30 31  1  0
 31 32  2  0
 31 33  2  0
 31 34  1  0
 34 35  1  0
 35 36  1  0
 30  5  1  0
 36 34  1  0
 27 13  1  0
 25 20  1  0
  1 37  1  0
  1 38  1  0
  1 39  1  0
  3 40  1  0
  3 41  1  0
  3 42  1  0
  4 43  1  0
  4 44  1  0
  4 45  1  0
  6 46  1  0
  7 47  1  0
  9 48  1  0
 14 49  1  0
 15 50  1  0
 21 51  1  0
 21 52  1  0
 22 53  1  0
 22 54  1  0
 24 55  1  0
 24 56  1  0
 25 57  1  0
 25 58  1  0
 26 59  1  0
 27 60  1  0
 34 61  1  0
 35 62  1  0
 35 63  1  0
 36 64  1  0
 36 65  1  0
M  CHG  2  12  -1  29  -1
M  END
>  <UniqueID>  (13) 
12

>  <SMILES>  (13) 
CC(C)(C)c1ccc(NC(=O)[N-]c2ccc(S(=O)(=O)N3CCOCC3)cc2)c([O-])c1S(=O)(=O)C1CC1

>  <Energy>  (13) 
372.4861840544675

>  <Genealogy>  (13) 
CC(C)(C)c1ccc(NC(=O)[N-]c2ccc(S(=O)(=O)N3CCOCC3)cc2)c([O-])c1S(=O)(=O)C1CC1 (protonated)
CC(C)(C)c1ccc(NC(=O)[N-]c2ccc(S(=O)(=O)N3CCOCC3)cc2)c([O-])c1S(=O)(=O)C1CC1 (3D coordinates assigned)
CC(C)(C)c1ccc(NC(=O)[N-]c2ccc(S(=O)(=O)N3CCOCC3)cc2)c([O-])c1S(=O)(=O)C1CC1 (nonaromatic ring conformer: 372.4861840544675 kcal/mol)

>  <smiles>  (13) 
CC(C)(C)c1ccc(NC(=O)Nc2ccc(S(=O)(=O)N3CCOCC3)cc2)c(O)c1S(=O)(=O)C1CC1

>  <score_type>  (13) 
oracle

>  <origin>  (13) 
adgpu

>  <m_score__min__energy>  (13) 
-13.75

>  <m_primary>  (13) 
energy

$$$$
13:0
     RDKit          3D

 47 50  0  0  0  0  0  0  0  0999 V2000
   -5.7240   26.0910  -30.5660 O   0  0  0  0  0  0  0  0  0  0  0  0
   -5.0910   25.0160  -30.7380 C   0  0  0  0  0  0  0  0  0  0  0  0
   -3.6810   24.9950  -30.4650 N   0  0  0  0  0  0  0  0  0  0  0  0
   -2.9890   24.0130  -29.6800 C   0  0  0  0  0  0  0  0  0  0  0  0
   -2.8390   24.1530  -28.2900 C   0  0  0  0  0  0  0  0  0  0  0  0
   -2.1370   23.1930  -27.5570 C   0  0  0  0  0  0  0  0  0  0  0  0
   -1.5740   22.0900  -28.2030 C   0  0  0  0  0  0  0  0  0  0  0  0
   -1.7180   21.9310  -29.5940 C   0  0  0  0  0  0  0  0  0  0  0  0
   -1.0660   20.7730  -30.3060 C   0  0  0  0  0  0  0  0  0  0  0  0
   -2.0030   20.0640  -31.0380 F   0  0  0  0  0  0  0  0  0  0  0  0
   -0.4770   19.9060  -29.4030 F   0  0  0  0  0  0  0  0  0  0  0  0
   -0.0950   21.2560  -31.1640 F   0  0  0  0  0  0  0  0  0  0  0  0
   -2.4020   22.9180  -30.3270 C   0  0  0  0  0  0  0  0  0  0  0  0
   -5.8040   23.8270  -31.2580 C   0  0  0  0  0  0  0  0  0  0  0  0
   -5.1290   22.8990  -32.0690 C   0  0  0  0  0  0  0  0  0  0  0  0
   -5.8080   21.7970  -32.5940 C   0  0  0  0  0  0  0  0  0  0  0  0
   -7.1680   21.5960  -32.3090 C   0  0  0  0  0  0  0  0  0  0  0  0
   -7.9120   20.4470  -32.9370 C   0  0  0  0  0  0  0  0  0  0  0  0
   -7.3030   19.1750  -32.5450 N   0  0  0  0  0  0  0  0  0  0  0  0
   -7.4440   18.5680  -31.2190 C   0  0  0  0  0  0  0  0  0  0  0  0
   -6.4880   17.3500  -31.2000 C   0  0  0  0  0  0  0  0  0  0  0  0
   -5.8450   17.3960  -32.5420 C   0  0  0  0  0  0  0  0  0  0  0  0
   -4.8840   16.5280  -33.0640 C   0  0  0  0  0  0  0  0  0  0  0  0
   -4.4310   16.7420  -34.3770 C   0  0  0  0  0  0  0  0  0  0  0  0
   -4.9480   17.8060  -35.1410 C   0  0  0  0  0  0  0  0  0  0  0  0
   -5.9150   18.6650  -34.5940 C   0  0  0  0  0  0  0  0  0  0  0  0
   -6.3390   18.4390  -33.2790 C   0  0  0  0  0  0  0  0  0  0  0  0
   -7.8330   22.5040  -31.4700 C   0  0  0  0  0  0  0  0  0  0  0  0
   -7.1550   23.6070  -30.9440 C   0  0  0  0  0  0  0  0  0  0  0  0
   -3.2762   25.0222  -27.7768 H   0  0  0  0  0  0  0  0  0  0  0  0
   -2.0274   23.3061  -26.4683 H   0  0  0  0  0  0  0  0  0  0  0  0
   -1.0152   21.3418  -27.6216 H   0  0  0  0  0  0  0  0  0  0  0  0
   -2.4767   22.8288  -31.4208 H   0  0  0  0  0  0  0  0  0  0  0  0
   -4.0611   23.0410  -32.2914 H   0  0  0  0  0  0  0  0  0  0  0  0
   -5.2732   21.0812  -33.2356 H   0  0  0  0  0  0  0  0  0  0  0  0
   -8.9597   20.4665  -32.6024 H   0  0  0  0  0  0  0  0  0  0  0  0
   -7.8651   20.5448  -34.0316 H   0  0  0  0  0  0  0  0  0  0  0  0
   -7.1603   19.2882  -30.4374 H   0  0  0  0  0  0  0  0  0  0  0  0
   -8.4835   18.2658  -31.0240 H   0  0  0  0  0  0  0  0  0  0  0  0
   -5.7388   17.4499  -30.4008 H   0  0  0  0  0  0  0  0  0  0  0  0
   -7.0065   16.3998  -31.0043 H   0  0  0  0  0  0  0  0  0  0  0  0
   -4.4906   15.6960  -32.4615 H   0  0  0  0  0  0  0  0  0  0  0  0
   -3.6698   16.0760  -34.8095 H   0  0  0  0  0  0  0  0  0  0  0  0
   -4.5931   17.9649  -36.1700 H   0  0  0  0  0  0  0  0  0  0  0  0
   -6.3293   19.4954  -35.1845 H   0  0  0  0  0  0  0  0  0  0  0  0
   -8.8938   22.3464  -31.2252 H   0  0  0  0  0  0  0  0  0  0  0  0
   -7.6828   24.3072  -30.2799 H   0  0  0  0  0  0  0  0  0  0  0  0
  1  2  2  0
  2  3  1  0
  3  4  1  0
  4  5  2  0
  5  6  1  0
  6  7  2  0
  7  8  1  0
  8  9  1  0
  9 10  1  0
  9 11  1  0
  9 12  1  0
  8 13  2  0
  2 14  1  0
 14 15  2  0
 15 16  1  0
 16 17  2  0
 17 18  1  0
 18 19  1  0
 19 20  1  0
 20 21  1  0
 21 22  1  0
 22 23  2  0
 23 24  1  0
 24 25  2  0
 25 26  1  0
 26 27  2  0
 17 28  1  0
 28 29  2  0
 13  4  1  0
 29 14  1  0
 27 19  1  0
 27 22  1  0
  5 30  1  0
  6 31  1  0
  7 32  1  0
 13 33  1  0
 15 34  1  0
 16 35  1  0
 18 36  1  0
 18 37  1  0
 20 38  1  0
 20 39  1  0
 21 40  1  0
 21 41  1  0
 23 42  1  0
 24 43  1  0
 25 44  1  0
 26 45  1  0
 28 46  1  0
 29 47  1  0
M  CHG  1   3  -1
M  END
>  <UniqueID>  (14) 
13

>  <SMILES>  (14) 
O=C([N-]c1cccc(C(F)(F)F)c1)c1ccc(CN2CCc3ccccc32)cc1

>  <Energy>  (14) 
70.13402052889526

>  <Genealogy>  (14) 
O=C([N-]c1cccc(C(F)(F)F)c1)c1ccc(CN2CCc3ccccc32)cc1 (protonated)
O=C([N-]c1cccc(C(F)(F)F)c1)c1ccc(CN2CCc3ccccc32)cc1 (3D coordinates assigned)
O=C([N-]c1cccc(C(F)(F)F)c1)c1ccc(CN2CCc3ccccc32)cc1 (nonaromatic ring conformer: 70.13402052889526 kcal/mol)

>  <smiles>  (14) 
O=C(Nc1cccc(C(F)(F)F)c1)c1ccc(CN2CCc3ccccc32)cc1

>  <score_type>  (14) 
oracle

>  <origin>  (14) 
adgpu

>  <m_score__min__energy>  (14) 
-10.869999999999999

>  <m_primary>  (14) 
energy

$$$$
14:0
     RDKit          3D

 57 60  0  0  0  0  0  0  0  0999 V2000
   -1.2480   26.7230  -24.0970 C   0  0  0  0  0  0  0  0  0  0  0  0
   -0.5920   26.3600  -25.3080 O   0  0  0  0  0  0  0  0  0  0  0  0
   -1.2300   25.7860  -26.4140 C   0  0  0  0  0  0  0  0  0  0  0  0
   -0.6550   25.7760  -27.6970 C   0  0  0  0  0  0  0  0  0  0  0  0
   -1.3350   25.1910  -28.7670 C   0  0  0  0  0  0  0  0  0  0  0  0
   -2.6010   24.6150  -28.5820 C   0  0  0  0  0  0  0  0  0  0  0  0
   -3.3030   24.0050  -29.7330 C   0  0  0  0  0  0  0  0  0  0  0  0
   -4.0660   24.7160  -30.5860 N   0  0  0  0  0  0  0  0  0  0  0  0
   -4.5650   23.8660  -31.4720 N   0  0  0  0  0  0  0  0  0  0  0  0
   -4.0980   22.6440  -31.1510 C   0  0  0  0  0  0  0  0  0  0  0  0
   -4.5210   21.3870  -31.8580 C   0  0  0  0  0  0  0  0  0  0  0  0
   -5.8000   20.8300  -31.2330 C   0  0  0  0  0  0  0  0  0  0  0  0
   -6.9720   21.0800  -32.1280 C   0  0  0  0  0  0  0  0  0  0  0  0
   -7.6010   22.1690  -32.0380 O   0  0  0  0  0  0  0  0  0  0  0  0
   -7.3530   20.0880  -33.0900 N   0  0  0  0  0  0  0  0  0  0  0  0
   -6.5950   18.9290  -33.4630 C   0  0  0  0  0  0  0  0  0  0  0  0
   -6.7230   17.7650  -32.6950 C   0  0  0  0  0  0  0  0  0  0  0  0
   -5.9980   16.6180  -33.0220 C   0  0  0  0  0  0  0  0  0  0  0  0
   -5.1440   16.6210  -34.1280 C   0  0  0  0  0  0  0  0  0  0  0  0
   -4.2510   15.1710  -34.5540 Cl  0  0  0  0  0  0  0  0  0  0  0  0
   -5.0310   17.7700  -34.9170 C   0  0  0  0  0  0  0  0  0  0  0  0
   -5.7580   18.9190  -34.5940 C   0  0  0  0  0  0  0  0  0  0  0  0
   -3.3200   22.6900  -30.0520 N   0  0  0  0  0  0  0  0  0  0  0  0
   -2.7280   21.5790  -29.3610 C   0  0  0  0  0  0  0  0  0  0  0  0
   -3.1080   21.3410  -28.0320 C   0  0  0  0  0  0  0  0  0  0  0  0
   -2.5780   20.2650  -27.3230 C   0  0  0  0  0  0  0  0  0  0  0  0
   -1.6530   19.4180  -27.9340 C   0  0  0  0  0  0  0  0  0  0  0  0
   -1.2540   19.6500  -29.2530 C   0  0  0  0  0  0  0  0  0  0  0  0
   -1.7760   20.7310  -29.9790 C   0  0  0  0  0  0  0  0  0  0  0  0
   -1.1900   20.9710  -31.6350 S   0  0  0  0  0  0  0  0  0  0  0  0
   -1.7790   19.6500  -32.6760 C   0  0  0  0  0  0  0  0  0  0  0  0
    0.3130   20.9630  -31.6220 O   0  0  0  0  0  0  0  0  0  0  0  0
   -1.6400   22.2870  -32.2030 O   0  0  0  0  0  0  0  0  0  0  0  0
   -3.1640   24.6100  -27.2930 C   0  0  0  0  0  0  0  0  0  0  0  0
   -2.4840   25.1960  -26.2230 C   0  0  0  0  0  0  0  0  0  0  0  0
   -0.6453   26.3895  -23.2393 H   0  0  0  0  0  0  0  0  0  0  0  0
   -1.3678   27.8158  -24.0582 H   0  0  0  0  0  0  0  0  0  0  0  0
   -2.2375   26.2441  -24.0582 H   0  0  0  0  0  0  0  0  0  0  0  0
    0.3337   26.2305  -27.8583 H   0  0  0  0  0  0  0  0  0  0  0  0
   -0.8734   25.1816  -29.7654 H   0  0  0  0  0  0  0  0  0  0  0  0
   -4.7040   21.6118  -32.9191 H   0  0  0  0  0  0  0  0  0  0  0  0
   -3.7214   20.6375  -31.7634 H   0  0  0  0  0  0  0  0  0  0  0  0
   -5.6861   19.7467  -31.0798 H   0  0  0  0  0  0  0  0  0  0  0  0
   -5.9738   21.3328  -30.2702 H   0  0  0  0  0  0  0  0  0  0  0  0
   -7.3997   17.7546  -31.8279 H   0  0  0  0  0  0  0  0  0  0  0  0
   -6.0990   15.7107  -32.4084 H   0  0  0  0  0  0  0  0  0  0  0  0
   -4.3678   17.7694  -35.7946 H   0  0  0  0  0  0  0  0  0  0  0  0
   -5.6758   19.8165  -35.2246 H   0  0  0  0  0  0  0  0  0  0  0  0
   -3.8318   22.0106  -27.5445 H   0  0  0  0  0  0  0  0  0  0  0  0
   -2.8883   20.0837  -26.2834 H   0  0  0  0  0  0  0  0  0  0  0  0
   -1.2370   18.5659  -27.3764 H   0  0  0  0  0  0  0  0  0  0  0  0
   -0.5232   18.9782  -29.7269 H   0  0  0  0  0  0  0  0  0  0  0  0
   -2.1469   18.8249  -32.0484 H   0  0  0  0  0  0  0  0  0  0  0  0
   -2.5971   20.0206  -33.3111 H   0  0  0  0  0  0  0  0  0  0  0  0
   -0.9565   19.2891  -33.3111 H   0  0  0  0  0  0  0  0  0  0  0  0
   -4.1454   24.1419  -27.1267 H   0  0  0  0  0  0  0  0  0  0  0  0
   -2.9385   25.1936  -25.2213 H   0  0  0  0  0  0  0  0  0  0  0  0
  1  2  1  0
  2  3  1  0
  3  4  2  0
  4  5  1  0
  5  6  2  0
  6  7  1  0
  7  8  2  0
  8  9  1  0
  9 10  2  0
 10 11  1  0
 11 12  1  0
 12 13  1  0
 13 14  2  0
 13 15  1  0
 15 16  1  0
 16 17  2  0
 17 18  1  0
 18 19  2  0
 19 20  1  0
 19 21  1  0
 21 22  2  0
 10 23  1  0
 23 24  1  0
 24 25  2  0
 25 26  1  0
 26 27  2  0
 27 28  1  0
 28 29  2  0
 29 30  1  0
 30 31  1  0
 30 32  2  0
 30 33  2  0
  6 34  1  0
 34 35  2  0
 35  3  1  0
 23  7  1  0
 29 24  1  0
 22 16  1  0
  1 36  1  0
  1 37  1  0
  1 38  1  0
  4 39  1  0
  5 40  1  0
 11 41  1  0
 11 42  1  0
 12 43  1  0
 12 44  1  0
 17 45  1  0
 18 46  1  0
 21 47  1  0
 22 48  1  0
 25 49  1  0
 26 50  1  0
 27 51  1  0
 28 52  1  0
 31 53  1  0
 31 54  1  0
 31 55  1  0
 34 56  1  0
 35 57  1  0
M  CHG  1  15  -1
M  END
>  <UniqueID>  (15) 
14

>  <SMILES>  (15) 
COc1ccc(-c2nnc(CCC(=O)[N-]c3ccc(Cl)cc3)n2-c2ccccc2S(C)(=O)=O)cc1

>  <Energy>  (15) 
101.94932545774361

>  <Genealogy>  (15) 
COc1ccc(-c2nnc(CCC(=O)[N-]c3ccc(Cl)cc3)n2-c2ccccc2S(C)(=O)=O)cc1 (protonated)
COc1ccc(-c2nnc(CCC(=O)[N-]c3ccc(Cl)cc3)n2-c2ccccc2S(C)(=O)=O)cc1 (3D coordinates assigned)
COc1ccc(-c2nnc(CCC(=O)[N-]c3ccc(Cl)cc3)n2-c2ccccc2S(C)(=O)=O)cc1 (optimized conformer: 101.94932545774361 kcal/mol)

>  <smiles>  (15) 
COc1ccc(-c2nnc(CCC(=O)Nc3ccc(Cl)cc3)n2-c2ccccc2S(C)(=O)=O)cc1

>  <score_type>  (15) 
oracle

>  <origin>  (15) 
adgpu

>  <m_score__min__energy>  (15) 
-10.6

>  <m_primary>  (15) 
energy

$$$$
15:0
     RDKit          3D

 44 46  0  0  0  0  0  0  0  0999 V2000
   -3.8520   25.6700  -30.8520 O   0  0  0  0  0  0  0  0  0  0  0  0
   -4.2470   24.7260  -30.1160 C   0  0  0  0  0  0  0  0  0  0  0  0
   -3.6250   24.5190  -28.8890 O   0  0  0  0  0  0  0  0  0  0  0  0
   -5.3590   23.8510  -30.5500 C   0  0  0  0  0  0  0  0  0  0  0  0
   -6.1090   23.1330  -29.6010 C   0  0  0  0  0  0  0  0  0  0  0  0
   -7.1520   22.2960  -30.0100 C   0  0  0  0  0  0  0  0  0  0  0  0
   -7.4570   22.1620  -31.3710 C   0  0  0  0  0  0  0  0  0  0  0  0
   -8.6890   21.0260  -31.9140 S   0  0  0  0  0  0  0  0  0  0  0  0
   -9.9330   21.7890  -32.2710 O   0  0  0  0  0  0  0  0  0  0  0  0
   -9.0160   20.0240  -30.8420 O   0  0  0  0  0  0  0  0  0  0  0  0
   -8.0940   20.1980  -33.3160 N   0  0  0  0  0  0  0  0  0  0  0  0
   -6.8640   19.4630  -33.3290 C   0  0  0  0  0  0  0  0  0  0  0  0
   -6.8440   18.0590  -33.2810 C   0  0  0  0  0  0  0  0  0  0  0  0
   -5.6270   17.3760  -33.2140 C   0  0  0  0  0  0  0  0  0  0  0  0
   -4.4260   18.0870  -33.1700 C   0  0  0  0  0  0  0  0  0  0  0  0
   -4.4350   19.4890  -33.2090 C   0  0  0  0  0  0  0  0  0  0  0  0
   -2.9290   20.3930  -33.0270 S   0  0  0  0  0  0  0  0  0  0  0  0
   -3.1490   21.8150  -33.4620 O   0  0  0  0  0  0  0  0  0  0  0  0
   -1.8750   19.7920  -33.9140 O   0  0  0  0  0  0  0  0  0  0  0  0
   -2.3690   20.3690  -31.3690 N   0  0  0  0  0  0  0  0  0  0  0  0
   -1.0980   21.1080  -31.2110 C   0  0  0  0  0  0  0  0  0  0  0  0
   -1.3090   22.4830  -30.5480 C   0  0  0  0  0  0  0  0  0  0  0  0
   -1.8900   22.3900  -29.2560 O   0  0  0  0  0  0  0  0  0  0  0  0
   -2.8340   21.3310  -29.1270 C   0  0  0  0  0  0  0  0  0  0  0  0
   -3.4300   20.8470  -30.4610 C   0  0  0  0  0  0  0  0  0  0  0  0
   -5.6560   20.1700  -33.3260 C   0  0  0  0  0  0  0  0  0  0  0  0
   -6.7190   22.8790  -32.3200 C   0  0  0  0  0  0  0  0  0  0  0  0
   -5.6770   23.7190  -31.9140 C   0  0  0  0  0  0  0  0  0  0  0  0
   -5.8737   23.2305  -28.5309 H   0  0  0  0  0  0  0  0  0  0  0  0
   -7.7351   21.7408  -29.2605 H   0  0  0  0  0  0  0  0  0  0  0  0
   -7.7889   17.4960  -33.2962 H   0  0  0  0  0  0  0  0  0  0  0  0
   -5.6149   16.2762  -33.1959 H   0  0  0  0  0  0  0  0  0  0  0  0
   -3.4704   17.5461  -33.1046 H   0  0  0  0  0  0  0  0  0  0  0  0
   -0.4164   20.5129  -30.5855 H   0  0  0  0  0  0  0  0  0  0  0  0
   -0.6749   21.2748  -32.2126 H   0  0  0  0  0  0  0  0  0  0  0  0
   -0.3333   22.9831  -30.4589 H   0  0  0  0  0  0  0  0  0  0  0  0
   -2.0044   23.0522  -31.1824 H   0  0  0  0  0  0  0  0  0  0  0  0
   -2.3322   20.4792  -28.6448 H   0  0  0  0  0  0  0  0  0  0  0  0
   -3.6713   21.7263  -28.5332 H   0  0  0  0  0  0  0  0  0  0  0  0
   -4.1331   20.0243  -30.2640 H   0  0  0  0  0  0  0  0  0  0  0  0
   -3.9496   21.6898  -30.9403 H   0  0  0  0  0  0  0  0  0  0  0  0
   -5.6640   21.2663  -33.4159 H   0  0  0  0  0  0  0  0  0  0  0  0
   -6.9594   22.7815  -33.3890 H   0  0  0  0  0  0  0  0  0  0  0  0
   -5.1026   24.2799  -32.6659 H   0  0  0  0  0  0  0  0  0  0  0  0
  1  2  2  0
  2  3  1  0
  2  4  1  0
  4  5  2  0
  5  6  1  0
  6  7  2  0
  7  8  1  0
  8  9  2  0
  8 10  2  0
  8 11  1  0
 11 12  1  0
 12 13  2  0
 13 14  1  0
 14 15  2  0
 15 16  1  0
 16 17  1  0
 17 18  2  0
 17 19  2  0
 17 20  1  0
 20 21  1  0
 21 22  1  0
 22 23  1  0
 23 24  1  0
 24 25  1  0
 16 26  2  0
  7 27  1  0
 27 28  2  0
 28  4  1  0
 26 12  1  0
 25 20  1  0
  5 29  1  0
  6 30  1  0
 13 31  1  0
 14 32  1  0
 15 33  1  0
 21 34  1  0
 21 35  1  0
 22 36  1  0
 22 37  1  0
 24 38  1  0
 24 39  1  0
 25 40  1  0
 25 41  1  0
 26 42  1  0
 27 43  1  0
 28 44  1  0
M  CHG  2   3  -1  11  -1
M  END
>  <UniqueID>  (16) 
15

>  <SMILES>  (16) 
O=C([O-])c1ccc(S(=O)(=O)[N-]c2cccc(S(=O)(=O)N3CCOCC3)c2)cc1

>  <Energy>  (16) 
60.719180818295165

>  <Genealogy>  (16) 
O=C([O-])c1ccc(S(=O)(=O)[N-]c2cccc(S(=O)(=O)N3CCOCC3)c2)cc1 (protonated)
O=C([O-])c1ccc(S(=O)(=O)[N-]c2cccc(S(=O)(=O)N3CCOCC3)c2)cc1 (3D coordinates assigned)
O=C([O-])c1ccc(S(=O)(=O)[N-]c2cccc(S(=O)(=O)N3CCOCC3)c2)cc1 (nonaromatic ring conformer: 60.719180818295165 kcal/mol)

>  <smiles>  (16) 
O=C(O)c1ccc(S(=O)(=O)Nc2cccc(S(=O)(=O)N3CCOCC3)c2)cc1

>  <score_type>  (16) 
oracle

>  <origin>  (16) 
adgpu

>  <m_score__min__energy>  (16) 
-10.82

>  <m_primary>  (16) 
energy

$$$$
16:0
     RDKit          3D

 44 47  0  0  0  0  0  0  0  0999 V2000
   -6.6650   19.4920  -33.8000 C   0  0  0  0  0  0  0  0  0  0  0  0
   -6.2980   19.9630  -32.5350 C   0  0  0  0  0  0  0  0  0  0  0  0
   -4.9960   19.7670  -32.0640 C   0  0  0  0  0  0  0  0  0  0  0  0
   -4.0500   19.0960  -32.8600 C   0  0  0  0  0  0  0  0  0  0  0  0
   -2.6450   18.8750  -32.3620 C   0  0  0  0  0  0  0  0  0  0  0  0
   -1.7020   19.7620  -33.0770 N   0  0  0  0  0  0  0  0  0  0  0  0
   -2.3690   20.9710  -33.6010 C   0  0  0  0  0  0  0  0  0  0  0  0
   -2.8200   21.9270  -32.4740 C   0  0  0  0  0  0  0  0  0  0  0  0
   -2.0210   21.7400  -31.2440 N   0  0  0  0  0  0  0  0  0  0  0  0
   -2.2020   22.8340  -30.2650 C   0  0  0  0  0  0  0  0  0  0  0  0
   -3.4630   23.6230  -30.4800 C   0  0  0  0  0  0  0  0  0  0  0  0
   -4.6970   23.0800  -30.4910 N   0  0  0  0  0  0  0  0  0  0  0  0
   -5.4590   24.1710  -30.7150 C   0  0  0  0  0  0  0  0  0  0  0  0
   -6.9470   24.1230  -30.8620 C   0  0  0  0  0  0  0  0  0  0  0  0
   -7.5510   22.7340  -30.7210 C   0  0  0  0  0  0  0  0  0  0  0  0
   -7.4340   23.3740  -32.0940 C   0  0  0  0  0  0  0  0  0  0  0  0
   -4.7320   25.2960  -30.8480 N   0  0  0  0  0  0  0  0  0  0  0  0
   -3.5010   24.9160  -30.6890 O   0  0  0  0  0  0  0  0  0  0  0  0
   -0.6100   21.4530  -31.5450 C   0  0  0  0  0  0  0  0  0  0  0  0
   -0.5000   20.0960  -32.2680 C   0  0  0  0  0  0  0  0  0  0  0  0
   -4.4260   18.6270  -34.1300 C   0  0  0  0  0  0  0  0  0  0  0  0
   -5.7290   18.8240  -34.5970 C   0  0  0  0  0  0  0  0  0  0  0  0
   -7.6899   19.6469  -34.1683 H   0  0  0  0  0  0  0  0  0  0  0  0
   -7.0348   20.4884  -31.9097 H   0  0  0  0  0  0  0  0  0  0  0  0
   -4.7109   20.1384  -31.0686 H   0  0  0  0  0  0  0  0  0  0  0  0
   -2.6031   19.0937  -31.2848 H   0  0  0  0  0  0  0  0  0  0  0  0
   -2.3608   17.8283  -32.5451 H   0  0  0  0  0  0  0  0  0  0  0  0
   -1.6673   21.5053  -34.2584 H   0  0  0  0  0  0  0  0  0  0  0  0
   -3.2670   20.6492  -34.1488 H   0  0  0  0  0  0  0  0  0  0  0  0
   -2.7042   22.9648  -32.8196 H   0  0  0  0  0  0  0  0  0  0  0  0
   -3.8708   21.7047  -32.2367 H   0  0  0  0  0  0  0  0  0  0  0  0
   -2.2312   22.3977  -29.2556 H   0  0  0  0  0  0  0  0  0  0  0  0
   -1.3582   23.5280  -30.3930 H   0  0  0  0  0  0  0  0  0  0  0  0
   -7.1464   25.1093  -30.4177 H   0  0  0  0  0  0  0  0  0  0  0  0
   -6.9102   21.8801  -30.4560 H   0  0  0  0  0  0  0  0  0  0  0  0
   -8.3731   22.2998  -30.1332 H   0  0  0  0  0  0  0  0  0  0  0  0
   -6.7084   22.9835  -32.8227 H   0  0  0  0  0  0  0  0  0  0  0  0
   -8.1362   23.5950  -32.9114 H   0  0  0  0  0  0  0  0  0  0  0  0
   -0.2052   22.2458  -32.1912 H   0  0  0  0  0  0  0  0  0  0  0  0
   -0.0374   21.4139  -30.6066 H   0  0  0  0  0  0  0  0  0  0  0  0
    0.3733   20.1261  -32.9361 H   0  0  0  0  0  0  0  0  0  0  0  0
   -0.4026   19.3209  -31.4935 H   0  0  0  0  0  0  0  0  0  0  0  0
   -3.6920   18.1026  -34.7595 H   0  0  0  0  0  0  0  0  0  0  0  0
   -6.0184   18.4536  -35.5915 H   0  0  0  0  0  0  0  0  0  0  0  0
  1  2  2  0
  2  3  1  0
  3  4  2  0
  4  5  1  0
  5  6  1  0
  6  7  1  0
  7  8  1  0
  8  9  1  0
  9 10  1  0
 10 11  1  0
 11 12  2  0
 12 13  1  0
 13 14  1  0
 14 15  1  0
 15 16  1  0
 13 17  2  0
 17 18  1  0
  9 19  1  0
 19 20  1  0
  4 21  1  0
 21 22  2  0
 22  1  1  0
 20  6  1  0
 18 11  1  0
 16 14  1  0
  1 23  1  0
  2 24  1  0
  3 25  1  0
  5 26  1  0
  5 27  1  0
  7 28  1  0
  7 29  1  0
  8 30  1  0
  8 31  1  0
 10 32  1  0
 10 33  1  0
 14 34  1  0
 15 35  1  0
 15 36  1  0
 16 37  1  0
 16 38  1  0
 19 39  1  0
 19 40  1  0
 20 41  1  0
 20 42  1  0
 21 43  1  0
 22 44  1  0
M  END
>  <UniqueID>  (17) 
16

>  <SMILES>  (17) 
c1ccc(CN2CCN(Cc3nc(C4CC4)no3)CC2)cc1

>  <Energy>  (17) 
354.4610106199843

>  <Genealogy>  (17) 
c1ccc(CN2CCN(Cc3nc(C4CC4)no3)CC2)cc1 (3D coordinates assigned)
c1ccc(CN2CCN(Cc3nc(C4CC4)no3)CC2)cc1 (nonaromatic ring conformer: 354.4610106199843 kcal/mol)

>  <smiles>  (17) 
c1ccc(CN2CCN(Cc3nc(C4CC4)no3)CC2)cc1

>  <score_type>  (17) 
oracle

>  <origin>  (17) 
adgpu

>  <m_score__min__energy>  (17) 
-8.4600000000000009

>  <m_primary>  (17) 
energy

$$$$
17:0
     RDKit          3D

 60 63  0  0  0  0  0  0  0  0999 V2000
   -6.7120   24.8570  -29.7480 C   0  0  0  0  0  0  0  0  0  0  0  0
   -5.4040   25.0290  -29.5570 C   0  0  0  0  0  0  0  0  0  0  0  0
   -4.4200   23.9310  -29.6940 C   0  0  0  0  0  0  0  0  0  0  0  0
   -4.5510   22.7930  -30.4850 C   0  0  0  0  0  0  0  0  0  0  0  0
   -5.6230   22.4780  -31.4420 C   0  0  0  0  0  0  0  0  0  0  0  0
   -5.4220   22.6810  -32.6700 O   0  0  0  0  0  0  0  0  0  0  0  0
   -6.9020   22.0130  -30.9890 N   0  0  0  0  0  0  0  0  0  0  0  0
   -7.9590   21.6100  -31.9140 C   0  0  0  0  0  0  0  0  0  0  0  0
   -7.6930   20.2210  -32.4270 C   0  0  0  0  0  0  0  0  0  0  0  0
   -6.7360   20.0160  -33.4330 C   0  0  0  0  0  0  0  0  0  0  0  0
   -6.4640   18.7260  -33.8950 C   0  0  0  0  0  0  0  0  0  0  0  0
   -7.1300   17.6210  -33.3440 C   0  0  0  0  0  0  0  0  0  0  0  0
   -6.8660   16.2400  -33.8660 C   0  0  0  0  0  0  0  0  0  0  0  0
   -8.0960   17.8260  -32.3460 C   0  0  0  0  0  0  0  0  0  0  0  0
   -8.3680   19.1170  -31.8840 C   0  0  0  0  0  0  0  0  0  0  0  0
   -3.5500   21.9330  -30.2120 N   0  0  0  0  0  0  0  0  0  0  0  0
   -2.7630   22.4910  -29.3050 N   0  0  0  0  0  0  0  0  0  0  0  0
   -1.5580   21.8620  -28.8390 C   0  0  0  0  0  0  0  0  0  0  0  0
   -1.1630   22.0160  -27.5040 C   0  0  0  0  0  0  0  0  0  0  0  0
    0.0020   21.4030  -27.0330 C   0  0  0  0  0  0  0  0  0  0  0  0
    0.7840   20.6080  -27.8940 C   0  0  0  0  0  0  0  0  0  0  0  0
    1.9640   19.9720  -27.4780 O   0  0  0  0  0  0  0  0  0  0  0  0
    2.3660   18.6560  -27.8510 C   0  0  0  0  0  0  0  0  0  0  0  0
    3.4420   18.2500  -27.0810 F   0  0  0  0  0  0  0  0  0  0  0  0
    1.3140   17.7730  -27.6910 F   0  0  0  0  0  0  0  0  0  0  0  0
    2.7450   18.6620  -29.1790 F   0  0  0  0  0  0  0  0  0  0  0  0
    0.3740   20.4380  -29.2220 C   0  0  0  0  0  0  0  0  0  0  0  0
   -0.7900   21.0520  -29.6920 C   0  0  0  0  0  0  0  0  0  0  0  0
   -3.2570   23.7060  -28.9620 C   0  0  0  0  0  0  0  0  0  0  0  0
   -2.6500   24.6170  -27.9670 C   0  0  0  0  0  0  0  0  0  0  0  0
   -1.4720   25.3140  -28.2650 C   0  0  0  0  0  0  0  0  0  0  0  0
   -0.9050   26.1660  -27.3150 C   0  0  0  0  0  0  0  0  0  0  0  0
   -1.5220   26.3140  -26.0700 C   0  0  0  0  0  0  0  0  0  0  0  0
   -0.9520   27.1650  -25.1190 O   0  0  0  0  0  0  0  0  0  0  0  0
   -0.8590   26.8250  -23.7410 C   0  0  0  0  0  0  0  0  0  0  0  0
   -2.6690   25.6300  -25.7980 N   0  0  0  0  0  0  0  0  0  0  0  0
   -3.2400   24.7960  -26.7070 C   0  0  0  0  0  0  0  0  0  0  0  0
   -7.4010   25.7068  -29.6335 H   0  0  0  0  0  0  0  0  0  0  0  0
   -7.1024   23.8652  -30.0201 H   0  0  0  0  0  0  0  0  0  0  0  0
   -5.0396   26.0308  -29.2856 H   0  0  0  0  0  0  0  0  0  0  0  0
   -7.1480   22.1090  -29.9790 H   0  0  0  0  0  0  0  0  0  0  0  0
   -8.9264   21.6258  -31.3906 H   0  0  0  0  0  0  0  0  0  0  0  0
   -7.9819   22.3097  -32.7625 H   0  0  0  0  0  0  0  0  0  0  0  0
   -6.1976   20.8751  -33.8597 H   0  0  0  0  0  0  0  0  0  0  0  0
   -5.7239   18.5759  -34.6948 H   0  0  0  0  0  0  0  0  0  0  0  0
   -6.7337   15.5478  -33.0214 H   0  0  0  0  0  0  0  0  0  0  0  0
   -7.7175   15.9110  -34.4797 H   0  0  0  0  0  0  0  0  0  0  0  0
   -5.9532   16.2483  -34.4797 H   0  0  0  0  0  0  0  0  0  0  0  0
   -8.6408   16.9676  -31.9261 H   0  0  0  0  0  0  0  0  0  0  0  0
   -9.1149   19.2683  -31.0908 H   0  0  0  0  0  0  0  0  0  0  0  0
   -1.7742   22.6240  -26.8208 H   0  0  0  0  0  0  0  0  0  0  0  0
    0.3092   21.5420  -25.9860 H   0  0  0  0  0  0  0  0  0  0  0  0
    0.9739   19.8152  -29.9018 H   0  0  0  0  0  0  0  0  0  0  0  0
   -1.1063   20.9004  -30.7346 H   0  0  0  0  0  0  0  0  0  0  0  0
   -0.9935   25.1901  -29.2477 H   0  0  0  0  0  0  0  0  0  0  0  0
    0.0195   26.7160  -27.5448 H   0  0  0  0  0  0  0  0  0  0  0  0
   -1.1001   27.7065  -23.1288 H   0  0  0  0  0  0  0  0  0  0  0  0
   -1.5688   26.0158  -23.5143 H   0  0  0  0  0  0  0  0  0  0  0  0
    0.1638   26.4897  -23.5143 H   0  0  0  0  0  0  0  0  0  0  0  0
   -4.1668   24.2603  -26.4539 H   0  0  0  0  0  0  0  0  0  0  0  0
  1  2  2  0
  2  3  1  0
  3  4  1  0
  4  5  1  0
  5  6  2  0
  5  7  1  0
  7  8  1  0
  8  9  1  0
  9 10  2  0
 10 11  1  0
 11 12  2  0
 12 13  1  0
 12 14  1  0
 14 15  2  0
  4 16  2  0
 16 17  1  0
 17 18  1  0
 18 19  2  0
 19 20  1  0
 20 21  2  0
 21 22  1  0
 22 23  1  0
 23 24  1  0
 23 25  1  0
 23 26  1  0
 21 27  1  0
 27 28  2  0
 17 29  1  0
 29 30  1  0
 30 31  2  0
 31 32  1  0
 32 33  2  0
 33 34  1  0
 34 35  1  0
 33 36  1  0
 36 37  2  0
 29  3  2  0
 37 30  1  0
 15  9  1  0
 28 18  1  0
  1 38  1  0
  1 39  1  0
  2 40  1  0
  7 41  1  0
  8 42  1  0
  8 43  1  0
 10 44  1  0
 11 45  1  0
 13 46  1  0
 13 47  1  0
 13 48  1  0
 14 49  1  0
 15 50  1  0
 19 51  1  0
 20 52  1  0
 27 53  1  0
 28 54  1  0
 31 55  1  0
 32 56  1  0
 35 57  1  0
 35 58  1  0
 35 59  1  0
 37 60  1  0
M  END
>  <UniqueID>  (18) 
17

>  <SMILES>  (18) 
C=Cc1c(C(=O)NCc2ccc(C)cc2)nn(-c2ccc(OC(F)(F)F)cc2)c1-c1ccc(OC)nc1

>  <Energy>  (18) 
105.9171389856884

>  <Genealogy>  (18) 
C=Cc1c(C(=O)NCc2ccc(C)cc2)nn(-c2ccc(OC(F)(F)F)cc2)c1-c1ccc(OC)nc1 (3D coordinates assigned)
C=Cc1c(C(=O)NCc2ccc(C)cc2)nn(-c2ccc(OC(F)(F)F)cc2)c1-c1ccc(OC)nc1 (optimized conformer: 105.9171389856884 kcal/mol)

>  <smiles>  (18) 
C=Cc1c(C(=O)NCc2ccc(C)cc2)nn(-c2ccc(OC(F)(F)F)cc2)c1-c1ccc(OC)nc1

>  <score_type>  (18) 
oracle

>  <origin>  (18) 
adgpu

>  <m_score__min__energy>  (18) 
-8.4100000000000001

>  <m_primary>  (18) 
energy

$$$$
18:0
     RDKit          3D

 47 50  0  0  0  0  0  0  0  0999 V2000
   -5.6140   18.5853  -31.2787 H   0  0  0  0  0  0  0  0  0  0  0  0
   -5.0200   18.2750  -32.1510 C   0  0  0  0  0  0  0  0  0  0  0  0
   -5.4440   17.0600  -32.8870 C   0  0  0  0  0  0  0  0  0  0  0  0
   -6.6890   16.9790  -33.5400 C   0  0  0  0  0  0  0  0  0  0  0  0
   -7.3710   17.8420  -33.5275 H   0  0  0  0  0  0  0  0  0  0  0  0
   -7.0620   15.8070  -34.2040 C   0  0  0  0  0  0  0  0  0  0  0  0
   -8.0300   15.7554  -34.7240 H   0  0  0  0  0  0  0  0  0  0  0  0
   -6.2080   14.7000  -34.2090 C   0  0  0  0  0  0  0  0  0  0  0  0
   -6.5810   13.5370  -34.8700 O   0  0  0  0  0  0  0  0  0  0  0  0
   -4.9820   14.7640  -33.5430 C   0  0  0  0  0  0  0  0  0  0  0  0
   -4.3119   13.8916  -33.5424 H   0  0  0  0  0  0  0  0  0  0  0  0
   -4.6040   15.9340  -32.8770 C   0  0  0  0  0  0  0  0  0  0  0  0
   -3.6435   15.9729  -32.3422 H   0  0  0  0  0  0  0  0  0  0  0  0
   -3.9510   19.0210  -32.4870 C   0  0  0  0  0  0  0  0  0  0  0  0
   -3.1250   18.7230  -33.5130 N   0  0  0  0  0  0  0  0  0  0  0  0
   -2.1660   19.6350  -33.5620 N   0  0  0  0  0  0  0  0  0  0  0  0
   -1.0970   19.6040  -34.5280 C   0  0  0  0  0  0  0  0  0  0  0  0
   -0.5700   18.3850  -34.9940 C   0  0  0  0  0  0  0  0  0  0  0  0
   -0.9843   17.4342  -34.6274 H   0  0  0  0  0  0  0  0  0  0  0  0
    0.4780   18.3760  -35.9210 C   0  0  0  0  0  0  0  0  0  0  0  0
    0.8810   17.4193  -36.2848 H   0  0  0  0  0  0  0  0  0  0  0  0
    1.0130   19.5790  -36.3850 C   0  0  0  0  0  0  0  0  0  0  0  0
    1.8326   19.5695  -37.1186 H   0  0  0  0  0  0  0  0  0  0  0  0
    0.5080   20.7950  -35.9180 C   0  0  0  0  0  0  0  0  0  0  0  0
    0.9336   21.7423  -36.2806 H   0  0  0  0  0  0  0  0  0  0  0  0
   -0.5380   20.8090  -34.9900 C   0  0  0  0  0  0  0  0  0  0  0  0
   -0.9262   21.7690  -34.6189 H   0  0  0  0  0  0  0  0  0  0  0  0
   -2.3510   20.5140  -32.5550 C   0  0  0  0  0  0  0  0  0  0  0  0
   -1.5430   21.4380  -32.2690 O   0  0  0  0  0  0  0  0  0  0  0  0
   -3.4940   20.1770  -31.8420 C   0  0  0  0  0  0  0  0  0  0  0  0
   -4.0190   20.7790  -30.7550 C   0  0  0  0  0  0  0  0  0  0  0  0
   -4.8739   20.2932  -30.2619 H   0  0  0  0  0  0  0  0  0  0  0  0
   -3.5230   22.0460  -30.1830 C   0  0  0  0  0  0  0  0  0  0  0  0
   -2.5730   22.0520  -29.1490 C   0  0  0  0  0  0  0  0  0  0  0  0
   -2.2172   21.1002  -28.7278 H   0  0  0  0  0  0  0  0  0  0  0  0
   -2.0770   23.2600  -28.6520 C   0  0  0  0  0  0  0  0  0  0  0  0
   -1.3452   23.2551  -27.8308 H   0  0  0  0  0  0  0  0  0  0  0  0
   -2.5100   24.4840  -29.1980 C   0  0  0  0  0  0  0  0  0  0  0  0
   -2.0420   25.7210  -28.7290 O   0  0  0  0  0  0  0  0  0  0  0  0
   -0.8280   25.9000  -28.0060 C   0  0  0  0  0  0  0  0  0  0  0  0
   -1.0363   25.8693  -26.9263 H   0  0  0  0  0  0  0  0  0  0  0  0
   -0.1240   25.0959  -28.2666 H   0  0  0  0  0  0  0  0  0  0  0  0
   -0.3861   26.8730  -28.2666 H   0  0  0  0  0  0  0  0  0  0  0  0
   -3.4350   24.4730  -30.2520 C   0  0  0  0  0  0  0  0  0  0  0  0
   -3.8640   25.6700  -30.8120 O   0  0  0  0  0  0  0  0  0  0  0  0
   -3.9290   23.2620  -30.7480 C   0  0  0  0  0  0  0  0  0  0  0  0
   -4.6406   23.2644  -31.5868 H   0  0  0  0  0  0  0  0  0  0  0  0
  1  2  1  0
  2  3  1  0
  3  4  2  0
  4  5  1  0
  4  6  1  0
  6  7  1  0
  6  8  2  0
  8  9  1  0
  8 10  1  0
 10 11  1  0
 10 12  2  0
 12 13  1  0
  2 14  2  3
 14 15  1  0
 15 16  1  0
 16 17  1  0
 17 18  2  0
 18 19  1  0
 18 20  1  0
 20 21  1  0
 20 22  2  0
 22 23  1  0
 22 24  1  0
 24 25  1  0
 24 26  2  0
 26 27  1  0
 16 28  1  0
 28 29  2  0
 28 30  1  0
 30 31  2  0
 31 32  1  0
 31 33  1  0
 33 34  2  0
 34 35  1  0
 34 36  1  0
 36 37  1  0
 36 38  2  0
 38 39  1  0
 39 40  1  0
 40 41  1  0
 40 42  1  0
 40 43  1  0
 38 44  1  0
 44 45  1  0
 44 46  2  0
 46 47  1  0
 12  3  1  0
 30 14  1  0
 46 33  1  0
 26 17  1  0
M  CHG  3   9  -1  15  -1  45  -1
M  END
>  <UniqueID>  (19) 
18

>  <SMILES>  (19) 
COc1ccc(/C=c2/c(=Cc3ccc([O-])cc3)[n-]n(-c3ccccc3)c2=O)cc1[O-]

>  <Energy>  (19) 
103.44168025262427

>  <Genealogy>  (19) 
COc1ccc(C=c2c(=Cc3ccc([O-])cc3)[n-]n(-c3ccccc3)c2=O)cc1[O-] (protonated)
COc1ccc(/C=c2/c(=Cc3ccc([O-])cc3)[n-]n(-c3ccccc3)c2=O)cc1[O-] (cis-trans isomerization)
COc1ccc(/C=c2/c(=Cc3ccc([O-])cc3)[n-]n(-c3ccccc3)c2=O)cc1[O-] (3D coordinates assigned)
COc1ccc(/C=c2/c(=Cc3ccc([O-])cc3)[n-]n(-c3ccccc3)c2=O)cc1[O-] (optimized conformer: 103.44168025262427 kcal/mol)

>  <smiles>  (19) 
COc1ccc(C=c2c(=Cc3ccc(O)cc3)[nH]n(-c3ccccc3)c2=O)cc1O

>  <score_type>  (19) 
oracle

>  <origin>  (19) 
adgpu

>  <m_score__min__energy>  (19) 
-11.02

>  <m_primary>  (19) 
energy

$$$$
19:0
     RDKit          3D

 57 60  0  0  1  0  0  0  0  0999 V2000
    0.2980   20.9440  -27.8460 C   0  0  0  0  0  0  0  0  0  0  0  0
   -0.9820   21.5700  -28.2090 C   0  0  0  0  0  0  0  0  0  0  0  0
   -0.9560   22.6960  -29.0050 C   0  0  0  0  0  0  0  0  0  0  0  0
   -2.1270   23.3250  -29.3780 C   0  0  0  0  0  0  0  0  0  0  0  0
   -3.3780   22.8790  -28.9870 C   0  0  0  0  0  0  0  0  0  0  0  0
   -4.6150   23.5370  -29.3750 C   0  0  0  0  0  0  0  0  0  0  0  0
   -5.5070   22.9300  -30.2490 C   0  0  0  0  0  0  0  0  0  0  0  0
   -6.6980   23.5610  -30.6230 C   0  0  0  0  0  0  0  0  0  0  0  0
   -7.5380   23.0160  -31.4330 N   0  0  0  0  0  0  0  0  0  0  0  0
   -7.2610   21.7310  -31.9730 C   0  0  0  0  0  0  0  0  0  0  0  0
   -8.0680   20.6320  -31.7700 C   0  0  0  0  0  0  0  0  0  0  0  0
   -7.7320   19.4040  -32.3300 C   0  0  0  0  0  0  0  0  0  0  0  0
   -6.6020   19.2250  -33.0990 C   0  0  0  0  0  0  0  0  0  0  0  0
   -6.2490   17.9830  -33.6750 N   0  0  0  0  0  0  0  0  0  0  0  0
   -5.3360   17.8120  -34.7700 C   0  0  0  0  0  0  0  0  0  0  0  0
   -4.3950   16.6840  -34.3810 C   0  0  0  0  0  0  0  0  0  0  0  0
   -5.0690   15.4360  -34.1960 N   0  0  0  0  0  0  0  0  0  0  0  0
   -4.3470   14.6120  -33.2500 C   0  0  0  0  0  0  0  0  0  0  0  0
   -6.4560   15.5380  -33.8680 C   0  0  0  0  0  0  0  0  0  0  0  0
   -6.8540   16.7680  -33.1240 C   0  0  0  0  0  0  0  0  0  0  0  0
   -5.8060   20.3440  -33.2880 C   0  0  0  0  0  0  0  0  0  0  0  0
   -6.1240   21.5760  -32.7390 C   0  0  0  0  0  0  0  0  0  0  0  0
   -7.0040   24.7720  -30.1410 N   0  0  0  0  0  0  0  0  0  0  0  0
   -6.1360   25.3540  -29.2950 C   0  0  0  0  0  0  0  0  0  0  0  0
   -4.9800   24.7550  -28.9250 N   0  0  0  0  0  0  0  0  0  0  0  0
   -3.3990   21.7520  -28.1920 C   0  0  0  0  0  0  0  0  0  0  0  0
   -2.2170   21.1050  -27.8070 C   0  0  0  0  0  0  0  0  0  0  0  0
   -2.2500   19.6810  -26.8010 S   0  0  0  0  0  0  0  0  0  0  0  0
   -3.8630   19.0860  -26.6000 N   0  0  0  0  0  0  0  0  0  0  0  0
   -1.3240   18.6180  -27.2900 O   0  0  0  0  0  0  0  0  0  0  0  0
   -1.7660   20.0670  -25.4320 O   0  0  0  0  0  0  0  0  0  0  0  0
    0.3872   20.9004  -26.7505 H   0  0  0  0  0  0  0  0  0  0  0  0
    0.3376   19.9248  -28.2580 H   0  0  0  0  0  0  0  0  0  0  0  0
    1.1268   21.5385  -28.2580 H   0  0  0  0  0  0  0  0  0  0  0  0
    0.0093   23.0977  -29.3468 H   0  0  0  0  0  0  0  0  0  0  0  0
   -2.0632   24.2202  -30.0140 H   0  0  0  0  0  0  0  0  0  0  0  0
   -5.2728   21.9347  -30.6547 H   0  0  0  0  0  0  0  0  0  0  0  0
   -8.9806   20.7265  -31.1632 H   0  0  0  0  0  0  0  0  0  0  0  0
   -8.3931   18.5429  -32.1525 H   0  0  0  0  0  0  0  0  0  0  0  0
   -5.8865   17.5481  -35.6851 H   0  0  0  0  0  0  0  0  0  0  0  0
   -4.7802   18.7398  -34.9707 H   0  0  0  0  0  0  0  0  0  0  0  0
   -3.6444   16.5631  -35.1760 H   0  0  0  0  0  0  0  0  0  0  0  0
   -3.9334   16.9556  -33.4202 H   0  0  0  0  0  0  0  0  0  0  0  0
   -4.6108   14.9131  -32.2254 H   0  0  0  0  0  0  0  0  0  0  0  0
   -4.6163   13.5565  -33.4028 H   0  0  0  0  0  0  0  0  0  0  0  0
   -3.2652   14.7403  -33.4028 H   0  0  0  0  0  0  0  0  0  0  0  0
   -7.0286   15.5103  -34.8068 H   0  0  0  0  0  0  0  0  0  0  0  0
   -6.6679   14.6961  -33.1925 H   0  0  0  0  0  0  0  0  0  0  0  0
   -7.9485   16.8681  -33.1696 H   0  0  0  0  0  0  0  0  0  0  0  0
   -6.4980   16.6598  -32.0888 H   0  0  0  0  0  0  0  0  0  0  0  0
   -4.8923   20.2510  -33.8934 H   0  0  0  0  0  0  0  0  0  0  0  0
   -5.4640   22.4381  -32.9155 H   0  0  0  0  0  0  0  0  0  0  0  0
   -6.3730   26.3491  -28.8905 H   0  0  0  0  0  0  0  0  0  0  0  0
   -4.3810   25.2840  -28.2700 H   0  0  0  0  0  0  0  0  0  0  0  0
   -4.3657   21.3519  -27.8524 H   0  0  0  0  0  0  0  0  0  0  0  0
   -3.7870   18.1640  -26.1150 H   0  0  0  0  0  0  0  0  0  0  0  0
   -4.3770   19.7250  -25.9540 H   0  0  0  0  0  0  0  0  0  0  0  0
  1  2  1  0
  2  3  2  0
  3  4  1  0
  4  5  2  0
  5  6  1  0
  6  7  2  0
  7  8  1  0
  8  9  2  0
  9 10  1  0
 10 11  2  0
 11 12  1  0
 12 13  2  0
 13 14  1  0
 14 15  1  0
 15 16  1  0
 16 17  1  0
 17 18  1  0
 17 19  1  0
 19 20  1  0
 13 21  1  0
 21 22  2  0
  8 23  1  0
 23 24  2  0
 24 25  1  0
  5 26  1  0
 26 27  2  0
 27 28  1  0
 28 29  1  0
 28 30  2  0
 28 31  2  0
 27  2  1  0
 25  6  1  0
 22 10  1  0
 20 14  1  0
  1 32  1  0
  1 33  1  0
  1 34  1  0
  3 35  1  0
  4 36  1  0
  7 37  1  0
 11 38  1  0
 12 39  1  0
 15 40  1  0
 15 41  1  0
 16 42  1  0
 16 43  1  0
 18 44  1  0
 18 45  1  0
 18 46  1  0
 19 47  1  0
 19 48  1  0
 20 49  1  0
 20 50  1  0
 21 51  1  0
 22 52  1  0
 24 53  1  0
 25 54  1  0
 26 55  1  0
 29 56  1  0
 29 57  1  0
M  END
>  <smiles>  (20) 
Cc1ccc(-c2cc(=Nc3ccc(N4CCN(C)CC4)cc3)nc[nH]2)cc1S(N)(=O)=O

>  <score_type>  (20) 
oracle

>  <origin>  (20) 
adgpu

>  <m_score__min__energy>  (20) 
-10.630000000000001

>  <m_primary>  (20) 
energy

$$$$
20:0
     RDKit          3D

 43 44  0  0  0  0  0  0  0  0999 V2000
   -0.8280   26.7820  -23.3020 C   0  0  0  0  0  0  0  0  0  0  0  0
   -0.0460   25.9800  -24.3400 C   0  0  0  0  0  0  0  0  0  0  0  0
   -0.3320   26.4580  -25.7020 N   0  0  0  0  0  0  0  0  0  0  0  0
    0.4140   27.6150  -26.2240 C   0  0  0  0  0  0  0  0  0  0  0  0
   -0.4910   28.8370  -26.3420 C   0  0  0  0  0  0  0  0  0  0  0  0
   -1.3340   25.7960  -26.5100 C   0  0  0  0  0  0  0  0  0  0  0  0
   -1.0720   25.4770  -27.8540 C   0  0  0  0  0  0  0  0  0  0  0  0
   -2.0410   24.8450  -28.6400 C   0  0  0  0  0  0  0  0  0  0  0  0
   -3.2880   24.5050  -28.0910 C   0  0  0  0  0  0  0  0  0  0  0  0
   -4.3120   23.8790  -28.8820 N   0  0  0  0  0  0  0  0  0  0  0  0
   -4.6290   24.2580  -30.2330 C   0  0  0  0  0  0  0  0  0  0  0  0
   -4.0280   25.2200  -30.7820 O   0  0  0  0  0  0  0  0  0  0  0  0
   -5.6660   23.5440  -31.0030 C   0  0  0  0  0  0  0  0  0  0  0  0
   -7.0270   23.7050  -30.8360 C   0  0  0  0  0  0  0  0  0  0  0  0
   -7.6180   22.8710  -31.7630 C   0  0  0  0  0  0  0  0  0  0  0  0
   -9.0850   22.7030  -31.9690 C   0  0  0  0  0  0  0  0  0  0  0  0
   -6.7000   22.2570  -32.4730 O   0  0  0  0  0  0  0  0  0  0  0  0
   -5.5160   22.6430  -32.0540 C   0  0  0  0  0  0  0  0  0  0  0  0
   -4.2420   22.1650  -32.6710 C   0  0  0  0  0  0  0  0  0  0  0  0
   -3.5610   24.8420  -26.7590 C   0  0  0  0  0  0  0  0  0  0  0  0
   -2.5940   25.4730  -25.9720 C   0  0  0  0  0  0  0  0  0  0  0  0
   -0.5236   26.4699  -22.2921 H   0  0  0  0  0  0  0  0  0  0  0  0
   -0.6188   27.8539  -23.4331 H   0  0  0  0  0  0  0  0  0  0  0  0
   -1.9049   26.5999  -23.4331 H   0  0  0  0  0  0  0  0  0  0  0  0
    1.0305   26.0864  -24.1402 H   0  0  0  0  0  0  0  0  0  0  0  0
   -0.3493   24.9251  -24.2684 H   0  0  0  0  0  0  0  0  0  0  0  0
    1.2444   27.8463  -25.5407 H   0  0  0  0  0  0  0  0  0  0  0  0
    0.7981   27.3639  -27.2237 H   0  0  0  0  0  0  0  0  0  0  0  0
   -0.7563   29.1953  -25.3364 H   0  0  0  0  0  0  0  0  0  0  0  0
    0.0371   29.6331  -26.8874 H   0  0  0  0  0  0  0  0  0  0  0  0
   -1.4065   28.5640  -26.8874 H   0  0  0  0  0  0  0  0  0  0  0  0
   -0.0945   25.7271  -28.2920 H   0  0  0  0  0  0  0  0  0  0  0  0
   -1.8252   24.6131  -29.6934 H   0  0  0  0  0  0  0  0  0  0  0  0
   -4.8130   23.0700  -28.4550 H   0  0  0  0  0  0  0  0  0  0  0  0
   -7.5347   24.3616  -30.1141 H   0  0  0  0  0  0  0  0  0  0  0  0
   -9.5882   22.6454  -30.9925 H   0  0  0  0  0  0  0  0  0  0  0  0
   -9.4768   23.5621  -32.5332 H   0  0  0  0  0  0  0  0  0  0  0  0
   -9.2724   21.7775  -32.5332 H   0  0  0  0  0  0  0  0  0  0  0  0
   -3.5284   21.8972  -31.8779 H   0  0  0  0  0  0  0  0  0  0  0  0
   -4.4453   21.2820  -33.2947 H   0  0  0  0  0  0  0  0  0  0  0  0
   -3.8143   22.9638  -33.2947 H   0  0  0  0  0  0  0  0  0  0  0  0
   -4.5458   24.6077  -26.3286 H   0  0  0  0  0  0  0  0  0  0  0  0
   -2.8192   25.7192  -24.9238 H   0  0  0  0  0  0  0  0  0  0  0  0
  1  2  1  0
  2  3  1  0
  3  4  1  0
  4  5  1  0
  3  6  1  0
  6  7  2  0
  7  8  1  0
  8  9  2  0
  9 10  1  0
 10 11  1  0
 11 12  2  0
 11 13  1  0
 13 14  1  0
 14 15  2  0
 15 16  1  0
 15 17  1  0
 17 18  1  0
 18 19  1  0
  9 20  1  0
 20 21  2  0
 21  6  1  0
 18 13  2  0
  1 22  1  0
  1 23  1  0
  1 24  1  0
  2 25  1  0
  2 26  1  0
  4 27  1  0
  4 28  1  0
  5 29  1  0
  5 30  1  0
  5 31  1  0
  7 32  1  0
  8 33  1  0
 10 34  1  0
 14 35  1  0
 16 36  1  0
 16 37  1  0
 16 38  1  0
 19 39  1  0
 19 40  1  0
 19 41  1  0
 20 42  1  0
 21 43  1  0
M  END
>  <UniqueID>  (21) 
19

>  <SMILES>  (21) 
CCN(CC)c1ccc(NC(=O)c2cc(C)oc2C)cc1

>  <Energy>  (21) 
70.93629082657955

>  <Genealogy>  (21) 
CCN(CC)c1ccc(NC(=O)c2cc(C)oc2C)cc1 (3D coordinates assigned)
CCN(CC)c1ccc(NC(=O)c2cc(C)oc2C)cc1 (optimized conformer: 70.93629082657955 kcal/mol)

>  <smiles>  (21) 
CCN(CC)c1ccc(NC(=O)c2cc(C)oc2C)cc1

>  <score_type>  (21) 
oracle

>  <origin>  (21) 
adgpu

>  <m_score__min__energy>  (21) 
-6.9299999999999997

>  <m_primary>  (21) 
energy

$$$$
21:0
     RDKit          3D

 46 48  0  0  0  0  0  0  0  0999 V2000
   -1.6220   24.6620  -28.9230 H   0  0  0  0  0  0  0  0  0  0  0  0
   -2.3380   25.2970  -29.3400 N   0  0  0  0  0  0  0  0  0  0  0  0
   -3.4060   24.8570  -29.9260 C   0  0  0  0  0  0  0  0  0  0  0  0
   -4.3060   25.6700  -30.5080 N   0  0  0  0  0  0  0  0  0  0  0  0
   -5.2250   24.9010  -31.0700 N   0  0  0  0  0  0  0  0  0  0  0  0
   -6.0560   25.2720  -31.5840 H   0  0  0  0  0  0  0  0  0  0  0  0
   -4.9340   23.6010  -30.8530 C   0  0  0  0  0  0  0  0  0  0  0  0
   -5.7750   22.4800  -31.3280 C   0  0  0  0  0  0  0  0  0  0  0  0
   -7.0890   22.3390  -30.8550 C   0  0  0  0  0  0  0  0  0  0  0  0
   -7.4864   23.0586  -30.1241 H   0  0  0  0  0  0  0  0  0  0  0  0
   -7.8960   21.2910  -31.3060 C   0  0  0  0  0  0  0  0  0  0  0  0
   -8.9269   21.1946  -30.9345 H   0  0  0  0  0  0  0  0  0  0  0  0
   -7.3950   20.3580  -32.2340 C   0  0  0  0  0  0  0  0  0  0  0  0
   -8.1660   19.2920  -32.7210 O   0  0  0  0  0  0  0  0  0  0  0  0
   -7.9860   17.9320  -32.3410 C   0  0  0  0  0  0  0  0  0  0  0  0
   -7.9760   17.8561  -31.2437 H   0  0  0  0  0  0  0  0  0  0  0  0
   -8.8119   17.3266  -32.7428 H   0  0  0  0  0  0  0  0  0  0  0  0
   -7.0311   17.5623  -32.7428 H   0  0  0  0  0  0  0  0  0  0  0  0
   -6.0800   20.4910  -32.6910 C   0  0  0  0  0  0  0  0  0  0  0  0
   -5.6782   19.7646  -33.4127 H   0  0  0  0  0  0  0  0  0  0  0  0
   -5.2720   21.5370  -32.2400 C   0  0  0  0  0  0  0  0  0  0  0  0
   -4.2364   21.6230  -32.6007 H   0  0  0  0  0  0  0  0  0  0  0  0
   -3.7590   23.5260  -30.1110 C   0  0  0  0  0  0  0  0  0  0  0  0
   -3.0090   22.3180  -29.7090 C   0  0  0  0  0  0  0  0  0  0  0  0
   -3.1850   21.7750  -28.4310 C   0  0  0  0  0  0  0  0  0  0  0  0
   -3.9091   22.2354  -27.7428 H   0  0  0  0  0  0  0  0  0  0  0  0
   -2.4510   20.6500  -28.0120 C   0  0  0  0  0  0  0  0  0  0  0  0
   -2.6140   20.1250  -26.7200 O   0  0  0  0  0  0  0  0  0  0  0  0
   -3.3110   18.9230  -26.4090 C   0  0  0  0  0  0  0  0  0  0  0  0
   -3.3769   18.8094  -25.3169 H   0  0  0  0  0  0  0  0  0  0  0  0
   -4.3243   18.9660  -26.8349 H   0  0  0  0  0  0  0  0  0  0  0  0
   -2.7703   18.0649  -26.8349 H   0  0  0  0  0  0  0  0  0  0  0  0
   -1.5340   20.0480  -28.9150 C   0  0  0  0  0  0  0  0  0  0  0  0
   -0.7610   18.9130  -28.6010 O   0  0  0  0  0  0  0  0  0  0  0  0
    0.6140   18.8980  -28.2350 C   0  0  0  0  0  0  0  0  0  0  0  0
    0.7016   18.8970  -27.1385 H   0  0  0  0  0  0  0  0  0  0  0  0
    1.0919   17.9946  -28.6418 H   0  0  0  0  0  0  0  0  0  0  0  0
    1.1115   19.7908  -28.6418 H   0  0  0  0  0  0  0  0  0  0  0  0
   -1.3630   20.5920  -30.1990 C   0  0  0  0  0  0  0  0  0  0  0  0
   -0.4440   19.9740  -31.0630 O   0  0  0  0  0  0  0  0  0  0  0  0
   -0.2630   20.3180  -32.4330 C   0  0  0  0  0  0  0  0  0  0  0  0
    0.2482   21.2895  -32.5027 H   0  0  0  0  0  0  0  0  0  0  0  0
    0.3462   19.5469  -32.9273 H   0  0  0  0  0  0  0  0  0  0  0  0
   -1.2435   20.3833  -32.9273 H   0  0  0  0  0  0  0  0  0  0  0  0
   -2.0960   21.7270  -30.5870 C   0  0  0  0  0  0  0  0  0  0  0  0
   -1.9498   22.1537  -31.5903 H   0  0  0  0  0  0  0  0  0  0  0  0
  1  2  1  0
  2  3  2  0
  3  4  1  0
  4  5  1  0
  5  6  1  0
  5  7  1  0
  7  8  1  0
  8  9  2  0
  9 10  1  0
  9 11  1  0
 11 12  1  0
 11 13  2  0
 13 14  1  0
 14 15  1  0
 15 16  1  0
 15 17  1  0
 15 18  1  0
 13 19  1  0
 19 20  1  0
 19 21  2  0
 21 22  1  0
  7 23  2  0
 23 24  1  0
 24 25  2  0
 25 26  1  0
 25 27  1  0
 27 28  1  0
 28 29  1  0
 29 30  1  0
 29 31  1  0
 29 32  1  0
 27 33  2  0
 33 34  1  0
 34 35  1  0
 35 36  1  0
 35 37  1  0
 35 38  1  0
 33 39  1  0
 39 40  1  0
 40 41  1  0
 41 42  1  0
 41 43  1  0
 41 44  1  0
 39 45  2  0
 45 46  1  0
 23  3  1  0
 45 24  1  0
 21  8  1  0
M  CHG  1   4  -1
M  END
>  <UniqueID>  (22) 
20

>  <SMILES>  (22) 
[H]/N=c1/[n-][nH]c(-c2ccc(OC)cc2)c1-c1cc(OC)c(OC)c(OC)c1

>  <Energy>  (22) 
88.96504685285555

>  <Genealogy>  (22) 
COc1ccc(-c2[nH][n-]c(=N)c2-c2cc(OC)c(OC)c(OC)c2)cc1 (protonated)
[H]/N=c1/[n-][nH]c(-c2ccc(OC)cc2)c1-c1cc(OC)c(OC)c(OC)c1 (cis-trans isomerization)
[H]/N=c1/[n-][nH]c(-c2ccc(OC)cc2)c1-c1cc(OC)c(OC)c(OC)c1 (3D coordinates assigned)
[H]/N=c1/[n-][nH]c(-c2ccc(OC)cc2)c1-c1cc(OC)c(OC)c(OC)c1 (optimized conformer: 88.96504685285555 kcal/mol)

>  <smiles>  (22) 
COc1ccc(-c2[nH][nH]c(=N)c2-c2cc(OC)c(OC)c(OC)c2)cc1

>  <score_type>  (22) 
oracle

>  <origin>  (22) 
adgpu

>  <m_score__min__energy>  (22) 
-8.4000000000000004

>  <m_primary>  (22) 
energy

$$$$
22:0
     RDKit          3D

 55 57  0  0  0  0  0  0  0  0999 V2000
   -7.2990   17.4080  -32.5160 C   0  0  0  0  0  0  0  0  0  0  0  0
   -6.0000   17.5650  -33.2480 C   0  0  0  0  0  0  0  0  0  0  0  0
   -5.8490   17.0430  -34.5410 C   0  0  0  0  0  0  0  0  0  0  0  0
   -4.6310   17.1660  -35.2100 C   0  0  0  0  0  0  0  0  0  0  0  0
   -3.5450   17.7820  -34.5820 C   0  0  0  0  0  0  0  0  0  0  0  0
   -3.6630   18.2660  -33.2700 C   0  0  0  0  0  0  0  0  0  0  0  0
   -2.5180   18.8650  -32.6370 N   0  0  0  0  0  0  0  0  0  0  0  0
   -1.9260   20.1020  -33.0570 C   0  0  0  0  0  0  0  0  0  0  0  0
   -2.3160   20.6780  -34.1080 O   0  0  0  0  0  0  0  0  0  0  0  0
   -0.8850   20.6900  -32.2660 N   0  0  0  0  0  0  0  0  0  0  0  0
   -1.0450   21.1230  -30.9060 C   0  0  0  0  0  0  0  0  0  0  0  0
   -0.1700   20.6390  -29.9330 C   0  0  0  0  0  0  0  0  0  0  0  0
   -0.2960   21.0580  -28.6110 C   0  0  0  0  0  0  0  0  0  0  0  0
   -1.3110   21.9510  -28.2670 C   0  0  0  0  0  0  0  0  0  0  0  0
   -2.2010   22.3960  -29.2080 N   0  0  0  0  0  0  0  0  0  0  0  0
   -3.2400   23.3650  -28.8130 C   0  0  0  0  0  0  0  0  0  0  0  0
   -2.9640   24.7100  -29.4340 C   0  0  0  0  0  0  0  0  0  0  0  0
   -2.0210   25.4070  -28.9760 O   0  0  0  0  0  0  0  0  0  0  0  0
   -3.7620   25.2560  -30.4940 N   0  0  0  0  0  0  0  0  0  0  0  0
   -5.2070   25.4650  -30.4810 C   0  0  0  0  0  0  0  0  0  0  0  0
   -5.9400   24.1620  -30.6630 C   0  0  0  0  0  0  0  0  0  0  0  0
   -6.9390   23.7780  -29.7540 C   0  0  0  0  0  0  0  0  0  0  0  0
   -7.6090   22.5640  -29.9130 C   0  0  0  0  0  0  0  0  0  0  0  0
   -7.2860   21.7170  -30.9740 C   0  0  0  0  0  0  0  0  0  0  0  0
   -6.2740   22.0720  -31.8830 C   0  0  0  0  0  0  0  0  0  0  0  0
   -5.9310   21.1800  -33.0170 C   0  0  0  0  0  0  0  0  0  0  0  0
   -6.9590   20.4110  -33.6540 N   0  0  0  0  0  0  0  0  0  0  0  0
   -4.7010   21.0740  -33.4260 N   0  0  0  0  0  0  0  0  0  0  0  0
   -5.5930   23.2900  -31.7100 C   0  0  0  0  0  0  0  0  0  0  0  0
   -2.0920   21.9810  -30.5120 C   0  0  0  0  0  0  0  0  0  0  0  0
   -2.9480   22.3460  -31.3610 O   0  0  0  0  0  0  0  0  0  0  0  0
   -4.9040   18.1740  -32.6160 C   0  0  0  0  0  0  0  0  0  0  0  0
   -7.1140   17.4304  -31.4319 H   0  0  0  0  0  0  0  0  0  0  0  0
   -7.9758   18.2309  -32.7895 H   0  0  0  0  0  0  0  0  0  0  0  0
   -7.7603   16.4476  -32.7895 H   0  0  0  0  0  0  0  0  0  0  0  0
   -6.6937   16.5349  -35.0292 H   0  0  0  0  0  0  0  0  0  0  0  0
   -4.5252   16.7774  -36.2336 H   0  0  0  0  0  0  0  0  0  0  0  0
   -2.5913   17.8882  -35.1197 H   0  0  0  0  0  0  0  0  0  0  0  0
   -2.2160   18.4860  -31.7090 H   0  0  0  0  0  0  0  0  0  0  0  0
    0.6201   19.9258  -30.2104 H   0  0  0  0  0  0  0  0  0  0  0  0
    0.3997   20.6876  -27.8437 H   0  0  0  0  0  0  0  0  0  0  0  0
   -1.3975   22.3018  -27.2280 H   0  0  0  0  0  0  0  0  0  0  0  0
   -4.2217   23.0031  -29.1526 H   0  0  0  0  0  0  0  0  0  0  0  0
   -3.2348   23.4687  -27.7179 H   0  0  0  0  0  0  0  0  0  0  0  0
   -5.4978   25.9104  -29.5182 H   0  0  0  0  0  0  0  0  0  0  0  0
   -5.4725   26.1366  -31.3108 H   0  0  0  0  0  0  0  0  0  0  0  0
   -7.1950   24.4377  -28.9118 H   0  0  0  0  0  0  0  0  0  0  0  0
   -8.3944   22.2738  -29.1995 H   0  0  0  0  0  0  0  0  0  0  0  0
   -7.8259   20.7669  -31.0997 H   0  0  0  0  0  0  0  0  0  0  0  0
   -6.7290   19.7450  -34.4260 H   0  0  0  0  0  0  0  0  0  0  0  0
   -7.9620   20.5410  -33.3970 H   0  0  0  0  0  0  0  0  0  0  0  0
   -3.9220   21.5830  -32.9530 H   0  0  0  0  0  0  0  0  0  0  0  0
   -4.4570   20.4450  -34.2230 H   0  0  0  0  0  0  0  0  0  0  0  0
   -4.7812   23.5632  -32.4002 H   0  0  0  0  0  0  0  0  0  0  0  0
   -5.0173   18.5824  -31.6009 H   0  0  0  0  0  0  0  0  0  0  0  0
  1  2  1  0
  2  3  2  0
  3  4  1  0
  4  5  2  0
  5  6  1  0
  6  7  1  0
  7  8  1  0
  8  9  2  0
  8 10  1  0
 10 11  1  0
 11 12  2  0
 12 13  1  0
 13 14  2  0
 14 15  1  0
 15 16  1  0
 16 17  1  0
 17 18  2  0
 17 19  1  0
 19 20  1  0
 20 21  1  0
 21 22  2  0
 22 23  1  0
 23 24  2  0
 24 25  1  0
 25 26  1  0
 26 27  1  0
 26 28  2  0
 25 29  2  0
 15 30  1  0
 30 31  2  0
  6 32  2  0
 32  2  1  0
 30 11  1  0
 29 21  1  0
  1 33  1  0
  1 34  1  0
  1 35  1  0
  3 36  1  0
  4 37  1  0
  5 38  1  0
  7 39  1  0
 12 40  1  0
 13 41  1  0
 14 42  1  0
 16 43  1  0
 16 44  1  0
 20 45  1  0
 20 46  1  0
 22 47  1  0
 23 48  1  0
 24 49  1  0
 27 50  1  0
 27 51  1  0
 28 52  1  0
 28 53  1  0
 29 54  1  0
 32 55  1  0
M  CHG  3  10  -1  19  -1  28   1
M  END
>  <UniqueID>  (23) 
21

>  <SMILES>  (23) 
Cc1cccc(NC(=O)[N-]c2cccn(CC(=O)[N-]Cc3cccc(C(N)=[NH2+])c3)c2=O)c1

>  <Energy>  (23) 
63.300971388192146

>  <Genealogy>  (23) 
Cc1cccc(NC(=O)[N-]c2cccn(CC(=O)[N-]Cc3cccc(C(N)=[NH2+])c3)c2=O)c1 (protonated)
Cc1cccc(NC(=O)[N-]c2cccn(CC(=O)[N-]Cc3cccc(C(N)=[NH2+])c3)c2=O)c1 (3D coordinates assigned)
Cc1cccc(NC(=O)[N-]c2cccn(CC(=O)[N-]Cc3cccc(C(N)=[NH2+])c3)c2=O)c1 (optimized conformer: 63.300971388192146 kcal/mol)

>  <smiles>  (23) 
Cc1cccc(NC(=O)Nc2cccn(CC(=O)NCc3cccc(C(=N)N)c3)c2=O)c1

>  <score_type>  (23) 
oracle

>  <origin>  (23) 
adgpu

>  <m_score__min__energy>  (23) 
-11.789999999999999

>  <m_primary>  (23) 
energy

$$$$
23:0
     RDKit          3D

 61 64  0  0  0  0  0  0  0  0999 V2000
    0.6280   24.4020  -36.2080 C   0  0  0  0  0  0  0  0  0  0  0  0
    1.6300   23.3390  -35.8700 C   0  0  0  0  0  0  0  0  0  0  0  0
    2.9480   23.4470  -36.3400 C   0  0  0  0  0  0  0  0  0  0  0  0
    3.8770   22.4400  -36.0640 C   0  0  0  0  0  0  0  0  0  0  0  0
    3.5000   21.3220  -35.3170 C   0  0  0  0  0  0  0  0  0  0  0  0
    2.1860   21.2090  -34.8260 C   0  0  0  0  0  0  0  0  0  0  0  0
    1.7550   20.0590  -34.0810 N   0  0  0  0  0  0  0  0  0  0  0  0
    0.4850   19.9150  -33.4340 C   0  0  0  0  0  0  0  0  0  0  0  0
    0.3980   20.1470  -32.1980 O   0  0  0  0  0  0  0  0  0  0  0  0
   -0.6550   19.4260  -34.1580 N   0  0  0  0  0  0  0  0  0  0  0  0
   -2.0140   19.7860  -33.8590 C   0  0  0  0  0  0  0  0  0  0  0  0
   -2.3650   21.1420  -33.7890 C   0  0  0  0  0  0  0  0  0  0  0  0
   -3.6630   21.5220  -33.4390 C   0  0  0  0  0  0  0  0  0  0  0  0
   -4.6220   20.5550  -33.1200 C   0  0  0  0  0  0  0  0  0  0  0  0
   -5.9080   20.9720  -32.7490 O   0  0  0  0  0  0  0  0  0  0  0  0
   -6.1960   21.9310  -31.7670 C   0  0  0  0  0  0  0  0  0  0  0  0
   -7.2890   21.7200  -30.9220 C   0  0  0  0  0  0  0  0  0  0  0  0
   -7.6180   22.6810  -29.9650 C   0  0  0  0  0  0  0  0  0  0  0  0
   -6.8840   23.8210  -29.8620 N   0  0  0  0  0  0  0  0  0  0  0  0
   -5.8170   24.0660  -30.6720 C   0  0  0  0  0  0  0  0  0  0  0  0
   -5.0670   25.3270  -30.5160 C   0  0  0  0  0  0  0  0  0  0  0  0
   -5.6820   26.4250  -30.4420 O   0  0  0  0  0  0  0  0  0  0  0  0
   -3.6340   25.2940  -30.4570 N   0  0  0  0  0  0  0  0  0  0  0  0
   -2.8290   24.4220  -29.5980 C   0  0  0  0  0  0  0  0  0  0  0  0
   -2.4720   23.1140  -30.3250 C   0  0  0  0  0  0  0  0  0  0  0  0
   -1.7860   22.1320  -29.3630 C   0  0  0  0  0  0  0  0  0  0  0  0
   -2.5340   21.9030  -28.0950 N   0  0  0  0  0  0  0  0  0  0  0  0
   -2.8230   20.4740  -27.8970 C   0  0  0  0  0  0  0  0  0  0  0  0
   -3.7760   22.6940  -27.9600 C   0  0  0  0  0  0  0  0  0  0  0  0
   -3.5120   24.1820  -28.2290 C   0  0  0  0  0  0  0  0  0  0  0  0
   -5.4580   23.1200  -31.6470 C   0  0  0  0  0  0  0  0  0  0  0  0
   -4.2820   19.1940  -33.2070 C   0  0  0  0  0  0  0  0  0  0  0  0
   -2.9860   18.8130  -33.5640 C   0  0  0  0  0  0  0  0  0  0  0  0
    1.2510   22.2070  -35.1280 C   0  0  0  0  0  0  0  0  0  0  0  0
    0.2226   24.8321  -35.2803 H   0  0  0  0  0  0  0  0  0  0  0  0
    1.1167   25.1929  -36.7959 H   0  0  0  0  0  0  0  0  0  0  0  0
   -0.1904   23.9608  -36.7959 H   0  0  0  0  0  0  0  0  0  0  0  0
    3.2506   24.3266  -36.9272 H   0  0  0  0  0  0  0  0  0  0  0  0
    4.9083   22.5284  -36.4363 H   0  0  0  0  0  0  0  0  0  0  0  0
    4.2323   20.5273  -35.1118 H   0  0  0  0  0  0  0  0  0  0  0  0
   -0.4790   18.7720  -34.9580 H   0  0  0  0  0  0  0  0  0  0  0  0
   -1.6122   21.9126  -34.0115 H   0  0  0  0  0  0  0  0  0  0  0  0
   -3.9325   22.5882  -33.4141 H   0  0  0  0  0  0  0  0  0  0  0  0
   -7.8870   20.8010  -31.0108 H   0  0  0  0  0  0  0  0  0  0  0  0
   -8.4728   22.5159  -29.2927 H   0  0  0  0  0  0  0  0  0  0  0  0
   -1.8806   24.9346  -29.3793 H   0  0  0  0  0  0  0  0  0  0  0  0
   -3.3920   22.6546  -30.7157 H   0  0  0  0  0  0  0  0  0  0  0  0
   -1.7818   23.3433  -31.1503 H   0  0  0  0  0  0  0  0  0  0  0  0
   -1.6731   21.1661  -29.8772 H   0  0  0  0  0  0  0  0  0  0  0  0
   -0.8203   22.5802  -29.0862 H   0  0  0  0  0  0  0  0  0  0  0  0
   -2.8674   20.2547  -26.8200 H   0  0  0  0  0  0  0  0  0  0  0  0
   -3.7892   20.2275  -28.3615 H   0  0  0  0  0  0  0  0  0  0  0  0
   -2.0285   19.8714  -28.3615 H   0  0  0  0  0  0  0  0  0  0  0  0
   -4.5185   22.3240  -28.6823 H   0  0  0  0  0  0  0  0  0  0  0  0
   -4.1512   22.5848  -26.9318 H   0  0  0  0  0  0  0  0  0  0  0  0
   -4.4716   24.7195  -28.2139 H   0  0  0  0  0  0  0  0  0  0  0  0
   -2.8322   24.5491  -27.4460 H   0  0  0  0  0  0  0  0  0  0  0  0
   -4.6033   23.3097  -32.3129 H   0  0  0  0  0  0  0  0  0  0  0  0
   -5.0394   18.4255  -32.9931 H   0  0  0  0  0  0  0  0  0  0  0  0
   -2.7243   17.7458  -33.6147 H   0  0  0  0  0  0  0  0  0  0  0  0
    0.2120   22.1042  -34.7818 H   0  0  0  0  0  0  0  0  0  0  0  0
  1  2  1  0
  2  3  2  0
  3  4  1  0
  4  5  2  0
  5  6  1  0
  6  7  1  0
  7  8  1  0
  8  9  2  0
  8 10  1  0
 10 11  1  0
 11 12  2  0
 12 13  1  0
 13 14  2  0
 14 15  1  0
 15 16  1  0
 16 17  2  0
 17 18  1  0
 18 19  2  0
 19 20  1  0
 20 21  1  0
 21 22  2  0
 21 23  1  0
 23 24  1  0
 24 25  1  0
 25 26  1  0
 26 27  1  0
 27 28  1  0
 27 29  1  0
 29 30  1  0
 20 31  2  0
 14 32  1  0
 32 33  2  0
  6 34  2  0
 34  2  1  0
 33 11  1  0
 31 16  1  0
 30 24  1  0
  1 35  1  0
  1 36  1  0
  1 37  1  0
  3 38  1  0
  4 39  1  0
  5 40  1  0
 10 41  1  0
 12 42  1  0
 13 43  1  0
 17 44  1  0
 18 45  1  0
 24 46  1  0
 25 47  1  0
 25 48  1  0
 26 49  1  0
 26 50  1  0
 28 51  1  0
 28 52  1  0
 28 53  1  0
 29 54  1  0
 29 55  1  0
 30 56  1  0
 30 57  1  0
 31 58  1  0
 32 59  1  0
 33 60  1  0
 34 61  1  0
M  CHG  2   7  -1  23  -1
M  END
>  <UniqueID>  (24) 
22

>  <SMILES>  (24) 
Cc1cccc([N-]C(=O)Nc2ccc(Oc3ccnc(C(=O)[N-]C4CCN(C)CC4)c3)cc2)c1

>  <Energy>  (24) 
84.86855170360619

>  <Genealogy>  (24) 
Cc1cccc([N-]C(=O)Nc2ccc(Oc3ccnc(C(=O)[N-]C4CCN(C)CC4)c3)cc2)c1 (protonated)
Cc1cccc([N-]C(=O)Nc2ccc(Oc3ccnc(C(=O)[N-]C4CCN(C)CC4)c3)cc2)c1 (3D coordinates assigned)
Cc1cccc([N-]C(=O)Nc2ccc(Oc3ccnc(C(=O)[N-]C4CCN(C)CC4)c3)cc2)c1 (nonaromatic ring conformer: 84.86855170360619 kcal/mol)

>  <smiles>  (24) 
Cc1cccc(NC(=O)Nc2ccc(Oc3ccnc(C(=O)NC4CCN(C)CC4)c3)cc2)c1

>  <score_type>  (24) 
oracle

>  <origin>  (24) 
adgpu

>  <m_score__min__energy>  (24) 
-11.81

>  <m_primary>  (24) 
energy

$$$$
24:0
     RDKit          3D

 57 60  0  0  0  0  0  0  0  0999 V2000
   -1.2870   19.9030  -34.3880 C   0  0  0  0  0  0  0  0  0  0  0  0
   -1.9230   20.3060  -33.1220 N   0  0  0  0  0  0  0  0  0  0  0  0
   -2.6300   21.5850  -33.3190 C   0  0  0  0  0  0  0  0  0  0  0  0
   -0.9060   20.4210  -32.0530 C   0  0  0  0  0  0  0  0  0  0  0  0
    0.0580   19.2340  -32.1000 C   0  0  0  0  0  0  0  0  0  0  0  0
   -0.6700   18.0080  -31.7900 N   0  0  0  0  0  0  0  0  0  0  0  0
   -0.4860   16.7360  -32.4260 C   0  0  0  0  0  0  0  0  0  0  0  0
    0.3720   15.9460  -31.9510 O   0  0  0  0  0  0  0  0  0  0  0  0
   -1.2430   16.3210  -33.6260 C   0  0  0  0  0  0  0  0  0  0  0  0
   -0.6120   15.5910  -34.6580 C   0  0  0  0  0  0  0  0  0  0  0  0
   -1.3480   15.1330  -35.7720 C   0  0  0  0  0  0  0  0  0  0  0  0
   -2.7290   15.3770  -35.8640 C   0  0  0  0  0  0  0  0  0  0  0  0
   -3.3330   16.0770  -34.8230 C   0  0  0  0  0  0  0  0  0  0  0  0
   -4.6450   16.4440  -34.6280 C   0  0  0  0  0  0  0  0  0  0  0  0
   -4.6420   17.1230  -33.4060 C   0  0  0  0  0  0  0  0  0  0  0  0
   -5.7950   17.8170  -32.7730 C   0  0  0  0  0  0  0  0  0  0  0  0
   -7.0350   17.1560  -32.6860 C   0  0  0  0  0  0  0  0  0  0  0  0
   -8.1760   17.8340  -32.2600 C   0  0  0  0  0  0  0  0  0  0  0  0
   -8.1120   19.1900  -31.9500 C   0  0  0  0  0  0  0  0  0  0  0  0
   -6.8920   19.8780  -32.0250 C   0  0  0  0  0  0  0  0  0  0  0  0
   -6.8580   21.3380  -31.7650 C   0  0  0  0  0  0  0  0  0  0  0  0
   -7.9480   22.1540  -32.1090 C   0  0  0  0  0  0  0  0  0  0  0  0
   -7.8940   23.5330  -31.8830 C   0  0  0  0  0  0  0  0  0  0  0  0
   -6.7530   24.1090  -31.3170 C   0  0  0  0  0  0  0  0  0  0  0  0
   -5.6570   23.3060  -30.9730 C   0  0  0  0  0  0  0  0  0  0  0  0
   -4.2010   24.0160  -30.2860 S   0  0  0  0  0  0  0  0  0  0  0  0
   -4.2480   25.7310  -30.4960 N   0  0  0  0  0  0  0  0  0  0  0  0
   -2.9920   23.4550  -30.9830 O   0  0  0  0  0  0  0  0  0  0  0  0
   -4.1090   23.6950  -28.8200 O   0  0  0  0  0  0  0  0  0  0  0  0
   -5.7120   21.9260  -31.2020 C   0  0  0  0  0  0  0  0  0  0  0  0
   -5.7170   19.1770  -32.3730 C   0  0  0  0  0  0  0  0  0  0  0  0
   -4.4940   19.8500  -32.2740 O   0  0  0  0  0  0  0  0  0  0  0  0
   -3.4200   17.1400  -32.9090 O   0  0  0  0  0  0  0  0  0  0  0  0
   -2.6220   16.5300  -33.7470 C   0  0  0  0  0  0  0  0  0  0  0  0
   -0.3757   19.3256  -34.1730 H   0  0  0  0  0  0  0  0  0  0  0  0
   -1.9859   19.2826  -34.9682 H   0  0  0  0  0  0  0  0  0  0  0  0
   -1.0244   20.7999  -34.9682 H   0  0  0  0  0  0  0  0  0  0  0  0
   -2.8728   22.0243  -32.3402 H   0  0  0  0  0  0  0  0  0  0  0  0
   -1.9862   22.2769  -33.8819 H   0  0  0  0  0  0  0  0  0  0  0  0
   -3.5583   21.4079  -33.8819 H   0  0  0  0  0  0  0  0  0  0  0  0
   -0.3390   21.3534  -32.1916 H   0  0  0  0  0  0  0  0  0  0  0  0
   -1.4146   20.4276  -31.0776 H   0  0  0  0  0  0  0  0  0  0  0  0
    0.4964   19.1565  -33.1059 H   0  0  0  0  0  0  0  0  0  0  0  0
    0.8606   19.3821  -31.3625 H   0  0  0  0  0  0  0  0  0  0  0  0
    0.4650   15.3771  -34.5926 H   0  0  0  0  0  0  0  0  0  0  0  0
   -0.8367   14.5808  -36.5743 H   0  0  0  0  0  0  0  0  0  0  0  0
   -3.3124   15.0271  -36.7284 H   0  0  0  0  0  0  0  0  0  0  0  0
   -5.5039   16.2471  -35.2864 H   0  0  0  0  0  0  0  0  0  0  0  0
   -7.1042   16.0922  -32.9573 H   0  0  0  0  0  0  0  0  0  0  0  0
   -9.1309   17.2956  -32.1683 H   0  0  0  0  0  0  0  0  0  0  0  0
   -9.0235   19.7247  -31.6445 H   0  0  0  0  0  0  0  0  0  0  0  0
   -8.8473   21.7069  -32.5577 H   0  0  0  0  0  0  0  0  0  0  0  0
   -8.7522   24.1665  -32.1515 H   0  0  0  0  0  0  0  0  0  0  0  0
   -6.7153   25.1942  -31.1413 H   0  0  0  0  0  0  0  0  0  0  0  0
   -3.5330   25.9710  -31.2200 H   0  0  0  0  0  0  0  0  0  0  0  0
   -4.8499   21.2955  -30.9388 H   0  0  0  0  0  0  0  0  0  0  0  0
   -3.5970   19.3970  -32.3780 H   0  0  0  0  0  0  0  0  0  0  0  0
  1  2  1  0
  2  3  1  0
  2  4  1  0
  4  5  1  0
  5  6  1  0
  6  7  1  0
  7  8  2  0
  7  9  1  0
  9 10  2  0
 10 11  1  0
 11 12  2  0
 12 13  1  0
 13 14  1  0
 14 15  2  0
 15 16  1  0
 16 17  2  0
 17 18  1  0
 18 19  2  0
 19 20  1  0
 20 21  1  0
 21 22  2  0
 22 23  1  0
 23 24  2  0
 24 25  1  0
 25 26  1  0
 26 27  1  0
 26 28  2  0
 26 29  2  0
 25 30  2  0
 20 31  2  0
 31 32  1  0
 15 33  1  0
 33 34  1  0
 34  9  1  0
 34 13  2  0
 31 16  1  0
 30 21  1  0
  1 35  1  0
  1 36  1  0
  1 37  1  0
  3 38  1  0
  3 39  1  0
  3 40  1  0
  4 41  1  0
  4 42  1  0
  5 43  1  0
  5 44  1  0
 10 45  1  0
 11 46  1  0
 12 47  1  0
 14 48  1  0
 17 49  1  0
 18 50  1  0
 19 51  1  0
 22 52  1  0
 23 53  1  0
 24 54  1  0
 27 55  1  0
 30 56  1  0
 32 57  1  0
M  CHG  2   6  -1  27  -1
M  END
>  <UniqueID>  (25) 
23

>  <SMILES>  (25) 
CN(C)CC[N-]C(=O)c1cccc2cc(-c3cccc(-c4cccc(S([NH-])(=O)=O)c4)c3O)oc12

>  <Energy>  (25) 
107.41130175781136

>  <Genealogy>  (25) 
CN(C)CC[N-]C(=O)c1cccc2cc(-c3cccc(-c4cccc(S([NH-])(=O)=O)c4)c3O)oc12 (protonated)
CN(C)CC[N-]C(=O)c1cccc2cc(-c3cccc(-c4cccc(S([NH-])(=O)=O)c4)c3O)oc12 (3D coordinates assigned)
CN(C)CC[N-]C(=O)c1cccc2cc(-c3cccc(-c4cccc(S([NH-])(=O)=O)c4)c3O)oc12 (optimized conformer: 107.41130175781136 kcal/mol)

>  <smiles>  (25) 
CN(C)CCNC(=O)c1cccc2cc(-c3cccc(-c4cccc(S(N)(=O)=O)c4)c3O)oc12

>  <score_type>  (25) 
oracle

>  <origin>  (25) 
adgpu

>  <m_score__min__energy>  (25) 
-12.33

>  <m_primary>  (25) 
energy

$$$$
25:0
     RDKit          3D

 56 58  0  0  0  0  0  0  0  0999 V2000
   -7.8090   22.0420  -30.1250 C   0  0  0  0  0  0  0  0  0  0  0  0
   -7.1850   23.3290  -31.2000 S   0  0  0  0  0  0  0  0  0  0  0  0
   -8.0680   23.3810  -32.4150 O   0  0  0  0  0  0  0  0  0  0  0  0
   -7.3070   24.6420  -30.4790 O   0  0  0  0  0  0  0  0  0  0  0  0
   -5.5200   23.1280  -31.7220 N   0  0  1  0  0  0  0  0  0  0  0  0
   -4.4880   23.2650  -30.6580 C   0  0  0  0  0  0  0  0  0  0  0  0
   -3.9280   24.6480  -30.4620 C   0  0  0  0  0  0  0  0  0  0  0  0
   -4.5650   25.6490  -30.8850 O   0  0  0  0  0  0  0  0  0  0  0  0
   -2.7430   24.8210  -29.6750 N   0  0  0  0  0  0  0  0  0  0  0  0
   -1.7850   23.8150  -29.3080 C   0  0  0  0  0  0  0  0  0  0  0  0
   -1.6160   22.6400  -30.0660 C   0  0  0  0  0  0  0  0  0  0  0  0
   -0.7040   21.6490  -29.6620 C   0  0  0  0  0  0  0  0  0  0  0  0
   -0.5650   20.3700  -30.4500 C   0  0  0  0  0  0  0  0  0  0  0  0
   -0.4810   19.2780  -29.6030 F   0  0  0  0  0  0  0  0  0  0  0  0
   -1.6570   20.1900  -31.2800 F   0  0  0  0  0  0  0  0  0  0  0  0
    0.5820   20.4320  -31.2190 F   0  0  0  0  0  0  0  0  0  0  0  0
   -0.0030   21.8170  -28.4570 C   0  0  0  0  0  0  0  0  0  0  0  0
   -0.1810   22.9690  -27.6900 C   0  0  0  0  0  0  0  0  0  0  0  0
   -1.0640   23.9690  -28.1100 C   0  0  0  0  0  0  0  0  0  0  0  0
   -1.2320   25.1390  -27.2970 N   0  0  0  0  0  0  0  0  0  0  0  0
   -0.5850   26.3940  -27.6850 C   0  0  0  0  0  0  0  0  0  0  0  0
   -0.3670   27.2600  -26.4430 C   0  0  0  0  0  0  0  0  0  0  0  0
   -1.5770   27.4130  -25.7230 O   0  0  0  0  0  0  0  0  0  0  0  0
   -1.9870   26.1610  -25.2030 C   0  0  0  0  0  0  0  0  0  0  0  0
   -2.3320   25.1860  -26.3340 C   0  0  0  0  0  0  0  0  0  0  0  0
   -5.3090   22.0220  -32.6890 C   0  0  0  0  0  0  0  0  0  0  0  0
   -6.0820   20.7550  -32.4080 C   0  0  0  0  0  0  0  0  0  0  0  0
   -5.4750   19.6900  -31.7210 C   0  0  0  0  0  0  0  0  0  0  0  0
   -6.1740   18.5000  -31.4990 C   0  0  0  0  0  0  0  0  0  0  0  0
   -7.4740   18.3510  -31.9890 C   0  0  0  0  0  0  0  0  0  0  0  0
   -8.0690   19.3840  -32.7190 C   0  0  0  0  0  0  0  0  0  0  0  0
   -7.3700   20.5740  -32.9430 C   0  0  0  0  0  0  0  0  0  0  0  0
   -7.6650   22.3389  -29.0757 H   0  0  0  0  0  0  0  0  0  0  0  0
   -8.8810   21.8898  -30.3192 H   0  0  0  0  0  0  0  0  0  0  0  0
   -7.2646   21.1061  -30.3192 H   0  0  0  0  0  0  0  0  0  0  0  0
   -5.3730   23.9810  -32.3140 H   0  0  0  0  0  0  0  0  0  0  0  0
   -4.9395   22.9460  -29.7070 H   0  0  0  0  0  0  0  0  0  0  0  0
   -3.6406   22.6431  -30.9823 H   0  0  0  0  0  0  0  0  0  0  0  0
   -2.2041   22.4960  -30.9844 H   0  0  0  0  0  0  0  0  0  0  0  0
    0.6912   21.0351  -28.1153 H   0  0  0  0  0  0  0  0  0  0  0  0
    0.3764   23.0913  -26.7496 H   0  0  0  0  0  0  0  0  0  0  0  0
    0.3853   26.1763  -28.1552 H   0  0  0  0  0  0  0  0  0  0  0  0
   -1.2259   26.9317  -28.3992 H   0  0  0  0  0  0  0  0  0  0  0  0
    0.3812   26.7804  -25.7947 H   0  0  0  0  0  0  0  0  0  0  0  0
   -0.0153   28.2528  -26.7603 H   0  0  0  0  0  0  0  0  0  0  0  0
   -1.1714   25.7375  -24.5986 H   0  0  0  0  0  0  0  0  0  0  0  0
   -2.8838   26.3137  -24.5846 H   0  0  0  0  0  0  0  0  0  0  0  0
   -2.4940   24.1821  -25.9146 H   0  0  0  0  0  0  0  0  0  0  0  0
   -3.2465   25.5261  -26.8419 H   0  0  0  0  0  0  0  0  0  0  0  0
   -5.6016   22.3833  -33.6859 H   0  0  0  0  0  0  0  0  0  0  0  0
   -4.2460   21.7506  -32.6096 H   0  0  0  0  0  0  0  0  0  0  0  0
   -4.4427   19.7935  -31.3554 H   0  0  0  0  0  0  0  0  0  0  0  0
   -5.7005   17.6806  -30.9384 H   0  0  0  0  0  0  0  0  0  0  0  0
   -8.0294   17.4205  -31.8002 H   0  0  0  0  0  0  0  0  0  0  0  0
   -9.0870   19.2607  -33.1172 H   0  0  0  0  0  0  0  0  0  0  0  0
   -7.8304   21.3738  -33.5415 H   0  0  0  0  0  0  0  0  0  0  0  0
  1  2  1  0
  2  3  2  0
  2  4  2  0
  2  5  1  0
  5  6  1  0
  6  7  1  0
  7  8  2  0
  7  9  1  0
  9 10  1  0
 10 11  2  0
 11 12  1  0
 12 13  1  0
 13 14  1  0
 13 15  1  0
 13 16  1  0
 12 17  2  0
 17 18  1  0
 18 19  2  0
 19 20  1  0
 20 21  1  0
 21 22  1  0
 22 23  1  0
 23 24  1  0
 24 25  1  0
  5 26  1  0
 26 27  1  0
 27 28  2  0
 28 29  1  0
 29 30  2  0
 30 31  1  0
 31 32  2  0
 19 10  1  0
 25 20  1  0
 32 27  1  0
  1 33  1  0
  1 34  1  0
  1 35  1  0
  5 36  1  6
  6 37  1  0
  6 38  1  0
 11 39  1  0
 17 40  1  0
 18 41  1  0
 21 42  1  0
 21 43  1  0
 22 44  1  0
 22 45  1  0
 24 46  1  0
 24 47  1  0
 25 48  1  0
 25 49  1  0
 26 50  1  0
 26 51  1  0
 28 52  1  0
 29 53  1  0
 30 54  1  0
 31 55  1  0
 32 56  1  0
M  CHG  2   5   1   9  -1
M  END
>  <UniqueID>  (26) 
24

>  <SMILES>  (26) 
CS(=O)(=O)[N@@H+](CC(=O)[N-]c1cc(C(F)(F)F)ccc1N1CCOCC1)Cc1ccccc1

>  <Energy>  (26) 
73.92091248077894

>  <Genealogy>  (26) 
CS(=O)(=O)[NH+](CC(=O)[N-]c1cc(C(F)(F)F)ccc1N1CCOCC1)Cc1ccccc1 (protonated)
CS(=O)(=O)[N@@H+](CC(=O)[N-]c1cc(C(F)(F)F)ccc1N1CCOCC1)Cc1ccccc1 (chirality)
CS(=O)(=O)[N@@H+](CC(=O)[N-]c1cc(C(F)(F)F)ccc1N1CCOCC1)Cc1ccccc1 (3D coordinates assigned)
CS(=O)(=O)[N@@H+](CC(=O)[N-]c1cc(C(F)(F)F)ccc1N1CCOCC1)Cc1ccccc1 (nonaromatic ring conformer: 73.92091248077894 kcal/mol)

>  <smiles>  (26) 
CS(=O)(=O)N(CC(=O)Nc1cc(C(F)(F)F)ccc1N1CCOCC1)Cc1ccccc1

>  <score_type>  (26) 
oracle

>  <origin>  (26) 
adgpu

>  <m_score__min__energy>  (26) 
-9.2400000000000002

>  <m_primary>  (26) 
energy

$$$$
26:0
     RDKit          3D

 75 76  0  0  0  0  0  0  0  0999 V2000
   -5.9960   24.7630  -30.5500 C   0  0  0  0  0  0  0  0  0  0  0  0
   -6.7500   23.5030  -30.1350 C   0  0  0  0  0  0  0  0  0  0  0  0
   -7.7000   22.9800  -31.2250 C   0  0  0  0  0  0  0  0  0  0  0  0
   -8.3930   21.6500  -30.8580 C   0  0  0  0  0  0  0  0  0  0  0  0
   -9.3540   21.1670  -31.9610 C   0  0  0  0  0  0  0  0  0  0  0  0
   -9.0580   19.7160  -32.4000 C   0  0  0  0  0  0  0  0  0  0  0  0
   -8.2950   18.8960  -31.3450 C   0  0  0  0  0  0  0  0  0  0  0  0
   -7.0630   18.1860  -31.9200 C   0  0  0  0  0  0  0  0  0  0  0  0
   -6.8470   18.5520  -33.3950 C   0  0  0  0  0  0  0  0  0  0  0  0
   -5.3590   18.5640  -33.7770 C   0  0  0  0  0  0  0  0  0  0  0  0
   -4.6200   19.7130  -33.1310 C   0  0  0  0  0  0  0  0  0  0  0  0
   -3.2930   19.5240  -32.7140 C   0  0  0  0  0  0  0  0  0  0  0  0
   -2.5860   20.5560  -32.0830 C   0  0  0  0  0  0  0  0  0  0  0  0
   -0.9420   20.2750  -31.5010 S   0  0  0  0  0  0  0  0  0  0  0  0
   -0.6660   18.7990  -31.5300 O   0  0  0  0  0  0  0  0  0  0  0  0
    0.0380   20.9560  -32.4140 O   0  0  0  0  0  0  0  0  0  0  0  0
   -0.6970   20.8730  -29.9110 O   0  0  0  0  0  0  0  0  0  0  0  0
   -1.2930   20.3150  -28.7740 C   0  0  0  0  0  0  0  0  0  0  0  0
   -0.6990   19.1800  -28.1570 C   0  0  0  0  0  0  0  0  0  0  0  0
    0.6180   18.5630  -28.6170 C   0  0  0  0  0  0  0  0  0  0  0  0
    0.8420   17.1330  -28.1000 C   0  0  0  0  0  0  0  0  0  0  0  0
    1.8060   19.4720  -28.2930 C   0  0  0  0  0  0  0  0  0  0  0  0
   -1.3710   18.5580  -27.0890 C   0  0  0  0  0  0  0  0  0  0  0  0
   -2.5540   19.0850  -26.5860 C   0  0  0  0  0  0  0  0  0  0  0  0
   -3.0820   20.2550  -27.1200 C   0  0  0  0  0  0  0  0  0  0  0  0
   -2.4670   20.8900  -28.2140 C   0  0  0  0  0  0  0  0  0  0  0  0
   -2.9890   22.2460  -28.6760 C   0  0  0  0  0  0  0  0  0  0  0  0
   -4.1970   22.7170  -27.8530 C   0  0  0  0  0  0  0  0  0  0  0  0
   -1.8660   23.2860  -28.6360 C   0  0  0  0  0  0  0  0  0  0  0  0
   -3.1920   21.8090  -31.9270 C   0  0  0  0  0  0  0  0  0  0  0  0
   -4.5010   22.0170  -32.3670 C   0  0  0  0  0  0  0  0  0  0  0  0
   -5.2240   20.9740  -32.9620 C   0  0  0  0  0  0  0  0  0  0  0  0
   -6.5350   21.1890  -33.3870 O   0  0  0  0  0  0  0  0  0  0  0  0
   -5.6700   25.3078  -29.6517 H   0  0  0  0  0  0  0  0  0  0  0  0
   -5.1165   24.4836  -31.1487 H   0  0  0  0  0  0  0  0  0  0  0  0
   -6.6579   25.4060  -31.1487 H   0  0  0  0  0  0  0  0  0  0  0  0
   -6.0164   22.7166  -29.9037 H   0  0  0  0  0  0  0  0  0  0  0  0
   -7.3658   23.7629  -29.2614 H   0  0  0  0  0  0  0  0  0  0  0  0
   -8.4764   23.7388  -31.4024 H   0  0  0  0  0  0  0  0  0  0  0  0
   -7.0888   22.7881  -32.1192 H   0  0  0  0  0  0  0  0  0  0  0  0
   -7.6221   20.8816  -30.6993 H   0  0  0  0  0  0  0  0  0  0  0  0
   -8.9852   21.8197  -29.9467 H   0  0  0  0  0  0  0  0  0  0  0  0
  -10.3846   21.2184  -31.5800 H   0  0  0  0  0  0  0  0  0  0  0  0
   -9.2173   21.8187  -32.8365 H   0  0  0  0  0  0  0  0  0  0  0  0
  -10.0144   19.2132  -32.6061 H   0  0  0  0  0  0  0  0  0  0  0  0
   -8.4148   19.7736  -33.2905 H   0  0  0  0  0  0  0  0  0  0  0  0
   -7.9675   19.5736  -30.5428 H   0  0  0  0  0  0  0  0  0  0  0  0
   -8.9792   18.1203  -30.9705 H   0  0  0  0  0  0  0  0  0  0  0  0
   -6.1754   18.4845  -31.3429 H   0  0  0  0  0  0  0  0  0  0  0  0
   -7.2242   17.1000  -31.8514 H   0  0  0  0  0  0  0  0  0  0  0  0
   -7.3682   17.8146  -34.0232 H   0  0  0  0  0  0  0  0  0  0  0  0
   -7.2450   19.5651  -33.5538 H   0  0  0  0  0  0  0  0  0  0  0  0
   -4.9007   17.6185  -33.4513 H   0  0  0  0  0  0  0  0  0  0  0  0
   -5.2884   18.6841  -34.8681 H   0  0  0  0  0  0  0  0  0  0  0  0
   -2.8025   18.5543  -32.8846 H   0  0  0  0  0  0  0  0  0  0  0  0
    0.5426   18.4754  -29.7109 H   0  0  0  0  0  0  0  0  0  0  0  0
    0.8415   17.1365  -27.0000 H   0  0  0  0  0  0  0  0  0  0  0  0
    0.0351   16.4805  -28.4650 H   0  0  0  0  0  0  0  0  0  0  0  0
    1.8098   16.7585  -28.4650 H   0  0  0  0  0  0  0  0  0  0  0  0
    1.9162   19.5564  -27.2018 H   0  0  0  0  0  0  0  0  0  0  0  0
    2.7236   19.0432  -28.7222 H   0  0  0  0  0  0  0  0  0  0  0  0
    1.6320   20.4698  -28.7222 H   0  0  0  0  0  0  0  0  0  0  0  0
   -0.9540   17.6416  -26.6460 H   0  0  0  0  0  0  0  0  0  0  0  0
   -3.0747   18.5747  -25.7623 H   0  0  0  0  0  0  0  0  0  0  0  0
   -3.9923   20.6896  -26.6813 H   0  0  0  0  0  0  0  0  0  0  0  0
   -3.3359   22.1302  -29.7134 H   0  0  0  0  0  0  0  0  0  0  0  0
   -3.9676   22.6276  -26.7809 H   0  0  0  0  0  0  0  0  0  0  0  0
   -4.4181   23.7672  -28.0943 H   0  0  0  0  0  0  0  0  0  0  0  0
   -5.0706   22.0936  -28.0943 H   0  0  0  0  0  0  0  0  0  0  0  0
   -1.6170   23.5166  -27.5897 H   0  0  0  0  0  0  0  0  0  0  0  0
   -0.9769   22.8853  -29.1448 H   0  0  0  0  0  0  0  0  0  0  0  0
   -2.1974   24.2032  -29.1448 H   0  0  0  0  0  0  0  0  0  0  0  0
   -2.6348   22.6323  -31.4562 H   0  0  0  0  0  0  0  0  0  0  0  0
   -4.9676   23.0057  -32.2458 H   0  0  0  0  0  0  0  0  0  0  0  0
   -6.8990   22.1240  -33.5310 H   0  0  0  0  0  0  0  0  0  0  0  0
  1  2  1  0
  2  3  1  0
  3  4  1  0
  4  5  1  0
  5  6  1  0
  6  7  1  0
  7  8  1  0
  8  9  1  0
  9 10  1  0
 10 11  1  0
 11 12  2  0
 12 13  1  0
 13 14  1  0
 14 15  2  0
 14 16  2  0
 14 17  1  0
 17 18  1  0
 18 19  2  0
 19 20  1  0
 20 21  1  0
 20 22  1  0
 19 23  1  0
 23 24  2  0
 24 25  1  0
 25 26  2  0
 26 27  1  0
 27 28  1  0
 27 29  1  0
 13 30  2  0
 30 31  1  0
 31 32  2  0
 32 33  1  0
 32 11  1  0
 26 18  1  0
  1 34  1  0
  1 35  1  0
  1 36  1  0
  2 37  1  0
  2 38  1  0
  3 39  1  0
  3 40  1  0
  4 41  1  0
  4 42  1  0
  5 43  1  0
  5 44  1  0
  6 45  1  0
  6 46  1  0
  7 47  1  0
  7 48  1  0
  8 49  1  0
  8 50  1  0
  9 51  1  0
  9 52  1  0
 10 53  1  0
 10 54  1  0
 12 55  1  0
 20 56  1  0
 21 57  1  0
 21 58  1  0
 21 59  1  0
 22 60  1  0
 22 61  1  0
 22 62  1  0
 23 63  1  0
 24 64  1  0
 25 65  1  0
 27 66  1  0
 28 67  1  0
 28 68  1  0
 28 69  1  0
 29 70  1  0
 29 71  1  0
 29 72  1  0
 30 73  1  0
 31 74  1  0
 33 75  1  0
M  END
>  <UniqueID>  (27) 
25

>  <SMILES>  (27) 
CCCCCCCCCCc1cc(S(=O)(=O)Oc2c(C(C)C)cccc2C(C)C)ccc1O

>  <Energy>  (27) 
63.53649279444147

>  <Genealogy>  (27) 
CCCCCCCCCCc1cc(S(=O)(=O)Oc2c(C(C)C)cccc2C(C)C)ccc1O (3D coordinates assigned)
CCCCCCCCCCc1cc(S(=O)(=O)Oc2c(C(C)C)cccc2C(C)C)ccc1O (optimized conformer: 63.53649279444147 kcal/mol)

>  <smiles>  (27) 
CCCCCCCCCCc1cc(S(=O)(=O)Oc2c(C(C)C)cccc2C(C)C)ccc1O

>  <score_type>  (27) 
oracle

>  <origin>  (27) 
adgpu

>  <m_score__min__energy>  (27) 
-9.3800000000000008

>  <m_primary>  (27) 
energy

$$$$
27:0
     RDKit          3D

 42 45  0  0  0  0  0  0  0  0999 V2000
   -4.9490   17.8450  -32.5520 O   0  0  0  0  0  0  0  0  0  0  0  0
   -4.9550   19.3030  -32.9200 S   0  0  0  0  0  0  0  0  0  0  0  0
   -5.7920   19.4890  -34.1550 O   0  0  0  0  0  0  0  0  0  0  0  0
   -5.6540   20.2110  -31.6190 N   0  0  0  0  0  0  0  0  0  0  0  0
   -6.8140   21.0410  -31.7900 C   0  0  0  0  0  0  0  0  0  0  0  0
   -8.0140   20.4700  -32.2530 C   0  0  0  0  0  0  0  0  0  0  0  0
   -9.1770   21.2350  -32.3450 C   0  0  0  0  0  0  0  0  0  0  0  0
   -9.1600   22.5780  -31.9720 C   0  0  0  0  0  0  0  0  0  0  0  0
   -7.9780   23.1640  -31.5170 C   0  0  0  0  0  0  0  0  0  0  0  0
   -6.7920   22.4130  -31.4310 C   0  0  0  0  0  0  0  0  0  0  0  0
   -5.5420   23.0990  -31.0250 C   0  0  0  0  0  0  0  0  0  0  0  0
   -5.2650   24.3900  -31.2870 N   0  0  0  0  0  0  0  0  0  0  0  0
   -4.0610   24.6250  -30.7870 N   0  0  0  0  0  0  0  0  0  0  0  0
   -3.6440   23.4670  -30.2390 C   0  0  0  0  0  0  0  0  0  0  0  0
   -2.3440   23.2660  -29.5590 C   0  0  0  0  0  0  0  0  0  0  0  0
   -1.8850   21.9560  -29.3370 C   0  0  0  0  0  0  0  0  0  0  0  0
   -0.6630   21.7300  -28.6960 C   0  0  0  0  0  0  0  0  0  0  0  0
    0.1140   22.8080  -28.2700 C   0  0  0  0  0  0  0  0  0  0  0  0
   -0.3290   24.1150  -28.4840 C   0  0  0  0  0  0  0  0  0  0  0  0
   -1.5510   24.3520  -29.1230 C   0  0  0  0  0  0  0  0  0  0  0  0
   -1.9610   25.6670  -29.3200 O   0  0  0  0  0  0  0  0  0  0  0  0
   -4.5480   22.5290  -30.3870 O   0  0  0  0  0  0  0  0  0  0  0  0
   -3.3160   19.8600  -33.2350 C   0  0  0  0  0  0  0  0  0  0  0  0
   -2.4250   19.0580  -33.9630 C   0  0  0  0  0  0  0  0  0  0  0  0
   -1.1220   19.5020  -34.2070 C   0  0  0  0  0  0  0  0  0  0  0  0
   -0.7040   20.7480  -33.7300 C   0  0  0  0  0  0  0  0  0  0  0  0
    0.5600   21.1760  -33.9670 F   0  0  0  0  0  0  0  0  0  0  0  0
   -1.5910   21.5520  -33.0070 C   0  0  0  0  0  0  0  0  0  0  0  0
   -2.8950   21.1110  -32.7620 C   0  0  0  0  0  0  0  0  0  0  0  0
   -5.1940   20.1460  -30.6840 H   0  0  0  0  0  0  0  0  0  0  0  0
   -8.0352   19.4098  -32.5453 H   0  0  0  0  0  0  0  0  0  0  0  0
  -10.1079   20.7782  -32.7121 H   0  0  0  0  0  0  0  0  0  0  0  0
  -10.0802   23.1772  -32.0364 H   0  0  0  0  0  0  0  0  0  0  0  0
   -7.9739   24.2239  -31.2227 H   0  0  0  0  0  0  0  0  0  0  0  0
   -2.4922   21.1015  -29.6703 H   0  0  0  0  0  0  0  0  0  0  0  0
   -0.3136   20.7007  -28.5273 H   0  0  0  0  0  0  0  0  0  0  0  0
    1.0750   22.6284  -27.7658 H   0  0  0  0  0  0  0  0  0  0  0  0
    0.2862   24.9629  -28.1483 H   0  0  0  0  0  0  0  0  0  0  0  0
   -2.7518   18.0786  -34.3424 H   0  0  0  0  0  0  0  0  0  0  0  0
   -0.4241   18.8697  -34.7755 H   0  0  0  0  0  0  0  0  0  0  0  0
   -1.2625   22.5321  -32.6308 H   0  0  0  0  0  0  0  0  0  0  0  0
   -3.5922   21.7470  -32.1969 H   0  0  0  0  0  0  0  0  0  0  0  0
  1  2  2  0
  2  3  2  0
  2  4  1  0
  4  5  1  0
  5  6  2  0
  6  7  1  0
  7  8  2  0
  8  9  1  0
  9 10  2  0
 10 11  1  0
 11 12  2  0
 12 13  1  0
 13 14  2  0
 14 15  1  0
 15 16  2  0
 16 17  1  0
 17 18  2  0
 18 19  1  0
 19 20  2  0
 20 21  1  0
 14 22  1  0
  2 23  1  0
 23 24  2  0
 24 25  1  0
 25 26  2  0
 26 27  1  0
 26 28  1  0
 28 29  2  0
 10  5  1  0
 22 11  1  0
 29 23  1  0
 20 15  1  0
  4 30  1  0
  6 31  1  0
  7 32  1  0
  8 33  1  0
  9 34  1  0
 16 35  1  0
 17 36  1  0
 18 37  1  0
 19 38  1  0
 24 39  1  0
 25 40  1  0
 28 41  1  0
 29 42  1  0
M  CHG  1  21  -1
M  END
>  <UniqueID>  (28) 
26

>  <SMILES>  (28) 
O=S(=O)(Nc1ccccc1-c1nnc(-c2ccccc2[O-])o1)c1ccc(F)cc1

>  <Energy>  (28) 
90.48582052341358

>  <Genealogy>  (28) 
O=S(=O)(Nc1ccccc1-c1nnc(-c2ccccc2[O-])o1)c1ccc(F)cc1 (protonated)
O=S(=O)(Nc1ccccc1-c1nnc(-c2ccccc2[O-])o1)c1ccc(F)cc1 (3D coordinates assigned)
O=S(=O)(Nc1ccccc1-c1nnc(-c2ccccc2[O-])o1)c1ccc(F)cc1 (optimized conformer: 90.48582052341358 kcal/mol)

>  <smiles>  (28) 
O=S(=O)(Nc1ccccc1-c1nnc(-c2ccccc2O)o1)c1ccc(F)cc1

>  <score_type>  (28) 
oracle

>  <origin>  (28) 
adgpu

>  <m_score__min__energy>  (28) 
-13.41

>  <m_primary>  (28) 
energy

$$$$
28:0
     RDKit          3D

 51 54  0  0  0  0  0  0  0  0999 V2000
    2.7240   15.1040  -26.5130 N   0  0  0  0  0  0  0  0  0  0  0  0
    2.2460   16.0680  -26.9380 C   0  0  0  0  0  0  0  0  0  0  0  0
    1.6470   17.2670  -27.4640 C   0  0  0  0  0  0  0  0  0  0  0  0
    0.2540   17.4020  -27.4820 C   0  0  0  0  0  0  0  0  0  0  0  0
   -0.3320   18.5710  -27.9780 C   0  0  0  0  0  0  0  0  0  0  0  0
    0.4710   19.6250  -28.4470 C   0  0  0  0  0  0  0  0  0  0  0  0
   -0.1100   20.8340  -28.9660 N   0  0  0  0  0  0  0  0  0  0  0  0
   -0.7430   20.9450  -30.2530 C   0  0  0  0  0  0  0  0  0  0  0  0
   -0.4560   20.0390  -31.2910 C   0  0  0  0  0  0  0  0  0  0  0  0
   -1.1080   20.1490  -32.5210 C   0  0  0  0  0  0  0  0  0  0  0  0
   -2.0600   21.1490  -32.7260 C   0  0  0  0  0  0  0  0  0  0  0  0
   -2.3650   22.0550  -31.6940 C   0  0  0  0  0  0  0  0  0  0  0  0
   -3.3390   23.0520  -31.8500 O   0  0  0  0  0  0  0  0  0  0  0  0
   -4.7260   22.8410  -31.7860 C   0  0  0  0  0  0  0  0  0  0  0  0
   -5.3010   21.7010  -32.3700 C   0  0  0  0  0  0  0  0  0  0  0  0
   -6.6810   21.5030  -32.3340 C   0  0  0  0  0  0  0  0  0  0  0  0
   -7.5190   22.4510  -31.7240 C   0  0  0  0  0  0  0  0  0  0  0  0
   -9.0030   22.2020  -31.6390 C   0  0  0  0  0  0  0  0  0  0  0  0
   -9.6770   23.3380  -32.0540 F   0  0  0  0  0  0  0  0  0  0  0  0
   -9.3690   21.1350  -32.4460 F   0  0  0  0  0  0  0  0  0  0  0  0
   -9.3770   21.9060  -30.3370 F   0  0  0  0  0  0  0  0  0  0  0  0
   -6.9440   23.5820  -31.1220 C   0  0  0  0  0  0  0  0  0  0  0  0
   -5.5550   23.8050  -31.1750 C   0  0  0  0  0  0  0  0  0  0  0  0
   -4.9810   25.0230  -30.5490 C   0  0  0  0  0  0  0  0  0  0  0  0
   -5.7390   25.9790  -30.2440 O   0  0  0  0  0  0  0  0  0  0  0  0
   -3.5700   25.1790  -30.3450 N   0  0  0  0  0  0  0  0  0  0  0  0
   -2.7700   24.5210  -29.3540 C   0  0  0  0  0  0  0  0  0  0  0  0
   -3.3350   23.6850  -28.3770 C   0  0  0  0  0  0  0  0  0  0  0  0
   -2.5090   23.0870  -27.4210 C   0  0  0  0  0  0  0  0  0  0  0  0
   -1.1720   23.3280  -27.4290 N   0  0  0  0  0  0  0  0  0  0  0  0
   -0.6000   24.1480  -28.3500 C   0  0  0  0  0  0  0  0  0  0  0  0
    0.6410   24.3550  -28.3200 O   0  0  0  0  0  0  0  0  0  0  0  0
   -1.3910   24.7650  -29.3260 C   0  0  0  0  0  0  0  0  0  0  0  0
   -1.7190   21.9330  -30.4580 C   0  0  0  0  0  0  0  0  0  0  0  0
    1.8640   19.4680  -28.4590 C   0  0  0  0  0  0  0  0  0  0  0  0
    2.4520   18.2990  -27.9630 C   0  0  0  0  0  0  0  0  0  0  0  0
   -0.3813   16.5869  -27.1052 H   0  0  0  0  0  0  0  0  0  0  0  0
   -1.4276   18.6661  -28.0012 H   0  0  0  0  0  0  0  0  0  0  0  0
   -0.0860   21.6850  -28.3580 H   0  0  0  0  0  0  0  0  0  0  0  0
    0.2847   19.2412  -31.1328 H   0  0  0  0  0  0  0  0  0  0  0  0
   -0.8703   19.4446  -33.3318 H   0  0  0  0  0  0  0  0  0  0  0  0
   -2.5725   21.2287  -33.6960 H   0  0  0  0  0  0  0  0  0  0  0  0
   -4.6567   20.9567  -32.8608 H   0  0  0  0  0  0  0  0  0  0  0  0
   -7.1157   20.5992  -32.7859 H   0  0  0  0  0  0  0  0  0  0  0  0
   -7.5890   24.3049  -30.6010 H   0  0  0  0  0  0  0  0  0  0  0  0
   -4.4196   23.5022  -28.3642 H   0  0  0  0  0  0  0  0  0  0  0  0
   -2.9422   22.4202  -26.6609 H   0  0  0  0  0  0  0  0  0  0  0  0
   -0.9327   25.4372  -30.0663 H   0  0  0  0  0  0  0  0  0  0  0  0
   -1.9791   22.6189  -29.6383 H   0  0  0  0  0  0  0  0  0  0  0  0
    2.5000   20.2702  -28.8615 H   0  0  0  0  0  0  0  0  0  0  0  0
    3.5466   18.1905  -27.9650 H   0  0  0  0  0  0  0  0  0  0  0  0
  1  2  3  0
  2  3  1  0
  3  4  2  0
  4  5  1  0
  5  6  2  0
  6  7  1  0
  7  8  1  0
  8  9  2  0
  9 10  1  0
 10 11  2  0
 11 12  1  0
 12 13  1  0
 13 14  1  0
 14 15  2  0
 15 16  1  0
 16 17  2  0
 17 18  1  0
 18 19  1  0
 18 20  1  0
 18 21  1  0
 17 22  1  0
 22 23  2  0
 23 24  1  0
 24 25  2  0
 24 26  1  0
 26 27  1  0
 27 28  1  0
 28 29  2  0
 29 30  1  0
 30 31  1  0
 31 32  2  0
 31 33  1  0
 12 34  2  0
  6 35  1  0
 35 36  2  0
 36  3  1  0
 34  8  1  0
 23 14  1  0
 33 27  2  0
  4 37  1  0
  5 38  1  0
  7 39  1  0
  9 40  1  0
 10 41  1  0
 11 42  1  0
 15 43  1  0
 16 44  1  0
 22 45  1  0
 28 46  1  0
 29 47  1  0
 33 48  1  0
 34 49  1  0
 35 50  1  0
 36 51  1  0
M  CHG  2  26  -1  30  -1
M  END
>  <UniqueID>  (29) 
27

>  <SMILES>  (29) 
N#Cc1ccc(Nc2cccc(Oc3ccc(C(F)(F)F)cc3C(=O)[N-]c3cc[n-]c(=O)c3)c2)cc1

>  <Energy>  (29) 
76.38518964819595

>  <Genealogy>  (29) 
N#Cc1ccc(Nc2cccc(Oc3ccc(C(F)(F)F)cc3C(=O)[N-]c3cc[n-]c(=O)c3)c2)cc1 (protonated)
N#Cc1ccc(Nc2cccc(Oc3ccc(C(F)(F)F)cc3C(=O)[N-]c3cc[n-]c(=O)c3)c2)cc1 (3D coordinates assigned)
N#Cc1ccc(Nc2cccc(Oc3ccc(C(F)(F)F)cc3C(=O)[N-]c3cc[n-]c(=O)c3)c2)cc1 (optimized conformer: 76.38518964819595 kcal/mol)

>  <smiles>  (29) 
N#Cc1ccc(Nc2cccc(Oc3ccc(C(F)(F)F)cc3C(=O)Nc3cc[nH]c(=O)c3)c2)cc1

>  <score_type>  (29) 
oracle

>  <origin>  (29) 
adgpu

>  <m_score__min__energy>  (29) 
-12.039999999999999

>  <m_primary>  (29) 
energy

$$$$
29:0
     RDKit          3D

 50 53  0  0  0  0  0  0  0  0999 V2000
  -10.2961   18.8519  -31.8957 H   0  0  0  0  0  0  0  0  0  0  0  0
   -9.2290   19.0460  -32.0790 C   0  0  0  0  0  0  0  0  0  0  0  0
   -8.8390   20.1720  -32.8060 C   0  0  0  0  0  0  0  0  0  0  0  0
   -9.5998   20.8613  -33.2009 H   0  0  0  0  0  0  0  0  0  0  0  0
   -7.4830   20.4250  -33.0330 C   0  0  0  0  0  0  0  0  0  0  0  0
   -7.1824   21.3157  -33.6042 H   0  0  0  0  0  0  0  0  0  0  0  0
   -6.5000   19.5500  -32.5370 C   0  0  0  0  0  0  0  0  0  0  0  0
   -5.0620   19.8410  -32.7670 C   0  0  0  0  0  0  0  0  0  0  0  0
   -4.5790   21.1620  -32.7160 C   0  0  0  0  0  0  0  0  0  0  0  0
   -5.2703   21.9875  -32.4908 H   0  0  0  0  0  0  0  0  0  0  0  0
   -3.2290   21.4330  -32.9490 C   0  0  0  0  0  0  0  0  0  0  0  0
   -2.8610   22.4680  -32.8917 H   0  0  0  0  0  0  0  0  0  0  0  0
   -2.3420   20.3950  -33.2550 C   0  0  0  0  0  0  0  0  0  0  0  0
   -0.6350   20.7530  -33.5010 S   0  0  0  0  0  0  0  0  0  0  0  0
    0.0850   19.5670  -34.0780 O   0  0  0  0  0  0  0  0  0  0  0  0
   -0.5170   21.9010  -34.4650 O   0  0  0  0  0  0  0  0  0  0  0  0
    0.0940   21.1960  -31.9900 N   0  0  0  0  0  0  0  0  0  0  0  0
    1.1080   21.4460  -32.0040 H   0  0  0  0  0  0  0  0  0  0  0  0
   -0.6670   21.4330  -30.7930 C   0  0  0  0  0  0  0  0  0  0  0  0
   -0.7950   20.4100  -29.8400 C   0  0  0  0  0  0  0  0  0  0  0  0
   -0.3410   19.4262  -30.0298 H   0  0  0  0  0  0  0  0  0  0  0  0
   -1.4960   20.6340  -28.6510 C   0  0  0  0  0  0  0  0  0  0  0  0
   -1.5895   19.8274  -27.9090 H   0  0  0  0  0  0  0  0  0  0  0  0
   -2.0780   21.8800  -28.4030 C   0  0  0  0  0  0  0  0  0  0  0  0
   -2.6145   22.0587  -27.4595 H   0  0  0  0  0  0  0  0  0  0  0  0
   -1.9780   22.9010  -29.3560 C   0  0  0  0  0  0  0  0  0  0  0  0
   -2.6710   24.4910  -29.0520 S   0  0  0  0  0  0  0  0  0  0  0  0
   -3.3800   24.4760  -27.7260 O   0  0  0  0  0  0  0  0  0  0  0  0
   -1.5940   25.5390  -29.0030 O   0  0  0  0  0  0  0  0  0  0  0  0
   -3.8070   24.8730  -30.3040 N   0  0  0  0  0  0  0  0  0  0  0  0
   -4.9260   24.2360  -30.4610 C   0  0  0  0  0  0  0  0  0  0  0  0
   -5.3350   23.2120  -29.6860 N   0  0  0  0  0  0  0  0  0  0  0  0
   -6.4840   22.8320  -30.1650 O   0  0  0  0  0  0  0  0  0  0  0  0
   -6.8280   23.5590  -31.2050 C   0  0  0  0  0  0  0  0  0  0  0  0
   -8.0860   23.3670  -31.9810 C   0  0  0  0  0  0  0  0  0  0  0  0
   -8.9292   23.2383  -31.2864 H   0  0  0  0  0  0  0  0  0  0  0  0
   -8.2641   24.2484  -32.6146 H   0  0  0  0  0  0  0  0  0  0  0  0
   -7.9931   22.4726  -32.6146 H   0  0  0  0  0  0  0  0  0  0  0  0
   -5.8500   24.5030  -31.4440 C   0  0  0  0  0  0  0  0  0  0  0  0
   -5.8176   25.2762  -32.2258 H   0  0  0  0  0  0  0  0  0  0  0  0
   -1.2870   22.6720  -30.5510 C   0  0  0  0  0  0  0  0  0  0  0  0
   -1.2282   23.4681  -31.3078 H   0  0  0  0  0  0  0  0  0  0  0  0
   -2.8180   19.0790  -33.3240 C   0  0  0  0  0  0  0  0  0  0  0  0
   -2.1279   18.2599  -33.5746 H   0  0  0  0  0  0  0  0  0  0  0  0
   -4.1650   18.8020  -33.0760 C   0  0  0  0  0  0  0  0  0  0  0  0
   -4.5267   17.7642  -33.1227 H   0  0  0  0  0  0  0  0  0  0  0  0
   -6.9060   18.4080  -31.8130 C   0  0  0  0  0  0  0  0  0  0  0  0
   -5.9970   17.5040  -31.3680 F   0  0  0  0  0  0  0  0  0  0  0  0
   -8.2650   18.1670  -31.5850 C   0  0  0  0  0  0  0  0  0  0  0  0
   -8.5750   17.2799  -31.0133 H   0  0  0  0  0  0  0  0  0  0  0  0
  1  2  1  0
  2  3  2  0
  3  4  1  0
  3  5  1  0
  5  6  1  0
  5  7  2  0
  7  8  1  0
  8  9  2  0
  9 10  1  0
  9 11  1  0
 11 12  1  0
 11 13  2  0
 13 14  1  0
 14 15  2  0
 14 16  2  0
 14 17  1  0
 17 18  1  0
 17 19  1  0
 19 20  2  0
 20 21  1  0
 20 22  1  0
 22 23  1  0
 22 24  2  0
 24 25  1  0
 24 26  1  0
 26 27  1  0
 27 28  2  0
 27 29  2  0
 27 30  1  0
 30 31  2  0
 31 32  1  0
 32 33  1  0
 33 34  1  0
 34 35  1  0
 35 36  1  0
 35 37  1  0
 35 38  1  0
 34 39  2  0
 39 40  1  0
 26 41  2  0
 41 42  1  0
 13 43  1  0
 43 44  1  0
 43 45  2  0
 45 46  1  0
  7 47  1  0
 47 48  1  0
 47 49  2  0
 49 50  1  0
 49  2  1  0
 45  8  1  0
 41 19  1  0
 39 31  1  0
M  CHG  1  32  -1
M  END
>  <UniqueID>  (30) 
28

>  <SMILES>  (30) 
Cc1c/c(=N/S(=O)(=O)c2cccc(NS(=O)(=O)c3ccc(-c4ccccc4F)cc3)c2)[n-]o1

>  <Energy>  (30) 
91.26316228574963

>  <Genealogy>  (30) 
Cc1cc(=NS(=O)(=O)c2cccc(NS(=O)(=O)c3ccc(-c4ccccc4F)cc3)c2)[n-]o1 (protonated)
Cc1c/c(=N/S(=O)(=O)c2cccc(NS(=O)(=O)c3ccc(-c4ccccc4F)cc3)c2)[n-]o1 (cis-trans isomerization)
Cc1c/c(=N/S(=O)(=O)c2cccc(NS(=O)(=O)c3ccc(-c4ccccc4F)cc3)c2)[n-]o1 (3D coordinates assigned)
Cc1c/c(=N/S(=O)(=O)c2cccc(NS(=O)(=O)c3ccc(-c4ccccc4F)cc3)c2)[n-]o1 (optimized conformer: 91.26316228574963 kcal/mol)

>  <smiles>  (30) 
Cc1cc(=NS(=O)(=O)c2cccc(NS(=O)(=O)c3ccc(-c4ccccc4F)cc3)c2)[nH]o1

>  <score_type>  (30) 
oracle

>  <origin>  (30) 
adgpu

>  <m_score__min__energy>  (30) 
-12.699999999999999

>  <m_primary>  (30) 
energy

$$$$
30:0
     RDKit          3D

 57 60  0  0  0  0  0  0  0  0999 V2000
   -2.3350   22.2760  -29.6430 O   0  0  0  0  0  0  0  0  0  0  0  0
   -3.0970   22.4020  -30.6380 C   0  0  0  0  0  0  0  0  0  0  0  0
   -2.6720   21.8800  -31.9040 N   0  0  0  0  0  0  0  0  0  0  0  0
   -2.9600   20.5700  -32.4170 C   0  0  0  0  0  0  0  0  0  0  0  0
   -4.1730   19.9260  -32.1160 C   0  0  0  0  0  0  0  0  0  0  0  0
   -4.4610   18.6610  -32.6410 C   0  0  0  0  0  0  0  0  0  0  0  0
   -6.0090   17.8920  -32.2990 S   0  0  0  0  0  0  0  0  0  0  0  0
   -5.9410   16.4550  -32.7390 O   0  0  0  0  0  0  0  0  0  0  0  0
   -6.2330   17.9000  -30.8130 O   0  0  0  0  0  0  0  0  0  0  0  0
   -7.3690   18.6670  -33.0840 N   0  0  0  0  0  0  0  0  0  0  0  0
   -8.6290   18.6100  -32.3150 C   0  0  0  0  0  0  0  0  0  0  0  0
   -8.8020   19.7860  -31.3430 C   0  0  0  0  0  0  0  0  0  0  0  0
   -8.6090   21.1160  -32.0600 C   0  0  0  0  0  0  0  0  0  0  0  0
   -7.2360   21.1560  -32.7220 C   0  0  0  0  0  0  0  0  0  0  0  0
   -7.0590   19.9780  -33.6900 C   0  0  0  0  0  0  0  0  0  0  0  0
   -3.5360   18.0400  -33.4890 C   0  0  0  0  0  0  0  0  0  0  0  0
   -2.3170   18.6590  -33.7730 C   0  0  0  0  0  0  0  0  0  0  0  0
   -2.0140   19.9150  -33.2300 C   0  0  0  0  0  0  0  0  0  0  0  0
   -0.7560   20.5320  -33.5500 N   0  0  0  0  0  0  0  0  0  0  0  0
   -0.6910   21.5560  -34.5930 C   0  0  0  0  0  0  0  0  0  0  0  0
    0.6710   21.4860  -35.2920 C   0  0  0  0  0  0  0  0  0  0  0  0
    1.7260   21.5230  -34.3460 O   0  0  0  0  0  0  0  0  0  0  0  0
    1.6820   20.3670  -33.5290 C   0  0  0  0  0  0  0  0  0  0  0  0
    0.4070   20.3530  -32.6800 C   0  0  0  0  0  0  0  0  0  0  0  0
   -4.3900   23.1060  -30.4740 C   0  0  0  0  0  0  0  0  0  0  0  0
   -5.5730   22.3550  -30.3560 C   0  0  0  0  0  0  0  0  0  0  0  0
   -6.8080   22.9950  -30.2390 C   0  0  0  0  0  0  0  0  0  0  0  0
   -6.8770   24.3900  -30.2260 C   0  0  0  0  0  0  0  0  0  0  0  0
   -5.7080   25.1470  -30.3190 C   0  0  0  0  0  0  0  0  0  0  0  0
   -4.4600   24.5150  -30.4320 C   0  0  0  0  0  0  0  0  0  0  0  0
   -3.2970   25.2830  -30.4850 O   0  0  0  0  0  0  0  0  0  0  0  0
   -4.9039   20.4220  -31.4605 H   0  0  0  0  0  0  0  0  0  0  0  0
   -9.4707   18.6159  -33.0232 H   0  0  0  0  0  0  0  0  0  0  0  0
   -8.6008   17.6906  -31.7117 H   0  0  0  0  0  0  0  0  0  0  0  0
   -9.8139   19.7521  -30.9130 H   0  0  0  0  0  0  0  0  0  0  0  0
   -8.0447   19.7010  -30.5498 H   0  0  0  0  0  0  0  0  0  0  0  0
   -9.3876   21.2322  -32.8283 H   0  0  0  0  0  0  0  0  0  0  0  0
   -8.6818   21.9347  -31.3290 H   0  0  0  0  0  0  0  0  0  0  0  0
   -7.1325   22.0986  -33.2794 H   0  0  0  0  0  0  0  0  0  0  0  0
   -6.4666   21.0856  -31.9390 H   0  0  0  0  0  0  0  0  0  0  0  0
   -7.7270   20.1308  -34.5505 H   0  0  0  0  0  0  0  0  0  0  0  0
   -5.9992   19.9566  -33.9840 H   0  0  0  0  0  0  0  0  0  0  0  0
   -3.7704   17.0612  -33.9330 H   0  0  0  0  0  0  0  0  0  0  0  0
   -1.5893   18.1572  -34.4277 H   0  0  0  0  0  0  0  0  0  0  0  0
   -1.4902   21.3818  -35.3285 H   0  0  0  0  0  0  0  0  0  0  0  0
   -0.8205   22.5500  -34.1401 H   0  0  0  0  0  0  0  0  0  0  0  0
    0.7340   20.5496  -35.8657 H   0  0  0  0  0  0  0  0  0  0  0  0
    0.7680   22.3532  -35.9617 H   0  0  0  0  0  0  0  0  0  0  0  0
    1.7001   19.4720  -34.1682 H   0  0  0  0  0  0  0  0  0  0  0  0
    2.5538   20.3743  -32.8582 H   0  0  0  0  0  0  0  0  0  0  0  0
    0.3270   19.3907  -32.1532 H   0  0  0  0  0  0  0  0  0  0  0  0
    0.4456   21.1697  -31.9441 H   0  0  0  0  0  0  0  0  0  0  0  0
   -5.5249   21.2561  -30.3559 H   0  0  0  0  0  0  0  0  0  0  0  0
   -7.7291   22.3993  -30.1568 H   0  0  0  0  0  0  0  0  0  0  0  0
   -7.8523   24.8919  -30.1425 H   0  0  0  0  0  0  0  0  0  0  0  0
   -5.7652   26.2454  -30.3036 H   0  0  0  0  0  0  0  0  0  0  0  0
   -2.4270   24.9080  -30.8430 H   0  0  0  0  0  0  0  0  0  0  0  0
  1  2  2  0
  2  3  1  0
  3  4  1  0
  4  5  2  0
  5  6  1  0
  6  7  1  0
  7  8  2  0
  7  9  2  0
  7 10  1  0
 10 11  1  0
 11 12  1  0
 12 13  1  0
 13 14  1  0
 14 15  1  0
  6 16  2  0
 16 17  1  0
 17 18  2  0
 18 19  1  0
 19 20  1  0
 20 21  1  0
 21 22  1  0
 22 23  1  0
 23 24  1  0
  2 25  1  0
 25 26  2  0
 26 27  1  0
 27 28  2  0
 28 29  1  0
 29 30  2  0
 30 31  1  0
 18  4  1  0
 24 19  1  0
 30 25  1  0
 15 10  1  0
  5 32  1  0
 11 33  1  0
 11 34  1  0
 12 35  1  0
 12 36  1  0
 13 37  1  0
 13 38  1  0
 14 39  1  0
 14 40  1  0
 15 41  1  0
 15 42  1  0
 16 43  1  0
 17 44  1  0
 20 45  1  0
 20 46  1  0
 21 47  1  0
 21 48  1  0
 23 49  1  0
 23 50  1  0
 24 51  1  0
 24 52  1  0
 26 53  1  0
 27 54  1  0
 28 55  1  0
 29 56  1  0
 31 57  1  0
M  CHG  1   3  -1
M  END
>  <UniqueID>  (31) 
29

>  <SMILES>  (31) 
O=C([N-]c1cc(S(=O)(=O)N2CCCCC2)ccc1N1CCOCC1)c1ccccc1O

>  <Energy>  (31) 
73.12402283187042

>  <Genealogy>  (31) 
O=C([N-]c1cc(S(=O)(=O)N2CCCCC2)ccc1N1CCOCC1)c1ccccc1O (protonated)
O=C([N-]c1cc(S(=O)(=O)N2CCCCC2)ccc1N1CCOCC1)c1ccccc1O (3D coordinates assigned)
O=C([N-]c1cc(S(=O)(=O)N2CCCCC2)ccc1N1CCOCC1)c1ccccc1O (nonaromatic ring conformer: 73.12402283187042 kcal/mol)

>  <smiles>  (31) 
O=C(Nc1cc(S(=O)(=O)N2CCCCC2)ccc1N1CCOCC1)c1ccccc1O

>  <score_type>  (31) 
oracle

>  <origin>  (31) 
adgpu

>  <m_score__min__energy>  (31) 
-11.029999999999999

>  <m_primary>  (31) 
energy

$$$$
31:0
     RDKit          3D

 31 33  0  0  0  0  0  0  0  0999 V2000
   -7.2250   18.3210  -33.0440 C   0  0  0  0  0  0  0  0  0  0  0  0
   -6.6600   19.5700  -33.3190 C   0  0  0  0  0  0  0  0  0  0  0  0
   -7.1220   20.7100  -32.6560 C   0  0  0  0  0  0  0  0  0  0  0  0
   -8.1540   20.6070  -31.7060 C   0  0  0  0  0  0  0  0  0  0  0  0
   -8.6210   21.8230  -30.9520 C   0  0  0  0  0  0  0  0  0  0  0  0
   -8.4170   23.3350  -31.9580 S   0  0  0  0  0  0  0  0  0  0  0  0
   -6.7200   23.6160  -31.4550 C   0  0  0  0  0  0  0  0  0  0  0  0
   -6.3470   23.8480  -30.1830 N   0  0  0  0  0  0  0  0  0  0  0  0
   -5.0040   23.9460  -30.3000 C   0  0  0  0  0  0  0  0  0  0  0  0
   -4.0980   24.1730  -29.1550 C   0  0  0  0  0  0  0  0  0  0  0  0
   -2.7050   24.1850  -29.3380 C   0  0  0  0  0  0  0  0  0  0  0  0
   -1.8670   24.3950  -28.2400 C   0  0  0  0  0  0  0  0  0  0  0  0
   -2.3970   24.5860  -27.0030 N   0  0  0  0  0  0  0  0  0  0  0  0
   -3.7400   24.5770  -26.7950 C   0  0  0  0  0  0  0  0  0  0  0  0
   -4.6140   24.3710  -27.8650 C   0  0  0  0  0  0  0  0  0  0  0  0
   -4.5840   23.7850  -31.5720 N   0  0  0  0  0  0  0  0  0  0  0  0
   -5.6720   23.5800  -32.2890 N   0  0  0  0  0  0  0  0  0  0  0  0
   -8.7150   19.3490  -31.4330 C   0  0  0  0  0  0  0  0  0  0  0  0
   -8.2520   18.2120  -32.1030 C   0  0  0  0  0  0  0  0  0  0  0  0
   -6.8612   17.4249  -33.5681 H   0  0  0  0  0  0  0  0  0  0  0  0
   -5.8503   19.6554  -34.0586 H   0  0  0  0  0  0  0  0  0  0  0  0
   -6.6771   21.6912  -32.8778 H   0  0  0  0  0  0  0  0  0  0  0  0
   -9.6840   21.7016  -30.6964 H   0  0  0  0  0  0  0  0  0  0  0  0
   -8.0147   21.9243  -30.0398 H   0  0  0  0  0  0  0  0  0  0  0  0
   -2.2769   24.0300  -30.3394 H   0  0  0  0  0  0  0  0  0  0  0  0
   -0.7756   24.4058  -28.3769 H   0  0  0  0  0  0  0  0  0  0  0  0
   -4.1396   24.7323  -25.7820 H   0  0  0  0  0  0  0  0  0  0  0  0
   -5.7011   24.3640  -27.6974 H   0  0  0  0  0  0  0  0  0  0  0  0
   -5.6870   23.4080  -33.3190 H   0  0  0  0  0  0  0  0  0  0  0  0
   -9.5210   19.2575  -30.6900 H   0  0  0  0  0  0  0  0  0  0  0  0
   -8.6976   17.2294  -31.8886 H   0  0  0  0  0  0  0  0  0  0  0  0
  1  2  2  0
  2  3  1  0
  3  4  2  0
  4  5  1  0
  5  6  1  0
  6  7  1  0
  7  8  2  0
  8  9  1  0
  9 10  1  0
 10 11  2  0
 11 12  1  0
 12 13  2  0
 13 14  1  0
 14 15  2  0
  9 16  2  0
 16 17  1  0
  4 18  1  0
 18 19  2  0
 19  1  1  0
 17  7  1  0
 15 10  1  0
  1 20  1  0
  2 21  1  0
  3 22  1  0
  5 23  1  0
  5 24  1  0
 11 25  1  0
 12 26  1  0
 14 27  1  0
 15 28  1  0
 17 29  1  0
 18 30  1  0
 19 31  1  0
M  END
>  <UniqueID>  (32) 
30

>  <SMILES>  (32) 
c1ccc(CSc2nc(-c3ccncc3)n[nH]2)cc1

>  <Energy>  (32) 
62.31833478401014

>  <Genealogy>  (32) 
c1ccc(CSc2nc(-c3ccncc3)n[nH]2)cc1 (3D coordinates assigned)
c1ccc(CSc2nc(-c3ccncc3)n[nH]2)cc1 (optimized conformer: 62.31833478401014 kcal/mol)

>  <smiles>  (32) 
c1ccc(CSc2nc(-c3ccncc3)n[nH]2)cc1

>  <score_type>  (32) 
oracle

>  <origin>  (32) 
adgpu

>  <m_score__min__energy>  (32) 
-7.9299999999999997

>  <m_primary>  (32) 
energy

$$$$
32:0
     RDKit          3D

 55 58  0  0  0  0  0  0  0  0999 V2000
   -4.2670   15.3520  -34.2040 C   0  0  0  0  0  0  0  0  0  0  0  0
   -3.4080   16.5320  -35.2920 S   0  0  0  0  0  0  0  0  0  0  0  0
   -4.1580   17.9640  -34.5190 C   0  0  0  0  0  0  0  0  0  0  0  0
   -5.5190   18.2310  -34.7120 C   0  0  0  0  0  0  0  0  0  0  0  0
   -6.1180   19.3160  -34.0620 C   0  0  0  0  0  0  0  0  0  0  0  0
   -5.3590   20.1430  -33.2130 C   0  0  0  0  0  0  0  0  0  0  0  0
   -5.9920   21.2250  -32.4970 N   0  0  0  0  0  0  0  0  0  0  0  0
   -7.1940   20.9960  -31.8860 C   0  0  0  0  0  0  0  0  0  0  0  0
   -7.8490   22.0170  -31.1880 C   0  0  0  0  0  0  0  0  0  0  0  0
   -9.1630   21.7570  -30.5120 C   0  0  0  0  0  0  0  0  0  0  0  0
   -7.2220   23.2610  -31.0650 C   0  0  0  0  0  0  0  0  0  0  0  0
   -5.9710   23.4790  -31.6410 C   0  0  0  0  0  0  0  0  0  0  0  0
   -5.3470   24.7650  -31.4770 N   0  0  0  0  0  0  0  0  0  0  0  0
   -4.2950   25.0030  -30.7880 N   0  0  0  0  0  0  0  0  0  0  0  0
   -3.6110   24.0560  -29.9490 C   0  0  0  0  0  0  0  0  0  0  0  0
   -4.0860   22.7390  -29.8930 C   0  0  0  0  0  0  0  0  0  0  0  0
   -3.4570   21.7920  -29.0820 C   0  0  0  0  0  0  0  0  0  0  0  0
   -2.3280   22.1470  -28.3290 C   0  0  0  0  0  0  0  0  0  0  0  0
   -1.6750   21.2030  -27.4740 N   0  0  0  0  0  0  0  0  0  0  0  0
   -0.3750   20.1760  -27.9920 S   0  0  0  0  0  0  0  0  0  0  0  0
   -0.5470   18.8220  -27.3610 O   0  0  0  0  0  0  0  0  0  0  0  0
    0.9280   20.7550  -27.5080 O   0  0  0  0  0  0  0  0  0  0  0  0
   -0.3460   19.9800  -29.7440 C   0  0  0  0  0  0  0  0  0  0  0  0
   -0.1590   18.7050  -30.3060 C   0  0  0  0  0  0  0  0  0  0  0  0
   -0.1260   18.5480  -31.6970 C   0  0  0  0  0  0  0  0  0  0  0  0
   -0.2870   19.6610  -32.5320 C   0  0  0  0  0  0  0  0  0  0  0  0
   -0.4790   20.9310  -31.9770 C   0  0  0  0  0  0  0  0  0  0  0  0
   -0.5030   21.0930  -30.5870 C   0  0  0  0  0  0  0  0  0  0  0  0
   -1.8410   23.4590  -28.3920 C   0  0  0  0  0  0  0  0  0  0  0  0
   -2.4530   24.4040  -29.2230 C   0  0  0  0  0  0  0  0  0  0  0  0
   -1.8930   25.6720  -29.3410 O   0  0  0  0  0  0  0  0  0  0  0  0
   -5.3850   22.4540  -32.4090 C   0  0  0  0  0  0  0  0  0  0  0  0
   -4.2990   22.6730  -33.0160 O   0  0  0  0  0  0  0  0  0  0  0  0
   -3.9860   19.8880  -33.0530 C   0  0  0  0  0  0  0  0  0  0  0  0
   -3.3890   18.8030  -33.7010 C   0  0  0  0  0  0  0  0  0  0  0  0
   -4.0752   15.6154  -33.1534 H   0  0  0  0  0  0  0  0  0  0  0  0
   -5.3485   15.3924  -34.4006 H   0  0  0  0  0  0  0  0  0  0  0  0
   -3.8963   14.3352  -34.4006 H   0  0  0  0  0  0  0  0  0  0  0  0
   -6.1172   17.5880  -35.3744 H   0  0  0  0  0  0  0  0  0  0  0  0
   -7.1873   19.5235  -34.2154 H   0  0  0  0  0  0  0  0  0  0  0  0
   -7.6514   19.9973  -31.9439 H   0  0  0  0  0  0  0  0  0  0  0  0
   -9.0257   21.7842  -29.4209 H   0  0  0  0  0  0  0  0  0  0  0  0
   -9.8876   22.5292  -30.8097 H   0  0  0  0  0  0  0  0  0  0  0  0
   -9.5390   20.7670  -30.8097 H   0  0  0  0  0  0  0  0  0  0  0  0
   -7.7182   24.0715  -30.5111 H   0  0  0  0  0  0  0  0  0  0  0  0
   -4.9613   22.4487  -30.4926 H   0  0  0  0  0  0  0  0  0  0  0  0
   -3.8479   20.7649  -29.0335 H   0  0  0  0  0  0  0  0  0  0  0  0
   -0.0384   17.8290  -29.6517 H   0  0  0  0  0  0  0  0  0  0  0  0
    0.0264   17.5502  -32.1342 H   0  0  0  0  0  0  0  0  0  0  0  0
   -0.2625   19.5366  -33.6247 H   0  0  0  0  0  0  0  0  0  0  0  0
   -0.6113   21.8033  -32.6340 H   0  0  0  0  0  0  0  0  0  0  0  0
   -0.6451   22.0940  -30.1536 H   0  0  0  0  0  0  0  0  0  0  0  0
   -0.9713   23.7484  -27.7839 H   0  0  0  0  0  0  0  0  0  0  0  0
   -3.3782   20.5458  -32.4144 H   0  0  0  0  0  0  0  0  0  0  0  0
   -2.3146   18.6074  -33.5689 H   0  0  0  0  0  0  0  0  0  0  0  0
  1  2  1  0
  2  3  1  0
  3  4  2  0
  4  5  1  0
  5  6  2  0
  6  7  1  0
  7  8  1  0
  8  9  2  0
  9 10  1  0
  9 11  1  0
 11 12  2  0
 12 13  1  0
 13 14  2  3
 14 15  1  0
 15 16  2  0
 16 17  1  0
 17 18  2  0
 18 19  1  0
 19 20  1  0
 20 21  2  0
 20 22  2  0
 20 23  1  0
 23 24  2  0
 24 25  1  0
 25 26  2  0
 26 27  1  0
 27 28  2  0
 18 29  1  0
 29 30  2  0
 30 31  1  0
 12 32  1  0
 32 33  2  0
  6 34  1  0
 34 35  2  0
 35  3  1  0
 32  7  1  0
 30 15  1  0
 28 23  1  0
  1 36  1  0
  1 37  1  0
  1 38  1  0
  4 39  1  0
  5 40  1  0
  8 41  1  0
 10 42  1  0
 10 43  1  0
 10 44  1  0
 11 45  1  0
 16 46  1  0
 17 47  1  0
 24 48  1  0
 25 49  1  0
 26 50  1  0
 27 51  1  0
 28 52  1  0
 29 53  1  0
 34 54  1  0
 35 55  1  0
M  CHG  2  19  -1  31  -1
M  END
>  <UniqueID>  (33) 
31

>  <SMILES>  (33) 
CSc1ccc(-n2cc(C)cc(N=Nc3ccc([N-]S(=O)(=O)c4ccccc4)cc3[O-])c2=O)cc1

>  <Energy>  (33) 
86.74327325592405

>  <Genealogy>  (33) 
CSc1ccc(-n2cc(C)cc(N=Nc3ccc([N-]S(=O)(=O)c4ccccc4)cc3[O-])c2=O)cc1 (protonated)
CSc1ccc(-n2cc(C)cc(N=Nc3ccc([N-]S(=O)(=O)c4ccccc4)cc3[O-])c2=O)cc1 (3D coordinates assigned)
CSc1ccc(-n2cc(C)cc(N=Nc3ccc([N-]S(=O)(=O)c4ccccc4)cc3[O-])c2=O)cc1 (optimized conformer: 86.74327325592405 kcal/mol)

>  <smiles>  (33) 
CSc1ccc(-n2cc(C)cc(N=Nc3ccc(NS(=O)(=O)c4ccccc4)cc3O)c2=O)cc1

>  <score_type>  (33) 
oracle

>  <origin>  (33) 
adgpu

>  <m_score__min__energy>  (33) 
-14.41

>  <m_primary>  (33) 
energy

$$$$
33:0
     RDKit          3D

 48 51  0  0  0  0  0  0  0  0999 V2000
   -3.4830   24.9240  -30.4710 O   0  0  0  0  0  0  0  0  0  0  0  0
   -3.3650   23.8070  -29.9000 C   0  0  0  0  0  0  0  0  0  0  0  0
   -3.1370   23.7820  -28.4830 N   0  0  0  0  0  0  0  0  0  0  0  0
   -1.8750   23.9690  -27.8260 C   0  0  0  0  0  0  0  0  0  0  0  0
   -1.5640   23.1510  -26.7320 C   0  0  0  0  0  0  0  0  0  0  0  0
   -0.3420   23.2890  -26.0680 C   0  0  0  0  0  0  0  0  0  0  0  0
    0.5720   24.2570  -26.4820 C   0  0  0  0  0  0  0  0  0  0  0  0
    0.2610   25.1020  -27.5510 C   0  0  0  0  0  0  0  0  0  0  0  0
   -0.9670   24.9760  -28.2190 C   0  0  0  0  0  0  0  0  0  0  0  0
   -1.2900   25.8600  -29.2460 O   0  0  0  0  0  0  0  0  0  0  0  0
   -3.5080   22.5650  -30.6960 C   0  0  0  0  0  0  0  0  0  0  0  0
   -4.4860   21.6100  -30.3730 C   0  0  0  0  0  0  0  0  0  0  0  0
   -4.5980   20.4320  -31.1180 C   0  0  0  0  0  0  0  0  0  0  0  0
   -3.7440   20.1970  -32.2050 C   0  0  0  0  0  0  0  0  0  0  0  0
   -3.8480   18.9110  -32.9790 C   0  0  0  0  0  0  0  0  0  0  0  0
   -4.7240   19.0920  -34.1570 N   0  0  0  0  0  0  0  0  0  0  0  0
   -5.3520   17.8300  -34.5960 C   0  0  0  0  0  0  0  0  0  0  0  0
   -6.3100   17.2590  -33.5390 C   0  0  0  0  0  0  0  0  0  0  0  0
   -7.1950   18.3180  -32.9380 C   0  0  0  0  0  0  0  0  0  0  0  0
   -8.2920   17.9300  -32.1530 C   0  0  0  0  0  0  0  0  0  0  0  0
   -9.0950   18.8930  -31.5350 C   0  0  0  0  0  0  0  0  0  0  0  0
   -8.8050   20.2490  -31.6910 C   0  0  0  0  0  0  0  0  0  0  0  0
   -7.7090   20.6470  -32.4610 C   0  0  0  0  0  0  0  0  0  0  0  0
   -6.8880   19.6890  -33.0740 C   0  0  0  0  0  0  0  0  0  0  0  0
   -5.7450   20.1430  -33.9530 C   0  0  0  0  0  0  0  0  0  0  0  0
   -2.7780   21.1580  -32.5400 C   0  0  0  0  0  0  0  0  0  0  0  0
   -2.6650   22.3360  -31.7970 C   0  0  0  0  0  0  0  0  0  0  0  0
   -2.2870   22.3944  -26.3931 H   0  0  0  0  0  0  0  0  0  0  0  0
   -0.1012   22.6334  -25.2182 H   0  0  0  0  0  0  0  0  0  0  0  0
    1.5389   24.3558  -25.9668 H   0  0  0  0  0  0  0  0  0  0  0  0
    0.9818   25.8692  -27.8702 H   0  0  0  0  0  0  0  0  0  0  0  0
   -2.0560   25.6780  -29.8830 H   0  0  0  0  0  0  0  0  0  0  0  0
   -5.1680   21.7899  -29.5289 H   0  0  0  0  0  0  0  0  0  0  0  0
   -5.3602   19.6856  -30.8499 H   0  0  0  0  0  0  0  0  0  0  0  0
   -2.8456   18.6073  -33.3151 H   0  0  0  0  0  0  0  0  0  0  0  0
   -4.2777   18.1349  -32.3286 H   0  0  0  0  0  0  0  0  0  0  0  0
   -5.9169   18.0186  -35.5208 H   0  0  0  0  0  0  0  0  0  0  0  0
   -4.5513   17.0935  -34.7585 H   0  0  0  0  0  0  0  0  0  0  0  0
   -6.9442   16.4950  -34.0124 H   0  0  0  0  0  0  0  0  0  0  0  0
   -5.7009   16.8305  -32.7295 H   0  0  0  0  0  0  0  0  0  0  0  0
   -8.5211   16.8620  -32.0234 H   0  0  0  0  0  0  0  0  0  0  0  0
   -9.9560   18.5817  -30.9253 H   0  0  0  0  0  0  0  0  0  0  0  0
   -9.4401   21.0057  -31.2071 H   0  0  0  0  0  0  0  0  0  0  0  0
   -7.4889   21.7173  -32.5871 H   0  0  0  0  0  0  0  0  0  0  0  0
   -6.1501   20.4340  -34.9334 H   0  0  0  0  0  0  0  0  0  0  0  0
   -5.2538   20.9870  -33.4466 H   0  0  0  0  0  0  0  0  0  0  0  0
   -2.1056   20.9829  -33.3927 H   0  0  0  0  0  0  0  0  0  0  0  0
   -1.9122   23.0882  -32.0753 H   0  0  0  0  0  0  0  0  0  0  0  0
  1  2  2  0
  2  3  1  0
  3  4  1  0
  4  5  2  0
  5  6  1  0
  6  7  2  0
  7  8  1  0
  8  9  2  0
  9 10  1  0
  2 11  1  0
 11 12  2  0
 12 13  1  0
 13 14  2  0
 14 15  1  0
 15 16  1  0
 16 17  1  0
 17 18  1  0
 18 19  1  0
 19 20  2  0
 20 21  1  0
 21 22  2  0
 22 23  1  0
 23 24  2  0
 24 25  1  0
 14 26  1  0
 26 27  2  0
  9  4  1  0
 27 11  1  0
 25 16  1  0
 24 19  1  0
  5 28  1  0
  6 29  1  0
  7 30  1  0
  8 31  1  0
 10 32  1  0
 12 33  1  0
 13 34  1  0
 15 35  1  0
 15 36  1  0
 17 37  1  0
 17 38  1  0
 18 39  1  0
 18 40  1  0
 20 41  1  0
 21 42  1  0
 22 43  1  0
 23 44  1  0
 25 45  1  0
 25 46  1  0
 26 47  1  0
 27 48  1  0
M  CHG  1   3  -1
M  END
>  <UniqueID>  (34) 
32

>  <SMILES>  (34) 
O=C([N-]c1ccccc1O)c1ccc(CN2CCc3ccccc3C2)cc1

>  <Energy>  (34) 
65.12126439715576

>  <Genealogy>  (34) 
O=C([N-]c1ccccc1O)c1ccc(CN2CCc3ccccc3C2)cc1 (protonated)
O=C([N-]c1ccccc1O)c1ccc(CN2CCc3ccccc3C2)cc1 (3D coordinates assigned)
O=C([N-]c1ccccc1O)c1ccc(CN2CCc3ccccc3C2)cc1 (nonaromatic ring conformer: 65.12126439715576 kcal/mol)

>  <smiles>  (34) 
O=C(Nc1ccccc1O)c1ccc(CN2CCc3ccccc3C2)cc1

>  <score_type>  (34) 
oracle

>  <origin>  (34) 
adgpu

>  <m_score__min__energy>  (34) 
-12.74

>  <m_primary>  (34) 
energy

$$$$
34:0
     RDKit          3D

 50 52  0  0  0  0  0  0  0  0999 V2000
   -3.9970   24.5080  -27.0800 C   0  0  0  0  0  0  0  0  0  0  0  0
   -3.7980   23.7210  -28.3020 N   0  0  0  0  0  0  0  0  0  0  0  0
   -4.9090   23.5510  -29.2470 C   0  0  0  0  0  0  0  0  0  0  0  0
   -4.6500   24.3280  -30.4980 C   0  0  0  0  0  0  0  0  0  0  0  0
   -3.8490   25.3000  -30.4740 O   0  0  0  0  0  0  0  0  0  0  0  0
   -5.3780   24.0050  -31.6890 N   0  0  0  0  0  0  0  0  0  0  0  0
   -6.4300   23.0370  -31.8110 C   0  0  0  0  0  0  0  0  0  0  0  0
   -7.7350   23.4200  -31.4780 C   0  0  0  0  0  0  0  0  0  0  0  0
   -8.7850   22.5020  -31.5670 C   0  0  0  0  0  0  0  0  0  0  0  0
   -8.5350   21.1880  -31.9680 C   0  0  0  0  0  0  0  0  0  0  0  0
   -7.2290   20.7820  -32.2730 C   0  0  0  0  0  0  0  0  0  0  0  0
   -6.9200   19.1180  -32.7650 S   0  0  0  0  0  0  0  0  0  0  0  0
   -6.4510   19.0830  -34.4280 N   0  0  0  0  0  0  0  0  0  0  0  0
   -5.8230   18.5280  -31.9250 O   0  0  0  0  0  0  0  0  0  0  0  0
   -8.1660   18.2980  -32.5760 O   0  0  0  0  0  0  0  0  0  0  0  0
   -6.1770   21.7070  -32.1940 C   0  0  0  0  0  0  0  0  0  0  0  0
   -2.4770   23.2670  -28.6550 C   0  0  0  0  0  0  0  0  0  0  0  0
   -1.6600   24.0670  -29.1880 O   0  0  0  0  0  0  0  0  0  0  0  0
   -2.0430   21.8830  -28.3860 C   0  0  0  0  0  0  0  0  0  0  0  0
   -2.4410   21.2580  -27.1960 C   0  0  0  0  0  0  0  0  0  0  0  0
   -2.0500   19.9460  -26.9280 C   0  0  0  0  0  0  0  0  0  0  0  0
   -1.2510   19.2700  -27.8490 C   0  0  0  0  0  0  0  0  0  0  0  0
   -0.8480   19.8940  -28.9870 N   0  0  0  0  0  0  0  0  0  0  0  0
   -1.2110   21.1730  -29.2780 C   0  0  0  0  0  0  0  0  0  0  0  0
   -0.5590   21.9230  -30.7750 S   0  0  0  0  0  0  0  0  0  0  0  0
   -1.6120   20.9390  -31.8420 C   0  0  0  0  0  0  0  0  0  0  0  0
   -2.6700   21.5400  -32.5360 C   0  0  0  0  0  0  0  0  0  0  0  0
   -3.4870   20.7710  -33.3700 C   0  0  0  0  0  0  0  0  0  0  0  0
   -3.2530   19.4000  -33.5090 C   0  0  0  0  0  0  0  0  0  0  0  0
   -2.2020   18.7960  -32.8120 C   0  0  0  0  0  0  0  0  0  0  0  0
   -1.3840   19.5630  -31.9760 C   0  0  0  0  0  0  0  0  0  0  0  0
   -3.8350   23.8672  -26.2007 H   0  0  0  0  0  0  0  0  0  0  0  0
   -3.2819   25.3436  -27.0615 H   0  0  0  0  0  0  0  0  0  0  0  0
   -5.0234   24.9033  -27.0615 H   0  0  0  0  0  0  0  0  0  0  0  0
   -5.0128   22.4848  -29.4970 H   0  0  0  0  0  0  0  0  0  0  0  0
   -5.8344   23.9208  -28.7814 H   0  0  0  0  0  0  0  0  0  0  0  0
   -7.9348   24.4490  -31.1445 H   0  0  0  0  0  0  0  0  0  0  0  0
   -9.8103   22.8151  -31.3207 H   0  0  0  0  0  0  0  0  0  0  0  0
   -9.3650   20.4702  -32.0446 H   0  0  0  0  0  0  0  0  0  0  0  0
   -6.7380   18.1510  -34.8060 H   0  0  0  0  0  0  0  0  0  0  0  0
   -7.0260   19.8000  -34.9250 H   0  0  0  0  0  0  0  0  0  0  0  0
   -5.1506   21.3912  -32.4324 H   0  0  0  0  0  0  0  0  0  0  0  0
   -3.0634   21.8037  -26.4715 H   0  0  0  0  0  0  0  0  0  0  0  0
   -2.3689   19.4499  -25.9995 H   0  0  0  0  0  0  0  0  0  0  0  0
   -0.9466   18.2310  -27.6545 H   0  0  0  0  0  0  0  0  0  0  0  0
   -2.8582   22.6181  -32.4247 H   0  0  0  0  0  0  0  0  0  0  0  0
   -4.3149   21.2454  -33.9174 H   0  0  0  0  0  0  0  0  0  0  0  0
   -3.8956   18.7962  -34.1667 H   0  0  0  0  0  0  0  0  0  0  0  0
   -2.0184   17.7169  -32.9212 H   0  0  0  0  0  0  0  0  0  0  0  0
   -0.5613   19.0857  -31.4234 H   0  0  0  0  0  0  0  0  0  0  0  0
  1  2  1  0
  2  3  1  0
  3  4  1  0
  4  5  2  0
  4  6  1  0
  6  7  1  0
  7  8  2  0
  8  9  1  0
  9 10  2  0
 10 11  1  0
 11 12  1  0
 12 13  1  0
 12 14  2  0
 12 15  2  0
 11 16  2  0
  2 17  1  0
 17 18  2  0
 17 19  1  0
 19 20  2  0
 20 21  1  0
 21 22  2  0
 22 23  1  0
 23 24  2  0
 24 25  1  0
 25 26  1  0
 26 27  2  0
 27 28  1  0
 28 29  2  0
 29 30  1  0
 30 31  2  0
 16  7  1  0
 24 19  1  0
 31 26  1  0
  1 32  1  0
  1 33  1  0
  1 34  1  0
  3 35  1  0
  3 36  1  0
  8 37  1  0
  9 38  1  0
 10 39  1  0
 13 40  1  0
 13 41  1  0
 16 42  1  0
 20 43  1  0
 21 44  1  0
 22 45  1  0
 27 46  1  0
 28 47  1  0
 29 48  1  0
 30 49  1  0
 31 50  1  0
M  CHG  1   6  -1
M  END
>  <UniqueID>  (35) 
33

>  <SMILES>  (35) 
CN(CC(=O)[N-]c1cccc(S(N)(=O)=O)c1)C(=O)c1cccnc1Sc1ccccc1

>  <Energy>  (35) 
53.965490864020914

>  <Genealogy>  (35) 
CN(CC(=O)[N-]c1cccc(S(N)(=O)=O)c1)C(=O)c1cccnc1Sc1ccccc1 (protonated)
CN(CC(=O)[N-]c1cccc(S(N)(=O)=O)c1)C(=O)c1cccnc1Sc1ccccc1 (3D coordinates assigned)
CN(CC(=O)[N-]c1cccc(S(N)(=O)=O)c1)C(=O)c1cccnc1Sc1ccccc1 (optimized conformer: 53.965490864020914 kcal/mol)

>  <smiles>  (35) 
CN(CC(=O)Nc1cccc(S(N)(=O)=O)c1)C(=O)c1cccnc1Sc1ccccc1

>  <score_type>  (35) 
oracle

>  <origin>  (35) 
adgpu

>  <m_score__min__energy>  (35) 
-11.92

>  <m_primary>  (35) 
energy

$$$$
35:0
     RDKit          3D

 32 33  0  0  0  0  0  0  0  0999 V2000
   -7.8990   19.3550  -32.7910 C   0  0  0  0  0  0  0  0  0  0  0  0
   -7.3810   20.6210  -32.1610 C   0  0  0  0  0  0  0  0  0  0  0  0
   -8.2440   21.4020  -31.3730 C   0  0  0  0  0  0  0  0  0  0  0  0
   -7.7920   22.5770  -30.7710 C   0  0  0  0  0  0  0  0  0  0  0  0
   -6.4660   23.0010  -30.9540 C   0  0  0  0  0  0  0  0  0  0  0  0
   -5.9560   24.1910  -30.3360 N   0  0  0  0  0  0  0  0  0  0  0  0
   -4.5760   24.5360  -30.1500 C   0  0  0  0  0  0  0  0  0  0  0  0
   -4.0740   25.5090  -30.7750 O   0  0  0  0  0  0  0  0  0  0  0  0
   -3.7470   23.7430  -29.2160 C   0  0  0  0  0  0  0  0  0  0  0  0
   -4.2630   22.5280  -28.7290 C   0  0  0  0  0  0  0  0  0  0  0  0
   -3.5520   21.7760  -27.7910 C   0  0  0  0  0  0  0  0  0  0  0  0
   -2.3170   22.2260  -27.3260 C   0  0  0  0  0  0  0  0  0  0  0  0
   -1.7810   23.4190  -27.8130 C   0  0  0  0  0  0  0  0  0  0  0  0
   -2.4720   24.1750  -28.7690 C   0  0  0  0  0  0  0  0  0  0  0  0
   -1.8460   25.3190  -29.2690 O   0  0  0  0  0  0  0  0  0  0  0  0
   -5.5920   22.2100  -31.7070 C   0  0  0  0  0  0  0  0  0  0  0  0
   -6.0330   21.0210  -32.3150 C   0  0  0  0  0  0  0  0  0  0  0  0
   -5.0650   20.2090  -33.1340 C   0  0  0  0  0  0  0  0  0  0  0  0
   -8.1894   18.6452  -32.0024 H   0  0  0  0  0  0  0  0  0  0  0  0
   -8.7742   19.5876  -33.4154 H   0  0  0  0  0  0  0  0  0  0  0  0
   -7.1117   18.9074  -33.4154 H   0  0  0  0  0  0  0  0  0  0  0  0
   -9.2870   21.0835  -31.2293 H   0  0  0  0  0  0  0  0  0  0  0  0
   -8.4772   23.1734  -30.1507 H   0  0  0  0  0  0  0  0  0  0  0  0
   -5.2368   22.1665  -29.0909 H   0  0  0  0  0  0  0  0  0  0  0  0
   -3.9669   20.8277  -27.4187 H   0  0  0  0  0  0  0  0  0  0  0  0
   -1.7653   21.6409  -26.5755 H   0  0  0  0  0  0  0  0  0  0  0  0
   -0.8063   23.7693  -27.4426 H   0  0  0  0  0  0  0  0  0  0  0  0
   -1.9980   25.6740  -30.2030 H   0  0  0  0  0  0  0  0  0  0  0  0
   -4.5440   22.5226  -31.8254 H   0  0  0  0  0  0  0  0  0  0  0  0
   -4.3971   19.6487  -32.4632 H   0  0  0  0  0  0  0  0  0  0  0  0
   -5.6226   19.5044  -33.7686 H   0  0  0  0  0  0  0  0  0  0  0  0
   -4.4682   20.8806  -33.7686 H   0  0  0  0  0  0  0  0  0  0  0  0
  1  2  1  0
  2  3  2  0
  3  4  1  0
  4  5  2  0
  5  6  1  0
  6  7  1  0
  7  8  2  0
  7  9  1  0
  9 10  2  0
 10 11  1  0
 11 12  2  0
 12 13  1  0
 13 14  2  0
 14 15  1  0
  5 16  1  0
 16 17  2  0
 17 18  1  0
 17  2  1  0
 14  9  1  0
  1 19  1  0
  1 20  1  0
  1 21  1  0
  3 22  1  0
  4 23  1  0
 10 24  1  0
 11 25  1  0
 12 26  1  0
 13 27  1  0
 15 28  1  0
 16 29  1  0
 18 30  1  0
 18 31  1  0
 18 32  1  0
M  CHG  1   6  -1
M  END
>  <UniqueID>  (36) 
34

>  <SMILES>  (36) 
Cc1ccc([N-]C(=O)c2ccccc2O)cc1C

>  <Energy>  (36) 
41.77984584255094

>  <Genealogy>  (36) 
Cc1ccc([N-]C(=O)c2ccccc2O)cc1C (protonated)
Cc1ccc([N-]C(=O)c2ccccc2O)cc1C (3D coordinates assigned)
Cc1ccc([N-]C(=O)c2ccccc2O)cc1C (optimized conformer: 41.77984584255094 kcal/mol)

>  <smiles>  (36) 
Cc1ccc(NC(=O)c2ccccc2O)cc1C

>  <score_type>  (36) 
oracle

>  <origin>  (36) 
adgpu

>  <m_score__min__energy>  (36) 
-9.0800000000000001

>  <m_primary>  (36) 
energy

$$$$
36:0
     RDKit          3D

 61 63  0  0  0  0  0  0  0  0999 V2000
   -8.7480   21.9360  -31.5490 C   0  0  0  0  0  0  0  0  0  0  0  0
   -9.0470   20.5050  -31.9870 C   0  0  0  0  0  0  0  0  0  0  0  0
   -8.0800   20.0430  -33.0830 C   0  0  0  0  0  0  0  0  0  0  0  0
   -7.0120   19.2150  -32.5020 N   0  0  0  0  0  0  0  0  0  0  0  0
   -7.2370   17.7780  -32.3050 C   0  0  0  0  0  0  0  0  0  0  0  0
   -6.2920   16.9720  -33.2000 C   0  0  0  0  0  0  0  0  0  0  0  0
   -6.1460   17.6210  -34.5760 C   0  0  0  0  0  0  0  0  0  0  0  0
   -5.7280   19.7980  -32.2150 C   0  0  0  0  0  0  0  0  0  0  0  0
   -4.5920   19.4490  -32.8630 N   0  0  0  0  0  0  0  0  0  0  0  0
   -3.6850   20.2730  -32.3030 C   0  0  0  0  0  0  0  0  0  0  0  0
   -2.2710   20.3290  -32.7380 C   0  0  0  0  0  0  0  0  0  0  0  0
   -1.9130   21.1210  -33.8420 C   0  0  0  0  0  0  0  0  0  0  0  0
   -0.5830   21.1940  -34.2570 C   0  0  0  0  0  0  0  0  0  0  0  0
    0.4140   20.4520  -33.5950 C   0  0  0  0  0  0  0  0  0  0  0  0
    1.7580   20.4780  -34.0170 O   0  0  0  0  0  0  0  0  0  0  0  0
    2.2700   19.7420  -35.1250 C   0  0  0  0  0  0  0  0  0  0  0  0
    0.0630   19.6600  -32.4870 C   0  0  0  0  0  0  0  0  0  0  0  0
    1.1050   18.8350  -31.7800 C   0  0  0  0  0  0  0  0  0  0  0  0
   -1.2780   19.5870  -32.0820 C   0  0  0  0  0  0  0  0  0  0  0  0
   -4.2540   21.0680  -31.3660 N   0  0  0  0  0  0  0  0  0  0  0  0
   -3.6800   22.2100  -30.7260 C   0  0  0  0  0  0  0  0  0  0  0  0
   -4.3710   23.4280  -30.7270 C   0  0  0  0  0  0  0  0  0  0  0  0
   -3.8040   24.5560  -30.1310 C   0  0  0  0  0  0  0  0  0  0  0  0
   -2.5310   24.4880  -29.5490 C   0  0  0  0  0  0  0  0  0  0  0  0
   -1.9860   25.6720  -28.9470 N   0  0  0  0  0  0  0  0  0  0  0  0
   -0.9540   25.7140  -27.9520 C   0  0  0  0  0  0  0  0  0  0  0  0
   -1.2140   26.4110  -26.6610 C   0  0  0  0  0  0  0  0  0  0  0  0
    0.1870   25.2280  -28.1810 O   0  0  0  0  0  0  0  0  0  0  0  0
   -1.8490   23.2550  -29.5210 C   0  0  0  0  0  0  0  0  0  0  0  0
   -2.4270   22.1200  -30.0990 C   0  0  0  0  0  0  0  0  0  0  0  0
   -5.5440   20.7830  -31.3120 N   0  0  0  0  0  0  0  0  0  0  0  0
   -8.7370   21.9885  -30.4503 H   0  0  0  0  0  0  0  0  0  0  0  0
   -7.7666   22.2418  -31.9405 H   0  0  0  0  0  0  0  0  0  0  0  0
   -9.5249   22.6092  -31.9405 H   0  0  0  0  0  0  0  0  0  0  0  0
   -8.9495   19.8369  -31.1186 H   0  0  0  0  0  0  0  0  0  0  0  0
  -10.0697   20.4726  -32.3909 H   0  0  0  0  0  0  0  0  0  0  0  0
   -8.6319   19.4529  -33.8294 H   0  0  0  0  0  0  0  0  0  0  0  0
   -7.6301   20.9260  -33.5604 H   0  0  0  0  0  0  0  0  0  0  0  0
   -7.0490   17.5209  -31.2521 H   0  0  0  0  0  0  0  0  0  0  0  0
   -8.2773   17.5362  -32.5684 H   0  0  0  0  0  0  0  0  0  0  0  0
   -5.3029   16.9190  -32.7216 H   0  0  0  0  0  0  0  0  0  0  0  0
   -6.7131   15.9645  -33.3331 H   0  0  0  0  0  0  0  0  0  0  0  0
   -5.9060   18.6876  -34.4547 H   0  0  0  0  0  0  0  0  0  0  0  0
   -5.3372   17.1241  -35.1318 H   0  0  0  0  0  0  0  0  0  0  0  0
   -7.0897   17.5184  -35.1318 H   0  0  0  0  0  0  0  0  0  0  0  0
   -2.6861   21.6869  -34.3824 H   0  0  0  0  0  0  0  0  0  0  0  0
   -0.3111   21.8361  -35.1078 H   0  0  0  0  0  0  0  0  0  0  0  0
    2.8621   18.8908  -34.7577 H   0  0  0  0  0  0  0  0  0  0  0  0
    1.4342   19.3707  -35.7362 H   0  0  0  0  0  0  0  0  0  0  0  0
    2.9088   20.3965  -35.7362 H   0  0  0  0  0  0  0  0  0  0  0  0
    0.9769   18.9364  -30.6922 H   0  0  0  0  0  0  0  0  0  0  0  0
    0.9922   17.7787  -32.0656 H   0  0  0  0  0  0  0  0  0  0  0  0
    2.1072   19.1870  -32.0656 H   0  0  0  0  0  0  0  0  0  0  0  0
   -1.5547   18.9384  -31.2377 H   0  0  0  0  0  0  0  0  0  0  0  0
   -5.3626   23.4961  -31.1983 H   0  0  0  0  0  0  0  0  0  0  0  0
   -4.3604   25.5048  -30.1182 H   0  0  0  0  0  0  0  0  0  0  0  0
   -0.9639   25.7406  -25.8255 H   0  0  0  0  0  0  0  0  0  0  0  0
   -0.5935   27.3174  -26.6022 H   0  0  0  0  0  0  0  0  0  0  0  0
   -2.2765   26.6896  -26.6022 H   0  0  0  0  0  0  0  0  0  0  0  0
   -0.8604   23.1851  -29.0437 H   0  0  0  0  0  0  0  0  0  0  0  0
   -1.8992   21.1556  -30.0623 H   0  0  0  0  0  0  0  0  0  0  0  0
  1  2  1  0
  2  3  1  0
  3  4  1  0
  4  5  1  0
  5  6  1  0
  6  7  1  0
  4  8  1  0
  8  9  1  0
  9 10  2  0
 10 11  1  0
 11 12  2  0
 12 13  1  0
 13 14  2  0
 14 15  1  0
 15 16  1  0
 14 17  1  0
 17 18  1  0
 17 19  2  0
 10 20  1  0
 20 21  1  0
 21 22  2  0
 22 23  1  0
 23 24  2  0
 24 25  1  0
 25 26  1  0
 26 27  1  0
 26 28  2  0
 24 29  1  0
 29 30  2  0
 20 31  1  0
 31  8  2  0
 19 11  1  0
 30 21  1  0
  1 32  1  0
  1 33  1  0
  1 34  1  0
  2 35  1  0
  2 36  1  0
  3 37  1  0
  3 38  1  0
  5 39  1  0
  5 40  1  0
  6 41  1  0
  6 42  1  0
  7 43  1  0
  7 44  1  0
  7 45  1  0
 12 46  1  0
 13 47  1  0
 16 48  1  0
 16 49  1  0
 16 50  1  0
 18 51  1  0
 18 52  1  0
 18 53  1  0
 19 54  1  0
 22 55  1  0
 23 56  1  0
 27 57  1  0
 27 58  1  0
 27 59  1  0
 29 60  1  0
 30 61  1  0
M  CHG  1  25  -1
M  END
>  <UniqueID>  (37) 
35

>  <SMILES>  (37) 
CCCN(CCC)c1nc(-c2ccc(OC)c(C)c2)n(-c2ccc([N-]C(C)=O)cc2)n1

>  <Energy>  (37) 
95.63065012304935

>  <Genealogy>  (37) 
CCCN(CCC)c1nc(-c2ccc(OC)c(C)c2)n(-c2ccc([N-]C(C)=O)cc2)n1 (protonated)
CCCN(CCC)c1nc(-c2ccc(OC)c(C)c2)n(-c2ccc([N-]C(C)=O)cc2)n1 (3D coordinates assigned)
CCCN(CCC)c1nc(-c2ccc(OC)c(C)c2)n(-c2ccc([N-]C(C)=O)cc2)n1 (optimized conformer: 95.63065012304935 kcal/mol)

>  <smiles>  (37) 
CCCN(CCC)c1nc(-c2ccc(OC)c(C)c2)n(-c2ccc(NC(C)=O)cc2)n1

>  <score_type>  (37) 
oracle

>  <origin>  (37) 
adgpu

>  <m_score__min__energy>  (37) 
-10.01

>  <m_primary>  (37) 
energy

$$$$
37:0
     RDKit          3D

 42 44  0  0  0  0  0  0  0  0999 V2000
   -0.0196   22.4446  -27.2098 H   0  0  0  0  0  0  0  0  0  0  0  0
   -0.8120   23.0530  -27.6700 C   0  0  0  0  0  0  0  0  0  0  0  0
   -2.1220   22.5660  -27.7240 C   0  0  0  0  0  0  0  0  0  0  0  0
   -2.3537   21.5719  -27.3141 H   0  0  0  0  0  0  0  0  0  0  0  0
   -3.1430   23.3400  -28.2990 C   0  0  0  0  0  0  0  0  0  0  0  0
   -4.5380   22.7870  -28.4140 C   0  0  0  0  0  0  0  0  0  0  0  0
   -4.5168   21.7014  -28.2379 H   0  0  0  0  0  0  0  0  0  0  0  0
   -5.1843   23.2696  -27.6661 H   0  0  0  0  0  0  0  0  0  0  0  0
   -5.0750   23.0580  -29.7810 C   0  0  0  0  0  0  0  0  0  0  0  0
   -5.1040   24.2730  -30.3640 N   0  0  0  0  0  0  0  0  0  0  0  0
   -5.6270   24.0960  -31.5690 N   0  0  0  0  0  0  0  0  0  0  0  0
   -5.8950   22.7810  -31.6640 C   0  0  0  0  0  0  0  0  0  0  0  0
   -6.4010   22.2310  -32.7270 N   0  0  0  0  0  0  0  0  0  0  0  0
   -6.7210   20.8390  -32.8620 C   0  0  0  0  0  0  0  0  0  0  0  0
   -7.7820   20.5150  -33.4580 O   0  0  0  0  0  0  0  0  0  0  0  0
   -5.8940   19.8250  -32.2710 N   0  0  0  0  0  0  0  0  0  0  0  0
   -5.4140   20.0520  -31.3700 H   0  0  0  0  0  0  0  0  0  0  0  0
   -5.7760   18.4860  -32.7810 C   0  0  0  0  0  0  0  0  0  0  0  0
   -5.6130   18.2350  -34.1540 C   0  0  0  0  0  0  0  0  0  0  0  0
   -5.6033   19.0734  -34.8660 H   0  0  0  0  0  0  0  0  0  0  0  0
   -5.4630   16.9250  -34.6200 C   0  0  0  0  0  0  0  0  0  0  0  0
   -5.3516   16.7368  -35.6980 H   0  0  0  0  0  0  0  0  0  0  0  0
   -5.4540   15.8500  -33.7190 C   0  0  0  0  0  0  0  0  0  0  0  0
   -5.3270   14.4460  -34.2270 C   0  0  0  0  0  0  0  0  0  0  0  0
   -5.2643   13.7523  -33.3756 H   0  0  0  0  0  0  0  0  0  0  0  0
   -6.2063   14.1966  -34.8391 H   0  0  0  0  0  0  0  0  0  0  0  0
   -4.4173   14.3584  -34.8391 H   0  0  0  0  0  0  0  0  0  0  0  0
   -5.6200   16.0980  -32.3500 C   0  0  0  0  0  0  0  0  0  0  0  0
   -5.6339   15.2585  -31.6394 H   0  0  0  0  0  0  0  0  0  0  0  0
   -5.7680   17.4070  -31.8830 C   0  0  0  0  0  0  0  0  0  0  0  0
   -5.8790   17.5930  -30.8045 H   0  0  0  0  0  0  0  0  0  0  0  0
   -5.5590   22.1340  -30.5750 O   0  0  0  0  0  0  0  0  0  0  0  0
   -2.8340   24.5980  -28.8390 C   0  0  0  0  0  0  0  0  0  0  0  0
   -3.6251   25.2033  -29.3057 H   0  0  0  0  0  0  0  0  0  0  0  0
   -1.5240   25.0850  -28.7860 C   0  0  0  0  0  0  0  0  0  0  0  0
   -1.2360   26.3340  -29.3240 O   0  0  0  0  0  0  0  0  0  0  0  0
   -0.5040   24.3200  -28.2030 C   0  0  0  0  0  0  0  0  0  0  0  0
    0.7970   24.8460  -28.1770 O   0  0  0  0  0  0  0  0  0  0  0  0
    1.3350   25.6180  -27.1070 C   0  0  0  0  0  0  0  0  0  0  0  0
    1.0282   25.1777  -26.1468 H   0  0  0  0  0  0  0  0  0  0  0  0
    2.4329   25.6226  -27.1741 H   0  0  0  0  0  0  0  0  0  0  0  0
    0.9592   26.6496  -27.1741 H   0  0  0  0  0  0  0  0  0  0  0  0
  1  2  1  0
  2  3  2  0
  3  4  1  0
  3  5  1  0
  5  6  1  0
  6  7  1  0
  6  8  1  0
  6  9  1  0
  9 10  2  0
 10 11  1  0
 11 12  1  0
 12 13  2  0
 13 14  1  0
 14 15  2  0
 14 16  1  0
 16 17  1  0
 16 18  1  0
 18 19  2  0
 19 20  1  0
 19 21  1  0
 21 22  1  0
 21 23  2  0
 23 24  1  0
 24 25  1  0
 24 26  1  0
 24 27  1  0
 23 28  1  0
 28 29  1  0
 28 30  2  0
 30 31  1  0
 12 32  1  0
  5 33  2  0
 33 34  1  0
 33 35  1  0
 35 36  1  0
 35 37  2  0
 37 38  1  0
 38 39  1  0
 39 40  1  0
 39 41  1  0
 39 42  1  0
 37  2  1  0
 32  9  1  0
 30 18  1  0
M  CHG  2  11  -1  36  -1
M  END
>  <UniqueID>  (38) 
36

>  <SMILES>  (38) 
COc1ccc(Cc2n[n-]/c(=N/C(=O)Nc3ccc(C)cc3)o2)cc1[O-]

>  <Energy>  (38) 
81.74577989479188

>  <Genealogy>  (38) 
COc1ccc(Cc2n[n-]c(=NC(=O)Nc3ccc(C)cc3)o2)cc1[O-] (protonated)
COc1ccc(Cc2n[n-]/c(=N/C(=O)Nc3ccc(C)cc3)o2)cc1[O-] (cis-trans isomerization)
COc1ccc(Cc2n[n-]/c(=N/C(=O)Nc3ccc(C)cc3)o2)cc1[O-] (3D coordinates assigned)
COc1ccc(Cc2n[n-]/c(=N/C(=O)Nc3ccc(C)cc3)o2)cc1[O-] (optimized conformer: 81.74577989479188 kcal/mol)

>  <smiles>  (38) 
COc1ccc(Cc2n[nH]c(=NC(=O)Nc3ccc(C)cc3)o2)cc1O

>  <score_type>  (38) 
oracle

>  <origin>  (38) 
adgpu

>  <m_score__min__energy>  (38) 
-10.83

>  <m_primary>  (38) 
energy

$$$$
38:0
     RDKit          3D

 51 54  0  0  0  0  0  0  0  0999 V2000
   -4.8364   25.4812  -29.8926 H   0  0  0  0  0  0  0  0  0  0  0  0
   -4.2000   24.6320  -30.1820 C   0  0  0  0  0  0  0  0  0  0  0  0
   -4.4580   23.7750  -31.1880 N   0  0  0  0  0  0  0  0  0  0  0  0
   -3.4870   22.8740  -31.2360 N   0  0  0  0  0  0  0  0  0  0  0  0
   -3.4650   21.8350  -32.2610 C   0  0  0  0  0  0  0  0  0  0  0  0
   -3.4441   20.8459  -31.7801 H   0  0  0  0  0  0  0  0  0  0  0  0
   -4.3651   21.9190  -32.8877 H   0  0  0  0  0  0  0  0  0  0  0  0
   -2.5692   21.9571  -32.8877 H   0  0  0  0  0  0  0  0  0  0  0  0
   -2.5890   23.1530  -30.2540 C   0  0  0  0  0  0  0  0  0  0  0  0
   -1.5220   22.4710  -29.9300 N   0  0  0  0  0  0  0  0  0  0  0  0
   -0.9870   21.2230  -30.4720 C   0  0  0  0  0  0  0  0  0  0  0  0
   -1.6633   20.8579  -31.2590 H   0  0  0  0  0  0  0  0  0  0  0  0
    0.0156   21.4279  -30.8755 H   0  0  0  0  0  0  0  0  0  0  0  0
   -0.8560   20.1600  -29.4090 C   0  0  0  0  0  0  0  0  0  0  0  0
   -1.6350   20.2050  -28.2380 C   0  0  0  0  0  0  0  0  0  0  0  0
   -2.3757   21.0071  -28.1039 H   0  0  0  0  0  0  0  0  0  0  0  0
   -1.4720   19.2350  -27.2440 C   0  0  0  0  0  0  0  0  0  0  0  0
   -2.0968   19.2652  -26.3391 H   0  0  0  0  0  0  0  0  0  0  0  0
   -0.5160   18.2270  -27.3990 C   0  0  0  0  0  0  0  0  0  0  0  0
   -0.3939   17.4604  -26.6196 H   0  0  0  0  0  0  0  0  0  0  0  0
    0.2840   18.1930  -28.5430 C   0  0  0  0  0  0  0  0  0  0  0  0
    1.0412   17.4038  -28.6603 H   0  0  0  0  0  0  0  0  0  0  0  0
    0.1240   19.1610  -29.5400 C   0  0  0  0  0  0  0  0  0  0  0  0
    0.7685   19.1403  -30.4312 H   0  0  0  0  0  0  0  0  0  0  0  0
   -3.0120   24.2800  -29.5690 C   0  0  0  0  0  0  0  0  0  0  0  0
   -2.3830   24.9500  -28.4060 C   0  0  0  0  0  0  0  0  0  0  0  0
   -2.9870   24.9170  -27.1370 C   0  0  0  0  0  0  0  0  0  0  0  0
   -3.9406   24.3860  -27.0004 H   0  0  0  0  0  0  0  0  0  0  0  0
   -2.3860   25.5530  -26.0480 C   0  0  0  0  0  0  0  0  0  0  0  0
   -2.8684   25.5154  -25.0601 H   0  0  0  0  0  0  0  0  0  0  0  0
   -1.1710   26.2400  -26.2040 C   0  0  0  0  0  0  0  0  0  0  0  0
   -0.5470   26.8900  -25.0800 N   0  0  0  0  0  0  0  0  0  0  0  0
    0.6590   27.7070  -25.2560 C   0  0  0  0  0  0  0  0  0  0  0  0
    1.0470   27.5623  -26.2751 H   0  0  0  0  0  0  0  0  0  0  0  0
    0.3964   28.7626  -25.0922 H   0  0  0  0  0  0  0  0  0  0  0  0
    1.7470   27.3050  -24.2390 C   0  0  0  0  0  0  0  0  0  0  0  0
    2.4385   26.6028  -24.7277 H   0  0  0  0  0  0  0  0  0  0  0  0
    2.2497   28.2297  -23.9193 H   0  0  0  0  0  0  0  0  0  0  0  0
    1.2060   26.6600  -23.0230 N   0  0  0  0  0  0  0  0  0  0  0  0
    1.1520   25.6240  -23.1720 H   0  0  0  0  0  0  0  0  0  0  0  0
    1.8620   26.8340  -22.2260 H   0  0  0  0  0  0  0  0  0  0  0  0
   -0.1250   27.1670  -22.6620 C   0  0  0  0  0  0  0  0  0  0  0  0
   -0.4334   26.7265  -21.7024 H   0  0  0  0  0  0  0  0  0  0  0  0
   -0.0799   28.2627  -22.5757 H   0  0  0  0  0  0  0  0  0  0  0  0
   -1.1480   26.7920  -23.7440 C   0  0  0  0  0  0  0  0  0  0  0  0
   -1.4897   25.7600  -23.5762 H   0  0  0  0  0  0  0  0  0  0  0  0
   -1.9974   27.4885  -23.6854 H   0  0  0  0  0  0  0  0  0  0  0  0
   -0.5580   26.2580  -27.4670 C   0  0  0  0  0  0  0  0  0  0  0  0
    0.4009   26.7802  -27.6005 H   0  0  0  0  0  0  0  0  0  0  0  0
   -1.1560   25.6180  -28.5560 C   0  0  0  0  0  0  0  0  0  0  0  0
   -0.6620   25.6374  -29.5387 H   0  0  0  0  0  0  0  0  0  0  0  0
  1  2  1  0
  2  3  1  0
  3  4  1  0
  4  5  1  0
  5  6  1  0
  5  7  1  0
  5  8  1  0
  4  9  1  0
  9 10  2  0
 10 11  1  0
 11 12  1  0
 11 13  1  0
 11 14  1  0
 14 15  2  0
 15 16  1  0
 15 17  1  0
 17 18  1  0
 17 19  2  0
 19 20  1  0
 19 21  1  0
 21 22  1  0
 21 23  2  0
 23 24  1  0
  9 25  1  0
 25 26  1  0
 26 27  2  0
 27 28  1  0
 27 29  1  0
 29 30  1  0
 29 31  2  0
 31 32  1  0
 32 33  1  0
 33 34  1  0
 33 35  1  0
 33 36  1  0
 36 37  1  0
 36 38  1  0
 36 39  1  0
 39 40  1  0
 39 41  1  0
 39 42  1  0
 42 43  1  0
 42 44  1  0
 42 45  1  0
 45 46  1  0
 45 47  1  0
 31 48  1  0
 48 49  1  0
 48 50  2  0
 50 51  1  0
 25  2  2  0
 50 26  1  0
 23 14  1  0
 45 32  1  0
M  CHG  2   3  -1  39   1
M  END
>  <UniqueID>  (39) 
37

>  <SMILES>  (39) 
Cn1[n-]cc(-c2ccc(N3CC[NH2+]CC3)cc2)/c1=N/Cc1ccccc1

>  <Energy>  (39) 
103.59949454684903

>  <Genealogy>  (39) 
Cn1[n-]cc(-c2ccc(N3CC[NH2+]CC3)cc2)c1=NCc1ccccc1 (protonated)
Cn1[n-]cc(-c2ccc(N3CC[NH2+]CC3)cc2)/c1=N/Cc1ccccc1 (cis-trans isomerization)
Cn1[n-]cc(-c2ccc(N3CC[NH2+]CC3)cc2)/c1=N/Cc1ccccc1 (3D coordinates assigned)
Cn1[n-]cc(-c2ccc(N3CC[NH2+]CC3)cc2)/c1=N/Cc1ccccc1 (nonaromatic ring conformer: 103.59949454684903 kcal/mol)

>  <smiles>  (39) 
Cn1[nH]cc(-c2ccc(N3CCNCC3)cc2)c1=NCc1ccccc1

>  <score_type>  (39) 
oracle

>  <origin>  (39) 
adgpu

>  <m_score__min__energy>  (39) 
-9.5999999999999996

>  <m_primary>  (39) 
energy

$$$$
39:0
     RDKit          3D

 54 57  0  0  0  0  0  0  0  0999 V2000
    0.7720   26.7610  -23.0540 N   0  0  0  0  0  0  0  0  0  0  0  0
    0.1160   27.5190  -24.0810 C   0  0  0  0  0  0  0  0  0  0  0  0
    0.1900   28.8170  -24.0600 N   0  0  0  0  0  0  0  0  0  0  0  0
   -0.6620   26.8220  -25.1360 C   0  0  0  0  0  0  0  0  0  0  0  0
   -0.1420   26.7090  -26.4350 C   0  0  0  0  0  0  0  0  0  0  0  0
   -0.8600   26.0440  -27.4330 C   0  0  0  0  0  0  0  0  0  0  0  0
   -2.1070   25.4680  -27.1470 C   0  0  0  0  0  0  0  0  0  0  0  0
   -2.8300   24.7880  -28.1910 N   0  0  0  0  0  0  0  0  0  0  0  0
   -2.4980   23.4670  -28.6510 C   0  0  0  0  0  0  0  0  0  0  0  0
   -1.7140   22.6270  -27.8410 C   0  0  0  0  0  0  0  0  0  0  0  0
   -1.3960   21.3330  -28.2600 C   0  0  0  0  0  0  0  0  0  0  0  0
   -1.8510   20.8650  -29.4940 C   0  0  0  0  0  0  0  0  0  0  0  0
   -2.6220   21.6890  -30.3140 C   0  0  0  0  0  0  0  0  0  0  0  0
   -2.9510   22.9970  -29.9080 C   0  0  0  0  0  0  0  0  0  0  0  0
   -3.8010   23.8260  -30.7920 C   0  0  0  0  0  0  0  0  0  0  0  0
   -3.8630   25.0700  -30.6120 O   0  0  0  0  0  0  0  0  0  0  0  0
   -4.4870   23.2590  -31.9140 N   0  0  0  0  0  0  0  0  0  0  0  0
   -5.8720   22.8810  -31.9590 C   0  0  0  0  0  0  0  0  0  0  0  0
   -6.8830   23.7960  -31.6190 C   0  0  0  0  0  0  0  0  0  0  0  0
   -8.2220   23.4000  -31.6160 C   0  0  0  0  0  0  0  0  0  0  0  0
   -8.5650   22.0910  -31.9620 C   0  0  0  0  0  0  0  0  0  0  0  0
   -7.5710   21.1810  -32.3320 C   0  0  0  0  0  0  0  0  0  0  0  0
   -6.2280   21.5730  -32.3590 C   0  0  0  0  0  0  0  0  0  0  0  0
   -5.2660   20.6270  -32.7420 O   0  0  0  0  0  0  0  0  0  0  0  0
   -5.5330   19.2730  -32.9940 C   0  0  0  0  0  0  0  0  0  0  0  0
   -5.8030   18.3660  -31.9520 C   0  0  0  0  0  0  0  0  0  0  0  0
   -6.0730   17.0260  -32.2410 C   0  0  0  0  0  0  0  0  0  0  0  0
   -6.0710   16.5800  -33.5670 C   0  0  0  0  0  0  0  0  0  0  0  0
   -5.7760   17.4710  -34.6040 C   0  0  0  0  0  0  0  0  0  0  0  0
   -5.5020   18.8120  -34.3160 C   0  0  0  0  0  0  0  0  0  0  0  0
   -2.6410   25.5990  -25.8530 C   0  0  0  0  0  0  0  0  0  0  0  0
   -1.9240   26.2630  -24.8570 C   0  0  0  0  0  0  0  0  0  0  0  0
    1.2610   27.2380  -22.2630 H   0  0  0  0  0  0  0  0  0  0  0  0
    0.8060   25.7170  -23.1010 H   0  0  0  0  0  0  0  0  0  0  0  0
    0.7240   29.3060  -23.3090 H   0  0  0  0  0  0  0  0  0  0  0  0
   -0.3010   29.4090  -24.7670 H   0  0  0  0  0  0  0  0  0  0  0  0
    0.8391   27.1476  -26.6696 H   0  0  0  0  0  0  0  0  0  0  0  0
   -0.4448   25.9718  -28.4491 H   0  0  0  0  0  0  0  0  0  0  0  0
   -3.5580   25.3190  -28.7170 H   0  0  0  0  0  0  0  0  0  0  0  0
   -1.3482   22.9916  -26.8698 H   0  0  0  0  0  0  0  0  0  0  0  0
   -0.7861   20.6818  -27.6166 H   0  0  0  0  0  0  0  0  0  0  0  0
   -1.6011   19.8447  -29.8203 H   0  0  0  0  0  0  0  0  0  0  0  0
   -2.9760   21.3142  -31.2857 H   0  0  0  0  0  0  0  0  0  0  0  0
   -6.6180   24.8301  -31.3537 H   0  0  0  0  0  0  0  0  0  0  0  0
   -9.0073   24.1195  -31.3409 H   0  0  0  0  0  0  0  0  0  0  0  0
   -9.6188   21.7760  -31.9432 H   0  0  0  0  0  0  0  0  0  0  0  0
   -7.8458   20.1511  -32.6035 H   0  0  0  0  0  0  0  0  0  0  0  0
   -5.8014   18.7129  -30.9081 H   0  0  0  0  0  0  0  0  0  0  0  0
   -6.2875   16.3206  -31.4247 H   0  0  0  0  0  0  0  0  0  0  0  0
   -6.3014   15.5286  -33.7940 H   0  0  0  0  0  0  0  0  0  0  0  0
   -5.7595   17.1173  -35.6455 H   0  0  0  0  0  0  0  0  0  0  0  0
   -5.2608   19.5085  -35.1325 H   0  0  0  0  0  0  0  0  0  0  0  0
   -3.6301   25.1754  -25.6244 H   0  0  0  0  0  0  0  0  0  0  0  0
   -2.3480   26.3505  -23.8458 H   0  0  0  0  0  0  0  0  0  0  0  0
  1  2  1  0
  2  3  2  0
  2  4  1  0
  4  5  2  0
  5  6  1  0
  6  7  2  0
  7  8  1  0
  8  9  1  0
  9 10  2  0
 10 11  1  0
 11 12  2  0
 12 13  1  0
 13 14  2  0
 14 15  1  0
 15 16  2  0
 15 17  1  0
 17 18  1  0
 18 19  2  0
 19 20  1  0
 20 21  2  0
 21 22  1  0
 22 23  2  0
 23 24  1  0
 24 25  1  0
 25 26  2  0
 26 27  1  0
 27 28  2  0
 28 29  1  0
 29 30  2  0
  7 31  1  0
 31 32  2  0
 32  4  1  0
 14  9  1  0
 23 18  1  0
 30 25  1  0
  1 33  1  0
  1 34  1  0
  3 35  1  0
  3 36  1  0
  5 37  1  0
  6 38  1  0
  8 39  1  0
 10 40  1  0
 11 41  1  0
 12 42  1  0
 13 43  1  0
 19 44  1  0
 20 45  1  0
 21 46  1  0
 22 47  1  0
 26 48  1  0
 27 49  1  0
 28 50  1  0
 29 51  1  0
 30 52  1  0
 31 53  1  0
 32 54  1  0
M  CHG  2   3   1  17  -1
M  END
>  <UniqueID>  (40) 
38

>  <SMILES>  (40) 
NC(=[NH2+])c1ccc(Nc2ccccc2C(=O)[N-]c2ccccc2Oc2ccccc2)cc1

>  <Energy>  (40) 
83.69706806902872

>  <Genealogy>  (40) 
NC(=[NH2+])c1ccc(Nc2ccccc2C(=O)[N-]c2ccccc2Oc2ccccc2)cc1 (protonated)
NC(=[NH2+])c1ccc(Nc2ccccc2C(=O)[N-]c2ccccc2Oc2ccccc2)cc1 (3D coordinates assigned)
NC(=[NH2+])c1ccc(Nc2ccccc2C(=O)[N-]c2ccccc2Oc2ccccc2)cc1 (optimized conformer: 83.69706806902872 kcal/mol)

>  <smiles>  (40) 
N=C(N)c1ccc(Nc2ccccc2C(=O)Nc2ccccc2Oc2ccccc2)cc1

>  <score_type>  (40) 
oracle

>  <origin>  (40) 
adgpu

>  <m_score__min__energy>  (40) 
-12.67

>  <m_primary>  (40) 
energy

$$$$
40:0
     RDKit          3D

 23 25  0  0  0  0  0  0  0  0999 V2000
   -4.3480   24.8180  -31.0600 O   0  0  0  0  0  0  0  0  0  0  0  0
   -5.1570   23.7440  -31.4390 C   0  0  0  0  0  0  0  0  0  0  0  0
   -6.5430   23.8950  -31.2540 C   0  0  0  0  0  0  0  0  0  0  0  0
   -7.3840   22.8530  -31.6160 C   0  0  0  0  0  0  0  0  0  0  0  0
   -8.7550   22.7550  -31.5370 C   0  0  0  0  0  0  0  0  0  0  0  0
   -9.0580   21.4960  -32.0380 C   0  0  0  0  0  0  0  0  0  0  0  0
   -7.9330   20.8450  -32.4090 N   0  0  0  0  0  0  0  0  0  0  0  0
   -6.9110   21.6840  -32.1470 C   0  0  0  0  0  0  0  0  0  0  0  0
   -5.5390   21.4770  -32.3560 C   0  0  0  0  0  0  0  0  0  0  0  0
   -5.0440   20.2800  -32.9010 C   0  0  0  0  0  0  0  0  0  0  0  0
   -3.6730   20.1110  -33.0920 C   0  0  0  0  0  0  0  0  0  0  0  0
   -2.7850   21.1270  -32.7450 C   0  0  0  0  0  0  0  0  0  0  0  0
   -3.2560   22.3250  -32.2010 C   0  0  0  0  0  0  0  0  0  0  0  0
   -4.6380   22.5280  -31.9940 C   0  0  0  0  0  0  0  0  0  0  0  0
   -4.2260   25.6640  -31.5980 H   0  0  0  0  0  0  0  0  0  0  0  0
   -6.9530   24.8233  -30.8296 H   0  0  0  0  0  0  0  0  0  0  0  0
   -9.4586   23.5111  -31.1586 H   0  0  0  0  0  0  0  0  0  0  0  0
  -10.0747   21.0846  -32.1216 H   0  0  0  0  0  0  0  0  0  0  0  0
   -7.8900   19.8850  -32.8150 H   0  0  0  0  0  0  0  0  0  0  0  0
   -5.7398   19.4742  -33.1777 H   0  0  0  0  0  0  0  0  0  0  0  0
   -3.2911   19.1717  -33.5184 H   0  0  0  0  0  0  0  0  0  0  0  0
   -1.7053   20.9851  -32.9004 H   0  0  0  0  0  0  0  0  0  0  0  0
   -2.5429   23.1179  -31.9313 H   0  0  0  0  0  0  0  0  0  0  0  0
  1  2  1  0
  2  3  2  0
  3  4  1  0
  4  5  1  0
  5  6  2  0
  6  7  1  0
  7  8  1  0
  8  9  1  0
  9 10  2  0
 10 11  1  0
 11 12  2  0
 12 13  1  0
 13 14  2  0
 14  2  1  0
  8  4  2  0
 14  9  1  0
  1 15  1  0
  3 16  1  0
  5 17  1  0
  6 18  1  0
  7 19  1  0
 10 20  1  0
 11 21  1  0
 12 22  1  0
 13 23  1  0
M  END
>  <UniqueID>  (41) 
39

>  <SMILES>  (41) 
Oc1cc2cc[nH]c2c2ccccc12

>  <Energy>  (41) 
64.87798568731586

>  <Genealogy>  (41) 
Oc1cc2cc[nH]c2c2ccccc12 (3D coordinates assigned)
Oc1cc2cc[nH]c2c2ccccc12 (optimized conformer: 64.87798568731586 kcal/mol)

>  <smiles>  (41) 
Oc1cc2cc[nH]c2c2ccccc12

>  <score_type>  (41) 
oracle

>  <origin>  (41) 
adgpu

>  <m_score__min__energy>  (41) 
-6.6299999999999999

>  <m_primary>  (41) 
energy

$$$$
41:0
     RDKit          3D

 30 31  0  0  0  0  0  0  0  0999 V2000
   -9.4450   21.6450  -31.6400 C   0  0  0  0  0  0  0  0  0  0  0  0
   -7.9770   21.9390  -31.7390 C   0  0  0  0  0  0  0  0  0  0  0  0
   -7.1420   21.1190  -32.5130 C   0  0  0  0  0  0  0  0  0  0  0  0
   -5.7690   21.3720  -32.5740 C   0  0  0  0  0  0  0  0  0  0  0  0
   -5.2190   22.4350  -31.8520 C   0  0  0  0  0  0  0  0  0  0  0  0
   -6.0390   23.2460  -31.0590 C   0  0  0  0  0  0  0  0  0  0  0  0
   -5.3450   24.5690  -30.1260 S   0  0  0  0  0  0  0  0  0  0  0  0
   -6.4270   25.5660  -29.8190 O   0  0  0  0  0  0  0  0  0  0  0  0
   -4.2560   25.2510  -30.9050 O   0  0  0  0  0  0  0  0  0  0  0  0
   -4.6880   23.9710  -28.6370 N   0  0  0  0  0  0  0  0  0  0  0  0
   -3.4270   23.3000  -28.4950 C   0  0  0  0  0  0  0  0  0  0  0  0
   -3.3420   21.9870  -27.9930 C   0  0  0  0  0  0  0  0  0  0  0  0
   -2.1000   21.3610  -27.8570 C   0  0  0  0  0  0  0  0  0  0  0  0
   -0.9330   22.0340  -28.2210 C   0  0  0  0  0  0  0  0  0  0  0  0
   -1.0050   23.3350  -28.7240 C   0  0  0  0  0  0  0  0  0  0  0  0
   -2.2440   23.9730  -28.8620 C   0  0  0  0  0  0  0  0  0  0  0  0
   -2.2750   25.2740  -29.3660 O   0  0  0  0  0  0  0  0  0  0  0  0
   -7.4180   22.9960  -31.0030 C   0  0  0  0  0  0  0  0  0  0  0  0
   -9.7366   21.5866  -30.5810 H   0  0  0  0  0  0  0  0  0  0  0  0
  -10.0137   22.4471  -32.1332 H   0  0  0  0  0  0  0  0  0  0  0  0
   -9.6609   20.6858  -32.1332 H   0  0  0  0  0  0  0  0  0  0  0  0
   -7.5694   20.2745  -33.0734 H   0  0  0  0  0  0  0  0  0  0  0  0
   -5.1199   20.7335  -33.1913 H   0  0  0  0  0  0  0  0  0  0  0  0
   -4.1387   22.6347  -31.9072 H   0  0  0  0  0  0  0  0  0  0  0  0
   -4.2587   21.4509  -27.7062 H   0  0  0  0  0  0  0  0  0  0  0  0
   -2.0422   20.3359  -27.4623 H   0  0  0  0  0  0  0  0  0  0  0  0
    0.0437   21.5399  -28.1118 H   0  0  0  0  0  0  0  0  0  0  0  0
   -0.0835   23.8614  -29.0133 H   0  0  0  0  0  0  0  0  0  0  0  0
   -3.1050   25.6740  -29.7840 H   0  0  0  0  0  0  0  0  0  0  0  0
   -8.0646   23.6310  -30.3795 H   0  0  0  0  0  0  0  0  0  0  0  0
  1  2  1  0
  2  3  2  0
  3  4  1  0
  4  5  2  0
  5  6  1  0
  6  7  1  0
  7  8  2  0
  7  9  2  0
  7 10  1  0
 10 11  1  0
 11 12  2  0
 12 13  1  0
 13 14  2  0
 14 15  1  0
 15 16  2  0
 16 17  1  0
  6 18  2  0
 18  2  1  0
 16 11  1  0
  1 19  1  0
  1 20  1  0
  1 21  1  0
  3 22  1  0
  4 23  1  0
  5 24  1  0
 12 25  1  0
 13 26  1  0
 14 27  1  0
 15 28  1  0
 17 29  1  0
 18 30  1  0
M  CHG  1  10  -1
M  END
>  <UniqueID>  (42) 
40

>  <SMILES>  (42) 
Cc1cccc(S(=O)(=O)[N-]c2ccccc2O)c1

>  <Energy>  (42) 
33.042636773996755

>  <Genealogy>  (42) 
Cc1cccc(S(=O)(=O)[N-]c2ccccc2O)c1 (protonated)
Cc1cccc(S(=O)(=O)[N-]c2ccccc2O)c1 (3D coordinates assigned)
Cc1cccc(S(=O)(=O)[N-]c2ccccc2O)c1 (optimized conformer: 33.042636773996755 kcal/mol)

>  <smiles>  (42) 
Cc1cccc(S(=O)(=O)Nc2ccccc2O)c1

>  <score_type>  (42) 
oracle

>  <origin>  (42) 
adgpu

>  <m_score__min__energy>  (42) 
-9.0199999999999996

>  <m_primary>  (42) 
energy

$$$$
42:0
     RDKit          3D

 45 48  0  0  0  0  0  0  0  0999 V2000
   -8.9760   18.4440  -31.5940 C   0  0  0  0  0  0  0  0  0  0  0  0
   -7.6100   18.5310  -32.2150 C   0  0  0  0  0  0  0  0  0  0  0  0
   -6.7220   17.4470  -32.1070 C   0  0  0  0  0  0  0  0  0  0  0  0
   -5.4540   17.5130  -32.6890 C   0  0  0  0  0  0  0  0  0  0  0  0
   -5.0600   18.6580  -33.3780 C   0  0  0  0  0  0  0  0  0  0  0  0
   -5.9340   19.7410  -33.4970 C   0  0  0  0  0  0  0  0  0  0  0  0
   -7.2190   19.6850  -32.9270 C   0  0  0  0  0  0  0  0  0  0  0  0
   -8.1430   20.7800  -33.0500 N   0  0  0  0  0  0  0  0  0  0  0  0
   -8.5130   21.9240  -31.8000 S   0  0  0  0  0  0  0  0  0  0  0  0
   -9.4870   22.9380  -32.3300 O   0  0  0  0  0  0  0  0  0  0  0  0
   -9.1440   21.2150  -30.6350 O   0  0  0  0  0  0  0  0  0  0  0  0
   -7.0360   22.7520  -31.3170 C   0  0  0  0  0  0  0  0  0  0  0  0
   -7.1050   24.0640  -30.8300 C   0  0  0  0  0  0  0  0  0  0  0  0
   -5.9360   24.7620  -30.5170 C   0  0  0  0  0  0  0  0  0  0  0  0
   -4.6850   24.1650  -30.7150 C   0  0  0  0  0  0  0  0  0  0  0  0
   -3.4970   24.9200  -30.4430 N   0  0  0  0  0  0  0  0  0  0  0  0
   -2.4050   24.4630  -29.6340 C   0  0  0  0  0  0  0  0  0  0  0  0
   -1.8670   23.3570  -29.9050 O   0  0  0  0  0  0  0  0  0  0  0  0
   -1.9280   25.2250  -28.4680 C   0  0  0  0  0  0  0  0  0  0  0  0
   -2.1290   24.8900  -27.1270 C   0  0  0  0  0  0  0  0  0  0  0  0
   -1.4930   25.8880  -26.4280 C   0  0  0  0  0  0  0  0  0  0  0  0
   -1.3480   26.0900  -25.0580 C   0  0  0  0  0  0  0  0  0  0  0  0
   -0.6290   27.2250  -24.6370 C   0  0  0  0  0  0  0  0  0  0  0  0
   -0.0750   28.1130  -25.5870 C   0  0  0  0  0  0  0  0  0  0  0  0
   -0.2350   27.8740  -26.9650 C   0  0  0  0  0  0  0  0  0  0  0  0
   -0.9530   26.7450  -27.3490 C   0  0  0  0  0  0  0  0  0  0  0  0
   -1.2160   26.3350  -28.5660 O   0  0  0  0  0  0  0  0  0  0  0  0
   -4.6170   22.8360  -31.1650 C   0  0  0  0  0  0  0  0  0  0  0  0
   -5.7870   22.1340  -31.4630 C   0  0  0  0  0  0  0  0  0  0  0  0
   -8.8816   18.4500  -30.4981 H   0  0  0  0  0  0  0  0  0  0  0  0
   -9.5801   19.3055  -31.9147 H   0  0  0  0  0  0  0  0  0  0  0  0
   -9.4660   17.5128  -31.9147 H   0  0  0  0  0  0  0  0  0  0  0  0
   -7.0272   16.5420  -31.5613 H   0  0  0  0  0  0  0  0  0  0  0  0
   -4.7653   16.6595  -32.6032 H   0  0  0  0  0  0  0  0  0  0  0  0
   -4.0582   18.7093  -33.8294 H   0  0  0  0  0  0  0  0  0  0  0  0
   -5.6156   20.6433  -34.0397 H   0  0  0  0  0  0  0  0  0  0  0  0
   -8.0840   24.5466  -30.6935 H   0  0  0  0  0  0  0  0  0  0  0  0
   -5.9985   25.7835  -30.1138 H   0  0  0  0  0  0  0  0  0  0  0  0
   -2.6730   24.0239  -26.7221 H   0  0  0  0  0  0  0  0  0  0  0  0
   -1.7800   25.3875  -24.3301 H   0  0  0  0  0  0  0  0  0  0  0  0
   -0.4977   27.4218  -23.5627 H   0  0  0  0  0  0  0  0  0  0  0  0
    0.4849   28.9968  -25.2472 H   0  0  0  0  0  0  0  0  0  0  0  0
    0.1932   28.5568  -27.7136 H   0  0  0  0  0  0  0  0  0  0  0  0
   -3.6390   22.3466  -31.2831 H   0  0  0  0  0  0  0  0  0  0  0  0
   -5.7278   21.0930  -31.8133 H   0  0  0  0  0  0  0  0  0  0  0  0
  1  2  1  0
  2  3  2  0
  3  4  1  0
  4  5  2  0
  5  6  1  0
  6  7  2  0
  7  8  1  0
  8  9  1  0
  9 10  2  0
  9 11  2  0
  9 12  1  0
 12 13  2  0
 13 14  1  0
 14 15  2  0
 15 16  1  0
 16 17  1  0
 17 18  2  0
 17 19  1  0
 19 20  2  0
 20 21  1  0
 21 22  2  0
 22 23  1  0
 23 24  2  0
 24 25  1  0
 25 26  2  0
 26 27  1  0
 15 28  1  0
 28 29  2  0
  7  2  1  0
 29 12  1  0
 27 19  1  0
 26 21  1  0
  1 30  1  0
  1 31  1  0
  1 32  1  0
  3 33  1  0
  4 34  1  0
  5 35  1  0
  6 36  1  0
 13 37  1  0
 14 38  1  0
 20 39  1  0
 22 40  1  0
 23 41  1  0
 24 42  1  0
 25 43  1  0
 28 44  1  0
 29 45  1  0
M  CHG  2   8  -1  16  -1
M  END
>  <UniqueID>  (43) 
41

>  <SMILES>  (43) 
Cc1ccccc1[N-]S(=O)(=O)c1ccc([N-]C(=O)c2cc3ccccc3o2)cc1

>  <Energy>  (43) 
90.16769385094227

>  <Genealogy>  (43) 
Cc1ccccc1[N-]S(=O)(=O)c1ccc([N-]C(=O)c2cc3ccccc3o2)cc1 (protonated)
Cc1ccccc1[N-]S(=O)(=O)c1ccc([N-]C(=O)c2cc3ccccc3o2)cc1 (3D coordinates assigned)
Cc1ccccc1[N-]S(=O)(=O)c1ccc([N-]C(=O)c2cc3ccccc3o2)cc1 (optimized conformer: 90.16769385094227 kcal/mol)

>  <smiles>  (43) 
Cc1ccccc1NS(=O)(=O)c1ccc(NC(=O)c2cc3ccccc3o2)cc1

>  <score_type>  (43) 
oracle

>  <origin>  (43) 
adgpu

>  <m_score__min__energy>  (43) 
-11.869999999999999

>  <m_primary>  (43) 
energy

$$$$
43:0
     RDKit          3D

 59 62  0  0  0  0  0  0  0  0999 V2000
   -4.4390   25.6700  -30.8540 O   0  0  0  0  0  0  0  0  0  0  0  0
   -4.0200   24.6130  -29.8710 S   0  0  0  0  0  0  0  0  0  0  0  0
   -4.9510   24.6500  -28.6880 O   0  0  0  0  0  0  0  0  0  0  0  0
   -2.3880   24.9180  -29.3740 N   0  0  0  0  0  0  0  0  0  0  0  0
   -1.8850   24.5950  -28.0700 C   0  0  0  0  0  0  0  0  0  0  0  0
   -1.6960   23.2500  -27.7310 C   0  0  0  0  0  0  0  0  0  0  0  0
   -1.2030   22.9040  -26.4690 C   0  0  0  0  0  0  0  0  0  0  0  0
   -0.8630   23.9030  -25.5470 C   0  0  0  0  0  0  0  0  0  0  0  0
   -1.0240   25.2530  -25.8810 C   0  0  0  0  0  0  0  0  0  0  0  0
   -0.5250   26.5040  -24.7410 S   0  0  0  0  0  0  0  0  0  0  0  0
   -1.6220   26.7020  -23.7250 O   0  0  0  0  0  0  0  0  0  0  0  0
   -0.3510   27.7950  -25.5010 O   0  0  0  0  0  0  0  0  0  0  0  0
    0.9800   26.0310  -23.9610 N   0  0  0  0  0  0  0  0  0  0  0  0
    1.8240   25.2130  -24.8570 C   0  0  0  0  0  0  0  0  0  0  0  0
    2.4060   26.0490  -26.0270 C   0  0  0  0  0  0  0  0  0  0  0  0
    2.3900   27.4460  -25.7820 O   0  0  0  0  0  0  0  0  0  0  0  0
    2.7850   27.7190  -24.4540 C   0  0  0  0  0  0  0  0  0  0  0  0
    1.7200   27.2130  -23.4550 C   0  0  0  0  0  0  0  0  0  0  0  0
   -1.5550   25.5970  -27.1360 C   0  0  0  0  0  0  0  0  0  0  0  0
   -4.0480   23.0480  -30.6660 C   0  0  0  0  0  0  0  0  0  0  0  0
   -3.0550   22.0950  -30.3920 C   0  0  0  0  0  0  0  0  0  0  0  0
   -2.9360   20.9550  -31.1940 C   0  0  0  0  0  0  0  0  0  0  0  0
   -3.8120   20.7580  -32.2760 C   0  0  0  0  0  0  0  0  0  0  0  0
   -3.5320   19.4370  -33.4150 S   0  0  0  0  0  0  0  0  0  0  0  0
   -2.7640   18.3440  -32.7260 O   0  0  0  0  0  0  0  0  0  0  0  0
   -2.7020   19.9390  -34.5640 O   0  0  0  0  0  0  0  0  0  0  0  0
   -5.0470   18.7980  -34.0280 N   0  0  0  0  0  0  0  0  0  0  0  0
   -6.1670   19.0660  -33.0930 C   0  0  0  0  0  0  0  0  0  0  0  0
   -6.5600   17.8090  -32.2940 C   0  0  0  0  0  0  0  0  0  0  0  0
   -6.9620   16.7200  -33.1180 O   0  0  0  0  0  0  0  0  0  0  0  0
   -6.2750   16.6590  -34.3640 C   0  0  0  0  0  0  0  0  0  0  0  0
   -4.9060   17.3630  -34.3620 C   0  0  0  0  0  0  0  0  0  0  0  0
   -4.8540   21.6740  -32.4990 C   0  0  0  0  0  0  0  0  0  0  0  0
   -4.9630   22.8180  -31.7060 C   0  0  0  0  0  0  0  0  0  0  0  0
   -1.9362   22.4622  -28.4602 H   0  0  0  0  0  0  0  0  0  0  0  0
   -1.0817   21.8445  -26.1992 H   0  0  0  0  0  0  0  0  0  0  0  0
   -0.4686   23.6258  -24.5583 H   0  0  0  0  0  0  0  0  0  0  0  0
    0.7180   25.4370  -23.1390 H   0  0  0  0  0  0  0  0  0  0  0  0
    2.6555   24.7901  -24.2741 H   0  0  0  0  0  0  0  0  0  0  0  0
    1.1955   24.4185  -25.2856 H   0  0  0  0  0  0  0  0  0  0  0  0
    3.4471   25.7362  -26.1953 H   0  0  0  0  0  0  0  0  0  0  0  0
    1.7702   25.8655  -26.9057 H   0  0  0  0  0  0  0  0  0  0  0  0
    3.7408   27.2141  -24.2501 H   0  0  0  0  0  0  0  0  0  0  0  0
    2.8960   28.8067  -24.3334 H   0  0  0  0  0  0  0  0  0  0  0  0
    2.2208   26.9392  -22.5146 H   0  0  0  0  0  0  0  0  0  0  0  0
    0.9915   28.0235  -23.3053 H   0  0  0  0  0  0  0  0  0  0  0  0
   -1.7140   26.6552  -27.3907 H   0  0  0  0  0  0  0  0  0  0  0  0
   -2.3691   22.2446  -29.5452 H   0  0  0  0  0  0  0  0  0  0  0  0
   -2.1552   20.2110  -30.9776 H   0  0  0  0  0  0  0  0  0  0  0  0
   -5.8619   19.8542  -32.3890 H   0  0  0  0  0  0  0  0  0  0  0  0
   -7.0388   19.3802  -33.6857 H   0  0  0  0  0  0  0  0  0  0  0  0
   -5.6941   17.4918  -31.6943 H   0  0  0  0  0  0  0  0  0  0  0  0
   -7.4227   18.0784  -31.6670 H   0  0  0  0  0  0  0  0  0  0  0  0
   -6.1189   15.6009  -34.6210 H   0  0  0  0  0  0  0  0  0  0  0  0
   -6.9019   17.1865  -35.0980 H   0  0  0  0  0  0  0  0  0  0  0  0
   -4.2557   16.8825  -33.6162 H   0  0  0  0  0  0  0  0  0  0  0  0
   -4.4677   17.2790  -35.3674 H   0  0  0  0  0  0  0  0  0  0  0  0
   -5.5852   21.4894  -33.2998 H   0  0  0  0  0  0  0  0  0  0  0  0
   -5.7689   23.5420  -31.8967 H   0  0  0  0  0  0  0  0  0  0  0  0
  1  2  2  0
  2  3  2  0
  2  4  1  0
  4  5  1  0
  5  6  2  0
  6  7  1  0
  7  8  2  0
  8  9  1  0
  9 10  1  0
 10 11  2  0
 10 12  2  0
 10 13  1  0
 13 14  1  0
 14 15  1  0
 15 16  1  0
 16 17  1  0
 17 18  1  0
  9 19  2  0
  2 20  1  0
 20 21  2  0
 21 22  1  0
 22 23  2  0
 23 24  1  0
 24 25  2  0
 24 26  2  0
 24 27  1  0
 27 28  1  0
 28 29  1  0
 29 30  1  0
 30 31  1  0
 31 32  1  0
 23 33  1  0
 33 34  2  0
 19  5  1  0
 34 20  1  0
 18 13  1  0
 32 27  1  0
  6 35  1  0
  7 36  1  0
  8 37  1  0
 13 38  1  0
 14 39  1  0
 14 40  1  0
 15 41  1  0
 15 42  1  0
 17 43  1  0
 17 44  1  0
 18 45  1  0
 18 46  1  0
 19 47  1  0
 21 48  1  0
 22 49  1  0
 28 50  1  0
 28 51  1  0
 29 52  1  0
 29 53  1  0
 31 54  1  0
 31 55  1  0
 32 56  1  0
 32 57  1  0
 33 58  1  0
 34 59  1  0
M  CHG  2   4  -1  13   1
M  END
>  <UniqueID>  (44) 
42

>  <SMILES>  (44) 
O=S(=O)([N-]c1cccc(S(=O)(=O)[NH+]2CCOCC2)c1)c1ccc(S(=O)(=O)N2CCOCC2)cc1

>  <Energy>  (44) 
86.51475911122581

>  <Genealogy>  (44) 
O=S(=O)([N-]c1cccc(S(=O)(=O)[NH+]2CCOCC2)c1)c1ccc(S(=O)(=O)N2CCOCC2)cc1 (protonated)
O=S(=O)([N-]c1cccc(S(=O)(=O)[NH+]2CCOCC2)c1)c1ccc(S(=O)(=O)N2CCOCC2)cc1 (3D coordinates assigned)
O=S(=O)([N-]c1cccc(S(=O)(=O)[NH+]2CCOCC2)c1)c1ccc(S(=O)(=O)N2CCOCC2)cc1 (nonaromatic ring conformer: 86.51475911122581 kcal/mol)

>  <smiles>  (44) 
O=S(=O)(Nc1cccc(S(=O)(=O)N2CCOCC2)c1)c1ccc(S(=O)(=O)N2CCOCC2)cc1

>  <score_type>  (44) 
oracle

>  <origin>  (44) 
adgpu

>  <m_score__min__energy>  (44) 
-11.85

>  <m_primary>  (44) 
energy

$$$$
44:0
     RDKit          3D

 30 32  0  0  0  0  0  0  0  0999 V2000
   -1.6040   25.6710  -29.3460 O   0  0  0  0  0  0  0  0  0  0  0  0
   -2.6020   24.7460  -29.0590 C   0  0  0  0  0  0  0  0  0  0  0  0
   -3.6560   24.5680  -29.9630 C   0  0  0  0  0  0  0  0  0  0  0  0
   -4.6780   23.6380  -29.6950 C   0  0  0  0  0  0  0  0  0  0  0  0
   -5.8000   23.4370  -30.6420 C   0  0  0  0  0  0  0  0  0  0  0  0
   -6.9210   22.6440  -30.4720 C   0  0  0  0  0  0  0  0  0  0  0  0
   -7.6480   22.7910  -31.5880 N   0  0  0  0  0  0  0  0  0  0  0  0
   -9.2000   22.0230  -31.9370 S   0  0  0  0  0  0  0  0  0  0  0  0
   -8.4190   20.4710  -32.3780 C   0  0  0  0  0  0  0  0  0  0  0  0
   -8.9860   19.2590  -31.9650 C   0  0  0  0  0  0  0  0  0  0  0  0
   -8.3730   18.0480  -32.3010 C   0  0  0  0  0  0  0  0  0  0  0  0
   -7.1910   18.0470  -33.0520 C   0  0  0  0  0  0  0  0  0  0  0  0
   -6.4210   16.5290  -33.4730 Cl  0  0  0  0  0  0  0  0  0  0  0  0
   -6.6250   19.2580  -33.4670 C   0  0  0  0  0  0  0  0  0  0  0  0
   -7.2390   20.4690  -33.1300 C   0  0  0  0  0  0  0  0  0  0  0  0
   -7.0220   23.6190  -32.4040 N   0  0  0  0  0  0  0  0  0  0  0  0
   -5.8900   24.0300  -31.8540 N   0  0  0  0  0  0  0  0  0  0  0  0
   -4.6220   22.8910  -28.5060 C   0  0  0  0  0  0  0  0  0  0  0  0
   -3.5700   23.0700  -27.6040 C   0  0  0  0  0  0  0  0  0  0  0  0
   -2.5570   23.9940  -27.8740 C   0  0  0  0  0  0  0  0  0  0  0  0
   -1.5190   24.1530  -26.9570 O   0  0  0  0  0  0  0  0  0  0  0  0
   -3.6857   25.1595  -30.8899 H   0  0  0  0  0  0  0  0  0  0  0  0
   -7.1654   22.0205  -29.5993 H   0  0  0  0  0  0  0  0  0  0  0  0
   -9.9147   19.2596  -31.3756 H   0  0  0  0  0  0  0  0  0  0  0  0
   -8.8190   17.0966  -31.9756 H   0  0  0  0  0  0  0  0  0  0  0  0
   -5.6974   19.2575  -34.0582 H   0  0  0  0  0  0  0  0  0  0  0  0
   -6.7938   21.4204  -33.4565 H   0  0  0  0  0  0  0  0  0  0  0  0
   -5.4128   22.1594  -28.2836 H   0  0  0  0  0  0  0  0  0  0  0  0
   -3.5390   22.4802  -26.6760 H   0  0  0  0  0  0  0  0  0  0  0  0
   -0.7830   24.8360  -27.0910 H   0  0  0  0  0  0  0  0  0  0  0  0
  1  2  1  0
  2  3  2  0
  3  4  1  0
  4  5  1  0
  5  6  2  0
  6  7  1  0
  7  8  1  0
  8  9  1  0
  9 10  2  0
 10 11  1  0
 11 12  2  0
 12 13  1  0
 12 14  1  0
 14 15  2  0
  7 16  1  0
 16 17  2  0
  4 18  2  0
 18 19  1  0
 19 20  2  0
 20 21  1  0
 20  2  1  0
 17  5  1  0
 15  9  1  0
  3 22  1  0
  6 23  1  0
 10 24  1  0
 11 25  1  0
 14 26  1  0
 15 27  1  0
 18 28  1  0
 19 29  1  0
 21 30  1  0
M  CHG  1   1  -1
M  END
>  <UniqueID>  (45) 
43

>  <SMILES>  (45) 
[O-]c1cc(-c2cn(Sc3ccc(Cl)cc3)nn2)ccc1O

>  <Energy>  (45) 
65.10895257224324

>  <Genealogy>  (45) 
[O-]c1cc(-c2cn(Sc3ccc(Cl)cc3)nn2)ccc1O (protonated)
[O-]c1cc(-c2cn(Sc3ccc(Cl)cc3)nn2)ccc1O (3D coordinates assigned)
[O-]c1cc(-c2cn(Sc3ccc(Cl)cc3)nn2)ccc1O (optimized conformer: 65.10895257224324 kcal/mol)

>  <smiles>  (45) 
Oc1ccc(-c2cn(Sc3ccc(Cl)cc3)nn2)cc1O

>  <score_type>  (45) 
oracle

>  <origin>  (45) 
adgpu

>  <m_score__min__energy>  (45) 
-11.33

>  <m_primary>  (45) 
energy

$$$$
45:0
     RDKit          3D

 52 54  0  0  0  0  0  0  0  0999 V2000
   -2.4030   15.2280  -32.0390 H   0  0  0  0  0  0  0  0  0  0  0  0
   -2.8440   14.5740  -32.7250 N   0  0  0  0  0  0  0  0  0  0  0  0
   -4.5550   14.8070  -32.6230 S   0  0  0  0  0  0  0  0  0  0  0  0
   -4.9900   14.5070  -31.2150 O   0  0  0  0  0  0  0  0  0  0  0  0
   -5.2340   13.8610  -33.5720 O   0  0  0  0  0  0  0  0  0  0  0  0
   -4.9930   16.4720  -33.0320 C   0  0  0  0  0  0  0  0  0  0  0  0
   -6.3520   16.8230  -33.1090 C   0  0  0  0  0  0  0  0  0  0  0  0
   -7.1225   16.0701  -32.8864 H   0  0  0  0  0  0  0  0  0  0  0  0
   -6.7330   18.1170  -33.4650 C   0  0  0  0  0  0  0  0  0  0  0  0
   -7.7998   18.3790  -33.5223 H   0  0  0  0  0  0  0  0  0  0  0  0
   -5.7650   19.0780  -33.7480 C   0  0  0  0  0  0  0  0  0  0  0  0
   -6.0676   20.0974  -34.0297 H   0  0  0  0  0  0  0  0  0  0  0  0
   -4.4110   18.7470  -33.6740 C   0  0  0  0  0  0  0  0  0  0  0  0
   -3.6514   19.5116  -33.8943 H   0  0  0  0  0  0  0  0  0  0  0  0
   -4.0070   17.4470  -33.3210 C   0  0  0  0  0  0  0  0  0  0  0  0
   -2.6060   17.1260  -33.2480 N   0  0  0  0  0  0  0  0  0  0  0  0
   -2.2990   16.1410  -33.0950 H   0  0  0  0  0  0  0  0  0  0  0  0
   -1.3680   18.2910  -33.5910 S   0  0  0  0  0  0  0  0  0  0  0  0
   -0.0280   17.6100  -33.5620 O   0  0  0  0  0  0  0  0  0  0  0  0
   -1.5920   18.8720  -34.9580 O   0  0  0  0  0  0  0  0  0  0  0  0
   -1.4360   19.5930  -32.4060 C   0  0  0  0  0  0  0  0  0  0  0  0
   -0.7200   19.4790  -31.2110 C   0  0  0  0  0  0  0  0  0  0  0  0
   -0.1373   18.5687  -31.0066 H   0  0  0  0  0  0  0  0  0  0  0  0
   -0.7410   20.5160  -30.2750 C   0  0  0  0  0  0  0  0  0  0  0  0
   -0.1797   20.4132  -29.3346 H   0  0  0  0  0  0  0  0  0  0  0  0
   -1.4710   21.6860  -30.5240 C   0  0  0  0  0  0  0  0  0  0  0  0
   -1.4600   22.7190  -29.5240 N   0  0  0  0  0  0  0  0  0  0  0  0
   -0.4570   23.0500  -28.7680 C   0  0  0  0  0  0  0  0  0  0  0  0
    0.4941   22.5065  -28.8677 H   0  0  0  0  0  0  0  0  0  0  0  0
   -0.5660   24.1440  -27.7740 C   0  0  0  0  0  0  0  0  0  0  0  0
   -0.0890   23.9140  -26.4760 C   0  0  0  0  0  0  0  0  0  0  0  0
    0.3518   22.9380  -26.2249 H   0  0  0  0  0  0  0  0  0  0  0  0
   -0.1660   24.9080  -25.4970 C   0  0  0  0  0  0  0  0  0  0  0  0
    0.2138   24.7042  -24.4850 H   0  0  0  0  0  0  0  0  0  0  0  0
   -0.7240   26.1680  -25.7900 C   0  0  0  0  0  0  0  0  0  0  0  0
   -0.8060   27.2010  -24.7730 N   0  0  0  0  0  0  0  0  0  0  0  0
   -0.8970   28.6170  -25.1520 C   0  0  0  0  0  0  0  0  0  0  0  0
   -0.9369   29.2376  -24.2447 H   0  0  0  0  0  0  0  0  0  0  0  0
   -0.0148   28.8946  -25.7476 H   0  0  0  0  0  0  0  0  0  0  0  0
   -1.8074   28.7794  -25.7476 H   0  0  0  0  0  0  0  0  0  0  0  0
   -0.8030   26.8480  -23.3480 C   0  0  0  0  0  0  0  0  0  0  0  0
   -0.8108   27.7665  -22.7427 H   0  0  0  0  0  0  0  0  0  0  0  0
   -1.6961   26.2489  -23.1168 H   0  0  0  0  0  0  0  0  0  0  0  0
    0.1001   26.2642  -23.1168 H   0  0  0  0  0  0  0  0  0  0  0  0
   -1.2010   26.3970  -27.0960 C   0  0  0  0  0  0  0  0  0  0  0  0
   -1.6391   27.3741  -27.3479 H   0  0  0  0  0  0  0  0  0  0  0  0
   -1.1270   25.4030  -28.0780 C   0  0  0  0  0  0  0  0  0  0  0  0
   -1.6150   25.6880  -29.3490 O   0  0  0  0  0  0  0  0  0  0  0  0
   -2.2080   21.7900  -31.7220 C   0  0  0  0  0  0  0  0  0  0  0  0
   -2.8033   22.6931  -31.9223 H   0  0  0  0  0  0  0  0  0  0  0  0
   -2.1850   20.7500  -32.6560 C   0  0  0  0  0  0  0  0  0  0  0  0
   -2.7574   20.8406  -33.5910 H   0  0  0  0  0  0  0  0  0  0  0  0
  1  2  1  0
  2  3  1  0
  3  4  2  0
  3  5  2  0
  3  6  1  0
  6  7  2  0
  7  8  1  0
  7  9  1  0
  9 10  1  0
  9 11  2  0
 11 12  1  0
 11 13  1  0
 13 14  1  0
 13 15  2  0
 15 16  1  0
 16 17  1  0
 16 18  1  0
 18 19  2  0
 18 20  2  0
 18 21  1  0
 21 22  2  0
 22 23  1  0
 22 24  1  0
 24 25  1  0
 24 26  2  0
 26 27  1  0
 27 28  2  0
 28 29  1  0
 28 30  1  0
 30 31  2  0
 31 32  1  0
 31 33  1  0
 33 34  1  0
 33 35  2  0
 35 36  1  0
 36 37  1  0
 37 38  1  0
 37 39  1  0
 37 40  1  0
 36 41  1  0
 41 42  1  0
 41 43  1  0
 41 44  1  0
 35 45  1  0
 45 46  1  0
 45 47  2  0
 47 48  1  0
 26 49  1  0
 49 50  1  0
 49 51  2  0
 51 52  1  0
 15  6  1  0
 51 21  1  0
 47 30  1  0
M  CHG  2   2  -1  48  -1
M  END
>  <UniqueID>  (46) 
44

>  <SMILES>  (46) 
CN(C)c1ccc(/C=N/c2ccc(S(=O)(=O)Nc3ccccc3S([NH-])(=O)=O)cc2)c([O-])c1

>  <Energy>  (46) 
65.26828672456948

>  <Genealogy>  (46) 
CN(C)c1ccc(C=Nc2ccc(S(=O)(=O)Nc3ccccc3S([NH-])(=O)=O)cc2)c([O-])c1 (protonated)
CN(C)c1ccc(/C=N/c2ccc(S(=O)(=O)Nc3ccccc3S([NH-])(=O)=O)cc2)c([O-])c1 (cis-trans isomerization)
CN(C)c1ccc(/C=N/c2ccc(S(=O)(=O)Nc3ccccc3S([NH-])(=O)=O)cc2)c([O-])c1 (3D coordinates assigned)
CN(C)c1ccc(/C=N/c2ccc(S(=O)(=O)Nc3ccccc3S([NH-])(=O)=O)cc2)c([O-])c1 (optimized conformer: 65.26828672456948 kcal/mol)

>  <smiles>  (46) 
CN(C)c1ccc(C=Nc2ccc(S(=O)(=O)Nc3ccccc3S(N)(=O)=O)cc2)c(O)c1

>  <score_type>  (46) 
oracle

>  <origin>  (46) 
adgpu

>  <m_score__min__energy>  (46) 
-11.949999999999999

>  <m_primary>  (46) 
energy

$$$$
46:0
     RDKit          3D

 39 41  0  0  0  0  0  0  0  0999 V2000
   -4.0660   25.5770  -31.0280 O   0  0  0  0  0  0  0  0  0  0  0  0
   -4.9240   24.8550  -30.4560 C   0  0  0  0  0  0  0  0  0  0  0  0
   -4.6020   24.2680  -29.1060 C   0  0  0  0  0  0  0  0  0  0  0  0
   -3.1190   24.2140  -28.8640 C   0  0  0  0  0  0  0  0  0  0  0  0
   -2.5190   23.0700  -28.3190 C   0  0  0  0  0  0  0  0  0  0  0  0
   -1.1390   23.0580  -28.0920 C   0  0  0  0  0  0  0  0  0  0  0  0
   -0.5980   22.0360  -27.5910 O   0  0  0  0  0  0  0  0  0  0  0  0
   -0.3700   24.1840  -28.4210 C   0  0  0  0  0  0  0  0  0  0  0  0
    1.0080   24.2160  -28.2090 O   0  0  0  0  0  0  0  0  0  0  0  0
   -1.0060   25.3030  -28.9690 C   0  0  0  0  0  0  0  0  0  0  0  0
   -2.3490   25.2940  -29.1750 N   0  0  0  0  0  0  0  0  0  0  0  0
   -6.1540   24.5740  -31.1370 N   0  0  0  0  0  0  0  0  0  0  0  0
   -6.6260   23.2710  -31.5010 C   0  0  0  0  0  0  0  0  0  0  0  0
   -7.9460   22.8820  -31.2240 C   0  0  0  0  0  0  0  0  0  0  0  0
   -8.3990   21.6140  -31.5990 C   0  0  0  0  0  0  0  0  0  0  0  0
   -7.5460   20.7370  -32.2720 C   0  0  0  0  0  0  0  0  0  0  0  0
   -6.2360   21.1260  -32.5700 C   0  0  0  0  0  0  0  0  0  0  0  0
   -5.7650   22.3900  -32.1730 C   0  0  0  0  0  0  0  0  0  0  0  0
   -4.4550   22.8070  -32.4560 O   0  0  0  0  0  0  0  0  0  0  0  0
   -3.3200   21.9820  -32.4650 C   0  0  0  0  0  0  0  0  0  0  0  0
   -2.4380   22.0470  -31.3780 C   0  0  0  0  0  0  0  0  0  0  0  0
   -1.3100   21.2210  -31.3290 C   0  0  0  0  0  0  0  0  0  0  0  0
   -1.0630   20.3140  -32.3640 C   0  0  0  0  0  0  0  0  0  0  0  0
   -1.9430   20.2320  -33.4460 C   0  0  0  0  0  0  0  0  0  0  0  0
   -3.0670   21.0590  -33.4980 C   0  0  0  0  0  0  0  0  0  0  0  0
   -5.0683   24.8887  -28.3267 H   0  0  0  0  0  0  0  0  0  0  0  0
   -4.9925   23.2401  -29.0764 H   0  0  0  0  0  0  0  0  0  0  0  0
   -3.1290   22.1886  -28.0718 H   0  0  0  0  0  0  0  0  0  0  0  0
    1.5080   23.4280  -27.8160 H   0  0  0  0  0  0  0  0  0  0  0  0
   -0.4168   26.1933  -29.2341 H   0  0  0  0  0  0  0  0  0  0  0  0
   -8.6261   23.5773  -30.7102 H   0  0  0  0  0  0  0  0  0  0  0  0
   -9.4286   21.3067  -31.3637 H   0  0  0  0  0  0  0  0  0  0  0  0
   -7.9044   19.7400  -32.5679 H   0  0  0  0  0  0  0  0  0  0  0  0
   -5.5718   20.4406  -33.1169 H   0  0  0  0  0  0  0  0  0  0  0  0
   -2.6340   22.7527  -30.5573 H   0  0  0  0  0  0  0  0  0  0  0  0
   -0.6177   21.2851  -30.4766 H   0  0  0  0  0  0  0  0  0  0  0  0
   -0.1757   19.6649  -32.3264 H   0  0  0  0  0  0  0  0  0  0  0  0
   -1.7503   19.5152  -34.2578 H   0  0  0  0  0  0  0  0  0  0  0  0
   -3.7586   20.9891  -34.3506 H   0  0  0  0  0  0  0  0  0  0  0  0
  1  2  2  0
  2  3  1  0
  3  4  1  0
  4  5  2  0
  5  6  1  0
  6  7  2  0
  6  8  1  0
  8  9  1  0
  8 10  2  0
 10 11  1  0
  2 12  1  0
 12 13  1  0
 13 14  2  0
 14 15  1  0
 15 16  2  0
 16 17  1  0
 17 18  2  0
 18 19  1  0
 19 20  1  0
 20 21  2  0
 21 22  1  0
 22 23  2  0
 23 24  1  0
 24 25  2  0
 11  4  1  0
 18 13  1  0
 25 20  1  0
  3 26  1  0
  3 27  1  0
  5 28  1  0
  9 29  1  0
 10 30  1  0
 14 31  1  0
 15 32  1  0
 16 33  1  0
 17 34  1  0
 21 35  1  0
 22 36  1  0
 23 37  1  0
 24 38  1  0
 25 39  1  0
M  CHG  2  11  -1  12  -1
M  END
>  <UniqueID>  (47) 
45

>  <SMILES>  (47) 
O=C(Cc1cc(=O)c(O)c[n-]1)[N-]c1ccccc1Oc1ccccc1

>  <Energy>  (47) 
50.07266149684316

>  <Genealogy>  (47) 
O=C(Cc1cc(=O)c(O)c[n-]1)[N-]c1ccccc1Oc1ccccc1 (protonated)
O=C(Cc1cc(=O)c(O)c[n-]1)[N-]c1ccccc1Oc1ccccc1 (3D coordinates assigned)
O=C(Cc1cc(=O)c(O)c[n-]1)[N-]c1ccccc1Oc1ccccc1 (optimized conformer: 50.07266149684316 kcal/mol)

>  <smiles>  (47) 
O=C(Cc1cc(=O)c(O)c[nH]1)Nc1ccccc1Oc1ccccc1

>  <score_type>  (47) 
oracle

>  <origin>  (47) 
adgpu

>  <m_score__min__energy>  (47) 
-10.550000000000001

>  <m_primary>  (47) 
energy

$$$$
47:0
     RDKit          3D

 46 48  0  0  0  0  0  0  0  0999 V2000
   -1.2420   21.3210  -27.0960 C   0  0  0  0  0  0  0  0  0  0  0  0
   -1.5040   21.8880  -28.3740 O   0  0  0  0  0  0  0  0  0  0  0  0
   -2.7000   22.5270  -28.7310 C   0  0  0  0  0  0  0  0  0  0  0  0
   -3.6240   21.9470  -29.6210 C   0  0  0  0  0  0  0  0  0  0  0  0
   -4.8040   22.6230  -29.9690 C   0  0  0  0  0  0  0  0  0  0  0  0
   -5.0460   23.9110  -29.4530 C   0  0  0  0  0  0  0  0  0  0  0  0
   -4.1340   24.4790  -28.5540 C   0  0  0  0  0  0  0  0  0  0  0  0
   -2.9730   23.7930  -28.1890 C   0  0  0  0  0  0  0  0  0  0  0  0
   -2.0810   24.3870  -27.2990 O   0  0  0  0  0  0  0  0  0  0  0  0
   -0.8090   25.3770  -27.8560 S   0  0  0  0  0  0  0  0  0  0  0  0
    0.4430   24.5630  -28.0190 O   0  0  0  0  0  0  0  0  0  0  0  0
   -0.5600   26.4800  -26.8680 O   0  0  0  0  0  0  0  0  0  0  0  0
   -1.2340   26.0440  -29.3360 O   0  0  0  0  0  0  0  0  0  0  0  0
   -6.3170   24.6490  -29.7790 C   0  0  0  0  0  0  0  0  0  0  0  0
   -7.0170   24.0670  -31.0120 C   0  0  0  0  0  0  0  0  0  0  0  0
   -7.1010   22.5930  -30.9220 N   0  0  1  0  0  0  0  0  0  0  0  0
   -7.9520   22.0720  -32.0200 C   0  0  0  0  0  0  0  0  0  0  0  0
   -7.5910   20.6520  -32.3900 C   0  0  0  0  0  0  0  0  0  0  0  0
   -6.6950   20.3940  -33.4390 C   0  0  0  0  0  0  0  0  0  0  0  0
   -6.3450   19.0790  -33.7610 C   0  0  0  0  0  0  0  0  0  0  0  0
   -6.8760   18.0060  -33.0300 C   0  0  0  0  0  0  0  0  0  0  0  0
   -6.5220   16.5910  -33.3790 C   0  0  0  0  0  0  0  0  0  0  0  0
   -7.7770   18.2630  -31.9870 C   0  0  0  0  0  0  0  0  0  0  0  0
   -8.1290   19.5760  -31.6650 C   0  0  0  0  0  0  0  0  0  0  0  0
   -5.7420   22.0020  -30.9790 C   0  0  0  0  0  0  0  0  0  0  0  0
   -1.5653   22.0207  -26.3112 H   0  0  0  0  0  0  0  0  0  0  0  0
   -1.7944   20.3752  -26.9943 H   0  0  0  0  0  0  0  0  0  0  0  0
   -0.1637   21.1287  -26.9943 H   0  0  0  0  0  0  0  0  0  0  0  0
   -3.4192   20.9541  -30.0479 H   0  0  0  0  0  0  0  0  0  0  0  0
   -4.3340   25.4747  -28.1314 H   0  0  0  0  0  0  0  0  0  0  0  0
   -6.9984   24.5807  -28.9182 H   0  0  0  0  0  0  0  0  0  0  0  0
   -6.0567   25.6952  -29.9975 H   0  0  0  0  0  0  0  0  0  0  0  0
   -8.0332   24.4826  -31.0794 H   0  0  0  0  0  0  0  0  0  0  0  0
   -6.4343   24.3328  -31.9063 H   0  0  0  0  0  0  0  0  0  0  0  0
   -7.5460   22.3390  -30.0060 H   0  0  0  0  0  0  0  0  0  0  0  0
   -9.0034   22.0988  -31.6979 H   0  0  0  0  0  0  0  0  0  0  0  0
   -7.7910   22.7054  -32.9048 H   0  0  0  0  0  0  0  0  0  0  0  0
   -6.2660   21.2302  -34.0106 H   0  0  0  0  0  0  0  0  0  0  0  0
   -5.6501   18.8851  -34.5914 H   0  0  0  0  0  0  0  0  0  0  0  0
   -6.3769   16.0109  -32.4557 H   0  0  0  0  0  0  0  0  0  0  0  0
   -7.3360   16.1441  -33.9686 H   0  0  0  0  0  0  0  0  0  0  0  0
   -5.5934   16.5801  -33.9686 H   0  0  0  0  0  0  0  0  0  0  0  0
   -8.2092   17.4260  -31.4190 H   0  0  0  0  0  0  0  0  0  0  0  0
   -8.8307   19.7681  -30.8399 H   0  0  0  0  0  0  0  0  0  0  0  0
   -5.8164   20.9234  -30.7763 H   0  0  0  0  0  0  0  0  0  0  0  0
   -5.3327   22.1948  -31.9817 H   0  0  0  0  0  0  0  0  0  0  0  0
  1  2  1  0
  2  3  1  0
  3  4  2  0
  4  5  1  0
  5  6  2  0
  6  7  1  0
  7  8  2  0
  8  9  1  0
  9 10  1  0
 10 11  2  0
 10 12  2  0
 10 13  1  0
  6 14  1  0
 14 15  1  0
 15 16  1  0
 16 17  1  0
 17 18  1  0
 18 19  2  0
 19 20  1  0
 20 21  2  0
 21 22  1  0
 21 23  1  0
 23 24  2  0
 16 25  1  0
  8  3  1  0
 24 18  1  0
 25  5  1  0
  1 26  1  0
  1 27  1  0
  1 28  1  0
  4 29  1  0
  7 30  1  0
 14 31  1  0
 14 32  1  0
 15 33  1  0
 15 34  1  0
 16 35  1  1
 17 36  1  0
 17 37  1  0
 19 38  1  0
 20 39  1  0
 22 40  1  0
 22 41  1  0
 22 42  1  0
 23 43  1  0
 24 44  1  0
 25 45  1  0
 25 46  1  0
M  CHG  2  13  -1  16   1
M  END
>  <UniqueID>  (48) 
46

>  <SMILES>  (48) 
COc1cc2c(cc1OS(=O)(=O)[O-])CC[N@@H+](Cc1ccc(C)cc1)C2

>  <Energy>  (48) 
54.877534385560885

>  <Genealogy>  (48) 
COc1cc2c(cc1OS(=O)(=O)[O-])CC[NH+](Cc1ccc(C)cc1)C2 (protonated)
COc1cc2c(cc1OS(=O)(=O)[O-])CC[N@@H+](Cc1ccc(C)cc1)C2 (chirality)
COc1cc2c(cc1OS(=O)(=O)[O-])CC[N@@H+](Cc1ccc(C)cc1)C2 (3D coordinates assigned)
COc1cc2c(cc1OS(=O)(=O)[O-])CC[N@@H+](Cc1ccc(C)cc1)C2 (nonaromatic ring conformer: 54.877534385560885 kcal/mol)

>  <smiles>  (48) 
COc1cc2c(cc1OS(=O)(=O)O)CCN(Cc1ccc(C)cc1)C2

>  <score_type>  (48) 
oracle

>  <origin>  (48) 
adgpu

>  <m_score__min__energy>  (48) 
-10.06

>  <m_primary>  (48) 
energy

$$$$
