0:0
     RDKit          3D

 51 53  0  0  0  0  0  0  0  0999 V2000
   -9.5930   20.3660  -32.1670 C   0  0  0  0  0  0  0  0  0  0  0  0
   -8.6560   21.3350  -31.5210 C   0  0  0  0  0  0  0  0  0  0  0  0
   -8.9900   21.8900  -30.4400 O   0  0  0  0  0  0  0  0  0  0  0  0
   -7.3560   21.5590  -32.0860 N   0  0  0  0  0  0  0  0  0  0  0  0
   -6.4650   22.6020  -31.6560 C   0  0  0  0  0  0  0  0  0  0  0  0
   -6.8670   23.9480  -31.6550 C   0  0  0  0  0  0  0  0  0  0  0  0
   -5.9860   24.9450  -31.2360 C   0  0  0  0  0  0  0  0  0  0  0  0
   -4.6900   24.6170  -30.8240 C   0  0  0  0  0  0  0  0  0  0  0  0
   -3.8480   25.6310  -30.3840 O   0  0  0  0  0  0  0  0  0  0  0  0
   -4.2630   23.2750  -30.8520 C   0  0  0  0  0  0  0  0  0  0  0  0
   -2.6510   22.7970  -30.3050 S   0  0  0  0  0  0  0  0  0  0  0  0
   -1.9780   24.0020  -29.7150 O   0  0  0  0  0  0  0  0  0  0  0  0
   -2.7280   21.7400  -29.2390 O   0  0  0  0  0  0  0  0  0  0  0  0
   -1.6760   22.2010  -31.6120 N   0  0  0  0  0  0  0  0  0  0  0  0
   -2.0250   21.0710  -32.4200 C   0  0  0  0  0  0  0  0  0  0  0  0
   -1.0260   20.4250  -33.1610 C   0  0  0  0  0  0  0  0  0  0  0  0
   -1.3380   19.3050  -33.9360 C   0  0  0  0  0  0  0  0  0  0  0  0
   -2.6530   18.8340  -33.9950 C   0  0  0  0  0  0  0  0  0  0  0  0
   -3.6660   19.4980  -33.2880 C   0  0  0  0  0  0  0  0  0  0  0  0
   -5.3310   18.9320  -33.3270 S   0  0  0  0  0  0  0  0  0  0  0  0
   -5.9540   19.1780  -31.9800 O   0  0  0  0  0  0  0  0  0  0  0  0
   -6.1170   19.6840  -34.3660 O   0  0  0  0  0  0  0  0  0  0  0  0
   -5.3310   17.2240  -33.6880 N   0  0  0  0  0  0  0  0  0  0  0  0
   -6.7140   16.7210  -33.7140 C   0  0  0  0  0  0  0  0  0  0  0  0
   -6.7580   15.2610  -34.2050 C   0  0  0  0  0  0  0  0  0  0  0  0
   -5.4000   14.5570  -34.0790 C   0  0  0  0  0  0  0  0  0  0  0  0
   -4.6900   14.9680  -32.7860 C   0  0  0  0  0  0  0  0  0  0  0  0
   -4.5260   16.5010  -32.6810 C   0  0  0  0  0  0  0  0  0  0  0  0
   -3.3490   20.6150  -32.5070 C   0  0  0  0  0  0  0  0  0  0  0  0
   -5.1550   22.2780  -31.2740 C   0  0  0  0  0  0  0  0  0  0  0  0
  -10.1344   19.8061  -31.3902 H   0  0  0  0  0  0  0  0  0  0  0  0
  -10.3127   20.9137  -32.7931 H   0  0  0  0  0  0  0  0  0  0  0  0
   -9.0214   19.6651  -32.7931 H   0  0  0  0  0  0  0  0  0  0  0  0
   -7.0060   20.8740  -32.7960 H   0  0  0  0  0  0  0  0  0  0  0  0
   -7.8809   24.2169  -31.9861 H   0  0  0  0  0  0  0  0  0  0  0  0
   -6.3123   25.9955  -31.2295 H   0  0  0  0  0  0  0  0  0  0  0  0
    0.0073   20.8010  -33.1323 H   0  0  0  0  0  0  0  0  0  0  0  0
   -0.5462   18.7921  -34.5017 H   0  0  0  0  0  0  0  0  0  0  0  0
   -2.8928   17.9439  -34.5951 H   0  0  0  0  0  0  0  0  0  0  0  0
   -7.1354   16.7727  -32.6992 H   0  0  0  0  0  0  0  0  0  0  0  0
   -7.3015   17.3427  -34.4056 H   0  0  0  0  0  0  0  0  0  0  0  0
   -7.4980   14.7097  -33.6063 H   0  0  0  0  0  0  0  0  0  0  0  0
   -7.0294   15.2750  -35.2709 H   0  0  0  0  0  0  0  0  0  0  0  0
   -5.5577   13.4684  -34.0730 H   0  0  0  0  0  0  0  0  0  0  0  0
   -4.7718   14.8492  -34.9334 H   0  0  0  0  0  0  0  0  0  0  0  0
   -5.2804   14.6139  -31.9281 H   0  0  0  0  0  0  0  0  0  0  0  0
   -3.6866   14.5172  -32.7899 H   0  0  0  0  0  0  0  0  0  0  0  0
   -4.8434   16.8224  -31.6780 H   0  0  0  0  0  0  0  0  0  0  0  0
   -3.4677   16.7384  -32.8642 H   0  0  0  0  0  0  0  0  0  0  0  0
   -4.1441   21.1397  -31.9570 H   0  0  0  0  0  0  0  0  0  0  0  0
   -4.8231   21.2297  -31.3057 H   0  0  0  0  0  0  0  0  0  0  0  0
  1  2  1  0
  2  3  2  0
  2  4  1  0
  4  5  1  0
  5  6  2  0
  6  7  1  0
  7  8  2  0
  8  9  1  0
  8 10  1  0
 10 11  1  0
 11 12  2  0
 11 13  2  0
 11 14  1  0
 14 15  1  0
 15 16  2  0
 16 17  1  0
 17 18  2  0
 18 19  1  0
 19 20  1  0
 20 21  2  0
 20 22  2  0
 20 23  1  0
 23 24  1  0
 24 25  1  0
 25 26  1  0
 26 27  1  0
 27 28  1  0
 19 29  2  0
 10 30  2  0
 30  5  1  0
 29 15  1  0
 28 23  1  0
  1 31  1  0
  1 32  1  0
  1 33  1  0
  4 34  1  0
  6 35  1  0
  7 36  1  0
 16 37  1  0
 17 38  1  0
 18 39  1  0
 24 40  1  0
 24 41  1  0
 25 42  1  0
 25 43  1  0
 26 44  1  0
 26 45  1  0
 27 46  1  0
 27 47  1  0
 28 48  1  0
 28 49  1  0
 29 50  1  0
 30 51  1  0
M  CHG  2   9  -1  14  -1
M  END
>  <UniqueID>  (1) 
1

>  <SMILES>  (1) 
CC(=O)Nc1ccc([O-])c(S(=O)(=O)[N-]c2cccc(S(=O)(=O)N3CCCCC3)c2)c1

>  <Energy>  (1) 
62.64228046202987

>  <Genealogy>  (1) 
CC(=O)Nc1ccc([O-])c(S(=O)(=O)[N-]c2cccc(S(=O)(=O)N3CCCCC3)c2)c1 (protonated)
CC(=O)Nc1ccc([O-])c(S(=O)(=O)[N-]c2cccc(S(=O)(=O)N3CCCCC3)c2)c1 (3D coordinates assigned)
CC(=O)Nc1ccc([O-])c(S(=O)(=O)[N-]c2cccc(S(=O)(=O)N3CCCCC3)c2)c1 (nonaromatic ring conformer: 62.64228046202987 kcal/mol)

>  <smiles>  (1) 
CC(=O)Nc1ccc(O)c(S(=O)(=O)Nc2cccc(S(=O)(=O)N3CCCCC3)c2)c1

>  <score_type>  (1) 
oracle

>  <origin>  (1) 
adgpu

>  <m_score__min__energy>  (1) 
-14.970000000000001

>  <m_primary>  (1) 
energy

$$$$
1:0
     RDKit          3D

 61 64  0  0  0  0  0  0  0  0999 V2000
   -0.3130   18.8380  -28.6670 C   0  0  0  0  0  0  0  0  0  0  0  0
   -0.8890   20.2160  -28.8030 C   0  0  0  0  0  0  0  0  0  0  0  0
   -0.5500   21.0100  -29.9080 C   0  0  0  0  0  0  0  0  0  0  0  0
   -1.0900   22.2910  -30.0490 C   0  0  0  0  0  0  0  0  0  0  0  0
   -1.9560   22.8020  -29.0740 C   0  0  0  0  0  0  0  0  0  0  0  0
   -2.6380   24.4150  -29.2550 S   0  0  0  0  0  0  0  0  0  0  0  0
   -1.5340   25.4320  -29.2910 O   0  0  0  0  0  0  0  0  0  0  0  0
   -3.5330   24.7280  -28.0880 O   0  0  0  0  0  0  0  0  0  0  0  0
   -3.5380   24.5000  -30.7310 N   0  0  0  0  0  0  0  0  0  0  0  0
   -4.8490   23.9450  -30.8300 C   0  0  0  0  0  0  0  0  0  0  0  0
   -5.0270   22.7350  -31.5110 C   0  0  0  0  0  0  0  0  0  0  0  0
   -6.3000   22.1460  -31.6030 C   0  0  0  0  0  0  0  0  0  0  0  0
   -6.4880   20.8610  -32.3170 C   0  0  0  0  0  0  0  0  0  0  0  0
   -7.6550   20.4790  -32.6020 O   0  0  0  0  0  0  0  0  0  0  0  0
   -5.3660   20.0480  -32.7060 N   0  0  0  0  0  0  0  0  0  0  0  0
   -4.2920   19.7500  -31.7490 C   0  0  0  0  0  0  0  0  0  0  0  0
   -2.9100   19.8820  -32.4120 C   0  0  0  0  0  0  0  0  0  0  0  0
   -2.9060   19.5240  -33.9170 C   0  0  0  0  0  0  0  0  0  0  0  0
   -1.6430   18.8660  -34.2710 N   0  0  0  0  0  0  0  0  0  0  0  0
   -0.4330   18.9730  -33.4960 C   0  0  0  0  0  0  0  0  0  0  0  0
   -0.1630   18.0560  -32.4590 C   0  0  0  0  0  0  0  0  0  0  0  0
    1.0510   18.0930  -31.7740 C   0  0  0  0  0  0  0  0  0  0  0  0
    2.0180   19.0360  -32.1140 C   0  0  0  0  0  0  0  0  0  0  0  0
    1.7680   19.9570  -33.1310 C   0  0  0  0  0  0  0  0  0  0  0  0
    0.5430   19.9500  -33.8210 C   0  0  0  0  0  0  0  0  0  0  0  0
    0.2970   20.9570  -34.8170 N   0  0  0  0  0  0  0  0  0  0  0  0
    0.6160   22.1460  -34.6070 O   0  0  0  0  0  0  0  0  0  0  0  0
   -0.1080   20.5930  -36.0810 O   0  0  0  0  0  0  0  0  0  0  0  0
   -4.0890   18.6160  -34.2870 C   0  0  0  0  0  0  0  0  0  0  0  0
   -5.4150   19.3310  -33.9880 C   0  0  0  0  0  0  0  0  0  0  0  0
   -7.4000   22.8060  -31.0340 C   0  0  0  0  0  0  0  0  0  0  0  0
   -7.2290   24.0240  -30.3690 C   0  0  0  0  0  0  0  0  0  0  0  0
   -5.9610   24.6020  -30.2690 C   0  0  0  0  0  0  0  0  0  0  0  0
   -5.8320   25.8340  -29.6250 O   0  0  0  0  0  0  0  0  0  0  0  0
   -2.2840   22.0180  -27.9590 C   0  0  0  0  0  0  0  0  0  0  0  0
   -1.7440   20.7360  -27.8180 C   0  0  0  0  0  0  0  0  0  0  0  0
   -0.2084   18.5879  -27.6009 H   0  0  0  0  0  0  0  0  0  0  0  0
   -0.9827   18.1113  -29.1502 H   0  0  0  0  0  0  0  0  0  0  0  0
    0.6746   18.8041  -29.1502 H   0  0  0  0  0  0  0  0  0  0  0  0
    0.1446   20.6224  -30.6678 H   0  0  0  0  0  0  0  0  0  0  0  0
   -0.8342   22.9001  -30.9285 H   0  0  0  0  0  0  0  0  0  0  0  0
   -4.1627   22.2405  -31.9785 H   0  0  0  0  0  0  0  0  0  0  0  0
   -4.3554   20.4543  -30.9064 H   0  0  0  0  0  0  0  0  0  0  0  0
   -4.4140   18.7152  -31.3965 H   0  0  0  0  0  0  0  0  0  0  0  0
   -2.5696   20.9222  -32.3015 H   0  0  0  0  0  0  0  0  0  0  0  0
   -2.2425   19.1666  -31.9094 H   0  0  0  0  0  0  0  0  0  0  0  0
   -3.0081   20.4601  -34.4857 H   0  0  0  0  0  0  0  0  0  0  0  0
   -1.6670   18.1780  -35.0570 H   0  0  0  0  0  0  0  0  0  0  0  0
   -0.9182   17.3036  -32.1877 H   0  0  0  0  0  0  0  0  0  0  0  0
    1.2455   17.3756  -30.9631 H   0  0  0  0  0  0  0  0  0  0  0  0
    2.9795   19.0543  -31.5800 H   0  0  0  0  0  0  0  0  0  0  0  0
    2.5376   20.6969  -33.3962 H   0  0  0  0  0  0  0  0  0  0  0  0
   -4.0401   18.3729  -35.3587 H   0  0  0  0  0  0  0  0  0  0  0  0
   -4.0349   17.6927  -33.6916 H   0  0  0  0  0  0  0  0  0  0  0  0
   -5.6211   20.0521  -34.7927 H   0  0  0  0  0  0  0  0  0  0  0  0
   -6.2091   18.5722  -33.9276 H   0  0  0  0  0  0  0  0  0  0  0  0
   -8.4035   22.3621  -31.1117 H   0  0  0  0  0  0  0  0  0  0  0  0
   -8.0975   24.5299  -29.9221 H   0  0  0  0  0  0  0  0  0  0  0  0
   -5.0880   26.0270  -28.9670 H   0  0  0  0  0  0  0  0  0  0  0  0
   -2.9680   22.4124  -27.1931 H   0  0  0  0  0  0  0  0  0  0  0  0
   -1.9900   20.1324  -26.9319 H   0  0  0  0  0  0  0  0  0  0  0  0
  1  2  1  0
  2  3  2  0
  3  4  1  0
  4  5  2  0
  5  6  1  0
  6  7  2  0
  6  8  2  0
  6  9  1  0
  9 10  1  0
 10 11  2  0
 11 12  1  0
 12 13  1  0
 13 14  2  0
 13 15  1  0
 15 16  1  0
 16 17  1  0
 17 18  1  0
 18 19  1  0
 19 20  1  0
 20 21  2  0
 21 22  1  0
 22 23  2  0
 23 24  1  0
 24 25  2  0
 25 26  1  0
 26 27  2  0
 26 28  1  0
 18 29  1  0
 29 30  1  0
 12 31  2  0
 31 32  1  0
 32 33  2  0
 33 34  1  0
  5 35  1  0
 35 36  2  0
 36  2  1  0
 33 10  1  0
 30 15  1  0
 25 20  1  0
  1 37  1  0
  1 38  1  0
  1 39  1  0
  3 40  1  0
  4 41  1  0
 11 42  1  0
 16 43  1  0
 16 44  1  0
 17 45  1  0
 17 46  1  0
 18 47  1  0
 19 48  1  0
 21 49  1  0
 22 50  1  0
 23 51  1  0
 24 52  1  0
 29 53  1  0
 29 54  1  0
 30 55  1  0
 30 56  1  0
 31 57  1  0
 32 58  1  0
 34 59  1  0
 35 60  1  0
 36 61  1  0
M  CHG  3   9  -1  26   1  28  -1
M  END
>  <UniqueID>  (2) 
2

>  <SMILES>  (2) 
Cc1ccc(S(=O)(=O)[N-]c2cc(C(=O)N3CCC(Nc4ccccc4[N+](=O)[O-])CC3)ccc2O)cc1

>  <Energy>  (2) 
79.73951843939058

>  <Genealogy>  (2) 
Cc1ccc(S(=O)(=O)[N-]c2cc(C(=O)N3CCC(Nc4ccccc4[N+](=O)[O-])CC3)ccc2O)cc1 (protonated)
Cc1ccc(S(=O)(=O)[N-]c2cc(C(=O)N3CCC(Nc4ccccc4[N+](=O)[O-])CC3)ccc2O)cc1 (3D coordinates assigned)
Cc1ccc(S(=O)(=O)[N-]c2cc(C(=O)N3CCC(Nc4ccccc4[N+](=O)[O-])CC3)ccc2O)cc1 (nonaromatic ring conformer: 79.73951843939058 kcal/mol)

>  <smiles>  (2) 
Cc1ccc(S(=O)(=O)Nc2cc(C(=O)N3CCC(Nc4ccccc4[N+](=O)[O-])CC3)ccc2O)cc1

>  <score_type>  (2) 
oracle

>  <origin>  (2) 
adgpu

>  <m_score__min__energy>  (2) 
-11.279999999999999

>  <m_primary>  (2) 
energy

$$$$
2:0
     RDKit          3D

 63 67  0  0  0  0  0  0  0  0999 V2000
   -3.4510   24.3900  -26.5590 O   0  0  0  0  0  0  0  0  0  0  0  0
   -3.1460   24.6100  -27.7630 C   0  0  0  0  0  0  0  0  0  0  0  0
   -4.0790   24.1820  -28.8320 C   0  0  0  0  0  0  0  0  0  0  0  0
   -5.3450   24.7820  -28.9680 C   0  0  0  0  0  0  0  0  0  0  0  0
   -6.2000   24.3980  -30.0050 C   0  0  0  0  0  0  0  0  0  0  0  0
   -5.8040   23.4150  -30.9210 C   0  0  0  0  0  0  0  0  0  0  0  0
   -6.6370   23.1240  -32.0460 N   0  0  0  0  0  0  0  0  0  0  0  0
   -8.0880   22.2020  -31.8230 S   0  0  0  0  0  0  0  0  0  0  0  0
   -9.1920   22.8120  -32.6420 O   0  0  0  0  0  0  0  0  0  0  0  0
   -8.4970   22.2220  -30.3770 O   0  0  0  0  0  0  0  0  0  0  0  0
   -7.8060   20.5470  -32.3610 C   0  0  0  0  0  0  0  0  0  0  0  0
   -8.5810   19.4980  -31.8440 C   0  0  0  0  0  0  0  0  0  0  0  0
   -8.3050   18.1740  -32.2030 C   0  0  0  0  0  0  0  0  0  0  0  0
   -7.2430   17.8910  -33.0770 C   0  0  0  0  0  0  0  0  0  0  0  0
   -6.4730   18.9400  -33.6070 C   0  0  0  0  0  0  0  0  0  0  0  0
   -6.7530   20.2650  -33.2460 C   0  0  0  0  0  0  0  0  0  0  0  0
   -5.3580   18.6030  -34.5600 C   0  0  0  0  0  0  0  0  0  0  0  0
   -4.5540   17.4100  -34.0200 C   0  0  0  0  0  0  0  0  0  0  0  0
   -5.4280   16.2110  -33.5600 C   0  0  0  0  0  0  0  0  0  0  0  0
   -6.9480   16.4840  -33.5220 C   0  0  0  0  0  0  0  0  0  0  0  0
   -4.5620   22.7790  -30.7600 C   0  0  0  0  0  0  0  0  0  0  0  0
   -4.1680   21.7670  -31.6270 O   0  0  0  0  0  0  0  0  0  0  0  0
   -3.7080   23.1590  -29.7210 C   0  0  0  0  0  0  0  0  0  0  0  0
   -1.8960   25.2590  -28.0700 N   0  0  0  0  0  0  0  0  0  0  0  0
   -1.2890   26.1650  -27.0940 C   0  0  0  0  0  0  0  0  0  0  0  0
   -0.1870   25.4240  -26.3410 C   0  0  0  0  0  0  0  0  0  0  0  0
    0.7220   24.7800  -27.3000 N   0  0  0  0  0  0  0  0  0  0  0  0
    2.1360   24.7340  -27.0330 C   0  0  0  0  0  0  0  0  0  0  0  0
    2.6020   24.6140  -25.7140 C   0  0  0  0  0  0  0  0  0  0  0  0
    3.9750   24.5510  -25.4530 C   0  0  0  0  0  0  0  0  0  0  0  0
    4.8920   24.6170  -26.5060 C   0  0  0  0  0  0  0  0  0  0  0  0
    4.4370   24.7290  -27.8230 C   0  0  0  0  0  0  0  0  0  0  0  0
    3.0650   24.7820  -28.0870 C   0  0  0  0  0  0  0  0  0  0  0  0
    0.1470   23.9410  -28.3600 C   0  0  0  0  0  0  0  0  0  0  0  0
   -0.9850   24.6870  -29.0700 C   0  0  0  0  0  0  0  0  0  0  0  0
   -5.6630   25.5568  -28.2548 H   0  0  0  0  0  0  0  0  0  0  0  0
   -7.1888   24.8701  -30.1022 H   0  0  0  0  0  0  0  0  0  0  0  0
   -6.2030   23.1020  -32.9950 H   0  0  0  0  0  0  0  0  0  0  0  0
   -9.4089   19.7172  -31.1537 H   0  0  0  0  0  0  0  0  0  0  0  0
   -8.9197   17.3553  -31.8007 H   0  0  0  0  0  0  0  0  0  0  0  0
   -6.1466   21.0857  -33.6568 H   0  0  0  0  0  0  0  0  0  0  0  0
   -5.7822   18.3433  -35.5411 H   0  0  0  0  0  0  0  0  0  0  0  0
   -4.6925   19.4728  -34.6623 H   0  0  0  0  0  0  0  0  0  0  0  0
   -3.8791   17.0603  -34.8151 H   0  0  0  0  0  0  0  0  0  0  0  0
   -4.0143   17.7681  -33.1309 H   0  0  0  0  0  0  0  0  0  0  0  0
   -5.2493   15.3742  -34.2513 H   0  0  0  0  0  0  0  0  0  0  0  0
   -5.1298   15.9947  -32.5235 H   0  0  0  0  0  0  0  0  0  0  0  0
   -7.3639   16.3327  -34.5290 H   0  0  0  0  0  0  0  0  0  0  0  0
   -7.4061   15.7902  -32.8017 H   0  0  0  0  0  0  0  0  0  0  0  0
   -2.7386   22.6537  -29.5983 H   0  0  0  0  0  0  0  0  0  0  0  0
   -0.8592   27.0331  -27.6151 H   0  0  0  0  0  0  0  0  0  0  0  0
   -2.0545   26.5108  -26.3838 H   0  0  0  0  0  0  0  0  0  0  0  0
    0.3784   26.1382  -25.7244 H   0  0  0  0  0  0  0  0  0  0  0  0
   -0.6394   24.6563  -25.6961 H   0  0  0  0  0  0  0  0  0  0  0  0
    1.8841   24.5693  -24.8818 H   0  0  0  0  0  0  0  0  0  0  0  0
    4.3334   24.4494  -24.4180 H   0  0  0  0  0  0  0  0  0  0  0  0
    5.9716   24.5808  -26.2983 H   0  0  0  0  0  0  0  0  0  0  0  0
    5.1586   24.7755  -28.6519 H   0  0  0  0  0  0  0  0  0  0  0  0
    2.7105   24.8617  -29.1253 H   0  0  0  0  0  0  0  0  0  0  0  0
    0.9307   23.6903  -29.0900 H   0  0  0  0  0  0  0  0  0  0  0  0
   -0.2561   23.0215  -27.9105 H   0  0  0  0  0  0  0  0  0  0  0  0
   -0.5625   25.4946  -29.6858 H   0  0  0  0  0  0  0  0  0  0  0  0
   -1.5388   23.9874  -29.7133 H   0  0  0  0  0  0  0  0  0  0  0  0
  1  2  2  0
  2  3  1  0
  3  4  2  0
  4  5  1  0
  5  6  2  0
  6  7  1  0
  7  8  1  0
  8  9  2  0
  8 10  2  0
  8 11  1  0
 11 12  2  0
 12 13  1  0
 13 14  2  0
 14 15  1  0
 15 16  2  0
 15 17  1  0
 17 18  1  0
 18 19  1  0
 19 20  1  0
  6 21  1  0
 21 22  1  0
 21 23  2  0
  2 24  1  0
 24 25  1  0
 25 26  1  0
 26 27  1  0
 27 28  1  0
 28 29  2  0
 29 30  1  0
 30 31  2  0
 31 32  1  0
 32 33  2  0
 27 34  1  0
 34 35  1  0
 23  3  1  0
 35 24  1  0
 16 11  1  0
 33 28  1  0
 20 14  1  0
  4 36  1  0
  5 37  1  0
  7 38  1  0
 12 39  1  0
 13 40  1  0
 16 41  1  0
 17 42  1  0
 17 43  1  0
 18 44  1  0
 18 45  1  0
 19 46  1  0
 19 47  1  0
 20 48  1  0
 20 49  1  0
 23 50  1  0
 25 51  1  0
 25 52  1  0
 26 53  1  0
 26 54  1  0
 29 55  1  0
 30 56  1  0
 31 57  1  0
 32 58  1  0
 33 59  1  0
 34 60  1  0
 34 61  1  0
 35 62  1  0
 35 63  1  0
M  CHG  1  22  -1
M  END
>  <UniqueID>  (3) 
3

>  <SMILES>  (3) 
O=C(c1ccc(NS(=O)(=O)c2ccc3c(c2)CCCC3)c([O-])c1)N1CCN(c2ccccc2)CC1

>  <Energy>  (3) 
85.52736909577945

>  <Genealogy>  (3) 
O=C(c1ccc(NS(=O)(=O)c2ccc3c(c2)CCCC3)c([O-])c1)N1CCN(c2ccccc2)CC1 (protonated)
O=C(c1ccc(NS(=O)(=O)c2ccc3c(c2)CCCC3)c([O-])c1)N1CCN(c2ccccc2)CC1 (3D coordinates assigned)
O=C(c1ccc(NS(=O)(=O)c2ccc3c(c2)CCCC3)c([O-])c1)N1CCN(c2ccccc2)CC1 (nonaromatic ring conformer: 85.52736909577945 kcal/mol)

>  <smiles>  (3) 
O=C(c1ccc(NS(=O)(=O)c2ccc3c(c2)CCCC3)c(O)c1)N1CCN(c2ccccc2)CC1

>  <score_type>  (3) 
oracle

>  <origin>  (3) 
adgpu

>  <m_score__min__energy>  (3) 
-15.029999999999999

>  <m_primary>  (3) 
energy

$$$$
3:0
     RDKit          3D

 43 46  0  0  0  0  0  0  0  0999 V2000
   -3.6360   21.1550  -29.6720 C   0  0  0  0  0  0  0  0  0  0  0  0
   -3.9980   22.4190  -29.3920 C   0  0  0  0  0  0  0  0  0  0  0  0
   -3.2300   23.3650  -28.7030 C   0  0  0  0  0  0  0  0  0  0  0  0
   -2.0350   23.1660  -28.1100 C   0  0  0  0  0  0  0  0  0  0  0  0
   -1.2210   24.2170  -27.4660 C   0  0  0  0  0  0  0  0  0  0  0  0
   -0.6870   24.2490  -25.8630 S   0  0  0  0  0  0  0  0  0  0  0  0
   -0.0530   25.7970  -26.0090 C   0  0  0  0  0  0  0  0  0  0  0  0
    0.5330   26.4140  -25.0830 O   0  0  0  0  0  0  0  0  0  0  0  0
   -0.2480   26.3220  -27.2350 N   0  0  0  0  0  0  0  0  0  0  0  0
   -0.9100   25.4480  -28.0420 C   0  0  0  0  0  0  0  0  0  0  0  0
   -1.2480   25.7720  -29.3520 O   0  0  0  0  0  0  0  0  0  0  0  0
   -3.9650   24.5440  -28.7180 C   0  0  0  0  0  0  0  0  0  0  0  0
   -5.1340   24.2750  -29.4000 C   0  0  0  0  0  0  0  0  0  0  0  0
   -6.2250   25.2730  -29.6470 C   0  0  0  0  0  0  0  0  0  0  0  0
   -5.1610   22.9860  -29.8060 N   0  0  0  0  0  0  0  0  0  0  0  0
   -6.2370   22.3670  -30.5320 C   0  0  0  0  0  0  0  0  0  0  0  0
   -7.5180   22.9230  -30.5330 C   0  0  0  0  0  0  0  0  0  0  0  0
   -8.5200   22.3170  -31.2830 C   0  0  0  0  0  0  0  0  0  0  0  0
   -8.2240   21.1740  -32.0270 C   0  0  0  0  0  0  0  0  0  0  0  0
   -9.1240   20.6510  -32.7370 O   0  0  0  0  0  0  0  0  0  0  0  0
   -6.9540   20.6550  -31.9970 N   0  0  0  0  0  0  0  0  0  0  0  0
   -6.5940   19.4820  -32.7520 C   0  0  0  0  0  0  0  0  0  0  0  0
   -7.1040   18.2260  -32.3800 C   0  0  0  0  0  0  0  0  0  0  0  0
   -6.7800   17.0850  -33.1200 C   0  0  0  0  0  0  0  0  0  0  0  0
   -5.9560   17.1890  -34.2440 C   0  0  0  0  0  0  0  0  0  0  0  0
   -5.4580   18.4360  -34.6310 C   0  0  0  0  0  0  0  0  0  0  0  0
   -5.7780   19.5800  -33.8940 C   0  0  0  0  0  0  0  0  0  0  0  0
   -6.0000   21.2550  -31.2770 N   0  0  0  0  0  0  0  0  0  0  0  0
   -4.3229   20.4952  -30.2223 H   0  0  0  0  0  0  0  0  0  0  0  0
   -2.6529   20.7805  -29.3508 H   0  0  0  0  0  0  0  0  0  0  0  0
   -1.6355   22.1411  -28.1056 H   0  0  0  0  0  0  0  0  0  0  0  0
   -0.6450   25.5090  -30.1220 H   0  0  0  0  0  0  0  0  0  0  0  0
   -3.6717   25.5059  -28.2723 H   0  0  0  0  0  0  0  0  0  0  0  0
   -6.6179   25.6324  -28.6845 H   0  0  0  0  0  0  0  0  0  0  0  0
   -5.8226   26.1221  -30.2189 H   0  0  0  0  0  0  0  0  0  0  0  0
   -7.0350   24.7967  -30.2189 H   0  0  0  0  0  0  0  0  0  0  0  0
   -7.7319   23.8294  -29.9476 H   0  0  0  0  0  0  0  0  0  0  0  0
   -9.5374   22.7351  -31.2898 H   0  0  0  0  0  0  0  0  0  0  0  0
   -7.7614   18.1405  -31.5022 H   0  0  0  0  0  0  0  0  0  0  0  0
   -7.1743   16.1038  -32.8171 H   0  0  0  0  0  0  0  0  0  0  0  0
   -5.6996   16.2899  -34.8236 H   0  0  0  0  0  0  0  0  0  0  0  0
   -4.8125   18.5176  -35.5179 H   0  0  0  0  0  0  0  0  0  0  0  0
   -5.3904   20.5604  -34.2081 H   0  0  0  0  0  0  0  0  0  0  0  0
  1  2  2  0
  2  3  1  0
  3  4  2  3
  4  5  1  0
  5  6  1  0
  6  7  1  0
  7  8  2  0
  7  9  1  0
  9 10  1  0
 10 11  1  0
  3 12  1  0
 12 13  2  0
 13 14  1  0
 13 15  1  0
 15 16  1  0
 16 17  1  0
 17 18  2  0
 18 19  1  0
 19 20  2  0
 19 21  1  0
 21 22  1  0
 22 23  2  0
 23 24  1  0
 24 25  2  0
 25 26  1  0
 26 27  2  0
 21 28  1  0
 15  2  1  0
 28 16  2  0
 10  5  2  0
 27 22  1  0
  1 29  1  0
  1 30  1  0
  4 31  1  0
 11 32  1  0
 12 33  1  0
 14 34  1  0
 14 35  1  0
 14 36  1  0
 17 37  1  0
 18 38  1  0
 23 39  1  0
 24 40  1  0
 25 41  1  0
 26 42  1  0
 27 43  1  0
M  CHG  1   9  -1
M  END
>  <UniqueID>  (4) 
4

>  <SMILES>  (4) 
C=c1c(=Cc2sc(=O)[n-]c2O)cc(C)n1-c1ccc(=O)n(-c2ccccc2)n1

>  <Energy>  (4) 
125.7049795849688

>  <Genealogy>  (4) 
C=c1c(=Cc2sc(=O)[n-]c2O)cc(C)n1-c1ccc(=O)n(-c2ccccc2)n1 (protonated)
C=c1c(=Cc2sc(=O)[n-]c2O)cc(C)n1-c1ccc(=O)n(-c2ccccc2)n1 (3D coordinates assigned)
C=c1c(=Cc2sc(=O)[n-]c2O)cc(C)n1-c1ccc(=O)n(-c2ccccc2)n1 (optimized conformer: 125.7049795849688 kcal/mol)

>  <smiles>  (4) 
C=c1c(=Cc2sc(=O)[nH]c2O)cc(C)n1-c1ccc(=O)n(-c2ccccc2)n1

>  <score_type>  (4) 
oracle

>  <origin>  (4) 
adgpu

>  <m_score__min__energy>  (4) 
-10.619999999999999

>  <m_primary>  (4) 
energy

$$$$
4:0
     RDKit          3D

 43 45  0  0  0  0  0  0  0  0999 V2000
   -1.9560   22.7690  -29.6250 C   0  0  0  0  0  0  0  0  0  0  0  0
   -2.4010   22.2950  -30.9710 C   0  0  0  0  0  0  0  0  0  0  0  0
   -1.5850   21.6450  -31.8280 N   0  0  0  0  0  0  0  0  0  0  0  0
   -2.3600   21.4110  -32.9080 C   0  0  0  0  0  0  0  0  0  0  0  0
   -3.6230   21.9190  -32.6940 C   0  0  0  0  0  0  0  0  0  0  0  0
   -3.6430   22.4680  -31.4710 N   0  0  0  0  0  0  0  0  0  0  0  0
   -4.9760   23.3090  -30.7450 S   0  0  0  0  0  0  0  0  0  0  0  0
   -4.9820   24.7310  -31.2360 O   0  0  0  0  0  0  0  0  0  0  0  0
   -4.8270   23.3060  -29.2500 O   0  0  0  0  0  0  0  0  0  0  0  0
   -6.4800   22.5050  -31.1770 C   0  0  0  0  0  0  0  0  0  0  0  0
   -7.6250   23.2520  -31.4850 C   0  0  0  0  0  0  0  0  0  0  0  0
   -8.7980   22.6030  -31.8800 C   0  0  0  0  0  0  0  0  0  0  0  0
   -8.8300   21.2080  -31.9790 C   0  0  0  0  0  0  0  0  0  0  0  0
   -7.6920   20.4550  -31.6610 C   0  0  0  0  0  0  0  0  0  0  0  0
   -7.7040   18.7040  -31.8620 S   0  0  0  0  0  0  0  0  0  0  0  0
   -6.7920   18.0760  -30.8460 O   0  0  0  0  0  0  0  0  0  0  0  0
   -9.1010   18.2040  -31.6140 O   0  0  0  0  0  0  0  0  0  0  0  0
   -7.2150   18.2560  -33.4840 N   0  0  0  0  0  0  0  0  0  0  0  0
   -6.2120   19.1830  -34.0450 C   0  0  0  0  0  0  0  0  0  0  0  0
   -4.8200   19.0120  -33.4100 C   0  0  0  0  0  0  0  0  0  0  0  0
   -4.4520   17.5410  -33.1500 C   0  0  0  0  0  0  0  0  0  0  0  0
   -5.3580   16.5800  -33.9200 C   0  0  0  0  0  0  0  0  0  0  0  0
   -6.8390   16.8220  -33.5720 C   0  0  0  0  0  0  0  0  0  0  0  0
   -6.5240   21.1070  -31.2470 C   0  0  0  0  0  0  0  0  0  0  0  0
   -2.4860   22.2044  -28.8438 H   0  0  0  0  0  0  0  0  0  0  0  0
   -0.8725   22.6109  -29.5204 H   0  0  0  0  0  0  0  0  0  0  0  0
   -2.1821   23.8404  -29.5204 H   0  0  0  0  0  0  0  0  0  0  0  0
   -2.0327   20.8928  -33.8214 H   0  0  0  0  0  0  0  0  0  0  0  0
   -4.4650   21.8809  -33.4008 H   0  0  0  0  0  0  0  0  0  0  0  0
   -7.6005   24.3496  -31.4158 H   0  0  0  0  0  0  0  0  0  0  0  0
   -9.6982   23.1905  -32.1136 H   0  0  0  0  0  0  0  0  0  0  0  0
   -9.7498   20.7016  -32.3069 H   0  0  0  0  0  0  0  0  0  0  0  0
   -6.1299   18.9993  -35.1264 H   0  0  0  0  0  0  0  0  0  0  0  0
   -6.5506   20.2071  -33.8294 H   0  0  0  0  0  0  0  0  0  0  0  0
   -4.0702   19.4459  -34.0879 H   0  0  0  0  0  0  0  0  0  0  0  0
   -4.8388   19.5226  -32.4359 H   0  0  0  0  0  0  0  0  0  0  0  0
   -3.4105   17.3747  -33.4626 H   0  0  0  0  0  0  0  0  0  0  0  0
   -4.5811   17.3429  -32.0757 H   0  0  0  0  0  0  0  0  0  0  0  0
   -5.2119   16.7343  -34.9993 H   0  0  0  0  0  0  0  0  0  0  0  0
   -5.0953   15.5492  -33.6399 H   0  0  0  0  0  0  0  0  0  0  0  0
   -7.4580   16.3497  -34.3490 H   0  0  0  0  0  0  0  0  0  0  0  0
   -7.0052   16.3889  -32.5746 H   0  0  0  0  0  0  0  0  0  0  0  0
   -5.6358   20.5177  -30.9752 H   0  0  0  0  0  0  0  0  0  0  0  0
  1  2  1  0
  2  3  2  0
  3  4  1  0
  4  5  2  0
  5  6  1  0
  6  7  1  0
  7  8  2  0
  7  9  2  0
  7 10  1  0
 10 11  2  0
 11 12  1  0
 12 13  2  0
 13 14  1  0
 14 15  1  0
 15 16  2  0
 15 17  2  0
 15 18  1  0
 18 19  1  0
 19 20  1  0
 20 21  1  0
 21 22  1  0
 22 23  1  0
 14 24  2  0
  6  2  1  0
 24 10  1  0
 23 18  1  0
  1 25  1  0
  1 26  1  0
  1 27  1  0
  4 28  1  0
  5 29  1  0
 11 30  1  0
 12 31  1  0
 13 32  1  0
 19 33  1  0
 19 34  1  0
 20 35  1  0
 20 36  1  0
 21 37  1  0
 21 38  1  0
 22 39  1  0
 22 40  1  0
 23 41  1  0
 23 42  1  0
 24 43  1  0
M  END
>  <UniqueID>  (5) 
5

>  <SMILES>  (5) 
Cc1nccn1S(=O)(=O)c1cccc(S(=O)(=O)N2CCCCC2)c1

>  <Energy>  (5) 
78.3465253738798

>  <Genealogy>  (5) 
Cc1nccn1S(=O)(=O)c1cccc(S(=O)(=O)N2CCCCC2)c1 (3D coordinates assigned)
Cc1nccn1S(=O)(=O)c1cccc(S(=O)(=O)N2CCCCC2)c1 (nonaromatic ring conformer: 78.3465253738798 kcal/mol)

>  <smiles>  (5) 
Cc1nccn1S(=O)(=O)c1cccc(S(=O)(=O)N2CCCCC2)c1

>  <score_type>  (5) 
oracle

>  <origin>  (5) 
adgpu

>  <m_score__min__energy>  (5) 
-9.2300000000000004

>  <m_primary>  (5) 
energy

$$$$
5:0
     RDKit          3D

 46 49  0  0  0  0  0  0  0  0999 V2000
   -2.7100   18.8810  -26.3550 C   0  0  0  0  0  0  0  0  0  0  0  0
   -2.4000   20.1730  -27.0280 C   0  0  0  0  0  0  0  0  0  0  0  0
   -3.3530   20.9990  -27.5250 N   0  0  0  0  0  0  0  0  0  0  0  0
   -2.7930   22.0700  -28.1430 C   0  0  0  0  0  0  0  0  0  0  0  0
   -3.5170   23.0990  -28.7450 C   0  0  0  0  0  0  0  0  0  0  0  0
   -2.8140   24.1520  -29.3730 C   0  0  0  0  0  0  0  0  0  0  0  0
   -3.5030   25.2430  -30.0030 N   0  0  0  0  0  0  0  0  0  0  0  0
   -4.8060   25.1870  -30.5990 C   0  0  0  0  0  0  0  0  0  0  0  0
   -5.4550   26.2590  -30.7270 O   0  0  0  0  0  0  0  0  0  0  0  0
   -5.3840   23.9230  -31.1120 C   0  0  0  0  0  0  0  0  0  0  0  0
   -6.7320   23.6130  -30.8670 C   0  0  0  0  0  0  0  0  0  0  0  0
   -7.2840   22.4220  -31.3460 C   0  0  0  0  0  0  0  0  0  0  0  0
   -6.5020   21.5310  -32.0910 C   0  0  0  0  0  0  0  0  0  0  0  0
   -7.2020   20.0350  -32.7100 S   0  0  0  0  0  0  0  0  0  0  0  0
   -7.1760   20.0630  -34.2130 O   0  0  0  0  0  0  0  0  0  0  0  0
   -8.6410   19.9620  -32.2800 O   0  0  0  0  0  0  0  0  0  0  0  0
   -6.3580   18.6080  -32.1420 N   0  0  0  0  0  0  0  0  0  0  0  0
   -6.9800   17.3570  -32.6140 C   0  0  0  0  0  0  0  0  0  0  0  0
   -6.5480   16.9690  -34.0480 C   0  0  0  0  0  0  0  0  0  0  0  0
   -5.4870   17.7590  -34.5470 O   0  0  0  0  0  0  0  0  0  0  0  0
   -4.4570   17.8280  -33.5890 C   0  0  0  0  0  0  0  0  0  0  0  0
   -4.9010   18.6700  -32.3820 C   0  0  0  0  0  0  0  0  0  0  0  0
   -5.1590   21.8390  -32.3460 C   0  0  0  0  0  0  0  0  0  0  0  0
   -4.6050   23.0290  -31.8680 C   0  0  0  0  0  0  0  0  0  0  0  0
   -1.4030   24.1660  -29.3470 C   0  0  0  0  0  0  0  0  0  0  0  0
   -0.6870   23.1230  -28.7380 C   0  0  0  0  0  0  0  0  0  0  0  0
   -1.4080   22.0900  -28.1480 C   0  0  0  0  0  0  0  0  0  0  0  0
   -0.8330   20.7260  -27.3600 S   0  0  0  0  0  0  0  0  0  0  0  0
   -2.6770   19.0186  -25.2641 H   0  0  0  0  0  0  0  0  0  0  0  0
   -3.7143   18.5446  -26.6519 H   0  0  0  0  0  0  0  0  0  0  0  0
   -1.9676   18.1255  -26.6519 H   0  0  0  0  0  0  0  0  0  0  0  0
   -4.6169   23.0911  -28.7312 H   0  0  0  0  0  0  0  0  0  0  0  0
   -7.3577   24.3130  -30.2938 H   0  0  0  0  0  0  0  0  0  0  0  0
   -8.3373   22.1835  -31.1369 H   0  0  0  0  0  0  0  0  0  0  0  0
   -6.6944   16.5441  -31.9301 H   0  0  0  0  0  0  0  0  0  0  0  0
   -8.0681   17.5172  -32.6308 H   0  0  0  0  0  0  0  0  0  0  0  0
   -6.2271   15.9169  -34.0430 H   0  0  0  0  0  0  0  0  0  0  0  0
   -7.4144   17.1358  -34.7049 H   0  0  0  0  0  0  0  0  0  0  0  0
   -4.2092   16.8114  -33.2498 H   0  0  0  0  0  0  0  0  0  0  0  0
   -3.5754   18.2999  -34.0474 H   0  0  0  0  0  0  0  0  0  0  0  0
   -4.3816   18.2998  -31.4858 H   0  0  0  0  0  0  0  0  0  0  0  0
   -4.6466   19.7179  -32.5992 H   0  0  0  0  0  0  0  0  0  0  0  0
   -4.5378   21.1402  -32.9255 H   0  0  0  0  0  0  0  0  0  0  0  0
   -3.5533   23.2681  -32.0842 H   0  0  0  0  0  0  0  0  0  0  0  0
   -0.8585   25.0028  -29.8087 H   0  0  0  0  0  0  0  0  0  0  0  0
    0.4130   23.1227  -28.7277 H   0  0  0  0  0  0  0  0  0  0  0  0
  1  2  1  0
  2  3  2  0
  3  4  1  0
  4  5  2  0
  5  6  1  0
  6  7  1  0
  7  8  1  0
  8  9  2  0
  8 10  1  0
 10 11  2  0
 11 12  1  0
 12 13  2  0
 13 14  1  0
 14 15  2  0
 14 16  2  0
 14 17  1  0
 17 18  1  0
 18 19  1  0
 19 20  1  0
 20 21  1  0
 21 22  1  0
 13 23  1  0
 23 24  2  0
  6 25  2  0
 25 26  1  0
 26 27  2  0
 27 28  1  0
 28  2  1  0
 27  4  1  0
 24 10  1  0
 22 17  1  0
  1 29  1  0
  1 30  1  0
  1 31  1  0
  5 32  1  0
 11 33  1  0
 12 34  1  0
 18 35  1  0
 18 36  1  0
 19 37  1  0
 19 38  1  0
 21 39  1  0
 21 40  1  0
 22 41  1  0
 22 42  1  0
 23 43  1  0
 24 44  1  0
 25 45  1  0
 26 46  1  0
M  CHG  1   7  -1
M  END
>  <UniqueID>  (6) 
6

>  <SMILES>  (6) 
Cc1nc2cc([N-]C(=O)c3ccc(S(=O)(=O)N4CCOCC4)cc3)ccc2s1

>  <Energy>  (6) 
99.28308044623637

>  <Genealogy>  (6) 
Cc1nc2cc([N-]C(=O)c3ccc(S(=O)(=O)N4CCOCC4)cc3)ccc2s1 (protonated)
Cc1nc2cc([N-]C(=O)c3ccc(S(=O)(=O)N4CCOCC4)cc3)ccc2s1 (3D coordinates assigned)
Cc1nc2cc([N-]C(=O)c3ccc(S(=O)(=O)N4CCOCC4)cc3)ccc2s1 (nonaromatic ring conformer: 99.28308044623637 kcal/mol)

>  <smiles>  (6) 
Cc1nc2cc(NC(=O)c3ccc(S(=O)(=O)N4CCOCC4)cc3)ccc2s1

>  <score_type>  (6) 
oracle

>  <origin>  (6) 
adgpu

>  <m_score__min__energy>  (6) 
-11.98

>  <m_primary>  (6) 
energy

$$$$
6:0
     RDKit          3D

 32 34  0  0  0  0  0  0  0  0999 V2000
   -8.7500   20.9640  -32.1440 O   0  0  0  0  0  0  0  0  0  0  0  0
   -7.2790   20.6560  -32.1830 S   0  0  0  0  0  0  0  0  0  0  0  0
   -7.0030   19.5370  -31.2170 O   0  0  0  0  0  0  0  0  0  0  0  0
   -6.8430   20.1620  -33.7910 N   0  0  0  0  0  0  0  0  0  0  0  0
   -5.9830   18.9780  -33.7300 C   0  0  0  0  0  0  0  0  0  0  0  0
   -4.5600   19.4000  -33.5180 C   0  0  0  0  0  0  0  0  0  0  0  0
   -3.5580   18.4440  -33.2980 C   0  0  0  0  0  0  0  0  0  0  0  0
   -2.2360   18.8640  -33.1360 C   0  0  0  0  0  0  0  0  0  0  0  0
   -1.9260   20.2240  -33.2020 C   0  0  0  0  0  0  0  0  0  0  0  0
   -2.9480   21.1470  -33.4340 C   0  0  0  0  0  0  0  0  0  0  0  0
   -4.2290   20.7200  -33.5890 N   0  0  0  0  0  0  0  0  0  0  0  0
   -6.3770   22.0960  -31.7190 C   0  0  0  0  0  0  0  0  0  0  0  0
   -6.8980   23.3850  -31.9860 C   0  0  0  0  0  0  0  0  0  0  0  0
   -6.1910   24.5370  -31.5970 C   0  0  0  0  0  0  0  0  0  0  0  0
   -4.9740   24.3680  -30.9410 C   0  0  0  0  0  0  0  0  0  0  0  0
   -4.1610   25.3410  -30.4920 N   0  0  0  0  0  0  0  0  0  0  0  0
   -3.1270   24.6640  -29.9350 C   0  0  0  0  0  0  0  0  0  0  0  0
   -2.0430   25.2970  -29.3410 O   0  0  0  0  0  0  0  0  0  0  0  0
   -3.2740   23.2880  -30.0250 C   0  0  0  0  0  0  0  0  0  0  0  0
   -4.4710   23.1200  -30.6770 C   0  0  0  0  0  0  0  0  0  0  0  0
   -5.1450   21.9580  -31.0480 C   0  0  0  0  0  0  0  0  0  0  0  0
   -6.2910   20.9450  -34.2090 H   0  0  0  0  0  0  0  0  0  0  0  0
   -6.3026   18.3361  -32.8959 H   0  0  0  0  0  0  0  0  0  0  0  0
   -6.0616   18.4205  -34.6750 H   0  0  0  0  0  0  0  0  0  0  0  0
   -3.8107   17.3743  -33.2535 H   0  0  0  0  0  0  0  0  0  0  0  0
   -1.4408   18.1253  -32.9569 H   0  0  0  0  0  0  0  0  0  0  0  0
   -0.8881   20.5646  -33.0727 H   0  0  0  0  0  0  0  0  0  0  0  0
   -2.7160   22.2207  -33.4914 H   0  0  0  0  0  0  0  0  0  0  0  0
   -7.8641   23.4865  -32.5021 H   0  0  0  0  0  0  0  0  0  0  0  0
   -6.5875   25.5418  -31.8047 H   0  0  0  0  0  0  0  0  0  0  0  0
   -2.5889   22.5095  -29.6582 H   0  0  0  0  0  0  0  0  0  0  0  0
   -4.7288   20.9646  -30.8243 H   0  0  0  0  0  0  0  0  0  0  0  0
  1  2  2  0
  2  3  2  0
  2  4  1  0
  4  5  1  0
  5  6  1  0
  6  7  2  0
  7  8  1  0
  8  9  2  0
  9 10  1  0
 10 11  2  0
  2 12  1  0
 12 13  2  0
 13 14  1  0
 14 15  2  0
 15 16  1  0
 16 17  1  0
 17 18  1  0
 17 19  2  0
 19 20  1  0
 20 21  2  0
 11  6  1  0
 21 12  1  0
 20 15  1  0
  4 22  1  0
  5 23  1  0
  5 24  1  0
  7 25  1  0
  8 26  1  0
  9 27  1  0
 10 28  1  0
 13 29  1  0
 14 30  1  0
 19 31  1  0
 21 32  1  0
M  CHG  2  16  -1  18  -1
M  END
>  <UniqueID>  (7) 
7

>  <SMILES>  (7) 
O=S(=O)(NCc1ccccn1)c1ccc2[n-]c([O-])cc2c1

>  <Energy>  (7) 
64.0603824959539

>  <Genealogy>  (7) 
O=S(=O)(NCc1ccccn1)c1ccc2[n-]c([O-])cc2c1 (protonated)
O=S(=O)(NCc1ccccn1)c1ccc2[n-]c([O-])cc2c1 (3D coordinates assigned)
O=S(=O)(NCc1ccccn1)c1ccc2[n-]c([O-])cc2c1 (optimized conformer: 64.0603824959539 kcal/mol)

>  <smiles>  (7) 
O=S(=O)(NCc1ccccn1)c1ccc2[nH]c(O)cc2c1

>  <score_type>  (7) 
oracle

>  <origin>  (7) 
adgpu

>  <m_score__min__energy>  (7) 
-12.289999999999999

>  <m_primary>  (7) 
energy

$$$$
7:0
     RDKit          3D

 48 50  0  0  0  0  0  0  0  0999 V2000
   -2.6859   20.6503  -26.9553 H   0  0  0  0  0  0  0  0  0  0  0  0
   -2.3780   21.1360  -27.8930 C   0  0  0  0  0  0  0  0  0  0  0  0
   -2.4410   20.4500  -29.0640 N   0  0  0  0  0  0  0  0  0  0  0  0
   -2.0820   21.0050  -30.2530 C   0  0  0  0  0  0  0  0  0  0  0  0
   -2.1630   20.2710  -31.3270 N   0  0  0  0  0  0  0  0  0  0  0  0
   -1.9160   20.6800  -32.6830 C   0  0  0  0  0  0  0  0  0  0  0  0
   -0.3740   20.9720  -33.1660 S   0  0  0  0  0  0  0  0  0  0  0  0
   -2.9920   21.2220  -33.4620 N   0  0  0  0  0  0  0  0  0  0  0  0
   -2.7620   21.9230  -34.2030 H   0  0  0  0  0  0  0  0  0  0  0  0
   -4.3740   20.9030  -33.2370 C   0  0  0  0  0  0  0  0  0  0  0  0
   -4.9510   19.7410  -33.7710 C   0  0  0  0  0  0  0  0  0  0  0  0
   -4.3367   19.0481  -34.3647 H   0  0  0  0  0  0  0  0  0  0  0  0
   -6.2990   19.4600  -33.5530 C   0  0  0  0  0  0  0  0  0  0  0  0
   -6.7375   18.5393  -33.9653 H   0  0  0  0  0  0  0  0  0  0  0  0
   -7.1040   20.3440  -32.8100 C   0  0  0  0  0  0  0  0  0  0  0  0
   -8.4620   20.0780  -32.5700 O   0  0  0  0  0  0  0  0  0  0  0  0
   -8.9590   18.8940  -31.9540 C   0  0  0  0  0  0  0  0  0  0  0  0
   -8.9133   19.0028  -30.8603 H   0  0  0  0  0  0  0  0  0  0  0  0
  -10.0019   18.7300  -32.2629 H   0  0  0  0  0  0  0  0  0  0  0  0
   -8.3456   18.0347  -32.2629 H   0  0  0  0  0  0  0  0  0  0  0  0
   -6.5400   21.5290  -32.2940 C   0  0  0  0  0  0  0  0  0  0  0  0
   -7.5740   22.6410  -31.3650 S   0  0  0  0  0  0  0  0  0  0  0  0
   -8.4000   23.4290  -32.3420 O   0  0  0  0  0  0  0  0  0  0  0  0
   -8.4980   21.8140  -30.5150 O   0  0  0  0  0  0  0  0  0  0  0  0
   -6.7520   23.7830  -30.3240 N   0  0  0  0  0  0  0  0  0  0  0  0
   -5.7550   23.1500  -29.4610 C   0  0  0  0  0  0  0  0  0  0  0  0
   -6.2053   22.8860  -28.4927 H   0  0  0  0  0  0  0  0  0  0  0  0
   -5.3702   22.2250  -29.9153 H   0  0  0  0  0  0  0  0  0  0  0  0
   -4.6430   24.1610  -29.2610 C   0  0  0  0  0  0  0  0  0  0  0  0
   -4.7991   24.7260  -28.3302 H   0  0  0  0  0  0  0  0  0  0  0  0
   -3.6589   23.6764  -29.1787 H   0  0  0  0  0  0  0  0  0  0  0  0
   -4.7190   25.0840  -30.4610 C   0  0  0  0  0  0  0  0  0  0  0  0
   -4.5895   26.1306  -30.1481 H   0  0  0  0  0  0  0  0  0  0  0  0
   -3.9268   24.8640  -31.1918 H   0  0  0  0  0  0  0  0  0  0  0  0
   -6.1070   24.8760  -31.0580 C   0  0  0  0  0  0  0  0  0  0  0  0
   -6.7001   25.7967  -30.9554 H   0  0  0  0  0  0  0  0  0  0  0  0
   -6.0320   24.6288  -32.1272 H   0  0  0  0  0  0  0  0  0  0  0  0
   -5.1780   21.7960  -32.5160 C   0  0  0  0  0  0  0  0  0  0  0  0
   -4.7360   22.7210  -32.1173 H   0  0  0  0  0  0  0  0  0  0  0  0
   -1.6000   22.3310  -30.2720 C   0  0  0  0  0  0  0  0  0  0  0  0
   -1.2949   22.7950  -31.2216 H   0  0  0  0  0  0  0  0  0  0  0  0
   -1.5120   23.0540  -29.0740 C   0  0  0  0  0  0  0  0  0  0  0  0
   -1.0380   24.4780  -29.0830 C   0  0  0  0  0  0  0  0  0  0  0  0
   -0.9202   24.8318  -28.0481 H   0  0  0  0  0  0  0  0  0  0  0  0
   -0.0710   24.5393  -29.6037 H   0  0  0  0  0  0  0  0  0  0  0  0
   -1.7754   25.1066  -29.6037 H   0  0  0  0  0  0  0  0  0  0  0  0
   -1.9240   22.4540  -27.8770 C   0  0  0  0  0  0  0  0  0  0  0  0
   -1.8896   23.0177  -26.9331 H   0  0  0  0  0  0  0  0  0  0  0  0
  1  2  1  0
  2  3  1  0
  3  4  1  0
  4  5  2  0
  5  6  1  0
  6  7  2  0
  6  8  1  0
  8  9  1  0
  8 10  1  0
 10 11  2  0
 11 12  1  0
 11 13  1  0
 13 14  1  0
 13 15  2  0
 15 16  1  0
 16 17  1  0
 17 18  1  0
 17 19  1  0
 17 20  1  0
 15 21  1  0
 21 22  1  0
 22 23  2  0
 22 24  2  0
 22 25  1  0
 25 26  1  0
 26 27  1  0
 26 28  1  0
 26 29  1  0
 29 30  1  0
 29 31  1  0
 29 32  1  0
 32 33  1  0
 32 34  1  0
 32 35  1  0
 35 36  1  0
 35 37  1  0
 21 38  2  0
 38 39  1  0
  4 40  1  0
 40 41  1  0
 40 42  2  0
 42 43  1  0
 43 44  1  0
 43 45  1  0
 43 46  1  0
 42 47  1  0
 47 48  1  0
 47  2  2  0
 38 10  1  0
 35 25  1  0
M  CHG  1   3  -1
M  END
>  <UniqueID>  (8) 
8

>  <SMILES>  (8) 
COc1ccc(NC(=S)/N=c2\cc(C)cc[n-]2)cc1S(=O)(=O)N1CCCC1

>  <Energy>  (8) 
65.1394653067185

>  <Genealogy>  (8) 
COc1ccc(NC(=S)N=c2cc(C)cc[n-]2)cc1S(=O)(=O)N1CCCC1 (protonated)
COc1ccc(NC(=S)/N=c2\cc(C)cc[n-]2)cc1S(=O)(=O)N1CCCC1 (cis-trans isomerization)
COc1ccc(NC(=S)/N=c2\cc(C)cc[n-]2)cc1S(=O)(=O)N1CCCC1 (3D coordinates assigned)
COc1ccc(NC(=S)/N=c2\cc(C)cc[n-]2)cc1S(=O)(=O)N1CCCC1 (nonaromatic ring conformer: 65.1394653067185 kcal/mol)

>  <smiles>  (8) 
COc1ccc(NC(=S)N=c2cc(C)cc[nH]2)cc1S(=O)(=O)N1CCCC1

>  <score_type>  (8) 
oracle

>  <origin>  (8) 
adgpu

>  <m_score__min__energy>  (8) 
-9.9600000000000009

>  <m_primary>  (8) 
energy

$$$$
8:0
     RDKit          3D

 34 36  0  0  0  0  0  0  0  0999 V2000
   -1.6580   19.7870  -29.5040 O   0  0  0  0  0  0  0  0  0  0  0  0
   -1.5090   20.6750  -30.3880 C   0  0  0  0  0  0  0  0  0  0  0  0
   -1.3240   20.3080  -31.7280 O   0  0  0  0  0  0  0  0  0  0  0  0
   -0.4190   20.9710  -32.6110 C   0  0  2  0  0  0  0  0  0  0  0  0
   -1.1620   21.4840  -33.8540 C   0  0  0  0  0  0  0  0  0  0  0  0
   -0.2440   22.0780  -34.7710 O   0  0  0  0  0  0  0  0  0  0  0  0
    1.0430   21.5650  -34.9760 C   0  0  0  0  0  0  0  0  0  0  0  0
    1.5460   20.5560  -34.1310 C   0  0  0  0  0  0  0  0  0  0  0  0
    2.8310   20.0420  -34.3550 C   0  0  0  0  0  0  0  0  0  0  0  0
    3.6200   20.5510  -35.3890 C   0  0  0  0  0  0  0  0  0  0  0  0
    3.1340   21.5690  -36.2170 C   0  0  0  0  0  0  0  0  0  0  0  0
    3.9450   22.0590  -37.2390 O   0  0  0  0  0  0  0  0  0  0  0  0
    1.8390   22.0750  -36.0100 C   0  0  0  0  0  0  0  0  0  0  0  0
    1.3420   23.0840  -36.8270 O   0  0  0  0  0  0  0  0  0  0  0  0
    0.6780   19.9850  -33.0380 C   0  0  0  0  0  0  0  0  0  0  0  0
   -1.5370   22.1060  -30.0160 C   0  0  0  0  0  0  0  0  0  0  0  0
   -2.6150   22.9210  -30.4060 C   0  0  0  0  0  0  0  0  0  0  0  0
   -2.6430   24.2750  -30.0560 C   0  0  0  0  0  0  0  0  0  0  0  0
   -3.7160   25.0670  -30.4500 O   0  0  0  0  0  0  0  0  0  0  0  0
   -1.5960   24.8300  -29.3130 C   0  0  0  0  0  0  0  0  0  0  0  0
   -1.6260   26.1770  -28.9660 O   0  0  0  0  0  0  0  0  0  0  0  0
   -0.5180   24.0290  -28.9200 C   0  0  0  0  0  0  0  0  0  0  0  0
    0.5250   24.5750  -28.1810 O   0  0  0  0  0  0  0  0  0  0  0  0
   -0.4880   22.6750  -29.2680 C   0  0  0  0  0  0  0  0  0  0  0  0
    0.0292   21.8299  -32.0900 H   0  0  0  0  0  0  0  0  0  0  0  0
   -1.6716   20.6419  -34.3452 H   0  0  0  0  0  0  0  0  0  0  0  0
   -1.8973   22.2410  -33.5437 H   0  0  0  0  0  0  0  0  0  0  0  0
    3.2188   19.2359  -33.7148 H   0  0  0  0  0  0  0  0  0  0  0  0
    4.6305   20.1488  -35.5536 H   0  0  0  0  0  0  0  0  0  0  0  0
    3.5890   22.6740  -37.9610 H   0  0  0  0  0  0  0  0  0  0  0  0
    0.2049   19.0619  -33.4040 H   0  0  0  0  0  0  0  0  0  0  0  0
    1.3153   19.7816  -32.1648 H   0  0  0  0  0  0  0  0  0  0  0  0
   -3.4417   22.4906  -30.9902 H   0  0  0  0  0  0  0  0  0  0  0  0
    0.3612   22.0496  -28.9552 H   0  0  0  0  0  0  0  0  0  0  0  0
  1  2  2  0
  2  3  1  0
  3  4  1  0
  4  5  1  0
  5  6  1  0
  6  7  1  0
  7  8  2  0
  8  9  1  0
  9 10  2  0
 10 11  1  0
 11 12  1  0
 11 13  2  0
 13 14  1  0
  8 15  1  0
  2 16  1  0
 16 17  2  0
 17 18  1  0
 18 19  1  0
 18 20  2  0
 20 21  1  0
 20 22  1  0
 22 23  1  0
 22 24  2  0
 15  4  1  0
 24 16  1  0
 13  7  1  0
  4 25  1  1
  5 26  1  0
  5 27  1  0
  9 28  1  0
 10 29  1  0
 12 30  1  0
 15 31  1  0
 15 32  1  0
 17 33  1  0
 24 34  1  0
M  CHG  4  14  -1  19  -1  21  -1  23  -1
M  END
>  <UniqueID>  (9) 
9

>  <SMILES>  (9) 
O=C(O[C@@H]1COc2c(ccc(O)c2[O-])C1)c1cc([O-])c([O-])c([O-])c1

>  <Energy>  (9) 
36.44537985839417

>  <Genealogy>  (9) 
O=C(OC1COc2c(ccc(O)c2[O-])C1)c1cc([O-])c([O-])c([O-])c1 (protonated)
O=C(O[C@@H]1COc2c(ccc(O)c2[O-])C1)c1cc([O-])c([O-])c([O-])c1 (chirality)
O=C(O[C@@H]1COc2c(ccc(O)c2[O-])C1)c1cc([O-])c([O-])c([O-])c1 (3D coordinates assigned)
O=C(O[C@@H]1COc2c(ccc(O)c2[O-])C1)c1cc([O-])c([O-])c([O-])c1 (nonaromatic ring conformer: 36.44537985839417 kcal/mol)

>  <smiles>  (9) 
O=C(OC1COc2c(ccc(O)c2O)C1)c1cc(O)c(O)c(O)c1

>  <score_type>  (9) 
oracle

>  <origin>  (9) 
adgpu

>  <m_score__min__energy>  (9) 
-13.130000000000001

>  <m_primary>  (9) 
energy

$$$$
9:0
     RDKit          3D

 58 62  0  0  0  0  0  0  0  0999 V2000
   -2.3560   15.5760  -33.1200 C   0  0  0  0  0  0  0  0  0  0  0  0
   -2.7930   16.8520  -33.5730 O   0  0  0  0  0  0  0  0  0  0  0  0
   -1.9080   17.8560  -33.9780 C   0  0  0  0  0  0  0  0  0  0  0  0
   -0.6030   17.5680  -34.2420 N   0  0  0  0  0  0  0  0  0  0  0  0
    0.2800   18.5210  -34.6390 C   0  0  0  0  0  0  0  0  0  0  0  0
   -0.1340   19.8550  -34.7910 C   0  0  0  0  0  0  0  0  0  0  0  0
    0.8190   20.9050  -35.2320 C   0  0  0  0  0  0  0  0  0  0  0  0
    0.3500   22.1470  -35.6870 C   0  0  0  0  0  0  0  0  0  0  0  0
    1.2440   23.1350  -36.1030 C   0  0  0  0  0  0  0  0  0  0  0  0
    2.6220   22.9000  -36.0700 C   0  0  0  0  0  0  0  0  0  0  0  0
    3.7070   24.1810  -36.6030 Cl  0  0  0  0  0  0  0  0  0  0  0  0
    3.1130   21.6590  -35.6180 C   0  0  0  0  0  0  0  0  0  0  0  0
    4.5920   21.3900  -35.5680 C   0  0  0  0  0  0  0  0  0  0  0  0
    2.2060   20.6700  -35.2010 C   0  0  0  0  0  0  0  0  0  0  0  0
   -1.4750   20.1700  -34.5200 C   0  0  0  0  0  0  0  0  0  0  0  0
   -2.3680   19.1710  -34.1180 C   0  0  0  0  0  0  0  0  0  0  0  0
   -3.7370   19.4950  -33.8330 N   0  0  0  0  0  0  0  0  0  0  0  0
   -4.7670   18.5120  -34.1960 C   0  0  0  0  0  0  0  0  0  0  0  0
   -6.1140   19.2040  -34.4180 C   0  0  0  0  0  0  0  0  0  0  0  0
   -6.4250   20.0510  -33.3150 O   0  0  0  0  0  0  0  0  0  0  0  0
   -5.4500   20.8550  -32.7190 C   0  0  0  0  0  0  0  0  0  0  0  0
   -5.8310   21.8920  -31.8620 C   0  0  0  0  0  0  0  0  0  0  0  0
   -4.8610   22.7230  -31.2870 C   0  0  0  0  0  0  0  0  0  0  0  0
   -5.3550   24.0500  -30.2410 S   0  0  0  0  0  0  0  0  0  0  0  0
   -6.8360   24.0020  -29.9870 O   0  0  0  0  0  0  0  0  0  0  0  0
   -5.0290   25.3550  -30.9140 O   0  0  0  0  0  0  0  0  0  0  0  0
   -4.5040   23.9570  -28.7360 N   0  0  0  0  0  0  0  0  0  0  0  0
   -3.3600   24.5350  -28.5490 C   0  0  0  0  0  0  0  0  0  0  0  0
   -2.6380   24.5000  -27.3810 C   0  0  0  0  0  0  0  0  0  0  0  0
   -1.5260   25.2610  -27.6900 C   0  0  0  0  0  0  0  0  0  0  0  0
   -0.3600   25.5060  -26.7920 C   0  0  0  0  0  0  0  0  0  0  0  0
   -1.5970   25.6890  -28.9680 N   0  0  0  0  0  0  0  0  0  0  0  0
   -2.7190   25.2390  -29.4520 O   0  0  0  0  0  0  0  0  0  0  0  0
   -3.5070   22.5150  -31.5820 C   0  0  0  0  0  0  0  0  0  0  0  0
   -3.1220   21.4700  -32.4260 C   0  0  0  0  0  0  0  0  0  0  0  0
   -4.0910   20.6150  -32.9870 C   0  0  0  0  0  0  0  0  0  0  0  0
   -2.3504   15.5596  -32.0201 H   0  0  0  0  0  0  0  0  0  0  0  0
   -3.0396   14.8000  -33.4948 H   0  0  0  0  0  0  0  0  0  0  0  0
   -1.3402   15.3820  -33.4948 H   0  0  0  0  0  0  0  0  0  0  0  0
    1.3256   18.2466  -34.8427 H   0  0  0  0  0  0  0  0  0  0  0  0
   -0.7319   22.3437  -35.7161 H   0  0  0  0  0  0  0  0  0  0  0  0
    0.8625   24.1035  -36.4586 H   0  0  0  0  0  0  0  0  0  0  0  0
    4.9186   21.3306  -34.5193 H   0  0  0  0  0  0  0  0  0  0  0  0
    4.8088   20.4377  -36.0741 H   0  0  0  0  0  0  0  0  0  0  0  0
    5.1302   22.2050  -36.0741 H   0  0  0  0  0  0  0  0  0  0  0  0
    2.5849   19.7003  -34.8460 H   0  0  0  0  0  0  0  0  0  0  0  0
   -1.8253   21.2075  -34.6243 H   0  0  0  0  0  0  0  0  0  0  0  0
   -4.4671   17.9984  -35.1213 H   0  0  0  0  0  0  0  0  0  0  0  0
   -4.8708   17.7862  -33.3759 H   0  0  0  0  0  0  0  0  0  0  0  0
   -6.0643   19.8079  -35.3360 H   0  0  0  0  0  0  0  0  0  0  0  0
   -6.8977   18.4378  -34.5116 H   0  0  0  0  0  0  0  0  0  0  0  0
   -6.8956   22.0557  -31.6387 H   0  0  0  0  0  0  0  0  0  0  0  0
   -2.8833   23.9932  -26.4360 H   0  0  0  0  0  0  0  0  0  0  0  0
   -0.6843   25.4379  -25.7431 H   0  0  0  0  0  0  0  0  0  0  0  0
    0.4167   24.7514  -26.9854 H   0  0  0  0  0  0  0  0  0  0  0  0
    0.0473   26.5093  -26.9854 H   0  0  0  0  0  0  0  0  0  0  0  0
   -2.7438   23.1773  -31.1473 H   0  0  0  0  0  0  0  0  0  0  0  0
   -2.0571   21.3142  -32.6535 H   0  0  0  0  0  0  0  0  0  0  0  0
  1  2  1  0
  2  3  1  0
  3  4  2  0
  4  5  1  0
  5  6  2  0
  6  7  1  0
  7  8  2  0
  8  9  1  0
  9 10  2  0
 10 11  1  0
 10 12  1  0
 12 13  1  0
 12 14  2  0
  6 15  1  0
 15 16  2  0
 16 17  1  0
 17 18  1  0
 18 19  1  0
 19 20  1  0
 20 21  1  0
 21 22  2  0
 22 23  1  0
 23 24  1  0
 24 25  2  0
 24 26  2  0
 24 27  1  0
 27 28  2  3
 28 29  1  0
 29 30  2  0
 30 31  1  0
 30 32  1  0
 32 33  1  0
 23 34  2  0
 34 35  1  0
 35 36  2  0
 16  3  1  0
 36 17  1  0
 14  7  1  0
 36 21  1  0
 33 28  1  0
  1 37  1  0
  1 38  1  0
  1 39  1  0
  5 40  1  0
  8 41  1  0
  9 42  1  0
 13 43  1  0
 13 44  1  0
 13 45  1  0
 14 46  1  0
 15 47  1  0
 18 48  1  0
 18 49  1  0
 19 50  1  0
 19 51  1  0
 22 52  1  0
 29 53  1  0
 31 54  1  0
 31 55  1  0
 31 56  1  0
 34 57  1  0
 35 58  1  0
M  CHG  1  32  -1
M  END
>  <UniqueID>  (10) 
10

>  <SMILES>  (10) 
COc1ncc(-c2ccc(Cl)c(C)c2)cc1N1CCOc2cc(S(=O)(=O)N=c3cc(C)[n-]o3)ccc21

>  <Energy>  (10) 
108.20031258055532

>  <Genealogy>  (10) 
COc1ncc(-c2ccc(Cl)c(C)c2)cc1N1CCOc2cc(S(=O)(=O)N=c3cc(C)[n-]o3)ccc21 (protonated)
COc1ncc(-c2ccc(Cl)c(C)c2)cc1N1CCOc2cc(S(=O)(=O)N=c3cc(C)[n-]o3)ccc21 (3D coordinates assigned)
COc1ncc(-c2ccc(Cl)c(C)c2)cc1N1CCOc2cc(S(=O)(=O)N=c3cc(C)[n-]o3)ccc21 (nonaromatic ring conformer: 108.20031258055532 kcal/mol)

>  <smiles>  (10) 
COc1ncc(-c2ccc(Cl)c(C)c2)cc1N1CCOc2cc(S(=O)(=O)N=c3cc(C)[nH]o3)ccc21

>  <score_type>  (10) 
oracle

>  <origin>  (10) 
adgpu

>  <m_score__min__energy>  (10) 
-12.65

>  <m_primary>  (10) 
energy

$$$$
10:0
     RDKit          3D

 74 78  0  0  0  0  0  0  0  0999 V2000
   -4.0350   20.5250  -31.9700 O   0  0  0  0  0  0  0  0  0  0  0  0
   -3.0480   21.2780  -31.7500 C   0  0  0  0  0  0  0  0  0  0  0  0
   -1.6680   20.7650  -32.0170 C   0  0  0  0  0  0  0  0  0  0  0  0
   -0.6870   21.6950  -31.4700 N   0  0  0  0  0  0  0  0  0  0  0  0
   -0.6550   22.0870  -30.0940 C   0  0  0  0  0  0  0  0  0  0  0  0
   -0.5150   23.3020  -29.8010 O   0  0  0  0  0  0  0  0  0  0  0  0
   -0.7870   21.0930  -29.0160 C   0  0  0  0  0  0  0  0  0  0  0  0
   -0.0980   19.8780  -29.1230 C   0  0  0  0  0  0  0  0  0  0  0  0
   -0.1590   18.9340  -28.0890 C   0  0  0  0  0  0  0  0  0  0  0  0
    0.6840   17.3920  -28.2420 S   0  0  0  0  0  0  0  0  0  0  0  0
    2.1660   17.6250  -28.1200 O   0  0  0  0  0  0  0  0  0  0  0  0
    0.2640   16.4850  -27.1180 O   0  0  0  0  0  0  0  0  0  0  0  0
    0.3450   16.6120  -29.7730 N   0  0  0  0  0  0  0  0  0  0  0  0
    1.0600   15.3370  -29.8880 C   0  0  0  0  0  0  0  0  0  0  0  0
    2.3260   15.5700  -30.6970 C   0  0  0  0  0  0  0  0  0  0  0  0
    2.1440   16.9150  -31.3710 C   0  0  0  0  0  0  0  0  0  0  0  0
    0.7940   17.4360  -30.8990 C   0  0  0  0  0  0  0  0  0  0  0  0
   -0.9010   19.2190  -26.9360 C   0  0  0  0  0  0  0  0  0  0  0  0
   -1.5980   20.4230  -26.8270 C   0  0  0  0  0  0  0  0  0  0  0  0
   -1.5550   21.3660  -27.8640 C   0  0  0  0  0  0  0  0  0  0  0  0
   -2.3320   22.5690  -27.7630 N   0  0  0  0  0  0  0  0  0  0  0  0
   -3.7790   22.5630  -27.8570 C   0  0  0  0  0  0  0  0  0  0  0  0
   -4.2160   23.9800  -27.5130 C   0  0  0  0  0  0  0  0  0  0  0  0
   -3.0300   24.6140  -26.7900 C   0  0  0  0  0  0  0  0  0  0  0  0
   -1.8110   23.8100  -27.2160 C   0  0  0  0  0  0  0  0  0  0  0  0
   -3.2380   22.6080  -31.2460 N   0  0  0  0  0  0  0  0  0  0  0  0
   -4.5310   23.2050  -31.0540 C   0  0  0  0  0  0  0  0  0  0  0  0
   -5.7060   22.4690  -31.2930 C   0  0  0  0  0  0  0  0  0  0  0  0
   -6.9640   23.0600  -31.1150 C   0  0  0  0  0  0  0  0  0  0  0  0
   -8.4230   22.1230  -31.4260 S   0  0  0  0  0  0  0  0  0  0  0  0
   -8.9860   21.6580  -30.1110 O   0  0  0  0  0  0  0  0  0  0  0  0
   -9.4530   22.9810  -32.1110 O   0  0  0  0  0  0  0  0  0  0  0  0
   -8.0350   20.7380  -32.4220 N   0  0  0  0  0  0  0  0  0  0  0  0
   -9.2530   19.9910  -32.7820 C   0  0  0  0  0  0  0  0  0  0  0  0
   -9.0670   18.5440  -32.3510 C   0  0  0  0  0  0  0  0  0  0  0  0
   -7.9800   18.5980  -31.3080 C   0  0  0  0  0  0  0  0  0  0  0  0
   -7.1560   19.8070  -31.7000 C   0  0  0  0  0  0  0  0  0  0  0  0
   -7.0500   24.4010  -30.7160 C   0  0  0  0  0  0  0  0  0  0  0  0
   -5.8880   25.1440  -30.5000 C   0  0  0  0  0  0  0  0  0  0  0  0
   -4.6320   24.5540  -30.6730 C   0  0  0  0  0  0  0  0  0  0  0  0
   -3.4870   25.3110  -30.4520 O   0  0  0  0  0  0  0  0  0  0  0  0
   -1.5447   19.7809  -31.5413 H   0  0  0  0  0  0  0  0  0  0  0  0
   -1.5167   20.6704  -33.1024 H   0  0  0  0  0  0  0  0  0  0  0  0
    0.4948   19.6635  -30.0245 H   0  0  0  0  0  0  0  0  0  0  0  0
    1.3220   14.9660  -28.8862 H   0  0  0  0  0  0  0  0  0  0  0  0
    0.4244   14.5900  -30.3861 H   0  0  0  0  0  0  0  0  0  0  0  0
    3.2050   15.5887  -30.0359 H   0  0  0  0  0  0  0  0  0  0  0  0
    2.4901   14.7680  -31.4318 H   0  0  0  0  0  0  0  0  0  0  0  0
    2.9467   17.6051  -31.0720 H   0  0  0  0  0  0  0  0  0  0  0  0
    2.1836   16.8274  -32.4668 H   0  0  0  0  0  0  0  0  0  0  0  0
    0.8926   18.4830  -30.5764 H   0  0  0  0  0  0  0  0  0  0  0  0
    0.0626   17.3843  -31.7190 H   0  0  0  0  0  0  0  0  0  0  0  0
   -0.9345   18.4905  -26.1125 H   0  0  0  0  0  0  0  0  0  0  0  0
   -2.1854   20.6339  -25.9212 H   0  0  0  0  0  0  0  0  0  0  0  0
   -4.0967   22.2998  -28.8767 H   0  0  0  0  0  0  0  0  0  0  0  0
   -4.2284   21.8221  -27.1795 H   0  0  0  0  0  0  0  0  0  0  0  0
   -4.4517   24.5417  -28.4289 H   0  0  0  0  0  0  0  0  0  0  0  0
   -5.1219   23.9853  -26.8891 H   0  0  0  0  0  0  0  0  0  0  0  0
   -2.9179   25.6671  -27.0873 H   0  0  0  0  0  0  0  0  0  0  0  0
   -3.1649   24.5995  -25.6984 H   0  0  0  0  0  0  0  0  0  0  0  0
   -1.2390   24.3562  -27.9805 H   0  0  0  0  0  0  0  0  0  0  0  0
   -1.1289   23.6279  -26.3724 H   0  0  0  0  0  0  0  0  0  0  0  0
   -2.4010   23.1290  -30.8990 H   0  0  0  0  0  0  0  0  0  0  0  0
   -5.6366   21.4217  -31.6221 H   0  0  0  0  0  0  0  0  0  0  0  0
  -10.1222   20.4247  -32.2658 H   0  0  0  0  0  0  0  0  0  0  0  0
   -9.4257   20.0454  -33.8670 H   0  0  0  0  0  0  0  0  0  0  0  0
   -9.9975   18.1432  -31.9226 H   0  0  0  0  0  0  0  0  0  0  0  0
   -8.8062   17.8867  -33.1935 H   0  0  0  0  0  0  0  0  0  0  0  0
   -8.4084   18.7260  -30.3030 H   0  0  0  0  0  0  0  0  0  0  0  0
   -7.3843   17.6741  -31.2690 H   0  0  0  0  0  0  0  0  0  0  0  0
   -6.7551   20.2942  -30.7989 H   0  0  0  0  0  0  0  0  0  0  0  0
   -6.3117   19.5050  -32.3372 H   0  0  0  0  0  0  0  0  0  0  0  0
   -8.0352   24.8689  -30.5728 H   0  0  0  0  0  0  0  0  0  0  0  0
   -5.9607   26.1976  -30.1925 H   0  0  0  0  0  0  0  0  0  0  0  0
  1  2  2  0
  2  3  1  0
  3  4  1  0
  4  5  1  0
  5  6  2  0
  5  7  1  0
  7  8  2  0
  8  9  1  0
  9 10  1  0
 10 11  2  0
 10 12  2  0
 10 13  1  0
 13 14  1  0
 14 15  1  0
 15 16  1  0
 16 17  1  0
  9 18  2  0
 18 19  1  0
 19 20  2  0
 20 21  1  0
 21 22  1  0
 22 23  1  0
 23 24  1  0
 24 25  1  0
  2 26  1  0
 26 27  1  0
 27 28  2  0
 28 29  1  0
 29 30  1  0
 30 31  2  0
 30 32  2  0
 30 33  1  0
 33 34  1  0
 34 35  1  0
 35 36  1  0
 36 37  1  0
 29 38  2  0
 38 39  1  0
 39 40  2  0
 40 41  1  0
 20  7  1  0
 25 21  1  0
 40 27  1  0
 17 13  1  0
 37 33  1  0
  3 42  1  0
  3 43  1  0
  8 44  1  0
 14 45  1  0
 14 46  1  0
 15 47  1  0
 15 48  1  0
 16 49  1  0
 16 50  1  0
 17 51  1  0
 17 52  1  0
 18 53  1  0
 19 54  1  0
 22 55  1  0
 22 56  1  0
 23 57  1  0
 23 58  1  0
 24 59  1  0
 24 60  1  0
 25 61  1  0
 25 62  1  0
 26 63  1  0
 28 64  1  0
 34 65  1  0
 34 66  1  0
 35 67  1  0
 35 68  1  0
 36 69  1  0
 36 70  1  0
 37 71  1  0
 37 72  1  0
 38 73  1  0
 39 74  1  0
M  CHG  2   4  -1  41  -1
M  END
>  <UniqueID>  (11) 
11

>  <SMILES>  (11) 
O=C(C[N-]C(=O)c1cc(S(=O)(=O)N2CCCC2)ccc1N1CCCC1)Nc1cc(S(=O)(=O)N2CCCC2)ccc1[O-]

>  <Energy>  (11) 
90.22126790187839

>  <Genealogy>  (11) 
O=C(C[N-]C(=O)c1cc(S(=O)(=O)N2CCCC2)ccc1N1CCCC1)Nc1cc(S(=O)(=O)N2CCCC2)ccc1[O-] (protonated)
O=C(C[N-]C(=O)c1cc(S(=O)(=O)N2CCCC2)ccc1N1CCCC1)Nc1cc(S(=O)(=O)N2CCCC2)ccc1[O-] (3D coordinates assigned)
O=C(C[N-]C(=O)c1cc(S(=O)(=O)N2CCCC2)ccc1N1CCCC1)Nc1cc(S(=O)(=O)N2CCCC2)ccc1[O-] (nonaromatic ring conformer: 90.22126790187839 kcal/mol)

>  <smiles>  (11) 
O=C(CNC(=O)c1cc(S(=O)(=O)N2CCCC2)ccc1N1CCCC1)Nc1cc(S(=O)(=O)N2CCCC2)ccc1O

>  <score_type>  (11) 
oracle

>  <origin>  (11) 
adgpu

>  <m_score__min__energy>  (11) 
-15.73

>  <m_primary>  (11) 
energy

$$$$
11:0
     RDKit          3D

 42 44  0  0  0  0  0  0  0  0999 V2000
   -2.3600   21.7920  -31.7080 C   0  0  0  0  0  0  0  0  0  0  0  0
   -2.0260   21.0870  -32.9870 C   0  0  0  0  0  0  0  0  0  0  0  0
   -1.0420   21.5000  -33.6590 O   0  0  0  0  0  0  0  0  0  0  0  0
   -2.8170   19.9230  -33.4740 C   0  0  0  0  0  0  0  0  0  0  0  0
   -2.1860   18.7610  -33.9570 C   0  0  0  0  0  0  0  0  0  0  0  0
   -2.9430   17.6830  -34.4150 C   0  0  0  0  0  0  0  0  0  0  0  0
   -4.3360   17.7440  -34.4060 C   0  0  0  0  0  0  0  0  0  0  0  0
   -4.9920   18.8970  -33.9370 C   0  0  0  0  0  0  0  0  0  0  0  0
   -6.4270   18.9990  -33.9250 N   0  0  0  0  0  0  0  0  0  0  0  0
   -7.3640   19.2610  -32.4880 S   0  0  0  0  0  0  0  0  0  0  0  0
   -6.7230   18.5360  -31.3370 O   0  0  0  0  0  0  0  0  0  0  0  0
   -8.7500   18.7170  -32.6980 O   0  0  0  0  0  0  0  0  0  0  0  0
   -7.4190   20.9810  -32.1130 C   0  0  0  0  0  0  0  0  0  0  0  0
   -8.6480   21.6290  -31.9290 C   0  0  0  0  0  0  0  0  0  0  0  0
   -8.6810   22.9960  -31.6390 C   0  0  0  0  0  0  0  0  0  0  0  0
   -7.4910   23.7220  -31.5380 C   0  0  0  0  0  0  0  0  0  0  0  0
   -6.2530   23.0850  -31.7380 C   0  0  0  0  0  0  0  0  0  0  0  0
   -5.0080   23.7870  -31.6170 N   0  0  0  0  0  0  0  0  0  0  0  0
   -4.5770   24.5760  -30.4990 C   0  0  0  0  0  0  0  0  0  0  0  0
   -3.8760   25.6060  -30.6790 O   0  0  0  0  0  0  0  0  0  0  0  0
   -4.9150   24.1730  -29.0890 C   0  0  0  0  0  0  0  0  0  0  0  0
   -3.7620   24.1420  -28.0940 C   0  0  0  0  0  0  0  0  0  0  0  0
   -4.3270   22.8410  -28.6460 C   0  0  0  0  0  0  0  0  0  0  0  0
   -6.2260   21.7100  -32.0030 C   0  0  0  0  0  0  0  0  0  0  0  0
   -4.2240   19.9730  -33.4650 C   0  0  0  0  0  0  0  0  0  0  0  0
   -2.0627   21.1644  -30.8549 H   0  0  0  0  0  0  0  0  0  0  0  0
   -1.8196   22.7492  -31.6650 H   0  0  0  0  0  0  0  0  0  0  0  0
   -3.4429   21.9801  -31.6650 H   0  0  0  0  0  0  0  0  0  0  0  0
   -1.0877   18.7029  -33.9733 H   0  0  0  0  0  0  0  0  0  0  0  0
   -2.4380   16.7788  -34.7857 H   0  0  0  0  0  0  0  0  0  0  0  0
   -4.9243   16.8875  -34.7669 H   0  0  0  0  0  0  0  0  0  0  0  0
   -6.9570   18.8060  -34.8040 H   0  0  0  0  0  0  0  0  0  0  0  0
   -9.5867   21.0618  -32.0128 H   0  0  0  0  0  0  0  0  0  0  0  0
   -9.6463   23.5018  -31.4898 H   0  0  0  0  0  0  0  0  0  0  0  0
   -7.5227   24.7957  -31.3012 H   0  0  0  0  0  0  0  0  0  0  0  0
   -5.9147   24.6318  -29.0944 H   0  0  0  0  0  0  0  0  0  0  0  0
   -2.7615   24.4811  -28.4006 H   0  0  0  0  0  0  0  0  0  0  0  0
   -3.5920   24.5512  -27.0872 H   0  0  0  0  0  0  0  0  0  0  0  0
   -3.7346   22.2397  -29.3513 H   0  0  0  0  0  0  0  0  0  0  0  0
   -4.7343   21.9203  -28.2028 H   0  0  0  0  0  0  0  0  0  0  0  0
   -5.2606   21.1974  -32.1259 H   0  0  0  0  0  0  0  0  0  0  0  0
   -4.7303   20.8710  -33.0814 H   0  0  0  0  0  0  0  0  0  0  0  0
  1  2  1  0
  2  3  2  0
  2  4  1  0
  4  5  2  0
  5  6  1  0
  6  7  2  0
  7  8  1  0
  8  9  1  0
  9 10  1  0
 10 11  2  0
 10 12  2  0
 10 13  1  0
 13 14  2  0
 14 15  1  0
 15 16  2  0
 16 17  1  0
 17 18  1  0
 18 19  1  0
 19 20  2  0
 19 21  1  0
 21 22  1  0
 22 23  1  0
 17 24  2  0
  8 25  2  0
 25  4  1  0
 24 13  1  0
 23 21  1  0
  1 26  1  0
  1 27  1  0
  1 28  1  0
  5 29  1  0
  6 30  1  0
  7 31  1  0
  9 32  1  0
 14 33  1  0
 15 34  1  0
 16 35  1  0
 21 36  1  0
 22 37  1  0
 22 38  1  0
 23 39  1  0
 23 40  1  0
 24 41  1  0
 25 42  1  0
M  CHG  1  18  -1
M  END
>  <UniqueID>  (12) 
12

>  <SMILES>  (12) 
CC(=O)c1cccc(NS(=O)(=O)c2cccc([N-]C(=O)C3CC3)c2)c1

>  <Energy>  (12) 
313.9780737330899

>  <Genealogy>  (12) 
CC(=O)c1cccc(NS(=O)(=O)c2cccc([N-]C(=O)C3CC3)c2)c1 (protonated)
CC(=O)c1cccc(NS(=O)(=O)c2cccc([N-]C(=O)C3CC3)c2)c1 (3D coordinates assigned)
CC(=O)c1cccc(NS(=O)(=O)c2cccc([N-]C(=O)C3CC3)c2)c1 (nonaromatic ring conformer: 313.9780737330899 kcal/mol)

>  <smiles>  (12) 
CC(=O)c1cccc(NS(=O)(=O)c2cccc(NC(=O)C3CC3)c2)c1

>  <score_type>  (12) 
oracle

>  <origin>  (12) 
adgpu

>  <m_score__min__energy>  (12) 
-11.210000000000001

>  <m_primary>  (12) 
energy

$$$$
12:0
     RDKit          3D

 50 53  0  0  0  0  0  0  0  0999 V2000
   -5.6670   19.5230  -34.0390 C   0  0  0  0  0  0  0  0  0  0  0  0
   -6.0660   19.1180  -32.6780 N   0  0  0  0  0  0  0  0  0  0  0  0
   -7.5290   18.9780  -32.5360 C   0  0  0  0  0  0  0  0  0  0  0  0
   -8.2760   20.3170  -32.6760 C   0  0  0  0  0  0  0  0  0  0  0  0
   -7.5550   21.4650  -32.0170 C   0  0  0  0  0  0  0  0  0  0  0  0
   -8.1950   22.7110  -31.9240 C   0  0  0  0  0  0  0  0  0  0  0  0
   -7.5270   23.8130  -31.3830 C   0  0  0  0  0  0  0  0  0  0  0  0
   -6.2170   23.6840  -30.9150 C   0  0  0  0  0  0  0  0  0  0  0  0
   -5.3520   25.0970  -30.3140 S   0  0  0  0  0  0  0  0  0  0  0  0
   -5.7010   25.3620  -28.8730 O   0  0  0  0  0  0  0  0  0  0  0  0
   -5.7530   26.2990  -31.1270 O   0  0  0  0  0  0  0  0  0  0  0  0
   -3.6430   24.8450  -30.4830 N   0  0  0  0  0  0  0  0  0  0  0  0
   -2.8370   24.0630  -29.5880 C   0  0  0  0  0  0  0  0  0  0  0  0
   -3.0160   22.6730  -29.4600 C   0  0  0  0  0  0  0  0  0  0  0  0
   -2.1580   21.9110  -28.6560 C   0  0  0  0  0  0  0  0  0  0  0  0
   -1.1520   22.5520  -27.9040 C   0  0  0  0  0  0  0  0  0  0  0  0
   -0.9860   23.9430  -28.0180 C   0  0  0  0  0  0  0  0  0  0  0  0
   -1.8220   24.6940  -28.8530 C   0  0  0  0  0  0  0  0  0  0  0  0
   -1.6200   26.0660  -28.9700 O   0  0  0  0  0  0  0  0  0  0  0  0
   -0.1760   21.7570  -27.0640 C   0  0  0  0  0  0  0  0  0  0  0  0
   -0.6500   20.3910  -26.7490 N   0  0  0  0  0  0  0  0  0  0  0  0
   -1.6130   20.3890  -25.6320 C   0  0  0  0  0  0  0  0  0  0  0  0
   -1.1710   19.7060  -27.9480 C   0  0  0  0  0  0  0  0  0  0  0  0
   -2.3870   20.4260  -28.5460 C   0  0  0  0  0  0  0  0  0  0  0  0
   -5.5810   22.4370  -30.9850 C   0  0  0  0  0  0  0  0  0  0  0  0
   -6.2260   21.3370  -31.5700 C   0  0  0  0  0  0  0  0  0  0  0  0
   -5.5100   20.0090  -31.6410 C   0  0  0  0  0  0  0  0  0  0  0  0
   -4.8962   20.3054  -33.9776 H   0  0  0  0  0  0  0  0  0  0  0  0
   -5.2638   18.6525  -34.5772 H   0  0  0  0  0  0  0  0  0  0  0  0
   -6.5434   19.9132  -34.5772 H   0  0  0  0  0  0  0  0  0  0  0  0
   -7.8928   18.2903  -33.3136 H   0  0  0  0  0  0  0  0  0  0  0  0
   -7.7270   18.5941  -31.5244 H   0  0  0  0  0  0  0  0  0  0  0  0
   -8.3917   20.5437  -33.7462 H   0  0  0  0  0  0  0  0  0  0  0  0
   -9.2477   20.2060  -32.1725 H   0  0  0  0  0  0  0  0  0  0  0  0
   -9.2301   22.8208  -32.2796 H   0  0  0  0  0  0  0  0  0  0  0  0
   -8.0353   24.7868  -31.3254 H   0  0  0  0  0  0  0  0  0  0  0  0
   -3.8390   22.1791  -29.9973 H   0  0  0  0  0  0  0  0  0  0  0  0
   -0.1923   24.4460  -27.4462 H   0  0  0  0  0  0  0  0  0  0  0  0
    0.7738   21.6787  -27.6132 H   0  0  0  0  0  0  0  0  0  0  0  0
   -0.0605   22.2895  -26.1084 H   0  0  0  0  0  0  0  0  0  0  0  0
   -1.0669   20.3901  -24.6771 H   0  0  0  0  0  0  0  0  0  0  0  0
   -2.2470   21.2858  -25.6929 H   0  0  0  0  0  0  0  0  0  0  0  0
   -2.2433   19.4895  -25.6929 H   0  0  0  0  0  0  0  0  0  0  0  0
   -0.3753   19.6655  -28.7064 H   0  0  0  0  0  0  0  0  0  0  0  0
   -1.4905   18.6971  -27.6478 H   0  0  0  0  0  0  0  0  0  0  0  0
   -2.5833   20.0205  -29.5495 H   0  0  0  0  0  0  0  0  0  0  0  0
   -3.2455   20.2604  -27.8785 H   0  0  0  0  0  0  0  0  0  0  0  0
   -4.5661   22.3196  -30.5772 H   0  0  0  0  0  0  0  0  0  0  0  0
   -4.4491   20.1926  -31.8664 H   0  0  0  0  0  0  0  0  0  0  0  0
   -5.6384   19.5094  -30.6694 H   0  0  0  0  0  0  0  0  0  0  0  0
  1  2  1  0
  2  3  1  0
  3  4  1  0
  4  5  1  0
  5  6  2  0
  6  7  1  0
  7  8  2  0
  8  9  1  0
  9 10  2  0
  9 11  2  0
  9 12  1  0
 12 13  1  0
 13 14  2  0
 14 15  1  0
 15 16  2  0
 16 17  1  0
 17 18  2  0
 18 19  1  0
 16 20  1  0
 20 21  1  0
 21 22  1  0
 21 23  1  0
 23 24  1  0
  8 25  1  0
 25 26  2  0
 26 27  1  0
 27  2  1  0
 26  5  1  0
 18 13  1  0
 24 15  1  0
  1 28  1  0
  1 29  1  0
  1 30  1  0
  3 31  1  0
  3 32  1  0
  4 33  1  0
  4 34  1  0
  6 35  1  0
  7 36  1  0
 14 37  1  0
 17 38  1  0
 20 39  1  0
 20 40  1  0
 22 41  1  0
 22 42  1  0
 22 43  1  0
 23 44  1  0
 23 45  1  0
 24 46  1  0
 24 47  1  0
 25 48  1  0
 27 49  1  0
 27 50  1  0
M  CHG  2  12  -1  19  -1
M  END
>  <UniqueID>  (13) 
13

>  <SMILES>  (13) 
CN1CCc2ccc(S(=O)(=O)[N-]c3cc4c(cc3[O-])CN(C)CC4)cc2C1

>  <Energy>  (13) 
66.89368879604386

>  <Genealogy>  (13) 
CN1CCc2ccc(S(=O)(=O)[N-]c3cc4c(cc3[O-])CN(C)CC4)cc2C1 (protonated)
CN1CCc2ccc(S(=O)(=O)[N-]c3cc4c(cc3[O-])CN(C)CC4)cc2C1 (3D coordinates assigned)
CN1CCc2ccc(S(=O)(=O)[N-]c3cc4c(cc3[O-])CN(C)CC4)cc2C1 (nonaromatic ring conformer: 66.89368879604386 kcal/mol)

>  <smiles>  (13) 
CN1CCc2ccc(S(=O)(=O)Nc3cc4c(cc3O)CN(C)CC4)cc2C1

>  <score_type>  (13) 
oracle

>  <origin>  (13) 
adgpu

>  <m_score__min__energy>  (13) 
-14.25

>  <m_primary>  (13) 
energy

$$$$
13:0
     RDKit          3D

 38 40  0  0  0  0  0  0  0  0999 V2000
   -0.4990   22.3580  -25.1730 C   0  0  0  0  0  0  0  0  0  0  0  0
   -0.7670   21.9020  -26.4950 O   0  0  0  0  0  0  0  0  0  0  0  0
   -1.4130   22.6620  -27.4840 C   0  0  0  0  0  0  0  0  0  0  0  0
   -1.1200   24.0240  -27.6930 C   0  0  0  0  0  0  0  0  0  0  0  0
   -1.7900   24.7560  -28.6930 C   0  0  0  0  0  0  0  0  0  0  0  0
   -1.5220   26.1130  -28.9300 O   0  0  0  0  0  0  0  0  0  0  0  0
   -0.8530   26.9770  -28.0170 C   0  0  0  0  0  0  0  0  0  0  0  0
   -2.7630   24.1160  -29.4760 C   0  0  0  0  0  0  0  0  0  0  0  0
   -3.4870   24.8470  -30.4650 N   0  0  0  0  0  0  0  0  0  0  0  0
   -5.2170   24.8210  -30.4920 S   0  0  0  0  0  0  0  0  0  0  0  0
   -5.7300   26.0500  -31.1890 O   0  0  0  0  0  0  0  0  0  0  0  0
   -5.7330   24.8170  -29.0810 O   0  0  0  0  0  0  0  0  0  0  0  0
   -5.7780   23.3770  -31.3280 C   0  0  0  0  0  0  0  0  0  0  0  0
   -4.8620   22.5970  -32.0710 C   0  0  0  0  0  0  0  0  0  0  0  0
   -5.2710   21.3970  -32.6770 C   0  0  0  0  0  0  0  0  0  0  0  0
   -6.5980   21.0060  -32.5230 C   0  0  0  0  0  0  0  0  0  0  0  0
   -7.5010   21.7630  -31.8000 C   0  0  0  0  0  0  0  0  0  0  0  0
   -7.1160   22.9540  -31.1890 C   0  0  0  0  0  0  0  0  0  0  0  0
   -8.7930   21.1580  -31.7440 N   0  0  0  0  0  0  0  0  0  0  0  0
   -8.6560   19.9490  -32.4890 C   0  0  0  0  0  0  0  0  0  0  0  0
   -9.5890   19.1230  -32.6700 O   0  0  0  0  0  0  0  0  0  0  0  0
   -7.2950   19.8210  -32.9930 C   0  0  0  0  0  0  0  0  0  0  0  0
   -6.8230   18.8790  -33.6810 O   0  0  0  0  0  0  0  0  0  0  0  0
   -3.0500   22.7640  -29.2750 C   0  0  0  0  0  0  0  0  0  0  0  0
   -2.3810   22.0380  -28.2850 C   0  0  0  0  0  0  0  0  0  0  0  0
   -2.7740   20.3420  -28.0510 Cl  0  0  0  0  0  0  0  0  0  0  0  0
   -0.9179   21.6453  -24.4473 H   0  0  0  0  0  0  0  0  0  0  0  0
    0.5883   22.4354  -25.0252 H   0  0  0  0  0  0  0  0  0  0  0  0
   -0.9604   23.3456  -25.0252 H   0  0  0  0  0  0  0  0  0  0  0  0
   -0.3614   24.5203  -27.0699 H   0  0  0  0  0  0  0  0  0  0  0  0
   -1.0878   26.6737  -26.9860 H   0  0  0  0  0  0  0  0  0  0  0  0
    0.2330   26.9125  -28.1798 H   0  0  0  0  0  0  0  0  0  0  0  0
   -1.1873   28.0122  -28.1798 H   0  0  0  0  0  0  0  0  0  0  0  0
   -3.8197   22.9327  -32.1756 H   0  0  0  0  0  0  0  0  0  0  0  0
   -4.5636   20.7849  -33.2558 H   0  0  0  0  0  0  0  0  0  0  0  0
   -7.8382   23.5502  -30.6120 H   0  0  0  0  0  0  0  0  0  0  0  0
   -9.6430   21.5100  -31.2520 H   0  0  0  0  0  0  0  0  0  0  0  0
   -3.8071   22.2673  -29.8995 H   0  0  0  0  0  0  0  0  0  0  0  0
  1  2  1  0
  2  3  1  0
  3  4  2  0
  4  5  1  0
  5  6  1  0
  6  7  1  0
  5  8  2  0
  8  9  1  0
  9 10  1  0
 10 11  2  0
 10 12  2  0
 10 13  1  0
 13 14  2  0
 14 15  1  0
 15 16  2  0
 16 17  1  0
 17 18  2  0
 17 19  1  0
 19 20  1  0
 20 21  2  0
 20 22  1  0
 22 23  2  0
  8 24  1  0
 24 25  2  0
 25 26  1  0
 25  3  1  0
 18 13  1  0
 22 16  1  0
  1 27  1  0
  1 28  1  0
  1 29  1  0
  4 30  1  0
  7 31  1  0
  7 32  1  0
  7 33  1  0
 14 34  1  0
 15 35  1  0
 18 36  1  0
 19 37  1  0
 24 38  1  0
M  CHG  1   9  -1
M  END
>  <UniqueID>  (14) 
14

>  <SMILES>  (14) 
COc1cc(OC)c([N-]S(=O)(=O)c2ccc3c(c2)NC(=O)C3=O)cc1Cl

>  <Energy>  (14) 
78.60635478313839

>  <Genealogy>  (14) 
COc1cc(OC)c([N-]S(=O)(=O)c2ccc3c(c2)NC(=O)C3=O)cc1Cl (protonated)
COc1cc(OC)c([N-]S(=O)(=O)c2ccc3c(c2)NC(=O)C3=O)cc1Cl (3D coordinates assigned)
COc1cc(OC)c([N-]S(=O)(=O)c2ccc3c(c2)NC(=O)C3=O)cc1Cl (nonaromatic ring conformer: 78.60635478313839 kcal/mol)

>  <smiles>  (14) 
COc1cc(OC)c(NS(=O)(=O)c2ccc3c(c2)NC(=O)C3=O)cc1Cl

>  <score_type>  (14) 
oracle

>  <origin>  (14) 
adgpu

>  <m_score__min__energy>  (14) 
-10.539999999999999

>  <m_primary>  (14) 
energy

$$$$
14:0
     RDKit          3D

 63 67  0  0  0  0  0  0  0  0999 V2000
   -0.5200   25.0940  -28.6470 O   0  0  0  0  0  0  0  0  0  0  0  0
   -1.6440   24.5390  -28.7690 C   0  0  0  0  0  0  0  0  0  0  0  0
   -2.7300   25.2930  -29.3260 N   0  0  0  0  0  0  0  0  0  0  0  0
   -3.7770   24.7500  -30.1390 C   0  0  0  0  0  0  0  0  0  0  0  0
   -5.0410   25.3610  -30.2040 C   0  0  0  0  0  0  0  0  0  0  0  0
   -6.0620   24.7850  -30.9650 C   0  0  0  0  0  0  0  0  0  0  0  0
   -5.8320   23.5930  -31.6570 C   0  0  0  0  0  0  0  0  0  0  0  0
   -4.5690   22.9890  -31.6170 C   0  0  0  0  0  0  0  0  0  0  0  0
   -4.3160   21.4450  -32.4190 S   0  0  0  0  0  0  0  0  0  0  0  0
   -3.2470   20.6500  -31.7230 O   0  0  0  0  0  0  0  0  0  0  0  0
   -3.8730   21.6870  -33.8350 O   0  0  0  0  0  0  0  0  0  0  0  0
   -5.8070   20.5600  -32.4250 N   0  0  0  0  0  0  0  0  0  0  0  0
   -6.9380   20.8940  -31.5640 C   0  0  0  0  0  0  0  0  0  0  0  0
   -7.9250   19.7080  -31.6760 C   0  0  0  0  0  0  0  0  0  0  0  0
   -7.1980   18.7350  -32.5380 C   0  0  0  0  0  0  0  0  0  0  0  0
   -7.5970   17.4520  -32.9160 C   0  0  0  0  0  0  0  0  0  0  0  0
   -6.7380   16.6950  -33.7290 C   0  0  0  0  0  0  0  0  0  0  0  0
   -5.5000   17.2260  -34.1390 C   0  0  0  0  0  0  0  0  0  0  0  0
   -5.1190   18.5190  -33.7450 C   0  0  0  0  0  0  0  0  0  0  0  0
   -5.9970   19.2550  -32.9410 C   0  0  0  0  0  0  0  0  0  0  0  0
   -3.5380   23.5820  -30.8720 C   0  0  0  0  0  0  0  0  0  0  0  0
   -1.7870   23.1010  -28.4380 C   0  0  0  0  0  0  0  0  0  0  0  0
   -0.7140   22.2360  -28.7100 C   0  0  0  0  0  0  0  0  0  0  0  0
   -0.7890   20.8760  -28.3900 C   0  0  0  0  0  0  0  0  0  0  0  0
    0.5680   19.8090  -28.7540 S   0  0  0  0  0  0  0  0  0  0  0  0
    0.2170   18.4080  -28.3390 O   0  0  0  0  0  0  0  0  0  0  0  0
    1.7630   20.2390  -27.9470 O   0  0  0  0  0  0  0  0  0  0  0  0
    0.9840   19.8240  -30.4540 N   0  0  0  0  0  0  0  0  0  0  0  0
    0.0700   20.6640  -31.2680 C   0  0  0  0  0  0  0  0  0  0  0  0
   -0.5240   19.9380  -32.4800 C   0  0  0  0  0  0  0  0  0  0  0  0
   -1.0560   18.5760  -32.0560 C   0  0  0  0  0  0  0  0  0  0  0  0
    0.0570   17.6930  -31.4760 C   0  0  0  0  0  0  0  0  0  0  0  0
    1.2900   18.4790  -30.9850 C   0  0  0  0  0  0  0  0  0  0  0  0
   -1.9480   20.3700  -27.7960 C   0  0  0  0  0  0  0  0  0  0  0  0
   -3.0210   21.2180  -27.5170 C   0  0  0  0  0  0  0  0  0  0  0  0
   -2.9600   22.5770  -27.8440 C   0  0  0  0  0  0  0  0  0  0  0  0
   -4.0860   23.3640  -27.5950 O   0  0  0  0  0  0  0  0  0  0  0  0
   -5.2273   26.2954  -29.6543 H   0  0  0  0  0  0  0  0  0  0  0  0
   -7.0476   25.2705  -31.0193 H   0  0  0  0  0  0  0  0  0  0  0  0
   -6.6447   23.1280  -32.2344 H   0  0  0  0  0  0  0  0  0  0  0  0
   -6.6031   21.0154  -30.5233 H   0  0  0  0  0  0  0  0  0  0  0  0
   -7.4095   21.8403  -31.8677 H   0  0  0  0  0  0  0  0  0  0  0  0
   -8.1359   19.2764  -30.6864 H   0  0  0  0  0  0  0  0  0  0  0  0
   -8.9025   19.9999  -32.0874 H   0  0  0  0  0  0  0  0  0  0  0  0
   -8.5628   17.0430  -32.5844 H   0  0  0  0  0  0  0  0  0  0  0  0
   -7.0332   15.6840  -34.0466 H   0  0  0  0  0  0  0  0  0  0  0  0
   -4.8286   16.6256  -34.7705 H   0  0  0  0  0  0  0  0  0  0  0  0
   -4.1542   18.9429  -34.0605 H   0  0  0  0  0  0  0  0  0  0  0  0
   -2.5368   23.1264  -30.8642 H   0  0  0  0  0  0  0  0  0  0  0  0
    0.1973   22.6332  -29.1809 H   0  0  0  0  0  0  0  0  0  0  0  0
   -0.7572   20.9994  -30.6252 H   0  0  0  0  0  0  0  0  0  0  0  0
    0.6672   21.5015  -31.6578 H   0  0  0  0  0  0  0  0  0  0  0  0
   -1.3464   20.5373  -32.8976 H   0  0  0  0  0  0  0  0  0  0  0  0
    0.2587   19.8013  -33.2407 H   0  0  0  0  0  0  0  0  0  0  0  0
   -1.8341   18.7184  -31.2916 H   0  0  0  0  0  0  0  0  0  0  0  0
   -1.4669   18.0742  -32.9445 H   0  0  0  0  0  0  0  0  0  0  0  0
   -0.3557   17.1304  -30.6256 H   0  0  0  0  0  0  0  0  0  0  0  0
    0.4007   17.0383  -32.2904 H   0  0  0  0  0  0  0  0  0  0  0  0
    1.7746   17.8963  -30.1878 H   0  0  0  0  0  0  0  0  0  0  0  0
    1.9378   18.6271  -31.8616 H   0  0  0  0  0  0  0  0  0  0  0  0
   -2.0150   19.3005  -27.5476 H   0  0  0  0  0  0  0  0  0  0  0  0
   -3.9235   20.8138  -27.0353 H   0  0  0  0  0  0  0  0  0  0  0  0
   -4.1750   24.3220  -27.9070 H   0  0  0  0  0  0  0  0  0  0  0  0
  1  2  2  0
  2  3  1  0
  3  4  1  0
  4  5  2  0
  5  6  1  0
  6  7  2  0
  7  8  1  0
  8  9  1  0
  9 10  2  0
  9 11  2  0
  9 12  1  0
 12 13  1  0
 13 14  1  0
 14 15  1  0
 15 16  2  0
 16 17  1  0
 17 18  2  0
 18 19  1  0
 19 20  2  0
  8 21  2  0
  2 22  1  0
 22 23  2  0
 23 24  1  0
 24 25  1  0
 25 26  2  0
 25 27  2  0
 25 28  1  0
 28 29  1  0
 29 30  1  0
 30 31  1  0
 31 32  1  0
 32 33  1  0
 24 34  2  0
 34 35  1  0
 35 36  2  0
 36 37  1  0
 21  4  1  0
 36 22  1  0
 20 12  1  0
 33 28  1  0
 20 15  1  0
  5 38  1  0
  6 39  1  0
  7 40  1  0
 13 41  1  0
 13 42  1  0
 14 43  1  0
 14 44  1  0
 16 45  1  0
 17 46  1  0
 18 47  1  0
 19 48  1  0
 21 49  1  0
 23 50  1  0
 29 51  1  0
 29 52  1  0
 30 53  1  0
 30 54  1  0
 31 55  1  0
 31 56  1  0
 32 57  1  0
 32 58  1  0
 33 59  1  0
 33 60  1  0
 34 61  1  0
 35 62  1  0
 37 63  1  0
M  CHG  1   3  -1
M  END
>  <UniqueID>  (15) 
15

>  <SMILES>  (15) 
O=C([N-]c1cccc(S(=O)(=O)N2CCc3ccccc32)c1)c1cc(S(=O)(=O)N2CCCCC2)ccc1O

>  <Energy>  (15) 
96.10373645606425

>  <Genealogy>  (15) 
O=C([N-]c1cccc(S(=O)(=O)N2CCc3ccccc32)c1)c1cc(S(=O)(=O)N2CCCCC2)ccc1O (protonated)
O=C([N-]c1cccc(S(=O)(=O)N2CCc3ccccc32)c1)c1cc(S(=O)(=O)N2CCCCC2)ccc1O (3D coordinates assigned)
O=C([N-]c1cccc(S(=O)(=O)N2CCc3ccccc32)c1)c1cc(S(=O)(=O)N2CCCCC2)ccc1O (nonaromatic ring conformer: 96.10373645606425 kcal/mol)

>  <smiles>  (15) 
O=C(Nc1cccc(S(=O)(=O)N2CCc3ccccc32)c1)c1cc(S(=O)(=O)N2CCCCC2)ccc1O

>  <score_type>  (15) 
oracle

>  <origin>  (15) 
adgpu

>  <m_score__min__energy>  (15) 
-12.66

>  <m_primary>  (15) 
energy

$$$$
15:0
     RDKit          3D

 51 55  0  0  0  0  0  0  0  0999 V2000
   -0.7720   19.0390  -29.2160 C   0  0  0  0  0  0  0  0  0  0  0  0
   -0.7670   19.5020  -27.8160 N   0  0  0  0  0  0  0  0  0  0  0  0
    0.4480   20.2680  -27.4760 C   0  0  0  0  0  0  0  0  0  0  0  0
    0.5450   21.5910  -28.2520 C   0  0  0  0  0  0  0  0  0  0  0  0
   -0.7710   22.3220  -28.3080 C   0  0  0  0  0  0  0  0  0  0  0  0
   -0.7950   23.6530  -28.7500 C   0  0  0  0  0  0  0  0  0  0  0  0
   -2.0030   24.3470  -28.8510 C   0  0  0  0  0  0  0  0  0  0  0  0
   -1.9900   25.6720  -29.2720 O   0  0  0  0  0  0  0  0  0  0  0  0
   -3.2130   23.7160  -28.5160 C   0  0  0  0  0  0  0  0  0  0  0  0
   -4.4480   24.4520  -28.5800 N   0  0  0  0  0  0  0  0  0  0  0  0
   -5.1580   24.9660  -30.0790 S   0  0  0  0  0  0  0  0  0  0  0  0
   -4.1080   25.6480  -30.9110 O   0  0  0  0  0  0  0  0  0  0  0  0
   -6.2710   25.9360  -29.7990 O   0  0  0  0  0  0  0  0  0  0  0  0
   -5.8220   23.5720  -30.9280 C   0  0  0  0  0  0  0  0  0  0  0  0
   -4.9870   22.7120  -31.6460 C   0  0  0  0  0  0  0  0  0  0  0  0
   -5.5070   21.5710  -32.2610 C   0  0  0  0  0  0  0  0  0  0  0  0
   -6.8790   21.2560  -32.1570 C   0  0  0  0  0  0  0  0  0  0  0  0
   -7.4440   20.0920  -32.7490 C   0  0  0  0  0  0  0  0  0  0  0  0
   -6.6320   19.0340  -33.3970 C   0  0  0  0  0  0  0  0  0  0  0  0
   -6.5000   17.7870  -32.8940 N   0  0  0  0  0  0  0  0  0  0  0  0
   -5.6680   17.1850  -33.7640 C   0  0  0  0  0  0  0  0  0  0  0  0
   -5.3200   18.0790  -34.7500 C   0  0  0  0  0  0  0  0  0  0  0  0
   -5.9260   19.2100  -34.4930 O   0  0  0  0  0  0  0  0  0  0  0  0
   -8.8360   19.9020  -32.6900 C   0  0  0  0  0  0  0  0  0  0  0  0
   -9.6560   20.8080  -32.0220 C   0  0  0  0  0  0  0  0  0  0  0  0
   -9.1070   21.9260  -31.4000 C   0  0  0  0  0  0  0  0  0  0  0  0
   -7.7280   22.1640  -31.4650 C   0  0  0  0  0  0  0  0  0  0  0  0
   -7.1910   23.3050  -30.8510 C   0  0  0  0  0  0  0  0  0  0  0  0
   -3.1910   22.3710  -28.1080 C   0  0  0  0  0  0  0  0  0  0  0  0
   -1.9820   21.6690  -28.0090 C   0  0  0  0  0  0  0  0  0  0  0  0
   -1.9920   20.2530  -27.4790 C   0  0  0  0  0  0  0  0  0  0  0  0
   -0.7839   17.9393  -29.2385 H   0  0  0  0  0  0  0  0  0  0  0  0
   -1.6660   19.4259  -29.7269 H   0  0  0  0  0  0  0  0  0  0  0  0
    0.1302   19.4065  -29.7269 H   0  0  0  0  0  0  0  0  0  0  0  0
    0.4349   20.4908  -26.3989 H   0  0  0  0  0  0  0  0  0  0  0  0
    1.3184   19.6542  -27.7510 H   0  0  0  0  0  0  0  0  0  0  0  0
    1.2868   22.2363  -27.7587 H   0  0  0  0  0  0  0  0  0  0  0  0
    0.8407   21.3532  -29.2845 H   0  0  0  0  0  0  0  0  0  0  0  0
    0.1460   24.1548  -29.0195 H   0  0  0  0  0  0  0  0  0  0  0  0
   -5.0360   24.5490  -27.7220 H   0  0  0  0  0  0  0  0  0  0  0  0
   -3.9129   22.9351  -31.7274 H   0  0  0  0  0  0  0  0  0  0  0  0
   -4.8395   20.9100  -32.8332 H   0  0  0  0  0  0  0  0  0  0  0  0
   -5.3212   16.1432  -33.6972 H   0  0  0  0  0  0  0  0  0  0  0  0
   -4.6525   17.8791  -35.6012 H   0  0  0  0  0  0  0  0  0  0  0  0
   -9.2841   19.0244  -33.1789 H   0  0  0  0  0  0  0  0  0  0  0  0
  -10.7424   20.6395  -31.9857 H   0  0  0  0  0  0  0  0  0  0  0  0
   -9.7586   22.6252  -30.8554 H   0  0  0  0  0  0  0  0  0  0  0  0
   -7.8522   23.9941  -30.3052 H   0  0  0  0  0  0  0  0  0  0  0  0
   -4.1353   21.8627  -27.8632 H   0  0  0  0  0  0  0  0  0  0  0  0
   -2.0907   20.2893  -26.3840 H   0  0  0  0  0  0  0  0  0  0  0  0
   -2.8378   19.7313  -27.9507 H   0  0  0  0  0  0  0  0  0  0  0  0
  1  2  1  0
  2  3  1  0
  3  4  1  0
  4  5  1  0
  5  6  2  0
  6  7  1  0
  7  8  1  0
  7  9  2  0
  9 10  1  0
 10 11  1  0
 11 12  2  0
 11 13  2  0
 11 14  1  0
 14 15  2  0
 15 16  1  0
 16 17  2  0
 17 18  1  0
 18 19  1  0
 19 20  2  0
 20 21  1  0
 21 22  2  0
 22 23  1  0
 18 24  2  0
 24 25  1  0
 25 26  2  0
 26 27  1  0
 27 28  2  0
  9 29  1  0
 29 30  2  0
 30 31  1  0
 31  2  1  0
 30  5  1  0
 28 14  1  0
 27 17  1  0
 23 19  1  0
  1 32  1  0
  1 33  1  0
  1 34  1  0
  3 35  1  0
  3 36  1  0
  4 37  1  0
  4 38  1  0
  6 39  1  0
 10 40  1  0
 15 41  1  0
 16 42  1  0
 21 43  1  0
 22 44  1  0
 24 45  1  0
 25 46  1  0
 26 47  1  0
 28 48  1  0
 29 49  1  0
 31 50  1  0
 31 51  1  0
M  CHG  1   8  -1
M  END
>  <UniqueID>  (16) 
16

>  <SMILES>  (16) 
CN1CCc2cc([O-])c(NS(=O)(=O)c3ccc4c(-c5ncco5)cccc4c3)cc2C1

>  <Energy>  (16) 
103.24982703161304

>  <Genealogy>  (16) 
CN1CCc2cc([O-])c(NS(=O)(=O)c3ccc4c(-c5ncco5)cccc4c3)cc2C1 (protonated)
CN1CCc2cc([O-])c(NS(=O)(=O)c3ccc4c(-c5ncco5)cccc4c3)cc2C1 (3D coordinates assigned)
CN1CCc2cc([O-])c(NS(=O)(=O)c3ccc4c(-c5ncco5)cccc4c3)cc2C1 (nonaromatic ring conformer: 103.24982703161304 kcal/mol)

>  <smiles>  (16) 
CN1CCc2cc(O)c(NS(=O)(=O)c3ccc4c(-c5ncco5)cccc4c3)cc2C1

>  <score_type>  (16) 
oracle

>  <origin>  (16) 
adgpu

>  <m_score__min__energy>  (16) 
-14.85

>  <m_primary>  (16) 
energy

$$$$
16:0
     RDKit          3D

 52 55  0  0  0  0  0  0  0  0999 V2000
   -0.0060   22.4370  -25.8370 C   0  0  0  0  0  0  0  0  0  0  0  0
    0.1660   21.6860  -27.0930 N   0  0  0  0  0  0  0  0  0  0  0  0
   -0.6840   20.4800  -27.1540 C   0  0  0  0  0  0  0  0  0  0  0  0
   -2.1840   20.8160  -27.1810 C   0  0  0  0  0  0  0  0  0  0  0  0
   -2.5000   21.9720  -28.0930 C   0  0  0  0  0  0  0  0  0  0  0  0
   -3.8400   22.2520  -28.3950 C   0  0  0  0  0  0  0  0  0  0  0  0
   -4.1850   23.3780  -29.1620 C   0  0  0  0  0  0  0  0  0  0  0  0
   -5.5640   23.7040  -29.4130 N   0  0  0  0  0  0  0  0  0  0  0  0
   -6.2030   23.8550  -31.0200 S   0  0  0  0  0  0  0  0  0  0  0  0
   -5.4640   24.9450  -31.7440 O   0  0  0  0  0  0  0  0  0  0  0  0
   -7.6610   24.2130  -30.9480 O   0  0  0  0  0  0  0  0  0  0  0  0
   -6.0380   22.3170  -31.8640 C   0  0  0  0  0  0  0  0  0  0  0  0
   -7.1830   21.5680  -32.1650 C   0  0  0  0  0  0  0  0  0  0  0  0
   -7.0640   20.3090  -32.7600 C   0  0  0  0  0  0  0  0  0  0  0  0
   -5.7970   19.7850  -33.0510 C   0  0  0  0  0  0  0  0  0  0  0  0
   -5.6390   18.2000  -33.7960 S   0  0  0  0  0  0  0  0  0  0  0  0
   -6.4930   17.2050  -33.0590 O   0  0  0  0  0  0  0  0  0  0  0  0
   -6.1070   18.2480  -35.2250 O   0  0  0  0  0  0  0  0  0  0  0  0
   -3.9510   17.7060  -33.7390 C   0  0  0  0  0  0  0  0  0  0  0  0
   -3.5930   16.4810  -33.1570 C   0  0  0  0  0  0  0  0  0  0  0  0
   -2.2490   16.1010  -33.0910 C   0  0  0  0  0  0  0  0  0  0  0  0
   -1.2580   16.9450  -33.6020 C   0  0  0  0  0  0  0  0  0  0  0  0
   -1.6090   18.1700  -34.1750 C   0  0  0  0  0  0  0  0  0  0  0  0
   -2.9530   18.5520  -34.2420 C   0  0  0  0  0  0  0  0  0  0  0  0
   -4.6530   20.5400  -32.7660 C   0  0  0  0  0  0  0  0  0  0  0  0
   -4.7710   21.8010  -32.1740 C   0  0  0  0  0  0  0  0  0  0  0  0
   -3.1650   24.2000  -29.6680 C   0  0  0  0  0  0  0  0  0  0  0  0
   -3.4730   25.3070  -30.4500 O   0  0  0  0  0  0  0  0  0  0  0  0
   -1.8270   23.9230  -29.3740 C   0  0  0  0  0  0  0  0  0  0  0  0
   -1.4870   22.8320  -28.5610 C   0  0  0  0  0  0  0  0  0  0  0  0
   -0.0310   22.5410  -28.2800 C   0  0  0  0  0  0  0  0  0  0  0  0
    0.1486   21.7622  -24.9822 H   0  0  0  0  0  0  0  0  0  0  0  0
    0.7280   23.2552  -25.7956 H   0  0  0  0  0  0  0  0  0  0  0  0
   -1.0230   22.8542  -25.7956 H   0  0  0  0  0  0  0  0  0  0  0  0
   -0.4324   19.9171  -28.0650 H   0  0  0  0  0  0  0  0  0  0  0  0
   -0.4907   19.8893  -26.2464 H   0  0  0  0  0  0  0  0  0  0  0  0
   -2.7375   19.9311  -27.5284 H   0  0  0  0  0  0  0  0  0  0  0  0
   -2.4803   21.1040  -26.1616 H   0  0  0  0  0  0  0  0  0  0  0  0
   -4.6312   21.5822  -28.0271 H   0  0  0  0  0  0  0  0  0  0  0  0
   -6.2540   23.6650  -28.6300 H   0  0  0  0  0  0  0  0  0  0  0  0
   -8.1792   21.9722  -31.9322 H   0  0  0  0  0  0  0  0  0  0  0  0
   -7.9666   19.7281  -33.0004 H   0  0  0  0  0  0  0  0  0  0  0  0
   -4.3713   15.8178  -32.7516 H   0  0  0  0  0  0  0  0  0  0  0  0
   -1.9712   15.1383  -32.6372 H   0  0  0  0  0  0  0  0  0  0  0  0
   -0.2011   16.6442  -33.5528 H   0  0  0  0  0  0  0  0  0  0  0  0
   -0.8281   18.8343  -34.5736 H   0  0  0  0  0  0  0  0  0  0  0  0
   -3.2272   19.5183  -34.6904 H   0  0  0  0  0  0  0  0  0  0  0  0
   -3.6576   20.1396  -33.0088 H   0  0  0  0  0  0  0  0  0  0  0  0
   -3.8688   22.3895  -31.9509 H   0  0  0  0  0  0  0  0  0  0  0  0
   -1.0341   24.5660  -29.7837 H   0  0  0  0  0  0  0  0  0  0  0  0
    0.4002   22.0319  -29.1546 H   0  0  0  0  0  0  0  0  0  0  0  0
    0.4647   23.5023  -28.0799 H   0  0  0  0  0  0  0  0  0  0  0  0
  1  2  1  0
  2  3  1  0
  3  4  1  0
  4  5  1  0
  5  6  2  0
  6  7  1  0
  7  8  1  0
  8  9  1  0
  9 10  2  0
  9 11  2  0
  9 12  1  0
 12 13  2  0
 13 14  1  0
 14 15  2  0
 15 16  1  0
 16 17  2  0
 16 18  2  0
 16 19  1  0
 19 20  2  0
 20 21  1  0
 21 22  2  0
 22 23  1  0
 23 24  2  0
 15 25  1  0
 25 26  2  0
  7 27  2  0
 27 28  1  0
 27 29  1  0
 29 30  2  0
 30 31  1  0
 31  2  1  0
 30  5  1  0
 26 12  1  0
 24 19  1  0
  1 32  1  0
  1 33  1  0
  1 34  1  0
  3 35  1  0
  3 36  1  0
  4 37  1  0
  4 38  1  0
  6 39  1  0
  8 40  1  0
 13 41  1  0
 14 42  1  0
 20 43  1  0
 21 44  1  0
 22 45  1  0
 23 46  1  0
 24 47  1  0
 25 48  1  0
 26 49  1  0
 29 50  1  0
 31 51  1  0
 31 52  1  0
M  CHG  1  28  -1
M  END
>  <UniqueID>  (17) 
17

>  <SMILES>  (17) 
CN1CCc2cc(NS(=O)(=O)c3ccc(S(=O)(=O)c4ccccc4)cc3)c([O-])cc2C1

>  <Energy>  (17) 
65.54439183162098

>  <Genealogy>  (17) 
CN1CCc2cc(NS(=O)(=O)c3ccc(S(=O)(=O)c4ccccc4)cc3)c([O-])cc2C1 (protonated)
CN1CCc2cc(NS(=O)(=O)c3ccc(S(=O)(=O)c4ccccc4)cc3)c([O-])cc2C1 (3D coordinates assigned)
CN1CCc2cc(NS(=O)(=O)c3ccc(S(=O)(=O)c4ccccc4)cc3)c([O-])cc2C1 (nonaromatic ring conformer: 65.54439183162098 kcal/mol)

>  <smiles>  (17) 
CN1CCc2cc(NS(=O)(=O)c3ccc(S(=O)(=O)c4ccccc4)cc3)c(O)cc2C1

>  <score_type>  (17) 
oracle

>  <origin>  (17) 
adgpu

>  <m_score__min__energy>  (17) 
-14.27

>  <m_primary>  (17) 
energy

$$$$
17:0
     RDKit          3D

 71 75  0  0  0  0  0  0  0  0999 V2000
   -1.6210   23.3540  -30.2430 O   0  0  0  0  0  0  0  0  0  0  0  0
   -2.1930   22.4850  -30.9510 C   0  0  0  0  0  0  0  0  0  0  0  0
   -3.3320   22.8810  -31.7330 N   0  0  0  0  0  0  0  0  0  0  0  0
   -4.5800   23.3710  -31.2210 C   0  0  0  0  0  0  0  0  0  0  0  0
   -5.7530   22.6770  -31.5420 C   0  0  0  0  0  0  0  0  0  0  0  0
   -6.9910   23.0960  -31.0380 C   0  0  0  0  0  0  0  0  0  0  0  0
   -8.4620   22.1910  -31.4200 S   0  0  0  0  0  0  0  0  0  0  0  0
   -9.2160   21.9230  -30.1470 O   0  0  0  0  0  0  0  0  0  0  0  0
   -9.3360   23.0320  -32.3080 O   0  0  0  0  0  0  0  0  0  0  0  0
   -8.1350   20.6710  -32.2170 N   0  0  0  0  0  0  0  0  0  0  0  0
   -9.2860   19.7730  -32.1850 C   0  0  0  0  0  0  0  0  0  0  0  0
   -8.7320   18.3620  -32.3060 C   0  0  0  0  0  0  0  0  0  0  0  0
   -7.2650   18.4710  -31.9180 C   0  0  0  0  0  0  0  0  0  0  0  0
   -7.0490   19.9360  -31.5740 C   0  0  0  0  0  0  0  0  0  0  0  0
   -7.0540   24.2240  -30.2100 C   0  0  0  0  0  0  0  0  0  0  0  0
   -5.8950   24.9430  -29.9150 C   0  0  0  0  0  0  0  0  0  0  0  0
   -4.6570   24.5320  -30.4270 C   0  0  0  0  0  0  0  0  0  0  0  0
   -3.5150   25.2860  -30.1630 O   0  0  0  0  0  0  0  0  0  0  0  0
   -1.6380   21.1080  -31.0130 C   0  0  0  0  0  0  0  0  0  0  0  0
   -1.7090   20.3900  -32.2200 C   0  0  0  0  0  0  0  0  0  0  0  0
   -1.2030   19.0880  -32.3130 C   0  0  0  0  0  0  0  0  0  0  0  0
   -1.3360   18.1920  -33.8270 S   0  0  0  0  0  0  0  0  0  0  0  0
   -0.8170   19.0460  -34.9500 O   0  0  0  0  0  0  0  0  0  0  0  0
   -0.4830   16.9560  -33.7500 O   0  0  0  0  0  0  0  0  0  0  0  0
   -2.9890   17.7370  -34.1620 N   0  0  0  0  0  0  0  0  0  0  0  0
   -3.8850   18.8900  -33.9820 C   0  0  0  0  0  0  0  0  0  0  0  0
   -5.2910   18.5630  -34.5190 C   0  0  0  0  0  0  0  0  0  0  0  0
   -5.5790   17.0510  -34.5300 C   0  0  0  0  0  0  0  0  0  0  0  0
   -4.9200   16.3550  -33.3360 C   0  0  0  0  0  0  0  0  0  0  0  0
   -3.3950   16.6110  -33.2940 C   0  0  0  0  0  0  0  0  0  0  0  0
   -0.5910   18.5040  -31.2000 C   0  0  0  0  0  0  0  0  0  0  0  0
   -0.4850   19.2150  -30.0040 C   0  0  0  0  0  0  0  0  0  0  0  0
   -1.0040   20.5130  -29.8960 C   0  0  0  0  0  0  0  0  0  0  0  0
   -0.9070   21.2000  -28.6400 N   0  0  0  0  0  0  0  0  0  0  0  0
    0.2810   21.9180  -28.2200 C   0  0  0  0  0  0  0  0  0  0  0  0
   -0.0700   22.5230  -26.8680 C   0  0  0  0  0  0  0  0  0  0  0  0
   -1.5950   22.4850  -26.7730 C   0  0  0  0  0  0  0  0  0  0  0  0
   -2.0530   21.4400  -27.7820 C   0  0  0  0  0  0  0  0  0  0  0  0
   -5.7018   21.7942  -32.1963 H   0  0  0  0  0  0  0  0  0  0  0  0
   -9.8319   19.8876  -31.2369 H   0  0  0  0  0  0  0  0  0  0  0  0
   -9.9897   19.9968  -33.0003 H   0  0  0  0  0  0  0  0  0  0  0  0
   -9.2612   17.6806  -31.6236 H   0  0  0  0  0  0  0  0  0  0  0  0
   -8.8583   17.9579  -33.3213 H   0  0  0  0  0  0  0  0  0  0  0  0
   -7.0484   17.8347  -31.0472 H   0  0  0  0  0  0  0  0  0  0  0  0
   -6.6004   18.1377  -32.7287 H   0  0  0  0  0  0  0  0  0  0  0  0
   -7.0838   20.0807  -30.4841 H   0  0  0  0  0  0  0  0  0  0  0  0
   -6.0665   20.2882  -31.9213 H   0  0  0  0  0  0  0  0  0  0  0  0
   -8.0196   24.5439  -29.7912 H   0  0  0  0  0  0  0  0  0  0  0  0
   -5.9535   25.8372  -29.2771 H   0  0  0  0  0  0  0  0  0  0  0  0
   -2.5850   24.8940  -30.2540 H   0  0  0  0  0  0  0  0  0  0  0  0
   -2.1684   20.8578  -33.1032 H   0  0  0  0  0  0  0  0  0  0  0  0
   -3.9529   19.1332  -32.9114 H   0  0  0  0  0  0  0  0  0  0  0  0
   -3.4801   19.7482  -34.5383 H   0  0  0  0  0  0  0  0  0  0  0  0
   -6.0369   19.0599  -33.8812 H   0  0  0  0  0  0  0  0  0  0  0  0
   -5.3447   18.9218  -35.5575 H   0  0  0  0  0  0  0  0  0  0  0  0
   -6.6665   16.8922  -34.4829 H   0  0  0  0  0  0  0  0  0  0  0  0
   -5.1652   16.6235  -35.4552 H   0  0  0  0  0  0  0  0  0  0  0  0
   -5.3710   16.7361  -32.4079 H   0  0  0  0  0  0  0  0  0  0  0  0
   -5.0829   15.2719  -33.4380 H   0  0  0  0  0  0  0  0  0  0  0  0
   -3.1036   16.8402  -32.2584 H   0  0  0  0  0  0  0  0  0  0  0  0
   -2.8922   15.7047  -33.6627 H   0  0  0  0  0  0  0  0  0  0  0  0
   -0.1919   17.4812  -31.2672 H   0  0  0  0  0  0  0  0  0  0  0  0
    0.0105   18.7527  -29.1376 H   0  0  0  0  0  0  0  0  0  0  0  0
    1.1333   21.2292  -28.1240 H   0  0  0  0  0  0  0  0  0  0  0  0
    0.5734   22.6877  -28.9494 H   0  0  0  0  0  0  0  0  0  0  0  0
    0.3784   21.9312  -26.0564 H   0  0  0  0  0  0  0  0  0  0  0  0
    0.3143   23.5494  -26.7737 H   0  0  0  0  0  0  0  0  0  0  0  0
   -1.9076   22.1989  -25.7579 H   0  0  0  0  0  0  0  0  0  0  0  0
   -2.0364   23.4700  -26.9849 H   0  0  0  0  0  0  0  0  0  0  0  0
   -2.3491   20.5135  -27.2682 H   0  0  0  0  0  0  0  0  0  0  0  0
   -2.9271   21.7823  -28.3553 H   0  0  0  0  0  0  0  0  0  0  0  0
  1  2  2  0
  2  3  1  0
  3  4  1  0
  4  5  2  0
  5  6  1  0
  6  7  1  0
  7  8  2  0
  7  9  2  0
  7 10  1  0
 10 11  1  0
 11 12  1  0
 12 13  1  0
 13 14  1  0
  6 15  2  0
 15 16  1  0
 16 17  2  0
 17 18  1  0
  2 19  1  0
 19 20  2  0
 20 21  1  0
 21 22  1  0
 22 23  2  0
 22 24  2  0
 22 25  1  0
 25 26  1  0
 26 27  1  0
 27 28  1  0
 28 29  1  0
 29 30  1  0
 21 31  2  0
 31 32  1  0
 32 33  2  0
 33 34  1  0
 34 35  1  0
 35 36  1  0
 36 37  1  0
 37 38  1  0
 17  4  1  0
 33 19  1  0
 38 34  1  0
 14 10  1  0
 30 25  1  0
  5 39  1  0
 11 40  1  0
 11 41  1  0
 12 42  1  0
 12 43  1  0
 13 44  1  0
 13 45  1  0
 14 46  1  0
 14 47  1  0
 15 48  1  0
 16 49  1  0
 18 50  1  0
 20 51  1  0
 26 52  1  0
 26 53  1  0
 27 54  1  0
 27 55  1  0
 28 56  1  0
 28 57  1  0
 29 58  1  0
 29 59  1  0
 30 60  1  0
 30 61  1  0
 31 62  1  0
 32 63  1  0
 35 64  1  0
 35 65  1  0
 36 66  1  0
 36 67  1  0
 37 68  1  0
 37 69  1  0
 38 70  1  0
 38 71  1  0
M  CHG  1   3  -1
M  END
>  <UniqueID>  (18) 
18

>  <SMILES>  (18) 
O=C([N-]c1cc(S(=O)(=O)N2CCCC2)ccc1O)c1cc(S(=O)(=O)N2CCCCC2)ccc1N1CCCC1

>  <Energy>  (18) 
89.92366236666412

>  <Genealogy>  (18) 
O=C([N-]c1cc(S(=O)(=O)N2CCCC2)ccc1O)c1cc(S(=O)(=O)N2CCCCC2)ccc1N1CCCC1 (protonated)
O=C([N-]c1cc(S(=O)(=O)N2CCCC2)ccc1O)c1cc(S(=O)(=O)N2CCCCC2)ccc1N1CCCC1 (3D coordinates assigned)
O=C([N-]c1cc(S(=O)(=O)N2CCCC2)ccc1O)c1cc(S(=O)(=O)N2CCCCC2)ccc1N1CCCC1 (nonaromatic ring conformer: 89.92366236666412 kcal/mol)

>  <smiles>  (18) 
O=C(Nc1cc(S(=O)(=O)N2CCCC2)ccc1O)c1cc(S(=O)(=O)N2CCCCC2)ccc1N1CCCC1

>  <score_type>  (18) 
oracle

>  <origin>  (18) 
adgpu

>  <m_score__min__energy>  (18) 
-12.44

>  <m_primary>  (18) 
energy

$$$$
18:0
     RDKit          3D

 58 62  0  0  0  0  0  0  0  0999 V2000
   -1.7530   20.3500  -32.5140 C   0  0  0  0  0  0  0  0  0  0  0  0
   -2.1940   19.0140  -32.8960 N   0  0  0  0  0  0  0  0  0  0  0  0
   -3.4370   18.5260  -32.7410 C   0  0  0  0  0  0  0  0  0  0  0  0
   -3.4300   17.2140  -33.1660 C   0  0  0  0  0  0  0  0  0  0  0  0
   -4.5510   16.2130  -33.0840 C   0  0  0  0  0  0  0  0  0  0  0  0
   -5.7020   16.5420  -33.9590 N   0  0  0  0  0  0  0  0  0  0  0  0
   -5.3650   17.4050  -35.1220 C   0  0  0  0  0  0  0  0  0  0  0  0
   -5.9940   18.8210  -35.1020 C   0  0  0  0  0  0  0  0  0  0  0  0
   -6.3970   19.2760  -33.7300 C   0  0  0  0  0  0  0  0  0  0  0  0
   -6.3480   20.6310  -33.3740 C   0  0  0  0  0  0  0  0  0  0  0  0
   -6.8170   21.0510  -32.1230 C   0  0  0  0  0  0  0  0  0  0  0  0
   -6.8240   22.7690  -31.7310 S   0  0  0  0  0  0  0  0  0  0  0  0
   -7.3190   22.9410  -30.3230 O   0  0  0  0  0  0  0  0  0  0  0  0
   -7.7270   23.5260  -32.6640 O   0  0  0  0  0  0  0  0  0  0  0  0
   -5.2130   23.4040  -31.8560 N   0  0  0  0  0  0  0  0  0  0  0  0
   -4.2350   23.2570  -30.8110 C   0  0  0  0  0  0  0  0  0  0  0  0
   -3.9100   21.9900  -30.2950 C   0  0  0  0  0  0  0  0  0  0  0  0
   -3.0010   21.8560  -29.2380 C   0  0  0  0  0  0  0  0  0  0  0  0
   -2.4050   23.0050  -28.6810 C   0  0  0  0  0  0  0  0  0  0  0  0
   -2.6850   24.2630  -29.2310 C   0  0  0  0  0  0  0  0  0  0  0  0
   -3.5980   24.3930  -30.2830 C   0  0  0  0  0  0  0  0  0  0  0  0
   -3.8770   25.6590  -30.7890 O   0  0  0  0  0  0  0  0  0  0  0  0
   -1.3910   22.8850  -27.5670 C   0  0  0  0  0  0  0  0  0  0  0  0
   -1.5360   21.6310  -26.8140 N   0  0  0  0  0  0  0  0  0  0  0  0
   -1.5350   20.4760  -27.7220 C   0  0  0  0  0  0  0  0  0  0  0  0
   -2.7640   20.4940  -28.6390 C   0  0  0  0  0  0  0  0  0  0  0  0
   -7.3520   20.1120  -31.2310 C   0  0  0  0  0  0  0  0  0  0  0  0
   -7.4190   18.7620  -31.5900 C   0  0  0  0  0  0  0  0  0  0  0  0
   -6.9310   18.3430  -32.8360 C   0  0  0  0  0  0  0  0  0  0  0  0
   -6.9410   16.8970  -33.2360 C   0  0  0  0  0  0  0  0  0  0  0  0
   -2.1330   16.9740  -33.5820 C   0  0  0  0  0  0  0  0  0  0  0  0
   -1.3960   18.0880  -33.4000 N   0  0  0  0  0  0  0  0  0  0  0  0
   -1.7273   20.4280  -31.4171 H   0  0  0  0  0  0  0  0  0  0  0  0
   -0.7466   20.5335  -32.9183 H   0  0  0  0  0  0  0  0  0  0  0  0
   -2.4524   21.0966  -32.9183 H   0  0  0  0  0  0  0  0  0  0  0  0
   -4.3045   19.0749  -32.3459 H   0  0  0  0  0  0  0  0  0  0  0  0
   -4.1603   15.2277  -33.3781 H   0  0  0  0  0  0  0  0  0  0  0  0
   -4.9189   16.2230  -32.0474 H   0  0  0  0  0  0  0  0  0  0  0  0
   -4.2715   17.5196  -35.1542 H   0  0  0  0  0  0  0  0  0  0  0  0
   -5.7822   16.9000  -36.0057 H   0  0  0  0  0  0  0  0  0  0  0  0
   -5.2594   19.5343  -35.5039 H   0  0  0  0  0  0  0  0  0  0  0  0
   -6.9090   18.7780  -35.7111 H   0  0  0  0  0  0  0  0  0  0  0  0
   -5.9391   21.3681  -34.0808 H   0  0  0  0  0  0  0  0  0  0  0  0
   -5.0140   24.0340  -32.6650 H   0  0  0  0  0  0  0  0  0  0  0  0
   -4.3759   21.0922  -30.7273 H   0  0  0  0  0  0  0  0  0  0  0  0
   -2.1824   25.1564  -28.8320 H   0  0  0  0  0  0  0  0  0  0  0  0
   -0.3814   22.9217  -28.0021 H   0  0  0  0  0  0  0  0  0  0  0  0
   -1.5578   23.7183  -26.8686 H   0  0  0  0  0  0  0  0  0  0  0  0
   -2.4440   21.6550  -26.2870 H   0  0  0  0  0  0  0  0  0  0  0  0
   -0.6253   20.5054  -28.3397 H   0  0  0  0  0  0  0  0  0  0  0  0
   -1.5627   19.5568  -27.1184 H   0  0  0  0  0  0  0  0  0  0  0  0
   -2.6107   19.7699  -29.4527 H   0  0  0  0  0  0  0  0  0  0  0  0
   -3.6439   20.2313  -28.0333 H   0  0  0  0  0  0  0  0  0  0  0  0
   -7.7199   20.4373  -30.2467 H   0  0  0  0  0  0  0  0  0  0  0  0
   -7.8545   18.0290  -30.8950 H   0  0  0  0  0  0  0  0  0  0  0  0
   -7.0223   16.2740  -32.3331 H   0  0  0  0  0  0  0  0  0  0  0  0
   -7.7991   16.7221  -33.9016 H   0  0  0  0  0  0  0  0  0  0  0  0
   -1.7618   16.0248  -33.9957 H   0  0  0  0  0  0  0  0  0  0  0  0
  1  2  1  0
  2  3  1  0
  3  4  2  0
  4  5  1  0
  5  6  1  0
  6  7  1  0
  7  8  1  0
  8  9  1  0
  9 10  2  0
 10 11  1  0
 11 12  1  0
 12 13  2  0
 12 14  2  0
 12 15  1  0
 15 16  1  0
 16 17  2  0
 17 18  1  0
 18 19  2  0
 19 20  1  0
 20 21  2  0
 21 22  1  0
 19 23  1  0
 23 24  1  0
 24 25  1  0
 25 26  1  0
 11 27  2  0
 27 28  1  0
 28 29  2  0
 29 30  1  0
  4 31  1  0
 31 32  2  0
 32  2  1  0
 30  6  1  0
 29  9  1  0
 21 16  1  0
 26 18  1  0
  1 33  1  0
  1 34  1  0
  1 35  1  0
  3 36  1  0
  5 37  1  0
  5 38  1  0
  7 39  1  0
  7 40  1  0
  8 41  1  0
  8 42  1  0
 10 43  1  0
 15 44  1  0
 17 45  1  0
 20 46  1  0
 23 47  1  0
 23 48  1  0
 24 49  1  0
 25 50  1  0
 25 51  1  0
 26 52  1  0
 26 53  1  0
 27 54  1  0
 28 55  1  0
 30 56  1  0
 30 57  1  0
 31 58  1  0
M  CHG  1  22  -1
M  END
>  <UniqueID>  (19) 
19

>  <SMILES>  (19) 
Cn1cc(CN2CCc3cc(S(=O)(=O)Nc4cc5c(cc4[O-])CNCC5)ccc3C2)cn1

>  <Energy>  (19) 
106.3196703513149

>  <Genealogy>  (19) 
Cn1cc(CN2CCc3cc(S(=O)(=O)Nc4cc5c(cc4[O-])CNCC5)ccc3C2)cn1 (protonated)
Cn1cc(CN2CCc3cc(S(=O)(=O)Nc4cc5c(cc4[O-])CNCC5)ccc3C2)cn1 (3D coordinates assigned)
Cn1cc(CN2CCc3cc(S(=O)(=O)Nc4cc5c(cc4[O-])CNCC5)ccc3C2)cn1 (nonaromatic ring conformer: 106.3196703513149 kcal/mol)

>  <smiles>  (19) 
Cn1cc(CN2CCc3cc(S(=O)(=O)Nc4cc5c(cc4O)CNCC5)ccc3C2)cn1

>  <score_type>  (19) 
oracle

>  <origin>  (19) 
adgpu

>  <m_score__min__energy>  (19) 
-14.199999999999999

>  <m_primary>  (19) 
energy

$$$$
19:0
     RDKit          3D

 46 48  0  0  0  0  0  0  0  0999 V2000
   -6.8790   16.5710  -33.8400 C   0  0  0  0  0  0  0  0  0  0  0  0
   -6.6540   17.9580  -33.3090 C   0  0  0  0  0  0  0  0  0  0  0  0
   -7.3860   18.4320  -32.2090 C   0  0  0  0  0  0  0  0  0  0  0  0
   -7.1730   19.7260  -31.7240 C   0  0  0  0  0  0  0  0  0  0  0  0
   -6.2260   20.5630  -32.3350 C   0  0  0  0  0  0  0  0  0  0  0  0
   -5.9850   21.9210  -31.8040 C   0  0  0  0  0  0  0  0  0  0  0  0
   -6.9690   22.8980  -32.0190 C   0  0  0  0  0  0  0  0  0  0  0  0
   -6.7870   24.2020  -31.5600 C   0  0  0  0  0  0  0  0  0  0  0  0
   -5.6190   24.5520  -30.8770 C   0  0  0  0  0  0  0  0  0  0  0  0
   -5.4310   25.8950  -30.4200 N   0  0  0  0  0  0  0  0  0  0  0  0
   -4.6400   23.5800  -30.6420 C   0  0  0  0  0  0  0  0  0  0  0  0
   -4.8110   22.2600  -31.0880 C   0  0  0  0  0  0  0  0  0  0  0  0
   -3.5590   21.0640  -30.6980 S   0  0  0  0  0  0  0  0  0  0  0  0
   -3.0600   21.3160  -29.3010 O   0  0  0  0  0  0  0  0  0  0  0  0
   -4.1300   19.6750  -30.7570 O   0  0  0  0  0  0  0  0  0  0  0  0
   -2.2330   21.1530  -31.8560 C   0  0  0  0  0  0  0  0  0  0  0  0
   -2.4840   21.1620  -33.2350 C   0  0  0  0  0  0  0  0  0  0  0  0
   -1.4210   21.1670  -34.1440 C   0  0  0  0  0  0  0  0  0  0  0  0
   -0.0990   21.1810  -33.6800 C   0  0  0  0  0  0  0  0  0  0  0  0
    1.2280   21.1800  -34.8370 S   0  0  0  0  0  0  0  0  0  0  0  0
    0.8400   20.0950  -36.1910 C   0  0  0  0  0  0  0  0  0  0  0  0
    1.4410   22.5760  -35.3500 O   0  0  0  0  0  0  0  0  0  0  0  0
    2.4920   20.7110  -34.1760 O   0  0  0  0  0  0  0  0  0  0  0  0
    0.1530   21.1880  -32.3020 C   0  0  0  0  0  0  0  0  0  0  0  0
   -0.9100   21.1720  -31.3960 C   0  0  0  0  0  0  0  0  0  0  0  0
   -5.5290   20.1060  -33.4640 C   0  0  0  0  0  0  0  0  0  0  0  0
   -5.7400   18.8100  -33.9440 C   0  0  0  0  0  0  0  0  0  0  0  0
   -6.9926   15.8706  -32.9995 H   0  0  0  0  0  0  0  0  0  0  0  0
   -7.7911   16.5572  -34.4547 H   0  0  0  0  0  0  0  0  0  0  0  0
   -6.0180   16.2696  -34.4547 H   0  0  0  0  0  0  0  0  0  0  0  0
   -8.1308   17.7823  -31.7262 H   0  0  0  0  0  0  0  0  0  0  0  0
   -7.7495   20.0895  -30.8606 H   0  0  0  0  0  0  0  0  0  0  0  0
   -7.8925   22.6327  -32.5546 H   0  0  0  0  0  0  0  0  0  0  0  0
   -7.5660   24.9584  -31.7362 H   0  0  0  0  0  0  0  0  0  0  0  0
   -5.3470   26.1110  -29.4000 H   0  0  0  0  0  0  0  0  0  0  0  0
   -5.3590   26.6820  -31.1030 H   0  0  0  0  0  0  0  0  0  0  0  0
   -3.7230   23.8544  -30.0999 H   0  0  0  0  0  0  0  0  0  0  0  0
   -3.5204   21.1651  -33.6035 H   0  0  0  0  0  0  0  0  0  0  0  0
   -1.6232   21.1599  -35.2252 H   0  0  0  0  0  0  0  0  0  0  0  0
    0.4940   19.1276  -35.7981 H   0  0  0  0  0  0  0  0  0  0  0  0
    0.0473   20.5455  -36.8063 H   0  0  0  0  0  0  0  0  0  0  0  0
    1.7387   19.9407  -36.8063 H   0  0  0  0  0  0  0  0  0  0  0  0
    1.1891   21.2061  -31.9330 H   0  0  0  0  0  0  0  0  0  0  0  0
   -0.7070   21.1743  -30.3149 H   0  0  0  0  0  0  0  0  0  0  0  0
   -4.8144   20.7696  -33.9729 H   0  0  0  0  0  0  0  0  0  0  0  0
   -5.1852   18.4567  -34.8257 H   0  0  0  0  0  0  0  0  0  0  0  0
  1  2  1  0
  2  3  2  0
  3  4  1  0
  4  5  2  0
  5  6  1  0
  6  7  2  0
  7  8  1  0
  8  9  2  0
  9 10  1  0
  9 11  1  0
 11 12  2  0
 12 13  1  0
 13 14  2  0
 13 15  2  0
 13 16  1  0
 16 17  2  0
 17 18  1  0
 18 19  2  0
 19 20  1  0
 20 21  1  0
 20 22  2  0
 20 23  2  0
 19 24  1  0
 24 25  2  0
  5 26  1  0
 26 27  2  0
 27  2  1  0
 12  6  1  0
 25 16  1  0
  1 28  1  0
  1 29  1  0
  1 30  1  0
  3 31  1  0
  4 32  1  0
  7 33  1  0
  8 34  1  0
 10 35  1  0
 10 36  1  0
 11 37  1  0
 17 38  1  0
 18 39  1  0
 21 40  1  0
 21 41  1  0
 21 42  1  0
 24 43  1  0
 25 44  1  0
 26 45  1  0
 27 46  1  0
M  END
>  <UniqueID>  (20) 
20

>  <SMILES>  (20) 
Cc1ccc(-c2ccc(N)cc2S(=O)(=O)c2ccc(S(C)(=O)=O)cc2)cc1

>  <Energy>  (20) 
49.63664804705416

>  <Genealogy>  (20) 
Cc1ccc(-c2ccc(N)cc2S(=O)(=O)c2ccc(S(C)(=O)=O)cc2)cc1 (3D coordinates assigned)
Cc1ccc(-c2ccc(N)cc2S(=O)(=O)c2ccc(S(C)(=O)=O)cc2)cc1 (optimized conformer: 49.63664804705416 kcal/mol)

>  <smiles>  (20) 
Cc1ccc(-c2ccc(N)cc2S(=O)(=O)c2ccc(S(C)(=O)=O)cc2)cc1

>  <score_type>  (20) 
oracle

>  <origin>  (20) 
adgpu

>  <m_score__min__energy>  (20) 
-9.4000000000000004

>  <m_primary>  (20) 
energy

$$$$
20:0
     RDKit          3D

 66 69  0  0  0  0  0  0  0  0999 V2000
   -6.2150   17.3070  -31.3780 C   0  0  0  0  0  0  0  0  0  0  0  0
   -7.0470   17.8200  -32.4130 O   0  0  0  0  0  0  0  0  0  0  0  0
   -7.7580   19.0300  -32.3380 C   0  0  0  0  0  0  0  0  0  0  0  0
   -9.1630   19.0740  -32.4600 C   0  0  0  0  0  0  0  0  0  0  0  0
   -9.8460   20.2850  -32.3260 C   0  0  0  0  0  0  0  0  0  0  0  0
   -9.1420   21.4620  -32.0640 C   0  0  0  0  0  0  0  0  0  0  0  0
   -7.7520   21.4330  -31.9510 C   0  0  0  0  0  0  0  0  0  0  0  0
   -7.0500   20.2290  -32.1110 C   0  0  0  0  0  0  0  0  0  0  0  0
   -5.6190   20.2360  -31.9860 N   0  0  0  0  0  0  0  0  0  0  0  0
   -4.7390   19.8530  -33.0550 C   0  0  0  0  0  0  0  0  0  0  0  0
   -5.2000   19.5650  -34.1950 O   0  0  0  0  0  0  0  0  0  0  0  0
   -3.2540   19.8380  -32.8340 C   0  0  0  0  0  0  0  0  0  0  0  0
   -2.8430   20.9060  -31.9010 N   0  0  0  0  0  0  0  0  0  0  0  0
   -3.2400   20.5940  -30.5040 C   0  0  0  0  0  0  0  0  0  0  0  0
   -3.3530   21.8660  -29.6580 C   0  0  0  0  0  0  0  0  0  0  0  0
   -4.4260   22.7460  -30.1670 N   0  0  0  0  0  0  0  0  0  0  0  0
   -4.1670   24.3850  -29.6170 S   0  0  0  0  0  0  0  0  0  0  0  0
   -5.3890   24.8720  -28.8890 O   0  0  0  0  0  0  0  0  0  0  0  0
   -3.9170   25.2890  -30.7920 O   0  0  0  0  0  0  0  0  0  0  0  0
   -2.7940   24.4410  -28.5140 C   0  0  0  0  0  0  0  0  0  0  0  0
   -2.9950   24.5500  -27.1310 C   0  0  0  0  0  0  0  0  0  0  0  0
   -1.9000   24.6210  -26.2650 C   0  0  0  0  0  0  0  0  0  0  0  0
   -0.5930   24.5740  -26.7720 C   0  0  0  0  0  0  0  0  0  0  0  0
    0.7870   24.7050  -25.6820 S   0  0  0  0  0  0  0  0  0  0  0  0
    0.5770   23.7680  -24.5260 O   0  0  0  0  0  0  0  0  0  0  0  0
    2.0250   24.2590  -26.4100 O   0  0  0  0  0  0  0  0  0  0  0  0
    1.0320   26.3250  -25.0640 N   0  0  0  0  0  0  0  0  0  0  0  0
    0.6310   27.3840  -26.0080 C   0  0  0  0  0  0  0  0  0  0  0  0
   -0.8260   27.8240  -25.8170 C   0  0  0  0  0  0  0  0  0  0  0  0
   -1.0710   28.1710  -24.4720 O   0  0  0  0  0  0  0  0  0  0  0  0
   -0.9290   27.0220  -23.6680 C   0  0  0  0  0  0  0  0  0  0  0  0
    0.5190   26.5150  -23.6930 C   0  0  0  0  0  0  0  0  0  0  0  0
   -0.3920   24.4800  -28.1560 C   0  0  0  0  0  0  0  0  0  0  0  0
   -1.4880   24.4110  -29.0240 C   0  0  0  0  0  0  0  0  0  0  0  0
   -4.5890   22.6950  -31.6390 C   0  0  0  0  0  0  0  0  0  0  0  0
   -3.3100   22.2390  -32.3610 C   0  0  0  0  0  0  0  0  0  0  0  0
   -6.6425   17.5706  -30.3994 H   0  0  0  0  0  0  0  0  0  0  0  0
   -6.1512   16.2125  -31.4675 H   0  0  0  0  0  0  0  0  0  0  0  0
   -5.2084   17.7415  -31.4675 H   0  0  0  0  0  0  0  0  0  0  0  0
   -9.7236   18.1494  -32.6618 H   0  0  0  0  0  0  0  0  0  0  0  0
  -10.9410   20.3115  -32.4271 H   0  0  0  0  0  0  0  0  0  0  0  0
   -9.6836   22.4122  -31.9467 H   0  0  0  0  0  0  0  0  0  0  0  0
   -7.2023   22.3610  -31.7349 H   0  0  0  0  0  0  0  0  0  0  0  0
   -5.2010   20.6850  -31.1400 H   0  0  0  0  0  0  0  0  0  0  0  0
   -2.9633   18.8635  -32.4146 H   0  0  0  0  0  0  0  0  0  0  0  0
   -2.7560   20.0082  -33.7999 H   0  0  0  0  0  0  0  0  0  0  0  0
   -4.2142   20.0833  -30.5143 H   0  0  0  0  0  0  0  0  0  0  0  0
   -2.4666   19.9502  -30.0598 H   0  0  0  0  0  0  0  0  0  0  0  0
   -3.5788   21.5877  -28.6180 H   0  0  0  0  0  0  0  0  0  0  0  0
   -2.3982   22.4095  -29.7123 H   0  0  0  0  0  0  0  0  0  0  0  0
   -4.0173   24.5797  -26.7260 H   0  0  0  0  0  0  0  0  0  0  0  0
   -2.0640   24.7141  -25.1813 H   0  0  0  0  0  0  0  0  0  0  0  0
    1.2848   28.2558  -25.8579 H   0  0  0  0  0  0  0  0  0  0  0  0
    0.7252   26.9765  -27.0254 H   0  0  0  0  0  0  0  0  0  0  0  0
   -1.0265   28.6960  -26.4569 H   0  0  0  0  0  0  0  0  0  0  0  0
   -1.4862   26.9882  -26.0919 H   0  0  0  0  0  0  0  0  0  0  0  0
   -1.2066   27.2697  -22.6328 H   0  0  0  0  0  0  0  0  0  0  0  0
   -1.5858   26.2325  -24.0621 H   0  0  0  0  0  0  0  0  0  0  0  0
    1.1573   27.2471  -23.1767 H   0  0  0  0  0  0  0  0  0  0  0  0
    0.5370   25.5356  -23.1926 H   0  0  0  0  0  0  0  0  0  0  0  0
    0.6304   24.4604  -28.5614 H   0  0  0  0  0  0  0  0  0  0  0  0
   -1.3244   24.3330  -30.1090 H   0  0  0  0  0  0  0  0  0  0  0  0
   -5.3992   21.9909  -31.8794 H   0  0  0  0  0  0  0  0  0  0  0  0
   -4.8206   23.7136  -31.9837 H   0  0  0  0  0  0  0  0  0  0  0  0
   -3.5132   22.1885  -33.4409 H   0  0  0  0  0  0  0  0  0  0  0  0
   -2.5186   22.9681  -32.1326 H   0  0  0  0  0  0  0  0  0  0  0  0
  1  2  1  0
  2  3  1  0
  3  4  2  0
  4  5  1  0
  5  6  2  0
  6  7  1  0
  7  8  2  0
  8  9  1  0
  9 10  1  0
 10 11  2  0
 10 12  1  0
 12 13  1  0
 13 14  1  0
 14 15  1  0
 15 16  1  0
 16 17  1  0
 17 18  2  0
 17 19  2  0
 17 20  1  0
 20 21  2  0
 21 22  1  0
 22 23  2  0
 23 24  1  0
 24 25  2  0
 24 26  2  0
 24 27  1  0
 27 28  1  0
 28 29  1  0
 29 30  1  0
 30 31  1  0
 31 32  1  0
 23 33  1  0
 33 34  2  0
 16 35  1  0
 35 36  1  0
  8  3  1  0
 36 13  1  0
 34 20  1  0
 32 27  1  0
  1 37  1  0
  1 38  1  0
  1 39  1  0
  4 40  1  0
  5 41  1  0
  6 42  1  0
  7 43  1  0
  9 44  1  0
 12 45  1  0
 12 46  1  0
 14 47  1  0
 14 48  1  0
 15 49  1  0
 15 50  1  0
 21 51  1  0
 22 52  1  0
 28 53  1  0
 28 54  1  0
 29 55  1  0
 29 56  1  0
 31 57  1  0
 31 58  1  0
 32 59  1  0
 32 60  1  0
 33 61  1  0
 34 62  1  0
 35 63  1  0
 35 64  1  0
 36 65  1  0
 36 66  1  0
M  END
>  <UniqueID>  (21) 
21

>  <SMILES>  (21) 
COc1ccccc1NC(=O)CN1CCN(S(=O)(=O)c2ccc(S(=O)(=O)N3CCOCC3)cc2)CC1

>  <Energy>  (21) 
88.18751366290353

>  <Genealogy>  (21) 
COc1ccccc1NC(=O)CN1CCN(S(=O)(=O)c2ccc(S(=O)(=O)N3CCOCC3)cc2)CC1 (3D coordinates assigned)
COc1ccccc1NC(=O)CN1CCN(S(=O)(=O)c2ccc(S(=O)(=O)N3CCOCC3)cc2)CC1 (nonaromatic ring conformer: 88.18751366290353 kcal/mol)

>  <smiles>  (21) 
COc1ccccc1NC(=O)CN1CCN(S(=O)(=O)c2ccc(S(=O)(=O)N3CCOCC3)cc2)CC1

>  <score_type>  (21) 
oracle

>  <origin>  (21) 
adgpu

>  <m_score__min__energy>  (21) 
-10.44

>  <m_primary>  (21) 
energy

$$$$
21:0
     RDKit          3D

 44 46  0  0  0  0  0  0  0  0999 V2000
   -0.0890   22.3690  -26.3600 C   0  0  0  0  0  0  0  0  0  0  0  0
   -1.1620   22.9950  -27.2010 C   0  0  0  0  0  0  0  0  0  0  0  0
   -0.9630   24.2590  -27.7740 C   0  0  0  0  0  0  0  0  0  0  0  0
   -1.9470   24.8290  -28.5880 C   0  0  0  0  0  0  0  0  0  0  0  0
   -3.1400   24.1340  -28.8580 C   0  0  0  0  0  0  0  0  0  0  0  0
   -4.1950   24.7280  -29.7130 C   0  0  0  0  0  0  0  0  0  0  0  0
   -3.8700   25.3050  -30.7880 O   0  0  0  0  0  0  0  0  0  0  0  0
   -5.5780   24.6720  -29.3320 N   0  0  0  0  0  0  0  0  0  0  0  0
   -6.6380   25.0820  -30.2550 C   0  0  0  0  0  0  0  0  0  0  0  0
   -6.7650   24.1140  -31.4360 C   0  0  0  0  0  0  0  0  0  0  0  0
   -6.2090   22.4640  -31.0130 S   0  0  0  0  0  0  0  0  0  0  0  0
   -6.1390   22.3390  -29.5170 O   0  0  0  0  0  0  0  0  0  0  0  0
   -4.8370   22.2050  -31.5690 O   0  0  0  0  0  0  0  0  0  0  0  0
   -7.3550   21.2720  -31.6600 C   0  0  0  0  0  0  0  0  0  0  0  0
   -8.6970   21.6590  -31.8050 C   0  0  0  0  0  0  0  0  0  0  0  0
   -9.6500   20.7730  -32.3030 C   0  0  0  0  0  0  0  0  0  0  0  0
   -9.2830   19.4820  -32.6730 C   0  0  0  0  0  0  0  0  0  0  0  0
   -7.9520   19.0640  -32.5500 C   0  0  0  0  0  0  0  0  0  0  0  0
   -7.5930   17.7610  -32.9320 C   0  0  0  0  0  0  0  0  0  0  0  0
   -6.2700   17.3350  -32.8230 C   0  0  0  0  0  0  0  0  0  0  0  0
   -5.2950   18.2020  -32.3340 C   0  0  0  0  0  0  0  0  0  0  0  0
   -5.6340   19.5010  -31.9480 C   0  0  0  0  0  0  0  0  0  0  0  0
   -6.9670   19.9580  -32.0440 C   0  0  0  0  0  0  0  0  0  0  0  0
   -3.3320   22.8650  -28.2840 C   0  0  0  0  0  0  0  0  0  0  0  0
   -2.3470   22.2960  -27.4710 C   0  0  0  0  0  0  0  0  0  0  0  0
   -0.3289   22.5090  -25.2956 H   0  0  0  0  0  0  0  0  0  0  0  0
   -0.0282   21.2937  -26.5838 H   0  0  0  0  0  0  0  0  0  0  0  0
    0.8769   22.8453  -26.5838 H   0  0  0  0  0  0  0  0  0  0  0  0
   -0.0277   24.8054  -27.5823 H   0  0  0  0  0  0  0  0  0  0  0  0
   -1.7870   25.8278  -29.0202 H   0  0  0  0  0  0  0  0  0  0  0  0
   -5.8270   24.3950  -28.3570 H   0  0  0  0  0  0  0  0  0  0  0  0
   -7.5938   25.1087  -29.7113 H   0  0  0  0  0  0  0  0  0  0  0  0
   -6.3828   26.0759  -30.6514 H   0  0  0  0  0  0  0  0  0  0  0  0
   -7.8200   24.0654  -31.7437 H   0  0  0  0  0  0  0  0  0  0  0  0
   -6.1297   24.4882  -32.2523 H   0  0  0  0  0  0  0  0  0  0  0  0
   -9.0006   22.6774  -31.5210 H   0  0  0  0  0  0  0  0  0  0  0  0
  -10.6969   21.0949  -32.4043 H   0  0  0  0  0  0  0  0  0  0  0  0
  -10.0414   18.7875  -33.0635 H   0  0  0  0  0  0  0  0  0  0  0  0
   -8.3594   17.0733  -33.3190 H   0  0  0  0  0  0  0  0  0  0  0  0
   -5.9955   16.3130  -33.1235 H   0  0  0  0  0  0  0  0  0  0  0  0
   -4.2523   17.8616  -32.2514 H   0  0  0  0  0  0  0  0  0  0  0  0
   -4.8541   20.1756  -31.5650 H   0  0  0  0  0  0  0  0  0  0  0  0
   -4.2651   22.3151  -28.4762 H   0  0  0  0  0  0  0  0  0  0  0  0
   -2.5025   21.2954  -27.0413 H   0  0  0  0  0  0  0  0  0  0  0  0
  1  2  1  0
  2  3  2  0
  3  4  1  0
  4  5  2  0
  5  6  1  0
  6  7  2  0
  6  8  1  0
  8  9  1  0
  9 10  1  0
 10 11  1  0
 11 12  2  0
 11 13  2  0
 11 14  1  0
 14 15  2  0
 15 16  1  0
 16 17  2  0
 17 18  1  0
 18 19  2  0
 19 20  1  0
 20 21  2  0
 21 22  1  0
 22 23  2  0
  5 24  1  0
 24 25  2  0
 25  2  1  0
 23 14  1  0
 23 18  1  0
  1 26  1  0
  1 27  1  0
  1 28  1  0
  3 29  1  0
  4 30  1  0
  8 31  1  0
  9 32  1  0
  9 33  1  0
 10 34  1  0
 10 35  1  0
 15 36  1  0
 16 37  1  0
 17 38  1  0
 19 39  1  0
 20 40  1  0
 21 41  1  0
 22 42  1  0
 24 43  1  0
 25 44  1  0
M  END
>  <UniqueID>  (22) 
22

>  <SMILES>  (22) 
Cc1ccc(C(=O)NCCS(=O)(=O)c2cccc3ccccc23)cc1

>  <Energy>  (22) 
48.62935729619663

>  <Genealogy>  (22) 
Cc1ccc(C(=O)NCCS(=O)(=O)c2cccc3ccccc23)cc1 (3D coordinates assigned)
Cc1ccc(C(=O)NCCS(=O)(=O)c2cccc3ccccc23)cc1 (optimized conformer: 48.62935729619663 kcal/mol)

>  <smiles>  (22) 
Cc1ccc(C(=O)NCCS(=O)(=O)c2cccc3ccccc23)cc1

>  <score_type>  (22) 
oracle

>  <origin>  (22) 
adgpu

>  <m_score__min__energy>  (22) 
-10.07

>  <m_primary>  (22) 
energy

$$$$
22:0
     RDKit          3D

 43 46  0  0  0  0  0  0  0  0999 V2000
    0.0080   20.7890  -32.0540 C   0  0  0  0  0  0  0  0  0  0  0  0
   -1.2240   20.6700  -31.2880 N   0  0  0  0  0  0  0  0  0  0  0  0
   -1.2980   20.5790  -29.9720 N   0  0  0  0  0  0  0  0  0  0  0  0
   -2.5760   20.5360  -29.6230 N   0  0  0  0  0  0  0  0  0  0  0  0
   -3.3470   20.6030  -30.7020 N   0  0  0  0  0  0  0  0  0  0  0  0
   -2.4880   20.6950  -31.7340 C   0  0  0  0  0  0  0  0  0  0  0  0
   -2.9790   20.7910  -33.4520 S   0  0  0  0  0  0  0  0  0  0  0  0
   -4.7270   20.6600  -33.0640 C   0  0  0  0  0  0  0  0  0  0  0  0
   -5.4150   21.8020  -32.7960 N   0  0  0  0  0  0  0  0  0  0  0  0
   -6.7500   21.7870  -32.5560 C   0  0  0  0  0  0  0  0  0  0  0  0
   -7.6180   23.3230  -32.2490 S   0  0  0  0  0  0  0  0  0  0  0  0
   -7.4610   23.2370  -30.4320 C   0  0  0  0  0  0  0  0  0  0  0  0
   -6.0580   23.5350  -29.9830 C   0  0  0  0  0  0  0  0  0  0  0  0
   -5.4420   22.7270  -29.0140 C   0  0  0  0  0  0  0  0  0  0  0  0
   -4.1120   22.9550  -28.6490 C   0  0  0  0  0  0  0  0  0  0  0  0
   -3.3840   23.9940  -29.2420 C   0  0  0  0  0  0  0  0  0  0  0  0
   -1.6910   24.2270  -28.8200 S   0  0  0  0  0  0  0  0  0  0  0  0
   -1.2660   25.8850  -29.0520 N   0  0  0  0  0  0  0  0  0  0  0  0
   -1.4550   23.8510  -27.3840 O   0  0  0  0  0  0  0  0  0  0  0  0
   -0.8300   23.3610  -29.6950 O   0  0  0  0  0  0  0  0  0  0  0  0
   -4.0030   24.8160  -30.1950 C   0  0  0  0  0  0  0  0  0  0  0  0
   -5.3360   24.5950  -30.5550 C   0  0  0  0  0  0  0  0  0  0  0  0
   -7.4350   20.6160  -32.5870 N   0  0  0  0  0  0  0  0  0  0  0  0
   -6.8010   19.4400  -32.8310 C   0  0  0  0  0  0  0  0  0  0  0  0
   -7.5290   18.2450  -32.8410 C   0  0  0  0  0  0  0  0  0  0  0  0
   -6.8820   17.0330  -33.0960 C   0  0  0  0  0  0  0  0  0  0  0  0
   -5.5070   17.0110  -33.3430 C   0  0  0  0  0  0  0  0  0  0  0  0
   -4.7700   18.2000  -33.3380 C   0  0  0  0  0  0  0  0  0  0  0  0
   -5.4100   19.4270  -33.0790 C   0  0  0  0  0  0  0  0  0  0  0  0
    0.8616   20.8714  -31.3651 H   0  0  0  0  0  0  0  0  0  0  0  0
    0.1331   19.8988  -32.6879 H   0  0  0  0  0  0  0  0  0  0  0  0
   -0.0396   21.6867  -32.6879 H   0  0  0  0  0  0  0  0  0  0  0  0
   -8.1441   23.9710  -29.9796 H   0  0  0  0  0  0  0  0  0  0  0  0
   -7.7146   22.2153  -30.1128 H   0  0  0  0  0  0  0  0  0  0  0  0
   -6.0081   21.9115  -28.5403 H   0  0  0  0  0  0  0  0  0  0  0  0
   -3.6348   22.3151  -27.8922 H   0  0  0  0  0  0  0  0  0  0  0  0
   -1.2280   26.0480  -30.0830 H   0  0  0  0  0  0  0  0  0  0  0  0
   -3.4382   25.6370  -30.6607 H   0  0  0  0  0  0  0  0  0  0  0  0
   -5.8213   25.2545  -31.2896 H   0  0  0  0  0  0  0  0  0  0  0  0
   -8.6118   18.2597  -32.6479 H   0  0  0  0  0  0  0  0  0  0  0  0
   -7.4561   16.0947  -33.1023 H   0  0  0  0  0  0  0  0  0  0  0  0
   -5.0017   16.0544  -33.5423 H   0  0  0  0  0  0  0  0  0  0  0  0
   -3.6884   18.1763  -33.5368 H   0  0  0  0  0  0  0  0  0  0  0  0
  1  2  1  0
  2  3  1  0
  3  4  2  0
  4  5  1  0
  5  6  2  0
  6  7  1  0
  7  8  1  0
  8  9  2  0
  9 10  1  0
 10 11  1  0
 11 12  1  0
 12 13  1  0
 13 14  2  0
 14 15  1  0
 15 16  2  0
 16 17  1  0
 17 18  1  0
 17 19  2  0
 17 20  2  0
 16 21  1  0
 21 22  2  0
 10 23  2  0
 23 24  1  0
 24 25  2  0
 25 26  1  0
 26 27  2  0
 27 28  1  0
 28 29  2  0
  6  2  1  0
 29  8  1  0
 22 13  1  0
 29 24  1  0
  1 30  1  0
  1 31  1  0
  1 32  1  0
 12 33  1  0
 12 34  1  0
 14 35  1  0
 15 36  1  0
 18 37  1  0
 21 38  1  0
 22 39  1  0
 25 40  1  0
 26 41  1  0
 27 42  1  0
 28 43  1  0
M  CHG  1  18  -1
M  END
>  <UniqueID>  (23) 
23

>  <SMILES>  (23) 
Cn1nnnc1Sc1nc(SCc2ccc(S([NH-])(=O)=O)cc2)nc2ccccc12

>  <Energy>  (23) 
79.069120947795

>  <Genealogy>  (23) 
Cn1nnnc1Sc1nc(SCc2ccc(S([NH-])(=O)=O)cc2)nc2ccccc12 (protonated)
Cn1nnnc1Sc1nc(SCc2ccc(S([NH-])(=O)=O)cc2)nc2ccccc12 (3D coordinates assigned)
Cn1nnnc1Sc1nc(SCc2ccc(S([NH-])(=O)=O)cc2)nc2ccccc12 (optimized conformer: 79.069120947795 kcal/mol)

>  <smiles>  (23) 
Cn1nnnc1Sc1nc(SCc2ccc(S(N)(=O)=O)cc2)nc2ccccc12

>  <score_type>  (23) 
oracle

>  <origin>  (23) 
adgpu

>  <m_score__min__energy>  (23) 
-12.630000000000001

>  <m_primary>  (23) 
energy

$$$$
23:0
     RDKit          3D

 57 60  0  0  0  0  0  0  0  0999 V2000
   -2.4980   18.8150  -26.7930 C   0  0  0  0  0  0  0  0  0  0  0  0
   -1.1400   19.3700  -26.9590 N   0  0  0  0  0  0  0  0  0  0  0  0
   -0.6300   19.2090  -28.3340 C   0  0  0  0  0  0  0  0  0  0  0  0
   -1.4410   20.0120  -29.3620 C   0  0  0  0  0  0  0  0  0  0  0  0
   -1.7510   21.4040  -28.8760 C   0  0  0  0  0  0  0  0  0  0  0  0
   -2.2740   22.3370  -29.7810 C   0  0  0  0  0  0  0  0  0  0  0  0
   -2.6470   23.6220  -29.3500 C   0  0  0  0  0  0  0  0  0  0  0  0
   -3.2750   24.5440  -30.2460 N   0  0  0  0  0  0  0  0  0  0  0  0
   -4.9890   24.8100  -30.2320 S   0  0  0  0  0  0  0  0  0  0  0  0
   -5.3300   26.0610  -30.9940 O   0  0  0  0  0  0  0  0  0  0  0  0
   -5.4620   24.9590  -28.8140 O   0  0  0  0  0  0  0  0  0  0  0  0
   -5.7600   23.4020  -30.9550 C   0  0  0  0  0  0  0  0  0  0  0  0
   -5.1990   22.1250  -30.8030 C   0  0  0  0  0  0  0  0  0  0  0  0
   -5.9030   20.9940  -31.2250 C   0  0  0  0  0  0  0  0  0  0  0  0
   -7.1690   21.1290  -31.8100 C   0  0  0  0  0  0  0  0  0  0  0  0
   -8.0950   19.6870  -32.2110 S   0  0  0  0  0  0  0  0  0  0  0  0
   -8.2640   18.8180  -30.9950 O   0  0  0  0  0  0  0  0  0  0  0  0
   -9.4540   20.1030  -32.7010 O   0  0  0  0  0  0  0  0  0  0  0  0
   -7.2530   18.8000  -33.4590 N   0  0  0  0  0  0  0  0  0  0  0  0
   -6.1540   19.6130  -34.0440 C   0  0  0  0  0  0  0  0  0  0  0  0
   -4.7670   19.2090  -33.5270 C   0  0  0  0  0  0  0  0  0  0  0  0
   -4.4740   17.7270  -33.8290 C   0  0  0  0  0  0  0  0  0  0  0  0
   -5.7430   16.8540  -33.8160 C   0  0  0  0  0  0  0  0  0  0  0  0
   -6.8330   17.4800  -32.9380 C   0  0  0  0  0  0  0  0  0  0  0  0
   -7.7180   22.4070  -31.9900 C   0  0  0  0  0  0  0  0  0  0  0  0
   -7.0170   23.5380  -31.5580 C   0  0  0  0  0  0  0  0  0  0  0  0
   -2.4640   23.9850  -28.0060 C   0  0  0  0  0  0  0  0  0  0  0  0
   -2.8300   25.2590  -27.5750 O   0  0  0  0  0  0  0  0  0  0  0  0
   -1.9470   23.0540  -27.0960 C   0  0  0  0  0  0  0  0  0  0  0  0
   -1.6240   21.7520  -27.5140 C   0  0  0  0  0  0  0  0  0  0  0  0
   -1.0560   20.7750  -26.5100 C   0  0  0  0  0  0  0  0  0  0  0  0
   -2.7273   18.7213  -25.7213 H   0  0  0  0  0  0  0  0  0  0  0  0
   -3.2290   19.4865  -27.2670 H   0  0  0  0  0  0  0  0  0  0  0  0
   -2.5495   17.8237  -27.2670 H   0  0  0  0  0  0  0  0  0  0  0  0
    0.4150   19.5511  -28.3646 H   0  0  0  0  0  0  0  0  0  0  0  0
   -0.7161   18.1449  -28.5991 H   0  0  0  0  0  0  0  0  0  0  0  0
   -0.8614   20.0825  -30.2943 H   0  0  0  0  0  0  0  0  0  0  0  0
   -2.3951   19.4892  -29.5242 H   0  0  0  0  0  0  0  0  0  0  0  0
   -2.3939   22.0613  -30.8391 H   0  0  0  0  0  0  0  0  0  0  0  0
   -4.2026   22.0138  -30.3505 H   0  0  0  0  0  0  0  0  0  0  0  0
   -5.4618   19.9945  -31.0975 H   0  0  0  0  0  0  0  0  0  0  0  0
   -6.1702   19.4892  -35.1369 H   0  0  0  0  0  0  0  0  0  0  0  0
   -6.3241   20.6581  -33.7459 H   0  0  0  0  0  0  0  0  0  0  0  0
   -4.0050   19.8331  -34.0167 H   0  0  0  0  0  0  0  0  0  0  0  0
   -4.7436   19.3553  -32.4370 H   0  0  0  0  0  0  0  0  0  0  0  0
   -4.0086   17.6561  -34.8231 H   0  0  0  0  0  0  0  0  0  0  0  0
   -3.8063   17.3533  -33.0388 H   0  0  0  0  0  0  0  0  0  0  0  0
   -6.1220   16.7553  -34.8439 H   0  0  0  0  0  0  0  0  0  0  0  0
   -5.4849   15.8675  -33.4034 H   0  0  0  0  0  0  0  0  0  0  0  0
   -7.7048   16.8095  -32.9170 H   0  0  0  0  0  0  0  0  0  0  0  0
   -6.4248   17.6207  -31.9263 H   0  0  0  0  0  0  0  0  0  0  0  0
   -8.7006   22.5202  -32.4713 H   0  0  0  0  0  0  0  0  0  0  0  0
   -7.4547   24.5382  -31.6924 H   0  0  0  0  0  0  0  0  0  0  0  0
   -3.7150   25.6730  -27.8390 H   0  0  0  0  0  0  0  0  0  0  0  0
   -1.7927   23.3444  -26.0463 H   0  0  0  0  0  0  0  0  0  0  0  0
    0.0012   21.0250  -26.3374 H   0  0  0  0  0  0  0  0  0  0  0  0
   -1.6546   20.8627  -25.5913 H   0  0  0  0  0  0  0  0  0  0  0  0
  1  2  1  0
  2  3  1  0
  3  4  1  0
  4  5  1  0
  5  6  2  0
  6  7  1  0
  7  8  1  0
  8  9  1  0
  9 10  2  0
  9 11  2  0
  9 12  1  0
 12 13  2  0
 13 14  1  0
 14 15  2  0
 15 16  1  0
 16 17  2  0
 16 18  2  0
 16 19  1  0
 19 20  1  0
 20 21  1  0
 21 22  1  0
 22 23  1  0
 23 24  1  0
 15 25  1  0
 25 26  2  0
  7 27  2  0
 27 28  1  0
 27 29  1  0
 29 30  2  0
 30 31  1  0
 31  2  1  0
 30  5  1  0
 26 12  1  0
 24 19  1  0
  1 32  1  0
  1 33  1  0
  1 34  1  0
  3 35  1  0
  3 36  1  0
  4 37  1  0
  4 38  1  0
  6 39  1  0
 13 40  1  0
 14 41  1  0
 20 42  1  0
 20 43  1  0
 21 44  1  0
 21 45  1  0
 22 46  1  0
 22 47  1  0
 23 48  1  0
 23 49  1  0
 24 50  1  0
 24 51  1  0
 25 52  1  0
 26 53  1  0
 28 54  1  0
 29 55  1  0
 31 56  1  0
 31 57  1  0
M  CHG  1   8  -1
M  END
>  <UniqueID>  (24) 
24

>  <SMILES>  (24) 
CN1CCc2cc([N-]S(=O)(=O)c3ccc(S(=O)(=O)N4CCCCC4)cc3)c(O)cc2C1

>  <Energy>  (24) 
72.62449600468125

>  <Genealogy>  (24) 
CN1CCc2cc([N-]S(=O)(=O)c3ccc(S(=O)(=O)N4CCCCC4)cc3)c(O)cc2C1 (protonated)
CN1CCc2cc([N-]S(=O)(=O)c3ccc(S(=O)(=O)N4CCCCC4)cc3)c(O)cc2C1 (3D coordinates assigned)
CN1CCc2cc([N-]S(=O)(=O)c3ccc(S(=O)(=O)N4CCCCC4)cc3)c(O)cc2C1 (nonaromatic ring conformer: 72.62449600468125 kcal/mol)

>  <smiles>  (24) 
CN1CCc2cc(NS(=O)(=O)c3ccc(S(=O)(=O)N4CCCCC4)cc3)c(O)cc2C1

>  <score_type>  (24) 
oracle

>  <origin>  (24) 
adgpu

>  <m_score__min__energy>  (24) 
-13.16

>  <m_primary>  (24) 
energy

$$$$
24:0
     RDKit          3D

 76 80  0  0  1  0  0  0  0  0999 V2000
   -1.3800   18.2460  -32.4120 C   0  0  0  0  0  0  0  0  0  0  0  0
   -0.7950   19.3800  -33.1560 C   0  0  0  0  0  0  0  0  0  0  0  0
    0.5420   19.3690  -33.4970 C   0  0  0  0  0  0  0  0  0  0  0  0
    1.1250   20.4260  -34.2010 C   0  0  0  0  0  0  0  0  0  0  0  0
    0.3830   21.5190  -34.5810 C   0  0  0  0  0  0  0  0  0  0  0  0
    0.9590   22.6570  -35.3260 C   0  0  0  0  0  0  0  0  0  0  0  0
    2.1870   22.6750  -35.4310 O   0  0  0  0  0  0  0  0  0  0  0  0
    0.1730   23.6740  -35.8930 N   0  0  0  0  0  0  0  0  0  0  0  0
    0.5480   24.8040  -36.6120 C   0  0  0  0  0  0  0  0  0  0  0  0
   -0.4050   25.8320  -36.7320 C   0  0  0  0  0  0  0  0  0  0  0  0
   -0.1640   26.9880  -37.3980 C   0  0  0  0  0  0  0  0  0  0  0  0
   -1.2260   28.0210  -37.4780 C   0  0  0  0  0  0  0  0  0  0  0  0
   -0.5890   29.2830  -38.0320 C   0  0  0  0  0  0  0  0  0  0  0  0
   -2.2740   27.5830  -38.4780 C   0  0  0  0  0  0  0  0  0  0  0  0
   -1.8770   28.2900  -36.1430 C   0  0  0  0  0  0  0  0  0  0  0  0
    1.0410   27.2390  -38.0090 C   0  0  0  0  0  0  0  0  0  0  0  0
    2.0010   26.2580  -37.9140 C   0  0  0  0  0  0  0  0  0  0  0  0
    1.7460   25.0610  -37.2220 C   0  0  0  0  0  0  0  0  0  0  0  0
    2.8000   24.1730  -37.2090 O   0  0  0  0  0  0  0  0  0  0  0  0
   -0.9560   21.5130  -34.2310 C   0  0  0  0  0  0  0  0  0  0  0  0
   -1.5440   20.4740  -33.5350 C   0  0  0  0  0  0  0  0  0  0  0  0
   -2.9270   20.5340  -33.2080 N   0  0  0  0  0  0  0  0  0  0  0  0
   -3.7240   19.6630  -33.6860 C   0  0  0  0  0  0  0  0  0  0  0  0
   -3.2900   18.6780  -34.4990 N   0  0  0  0  0  0  0  0  0  0  0  0
   -4.2270   17.8120  -34.9450 C   0  0  0  0  0  0  0  0  0  0  0  0
   -5.5270   17.9040  -34.6090 N   0  0  0  0  0  0  0  0  0  0  0  0
   -6.0140   18.8710  -33.7980 C   0  0  0  0  0  0  0  0  0  0  0  0
   -7.2880   18.9830  -33.4540 N   0  0  0  0  0  0  0  0  0  0  0  0
   -7.6600   19.9870  -32.6380 C   0  0  0  0  0  0  0  0  0  0  0  0
   -6.7370   20.8870  -32.1660 C   0  0  0  0  0  0  0  0  0  0  0  0
   -7.0830   21.8410  -31.3910 N   0  0  0  0  0  0  0  0  0  0  0  0
   -6.2170   22.8440  -30.8300 C   0  0  0  0  0  0  0  0  0  0  0  0
   -5.1610   23.4070  -31.7210 C   0  0  0  0  0  0  0  0  0  0  0  0
   -3.9760   23.7950  -30.8130 C   0  0  0  0  0  0  0  0  0  0  0  0
   -4.4740   24.5000  -29.6670 N   0  0  0  0  0  0  0  0  0  0  0  0
   -4.1550   23.8740  -28.4200 C   0  0  0  0  0  0  0  0  0  0  0  0
   -5.8280   24.9620  -29.7940 C   0  0  0  0  0  0  0  0  0  0  0  0
   -6.7850   23.7570  -29.8130 C   0  0  0  0  0  0  0  0  0  0  0  0
   -5.4560   20.7780  -32.5090 N   0  0  0  0  0  0  0  0  0  0  0  0
   -5.0710   19.7790  -33.3240 C   0  0  0  0  0  0  0  0  0  0  0  0
   -1.2857   18.4287  -31.3314 H   0  0  0  0  0  0  0  0  0  0  0  0
   -2.4432   18.1441  -32.6753 H   0  0  0  0  0  0  0  0  0  0  0  0
   -0.8468   17.3206  -32.6753 H   0  0  0  0  0  0  0  0  0  0  0  0
    1.1632   18.5084  -33.2080 H   0  0  0  0  0  0  0  0  0  0  0  0
    2.1944   20.3827  -34.4551 H   0  0  0  0  0  0  0  0  0  0  0  0
   -0.8770   23.5400  -35.7290 H   0  0  0  0  0  0  0  0  0  0  0  0
   -1.3906   25.6914  -36.2641 H   0  0  0  0  0  0  0  0  0  0  0  0
   -0.2647   29.9256  -37.2002 H   0  0  0  0  0  0  0  0  0  0  0  0
    0.2814   29.0142  -38.6486 H   0  0  0  0  0  0  0  0  0  0  0  0
   -1.3222   29.8236  -38.6486 H   0  0  0  0  0  0  0  0  0  0  0  0
   -3.1602   27.2126  -37.9419 H   0  0  0  0  0  0  0  0  0  0  0  0
   -2.5581   28.4377  -39.1095 H   0  0  0  0  0  0  0  0  0  0  0  0
   -1.8654   26.7803  -39.1095 H   0  0  0  0  0  0  0  0  0  0  0  0
   -1.1874   28.0051  -35.3347 H   0  0  0  0  0  0  0  0  0  0  0  0
   -2.1160   29.3606  -36.0607 H   0  0  0  0  0  0  0  0  0  0  0  0
   -2.8020   27.7004  -36.0607 H   0  0  0  0  0  0  0  0  0  0  0  0
    1.2290   28.1792  -38.5482 H   0  0  0  0  0  0  0  0  0  0  0  0
    2.9823   26.4125  -38.3864 H   0  0  0  0  0  0  0  0  0  0  0  0
    3.1010   23.6260  -36.4170 H   0  0  0  0  0  0  0  0  0  0  0  0
   -1.5791   22.3724  -34.5193 H   0  0  0  0  0  0  0  0  0  0  0  0
   -2.2980   18.6150  -34.7490 H   0  0  0  0  0  0  0  0  0  0  0  0
   -3.9131   16.9957  -35.6122 H   0  0  0  0  0  0  0  0  0  0  0  0
   -8.7158   20.0874  -32.3460 H   0  0  0  0  0  0  0  0  0  0  0  0
   -5.6124   22.1971  -30.1773 H   0  0  0  0  0  0  0  0  0  0  0  0
   -4.8440   22.6531  -32.4566 H   0  0  0  0  0  0  0  0  0  0  0  0
   -5.5358   24.2791  -32.2769 H   0  0  0  0  0  0  0  0  0  0  0  0
   -3.4493   22.8862  -30.4862 H   0  0  0  0  0  0  0  0  0  0  0  0
   -3.2779   24.4379  -31.3692 H   0  0  0  0  0  0  0  0  0  0  0  0
   -4.4835   24.5187  -27.5915 H   0  0  0  0  0  0  0  0  0  0  0  0
   -4.6684   22.9033  -28.3551 H   0  0  0  0  0  0  0  0  0  0  0  0
   -3.0679   23.7189  -28.3551 H   0  0  0  0  0  0  0  0  0  0  0  0
   -6.0745   25.6119  -28.9414 H   0  0  0  0  0  0  0  0  0  0  0  0
   -5.9345   25.5279  -30.7313 H   0  0  0  0  0  0  0  0  0  0  0  0
   -6.8151   23.2696  -28.8273 H   0  0  0  0  0  0  0  0  0  0  0  0
   -7.8192   24.0498  -30.0469 H   0  0  0  0  0  0  0  0  0  0  0  0
   -4.7780   21.4510  -32.1520 H   0  0  0  0  0  0  0  0  0  0  0  0
  1  2  1  0
  2  3  2  0
  3  4  1  0
  4  5  2  0
  5  6  1  0
  6  7  2  0
  6  8  1  0
  8  9  1  0
  9 10  2  0
 10 11  1  0
 11 12  1  0
 12 13  1  0
 12 14  1  0
 12 15  1  0
 11 16  2  0
 16 17  1  0
 17 18  2  0
 18 19  1  0
  5 20  1  0
 20 21  2  0
 21 22  1  0
 22 23  2  0
 23 24  1  0
 24 25  1  0
 25 26  2  0
 26 27  1  0
 27 28  1  0
 28 29  2  0
 29 30  1  0
 30 31  2  0
 31 32  1  0
 32 33  1  0
 33 34  1  0
 34 35  1  0
 35 36  1  0
 35 37  1  0
 37 38  1  0
 30 39  1  0
 39 40  1  0
 21  2  1  0
 40 23  1  0
 18  9  1  0
 40 27  2  0
 38 32  1  0
  1 41  1  0
  1 42  1  0
  1 43  1  0
  3 44  1  0
  4 45  1  0
  8 46  1  0
 10 47  1  0
 13 48  1  0
 13 49  1  0
 13 50  1  0
 14 51  1  0
 14 52  1  0
 14 53  1  0
 15 54  1  0
 15 55  1  0
 15 56  1  0
 16 57  1  0
 17 58  1  0
 19 59  1  0
 20 60  1  0
 24 61  1  0
 25 62  1  0
 29 63  1  0
 32 64  1  0
 33 65  1  0
 33 66  1  0
 34 67  1  0
 34 68  1  0
 36 69  1  0
 36 70  1  0
 36 71  1  0
 37 72  1  0
 37 73  1  0
 38 74  1  0
 38 75  1  0
 39 76  1  0
M  END
>  <smiles>  (25) 
Cc1ccc(C(=O)Nc2cc(C(C)(C)C)ccc2O)cc1N=c1[nH]cnc2ncc(=NC3CCN(C)CC3)[nH]c12

>  <score_type>  (25) 
oracle

>  <origin>  (25) 
adgpu

>  <m_score__min__energy>  (25) 
-12.02

>  <m_primary>  (25) 
energy

$$$$
25:0
     RDKit          3D

 69 73  0  0  0  0  0  0  0  0999 V2000
   -4.6270   25.3030  -29.5610 O   0  0  0  0  0  0  0  0  0  0  0  0
   -4.4820   24.4890  -30.5100 C   0  0  0  0  0  0  0  0  0  0  0  0
   -5.6260   24.0980  -31.2800 N   0  0  0  0  0  0  0  0  0  0  0  0
   -5.9330   22.7280  -31.5630 C   0  0  0  0  0  0  0  0  0  0  0  0
   -6.9700   22.1000  -30.8620 C   0  0  0  0  0  0  0  0  0  0  0  0
   -7.4200   20.8350  -31.2540 C   0  0  0  0  0  0  0  0  0  0  0  0
   -6.8230   20.1820  -32.3420 C   0  0  0  0  0  0  0  0  0  0  0  0
   -7.4070   18.9340  -32.8570 C   0  0  0  0  0  0  0  0  0  0  0  0
   -8.6450   18.9020  -33.0890 O   0  0  0  0  0  0  0  0  0  0  0  0
   -6.5820   17.7800  -33.1410 N   0  0  0  0  0  0  0  0  0  0  0  0
   -7.1090   16.7320  -34.0290 C   0  0  0  0  0  0  0  0  0  0  0  0
   -6.3530   15.4090  -33.8360 C   0  0  0  0  0  0  0  0  0  0  0  0
   -4.9510   15.6120  -33.8710 O   0  0  0  0  0  0  0  0  0  0  0  0
   -4.5660   16.4200  -32.7800 C   0  0  0  0  0  0  0  0  0  0  0  0
   -5.1260   17.8320  -32.9420 C   0  0  0  0  0  0  0  0  0  0  0  0
   -5.7200   20.7670  -32.9810 C   0  0  0  0  0  0  0  0  0  0  0  0
   -5.2780   22.0350  -32.5950 C   0  0  0  0  0  0  0  0  0  0  0  0
   -3.1750   24.0580  -30.9120 N   0  0  0  0  0  0  0  0  0  0  0  0
   -2.1350   23.4970  -30.1040 C   0  0  0  0  0  0  0  0  0  0  0  0
   -1.6330   22.1810  -30.2800 C   0  0  0  0  0  0  0  0  0  0  0  0
   -2.0490   21.3570  -31.3820 N   0  0  0  0  0  0  0  0  0  0  0  0
   -2.7370   20.0850  -31.2180 C   0  0  0  0  0  0  0  0  0  0  0  0
   -2.6900   19.4110  -32.5840 C   0  0  0  0  0  0  0  0  0  0  0  0
   -2.2880   20.5040  -33.5730 C   0  0  0  0  0  0  0  0  0  0  0  0
   -1.5990   21.5770  -32.7460 C   0  0  0  0  0  0  0  0  0  0  0  0
   -0.6270   21.7140  -29.4170 C   0  0  0  0  0  0  0  0  0  0  0  0
   -0.1010   22.5400  -28.4210 C   0  0  0  0  0  0  0  0  0  0  0  0
   -0.5600   23.8550  -28.2770 C   0  0  0  0  0  0  0  0  0  0  0  0
    0.1590   24.9350  -27.0800 S   0  0  0  0  0  0  0  0  0  0  0  0
    0.2880   24.1930  -25.7780 O   0  0  0  0  0  0  0  0  0  0  0  0
    1.5280   25.3780  -27.5240 O   0  0  0  0  0  0  0  0  0  0  0  0
   -0.8800   26.3230  -26.8710 N   0  0  0  0  0  0  0  0  0  0  0  0
   -1.6980   26.2120  -25.6390 C   0  0  0  0  0  0  0  0  0  0  0  0
   -1.2310   27.1770  -24.5330 C   0  0  0  0  0  0  0  0  0  0  0  0
   -1.2210   28.5400  -24.9390 O   0  0  0  0  0  0  0  0  0  0  0  0
   -0.8720   28.7290  -26.3050 C   0  0  0  0  0  0  0  0  0  0  0  0
   -0.0810   27.5610  -26.9170 C   0  0  0  0  0  0  0  0  0  0  0  0
   -1.5680   24.3300  -29.1270 C   0  0  0  0  0  0  0  0  0  0  0  0
   -2.0150   25.6420  -29.0050 O   0  0  0  0  0  0  0  0  0  0  0  0
   -7.4323   22.6033  -30.0001 H   0  0  0  0  0  0  0  0  0  0  0  0
   -8.2435   20.3516  -30.7080 H   0  0  0  0  0  0  0  0  0  0  0  0
   -8.1739   16.5729  -33.8039 H   0  0  0  0  0  0  0  0  0  0  0  0
   -6.9777   17.0596  -35.0708 H   0  0  0  0  0  0  0  0  0  0  0  0
   -6.6290   14.9763  -32.8631 H   0  0  0  0  0  0  0  0  0  0  0  0
   -6.6276   14.7274  -34.6546 H   0  0  0  0  0  0  0  0  0  0  0  0
   -4.9532   15.9808  -31.8488 H   0  0  0  0  0  0  0  0  0  0  0  0
   -3.4679   16.4727  -32.7439 H   0  0  0  0  0  0  0  0  0  0  0  0
   -4.9033   18.4174  -32.0377 H   0  0  0  0  0  0  0  0  0  0  0  0
   -4.6601   18.3050  -33.8191 H   0  0  0  0  0  0  0  0  0  0  0  0
   -5.2022   20.2267  -33.7872 H   0  0  0  0  0  0  0  0  0  0  0  0
   -4.4146   22.4921  -33.1006 H   0  0  0  0  0  0  0  0  0  0  0  0
   -2.2244   19.4658  -30.4671 H   0  0  0  0  0  0  0  0  0  0  0  0
   -3.7711   20.2249  -30.8699 H   0  0  0  0  0  0  0  0  0  0  0  0
   -1.9466   18.6002  -32.5859 H   0  0  0  0  0  0  0  0  0  0  0  0
   -3.6590   18.9622  -32.8479 H   0  0  0  0  0  0  0  0  0  0  0  0
   -1.5983   20.1014  -34.3294 H   0  0  0  0  0  0  0  0  0  0  0  0
   -3.1601   20.9046  -34.1106 H   0  0  0  0  0  0  0  0  0  0  0  0
   -0.5060   21.4726  -32.8128 H   0  0  0  0  0  0  0  0  0  0  0  0
   -1.8440   22.5890  -33.1007 H   0  0  0  0  0  0  0  0  0  0  0  0
   -0.2496   20.6866  -29.5271 H   0  0  0  0  0  0  0  0  0  0  0  0
    0.6779   22.1554  -27.7462 H   0  0  0  0  0  0  0  0  0  0  0  0
   -2.7446   26.4410  -25.8884 H   0  0  0  0  0  0  0  0  0  0  0  0
   -1.5890   25.1865  -25.2563 H   0  0  0  0  0  0  0  0  0  0  0  0
   -1.9083   27.0746  -23.6723 H   0  0  0  0  0  0  0  0  0  0  0  0
   -0.1950   26.9057  -24.2819 H   0  0  0  0  0  0  0  0  0  0  0  0
   -1.7984   28.8599  -26.8835 H   0  0  0  0  0  0  0  0  0  0  0  0
   -0.2176   29.6122  -26.3465 H   0  0  0  0  0  0  0  0  0  0  0  0
    0.1632   27.7968  -27.9633 H   0  0  0  0  0  0  0  0  0  0  0  0
    0.8430   27.4125  -26.3390 H   0  0  0  0  0  0  0  0  0  0  0  0
  1  2  2  0
  2  3  1  0
  3  4  1  0
  4  5  2  0
  5  6  1  0
  6  7  2  0
  7  8  1  0
  8  9  2  0
  8 10  1  0
 10 11  1  0
 11 12  1  0
 12 13  1  0
 13 14  1  0
 14 15  1  0
  7 16  1  0
 16 17  2  0
  2 18  1  0
 18 19  1  0
 19 20  1  0
 20 21  1  0
 21 22  1  0
 22 23  1  0
 23 24  1  0
 24 25  1  0
 20 26  2  0
 26 27  1  0
 27 28  2  0
 28 29  1  0
 29 30  2  0
 29 31  2  0
 29 32  1  0
 32 33  1  0
 33 34  1  0
 34 35  1  0
 35 36  1  0
 36 37  1  0
 28 38  1  0
 38 39  1  0
 17  4  1  0
 38 19  2  0
 15 10  1  0
 25 21  1  0
 37 32  1  0
  5 40  1  0
  6 41  1  0
 11 42  1  0
 11 43  1  0
 12 44  1  0
 12 45  1  0
 14 46  1  0
 14 47  1  0
 15 48  1  0
 15 49  1  0
 16 50  1  0
 17 51  1  0
 22 52  1  0
 22 53  1  0
 23 54  1  0
 23 55  1  0
 24 56  1  0
 24 57  1  0
 25 58  1  0
 25 59  1  0
 26 60  1  0
 27 61  1  0
 33 62  1  0
 33 63  1  0
 34 64  1  0
 34 65  1  0
 36 66  1  0
 36 67  1  0
 37 68  1  0
 37 69  1  0
M  CHG  3   3  -1  18  -1  39  -1
M  END
>  <UniqueID>  (26) 
25

>  <SMILES>  (26) 
O=C([N-]c1ccc(C(=O)N2CCOCC2)cc1)[N-]c1c(N2CCCC2)ccc(S(=O)(=O)N2CCOCC2)c1[O-]

>  <Energy>  (26) 
111.16750078821924

>  <Genealogy>  (26) 
O=C([N-]c1ccc(C(=O)N2CCOCC2)cc1)[N-]c1c(N2CCCC2)ccc(S(=O)(=O)N2CCOCC2)c1[O-] (protonated)
O=C([N-]c1ccc(C(=O)N2CCOCC2)cc1)[N-]c1c(N2CCCC2)ccc(S(=O)(=O)N2CCOCC2)c1[O-] (3D coordinates assigned)
O=C([N-]c1ccc(C(=O)N2CCOCC2)cc1)[N-]c1c(N2CCCC2)ccc(S(=O)(=O)N2CCOCC2)c1[O-] (nonaromatic ring conformer: 111.16750078821924 kcal/mol)

>  <smiles>  (26) 
O=C(Nc1ccc(C(=O)N2CCOCC2)cc1)Nc1c(N2CCCC2)ccc(S(=O)(=O)N2CCOCC2)c1O

>  <score_type>  (26) 
oracle

>  <origin>  (26) 
adgpu

>  <m_score__min__energy>  (26) 
-14.43

>  <m_primary>  (26) 
energy

$$$$
26:0
     RDKit          3D

 57 60  0  0  0  0  0  0  0  0999 V2000
   -5.4200   26.3440  -30.5150 O   0  0  0  0  0  0  0  0  0  0  0  0
   -5.0370   24.9750  -30.0290 S   0  0  0  0  0  0  0  0  0  0  0  0
   -5.2970   24.9060  -28.5490 O   0  0  0  0  0  0  0  0  0  0  0  0
   -3.3610   24.6960  -30.3650 N   0  0  0  0  0  0  0  0  0  0  0  0
   -2.4690   24.1440  -29.3960 C   0  0  0  0  0  0  0  0  0  0  0  0
   -2.6520   22.8370  -28.9180 C   0  0  0  0  0  0  0  0  0  0  0  0
   -1.7700   22.2990  -27.9710 C   0  0  0  0  0  0  0  0  0  0  0  0
   -2.0180   20.6620  -27.3520 S   0  0  0  0  0  0  0  0  0  0  0  0
   -1.5050   20.5810  -25.9420 O   0  0  0  0  0  0  0  0  0  0  0  0
   -3.4920   20.3660  -27.3260 O   0  0  0  0  0  0  0  0  0  0  0  0
   -1.1920   19.4630  -28.3200 N   0  0  0  0  0  0  0  0  0  0  0  0
   -0.6170   18.4150  -27.4560 C   0  0  0  0  0  0  0  0  0  0  0  0
    0.4100   17.5780  -28.2380 C   0  0  0  0  0  0  0  0  0  0  0  0
    1.4710   18.3240  -28.8270 O   0  0  0  0  0  0  0  0  0  0  0  0
    1.2420   19.7230  -28.8490 C   0  0  0  0  0  0  0  0  0  0  0  0
   -0.2030   20.0720  -29.2390 C   0  0  0  0  0  0  0  0  0  0  0  0
   -0.7040   23.0790  -27.4980 C   0  0  0  0  0  0  0  0  0  0  0  0
   -0.5350   24.3890  -27.9540 C   0  0  0  0  0  0  0  0  0  0  0  0
   -1.4170   24.9250  -28.8970 C   0  0  0  0  0  0  0  0  0  0  0  0
   -1.2360   26.2270  -29.3480 O   0  0  0  0  0  0  0  0  0  0  0  0
   -5.9830   23.7630  -30.8830 C   0  0  0  0  0  0  0  0  0  0  0  0
   -7.3060   24.0500  -31.2450 C   0  0  0  0  0  0  0  0  0  0  0  0
   -8.0470   23.1260  -31.9830 C   0  0  0  0  0  0  0  0  0  0  0  0
   -7.4700   21.9170  -32.3750 C   0  0  0  0  0  0  0  0  0  0  0  0
   -6.1450   21.6220  -32.0250 C   0  0  0  0  0  0  0  0  0  0  0  0
   -5.3990   20.1160  -32.5670 S   0  0  0  0  0  0  0  0  0  0  0  0
   -5.0870   19.2610  -31.3700 O   0  0  0  0  0  0  0  0  0  0  0  0
   -6.3780   19.3640  -33.4270 O   0  0  0  0  0  0  0  0  0  0  0  0
   -3.9400   20.4000  -33.4950 N   0  0  0  0  0  0  0  0  0  0  0  0
   -2.9500   19.3390  -33.2800 C   0  0  0  0  0  0  0  0  0  0  0  0
   -1.8980   19.8430  -32.3030 C   0  0  0  0  0  0  0  0  0  0  0  0
   -2.1910   21.3150  -32.0970 C   0  0  0  0  0  0  0  0  0  0  0  0
   -3.2920   21.6520  -33.0900 C   0  0  0  0  0  0  0  0  0  0  0  0
   -5.4070   22.5440  -31.2690 C   0  0  0  0  0  0  0  0  0  0  0  0
   -3.4923   22.2317  -29.2887 H   0  0  0  0  0  0  0  0  0  0  0  0
   -0.1200   18.8870  -26.5957 H   0  0  0  0  0  0  0  0  0  0  0  0
   -1.4259   17.7546  -27.1101 H   0  0  0  0  0  0  0  0  0  0  0  0
    0.8510   16.8454  -27.5461 H   0  0  0  0  0  0  0  0  0  0  0  0
   -0.1402   17.1158  -29.0708 H   0  0  0  0  0  0  0  0  0  0  0  0
    1.4464   20.1306  -27.8479 H   0  0  0  0  0  0  0  0  0  0  0  0
    1.9096   20.1612  -29.6055 H   0  0  0  0  0  0  0  0  0  0  0  0
   -0.3226   21.1652  -29.2145 H   0  0  0  0  0  0  0  0  0  0  0  0
   -0.3871   19.6722  -30.2471 H   0  0  0  0  0  0  0  0  0  0  0  0
    0.0009   22.6580  -26.7659 H   0  0  0  0  0  0  0  0  0  0  0  0
    0.2947   25.0005  -27.5697 H   0  0  0  0  0  0  0  0  0  0  0  0
   -7.7615   25.0058  -30.9468 H   0  0  0  0  0  0  0  0  0  0  0  0
   -9.0884   23.3510  -32.2565 H   0  0  0  0  0  0  0  0  0  0  0  0
   -8.0567   21.1936  -32.9603 H   0  0  0  0  0  0  0  0  0  0  0  0
   -3.4455   18.4494  -32.8639 H   0  0  0  0  0  0  0  0  0  0  0  0
   -2.4756   19.0703  -34.2354 H   0  0  0  0  0  0  0  0  0  0  0  0
   -1.9720   19.3013  -31.3485 H   0  0  0  0  0  0  0  0  0  0  0  0
   -0.8804   19.6849  -32.6895 H   0  0  0  0  0  0  0  0  0  0  0  0
   -2.5321   21.4988  -31.0675 H   0  0  0  0  0  0  0  0  0  0  0  0
   -1.2961   21.9353  -32.2533 H   0  0  0  0  0  0  0  0  0  0  0  0
   -4.0294   22.3174  -32.6173 H   0  0  0  0  0  0  0  0  0  0  0  0
   -2.8699   22.1636  -33.9676 H   0  0  0  0  0  0  0  0  0  0  0  0
   -4.3724   22.3102  -30.9776 H   0  0  0  0  0  0  0  0  0  0  0  0
  1  2  2  0
  2  3  2  0
  2  4  1  0
  4  5  1  0
  5  6  2  0
  6  7  1  0
  7  8  1  0
  8  9  2  0
  8 10  2  0
  8 11  1  0
 11 12  1  0
 12 13  1  0
 13 14  1  0
 14 15  1  0
 15 16  1  0
  7 17  2  0
 17 18  1  0
 18 19  2  0
 19 20  1  0
  2 21  1  0
 21 22  2  0
 22 23  1  0
 23 24  2  0
 24 25  1  0
 25 26  1  0
 26 27  2  0
 26 28  2  0
 26 29  1  0
 29 30  1  0
 30 31  1  0
 31 32  1  0
 32 33  1  0
 25 34  2  0
 19  5  1  0
 34 21  1  0
 16 11  1  0
 33 29  1  0
  6 35  1  0
 12 36  1  0
 12 37  1  0
 13 38  1  0
 13 39  1  0
 15 40  1  0
 15 41  1  0
 16 42  1  0
 16 43  1  0
 17 44  1  0
 18 45  1  0
 22 46  1  0
 23 47  1  0
 24 48  1  0
 30 49  1  0
 30 50  1  0
 31 51  1  0
 31 52  1  0
 32 53  1  0
 32 54  1  0
 33 55  1  0
 33 56  1  0
 34 57  1  0
M  CHG  2   4  -1  20  -1
M  END
>  <UniqueID>  (27) 
26

>  <SMILES>  (27) 
O=S(=O)([N-]c1cc(S(=O)(=O)N2CCOCC2)ccc1[O-])c1cccc(S(=O)(=O)N2CCCC2)c1

>  <Energy>  (27) 
72.73268260148905

>  <Genealogy>  (27) 
O=S(=O)([N-]c1cc(S(=O)(=O)N2CCOCC2)ccc1[O-])c1cccc(S(=O)(=O)N2CCCC2)c1 (protonated)
O=S(=O)([N-]c1cc(S(=O)(=O)N2CCOCC2)ccc1[O-])c1cccc(S(=O)(=O)N2CCCC2)c1 (3D coordinates assigned)
O=S(=O)([N-]c1cc(S(=O)(=O)N2CCOCC2)ccc1[O-])c1cccc(S(=O)(=O)N2CCCC2)c1 (nonaromatic ring conformer: 72.73268260148905 kcal/mol)

>  <smiles>  (27) 
O=S(=O)(Nc1cc(S(=O)(=O)N2CCOCC2)ccc1O)c1cccc(S(=O)(=O)N2CCCC2)c1

>  <score_type>  (27) 
oracle

>  <origin>  (27) 
adgpu

>  <m_score__min__energy>  (27) 
-15.6

>  <m_primary>  (27) 
energy

$$$$
27:0
     RDKit          3D

 66 70  0  0  0  0  0  0  0  0999 V2000
    0.5895   13.0270  -31.3340 H   0  0  0  0  0  0  0  0  0  0  0  0
   -0.4710   13.2320  -31.5420 C   0  0  0  0  0  0  0  0  0  0  0  0
   -1.4280   12.3450  -31.1340 N   0  0  0  0  0  0  0  0  0  0  0  0
   -2.7550   12.5590  -31.3700 C   0  0  0  0  0  0  0  0  0  0  0  0
   -3.5089   11.8323  -31.0331 H   0  0  0  0  0  0  0  0  0  0  0  0
   -3.1360   13.7160  -32.0460 C   0  0  0  0  0  0  0  0  0  0  0  0
   -2.1910   14.6190  -32.4650 C   0  0  0  0  0  0  0  0  0  0  0  0
   -0.8350   14.4030  -32.2250 C   0  0  0  0  0  0  0  0  0  0  0  0
   -0.0760   15.1256  -32.5594 H   0  0  0  0  0  0  0  0  0  0  0  0
   -2.8280   15.7650  -33.1580 C   0  0  0  0  0  0  0  0  0  0  0  0
   -2.4803   15.8405  -34.1989 H   0  0  0  0  0  0  0  0  0  0  0  0
   -2.5907   16.7358  -32.6984 H   0  0  0  0  0  0  0  0  0  0  0  0
   -4.2530   15.4330  -33.1020 N   0  0  0  0  0  0  0  0  0  0  0  0
   -5.3030   16.2580  -33.6300 C   0  0  0  0  0  0  0  0  0  0  0  0
   -6.5020   15.8760  -33.5340 O   0  0  0  0  0  0  0  0  0  0  0  0
   -5.0030   17.5120  -34.2650 N   0  0  0  0  0  0  0  0  0  0  0  0
   -4.0100   17.7990  -34.4040 H   0  0  0  0  0  0  0  0  0  0  0  0
   -6.0470   18.4160  -34.7410 C   0  0  0  0  0  0  0  0  0  0  0  0
   -5.7333   18.8612  -35.6967 H   0  0  0  0  0  0  0  0  0  0  0  0
   -6.9781   17.8464  -34.8778 H   0  0  0  0  0  0  0  0  0  0  0  0
   -6.2870   19.5120  -33.7380 C   0  0  0  0  0  0  0  0  0  0  0  0
   -7.5600   19.6770  -33.1710 C   0  0  0  0  0  0  0  0  0  0  0  0
   -8.3765   18.9955  -33.4519 H   0  0  0  0  0  0  0  0  0  0  0  0
   -7.7960   20.7030  -32.2510 C   0  0  0  0  0  0  0  0  0  0  0  0
   -8.7958   20.8238  -31.8086 H   0  0  0  0  0  0  0  0  0  0  0  0
   -6.7620   21.5780  -31.8910 C   0  0  0  0  0  0  0  0  0  0  0  0
   -7.0390   22.8560  -30.7120 S   0  0  0  0  0  0  0  0  0  0  0  0
   -7.7160   22.3060  -29.4880 O   0  0  0  0  0  0  0  0  0  0  0  0
   -7.9360   23.8950  -31.3270 O   0  0  0  0  0  0  0  0  0  0  0  0
   -5.4960   23.5660  -30.2520 C   0  0  0  0  0  0  0  0  0  0  0  0
   -5.0400   24.7490  -30.8430 C   0  0  0  0  0  0  0  0  0  0  0  0
   -5.6514   25.2520  -31.6067 H   0  0  0  0  0  0  0  0  0  0  0  0
   -3.8440   25.2780  -30.4760 N   0  0  0  0  0  0  0  0  0  0  0  0
   -3.0480   24.6970  -29.5370 C   0  0  0  0  0  0  0  0  0  0  0  0
   -1.9140   25.2660  -29.2450 N   0  0  0  0  0  0  0  0  0  0  0  0
   -0.9310   24.7860  -28.2740 C   0  0  0  0  0  0  0  0  0  0  0  0
   -0.2769   25.6197  -27.9787 H   0  0  0  0  0  0  0  0  0  0  0  0
   -1.4622   24.3913  -27.3954 H   0  0  0  0  0  0  0  0  0  0  0  0
   -0.0770   23.6650  -28.8830 C   0  0  0  0  0  0  0  0  0  0  0  0
   -0.5371   23.3406  -29.8281 H   0  0  0  0  0  0  0  0  0  0  0  0
    0.9358   24.0602  -29.0507 H   0  0  0  0  0  0  0  0  0  0  0  0
    0.0290   22.4990  -27.9770 N   0  0  0  0  0  0  0  0  0  0  0  0
   -0.8760   22.6190  -26.8090 C   0  0  0  0  0  0  0  0  0  0  0  0
   -0.3832   23.2244  -26.0340 H   0  0  0  0  0  0  0  0  0  0  0  0
   -1.8097   23.0973  -27.1398 H   0  0  0  0  0  0  0  0  0  0  0  0
   -1.2170   21.2380  -26.2250 C   0  0  0  0  0  0  0  0  0  0  0  0
   -0.2807   20.7506  -25.9155 H   0  0  0  0  0  0  0  0  0  0  0  0
   -1.9011   21.4053  -25.3800 H   0  0  0  0  0  0  0  0  0  0  0  0
   -1.8870   20.3830  -27.1400 O   0  0  0  0  0  0  0  0  0  0  0  0
   -1.5720   20.6440  -28.5010 C   0  0  0  0  0  0  0  0  0  0  0  0
   -1.6485   19.7012  -29.0625 H   0  0  0  0  0  0  0  0  0  0  0  0
   -2.2847   21.4025  -28.8569 H   0  0  0  0  0  0  0  0  0  0  0  0
   -0.1600   21.2200  -28.7080 C   0  0  0  0  0  0  0  0  0  0  0  0
    0.5786   20.4902  -28.3447 H   0  0  0  0  0  0  0  0  0  0  0  0
   -0.0267   21.4181  -29.7818 H   0  0  0  0  0  0  0  0  0  0  0  0
   -3.4740   23.5030  -28.9210 C   0  0  0  0  0  0  0  0  0  0  0  0
   -2.8452   23.0145  -28.1620 H   0  0  0  0  0  0  0  0  0  0  0  0
   -4.7030   22.9460  -29.2840 C   0  0  0  0  0  0  0  0  0  0  0  0
   -5.0468   22.0168  -28.8061 H   0  0  0  0  0  0  0  0  0  0  0  0
   -5.4890   21.4150  -32.4530 C   0  0  0  0  0  0  0  0  0  0  0  0
   -4.6729   22.0957  -32.1692 H   0  0  0  0  0  0  0  0  0  0  0  0
   -5.2530   20.3890  -33.3740 C   0  0  0  0  0  0  0  0  0  0  0  0
   -4.2525   20.2688  -33.8151 H   0  0  0  0  0  0  0  0  0  0  0  0
   -4.5000   14.1620  -32.4160 C   0  0  0  0  0  0  0  0  0  0  0  0
   -4.9850   13.4377  -33.0869 H   0  0  0  0  0  0  0  0  0  0  0  0
   -5.1752   14.2578  -31.5529 H   0  0  0  0  0  0  0  0  0  0  0  0
  1  2  1  0
  2  3  2  0
  3  4  1  0
  4  5  1  0
  4  6  2  0
  6  7  1  0
  7  8  2  0
  8  9  1  0
  7 10  1  0
 10 11  1  0
 10 12  1  0
 10 13  1  0
 13 14  1  0
 14 15  2  0
 14 16  1  0
 16 17  1  0
 16 18  1  0
 18 19  1  0
 18 20  1  0
 18 21  1  0
 21 22  2  0
 22 23  1  0
 22 24  1  0
 24 25  1  0
 24 26  2  0
 26 27  1  0
 27 28  2  0
 27 29  2  0
 27 30  1  0
 30 31  2  0
 31 32  1  0
 31 33  1  0
 33 34  1  0
 34 35  2  0
 35 36  1  0
 36 37  1  0
 36 38  1  0
 36 39  1  0
 39 40  1  0
 39 41  1  0
 39 42  1  0
 42 43  1  0
 43 44  1  0
 43 45  1  0
 43 46  1  0
 46 47  1  0
 46 48  1  0
 46 49  1  0
 49 50  1  0
 50 51  1  0
 50 52  1  0
 50 53  1  0
 53 54  1  0
 53 55  1  0
 34 56  1  0
 56 57  1  0
 56 58  2  0
 58 59  1  0
 26 60  1  0
 60 61  1  0
 60 62  2  0
 62 63  1  0
 13 64  1  0
 64 65  1  0
 64 66  1  0
  8  2  1  0
 62 21  1  0
 64  6  1  0
 58 30  1  0
 53 42  1  0
M  CHG  1  33  -1
M  END
>  <UniqueID>  (28) 
27

>  <SMILES>  (28) 
O=C(NCc1ccc(S(=O)(=O)c2cc/c(=N\CCN3CCOCC3)[n-]c2)cc1)N1Cc2ccncc2C1

>  <Energy>  (28) 
96.85091542718017

>  <Genealogy>  (28) 
O=C(NCc1ccc(S(=O)(=O)c2ccc(=NCCN3CCOCC3)[n-]c2)cc1)N1Cc2ccncc2C1 (protonated)
O=C(NCc1ccc(S(=O)(=O)c2cc/c(=N\CCN3CCOCC3)[n-]c2)cc1)N1Cc2ccncc2C1 (cis-trans isomerization)
O=C(NCc1ccc(S(=O)(=O)c2cc/c(=N\CCN3CCOCC3)[n-]c2)cc1)N1Cc2ccncc2C1 (3D coordinates assigned)
O=C(NCc1ccc(S(=O)(=O)c2cc/c(=N\CCN3CCOCC3)[n-]c2)cc1)N1Cc2ccncc2C1 (nonaromatic ring conformer: 96.85091542718017 kcal/mol)

>  <smiles>  (28) 
O=C(NCc1ccc(S(=O)(=O)c2ccc(=NCCN3CCOCC3)[nH]c2)cc1)N1Cc2ccncc2C1

>  <score_type>  (28) 
oracle

>  <origin>  (28) 
adgpu

>  <m_score__min__energy>  (28) 
-12.15

>  <m_primary>  (28) 
energy

$$$$
28:0
     RDKit          3D

 35 36  0  0  0  0  0  0  0  0999 V2000
   -0.0620   19.9960  -31.6750 C   0  0  0  0  0  0  0  0  0  0  0  0
    0.7190   20.5280  -32.7870 N   0  0  0  0  0  0  0  0  0  0  0  0
   -0.3210   20.8330  -34.1450 S   0  0  0  0  0  0  0  0  0  0  0  0
   -0.1120   22.2380  -34.6390 O   0  0  0  0  0  0  0  0  0  0  0  0
    0.0310   19.8840  -35.2550 O   0  0  0  0  0  0  0  0  0  0  0  0
   -2.0100   20.5990  -33.6970 C   0  0  0  0  0  0  0  0  0  0  0  0
   -2.6860   19.4440  -34.0930 C   0  0  0  0  0  0  0  0  0  0  0  0
   -4.0230   19.2570  -33.7440 C   0  0  0  0  0  0  0  0  0  0  0  0
   -4.7070   20.2160  -32.9690 C   0  0  0  0  0  0  0  0  0  0  0  0
   -6.1140   20.0560  -32.7020 N   0  0  0  0  0  0  0  0  0  0  0  0
   -6.8590   18.8520  -33.0530 C   0  0  0  0  0  0  0  0  0  0  0  0
   -4.0000   21.3560  -32.5090 C   0  0  0  0  0  0  0  0  0  0  0  0
   -4.7400   22.5510  -31.4260 S   0  0  0  0  0  0  0  0  0  0  0  0
   -5.7990   21.9090  -30.5740 O   0  0  0  0  0  0  0  0  0  0  0  0
   -5.3600   23.6220  -32.2790 O   0  0  0  0  0  0  0  0  0  0  0  0
   -3.5440   23.2420  -30.3260 C   0  0  0  0  0  0  0  0  0  0  0  0
   -2.7330   22.5190  -29.4800 C   0  0  0  0  0  0  0  0  0  0  0  0
   -1.9800   23.4420  -28.7850 C   0  0  0  0  0  0  0  0  0  0  0  0
   -2.3010   24.7010  -29.1450 N   0  0  0  0  0  0  0  0  0  0  0  0
   -3.2630   24.5750  -30.0780 C   0  0  0  0  0  0  0  0  0  0  0  0
   -3.8790   25.6760  -30.6650 O   0  0  0  0  0  0  0  0  0  0  0  0
   -2.6700   21.5520  -32.9150 C   0  0  0  0  0  0  0  0  0  0  0  0
    0.3949   20.3072  -30.7240 H   0  0  0  0  0  0  0  0  0  0  0  0
   -1.0904   20.3822  -31.7314 H   0  0  0  0  0  0  0  0  0  0  0  0
   -0.0792   18.8976  -31.7314 H   0  0  0  0  0  0  0  0  0  0  0  0
   -2.1618   18.6778  -34.6830 H   0  0  0  0  0  0  0  0  0  0  0  0
   -4.5502   18.3509  -34.0771 H   0  0  0  0  0  0  0  0  0  0  0  0
   -6.6430   20.8250  -32.2340 H   0  0  0  0  0  0  0  0  0  0  0  0
   -7.1776   18.3372  -32.1346 H   0  0  0  0  0  0  0  0  0  0  0  0
   -7.7444   19.1281  -33.6445 H   0  0  0  0  0  0  0  0  0  0  0  0
   -6.2169   18.1829  -33.6445 H   0  0  0  0  0  0  0  0  0  0  0  0
   -2.6936   21.4244  -29.3788 H   0  0  0  0  0  0  0  0  0  0  0  0
   -1.2174   23.1847  -28.0352 H   0  0  0  0  0  0  0  0  0  0  0  0
   -4.2140   25.6650  -31.6190 H   0  0  0  0  0  0  0  0  0  0  0  0
   -2.1402   22.4677  -32.6137 H   0  0  0  0  0  0  0  0  0  0  0  0
  1  2  1  0
  2  3  1  0
  3  4  2  0
  3  5  2  0
  3  6  1  0
  6  7  2  0
  7  8  1  0
  8  9  2  0
  9 10  1  0
 10 11  1  0
  9 12  1  0
 12 13  1  0
 13 14  2  0
 13 15  2  0
 13 16  1  0
 16 17  1  0
 17 18  2  0
 18 19  1  0
 19 20  1  0
 20 21  1  0
 12 22  2  0
 22  6  1  0
 20 16  2  0
  1 23  1  0
  1 24  1  0
  1 25  1  0
  7 26  1  0
  8 27  1  0
 10 28  1  0
 11 29  1  0
 11 30  1  0
 11 31  1  0
 17 32  1  0
 18 33  1  0
 21 34  1  0
 22 35  1  0
M  CHG  2   2  -1  19  -1
M  END
>  <UniqueID>  (29) 
28

>  <SMILES>  (29) 
C[N-]S(=O)(=O)c1ccc(NC)c(S(=O)(=O)c2cc[n-]c2O)c1

>  <Energy>  (29) 
64.06126813245422

>  <Genealogy>  (29) 
C[N-]S(=O)(=O)c1ccc(NC)c(S(=O)(=O)c2cc[n-]c2O)c1 (protonated)
C[N-]S(=O)(=O)c1ccc(NC)c(S(=O)(=O)c2cc[n-]c2O)c1 (3D coordinates assigned)
C[N-]S(=O)(=O)c1ccc(NC)c(S(=O)(=O)c2cc[n-]c2O)c1 (optimized conformer: 64.06126813245422 kcal/mol)

>  <smiles>  (29) 
CNc1ccc(S(=O)(=O)NC)cc1S(=O)(=O)c1cc[nH]c1O

>  <score_type>  (29) 
oracle

>  <origin>  (29) 
adgpu

>  <m_score__min__energy>  (29) 
-9.3499999999999996

>  <m_primary>  (29) 
energy

$$$$
29:0
     RDKit          3D

 55 58  0  0  0  0  0  0  0  0999 V2000
   -5.2110   26.1200  -30.1830 O   0  0  0  0  0  0  0  0  0  0  0  0
   -4.6410   25.0480  -30.5160 C   0  0  0  0  0  0  0  0  0  0  0  0
   -3.2180   24.9120  -30.3860 N   0  0  0  0  0  0  0  0  0  0  0  0
   -2.4860   24.2110  -29.3690 C   0  0  0  0  0  0  0  0  0  0  0  0
   -2.6130   22.8220  -29.1670 C   0  0  0  0  0  0  0  0  0  0  0  0
   -1.8340   22.1680  -28.2040 C   0  0  0  0  0  0  0  0  0  0  0  0
   -1.9700   20.4220  -28.0140 S   0  0  0  0  0  0  0  0  0  0  0  0
   -3.4120   20.0160  -27.8830 O   0  0  0  0  0  0  0  0  0  0  0  0
   -1.2450   20.0160  -26.7640 O   0  0  0  0  0  0  0  0  0  0  0  0
   -1.2480   19.6070  -29.3660 N   0  0  0  0  0  0  0  0  0  0  0  0
   -0.3710   20.5140  -30.0990 C   0  0  0  0  0  0  0  0  0  0  0  0
   -1.0020   20.8330  -31.4130 C   0  0  0  0  0  0  0  0  0  0  0  0
   -2.3670   20.9320  -31.6490 C   0  0  0  0  0  0  0  0  0  0  0  0
   -2.6820   21.1180  -32.9970 C   0  0  0  0  0  0  0  0  0  0  0  0
   -1.5700   21.1550  -33.8300 C   0  0  0  0  0  0  0  0  0  0  0  0
   -0.1910   20.9470  -32.8830 S   0  0  0  0  0  0  0  0  0  0  0  0
   -0.9430   22.9080  -27.4130 C   0  0  0  0  0  0  0  0  0  0  0  0
   -0.8460   24.2930  -27.5770 C   0  0  0  0  0  0  0  0  0  0  0  0
   -1.6210   24.9470  -28.5450 C   0  0  0  0  0  0  0  0  0  0  0  0
   -1.5210   26.3290  -28.7060 O   0  0  0  0  0  0  0  0  0  0  0  0
   -5.4470   23.8940  -30.9810 C   0  0  0  0  0  0  0  0  0  0  0  0
   -5.2100   22.6050  -30.4670 C   0  0  0  0  0  0  0  0  0  0  0  0
   -6.0050   21.5260  -30.8660 C   0  0  0  0  0  0  0  0  0  0  0  0
   -7.0430   21.7150  -31.7870 C   0  0  0  0  0  0  0  0  0  0  0  0
   -8.0740   20.3590  -32.2330 S   0  0  0  0  0  0  0  0  0  0  0  0
   -9.3960   20.8690  -32.7420 O   0  0  0  0  0  0  0  0  0  0  0  0
   -8.3080   19.5220  -31.0060 O   0  0  0  0  0  0  0  0  0  0  0  0
   -7.2870   19.4020  -33.4700 N   0  0  0  0  0  0  0  0  0  0  0  0
   -7.2710   17.9860  -33.0910 C   0  0  0  0  0  0  0  0  0  0  0  0
   -5.9400   17.6900  -32.4090 C   0  0  0  0  0  0  0  0  0  0  0  0
   -5.0600   18.8930  -32.6870 C   0  0  0  0  0  0  0  0  0  0  0  0
   -5.8790   19.7890  -33.6040 C   0  0  0  0  0  0  0  0  0  0  0  0
   -7.2800   22.9930  -32.3060 C   0  0  0  0  0  0  0  0  0  0  0  0
   -6.4850   24.0740  -31.9130 C   0  0  0  0  0  0  0  0  0  0  0  0
   -3.3301   22.2465  -29.7708 H   0  0  0  0  0  0  0  0  0  0  0  0
   -0.2302   21.4397  -29.5217 H   0  0  0  0  0  0  0  0  0  0  0  0
    0.6085   20.0398  -30.2592 H   0  0  0  0  0  0  0  0  0  0  0  0
   -3.1244   20.8701  -30.8537 H   0  0  0  0  0  0  0  0  0  0  0  0
   -3.7132   21.2251  -33.3648 H   0  0  0  0  0  0  0  0  0  0  0  0
   -1.5869   21.2959  -34.9208 H   0  0  0  0  0  0  0  0  0  0  0  0
   -0.3201   22.3983  -26.6631 H   0  0  0  0  0  0  0  0  0  0  0  0
   -0.1583   24.8724  -26.9435 H   0  0  0  0  0  0  0  0  0  0  0  0
   -2.3200   26.8930  -28.9670 H   0  0  0  0  0  0  0  0  0  0  0  0
   -4.3940   22.4455  -29.7467 H   0  0  0  0  0  0  0  0  0  0  0  0
   -5.8142   20.5239  -30.4545 H   0  0  0  0  0  0  0  0  0  0  0  0
   -8.0991   17.7767  -32.3979 H   0  0  0  0  0  0  0  0  0  0  0  0
   -7.3900   17.3528  -33.9826 H   0  0  0  0  0  0  0  0  0  0  0  0
   -6.0840   17.5623  -31.3260 H   0  0  0  0  0  0  0  0  0  0  0  0
   -5.4883   16.7607  -32.7864 H   0  0  0  0  0  0  0  0  0  0  0  0
   -4.8188   19.4180  -31.7509 H   0  0  0  0  0  0  0  0  0  0  0  0
   -4.1034   18.6029  -33.1460 H   0  0  0  0  0  0  0  0  0  0  0  0
   -5.7508   20.8414  -33.3107 H   0  0  0  0  0  0  0  0  0  0  0  0
   -5.5476   19.6763  -34.6468 H   0  0  0  0  0  0  0  0  0  0  0  0
   -8.0962   23.1479  -33.0270 H   0  0  0  0  0  0  0  0  0  0  0  0
   -6.6726   25.0721  -32.3356 H   0  0  0  0  0  0  0  0  0  0  0  0
  1  2  2  0
  2  3  1  0
  3  4  1  0
  4  5  2  0
  5  6  1  0
  6  7  1  0
  7  8  2  0
  7  9  2  0
  7 10  1  0
 10 11  1  0
 11 12  1  0
 12 13  2  0
 13 14  1  0
 14 15  2  0
 15 16  1  0
  6 17  2  0
 17 18  1  0
 18 19  2  0
 19 20  1  0
  2 21  1  0
 21 22  2  0
 22 23  1  0
 23 24  2  0
 24 25  1  0
 25 26  2  0
 25 27  2  0
 25 28  1  0
 28 29  1  0
 29 30  1  0
 30 31  1  0
 31 32  1  0
 24 33  1  0
 33 34  2  0
 19  4  1  0
 34 21  1  0
 16 12  1  0
 32 28  1  0
  5 35  1  0
 11 36  1  0
 11 37  1  0
 13 38  1  0
 14 39  1  0
 15 40  1  0
 17 41  1  0
 18 42  1  0
 20 43  1  0
 22 44  1  0
 23 45  1  0
 29 46  1  0
 29 47  1  0
 30 48  1  0
 30 49  1  0
 31 50  1  0
 31 51  1  0
 32 52  1  0
 32 53  1  0
 33 54  1  0
 34 55  1  0
M  CHG  2   3  -1  10  -1
M  END
>  <UniqueID>  (30) 
29

>  <SMILES>  (30) 
O=C([N-]c1cc(S(=O)(=O)[N-]Cc2cccs2)ccc1O)c1ccc(S(=O)(=O)N2CCCC2)cc1

>  <Energy>  (30) 
87.2296527310287

>  <Genealogy>  (30) 
O=C([N-]c1cc(S(=O)(=O)[N-]Cc2cccs2)ccc1O)c1ccc(S(=O)(=O)N2CCCC2)cc1 (protonated)
O=C([N-]c1cc(S(=O)(=O)[N-]Cc2cccs2)ccc1O)c1ccc(S(=O)(=O)N2CCCC2)cc1 (3D coordinates assigned)
O=C([N-]c1cc(S(=O)(=O)[N-]Cc2cccs2)ccc1O)c1ccc(S(=O)(=O)N2CCCC2)cc1 (nonaromatic ring conformer: 87.2296527310287 kcal/mol)

>  <smiles>  (30) 
O=C(Nc1cc(S(=O)(=O)NCc2cccs2)ccc1O)c1ccc(S(=O)(=O)N2CCCC2)cc1

>  <score_type>  (30) 
oracle

>  <origin>  (30) 
adgpu

>  <m_score__min__energy>  (30) 
-12.449999999999999

>  <m_primary>  (30) 
energy

$$$$
30:0
     RDKit          3D

 61 64  0  0  0  0  0  0  0  0999 V2000
   -1.1290   26.0880  -24.6450 C   0  0  0  0  0  0  0  0  0  0  0  0
   -1.1790   25.1340  -25.8030 C   0  0  0  0  0  0  0  0  0  0  0  0
   -0.5380   23.8890  -25.7260 C   0  0  0  0  0  0  0  0  0  0  0  0
   -0.5770   23.0090  -26.8110 C   0  0  0  0  0  0  0  0  0  0  0  0
   -1.2350   23.3740  -27.9870 C   0  0  0  0  0  0  0  0  0  0  0  0
   -1.8430   24.6330  -28.0980 C   0  0  0  0  0  0  0  0  0  0  0  0
   -2.5190   24.9870  -29.3150 N   0  0  0  0  0  0  0  0  0  0  0  0
   -3.8260   24.5170  -29.6640 C   0  0  0  0  0  0  0  0  0  0  0  0
   -4.6030   24.0730  -28.7750 O   0  0  0  0  0  0  0  0  0  0  0  0
   -4.2550   24.5770  -31.0260 N   0  0  0  0  0  0  0  0  0  0  0  0
   -5.3480   23.7700  -31.5570 C   0  0  0  0  0  0  0  0  0  0  0  0
   -4.8390   22.4280  -32.0300 C   0  0  0  0  0  0  0  0  0  0  0  0
   -3.4760   22.2790  -32.3430 C   0  0  0  0  0  0  0  0  0  0  0  0
   -2.9770   21.0540  -32.8050 C   0  0  0  0  0  0  0  0  0  0  0  0
   -1.2650   20.8830  -33.1940 S   0  0  0  0  0  0  0  0  0  0  0  0
   -0.8890   21.9320  -34.2030 O   0  0  0  0  0  0  0  0  0  0  0  0
   -1.0450   19.5390  -33.8320 O   0  0  0  0  0  0  0  0  0  0  0  0
   -0.2210   21.0240  -31.7940 N   0  0  0  0  0  0  0  0  0  0  0  0
   -0.9010   21.5630  -30.5990 C   0  0  0  0  0  0  0  0  0  0  0  0
   -1.4840   20.4630  -29.7000 C   0  0  0  0  0  0  0  0  0  0  0  0
   -0.5020   19.5000  -29.3890 O   0  0  0  0  0  0  0  0  0  0  0  0
   -0.1160   18.8390  -30.5730 C   0  0  0  0  0  0  0  0  0  0  0  0
    0.5800   19.8110  -31.5350 C   0  0  0  0  0  0  0  0  0  0  0  0
   -3.8380   19.9580  -32.9270 C   0  0  0  0  0  0  0  0  0  0  0  0
   -5.1920   20.0950  -32.6290 C   0  0  0  0  0  0  0  0  0  0  0  0
   -5.7040   21.3220  -32.1850 C   0  0  0  0  0  0  0  0  0  0  0  0
   -7.1100   21.4390  -31.9290 N   0  0  0  0  0  0  0  0  0  0  0  0
   -8.1000   20.6880  -32.6750 C   0  0  0  0  0  0  0  0  0  0  0  0
   -9.4330   21.0130  -32.0150 C   0  0  0  0  0  0  0  0  0  0  0  0
   -9.0870   21.5530  -30.6290 C   0  0  0  0  0  0  0  0  0  0  0  0
   -7.6410   22.0300  -30.7150 C   0  0  0  0  0  0  0  0  0  0  0  0
   -1.8250   25.5060  -26.9920 C   0  0  0  0  0  0  0  0  0  0  0  0
   -1.1587   25.5221  -23.7022 H   0  0  0  0  0  0  0  0  0  0  0  0
   -0.1989   26.6735  -24.6921 H   0  0  0  0  0  0  0  0  0  0  0  0
   -1.9928   26.7675  -24.6921 H   0  0  0  0  0  0  0  0  0  0  0  0
   -0.0026   23.6041  -24.8083 H   0  0  0  0  0  0  0  0  0  0  0  0
   -0.0880   22.0263  -26.7383 H   0  0  0  0  0  0  0  0  0  0  0  0
   -1.2768   22.6701  -28.8313 H   0  0  0  0  0  0  0  0  0  0  0  0
   -2.0500   25.6520  -29.9710 H   0  0  0  0  0  0  0  0  0  0  0  0
   -6.0984   23.6141  -30.7679 H   0  0  0  0  0  0  0  0  0  0  0  0
   -5.7967   24.2993  -32.4105 H   0  0  0  0  0  0  0  0  0  0  0  0
   -2.7940   23.1338  -32.2238 H   0  0  0  0  0  0  0  0  0  0  0  0
   -0.1746   22.1466  -30.0144 H   0  0  0  0  0  0  0  0  0  0  0  0
   -1.7386   22.1855  -30.9468 H   0  0  0  0  0  0  0  0  0  0  0  0
   -1.8530   20.9163  -28.7681 H   0  0  0  0  0  0  0  0  0  0  0  0
   -2.3071   19.9679  -30.2360 H   0  0  0  0  0  0  0  0  0  0  0  0
    0.5766   18.0223  -30.3212 H   0  0  0  0  0  0  0  0  0  0  0  0
   -1.0155   18.4391  -31.0639 H   0  0  0  0  0  0  0  0  0  0  0  0
    1.5430   20.1116  -31.0966 H   0  0  0  0  0  0  0  0  0  0  0  0
    0.7161   19.2903  -32.4943 H   0  0  0  0  0  0  0  0  0  0  0  0
   -3.4449   18.9858  -33.2590 H   0  0  0  0  0  0  0  0  0  0  0  0
   -5.8653   19.2326  -32.7432 H   0  0  0  0  0  0  0  0  0  0  0  0
   -8.1061   21.0004  -33.7297 H   0  0  0  0  0  0  0  0  0  0  0  0
   -7.8895   19.6084  -32.6637 H   0  0  0  0  0  0  0  0  0  0  0  0
   -9.9747   21.7722  -32.5982 H   0  0  0  0  0  0  0  0  0  0  0  0
  -10.0830   20.1276  -31.9552 H   0  0  0  0  0  0  0  0  0  0  0  0
   -9.7511   22.3901  -30.3678 H   0  0  0  0  0  0  0  0  0  0  0  0
   -9.2129   20.7837  -29.8529 H   0  0  0  0  0  0  0  0  0  0  0  0
   -7.6010   23.1278  -30.7724 H   0  0  0  0  0  0  0  0  0  0  0  0
   -7.0601   21.7343  -29.8289 H   0  0  0  0  0  0  0  0  0  0  0  0
   -2.3206   26.4856  -27.0611 H   0  0  0  0  0  0  0  0  0  0  0  0
  1  2  1  0
  2  3  2  0
  3  4  1  0
  4  5  2  0
  5  6  1  0
  6  7  1  0
  7  8  1  0
  8  9  2  0
  8 10  1  0
 10 11  1  0
 11 12  1  0
 12 13  2  0
 13 14  1  0
 14 15  1  0
 15 16  2  0
 15 17  2  0
 15 18  1  0
 18 19  1  0
 19 20  1  0
 20 21  1  0
 21 22  1  0
 22 23  1  0
 14 24  2  0
 24 25  1  0
 25 26  2  0
 26 27  1  0
 27 28  1  0
 28 29  1  0
 29 30  1  0
 30 31  1  0
  6 32  2  0
 32  2  1  0
 26 12  1  0
 31 27  1  0
 23 18  1  0
  1 33  1  0
  1 34  1  0
  1 35  1  0
  3 36  1  0
  4 37  1  0
  5 38  1  0
  7 39  1  0
 11 40  1  0
 11 41  1  0
 13 42  1  0
 19 43  1  0
 19 44  1  0
 20 45  1  0
 20 46  1  0
 22 47  1  0
 22 48  1  0
 23 49  1  0
 23 50  1  0
 24 51  1  0
 25 52  1  0
 28 53  1  0
 28 54  1  0
 29 55  1  0
 29 56  1  0
 30 57  1  0
 30 58  1  0
 31 59  1  0
 31 60  1  0
 32 61  1  0
M  CHG  1  10  -1
M  END
>  <UniqueID>  (31) 
30

>  <SMILES>  (31) 
Cc1cccc(NC(=O)[N-]Cc2cc(S(=O)(=O)N3CCOCC3)ccc2N2CCCC2)c1

>  <Energy>  (31) 
70.77323624327829

>  <Genealogy>  (31) 
Cc1cccc(NC(=O)[N-]Cc2cc(S(=O)(=O)N3CCOCC3)ccc2N2CCCC2)c1 (protonated)
Cc1cccc(NC(=O)[N-]Cc2cc(S(=O)(=O)N3CCOCC3)ccc2N2CCCC2)c1 (3D coordinates assigned)
Cc1cccc(NC(=O)[N-]Cc2cc(S(=O)(=O)N3CCOCC3)ccc2N2CCCC2)c1 (nonaromatic ring conformer: 70.77323624327829 kcal/mol)

>  <smiles>  (31) 
Cc1cccc(NC(=O)NCc2cc(S(=O)(=O)N3CCOCC3)ccc2N2CCCC2)c1

>  <score_type>  (31) 
oracle

>  <origin>  (31) 
adgpu

>  <m_score__min__energy>  (31) 
-11.07

>  <m_primary>  (31) 
energy

$$$$
31:0
     RDKit          3D

 47 51  0  0  0  0  0  0  0  0999 V2000
   -8.6680   19.2440  -31.5190 O   0  0  0  0  0  0  0  0  0  0  0  0
   -7.5530   19.6260  -31.9710 C   0  0  0  0  0  0  0  0  0  0  0  0
   -6.7550   18.7250  -32.8350 C   0  0  0  0  0  0  0  0  0  0  0  0
   -7.2210   17.4310  -33.1390 C   0  0  0  0  0  0  0  0  0  0  0  0
   -6.4660   16.5820  -33.9510 C   0  0  0  0  0  0  0  0  0  0  0  0
   -5.2380   17.0100  -34.4640 C   0  0  0  0  0  0  0  0  0  0  0  0
   -4.7610   18.2910  -34.1660 C   0  0  0  0  0  0  0  0  0  0  0  0
   -5.5150   19.1590  -33.3540 C   0  0  0  0  0  0  0  0  0  0  0  0
   -5.0160   20.5160  -33.0330 C   0  0  0  0  0  0  0  0  0  0  0  0
   -3.9170   20.9150  -33.5100 O   0  0  0  0  0  0  0  0  0  0  0  0
   -5.7980   21.4030  -32.1420 C   0  0  0  0  0  0  0  0  0  0  0  0
   -5.2950   22.6610  -31.7700 C   0  0  0  0  0  0  0  0  0  0  0  0
   -5.9860   23.4660  -30.8570 C   0  0  0  0  0  0  0  0  0  0  0  0
   -5.2060   24.9140  -30.2190 S   0  0  0  0  0  0  0  0  0  0  0  0
   -4.1120   25.3240  -31.1650 O   0  0  0  0  0  0  0  0  0  0  0  0
   -6.1970   26.0390  -30.0850 O   0  0  0  0  0  0  0  0  0  0  0  0
   -4.5130   24.5750  -28.6620 N   0  0  0  0  0  0  0  0  0  0  0  0
   -3.3490   23.7580  -28.4630 C   0  0  0  0  0  0  0  0  0  0  0  0
   -3.4500   22.4560  -27.9470 C   0  0  0  0  0  0  0  0  0  0  0  0
   -2.3350   21.6020  -27.9380 C   0  0  0  0  0  0  0  0  0  0  0  0
   -1.0790   22.0880  -28.3540 C   0  0  0  0  0  0  0  0  0  0  0  0
   -0.9690   23.4130  -28.8040 C   0  0  0  0  0  0  0  0  0  0  0  0
   -2.0960   24.2430  -28.8580 C   0  0  0  0  0  0  0  0  0  0  0  0
   -1.9710   25.5420  -29.3360 O   0  0  0  0  0  0  0  0  0  0  0  0
    0.1250   21.1710  -28.4370 C   0  0  0  0  0  0  0  0  0  0  0  0
   -0.0390   19.9430  -27.6440 N   0  0  0  0  0  0  0  0  0  0  0  0
   -1.3340   19.3060  -27.9220 C   0  0  0  0  0  0  0  0  0  0  0  0
   -2.4870   20.1930  -27.4370 C   0  0  0  0  0  0  0  0  0  0  0  0
   -7.2260   23.0450  -30.3650 C   0  0  0  0  0  0  0  0  0  0  0  0
   -7.7510   21.8090  -30.7480 C   0  0  0  0  0  0  0  0  0  0  0  0
   -7.0360   20.9690  -31.6200 C   0  0  0  0  0  0  0  0  0  0  0  0
   -8.1846   17.0874  -32.7347 H   0  0  0  0  0  0  0  0  0  0  0  0
   -6.8383   15.5743  -34.1875 H   0  0  0  0  0  0  0  0  0  0  0  0
   -4.6458   16.3385  -35.1030 H   0  0  0  0  0  0  0  0  0  0  0  0
   -3.7920   18.6215  -34.5682 H   0  0  0  0  0  0  0  0  0  0  0  0
   -4.3477   23.0172  -32.2010 H   0  0  0  0  0  0  0  0  0  0  0  0
   -4.4111   22.1017  -27.5462 H   0  0  0  0  0  0  0  0  0  0  0  0
    0.0108   23.8029  -29.1170 H   0  0  0  0  0  0  0  0  0  0  0  0
    0.2823   20.8917  -29.4892 H   0  0  0  0  0  0  0  0  0  0  0  0
    0.9870   21.7177  -28.0271 H   0  0  0  0  0  0  0  0  0  0  0  0
    0.0130   20.1850  -26.6230 H   0  0  0  0  0  0  0  0  0  0  0  0
   -1.4326   19.1454  -29.0057 H   0  0  0  0  0  0  0  0  0  0  0  0
   -1.3779   18.3446  -27.3893 H   0  0  0  0  0  0  0  0  0  0  0  0
   -3.4373   19.7809  -27.8072 H   0  0  0  0  0  0  0  0  0  0  0  0
   -2.4749   20.2106  -26.3372 H   0  0  0  0  0  0  0  0  0  0  0  0
   -7.7893   23.6896  -29.6742 H   0  0  0  0  0  0  0  0  0  0  0  0
   -8.7314   21.4900  -30.3646 H   0  0  0  0  0  0  0  0  0  0  0  0
  1  2  2  0
  2  3  1  0
  3  4  2  0
  4  5  1  0
  5  6  2  0
  6  7  1  0
  7  8  2  0
  8  9  1  0
  9 10  2  0
  9 11  1  0
 11 12  2  0
 12 13  1  0
 13 14  1  0
 14 15  2  0
 14 16  2  0
 14 17  1  0
 17 18  1  0
 18 19  2  0
 19 20  1  0
 20 21  2  0
 21 22  1  0
 22 23  2  0
 23 24  1  0
 21 25  1  0
 25 26  1  0
 26 27  1  0
 27 28  1  0
 13 29  2  0
 29 30  1  0
 30 31  2  0
 31  2  1  0
  8  3  1  0
 31 11  1  0
 23 18  1  0
 28 20  1  0
  4 32  1  0
  5 33  1  0
  6 34  1  0
  7 35  1  0
 12 36  1  0
 19 37  1  0
 22 38  1  0
 25 39  1  0
 25 40  1  0
 26 41  1  0
 27 42  1  0
 27 43  1  0
 28 44  1  0
 28 45  1  0
 29 46  1  0
 30 47  1  0
M  CHG  2  17  -1  24  -1
M  END
>  <UniqueID>  (32) 
31

>  <SMILES>  (32) 
O=C1c2ccccc2C(=O)c2cc(S(=O)(=O)[N-]c3cc4c(cc3[O-])CNCC4)ccc21

>  <Energy>  (32) 
64.05682463710204

>  <Genealogy>  (32) 
O=C1c2ccccc2C(=O)c2cc(S(=O)(=O)[N-]c3cc4c(cc3[O-])CNCC4)ccc21 (protonated)
O=C1c2ccccc2C(=O)c2cc(S(=O)(=O)[N-]c3cc4c(cc3[O-])CNCC4)ccc21 (3D coordinates assigned)
O=C1c2ccccc2C(=O)c2cc(S(=O)(=O)[N-]c3cc4c(cc3[O-])CNCC4)ccc21 (nonaromatic ring conformer: 64.05682463710204 kcal/mol)

>  <smiles>  (32) 
O=C1c2ccccc2C(=O)c2cc(S(=O)(=O)Nc3cc4c(cc3O)CNCC4)ccc21

>  <score_type>  (32) 
oracle

>  <origin>  (32) 
adgpu

>  <m_score__min__energy>  (32) 
-16.59

>  <m_primary>  (32) 
energy

$$$$
32:0
     RDKit          3D

 54 57  0  0  0  0  0  0  0  0999 V2000
   -1.2360   25.7100  -28.9020 O   0  0  0  0  0  0  0  0  0  0  0  0
   -2.2200   24.9250  -28.9800 C   0  0  0  0  0  0  0  0  0  0  0  0
   -3.0970   24.9730  -30.1150 N   0  0  0  0  0  0  0  0  0  0  0  0
   -4.3170   24.2380  -30.2850 C   0  0  0  0  0  0  0  0  0  0  0  0
   -5.5790   24.8480  -30.1780 C   0  0  0  0  0  0  0  0  0  0  0  0
   -6.7420   24.0980  -30.3750 C   0  0  0  0  0  0  0  0  0  0  0  0
   -6.6600   22.7360  -30.6880 C   0  0  0  0  0  0  0  0  0  0  0  0
   -8.1290   21.8040  -30.9620 S   0  0  0  0  0  0  0  0  0  0  0  0
   -9.0170   21.8930  -29.7500 O   0  0  0  0  0  0  0  0  0  0  0  0
   -8.8680   22.3780  -32.1380 O   0  0  0  0  0  0  0  0  0  0  0  0
   -7.7080   20.1430  -31.2900 N   0  0  0  0  0  0  0  0  0  0  0  0
   -6.9720   20.0060  -32.5480 C   0  0  0  0  0  0  0  0  0  0  0  0
   -7.2430   18.5980  -33.0600 C   0  0  0  0  0  0  0  0  0  0  0  0
   -8.5010   18.1380  -32.3380 C   0  0  0  0  0  0  0  0  0  0  0  0
   -8.8950   19.2960  -31.4290 C   0  0  0  0  0  0  0  0  0  0  0  0
   -5.4020   22.1340  -30.8250 C   0  0  0  0  0  0  0  0  0  0  0  0
   -4.2390   22.8830  -30.6310 C   0  0  0  0  0  0  0  0  0  0  0  0
   -2.5270   24.0160  -27.8150 C   0  0  0  0  0  0  0  0  0  0  0  0
   -2.1780   22.5620  -28.0930 C   0  0  0  0  0  0  0  0  0  0  0  0
   -1.0680   22.1950  -28.8810 C   0  0  0  0  0  0  0  0  0  0  0  0
   -0.7560   20.8470  -29.0830 C   0  0  0  0  0  0  0  0  0  0  0  0
   -1.5390   19.8510  -28.4950 C   0  0  0  0  0  0  0  0  0  0  0  0
   -2.6320   20.2010  -27.6990 C   0  0  0  0  0  0  0  0  0  0  0  0
   -2.9470   21.5470  -27.4930 C   0  0  0  0  0  0  0  0  0  0  0  0
   -1.8840   24.5070  -26.5300 C   0  0  0  0  0  0  0  0  0  0  0  0
   -0.9100   23.7410  -25.8580 C   0  0  0  0  0  0  0  0  0  0  0  0
   -0.3130   24.2200  -24.6870 C   0  0  0  0  0  0  0  0  0  0  0  0
   -0.6740   25.4700  -24.1780 C   0  0  0  0  0  0  0  0  0  0  0  0
   -1.6300   26.2430  -24.8400 C   0  0  0  0  0  0  0  0  0  0  0  0
   -2.2290   25.7690  -26.0100 C   0  0  0  0  0  0  0  0  0  0  0  0
   -5.6515   25.9191  -29.9384 H   0  0  0  0  0  0  0  0  0  0  0  0
   -7.7264   24.5803  -30.2836 H   0  0  0  0  0  0  0  0  0  0  0  0
   -7.1170   19.7860  -30.5020 H   0  0  0  0  0  0  0  0  0  0  0  0
   -7.3256   20.7496  -33.2774 H   0  0  0  0  0  0  0  0  0  0  0  0
   -5.8952   20.1728  -32.3975 H   0  0  0  0  0  0  0  0  0  0  0  0
   -7.4064   18.6093  -34.1477 H   0  0  0  0  0  0  0  0  0  0  0  0
   -6.3943   17.9244  -32.8704 H   0  0  0  0  0  0  0  0  0  0  0  0
   -9.3031   17.9261  -33.0603 H   0  0  0  0  0  0  0  0  0  0  0  0
   -8.3296   17.2124  -31.7689 H   0  0  0  0  0  0  0  0  0  0  0  0
   -9.7190   19.8687  -31.8797 H   0  0  0  0  0  0  0  0  0  0  0  0
   -9.2387   18.9317  -30.4496 H   0  0  0  0  0  0  0  0  0  0  0  0
   -5.3301   21.0679  -31.0862 H   0  0  0  0  0  0  0  0  0  0  0  0
   -3.2553   22.4055  -30.7508 H   0  0  0  0  0  0  0  0  0  0  0  0
   -3.6176   24.0547  -27.6769 H   0  0  0  0  0  0  0  0  0  0  0  0
   -0.4428   22.9748  -29.3403 H   0  0  0  0  0  0  0  0  0  0  0  0
    0.1074   20.5706  -29.7060 H   0  0  0  0  0  0  0  0  0  0  0  0
   -1.2949   18.7910  -28.6588 H   0  0  0  0  0  0  0  0  0  0  0  0
   -3.2459   19.4159  -27.2334 H   0  0  0  0  0  0  0  0  0  0  0  0
   -3.8031   21.8155  -26.8566 H   0  0  0  0  0  0  0  0  0  0  0  0
   -0.6170   22.7589  -26.2575 H   0  0  0  0  0  0  0  0  0  0  0  0
    0.4414   23.6118  -24.1665 H   0  0  0  0  0  0  0  0  0  0  0  0
   -0.2053   25.8450  -23.2562 H   0  0  0  0  0  0  0  0  0  0  0  0
   -1.9123   27.2278  -24.4394 H   0  0  0  0  0  0  0  0  0  0  0  0
   -2.9764   26.3870  -26.5291 H   0  0  0  0  0  0  0  0  0  0  0  0
  1  2  2  0
  2  3  1  0
  3  4  1  0
  4  5  2  0
  5  6  1  0
  6  7  2  0
  7  8  1  0
  8  9  2  0
  8 10  2  0
  8 11  1  0
 11 12  1  0
 12 13  1  0
 13 14  1  0
 14 15  1  0
  7 16  1  0
 16 17  2  0
  2 18  1  0
 18 19  1  0
 19 20  2  0
 20 21  1  0
 21 22  2  0
 22 23  1  0
 23 24  2  0
 18 25  1  0
 25 26  2  0
 26 27  1  0
 27 28  2  0
 28 29  1  0
 29 30  2  0
 17  4  1  0
 24 19  1  0
 30 25  1  0
 15 11  1  0
  5 31  1  0
  6 32  1  0
 11 33  1  0
 12 34  1  0
 12 35  1  0
 13 36  1  0
 13 37  1  0
 14 38  1  0
 14 39  1  0
 15 40  1  0
 15 41  1  0
 16 42  1  0
 17 43  1  0
 18 44  1  0
 20 45  1  0
 21 46  1  0
 22 47  1  0
 23 48  1  0
 24 49  1  0
 26 50  1  0
 27 51  1  0
 28 52  1  0
 29 53  1  0
 30 54  1  0
M  CHG  2   3  -1  11   1
M  END
>  <UniqueID>  (33) 
32

>  <SMILES>  (33) 
O=C([N-]c1ccc(S(=O)(=O)[NH+]2CCCC2)cc1)C(c1ccccc1)c1ccccc1

>  <Energy>  (33) 
63.67757329146015

>  <Genealogy>  (33) 
O=C([N-]c1ccc(S(=O)(=O)[NH+]2CCCC2)cc1)C(c1ccccc1)c1ccccc1 (protonated)
O=C([N-]c1ccc(S(=O)(=O)[NH+]2CCCC2)cc1)C(c1ccccc1)c1ccccc1 (3D coordinates assigned)
O=C([N-]c1ccc(S(=O)(=O)[NH+]2CCCC2)cc1)C(c1ccccc1)c1ccccc1 (nonaromatic ring conformer: 63.67757329146015 kcal/mol)

>  <smiles>  (33) 
O=C(Nc1ccc(S(=O)(=O)N2CCCC2)cc1)C(c1ccccc1)c1ccccc1

>  <score_type>  (33) 
oracle

>  <origin>  (33) 
adgpu

>  <m_score__min__energy>  (33) 
-11.67

>  <m_primary>  (33) 
energy

$$$$
33:0
     RDKit          3D

 51 54  0  0  0  0  0  0  0  0999 V2000
   -9.5040   20.5440  -32.3080 C   0  0  0  0  0  0  0  0  0  0  0  0
   -8.1110   20.1270  -32.2120 N   0  0  0  0  0  0  0  0  0  0  0  0
   -7.6430   18.7440  -32.2730 C   0  0  0  0  0  0  0  0  0  0  0  0
   -6.0960   18.8200  -32.2170 C   0  0  0  0  0  0  0  0  0  0  0  0
   -5.8250   20.2820  -32.1290 C   0  0  0  0  0  0  0  0  0  0  0  0
   -4.5900   20.9270  -32.0670 C   0  0  0  0  0  0  0  0  0  0  0  0
   -4.5670   22.3320  -32.0150 C   0  0  0  0  0  0  0  0  0  0  0  0
   -5.7680   23.0700  -32.0350 C   0  0  0  0  0  0  0  0  0  0  0  0
   -5.6970   24.5020  -31.9630 N   0  0  0  0  0  0  0  0  0  0  0  0
   -5.2480   25.2650  -30.8390 C   0  0  0  0  0  0  0  0  0  0  0  0
   -6.0940   25.9080  -30.1630 O   0  0  0  0  0  0  0  0  0  0  0  0
   -3.8590   25.2970  -30.4880 N   0  0  0  0  0  0  0  0  0  0  0  0
   -3.2400   24.5390  -29.4420 C   0  0  0  0  0  0  0  0  0  0  0  0
   -3.9430   23.4550  -28.9030 C   0  0  0  0  0  0  0  0  0  0  0  0
   -3.3780   22.6760  -27.8930 C   0  0  0  0  0  0  0  0  0  0  0  0
   -2.1100   22.9820  -27.4000 C   0  0  0  0  0  0  0  0  0  0  0  0
   -1.4020   24.0850  -27.8950 C   0  0  0  0  0  0  0  0  0  0  0  0
    0.2010   24.4500  -27.2350 S   0  0  0  0  0  0  0  0  0  0  0  0
    1.2340   24.3410  -28.3240 O   0  0  0  0  0  0  0  0  0  0  0  0
    0.5390   23.4170  -26.1940 O   0  0  0  0  0  0  0  0  0  0  0  0
    0.2910   26.0410  -26.5030 N   0  0  0  0  0  0  0  0  0  0  0  0
   -0.0090   26.0240  -25.0580 C   0  0  0  0  0  0  0  0  0  0  0  0
    1.2190   25.6860  -24.1830 C   0  0  0  0  0  0  0  0  0  0  0  0
    2.4060   25.5400  -24.9360 O   0  0  0  0  0  0  0  0  0  0  0  0
    2.5980   26.6830  -25.7360 C   0  0  0  0  0  0  0  0  0  0  0  0
    1.5340   26.7610  -26.8440 C   0  0  0  0  0  0  0  0  0  0  0  0
   -1.9800   24.8840  -28.9050 C   0  0  0  0  0  0  0  0  0  0  0  0
   -1.3270   26.0310  -29.3430 O   0  0  0  0  0  0  0  0  0  0  0  0
   -7.0020   22.3840  -32.0750 C   0  0  0  0  0  0  0  0  0  0  0  0
   -6.9910   20.9890  -32.1300 C   0  0  0  0  0  0  0  0  0  0  0  0
   -9.9199   20.6685  -31.2973 H   0  0  0  0  0  0  0  0  0  0  0  0
   -9.5642   21.4995  -32.8496 H   0  0  0  0  0  0  0  0  0  0  0  0
  -10.0793   19.7787  -32.8496 H   0  0  0  0  0  0  0  0  0  0  0  0
   -8.0297   18.1705  -31.4177 H   0  0  0  0  0  0  0  0  0  0  0  0
   -7.9912   18.2382  -33.1857 H   0  0  0  0  0  0  0  0  0  0  0  0
   -5.7079   18.2938  -31.3324 H   0  0  0  0  0  0  0  0  0  0  0  0
   -5.6112   18.3448  -33.0825 H   0  0  0  0  0  0  0  0  0  0  0  0
   -3.6541   20.3491  -32.0590 H   0  0  0  0  0  0  0  0  0  0  0  0
   -3.6036   22.8598  -31.9582 H   0  0  0  0  0  0  0  0  0  0  0  0
   -4.9487   23.2156  -29.2788 H   0  0  0  0  0  0  0  0  0  0  0  0
   -3.9337   21.8189  -27.4848 H   0  0  0  0  0  0  0  0  0  0  0  0
   -1.6623   22.3527  -26.6167 H   0  0  0  0  0  0  0  0  0  0  0  0
   -0.3823   27.0170  -24.7672 H   0  0  0  0  0  0  0  0  0  0  0  0
   -0.7564   25.2347  -24.8896 H   0  0  0  0  0  0  0  0  0  0  0  0
    1.3636   26.4959  -23.4529 H   0  0  0  0  0  0  0  0  0  0  0  0
    1.0192   24.7228  -23.6907 H   0  0  0  0  0  0  0  0  0  0  0  0
    2.5272   27.5809  -25.1045 H   0  0  0  0  0  0  0  0  0  0  0  0
    3.5910   26.6214  -26.2053 H   0  0  0  0  0  0  0  0  0  0  0  0
    1.2890   27.8187  -27.0207 H   0  0  0  0  0  0  0  0  0  0  0  0
    1.9563   26.2817  -27.7395 H   0  0  0  0  0  0  0  0  0  0  0  0
   -7.9524   22.9376  -32.0631 H   0  0  0  0  0  0  0  0  0  0  0  0
  1  2  1  0
  2  3  1  0
  3  4  1  0
  4  5  1  0
  5  6  2  0
  6  7  1  0
  7  8  2  0
  8  9  1  0
  9 10  1  0
 10 11  2  0
 10 12  1  0
 12 13  1  0
 13 14  2  0
 14 15  1  0
 15 16  2  0
 16 17  1  0
 17 18  1  0
 18 19  2  0
 18 20  2  0
 18 21  1  0
 21 22  1  0
 22 23  1  0
 23 24  1  0
 24 25  1  0
 25 26  1  0
 17 27  2  0
 27 28  1  0
  8 29  1  0
 29 30  2  0
 30  2  1  0
 30  5  1  0
 27 13  1  0
 26 21  1  0
  1 31  1  0
  1 32  1  0
  1 33  1  0
  3 34  1  0
  3 35  1  0
  4 36  1  0
  4 37  1  0
  6 38  1  0
  7 39  1  0
 14 40  1  0
 15 41  1  0
 16 42  1  0
 22 43  1  0
 22 44  1  0
 23 45  1  0
 23 46  1  0
 25 47  1  0
 25 48  1  0
 26 49  1  0
 26 50  1  0
 29 51  1  0
M  CHG  3   9  -1  12  -1  28  -1
M  END
>  <UniqueID>  (34) 
33

>  <SMILES>  (34) 
CN1CCc2ccc([N-]C(=O)[N-]c3cccc(S(=O)(=O)N4CCOCC4)c3[O-])cc21

>  <Energy>  (34) 
86.68323300042788

>  <Genealogy>  (34) 
CN1CCc2ccc([N-]C(=O)[N-]c3cccc(S(=O)(=O)N4CCOCC4)c3[O-])cc21 (protonated)
CN1CCc2ccc([N-]C(=O)[N-]c3cccc(S(=O)(=O)N4CCOCC4)c3[O-])cc21 (3D coordinates assigned)
CN1CCc2ccc([N-]C(=O)[N-]c3cccc(S(=O)(=O)N4CCOCC4)c3[O-])cc21 (nonaromatic ring conformer: 86.68323300042788 kcal/mol)

>  <smiles>  (34) 
CN1CCc2ccc(NC(=O)Nc3cccc(S(=O)(=O)N4CCOCC4)c3O)cc21

>  <score_type>  (34) 
oracle

>  <origin>  (34) 
adgpu

>  <m_score__min__energy>  (34) 
-16.170000000000002

>  <m_primary>  (34) 
energy

$$$$
34:0
     RDKit          3D

 65 68  0  0  0  0  0  0  0  0999 V2000
   -3.9040   17.4980  -34.8130 C   0  0  0  0  0  0  0  0  0  0  0  0
   -3.6830   18.5610  -33.7700 C   0  0  0  0  0  0  0  0  0  0  0  0
   -2.5370   19.3670  -33.8730 C   0  0  0  0  0  0  0  0  0  0  0  0
   -2.2780   20.3690  -32.9380 C   0  0  0  0  0  0  0  0  0  0  0  0
   -3.1600   20.5880  -31.8700 C   0  0  0  0  0  0  0  0  0  0  0  0
   -2.8930   21.6620  -30.8770 C   0  0  0  0  0  0  0  0  0  0  0  0
   -2.1950   21.3810  -29.6900 C   0  0  0  0  0  0  0  0  0  0  0  0
   -1.9410   22.3910  -28.7590 C   0  0  0  0  0  0  0  0  0  0  0  0
   -2.3790   23.7020  -28.9930 C   0  0  0  0  0  0  0  0  0  0  0  0
   -2.1120   24.7300  -28.0230 N   0  0  0  0  0  0  0  0  0  0  0  0
   -3.0220   24.9300  -26.8880 C   0  0  0  0  0  0  0  0  0  0  0  0
   -2.2580   25.3180  -25.6010 C   0  0  0  0  0  0  0  0  0  0  0  0
   -0.9140   25.8780  -25.8620 N   0  0  0  0  0  0  0  0  0  0  0  0
   -0.3770   26.8500  -24.5150 S   0  0  0  0  0  0  0  0  0  0  0  0
   -0.4520   28.5940  -24.8830 C   0  0  0  0  0  0  0  0  0  0  0  0
    1.0430   26.4890  -24.1810 O   0  0  0  0  0  0  0  0  0  0  0  0
   -1.2400   26.5670  -23.3160 O   0  0  0  0  0  0  0  0  0  0  0  0
   -0.8680   26.6520  -27.1080 C   0  0  0  0  0  0  0  0  0  0  0  0
   -1.0290   25.6880  -28.2820 C   0  0  0  0  0  0  0  0  0  0  0  0
   -3.0750   23.9910  -30.1820 C   0  0  0  0  0  0  0  0  0  0  0  0
   -3.4970   25.2870  -30.4590 O   0  0  0  0  0  0  0  0  0  0  0  0
   -3.3310   22.9780  -31.1120 C   0  0  0  0  0  0  0  0  0  0  0  0
   -4.3000   19.7780  -31.7530 C   0  0  0  0  0  0  0  0  0  0  0  0
   -4.5730   18.7630  -32.6840 C   0  0  0  0  0  0  0  0  0  0  0  0
   -6.0680   17.8370  -32.4330 S   0  0  0  0  0  0  0  0  0  0  0  0
   -6.1310   16.6010  -33.2850 O   0  0  0  0  0  0  0  0  0  0  0  0
   -6.1140   17.4120  -30.9910 O   0  0  0  0  0  0  0  0  0  0  0  0
   -7.4420   18.8620  -32.7730 N   0  0  0  0  0  0  0  0  0  0  0  0
   -8.1880   19.1350  -31.5280 C   0  0  0  0  0  0  0  0  0  0  0  0
   -9.1230   20.3390  -31.7050 C   0  0  0  0  0  0  0  0  0  0  0  0
   -8.3840   21.5810  -32.0460 N   0  0  0  0  0  0  0  0  0  0  0  0
   -8.2880   22.4820  -30.8870 C   0  0  0  0  0  0  0  0  0  0  0  0
   -7.0400   21.3360  -32.6180 C   0  0  0  0  0  0  0  0  0  0  0  0
   -7.0320   20.0850  -33.5070 C   0  0  0  0  0  0  0  0  0  0  0  0
   -4.1041   16.5357  -34.3191 H   0  0  0  0  0  0  0  0  0  0  0  0
   -4.7640   17.7736  -35.4410 H   0  0  0  0  0  0  0  0  0  0  0  0
   -3.0054   17.4080  -35.4410 H   0  0  0  0  0  0  0  0  0  0  0  0
   -1.8337   19.2055  -34.7032 H   0  0  0  0  0  0  0  0  0  0  0  0
   -1.3765   20.9912  -33.0389 H   0  0  0  0  0  0  0  0  0  0  0  0
   -1.8457   20.3568  -29.4923 H   0  0  0  0  0  0  0  0  0  0  0  0
   -1.3929   22.1557  -27.8348 H   0  0  0  0  0  0  0  0  0  0  0  0
   -3.7308   25.7334  -27.1372 H   0  0  0  0  0  0  0  0  0  0  0  0
   -3.5484   23.9824  -26.7007 H   0  0  0  0  0  0  0  0  0  0  0  0
   -2.8494   26.0696  -25.0576 H   0  0  0  0  0  0  0  0  0  0  0  0
   -2.1181   24.3969  -25.0162 H   0  0  0  0  0  0  0  0  0  0  0  0
   -0.4766   29.1662  -23.9438 H   0  0  0  0  0  0  0  0  0  0  0  0
    0.4345   28.8842  -25.4660 H   0  0  0  0  0  0  0  0  0  0  0  0
   -1.3601   28.8070  -25.4660 H   0  0  0  0  0  0  0  0  0  0  0  0
   -1.6848   27.3887  -27.1178 H   0  0  0  0  0  0  0  0  0  0  0  0
    0.0910   27.1851  -27.1861 H   0  0  0  0  0  0  0  0  0  0  0  0
   -1.2642   26.2617  -29.1906 H   0  0  0  0  0  0  0  0  0  0  0  0
   -0.0892   25.1318  -28.4141 H   0  0  0  0  0  0  0  0  0  0  0  0
   -3.8800   23.2127  -32.0359 H   0  0  0  0  0  0  0  0  0  0  0  0
   -4.9936   19.9415  -30.9151 H   0  0  0  0  0  0  0  0  0  0  0  0
   -8.7858   18.2500  -31.2645 H   0  0  0  0  0  0  0  0  0  0  0  0
   -7.4677   19.3629  -30.7285 H   0  0  0  0  0  0  0  0  0  0  0  0
   -9.8353   20.1179  -32.5135 H   0  0  0  0  0  0  0  0  0  0  0  0
   -9.6402   20.5069  -30.7488 H   0  0  0  0  0  0  0  0  0  0  0  0
   -8.3506   21.8941  -29.9594 H   0  0  0  0  0  0  0  0  0  0  0  0
   -7.3277   23.0176  -30.9175 H   0  0  0  0  0  0  0  0  0  0  0  0
   -9.1139   23.2079  -30.9175 H   0  0  0  0  0  0  0  0  0  0  0  0
   -6.7433   22.2064  -33.2216 H   0  0  0  0  0  0  0  0  0  0  0  0
   -6.3337   21.1779  -31.7897 H   0  0  0  0  0  0  0  0  0  0  0  0
   -7.7274   20.2432  -34.3445 H   0  0  0  0  0  0  0  0  0  0  0  0
   -6.0012   19.9328  -33.8595 H   0  0  0  0  0  0  0  0  0  0  0  0
  1  2  1  0
  2  3  2  0
  3  4  1  0
  4  5  2  0
  5  6  1  0
  6  7  2  0
  7  8  1  0
  8  9  2  0
  9 10  1  0
 10 11  1  0
 11 12  1  0
 12 13  1  0
 13 14  1  0
 14 15  1  0
 14 16  2  0
 14 17  2  0
 13 18  1  0
 18 19  1  0
  9 20  1  0
 20 21  1  0
 20 22  2  0
  5 23  1  0
 23 24  2  0
 24 25  1  0
 25 26  2  0
 25 27  2  0
 25 28  1  0
 28 29  1  0
 29 30  1  0
 30 31  1  0
 31 32  1  0
 31 33  1  0
 33 34  1  0
 24  2  1  0
 34 28  1  0
 22  6  1  0
 19 10  1  0
  1 35  1  0
  1 36  1  0
  1 37  1  0
  3 38  1  0
  4 39  1  0
  7 40  1  0
  8 41  1  0
 11 42  1  0
 11 43  1  0
 12 44  1  0
 12 45  1  0
 15 46  1  0
 15 47  1  0
 15 48  1  0
 18 49  1  0
 18 50  1  0
 19 51  1  0
 19 52  1  0
 22 53  1  0
 23 54  1  0
 29 55  1  0
 29 56  1  0
 30 57  1  0
 30 58  1  0
 32 59  1  0
 32 60  1  0
 32 61  1  0
 33 62  1  0
 33 63  1  0
 34 64  1  0
 34 65  1  0
M  CHG  1  21  -1
M  END
>  <UniqueID>  (35) 
34

>  <SMILES>  (35) 
Cc1ccc(-c2ccc(N3CCN(S(C)(=O)=O)CC3)c([O-])c2)cc1S(=O)(=O)N1CCN(C)CC1

>  <Energy>  (35) 
89.71179676061912

>  <Genealogy>  (35) 
Cc1ccc(-c2ccc(N3CCN(S(C)(=O)=O)CC3)c([O-])c2)cc1S(=O)(=O)N1CCN(C)CC1 (protonated)
Cc1ccc(-c2ccc(N3CCN(S(C)(=O)=O)CC3)c([O-])c2)cc1S(=O)(=O)N1CCN(C)CC1 (3D coordinates assigned)
Cc1ccc(-c2ccc(N3CCN(S(C)(=O)=O)CC3)c([O-])c2)cc1S(=O)(=O)N1CCN(C)CC1 (nonaromatic ring conformer: 89.71179676061912 kcal/mol)

>  <smiles>  (35) 
Cc1ccc(-c2ccc(N3CCN(S(C)(=O)=O)CC3)c(O)c2)cc1S(=O)(=O)N1CCN(C)CC1

>  <score_type>  (35) 
oracle

>  <origin>  (35) 
adgpu

>  <m_score__min__energy>  (35) 
-13.93

>  <m_primary>  (35) 
energy

$$$$
35:0
     RDKit          3D

 69 73  0  0  0  0  0  0  0  0999 V2000
   -1.9960   23.8830  -29.8130 O   0  0  0  0  0  0  0  0  0  0  0  0
   -2.2870   22.9920  -30.6570 C   0  0  0  0  0  0  0  0  0  0  0  0
   -3.3580   23.2100  -31.5880 N   0  0  0  0  0  0  0  0  0  0  0  0
   -4.6950   23.5870  -31.2200 C   0  0  0  0  0  0  0  0  0  0  0  0
   -5.7820   22.7330  -31.4780 C   0  0  0  0  0  0  0  0  0  0  0  0
   -7.0870   23.1160  -31.1380 C   0  0  0  0  0  0  0  0  0  0  0  0
   -8.4430   22.0300  -31.4630 S   0  0  0  0  0  0  0  0  0  0  0  0
   -9.5340   22.7980  -32.1560 O   0  0  0  0  0  0  0  0  0  0  0  0
   -8.9900   21.5220  -30.1570 O   0  0  0  0  0  0  0  0  0  0  0  0
   -7.9790   20.6810  -32.4790 N   0  0  0  0  0  0  0  0  0  0  0  0
   -6.8400   19.9480  -31.9090 C   0  0  0  0  0  0  0  0  0  0  0  0
   -7.3660   18.6380  -31.3530 C   0  0  0  0  0  0  0  0  0  0  0  0
   -8.5870   18.3480  -32.1930 C   0  0  0  0  0  0  0  0  0  0  0  0
   -9.0800   19.7160  -32.6410 C   0  0  0  0  0  0  0  0  0  0  0  0
   -7.3060   24.3630  -30.5400 C   0  0  0  0  0  0  0  0  0  0  0  0
   -6.2270   25.1990  -30.2480 C   0  0  0  0  0  0  0  0  0  0  0  0
   -4.9220   24.8140  -30.5680 C   0  0  0  0  0  0  0  0  0  0  0  0
   -3.8700   25.6670  -30.2410 O   0  0  0  0  0  0  0  0  0  0  0  0
   -1.5050   21.7360  -30.6860 C   0  0  0  0  0  0  0  0  0  0  0  0
   -1.4420   21.0160  -31.8910 C   0  0  0  0  0  0  0  0  0  0  0  0
   -0.7780   19.7860  -31.9640 C   0  0  0  0  0  0  0  0  0  0  0  0
   -0.7380   18.8880  -33.4800 S   0  0  0  0  0  0  0  0  0  0  0  0
   -1.9720   19.2150  -34.2780 O   0  0  0  0  0  0  0  0  0  0  0  0
   -0.7690   17.4150  -33.1740 O   0  0  0  0  0  0  0  0  0  0  0  0
    0.6850   19.2450  -34.4390 N   0  0  0  0  0  0  0  0  0  0  0  0
    0.3500   19.7080  -35.7970 C   0  0  0  0  0  0  0  0  0  0  0  0
    0.0100   21.2180  -35.8600 C   0  0  0  0  0  0  0  0  0  0  0  0
    0.2850   21.9030  -34.6550 O   0  0  0  0  0  0  0  0  0  0  0  0
    1.5830   21.5840  -34.2120 C   0  0  0  0  0  0  0  0  0  0  0  0
    1.6460   20.1230  -33.7340 C   0  0  0  0  0  0  0  0  0  0  0  0
   -0.1600   19.2710  -30.8250 C   0  0  0  0  0  0  0  0  0  0  0  0
   -0.1870   19.9850  -29.6270 C   0  0  0  0  0  0  0  0  0  0  0  0
   -0.8440   21.2220  -29.5410 C   0  0  0  0  0  0  0  0  0  0  0  0
   -0.7480   21.9850  -28.3230 N   0  0  0  0  0  0  0  0  0  0  0  0
    0.2670   23.0090  -28.1350 C   0  0  0  0  0  0  0  0  0  0  0  0
    0.3340   23.2650  -26.6340 C   0  0  0  0  0  0  0  0  0  0  0  0
   -0.8300   22.4980  -26.0010 C   0  0  0  0  0  0  0  0  0  0  0  0
   -1.3790   21.5750  -27.0820 C   0  0  0  0  0  0  0  0  0  0  0  0
   -5.6067   21.7555  -31.9510 H   0  0  0  0  0  0  0  0  0  0  0  0
   -6.0927   19.7497  -32.6915 H   0  0  0  0  0  0  0  0  0  0  0  0
   -6.3604   20.5387  -31.1146 H   0  0  0  0  0  0  0  0  0  0  0  0
   -6.6180   17.8388  -31.4616 H   0  0  0  0  0  0  0  0  0  0  0  0
   -7.5954   18.6960  -30.2788 H   0  0  0  0  0  0  0  0  0  0  0  0
   -8.3220   17.7274  -33.0617 H   0  0  0  0  0  0  0  0  0  0  0  0
   -9.3540   17.7910  -31.6349 H   0  0  0  0  0  0  0  0  0  0  0  0
   -9.3851   19.6738  -33.6970 H   0  0  0  0  0  0  0  0  0  0  0  0
   -9.9454   20.0236  -32.0356 H   0  0  0  0  0  0  0  0  0  0  0  0
   -8.3302   24.6844  -30.2999 H   0  0  0  0  0  0  0  0  0  0  0  0
   -6.4053   26.1694  -29.7617 H   0  0  0  0  0  0  0  0  0  0  0  0
   -3.0060   25.6690  -30.7610 H   0  0  0  0  0  0  0  0  0  0  0  0
   -1.9224   21.4257  -32.7917 H   0  0  0  0  0  0  0  0  0  0  0  0
    1.2108   19.5157  -36.4543 H   0  0  0  0  0  0  0  0  0  0  0  0
   -0.5463   19.1573  -36.1185 H   0  0  0  0  0  0  0  0  0  0  0  0
    0.6029   21.6762  -36.6653 H   0  0  0  0  0  0  0  0  0  0  0  0
   -1.0715   21.3014  -36.0430 H   0  0  0  0  0  0  0  0  0  0  0  0
    2.2929   21.7247  -35.0404 H   0  0  0  0  0  0  0  0  0  0  0  0
    1.8443   22.2444  -33.3720 H   0  0  0  0  0  0  0  0  0  0  0  0
    2.6629   19.7406  -33.9066 H   0  0  0  0  0  0  0  0  0  0  0  0
    1.3810   20.1129  -32.6664 H   0  0  0  0  0  0  0  0  0  0  0  0
    0.3508   18.2979  -30.8714 H   0  0  0  0  0  0  0  0  0  0  0  0
    0.3132   19.5731  -28.7381 H   0  0  0  0  0  0  0  0  0  0  0  0
    1.2402   22.6550  -28.5060 H   0  0  0  0  0  0  0  0  0  0  0  0
    0.0204   23.9266  -28.6892 H   0  0  0  0  0  0  0  0  0  0  0  0
    1.2907   22.9018  -26.2304 H   0  0  0  0  0  0  0  0  0  0  0  0
    0.2636   24.3405  -26.4139 H   0  0  0  0  0  0  0  0  0  0  0  0
   -0.4748   21.9088  -25.1427 H   0  0  0  0  0  0  0  0  0  0  0  0
   -1.6060   23.1854  -25.6332 H   0  0  0  0  0  0  0  0  0  0  0  0
   -1.1276   20.5287  -26.8539 H   0  0  0  0  0  0  0  0  0  0  0  0
   -2.4749   21.6424  -27.1481 H   0  0  0  0  0  0  0  0  0  0  0  0
  1  2  2  0
  2  3  1  0
  3  4  1  0
  4  5  2  0
  5  6  1  0
  6  7  1  0
  7  8  2  0
  7  9  2  0
  7 10  1  0
 10 11  1  0
 11 12  1  0
 12 13  1  0
 13 14  1  0
  6 15  2  0
 15 16  1  0
 16 17  2  0
 17 18  1  0
  2 19  1  0
 19 20  2  0
 20 21  1  0
 21 22  1  0
 22 23  2  0
 22 24  2  0
 22 25  1  0
 25 26  1  0
 26 27  1  0
 27 28  1  0
 28 29  1  0
 29 30  1  0
 21 31  2  0
 31 32  1  0
 32 33  2  0
 33 34  1  0
 34 35  1  0
 35 36  1  0
 36 37  1  0
 37 38  1  0
 17  4  1  0
 33 19  1  0
 38 34  1  0
 14 10  1  0
 30 25  1  0
  5 39  1  0
 11 40  1  0
 11 41  1  0
 12 42  1  0
 12 43  1  0
 13 44  1  0
 13 45  1  0
 14 46  1  0
 14 47  1  0
 15 48  1  0
 16 49  1  0
 18 50  1  0
 20 51  1  0
 26 52  1  0
 26 53  1  0
 27 54  1  0
 27 55  1  0
 29 56  1  0
 29 57  1  0
 30 58  1  0
 30 59  1  0
 31 60  1  0
 32 61  1  0
 35 62  1  0
 35 63  1  0
 36 64  1  0
 36 65  1  0
 37 66  1  0
 37 67  1  0
 38 68  1  0
 38 69  1  0
M  CHG  1   3  -1
M  END
>  <UniqueID>  (36) 
35

>  <SMILES>  (36) 
O=C([N-]c1cc(S(=O)(=O)N2CCCC2)ccc1O)c1cc(S(=O)(=O)N2CCOCC2)ccc1N1CCCC1

>  <Energy>  (36) 
95.32696612119254

>  <Genealogy>  (36) 
O=C([N-]c1cc(S(=O)(=O)N2CCCC2)ccc1O)c1cc(S(=O)(=O)N2CCOCC2)ccc1N1CCCC1 (protonated)
O=C([N-]c1cc(S(=O)(=O)N2CCCC2)ccc1O)c1cc(S(=O)(=O)N2CCOCC2)ccc1N1CCCC1 (3D coordinates assigned)
O=C([N-]c1cc(S(=O)(=O)N2CCCC2)ccc1O)c1cc(S(=O)(=O)N2CCOCC2)ccc1N1CCCC1 (nonaromatic ring conformer: 95.32696612119254 kcal/mol)

>  <smiles>  (36) 
O=C(Nc1cc(S(=O)(=O)N2CCCC2)ccc1O)c1cc(S(=O)(=O)N2CCOCC2)ccc1N1CCCC1

>  <score_type>  (36) 
oracle

>  <origin>  (36) 
adgpu

>  <m_score__min__energy>  (36) 
-12.630000000000001

>  <m_primary>  (36) 
energy

$$$$
36:0
     RDKit          3D

 84 89  0  0  0  0  0  0  0  0999 V2000
    0.5140   28.4150  -26.3920 C   0  0  0  0  0  0  0  0  0  0  0  0
   -0.5250   27.7870  -25.5590 N   0  0  0  0  0  0  0  0  0  0  0  0
   -1.3780   26.8690  -26.3580 C   0  0  0  0  0  0  0  0  0  0  0  0
   -1.0170   25.3940  -26.1320 C   0  0  0  0  0  0  0  0  0  0  0  0
   -1.1880   25.0160  -24.7150 N   0  0  0  0  0  0  0  0  0  0  0  0
   -0.3060   23.5470  -24.3660 S   0  0  0  0  0  0  0  0  0  0  0  0
    1.1550   23.8690  -24.2150 O   0  0  0  0  0  0  0  0  0  0  0  0
   -0.7920   22.9680  -23.0660 O   0  0  0  0  0  0  0  0  0  0  0  0
   -0.5100   22.3480  -25.6470 C   0  0  0  0  0  0  0  0  0  0  0  0
   -1.2350   21.1730  -25.4090 C   0  0  0  0  0  0  0  0  0  0  0  0
   -1.3770   20.2160  -26.4190 C   0  0  0  0  0  0  0  0  0  0  0  0
   -0.7840   20.4180  -27.6740 C   0  0  0  0  0  0  0  0  0  0  0  0
   -0.9580   19.4050  -28.7700 C   0  0  0  0  0  0  0  0  0  0  0  0
   -0.8350   20.0610  -30.0700 N   0  0  0  0  0  0  0  0  0  0  0  0
    0.3640   20.0330  -30.8540 C   0  0  0  0  0  0  0  0  0  0  0  0
    1.3710   19.3820  -30.4620 O   0  0  0  0  0  0  0  0  0  0  0  0
    0.4240   20.7650  -32.1620 C   0  0  0  0  0  0  0  0  0  0  0  0
    0.5320   19.8250  -33.3020 N   0  0  0  0  0  0  0  0  0  0  0  0
    0.1790   18.4310  -32.9460 C   0  0  0  0  0  0  0  0  0  0  0  0
   -1.3200   18.2790  -32.6420 C   0  0  0  0  0  0  0  0  0  0  0  0
   -2.1190   19.0770  -33.5750 N   0  0  0  0  0  0  0  0  0  0  0  0
   -3.5200   19.2840  -33.3260 C   0  0  0  0  0  0  0  0  0  0  0  0
   -3.9420   20.3550  -32.5280 C   0  0  0  0  0  0  0  0  0  0  0  0
   -5.3150   20.5850  -32.2810 C   0  0  0  0  0  0  0  0  0  0  0  0
   -6.2660   19.6960  -32.8410 C   0  0  0  0  0  0  0  0  0  0  0  0
   -5.8290   18.6250  -33.6460 C   0  0  0  0  0  0  0  0  0  0  0  0
   -4.4710   18.4240  -33.8890 C   0  0  0  0  0  0  0  0  0  0  0  0
   -4.0820   17.4020  -34.6910 F   0  0  0  0  0  0  0  0  0  0  0  0
   -7.6340   19.8950  -32.5810 C   0  0  0  0  0  0  0  0  0  0  0  0
   -8.4890   19.1090  -33.0780 O   0  0  0  0  0  0  0  0  0  0  0  0
   -8.0460   20.9650  -31.7650 C   0  0  0  0  0  0  0  0  0  0  0  0
   -9.4790   21.2170  -31.4520 C   0  0  0  0  0  0  0  0  0  0  0  0
  -10.3650   21.1310  -32.3430 O   0  0  0  0  0  0  0  0  0  0  0  0
   -9.8650   21.5550  -30.1600 O   0  0  0  0  0  0  0  0  0  0  0  0
   -7.0690   21.8210  -31.2370 C   0  0  0  0  0  0  0  0  0  0  0  0
   -5.7410   21.6360  -31.5000 N   0  0  0  0  0  0  0  0  0  0  0  0
   -4.8210   22.5940  -30.9460 C   0  0  0  0  0  0  0  0  0  0  0  0
   -5.0950   23.9680  -31.0310 C   0  0  0  0  0  0  0  0  0  0  0  0
   -4.2010   24.8970  -30.4910 C   0  0  0  0  0  0  0  0  0  0  0  0
   -3.0320   24.4590  -29.8580 C   0  0  0  0  0  0  0  0  0  0  0  0
   -2.1410   25.3830  -29.3270 O   0  0  0  0  0  0  0  0  0  0  0  0
   -2.7600   23.0900  -29.7630 C   0  0  0  0  0  0  0  0  0  0  0  0
   -3.6530   22.1590  -30.3020 C   0  0  0  0  0  0  0  0  0  0  0  0
   -1.5030   19.5630  -34.8100 C   0  0  0  0  0  0  0  0  0  0  0  0
   -0.1960   20.3210  -34.5010 C   0  0  0  0  0  0  0  0  0  0  0  0
   -0.0790   21.6050  -27.9180 C   0  0  0  0  0  0  0  0  0  0  0  0
    0.0580   22.5630  -26.9110 C   0  0  0  0  0  0  0  0  0  0  0  0
   -0.8480   26.0960  -23.7580 C   0  0  0  0  0  0  0  0  0  0  0  0
    0.0880   27.1490  -24.3710 C   0  0  0  0  0  0  0  0  0  0  0  0
    1.2749   28.8749  -25.7443 H   0  0  0  0  0  0  0  0  0  0  0  0
    0.9863   27.6510  -27.0270 H   0  0  0  0  0  0  0  0  0  0  0  0
    0.0571   29.1883  -27.0270 H   0  0  0  0  0  0  0  0  0  0  0  0
   -2.4289   27.0239  -26.0721 H   0  0  0  0  0  0  0  0  0  0  0  0
   -1.2134   27.0967  -27.4215 H   0  0  0  0  0  0  0  0  0  0  0  0
   -1.6714   24.7647  -26.7532 H   0  0  0  0  0  0  0  0  0  0  0  0
    0.0374   25.2461  -26.4083 H   0  0  0  0  0  0  0  0  0  0  0  0
   -1.6943   21.0025  -24.4241 H   0  0  0  0  0  0  0  0  0  0  0  0
   -1.9564   19.3006  -26.2283 H   0  0  0  0  0  0  0  0  0  0  0  0
   -0.1839   18.6290  -28.6772 H   0  0  0  0  0  0  0  0  0  0  0  0
   -1.9536   18.9449  -28.6865 H   0  0  0  0  0  0  0  0  0  0  0  0
   -1.6740   20.5550  -30.4520 H   0  0  0  0  0  0  0  0  0  0  0  0
   -0.4902   21.3656  -32.2785 H   0  0  0  0  0  0  0  0  0  0  0  0
    1.3157   21.4090  -32.1582 H   0  0  0  0  0  0  0  0  0  0  0  0
    0.4398   17.7722  -33.7874 H   0  0  0  0  0  0  0  0  0  0  0  0
    0.7399   18.1581  -32.0400 H   0  0  0  0  0  0  0  0  0  0  0  0
   -1.6027   17.2203  -32.7379 H   0  0  0  0  0  0  0  0  0  0  0  0
   -1.5118   18.6330  -31.6183 H   0  0  0  0  0  0  0  0  0  0  0  0
   -3.1928   21.0283  -32.0861 H   0  0  0  0  0  0  0  0  0  0  0  0
   -6.5677   17.9399  -34.0876 H   0  0  0  0  0  0  0  0  0  0  0  0
   -7.3786   22.6602  -30.5968 H   0  0  0  0  0  0  0  0  0  0  0  0
   -6.0154   24.3145  -31.5237 H   0  0  0  0  0  0  0  0  0  0  0  0
   -4.4164   25.9733  -30.5636 H   0  0  0  0  0  0  0  0  0  0  0  0
   -1.8424   22.7456  -29.2636 H   0  0  0  0  0  0  0  0  0  0  0  0
   -3.4393   21.0830  -30.2209 H   0  0  0  0  0  0  0  0  0  0  0  0
   -1.2790   18.7071  -35.4637 H   0  0  0  0  0  0  0  0  0  0  0  0
   -2.2023   20.2496  -35.3096 H   0  0  0  0  0  0  0  0  0  0  0  0
    0.4702   20.2275  -35.3713 H   0  0  0  0  0  0  0  0  0  0  0  0
   -0.4792   21.3624  -34.2884 H   0  0  0  0  0  0  0  0  0  0  0  0
    0.3683   21.7826  -28.9071 H   0  0  0  0  0  0  0  0  0  0  0  0
    0.6142   23.4908  -27.1104 H   0  0  0  0  0  0  0  0  0  0  0  0
   -1.7771   26.5916  -23.4401 H   0  0  0  0  0  0  0  0  0  0  0  0
   -0.3242   25.6369  -22.9066 H   0  0  0  0  0  0  0  0  0  0  0  0
    0.2995   27.9224  -23.6179 H   0  0  0  0  0  0  0  0  0  0  0  0
    1.0156   26.6483  -24.6854 H   0  0  0  0  0  0  0  0  0  0  0  0
  1  2  1  0
  2  3  1  0
  3  4  1  0
  4  5  1  0
  5  6  1  0
  6  7  2  0
  6  8  2  0
  6  9  1  0
  9 10  2  0
 10 11  1  0
 11 12  2  0
 12 13  1  0
 13 14  1  0
 14 15  1  0
 15 16  2  0
 15 17  1  0
 17 18  1  0
 18 19  1  0
 19 20  1  0
 20 21  1  0
 21 22  1  0
 22 23  2  0
 23 24  1  0
 24 25  2  0
 25 26  1  0
 26 27  2  0
 27 28  1  0
 25 29  1  0
 29 30  2  0
 29 31  1  0
 31 32  1  0
 32 33  2  0
 32 34  1  0
 31 35  2  0
 35 36  1  0
 36 37  1  0
 37 38  2  0
 38 39  1  0
 39 40  2  0
 40 41  1  0
 40 42  1  0
 42 43  2  0
 21 44  1  0
 44 45  1  0
 12 46  1  0
 46 47  2  0
  5 48  1  0
 48 49  1  0
 49  2  1  0
 47  9  1  0
 45 18  1  0
 27 22  1  0
 43 37  1  0
 36 24  1  0
  1 50  1  0
  1 51  1  0
  1 52  1  0
  3 53  1  0
  3 54  1  0
  4 55  1  0
  4 56  1  0
 10 57  1  0
 11 58  1  0
 13 59  1  0
 13 60  1  0
 14 61  1  0
 17 62  1  0
 17 63  1  0
 19 64  1  0
 19 65  1  0
 20 66  1  0
 20 67  1  0
 23 68  1  0
 26 69  1  0
 35 70  1  0
 38 71  1  0
 39 72  1  0
 42 73  1  0
 43 74  1  0
 44 75  1  0
 44 76  1  0
 45 77  1  0
 45 78  1  0
 46 79  1  0
 47 80  1  0
 48 81  1  0
 48 82  1  0
 49 83  1  0
 49 84  1  0
M  CHG  2  34  -1  41  -1
M  END
>  <UniqueID>  (37) 
36

>  <SMILES>  (37) 
CN1CCN(S(=O)(=O)c2ccc(CNC(=O)CN3CCN(c4cc5c(cc4F)c(=O)c(C(=O)[O-])cn5-c4ccc([O-])cc4)CC3)cc2)CC1

>  <Energy>  (37) 
128.29494519790126

>  <Genealogy>  (37) 
CN1CCN(S(=O)(=O)c2ccc(CNC(=O)CN3CCN(c4cc5c(cc4F)c(=O)c(C(=O)[O-])cn5-c4ccc([O-])cc4)CC3)cc2)CC1 (protonated)
CN1CCN(S(=O)(=O)c2ccc(CNC(=O)CN3CCN(c4cc5c(cc4F)c(=O)c(C(=O)[O-])cn5-c4ccc([O-])cc4)CC3)cc2)CC1 (3D coordinates assigned)
CN1CCN(S(=O)(=O)c2ccc(CNC(=O)CN3CCN(c4cc5c(cc4F)c(=O)c(C(=O)[O-])cn5-c4ccc([O-])cc4)CC3)cc2)CC1 (nonaromatic ring conformer: 128.29494519790126 kcal/mol)

>  <smiles>  (37) 
CN1CCN(S(=O)(=O)c2ccc(CNC(=O)CN3CCN(c4cc5c(cc4F)c(=O)c(C(=O)O)cn5-c4ccc(O)cc4)CC3)cc2)CC1

>  <score_type>  (37) 
oracle

>  <origin>  (37) 
adgpu

>  <m_score__min__energy>  (37) 
-14.75

>  <m_primary>  (37) 
energy

$$$$
37:0
     RDKit          3D

 53 56  0  0  0  0  0  0  0  0999 V2000
   -5.6370   25.1350  -28.8280 O   0  0  0  0  0  0  0  0  0  0  0  0
   -5.2930   25.1330  -30.2890 S   0  0  0  0  0  0  0  0  0  0  0  0
   -5.7200   26.4440  -30.8850 O   0  0  0  0  0  0  0  0  0  0  0  0
   -3.5730   24.9690  -30.4640 N   0  0  0  0  0  0  0  0  0  0  0  0
   -2.7510   24.1680  -29.6070 C   0  0  0  0  0  0  0  0  0  0  0  0
   -3.0680   22.8280  -29.3410 C   0  0  0  0  0  0  0  0  0  0  0  0
   -2.2850   22.0710  -28.4540 C   0  0  0  0  0  0  0  0  0  0  0  0
   -1.1190   22.6390  -27.8950 C   0  0  0  0  0  0  0  0  0  0  0  0
   -0.7840   23.9680  -28.1970 C   0  0  0  0  0  0  0  0  0  0  0  0
   -1.5910   24.7270  -29.0510 C   0  0  0  0  0  0  0  0  0  0  0  0
   -1.2430   26.0440  -29.3330 O   0  0  0  0  0  0  0  0  0  0  0  0
   -0.2780   21.8630  -26.9060 C   0  0  0  0  0  0  0  0  0  0  0  0
   -0.4970   20.4130  -26.9960 N   0  0  0  0  0  0  0  0  0  0  0  0
   -1.9290   20.0940  -26.9400 C   0  0  0  0  0  0  0  0  0  0  0  0
   -2.6610   20.6380  -28.1760 C   0  0  0  0  0  0  0  0  0  0  0  0
   -6.1670   23.8200  -31.0790 C   0  0  0  0  0  0  0  0  0  0  0  0
   -7.5630   23.7490  -30.9730 C   0  0  0  0  0  0  0  0  0  0  0  0
   -8.2540   22.6720  -31.5350 C   0  0  0  0  0  0  0  0  0  0  0  0
   -7.5560   21.6650  -32.2100 C   0  0  0  0  0  0  0  0  0  0  0  0
   -6.1600   21.7320  -32.3320 C   0  0  0  0  0  0  0  0  0  0  0  0
   -5.2780   20.4640  -33.1870 S   0  0  0  0  0  0  0  0  0  0  0  0
   -3.9610   21.0140  -33.6660 O   0  0  0  0  0  0  0  0  0  0  0  0
   -6.0710   20.0360  -34.3930 O   0  0  0  0  0  0  0  0  0  0  0  0
   -4.9960   19.0730  -32.1610 N   0  0  0  0  0  0  0  0  0  0  0  0
   -6.2820   18.4300  -31.8040 C   0  0  0  0  0  0  0  0  0  0  0  0
   -6.0690   17.0020  -31.2770 C   0  0  0  0  0  0  0  0  0  0  0  0
   -5.4120   16.1010  -32.3440 C   0  0  0  0  0  0  0  0  0  0  0  0
   -4.6040   16.9000  -33.3820 C   0  0  0  0  0  0  0  0  0  0  0  0
   -3.9820   18.1550  -32.7480 C   0  0  0  0  0  0  0  0  0  0  0  0
   -5.4680   22.8100  -31.7600 C   0  0  0  0  0  0  0  0  0  0  0  0
   -3.9375   22.3658  -29.8313 H   0  0  0  0  0  0  0  0  0  0  0  0
    0.1200   24.4161  -27.7588 H   0  0  0  0  0  0  0  0  0  0  0  0
    0.7834   22.0723  -27.1050 H   0  0  0  0  0  0  0  0  0  0  0  0
   -0.5711   22.1829  -25.8952 H   0  0  0  0  0  0  0  0  0  0  0  0
   -0.1000   20.0600  -27.9020 H   0  0  0  0  0  0  0  0  0  0  0  0
   -2.0533   19.0018  -26.8997 H   0  0  0  0  0  0  0  0  0  0  0  0
   -2.3585   20.5632  -26.0426 H   0  0  0  0  0  0  0  0  0  0  0  0
   -2.3952   20.0230  -29.0484 H   0  0  0  0  0  0  0  0  0  0  0  0
   -3.7431   20.5962  -27.9827 H   0  0  0  0  0  0  0  0  0  0  0  0
   -8.1151   24.5418  -30.4470 H   0  0  0  0  0  0  0  0  0  0  0  0
   -9.3490   22.6161  -31.4464 H   0  0  0  0  0  0  0  0  0  0  0  0
   -8.1040   20.8171  -32.6469 H   0  0  0  0  0  0  0  0  0  0  0  0
   -6.7771   19.0286  -31.0252 H   0  0  0  0  0  0  0  0  0  0  0  0
   -6.9042   18.3751  -32.7095 H   0  0  0  0  0  0  0  0  0  0  0  0
   -5.4182   17.0407  -30.3910 H   0  0  0  0  0  0  0  0  0  0  0  0
   -7.0508   16.5769  -31.0214 H   0  0  0  0  0  0  0  0  0  0  0  0
   -4.7359   15.3947  -31.8400 H   0  0  0  0  0  0  0  0  0  0  0  0
   -6.2186   15.5803  -32.8808 H   0  0  0  0  0  0  0  0  0  0  0  0
   -3.8010   16.2628  -33.7809 H   0  0  0  0  0  0  0  0  0  0  0  0
   -5.2829   17.2143  -34.1885 H   0  0  0  0  0  0  0  0  0  0  0  0
   -3.2915   17.8401  -31.9517 H   0  0  0  0  0  0  0  0  0  0  0  0
   -3.4634   18.7050  -33.5471 H   0  0  0  0  0  0  0  0  0  0  0  0
   -4.3727   22.8644  -31.8453 H   0  0  0  0  0  0  0  0  0  0  0  0
  1  2  2  0
  2  3  2  0
  2  4  1  0
  4  5  1  0
  5  6  2  0
  6  7  1  0
  7  8  2  0
  8  9  1  0
  9 10  2  0
 10 11  1  0
  8 12  1  0
 12 13  1  0
 13 14  1  0
 14 15  1  0
  2 16  1  0
 16 17  2  0
 17 18  1  0
 18 19  2  0
 19 20  1  0
 20 21  1  0
 21 22  2  0
 21 23  2  0
 21 24  1  0
 24 25  1  0
 25 26  1  0
 26 27  1  0
 27 28  1  0
 28 29  1  0
 20 30  2  0
 10  5  1  0
 30 16  1  0
 15  7  1  0
 29 24  1  0
  6 31  1  0
  9 32  1  0
 12 33  1  0
 12 34  1  0
 13 35  1  0
 14 36  1  0
 14 37  1  0
 15 38  1  0
 15 39  1  0
 17 40  1  0
 18 41  1  0
 19 42  1  0
 25 43  1  0
 25 44  1  0
 26 45  1  0
 26 46  1  0
 27 47  1  0
 27 48  1  0
 28 49  1  0
 28 50  1  0
 29 51  1  0
 29 52  1  0
 30 53  1  0
M  CHG  2   4  -1  11  -1
M  END
>  <UniqueID>  (38) 
37

>  <SMILES>  (38) 
O=S(=O)([N-]c1cc2c(cc1[O-])CNCC2)c1cccc(S(=O)(=O)N2CCCCC2)c1

>  <Energy>  (38) 
69.3012137447256

>  <Genealogy>  (38) 
O=S(=O)([N-]c1cc2c(cc1[O-])CNCC2)c1cccc(S(=O)(=O)N2CCCCC2)c1 (protonated)
O=S(=O)([N-]c1cc2c(cc1[O-])CNCC2)c1cccc(S(=O)(=O)N2CCCCC2)c1 (3D coordinates assigned)
O=S(=O)([N-]c1cc2c(cc1[O-])CNCC2)c1cccc(S(=O)(=O)N2CCCCC2)c1 (nonaromatic ring conformer: 69.3012137447256 kcal/mol)

>  <smiles>  (38) 
O=S(=O)(Nc1cc2c(cc1O)CNCC2)c1cccc(S(=O)(=O)N2CCCCC2)c1

>  <score_type>  (38) 
oracle

>  <origin>  (38) 
adgpu

>  <m_score__min__energy>  (38) 
-15.43

>  <m_primary>  (38) 
energy

$$$$
38:0
     RDKit          3D

 38 42  0  0  0  0  0  0  0  0999 V2000
   -4.7600   25.5820  -30.0830 O   0  0  0  0  0  0  0  0  0  0  0  0
   -5.1840   24.2940  -30.3950 C   0  0  0  0  0  0  0  0  0  0  0  0
   -6.4870   23.9430  -30.7560 C   0  0  0  0  0  0  0  0  0  0  0  0
   -6.4210   22.5900  -31.0580 C   0  0  0  0  0  0  0  0  0  0  0  0
   -7.3530   21.6810  -31.5790 C   0  0  0  0  0  0  0  0  0  0  0  0
   -8.6930   22.0260  -31.8120 C   0  0  0  0  0  0  0  0  0  0  0  0
   -9.5750   21.0770  -32.3360 C   0  0  0  0  0  0  0  0  0  0  0  0
   -9.1300   19.7860  -32.6340 C   0  0  0  0  0  0  0  0  0  0  0  0
   -7.7970   19.4280  -32.4140 C   0  0  0  0  0  0  0  0  0  0  0  0
   -6.8930   20.3630  -31.8880 C   0  0  0  0  0  0  0  0  0  0  0  0
   -5.5300   20.0120  -31.6800 C   0  0  0  0  0  0  0  0  0  0  0  0
   -4.6410   20.9620  -31.1510 C   0  0  0  0  0  0  0  0  0  0  0  0
   -5.1290   22.2110  -30.8450 C   0  0  0  0  0  0  0  0  0  0  0  0
   -4.3630   23.2160  -30.4200 N   0  0  0  0  0  0  0  0  0  0  0  0
   -2.8990   23.1120  -30.3270 C   0  0  1  0  0  0  0  0  0  0  0  0
   -2.3590   23.9510  -29.1890 C   0  0  0  0  0  0  0  0  0  0  0  0
   -3.1190   24.1520  -28.0210 C   0  0  0  0  0  0  0  0  0  0  0  0
   -2.6070   24.9170  -26.9690 C   0  0  0  0  0  0  0  0  0  0  0  0
   -1.3320   25.4800  -27.0680 C   0  0  0  0  0  0  0  0  0  0  0  0
   -0.5660   25.2770  -28.2180 C   0  0  0  0  0  0  0  0  0  0  0  0
   -1.0730   24.5140  -29.2730 C   0  0  0  0  0  0  0  0  0  0  0  0
   -2.4790   21.6170  -30.1500 C   0  0  0  0  0  0  0  0  0  0  0  0
   -3.2770   20.7230  -30.9500 O   0  0  0  0  0  0  0  0  0  0  0  0
   -4.9980   26.0060  -29.1940 H   0  0  0  0  0  0  0  0  0  0  0  0
   -7.3715   24.5959  -30.7928 H   0  0  0  0  0  0  0  0  0  0  0  0
   -9.0485   23.0414  -31.5827 H   0  0  0  0  0  0  0  0  0  0  0  0
  -10.6260   21.3478  -32.5150 H   0  0  0  0  0  0  0  0  0  0  0  0
   -9.8336   19.0468  -33.0444 H   0  0  0  0  0  0  0  0  0  0  0  0
   -7.4557   18.4102  -32.6540 H   0  0  0  0  0  0  0  0  0  0  0  0
   -5.1744   19.0021  -31.9321 H   0  0  0  0  0  0  0  0  0  0  0  0
   -2.4676   23.4985  -31.2621 H   0  0  0  0  0  0  0  0  0  0  0  0
   -4.1204   23.7049  -27.9359 H   0  0  0  0  0  0  0  0  0  0  0  0
   -3.2087   25.0760  -26.0620 H   0  0  0  0  0  0  0  0  0  0  0  0
   -0.9315   26.0833  -26.2399 H   0  0  0  0  0  0  0  0  0  0  0  0
    0.4386   25.7187  -28.2934 H   0  0  0  0  0  0  0  0  0  0  0  0
   -0.4630   24.3528  -30.1741 H   0  0  0  0  0  0  0  0  0  0  0  0
   -1.4248   21.5091  -30.4450 H   0  0  0  0  0  0  0  0  0  0  0  0
   -2.6320   21.3488  -29.0942 H   0  0  0  0  0  0  0  0  0  0  0  0
  1  2  1  0
  2  3  2  0
  3  4  1  0
  4  5  2  0
  5  6  1  0
  6  7  2  0
  7  8  1  0
  8  9  2  0
  9 10  1  0
 10 11  2  0
 11 12  1  0
 12 13  2  0
 13 14  1  0
 14 15  1  0
 15 16  1  0
 16 17  2  0
 17 18  1  0
 18 19  2  0
 19 20  1  0
 20 21  2  0
 15 22  1  0
 22 23  1  0
 14  2  1  0
 21 16  1  0
 13  4  1  0
 10  5  1  0
 23 12  1  0
  1 24  1  0
  3 25  1  0
  6 26  1  0
  7 27  1  0
  8 28  1  0
  9 29  1  0
 11 30  1  0
 15 31  1  6
 17 32  1  0
 18 33  1  0
 19 34  1  0
 20 35  1  0
 21 36  1  0
 22 37  1  0
 22 38  1  0
M  END
>  <UniqueID>  (39) 
38

>  <SMILES>  (39) 
Oc1cc2c3ccccc3cc3c2n1[C@@H](c1ccccc1)CO3

>  <Energy>  (39) 
88.9015873368299

>  <Genealogy>  (39) 
Oc1cc2c3ccccc3cc3c2n1[C@@H](c1ccccc1)CO3 (chirality)
Oc1cc2c3ccccc3cc3c2n1[C@@H](c1ccccc1)CO3 (3D coordinates assigned)
Oc1cc2c3ccccc3cc3c2n1[C@@H](c1ccccc1)CO3 (nonaromatic ring conformer: 88.9015873368299 kcal/mol)

>  <smiles>  (39) 
Oc1cc2c3ccccc3cc3c2n1C(c1ccccc1)CO3

>  <score_type>  (39) 
oracle

>  <origin>  (39) 
adgpu

>  <m_score__min__energy>  (39) 
-9.0700000000000003

>  <m_primary>  (39) 
energy

$$$$
39:0
     RDKit          3D

 75 79  0  0  0  0  0  0  0  0999 V2000
   -4.2650   24.5970  -28.6270 O   0  0  0  0  0  0  0  0  0  0  0  0
   -4.0300   24.3360  -30.0900 S   0  0  0  0  0  0  0  0  0  0  0  0
   -3.9390   25.6580  -30.8020 O   0  0  0  0  0  0  0  0  0  0  0  0
   -2.5190   23.5050  -30.2760 N   0  0  0  0  0  0  0  0  0  0  0  0
   -2.1230   22.3690  -29.5010 C   0  0  0  0  0  0  0  0  0  0  0  0
   -0.7890   22.2660  -29.0860 C   0  0  0  0  0  0  0  0  0  0  0  0
   -0.3680   21.1660  -28.3310 C   0  0  0  0  0  0  0  0  0  0  0  0
   -1.2870   20.1780  -27.9400 C   0  0  0  0  0  0  0  0  0  0  0  0
   -0.8340   18.9970  -27.1150 C   0  0  0  0  0  0  0  0  0  0  0  0
    0.2020   18.1410  -27.8610 C   0  0  0  0  0  0  0  0  0  0  0  0
   -0.1870   17.9770  -29.2660 N   0  0  0  0  0  0  0  0  0  0  0  0
    0.6410   18.8150  -30.1460 C   0  0  0  0  0  0  0  0  0  0  0  0
    0.3690   18.5020  -31.6380 C   0  0  1  0  0  0  0  0  0  0  0  0
   -0.0090   17.1580  -31.8120 O   0  0  0  0  0  0  0  0  0  0  0  0
   -0.6220   19.4400  -32.3190 C   0  0  0  0  0  0  0  0  0  0  0  0
   -1.9440   19.4980  -31.8410 C   0  0  0  0  0  0  0  0  0  0  0  0
   -2.8660   20.3870  -32.4050 C   0  0  0  0  0  0  0  0  0  0  0  0
   -2.4760   21.2420  -33.4370 C   0  0  0  0  0  0  0  0  0  0  0  0
   -1.1660   21.2020  -33.9170 C   0  0  0  0  0  0  0  0  0  0  0  0
   -0.2420   20.3160  -33.3570 C   0  0  0  0  0  0  0  0  0  0  0  0
   -2.6320   20.3080  -28.3180 C   0  0  0  0  0  0  0  0  0  0  0  0
   -3.0450   21.3800  -29.1160 C   0  0  0  0  0  0  0  0  0  0  0  0
   -5.3780   23.3910  -30.7170 C   0  0  0  0  0  0  0  0  0  0  0  0
   -6.5890   23.3360  -30.0150 C   0  0  0  0  0  0  0  0  0  0  0  0
   -7.6670   22.6090  -30.5220 C   0  0  0  0  0  0  0  0  0  0  0  0
   -7.5490   21.9130  -31.7400 C   0  0  0  0  0  0  0  0  0  0  0  0
   -8.6370   21.1460  -32.2900 N   0  0  0  0  0  0  0  0  0  0  0  0
   -8.7550   19.4170  -32.1830 S   0  0  0  0  0  0  0  0  0  0  0  0
   -9.8580   18.9340  -33.0850 O   0  0  0  0  0  0  0  0  0  0  0  0
   -9.0970   19.0320  -30.7720 O   0  0  0  0  0  0  0  0  0  0  0  0
   -7.2120   18.6850  -32.6170 C   0  0  0  0  0  0  0  0  0  0  0  0
   -6.5260   19.1380  -33.7510 C   0  0  0  0  0  0  0  0  0  0  0  0
   -5.2940   18.5760  -34.1020 C   0  0  0  0  0  0  0  0  0  0  0  0
   -4.7320   17.5400  -33.3300 C   0  0  0  0  0  0  0  0  0  0  0  0
   -3.4180   16.9400  -33.7020 C   0  0  0  0  0  0  0  0  0  0  0  0
   -3.0130   15.7020  -33.1680 C   0  0  0  0  0  0  0  0  0  0  0  0
   -1.7720   15.1640  -33.5170 C   0  0  0  0  0  0  0  0  0  0  0  0
   -0.9590   15.8300  -34.3770 N   0  0  0  0  0  0  0  0  0  0  0  0
   -1.3210   17.0240  -34.9180 C   0  0  0  0  0  0  0  0  0  0  0  0
   -2.5530   17.5990  -34.5950 C   0  0  0  0  0  0  0  0  0  0  0  0
   -5.4350   17.0870  -32.1960 C   0  0  0  0  0  0  0  0  0  0  0  0
   -6.6610   17.6580  -31.8400 C   0  0  0  0  0  0  0  0  0  0  0  0
   -6.3300   21.9710  -32.4380 C   0  0  0  0  0  0  0  0  0  0  0  0
   -5.2540   22.7080  -31.9310 C   0  0  0  0  0  0  0  0  0  0  0  0
   -0.0694   23.0534  -29.3549 H   0  0  0  0  0  0  0  0  0  0  0  0
    0.6893   21.0741  -28.0417 H   0  0  0  0  0  0  0  0  0  0  0  0
   -0.3843   19.3666  -26.1817 H   0  0  0  0  0  0  0  0  0  0  0  0
   -1.7123   18.3674  -26.9095 H   0  0  0  0  0  0  0  0  0  0  0  0
    1.1835   18.6352  -27.8119 H   0  0  0  0  0  0  0  0  0  0  0  0
    0.2540   17.1498  -27.3869 H   0  0  0  0  0  0  0  0  0  0  0  0
   -0.0240   16.9760  -29.5270 H   0  0  0  0  0  0  0  0  0  0  0  0
    0.4108   19.8733  -29.9539 H   0  0  0  0  0  0  0  0  0  0  0  0
    1.6992   18.6028  -29.9335 H   0  0  0  0  0  0  0  0  0  0  0  0
    1.3283   18.6803  -32.1459 H   0  0  0  0  0  0  0  0  0  0  0  0
    0.0040   16.9600  -32.7850 H   0  0  0  0  0  0  0  0  0  0  0  0
   -2.2555   18.8391  -31.0171 H   0  0  0  0  0  0  0  0  0  0  0  0
   -3.9012   20.4120  -32.0339 H   0  0  0  0  0  0  0  0  0  0  0  0
   -3.2003   21.9466  -33.8716 H   0  0  0  0  0  0  0  0  0  0  0  0
   -0.8607   21.8686  -34.7370 H   0  0  0  0  0  0  0  0  0  0  0  0
    0.7928   20.3016  -33.7297 H   0  0  0  0  0  0  0  0  0  0  0  0
   -3.3673   19.5611  -27.9842 H   0  0  0  0  0  0  0  0  0  0  0  0
   -4.0930   21.4493  -29.4429 H   0  0  0  0  0  0  0  0  0  0  0  0
   -6.6909   23.8691  -29.0582 H   0  0  0  0  0  0  0  0  0  0  0  0
   -8.6156   22.5796  -29.9659 H   0  0  0  0  0  0  0  0  0  0  0  0
   -9.3810   21.6370  -32.8370 H   0  0  0  0  0  0  0  0  0  0  0  0
   -6.9580   19.9394  -34.3684 H   0  0  0  0  0  0  0  0  0  0  0  0
   -4.7590   18.9463  -34.9889 H   0  0  0  0  0  0  0  0  0  0  0  0
   -3.6735   15.1586  -32.4763 H   0  0  0  0  0  0  0  0  0  0  0  0
   -1.4529   14.1997  -33.0947 H   0  0  0  0  0  0  0  0  0  0  0  0
   -0.6413   17.5392  -35.6126 H   0  0  0  0  0  0  0  0  0  0  0  0
   -2.8454   18.5629  -35.0371 H   0  0  0  0  0  0  0  0  0  0  0  0
   -5.0149   16.2753  -31.5840 H   0  0  0  0  0  0  0  0  0  0  0  0
   -7.1942   17.2995  -30.9471 H   0  0  0  0  0  0  0  0  0  0  0  0
   -6.2212   21.4324  -33.3909 H   0  0  0  0  0  0  0  0  0  0  0  0
   -4.3072   22.7503  -32.4894 H   0  0  0  0  0  0  0  0  0  0  0  0
  1  2  2  0
  2  3  2  0
  2  4  1  0
  4  5  1  0
  5  6  2  0
  6  7  1  0
  7  8  2  0
  8  9  1  0
  9 10  1  0
 10 11  1  0
 11 12  1  0
 12 13  1  0
 13 14  1  0
 13 15  1  0
 15 16  2  0
 16 17  1  0
 17 18  2  0
 18 19  1  0
 19 20  2  0
  8 21  1  0
 21 22  2  0
  2 23  1  0
 23 24  2  0
 24 25  1  0
 25 26  2  0
 26 27  1  0
 27 28  1  0
 28 29  2  0
 28 30  2  0
 28 31  1  0
 31 32  2  0
 32 33  1  0
 33 34  2  0
 34 35  1  0
 35 36  2  0
 36 37  1  0
 37 38  2  0
 38 39  1  0
 39 40  2  0
 34 41  1  0
 41 42  2  0
 26 43  1  0
 43 44  2  0
 22  5  1  0
 44 23  1  0
 20 15  1  0
 42 31  1  0
 40 35  1  0
  6 45  1  0
  7 46  1  0
  9 47  1  0
  9 48  1  0
 10 49  1  0
 10 50  1  0
 11 51  1  0
 12 52  1  0
 12 53  1  0
 13 54  1  6
 14 55  1  0
 16 56  1  0
 17 57  1  0
 18 58  1  0
 19 59  1  0
 20 60  1  0
 21 61  1  0
 22 62  1  0
 24 63  1  0
 25 64  1  0
 27 65  1  0
 32 66  1  0
 33 67  1  0
 36 68  1  0
 37 69  1  0
 39 70  1  0
 40 71  1  0
 41 72  1  0
 42 73  1  0
 43 74  1  0
 44 75  1  0
M  CHG  1   4  -1
M  END
>  <UniqueID>  (40) 
39

>  <SMILES>  (40) 
O=S(=O)([N-]c1ccc(CCNC[C@@H](O)c2ccccc2)cc1)c1ccc(NS(=O)(=O)c2ccc(-c3ccncc3)cc2)cc1

>  <Energy>  (40) 
88.54300717360059

>  <Genealogy>  (40) 
O=S(=O)([N-]c1ccc(CCNCC(O)c2ccccc2)cc1)c1ccc(NS(=O)(=O)c2ccc(-c3ccncc3)cc2)cc1 (protonated)
O=S(=O)([N-]c1ccc(CCNC[C@@H](O)c2ccccc2)cc1)c1ccc(NS(=O)(=O)c2ccc(-c3ccncc3)cc2)cc1 (chirality)
O=S(=O)([N-]c1ccc(CCNC[C@@H](O)c2ccccc2)cc1)c1ccc(NS(=O)(=O)c2ccc(-c3ccncc3)cc2)cc1 (3D coordinates assigned)
O=S(=O)([N-]c1ccc(CCNC[C@@H](O)c2ccccc2)cc1)c1ccc(NS(=O)(=O)c2ccc(-c3ccncc3)cc2)cc1 (optimized conformer: 88.54300717360059 kcal/mol)

>  <smiles>  (40) 
O=S(=O)(Nc1ccc(CCNCC(O)c2ccccc2)cc1)c1ccc(NS(=O)(=O)c2ccc(-c3ccncc3)cc2)cc1

>  <score_type>  (40) 
oracle

>  <origin>  (40) 
adgpu

>  <m_score__min__energy>  (40) 
-13.09

>  <m_primary>  (40) 
energy

$$$$
40:0
     RDKit          3D

 32 33  0  0  0  0  0  0  0  0999 V2000
   -3.2710   20.6600  -33.1940 C   0  0  0  0  0  0  0  0  0  0  0  0
   -4.3970   19.7010  -33.4110 C   0  0  0  0  0  0  0  0  0  0  0  0
   -4.2170   18.5650  -34.2120 C   0  0  0  0  0  0  0  0  0  0  0  0
   -5.2880   17.6960  -34.4180 C   0  0  0  0  0  0  0  0  0  0  0  0
   -6.5250   17.9640  -33.8280 C   0  0  0  0  0  0  0  0  0  0  0  0
   -6.6710   19.1050  -33.0260 C   0  0  0  0  0  0  0  0  0  0  0  0
   -7.9950   19.4440  -32.4110 C   0  0  0  0  0  0  0  0  0  0  0  0
   -7.7830   20.0990  -31.1180 N   0  0  0  0  0  0  0  0  0  0  0  0
   -8.4900   21.6860  -31.1400 S   0  0  0  0  0  0  0  0  0  0  0  0
   -9.4530   21.8330  -29.9930 O   0  0  0  0  0  0  0  0  0  0  0  0
   -9.2460   21.8760  -32.4250 O   0  0  0  0  0  0  0  0  0  0  0  0
   -7.2270   22.9090  -31.0340 C   0  0  0  0  0  0  0  0  0  0  0  0
   -7.2310   23.8630  -30.0080 C   0  0  0  0  0  0  0  0  0  0  0  0
   -6.2100   24.8120  -29.9360 C   0  0  0  0  0  0  0  0  0  0  0  0
   -5.1880   24.7940  -30.8900 C   0  0  0  0  0  0  0  0  0  0  0  0
   -4.2340   25.6670  -30.8350 N   0  0  0  0  0  0  0  0  0  0  0  0
   -5.1980   23.8550  -31.8770 N   0  0  0  0  0  0  0  0  0  0  0  0
   -6.1840   22.9220  -31.9670 C   0  0  0  0  0  0  0  0  0  0  0  0
   -5.6130   19.9450  -32.8510 N   0  0  0  0  0  0  0  0  0  0  0  0
   -3.1094   20.7976  -32.1147 H   0  0  0  0  0  0  0  0  0  0  0  0
   -2.3552   20.2603  -33.6538 H   0  0  0  0  0  0  0  0  0  0  0  0
   -3.5199   21.6278  -33.6538 H   0  0  0  0  0  0  0  0  0  0  0  0
   -3.2398   18.3608  -34.6739 H   0  0  0  0  0  0  0  0  0  0  0  0
   -5.1586   16.8009  -35.0442 H   0  0  0  0  0  0  0  0  0  0  0  0
   -7.3764   17.2868  -33.9908 H   0  0  0  0  0  0  0  0  0  0  0  0
   -8.5460   20.1223  -33.0790 H   0  0  0  0  0  0  0  0  0  0  0  0
   -8.5756   18.5216  -32.2624 H   0  0  0  0  0  0  0  0  0  0  0  0
   -6.7530   20.2320  -30.9840 H   0  0  0  0  0  0  0  0  0  0  0  0
   -8.0377   23.8641  -29.2602 H   0  0  0  0  0  0  0  0  0  0  0  0
   -6.2094   25.5671  -29.1361 H   0  0  0  0  0  0  0  0  0  0  0  0
   -3.4590   25.6740  -31.5340 H   0  0  0  0  0  0  0  0  0  0  0  0
   -6.1614   22.1760  -32.7751 H   0  0  0  0  0  0  0  0  0  0  0  0
  1  2  1  0
  2  3  2  0
  3  4  1  0
  4  5  2  0
  5  6  1  0
  6  7  1  0
  7  8  1  0
  8  9  1  0
  9 10  2  0
  9 11  2  0
  9 12  1  0
 12 13  1  0
 13 14  2  0
 14 15  1  0
 15 16  2  3
 15 17  1  0
 17 18  1  0
  6 19  2  0
 19  2  1  0
 18 12  2  0
  1 20  1  0
  1 21  1  0
  1 22  1  0
  3 23  1  0
  4 24  1  0
  5 25  1  0
  7 26  1  0
  7 27  1  0
  8 28  1  0
 13 29  1  0
 14 30  1  0
 16 31  1  0
 18 32  1  0
M  CHG  1  17  -1
M  END
>  <UniqueID>  (41) 
40

>  <SMILES>  (41) 
Cc1cccc(CNS(=O)(=O)c2ccc(=N)[n-]c2)n1

>  <Energy>  (41) 
29.0932162300208

>  <Genealogy>  (41) 
Cc1cccc(CNS(=O)(=O)c2ccc(=N)[n-]c2)n1 (protonated)
Cc1cccc(CNS(=O)(=O)c2ccc(=N)[n-]c2)n1 (3D coordinates assigned)
Cc1cccc(CNS(=O)(=O)c2ccc(=N)[n-]c2)n1 (optimized conformer: 29.0932162300208 kcal/mol)

>  <smiles>  (41) 
Cc1cccc(CNS(=O)(=O)c2ccc(=N)[nH]c2)n1

>  <score_type>  (41) 
oracle

>  <origin>  (41) 
adgpu

>  <m_score__min__energy>  (41) 
-9.9299999999999997

>  <m_primary>  (41) 
energy

$$$$
41:0
     RDKit          3D

 50 52  0  0  0  0  0  0  0  0999 V2000
   -5.7120   16.4460  -32.3690 C   0  0  0  0  0  0  0  0  0  0  0  0
   -6.8630   17.0250  -33.1880 C   0  0  0  0  0  0  0  0  0  0  0  0
   -7.0200   18.5080  -32.9190 C   0  0  0  0  0  0  0  0  0  0  0  0
   -6.1100   19.4760  -33.4190 C   0  0  0  0  0  0  0  0  0  0  0  0
   -4.8550   19.0940  -34.1770 C   0  0  0  0  0  0  0  0  0  0  0  0
   -3.6180   19.6390  -33.5060 C   0  0  0  0  0  0  0  0  0  0  0  0
   -2.7150   18.7720  -32.8640 C   0  0  0  0  0  0  0  0  0  0  0  0
   -1.5770   19.2800  -32.2300 C   0  0  0  0  0  0  0  0  0  0  0  0
   -1.3360   20.6560  -32.2210 C   0  0  0  0  0  0  0  0  0  0  0  0
   -2.2370   21.5270  -32.8380 C   0  0  0  0  0  0  0  0  0  0  0  0
   -3.3770   21.0240  -33.4730 C   0  0  0  0  0  0  0  0  0  0  0  0
   -6.3510   20.8000  -33.1890 N   0  0  0  0  0  0  0  0  0  0  0  0
   -7.4550   21.2110  -32.5140 C   0  0  0  0  0  0  0  0  0  0  0  0
   -7.8090   22.9590  -32.3260 S   0  0  0  0  0  0  0  0  0  0  0  0
   -7.6000   22.9690  -30.5060 C   0  0  0  0  0  0  0  0  0  0  0  0
   -6.1580   23.1540  -30.1150 C   0  0  0  0  0  0  0  0  0  0  0  0
   -5.2100   22.1570  -30.4050 C   0  0  0  0  0  0  0  0  0  0  0  0
   -3.8590   22.3630  -30.1150 C   0  0  0  0  0  0  0  0  0  0  0  0
   -3.4380   23.5660  -29.5340 C   0  0  0  0  0  0  0  0  0  0  0  0
   -1.7340   23.8220  -29.1770 S   0  0  0  0  0  0  0  0  0  0  0  0
   -1.3870   23.2700  -27.5220 C   0  0  0  0  0  0  0  0  0  0  0  0
   -0.8910   23.0520  -30.1530 O   0  0  0  0  0  0  0  0  0  0  0  0
   -1.4000   25.2830  -29.2970 O   0  0  0  0  0  0  0  0  0  0  0  0
   -4.3830   24.5550  -29.2260 C   0  0  0  0  0  0  0  0  0  0  0  0
   -5.7360   24.3530  -29.5210 C   0  0  0  0  0  0  0  0  0  0  0  0
   -8.3350   20.3010  -32.0310 N   0  0  0  0  0  0  0  0  0  0  0  0
   -8.1480   18.9730  -32.2170 C   0  0  0  0  0  0  0  0  0  0  0  0
   -9.0040   18.1670  -31.7620 O   0  0  0  0  0  0  0  0  0  0  0  0
   -5.9326   16.5570  -31.2971 H   0  0  0  0  0  0  0  0  0  0  0  0
   -5.5907   15.3796  -32.6099 H   0  0  0  0  0  0  0  0  0  0  0  0
   -4.7834   16.9843  -32.6099 H   0  0  0  0  0  0  0  0  0  0  0  0
   -6.6575   16.8720  -34.2578 H   0  0  0  0  0  0  0  0  0  0  0  0
   -7.7934   16.5134  -32.9006 H   0  0  0  0  0  0  0  0  0  0  0  0
   -4.7840   17.9972  -34.2217 H   0  0  0  0  0  0  0  0  0  0  0  0
   -4.9175   19.5231  -35.1879 H   0  0  0  0  0  0  0  0  0  0  0  0
   -2.9053   17.6886  -32.8608 H   0  0  0  0  0  0  0  0  0  0  0  0
   -0.8707   18.5953  -31.7377 H   0  0  0  0  0  0  0  0  0  0  0  0
   -0.4366   21.0536  -31.7280 H   0  0  0  0  0  0  0  0  0  0  0  0
   -2.0495   22.6108  -32.8244 H   0  0  0  0  0  0  0  0  0  0  0  0
   -4.0884   21.7150  -33.9488 H   0  0  0  0  0  0  0  0  0  0  0  0
   -5.6900   21.5230  -33.5530 H   0  0  0  0  0  0  0  0  0  0  0  0
   -8.1932   23.7932  -30.0830 H   0  0  0  0  0  0  0  0  0  0  0  0
   -7.9408   21.9989  -30.1151 H   0  0  0  0  0  0  0  0  0  0  0  0
   -5.5336   21.2104  -30.8624 H   0  0  0  0  0  0  0  0  0  0  0  0
   -3.1234   21.5778  -30.3437 H   0  0  0  0  0  0  0  0  0  0  0  0
   -1.8290   23.9731  -26.8007 H   0  0  0  0  0  0  0  0  0  0  0  0
   -1.8191   22.2698  -27.3709 H   0  0  0  0  0  0  0  0  0  0  0  0
   -0.2983   23.2258  -27.3709 H   0  0  0  0  0  0  0  0  0  0  0  0
   -4.0597   25.4929  -28.7508 H   0  0  0  0  0  0  0  0  0  0  0  0
   -6.4711   25.1369  -29.2864 H   0  0  0  0  0  0  0  0  0  0  0  0
  1  2  1  0
  2  3  1  0
  3  4  2  0
  4  5  1  0
  5  6  1  0
  6  7  2  0
  7  8  1  0
  8  9  2  0
  9 10  1  0
 10 11  2  0
  4 12  1  0
 12 13  1  0
 13 14  1  0
 14 15  1  0
 15 16  1  0
 16 17  2  0
 17 18  1  0
 18 19  2  0
 19 20  1  0
 20 21  1  0
 20 22  2  0
 20 23  2  0
 19 24  1  0
 24 25  2  0
 13 26  2  0
 26 27  1  0
 27 28  2  0
 27  3  1  0
 11  6  1  0
 25 16  1  0
  1 29  1  0
  1 30  1  0
  1 31  1  0
  2 32  1  0
  2 33  1  0
  5 34  1  0
  5 35  1  0
  7 36  1  0
  8 37  1  0
  9 38  1  0
 10 39  1  0
 11 40  1  0
 12 41  1  0
 15 42  1  0
 15 43  1  0
 17 44  1  0
 18 45  1  0
 21 46  1  0
 21 47  1  0
 21 48  1  0
 24 49  1  0
 25 50  1  0
M  END
>  <UniqueID>  (42) 
41

>  <SMILES>  (42) 
CCc1c(Cc2ccccc2)[nH]c(SCc2ccc(S(C)(=O)=O)cc2)nc1=O

>  <Energy>  (42) 
43.20958208804085

>  <Genealogy>  (42) 
CCc1c(Cc2ccccc2)[nH]c(SCc2ccc(S(C)(=O)=O)cc2)nc1=O (3D coordinates assigned)
CCc1c(Cc2ccccc2)[nH]c(SCc2ccc(S(C)(=O)=O)cc2)nc1=O (optimized conformer: 43.20958208804085 kcal/mol)

>  <smiles>  (42) 
CCc1c(Cc2ccccc2)[nH]c(SCc2ccc(S(C)(=O)=O)cc2)nc1=O

>  <score_type>  (42) 
oracle

>  <origin>  (42) 
adgpu

>  <m_score__min__energy>  (42) 
-9.5899999999999999

>  <m_primary>  (42) 
energy

$$$$
42:0
     RDKit          3D

 58 61  0  0  0  0  0  0  0  0999 V2000
   -2.0960   21.3510  -31.4980 O   0  0  0  0  0  0  0  0  0  0  0  0
   -1.9800   21.1910  -32.7440 C   0  0  0  0  0  0  0  0  0  0  0  0
   -3.1440   21.2850  -33.5840 N   0  0  0  0  0  0  0  0  0  0  0  0
   -4.4860   21.0760  -33.1090 C   0  0  0  0  0  0  0  0  0  0  0  0
   -5.1310   19.8580  -33.3760 C   0  0  0  0  0  0  0  0  0  0  0  0
   -6.4270   19.6260  -32.9080 C   0  0  0  0  0  0  0  0  0  0  0  0
   -7.0880   20.6040  -32.1600 C   0  0  0  0  0  0  0  0  0  0  0  0
   -6.4510   21.8170  -31.8700 C   0  0  0  0  0  0  0  0  0  0  0  0
   -7.2710   23.0310  -30.8890 S   0  0  0  0  0  0  0  0  0  0  0  0
   -8.2780   23.7480  -31.7430 O   0  0  0  0  0  0  0  0  0  0  0  0
   -7.9990   22.3510  -29.7630 O   0  0  0  0  0  0  0  0  0  0  0  0
   -6.1660   24.1950  -30.2300 N   0  0  0  0  0  0  0  0  0  0  0  0
   -4.9210   23.8480  -29.6170 C   0  0  0  0  0  0  0  0  0  0  0  0
   -4.8200   22.7350  -28.7670 C   0  0  0  0  0  0  0  0  0  0  0  0
   -3.5900   22.3990  -28.1920 C   0  0  0  0  0  0  0  0  0  0  0  0
   -2.4530   23.1580  -28.4770 C   0  0  0  0  0  0  0  0  0  0  0  0
   -2.5410   24.2490  -29.3460 C   0  0  0  0  0  0  0  0  0  0  0  0
   -3.7700   24.5890  -29.9230 C   0  0  0  0  0  0  0  0  0  0  0  0
   -3.8460   25.6720  -30.7920 O   0  0  0  0  0  0  0  0  0  0  0  0
   -5.1480   22.0470  -32.3350 C   0  0  0  0  0  0  0  0  0  0  0  0
   -0.6370   20.9510  -33.3250 C   0  0  0  0  0  0  0  0  0  0  0  0
    0.2900   20.1360  -32.6510 C   0  0  0  0  0  0  0  0  0  0  0  0
    1.5520   19.8910  -33.1970 C   0  0  0  0  0  0  0  0  0  0  0  0
    1.9080   20.4480  -34.4310 C   0  0  0  0  0  0  0  0  0  0  0  0
    3.4930   20.1130  -35.1340 S   0  0  0  0  0  0  0  0  0  0  0  0
    4.4020   19.5680  -34.0670 O   0  0  0  0  0  0  0  0  0  0  0  0
    4.0900   21.3960  -35.6430 O   0  0  0  0  0  0  0  0  0  0  0  0
    3.3840   18.9570  -36.4430 N   0  0  0  0  0  0  0  0  0  0  0  0
    3.3800   19.6560  -37.7470 C   0  0  0  0  0  0  0  0  0  0  0  0
    2.8690   18.7460  -38.8690 C   0  0  0  0  0  0  0  0  0  0  0  0
    1.4130   18.3180  -38.6150 C   0  0  0  0  0  0  0  0  0  0  0  0
    1.0410   18.3300  -37.1210 C   0  0  0  0  0  0  0  0  0  0  0  0
    2.2600   18.0080  -36.2430 C   0  0  0  0  0  0  0  0  0  0  0  0
    0.9920   21.2620  -35.1090 C   0  0  0  0  0  0  0  0  0  0  0  0
   -0.2720   21.5080  -34.5650 C   0  0  0  0  0  0  0  0  0  0  0  0
   -3.0200   21.6350  -34.5590 H   0  0  0  0  0  0  0  0  0  0  0  0
   -4.6128   19.0812  -33.9574 H   0  0  0  0  0  0  0  0  0  0  0  0
   -6.9278   18.6718  -33.1288 H   0  0  0  0  0  0  0  0  0  0  0  0
   -8.1105   20.4207  -31.7983 H   0  0  0  0  0  0  0  0  0  0  0  0
   -5.7104   22.1257  -28.5527 H   0  0  0  0  0  0  0  0  0  0  0  0
   -3.5182   21.5356  -27.5143 H   0  0  0  0  0  0  0  0  0  0  0  0
   -1.4882   22.8972  -28.0176 H   0  0  0  0  0  0  0  0  0  0  0  0
   -1.6432   24.8412  -29.5768 H   0  0  0  0  0  0  0  0  0  0  0  0
   -4.6403   22.9924  -32.0931 H   0  0  0  0  0  0  0  0  0  0  0  0
    0.0185   19.6870  -31.6842 H   0  0  0  0  0  0  0  0  0  0  0  0
    2.2695   19.2575  -32.6549 H   0  0  0  0  0  0  0  0  0  0  0  0
    2.7276   20.5389  -37.6775 H   0  0  0  0  0  0  0  0  0  0  0  0
    4.4129   19.9507  -37.9844 H   0  0  0  0  0  0  0  0  0  0  0  0
    2.9225   19.2888  -39.8243 H   0  0  0  0  0  0  0  0  0  0  0  0
    3.4978   17.8440  -38.9012 H   0  0  0  0  0  0  0  0  0  0  0  0
    0.7449   19.0094  -39.1494 H   0  0  0  0  0  0  0  0  0  0  0  0
    1.3031   17.2847  -38.9760 H   0  0  0  0  0  0  0  0  0  0  0  0
    0.6596   19.3266  -36.8541 H   0  0  0  0  0  0  0  0  0  0  0  0
    0.2732   17.5618  -36.9467 H   0  0  0  0  0  0  0  0  0  0  0  0
    1.9521   18.0463  -35.1877 H   0  0  0  0  0  0  0  0  0  0  0  0
    2.6178   17.0081  -36.5296 H   0  0  0  0  0  0  0  0  0  0  0  0
    1.2686   21.7102  -36.0747 H   0  0  0  0  0  0  0  0  0  0  0  0
   -0.9869   22.1418  -35.1102 H   0  0  0  0  0  0  0  0  0  0  0  0
  1  2  2  0
  2  3  1  0
  3  4  1  0
  4  5  2  0
  5  6  1  0
  6  7  2  0
  7  8  1  0
  8  9  1  0
  9 10  2  0
  9 11  2  0
  9 12  1  0
 12 13  1  0
 13 14  2  0
 14 15  1  0
 15 16  2  0
 16 17  1  0
 17 18  2  0
 18 19  1  0
  8 20  2  0
  2 21  1  0
 21 22  2  0
 22 23  1  0
 23 24  2  0
 24 25  1  0
 25 26  2  0
 25 27  2  0
 25 28  1  0
 28 29  1  0
 29 30  1  0
 30 31  1  0
 31 32  1  0
 32 33  1  0
 24 34  1  0
 34 35  2  0
 20  4  1  0
 35 21  1  0
 18 13  1  0
 33 28  1  0
  3 36  1  0
  5 37  1  0
  6 38  1  0
  7 39  1  0
 14 40  1  0
 15 41  1  0
 16 42  1  0
 17 43  1  0
 20 44  1  0
 22 45  1  0
 23 46  1  0
 29 47  1  0
 29 48  1  0
 30 49  1  0
 30 50  1  0
 31 51  1  0
 31 52  1  0
 32 53  1  0
 32 54  1  0
 33 55  1  0
 33 56  1  0
 34 57  1  0
 35 58  1  0
M  CHG  2  12  -1  19  -1
M  END
>  <UniqueID>  (43) 
42

>  <SMILES>  (43) 
O=C(Nc1cccc(S(=O)(=O)[N-]c2ccccc2[O-])c1)c1ccc(S(=O)(=O)N2CCCCC2)cc1

>  <Energy>  (43) 
80.45596045106085

>  <Genealogy>  (43) 
O=C(Nc1cccc(S(=O)(=O)[N-]c2ccccc2[O-])c1)c1ccc(S(=O)(=O)N2CCCCC2)cc1 (protonated)
O=C(Nc1cccc(S(=O)(=O)[N-]c2ccccc2[O-])c1)c1ccc(S(=O)(=O)N2CCCCC2)cc1 (3D coordinates assigned)
O=C(Nc1cccc(S(=O)(=O)[N-]c2ccccc2[O-])c1)c1ccc(S(=O)(=O)N2CCCCC2)cc1 (nonaromatic ring conformer: 80.45596045106085 kcal/mol)

>  <smiles>  (43) 
O=C(Nc1cccc(S(=O)(=O)Nc2ccccc2O)c1)c1ccc(S(=O)(=O)N2CCCCC2)cc1

>  <score_type>  (43) 
oracle

>  <origin>  (43) 
adgpu

>  <m_score__min__energy>  (43) 
-14.289999999999999

>  <m_primary>  (43) 
energy

$$$$
43:0
     RDKit          3D

 54 57  0  0  0  0  0  0  0  0999 V2000
   -4.2320   25.7520  -30.5280 O   0  0  0  0  0  0  0  0  0  0  0  0
   -4.1260   24.4960  -30.4840 C   0  0  0  0  0  0  0  0  0  0  0  0
   -4.8260   23.6860  -31.4380 N   0  0  0  0  0  0  0  0  0  0  0  0
   -4.3280   22.5050  -32.0850 C   0  0  0  0  0  0  0  0  0  0  0  0
   -2.9500   22.2970  -32.2710 C   0  0  0  0  0  0  0  0  0  0  0  0
   -2.4840   21.1370  -32.9040 C   0  0  0  0  0  0  0  0  0  0  0  0
   -0.7510   20.8660  -33.1020 S   0  0  0  0  0  0  0  0  0  0  0  0
   -0.2040   21.8630  -34.0880 O   0  0  0  0  0  0  0  0  0  0  0  0
   -0.5300   19.4900  -33.6670 O   0  0  0  0  0  0  0  0  0  0  0  0
    0.1150   21.0110  -31.5860 N   0  0  0  0  0  0  0  0  0  0  0  0
   -0.7940   21.3540  -30.4870 C   0  0  0  0  0  0  0  0  0  0  0  0
   -1.1350   20.0790  -29.7290 C   0  0  0  0  0  0  0  0  0  0  0  0
   -0.1530   19.0320  -30.2120 C   0  0  0  0  0  0  0  0  0  0  0  0
    0.7470   19.7410  -31.2130 C   0  0  0  0  0  0  0  0  0  0  0  0
   -3.4000   20.1840  -33.3650 C   0  0  0  0  0  0  0  0  0  0  0  0
   -4.7690   20.3720  -33.1620 C   0  0  0  0  0  0  0  0  0  0  0  0
   -5.2380   21.5180  -32.5080 C   0  0  0  0  0  0  0  0  0  0  0  0
   -6.6490   21.6710  -32.2880 N   0  0  0  0  0  0  0  0  0  0  0  0
   -7.4560   20.4880  -31.9660 C   0  0  0  0  0  0  0  0  0  0  0  0
   -8.6980   20.8310  -31.0980 C   0  0  0  0  0  0  0  0  0  0  0  0
   -8.8100   22.2070  -30.7770 O   0  0  0  0  0  0  0  0  0  0  0  0
   -8.7010   22.9790  -31.9540 C   0  0  0  0  0  0  0  0  0  0  0  0
   -7.2410   23.0090  -32.3920 C   0  0  0  0  0  0  0  0  0  0  0  0
   -3.3330   23.8460  -29.4030 C   0  0  0  0  0  0  0  0  0  0  0  0
   -3.7580   22.6100  -28.8760 C   0  0  0  0  0  0  0  0  0  0  0  0
   -3.0590   22.0020  -27.8310 C   0  0  0  0  0  0  0  0  0  0  0  0
   -1.9250   22.6170  -27.2900 C   0  0  0  0  0  0  0  0  0  0  0  0
   -1.2220   22.0200  -26.2450 O   0  0  0  0  0  0  0  0  0  0  0  0
   -1.4890   23.8390  -27.8060 C   0  0  0  0  0  0  0  0  0  0  0  0
   -2.1770   24.4530  -28.8580 C   0  0  0  0  0  0  0  0  0  0  0  0
   -1.7030   25.6680  -29.3410 O   0  0  0  0  0  0  0  0  0  0  0  0
   -2.2318   23.0511  -31.9167 H   0  0  0  0  0  0  0  0  0  0  0  0
   -0.3044   22.0691  -29.8096 H   0  0  0  0  0  0  0  0  0  0  0  0
   -1.7108   21.8136  -30.8847 H   0  0  0  0  0  0  0  0  0  0  0  0
   -1.0239   20.2367  -28.6460 H   0  0  0  0  0  0  0  0  0  0  0  0
   -2.1752   19.7693  -29.9081 H   0  0  0  0  0  0  0  0  0  0  0  0
    0.4400   18.6452  -29.3701 H   0  0  0  0  0  0  0  0  0  0  0  0
   -0.6674   18.1726  -30.6667 H   0  0  0  0  0  0  0  0  0  0  0  0
    1.7292   19.9347  -30.7572 H   0  0  0  0  0  0  0  0  0  0  0  0
    0.8882   19.1130  -32.1050 H   0  0  0  0  0  0  0  0  0  0  0  0
   -3.0409   19.2854  -33.8881 H   0  0  0  0  0  0  0  0  0  0  0  0
   -5.4833   19.6151  -33.5181 H   0  0  0  0  0  0  0  0  0  0  0  0
   -7.7983   20.0287  -32.9051 H   0  0  0  0  0  0  0  0  0  0  0  0
   -6.8231   19.8006  -31.3856 H   0  0  0  0  0  0  0  0  0  0  0  0
   -9.6005   20.5291  -31.6496 H   0  0  0  0  0  0  0  0  0  0  0  0
   -8.5839   20.2889  -30.1477 H   0  0  0  0  0  0  0  0  0  0  0  0
   -9.3155   22.5300  -32.7482 H   0  0  0  0  0  0  0  0  0  0  0  0
   -9.0533   24.0031  -31.7617 H   0  0  0  0  0  0  0  0  0  0  0  0
   -7.1826   23.3512  -33.4358 H   0  0  0  0  0  0  0  0  0  0  0  0
   -6.6859   23.6970  -31.7374 H   0  0  0  0  0  0  0  0  0  0  0  0
   -4.6499   22.1189  -29.2922 H   0  0  0  0  0  0  0  0  0  0  0  0
   -3.4014   21.0359  -27.4318 H   0  0  0  0  0  0  0  0  0  0  0  0
   -0.8120   22.5710  -25.4990 H   0  0  0  0  0  0  0  0  0  0  0  0
   -0.5970   24.3230  -27.3817 H   0  0  0  0  0  0  0  0  0  0  0  0
  1  2  2  0
  2  3  1  0
  3  4  1  0
  4  5  2  0
  5  6  1  0
  6  7  1  0
  7  8  2  0
  7  9  2  0
  7 10  1  0
 10 11  1  0
 11 12  1  0
 12 13  1  0
 13 14  1  0
  6 15  2  0
 15 16  1  0
 16 17  2  0
 17 18  1  0
 18 19  1  0
 19 20  1  0
 20 21  1  0
 21 22  1  0
 22 23  1  0
  2 24  1  0
 24 25  2  0
 25 26  1  0
 26 27  2  0
 27 28  1  0
 27 29  1  0
 29 30  2  0
 30 31  1  0
 17  4  1  0
 23 18  1  0
 30 24  1  0
 14 10  1  0
  5 32  1  0
 11 33  1  0
 11 34  1  0
 12 35  1  0
 12 36  1  0
 13 37  1  0
 13 38  1  0
 14 39  1  0
 14 40  1  0
 15 41  1  0
 16 42  1  0
 19 43  1  0
 19 44  1  0
 20 45  1  0
 20 46  1  0
 22 47  1  0
 22 48  1  0
 23 49  1  0
 23 50  1  0
 25 51  1  0
 26 52  1  0
 28 53  1  0
 29 54  1  0
M  CHG  2   3  -1  31  -1
M  END
>  <UniqueID>  (44) 
43

>  <SMILES>  (44) 
O=C([N-]c1cc(S(=O)(=O)N2CCCC2)ccc1N1CCOCC1)c1ccc(O)cc1[O-]

>  <Energy>  (44) 
72.91807623664556

>  <Genealogy>  (44) 
O=C([N-]c1cc(S(=O)(=O)N2CCCC2)ccc1N1CCOCC1)c1ccc(O)cc1[O-] (protonated)
O=C([N-]c1cc(S(=O)(=O)N2CCCC2)ccc1N1CCOCC1)c1ccc(O)cc1[O-] (3D coordinates assigned)
O=C([N-]c1cc(S(=O)(=O)N2CCCC2)ccc1N1CCOCC1)c1ccc(O)cc1[O-] (nonaromatic ring conformer: 72.91807623664556 kcal/mol)

>  <smiles>  (44) 
O=C(Nc1cc(S(=O)(=O)N2CCCC2)ccc1N1CCOCC1)c1ccc(O)cc1O

>  <score_type>  (44) 
oracle

>  <origin>  (44) 
adgpu

>  <m_score__min__energy>  (44) 
-12.710000000000001

>  <m_primary>  (44) 
energy

$$$$
44:0
     RDKit          3D

 39 42  0  0  0  0  0  0  0  0999 V2000
   -5.6610   25.0980  -28.8680 O   0  0  0  0  0  0  0  0  0  0  0  0
   -5.2690   25.1050  -30.3170 S   0  0  0  0  0  0  0  0  0  0  0  0
   -5.7250   26.4000  -30.9310 O   0  0  0  0  0  0  0  0  0  0  0  0
   -3.5430   24.9910  -30.4380 N   0  0  0  0  0  0  0  0  0  0  0  0
   -2.6980   24.2080  -29.5820 C   0  0  0  0  0  0  0  0  0  0  0  0
   -2.9940   22.8720  -29.2600 C   0  0  0  0  0  0  0  0  0  0  0  0
   -2.1480   22.1340  -28.4190 C   0  0  0  0  0  0  0  0  0  0  0  0
   -0.9670   22.7250  -27.9260 C   0  0  0  0  0  0  0  0  0  0  0  0
   -0.6860   24.0660  -28.2280 C   0  0  0  0  0  0  0  0  0  0  0  0
   -1.5420   24.8000  -29.0520 C   0  0  0  0  0  0  0  0  0  0  0  0
   -1.2360   26.1220  -29.3490 O   0  0  0  0  0  0  0  0  0  0  0  0
   -0.0480   21.9600  -27.0020 C   0  0  0  0  0  0  0  0  0  0  0  0
   -0.2170   20.5040  -27.1260 N   0  0  0  0  0  0  0  0  0  0  0  0
   -1.6280   20.1320  -26.9790 C   0  0  0  0  0  0  0  0  0  0  0  0
   -2.4650   20.6860  -28.1410 C   0  0  0  0  0  0  0  0  0  0  0  0
   -6.0220   23.7280  -31.1150 C   0  0  0  0  0  0  0  0  0  0  0  0
   -7.4290   23.5870  -31.0800 C   0  0  0  0  0  0  0  0  0  0  0  0
   -8.0560   22.4990  -31.7140 C   0  0  0  0  0  0  0  0  0  0  0  0
   -7.2490   21.5710  -32.3690 C   0  0  0  0  0  0  0  0  0  0  0  0
   -7.6600   20.4730  -33.0310 N   0  0  0  0  0  0  0  0  0  0  0  0
   -6.5090   19.9170  -33.4790 C   0  0  0  0  0  0  0  0  0  0  0  0
   -6.4710   18.7490  -34.2320 O   0  0  0  0  0  0  0  0  0  0  0  0
   -5.3850   20.6420  -33.1110 C   0  0  0  0  0  0  0  0  0  0  0  0
   -5.8860   21.7050  -32.3990 C   0  0  0  0  0  0  0  0  0  0  0  0
   -5.2340   22.7700  -31.7860 C   0  0  0  0  0  0  0  0  0  0  0  0
   -3.8984   22.4004  -29.6718 H   0  0  0  0  0  0  0  0  0  0  0  0
    0.2145   24.5424  -27.8130 H   0  0  0  0  0  0  0  0  0  0  0  0
    0.9932   22.2173  -27.2462 H   0  0  0  0  0  0  0  0  0  0  0  0
   -0.2997   22.2411  -25.9687 H   0  0  0  0  0  0  0  0  0  0  0  0
    0.1230   20.2020  -28.0700 H   0  0  0  0  0  0  0  0  0  0  0  0
   -1.7117   19.0353  -26.9657 H   0  0  0  0  0  0  0  0  0  0  0  0
   -2.0074   20.5579  -26.0384 H   0  0  0  0  0  0  0  0  0  0  0  0
   -2.2543   20.0955  -29.0448 H   0  0  0  0  0  0  0  0  0  0  0  0
   -3.5266   20.6159  -27.8616 H   0  0  0  0  0  0  0  0  0  0  0  0
   -8.0386   24.3351  -30.5521 H   0  0  0  0  0  0  0  0  0  0  0  0
   -9.1498   22.3844  -31.6933 H   0  0  0  0  0  0  0  0  0  0  0  0
   -6.8570   18.7280  -35.1670 H   0  0  0  0  0  0  0  0  0  0  0  0
   -4.3324   20.4171  -33.3376 H   0  0  0  0  0  0  0  0  0  0  0  0
   -4.1385   22.8620  -31.8234 H   0  0  0  0  0  0  0  0  0  0  0  0
  1  2  2  0
  2  3  2  0
  2  4  1  0
  4  5  1  0
  5  6  2  0
  6  7  1  0
  7  8  2  0
  8  9  1  0
  9 10  2  0
 10 11  1  0
  8 12  1  0
 12 13  1  0
 13 14  1  0
 14 15  1  0
  2 16  1  0
 16 17  2  0
 17 18  1  0
 18 19  2  0
 19 20  1  0
 20 21  1  0
 21 22  1  0
 21 23  2  0
 23 24  1  0
 24 25  2  0
 10  5  1  0
 25 16  1  0
 15  7  1  0
 24 19  1  0
  6 26  1  0
  9 27  1  0
 12 28  1  0
 12 29  1  0
 13 30  1  0
 14 31  1  0
 14 32  1  0
 15 33  1  0
 15 34  1  0
 17 35  1  0
 18 36  1  0
 22 37  1  0
 23 38  1  0
 25 39  1  0
M  CHG  3   4  -1  11  -1  20  -1
M  END
>  <UniqueID>  (45) 
44

>  <SMILES>  (45) 
O=S(=O)([N-]c1cc2c(cc1[O-])CNCC2)c1ccc2[n-]c(O)cc2c1

>  <Energy>  (45) 
79.26918042961522

>  <Genealogy>  (45) 
O=S(=O)([N-]c1cc2c(cc1[O-])CNCC2)c1ccc2[n-]c(O)cc2c1 (protonated)
O=S(=O)([N-]c1cc2c(cc1[O-])CNCC2)c1ccc2[n-]c(O)cc2c1 (3D coordinates assigned)
O=S(=O)([N-]c1cc2c(cc1[O-])CNCC2)c1ccc2[n-]c(O)cc2c1 (nonaromatic ring conformer: 79.26918042961522 kcal/mol)

>  <smiles>  (45) 
O=S(=O)(Nc1cc2c(cc1O)CNCC2)c1ccc2[nH]c(O)cc2c1

>  <score_type>  (45) 
oracle

>  <origin>  (45) 
adgpu

>  <m_score__min__energy>  (45) 
-13.619999999999999

>  <m_primary>  (45) 
energy

$$$$
45:0
     RDKit          3D

 51 53  0  0  0  0  0  0  0  0999 V2000
   -6.7110   18.3990  -31.5930 C   0  0  0  0  0  0  0  0  0  0  0  0
   -7.0890   19.5630  -32.5420 C   0  0  0  0  0  0  0  0  0  0  0  0
   -6.4130   19.3060  -33.9040 C   0  0  0  0  0  0  0  0  0  0  0  0
   -8.6250   19.5370  -32.7200 C   0  0  0  0  0  0  0  0  0  0  0  0
   -6.6450   20.9430  -32.0110 C   0  0  0  0  0  0  0  0  0  0  0  0
   -5.2910   21.3320  -32.1180 C   0  0  0  0  0  0  0  0  0  0  0  0
   -4.8480   22.5600  -31.6210 C   0  0  0  0  0  0  0  0  0  0  0  0
   -5.7430   23.4250  -30.9840 C   0  0  0  0  0  0  0  0  0  0  0  0
   -5.1940   24.9570  -30.3130 S   0  0  0  0  0  0  0  0  0  0  0  0
   -5.8420   25.1610  -28.9720 O   0  0  0  0  0  0  0  0  0  0  0  0
   -5.5690   26.1060  -31.2060 O   0  0  0  0  0  0  0  0  0  0  0  0
   -3.4730   24.9180  -30.1140 N   0  0  0  0  0  0  0  0  0  0  0  0
   -2.7520   23.9750  -29.3080 C   0  0  0  0  0  0  0  0  0  0  0  0
   -1.8660   23.0360  -29.8850 C   0  0  0  0  0  0  0  0  0  0  0  0
   -1.1880   22.1500  -29.0500 C   0  0  0  0  0  0  0  0  0  0  0  0
   -1.3530   22.1750  -27.7010 C   0  0  0  0  0  0  0  0  0  0  0  0
   -2.2210   23.0810  -27.0920 C   0  0  0  0  0  0  0  0  0  0  0  0
   -2.9310   23.9860  -27.8990 C   0  0  0  0  0  0  0  0  0  0  0  0
   -3.8090   24.8830  -27.2880 O   0  0  0  0  0  0  0  0  0  0  0  0
   -0.5280   21.1310  -27.0620 C   0  0  0  0  0  0  0  0  0  0  0  0
    0.2780   20.5410  -28.1560 N   0  0  0  0  0  0  0  0  0  0  0  0
    0.1970   18.7970  -28.1420 S   0  0  0  0  0  0  0  0  0  0  0  0
    0.1160   18.1960  -29.8140 C   0  0  0  0  0  0  0  0  0  0  0  0
    1.4090   18.2220  -27.4630 O   0  0  0  0  0  0  0  0  0  0  0  0
   -1.0390   18.3550  -27.4110 O   0  0  0  0  0  0  0  0  0  0  0  0
   -0.2300   21.0930  -29.4320 C   0  0  0  0  0  0  0  0  0  0  0  0
   -7.0840   23.0570  -30.8580 C   0  0  0  0  0  0  0  0  0  0  0  0
   -7.5350   21.8360  -31.3620 C   0  0  0  0  0  0  0  0  0  0  0  0
   -6.8178   18.7279  -30.5488 H   0  0  0  0  0  0  0  0  0  0  0  0
   -7.3776   17.5438  -31.7781 H   0  0  0  0  0  0  0  0  0  0  0  0
   -5.6691   18.0986  -31.7781 H   0  0  0  0  0  0  0  0  0  0  0  0
   -5.3961   18.9194  -33.7415 H   0  0  0  0  0  0  0  0  0  0  0  0
   -6.9995   18.5681  -34.4710 H   0  0  0  0  0  0  0  0  0  0  0  0
   -6.3612   20.2472  -34.4710 H   0  0  0  0  0  0  0  0  0  0  0  0
   -9.1085   19.5288  -31.7320 H   0  0  0  0  0  0  0  0  0  0  0  0
   -8.9447   20.4299  -33.2773 H   0  0  0  0  0  0  0  0  0  0  0  0
   -8.9143   18.6338  -33.2773 H   0  0  0  0  0  0  0  0  0  0  0  0
   -4.5718   20.6548  -32.6020 H   0  0  0  0  0  0  0  0  0  0  0  0
   -3.7919   22.8474  -31.7311 H   0  0  0  0  0  0  0  0  0  0  0  0
   -1.7146   23.0055  -30.9741 H   0  0  0  0  0  0  0  0  0  0  0  0
   -2.3475   23.0870  -25.9993 H   0  0  0  0  0  0  0  0  0  0  0  0
   -4.3990   25.5110  -27.8190 H   0  0  0  0  0  0  0  0  0  0  0  0
    0.1271   21.5730  -26.2968 H   0  0  0  0  0  0  0  0  0  0  0  0
   -1.1458   20.3747  -26.5558 H   0  0  0  0  0  0  0  0  0  0  0  0
   -0.0309   17.1059  -29.8051 H   0  0  0  0  0  0  0  0  0  0  0  0
   -0.7257   18.6752  -30.3355 H   0  0  0  0  0  0  0  0  0  0  0  0
    1.0545   18.4352  -30.3355 H   0  0  0  0  0  0  0  0  0  0  0  0
    0.5950   21.5171  -30.0231 H   0  0  0  0  0  0  0  0  0  0  0  0
   -0.7031   20.3179  -30.0528 H   0  0  0  0  0  0  0  0  0  0  0  0
   -7.7909   23.7350  -30.3574 H   0  0  0  0  0  0  0  0  0  0  0  0
   -8.5951   21.5628  -31.2543 H   0  0  0  0  0  0  0  0  0  0  0  0
  1  2  1  0
  2  3  1  0
  2  4  1  0
  2  5  1  0
  5  6  2  0
  6  7  1  0
  7  8  2  0
  8  9  1  0
  9 10  2  0
  9 11  2  0
  9 12  1  0
 12 13  1  0
 13 14  2  0
 14 15  1  0
 15 16  2  0
 16 17  1  0
 17 18  2  0
 18 19  1  0
 16 20  1  0
 20 21  1  0
 21 22  1  0
 22 23  1  0
 22 24  2  0
 22 25  2  0
 21 26  1  0
  8 27  1  0
 27 28  2  0
 28  5  1  0
 18 13  1  0
 26 15  1  0
  1 29  1  0
  1 30  1  0
  1 31  1  0
  3 32  1  0
  3 33  1  0
  3 34  1  0
  4 35  1  0
  4 36  1  0
  4 37  1  0
  6 38  1  0
  7 39  1  0
 14 40  1  0
 17 41  1  0
 19 42  1  0
 20 43  1  0
 20 44  1  0
 23 45  1  0
 23 46  1  0
 23 47  1  0
 26 48  1  0
 26 49  1  0
 27 50  1  0
 28 51  1  0
M  CHG  1  12  -1
M  END
>  <UniqueID>  (46) 
45

>  <SMILES>  (46) 
CC(C)(C)c1ccc(S(=O)(=O)[N-]c2cc3c(cc2O)CN(S(C)(=O)=O)C3)cc1

>  <Energy>  (46) 
63.01143426055536

>  <Genealogy>  (46) 
CC(C)(C)c1ccc(S(=O)(=O)[N-]c2cc3c(cc2O)CN(S(C)(=O)=O)C3)cc1 (protonated)
CC(C)(C)c1ccc(S(=O)(=O)[N-]c2cc3c(cc2O)CN(S(C)(=O)=O)C3)cc1 (3D coordinates assigned)
CC(C)(C)c1ccc(S(=O)(=O)[N-]c2cc3c(cc2O)CN(S(C)(=O)=O)C3)cc1 (nonaromatic ring conformer: 63.01143426055536 kcal/mol)

>  <smiles>  (46) 
CC(C)(C)c1ccc(S(=O)(=O)Nc2cc3c(cc2O)CN(S(C)(=O)=O)C3)cc1

>  <score_type>  (46) 
oracle

>  <origin>  (46) 
adgpu

>  <m_score__min__energy>  (46) 
-12.390000000000001

>  <m_primary>  (46) 
energy

$$$$
46:0
     RDKit          3D

 55 58  0  0  0  0  0  0  0  0999 V2000
   -3.8460   25.3200  -30.4540 O   0  0  0  0  0  0  0  0  0  0  0  0
   -3.5060   24.1080  -30.3700 C   0  0  0  0  0  0  0  0  0  0  0  0
   -3.9370   23.2010  -31.3970 N   0  0  0  0  0  0  0  0  0  0  0  0
   -5.2760   22.7230  -31.5840 C   0  0  0  0  0  0  0  0  0  0  0  0
   -6.3020   23.3090  -30.8310 C   0  0  0  0  0  0  0  0  0  0  0  0
   -7.6260   22.8970  -30.9940 C   0  0  0  0  0  0  0  0  0  0  0  0
   -7.9350   21.8820  -31.9030 C   0  0  0  0  0  0  0  0  0  0  0  0
   -6.9190   21.2630  -32.6310 C   0  0  0  0  0  0  0  0  0  0  0  0
   -5.5850   21.6610  -32.4680 C   0  0  0  0  0  0  0  0  0  0  0  0
   -4.3110   20.7290  -33.3300 S   0  0  0  0  0  0  0  0  0  0  0  0
   -5.2040   19.1830  -33.1780 C   0  0  0  0  0  0  0  0  0  0  0  0
   -5.4490   18.6330  -31.9120 C   0  0  0  0  0  0  0  0  0  0  0  0
   -6.1280   17.4170  -31.7970 C   0  0  0  0  0  0  0  0  0  0  0  0
   -6.5720   16.7510  -32.9440 C   0  0  0  0  0  0  0  0  0  0  0  0
   -6.3400   17.3030  -34.2080 C   0  0  0  0  0  0  0  0  0  0  0  0
   -5.6570   18.5180  -34.3270 C   0  0  0  0  0  0  0  0  0  0  0  0
   -2.6570   23.6690  -29.2370 C   0  0  0  0  0  0  0  0  0  0  0  0
   -1.7990   24.5700  -28.5880 C   0  0  0  0  0  0  0  0  0  0  0  0
   -1.0020   24.1450  -27.5230 C   0  0  0  0  0  0  0  0  0  0  0  0
   -1.0590   22.8180  -27.0830 C   0  0  0  0  0  0  0  0  0  0  0  0
   -0.2610   22.4010  -26.0170 O   0  0  0  0  0  0  0  0  0  0  0  0
   -1.9270   21.9110  -27.7130 C   0  0  0  0  0  0  0  0  0  0  0  0
   -2.0370   20.2460  -27.1360 S   0  0  0  0  0  0  0  0  0  0  0  0
   -3.4840   19.8400  -27.1100 O   0  0  0  0  0  0  0  0  0  0  0  0
   -1.4730   20.1370  -25.7450 O   0  0  0  0  0  0  0  0  0  0  0  0
   -1.1460   19.2010  -28.2140 N   0  0  0  0  0  0  0  0  0  0  0  0
   -0.5400   19.9920  -29.2990 C   0  0  0  0  0  0  0  0  0  0  0  0
    0.0450   19.0620  -30.3780 C   0  0  0  0  0  0  0  0  0  0  0  0
    0.3810   17.6640  -29.8300 C   0  0  0  0  0  0  0  0  0  0  0  0
    0.8960   17.7460  -28.3890 C   0  0  0  0  0  0  0  0  0  0  0  0
   -0.1100   18.4620  -27.4590 C   0  0  0  0  0  0  0  0  0  0  0  0
   -2.7240   22.3410  -28.7830 C   0  0  0  0  0  0  0  0  0  0  0  0
   -6.0624   24.1002  -30.1054 H   0  0  0  0  0  0  0  0  0  0  0  0
   -8.4259   23.3716  -30.4067 H   0  0  0  0  0  0  0  0  0  0  0  0
   -8.9805   21.5708  -32.0447 H   0  0  0  0  0  0  0  0  0  0  0  0
   -7.1663   20.4572  -33.3377 H   0  0  0  0  0  0  0  0  0  0  0  0
   -5.1066   19.1589  -31.0086 H   0  0  0  0  0  0  0  0  0  0  0  0
   -6.3135   16.9832  -30.8033 H   0  0  0  0  0  0  0  0  0  0  0  0
   -7.1039   15.7926  -32.8519 H   0  0  0  0  0  0  0  0  0  0  0  0
   -6.6948   16.7814  -35.1091 H   0  0  0  0  0  0  0  0  0  0  0  0
   -5.4752   18.9518  -35.3214 H   0  0  0  0  0  0  0  0  0  0  0  0
   -1.7540   25.6176  -28.9203 H   0  0  0  0  0  0  0  0  0  0  0  0
   -0.3258   24.8572  -27.0274 H   0  0  0  0  0  0  0  0  0  0  0  0
   -0.5580   21.6680  -25.3870 H   0  0  0  0  0  0  0  0  0  0  0  0
   -1.3091   20.6346  -29.7524 H   0  0  0  0  0  0  0  0  0  0  0  0
    0.2697   20.6089  -28.8820 H   0  0  0  0  0  0  0  0  0  0  0  0
   -0.6905   18.9558  -31.1890 H   0  0  0  0  0  0  0  0  0  0  0  0
    0.9808   19.5142  -30.7382 H   0  0  0  0  0  0  0  0  0  0  0  0
   -0.5257   17.0417  -29.8527 H   0  0  0  0  0  0  0  0  0  0  0  0
    1.1686   17.2223  -30.4581 H   0  0  0  0  0  0  0  0  0  0  0  0
    1.0649   16.7262  -28.0128 H   0  0  0  0  0  0  0  0  0  0  0  0
    1.8305   18.3262  -28.3927 H   0  0  0  0  0  0  0  0  0  0  0  0
   -0.6031   17.7099  -26.8256 H   0  0  0  0  0  0  0  0  0  0  0  0
    0.4504   19.1911  -26.8554 H   0  0  0  0  0  0  0  0  0  0  0  0
   -3.4084   21.6320  -29.2719 H   0  0  0  0  0  0  0  0  0  0  0  0
  1  2  2  0
  2  3  1  0
  3  4  1  0
  4  5  2  0
  5  6  1  0
  6  7  2  0
  7  8  1  0
  8  9  2  0
  9 10  1  0
 10 11  1  0
 11 12  2  0
 12 13  1  0
 13 14  2  0
 14 15  1  0
 15 16  2  0
  2 17  1  0
 17 18  2  0
 18 19  1  0
 19 20  2  0
 20 21  1  0
 20 22  1  0
 22 23  1  0
 23 24  2  0
 23 25  2  0
 23 26  1  0
 26 27  1  0
 27 28  1  0
 28 29  1  0
 29 30  1  0
 30 31  1  0
 22 32  2  0
  9  4  1  0
 16 11  1  0
 32 17  1  0
 31 26  1  0
  5 33  1  0
  6 34  1  0
  7 35  1  0
  8 36  1  0
 12 37  1  0
 13 38  1  0
 14 39  1  0
 15 40  1  0
 16 41  1  0
 18 42  1  0
 19 43  1  0
 21 44  1  0
 27 45  1  0
 27 46  1  0
 28 47  1  0
 28 48  1  0
 29 49  1  0
 29 50  1  0
 30 51  1  0
 30 52  1  0
 31 53  1  0
 31 54  1  0
 32 55  1  0
M  CHG  1   3  -1
M  END
>  <UniqueID>  (47) 
46

>  <SMILES>  (47) 
O=C([N-]c1ccccc1Sc1ccccc1)c1ccc(O)c(S(=O)(=O)N2CCCCC2)c1

>  <Energy>  (47) 
65.7908565634886

>  <Genealogy>  (47) 
O=C([N-]c1ccccc1Sc1ccccc1)c1ccc(O)c(S(=O)(=O)N2CCCCC2)c1 (protonated)
O=C([N-]c1ccccc1Sc1ccccc1)c1ccc(O)c(S(=O)(=O)N2CCCCC2)c1 (3D coordinates assigned)
O=C([N-]c1ccccc1Sc1ccccc1)c1ccc(O)c(S(=O)(=O)N2CCCCC2)c1 (nonaromatic ring conformer: 65.7908565634886 kcal/mol)

>  <smiles>  (47) 
O=C(Nc1ccccc1Sc1ccccc1)c1ccc(O)c(S(=O)(=O)N2CCCCC2)c1

>  <score_type>  (47) 
oracle

>  <origin>  (47) 
adgpu

>  <m_score__min__energy>  (47) 
-10.93

>  <m_primary>  (47) 
energy

$$$$
47:0
     RDKit          3D

 42 44  0  0  0  0  0  0  0  0999 V2000
   -1.8040   25.9980  -28.5990 O   0  0  0  0  0  0  0  0  0  0  0  0
   -2.2150   24.8980  -29.0550 C   0  0  0  0  0  0  0  0  0  0  0  0
   -3.1190   24.9180  -30.1700 N   0  0  0  0  0  0  0  0  0  0  0  0
   -4.4820   24.4690  -30.1910 C   0  0  0  0  0  0  0  0  0  0  0  0
   -5.5160   25.2840  -29.6940 C   0  0  0  0  0  0  0  0  0  0  0  0
   -6.8410   24.8440  -29.7180 C   0  0  0  0  0  0  0  0  0  0  0  0
   -7.1480   23.5810  -30.2210 C   0  0  0  0  0  0  0  0  0  0  0  0
   -6.1300   22.7470  -30.6850 C   0  0  0  0  0  0  0  0  0  0  0  0
   -4.7930   23.1700  -30.6600 C   0  0  0  0  0  0  0  0  0  0  0  0
   -3.5570   22.0460  -31.2520 S   0  0  0  0  0  0  0  0  0  0  0  0
   -3.6220   20.8030  -30.4090 O   0  0  0  0  0  0  0  0  0  0  0  0
   -2.1780   22.6290  -31.1080 O   0  0  0  0  0  0  0  0  0  0  0  0
   -3.8680   21.6150  -32.9230 N   0  0  0  0  0  0  0  0  0  0  0  0
   -2.7190   20.9310  -33.5390 C   0  0  0  0  0  0  0  0  0  0  0  0
   -2.5700   19.4710  -33.0490 C   0  0  0  0  0  0  0  0  0  0  0  0
   -3.7420   18.9530  -32.4440 O   0  0  0  0  0  0  0  0  0  0  0  0
   -4.8800   19.3280  -33.1880 C   0  0  0  0  0  0  0  0  0  0  0  0
   -5.1220   20.8440  -33.0660 C   0  0  0  0  0  0  0  0  0  0  0  0
   -1.8110   23.6370  -28.3850 C   0  0  0  0  0  0  0  0  0  0  0  0
   -2.7770   22.6610  -28.0800 C   0  0  0  0  0  0  0  0  0  0  0  0
   -2.4130   21.4740  -27.4390 C   0  0  0  0  0  0  0  0  0  0  0  0
   -1.0810   21.2500  -27.0880 C   0  0  0  0  0  0  0  0  0  0  0  0
   -0.1110   22.2130  -27.3760 C   0  0  0  0  0  0  0  0  0  0  0  0
   -0.4660   23.4060  -28.0230 C   0  0  0  0  0  0  0  0  0  0  0  0
    0.5160   24.3510  -28.3180 O   0  0  0  0  0  0  0  0  0  0  0  0
   -5.2784   26.2763  -29.2830 H   0  0  0  0  0  0  0  0  0  0  0  0
   -7.6431   25.4947  -29.3396 H   0  0  0  0  0  0  0  0  0  0  0  0
   -8.1938   23.2413  -30.2523 H   0  0  0  0  0  0  0  0  0  0  0  0
   -6.3784   21.7485  -31.0740 H   0  0  0  0  0  0  0  0  0  0  0  0
   -2.8550   20.9252  -34.6306 H   0  0  0  0  0  0  0  0  0  0  0  0
   -1.8089   21.4767  -33.2492 H   0  0  0  0  0  0  0  0  0  0  0  0
   -2.3159   18.8387  -33.9125 H   0  0  0  0  0  0  0  0  0  0  0  0
   -1.7822   19.4673  -32.2813 H   0  0  0  0  0  0  0  0  0  0  0  0
   -4.7236   19.0694  -34.2457 H   0  0  0  0  0  0  0  0  0  0  0  0
   -5.7570   18.7927  -32.7951 H   0  0  0  0  0  0  0  0  0  0  0  0
   -5.6462   21.1900  -33.9690 H   0  0  0  0  0  0  0  0  0  0  0  0
   -5.7194   21.0119  -32.1577 H   0  0  0  0  0  0  0  0  0  0  0  0
   -3.8295   22.8340  -28.3488 H   0  0  0  0  0  0  0  0  0  0  0  0
   -3.1766   20.7158  -27.2109 H   0  0  0  0  0  0  0  0  0  0  0  0
   -0.7949   20.3148  -26.5844 H   0  0  0  0  0  0  0  0  0  0  0  0
    0.9372   22.0349  -27.0939 H   0  0  0  0  0  0  0  0  0  0  0  0
    0.2790   25.2930  -28.6050 H   0  0  0  0  0  0  0  0  0  0  0  0
  1  2  2  0
  2  3  1  0
  3  4  1  0
  4  5  2  0
  5  6  1  0
  6  7  2  0
  7  8  1  0
  8  9  2  0
  9 10  1  0
 10 11  2  0
 10 12  2  0
 10 13  1  0
 13 14  1  0
 14 15  1  0
 15 16  1  0
 16 17  1  0
 17 18  1  0
  2 19  1  0
 19 20  2  0
 20 21  1  0
 21 22  2  0
 22 23  1  0
 23 24  2  0
 24 25  1  0
  9  4  1  0
 18 13  1  0
 24 19  1  0
  5 26  1  0
  6 27  1  0
  7 28  1  0
  8 29  1  0
 14 30  1  0
 14 31  1  0
 15 32  1  0
 15 33  1  0
 17 34  1  0
 17 35  1  0
 18 36  1  0
 18 37  1  0
 20 38  1  0
 21 39  1  0
 22 40  1  0
 23 41  1  0
 25 42  1  0
M  CHG  1   3  -1
M  END
>  <UniqueID>  (48) 
47

>  <SMILES>  (48) 
O=C([N-]c1ccccc1S(=O)(=O)N1CCOCC1)c1ccccc1O

>  <Energy>  (48) 
62.64451092065754

>  <Genealogy>  (48) 
O=C([N-]c1ccccc1S(=O)(=O)N1CCOCC1)c1ccccc1O (protonated)
O=C([N-]c1ccccc1S(=O)(=O)N1CCOCC1)c1ccccc1O (3D coordinates assigned)
O=C([N-]c1ccccc1S(=O)(=O)N1CCOCC1)c1ccccc1O (nonaromatic ring conformer: 62.64451092065754 kcal/mol)

>  <smiles>  (48) 
O=C(Nc1ccccc1S(=O)(=O)N1CCOCC1)c1ccccc1O

>  <score_type>  (48) 
oracle

>  <origin>  (48) 
adgpu

>  <m_score__min__energy>  (48) 
-10.130000000000001

>  <m_primary>  (48) 
energy

$$$$
48:0
     RDKit          3D

 55 59  0  0  0  0  0  0  0  0999 V2000
   -6.6100   24.0960  -32.1260 C   0  0  0  0  0  0  0  0  0  0  0  0
   -5.5980   24.3640  -31.2060 C   0  0  0  0  0  0  0  0  0  0  0  0
   -5.0510   23.2980  -30.4760 C   0  0  0  0  0  0  0  0  0  0  0  0
   -3.9680   23.5020  -29.4810 C   0  0  0  0  0  0  0  0  0  0  0  0
   -2.6440   23.1550  -29.8050 C   0  0  0  0  0  0  0  0  0  0  0  0
   -1.6140   23.3280  -28.8770 C   0  0  0  0  0  0  0  0  0  0  0  0
   -1.8830   23.8460  -27.5990 C   0  0  0  0  0  0  0  0  0  0  0  0
   -0.8230   24.0060  -26.6330 N   0  0  0  0  0  0  0  0  0  0  0  0
   -0.8360   23.2240  -25.3930 C   0  0  0  0  0  0  0  0  0  0  0  0
    0.3180   23.6320  -24.4640 C   0  0  0  0  0  0  0  0  0  0  0  0
    0.4760   25.1030  -24.3740 N   0  0  2  0  0  0  0  0  0  0  0  0
   -0.6470   25.7500  -23.6590 C   0  0  0  0  0  0  0  0  0  0  0  0
   -1.3530   26.6670  -24.6410 C   0  0  0  0  0  0  0  0  0  0  0  0
   -0.2880   27.0170  -25.6500 C   0  0  0  0  0  0  0  0  0  0  0  0
    0.6250   25.7900  -25.6870 C   0  0  2  0  0  0  0  0  0  0  0  0
    0.3200   24.8830  -26.9080 C   0  0  0  0  0  0  0  0  0  0  0  0
   -3.2050   24.1810  -27.2690 C   0  0  0  0  0  0  0  0  0  0  0  0
   -4.2370   24.0110  -28.1960 C   0  0  0  0  0  0  0  0  0  0  0  0
   -5.5190   22.0390  -30.7020 N   0  0  0  0  0  0  0  0  0  0  0  0
   -6.5080   21.7880  -31.6040 C   0  0  0  0  0  0  0  0  0  0  0  0
   -6.9820   20.4400  -31.8090 N   0  0  0  0  0  0  0  0  0  0  0  0
   -8.4260   20.1860  -31.9240 C   0  0  0  0  0  0  0  0  0  0  0  0
   -8.7430   18.7240  -31.6000 C   0  0  0  0  0  0  0  0  0  0  0  0
   -7.9130   17.8510  -32.3390 O   0  0  0  0  0  0  0  0  0  0  0  0
   -6.5730   18.0110  -31.9190 C   0  0  0  0  0  0  0  0  0  0  0  0
   -6.0530   19.4050  -32.2810 C   0  0  0  0  0  0  0  0  0  0  0  0
   -7.0440   22.8230  -32.3060 N   0  0  0  0  0  0  0  0  0  0  0  0
   -7.0570   24.9166  -32.7063 H   0  0  0  0  0  0  0  0  0  0  0  0
   -5.2351   25.3914  -31.0551 H   0  0  0  0  0  0  0  0  0  0  0  0
   -2.4171   22.7431  -30.7994 H   0  0  0  0  0  0  0  0  0  0  0  0
   -0.5835   23.0563  -29.1493 H   0  0  0  0  0  0  0  0  0  0  0  0
   -1.7909   23.3919  -24.8734 H   0  0  0  0  0  0  0  0  0  0  0  0
   -0.7152   22.1615  -25.6511 H   0  0  0  0  0  0  0  0  0  0  0  0
    0.1186   23.2356  -23.4575 H   0  0  0  0  0  0  0  0  0  0  0  0
    1.2479   23.2191  -24.8821 H   0  0  0  0  0  0  0  0  0  0  0  0
    1.3490   25.2770  -23.8180 H   0  0  0  0  0  0  0  0  0  0  0  0
   -1.3469   24.9853  -23.2910 H   0  0  0  0  0  0  0  0  0  0  0  0
   -0.2754   26.3226  -22.7964 H   0  0  0  0  0  0  0  0  0  0  0  0
   -2.1935   26.1478  -25.1248 H   0  0  0  0  0  0  0  0  0  0  0  0
   -1.7817   27.5557  -24.1548 H   0  0  0  0  0  0  0  0  0  0  0  0
   -0.7344   27.1991  -26.6387 H   0  0  0  0  0  0  0  0  0  0  0  0
    0.2562   27.9345  -25.3816 H   0  0  0  0  0  0  0  0  0  0  0  0
    1.6776   26.0774  -25.8268 H   0  0  0  0  0  0  0  0  0  0  0  0
    0.0884   25.5152  -27.7779 H   0  0  0  0  0  0  0  0  0  0  0  0
    1.2022   24.2586  -27.1124 H   0  0  0  0  0  0  0  0  0  0  0  0
   -3.4316   24.5817  -26.2700 H   0  0  0  0  0  0  0  0  0  0  0  0
   -5.2679   24.2770  -27.9195 H   0  0  0  0  0  0  0  0  0  0  0  0
   -8.9649   20.8374  -31.2202 H   0  0  0  0  0  0  0  0  0  0  0  0
   -8.7423   20.3973  -32.9562 H   0  0  0  0  0  0  0  0  0  0  0  0
   -8.5820   18.5503  -30.5258 H   0  0  0  0  0  0  0  0  0  0  0  0
   -9.7906   18.5241  -31.8694 H   0  0  0  0  0  0  0  0  0  0  0  0
   -6.5184   17.8776  -30.8285 H   0  0  0  0  0  0  0  0  0  0  0  0
   -5.9516   17.2595  -32.4280 H   0  0  0  0  0  0  0  0  0  0  0  0
   -5.0708   19.5584  -31.8101 H   0  0  0  0  0  0  0  0  0  0  0  0
   -5.9651   19.4785  -33.3750 H   0  0  0  0  0  0  0  0  0  0  0  0
  1  2  2  0
  2  3  1  0
  3  4  1  0
  4  5  2  0
  5  6  1  0
  6  7  2  0
  7  8  1  0
  8  9  1  0
  9 10  1  0
 10 11  1  0
 11 12  1  0
 12 13  1  0
 13 14  1  0
 14 15  1  0
 15 16  1  0
  7 17  1  0
 17 18  2  0
  3 19  2  0
 19 20  1  0
 20 21  1  0
 21 22  1  0
 22 23  1  0
 23 24  1  0
 24 25  1  0
 25 26  1  0
 20 27  2  0
 27  1  1  0
 18  4  1  0
 26 21  1  0
 16  8  1  0
 15 11  1  0
  1 28  1  0
  2 29  1  0
  5 30  1  0
  6 31  1  0
  9 32  1  0
  9 33  1  0
 10 34  1  0
 10 35  1  0
 11 36  1  1
 12 37  1  0
 12 38  1  0
 13 39  1  0
 13 40  1  0
 14 41  1  0
 14 42  1  0
 15 43  1  6
 16 44  1  0
 16 45  1  0
 17 46  1  0
 18 47  1  0
 22 48  1  0
 22 49  1  0
 23 50  1  0
 23 51  1  0
 25 52  1  0
 25 53  1  0
 26 54  1  0
 26 55  1  0
M  CHG  1  11   1
M  END
>  <UniqueID>  (49) 
48

>  <SMILES>  (49) 
c1cc(-c2ccc(N3CC[N@@H+]4CCC[C@@H]4C3)cc2)nc(N2CCOCC2)n1

>  <Energy>  (49) 
77.58014295833864

>  <Genealogy>  (49) 
c1cc(-c2ccc(N3CC[NH+]4CCCC4C3)cc2)nc(N2CCOCC2)n1 (protonated)
c1cc(-c2ccc(N3CC[N@@H+]4CCC[C@@H]4C3)cc2)nc(N2CCOCC2)n1 (chirality)
c1cc(-c2ccc(N3CC[N@@H+]4CCC[C@@H]4C3)cc2)nc(N2CCOCC2)n1 (3D coordinates assigned)
c1cc(-c2ccc(N3CC[N@@H+]4CCC[C@@H]4C3)cc2)nc(N2CCOCC2)n1 (nonaromatic ring conformer: 77.58014295833864 kcal/mol)

>  <smiles>  (49) 
c1cc(-c2ccc(N3CCN4CCCC4C3)cc2)nc(N2CCOCC2)n1

>  <score_type>  (49) 
oracle

>  <origin>  (49) 
adgpu

>  <m_score__min__energy>  (49) 
-8.9499999999999993

>  <m_primary>  (49) 
energy

$$$$
