0:0
     RDKit          3D

 35 37  0  0  0  0  0  0  0  0999 V2000
   -0.2520   26.7920  -23.1170 C   0  0  0  0  0  0  0  0  0  0  0  0
   -0.3450   25.9480  -24.3540 C   0  0  0  0  0  0  0  0  0  0  0  0
   -1.5310   25.9190  -25.1020 C   0  0  0  0  0  0  0  0  0  0  0  0
   -1.6320   25.1050  -26.2340 C   0  0  0  0  0  0  0  0  0  0  0  0
   -0.5550   24.2910  -26.6270 C   0  0  0  0  0  0  0  0  0  0  0  0
   -0.6670   23.4390  -27.8380 C   0  0  0  0  0  0  0  0  0  0  0  0
    0.3040   22.7100  -28.1790 O   0  0  0  0  0  0  0  0  0  0  0  0
   -1.8990   23.4090  -28.6630 C   0  0  0  0  0  0  0  0  0  0  0  0
   -2.6250   22.2090  -28.8540 C   0  0  0  0  0  0  0  0  0  0  0  0
   -2.2710   20.9490  -28.1550 C   0  0  0  0  0  0  0  0  0  0  0  0
   -3.1150   20.4160  -27.1680 C   0  0  0  0  0  0  0  0  0  0  0  0
   -2.7650   19.2240  -26.5310 C   0  0  0  0  0  0  0  0  0  0  0  0
   -1.6170   18.5810  -26.8710 N   0  0  0  0  0  0  0  0  0  0  0  0
   -0.7840   19.0690  -27.8300 C   0  0  0  0  0  0  0  0  0  0  0  0
   -1.0970   20.2570  -28.4920 C   0  0  0  0  0  0  0  0  0  0  0  0
   -3.7390   22.2220  -29.7090 C   0  0  0  0  0  0  0  0  0  0  0  0
   -4.1190   23.3690  -30.3270 N   0  0  0  0  0  0  0  0  0  0  0  0
   -3.4420   24.5330  -30.1560 C   0  0  0  0  0  0  0  0  0  0  0  0
   -3.8700   25.6800  -30.8160 O   0  0  0  0  0  0  0  0  0  0  0  0
   -2.3160   24.5760  -29.3300 C   0  0  0  0  0  0  0  0  0  0  0  0
   -1.6110   25.7680  -29.1910 O   0  0  0  0  0  0  0  0  0  0  0  0
    0.6300   24.3170  -25.8670 C   0  0  0  0  0  0  0  0  0  0  0  0
    0.7290   25.1320  -24.7350 C   0  0  0  0  0  0  0  0  0  0  0  0
   -0.3229   26.1484  -22.2278 H   0  0  0  0  0  0  0  0  0  0  0  0
    0.7103   27.3248  -23.1082 H   0  0  0  0  0  0  0  0  0  0  0  0
   -1.0752   27.5216  -23.1082 H   0  0  0  0  0  0  0  0  0  0  0  0
   -2.3860   26.5399  -24.7964 H   0  0  0  0  0  0  0  0  0  0  0  0
   -2.5616   25.1013  -26.8221 H   0  0  0  0  0  0  0  0  0  0  0  0
   -4.0468   20.9346  -26.8980 H   0  0  0  0  0  0  0  0  0  0  0  0
   -3.4195   18.8046  -25.7527 H   0  0  0  0  0  0  0  0  0  0  0  0
    0.1382   18.5258  -28.0840 H   0  0  0  0  0  0  0  0  0  0  0  0
   -0.4282   20.6486  -29.2727 H   0  0  0  0  0  0  0  0  0  0  0  0
   -4.3077   21.2959  -29.8790 H   0  0  0  0  0  0  0  0  0  0  0  0
    1.4841   23.6916  -26.1659 H   0  0  0  0  0  0  0  0  0  0  0  0
    1.6545   25.1327  -24.1405 H   0  0  0  0  0  0  0  0  0  0  0  0
  1  2  1  0
  2  3  2  0
  3  4  1  0
  4  5  2  0
  5  6  1  0
  6  7  2  0
  6  8  1  0
  8  9  1  0
  9 10  1  0
 10 11  2  0
 11 12  1  0
 12 13  2  0
 13 14  1  0
 14 15  2  0
  9 16  2  0
 16 17  1  0
 17 18  2  0
 18 19  1  0
 18 20  1  0
 20 21  1  0
  5 22  1  0
 22 23  2  0
 23  2  1  0
 20  8  2  0
 15 10  1  0
  1 24  1  0
  1 25  1  0
  1 26  1  0
  3 27  1  0
  4 28  1  0
 11 29  1  0
 12 30  1  0
 14 31  1  0
 15 32  1  0
 16 33  1  0
 22 34  1  0
 23 35  1  0
M  CHG  2  19  -1  21  -1
M  END
>  <UniqueID>  (1) 
1

>  <SMILES>  (1) 
Cc1ccc(C(=O)c2c(-c3ccncc3)cnc([O-])c2[O-])cc1

>  <Energy>  (1) 
54.18915330754058

>  <Genealogy>  (1) 
Cc1ccc(C(=O)c2c(-c3ccncc3)cnc([O-])c2[O-])cc1 (protonated)
Cc1ccc(C(=O)c2c(-c3ccncc3)cnc([O-])c2[O-])cc1 (3D coordinates assigned)
Cc1ccc(C(=O)c2c(-c3ccncc3)cnc([O-])c2[O-])cc1 (optimized conformer: 54.18915330754058 kcal/mol)

>  <smiles>  (1) 
Cc1ccc(C(=O)c2c(-c3ccncc3)cnc(O)c2O)cc1

>  <score_type>  (1) 
oracle

>  <origin>  (1) 
adgpu

>  <m_score__min__energy>  (1) 
-13.33

>  <m_primary>  (1) 
energy

$$$$
1:0
     RDKit          3D

 57 61  0  0  0  0  0  0  0  0999 V2000
    0.8660   18.6160  -32.7520 C   0  0  0  0  0  0  0  0  0  0  0  0
   -0.3960   19.4270  -32.7830 C   0  0  0  0  0  0  0  0  0  0  0  0
   -1.5950   18.8430  -33.2180 C   0  0  0  0  0  0  0  0  0  0  0  0
   -2.7650   19.6030  -33.2870 C   0  0  0  0  0  0  0  0  0  0  0  0
   -2.7490   20.9620  -32.9380 C   0  0  0  0  0  0  0  0  0  0  0  0
   -4.0070   21.7790  -33.0610 C   0  0  0  0  0  0  0  0  0  0  0  0
   -5.1100   21.1020  -32.3450 N   0  0  0  0  0  0  0  0  0  0  0  0
   -5.5620   21.8890  -31.1780 C   0  0  0  0  0  0  0  0  0  0  0  0
   -4.3930   22.6080  -30.5520 C   0  0  0  0  0  0  0  0  0  0  0  0
   -3.4550   21.9000  -29.7890 C   0  0  0  0  0  0  0  0  0  0  0  0
   -2.3860   22.5730  -29.1870 C   0  0  0  0  0  0  0  0  0  0  0  0
   -1.4400   21.8790  -28.4170 C   0  0  0  0  0  0  0  0  0  0  0  0
   -0.3820   22.5690  -27.8190 C   0  0  0  0  0  0  0  0  0  0  0  0
    0.5290   21.8960  -27.0750 F   0  0  0  0  0  0  0  0  0  0  0  0
   -0.2630   23.9510  -27.9860 C   0  0  0  0  0  0  0  0  0  0  0  0
   -1.1990   24.6540  -28.7510 C   0  0  0  0  0  0  0  0  0  0  0  0
   -1.0590   25.9950  -28.8980 F   0  0  0  0  0  0  0  0  0  0  0  0
   -2.2680   23.9710  -29.3590 C   0  0  0  0  0  0  0  0  0  0  0  0
   -3.1920   24.6420  -30.1090 N   0  0  0  0  0  0  0  0  0  0  0  0
   -4.2390   23.9990  -30.7000 C   0  0  0  0  0  0  0  0  0  0  0  0
   -5.0660   24.6610  -31.3840 O   0  0  0  0  0  0  0  0  0  0  0  0
   -6.2350   20.7840  -33.2500 C   0  0  0  0  0  0  0  0  0  0  0  0
   -6.2050   19.3210  -33.5750 C   0  0  0  0  0  0  0  0  0  0  0  0
   -5.5350   18.8030  -34.6220 N   0  0  0  0  0  0  0  0  0  0  0  0
   -5.7350   17.4930  -34.5470 N   0  0  0  0  0  0  0  0  0  0  0  0
   -6.4980   17.2070  -33.5030 N   0  0  0  0  0  0  0  0  0  0  0  0
   -6.8160   18.3330  -32.8900 N   0  0  0  0  0  0  0  0  0  0  0  0
   -7.5850   18.4060  -31.6490 C   0  0  0  0  0  0  0  0  0  0  0  0
   -8.4020   19.6570  -31.6270 C   0  0  0  0  0  0  0  0  0  0  0  0
   -9.4750   19.9390  -32.4500 C   0  0  0  0  0  0  0  0  0  0  0  0
   -9.9080   21.1940  -32.0750 C   0  0  0  0  0  0  0  0  0  0  0  0
   -9.0760   21.5960  -31.0480 C   0  0  0  0  0  0  0  0  0  0  0  0
   -8.1910   20.6580  -30.8000 O   0  0  0  0  0  0  0  0  0  0  0  0
   -1.5460   21.5510  -32.5150 C   0  0  0  0  0  0  0  0  0  0  0  0
   -0.3760   20.7890  -32.4440 C   0  0  0  0  0  0  0  0  0  0  0  0
    1.1564   18.4294  -31.7076 H   0  0  0  0  0  0  0  0  0  0  0  0
    0.6979   17.6564  -33.2629 H   0  0  0  0  0  0  0  0  0  0  0  0
    1.6690   19.1676  -33.2629 H   0  0  0  0  0  0  0  0  0  0  0  0
   -1.6139   17.7816  -33.5061 H   0  0  0  0  0  0  0  0  0  0  0  0
   -3.7037   19.1337  -33.6166 H   0  0  0  0  0  0  0  0  0  0  0  0
   -3.8418   22.7740  -32.6220 H   0  0  0  0  0  0  0  0  0  0  0  0
   -4.2716   21.8847  -34.1235 H   0  0  0  0  0  0  0  0  0  0  0  0
   -6.3100   22.6265  -31.5044 H   0  0  0  0  0  0  0  0  0  0  0  0
   -6.0052   21.2090  -30.4356 H   0  0  0  0  0  0  0  0  0  0  0  0
   -3.5592   20.8122  -29.6629 H   0  0  0  0  0  0  0  0  0  0  0  0
   -1.5313   20.7909  -28.2840 H   0  0  0  0  0  0  0  0  0  0  0  0
    0.5717   24.4891  -27.5130 H   0  0  0  0  0  0  0  0  0  0  0  0
   -3.1080   25.6750  -30.2390 H   0  0  0  0  0  0  0  0  0  0  0  0
   -7.1862   21.0322  -32.7564 H   0  0  0  0  0  0  0  0  0  0  0  0
   -6.1431   21.3711  -34.1757 H   0  0  0  0  0  0  0  0  0  0  0  0
   -8.2521   17.5340  -31.5820 H   0  0  0  0  0  0  0  0  0  0  0  0
   -6.8921   18.4121  -30.7946 H   0  0  0  0  0  0  0  0  0  0  0  0
   -9.8957   19.2977  -33.2385 H   0  0  0  0  0  0  0  0  0  0  0  0
  -10.7465   21.7603  -32.5066 H   0  0  0  0  0  0  0  0  0  0  0  0
   -9.1445   22.5573  -30.5177 H   0  0  0  0  0  0  0  0  0  0  0  0
   -1.5244   22.6155  -32.2386 H   0  0  0  0  0  0  0  0  0  0  0  0
    0.5646   21.2590  -32.1210 H   0  0  0  0  0  0  0  0  0  0  0  0
  1  2  1  0
  2  3  2  0
  3  4  1  0
  4  5  2  0
  5  6  1  0
  6  7  1  0
  7  8  1  0
  8  9  1  0
  9 10  2  0
 10 11  1  0
 11 12  2  0
 12 13  1  0
 13 14  1  0
 13 15  2  0
 15 16  1  0
 16 17  1  0
 16 18  2  0
 18 19  1  0
 19 20  1  0
 20 21  2  0
  7 22  1  0
 22 23  1  0
 23 24  2  0
 24 25  1  0
 25 26  2  0
 26 27  1  0
 27 28  1  0
 28 29  1  0
 29 30  2  0
 30 31  1  0
 31 32  2  0
 32 33  1  0
  5 34  1  0
 34 35  2  0
 35  2  1  0
 20  9  1  0
 27 23  1  0
 33 29  1  0
 18 11  1  0
  1 36  1  0
  1 37  1  0
  1 38  1  0
  3 39  1  0
  4 40  1  0
  6 41  1  0
  6 42  1  0
  8 43  1  0
  8 44  1  0
 10 45  1  0
 12 46  1  0
 15 47  1  0
 19 48  1  0
 22 49  1  0
 22 50  1  0
 28 51  1  0
 28 52  1  0
 30 53  1  0
 31 54  1  0
 32 55  1  0
 34 56  1  0
 35 57  1  0
M  END
>  <UniqueID>  (2) 
2

>  <SMILES>  (2) 
Cc1ccc(CN(Cc2cc3cc(F)cc(F)c3[nH]c2=O)Cc2nnnn2Cc2ccco2)cc1

>  <Energy>  (2) 
130.01687585316625

>  <Genealogy>  (2) 
Cc1ccc(CN(Cc2cc3cc(F)cc(F)c3[nH]c2=O)Cc2nnnn2Cc2ccco2)cc1 (3D coordinates assigned)
Cc1ccc(CN(Cc2cc3cc(F)cc(F)c3[nH]c2=O)Cc2nnnn2Cc2ccco2)cc1 (optimized conformer: 130.01687585316625 kcal/mol)

>  <smiles>  (2) 
Cc1ccc(CN(Cc2cc3cc(F)cc(F)c3[nH]c2=O)Cc2nnnn2Cc2ccco2)cc1

>  <score_type>  (2) 
oracle

>  <origin>  (2) 
adgpu

>  <m_score__min__energy>  (2) 
-10.550000000000001

>  <m_primary>  (2) 
energy

$$$$
2:0
     RDKit          3D

 46 49  0  0  0  0  0  0  0  0999 V2000
   -1.2757   25.2277  -28.7256 H   0  0  0  0  0  0  0  0  0  0  0  0
   -2.1560   24.6540  -29.0510 C   0  0  0  0  0  0  0  0  0  0  0  0
   -3.1600   25.2790  -29.7150 N   0  0  0  0  0  0  0  0  0  0  0  0
   -4.2600   24.6080  -30.1440 C   0  0  0  0  0  0  0  0  0  0  0  0
   -5.2860   25.3030  -30.7950 C   0  0  0  0  0  0  0  0  0  0  0  0
   -5.1832   26.3819  -30.9829 H   0  0  0  0  0  0  0  0  0  0  0  0
   -6.4400   24.6320  -31.2070 C   0  0  0  0  0  0  0  0  0  0  0  0
   -7.2516   25.1891  -31.6978 H   0  0  0  0  0  0  0  0  0  0  0  0
   -6.5680   23.2540  -30.9980 C   0  0  0  0  0  0  0  0  0  0  0  0
   -8.0520   22.4260  -31.4760 S   0  0  0  0  0  0  0  0  0  0  0  0
   -8.9440   23.4000  -32.1980 O   0  0  0  0  0  0  0  0  0  0  0  0
   -8.7670   21.9030  -30.2610 O   0  0  0  0  0  0  0  0  0  0  0  0
   -7.7020   21.1040  -32.5470 N   0  0  0  0  0  0  0  0  0  0  0  0
   -6.4480   20.4120  -32.6280 C   0  0  0  0  0  0  0  0  0  0  0  0
   -5.2770   21.0400  -33.0850 C   0  0  0  0  0  0  0  0  0  0  0  0
   -5.2957   22.1052  -33.3588 H   0  0  0  0  0  0  0  0  0  0  0  0
   -4.0880   20.3120  -33.1920 C   0  0  0  0  0  0  0  0  0  0  0  0
   -3.1707   20.8154  -33.5315 H   0  0  0  0  0  0  0  0  0  0  0  0
   -4.0520   18.9500  -32.8720 C   0  0  0  0  0  0  0  0  0  0  0  0
   -2.8390   18.2600  -33.0150 O   0  0  0  0  0  0  0  0  0  0  0  0
   -1.5630   18.8010  -32.6880 C   0  0  0  0  0  0  0  0  0  0  0  0
   -1.4537   18.8473  -31.5944 H   0  0  0  0  0  0  0  0  0  0  0  0
   -0.7742   18.1599  -33.1085 H   0  0  0  0  0  0  0  0  0  0  0  0
   -1.4754   19.8137  -33.1085 H   0  0  0  0  0  0  0  0  0  0  0  0
   -5.2280   18.3230  -32.4270 C   0  0  0  0  0  0  0  0  0  0  0  0
   -5.2176   17.2503  -32.1836 H   0  0  0  0  0  0  0  0  0  0  0  0
   -6.4110   19.0550  -32.2920 C   0  0  0  0  0  0  0  0  0  0  0  0
   -7.3197   18.5600  -31.9187 H   0  0  0  0  0  0  0  0  0  0  0  0
   -5.5220   22.5470  -30.3840 C   0  0  0  0  0  0  0  0  0  0  0  0
   -5.5994   21.4563  -30.2641 H   0  0  0  0  0  0  0  0  0  0  0  0
   -4.3750   23.2190  -29.9200 C   0  0  0  0  0  0  0  0  0  0  0  0
   -3.3470   22.5430  -29.2210 C   0  0  0  0  0  0  0  0  0  0  0  0
   -3.4840   21.2720  -28.9530 N   0  0  0  0  0  0  0  0  0  0  0  0
   -2.5570   20.3870  -28.3080 C   0  0  0  0  0  0  0  0  0  0  0  0
   -2.9640   19.6990  -27.1580 C   0  0  0  0  0  0  0  0  0  0  0  0
   -3.9645   19.8797  -26.7379 H   0  0  0  0  0  0  0  0  0  0  0  0
   -2.1060   18.7840  -26.5410 C   0  0  0  0  0  0  0  0  0  0  0  0
   -2.4244   18.2615  -25.6269 H   0  0  0  0  0  0  0  0  0  0  0  0
   -0.8430   18.5330  -27.0860 C   0  0  0  0  0  0  0  0  0  0  0  0
   -0.1654   17.8183  -26.5961 H   0  0  0  0  0  0  0  0  0  0  0  0
   -0.4400   19.1900  -28.2540 C   0  0  0  0  0  0  0  0  0  0  0  0
    1.2750   18.8280  -29.0100 Br  0  0  0  0  0  0  0  0  0  0  0  0
   -1.3000   20.1060  -28.8720 C   0  0  0  0  0  0  0  0  0  0  0  0
   -0.9914   20.6072  -29.8013 H   0  0  0  0  0  0  0  0  0  0  0  0
   -2.2330   23.2870  -28.7780 C   0  0  0  0  0  0  0  0  0  0  0  0
   -1.4264   22.7907  -28.2184 H   0  0  0  0  0  0  0  0  0  0  0  0
  1  2  1  0
  2  3  1  0
  3  4  1  0
  4  5  2  0
  5  6  1  0
  5  7  1  0
  7  8  1  0
  7  9  2  0
  9 10  1  0
 10 11  2  0
 10 12  2  0
 10 13  1  0
 13 14  1  0
 14 15  2  0
 15 16  1  0
 15 17  1  0
 17 18  1  0
 17 19  2  0
 19 20  1  0
 20 21  1  0
 21 22  1  0
 21 23  1  0
 21 24  1  0
 19 25  1  0
 25 26  1  0
 25 27  2  0
 27 28  1  0
  9 29  1  0
 29 30  1  0
 29 31  2  0
 31 32  1  0
 32 33  2  0
 33 34  1  0
 34 35  2  0
 35 36  1  0
 35 37  1  0
 37 38  1  0
 37 39  2  0
 39 40  1  0
 39 41  1  0
 41 42  1  0
 41 43  2  0
 43 44  1  0
 32 45  1  0
 45 46  1  0
 45  2  2  0
 31  4  1  0
 43 34  1  0
 27 14  1  0
M  CHG  2   3  -1  13  -1
M  END
>  <UniqueID>  (3) 
3

>  <SMILES>  (3) 
COc1ccc([N-]S(=O)(=O)c2ccc3[n-]cc/c(=N\c4cccc(Br)c4)c3c2)cc1

>  <Energy>  (3) 
67.39750682707285

>  <Genealogy>  (3) 
COc1ccc([N-]S(=O)(=O)c2ccc3[n-]ccc(=Nc4cccc(Br)c4)c3c2)cc1 (protonated)
COc1ccc([N-]S(=O)(=O)c2ccc3[n-]cc/c(=N\c4cccc(Br)c4)c3c2)cc1 (cis-trans isomerization)
COc1ccc([N-]S(=O)(=O)c2ccc3[n-]cc/c(=N\c4cccc(Br)c4)c3c2)cc1 (3D coordinates assigned)
COc1ccc([N-]S(=O)(=O)c2ccc3[n-]cc/c(=N\c4cccc(Br)c4)c3c2)cc1 (optimized conformer: 67.39750682707285 kcal/mol)

>  <smiles>  (3) 
COc1ccc(NS(=O)(=O)c2ccc3[nH]ccc(=Nc4cccc(Br)c4)c3c2)cc1

>  <score_type>  (3) 
oracle

>  <origin>  (3) 
adgpu

>  <m_score__min__energy>  (3) 
-11.359999999999999

>  <m_primary>  (3) 
energy

$$$$
3:0
     RDKit          3D

 49 53  0  0  0  0  0  0  0  0999 V2000
   -6.5660   18.2600  -31.1590 O   0  0  0  0  0  0  0  0  0  0  0  0
   -7.2160   18.7440  -32.4280 S   0  0  0  0  0  0  0  0  0  0  0  0
   -8.3700   17.8350  -32.7470 O   0  0  0  0  0  0  0  0  0  0  0  0
   -6.0600   18.6780  -33.7220 N   0  0  0  0  0  0  0  0  0  0  0  0
   -4.6870   19.0890  -33.5890 C   0  0  0  0  0  0  0  0  0  0  0  0
   -3.6640   18.5150  -34.3660 C   0  0  0  0  0  0  0  0  0  0  0  0
   -2.3420   18.9360  -34.2130 C   0  0  0  0  0  0  0  0  0  0  0  0
   -2.0240   19.9330  -33.2890 C   0  0  0  0  0  0  0  0  0  0  0  0
   -3.0290   20.5200  -32.5030 C   0  0  0  0  0  0  0  0  0  0  0  0
   -2.6970   21.6070  -31.5480 C   0  0  0  0  0  0  0  0  0  0  0  0
   -1.4170   21.6790  -30.9720 C   0  0  0  0  0  0  0  0  0  0  0  0
   -1.1130   22.6750  -30.0400 C   0  0  0  0  0  0  0  0  0  0  0  0
   -2.0790   23.6230  -29.6680 C   0  0  0  0  0  0  0  0  0  0  0  0
   -1.7670   24.6520  -28.6500 C   0  0  0  0  0  0  0  0  0  0  0  0
   -2.0460   24.4940  -27.3270 N   0  0  0  0  0  0  0  0  0  0  0  0
   -1.5790   25.6310  -26.7890 C   0  0  0  0  0  0  0  0  0  0  0  0
   -1.6000   26.0150  -25.4480 C   0  0  0  0  0  0  0  0  0  0  0  0
   -1.0360   27.2620  -25.1170 C   0  0  0  0  0  0  0  0  0  0  0  0
   -0.4790   28.0850  -26.1230 C   0  0  0  0  0  0  0  0  0  0  0  0
   -0.4830   27.6660  -27.4680 C   0  0  0  0  0  0  0  0  0  0  0  0
   -1.0440   26.4220  -27.7570 C   0  0  0  0  0  0  0  0  0  0  0  0
   -1.1490   25.8270  -28.9540 N   0  0  0  0  0  0  0  0  0  0  0  0
   -3.3540   23.5610  -30.2540 C   0  0  0  0  0  0  0  0  0  0  0  0
   -3.6600   22.5620  -31.1810 C   0  0  0  0  0  0  0  0  0  0  0  0
   -4.3570   20.0810  -32.6520 C   0  0  0  0  0  0  0  0  0  0  0  0
   -7.8160   20.3890  -32.2410 C   0  0  0  0  0  0  0  0  0  0  0  0
   -9.1700   20.6300  -31.9630 C   0  0  0  0  0  0  0  0  0  0  0  0
   -9.6320   21.9430  -31.8180 C   0  0  0  0  0  0  0  0  0  0  0  0
   -8.7460   23.0180  -31.9440 C   0  0  0  0  0  0  0  0  0  0  0  0
   -7.3950   22.7820  -32.2210 C   0  0  0  0  0  0  0  0  0  0  0  0
   -6.5390   23.8260  -32.3580 F   0  0  0  0  0  0  0  0  0  0  0  0
   -6.9310   21.4690  -32.3720 C   0  0  0  0  0  0  0  0  0  0  0  0
   -6.3730   18.2260  -34.6120 H   0  0  0  0  0  0  0  0  0  0  0  0
   -3.9073   17.7305  -35.0977 H   0  0  0  0  0  0  0  0  0  0  0  0
   -1.5478   18.4805  -34.8227 H   0  0  0  0  0  0  0  0  0  0  0  0
   -0.9801   20.2608  -33.1759 H   0  0  0  0  0  0  0  0  0  0  0  0
   -0.6484   20.9456  -31.2570 H   0  0  0  0  0  0  0  0  0  0  0  0
   -0.1082   22.7164  -29.5942 H   0  0  0  0  0  0  0  0  0  0  0  0
   -2.0414   25.3667  -24.6767 H   0  0  0  0  0  0  0  0  0  0  0  0
   -1.0286   27.5980  -24.0696 H   0  0  0  0  0  0  0  0  0  0  0  0
   -0.0404   29.0572  -25.8540 H   0  0  0  0  0  0  0  0  0  0  0  0
   -0.0587   28.2976  -28.2624 H   0  0  0  0  0  0  0  0  0  0  0  0
   -4.1171   24.3047  -29.9809 H   0  0  0  0  0  0  0  0  0  0  0  0
   -4.6643   22.5226  -31.6279 H   0  0  0  0  0  0  0  0  0  0  0  0
   -5.1474   20.5208  -32.0261 H   0  0  0  0  0  0  0  0  0  0  0  0
   -9.8685   19.7867  -31.8590 H   0  0  0  0  0  0  0  0  0  0  0  0
  -10.6947   22.1301  -31.6044 H   0  0  0  0  0  0  0  0  0  0  0  0
   -9.1113   24.0488  -31.8253 H   0  0  0  0  0  0  0  0  0  0  0  0
   -5.8695   21.2845  -32.5939 H   0  0  0  0  0  0  0  0  0  0  0  0
  1  2  2  0
  2  3  2  0
  2  4  1  0
  4  5  1  0
  5  6  2  0
  6  7  1  0
  7  8  2  0
  8  9  1  0
  9 10  1  0
 10 11  2  0
 11 12  1  0
 12 13  2  0
 13 14  1  0
 14 15  2  0
 15 16  1  0
 16 17  2  0
 17 18  1  0
 18 19  2  0
 19 20  1  0
 20 21  2  0
 21 22  1  0
 13 23  1  0
 23 24  2  0
  9 25  2  0
  2 26  1  0
 26 27  2  0
 27 28  1  0
 28 29  2  0
 29 30  1  0
 30 31  1  0
 30 32  2  0
 25  5  1  0
 32 26  1  0
 24 10  1  0
 22 14  1  0
 21 16  1  0
  4 33  1  0
  6 34  1  0
  7 35  1  0
  8 36  1  0
 11 37  1  0
 12 38  1  0
 17 39  1  0
 18 40  1  0
 19 41  1  0
 20 42  1  0
 23 43  1  0
 24 44  1  0
 25 45  1  0
 27 46  1  0
 28 47  1  0
 29 48  1  0
 32 49  1  0
M  CHG  1  22  -1
M  END
>  <UniqueID>  (4) 
4

>  <SMILES>  (4) 
O=S(=O)(Nc1cccc(-c2ccc(-c3nc4ccccc4[n-]3)cc2)c1)c1cccc(F)c1

>  <Energy>  (4) 
100.27381901826605

>  <Genealogy>  (4) 
O=S(=O)(Nc1cccc(-c2ccc(-c3nc4ccccc4[n-]3)cc2)c1)c1cccc(F)c1 (protonated)
O=S(=O)(Nc1cccc(-c2ccc(-c3nc4ccccc4[n-]3)cc2)c1)c1cccc(F)c1 (3D coordinates assigned)
O=S(=O)(Nc1cccc(-c2ccc(-c3nc4ccccc4[n-]3)cc2)c1)c1cccc(F)c1 (optimized conformer: 100.27381901826605 kcal/mol)

>  <smiles>  (4) 
O=S(=O)(Nc1cccc(-c2ccc(-c3nc4ccccc4[nH]3)cc2)c1)c1cccc(F)c1

>  <score_type>  (4) 
oracle

>  <origin>  (4) 
adgpu

>  <m_score__min__energy>  (4) 
-11.1

>  <m_primary>  (4) 
energy

$$$$
4:0
     RDKit          3D

 55 57  0  0  0  0  0  0  0  0999 V2000
   -2.9800   24.8920  -26.7380 C   0  0  0  0  0  0  0  0  0  0  0  0
   -4.2420   24.2170  -27.2670 C   0  0  0  0  0  0  0  0  0  0  0  0
   -4.0630   23.8130  -28.6660 N   0  0  0  0  0  0  0  0  0  0  0  0
   -3.1850   22.7270  -29.0130 C   0  0  0  0  0  0  0  0  0  0  0  0
   -3.1510   21.5650  -28.2270 C   0  0  0  0  0  0  0  0  0  0  0  0
   -2.2960   20.5110  -28.5550 C   0  0  0  0  0  0  0  0  0  0  0  0
   -1.4550   20.6050  -29.6810 C   0  0  0  0  0  0  0  0  0  0  0  0
   -0.5790   19.5740  -30.0540 O   0  0  0  0  0  0  0  0  0  0  0  0
   -0.0790   19.3830  -31.3730 C   0  0  0  0  0  0  0  0  0  0  0  0
   -1.4870   21.7650  -30.4620 C   0  0  0  0  0  0  0  0  0  0  0  0
   -2.3420   22.8200  -30.1320 C   0  0  0  0  0  0  0  0  0  0  0  0
   -4.9620   24.6300  -29.9120 S   0  0  0  0  0  0  0  0  0  0  0  0
   -5.8610   25.6660  -29.2960 O   0  0  0  0  0  0  0  0  0  0  0  0
   -4.0120   25.3330  -30.8420 O   0  0  0  0  0  0  0  0  0  0  0  0
   -5.9300   23.4620  -30.8070 C   0  0  0  0  0  0  0  0  0  0  0  0
   -7.3290   23.4730  -30.7120 C   0  0  0  0  0  0  0  0  0  0  0  0
   -8.0870   22.5410  -31.4260 C   0  0  0  0  0  0  0  0  0  0  0  0
   -7.4540   21.6030  -32.2460 C   0  0  0  0  0  0  0  0  0  0  0  0
   -6.0570   21.5970  -32.3710 C   0  0  0  0  0  0  0  0  0  0  0  0
   -5.4290   20.6100  -33.2050 N   0  0  0  0  0  0  0  0  0  0  0  0
   -4.3650   19.7460  -32.7590 C   0  0  0  0  0  0  0  0  0  0  0  0
   -3.8560   19.9150  -31.6170 O   0  0  0  0  0  0  0  0  0  0  0  0
   -3.8410   18.6590  -33.6230 C   0  0  0  0  0  0  0  0  0  0  0  0
   -2.4820   18.2990  -33.6090 C   0  0  0  0  0  0  0  0  0  0  0  0
   -2.0130   17.2670  -34.4290 C   0  0  0  0  0  0  0  0  0  0  0  0
   -2.8970   16.5710  -35.2710 C   0  0  0  0  0  0  0  0  0  0  0  0
   -2.4730   15.5310  -36.1130 O   0  0  0  0  0  0  0  0  0  0  0  0
   -1.2200   14.8660  -36.0000 C   0  0  0  0  0  0  0  0  0  0  0  0
   -4.2500   16.9190  -35.2750 C   0  0  0  0  0  0  0  0  0  0  0  0
   -4.7230   17.9490  -34.4570 C   0  0  0  0  0  0  0  0  0  0  0  0
   -5.2990   22.5190  -31.6280 C   0  0  0  0  0  0  0  0  0  0  0  0
   -2.9938   24.8846  -25.6381 H   0  0  0  0  0  0  0  0  0  0  0  0
   -2.0946   24.3470  -27.0973 H   0  0  0  0  0  0  0  0  0  0  0  0
   -2.9418   25.9310  -27.0973 H   0  0  0  0  0  0  0  0  0  0  0  0
   -4.4582   23.3266  -26.6583 H   0  0  0  0  0  0  0  0  0  0  0  0
   -5.0774   24.9301  -27.2076 H   0  0  0  0  0  0  0  0  0  0  0  0
   -3.8034   21.4838  -27.3451 H   0  0  0  0  0  0  0  0  0  0  0  0
   -2.2791   19.6045  -27.9322 H   0  0  0  0  0  0  0  0  0  0  0  0
    0.9475   18.9909  -31.3228 H   0  0  0  0  0  0  0  0  0  0  0  0
   -0.7196   18.6663  -31.9077 H   0  0  0  0  0  0  0  0  0  0  0  0
   -0.0786   20.3443  -31.9077 H   0  0  0  0  0  0  0  0  0  0  0  0
   -0.8338   21.8475  -31.3432 H   0  0  0  0  0  0  0  0  0  0  0  0
   -2.3546   23.7283  -30.7523 H   0  0  0  0  0  0  0  0  0  0  0  0
   -7.8304   24.2162  -30.0746 H   0  0  0  0  0  0  0  0  0  0  0  0
   -9.1838   22.5457  -31.3424 H   0  0  0  0  0  0  0  0  0  0  0  0
   -8.0552   20.8647  -32.7969 H   0  0  0  0  0  0  0  0  0  0  0  0
   -5.7440   20.5630  -34.1980 H   0  0  0  0  0  0  0  0  0  0  0  0
   -1.7825   18.8325  -32.9486 H   0  0  0  0  0  0  0  0  0  0  0  0
   -0.9463   16.9989  -34.4146 H   0  0  0  0  0  0  0  0  0  0  0  0
   -0.9699   14.7333  -34.9371 H   0  0  0  0  0  0  0  0  0  0  0  0
   -1.2818   13.8820  -36.4878 H   0  0  0  0  0  0  0  0  0  0  0  0
   -0.4397   15.4687  -36.4878 H   0  0  0  0  0  0  0  0  0  0  0  0
   -4.9498   16.3772  -35.9282 H   0  0  0  0  0  0  0  0  0  0  0  0
   -5.7925   18.2060  -34.4657 H   0  0  0  0  0  0  0  0  0  0  0  0
   -4.2010   22.4995  -31.6921 H   0  0  0  0  0  0  0  0  0  0  0  0
  1  2  1  0
  2  3  1  0
  3  4  1  0
  4  5  2  0
  5  6  1  0
  6  7  2  0
  7  8  1  0
  8  9  1  0
  7 10  1  0
 10 11  2  0
  3 12  1  0
 12 13  2  0
 12 14  2  0
 12 15  1  0
 15 16  2  0
 16 17  1  0
 17 18  2  0
 18 19  1  0
 19 20  1  0
 20 21  1  0
 21 22  2  0
 21 23  1  0
 23 24  2  0
 24 25  1  0
 25 26  2  0
 26 27  1  0
 27 28  1  0
 26 29  1  0
 29 30  2  0
 19 31  2  0
 11  4  1  0
 31 15  1  0
 30 23  1  0
  1 32  1  0
  1 33  1  0
  1 34  1  0
  2 35  1  0
  2 36  1  0
  5 37  1  0
  6 38  1  0
  9 39  1  0
  9 40  1  0
  9 41  1  0
 10 42  1  0
 11 43  1  0
 16 44  1  0
 17 45  1  0
 18 46  1  0
 20 47  1  0
 24 48  1  0
 25 49  1  0
 28 50  1  0
 28 51  1  0
 28 52  1  0
 29 53  1  0
 30 54  1  0
 31 55  1  0
M  END
>  <UniqueID>  (5) 
5

>  <SMILES>  (5) 
CCN(c1ccc(OC)cc1)S(=O)(=O)c1cccc(NC(=O)c2ccc(OC)cc2)c1

>  <Energy>  (5) 
63.57090546278438

>  <Genealogy>  (5) 
CCN(c1ccc(OC)cc1)S(=O)(=O)c1cccc(NC(=O)c2ccc(OC)cc2)c1 (3D coordinates assigned)
CCN(c1ccc(OC)cc1)S(=O)(=O)c1cccc(NC(=O)c2ccc(OC)cc2)c1 (optimized conformer: 63.57090546278438 kcal/mol)

>  <smiles>  (5) 
CCN(c1ccc(OC)cc1)S(=O)(=O)c1cccc(NC(=O)c2ccc(OC)cc2)c1

>  <score_type>  (5) 
oracle

>  <origin>  (5) 
adgpu

>  <m_score__min__energy>  (5) 
-9.0600000000000005

>  <m_primary>  (5) 
energy

$$$$
5:0
     RDKit          3D

 70 72  0  0  0  0  0  0  0  0999 V2000
   -7.7130   22.3030  -30.2170 C   0  0  0  0  0  0  0  0  0  0  0  0
   -6.8790   22.4300  -31.4230 N   0  0  0  0  0  0  0  0  0  0  0  0
   -5.6770   21.5990  -31.2700 C   0  0  0  0  0  0  0  0  0  0  0  0
   -6.4980   23.8400  -31.6650 C   0  0  0  0  0  0  0  0  0  0  0  0
   -6.2110   24.5620  -30.3410 C   0  0  0  0  0  0  0  0  0  0  0  0
   -5.2530   25.7400  -30.5530 C   0  0  0  0  0  0  0  0  0  0  0  0
   -3.8700   25.2960  -30.4710 N   0  0  0  0  0  0  0  0  0  0  0  0
   -3.3640   24.4290  -29.4480 C   0  0  0  0  0  0  0  0  0  0  0  0
   -3.7060   24.5960  -28.2450 O   0  0  0  0  0  0  0  0  0  0  0  0
   -2.4310   23.3440  -29.8140 C   0  0  0  0  0  0  0  0  0  0  0  0
   -2.7510   22.3080  -30.6750 C   0  0  0  0  0  0  0  0  0  0  0  0
   -1.6120   21.5310  -30.7620 C   0  0  0  0  0  0  0  0  0  0  0  0
   -1.4220   20.3770  -31.5930 N   0  0  0  0  0  0  0  0  0  0  0  0
   -1.7210   20.3780  -32.9990 C   0  0  0  0  0  0  0  0  0  0  0  0
   -2.0980   21.4370  -33.5740 O   0  0  0  0  0  0  0  0  0  0  0  0
   -1.5100   19.1630  -33.8020 C   0  0  0  0  0  0  0  0  0  0  0  0
   -2.2210   17.9860  -33.6540 C   0  0  0  0  0  0  0  0  0  0  0  0
   -1.7300   17.1360  -34.6180 C   0  0  0  0  0  0  0  0  0  0  0  0
   -2.2740   15.8550  -34.9430 N   0  0  0  0  0  0  0  0  0  0  0  0
   -3.5010   15.3490  -34.4090 C   0  0  0  0  0  0  0  0  0  0  0  0
   -3.5340   14.2150  -33.8480 O   0  0  0  0  0  0  0  0  0  0  0  0
   -4.7270   16.2100  -34.4500 C   0  0  0  0  0  0  0  0  0  0  0  0
   -5.7080   15.8540  -33.3190 C   0  0  0  0  0  0  0  0  0  0  0  0
   -5.6710   16.8510  -32.1460 C   0  0  0  0  0  0  0  0  0  0  0  0
   -6.6320   17.9980  -32.3380 C   0  0  0  0  0  0  0  0  0  0  0  0
   -7.8340   18.0480  -31.6050 C   0  0  0  0  0  0  0  0  0  0  0  0
   -8.7380   19.0950  -31.8040 C   0  0  0  0  0  0  0  0  0  0  0  0
   -8.4570   20.0950  -32.7370 C   0  0  0  0  0  0  0  0  0  0  0  0
   -7.2690   20.0480  -33.4760 C   0  0  0  0  0  0  0  0  0  0  0  0
   -6.3580   19.0050  -33.2770 C   0  0  0  0  0  0  0  0  0  0  0  0
   -0.7510   17.8090  -35.3220 C   0  0  0  0  0  0  0  0  0  0  0  0
   -0.6150   19.0480  -34.8100 N   0  0  0  0  0  0  0  0  0  0  0  0
    0.2950   20.0760  -35.3110 C   0  0  0  0  0  0  0  0  0  0  0  0
   -0.6540   22.0890  -29.9440 C   0  0  0  0  0  0  0  0  0  0  0  0
   -1.1560   23.2030  -29.3700 N   0  0  0  0  0  0  0  0  0  0  0  0
   -0.4180   24.0960  -28.4780 C   0  0  0  0  0  0  0  0  0  0  0  0
   -7.0806   22.3993  -29.3221 H   0  0  0  0  0  0  0  0  0  0  0  0
   -8.4761   23.0953  -30.2138 H   0  0  0  0  0  0  0  0  0  0  0  0
   -8.2056   21.3195  -30.2138 H   0  0  0  0  0  0  0  0  0  0  0  0
   -5.4659   21.4530  -30.2004 H   0  0  0  0  0  0  0  0  0  0  0  0
   -5.8434   20.6221  -31.7475 H   0  0  0  0  0  0  0  0  0  0  0  0
   -4.8219   22.0997  -31.7475 H   0  0  0  0  0  0  0  0  0  0  0  0
   -5.5956   23.8670  -32.2935 H   0  0  0  0  0  0  0  0  0  0  0  0
   -7.3320   24.3488  -32.1705 H   0  0  0  0  0  0  0  0  0  0  0  0
   -7.1569   24.9383  -29.9243 H   0  0  0  0  0  0  0  0  0  0  0  0
   -5.7408   23.8487  -29.6481 H   0  0  0  0  0  0  0  0  0  0  0  0
   -5.4336   26.1789  -31.5454 H   0  0  0  0  0  0  0  0  0  0  0  0
   -5.4323   26.4889  -29.7675 H   0  0  0  0  0  0  0  0  0  0  0  0
   -3.7116   22.1389  -31.1836 H   0  0  0  0  0  0  0  0  0  0  0  0
   -0.8380   19.5960  -31.2200 H   0  0  0  0  0  0  0  0  0  0  0  0
   -3.0125   17.7741  -32.9200 H   0  0  0  0  0  0  0  0  0  0  0  0
   -4.4272   17.2631  -34.3441 H   0  0  0  0  0  0  0  0  0  0  0  0
   -5.2343   16.0404  -35.4112 H   0  0  0  0  0  0  0  0  0  0  0  0
   -6.7272   15.8387  -33.7325 H   0  0  0  0  0  0  0  0  0  0  0  0
   -5.4073   14.8728  -32.9230 H   0  0  0  0  0  0  0  0  0  0  0  0
   -5.9363   16.3185  -31.2208 H   0  0  0  0  0  0  0  0  0  0  0  0
   -4.6550   17.2691  -32.0921 H   0  0  0  0  0  0  0  0  0  0  0  0
   -8.0620   17.2594  -30.8728 H   0  0  0  0  0  0  0  0  0  0  0  0
   -9.6724   19.1313  -31.2247 H   0  0  0  0  0  0  0  0  0  0  0  0
   -9.1688   20.9194  -32.8913 H   0  0  0  0  0  0  0  0  0  0  0  0
   -7.0512   20.8331  -34.2150 H   0  0  0  0  0  0  0  0  0  0  0  0
   -5.4244   18.9739  -33.8579 H   0  0  0  0  0  0  0  0  0  0  0  0
   -0.1750   17.3996  -36.1650 H   0  0  0  0  0  0  0  0  0  0  0  0
    0.7590   20.6001  -34.4624 H   0  0  0  0  0  0  0  0  0  0  0  0
    1.0780   19.6055  -35.9238 H   0  0  0  0  0  0  0  0  0  0  0  0
   -0.2670   20.7961  -35.9238 H   0  0  0  0  0  0  0  0  0  0  0  0
    0.3586   21.6903  -29.7841 H   0  0  0  0  0  0  0  0  0  0  0  0
   -0.6360   23.8322  -27.4326 H   0  0  0  0  0  0  0  0  0  0  0  0
    0.6609   23.9917  -28.6652 H   0  0  0  0  0  0  0  0  0  0  0  0
   -0.7237   25.1360  -28.6652 H   0  0  0  0  0  0  0  0  0  0  0  0
  1  2  1  0
  2  3  1  0
  2  4  1  0
  4  5  1  0
  5  6  1  0
  6  7  1  0
  7  8  1  0
  8  9  2  0
  8 10  1  0
 10 11  2  0
 11 12  1  0
 12 13  1  0
 13 14  1  0
 14 15  2  0
 14 16  1  0
 16 17  2  0
 17 18  1  0
 18 19  1  0
 19 20  1  0
 20 21  2  0
 20 22  1  0
 22 23  1  0
 23 24  1  0
 24 25  1  0
 25 26  2  0
 26 27  1  0
 27 28  2  0
 28 29  1  0
 29 30  2  0
 18 31  2  0
 31 32  1  0
 32 33  1  0
 12 34  2  0
 34 35  1  0
 35 36  1  0
 35 10  1  0
 32 16  1  0
 30 25  1  0
  1 37  1  0
  1 38  1  0
  1 39  1  0
  3 40  1  0
  3 41  1  0
  3 42  1  0
  4 43  1  0
  4 44  1  0
  5 45  1  0
  5 46  1  0
  6 47  1  0
  6 48  1  0
 11 49  1  0
 13 50  1  0
 17 51  1  0
 22 52  1  0
 22 53  1  0
 23 54  1  0
 23 55  1  0
 24 56  1  0
 24 57  1  0
 26 58  1  0
 27 59  1  0
 28 60  1  0
 29 61  1  0
 30 62  1  0
 31 63  1  0
 33 64  1  0
 33 65  1  0
 33 66  1  0
 34 67  1  0
 36 68  1  0
 36 69  1  0
 36 70  1  0
M  CHG  2   7  -1  19  -1
M  END
>  <UniqueID>  (6) 
6

>  <SMILES>  (6) 
CN(C)CCC[N-]C(=O)c1cc(NC(=O)c2cc([N-]C(=O)CCCc3ccccc3)cn2C)cn1C

>  <Energy>  (6) 
123.95158614581719

>  <Genealogy>  (6) 
CN(C)CCC[N-]C(=O)c1cc(NC(=O)c2cc([N-]C(=O)CCCc3ccccc3)cn2C)cn1C (protonated)
CN(C)CCC[N-]C(=O)c1cc(NC(=O)c2cc([N-]C(=O)CCCc3ccccc3)cn2C)cn1C (3D coordinates assigned)
CN(C)CCC[N-]C(=O)c1cc(NC(=O)c2cc([N-]C(=O)CCCc3ccccc3)cn2C)cn1C (optimized conformer: 123.95158614581719 kcal/mol)

>  <smiles>  (6) 
CN(C)CCCNC(=O)c1cc(NC(=O)c2cc(NC(=O)CCCc3ccccc3)cn2C)cn1C

>  <score_type>  (6) 
oracle

>  <origin>  (6) 
adgpu

>  <m_score__min__energy>  (6) 
-10.84

>  <m_primary>  (6) 
energy

$$$$
6:0
     RDKit          3D

 50 52  0  0  0  0  0  0  0  0999 V2000
    0.6230   17.8510  -28.0180 C   0  0  0  0  0  0  0  0  0  0  0  0
    0.7230   18.4510  -29.3890 C   0  0  0  0  0  0  0  0  0  0  0  0
    1.9370   18.4180  -30.0890 C   0  0  0  0  0  0  0  0  0  0  0  0
    2.0430   19.0210  -31.3450 C   0  0  0  0  0  0  0  0  0  0  0  0
    0.9380   19.6630  -31.9090 C   0  0  0  0  0  0  0  0  0  0  0  0
   -0.2870   19.6960  -31.2240 C   0  0  0  0  0  0  0  0  0  0  0  0
   -1.4200   20.3930  -31.7650 N   0  0  0  0  0  0  0  0  0  0  0  0
   -1.9400   20.2070  -33.0960 C   0  0  0  0  0  0  0  0  0  0  0  0
   -1.3250   19.0650  -34.1040 S   0  0  0  0  0  0  0  0  0  0  0  0
   -3.0230   21.0220  -33.5710 N   0  0  0  0  0  0  0  0  0  0  0  0
   -4.0790   21.5180  -32.7330 C   0  0  0  0  0  0  0  0  0  0  0  0
   -3.9040   22.6680  -31.9450 C   0  0  0  0  0  0  0  0  0  0  0  0
   -4.9370   23.1340  -31.1130 C   0  0  0  0  0  0  0  0  0  0  0  0
   -4.7400   24.3660  -30.3100 C   0  0  0  0  0  0  0  0  0  0  0  0
   -5.4700   24.5960  -29.1020 N   0  0  0  0  0  0  0  0  0  0  0  0
   -3.9020   25.2290  -30.6880 O   0  0  0  0  0  0  0  0  0  0  0  0
   -6.1520   22.4290  -31.0760 C   0  0  0  0  0  0  0  0  0  0  0  0
   -6.3210   21.2610  -31.8310 C   0  0  0  0  0  0  0  0  0  0  0  0
   -7.8580   20.4020  -31.7870 S   0  0  0  0  0  0  0  0  0  0  0  0
   -8.6460   20.7350  -33.0220 O   0  0  0  0  0  0  0  0  0  0  0  0
   -8.6500   20.8370  -30.5830 O   0  0  0  0  0  0  0  0  0  0  0  0
   -7.5550   18.6840  -31.7340 N   0  0  0  0  0  0  0  0  0  0  0  0
   -7.6160   18.0910  -33.0690 C   0  0  0  0  0  0  0  0  0  0  0  0
   -6.7220   16.8620  -33.0400 C   0  0  0  0  0  0  0  0  0  0  0  0
   -5.8030   17.0600  -31.8430 C   0  0  0  0  0  0  0  0  0  0  0  0
   -6.2090   18.3960  -31.2400 C   0  0  0  0  0  0  0  0  0  0  0  0
   -5.2830   20.8080  -32.6530 C   0  0  0  0  0  0  0  0  0  0  0  0
   -0.3800   19.1140  -29.9510 C   0  0  0  0  0  0  0  0  0  0  0  0
    0.7544   18.6394  -27.2623 H   0  0  0  0  0  0  0  0  0  0  0  0
   -0.3653   17.3844  -27.8931 H   0  0  0  0  0  0  0  0  0  0  0  0
    1.4066   17.0891  -27.8931 H   0  0  0  0  0  0  0  0  0  0  0  0
    2.8101   17.9152  -29.6476 H   0  0  0  0  0  0  0  0  0  0  0  0
    2.9978   18.9901  -31.8903 H   0  0  0  0  0  0  0  0  0  0  0  0
    1.0280   20.1446  -32.8938 H   0  0  0  0  0  0  0  0  0  0  0  0
   -1.9250   21.0380  -31.1170 H   0  0  0  0  0  0  0  0  0  0  0  0
   -3.0480   21.2590  -34.5890 H   0  0  0  0  0  0  0  0  0  0  0  0
   -2.9475   23.2101  -31.9795 H   0  0  0  0  0  0  0  0  0  0  0  0
   -6.0530   23.8500  -28.6630 H   0  0  0  0  0  0  0  0  0  0  0  0
   -5.3550   25.4970  -28.5890 H   0  0  0  0  0  0  0  0  0  0  0  0
   -6.9774   22.7973  -30.4490 H   0  0  0  0  0  0  0  0  0  0  0  0
   -8.6500   17.8025  -33.3092 H   0  0  0  0  0  0  0  0  0  0  0  0
   -7.2828   18.8057  -33.8359 H   0  0  0  0  0  0  0  0  0  0  0  0
   -7.3248   15.9503  -32.9160 H   0  0  0  0  0  0  0  0  0  0  0  0
   -6.1559   16.7453  -33.9759 H   0  0  0  0  0  0  0  0  0  0  0  0
   -5.9423   16.2496  -31.1124 H   0  0  0  0  0  0  0  0  0  0  0  0
   -4.7424   17.0477  -32.1346 H   0  0  0  0  0  0  0  0  0  0  0  0
   -6.2132   18.3315  -30.1419 H   0  0  0  0  0  0  0  0  0  0  0  0
   -5.5033   19.1907  -31.5235 H   0  0  0  0  0  0  0  0  0  0  0  0
   -5.4140   19.8874  -33.2406 H   0  0  0  0  0  0  0  0  0  0  0  0
   -1.3235   19.1774  -29.3891 H   0  0  0  0  0  0  0  0  0  0  0  0
  1  2  1  0
  2  3  2  0
  3  4  1  0
  4  5  2  0
  5  6  1  0
  6  7  1  0
  7  8  1  0
  8  9  2  0
  8 10  1  0
 10 11  1  0
 11 12  2  0
 12 13  1  0
 13 14  1  0
 14 15  1  0
 14 16  2  0
 13 17  2  0
 17 18  1  0
 18 19  1  0
 19 20  2  0
 19 21  2  0
 19 22  1  0
 22 23  1  0
 23 24  1  0
 24 25  1  0
 25 26  1  0
 18 27  2  0
  6 28  2  0
 28  2  1  0
 27 11  1  0
 26 22  1  0
  1 29  1  0
  1 30  1  0
  1 31  1  0
  3 32  1  0
  4 33  1  0
  5 34  1  0
  7 35  1  0
 10 36  1  0
 12 37  1  0
 15 38  1  0
 15 39  1  0
 17 40  1  0
 23 41  1  0
 23 42  1  0
 24 43  1  0
 24 44  1  0
 25 45  1  0
 25 46  1  0
 26 47  1  0
 26 48  1  0
 27 49  1  0
 28 50  1  0
M  END
>  <UniqueID>  (7) 
7

>  <SMILES>  (7) 
Cc1cccc(NC(=S)Nc2cc(C(N)=O)cc(S(=O)(=O)N3CCCC3)c2)c1

>  <Energy>  (7) 
61.80966315451464

>  <Genealogy>  (7) 
Cc1cccc(NC(=S)Nc2cc(C(N)=O)cc(S(=O)(=O)N3CCCC3)c2)c1 (3D coordinates assigned)
Cc1cccc(NC(=S)Nc2cc(C(N)=O)cc(S(=O)(=O)N3CCCC3)c2)c1 (nonaromatic ring conformer: 61.80966315451464 kcal/mol)

>  <smiles>  (7) 
Cc1cccc(NC(=S)Nc2cc(C(N)=O)cc(S(=O)(=O)N3CCCC3)c2)c1

>  <score_type>  (7) 
oracle

>  <origin>  (7) 
adgpu

>  <m_score__min__energy>  (7) 
-9.6999999999999993

>  <m_primary>  (7) 
energy

$$$$
7:0
     RDKit          3D

 30 32  0  0  0  0  0  0  0  0999 V2000
   -3.4480   21.6160  -34.0530 H   0  0  0  0  0  0  0  0  0  0  0  0
   -3.9790   21.2870  -33.2550 O   0  0  0  0  0  0  0  0  0  0  0  0
   -4.5810   22.1560  -32.3690 N   0  0  0  0  0  0  0  0  0  0  0  0
   -3.8200   23.0470  -31.7230 N   0  0  0  0  0  0  0  0  0  0  0  0
   -4.3380   23.9370  -30.8270 C   0  0  0  0  0  0  0  0  0  0  0  0
   -3.4510   24.8690  -30.1940 N   0  0  0  0  0  0  0  0  0  0  0  0
   -2.5310   24.5470  -29.3340 C   0  0  0  0  0  0  0  0  0  0  0  0
   -2.2400   23.2760  -28.9770 N   0  0  0  0  0  0  0  0  0  0  0  0
   -1.2220   23.2370  -28.0760 C   0  0  0  0  0  0  0  0  0  0  0  0
   -0.6850   21.9460  -27.5510 C   0  0  0  0  0  0  0  0  0  0  0  0
   -0.6932   21.9657  -26.4512 H   0  0  0  0  0  0  0  0  0  0  0  0
   -1.3124   21.1158  -27.9076 H   0  0  0  0  0  0  0  0  0  0  0  0
    0.3461   21.8057  -27.9076 H   0  0  0  0  0  0  0  0  0  0  0  0
   -0.6830   24.4760  -27.7360 C   0  0  0  0  0  0  0  0  0  0  0  0
    0.1493   24.6492  -27.0379 H   0  0  0  0  0  0  0  0  0  0  0  0
   -1.5290   25.6620  -28.5810 S   0  0  0  0  0  0  0  0  0  0  0  0
   -5.7320   23.9530  -30.6000 C   0  0  0  0  0  0  0  0  0  0  0  0
   -6.3590   24.9400  -29.7550 C   0  0  0  0  0  0  0  0  0  0  0  0
   -6.8620   25.7320  -29.0760 N   0  0  0  0  0  0  0  0  0  0  0  0
   -6.5080   23.0100  -31.2790 C   0  0  0  0  0  0  0  0  0  0  0  0
   -5.9250   22.1280  -32.1430 C   0  0  0  0  0  0  0  0  0  0  0  0
   -6.9120   21.2240  -32.7830 C   0  0  0  0  0  0  0  0  0  0  0  0
   -6.6856   20.1722  -32.5540 H   0  0  0  0  0  0  0  0  0  0  0  0
   -6.9102   21.3021  -33.8802 H   0  0  0  0  0  0  0  0  0  0  0  0
   -8.2570   21.6440  -32.1590 C   0  0  0  0  0  0  0  0  0  0  0  0
   -8.6852   20.8053  -31.5905 H   0  0  0  0  0  0  0  0  0  0  0  0
   -8.9744   21.9302  -32.9422 H   0  0  0  0  0  0  0  0  0  0  0  0
   -7.9810   22.8310  -31.2170 C   0  0  0  0  0  0  0  0  0  0  0  0
   -8.3029   22.5981  -30.1913 H   0  0  0  0  0  0  0  0  0  0  0  0
   -8.5286   23.7386  -31.5110 H   0  0  0  0  0  0  0  0  0  0  0  0
  1  2  1  0
  2  3  1  0
  3  4  2  0
  4  5  1  0
  5  6  1  0
  6  7  2  0
  7  8  1  0
  8  9  1  0
  9 10  1  0
 10 11  1  0
 10 12  1  0
 10 13  1  0
  9 14  2  0
 14 15  1  0
 14 16  1  0
  5 17  2  0
 17 18  1  0
 18 19  3  0
 17 20  1  0
 20 21  2  0
 21 22  1  0
 22 23  1  0
 22 24  1  0
 22 25  1  0
 25 26  1  0
 25 27  1  0
 25 28  1  0
 28 29  1  0
 28 30  1  0
 21  3  1  0
 16  7  1  0
 28 20  1  0
M  CHG  2   3   1   8  -1
M  END
>  <UniqueID>  (8) 
8

>  <SMILES>  (8) 
Cc1cs/c(=N/c2n[n+](O)c3c(c2C#N)CCC3)[n-]1

>  <Energy>  (8) 
76.55837011317932

>  <Genealogy>  (8) 
Cc1csc(=Nc2n[n+](O)c3c(c2C#N)CCC3)[n-]1 (protonated)
Cc1cs/c(=N/c2n[n+](O)c3c(c2C#N)CCC3)[n-]1 (cis-trans isomerization)
Cc1cs/c(=N/c2n[n+](O)c3c(c2C#N)CCC3)[n-]1 (3D coordinates assigned)
Cc1cs/c(=N/c2n[n+](O)c3c(c2C#N)CCC3)[n-]1 (nonaromatic ring conformer: 76.55837011317932 kcal/mol)

>  <smiles>  (8) 
Cc1csc(=Nc2n[n+]([O-])c3c(c2C#N)CCC3)[nH]1

>  <score_type>  (8) 
oracle

>  <origin>  (8) 
adgpu

>  <m_score__min__energy>  (8) 
-7.9900000000000002

>  <m_primary>  (8) 
energy

$$$$
8:0
     RDKit          3D

 35 37  0  0  0  0  0  0  0  0999 V2000
   -3.8810   22.1700  -28.5540 C   0  0  0  0  0  0  0  0  0  0  0  0
   -2.8670   23.1940  -28.1260 C   0  0  0  0  0  0  0  0  0  0  0  0
   -2.2640   23.0960  -26.8600 C   0  0  0  0  0  0  0  0  0  0  0  0
   -1.3150   24.0350  -26.4550 C   0  0  0  0  0  0  0  0  0  0  0  0
   -0.9650   25.0870  -27.3020 C   0  0  0  0  0  0  0  0  0  0  0  0
   -1.5560   25.2010  -28.5640 C   0  0  0  0  0  0  0  0  0  0  0  0
   -1.2350   26.2950  -29.3600 O   0  0  0  0  0  0  0  0  0  0  0  0
   -2.4860   24.2350  -29.0000 C   0  0  0  0  0  0  0  0  0  0  0  0
   -3.1060   24.3270  -30.2920 N   0  0  0  0  0  0  0  0  0  0  0  0
   -4.4070   24.8640  -30.5540 C   0  0  0  0  0  0  0  0  0  0  0  0
   -4.6210   26.1020  -30.4480 O   0  0  0  0  0  0  0  0  0  0  0  0
   -5.4890   23.9770  -30.9990 C   0  0  0  0  0  0  0  0  0  0  0  0
   -5.3810   22.6240  -31.2430 C   0  0  0  0  0  0  0  0  0  0  0  0
   -6.6570   22.2530  -31.6320 C   0  0  0  0  0  0  0  0  0  0  0  0
   -7.1140   20.8950  -32.0180 C   0  0  0  0  0  0  0  0  0  0  0  0
   -8.1770   20.2620  -31.3430 C   0  0  0  0  0  0  0  0  0  0  0  0
   -8.5940   18.9830  -31.7210 C   0  0  0  0  0  0  0  0  0  0  0  0
   -7.9600   18.3200  -32.7740 C   0  0  0  0  0  0  0  0  0  0  0  0
   -6.9030   18.9360  -33.4540 C   0  0  0  0  0  0  0  0  0  0  0  0
   -6.2610   18.2850  -34.5060 O   0  0  0  0  0  0  0  0  0  0  0  0
   -6.4830   20.2160  -33.0770 C   0  0  0  0  0  0  0  0  0  0  0  0
   -7.4600   23.3360  -31.6130 N   0  0  0  0  0  0  0  0  0  0  0  0
   -6.7500   24.3840  -31.2280 N   0  0  0  0  0  0  0  0  0  0  0  0
   -4.3361   21.7104  -27.6642 H   0  0  0  0  0  0  0  0  0  0  0  0
   -4.6626   22.6571  -29.1555 H   0  0  0  0  0  0  0  0  0  0  0  0
   -3.3862   21.3932  -29.1555 H   0  0  0  0  0  0  0  0  0  0  0  0
   -2.5422   22.2737  -26.1844 H   0  0  0  0  0  0  0  0  0  0  0  0
   -0.8418   23.9458  -25.4660 H   0  0  0  0  0  0  0  0  0  0  0  0
   -0.2216   25.8292  -26.9758 H   0  0  0  0  0  0  0  0  0  0  0  0
   -4.4886   21.9875  -31.1502 H   0  0  0  0  0  0  0  0  0  0  0  0
   -8.6818   20.7782  -30.5131 H   0  0  0  0  0  0  0  0  0  0  0  0
   -9.4242   18.4969  -31.1875 H   0  0  0  0  0  0  0  0  0  0  0  0
   -8.2914   17.3135  -33.0691 H   0  0  0  0  0  0  0  0  0  0  0  0
   -6.5690   18.3990  -35.4650 H   0  0  0  0  0  0  0  0  0  0  0  0
   -5.6515   20.6964  -33.6135 H   0  0  0  0  0  0  0  0  0  0  0  0
  1  2  1  0
  2  3  2  0
  3  4  1  0
  4  5  2  0
  5  6  1  0
  6  7  1  0
  6  8  2  0
  8  9  1  0
  9 10  1  0
 10 11  2  0
 10 12  1  0
 12 13  1  0
 13 14  2  0
 14 15  1  0
 15 16  2  0
 16 17  1  0
 17 18  2  0
 18 19  1  0
 19 20  1  0
 19 21  2  0
 14 22  1  0
 22 23  1  0
  8  2  1  0
 23 12  2  0
 21 15  1  0
  1 24  1  0
  1 25  1  0
  1 26  1  0
  3 27  1  0
  4 28  1  0
  5 29  1  0
 13 30  1  0
 16 31  1  0
 17 32  1  0
 18 33  1  0
 20 34  1  0
 21 35  1  0
M  CHG  3   7  -1   9  -1  22  -1
M  END
>  <UniqueID>  (9) 
9

>  <SMILES>  (9) 
Cc1cccc([O-])c1[N-]C(=O)c1cc(-c2cccc(O)c2)[n-]n1

>  <Energy>  (9) 
72.87164406896235

>  <Genealogy>  (9) 
Cc1cccc([O-])c1[N-]C(=O)c1cc(-c2cccc(O)c2)[n-]n1 (protonated)
Cc1cccc([O-])c1[N-]C(=O)c1cc(-c2cccc(O)c2)[n-]n1 (3D coordinates assigned)
Cc1cccc([O-])c1[N-]C(=O)c1cc(-c2cccc(O)c2)[n-]n1 (optimized conformer: 72.87164406896235 kcal/mol)

>  <smiles>  (9) 
Cc1cccc(O)c1NC(=O)c1cc(-c2cccc(O)c2)[nH]n1

>  <score_type>  (9) 
oracle

>  <origin>  (9) 
adgpu

>  <m_score__min__energy>  (9) 
-12.140000000000001

>  <m_primary>  (9) 
energy

$$$$
9:0
     RDKit          3D

 42 44  0  0  0  0  0  0  0  0999 V2000
   -4.2460   25.7500  -30.7630 O   0  0  0  0  0  0  0  0  0  0  0  0
   -3.5140   24.8710  -30.2360 C   0  0  0  0  0  0  0  0  0  0  0  0
   -2.5270   25.2650  -29.3390 O   0  0  0  0  0  0  0  0  0  0  0  0
   -3.7000   23.4400  -30.5650 C   0  0  0  0  0  0  0  0  0  0  0  0
   -4.9800   22.9380  -30.8530 C   0  0  0  0  0  0  0  0  0  0  0  0
   -5.1580   21.5870  -31.1650 C   0  0  0  0  0  0  0  0  0  0  0  0
   -4.0650   20.7100  -31.1830 C   0  0  0  0  0  0  0  0  0  0  0  0
   -4.2730   19.3310  -31.5340 N   0  0  0  0  0  0  0  0  0  0  0  0
   -3.9120   18.7610  -32.8020 C   0  0  0  0  0  0  0  0  0  0  0  0
   -3.0000   19.2930  -33.4920 O   0  0  0  0  0  0  0  0  0  0  0  0
   -4.5500   17.5110  -33.2780 C   0  0  0  0  0  0  0  0  0  0  0  0
   -3.8610   16.2940  -33.1450 C   0  0  0  0  0  0  0  0  0  0  0  0
   -4.4420   15.0970  -33.5670 C   0  0  0  0  0  0  0  0  0  0  0  0
   -5.7120   15.0940  -34.1630 C   0  0  0  0  0  0  0  0  0  0  0  0
   -6.3590   13.7970  -34.5840 C   0  0  0  0  0  0  0  0  0  0  0  0
   -5.5700   13.1840  -35.5390 F   0  0  0  0  0  0  0  0  0  0  0  0
   -7.6170   14.0240  -35.1160 F   0  0  0  0  0  0  0  0  0  0  0  0
   -6.4960   12.9480  -33.5000 F   0  0  0  0  0  0  0  0  0  0  0  0
   -6.4080   16.3060  -34.2900 C   0  0  0  0  0  0  0  0  0  0  0  0
   -5.8360   17.5160  -33.8560 C   0  0  0  0  0  0  0  0  0  0  0  0
   -6.5050   18.7340  -34.0550 O   0  0  0  0  0  0  0  0  0  0  0  0
   -7.3100   19.3840  -33.1090 C   0  0  0  0  0  0  0  0  0  0  0  0
   -7.3230   20.7850  -33.0890 C   0  0  0  0  0  0  0  0  0  0  0  0
   -8.0990   21.4710  -32.1500 C   0  0  0  0  0  0  0  0  0  0  0  0
   -8.8590   20.7610  -31.2150 C   0  0  0  0  0  0  0  0  0  0  0  0
   -9.6090   21.4280  -30.3040 F   0  0  0  0  0  0  0  0  0  0  0  0
   -8.8370   19.3630  -31.2150 C   0  0  0  0  0  0  0  0  0  0  0  0
   -8.0620   18.6740  -32.1540 C   0  0  0  0  0  0  0  0  0  0  0  0
   -2.7800   21.2130  -30.9160 C   0  0  0  0  0  0  0  0  0  0  0  0
   -2.6010   22.5650  -30.6040 C   0  0  0  0  0  0  0  0  0  0  0  0
   -5.8485   23.6128  -30.8329 H   0  0  0  0  0  0  0  0  0  0  0  0
   -6.1644   21.2091  -31.3983 H   0  0  0  0  0  0  0  0  0  0  0  0
   -4.6300   18.6830  -30.7940 H   0  0  0  0  0  0  0  0  0  0  0  0
   -2.8534   16.2842  -32.7038 H   0  0  0  0  0  0  0  0  0  0  0  0
   -3.9002   14.1493  -33.4313 H   0  0  0  0  0  0  0  0  0  0  0  0
   -7.4141   16.3101  -34.7348 H   0  0  0  0  0  0  0  0  0  0  0  0
   -6.7194   21.3481  -33.8160 H   0  0  0  0  0  0  0  0  0  0  0  0
   -8.1118   22.5709  -32.1466 H   0  0  0  0  0  0  0  0  0  0  0  0
   -9.4298   18.8042  -30.4758 H   0  0  0  0  0  0  0  0  0  0  0  0
   -8.0402   17.5742  -32.1461 H   0  0  0  0  0  0  0  0  0  0  0  0
   -1.9106   20.5401  -30.9525 H   0  0  0  0  0  0  0  0  0  0  0  0
   -1.5921   22.9461  -30.3875 H   0  0  0  0  0  0  0  0  0  0  0  0
  1  2  2  0
  2  3  1  0
  2  4  1  0
  4  5  2  0
  5  6  1  0
  6  7  2  0
  7  8  1  0
  8  9  1  0
  9 10  2  0
  9 11  1  0
 11 12  2  0
 12 13  1  0
 13 14  2  0
 14 15  1  0
 15 16  1  0
 15 17  1  0
 15 18  1  0
 14 19  1  0
 19 20  2  0
 20 21  1  0
 21 22  1  0
 22 23  2  0
 23 24  1  0
 24 25  2  0
 25 26  1  0
 25 27  1  0
 27 28  2  0
  7 29  1  0
 29 30  2  0
 30  4  1  0
 20 11  1  0
 28 22  1  0
  5 31  1  0
  6 32  1  0
  8 33  1  0
 12 34  1  0
 13 35  1  0
 19 36  1  0
 23 37  1  0
 24 38  1  0
 27 39  1  0
 28 40  1  0
 29 41  1  0
 30 42  1  0
M  CHG  1   3  -1
M  END
>  <UniqueID>  (10) 
10

>  <SMILES>  (10) 
O=C([O-])c1ccc(NC(=O)c2ccc(C(F)(F)F)cc2Oc2ccc(F)cc2)cc1

>  <Energy>  (10) 
59.25638417782904

>  <Genealogy>  (10) 
O=C([O-])c1ccc(NC(=O)c2ccc(C(F)(F)F)cc2Oc2ccc(F)cc2)cc1 (protonated)
O=C([O-])c1ccc(NC(=O)c2ccc(C(F)(F)F)cc2Oc2ccc(F)cc2)cc1 (3D coordinates assigned)
O=C([O-])c1ccc(NC(=O)c2ccc(C(F)(F)F)cc2Oc2ccc(F)cc2)cc1 (optimized conformer: 59.25638417782904 kcal/mol)

>  <smiles>  (10) 
O=C(O)c1ccc(NC(=O)c2ccc(C(F)(F)F)cc2Oc2ccc(F)cc2)cc1

>  <score_type>  (10) 
oracle

>  <origin>  (10) 
adgpu

>  <m_score__min__energy>  (10) 
-9.6899999999999995

>  <m_primary>  (10) 
energy

$$$$
10:0
     RDKit          3D

 50 52  0  0  0  0  0  0  0  0999 V2000
   -2.6810   18.2210  -33.7880 C   0  0  0  0  0  0  0  0  0  0  0  0
   -3.1590   17.1120  -34.6170 N   0  0  0  0  0  0  0  0  0  0  0  0
   -4.4260   17.4680  -35.2650 C   0  0  0  0  0  0  0  0  0  0  0  0
   -5.4830   17.7090  -34.2160 C   0  0  0  0  0  0  0  0  0  0  0  0
   -6.0740   18.9790  -34.1060 C   0  0  0  0  0  0  0  0  0  0  0  0
   -7.0430   19.2360  -33.1320 C   0  0  0  0  0  0  0  0  0  0  0  0
   -7.6130   20.5150  -33.0790 O   0  0  0  0  0  0  0  0  0  0  0  0
   -7.0920   21.6060  -32.3630 C   0  0  0  0  0  0  0  0  0  0  0  0
   -5.7050   21.7920  -32.3420 C   0  0  0  0  0  0  0  0  0  0  0  0
   -5.1470   22.8720  -31.6540 C   0  0  0  0  0  0  0  0  0  0  0  0
   -5.9710   23.7850  -30.9800 C   0  0  0  0  0  0  0  0  0  0  0  0
   -5.2370   25.1370  -30.1170 S   0  0  0  0  0  0  0  0  0  0  0  0
   -5.6970   26.4200  -30.7560 O   0  0  0  0  0  0  0  0  0  0  0  0
   -5.6730   25.1310  -28.6760 O   0  0  0  0  0  0  0  0  0  0  0  0
   -3.5030   25.0860  -30.2040 N   0  0  0  0  0  0  0  0  0  0  0  0
   -2.6280   24.4780  -29.2410 C   0  0  0  0  0  0  0  0  0  0  0  0
   -2.8980   23.1660  -28.8270 C   0  0  0  0  0  0  0  0  0  0  0  0
   -2.0890   22.5420  -27.8690 C   0  0  0  0  0  0  0  0  0  0  0  0
   -1.0070   23.2310  -27.3150 C   0  0  0  0  0  0  0  0  0  0  0  0
   -0.7310   24.5430  -27.7180 C   0  0  0  0  0  0  0  0  0  0  0  0
   -1.5360   25.1680  -28.6780 C   0  0  0  0  0  0  0  0  0  0  0  0
   -7.3610   23.6070  -31.0050 C   0  0  0  0  0  0  0  0  0  0  0  0
   -7.9200   22.5340  -31.7050 C   0  0  0  0  0  0  0  0  0  0  0  0
   -7.3880   18.2290  -32.2110 C   0  0  0  0  0  0  0  0  0  0  0  0
   -8.2930   18.4960  -31.1850 O   0  0  0  0  0  0  0  0  0  0  0  0
   -6.8000   16.9600  -32.3120 C   0  0  0  0  0  0  0  0  0  0  0  0
   -5.8440   16.6900  -33.3110 C   0  0  0  0  0  0  0  0  0  0  0  0
   -5.2300   15.4310  -33.4270 O   0  0  0  0  0  0  0  0  0  0  0  0
   -4.6190   14.7260  -32.3490 C   0  0  0  0  0  0  0  0  0  0  0  0
   -2.7937   17.9596  -32.7255 H   0  0  0  0  0  0  0  0  0  0  0  0
   -1.6204   18.4126  -34.0080 H   0  0  0  0  0  0  0  0  0  0  0  0
   -3.2700   19.1236  -34.0080 H   0  0  0  0  0  0  0  0  0  0  0  0
   -3.3370   16.2990  -33.9800 H   0  0  0  0  0  0  0  0  0  0  0  0
   -4.2876   18.3818  -35.8614 H   0  0  0  0  0  0  0  0  0  0  0  0
   -4.7443   16.6440  -35.9205 H   0  0  0  0  0  0  0  0  0  0  0  0
   -5.7703   19.7809  -34.7950 H   0  0  0  0  0  0  0  0  0  0  0  0
   -5.0503   21.0834  -32.8705 H   0  0  0  0  0  0  0  0  0  0  0  0
   -4.0554   23.0071  -31.6408 H   0  0  0  0  0  0  0  0  0  0  0  0
   -3.7518   22.6225  -29.2579 H   0  0  0  0  0  0  0  0  0  0  0  0
   -2.3052   21.5107  -27.5531 H   0  0  0  0  0  0  0  0  0  0  0  0
   -0.3716   22.7422  -26.5617 H   0  0  0  0  0  0  0  0  0  0  0  0
    0.1203   25.0841  -27.2794 H   0  0  0  0  0  0  0  0  0  0  0  0
   -1.3158   26.1987  -28.9930 H   0  0  0  0  0  0  0  0  0  0  0  0
   -8.0140   24.3139  -30.4721 H   0  0  0  0  0  0  0  0  0  0  0  0
   -9.0129   22.4145  -31.7416 H   0  0  0  0  0  0  0  0  0  0  0  0
   -8.7480   19.3970  -31.0970 H   0  0  0  0  0  0  0  0  0  0  0  0
   -7.0878   16.1681  -31.6048 H   0  0  0  0  0  0  0  0  0  0  0  0
   -4.9755   15.1373  -31.3931 H   0  0  0  0  0  0  0  0  0  0  0  0
   -4.8838   13.6601  -32.4111 H   0  0  0  0  0  0  0  0  0  0  0  0
   -3.5263   14.8366  -32.4111 H   0  0  0  0  0  0  0  0  0  0  0  0
  1  2  1  0
  2  3  1  0
  3  4  1  0
  4  5  2  0
  5  6  1  0
  6  7  1  0
  7  8  1  0
  8  9  2  0
  9 10  1  0
 10 11  2  0
 11 12  1  0
 12 13  2  0
 12 14  2  0
 12 15  1  0
 15 16  1  0
 16 17  2  0
 17 18  1  0
 18 19  2  0
 19 20  1  0
 20 21  2  0
 11 22  1  0
 22 23  2  0
  6 24  2  0
 24 25  1  0
 24 26  1  0
 26 27  2  0
 27 28  1  0
 28 29  1  0
 27  4  1  0
 23  8  1  0
 21 16  1  0
  1 30  1  0
  1 31  1  0
  1 32  1  0
  2 33  1  0
  3 34  1  0
  3 35  1  0
  5 36  1  0
  9 37  1  0
 10 38  1  0
 17 39  1  0
 18 40  1  0
 19 41  1  0
 20 42  1  0
 21 43  1  0
 22 44  1  0
 23 45  1  0
 25 46  1  0
 26 47  1  0
 29 48  1  0
 29 49  1  0
 29 50  1  0
M  CHG  1  15  -1
M  END
>  <UniqueID>  (11) 
11

>  <SMILES>  (11) 
CNCc1cc(Oc2ccc(S(=O)(=O)[N-]c3ccccc3)cc2)c(O)cc1OC

>  <Energy>  (11) 
61.26545705509309

>  <Genealogy>  (11) 
CNCc1cc(Oc2ccc(S(=O)(=O)[N-]c3ccccc3)cc2)c(O)cc1OC (protonated)
CNCc1cc(Oc2ccc(S(=O)(=O)[N-]c3ccccc3)cc2)c(O)cc1OC (3D coordinates assigned)
CNCc1cc(Oc2ccc(S(=O)(=O)[N-]c3ccccc3)cc2)c(O)cc1OC (optimized conformer: 61.26545705509309 kcal/mol)

>  <smiles>  (11) 
CNCc1cc(Oc2ccc(S(=O)(=O)Nc3ccccc3)cc2)c(O)cc1OC

>  <score_type>  (11) 
oracle

>  <origin>  (11) 
adgpu

>  <m_score__min__energy>  (11) 
-10.220000000000001

>  <m_primary>  (11) 
energy

$$$$
11:0
     RDKit          3D

 41 43  0  0  1  0  0  0  0  0999 V2000
   -6.7730   16.9160  -33.7940 C   0  0  0  0  0  0  0  0  0  0  0  0
   -6.1340   18.1170  -33.1770 C   0  0  0  0  0  0  0  0  0  0  0  0
   -5.4310   17.9120  -32.1580 O   0  0  0  0  0  0  0  0  0  0  0  0
   -6.3180   19.4210  -33.7230 N   0  0  0  0  0  0  0  0  0  0  0  0
   -5.6680   20.4940  -33.0630 C   0  0  0  0  0  0  0  0  0  0  0  0
   -4.3360   20.8030  -33.2330 C   0  0  0  0  0  0  0  0  0  0  0  0
   -3.7650   21.8730  -32.5520 C   0  0  0  0  0  0  0  0  0  0  0  0
   -4.5230   22.6420  -31.6940 C   0  0  0  0  0  0  0  0  0  0  0  0
   -4.0010   23.7490  -30.9670 N   0  0  0  0  0  0  0  0  0  0  0  0
   -3.0080   23.6370  -30.1790 C   0  0  0  0  0  0  0  0  0  0  0  0
   -2.3960   22.4560  -29.9910 N   0  0  0  0  0  0  0  0  0  0  0  0
   -1.3520   22.4180  -29.1400 C   0  0  0  0  0  0  0  0  0  0  0  0
   -0.6210   21.2290  -28.8570 N   0  0  0  0  0  0  0  0  0  0  0  0
   -1.1310   20.3270  -28.0990 C   0  0  0  0  0  0  0  0  0  0  0  0
   -2.3650   20.3060  -27.4570 C   0  0  0  0  0  0  0  0  0  0  0  0
   -2.4450   19.1090  -26.7550 C   0  0  0  0  0  0  0  0  0  0  0  0
   -3.5730   18.6400  -25.9210 C   0  0  0  0  0  0  0  0  0  0  0  0
   -1.2930   18.4530  -26.9820 N   0  0  0  0  0  0  0  0  0  0  0  0
   -0.5140   19.1710  -27.7750 N   0  0  0  0  0  0  0  0  0  0  0  0
   -0.9310   23.5660  -28.4860 C   0  0  0  0  0  0  0  0  0  0  0  0
   -1.5670   24.7780  -28.6850 C   0  0  0  0  0  0  0  0  0  0  0  0
   -2.6050   24.7730  -29.5420 N   0  0  0  0  0  0  0  0  0  0  0  0
   -5.8570   22.3200  -31.5330 C   0  0  0  0  0  0  0  0  0  0  0  0
   -6.4300   21.2600  -32.2060 C   0  0  0  0  0  0  0  0  0  0  0  0
   -7.1311   16.2430  -33.0010 H   0  0  0  0  0  0  0  0  0  0  0  0
   -7.6221   17.2322  -34.4177 H   0  0  0  0  0  0  0  0  0  0  0  0
   -6.0363   16.3884  -34.4177 H   0  0  0  0  0  0  0  0  0  0  0  0
   -6.9140   19.5280  -34.5710 H   0  0  0  0  0  0  0  0  0  0  0  0
   -3.7187   20.1981  -33.9134 H   0  0  0  0  0  0  0  0  0  0  0  0
   -2.7004   22.1077  -32.6989 H   0  0  0  0  0  0  0  0  0  0  0  0
   -3.1345   21.0910  -27.4974 H   0  0  0  0  0  0  0  0  0  0  0  0
   -3.3127   18.7482  -24.8577 H   0  0  0  0  0  0  0  0  0  0  0  0
   -4.4674   19.2408  -26.1425 H   0  0  0  0  0  0  0  0  0  0  0  0
   -3.7778   17.5822  -26.1425 H   0  0  0  0  0  0  0  0  0  0  0  0
   -1.0940   17.5120  -26.5630 H   0  0  0  0  0  0  0  0  0  0  0  0
    0.4400   18.8790  -28.1020 H   0  0  0  0  0  0  0  0  0  0  0  0
   -0.0757   23.5118  -27.7964 H   0  0  0  0  0  0  0  0  0  0  0  0
   -1.2426   25.6951  -28.1714 H   0  0  0  0  0  0  0  0  0  0  0  0
   -3.1070   25.6720  -29.7150 H   0  0  0  0  0  0  0  0  0  0  0  0
   -6.4767   22.9225  -30.8526 H   0  0  0  0  0  0  0  0  0  0  0  0
   -7.4947   21.0261  -32.0588 H   0  0  0  0  0  0  0  0  0  0  0  0
  1  2  1  0
  2  3  2  0
  2  4  1  0
  4  5  1  0
  5  6  2  0
  6  7  1  0
  7  8  2  0
  8  9  1  0
  9 10  2  0
 10 11  1  0
 11 12  2  0
 12 13  1  0
 13 14  2  0
 14 15  1  0
 15 16  2  0
 16 17  1  0
 16 18  1  0
 18 19  1  0
 12 20  1  0
 20 21  2  0
 21 22  1  0
  8 23  1  0
 23 24  2  0
 24  5  1  0
 22 10  1  0
 19 14  1  0
  1 25  1  0
  1 26  1  0
  1 27  1  0
  4 28  1  0
  6 29  1  0
  7 30  1  0
 15 31  1  0
 17 32  1  0
 17 33  1  0
 17 34  1  0
 18 35  1  0
 19 36  1  0
 20 37  1  0
 21 38  1  0
 22 39  1  0
 23 40  1  0
 24 41  1  0
M  END
>  <smiles>  (12) 
CC(=O)Nc1ccc(N=c2nc(N=c3cc(C)[nH][nH]3)cc[nH]2)cc1

>  <score_type>  (12) 
oracle

>  <origin>  (12) 
adgpu

>  <m_score__min__energy>  (12) 
-8.6899999999999995

>  <m_primary>  (12) 
energy

$$$$
12:0
     RDKit          3D

 41 44  0  0  0  0  0  0  0  0999 V2000
   -7.5730   23.1130  -29.7530 O   0  0  0  0  0  0  0  0  0  0  0  0
   -6.8850   23.1760  -30.8060 C   0  0  0  0  0  0  0  0  0  0  0  0
   -7.3640   22.5190  -31.9850 N   0  0  0  0  0  0  0  0  0  0  0  0
   -7.6480   21.1190  -32.0840 C   0  0  0  0  0  0  0  0  0  0  0  0
   -8.8760   20.5610  -32.3600 C   0  0  0  0  0  0  0  0  0  0  0  0
   -8.7490   19.2180  -32.3570 N   0  0  0  0  0  0  0  0  0  0  0  0
   -7.4870   18.9330  -32.0660 N   0  0  0  0  0  0  0  0  0  0  0  0
   -6.9510   17.5750  -32.0180 C   0  0  0  0  0  0  0  0  0  0  0  0
   -6.8710   16.9660  -33.4230 C   0  0  0  0  0  0  0  0  0  0  0  0
   -5.4610   16.9340  -33.9260 C   0  0  0  0  0  0  0  0  0  0  0  0
   -4.9530   17.6850  -34.9620 C   0  0  0  0  0  0  0  0  0  0  0  0
   -3.6410   17.4230  -35.0540 N   0  0  0  0  0  0  0  0  0  0  0  0
   -3.3800   16.5350  -34.0760 C   0  0  0  0  0  0  0  0  0  0  0  0
   -4.4740   16.2140  -33.3540 N   0  0  0  0  0  0  0  0  0  0  0  0
   -6.7830   20.0660  -31.8840 C   0  0  0  0  0  0  0  0  0  0  0  0
   -5.6550   23.9930  -30.8210 C   0  0  0  0  0  0  0  0  0  0  0  0
   -5.5420   25.3030  -30.4040 C   0  0  0  0  0  0  0  0  0  0  0  0
   -4.2460   25.6660  -30.4260 N   0  0  0  0  0  0  0  0  0  0  0  0
   -3.5240   24.6370  -30.8440 N   0  0  0  0  0  0  0  0  0  0  0  0
   -4.3520   23.6030  -31.0930 C   0  0  0  0  0  0  0  0  0  0  0  0
   -3.8800   22.3010  -31.6130 C   0  0  0  0  0  0  0  0  0  0  0  0
   -4.2400   21.8950  -32.9080 C   0  0  0  0  0  0  0  0  0  0  0  0
   -3.8180   20.6580  -33.4040 C   0  0  0  0  0  0  0  0  0  0  0  0
   -3.0460   19.8110  -32.6060 C   0  0  0  0  0  0  0  0  0  0  0  0
   -2.7010   20.1950  -31.3080 C   0  0  0  0  0  0  0  0  0  0  0  0
   -3.1210   21.4330  -30.8090 C   0  0  0  0  0  0  0  0  0  0  0  0
   -9.8055   21.1174  -32.5511 H   0  0  0  0  0  0  0  0  0  0  0  0
   -5.9425   17.6016  -31.5795 H   0  0  0  0  0  0  0  0  0  0  0  0
   -7.6215   16.9550  -31.4049 H   0  0  0  0  0  0  0  0  0  0  0  0
   -7.2626   15.9386  -33.3904 H   0  0  0  0  0  0  0  0  0  0  0  0
   -7.4674   17.5900  -34.1049 H   0  0  0  0  0  0  0  0  0  0  0  0
   -5.5219   18.3768  -35.6006 H   0  0  0  0  0  0  0  0  0  0  0  0
   -2.9620   17.8310  -35.7340 H   0  0  0  0  0  0  0  0  0  0  0  0
   -2.3810   16.1157  -33.8857 H   0  0  0  0  0  0  0  0  0  0  0  0
   -5.7165   20.1374  -31.6242 H   0  0  0  0  0  0  0  0  0  0  0  0
   -6.3791   25.9492  -30.1012 H   0  0  0  0  0  0  0  0  0  0  0  0
   -4.8576   22.5541  -33.5358 H   0  0  0  0  0  0  0  0  0  0  0  0
   -4.0943   20.3516  -34.4237 H   0  0  0  0  0  0  0  0  0  0  0  0
   -2.7093   18.8407  -32.9999 H   0  0  0  0  0  0  0  0  0  0  0  0
   -2.0989   19.5239  -30.6779 H   0  0  0  0  0  0  0  0  0  0  0  0
   -2.8560   21.7283  -29.7830 H   0  0  0  0  0  0  0  0  0  0  0  0
  1  2  2  0
  2  3  1  0
  3  4  1  0
  4  5  1  0
  5  6  2  0
  6  7  1  0
  7  8  1  0
  8  9  1  0
  9 10  1  0
 10 11  2  0
 11 12  1  0
 12 13  1  0
 13 14  2  0
  7 15  1  0
  2 16  1  0
 16 17  2  0
 17 18  1  0
 18 19  1  0
 19 20  2  0
 20 21  1  0
 21 22  2  0
 22 23  1  0
 23 24  2  0
 24 25  1  0
 25 26  2  0
 15  4  2  0
 20 16  1  0
 26 21  1  0
 14 10  1  0
  5 27  1  0
  8 28  1  0
  8 29  1  0
  9 30  1  0
  9 31  1  0
 11 32  1  0
 12 33  1  0
 13 34  1  0
 15 35  1  0
 17 36  1  0
 22 37  1  0
 23 38  1  0
 24 39  1  0
 25 40  1  0
 26 41  1  0
M  CHG  2   3  -1  18  -1
M  END
>  <UniqueID>  (13) 
12

>  <SMILES>  (13) 
O=C([N-]c1cnn(CCc2c[nH]cn2)c1)c1c[n-]nc1-c1ccccc1

>  <Energy>  (13) 
138.54743122499062

>  <Genealogy>  (13) 
O=C([N-]c1cnn(CCc2c[nH]cn2)c1)c1c[n-]nc1-c1ccccc1 (protonated)
O=C([N-]c1cnn(CCc2c[nH]cn2)c1)c1c[n-]nc1-c1ccccc1 (3D coordinates assigned)
O=C([N-]c1cnn(CCc2c[nH]cn2)c1)c1c[n-]nc1-c1ccccc1 (optimized conformer: 138.54743122499062 kcal/mol)

>  <smiles>  (13) 
O=C(Nc1cnn(CCc2c[nH]cn2)c1)c1c[nH]nc1-c1ccccc1

>  <score_type>  (13) 
oracle

>  <origin>  (13) 
adgpu

>  <m_score__min__energy>  (13) 
-9.8200000000000003

>  <m_primary>  (13) 
energy

$$$$
13:0
     RDKit          3D

 57 60  0  0  0  0  0  0  0  0999 V2000
   -6.4500   25.6710  -30.0370 C   0  0  0  0  0  0  0  0  0  0  0  0
   -5.5040   24.4930  -30.3010 C   0  0  0  0  0  0  0  0  0  0  0  0
   -6.1910   23.4530  -31.1970 C   0  0  0  0  0  0  0  0  0  0  0  0
   -5.0440   23.8700  -28.9670 C   0  0  0  0  0  0  0  0  0  0  0  0
   -3.5880   23.9210  -28.8190 N   0  0  0  0  0  0  0  0  0  0  0  0
   -2.7420   23.2380  -29.5320 C   0  0  0  0  0  0  0  0  0  0  0  0
   -3.1700   22.3910  -30.5090 N   0  0  0  0  0  0  0  0  0  0  0  0
   -2.2940   21.6570  -31.2460 C   0  0  0  0  0  0  0  0  0  0  0  0
   -2.7920   20.7760  -32.2660 N   0  0  0  0  0  0  0  0  0  0  0  0
   -4.0290   20.2520  -32.2940 C   0  0  0  0  0  0  0  0  0  0  0  0
   -4.1690   19.5380  -33.4620 C   0  0  0  0  0  0  0  0  0  0  0  0
   -3.0220   19.5940  -34.1650 N   0  0  0  0  0  0  0  0  0  0  0  0
   -2.1960   20.3490  -33.4080 C   0  0  0  0  0  0  0  0  0  0  0  0
   -0.7810   20.5770  -33.7790 C   0  0  0  0  0  0  0  0  0  0  0  0
    0.2600   19.9560  -33.0690 C   0  0  0  0  0  0  0  0  0  0  0  0
    1.5870   20.1490  -33.4550 C   0  0  0  0  0  0  0  0  0  0  0  0
    1.8880   20.9500  -34.5570 C   0  0  0  0  0  0  0  0  0  0  0  0
    0.8660   21.5760  -35.2790 C   0  0  0  0  0  0  0  0  0  0  0  0
    1.2180   22.3550  -36.4320 N   0  0  0  0  0  0  0  0  0  0  0  0
    1.2420   23.7860  -36.5240 C   0  0  0  0  0  0  0  0  0  0  0  0
    2.3060   24.3890  -36.8290 O   0  0  0  0  0  0  0  0  0  0  0  0
    0.0340   24.5190  -36.2720 N   0  0  0  0  0  0  0  0  0  0  0  0
   -0.1330   25.9230  -36.5300 C   0  0  0  0  0  0  0  0  0  0  0  0
    0.1320   26.8880  -35.5420 C   0  0  0  0  0  0  0  0  0  0  0  0
   -0.0070   28.2490  -35.8270 C   0  0  0  0  0  0  0  0  0  0  0  0
   -0.4060   28.6740  -37.1050 C   0  0  0  0  0  0  0  0  0  0  0  0
   -0.5560   30.0760  -37.3940 N   0  0  0  0  0  0  0  0  0  0  0  0
   -0.6210   30.9130  -36.4680 O   0  0  0  0  0  0  0  0  0  0  0  0
   -0.5870   30.5220  -38.6950 O   0  0  0  0  0  0  0  0  0  0  0  0
   -0.6490   27.7080  -38.0970 C   0  0  0  0  0  0  0  0  0  0  0  0
   -0.5050   26.3470  -37.8120 C   0  0  0  0  0  0  0  0  0  0  0  0
   -0.4740   21.3650  -34.9000 C   0  0  0  0  0  0  0  0  0  0  0  0
   -0.9200   21.8040  -31.0230 C   0  0  0  0  0  0  0  0  0  0  0  0
   -0.4970   22.6760  -30.0210 C   0  0  0  0  0  0  0  0  0  0  0  0
   -1.4100   23.3710  -29.2940 N   0  0  0  0  0  0  0  0  0  0  0  0
   -6.5644   25.8134  -28.9523 H   0  0  0  0  0  0  0  0  0  0  0  0
   -6.0318   26.5846  -30.4847 H   0  0  0  0  0  0  0  0  0  0  0  0
   -7.4323   25.4598  -30.4847 H   0  0  0  0  0  0  0  0  0  0  0  0
   -4.6110   24.8582  -30.8293 H   0  0  0  0  0  0  0  0  0  0  0  0
   -6.6887   22.6995  -30.5689 H   0  0  0  0  0  0  0  0  0  0  0  0
   -6.9377   23.9522  -31.8321 H   0  0  0  0  0  0  0  0  0  0  0  0
   -5.4389   22.9621  -31.8321 H   0  0  0  0  0  0  0  0  0  0  0  0
   -5.5063   24.4239  -28.1367 H   0  0  0  0  0  0  0  0  0  0  0  0
   -5.3529   22.8143  -28.9570 H   0  0  0  0  0  0  0  0  0  0  0  0
   -4.7978   20.3730  -31.5166 H   0  0  0  0  0  0  0  0  0  0  0  0
   -5.0785   19.0035  -33.7736 H   0  0  0  0  0  0  0  0  0  0  0  0
    0.0282   19.3152  -32.2055 H   0  0  0  0  0  0  0  0  0  0  0  0
    2.3982   19.6682  -32.8887 H   0  0  0  0  0  0  0  0  0  0  0  0
    2.9360   21.0903  -34.8603 H   0  0  0  0  0  0  0  0  0  0  0  0
   -0.7400   24.0110  -35.7870 H   0  0  0  0  0  0  0  0  0  0  0  0
    0.4507   26.5695  -34.5385 H   0  0  0  0  0  0  0  0  0  0  0  0
    0.1978   28.9938  -35.0439 H   0  0  0  0  0  0  0  0  0  0  0  0
   -0.9547   28.0254  -39.1049 H   0  0  0  0  0  0  0  0  0  0  0  0
   -0.6854   25.6026  -38.6015 H   0  0  0  0  0  0  0  0  0  0  0  0
   -1.2856   21.8206  -35.4862 H   0  0  0  0  0  0  0  0  0  0  0  0
   -0.1898   21.2436  -31.6253 H   0  0  0  0  0  0  0  0  0  0  0  0
    0.5770   22.8014  -29.8189 H   0  0  0  0  0  0  0  0  0  0  0  0
  1  2  1  0
  2  3  1  0
  2  4  1  0
  4  5  1  0
  5  6  2  3
  6  7  1  0
  7  8  2  0
  8  9  1  0
  9 10  1  0
 10 11  2  0
 11 12  1  0
 12 13  2  0
 13 14  1  0
 14 15  2  0
 15 16  1  0
 16 17  2  0
 17 18  1  0
 18 19  1  0
 19 20  1  0
 20 21  2  0
 20 22  1  0
 22 23  1  0
 23 24  2  0
 24 25  1  0
 25 26  2  0
 26 27  1  0
 27 28  2  0
 27 29  1  0
 26 30  1  0
 30 31  2  0
 18 32  2  0
  8 33  1  0
 33 34  2  0
 34 35  1  0
 35  6  1  0
 13  9  1  0
 32 14  1  0
 31 23  1  0
  1 36  1  0
  1 37  1  0
  1 38  1  0
  2 39  1  0
  3 40  1  0
  3 41  1  0
  3 42  1  0
  4 43  1  0
  4 44  1  0
 10 45  1  0
 11 46  1  0
 15 47  1  0
 16 48  1  0
 17 49  1  0
 22 50  1  0
 24 51  1  0
 25 52  1  0
 30 53  1  0
 31 54  1  0
 32 55  1  0
 33 56  1  0
 34 57  1  0
M  CHG  4  19  -1  27   1  29  -1  35  -1
M  END
>  <UniqueID>  (14) 
13

>  <SMILES>  (14) 
CC(C)CN=c1nc(-n2ccnc2-c2cccc([N-]C(=O)Nc3ccc([N+](=O)[O-])cc3)c2)cc[n-]1

>  <Energy>  (14) 
101.91870842077827

>  <Genealogy>  (14) 
CC(C)CN=c1nc(-n2ccnc2-c2cccc([N-]C(=O)Nc3ccc([N+](=O)[O-])cc3)c2)cc[n-]1 (protonated)
CC(C)CN=c1nc(-n2ccnc2-c2cccc([N-]C(=O)Nc3ccc([N+](=O)[O-])cc3)c2)cc[n-]1 (3D coordinates assigned)
CC(C)CN=c1nc(-n2ccnc2-c2cccc([N-]C(=O)Nc3ccc([N+](=O)[O-])cc3)c2)cc[n-]1 (optimized conformer: 101.91870842077827 kcal/mol)

>  <smiles>  (14) 
CC(C)CN=c1nc(-n2ccnc2-c2cccc(NC(=O)Nc3ccc([N+](=O)[O-])cc3)c2)cc[nH]1

>  <score_type>  (14) 
oracle

>  <origin>  (14) 
adgpu

>  <m_score__min__energy>  (14) 
-11.42

>  <m_primary>  (14) 
energy

$$$$
14:0
     RDKit          3D

 34 35  0  0  0  0  0  0  0  0999 V2000
   -0.4530   22.7150  -25.2340 C   0  0  0  0  0  0  0  0  0  0  0  0
   -1.1960   22.0830  -26.3300 N   0  0  0  0  0  0  0  0  0  0  0  0
   -1.2960   20.6190  -26.3680 C   0  0  0  0  0  0  0  0  0  0  0  0
   -1.8210   22.8930  -27.3610 C   0  0  0  0  0  0  0  0  0  0  0  0
   -1.1210   23.9540  -27.9720 C   0  0  0  0  0  0  0  0  0  0  0  0
   -1.7240   24.7330  -28.9630 C   0  0  0  0  0  0  0  0  0  0  0  0
   -3.0410   24.4860  -29.3590 C   0  0  0  0  0  0  0  0  0  0  0  0
   -3.6110   25.2980  -30.3950 N   0  0  0  0  0  0  0  0  0  0  0  0
   -4.9810   25.3130  -30.8210 C   0  0  0  0  0  0  0  0  0  0  0  0
   -5.8370   25.9940  -30.1990 O   0  0  0  0  0  0  0  0  0  0  0  0
   -5.3970   24.5490  -31.9580 N   0  0  0  0  0  0  0  0  0  0  0  0
   -6.1770   23.3450  -31.9310 C   0  0  0  0  0  0  0  0  0  0  0  0
   -7.5360   23.4290  -31.6030 C   0  0  0  0  0  0  0  0  0  0  0  0
   -8.3340   22.2810  -31.5870 C   0  0  0  0  0  0  0  0  0  0  0  0
   -7.7810   21.0390  -31.9180 C   0  0  0  0  0  0  0  0  0  0  0  0
   -8.7820   19.6000  -31.9010 Cl  0  0  0  0  0  0  0  0  0  0  0  0
   -6.4310   20.9500  -32.2740 C   0  0  0  0  0  0  0  0  0  0  0  0
   -5.6320   22.0980  -32.2890 C   0  0  0  0  0  0  0  0  0  0  0  0
   -3.7400   23.4160  -28.7780 C   0  0  0  0  0  0  0  0  0  0  0  0
   -3.1400   22.6350  -27.7860 C   0  0  0  0  0  0  0  0  0  0  0  0
   -0.8574   22.3710  -24.2706 H   0  0  0  0  0  0  0  0  0  0  0  0
    0.6097   22.4398  -25.3048 H   0  0  0  0  0  0  0  0  0  0  0  0
   -0.5542   23.8080  -25.3048 H   0  0  0  0  0  0  0  0  0  0  0  0
   -1.3228   20.2265  -25.3407 H   0  0  0  0  0  0  0  0  0  0  0  0
   -2.2161   20.3279  -26.8959 H   0  0  0  0  0  0  0  0  0  0  0  0
   -0.4240   20.2055  -26.8959 H   0  0  0  0  0  0  0  0  0  0  0  0
   -0.0874   24.1710  -27.6646 H   0  0  0  0  0  0  0  0  0  0  0  0
   -1.1566   25.5482  -29.4357 H   0  0  0  0  0  0  0  0  0  0  0  0
   -7.9788   24.4052  -31.3562 H   0  0  0  0  0  0  0  0  0  0  0  0
   -9.3971   22.3542  -31.3141 H   0  0  0  0  0  0  0  0  0  0  0  0
   -5.9971   19.9755  -32.5426 H   0  0  0  0  0  0  0  0  0  0  0  0
   -4.5741   22.0258  -32.5816 H   0  0  0  0  0  0  0  0  0  0  0  0
   -4.7658   23.1909  -29.1053 H   0  0  0  0  0  0  0  0  0  0  0  0
   -3.7047   21.8080  -27.3309 H   0  0  0  0  0  0  0  0  0  0  0  0
  1  2  1  0
  2  3  1  0
  2  4  1  0
  4  5  2  0
  5  6  1  0
  6  7  2  0
  7  8  1  0
  8  9  1  0
  9 10  2  0
  9 11  1  0
 11 12  1  0
 12 13  2  0
 13 14  1  0
 14 15  2  0
 15 16  1  0
 15 17  1  0
 17 18  2  0
  7 19  1  0
 19 20  2  0
 20  4  1  0
 18 12  1  0
  1 21  1  0
  1 22  1  0
  1 23  1  0
  3 24  1  0
  3 25  1  0
  3 26  1  0
  5 27  1  0
  6 28  1  0
 13 29  1  0
 14 30  1  0
 17 31  1  0
 18 32  1  0
 19 33  1  0
 20 34  1  0
M  CHG  2   8  -1  11  -1
M  END
>  <UniqueID>  (15) 
14

>  <SMILES>  (15) 
CN(C)c1ccc([N-]C(=O)[N-]c2ccc(Cl)cc2)cc1

>  <Energy>  (15) 
42.60299221059757

>  <Genealogy>  (15) 
CN(C)c1ccc([N-]C(=O)[N-]c2ccc(Cl)cc2)cc1 (protonated)
CN(C)c1ccc([N-]C(=O)[N-]c2ccc(Cl)cc2)cc1 (3D coordinates assigned)
CN(C)c1ccc([N-]C(=O)[N-]c2ccc(Cl)cc2)cc1 (optimized conformer: 42.60299221059757 kcal/mol)

>  <smiles>  (15) 
CN(C)c1ccc(NC(=O)Nc2ccc(Cl)cc2)cc1

>  <score_type>  (15) 
oracle

>  <origin>  (15) 
adgpu

>  <m_score__min__energy>  (15) 
-10.390000000000001

>  <m_primary>  (15) 
energy

$$$$
15:0
     RDKit          3D

 39 41  0  0  0  0  0  0  0  0999 V2000
   -0.6050   23.0380  -27.4370 C   0  0  0  0  0  0  0  0  0  0  0  0
   -0.9920   22.3680  -28.7300 C   0  0  0  0  0  0  0  0  0  0  0  0
   -0.3990   21.1370  -29.0590 C   0  0  0  0  0  0  0  0  0  0  0  0
   -0.7180   20.4910  -30.2550 C   0  0  0  0  0  0  0  0  0  0  0  0
   -0.1430   19.3000  -30.5560 F   0  0  0  0  0  0  0  0  0  0  0  0
   -1.6250   21.0700  -31.1410 C   0  0  0  0  0  0  0  0  0  0  0  0
   -2.2120   22.2980  -30.8370 C   0  0  0  0  0  0  0  0  0  0  0  0
   -1.9020   22.9650  -29.6400 C   0  0  0  0  0  0  0  0  0  0  0  0
   -2.6670   24.5270  -29.3080 S   0  0  0  0  0  0  0  0  0  0  0  0
   -3.3210   24.5030  -27.9540 O   0  0  0  0  0  0  0  0  0  0  0  0
   -1.6160   25.6030  -29.3330 O   0  0  0  0  0  0  0  0  0  0  0  0
   -3.8750   24.8410  -30.5090 N   0  0  0  0  0  0  0  0  0  0  0  0
   -5.0470   24.0450  -30.7330 C   0  0  0  0  0  0  0  0  0  0  0  0
   -5.3030   23.4220  -31.9680 C   0  0  0  0  0  0  0  0  0  0  0  0
   -6.4570   22.6520  -32.1400 C   0  0  0  0  0  0  0  0  0  0  0  0
   -7.3640   22.4920  -31.0850 C   0  0  0  0  0  0  0  0  0  0  0  0
   -8.8050   21.5040  -31.3080 S   0  0  0  0  0  0  0  0  0  0  0  0
   -9.8790   21.9060  -30.3360 O   0  0  0  0  0  0  0  0  0  0  0  0
   -9.3150   21.6970  -32.7080 O   0  0  0  0  0  0  0  0  0  0  0  0
   -8.4220   19.8290  -31.0680 N   0  0  0  0  0  0  0  0  0  0  0  0
   -7.6660   19.1300  -31.8580 C   0  0  0  0  0  0  0  0  0  0  0  0
   -7.4020   17.8250  -31.6310 N   0  0  0  0  0  0  0  0  0  0  0  0
   -6.5960   17.3020  -32.5930 C   0  0  0  0  0  0  0  0  0  0  0  0
   -6.2190   18.1980  -33.5840 C   0  0  0  0  0  0  0  0  0  0  0  0
   -5.1920   17.8370  -34.9560 Cl  0  0  0  0  0  0  0  0  0  0  0  0
   -6.9120   19.6950  -33.2600 S   0  0  0  0  0  0  0  0  0  0  0  0
   -7.1140   23.1190  -29.8580 C   0  0  0  0  0  0  0  0  0  0  0  0
   -5.9620   23.8900  -29.6850 C   0  0  0  0  0  0  0  0  0  0  0  0
   -0.9559   22.4304  -26.5898 H   0  0  0  0  0  0  0  0  0  0  0  0
    0.4895   23.1371  -27.3886 H   0  0  0  0  0  0  0  0  0  0  0  0
   -1.0660   24.0356  -27.3886 H   0  0  0  0  0  0  0  0  0  0  0  0
    0.3232   20.6781  -28.3678 H   0  0  0  0  0  0  0  0  0  0  0  0
   -1.8781   20.5578  -32.0810 H   0  0  0  0  0  0  0  0  0  0  0  0
   -2.9255   22.7493  -31.5421 H   0  0  0  0  0  0  0  0  0  0  0  0
   -4.5936   23.5410  -32.8002 H   0  0  0  0  0  0  0  0  0  0  0  0
   -6.6536   22.1694  -33.1087 H   0  0  0  0  0  0  0  0  0  0  0  0
   -6.2685   16.2519  -32.5865 H   0  0  0  0  0  0  0  0  0  0  0  0
   -7.8268   23.0041  -29.0281 H   0  0  0  0  0  0  0  0  0  0  0  0
   -5.7725   24.3790  -28.7180 H   0  0  0  0  0  0  0  0  0  0  0  0
  1  2  1  0
  2  3  2  0
  3  4  1  0
  4  5  1  0
  4  6  2  0
  6  7  1  0
  7  8  2  0
  8  9  1  0
  9 10  2  0
  9 11  2  0
  9 12  1  0
 12 13  1  0
 13 14  2  0
 14 15  1  0
 15 16  2  0
 16 17  1  0
 17 18  2  0
 17 19  2  0
 17 20  1  0
 20 21  2  3
 21 22  1  0
 22 23  1  0
 23 24  2  0
 24 25  1  0
 24 26  1  0
 16 27  1  0
 27 28  2  0
  8  2  1  0
 28 13  1  0
 26 21  1  0
  1 29  1  0
  1 30  1  0
  1 31  1  0
  3 32  1  0
  6 33  1  0
  7 34  1  0
 14 35  1  0
 15 36  1  0
 23 37  1  0
 27 38  1  0
 28 39  1  0
M  CHG  2  12  -1  22  -1
M  END
>  <UniqueID>  (16) 
15

>  <SMILES>  (16) 
Cc1cc(F)ccc1S(=O)(=O)[N-]c1ccc(S(=O)(=O)N=c2[n-]cc(Cl)s2)cc1

>  <Energy>  (16) 
80.90039555987063

>  <Genealogy>  (16) 
Cc1cc(F)ccc1S(=O)(=O)[N-]c1ccc(S(=O)(=O)N=c2[n-]cc(Cl)s2)cc1 (protonated)
Cc1cc(F)ccc1S(=O)(=O)[N-]c1ccc(S(=O)(=O)N=c2[n-]cc(Cl)s2)cc1 (3D coordinates assigned)
Cc1cc(F)ccc1S(=O)(=O)[N-]c1ccc(S(=O)(=O)N=c2[n-]cc(Cl)s2)cc1 (optimized conformer: 80.90039555987063 kcal/mol)

>  <smiles>  (16) 
Cc1cc(F)ccc1S(=O)(=O)Nc1ccc(S(=O)(=O)N=c2[nH]cc(Cl)s2)cc1

>  <score_type>  (16) 
oracle

>  <origin>  (16) 
adgpu

>  <m_score__min__energy>  (16) 
-10.890000000000001

>  <m_primary>  (16) 
energy

$$$$
16:0
     RDKit          3D

 46 48  0  0  0  0  0  0  0  0999 V2000
   -1.1910   18.0580  -32.6840 C   0  0  0  0  0  0  0  0  0  0  0  0
   -2.0210   18.6190  -33.6970 O   0  0  0  0  0  0  0  0  0  0  0  0
   -3.3910   18.3520  -33.8530 C   0  0  0  0  0  0  0  0  0  0  0  0
   -4.3390   19.3940  -33.8070 C   0  0  0  0  0  0  0  0  0  0  0  0
   -5.7050   19.1210  -33.9230 C   0  0  0  0  0  0  0  0  0  0  0  0
   -6.6390   20.1610  -33.8880 O   0  0  0  0  0  0  0  0  0  0  0  0
   -7.0430   20.8170  -32.7160 C   0  0  0  0  0  0  0  0  0  0  0  0
   -8.3690   20.7870  -32.2610 C   0  0  0  0  0  0  0  0  0  0  0  0
   -8.7360   21.5160  -31.1300 C   0  0  0  0  0  0  0  0  0  0  0  0
   -7.7930   22.2770  -30.4430 C   0  0  0  0  0  0  0  0  0  0  0  0
   -6.4490   22.3100  -30.8710 C   0  0  0  0  0  0  0  0  0  0  0  0
   -5.4360   23.1380  -30.1500 C   0  0  0  0  0  0  0  0  0  0  0  0
   -4.0620   23.1240  -30.3670 C   0  0  0  0  0  0  0  0  0  0  0  0
   -3.5160   24.0180  -29.4670 C   0  0  0  0  0  0  0  0  0  0  0  0
   -2.0910   24.3410  -29.3060 C   0  0  0  0  0  0  0  0  0  0  0  0
   -1.6860   25.6700  -28.9850 N   0  0  0  0  0  0  0  0  0  0  0  0
   -1.2210   23.4390  -29.4590 O   0  0  0  0  0  0  0  0  0  0  0  0
   -4.5600   24.5460  -28.7340 C   0  0  0  0  0  0  0  0  0  0  0  0
   -5.7210   24.0080  -29.1490 N   0  0  0  0  0  0  0  0  0  0  0  0
   -6.0870   21.5640  -32.0120 C   0  0  0  0  0  0  0  0  0  0  0  0
   -6.1430   17.8070  -34.0960 C   0  0  0  0  0  0  0  0  0  0  0  0
   -5.2190   16.7490  -34.1490 C   0  0  0  0  0  0  0  0  0  0  0  0
   -5.6300   15.4160  -34.3180 O   0  0  0  0  0  0  0  0  0  0  0  0
   -5.3310   14.3590  -33.4100 C   0  0  0  0  0  0  0  0  0  0  0  0
   -3.8410   17.0160  -34.0390 C   0  0  0  0  0  0  0  0  0  0  0  0
   -2.9750   15.9100  -34.1260 O   0  0  0  0  0  0  0  0  0  0  0  0
   -2.4410   15.3390  -35.3190 C   0  0  0  0  0  0  0  0  0  0  0  0
   -1.5883   18.3266  -31.6940 H   0  0  0  0  0  0  0  0  0  0  0  0
   -1.1749   16.9630  -32.7879 H   0  0  0  0  0  0  0  0  0  0  0  0
   -0.1690   18.4513  -32.7879 H   0  0  0  0  0  0  0  0  0  0  0  0
   -4.0004   20.4327  -33.6785 H   0  0  0  0  0  0  0  0  0  0  0  0
   -9.1204   20.1881  -32.7965 H   0  0  0  0  0  0  0  0  0  0  0  0
   -9.7778   21.4898  -30.7779 H   0  0  0  0  0  0  0  0  0  0  0  0
   -8.0986   22.8569  -29.5597 H   0  0  0  0  0  0  0  0  0  0  0  0
   -3.5181   22.5204  -31.1086 H   0  0  0  0  0  0  0  0  0  0  0  0
   -1.2350   26.2840  -29.7000 H   0  0  0  0  0  0  0  0  0  0  0  0
   -4.4580   25.2928  -27.9328 H   0  0  0  0  0  0  0  0  0  0  0  0
   -6.6530   24.2260  -28.7370 H   0  0  0  0  0  0  0  0  0  0  0  0
   -5.0416   21.5681  -32.3542 H   0  0  0  0  0  0  0  0  0  0  0  0
   -7.2187   17.5980  -34.1915 H   0  0  0  0  0  0  0  0  0  0  0  0
   -5.4339   14.7229  -32.3770 H   0  0  0  0  0  0  0  0  0  0  0  0
   -6.0284   13.5247  -33.5761 H   0  0  0  0  0  0  0  0  0  0  0  0
   -4.2999   14.0136  -33.5761 H   0  0  0  0  0  0  0  0  0  0  0  0
   -1.7112   14.5587  -35.0572 H   0  0  0  0  0  0  0  0  0  0  0  0
   -3.2560   14.8955  -35.9099 H   0  0  0  0  0  0  0  0  0  0  0  0
   -1.9440   16.1225  -35.9099 H   0  0  0  0  0  0  0  0  0  0  0  0
  1  2  1  0
  2  3  1  0
  3  4  2  0
  4  5  1  0
  5  6  1  0
  6  7  1  0
  7  8  2  0
  8  9  1  0
  9 10  2  0
 10 11  1  0
 11 12  1  0
 12 13  2  0
 13 14  1  0
 14 15  1  0
 15 16  1  0
 15 17  2  0
 14 18  2  0
 18 19  1  0
 11 20  2  0
  5 21  2  0
 21 22  1  0
 22 23  1  0
 23 24  1  0
 22 25  2  0
 25 26  1  0
 26 27  1  0
 25  3  1  0
 20  7  1  0
 19 12  1  0
  1 28  1  0
  1 29  1  0
  1 30  1  0
  4 31  1  0
  8 32  1  0
  9 33  1  0
 10 34  1  0
 13 35  1  0
 16 36  1  0
 18 37  1  0
 19 38  1  0
 20 39  1  0
 21 40  1  0
 24 41  1  0
 24 42  1  0
 24 43  1  0
 27 44  1  0
 27 45  1  0
 27 46  1  0
M  CHG  1  16  -1
M  END
>  <UniqueID>  (17) 
16

>  <SMILES>  (17) 
COc1cc(Oc2cccc(-c3cc(C([NH-])=O)c[nH]3)c2)cc(OC)c1OC

>  <Energy>  (17) 
85.86588124089475

>  <Genealogy>  (17) 
COc1cc(Oc2cccc(-c3cc(C([NH-])=O)c[nH]3)c2)cc(OC)c1OC (protonated)
COc1cc(Oc2cccc(-c3cc(C([NH-])=O)c[nH]3)c2)cc(OC)c1OC (3D coordinates assigned)
COc1cc(Oc2cccc(-c3cc(C([NH-])=O)c[nH]3)c2)cc(OC)c1OC (optimized conformer: 85.86588124089475 kcal/mol)

>  <smiles>  (17) 
COc1cc(Oc2cccc(-c3cc(C(N)=O)c[nH]3)c2)cc(OC)c1OC

>  <score_type>  (17) 
oracle

>  <origin>  (17) 
adgpu

>  <m_score__min__energy>  (17) 
-9.4900000000000002

>  <m_primary>  (17) 
energy

$$$$
17:0
     RDKit          3D

 35 37  0  0  1  0  0  0  0  0999 V2000
   -5.3890   15.9220  -31.4320 O   0  0  0  0  0  0  0  0  0  0  0  0
   -5.7490   17.0120  -32.2280 C   0  0  0  0  0  0  0  0  0  0  0  0
   -5.2720   17.1270  -33.5380 C   0  0  0  0  0  0  0  0  0  0  0  0
   -5.6240   18.2060  -34.3350 C   0  0  0  0  0  0  0  0  0  0  0  0
   -6.4690   19.1760  -33.8000 C   0  0  0  0  0  0  0  0  0  0  0  0
   -6.9450   19.0590  -32.4890 C   0  0  0  0  0  0  0  0  0  0  0  0
   -7.8000   20.1100  -32.0510 N   0  0  0  0  0  0  0  0  0  0  0  0
   -7.2610   21.2230  -31.7220 C   0  0  0  0  0  0  0  0  0  0  0  0
   -8.0730   22.2100  -31.3110 N   0  0  0  0  0  0  0  0  0  0  0  0
   -7.6360   23.4280  -30.9360 C   0  0  0  0  0  0  0  0  0  0  0  0
   -6.2610   23.6260  -30.9960 C   0  0  0  0  0  0  0  0  0  0  0  0
   -5.5640   25.3410  -30.4760 Br  0  0  0  0  0  0  0  0  0  0  0  0
   -5.3980   22.6330  -31.4130 C   0  0  0  0  0  0  0  0  0  0  0  0
   -4.1460   22.9070  -31.4360 N   0  0  0  0  0  0  0  0  0  0  0  0
   -3.2500   21.8900  -31.8650 C   0  0  0  0  0  0  0  0  0  0  0  0
   -3.3260   21.5470  -33.2170 C   0  0  0  0  0  0  0  0  0  0  0  0
   -2.5280   20.5850  -33.7790 C   0  0  0  0  0  0  0  0  0  0  0  0
   -1.6180   19.9420  -32.9520 C   0  0  0  0  0  0  0  0  0  0  0  0
   -1.5240   20.2650  -31.6040 C   0  0  0  0  0  0  0  0  0  0  0  0
   -2.3550   21.2540  -31.0650 C   0  0  0  0  0  0  0  0  0  0  0  0
   -5.9240   21.4500  -31.7670 N   0  0  0  0  0  0  0  0  0  0  0  0
   -6.5860   17.9910  -31.7250 C   0  0  0  0  0  0  0  0  0  0  0  0
   -5.6690   15.9130  -30.4580 H   0  0  0  0  0  0  0  0  0  0  0  0
   -4.6073   16.3494  -33.9423 H   0  0  0  0  0  0  0  0  0  0  0  0
   -5.2454   18.2938  -35.3641 H   0  0  0  0  0  0  0  0  0  0  0  0
   -6.7643   20.0405  -34.4127 H   0  0  0  0  0  0  0  0  0  0  0  0
   -9.1100   22.0650  -31.2640 H   0  0  0  0  0  0  0  0  0  0  0  0
   -8.3251   24.2179  -30.6026 H   0  0  0  0  0  0  0  0  0  0  0  0
   -4.0543   22.0691  -33.8550 H   0  0  0  0  0  0  0  0  0  0  0  0
   -2.6060   20.3318  -34.8466 H   0  0  0  0  0  0  0  0  0  0  0  0
   -0.9612   19.1649  -33.3700 H   0  0  0  0  0  0  0  0  0  0  0  0
   -0.7982   19.7447  -30.9618 H   0  0  0  0  0  0  0  0  0  0  0  0
   -2.2837   21.5150  -29.9988 H   0  0  0  0  0  0  0  0  0  0  0  0
   -5.2860   20.6900  -32.0850 H   0  0  0  0  0  0  0  0  0  0  0  0
   -6.9659   17.9059  -30.6962 H   0  0  0  0  0  0  0  0  0  0  0  0
  1  2  1  0
  2  3  2  0
  3  4  1  0
  4  5  2  0
  5  6  1  0
  6  7  1  0
  7  8  2  0
  8  9  1  0
  9 10  1  0
 10 11  2  0
 11 12  1  0
 11 13  1  0
 13 14  2  0
 14 15  1  0
 15 16  2  0
 16 17  1  0
 17 18  2  0
 18 19  1  0
 19 20  2  0
 13 21  1  0
  6 22  2  0
 22  2  1  0
 21  8  1  0
 20 15  1  0
  1 23  1  0
  3 24  1  0
  4 25  1  0
  5 26  1  0
  9 27  1  0
 10 28  1  0
 16 29  1  0
 17 30  1  0
 18 31  1  0
 19 32  1  0
 20 33  1  0
 21 34  1  0
 22 35  1  0
M  END
>  <smiles>  (18) 
Oc1cccc(N=c2[nH]cc(Br)c(=Nc3ccccc3)[nH]2)c1

>  <score_type>  (18) 
oracle

>  <origin>  (18) 
adgpu

>  <m_score__min__energy>  (18) 
-8.5199999999999996

>  <m_primary>  (18) 
energy

$$$$
18:0
     RDKit          3D

 41 43  0  0  0  0  0  0  0  0999 V2000
   -1.7340   19.3440  -27.2880 C   0  0  0  0  0  0  0  0  0  0  0  0
   -1.9280   20.7300  -27.8290 C   0  0  0  0  0  0  0  0  0  0  0  0
   -0.9460   21.3180  -28.6400 C   0  0  0  0  0  0  0  0  0  0  0  0
   -1.1150   22.6180  -29.1240 C   0  0  0  0  0  0  0  0  0  0  0  0
   -2.2690   23.3520  -28.8030 C   0  0  0  0  0  0  0  0  0  0  0  0
   -2.4580   24.7190  -29.3440 C   0  0  0  0  0  0  0  0  0  0  0  0
   -1.7270   25.6570  -28.9290 O   0  0  0  0  0  0  0  0  0  0  0  0
   -3.4810   25.0140  -30.3060 N   0  0  0  0  0  0  0  0  0  0  0  0
   -4.6330   24.1980  -30.5540 C   0  0  0  0  0  0  0  0  0  0  0  0
   -4.4570   22.8800  -30.9910 C   0  0  0  0  0  0  0  0  0  0  0  0
   -5.5660   22.0970  -31.3270 C   0  0  0  0  0  0  0  0  0  0  0  0
   -6.8610   22.6160  -31.2010 C   0  0  0  0  0  0  0  0  0  0  0  0
   -8.2420   21.6800  -31.7630 S   0  0  0  0  0  0  0  0  0  0  0  0
   -9.3140   22.5860  -32.3010 O   0  0  0  0  0  0  0  0  0  0  0  0
   -8.8080   20.8990  -30.6120 O   0  0  0  0  0  0  0  0  0  0  0  0
   -7.7300   20.5820  -33.0060 N   0  0  0  0  0  0  0  0  0  0  0  0
   -7.1440   19.4450  -32.7730 C   0  0  0  0  0  0  0  0  0  0  0  0
   -6.8790   19.0450  -31.4980 N   0  0  0  0  0  0  0  0  0  0  0  0
   -6.2820   17.8530  -31.2430 C   0  0  0  0  0  0  0  0  0  0  0  0
   -5.9310   17.0160  -32.2980 C   0  0  0  0  0  0  0  0  0  0  0  0
   -6.2020   17.4360  -33.5990 C   0  0  0  0  0  0  0  0  0  0  0  0
   -6.7990   18.6380  -33.8160 N   0  0  0  0  0  0  0  0  0  0  0  0
   -7.0400   23.9150  -30.7060 C   0  0  0  0  0  0  0  0  0  0  0  0
   -5.9330   24.7020  -30.3810 C   0  0  0  0  0  0  0  0  0  0  0  0
   -3.2310   22.7750  -27.9540 C   0  0  0  0  0  0  0  0  0  0  0  0
   -3.0600   21.4750  -27.4710 C   0  0  0  0  0  0  0  0  0  0  0  0
   -1.7384   19.3756  -26.1885 H   0  0  0  0  0  0  0  0  0  0  0  0
   -2.5501   18.6956  -27.6395 H   0  0  0  0  0  0  0  0  0  0  0  0
   -0.7712   18.9446  -27.6395 H   0  0  0  0  0  0  0  0  0  0  0  0
   -0.0379   20.7527  -28.8964 H   0  0  0  0  0  0  0  0  0  0  0  0
   -0.3396   23.0694  -29.7603 H   0  0  0  0  0  0  0  0  0  0  0  0
   -3.4439   22.4590  -31.0704 H   0  0  0  0  0  0  0  0  0  0  0  0
   -5.4208   21.0694  -31.6917 H   0  0  0  0  0  0  0  0  0  0  0  0
   -6.0763   17.5495  -30.2059 H   0  0  0  0  0  0  0  0  0  0  0  0
   -5.4504   16.0447  -32.1093 H   0  0  0  0  0  0  0  0  0  0  0  0
   -5.9326   16.7944  -34.4509 H   0  0  0  0  0  0  0  0  0  0  0  0
   -6.9980   18.9360  -34.7980 H   0  0  0  0  0  0  0  0  0  0  0  0
   -8.0557   24.3159  -30.5731 H   0  0  0  0  0  0  0  0  0  0  0  0
   -6.0793   25.7191  -29.9885 H   0  0  0  0  0  0  0  0  0  0  0  0
   -4.1236   23.3510  -27.6685 H   0  0  0  0  0  0  0  0  0  0  0  0
   -3.8176   21.0341  -26.8065 H   0  0  0  0  0  0  0  0  0  0  0  0
  1  2  1  0
  2  3  2  0
  3  4  1  0
  4  5  2  0
  5  6  1  0
  6  7  2  0
  6  8  1  0
  8  9  1  0
  9 10  2  0
 10 11  1  0
 11 12  2  0
 12 13  1  0
 13 14  2  0
 13 15  2  0
 13 16  1  0
 16 17  2  3
 17 18  1  0
 18 19  2  0
 19 20  1  0
 20 21  2  0
 21 22  1  0
 12 23  1  0
 23 24  2  0
  5 25  1  0
 25 26  2  0
 26  2  1  0
 24  9  1  0
 22 17  1  0
  1 27  1  0
  1 28  1  0
  1 29  1  0
  3 30  1  0
  4 31  1  0
 10 32  1  0
 11 33  1  0
 19 34  1  0
 20 35  1  0
 21 36  1  0
 22 37  1  0
 23 38  1  0
 24 39  1  0
 25 40  1  0
 26 41  1  0
M  CHG  1   8  -1
M  END
>  <UniqueID>  (19) 
17

>  <SMILES>  (19) 
Cc1ccc(C(=O)[N-]c2ccc(S(=O)(=O)N=c3nccc[nH]3)cc2)cc1

>  <Energy>  (19) 
51.79750402289907

>  <Genealogy>  (19) 
Cc1ccc(C(=O)[N-]c2ccc(S(=O)(=O)N=c3nccc[nH]3)cc2)cc1 (protonated)
Cc1ccc(C(=O)[N-]c2ccc(S(=O)(=O)N=c3nccc[nH]3)cc2)cc1 (3D coordinates assigned)
Cc1ccc(C(=O)[N-]c2ccc(S(=O)(=O)N=c3nccc[nH]3)cc2)cc1 (optimized conformer: 51.79750402289907 kcal/mol)

>  <smiles>  (19) 
Cc1ccc(C(=O)Nc2ccc(S(=O)(=O)N=c3nccc[nH]3)cc2)cc1

>  <score_type>  (19) 
oracle

>  <origin>  (19) 
adgpu

>  <m_score__min__energy>  (19) 
-11.279999999999999

>  <m_primary>  (19) 
energy

$$$$
19:0
     RDKit          3D

 42 44  0  0  0  0  0  0  0  0999 V2000
    1.6220   24.5980  -27.0980 C   0  0  0  0  0  0  0  0  0  0  0  0
    0.8140   24.3570  -28.2460 O   0  0  0  0  0  0  0  0  0  0  0  0
   -0.5810   24.2020  -28.2130 C   0  0  0  0  0  0  0  0  0  0  0  0
   -1.2490   23.6090  -27.1250 C   0  0  0  0  0  0  0  0  0  0  0  0
   -2.6390   23.4660  -27.1480 C   0  0  0  0  0  0  0  0  0  0  0  0
   -3.3720   23.9180  -28.2470 C   0  0  0  0  0  0  0  0  0  0  0  0
   -2.7250   24.5330  -29.3250 C   0  0  0  0  0  0  0  0  0  0  0  0
   -3.4970   24.9220  -30.4670 N   0  0  0  0  0  0  0  0  0  0  0  0
   -4.9260   24.9770  -30.5470 C   0  0  0  0  0  0  0  0  0  0  0  0
   -5.4760   26.0690  -30.8490 O   0  0  0  0  0  0  0  0  0  0  0  0
   -5.7750   23.7460  -30.4240 C   0  0  0  0  0  0  0  0  0  0  0  0
   -5.5910   22.7320  -31.9240 S   0  0  0  0  0  0  0  0  0  0  0  0
   -7.3590   22.4820  -32.1030 C   0  0  0  0  0  0  0  0  0  0  0  0
   -8.2710   23.4500  -31.9030 N   0  0  0  0  0  0  0  0  0  0  0  0
   -9.4450   22.8450  -32.0140 N   0  0  0  0  0  0  0  0  0  0  0  0
   -9.2710   21.5570  -32.2640 N   0  0  0  0  0  0  0  0  0  0  0  0
   -7.9750   21.3050  -32.3310 N   0  0  0  0  0  0  0  0  0  0  0  0
   -7.4100   20.0040  -32.5530 C   0  0  0  0  0  0  0  0  0  0  0  0
   -7.7410   18.9460  -31.6930 C   0  0  0  0  0  0  0  0  0  0  0  0
   -7.2250   17.6680  -31.9160 C   0  0  0  0  0  0  0  0  0  0  0  0
   -6.3830   17.4310  -33.0040 C   0  0  0  0  0  0  0  0  0  0  0  0
   -6.0480   18.4690  -33.8810 C   0  0  0  0  0  0  0  0  0  0  0  0
   -5.1990   18.1810  -34.9590 O   0  0  0  0  0  0  0  0  0  0  0  0
   -4.1560   17.2120  -34.9230 C   0  0  0  0  0  0  0  0  0  0  0  0
   -6.5710   19.7570  -33.6540 C   0  0  0  0  0  0  0  0  0  0  0  0
   -1.3250   24.6510  -29.3120 C   0  0  0  0  0  0  0  0  0  0  0  0
    1.0290   24.4211  -26.1886 H   0  0  0  0  0  0  0  0  0  0  0  0
    2.4872   23.9188  -27.1094 H   0  0  0  0  0  0  0  0  0  0  0  0
    1.9738   25.6402  -27.1094 H   0  0  0  0  0  0  0  0  0  0  0  0
   -0.6756   23.2573  -26.2547 H   0  0  0  0  0  0  0  0  0  0  0  0
   -3.1566   22.9964  -26.2986 H   0  0  0  0  0  0  0  0  0  0  0  0
   -4.4644   23.7900  -28.2657 H   0  0  0  0  0  0  0  0  0  0  0  0
   -5.4541   23.1651  -29.5467 H   0  0  0  0  0  0  0  0  0  0  0  0
   -6.8290   24.0372  -30.3045 H   0  0  0  0  0  0  0  0  0  0  0  0
   -8.4105   19.1243  -30.8386 H   0  0  0  0  0  0  0  0  0  0  0  0
   -7.4826   16.8455  -31.2325 H   0  0  0  0  0  0  0  0  0  0  0  0
   -5.9801   16.4215  -33.1732 H   0  0  0  0  0  0  0  0  0  0  0  0
   -3.9067   16.9804  -33.8770 H   0  0  0  0  0  0  0  0  0  0  0  0
   -4.4892   16.2956  -35.4321 H   0  0  0  0  0  0  0  0  0  0  0  0
   -3.2665   17.6116  -35.4321 H   0  0  0  0  0  0  0  0  0  0  0  0
   -6.3210   20.5765  -34.3438 H   0  0  0  0  0  0  0  0  0  0  0  0
   -0.8081   25.1002  -30.1729 H   0  0  0  0  0  0  0  0  0  0  0  0
  1  2  1  0
  2  3  1  0
  3  4  2  0
  4  5  1  0
  5  6  2  0
  6  7  1  0
  7  8  1  0
  8  9  1  0
  9 10  2  0
  9 11  1  0
 11 12  1  0
 12 13  1  0
 13 14  2  0
 14 15  1  0
 15 16  2  0
 16 17  1  0
 17 18  1  0
 18 19  2  0
 19 20  1  0
 20 21  2  0
 21 22  1  0
 22 23  1  0
 23 24  1  0
 22 25  2  0
  7 26  2  0
 26  3  1  0
 17 13  1  0
 25 18  1  0
  1 27  1  0
  1 28  1  0
  1 29  1  0
  4 30  1  0
  5 31  1  0
  6 32  1  0
 11 33  1  0
 11 34  1  0
 19 35  1  0
 20 36  1  0
 21 37  1  0
 24 38  1  0
 24 39  1  0
 24 40  1  0
 25 41  1  0
 26 42  1  0
M  CHG  1   8  -1
M  END
>  <UniqueID>  (20) 
18

>  <SMILES>  (20) 
COc1cccc([N-]C(=O)CSc2nnnn2-c2cccc(OC)c2)c1

>  <Energy>  (20) 
82.44953997330151

>  <Genealogy>  (20) 
COc1cccc([N-]C(=O)CSc2nnnn2-c2cccc(OC)c2)c1 (protonated)
COc1cccc([N-]C(=O)CSc2nnnn2-c2cccc(OC)c2)c1 (3D coordinates assigned)
COc1cccc([N-]C(=O)CSc2nnnn2-c2cccc(OC)c2)c1 (optimized conformer: 82.44953997330151 kcal/mol)

>  <smiles>  (20) 
COc1cccc(NC(=O)CSc2nnnn2-c2cccc(OC)c2)c1

>  <score_type>  (20) 
oracle

>  <origin>  (20) 
adgpu

>  <m_score__min__energy>  (20) 
-10.859999999999999

>  <m_primary>  (20) 
energy

$$$$
20:0
     RDKit          3D

 41 43  0  0  0  0  0  0  0  0999 V2000
   -5.2491   18.0957  -35.2737 H   0  0  0  0  0  0  0  0  0  0  0  0
   -5.9050   18.3660  -34.4330 C   0  0  0  0  0  0  0  0  0  0  0  0
   -6.1870   19.6740  -34.1880 N   0  0  0  0  0  0  0  0  0  0  0  0
   -6.9880   20.0580  -33.1550 C   0  0  0  0  0  0  0  0  0  0  0  0
   -7.2530   21.4110  -32.9090 O   0  0  0  0  0  0  0  0  0  0  0  0
   -6.3880   22.3000  -32.2530 C   0  0  0  0  0  0  0  0  0  0  0  0
   -5.0450   21.9390  -32.1040 C   0  0  0  0  0  0  0  0  0  0  0  0
   -4.6894   20.9797  -32.5080 H   0  0  0  0  0  0  0  0  0  0  0  0
   -4.1510   22.7890  -31.4450 C   0  0  0  0  0  0  0  0  0  0  0  0
   -3.0907   22.5090  -31.3594 H   0  0  0  0  0  0  0  0  0  0  0  0
   -4.6020   23.9990  -30.8920 C   0  0  0  0  0  0  0  0  0  0  0  0
   -3.6940   24.9140  -30.2600 N   0  0  0  0  0  0  0  0  0  0  0  0
   -2.8120   24.6500  -29.3370 C   0  0  0  0  0  0  0  0  0  0  0  0
   -1.9770   25.6480  -28.9370 N   0  0  0  0  0  0  0  0  0  0  0  0
   -1.0350   25.4720  -27.9720 C   0  0  0  0  0  0  0  0  0  0  0  0
   -0.1600   26.6160  -27.5690 C   0  0  0  0  0  0  0  0  0  0  0  0
   -0.1153   26.6745  -26.4715 H   0  0  0  0  0  0  0  0  0  0  0  0
    0.8528   26.4618  -27.9696 H   0  0  0  0  0  0  0  0  0  0  0  0
   -0.5740   27.5531  -27.9696 H   0  0  0  0  0  0  0  0  0  0  0  0
   -0.9110   24.2290  -27.3410 C   0  0  0  0  0  0  0  0  0  0  0  0
   -0.1591   24.0810  -26.5518 H   0  0  0  0  0  0  0  0  0  0  0  0
   -1.7500   23.1760  -27.7210 C   0  0  0  0  0  0  0  0  0  0  0  0
   -1.6690   21.8540  -27.0160 C   0  0  0  0  0  0  0  0  0  0  0  0
   -1.6790   22.0173  -25.9282 H   0  0  0  0  0  0  0  0  0  0  0  0
   -2.5308   21.2328  -27.3015 H   0  0  0  0  0  0  0  0  0  0  0  0
   -0.7378   21.3427  -27.3015 H   0  0  0  0  0  0  0  0  0  0  0  0
   -2.7200   23.3900  -28.7080 C   0  0  0  0  0  0  0  0  0  0  0  0
   -3.4073   22.5795  -28.9919 H   0  0  0  0  0  0  0  0  0  0  0  0
   -5.9430   24.3680  -31.0510 C   0  0  0  0  0  0  0  0  0  0  0  0
   -6.2956   25.3315  -30.6544 H   0  0  0  0  0  0  0  0  0  0  0  0
   -6.8370   23.5190  -31.7110 C   0  0  0  0  0  0  0  0  0  0  0  0
   -7.8949   23.8048  -31.8069 H   0  0  0  0  0  0  0  0  0  0  0  0
   -7.5180   19.0920  -32.2980 C   0  0  0  0  0  0  0  0  0  0  0  0
   -8.1491   19.3920  -31.4485 H   0  0  0  0  0  0  0  0  0  0  0  0
   -7.2420   17.7430  -32.5260 C   0  0  0  0  0  0  0  0  0  0  0  0
   -7.6486   16.9781  -31.8481 H   0  0  0  0  0  0  0  0  0  0  0  0
   -6.4470   17.3590  -33.6180 C   0  0  0  0  0  0  0  0  0  0  0  0
   -6.0990   15.9110  -33.8470 C   0  0  0  0  0  0  0  0  0  0  0  0
   -5.6530   15.3250  -32.6750 F   0  0  0  0  0  0  0  0  0  0  0  0
   -7.2210   15.2360  -34.2900 F   0  0  0  0  0  0  0  0  0  0  0  0
   -5.0980   15.7950  -34.7970 F   0  0  0  0  0  0  0  0  0  0  0  0
  1  2  1  0
  2  3  2  0
  3  4  1  0
  4  5  1  0
  5  6  1  0
  6  7  2  0
  7  8  1  0
  7  9  1  0
  9 10  1  0
  9 11  2  0
 11 12  1  0
 12 13  2  0
 13 14  1  0
 14 15  1  0
 15 16  1  0
 16 17  1  0
 16 18  1  0
 16 19  1  0
 15 20  2  0
 20 21  1  0
 20 22  1  0
 22 23  1  0
 23 24  1  0
 23 25  1  0
 23 26  1  0
 22 27  2  0
 27 28  1  0
 11 29  1  0
 29 30  1  0
 29 31  2  0
 31 32  1  0
  4 33  2  0
 33 34  1  0
 33 35  1  0
 35 36  1  0
 35 37  2  0
 37 38  1  0
 38 39  1  0
 38 40  1  0
 38 41  1  0
 37  2  1  0
 31  6  1  0
 27 13  1  0
M  CHG  1  14  -1
M  END
>  <UniqueID>  (21) 
19

>  <SMILES>  (21) 
Cc1cc(C)[n-]/c(=N/c2ccc(Oc3ccc(C(F)(F)F)cn3)cc2)c1

>  <Energy>  (21) 
57.55624514359192

>  <Genealogy>  (21) 
Cc1cc(C)[n-]c(=Nc2ccc(Oc3ccc(C(F)(F)F)cn3)cc2)c1 (protonated)
Cc1cc(C)[n-]/c(=N/c2ccc(Oc3ccc(C(F)(F)F)cn3)cc2)c1 (cis-trans isomerization)
Cc1cc(C)[n-]/c(=N/c2ccc(Oc3ccc(C(F)(F)F)cn3)cc2)c1 (3D coordinates assigned)
Cc1cc(C)[n-]/c(=N/c2ccc(Oc3ccc(C(F)(F)F)cn3)cc2)c1 (optimized conformer: 57.55624514359192 kcal/mol)

>  <smiles>  (21) 
Cc1cc(C)[nH]c(=Nc2ccc(Oc3ccc(C(F)(F)F)cn3)cc2)c1

>  <score_type>  (21) 
oracle

>  <origin>  (21) 
adgpu

>  <m_score__min__energy>  (21) 
-9.9800000000000004

>  <m_primary>  (21) 
energy

$$$$
21:0
     RDKit          3D

 41 44  0  0  0  0  0  0  0  0999 V2000
   -4.8180   19.1190  -33.0860 F   0  0  0  0  0  0  0  0  0  0  0  0
   -6.0060   18.6560  -33.6200 C   0  0  0  0  0  0  0  0  0  0  0  0
   -6.0460   17.2770  -33.5200 F   0  0  0  0  0  0  0  0  0  0  0  0
   -6.0680   19.0120  -34.9550 F   0  0  0  0  0  0  0  0  0  0  0  0
   -7.1620   19.2470  -32.8720 C   0  0  0  0  0  0  0  0  0  0  0  0
   -8.2930   18.5730  -32.5760 N   0  0  0  0  0  0  0  0  0  0  0  0
   -9.0900   19.4110  -31.9270 N   0  0  0  0  0  0  0  0  0  0  0  0
   -8.4340   20.5840  -31.8480 C   0  0  0  0  0  0  0  0  0  0  0  0
   -7.2140   20.5070  -32.4020 N   0  0  0  0  0  0  0  0  0  0  0  0
   -6.2770   21.6160  -32.5750 C   0  0  0  0  0  0  0  0  0  0  0  0
   -6.6050   22.7610  -31.5870 C   0  0  1  0  0  0  0  0  0  0  0  0
   -5.7790   24.0130  -31.9430 C   0  0  0  0  0  0  0  0  0  0  0  0
   -4.5960   24.1020  -31.1450 O   0  0  0  0  0  0  0  0  0  0  0  0
   -4.1270   23.1440  -30.2300 C   0  0  0  0  0  0  0  0  0  0  0  0
   -3.4750   22.0160  -30.7430 C   0  0  0  0  0  0  0  0  0  0  0  0
   -2.9860   21.0230  -29.8900 C   0  0  0  0  0  0  0  0  0  0  0  0
   -3.1400   21.1420  -28.5000 C   0  0  0  0  0  0  0  0  0  0  0  0
   -2.6230   20.0920  -27.5950 C   0  0  0  0  0  0  0  0  0  0  0  0
   -1.4330   19.4730  -27.7640 N   0  0  0  0  0  0  0  0  0  0  0  0
   -1.4020   18.6190  -26.7220 C   0  0  0  0  0  0  0  0  0  0  0  0
   -2.5100   18.7200  -25.9720 N   0  0  0  0  0  0  0  0  0  0  0  0
   -3.2860   19.6420  -26.5100 N   0  0  0  0  0  0  0  0  0  0  0  0
   -3.7910   22.2720  -27.9800 C   0  0  0  0  0  0  0  0  0  0  0  0
   -4.2800   23.2660  -28.8340 C   0  0  0  0  0  0  0  0  0  0  0  0
   -8.1270   23.0420  -31.5800 C   0  0  0  0  0  0  0  0  0  0  0  0
   -8.9320   21.8050  -31.1450 C   0  0  0  0  0  0  0  0  0  0  0  0
   -5.2538   21.2581  -32.3877 H   0  0  0  0  0  0  0  0  0  0  0  0
   -6.3628   21.9975  -33.6032 H   0  0  0  0  0  0  0  0  0  0  0  0
   -6.3268   22.4613  -30.5658 H   0  0  0  0  0  0  0  0  0  0  0  0
   -5.4922   23.9628  -33.0038 H   0  0  0  0  0  0  0  0  0  0  0  0
   -6.3963   24.9021  -31.7471 H   0  0  0  0  0  0  0  0  0  0  0  0
   -3.3462   21.9103  -31.8303 H   0  0  0  0  0  0  0  0  0  0  0  0
   -2.4774   20.1429  -30.3104 H   0  0  0  0  0  0  0  0  0  0  0  0
   -0.5732   17.9267  -26.5128 H   0  0  0  0  0  0  0  0  0  0  0  0
   -2.7380   18.1760  -25.1110 H   0  0  0  0  0  0  0  0  0  0  0  0
   -3.9175   22.3765  -26.8923 H   0  0  0  0  0  0  0  0  0  0  0  0
   -4.7866   24.1475  -28.4141 H   0  0  0  0  0  0  0  0  0  0  0  0
   -8.3342   23.8660  -30.8813 H   0  0  0  0  0  0  0  0  0  0  0  0
   -8.4315   23.3069  -32.6033 H   0  0  0  0  0  0  0  0  0  0  0  0
   -8.8249   21.6667  -30.0590 H   0  0  0  0  0  0  0  0  0  0  0  0
   -9.9898   21.9590  -31.4046 H   0  0  0  0  0  0  0  0  0  0  0  0
  1  2  1  0
  2  3  1  0
  2  4  1  0
  2  5  1  0
  5  6  2  0
  6  7  1  0
  7  8  2  0
  8  9  1  0
  9 10  1  0
 10 11  1  0
 11 12  1  0
 12 13  1  0
 13 14  1  0
 14 15  2  0
 15 16  1  0
 16 17  2  0
 17 18  1  0
 18 19  1  0
 19 20  2  0
 20 21  1  0
 21 22  1  0
 17 23  1  0
 23 24  2  0
 11 25  1  0
 25 26  1  0
  9  5  1  0
 24 14  1  0
 26  8  1  0
 22 18  2  0
 10 27  1  0
 10 28  1  0
 11 29  1  1
 12 30  1  0
 12 31  1  0
 15 32  1  0
 16 33  1  0
 20 34  1  0
 21 35  1  0
 23 36  1  0
 24 37  1  0
 25 38  1  0
 25 39  1  0
 26 40  1  0
 26 41  1  0
M  END
>  <UniqueID>  (22) 
20

>  <SMILES>  (22) 
FC(F)(F)c1nnc2n1C[C@@H](COc1ccc(-c3nc[nH]n3)cc1)CC2

>  <Energy>  (22) 
111.48738088306894

>  <Genealogy>  (22) 
FC(F)(F)c1nnc2n1C[C@@H](COc1ccc(-c3nc[nH]n3)cc1)CC2 (chirality)
FC(F)(F)c1nnc2n1C[C@@H](COc1ccc(-c3nc[nH]n3)cc1)CC2 (3D coordinates assigned)
FC(F)(F)c1nnc2n1C[C@@H](COc1ccc(-c3nc[nH]n3)cc1)CC2 (nonaromatic ring conformer: 111.48738088306894 kcal/mol)

>  <smiles>  (22) 
FC(F)(F)c1nnc2n1CC(COc1ccc(-c3nc[nH]n3)cc1)CC2

>  <score_type>  (22) 
oracle

>  <origin>  (22) 
adgpu

>  <m_score__min__energy>  (22) 
-8.2200000000000006

>  <m_primary>  (22) 
energy

$$$$
22:0
     RDKit          3D

 40 42  0  0  0  0  0  0  0  0999 V2000
   -4.4230   14.5440  -35.2630 H   0  0  0  0  0  0  0  0  0  0  0  0
   -4.4810   15.5440  -34.9640 N   0  0  0  0  0  0  0  0  0  0  0  0
   -5.7230   15.6420  -33.7660 S   0  0  0  0  0  0  0  0  0  0  0  0
   -5.2740   14.9420  -32.5150 O   0  0  0  0  0  0  0  0  0  0  0  0
   -6.9600   14.9730  -34.2970 O   0  0  0  0  0  0  0  0  0  0  0  0
   -6.0630   17.3300  -33.4020 C   0  0  0  0  0  0  0  0  0  0  0  0
   -7.2320   17.6850  -32.7150 C   0  0  0  0  0  0  0  0  0  0  0  0
   -7.9447   16.9057  -32.4073 H   0  0  0  0  0  0  0  0  0  0  0  0
   -7.4960   19.0270  -32.4190 C   0  0  0  0  0  0  0  0  0  0  0  0
   -8.4239   19.2998  -31.8950 H   0  0  0  0  0  0  0  0  0  0  0  0
   -6.5790   20.0300  -32.7890 C   0  0  0  0  0  0  0  0  0  0  0  0
   -6.8180   21.4230  -32.5300 N   0  0  0  0  0  0  0  0  0  0  0  0
   -6.1930   22.1630  -31.6630 C   0  0  0  0  0  0  0  0  0  0  0  0
   -6.5100   23.4570  -31.4560 N   0  0  0  0  0  0  0  0  0  0  0  0
   -5.6250   23.8430  -30.5160 C   0  0  0  0  0  0  0  0  0  0  0  0
   -5.5622   24.8480  -30.0732 H   0  0  0  0  0  0  0  0  0  0  0  0
   -4.8080   22.7730  -30.1970 C   0  0  0  0  0  0  0  0  0  0  0  0
   -3.6980   22.7290  -29.2190 C   0  0  0  0  0  0  0  0  0  0  0  0
   -3.4920   21.5660  -28.4640 C   0  0  0  0  0  0  0  0  0  0  0  0
   -4.1574   20.7009  -28.6011 H   0  0  0  0  0  0  0  0  0  0  0  0
   -2.4490   21.4980  -27.5400 C   0  0  0  0  0  0  0  0  0  0  0  0
   -2.3029   20.5800  -26.9519 H   0  0  0  0  0  0  0  0  0  0  0  0
   -1.5840   22.5870  -27.3520 C   0  0  0  0  0  0  0  0  0  0  0  0
   -0.4760   22.4680  -26.3380 C   0  0  0  0  0  0  0  0  0  0  0  0
   -0.9003   22.5136  -25.3242 H   0  0  0  0  0  0  0  0  0  0  0  0
    0.0447   21.5088  -26.4748 H   0  0  0  0  0  0  0  0  0  0  0  0
    0.2366   23.2948  -26.4748 H   0  0  0  0  0  0  0  0  0  0  0  0
   -1.7960   23.7750  -28.0930 C   0  0  0  0  0  0  0  0  0  0  0  0
   -0.7570   25.1970  -27.8900 S   0  0  0  0  0  0  0  0  0  0  0  0
   -0.8670   25.7160  -26.4840 O   0  0  0  0  0  0  0  0  0  0  0  0
    0.6690   24.8180  -28.1760 O   0  0  0  0  0  0  0  0  0  0  0  0
   -1.2240   26.4610  -28.9750 N   0  0  0  0  0  0  0  0  0  0  0  0
   -1.2290   26.0520  -29.9360 H   0  0  0  0  0  0  0  0  0  0  0  0
   -2.8430   23.8280  -29.0280 C   0  0  0  0  0  0  0  0  0  0  0  0
   -2.9959   24.7429  -29.6192 H   0  0  0  0  0  0  0  0  0  0  0  0
   -5.1860   21.7520  -30.9280 O   0  0  0  0  0  0  0  0  0  0  0  0
   -5.4250   19.6690  -33.4950 C   0  0  0  0  0  0  0  0  0  0  0  0
   -4.7199   20.4479  -33.8208 H   0  0  0  0  0  0  0  0  0  0  0  0
   -5.1600   18.3280  -33.7900 C   0  0  0  0  0  0  0  0  0  0  0  0
   -4.2400   18.0562  -34.3282 H   0  0  0  0  0  0  0  0  0  0  0  0
  1  2  1  0
  2  3  1  0
  3  4  2  0
  3  5  2  0
  3  6  1  0
  6  7  2  0
  7  8  1  0
  7  9  1  0
  9 10  1  0
  9 11  2  0
 11 12  1  0
 12 13  2  0
 13 14  1  0
 14 15  1  0
 15 16  1  0
 15 17  2  0
 17 18  1  0
 18 19  2  0
 19 20  1  0
 19 21  1  0
 21 22  1  0
 21 23  2  0
 23 24  1  0
 24 25  1  0
 24 26  1  0
 24 27  1  0
 23 28  1  0
 28 29  1  0
 29 30  2  0
 29 31  2  0
 29 32  1  0
 32 33  1  0
 28 34  2  0
 34 35  1  0
 17 36  1  0
 11 37  1  0
 37 38  1  0
 37 39  2  0
 39 40  1  0
 39  6  1  0
 36 13  1  0
 34 18  1  0
M  CHG  3   2  -1  14  -1  32  -1
M  END
>  <UniqueID>  (23) 
21

>  <SMILES>  (23) 
Cc1ccc(-c2c[n-]/c(=N/c3ccc(S([NH-])(=O)=O)cc3)o2)cc1S([NH-])(=O)=O

>  <Energy>  (23) 
79.44176262602815

>  <Genealogy>  (23) 
Cc1ccc(-c2c[n-]c(=Nc3ccc(S([NH-])(=O)=O)cc3)o2)cc1S([NH-])(=O)=O (protonated)
Cc1ccc(-c2c[n-]/c(=N/c3ccc(S([NH-])(=O)=O)cc3)o2)cc1S([NH-])(=O)=O (cis-trans isomerization)
Cc1ccc(-c2c[n-]/c(=N/c3ccc(S([NH-])(=O)=O)cc3)o2)cc1S([NH-])(=O)=O (3D coordinates assigned)
Cc1ccc(-c2c[n-]/c(=N/c3ccc(S([NH-])(=O)=O)cc3)o2)cc1S([NH-])(=O)=O (optimized conformer: 79.44176262602815 kcal/mol)

>  <smiles>  (23) 
Cc1ccc(-c2c[nH]c(=Nc3ccc(S(N)(=O)=O)cc3)o2)cc1S(N)(=O)=O

>  <score_type>  (23) 
oracle

>  <origin>  (23) 
adgpu

>  <m_score__min__energy>  (23) 
-11.289999999999999

>  <m_primary>  (23) 
energy

$$$$
23:0
     RDKit          3D

 33 35  0  0  0  0  0  0  0  0999 V2000
   -1.9710   23.2190  -29.1130 H   0  0  0  0  0  0  0  0  0  0  0  0
   -2.2990   24.1090  -29.5510 N   0  0  0  0  0  0  0  0  0  0  0  0
   -3.4440   24.1710  -30.1470 C   0  0  0  0  0  0  0  0  0  0  0  0
   -3.9190   25.2850  -30.7280 N   0  0  0  0  0  0  0  0  0  0  0  0
   -5.1020   24.9520  -31.2220 N   0  0  0  0  0  0  0  0  0  0  0  0
   -5.2950   23.6500  -30.9190 C   0  0  0  0  0  0  0  0  0  0  0  0
   -6.4960   22.8750  -31.2860 C   0  0  0  0  0  0  0  0  0  0  0  0
   -7.7670   23.4740  -31.2700 C   0  0  0  0  0  0  0  0  0  0  0  0
   -7.8704   24.5317  -30.9862 H   0  0  0  0  0  0  0  0  0  0  0  0
   -8.9000   22.7320  -31.6130 C   0  0  0  0  0  0  0  0  0  0  0  0
   -9.8915   23.2083  -31.6027 H   0  0  0  0  0  0  0  0  0  0  0  0
   -8.7770   21.3870  -31.9690 C   0  0  0  0  0  0  0  0  0  0  0  0
   -9.6717   20.8065  -32.2381 H   0  0  0  0  0  0  0  0  0  0  0  0
   -7.5170   20.7760  -31.9840 C   0  0  0  0  0  0  0  0  0  0  0  0
   -7.3580   19.0760  -32.4150 S   0  0  0  0  0  0  0  0  0  0  0  0
   -8.7330   18.4950  -32.5990 O   0  0  0  0  0  0  0  0  0  0  0  0
   -6.6470   18.3180  -31.3280 O   0  0  0  0  0  0  0  0  0  0  0  0
   -6.4670   18.9120  -33.8960 N   0  0  0  0  0  0  0  0  0  0  0  0
   -7.0010   19.0420  -34.7840 H   0  0  0  0  0  0  0  0  0  0  0  0
   -5.0410   18.7270  -33.9580 C   0  0  0  0  0  0  0  0  0  0  0  0
   -4.1990   19.7230  -33.4360 C   0  0  0  0  0  0  0  0  0  0  0  0
   -4.6359   20.6310  -32.9948 H   0  0  0  0  0  0  0  0  0  0  0  0
   -2.8100   19.5690  -33.4730 C   0  0  0  0  0  0  0  0  0  0  0  0
   -2.1594   20.3533  -33.0588 H   0  0  0  0  0  0  0  0  0  0  0  0
   -2.2470   18.4210  -34.0350 C   0  0  0  0  0  0  0  0  0  0  0  0
   -0.9000   18.2730  -34.0690 F   0  0  0  0  0  0  0  0  0  0  0  0
   -3.0740   17.4270  -34.5640 C   0  0  0  0  0  0  0  0  0  0  0  0
   -2.6303   16.5241  -35.0088 H   0  0  0  0  0  0  0  0  0  0  0  0
   -4.4630   17.5760  -34.5300 C   0  0  0  0  0  0  0  0  0  0  0  0
   -5.1082   16.7912  -34.9517 H   0  0  0  0  0  0  0  0  0  0  0  0
   -6.3780   21.5230  -31.6500 C   0  0  0  0  0  0  0  0  0  0  0  0
   -5.3863   21.0476  -31.6731 H   0  0  0  0  0  0  0  0  0  0  0  0
   -4.2710   23.1620  -30.2550 O   0  0  0  0  0  0  0  0  0  0  0  0
  1  2  1  0
  2  3  2  0
  3  4  1  0
  4  5  1  0
  5  6  2  0
  6  7  1  0
  7  8  2  0
  8  9  1  0
  8 10  1  0
 10 11  1  0
 10 12  2  0
 12 13  1  0
 12 14  1  0
 14 15  1  0
 15 16  2  0
 15 17  2  0
 15 18  1  0
 18 19  1  0
 18 20  1  0
 20 21  2  0
 21 22  1  0
 21 23  1  0
 23 24  1  0
 23 25  2  0
 25 26  1  0
 25 27  1  0
 27 28  1  0
 27 29  2  0
 29 30  1  0
 14 31  2  0
 31 32  1  0
  6 33  1  0
 33  3  1  0
 31  7  1  0
 29 20  1  0
M  CHG  1   4  -1
M  END
>  <UniqueID>  (24) 
22

>  <SMILES>  (24) 
[H]/N=c1/[n-]nc(-c2cccc(S(=O)(=O)Nc3ccc(F)cc3)c2)o1

>  <Energy>  (24) 
73.29203016923164

>  <Genealogy>  (24) 
N=c1[n-]nc(-c2cccc(S(=O)(=O)Nc3ccc(F)cc3)c2)o1 (protonated)
[H]/N=c1/[n-]nc(-c2cccc(S(=O)(=O)Nc3ccc(F)cc3)c2)o1 (cis-trans isomerization)
[H]/N=c1/[n-]nc(-c2cccc(S(=O)(=O)Nc3ccc(F)cc3)c2)o1 (3D coordinates assigned)
[H]/N=c1/[n-]nc(-c2cccc(S(=O)(=O)Nc3ccc(F)cc3)c2)o1 (optimized conformer: 73.29203016923164 kcal/mol)

>  <smiles>  (24) 
N=c1[nH]nc(-c2cccc(S(=O)(=O)Nc3ccc(F)cc3)c2)o1

>  <score_type>  (24) 
oracle

>  <origin>  (24) 
adgpu

>  <m_score__min__energy>  (24) 
-9.8900000000000006

>  <m_primary>  (24) 
energy

$$$$
24:0
     RDKit          3D

 35 38  0  0  1  0  0  0  0  0999 V2000
   -9.3810   21.9070  -31.5540 Br  0  0  0  0  0  0  0  0  0  0  0  0
   -7.4980   21.8510  -31.8680 C   0  0  0  0  0  0  0  0  0  0  0  0
   -6.9370   20.7390  -32.5040 C   0  0  0  0  0  0  0  0  0  0  0  0
   -5.5810   20.6630  -32.7480 C   0  0  0  0  0  0  0  0  0  0  0  0
   -4.7320   21.6930  -32.3650 C   0  0  0  0  0  0  0  0  0  0  0  0
   -5.3120   22.7780  -31.7400 C   0  0  0  0  0  0  0  0  0  0  0  0
   -4.5110   23.8990  -31.3060 N   0  0  0  0  0  0  0  0  0  0  0  0
   -3.8800   23.8100  -30.1900 C   0  0  0  0  0  0  0  0  0  0  0  0
   -3.9870   22.6610  -29.4540 C   0  0  0  0  0  0  0  0  0  0  0  0
   -3.3400   22.4780  -28.2390 C   0  0  0  0  0  0  0  0  0  0  0  0
   -3.4880   21.2710  -27.5230 N   0  0  0  0  0  0  0  0  0  0  0  0
   -2.5250   20.1890  -27.5430 C   0  0  0  0  0  0  0  0  0  0  0  0
   -2.6760   18.9940  -26.6830 C   0  0  0  0  0  0  0  0  0  0  0  0
   -1.6030   20.0020  -26.3520 C   0  0  0  0  0  0  0  0  0  0  0  0
   -2.5880   23.5000  -27.8060 N   0  0  0  0  0  0  0  0  0  0  0  0
   -1.8600   23.6740  -26.7390 N   0  0  0  0  0  0  0  0  0  0  0  0
   -1.2800   24.8870  -26.7430 C   0  0  0  0  0  0  0  0  0  0  0  0
   -1.6630   25.5390  -27.8950 C   0  0  0  0  0  0  0  0  0  0  0  0
   -2.4960   24.6220  -28.5460 C   0  0  0  0  0  0  0  0  0  0  0  0
   -3.1200   24.7960  -29.7180 N   0  0  0  0  0  0  0  0  0  0  0  0
   -6.6600   22.8750  -31.4870 C   0  0  0  0  0  0  0  0  0  0  0  0
   -7.5888   19.9095  -32.8155 H   0  0  0  0  0  0  0  0  0  0  0  0
   -5.1679   19.7766  -33.2516 H   0  0  0  0  0  0  0  0  0  0  0  0
   -3.6488   21.6462  -32.5510 H   0  0  0  0  0  0  0  0  0  0  0  0
   -4.6142   21.8452  -29.8427 H   0  0  0  0  0  0  0  0  0  0  0  0
   -4.3370   21.1250  -26.9340 H   0  0  0  0  0  0  0  0  0  0  0  0
   -2.3999   20.3333  -28.6263 H   0  0  0  0  0  0  0  0  0  0  0  0
   -3.5561   18.8974  -26.0302 H   0  0  0  0  0  0  0  0  0  0  0  0
   -2.6862   17.9091  -26.8642 H   0  0  0  0  0  0  0  0  0  0  0  0
   -1.7034   20.6475  -25.4670 H   0  0  0  0  0  0  0  0  0  0  0  0
   -0.5143   19.9695  -26.1979 H   0  0  0  0  0  0  0  0  0  0  0  0
   -0.6161   25.2886  -25.9633 H   0  0  0  0  0  0  0  0  0  0  0  0
   -1.3791   26.5486  -28.2268 H   0  0  0  0  0  0  0  0  0  0  0  0
   -3.0310   25.6720  -30.2670 H   0  0  0  0  0  0  0  0  0  0  0  0
   -7.0663   23.7647  -30.9836 H   0  0  0  0  0  0  0  0  0  0  0  0
  1  2  1  0
  2  3  2  0
  3  4  1  0
  4  5  2  0
  5  6  1  0
  6  7  1  0
  7  8  2  0
  8  9  1  0
  9 10  2  0
 10 11  1  0
 11 12  1  0
 12 13  1  0
 13 14  1  0
 10 15  1  0
 15 16  1  0
 16 17  2  0
 17 18  1  0
 18 19  2  0
 19 20  1  0
  6 21  2  0
 21  2  1  0
 20  8  1  0
 14 12  1  0
 19 15  1  0
  3 22  1  0
  4 23  1  0
  5 24  1  0
  9 25  1  0
 11 26  1  0
 12 27  1  0
 13 28  1  0
 13 29  1  0
 14 30  1  0
 14 31  1  0
 17 32  1  0
 18 33  1  0
 20 34  1  0
 21 35  1  0
M  END
>  <smiles>  (25) 
Brc1cccc(N=c2cc(NC3CC3)n3nccc3[nH]2)c1

>  <score_type>  (25) 
oracle

>  <origin>  (25) 
adgpu

>  <m_score__min__energy>  (25) 
-8.4700000000000006

>  <m_primary>  (25) 
energy

$$$$
25:0
     RDKit          3D

 42 44  0  0  0  0  0  0  0  0999 V2000
   -3.1880   23.4060  -28.6050 C   0  0  0  0  0  0  0  0  0  0  0  0
   -2.9570   24.5690  -29.5200 C   0  0  0  0  0  0  0  0  0  0  0  0
   -1.9390   25.2890  -29.3440 O   0  0  0  0  0  0  0  0  0  0  0  0
   -3.8350   24.8650  -30.6130 N   0  0  0  0  0  0  0  0  0  0  0  0
   -5.0130   24.1350  -30.9850 C   0  0  0  0  0  0  0  0  0  0  0  0
   -4.8970   23.0810  -31.8980 C   0  0  0  0  0  0  0  0  0  0  0  0
   -6.0270   22.3650  -32.3040 C   0  0  0  0  0  0  0  0  0  0  0  0
   -7.2990   22.7130  -31.8130 C   0  0  0  0  0  0  0  0  0  0  0  0
   -8.4860   22.0110  -32.2030 N   0  0  0  0  0  0  0  0  0  0  0  0
   -8.7260   20.2990  -32.0660 S   0  0  0  0  0  0  0  0  0  0  0  0
   -9.0330   19.9350  -30.6400 O   0  0  0  0  0  0  0  0  0  0  0  0
   -9.8650   19.8890  -32.9570 O   0  0  0  0  0  0  0  0  0  0  0  0
   -7.2550   19.4710  -32.5640 C   0  0  0  0  0  0  0  0  0  0  0  0
   -6.7250   19.6950  -33.8400 C   0  0  0  0  0  0  0  0  0  0  0  0
   -5.5540   19.0450  -34.2400 C   0  0  0  0  0  0  0  0  0  0  0  0
   -4.8880   18.1780  -33.3640 C   0  0  0  0  0  0  0  0  0  0  0  0
   -3.7000   17.5170  -33.8240 N   0  0  0  0  0  0  0  0  0  0  0  0
   -2.3610   18.0240  -33.7640 C   0  0  0  0  0  0  0  0  0  0  0  0
   -1.3820   17.3010  -34.0890 O   0  0  0  0  0  0  0  0  0  0  0  0
   -2.1170   19.3840  -33.2670 C   0  0  0  0  0  0  0  0  0  0  0  0
   -1.3750   19.7210  -32.1520 C   0  0  0  0  0  0  0  0  0  0  0  0
   -1.4250   21.0960  -32.0770 C   0  0  0  0  0  0  0  0  0  0  0  0
   -2.1930   21.5110  -33.1460 C   0  0  0  0  0  0  0  0  0  0  0  0
   -2.5910   20.4680  -33.8370 O   0  0  0  0  0  0  0  0  0  0  0  0
   -5.4310   17.9410  -32.0890 C   0  0  0  0  0  0  0  0  0  0  0  0
   -6.6030   18.5910  -31.6890 C   0  0  0  0  0  0  0  0  0  0  0  0
   -7.4180   23.7870  -30.9230 C   0  0  0  0  0  0  0  0  0  0  0  0
   -6.2850   24.5000  -30.5170 C   0  0  0  0  0  0  0  0  0  0  0  0
   -3.1211   23.7427  -27.5599 H   0  0  0  0  0  0  0  0  0  0  0  0
   -4.1872   22.9855  -28.7915 H   0  0  0  0  0  0  0  0  0  0  0  0
   -2.4253   22.6356  -28.7915 H   0  0  0  0  0  0  0  0  0  0  0  0
   -3.9085   22.8136  -32.2996 H   0  0  0  0  0  0  0  0  0  0  0  0
   -5.9215   21.5274  -33.0092 H   0  0  0  0  0  0  0  0  0  0  0  0
   -7.2319   20.3851  -34.5305 H   0  0  0  0  0  0  0  0  0  0  0  0
   -5.1525   19.2154  -35.2498 H   0  0  0  0  0  0  0  0  0  0  0  0
   -0.8536   19.0357  -31.4675 H   0  0  0  0  0  0  0  0  0  0  0  0
   -0.9488   21.7342  -31.3181 H   0  0  0  0  0  0  0  0  0  0  0  0
   -2.4351   22.5575  -33.3832 H   0  0  0  0  0  0  0  0  0  0  0  0
   -4.9317   17.2411  -31.4028 H   0  0  0  0  0  0  0  0  0  0  0  0
   -7.0144   18.4112  -30.6848 H   0  0  0  0  0  0  0  0  0  0  0  0
   -8.4091   24.0722  -30.5404 H   0  0  0  0  0  0  0  0  0  0  0  0
   -6.3914   25.3507  -29.8278 H   0  0  0  0  0  0  0  0  0  0  0  0
  1  2  1  0
  2  3  2  0
  2  4  1  0
  4  5  1  0
  5  6  2  0
  6  7  1  0
  7  8  2  0
  8  9  1  0
  9 10  1  0
 10 11  2  0
 10 12  2  0
 10 13  1  0
 13 14  2  0
 14 15  1  0
 15 16  2  0
 16 17  1  0
 17 18  1  0
 18 19  2  0
 18 20  1  0
 20 21  2  0
 21 22  1  0
 22 23  2  0
 23 24  1  0
 16 25  1  0
 25 26  2  0
  8 27  1  0
 27 28  2  0
 28  5  1  0
 26 13  1  0
 24 20  1  0
  1 29  1  0
  1 30  1  0
  1 31  1  0
  6 32  1  0
  7 33  1  0
 14 34  1  0
 15 35  1  0
 21 36  1  0
 22 37  1  0
 23 38  1  0
 25 39  1  0
 26 40  1  0
 27 41  1  0
 28 42  1  0
M  CHG  3   4  -1   9  -1  17  -1
M  END
>  <UniqueID>  (26) 
23

>  <SMILES>  (26) 
CC(=O)[N-]c1ccc([N-]S(=O)(=O)c2ccc([N-]C(=O)c3ccco3)cc2)cc1

>  <Energy>  (26) 
80.1532266130367

>  <Genealogy>  (26) 
CC(=O)[N-]c1ccc([N-]S(=O)(=O)c2ccc([N-]C(=O)c3ccco3)cc2)cc1 (protonated)
CC(=O)[N-]c1ccc([N-]S(=O)(=O)c2ccc([N-]C(=O)c3ccco3)cc2)cc1 (3D coordinates assigned)
CC(=O)[N-]c1ccc([N-]S(=O)(=O)c2ccc([N-]C(=O)c3ccco3)cc2)cc1 (optimized conformer: 80.1532266130367 kcal/mol)

>  <smiles>  (26) 
CC(=O)Nc1ccc(NS(=O)(=O)c2ccc(NC(=O)c3ccco3)cc2)cc1

>  <score_type>  (26) 
oracle

>  <origin>  (26) 
adgpu

>  <m_score__min__energy>  (26) 
-10.23

>  <m_primary>  (26) 
energy

$$$$
26:0
     RDKit          3D

 34 36  0  0  0  0  0  0  0  0999 V2000
   -0.6430   24.2490  -28.3190 N   0  0  0  0  0  0  0  0  0  0  0  0
   -1.7500   23.8320  -28.8190 C   0  0  0  0  0  0  0  0  0  0  0  0
   -2.2420   22.5970  -28.6220 N   0  0  0  0  0  0  0  0  0  0  0  0
   -3.4150   22.1820  -29.1630 C   0  0  0  0  0  0  0  0  0  0  0  0
   -4.1130   23.0950  -29.9500 C   0  0  0  0  0  0  0  0  0  0  0  0
   -5.3540   22.6180  -30.5380 C   0  0  0  0  0  0  0  0  0  0  0  0
   -6.5510   23.2990  -30.4650 C   0  0  0  0  0  0  0  0  0  0  0  0
   -7.7260   22.8240  -31.0200 C   0  0  0  0  0  0  0  0  0  0  0  0
   -7.6780   21.6080  -31.6750 C   0  0  0  0  0  0  0  0  0  0  0  0
   -8.8430   21.1520  -32.2160 F   0  0  0  0  0  0  0  0  0  0  0  0
   -6.4960   20.8950  -31.7700 C   0  0  0  0  0  0  0  0  0  0  0  0
   -6.5490   19.6260  -32.4790 C   0  0  0  0  0  0  0  0  0  0  0  0
   -5.6340   19.4550  -33.5130 C   0  0  0  0  0  0  0  0  0  0  0  0
   -4.7380   20.4210  -33.8430 F   0  0  0  0  0  0  0  0  0  0  0  0
   -5.5930   18.2850  -34.2580 C   0  0  0  0  0  0  0  0  0  0  0  0
   -6.4770   17.2840  -33.9610 C   0  0  0  0  0  0  0  0  0  0  0  0
   -7.3850   17.4580  -32.9330 C   0  0  0  0  0  0  0  0  0  0  0  0
   -7.4380   18.6190  -32.1790 C   0  0  0  0  0  0  0  0  0  0  0  0
   -8.3130   18.8090  -31.1740 F   0  0  0  0  0  0  0  0  0  0  0  0
   -5.3460   21.4030  -31.2030 C   0  0  0  0  0  0  0  0  0  0  0  0
   -3.6070   24.3600  -30.1500 C   0  0  0  0  0  0  0  0  0  0  0  0
   -4.2120   25.2490  -30.8430 N   0  0  0  0  0  0  0  0  0  0  0  0
   -2.4270   24.7340  -29.5870 N   0  0  0  0  0  0  0  0  0  0  0  0
   -0.0720   23.6300  -27.7270 H   0  0  0  0  0  0  0  0  0  0  0  0
   -1.6890   21.9400  -28.0250 H   0  0  0  0  0  0  0  0  0  0  0  0
   -3.7990   21.1663  -28.9873 H   0  0  0  0  0  0  0  0  0  0  0  0
   -6.5726   24.2657  -29.9406 H   0  0  0  0  0  0  0  0  0  0  0  0
   -8.6640   23.3934  -30.9427 H   0  0  0  0  0  0  0  0  0  0  0  0
   -4.8633   18.1646  -35.0722 H   0  0  0  0  0  0  0  0  0  0  0  0
   -6.4654   16.3466  -34.5365 H   0  0  0  0  0  0  0  0  0  0  0  0
   -8.0907   16.6454  -32.7056 H   0  0  0  0  0  0  0  0  0  0  0  0
   -4.4076   20.8343  -31.2801 H   0  0  0  0  0  0  0  0  0  0  0  0
   -5.1150   25.0860  -31.2980 H   0  0  0  0  0  0  0  0  0  0  0  0
   -2.0410   25.6940  -29.7390 H   0  0  0  0  0  0  0  0  0  0  0  0
  1  2  2  3
  2  3  1  0
  3  4  1  0
  4  5  2  0
  5  6  1  0
  6  7  2  0
  7  8  1  0
  8  9  2  0
  9 10  1  0
  9 11  1  0
 11 12  1  0
 12 13  2  0
 13 14  1  0
 13 15  1  0
 15 16  2  0
 16 17  1  0
 17 18  2  0
 18 19  1  0
 11 20  2  0
  5 21  1  0
 21 22  2  3
 21 23  1  0
 23  2  1  0
 20  6  1  0
 18 12  1  0
  1 24  1  0
  3 25  1  0
  4 26  1  0
  7 27  1  0
  8 28  1  0
 15 29  1  0
 16 30  1  0
 17 31  1  0
 20 32  1  0
 22 33  1  0
 23 34  1  0
M  END
>  <smiles>  (27) 
N=c1[nH]cc(-c2ccc(F)c(-c3c(F)cccc3F)c2)c(=N)[nH]1

>  <score_type>  (27) 
oracle

>  <origin>  (27) 
adgpu

>  <m_score__min__energy>  (27) 
-8.4499999999999993

>  <m_primary>  (27) 
energy

$$$$
27:0
     RDKit          3D

 60 64  0  0  0  0  0  0  0  0999 V2000
   -6.6072   26.2401  -31.0119 H   0  0  0  0  0  0  0  0  0  0  0  0
   -6.0890   25.2930  -30.8010 C   0  0  0  0  0  0  0  0  0  0  0  0
   -6.6740   24.0810  -31.1750 C   0  0  0  0  0  0  0  0  0  0  0  0
   -7.6599   24.0755  -31.6629 H   0  0  0  0  0  0  0  0  0  0  0  0
   -6.0100   22.8740  -30.9310 C   0  0  0  0  0  0  0  0  0  0  0  0
   -6.6590   21.6390  -31.2740 N   0  0  0  0  0  0  0  0  0  0  0  0
   -6.1480   20.5910  -31.8620 C   0  0  0  0  0  0  0  0  0  0  0  0
   -4.8310   20.6260  -32.3740 C   0  0  0  0  0  0  0  0  0  0  0  0
   -4.2417   21.5510  -32.2902 H   0  0  0  0  0  0  0  0  0  0  0  0
   -4.2690   19.5090  -32.9820 C   0  0  0  0  0  0  0  0  0  0  0  0
   -3.0070   19.5500  -33.4610 N   0  0  0  0  0  0  0  0  0  0  0  0
   -2.4410   18.4700  -34.0530 C   0  0  0  0  0  0  0  0  0  0  0  0
   -1.1300   18.5650  -34.5300 C   0  0  0  0  0  0  0  0  0  0  0  0
   -0.5762   19.5094  -34.4234 H   0  0  0  0  0  0  0  0  0  0  0  0
   -0.5210   17.4690  -35.1400 C   0  0  0  0  0  0  0  0  0  0  0  0
    0.5107   17.5508  -35.5127 H   0  0  0  0  0  0  0  0  0  0  0  0
   -1.2180   16.2700  -35.2780 C   0  0  0  0  0  0  0  0  0  0  0  0
   -0.7339   15.4078  -35.7599 H   0  0  0  0  0  0  0  0  0  0  0  0
   -2.5290   16.1580  -34.8070 C   0  0  0  0  0  0  0  0  0  0  0  0
   -3.0689   15.2064  -34.9212 H   0  0  0  0  0  0  0  0  0  0  0  0
   -3.1700   17.2570  -34.1840 C   0  0  0  0  0  0  0  0  0  0  0  0
   -4.4660   17.1740  -33.7120 N   0  0  0  0  0  0  0  0  0  0  0  0
   -5.2100   15.9470  -33.8460 C   0  0  0  0  0  0  0  0  0  0  0  0
   -4.6730   14.7420  -33.3700 C   0  0  0  0  0  0  0  0  0  0  0  0
   -3.6827   14.7334  -32.8912 H   0  0  0  0  0  0  0  0  0  0  0  0
   -5.3940   13.5520  -33.5030 C   0  0  0  0  0  0  0  0  0  0  0  0
   -4.9703   12.6082  -33.1292 H   0  0  0  0  0  0  0  0  0  0  0  0
   -6.6540   13.5600  -34.1110 C   0  0  0  0  0  0  0  0  0  0  0  0
   -7.5580   12.0660  -34.2780 Cl  0  0  0  0  0  0  0  0  0  0  0  0
   -7.1930   14.7610  -34.5870 C   0  0  0  0  0  0  0  0  0  0  0  0
   -8.1836   14.7676  -35.0652 H   0  0  0  0  0  0  0  0  0  0  0  0
   -6.4730   15.9520  -34.4550 C   0  0  0  0  0  0  0  0  0  0  0  0
   -6.8981   16.8949  -34.8296 H   0  0  0  0  0  0  0  0  0  0  0  0
   -5.0480   18.2670  -33.1120 C   0  0  0  0  0  0  0  0  0  0  0  0
   -6.3660   18.2680  -32.6240 C   0  0  0  0  0  0  0  0  0  0  0  0
   -6.9716   17.3546  -32.7180 H   0  0  0  0  0  0  0  0  0  0  0  0
   -6.9320   19.4040  -32.0190 C   0  0  0  0  0  0  0  0  0  0  0  0
   -8.1750   19.2810  -31.6210 N   0  0  0  0  0  0  0  0  0  0  0  0
   -9.0890   20.2350  -30.9920 C   0  0  0  0  0  0  0  0  0  0  0  0
   -8.5624   20.7563  -30.1790 H   0  0  0  0  0  0  0  0  0  0  0  0
   -9.9553   19.6843  -30.5967 H   0  0  0  0  0  0  0  0  0  0  0  0
   -9.5850   21.2630  -32.0070 C   0  0  0  0  0  0  0  0  0  0  0  0
  -10.0035   22.1305  -31.4757 H   0  0  0  0  0  0  0  0  0  0  0  0
   -8.7454   21.5897  -32.6382 H   0  0  0  0  0  0  0  0  0  0  0  0
  -10.3632   20.8091  -32.6382 H   0  0  0  0  0  0  0  0  0  0  0  0
   -4.7820   22.8850  -30.2490 C   0  0  0  0  0  0  0  0  0  0  0  0
   -4.2841   21.9341  -30.0083 H   0  0  0  0  0  0  0  0  0  0  0  0
   -4.1830   24.1000  -29.8710 C   0  0  0  0  0  0  0  0  0  0  0  0
   -2.8440   24.0950  -29.1580 C   0  0  0  0  0  0  0  0  0  0  0  0
   -2.3151   25.0199  -29.4315 H   0  0  0  0  0  0  0  0  0  0  0  0
   -1.9790   22.9130  -29.6100 C   0  0  0  0  0  0  0  0  0  0  0  0
   -1.5915   22.3835  -28.7271 H   0  0  0  0  0  0  0  0  0  0  0  0
   -2.5872   22.2232  -30.2136 H   0  0  0  0  0  0  0  0  0  0  0  0
   -1.1376   23.2841  -30.2136 H   0  0  0  0  0  0  0  0  0  0  0  0
   -3.0310   24.0920  -27.6350 C   0  0  0  0  0  0  0  0  0  0  0  0
   -2.0465   24.1078  -27.1447 H   0  0  0  0  0  0  0  0  0  0  0  0
   -3.6047   24.9811  -27.3343 H   0  0  0  0  0  0  0  0  0  0  0  0
   -3.5759   23.1850  -27.3343 H   0  0  0  0  0  0  0  0  0  0  0  0
   -4.8480   25.3060  -30.1600 C   0  0  0  0  0  0  0  0  0  0  0  0
   -4.3877   26.2649  -29.8794 H   0  0  0  0  0  0  0  0  0  0  0  0
  1  2  1  0
  2  3  2  0
  3  4  1  0
  3  5  1  0
  5  6  1  0
  6  7  2  0
  7  8  1  0
  8  9  1  0
  8 10  2  0
 10 11  1  0
 11 12  1  0
 12 13  2  0
 13 14  1  0
 13 15  1  0
 15 16  1  0
 15 17  2  0
 17 18  1  0
 17 19  1  0
 19 20  1  0
 19 21  2  0
 21 22  1  0
 22 23  1  0
 23 24  2  0
 24 25  1  0
 24 26  1  0
 26 27  1  0
 26 28  2  0
 28 29  1  0
 28 30  1  0
 30 31  1  0
 30 32  2  0
 32 33  1  0
 22 34  1  0
 34 35  2  0
 35 36  1  0
 35 37  1  0
 37 38  2  0
 38 39  1  0
 39 40  1  0
 39 41  1  0
 39 42  1  0
 42 43  1  0
 42 44  1  0
 42 45  1  0
  5 46  2  0
 46 47  1  0
 46 48  1  0
 48 49  1  0
 49 50  1  0
 49 51  1  0
 51 52  1  0
 51 53  1  0
 51 54  1  0
 49 55  1  0
 55 56  1  0
 55 57  1  0
 55 58  1  0
 48 59  2  0
 59 60  1  0
 59  2  1  0
 37  7  1  0
 34 10  1  0
 21 12  1  0
 32 23  1  0
M  CHG  1  11  -1
M  END
>  <UniqueID>  (28) 
24

>  <SMILES>  (28) 
CC/N=c1/cc2n(-c3ccc(Cl)cc3)c3ccccc3[n-]c-2c/c1=N\c1cccc(C(C)C)c1

>  <Energy>  (28) 
95.36321230713142

>  <Genealogy>  (28) 
CCN=c1cc2n(-c3ccc(Cl)cc3)c3ccccc3[n-]c-2cc1=Nc1cccc(C(C)C)c1 (protonated)
CC/N=c1/cc2n(-c3ccc(Cl)cc3)c3ccccc3[n-]c-2c/c1=N\c1cccc(C(C)C)c1 (cis-trans isomerization)
CC/N=c1/cc2n(-c3ccc(Cl)cc3)c3ccccc3[n-]c-2c/c1=N\c1cccc(C(C)C)c1 (3D coordinates assigned)
CC/N=c1/cc2n(-c3ccc(Cl)cc3)c3ccccc3[n-]c-2c/c1=N\c1cccc(C(C)C)c1 (optimized conformer: 95.36321230713142 kcal/mol)

>  <smiles>  (28) 
CCN=c1cc2n(-c3ccc(Cl)cc3)c3ccccc3[nH]c-2cc1=Nc1cccc(C(C)C)c1

>  <score_type>  (28) 
oracle

>  <origin>  (28) 
adgpu

>  <m_score__min__energy>  (28) 
-9.5

>  <m_primary>  (28) 
energy

$$$$
28:0
     RDKit          3D

 41 43  0  0  0  0  0  0  0  0999 V2000
   -9.4800   19.7200  -32.7070 C   0  0  0  0  0  0  0  0  0  0  0  0
   -9.2790   21.1150  -32.5000 O   0  0  0  0  0  0  0  0  0  0  0  0
   -8.1040   21.6770  -31.9800 C   0  0  0  0  0  0  0  0  0  0  0  0
   -8.0240   23.0230  -31.5790 C   0  0  0  0  0  0  0  0  0  0  0  0
   -6.8290   23.5370  -31.0670 C   0  0  0  0  0  0  0  0  0  0  0  0
   -5.6910   22.7200  -30.9460 C   0  0  0  0  0  0  0  0  0  0  0  0
   -4.4310   23.2830  -30.4000 C   0  0  0  0  0  0  0  0  0  0  0  0
   -3.4230   22.5920  -29.7420 C   0  0  0  0  0  0  0  0  0  0  0  0
   -2.4810   23.5580  -29.4460 C   0  0  0  0  0  0  0  0  0  0  0  0
   -1.2110   23.3440  -28.7130 C   0  0  0  0  0  0  0  0  0  0  0  0
   -0.7700   22.0300  -28.4740 C   0  0  0  0  0  0  0  0  0  0  0  0
    0.4140   21.7830  -27.7730 C   0  0  0  0  0  0  0  0  0  0  0  0
    0.7960   20.4500  -27.5580 O   0  0  0  0  0  0  0  0  0  0  0  0
   -0.0000   19.3200  -27.9000 C   0  0  0  0  0  0  0  0  0  0  0  0
    1.1750   22.8680  -27.3080 C   0  0  0  0  0  0  0  0  0  0  0  0
    0.7570   24.1770  -27.5500 C   0  0  0  0  0  0  0  0  0  0  0  0
   -0.4310   24.4320  -28.2620 C   0  0  0  0  0  0  0  0  0  0  0  0
   -0.8440   25.7420  -28.5540 O   0  0  0  0  0  0  0  0  0  0  0  0
   -0.7550   26.8410  -27.6530 C   0  0  0  0  0  0  0  0  0  0  0  0
   -2.9240   24.7480  -29.8970 N   0  0  0  0  0  0  0  0  0  0  0  0
   -4.1020   24.5890  -30.4760 N   0  0  0  0  0  0  0  0  0  0  0  0
   -5.7770   21.3750  -31.3500 C   0  0  0  0  0  0  0  0  0  0  0  0
   -6.9730   20.8630  -31.8610 C   0  0  0  0  0  0  0  0  0  0  0  0
   -9.5532   19.2118  -31.7342 H   0  0  0  0  0  0  0  0  0  0  0  0
  -10.4100   19.5636  -33.2733 H   0  0  0  0  0  0  0  0  0  0  0  0
   -8.6320   19.3074  -33.2733 H   0  0  0  0  0  0  0  0  0  0  0  0
   -8.9060   23.6742  -31.6687 H   0  0  0  0  0  0  0  0  0  0  0  0
   -6.7785   24.5908  -30.7558 H   0  0  0  0  0  0  0  0  0  0  0  0
   -3.3833   21.5177  -29.5089 H   0  0  0  0  0  0  0  0  0  0  0  0
   -1.3663   21.1832  -28.8446 H   0  0  0  0  0  0  0  0  0  0  0  0
   -0.3484   18.8254  -26.9813 H   0  0  0  0  0  0  0  0  0  0  0  0
   -0.8675   19.6481  -28.4914 H   0  0  0  0  0  0  0  0  0  0  0  0
    0.6010   18.6136  -28.4914 H   0  0  0  0  0  0  0  0  0  0  0  0
    2.1052   22.6849  -26.7502 H   0  0  0  0  0  0  0  0  0  0  0  0
    1.3616   25.0185  -27.1808 H   0  0  0  0  0  0  0  0  0  0  0  0
   -0.7851   26.4699  -26.6179 H   0  0  0  0  0  0  0  0  0  0  0  0
    0.1896   27.3786  -27.8225 H   0  0  0  0  0  0  0  0  0  0  0  0
   -1.6008   27.5235  -27.8225 H   0  0  0  0  0  0  0  0  0  0  0  0
   -2.4550   25.6740  -29.7870 H   0  0  0  0  0  0  0  0  0  0  0  0
   -4.8964   20.7215  -31.2631 H   0  0  0  0  0  0  0  0  0  0  0  0
   -7.0252   19.8094  -32.1726 H   0  0  0  0  0  0  0  0  0  0  0  0
  1  2  1  0
  2  3  1  0
  3  4  2  0
  4  5  1  0
  5  6  2  0
  6  7  1  0
  7  8  1  0
  8  9  2  0
  9 10  1  0
 10 11  2  0
 11 12  1  0
 12 13  1  0
 13 14  1  0
 12 15  2  0
 15 16  1  0
 16 17  2  0
 17 18  1  0
 18 19  1  0
  9 20  1  0
 20 21  1  0
  6 22  1  0
 22 23  2  0
 23  3  1  0
 21  7  2  0
 17 10  1  0
  1 24  1  0
  1 25  1  0
  1 26  1  0
  4 27  1  0
  5 28  1  0
  8 29  1  0
 11 30  1  0
 14 31  1  0
 14 32  1  0
 14 33  1  0
 15 34  1  0
 16 35  1  0
 19 36  1  0
 19 37  1  0
 19 38  1  0
 20 39  1  0
 22 40  1  0
 23 41  1  0
M  END
>  <UniqueID>  (29) 
25

>  <SMILES>  (29) 
COc1ccc(-c2cc(-c3cc(OC)ccc3OC)[nH]n2)cc1

>  <Energy>  (29) 
77.01754613267717

>  <Genealogy>  (29) 
COc1ccc(-c2cc(-c3cc(OC)ccc3OC)[nH]n2)cc1 (3D coordinates assigned)
COc1ccc(-c2cc(-c3cc(OC)ccc3OC)[nH]n2)cc1 (optimized conformer: 77.01754613267717 kcal/mol)

>  <smiles>  (29) 
COc1ccc(-c2cc(-c3cc(OC)ccc3OC)[nH]n2)cc1

>  <score_type>  (29) 
oracle

>  <origin>  (29) 
adgpu

>  <m_score__min__energy>  (29) 
-7.5800000000000001

>  <m_primary>  (29) 
energy

$$$$
29:0
     RDKit          3D

 46 48  0  0  0  0  0  0  0  0999 V2000
   -7.5571   17.3204  -30.8264 H   0  0  0  0  0  0  0  0  0  0  0  0
   -6.8640   17.7630  -31.5570 C   0  0  0  0  0  0  0  0  0  0  0  0
   -7.0161   18.7958  -31.9038 H   0  0  0  0  0  0  0  0  0  0  0  0
   -5.8400   17.0480  -32.0220 C   0  0  0  0  0  0  0  0  0  0  0  0
   -5.7155   16.0184  -31.6554 H   0  0  0  0  0  0  0  0  0  0  0  0
   -4.8650   17.5620  -33.0010 C   0  0  0  0  0  0  0  0  0  0  0  0
   -4.9080   17.1130  -34.1790 O   0  0  0  0  0  0  0  0  0  0  0  0
   -3.9120   18.5860  -32.6580 N   0  0  0  0  0  0  0  0  0  0  0  0
   -4.1180   19.1980  -31.8370 H   0  0  0  0  0  0  0  0  0  0  0  0
   -2.7630   18.9020  -33.4680 C   0  0  0  0  0  0  0  0  0  0  0  0
   -2.1160   17.8970  -34.2110 C   0  0  0  0  0  0  0  0  0  0  0  0
   -2.5053   16.8684  -34.1920 H   0  0  0  0  0  0  0  0  0  0  0  0
   -0.9840   18.1950  -34.9720 C   0  0  0  0  0  0  0  0  0  0  0  0
   -0.4980   17.4072  -35.5663 H   0  0  0  0  0  0  0  0  0  0  0  0
   -0.4700   19.4890  -34.9790 C   0  0  0  0  0  0  0  0  0  0  0  0
    0.4267   19.7196  -35.5729 H   0  0  0  0  0  0  0  0  0  0  0  0
   -1.0890   20.4940  -34.2350 C   0  0  0  0  0  0  0  0  0  0  0  0
   -0.6677   21.5101  -34.2325 H   0  0  0  0  0  0  0  0  0  0  0  0
   -2.2500   20.2160  -33.4870 C   0  0  0  0  0  0  0  0  0  0  0  0
   -2.8800   21.2290  -32.6810 N   0  0  0  0  0  0  0  0  0  0  0  0
   -4.1550   21.4580  -32.5590 C   0  0  0  0  0  0  0  0  0  0  0  0
   -5.0800   20.6490  -33.1450 N   0  0  0  0  0  0  0  0  0  0  0  0
   -6.4090   20.8870  -33.0050 C   0  0  0  0  0  0  0  0  0  0  0  0
   -7.1400   20.2233  -33.4900 H   0  0  0  0  0  0  0  0  0  0  0  0
   -6.8490   21.9720  -32.2470 C   0  0  0  0  0  0  0  0  0  0  0  0
   -8.5740   22.2630  -32.0670 Cl  0  0  0  0  0  0  0  0  0  0  0  0
   -5.8870   22.7910  -31.6400 C   0  0  0  0  0  0  0  0  0  0  0  0
   -6.3530   24.2160  -30.6530 S   0  0  0  0  0  0  0  0  0  0  0  0
   -4.9440   24.0330  -29.5600 C   0  0  0  0  0  0  0  0  0  0  0  0
   -4.9380   23.0180  -28.5970 C   0  0  0  0  0  0  0  0  0  0  0  0
   -5.8038   22.3464  -28.4999 H   0  0  0  0  0  0  0  0  0  0  0  0
   -3.8320   22.8580  -27.7590 C   0  0  0  0  0  0  0  0  0  0  0  0
   -3.8236   22.0528  -27.0096 H   0  0  0  0  0  0  0  0  0  0  0  0
   -2.7360   23.7180  -27.8700 C   0  0  0  0  0  0  0  0  0  0  0  0
   -1.8628   23.5808  -27.2152 H   0  0  0  0  0  0  0  0  0  0  0  0
   -2.7460   24.7580  -28.8160 C   0  0  0  0  0  0  0  0  0  0  0  0
   -1.6410   25.6590  -28.9720 N   0  0  0  0  0  0  0  0  0  0  0  0
   -0.5220   25.8040  -28.0880 C   0  0  0  0  0  0  0  0  0  0  0  0
    0.4390   24.9910  -28.1200 O   0  0  0  0  0  0  0  0  0  0  0  0
   -0.5050   26.9190  -27.0970 C   0  0  0  0  0  0  0  0  0  0  0  0
   -0.5113   26.5042  -26.0782 H   0  0  0  0  0  0  0  0  0  0  0  0
    0.4025   27.5238  -27.2410 H   0  0  0  0  0  0  0  0  0  0  0  0
   -1.3936   27.5512  -27.2410 H   0  0  0  0  0  0  0  0  0  0  0  0
   -3.8500   24.8990  -29.6670 C   0  0  0  0  0  0  0  0  0  0  0  0
   -3.8569   25.6963  -30.4248 H   0  0  0  0  0  0  0  0  0  0  0  0
   -4.5680   22.5080  -31.8020 N   0  0  0  0  0  0  0  0  0  0  0  0
  1  2  1  0
  2  3  1  0
  2  4  2  0
  4  5  1  0
  4  6  1  0
  6  7  2  0
  6  8  1  0
  8  9  1  0
  8 10  1  0
 10 11  2  0
 11 12  1  0
 11 13  1  0
 13 14  1  0
 13 15  2  0
 15 16  1  0
 15 17  1  0
 17 18  1  0
 17 19  2  0
 19 20  1  0
 20 21  2  0
 21 22  1  0
 22 23  2  0
 23 24  1  0
 23 25  1  0
 25 26  1  0
 25 27  2  0
 27 28  1  0
 28 29  1  0
 29 30  2  0
 30 31  1  0
 30 32  1  0
 32 33  1  0
 32 34  2  0
 34 35  1  0
 34 36  1  0
 36 37  1  0
 37 38  1  0
 38 39  2  0
 38 40  1  0
 40 41  1  0
 40 42  1  0
 40 43  1  0
 36 44  2  0
 44 45  1  0
 27 46  1  0
 19 10  1  0
 46 21  1  0
 44 29  1  0
M  CHG  2  37  -1  46  -1
M  END
>  <UniqueID>  (30) 
26

>  <SMILES>  (30) 
C=CC(=O)Nc1ccccc1/N=c1\ncc(Cl)c(Sc2cccc([N-]C(C)=O)c2)[n-]1

>  <Energy>  (30) 
57.53269805062716

>  <Genealogy>  (30) 
C=CC(=O)Nc1ccccc1N=c1ncc(Cl)c(Sc2cccc([N-]C(C)=O)c2)[n-]1 (protonated)
C=CC(=O)Nc1ccccc1/N=c1\ncc(Cl)c(Sc2cccc([N-]C(C)=O)c2)[n-]1 (cis-trans isomerization)
C=CC(=O)Nc1ccccc1/N=c1\ncc(Cl)c(Sc2cccc([N-]C(C)=O)c2)[n-]1 (3D coordinates assigned)
C=CC(=O)Nc1ccccc1/N=c1\ncc(Cl)c(Sc2cccc([N-]C(C)=O)c2)[n-]1 (optimized conformer: 57.53269805062716 kcal/mol)

>  <smiles>  (30) 
C=CC(=O)Nc1ccccc1N=c1ncc(Cl)c(Sc2cccc(NC(C)=O)c2)[nH]1

>  <score_type>  (30) 
oracle

>  <origin>  (30) 
adgpu

>  <m_score__min__energy>  (30) 
-11.35

>  <m_primary>  (30) 
energy

$$$$
30:0
     RDKit          3D

 44 46  0  0  0  0  0  0  0  0999 V2000
   -1.7720   19.5250  -26.7950 C   0  0  0  0  0  0  0  0  0  0  0  0
   -1.0670   20.4710  -27.5970 O   0  0  0  0  0  0  0  0  0  0  0  0
   -1.6830   21.4810  -28.3510 C   0  0  0  0  0  0  0  0  0  0  0  0
   -2.4790   22.4190  -27.6850 C   0  0  0  0  0  0  0  0  0  0  0  0
   -3.1190   23.4380  -28.3960 C   0  0  0  0  0  0  0  0  0  0  0  0
   -2.9720   23.5370  -29.7840 C   0  0  0  0  0  0  0  0  0  0  0  0
   -3.6580   24.5920  -30.4720 N   0  0  0  0  0  0  0  0  0  0  0  0
   -5.3570   24.9300  -30.3780 S   0  0  0  0  0  0  0  0  0  0  0  0
   -5.7420   25.2280  -28.9540 O   0  0  0  0  0  0  0  0  0  0  0  0
   -5.6580   26.1450  -31.2100 O   0  0  0  0  0  0  0  0  0  0  0  0
   -6.2780   23.5680  -31.0130 C   0  0  0  0  0  0  0  0  0  0  0  0
   -7.6610   23.6910  -31.1850 C   0  0  0  0  0  0  0  0  0  0  0  0
   -8.4080   22.6140  -31.6690 C   0  0  0  0  0  0  0  0  0  0  0  0
   -7.7780   21.4140  -32.0120 C   0  0  0  0  0  0  0  0  0  0  0  0
   -8.7910   20.0660  -32.5160 Cl  0  0  0  0  0  0  0  0  0  0  0  0
   -6.3750   21.2930  -31.8880 C   0  0  0  0  0  0  0  0  0  0  0  0
   -5.6530   20.0760  -32.3200 C   0  0  0  0  0  0  0  0  0  0  0  0
   -4.5800   19.7600  -31.7430 O   0  0  0  0  0  0  0  0  0  0  0  0
   -6.1140   19.3240  -33.4550 N   0  0  0  0  0  0  0  0  0  0  0  0
   -5.6070   18.0350  -33.8410 C   0  0  0  0  0  0  0  0  0  0  0  0
   -4.3910   17.8980  -34.5360 C   0  0  0  0  0  0  0  0  0  0  0  0
   -3.9160   16.6280  -34.8860 C   0  0  0  0  0  0  0  0  0  0  0  0
   -4.6410   15.4850  -34.5310 C   0  0  0  0  0  0  0  0  0  0  0  0
   -4.0420   13.8940  -34.9680 Cl  0  0  0  0  0  0  0  0  0  0  0  0
   -5.8380   15.6120  -33.8180 C   0  0  0  0  0  0  0  0  0  0  0  0
   -6.3150   16.8790  -33.4670 C   0  0  0  0  0  0  0  0  0  0  0  0
   -5.6410   22.3680  -31.3580 C   0  0  0  0  0  0  0  0  0  0  0  0
   -2.1780   22.5930  -30.4590 C   0  0  0  0  0  0  0  0  0  0  0  0
   -1.5410   21.5710  -29.7510 C   0  0  0  0  0  0  0  0  0  0  0  0
   -1.6048   19.7493  -25.7312 H   0  0  0  0  0  0  0  0  0  0  0  0
   -2.8476   19.5848  -27.0177 H   0  0  0  0  0  0  0  0  0  0  0  0
   -1.4072   18.5114  -27.0177 H   0  0  0  0  0  0  0  0  0  0  0  0
   -2.6021   22.3541  -26.5938 H   0  0  0  0  0  0  0  0  0  0  0  0
   -3.7433   24.1681  -27.8601 H   0  0  0  0  0  0  0  0  0  0  0  0
   -8.1619   24.6388  -30.9384 H   0  0  0  0  0  0  0  0  0  0  0  0
   -9.4980   22.7108  -31.7808 H   0  0  0  0  0  0  0  0  0  0  0  0
   -6.7850   19.7970  -34.1020 H   0  0  0  0  0  0  0  0  0  0  0  0
   -3.8108   18.7928  -34.8056 H   0  0  0  0  0  0  0  0  0  0  0  0
   -2.9714   16.5287  -35.4409 H   0  0  0  0  0  0  0  0  0  0  0  0
   -6.4051   14.7136  -33.5329 H   0  0  0  0  0  0  0  0  0  0  0  0
   -7.2499   16.9718  -32.8948 H   0  0  0  0  0  0  0  0  0  0  0  0
   -4.5554   22.2666  -31.2124 H   0  0  0  0  0  0  0  0  0  0  0  0
   -2.0578   22.6596  -31.5504 H   0  0  0  0  0  0  0  0  0  0  0  0
   -0.9262   20.8335  -30.2878 H   0  0  0  0  0  0  0  0  0  0  0  0
  1  2  1  0
  2  3  1  0
  3  4  2  0
  4  5  1  0
  5  6  2  0
  6  7  1  0
  7  8  1  0
  8  9  2  0
  8 10  2  0
  8 11  1  0
 11 12  2  0
 12 13  1  0
 13 14  2  0
 14 15  1  0
 14 16  1  0
 16 17  1  0
 17 18  2  0
 17 19  1  0
 19 20  1  0
 20 21  2  0
 21 22  1  0
 22 23  2  0
 23 24  1  0
 23 25  1  0
 25 26  2  0
 16 27  2  0
  6 28  1  0
 28 29  2  0
 29  3  1  0
 27 11  1  0
 26 20  1  0
  1 30  1  0
  1 31  1  0
  1 32  1  0
  4 33  1  0
  5 34  1  0
 12 35  1  0
 13 36  1  0
 19 37  1  0
 21 38  1  0
 22 39  1  0
 25 40  1  0
 26 41  1  0
 27 42  1  0
 28 43  1  0
 29 44  1  0
M  CHG  1   7  -1
M  END
>  <UniqueID>  (31) 
27

>  <SMILES>  (31) 
COc1ccc([N-]S(=O)(=O)c2ccc(Cl)c(C(=O)Nc3ccc(Cl)cc3)c2)cc1

>  <Energy>  (31) 
58.631721131682625

>  <Genealogy>  (31) 
COc1ccc([N-]S(=O)(=O)c2ccc(Cl)c(C(=O)Nc3ccc(Cl)cc3)c2)cc1 (protonated)
COc1ccc([N-]S(=O)(=O)c2ccc(Cl)c(C(=O)Nc3ccc(Cl)cc3)c2)cc1 (3D coordinates assigned)
COc1ccc([N-]S(=O)(=O)c2ccc(Cl)c(C(=O)Nc3ccc(Cl)cc3)c2)cc1 (optimized conformer: 58.631721131682625 kcal/mol)

>  <smiles>  (31) 
COc1ccc(NS(=O)(=O)c2ccc(Cl)c(C(=O)Nc3ccc(Cl)cc3)c2)cc1

>  <score_type>  (31) 
oracle

>  <origin>  (31) 
adgpu

>  <m_score__min__energy>  (31) 
-10.26

>  <m_primary>  (31) 
energy

$$$$
31:0
     RDKit          3D

 53 55  0  0  0  0  0  0  0  0999 V2000
    1.4460   20.8260  -34.6540 C   0  0  0  0  0  0  0  0  0  0  0  0
    0.6940   20.3090  -33.4320 C   0  0  0  0  0  0  0  0  0  0  0  0
   -0.7020   20.8680  -33.3910 C   0  0  0  0  0  0  0  0  0  0  0  0
   -0.9440   21.9100  -34.0600 O   0  0  0  0  0  0  0  0  0  0  0  0
   -1.7510   20.2850  -32.5810 N   0  0  0  0  0  0  0  0  0  0  0  0
   -2.0270   18.8390  -32.5420 C   0  0  0  0  0  0  0  0  0  0  0  0
   -2.6120   18.3640  -33.8790 C   0  0  0  0  0  0  0  0  0  0  0  0
   -3.9760   19.0010  -34.1700 C   0  0  0  0  0  0  0  0  0  0  0  0
   -5.0590   18.1710  -33.6450 N   0  0  0  0  0  0  0  0  0  0  0  0
   -5.9870   17.5110  -34.3560 C   0  0  0  0  0  0  0  0  0  0  0  0
   -6.8490   16.9100  -33.4690 C   0  0  0  0  0  0  0  0  0  0  0  0
   -6.4710   17.1930  -32.2050 N   0  0  0  0  0  0  0  0  0  0  0  0
   -5.3760   17.9680  -32.3510 C   0  0  0  0  0  0  0  0  0  0  0  0
   -2.5890   21.1450  -31.7870 C   0  0  0  0  0  0  0  0  0  0  0  0
   -3.6230   21.9060  -32.3670 C   0  0  0  0  0  0  0  0  0  0  0  0
   -3.7560   21.9300  -33.8020 N   0  0  0  0  0  0  0  0  0  0  0  0
   -4.4970   22.6010  -31.5540 N   0  0  0  0  0  0  0  0  0  0  0  0
   -5.6930   23.2650  -32.1220 C   0  0  0  0  0  0  0  0  0  0  0  0
   -6.8750   22.3240  -32.1270 C   0  0  0  0  0  0  0  0  0  0  0  0
   -8.0960   22.7180  -31.5540 C   0  0  0  0  0  0  0  0  0  0  0  0
   -9.1890   21.8460  -31.5530 C   0  0  0  0  0  0  0  0  0  0  0  0
   -9.0740   20.5780  -32.1280 C   0  0  0  0  0  0  0  0  0  0  0  0
   -7.8670   20.1830  -32.7140 C   0  0  0  0  0  0  0  0  0  0  0  0
   -6.7740   21.0540  -32.7220 C   0  0  0  0  0  0  0  0  0  0  0  0
   -4.3000   22.6070  -30.1910 C   0  0  0  0  0  0  0  0  0  0  0  0
   -5.0780   23.2440  -29.4280 O   0  0  0  0  0  0  0  0  0  0  0  0
   -3.2690   21.9160  -29.6400 N   0  0  0  0  0  0  0  0  0  0  0  0
   -2.4270   21.1780  -30.4010 C   0  0  0  0  0  0  0  0  0  0  0  0
   -1.5000   20.5210  -29.8530 O   0  0  0  0  0  0  0  0  0  0  0  0
    2.3115   21.4211  -34.3272 H   0  0  0  0  0  0  0  0  0  0  0  0
    1.7932   19.9748  -35.2581 H   0  0  0  0  0  0  0  0  0  0  0  0
    0.7756   21.4550  -35.2581 H   0  0  0  0  0  0  0  0  0  0  0  0
    0.6422   19.2112  -33.4777 H   0  0  0  0  0  0  0  0  0  0  0  0
    1.2296   20.6284  -32.5259 H   0  0  0  0  0  0  0  0  0  0  0  0
   -1.0901   18.2974  -32.3446 H   0  0  0  0  0  0  0  0  0  0  0  0
   -2.7577   18.6390  -31.7444 H   0  0  0  0  0  0  0  0  0  0  0  0
   -1.9153   18.6329  -34.6866 H   0  0  0  0  0  0  0  0  0  0  0  0
   -2.7524   17.2746  -33.8196 H   0  0  0  0  0  0  0  0  0  0  0  0
   -4.0194   19.9927  -33.6960 H   0  0  0  0  0  0  0  0  0  0  0  0
   -4.0976   19.0918  -35.2595 H   0  0  0  0  0  0  0  0  0  0  0  0
   -6.0472   17.4600  -35.4532 H   0  0  0  0  0  0  0  0  0  0  0  0
   -7.7154   16.2922  -33.7477 H   0  0  0  0  0  0  0  0  0  0  0  0
   -4.8062   18.3870  -31.5085 H   0  0  0  0  0  0  0  0  0  0  0  0
   -2.9810   21.6230  -34.4290 H   0  0  0  0  0  0  0  0  0  0  0  0
   -4.5990   22.2960  -34.2890 H   0  0  0  0  0  0  0  0  0  0  0  0
   -5.9378   24.1489  -31.5147 H   0  0  0  0  0  0  0  0  0  0  0  0
   -5.4736   23.5624  -33.1581 H   0  0  0  0  0  0  0  0  0  0  0  0
   -8.1924   23.7171  -31.1041 H   0  0  0  0  0  0  0  0  0  0  0  0
  -10.1408   22.1588  -31.0988 H   0  0  0  0  0  0  0  0  0  0  0  0
   -9.9325   19.8904  -32.1199 H   0  0  0  0  0  0  0  0  0  0  0  0
   -7.7779   19.1856  -33.1692 H   0  0  0  0  0  0  0  0  0  0  0  0
   -5.8307   20.7447  -33.1958 H   0  0  0  0  0  0  0  0  0  0  0  0
   -3.1360   21.9350  -28.6020 H   0  0  0  0  0  0  0  0  0  0  0  0
  1  2  1  0
  2  3  1  0
  3  4  2  0
  3  5  1  0
  5  6  1  0
  6  7  1  0
  7  8  1  0
  8  9  1  0
  9 10  1  0
 10 11  2  0
 11 12  1  0
 12 13  2  0
  5 14  1  0
 14 15  2  0
 15 16  1  0
 15 17  1  0
 17 18  1  0
 18 19  1  0
 19 20  2  0
 20 21  1  0
 21 22  2  0
 22 23  1  0
 23 24  2  0
 17 25  1  0
 25 26  2  0
 25 27  1  0
 27 28  1  0
 28 29  2  0
 13  9  1  0
 28 14  1  0
 24 19  1  0
  1 30  1  0
  1 31  1  0
  1 32  1  0
  2 33  1  0
  2 34  1  0
  6 35  1  0
  6 36  1  0
  7 37  1  0
  7 38  1  0
  8 39  1  0
  8 40  1  0
 10 41  1  0
 11 42  1  0
 13 43  1  0
 16 44  1  0
 16 45  1  0
 18 46  1  0
 18 47  1  0
 20 48  1  0
 21 49  1  0
 22 50  1  0
 23 51  1  0
 24 52  1  0
 27 53  1  0
M  END
>  <UniqueID>  (32) 
28

>  <SMILES>  (32) 
CCC(=O)N(CCCn1ccnc1)c1c(N)n(Cc2ccccc2)c(=O)[nH]c1=O

>  <Energy>  (32) 
87.7662337201003

>  <Genealogy>  (32) 
CCC(=O)N(CCCn1ccnc1)c1c(N)n(Cc2ccccc2)c(=O)[nH]c1=O (3D coordinates assigned)
CCC(=O)N(CCCn1ccnc1)c1c(N)n(Cc2ccccc2)c(=O)[nH]c1=O (optimized conformer: 87.7662337201003 kcal/mol)

>  <smiles>  (32) 
CCC(=O)N(CCCn1ccnc1)c1c(N)n(Cc2ccccc2)c(=O)[nH]c1=O

>  <score_type>  (32) 
oracle

>  <origin>  (32) 
adgpu

>  <m_score__min__energy>  (32) 
-7.8700000000000001

>  <m_primary>  (32) 
energy

$$$$
32:0
     RDKit          3D

 35 37  0  0  0  0  0  0  0  0999 V2000
   -9.8150   19.4270  -33.0930 N   0  0  0  0  0  0  0  0  0  0  0  0
   -9.0670   19.0750  -31.8870 C   0  0  0  0  0  0  0  0  0  0  0  0
   -7.8320   19.9240  -31.7570 C   0  0  0  0  0  0  0  0  0  0  0  0
   -7.7800   21.1810  -31.1910 C   0  0  0  0  0  0  0  0  0  0  0  0
   -6.5310   21.6710  -31.3490 N   0  0  0  0  0  0  0  0  0  0  0  0
   -6.0420   22.9610  -30.9270 C   0  0  0  0  0  0  0  0  0  0  0  0
   -4.6610   23.2360  -30.8660 C   0  0  0  0  0  0  0  0  0  0  0  0
   -4.2060   24.4940  -30.4570 C   0  0  0  0  0  0  0  0  0  0  0  0
   -5.1190   25.4910  -30.1090 C   0  0  0  0  0  0  0  0  0  0  0  0
   -6.4900   25.2350  -30.1720 C   0  0  0  0  0  0  0  0  0  0  0  0
   -6.9510   23.9790  -30.5800 C   0  0  0  0  0  0  0  0  0  0  0  0
   -5.7900   20.7840  -31.9950 N   0  0  0  0  0  0  0  0  0  0  0  0
   -6.5500   19.7000  -32.2480 C   0  0  0  0  0  0  0  0  0  0  0  0
   -6.0440   18.5190  -32.9800 C   0  0  0  0  0  0  0  0  0  0  0  0
   -5.5160   18.6350  -34.2770 C   0  0  0  0  0  0  0  0  0  0  0  0
   -5.0620   17.5020  -34.9590 C   0  0  0  0  0  0  0  0  0  0  0  0
   -5.1450   16.2440  -34.3580 C   0  0  0  0  0  0  0  0  0  0  0  0
   -5.6880   16.1150  -33.0780 C   0  0  0  0  0  0  0  0  0  0  0  0
   -6.1440   17.2460  -32.3930 C   0  0  0  0  0  0  0  0  0  0  0  0
  -10.3790   18.6020  -33.3990 H   0  0  0  0  0  0  0  0  0  0  0  0
  -10.4610   20.2270  -32.9010 H   0  0  0  0  0  0  0  0  0  0  0  0
   -9.1540   19.6880  -33.8620 H   0  0  0  0  0  0  0  0  0  0  0  0
   -9.7074   19.2329  -31.0066 H   0  0  0  0  0  0  0  0  0  0  0  0
   -8.7637   18.0199  -31.9559 H   0  0  0  0  0  0  0  0  0  0  0  0
   -8.6149   21.6973  -30.6946 H   0  0  0  0  0  0  0  0  0  0  0  0
   -3.9360   22.4561  -31.1419 H   0  0  0  0  0  0  0  0  0  0  0  0
   -3.1261   24.6981  -30.4095 H   0  0  0  0  0  0  0  0  0  0  0  0
   -4.7582   26.4784  -29.7851 H   0  0  0  0  0  0  0  0  0  0  0  0
   -7.2087   26.0222  -29.9004 H   0  0  0  0  0  0  0  0  0  0  0  0
   -8.0326   23.7849  -30.6302 H   0  0  0  0  0  0  0  0  0  0  0  0
   -5.4595   19.6225  -34.7584 H   0  0  0  0  0  0  0  0  0  0  0  0
   -4.6392   17.6015  -35.9696 H   0  0  0  0  0  0  0  0  0  0  0  0
   -4.7823   15.3541  -34.8934 H   0  0  0  0  0  0  0  0  0  0  0  0
   -5.7572   15.1229  -32.6079 H   0  0  0  0  0  0  0  0  0  0  0  0
   -6.5830   17.1386  -31.3901 H   0  0  0  0  0  0  0  0  0  0  0  0
  1  2  1  0
  2  3  1  0
  3  4  2  0
  4  5  1  0
  5  6  1  0
  6  7  2  0
  7  8  1  0
  8  9  2  0
  9 10  1  0
 10 11  2  0
  5 12  1  0
 12 13  2  0
 13 14  1  0
 14 15  2  0
 15 16  1  0
 16 17  2  0
 17 18  1  0
 18 19  2  0
 13  3  1  0
 19 14  1  0
 11  6  1  0
  1 20  1  0
  1 21  1  0
  1 22  1  0
  2 23  1  0
  2 24  1  0
  4 25  1  0
  7 26  1  0
  8 27  1  0
  9 28  1  0
 10 29  1  0
 11 30  1  0
 15 31  1  0
 16 32  1  0
 17 33  1  0
 18 34  1  0
 19 35  1  0
M  CHG  1   1   1
M  END
>  <UniqueID>  (33) 
29

>  <SMILES>  (33) 
[NH3+]Cc1cn(-c2ccccc2)nc1-c1ccccc1

>  <Energy>  (33) 
72.89728227640809

>  <Genealogy>  (33) 
[NH3+]Cc1cn(-c2ccccc2)nc1-c1ccccc1 (protonated)
[NH3+]Cc1cn(-c2ccccc2)nc1-c1ccccc1 (3D coordinates assigned)
[NH3+]Cc1cn(-c2ccccc2)nc1-c1ccccc1 (optimized conformer: 72.89728227640809 kcal/mol)

>  <smiles>  (33) 
NCc1cn(-c2ccccc2)nc1-c1ccccc1

>  <score_type>  (33) 
oracle

>  <origin>  (33) 
adgpu

>  <m_score__min__energy>  (33) 
-7.2400000000000002

>  <m_primary>  (33) 
energy

$$$$
33:0
     RDKit          3D

 51 53  0  0  0  0  0  0  0  0999 V2000
   -0.2260   22.7470  -24.0850 C   0  0  0  0  0  0  0  0  0  0  0  0
   -0.2360   24.2100  -24.5260 C   0  0  0  0  0  0  0  0  0  0  0  0
    1.0830   24.6120  -25.1850 C   0  0  0  0  0  0  0  0  0  0  0  0
    1.1310   24.1070  -26.5180 O   0  0  0  0  0  0  0  0  0  0  0  0
    0.0090   24.0640  -27.3550 C   0  0  0  0  0  0  0  0  0  0  0  0
   -0.5640   25.2770  -27.7460 C   0  0  0  0  0  0  0  0  0  0  0  0
   -1.7010   25.3000  -28.5550 C   0  0  0  0  0  0  0  0  0  0  0  0
   -2.2830   24.1000  -28.9920 C   0  0  0  0  0  0  0  0  0  0  0  0
   -3.4930   24.1170  -29.8380 C   0  0  0  0  0  0  0  0  0  0  0  0
   -4.3630   23.0920  -29.9370 N   0  0  0  0  0  0  0  0  0  0  0  0
   -5.2680   23.5880  -30.8070 C   0  0  0  0  0  0  0  0  0  0  0  0
   -6.4610   22.8450  -31.2680 C   0  0  0  0  0  0  0  0  0  0  0  0
   -7.6750   23.5150  -31.4950 C   0  0  0  0  0  0  0  0  0  0  0  0
   -8.7980   22.8110  -31.9380 C   0  0  0  0  0  0  0  0  0  0  0  0
   -8.7220   21.4340  -32.1550 C   0  0  0  0  0  0  0  0  0  0  0  0
   -7.5220   20.7500  -31.9260 C   0  0  0  0  0  0  0  0  0  0  0  0
   -7.4300   19.0160  -32.2250 S   0  0  0  0  0  0  0  0  0  0  0  0
   -6.5110   18.3690  -31.2250 O   0  0  0  0  0  0  0  0  0  0  0  0
   -8.7990   18.4160  -32.0680 O   0  0  0  0  0  0  0  0  0  0  0  0
   -6.8520   18.7080  -33.8350 N   0  0  0  0  0  0  0  0  0  0  0  0
   -5.4150   18.9750  -33.9060 C   0  0  0  0  0  0  0  0  0  0  0  0
   -4.7100   17.8390  -34.6370 C   0  0  0  0  0  0  0  0  0  0  0  0
   -6.3930   21.4570  -31.4880 C   0  0  0  0  0  0  0  0  0  0  0  0
   -4.9600   24.8380  -31.2080 N   0  0  0  0  0  0  0  0  0  0  0  0
   -3.8580   25.1280  -30.5870 O   0  0  0  0  0  0  0  0  0  0  0  0
   -1.6970   22.8790  -28.6210 C   0  0  0  0  0  0  0  0  0  0  0  0
   -0.5400   22.8480  -27.8240 C   0  0  0  0  0  0  0  0  0  0  0  0
    0.0810   21.5210  -27.4910 C   0  0  0  0  0  0  0  0  0  0  0  0
   -0.2256   22.6952  -22.9862 H   0  0  0  0  0  0  0  0  0  0  0  0
   -1.1207   22.2402  -24.4757 H   0  0  0  0  0  0  0  0  0  0  0  0
    0.6755   22.2524  -24.4757 H   0  0  0  0  0  0  0  0  0  0  0  0
   -1.0541   24.3595  -25.2460 H   0  0  0  0  0  0  0  0  0  0  0  0
   -0.3771   24.8360  -23.6325 H   0  0  0  0  0  0  0  0  0  0  0  0
    1.1607   25.7090  -25.2071 H   0  0  0  0  0  0  0  0  0  0  0  0
    1.9200   24.1926  -24.6075 H   0  0  0  0  0  0  0  0  0  0  0  0
   -0.1141   26.2238  -27.4126 H   0  0  0  0  0  0  0  0  0  0  0  0
   -2.1429   26.2628  -28.8514 H   0  0  0  0  0  0  0  0  0  0  0  0
   -7.7418   24.5994  -31.3231 H   0  0  0  0  0  0  0  0  0  0  0  0
   -9.7441   23.3431  -32.1161 H   0  0  0  0  0  0  0  0  0  0  0  0
   -9.6077   20.8847  -32.5070 H   0  0  0  0  0  0  0  0  0  0  0  0
   -7.3420   19.3850  -34.4640 H   0  0  0  0  0  0  0  0  0  0  0  0
   -5.2458   19.9173  -34.4476 H   0  0  0  0  0  0  0  0  0  0  0  0
   -5.0113   19.0538  -32.8858 H   0  0  0  0  0  0  0  0  0  0  0  0
   -4.2780   17.1429  -33.9029 H   0  0  0  0  0  0  0  0  0  0  0  0
   -5.4347   17.3034  -35.2679 H   0  0  0  0  0  0  0  0  0  0  0  0
   -3.9084   18.2506  -35.2679 H   0  0  0  0  0  0  0  0  0  0  0  0
   -5.4472   20.9225  -31.3151 H   0  0  0  0  0  0  0  0  0  0  0  0
   -2.1494   21.9348  -28.9585 H   0  0  0  0  0  0  0  0  0  0  0  0
    0.1351   21.4053  -26.3984 H   0  0  0  0  0  0  0  0  0  0  0  0
   -0.5322   20.7124  -27.9154 H   0  0  0  0  0  0  0  0  0  0  0  0
    1.0947   21.4737  -27.9154 H   0  0  0  0  0  0  0  0  0  0  0  0
  1  2  1  0
  2  3  1  0
  3  4  1  0
  4  5  1  0
  5  6  2  0
  6  7  1  0
  7  8  2  0
  8  9  1  0
  9 10  2  0
 10 11  1  0
 11 12  1  0
 12 13  2  0
 13 14  1  0
 14 15  2  0
 15 16  1  0
 16 17  1  0
 17 18  2  0
 17 19  2  0
 17 20  1  0
 20 21  1  0
 21 22  1  0
 16 23  2  0
 11 24  2  0
 24 25  1  0
  8 26  1  0
 26 27  2  0
 27 28  1  0
 27  5  1  0
 25  9  1  0
 23 12  1  0
  1 29  1  0
  1 30  1  0
  1 31  1  0
  2 32  1  0
  2 33  1  0
  3 34  1  0
  3 35  1  0
  6 36  1  0
  7 37  1  0
 13 38  1  0
 14 39  1  0
 15 40  1  0
 20 41  1  0
 21 42  1  0
 21 43  1  0
 22 44  1  0
 22 45  1  0
 22 46  1  0
 23 47  1  0
 26 48  1  0
 28 49  1  0
 28 50  1  0
 28 51  1  0
M  END
>  <UniqueID>  (34) 
30

>  <SMILES>  (34) 
CCCOc1ccc(-c2nc(-c3cccc(S(=O)(=O)NCC)c3)no2)cc1C

>  <Energy>  (34) 
82.11112970763388

>  <Genealogy>  (34) 
CCCOc1ccc(-c2nc(-c3cccc(S(=O)(=O)NCC)c3)no2)cc1C (3D coordinates assigned)
CCCOc1ccc(-c2nc(-c3cccc(S(=O)(=O)NCC)c3)no2)cc1C (optimized conformer: 82.11112970763388 kcal/mol)

>  <smiles>  (34) 
CCCOc1ccc(-c2nc(-c3cccc(S(=O)(=O)NCC)c3)no2)cc1C

>  <score_type>  (34) 
oracle

>  <origin>  (34) 
adgpu

>  <m_score__min__energy>  (34) 
-10.199999999999999

>  <m_primary>  (34) 
energy

$$$$
34:0
     RDKit          3D

 24 25  0  0  0  0  0  0  0  0999 V2000
   -5.2850   18.9870  -34.1720 C   0  0  0  0  0  0  0  0  0  0  0  0
   -4.6960   19.3180  -32.9200 O   0  0  0  0  0  0  0  0  0  0  0  0
   -4.7570   20.6000  -32.3640 C   0  0  0  0  0  0  0  0  0  0  0  0
   -3.6280   21.3590  -32.2860 N   0  0  0  0  0  0  0  0  0  0  0  0
   -3.6230   22.6000  -31.7360 C   0  0  0  0  0  0  0  0  0  0  0  0
   -4.8040   23.1450  -31.2180 C   0  0  0  0  0  0  0  0  0  0  0  0
   -4.8290   24.4900  -30.6150 C   0  0  0  0  0  0  0  0  0  0  0  0
   -3.8900   25.3070  -30.8080 O   0  0  0  0  0  0  0  0  0  0  0  0
   -5.9800   22.3870  -31.2860 C   0  0  0  0  0  0  0  0  0  0  0  0
   -5.9760   21.1060  -31.8650 C   0  0  0  0  0  0  0  0  0  0  0  0
   -7.2370   20.3260  -31.9400 C   0  0  0  0  0  0  0  0  0  0  0  0
   -8.4800   20.8100  -32.3440 C   0  0  0  0  0  0  0  0  0  0  0  0
   -9.4880   19.8380  -32.3490 C   0  0  0  0  0  0  0  0  0  0  0  0
   -9.0520   18.5800  -31.9580 C   0  0  0  0  0  0  0  0  0  0  0  0
   -7.4140   18.6820  -31.6060 S   0  0  0  0  0  0  0  0  0  0  0  0
   -6.2324   18.4546  -34.0022 H   0  0  0  0  0  0  0  0  0  0  0  0
   -5.4790   19.9082  -34.7409 H   0  0  0  0  0  0  0  0  0  0  0  0
   -4.5990   18.3423  -34.7409 H   0  0  0  0  0  0  0  0  0  0  0  0
   -2.6885   23.1790  -31.6972 H   0  0  0  0  0  0  0  0  0  0  0  0
   -5.6819   24.7850  -29.9861 H   0  0  0  0  0  0  0  0  0  0  0  0
   -6.9167   22.7985  -30.8820 H   0  0  0  0  0  0  0  0  0  0  0  0
   -8.6530   21.8574  -32.6320 H   0  0  0  0  0  0  0  0  0  0  0  0
  -10.5282   20.0517  -32.6360 H   0  0  0  0  0  0  0  0  0  0  0  0
   -9.6719   17.6738  -31.8905 H   0  0  0  0  0  0  0  0  0  0  0  0
  1  2  1  0
  2  3  1  0
  3  4  2  0
  4  5  1  0
  5  6  2  0
  6  7  1  0
  7  8  2  0
  6  9  1  0
  9 10  2  0
 10 11  1  0
 11 12  2  0
 12 13  1  0
 13 14  2  0
 14 15  1  0
 10  3  1  0
 15 11  1  0
  1 16  1  0
  1 17  1  0
  1 18  1  0
  5 19  1  0
  7 20  1  0
  9 21  1  0
 12 22  1  0
 13 23  1  0
 14 24  1  0
M  END
>  <UniqueID>  (35) 
31

>  <SMILES>  (35) 
COc1ncc(C=O)cc1-c1cccs1

>  <Energy>  (35) 
53.082160172019215

>  <Genealogy>  (35) 
COc1ncc(C=O)cc1-c1cccs1 (3D coordinates assigned)
COc1ncc(C=O)cc1-c1cccs1 (optimized conformer: 53.082160172019215 kcal/mol)

>  <smiles>  (35) 
COc1ncc(C=O)cc1-c1cccs1

>  <score_type>  (35) 
oracle

>  <origin>  (35) 
adgpu

>  <m_score__min__energy>  (35) 
-6.1399999999999997

>  <m_primary>  (35) 
energy

$$$$
35:0
     RDKit          3D

 50 52  0  0  0  0  0  0  0  0999 V2000
   -3.4570   19.6080  -32.4390 C   0  0  0  0  0  0  0  0  0  0  0  0
   -4.2140   20.8390  -32.0330 C   0  0  0  0  0  0  0  0  0  0  0  0
   -3.7230   21.8690  -31.2450 C   0  0  0  0  0  0  0  0  0  0  0  0
   -2.3770   21.9530  -30.6500 C   0  0  0  0  0  0  0  0  0  0  0  0
   -1.5070   22.6730  -31.2110 O   0  0  0  0  0  0  0  0  0  0  0  0
   -2.0580   21.2430  -29.4390 N   0  0  0  0  0  0  0  0  0  0  0  0
   -0.6530   20.9590  -29.1070 C   0  0  0  0  0  0  0  0  0  0  0  0
   -0.5000   19.5980  -28.4020 C   0  0  0  0  0  0  0  0  0  0  0  0
   -1.6930   19.2150  -27.5050 C   0  0  0  0  0  0  0  0  0  0  0  0
   -2.5610   20.4200  -27.1440 C   0  0  0  0  0  0  0  0  0  0  0  0
   -3.1070   21.0700  -28.4190 C   0  0  0  0  0  0  0  0  0  0  0  0
   -4.7410   22.8030  -31.1310 C   0  0  0  0  0  0  0  0  0  0  0  0
   -4.7210   24.2680  -30.1450 S   0  0  0  0  0  0  0  0  0  0  0  0
   -3.8640   25.3040  -30.8160 O   0  0  0  0  0  0  0  0  0  0  0  0
   -6.1240   24.7870  -29.9860 O   0  0  0  0  0  0  0  0  0  0  0  0
   -4.0920   23.8970  -28.5730 N   0  0  0  0  0  0  0  0  0  0  0  0
   -2.9550   24.5240  -27.9660 C   0  0  0  0  0  0  0  0  0  0  0  0
   -1.7910   24.6810  -28.7290 C   0  0  0  0  0  0  0  0  0  0  0  0
   -0.6630   25.2980  -28.1800 C   0  0  0  0  0  0  0  0  0  0  0  0
   -0.6900   25.7610  -26.8630 C   0  0  0  0  0  0  0  0  0  0  0  0
    0.4050   26.3590  -26.3340 F   0  0  0  0  0  0  0  0  0  0  0  0
   -1.8470   25.6080  -26.0920 C   0  0  0  0  0  0  0  0  0  0  0  0
   -1.8740   26.0500  -24.8100 F   0  0  0  0  0  0  0  0  0  0  0  0
   -2.9770   24.9890  -26.6390 C   0  0  0  0  0  0  0  0  0  0  0  0
   -5.8060   22.3180  -31.8750 C   0  0  0  0  0  0  0  0  0  0  0  0
   -7.1410   22.9890  -32.0350 C   0  0  0  0  0  0  0  0  0  0  0  0
   -5.4930   21.1060  -32.3910 N   0  0  0  0  0  0  0  0  0  0  0  0
   -6.3610   20.2750  -33.2280 C   0  0  0  0  0  0  0  0  0  0  0  0
   -3.1252   19.0684  -31.5397 H   0  0  0  0  0  0  0  0  0  0  0  0
   -4.1106   18.9563  -33.0374 H   0  0  0  0  0  0  0  0  0  0  0  0
   -2.5805   19.8972  -33.0374 H   0  0  0  0  0  0  0  0  0  0  0  0
   -0.0622   20.9487  -30.0348 H   0  0  0  0  0  0  0  0  0  0  0  0
   -0.2964   21.7427  -28.4224 H   0  0  0  0  0  0  0  0  0  0  0  0
   -0.3840   18.8213  -29.1723 H   0  0  0  0  0  0  0  0  0  0  0  0
    0.3777   19.6792  -27.7439 H   0  0  0  0  0  0  0  0  0  0  0  0
   -2.3137   18.4795  -28.0377 H   0  0  0  0  0  0  0  0  0  0  0  0
   -1.2896   18.8000  -26.5696 H   0  0  0  0  0  0  0  0  0  0  0  0
   -3.4006   20.0893  -26.5149 H   0  0  0  0  0  0  0  0  0  0  0  0
   -1.9519   21.1538  -26.5957 H   0  0  0  0  0  0  0  0  0  0  0  0
   -3.9023   20.4317  -28.8313 H   0  0  0  0  0  0  0  0  0  0  0  0
   -3.4945   22.0653  -28.1557 H   0  0  0  0  0  0  0  0  0  0  0  0
   -1.7642   24.3166  -29.7665 H   0  0  0  0  0  0  0  0  0  0  0  0
    0.2469   25.4189  -28.7863 H   0  0  0  0  0  0  0  0  0  0  0  0
   -3.8844   24.8660  -26.0294 H   0  0  0  0  0  0  0  0  0  0  0  0
   -7.5654   23.2023  -31.0428 H   0  0  0  0  0  0  0  0  0  0  0  0
   -7.0141   23.9304  -32.5896 H   0  0  0  0  0  0  0  0  0  0  0  0
   -7.8208   22.3255  -32.5896 H   0  0  0  0  0  0  0  0  0  0  0  0
   -7.0065   19.6570  -32.5866 H   0  0  0  0  0  0  0  0  0  0  0  0
   -6.9854   20.9206  -33.8631 H   0  0  0  0  0  0  0  0  0  0  0  0
   -5.7431   19.6231  -33.8631 H   0  0  0  0  0  0  0  0  0  0  0  0
  1  2  1  0
  2  3  2  0
  3  4  1  0
  4  5  2  0
  4  6  1  0
  6  7  1  0
  7  8  1  0
  8  9  1  0
  9 10  1  0
 10 11  1  0
  3 12  1  0
 12 13  1  0
 13 14  2  0
 13 15  2  0
 13 16  1  0
 16 17  1  0
 17 18  2  0
 18 19  1  0
 19 20  2  0
 20 21  1  0
 20 22  1  0
 22 23  1  0
 22 24  2  0
 12 25  2  0
 25 26  1  0
 25 27  1  0
 27 28  1  0
 27  2  1  0
 11  6  1  0
 24 17  1  0
  1 29  1  0
  1 30  1  0
  1 31  1  0
  7 32  1  0
  7 33  1  0
  8 34  1  0
  8 35  1  0
  9 36  1  0
  9 37  1  0
 10 38  1  0
 10 39  1  0
 11 40  1  0
 11 41  1  0
 18 42  1  0
 19 43  1  0
 24 44  1  0
 26 45  1  0
 26 46  1  0
 26 47  1  0
 28 48  1  0
 28 49  1  0
 28 50  1  0
M  CHG  1  16  -1
M  END
>  <UniqueID>  (36) 
32

>  <SMILES>  (36) 
Cc1c(C(=O)N2CCCCC2)c(S(=O)(=O)[N-]c2ccc(F)c(F)c2)c(C)n1C

>  <Energy>  (36) 
84.73662113433078

>  <Genealogy>  (36) 
Cc1c(C(=O)N2CCCCC2)c(S(=O)(=O)[N-]c2ccc(F)c(F)c2)c(C)n1C (protonated)
Cc1c(C(=O)N2CCCCC2)c(S(=O)(=O)[N-]c2ccc(F)c(F)c2)c(C)n1C (3D coordinates assigned)
Cc1c(C(=O)N2CCCCC2)c(S(=O)(=O)[N-]c2ccc(F)c(F)c2)c(C)n1C (nonaromatic ring conformer: 84.73662113433078 kcal/mol)

>  <smiles>  (36) 
Cc1c(C(=O)N2CCCCC2)c(S(=O)(=O)Nc2ccc(F)c(F)c2)c(C)n1C

>  <score_type>  (36) 
oracle

>  <origin>  (36) 
adgpu

>  <m_score__min__energy>  (36) 
-10.470000000000001

>  <m_primary>  (36) 
energy

$$$$
36:0
     RDKit          3D

 31 32  0  0  0  0  0  0  0  0999 V2000
   -3.9930   25.5660  -30.5280 O   0  0  0  0  0  0  0  0  0  0  0  0
   -4.2520   24.3730  -30.2150 C   0  0  0  0  0  0  0  0  0  0  0  0
   -4.2200   23.9600  -28.7790 C   0  0  0  0  0  0  0  0  0  0  0  0
   -2.8470   23.4320  -28.4380 C   0  0  0  0  0  0  0  0  0  0  0  0
   -2.7440   22.1640  -27.8400 C   0  0  0  0  0  0  0  0  0  0  0  0
   -1.4960   21.6760  -27.4550 C   0  0  0  0  0  0  0  0  0  0  0  0
   -0.3830   22.4280  -27.6450 N   0  0  0  0  0  0  0  0  0  0  0  0
   -0.4400   23.6630  -28.2070 C   0  0  0  0  0  0  0  0  0  0  0  0
    0.6210   24.3260  -28.3550 O   0  0  0  0  0  0  0  0  0  0  0  0
   -1.6700   24.1990  -28.6150 C   0  0  0  0  0  0  0  0  0  0  0  0
   -1.6840   25.4780  -29.1820 O   0  0  0  0  0  0  0  0  0  0  0  0
   -4.4870   23.3930  -31.2300 N   0  0  0  0  0  0  0  0  0  0  0  0
   -5.7350   23.3010  -31.9780 C   0  0  0  0  0  0  0  0  0  0  0  0
   -6.0270   21.8550  -32.3020 C   0  0  0  0  0  0  0  0  0  0  0  0
   -4.9760   21.0510  -32.7780 C   0  0  0  0  0  0  0  0  0  0  0  0
   -5.2060   19.7250  -33.1470 C   0  0  0  0  0  0  0  0  0  0  0  0
   -6.4870   19.1820  -33.0420 C   0  0  0  0  0  0  0  0  0  0  0  0
   -7.5410   19.9660  -32.5680 C   0  0  0  0  0  0  0  0  0  0  0  0
   -7.3240   21.2990  -32.1980 C   0  0  0  0  0  0  0  0  0  0  0  0
   -8.7040   22.2260  -31.6160 Cl  0  0  0  0  0  0  0  0  0  0  0  0
   -4.4476   24.8279  -28.1426 H   0  0  0  0  0  0  0  0  0  0  0  0
   -4.9689   23.1729  -28.6069 H   0  0  0  0  0  0  0  0  0  0  0  0
   -3.6469   21.5575  -27.6760 H   0  0  0  0  0  0  0  0  0  0  0  0
   -1.4137   20.6795  -26.9964 H   0  0  0  0  0  0  0  0  0  0  0  0
   -2.0220   25.6750  -30.1120 H   0  0  0  0  0  0  0  0  0  0  0  0
   -6.5557   23.7133  -31.3727 H   0  0  0  0  0  0  0  0  0  0  0  0
   -5.6431   23.8732  -32.9130 H   0  0  0  0  0  0  0  0  0  0  0  0
   -3.9628   21.4714  -32.8603 H   0  0  0  0  0  0  0  0  0  0  0  0
   -4.3764   19.1071  -33.5211 H   0  0  0  0  0  0  0  0  0  0  0  0
   -6.6667   18.1364  -33.3326 H   0  0  0  0  0  0  0  0  0  0  0  0
   -8.5489   19.5333  -32.4847 H   0  0  0  0  0  0  0  0  0  0  0  0
  1  2  2  0
  2  3  1  0
  3  4  1  0
  4  5  1  0
  5  6  2  0
  6  7  1  0
  7  8  1  0
  8  9  2  0
  8 10  1  0
 10 11  1  0
  2 12  1  0
 12 13  1  0
 13 14  1  0
 14 15  2  0
 15 16  1  0
 16 17  2  0
 17 18  1  0
 18 19  2  0
 19 20  1  0
 10  4  2  0
 19 14  1  0
  3 21  1  0
  3 22  1  0
  5 23  1  0
  6 24  1  0
 11 25  1  0
 13 26  1  0
 13 27  1  0
 15 28  1  0
 16 29  1  0
 17 30  1  0
 18 31  1  0
M  CHG  2   7  -1  12  -1
M  END
>  <UniqueID>  (37) 
33

>  <SMILES>  (37) 
O=C(Cc1cc[n-]c(=O)c1O)[N-]Cc1ccccc1Cl

>  <Energy>  (37) 
31.192629734671723

>  <Genealogy>  (37) 
O=C(Cc1cc[n-]c(=O)c1O)[N-]Cc1ccccc1Cl (protonated)
O=C(Cc1cc[n-]c(=O)c1O)[N-]Cc1ccccc1Cl (3D coordinates assigned)
O=C(Cc1cc[n-]c(=O)c1O)[N-]Cc1ccccc1Cl (optimized conformer: 31.192629734671723 kcal/mol)

>  <smiles>  (37) 
O=C(Cc1cc[nH]c(=O)c1O)NCc1ccccc1Cl

>  <score_type>  (37) 
oracle

>  <origin>  (37) 
adgpu

>  <m_score__min__energy>  (37) 
-10.300000000000001

>  <m_primary>  (37) 
energy

$$$$
37:0
     RDKit          3D

 48 50  0  0  0  0  0  0  0  0999 V2000
   -3.3540   20.1390  -33.0450 C   0  0  0  0  0  0  0  0  0  0  0  0
   -3.8740   19.4550  -34.1830 O   0  0  0  0  0  0  0  0  0  0  0  0
   -4.3220   18.1250  -34.1760 C   0  0  0  0  0  0  0  0  0  0  0  0
   -3.4400   17.0400  -34.3630 C   0  0  0  0  0  0  0  0  0  0  0  0
   -3.9250   15.7300  -34.3730 C   0  0  0  0  0  0  0  0  0  0  0  0
   -5.2860   15.4850  -34.1900 C   0  0  0  0  0  0  0  0  0  0  0  0
   -6.1670   16.5500  -33.9980 C   0  0  0  0  0  0  0  0  0  0  0  0
   -5.6970   17.8740  -33.9960 C   0  0  0  0  0  0  0  0  0  0  0  0
   -6.6100   18.9740  -33.8360 N   0  0  0  0  0  0  0  0  0  0  0  0
   -7.3720   19.3220  -32.3180 S   0  0  0  0  0  0  0  0  0  0  0  0
   -6.6400   18.6060  -31.2190 O   0  0  0  0  0  0  0  0  0  0  0  0
   -8.7950   18.8420  -32.3550 O   0  0  0  0  0  0  0  0  0  0  0  0
   -7.3020   21.0530  -32.0000 C   0  0  0  0  0  0  0  0  0  0  0  0
   -8.4740   21.7990  -31.8280 C   0  0  0  0  0  0  0  0  0  0  0  0
   -8.4000   23.1730  -31.5900 C   0  0  0  0  0  0  0  0  0  0  0  0
   -7.1570   23.8120  -31.5350 C   0  0  0  0  0  0  0  0  0  0  0  0
   -5.9730   23.0750  -31.7220 C   0  0  0  0  0  0  0  0  0  0  0  0
   -4.6750   23.6830  -31.6570 N   0  0  0  0  0  0  0  0  0  0  0  0
   -4.1110   24.3970  -30.5470 C   0  0  0  0  0  0  0  0  0  0  0  0
   -4.1710   25.6550  -30.5190 O   0  0  0  0  0  0  0  0  0  0  0  0
   -3.4240   23.6500  -29.4570 C   0  0  0  0  0  0  0  0  0  0  0  0
   -3.8370   22.3360  -29.1560 C   0  0  0  0  0  0  0  0  0  0  0  0
   -3.2250   21.6120  -28.1330 C   0  0  0  0  0  0  0  0  0  0  0  0
   -2.1880   22.1810  -27.3980 C   0  0  0  0  0  0  0  0  0  0  0  0
   -1.7590   23.4780  -27.6800 C   0  0  0  0  0  0  0  0  0  0  0  0
   -2.3700   24.2290  -28.7040 C   0  0  0  0  0  0  0  0  0  0  0  0
   -1.9560   25.5440  -28.9840 O   0  0  0  0  0  0  0  0  0  0  0  0
   -1.0340   26.2920  -28.1990 C   0  0  0  0  0  0  0  0  0  0  0  0
   -6.0550   21.6930  -31.9330 C   0  0  0  0  0  0  0  0  0  0  0  0
   -3.7212   19.6560  -32.1275 H   0  0  0  0  0  0  0  0  0  0  0  0
   -2.2548   20.1008  -33.0648 H   0  0  0  0  0  0  0  0  0  0  0  0
   -3.6848   21.1879  -33.0648 H   0  0  0  0  0  0  0  0  0  0  0  0
   -2.3648   17.2265  -34.5016 H   0  0  0  0  0  0  0  0  0  0  0  0
   -3.2319   14.8895  -34.5256 H   0  0  0  0  0  0  0  0  0  0  0  0
   -5.6648   14.4523  -34.1970 H   0  0  0  0  0  0  0  0  0  0  0  0
   -7.2383   16.3513  -33.8470 H   0  0  0  0  0  0  0  0  0  0  0  0
   -6.9960   19.4510  -34.6800 H   0  0  0  0  0  0  0  0  0  0  0  0
   -9.4541   21.3024  -31.8804 H   0  0  0  0  0  0  0  0  0  0  0  0
   -9.3223   23.7547  -31.4453 H   0  0  0  0  0  0  0  0  0  0  0  0
   -7.1049   24.8942  -31.3449 H   0  0  0  0  0  0  0  0  0  0  0  0
   -4.6516   21.8763  -29.7349 H   0  0  0  0  0  0  0  0  0  0  0  0
   -3.5620   20.5897  -27.9063 H   0  0  0  0  0  0  0  0  0  0  0  0
   -1.7061   21.6064  -26.5933 H   0  0  0  0  0  0  0  0  0  0  0  0
   -0.9363   23.9186  -27.0978 H   0  0  0  0  0  0  0  0  0  0  0  0
   -1.2407   26.1243  -27.1317 H   0  0  0  0  0  0  0  0  0  0  0  0
   -0.0085   25.9674  -28.4293 H   0  0  0  0  0  0  0  0  0  0  0  0
   -1.1402   27.3624  -28.4293 H   0  0  0  0  0  0  0  0  0  0  0  0
   -5.1333   21.1036  -32.0473 H   0  0  0  0  0  0  0  0  0  0  0  0
  1  2  1  0
  2  3  1  0
  3  4  2  0
  4  5  1  0
  5  6  2  0
  6  7  1  0
  7  8  2  0
  8  9  1  0
  9 10  1  0
 10 11  2  0
 10 12  2  0
 10 13  1  0
 13 14  2  0
 14 15  1  0
 15 16  2  0
 16 17  1  0
 17 18  1  0
 18 19  1  0
 19 20  2  0
 19 21  1  0
 21 22  2  0
 22 23  1  0
 23 24  2  0
 24 25  1  0
 25 26  2  0
 26 27  1  0
 27 28  1  0
 17 29  2  0
  8  3  1  0
 29 13  1  0
 26 21  1  0
  1 30  1  0
  1 31  1  0
  1 32  1  0
  4 33  1  0
  5 34  1  0
  6 35  1  0
  7 36  1  0
  9 37  1  0
 14 38  1  0
 15 39  1  0
 16 40  1  0
 22 41  1  0
 23 42  1  0
 24 43  1  0
 25 44  1  0
 28 45  1  0
 28 46  1  0
 28 47  1  0
 29 48  1  0
M  CHG  1  18  -1
M  END
>  <UniqueID>  (38) 
34

>  <SMILES>  (38) 
COc1ccccc1NS(=O)(=O)c1cccc([N-]C(=O)c2ccccc2OC)c1

>  <Energy>  (38) 
59.288114520505864

>  <Genealogy>  (38) 
COc1ccccc1NS(=O)(=O)c1cccc([N-]C(=O)c2ccccc2OC)c1 (protonated)
COc1ccccc1NS(=O)(=O)c1cccc([N-]C(=O)c2ccccc2OC)c1 (3D coordinates assigned)
COc1ccccc1NS(=O)(=O)c1cccc([N-]C(=O)c2ccccc2OC)c1 (optimized conformer: 59.288114520505864 kcal/mol)

>  <smiles>  (38) 
COc1ccccc1NS(=O)(=O)c1cccc(NC(=O)c2ccccc2OC)c1

>  <score_type>  (38) 
oracle

>  <origin>  (38) 
adgpu

>  <m_score__min__energy>  (38) 
-10.98

>  <m_primary>  (38) 
energy

$$$$
38:0
     RDKit          3D

 52 54  0  0  0  0  0  0  0  0999 V2000
   -0.4940   27.7760  -24.4530 C   0  0  0  0  0  0  0  0  0  0  0  0
   -0.3440   26.5750  -23.5140 C   0  0  0  0  0  0  0  0  0  0  0  0
    0.7180   25.6510  -23.9430 N   0  0  0  0  0  0  0  0  0  0  0  0
    0.1790   24.3920  -24.4740 C   0  0  0  0  0  0  0  0  0  0  0  0
   -0.5720   24.6670  -25.7470 C   0  0  0  0  0  0  0  0  0  0  0  0
    0.0960   24.6400  -26.9800 C   0  0  0  0  0  0  0  0  0  0  0  0
   -0.6080   24.8560  -28.1680 C   0  0  0  0  0  0  0  0  0  0  0  0
   -1.9900   25.0770  -28.1440 C   0  0  0  0  0  0  0  0  0  0  0  0
   -2.6570   25.3020  -29.3570 O   0  0  0  0  0  0  0  0  0  0  0  0
   -3.4310   24.3560  -30.0460 C   0  0  0  0  0  0  0  0  0  0  0  0
   -4.7300   24.7020  -30.4320 C   0  0  0  0  0  0  0  0  0  0  0  0
   -5.5280   23.7900  -31.1290 C   0  0  0  0  0  0  0  0  0  0  0  0
   -5.0380   22.5150  -31.4490 C   0  0  0  0  0  0  0  0  0  0  0  0
   -5.8730   21.6030  -32.1840 N   0  0  0  0  0  0  0  0  0  0  0  0
   -7.2280   21.2890  -31.8350 C   0  0  0  0  0  0  0  0  0  0  0  0
   -7.8220   21.9350  -30.9290 O   0  0  0  0  0  0  0  0  0  0  0  0
   -7.8950   20.2250  -32.5230 N   0  0  0  0  0  0  0  0  0  0  0  0
   -7.2850   19.0560  -33.0900 C   0  0  0  0  0  0  0  0  0  0  0  0
   -6.3030   19.1300  -34.0920 C   0  0  0  0  0  0  0  0  0  0  0  0
   -5.7270   17.9600  -34.5910 C   0  0  0  0  0  0  0  0  0  0  0  0
   -6.1230   16.7240  -34.0780 C   0  0  0  0  0  0  0  0  0  0  0  0
   -5.5470   15.5530  -34.5800 O   0  0  0  0  0  0  0  0  0  0  0  0
   -5.9870   14.2540  -34.2030 C   0  0  0  0  0  0  0  0  0  0  0  0
   -7.0610   16.6720  -33.0910 N   0  0  0  0  0  0  0  0  0  0  0  0
   -7.6370   17.7970  -32.5880 C   0  0  0  0  0  0  0  0  0  0  0  0
   -3.7180   22.1840  -31.1010 C   0  0  0  0  0  0  0  0  0  0  0  0
   -2.9200   23.0970  -30.4040 C   0  0  0  0  0  0  0  0  0  0  0  0
   -2.6590   25.1100  -26.9080 C   0  0  0  0  0  0  0  0  0  0  0  0
   -1.9560   24.8940  -25.7200 C   0  0  0  0  0  0  0  0  0  0  0  0
   -0.6087   28.6943  -23.8583 H   0  0  0  0  0  0  0  0  0  0  0  0
    0.4007   27.8594  -25.0875 H   0  0  0  0  0  0  0  0  0  0  0  0
   -1.3817   27.6368  -25.0875 H   0  0  0  0  0  0  0  0  0  0  0  0
   -0.1042   26.9438  -22.5058 H   0  0  0  0  0  0  0  0  0  0  0  0
   -1.2939   26.0205  -23.5276 H   0  0  0  0  0  0  0  0  0  0  0  0
    1.3430   25.4390  -23.1300 H   0  0  0  0  0  0  0  0  0  0  0  0
    1.0061   23.6963  -24.6790 H   0  0  0  0  0  0  0  0  0  0  0  0
   -0.5020   23.9438  -23.7355 H   0  0  0  0  0  0  0  0  0  0  0  0
    1.1786   24.4480  -27.0122 H   0  0  0  0  0  0  0  0  0  0  0  0
   -0.0722   24.8523  -29.1287 H   0  0  0  0  0  0  0  0  0  0  0  0
   -5.1263   25.6981  -30.1856 H   0  0  0  0  0  0  0  0  0  0  0  0
   -6.5475   24.0742  -31.4287 H   0  0  0  0  0  0  0  0  0  0  0  0
   -5.5080   21.2150  -33.0830 H   0  0  0  0  0  0  0  0  0  0  0  0
   -5.9882   20.1088  -34.4831 H   0  0  0  0  0  0  0  0  0  0  0  0
   -4.9659   18.0122  -35.3835 H   0  0  0  0  0  0  0  0  0  0  0  0
   -6.0122   14.1795  -33.1058 H   0  0  0  0  0  0  0  0  0  0  0  0
   -6.9952   14.0771  -34.6058 H   0  0  0  0  0  0  0  0  0  0  0  0
   -5.2939   13.5008  -34.6058 H   0  0  0  0  0  0  0  0  0  0  0  0
   -8.3827   17.7174  -31.7833 H   0  0  0  0  0  0  0  0  0  0  0  0
   -3.3095   21.2010  -31.3783 H   0  0  0  0  0  0  0  0  0  0  0  0
   -1.8878   22.8283  -30.1349 H   0  0  0  0  0  0  0  0  0  0  0  0
   -3.7408   25.3068  -26.8760 H   0  0  0  0  0  0  0  0  0  0  0  0
   -2.4906   24.9020  -24.7587 H   0  0  0  0  0  0  0  0  0  0  0  0
  1  2  1  0
  2  3  1  0
  3  4  1  0
  4  5  1  0
  5  6  2  0
  6  7  1  0
  7  8  2  0
  8  9  1  0
  9 10  1  0
 10 11  2  0
 11 12  1  0
 12 13  2  0
 13 14  1  0
 14 15  1  0
 15 16  2  0
 15 17  1  0
 17 18  1  0
 18 19  2  0
 19 20  1  0
 20 21  2  0
 21 22  1  0
 22 23  1  0
 21 24  1  0
 24 25  2  0
 13 26  1  0
 26 27  2  0
  8 28  1  0
 28 29  2  0
 29  5  1  0
 27 10  1  0
 25 18  1  0
  1 30  1  0
  1 31  1  0
  1 32  1  0
  2 33  1  0
  2 34  1  0
  3 35  1  0
  4 36  1  0
  4 37  1  0
  6 38  1  0
  7 39  1  0
 11 40  1  0
 12 41  1  0
 14 42  1  0
 19 43  1  0
 20 44  1  0
 23 45  1  0
 23 46  1  0
 23 47  1  0
 25 48  1  0
 26 49  1  0
 27 50  1  0
 28 51  1  0
 29 52  1  0
M  CHG  1  17  -1
M  END
>  <UniqueID>  (39) 
35

>  <SMILES>  (39) 
CCNCc1ccc(Oc2ccc(NC(=O)[N-]c3ccc(OC)nc3)cc2)cc1

>  <Energy>  (39) 
63.16721140971339

>  <Genealogy>  (39) 
CCNCc1ccc(Oc2ccc(NC(=O)[N-]c3ccc(OC)nc3)cc2)cc1 (protonated)
CCNCc1ccc(Oc2ccc(NC(=O)[N-]c3ccc(OC)nc3)cc2)cc1 (3D coordinates assigned)
CCNCc1ccc(Oc2ccc(NC(=O)[N-]c3ccc(OC)nc3)cc2)cc1 (optimized conformer: 63.16721140971339 kcal/mol)

>  <smiles>  (39) 
CCNCc1ccc(Oc2ccc(NC(=O)Nc3ccc(OC)nc3)cc2)cc1

>  <score_type>  (39) 
oracle

>  <origin>  (39) 
adgpu

>  <m_score__min__energy>  (39) 
-9.5299999999999994

>  <m_primary>  (39) 
energy

$$$$
39:0
     RDKit          3D

 30 31  0  0  0  0  0  0  0  0999 V2000
   -0.8670   26.7880  -27.8970 C   0  0  0  0  0  0  0  0  0  0  0  0
   -1.5020   26.0420  -28.9320 O   0  0  0  0  0  0  0  0  0  0  0  0
   -1.6150   24.6430  -28.9480 C   0  0  0  0  0  0  0  0  0  0  0  0
   -0.7510   23.8150  -28.2050 C   0  0  0  0  0  0  0  0  0  0  0  0
   -0.8960   22.4260  -28.2460 C   0  0  0  0  0  0  0  0  0  0  0  0
   -1.9000   21.8510  -29.0250 C   0  0  0  0  0  0  0  0  0  0  0  0
   -2.7620   22.6600  -29.7670 C   0  0  0  0  0  0  0  0  0  0  0  0
   -2.6280   24.0610  -29.7320 C   0  0  0  0  0  0  0  0  0  0  0  0
   -3.5030   24.9220  -30.4760 N   0  0  0  0  0  0  0  0  0  0  0  0
   -5.2220   25.0250  -30.2720 S   0  0  0  0  0  0  0  0  0  0  0  0
   -5.5460   24.9830  -28.8070 O   0  0  0  0  0  0  0  0  0  0  0  0
   -5.7070   26.3280  -30.8450 O   0  0  0  0  0  0  0  0  0  0  0  0
   -6.0080   23.6660  -31.0680 C   0  0  0  0  0  0  0  0  0  0  0  0
   -5.2550   22.7810  -31.8540 C   0  0  0  0  0  0  0  0  0  0  0  0
   -5.8780   21.7060  -32.4940 C   0  0  0  0  0  0  0  0  0  0  0  0
   -7.2550   21.5070  -32.3510 C   0  0  0  0  0  0  0  0  0  0  0  0
   -7.8580   20.4640  -32.9720 F   0  0  0  0  0  0  0  0  0  0  0  0
   -8.0090   22.3830  -31.5640 C   0  0  0  0  0  0  0  0  0  0  0  0
   -7.3880   23.4600  -30.9230 C   0  0  0  0  0  0  0  0  0  0  0  0
   -1.1918   26.4064  -26.9178 H   0  0  0  0  0  0  0  0  0  0  0  0
    0.2244   26.6846  -27.9872 H   0  0  0  0  0  0  0  0  0  0  0  0
   -1.1434   27.8489  -27.9872 H   0  0  0  0  0  0  0  0  0  0  0  0
    0.0421   24.2643  -27.5893 H   0  0  0  0  0  0  0  0  0  0  0  0
   -0.2177   21.7853  -27.6634 H   0  0  0  0  0  0  0  0  0  0  0  0
   -2.0127   20.7572  -29.0546 H   0  0  0  0  0  0  0  0  0  0  0  0
   -3.5499   22.2007  -30.3821 H   0  0  0  0  0  0  0  0  0  0  0  0
   -4.1715   22.9335  -31.9669 H   0  0  0  0  0  0  0  0  0  0  0  0
   -5.2845   21.0154  -33.1111 H   0  0  0  0  0  0  0  0  0  0  0  0
   -9.0915   22.2250  -31.4489 H   0  0  0  0  0  0  0  0  0  0  0  0
   -7.9832   24.1471  -30.3037 H   0  0  0  0  0  0  0  0  0  0  0  0
  1  2  1  0
  2  3  1  0
  3  4  2  0
  4  5  1  0
  5  6  2  0
  6  7  1  0
  7  8  2  0
  8  9  1  0
  9 10  1  0
 10 11  2  0
 10 12  2  0
 10 13  1  0
 13 14  2  0
 14 15  1  0
 15 16  2  0
 16 17  1  0
 16 18  1  0
 18 19  2  0
  8  3  1  0
 19 13  1  0
  1 20  1  0
  1 21  1  0
  1 22  1  0
  4 23  1  0
  5 24  1  0
  6 25  1  0
  7 26  1  0
 14 27  1  0
 15 28  1  0
 18 29  1  0
 19 30  1  0
M  CHG  1   9  -1
M  END
>  <UniqueID>  (40) 
36

>  <SMILES>  (40) 
COc1ccccc1[N-]S(=O)(=O)c1ccc(F)cc1

>  <Energy>  (40) 
33.37408418196984

>  <Genealogy>  (40) 
COc1ccccc1[N-]S(=O)(=O)c1ccc(F)cc1 (protonated)
COc1ccccc1[N-]S(=O)(=O)c1ccc(F)cc1 (3D coordinates assigned)
COc1ccccc1[N-]S(=O)(=O)c1ccc(F)cc1 (optimized conformer: 33.37408418196984 kcal/mol)

>  <smiles>  (40) 
COc1ccccc1NS(=O)(=O)c1ccc(F)cc1

>  <score_type>  (40) 
oracle

>  <origin>  (40) 
adgpu

>  <m_score__min__energy>  (40) 
-8.8399999999999999

>  <m_primary>  (40) 
energy

$$$$
40:0
     RDKit          3D

 51 53  0  0  0  0  0  0  0  0999 V2000
   -5.6100   17.2610  -34.5880 C   0  0  0  0  0  0  0  0  0  0  0  0
   -6.1360   17.6190  -33.2260 C   0  0  0  0  0  0  0  0  0  0  0  0
   -6.1820   16.7440  -32.3730 O   0  0  0  0  0  0  0  0  0  0  0  0
   -6.5900   18.9690  -32.9270 N   0  0  0  0  0  0  0  0  0  0  0  0
   -6.0920   19.9620  -33.9170 C   0  0  0  0  0  0  0  0  0  0  0  0
   -4.8490   20.7380  -33.4390 C   0  0  0  0  0  0  0  0  0  0  0  0
   -4.0450   19.8870  -32.5510 N   0  0  0  0  0  0  0  0  0  0  0  0
   -2.6650   20.3760  -32.3410 C   0  0  0  0  0  0  0  0  0  0  0  0
   -2.5340   21.3930  -31.2260 C   0  0  0  0  0  0  0  0  0  0  0  0
   -1.8510   21.0720  -30.0420 C   0  0  0  0  0  0  0  0  0  0  0  0
   -1.7300   22.0160  -29.0190 C   0  0  0  0  0  0  0  0  0  0  0  0
   -2.3070   23.2800  -29.1590 C   0  0  0  0  0  0  0  0  0  0  0  0
   -3.0240   23.6050  -30.3140 C   0  0  0  0  0  0  0  0  0  0  0  0
   -3.6060   24.9130  -30.4250 N   0  0  0  0  0  0  0  0  0  0  0  0
   -5.0000   25.2090  -30.5960 C   0  0  0  0  0  0  0  0  0  0  0  0
   -5.3800   26.4040  -30.4760 O   0  0  0  0  0  0  0  0  0  0  0  0
   -6.0030   24.1500  -30.8570 C   0  0  0  0  0  0  0  0  0  0  0  0
   -6.5780   23.4460  -29.7880 C   0  0  0  0  0  0  0  0  0  0  0  0
   -7.5330   22.4540  -30.0240 C   0  0  0  0  0  0  0  0  0  0  0  0
   -7.9110   22.1270  -31.3370 C   0  0  0  0  0  0  0  0  0  0  0  0
   -8.9860   21.1000  -31.5870 C   0  0  0  0  0  0  0  0  0  0  0  0
   -8.8970   20.5980  -32.8750 F   0  0  0  0  0  0  0  0  0  0  0  0
  -10.2250   21.6870  -31.4160 F   0  0  0  0  0  0  0  0  0  0  0  0
   -8.8620   20.0410  -30.7030 F   0  0  0  0  0  0  0  0  0  0  0  0
   -7.3380   22.8350  -32.4070 C   0  0  0  0  0  0  0  0  0  0  0  0
   -6.3830   23.8270  -32.1700 C   0  0  0  0  0  0  0  0  0  0  0  0
   -3.1190   22.6650  -31.3560 C   0  0  0  0  0  0  0  0  0  0  0  0
   -4.7600   19.5740  -31.2970 C   0  0  0  0  0  0  0  0  0  0  0  0
   -6.2700   19.3370  -31.5310 C   0  0  0  0  0  0  0  0  0  0  0  0
   -4.7049   16.6450  -34.4813 H   0  0  0  0  0  0  0  0  0  0  0  0
   -6.3754   16.6955  -35.1397 H   0  0  0  0  0  0  0  0  0  0  0  0
   -5.3647   18.1805  -35.1397 H   0  0  0  0  0  0  0  0  0  0  0  0
   -7.6340   18.9760  -32.9990 H   0  0  0  0  0  0  0  0  0  0  0  0
   -5.8345   19.4296  -34.8445 H   0  0  0  0  0  0  0  0  0  0  0  0
   -6.8948   20.6988  -34.0674 H   0  0  0  0  0  0  0  0  0  0  0  0
   -4.2444   21.0321  -34.3096 H   0  0  0  0  0  0  0  0  0  0  0  0
   -5.1690   21.6365  -32.8910 H   0  0  0  0  0  0  0  0  0  0  0  0
   -2.0257   19.5140  -32.0996 H   0  0  0  0  0  0  0  0  0  0  0  0
   -2.3621   20.8816  -33.2697 H   0  0  0  0  0  0  0  0  0  0  0  0
   -1.4089   20.0723  -29.9191 H   0  0  0  0  0  0  0  0  0  0  0  0
   -1.1790   21.7630  -28.1012 H   0  0  0  0  0  0  0  0  0  0  0  0
   -2.1967   24.0238  -28.3561 H   0  0  0  0  0  0  0  0  0  0  0  0
   -6.2745   23.6770  -28.7562 H   0  0  0  0  0  0  0  0  0  0  0  0
   -7.9922   21.9252  -29.1758 H   0  0  0  0  0  0  0  0  0  0  0  0
   -7.6435   22.6066  -33.4387 H   0  0  0  0  0  0  0  0  0  0  0  0
   -5.9257   24.3586  -33.0175 H   0  0  0  0  0  0  0  0  0  0  0  0
   -3.6552   22.9271  -32.2800 H   0  0  0  0  0  0  0  0  0  0  0  0
   -4.3226   18.6658  -30.8567 H   0  0  0  0  0  0  0  0  0  0  0  0
   -4.6534   20.4363  -30.6224 H   0  0  0  0  0  0  0  0  0  0  0  0
   -6.6034   18.5239  -30.8694 H   0  0  0  0  0  0  0  0  0  0  0  0
   -6.7879   20.2829  -31.3142 H   0  0  0  0  0  0  0  0  0  0  0  0
  1  2  1  0
  2  3  2  0
  2  4  1  0
  4  5  1  0
  5  6  1  0
  6  7  1  0
  7  8  1  0
  8  9  1  0
  9 10  2  0
 10 11  1  0
 11 12  2  0
 12 13  1  0
 13 14  1  0
 14 15  1  0
 15 16  2  0
 15 17  1  0
 17 18  2  0
 18 19  1  0
 19 20  2  0
 20 21  1  0
 21 22  1  0
 21 23  1  0
 21 24  1  0
 20 25  1  0
 25 26  2  0
 13 27  2  0
  7 28  1  0
 28 29  1  0
 29  4  1  0
 27  9  1  0
 26 17  1  0
  1 30  1  0
  1 31  1  0
  1 32  1  0
  4 33  1  0
  5 34  1  0
  5 35  1  0
  6 36  1  0
  6 37  1  0
  8 38  1  0
  8 39  1  0
 10 40  1  0
 11 41  1  0
 12 42  1  0
 18 43  1  0
 19 44  1  0
 25 45  1  0
 26 46  1  0
 27 47  1  0
 28 48  1  0
 28 49  1  0
 29 50  1  0
 29 51  1  0
M  CHG  2   4   1  14  -1
M  END
>  <UniqueID>  (41) 
37

>  <SMILES>  (41) 
CC(=O)[NH+]1CCN(Cc2cccc([N-]C(=O)c3ccc(C(F)(F)F)cc3)c2)CC1

>  <Energy>  (41) 
72.4948549134187

>  <Genealogy>  (41) 
CC(=O)[NH+]1CCN(Cc2cccc([N-]C(=O)c3ccc(C(F)(F)F)cc3)c2)CC1 (protonated)
CC(=O)[NH+]1CCN(Cc2cccc([N-]C(=O)c3ccc(C(F)(F)F)cc3)c2)CC1 (3D coordinates assigned)
CC(=O)[NH+]1CCN(Cc2cccc([N-]C(=O)c3ccc(C(F)(F)F)cc3)c2)CC1 (nonaromatic ring conformer: 72.4948549134187 kcal/mol)

>  <smiles>  (41) 
CC(=O)N1CCN(Cc2cccc(NC(=O)c3ccc(C(F)(F)F)cc3)c2)CC1

>  <score_type>  (41) 
oracle

>  <origin>  (41) 
adgpu

>  <m_score__min__energy>  (41) 
-10.550000000000001

>  <m_primary>  (41) 
energy

$$$$
41:0
     RDKit          3D

 36 39  0  0  0  0  0  0  0  0999 V2000
   -1.9830   24.8480  -28.9590 C   0  0  0  0  0  0  0  0  0  0  0  0
   -3.2110   24.5230  -29.7460 C   0  0  0  0  0  0  0  0  0  0  0  0
   -3.8780   25.4030  -30.4570 O   0  0  0  0  0  0  0  0  0  0  0  0
   -4.9140   24.8600  -31.0300 N   0  0  0  0  0  0  0  0  0  0  0  0
   -4.9310   23.5560  -30.6810 C   0  0  0  0  0  0  0  0  0  0  0  0
   -5.9400   22.5930  -31.1720 C   0  0  0  0  0  0  0  0  0  0  0  0
   -7.1730   22.4510  -30.5140 C   0  0  0  0  0  0  0  0  0  0  0  0
   -8.1150   21.5440  -31.0050 C   0  0  0  0  0  0  0  0  0  0  0  0
   -7.8260   20.7910  -32.1440 C   0  0  0  0  0  0  0  0  0  0  0  0
   -6.5940   20.9580  -32.7770 C   0  0  0  0  0  0  0  0  0  0  0  0
   -5.6900   21.8470  -32.2840 N   0  0  0  0  0  0  0  0  0  0  0  0
   -3.8390   23.2960  -29.8660 C   0  0  0  0  0  0  0  0  0  0  0  0
   -3.4820   22.0350  -29.1900 C   0  0  0  0  0  0  0  0  0  0  0  0
   -3.6630   21.8400  -27.8680 N   0  0  0  0  0  0  0  0  0  0  0  0
   -3.1010   20.6280  -27.6740 C   0  0  0  0  0  0  0  0  0  0  0  0
   -2.5960   20.1050  -28.8090 N   0  0  0  0  0  0  0  0  0  0  0  0
   -2.8410   20.9910  -29.7580 N   0  0  0  0  0  0  0  0  0  0  0  0
   -2.5060   20.7850  -31.1400 C   0  0  0  0  0  0  0  0  0  0  0  0
   -1.3630   21.3790  -31.7050 C   0  0  0  0  0  0  0  0  0  0  0  0
   -1.0520   21.1720  -33.0520 C   0  0  0  0  0  0  0  0  0  0  0  0
   -1.8840   20.3820  -33.8490 C   0  0  0  0  0  0  0  0  0  0  0  0
   -3.0340   19.8060  -33.3020 C   0  0  0  0  0  0  0  0  0  0  0  0
   -3.3480   20.0110  -31.9550 C   0  0  0  0  0  0  0  0  0  0  0  0
   -2.2097   24.7880  -27.8843 H   0  0  0  0  0  0  0  0  0  0  0  0
   -1.1879   24.1294  -29.2067 H   0  0  0  0  0  0  0  0  0  0  0  0
   -1.6475   25.8659  -29.2067 H   0  0  0  0  0  0  0  0  0  0  0  0
   -7.3951   23.0498  -29.6184 H   0  0  0  0  0  0  0  0  0  0  0  0
   -9.0823   21.4235  -30.4952 H   0  0  0  0  0  0  0  0  0  0  0  0
   -8.5612   20.0740  -32.5381 H   0  0  0  0  0  0  0  0  0  0  0  0
   -6.3535   20.3705  -33.6753 H   0  0  0  0  0  0  0  0  0  0  0  0
   -3.0598   20.1231  -26.6976 H   0  0  0  0  0  0  0  0  0  0  0  0
   -0.7104   22.0098  -31.0835 H   0  0  0  0  0  0  0  0  0  0  0  0
   -0.1512   21.6316  -33.4848 H   0  0  0  0  0  0  0  0  0  0  0  0
   -1.6341   20.2133  -34.9069 H   0  0  0  0  0  0  0  0  0  0  0  0
   -3.6930   19.1905  -33.9321 H   0  0  0  0  0  0  0  0  0  0  0  0
   -4.2593   19.5637  -31.5314 H   0  0  0  0  0  0  0  0  0  0  0  0
  1  2  1  0
  2  3  1  0
  3  4  1  0
  4  5  2  0
  5  6  1  0
  6  7  2  0
  7  8  1  0
  8  9  2  0
  9 10  1  0
 10 11  2  0
  5 12  1  0
 12 13  1  0
 13 14  2  0
 14 15  1  0
 15 16  2  0
 16 17  1  0
 17 18  1  0
 18 19  2  0
 19 20  1  0
 20 21  2  0
 21 22  1  0
 22 23  2  0
 12  2  2  0
 17 13  1  0
 23 18  1  0
 11  6  1  0
  1 24  1  0
  1 25  1  0
  1 26  1  0
  7 27  1  0
  8 28  1  0
  9 29  1  0
 10 30  1  0
 15 31  1  0
 19 32  1  0
 20 33  1  0
 21 34  1  0
 22 35  1  0
 23 36  1  0
M  END
>  <UniqueID>  (42) 
38

>  <SMILES>  (42) 
Cc1onc(-c2ccccn2)c1-c1ncnn1-c1ccccc1

>  <Energy>  (42) 
114.05508279289346

>  <Genealogy>  (42) 
Cc1onc(-c2ccccn2)c1-c1ncnn1-c1ccccc1 (3D coordinates assigned)
Cc1onc(-c2ccccn2)c1-c1ncnn1-c1ccccc1 (optimized conformer: 114.05508279289346 kcal/mol)

>  <smiles>  (42) 
Cc1onc(-c2ccccn2)c1-c1ncnn1-c1ccccc1

>  <score_type>  (42) 
oracle

>  <origin>  (42) 
adgpu

>  <m_score__min__energy>  (42) 
-7.7599999999999998

>  <m_primary>  (42) 
energy

$$$$
42:0
     RDKit          3D

 52 55  0  0  0  0  0  0  0  0999 V2000
   -5.0970   18.2060  -34.3820 C   0  0  0  0  0  0  0  0  0  0  0  0
   -3.9200   18.0200  -33.4270 C   0  0  0  0  0  0  0  0  0  0  0  0
   -2.6450   17.5550  -34.1610 C   0  0  0  0  0  0  0  0  0  0  0  0
   -1.3470   17.8830  -33.4080 C   0  0  0  0  0  0  0  0  0  0  0  0
   -0.5450   18.9610  -34.0830 C   0  0  0  0  0  0  0  0  0  0  0  0
   -0.0190   18.8130  -35.3210 N   0  0  0  0  0  0  0  0  0  0  0  0
    0.5860   19.9550  -35.6030 N   0  0  0  0  0  0  0  0  0  0  0  0
    1.3300   20.2150  -36.8290 C   0  0  0  0  0  0  0  0  0  0  0  0
    0.4460   20.7710  -34.5460 C   0  0  0  0  0  0  0  0  0  0  0  0
    0.9260   21.9350  -34.4810 O   0  0  0  0  0  0  0  0  0  0  0  0
   -0.2630   20.1840  -33.5640 N   0  0  0  0  0  0  0  0  0  0  0  0
   -0.6310   20.7590  -32.2670 C   0  0  0  0  0  0  0  0  0  0  0  0
   -2.1180   20.9750  -32.1880 C   0  0  0  0  0  0  0  0  0  0  0  0
   -2.8470   21.2700  -33.3500 C   0  0  0  0  0  0  0  0  0  0  0  0
   -4.2310   21.4530  -33.2880 C   0  0  0  0  0  0  0  0  0  0  0  0
   -4.9110   21.3130  -32.0660 C   0  0  0  0  0  0  0  0  0  0  0  0
   -6.3780   21.5120  -31.9950 C   0  0  0  0  0  0  0  0  0  0  0  0
   -7.2070   20.4790  -32.4690 C   0  0  0  0  0  0  0  0  0  0  0  0
   -8.5950   20.5710  -32.3570 C   0  0  0  0  0  0  0  0  0  0  0  0
   -9.1740   21.6920  -31.7670 C   0  0  0  0  0  0  0  0  0  0  0  0
   -8.3710   22.7330  -31.3020 C   0  0  0  0  0  0  0  0  0  0  0  0
   -6.9690   22.6710  -31.4200 C   0  0  0  0  0  0  0  0  0  0  0  0
   -6.1760   23.8430  -30.9720 C   0  0  0  0  0  0  0  0  0  0  0  0
   -5.0220   24.2390  -31.5490 N   0  0  0  0  0  0  0  0  0  0  0  0
   -4.6260   25.2840  -30.8430 N   0  0  0  0  0  0  0  0  0  0  0  0
   -5.4970   25.5070  -29.8760 N   0  0  0  0  0  0  0  0  0  0  0  0
   -6.4790   24.6240  -29.9150 N   0  0  0  0  0  0  0  0  0  0  0  0
   -4.1780   21.0350  -30.9020 C   0  0  0  0  0  0  0  0  0  0  0  0
   -2.7910   20.8720  -30.9620 C   0  0  0  0  0  0  0  0  0  0  0  0
   -6.0202   18.3519  -33.8020 H   0  0  0  0  0  0  0  0  0  0  0  0
   -4.9191   19.0872  -35.0159 H   0  0  0  0  0  0  0  0  0  0  0  0
   -5.1995   17.3129  -35.0159 H   0  0  0  0  0  0  0  0  0  0  0  0
   -3.7128   18.9784  -32.9286 H   0  0  0  0  0  0  0  0  0  0  0  0
   -4.1942   17.2426  -32.6987 H   0  0  0  0  0  0  0  0  0  0  0  0
   -2.7011   16.4651  -34.2987 H   0  0  0  0  0  0  0  0  0  0  0  0
   -2.6082   18.0966  -35.1177 H   0  0  0  0  0  0  0  0  0  0  0  0
   -1.6038   18.2183  -32.3923 H   0  0  0  0  0  0  0  0  0  0  0  0
   -0.7320   16.9712  -33.3902 H   0  0  0  0  0  0  0  0  0  0  0  0
    2.3407   20.5682  -36.5766 H   0  0  0  0  0  0  0  0  0  0  0  0
    1.4017   19.2886  -37.4178 H   0  0  0  0  0  0  0  0  0  0  0  0
    0.8091   20.9844  -37.4178 H   0  0  0  0  0  0  0  0  0  0  0  0
   -0.3222   20.0715  -31.4657 H   0  0  0  0  0  0  0  0  0  0  0  0
   -0.1245   21.7286  -32.1516 H   0  0  0  0  0  0  0  0  0  0  0  0
   -2.3263   21.3577  -34.3150 H   0  0  0  0  0  0  0  0  0  0  0  0
   -4.7909   21.7078  -34.1999 H   0  0  0  0  0  0  0  0  0  0  0  0
   -6.7563   19.5892  -32.9329 H   0  0  0  0  0  0  0  0  0  0  0  0
   -9.2321   19.7578  -32.7349 H   0  0  0  0  0  0  0  0  0  0  0  0
  -10.2676   21.7564  -31.6676 H   0  0  0  0  0  0  0  0  0  0  0  0
   -8.8385   23.6136  -30.8372 H   0  0  0  0  0  0  0  0  0  0  0  0
   -5.4180   26.2760  -29.1750 H   0  0  0  0  0  0  0  0  0  0  0  0
   -4.6979   20.9448  -29.9368 H   0  0  0  0  0  0  0  0  0  0  0  0
   -2.2245   20.6619  -30.0428 H   0  0  0  0  0  0  0  0  0  0  0  0
  1  2  1  0
  2  3  1  0
  3  4  1  0
  4  5  1  0
  5  6  2  0
  6  7  1  0
  7  8  1  0
  7  9  1  0
  9 10  2  0
  9 11  1  0
 11 12  1  0
 12 13  1  0
 13 14  2  0
 14 15  1  0
 15 16  2  0
 16 17  1  0
 17 18  2  0
 18 19  1  0
 19 20  2  0
 20 21  1  0
 21 22  2  0
 22 23  1  0
 23 24  1  0
 24 25  2  0
 25 26  1  0
 26 27  1  0
 16 28  1  0
 28 29  2  0
 11  5  1  0
 29 13  1  0
 22 17  1  0
 27 23  2  0
  1 30  1  0
  1 31  1  0
  1 32  1  0
  2 33  1  0
  2 34  1  0
  3 35  1  0
  3 36  1  0
  4 37  1  0
  4 38  1  0
  8 39  1  0
  8 40  1  0
  8 41  1  0
 12 42  1  0
 12 43  1  0
 14 44  1  0
 15 45  1  0
 18 46  1  0
 19 47  1  0
 20 48  1  0
 21 49  1  0
 26 50  1  0
 28 51  1  0
 29 52  1  0
M  END
>  <UniqueID>  (43) 
39

>  <SMILES>  (43) 
CCCCc1nn(C)c(=O)n1Cc1ccc(-c2ccccc2-c2nn[nH]n2)cc1

>  <Energy>  (43) 
133.48874848771126

>  <Genealogy>  (43) 
CCCCc1nn(C)c(=O)n1Cc1ccc(-c2ccccc2-c2nn[nH]n2)cc1 (3D coordinates assigned)
CCCCc1nn(C)c(=O)n1Cc1ccc(-c2ccccc2-c2nn[nH]n2)cc1 (optimized conformer: 133.48874848771126 kcal/mol)

>  <smiles>  (43) 
CCCCc1nn(C)c(=O)n1Cc1ccc(-c2ccccc2-c2nn[nH]n2)cc1

>  <score_type>  (43) 
oracle

>  <origin>  (43) 
adgpu

>  <m_score__min__energy>  (43) 
-10.109999999999999

>  <m_primary>  (43) 
energy

$$$$
43:0
     RDKit          3D

 39 41  0  0  0  0  0  0  0  0999 V2000
   -9.0440   19.2950  -32.3360 C   0  0  0  0  0  0  0  0  0  0  0  0
   -7.9560   20.3220  -32.2230 C   0  0  0  0  0  0  0  0  0  0  0  0
   -8.1910   21.5290  -31.5480 C   0  0  0  0  0  0  0  0  0  0  0  0
   -7.1670   22.4710  -31.4100 C   0  0  0  0  0  0  0  0  0  0  0  0
   -5.8910   22.2190  -31.9460 C   0  0  0  0  0  0  0  0  0  0  0  0
   -4.8150   23.1610  -31.7970 N   0  0  0  0  0  0  0  0  0  0  0  0
   -3.9770   23.2490  -30.6320 C   0  0  0  0  0  0  0  0  0  0  0  0
   -3.5590   22.0690  -30.0000 C   0  0  0  0  0  0  0  0  0  0  0  0
   -2.7330   22.1150  -28.8620 C   0  0  0  0  0  0  0  0  0  0  0  0
   -2.3090   20.8620  -28.1860 C   0  0  0  0  0  0  0  0  0  0  0  0
   -1.1060   20.2270  -28.5490 C   0  0  0  0  0  0  0  0  0  0  0  0
   -0.7080   19.0490  -27.9130 C   0  0  0  0  0  0  0  0  0  0  0  0
   -1.5010   18.4900  -26.9090 C   0  0  0  0  0  0  0  0  0  0  0  0
   -2.7010   19.1080  -26.5360 C   0  0  0  0  0  0  0  0  0  0  0  0
   -3.5160   18.5320  -25.5110 N   0  0  0  0  0  0  0  0  0  0  0  0
   -3.1020   20.2910  -27.1730 C   0  0  0  0  0  0  0  0  0  0  0  0
   -2.3150   23.3660  -28.3740 C   0  0  0  0  0  0  0  0  0  0  0  0
   -2.7050   24.5420  -29.0180 C   0  0  0  0  0  0  0  0  0  0  0  0
   -3.5220   24.4900  -30.1500 C   0  0  0  0  0  0  0  0  0  0  0  0
   -3.8560   25.6730  -30.8020 O   0  0  0  0  0  0  0  0  0  0  0  0
   -5.6510   20.9940  -32.5870 C   0  0  0  0  0  0  0  0  0  0  0  0
   -6.6740   20.0520  -32.7250 C   0  0  0  0  0  0  0  0  0  0  0  0
   -9.3667   18.9904  -31.3295 H   0  0  0  0  0  0  0  0  0  0  0  0
   -9.8980   19.7240  -32.8807 H   0  0  0  0  0  0  0  0  0  0  0  0
   -8.6650   18.4177  -32.8807 H   0  0  0  0  0  0  0  0  0  0  0  0
   -9.1854   21.7353  -31.1253 H   0  0  0  0  0  0  0  0  0  0  0  0
   -7.3603   23.4148  -30.8791 H   0  0  0  0  0  0  0  0  0  0  0  0
   -4.5790   23.7720  -32.6110 H   0  0  0  0  0  0  0  0  0  0  0  0
   -3.8808   21.0957  -30.3988 H   0  0  0  0  0  0  0  0  0  0  0  0
   -0.4754   20.6615  -29.3387 H   0  0  0  0  0  0  0  0  0  0  0  0
    0.2334   18.5600  -28.2041 H   0  0  0  0  0  0  0  0  0  0  0  0
   -1.1827   17.5627  -26.4102 H   0  0  0  0  0  0  0  0  0  0  0  0
   -4.5240   18.7890  -25.4210 H   0  0  0  0  0  0  0  0  0  0  0  0
   -3.1160   17.8430  -24.8340 H   0  0  0  0  0  0  0  0  0  0  0  0
   -4.0440   20.7768  -26.8786 H   0  0  0  0  0  0  0  0  0  0  0  0
   -1.6769   23.4184  -27.4795 H   0  0  0  0  0  0  0  0  0  0  0  0
   -2.3670   25.5149  -28.6318 H   0  0  0  0  0  0  0  0  0  0  0  0
   -4.6492   20.7734  -32.9842 H   0  0  0  0  0  0  0  0  0  0  0  0
   -6.4733   19.0951  -33.2291 H   0  0  0  0  0  0  0  0  0  0  0  0
  1  2  1  0
  2  3  2  0
  3  4  1  0
  4  5  2  0
  5  6  1  0
  6  7  1  0
  7  8  2  0
  8  9  1  0
  9 10  1  0
 10 11  2  0
 11 12  1  0
 12 13  2  0
 13 14  1  0
 14 15  1  0
 14 16  2  0
  9 17  2  0
 17 18  1  0
 18 19  2  0
 19 20  1  0
  5 21  1  0
 21 22  2  0
 22  2  1  0
 19  7  1  0
 16 10  1  0
  1 23  1  0
  1 24  1  0
  1 25  1  0
  3 26  1  0
  4 27  1  0
  6 28  1  0
  8 29  1  0
 11 30  1  0
 12 31  1  0
 13 32  1  0
 15 33  1  0
 15 34  1  0
 16 35  1  0
 17 36  1  0
 18 37  1  0
 21 38  1  0
 22 39  1  0
M  CHG  1  20  -1
M  END
>  <UniqueID>  (44) 
40

>  <SMILES>  (44) 
Cc1ccc(Nc2cc(-c3cccc(N)c3)ccc2[O-])cc1

>  <Energy>  (44) 
51.918577904840745

>  <Genealogy>  (44) 
Cc1ccc(Nc2cc(-c3cccc(N)c3)ccc2[O-])cc1 (protonated)
Cc1ccc(Nc2cc(-c3cccc(N)c3)ccc2[O-])cc1 (3D coordinates assigned)
Cc1ccc(Nc2cc(-c3cccc(N)c3)ccc2[O-])cc1 (optimized conformer: 51.918577904840745 kcal/mol)

>  <smiles>  (44) 
Cc1ccc(Nc2cc(-c3cccc(N)c3)ccc2O)cc1

>  <score_type>  (44) 
oracle

>  <origin>  (44) 
adgpu

>  <m_score__min__energy>  (44) 
-12.289999999999999

>  <m_primary>  (44) 
energy

$$$$
44:0
     RDKit          3D

 45 47  0  0  0  0  0  0  0  0999 V2000
   -0.2060   25.3090  -23.7270 N   0  0  0  0  0  0  0  0  0  0  0  0
   -1.0250   26.0280  -24.6580 C   0  0  0  0  0  0  0  0  0  0  0  0
   -1.5980   27.1330  -24.2840 N   0  0  0  0  0  0  0  0  0  0  0  0
   -1.2180   25.5010  -26.0340 C   0  0  0  0  0  0  0  0  0  0  0  0
   -0.1390   25.4220  -26.9330 C   0  0  0  0  0  0  0  0  0  0  0  0
   -0.3240   24.9110  -28.2200 C   0  0  0  0  0  0  0  0  0  0  0  0
   -1.5870   24.4780  -28.6290 C   0  0  0  0  0  0  0  0  0  0  0  0
   -2.6780   24.5630  -27.7530 C   0  0  0  0  0  0  0  0  0  0  0  0
   -4.0340   24.0760  -28.1820 C   0  0  0  0  0  0  0  0  0  0  0  0
   -3.8880   23.0250  -29.1850 N   0  0  0  0  0  0  0  0  0  0  0  0
   -4.0570   23.2630  -30.5900 C   0  0  0  0  0  0  0  0  0  0  0  0
   -4.4890   24.3760  -30.9990 O   0  0  0  0  0  0  0  0  0  0  0  0
   -3.7840   22.1900  -31.5690 C   0  0  0  0  0  0  0  0  0  0  0  0
   -2.4510   21.7920  -31.7740 C   0  0  0  0  0  0  0  0  0  0  0  0
   -2.1340   20.8440  -32.7470 C   0  0  0  0  0  0  0  0  0  0  0  0
   -3.1420   20.2780  -33.5270 C   0  0  0  0  0  0  0  0  0  0  0  0
   -4.4740   20.6440  -33.3220 C   0  0  0  0  0  0  0  0  0  0  0  0
   -4.8130   21.5870  -32.3360 C   0  0  0  0  0  0  0  0  0  0  0  0
   -6.2480   21.8540  -32.0780 C   0  0  0  0  0  0  0  0  0  0  0  0
   -6.7790   23.1380  -32.2840 C   0  0  0  0  0  0  0  0  0  0  0  0
   -8.1200   23.4010  -31.9940 C   0  0  0  0  0  0  0  0  0  0  0  0
   -8.9440   22.3820  -31.5090 C   0  0  0  0  0  0  0  0  0  0  0  0
   -8.4250   21.1020  -31.3030 C   0  0  0  0  0  0  0  0  0  0  0  0
   -7.0800   20.8370  -31.5780 C   0  0  0  0  0  0  0  0  0  0  0  0
   -2.4860   25.0600  -26.4530 C   0  0  0  0  0  0  0  0  0  0  0  0
   -0.0900   25.6480  -22.7460 H   0  0  0  0  0  0  0  0  0  0  0  0
    0.3280   24.4610  -24.0170 H   0  0  0  0  0  0  0  0  0  0  0  0
   -2.2330   27.6670  -24.9180 H   0  0  0  0  0  0  0  0  0  0  0  0
   -1.4590   27.5050  -23.3180 H   0  0  0  0  0  0  0  0  0  0  0  0
    0.8582   25.7652  -26.6202 H   0  0  0  0  0  0  0  0  0  0  0  0
    0.5278   24.8496  -28.9133 H   0  0  0  0  0  0  0  0  0  0  0  0
   -1.7261   24.0693  -29.6408 H   0  0  0  0  0  0  0  0  0  0  0  0
   -4.5711   23.6759  -27.3094 H   0  0  0  0  0  0  0  0  0  0  0  0
   -4.6007   24.9139  -28.6141 H   0  0  0  0  0  0  0  0  0  0  0  0
   -3.6150   22.0720  -28.8570 H   0  0  0  0  0  0  0  0  0  0  0  0
   -1.6506   22.2324  -31.1613 H   0  0  0  0  0  0  0  0  0  0  0  0
   -1.0872   20.5424  -32.8993 H   0  0  0  0  0  0  0  0  0  0  0  0
   -2.8876   19.5426  -34.3045 H   0  0  0  0  0  0  0  0  0  0  0  0
   -5.2649   20.1904  -33.9374 H   0  0  0  0  0  0  0  0  0  0  0  0
   -6.1360   23.9401  -32.6754 H   0  0  0  0  0  0  0  0  0  0  0  0
   -8.5276   24.4111  -32.1476 H   0  0  0  0  0  0  0  0  0  0  0  0
  -10.0020   22.5882  -31.2894 H   0  0  0  0  0  0  0  0  0  0  0  0
   -9.0758   20.3005  -30.9235 H   0  0  0  0  0  0  0  0  0  0  0  0
   -6.6719   19.8306  -31.4028 H   0  0  0  0  0  0  0  0  0  0  0  0
   -3.3358   25.1046  -25.7560 H   0  0  0  0  0  0  0  0  0  0  0  0
  1  2  1  0
  2  3  2  0
  2  4  1  0
  4  5  2  0
  5  6  1  0
  6  7  2  0
  7  8  1  0
  8  9  1  0
  9 10  1  0
 10 11  1  0
 11 12  2  0
 11 13  1  0
 13 14  2  0
 14 15  1  0
 15 16  2  0
 16 17  1  0
 17 18  2  0
 18 19  1  0
 19 20  2  0
 20 21  1  0
 21 22  2  0
 22 23  1  0
 23 24  2  0
  8 25  2  0
 25  4  1  0
 18 13  1  0
 24 19  1  0
  1 26  1  0
  1 27  1  0
  3 28  1  0
  3 29  1  0
  5 30  1  0
  6 31  1  0
  7 32  1  0
  9 33  1  0
  9 34  1  0
 10 35  1  0
 14 36  1  0
 15 37  1  0
 16 38  1  0
 17 39  1  0
 20 40  1  0
 21 41  1  0
 22 42  1  0
 23 43  1  0
 24 44  1  0
 25 45  1  0
M  CHG  1   3   1
M  END
>  <UniqueID>  (45) 
41

>  <SMILES>  (45) 
NC(=[NH2+])c1cccc(CNC(=O)c2ccccc2-c2ccccc2)c1

>  <Energy>  (45) 
54.254495246482705

>  <Genealogy>  (45) 
NC(=[NH2+])c1cccc(CNC(=O)c2ccccc2-c2ccccc2)c1 (protonated)
NC(=[NH2+])c1cccc(CNC(=O)c2ccccc2-c2ccccc2)c1 (3D coordinates assigned)
NC(=[NH2+])c1cccc(CNC(=O)c2ccccc2-c2ccccc2)c1 (optimized conformer: 54.254495246482705 kcal/mol)

>  <smiles>  (45) 
N=C(N)c1cccc(CNC(=O)c2ccccc2-c2ccccc2)c1

>  <score_type>  (45) 
oracle

>  <origin>  (45) 
adgpu

>  <m_score__min__energy>  (45) 
-9.7100000000000009

>  <m_primary>  (45) 
energy

$$$$
45:0
     RDKit          3D

 70 74  0  0  0  0  0  0  0  0999 V2000
    0.0600   20.3710  -28.6380 C   0  0  0  0  0  0  0  0  0  0  0  0
   -1.1820   21.1870  -28.3960 C   0  0  0  0  0  0  0  0  0  0  0  0
   -1.2790   22.4870  -28.9240 C   0  0  0  0  0  0  0  0  0  0  0  0
   -2.4530   23.2440  -28.7660 C   0  0  0  0  0  0  0  0  0  0  0  0
   -2.5790   24.6000  -29.3580 C   0  0  0  0  0  0  0  0  0  0  0  0
   -1.8230   25.5230  -28.9450 O   0  0  0  0  0  0  0  0  0  0  0  0
   -3.5020   24.9020  -30.4160 N   0  0  0  0  0  0  0  0  0  0  0  0
   -4.7920   24.3130  -30.6360 C   0  0  0  0  0  0  0  0  0  0  0  0
   -5.9330   25.0510  -30.3080 C   0  0  0  0  0  0  0  0  0  0  0  0
   -7.2050   24.5180  -30.5230 C   0  0  0  0  0  0  0  0  0  0  0  0
   -7.3610   23.2300  -31.0640 C   0  0  0  0  0  0  0  0  0  0  0  0
   -8.7540   22.7010  -31.2850 C   0  0  0  0  0  0  0  0  0  0  0  0
   -6.2080   22.4800  -31.4040 C   0  0  0  0  0  0  0  0  0  0  0  0
   -6.2900   21.1650  -32.0800 C   0  0  0  0  0  0  0  0  0  0  0  0
   -5.2360   20.7170  -32.8820 C   0  0  0  0  0  0  0  0  0  0  0  0
   -5.2680   19.4340  -33.4240 C   0  0  0  0  0  0  0  0  0  0  0  0
   -4.1650   18.9680  -34.2100 N   0  0  0  0  0  0  0  0  0  0  0  0
   -2.7970   19.0860  -33.7810 C   0  0  0  0  0  0  0  0  0  0  0  0
   -2.1590   20.3370  -33.7020 C   0  0  0  0  0  0  0  0  0  0  0  0
   -0.8210   20.4260  -33.3130 C   0  0  0  0  0  0  0  0  0  0  0  0
   -0.0960   19.2680  -32.9860 C   0  0  0  0  0  0  0  0  0  0  0  0
    1.2820   19.3630  -32.5820 N   0  0  0  0  0  0  0  0  0  0  0  0
    2.2590   20.0430  -33.4420 C   0  0  0  0  0  0  0  0  0  0  0  0
    3.6300   19.3320  -33.3890 C   0  0  0  0  0  0  0  0  0  0  0  0
    3.9470   18.7050  -32.0890 N   0  0  0  0  0  0  0  0  0  0  0  0
    3.1570   19.2470  -30.9760 C   0  0  0  0  0  0  0  0  0  0  0  0
    1.6640   18.9880  -31.2130 C   0  0  0  0  0  0  0  0  0  0  0  0
   -0.7340   18.0170  -33.0660 C   0  0  0  0  0  0  0  0  0  0  0  0
   -2.0720   17.9270  -33.4620 C   0  0  0  0  0  0  0  0  0  0  0  0
   -6.3720   18.6040  -33.1690 C   0  0  0  0  0  0  0  0  0  0  0  0
   -6.4000   17.4410  -33.6600 O   0  0  0  0  0  0  0  0  0  0  0  0
   -7.4120   19.0560  -32.3960 N   0  0  0  0  0  0  0  0  0  0  0  0
   -8.5620   18.1830  -32.1320 C   0  0  0  0  0  0  0  0  0  0  0  0
   -7.3730   20.3070  -31.8420 C   0  0  0  0  0  0  0  0  0  0  0  0
   -4.9370   23.0130  -31.1410 C   0  0  0  0  0  0  0  0  0  0  0  0
   -3.5210   22.7000  -28.0320 C   0  0  0  0  0  0  0  0  0  0  0  0
   -3.4280   21.4150  -27.4950 C   0  0  0  0  0  0  0  0  0  0  0  0
   -2.2700   20.6530  -27.6770 C   0  0  0  0  0  0  0  0  0  0  0  0
   -2.2160   19.0340  -26.9900 Cl  0  0  0  0  0  0  0  0  0  0  0  0
    0.5018   20.0808  -27.6733 H   0  0  0  0  0  0  0  0  0  0  0  0
   -0.2004   19.4674  -29.2087 H   0  0  0  0  0  0  0  0  0  0  0  0
    0.7860   20.9687  -29.2087 H   0  0  0  0  0  0  0  0  0  0  0  0
   -0.4250   22.9171  -29.4678 H   0  0  0  0  0  0  0  0  0  0  0  0
   -5.8278   26.0579  -29.8778 H   0  0  0  0  0  0  0  0  0  0  0  0
   -8.0946   25.1120  -30.2664 H   0  0  0  0  0  0  0  0  0  0  0  0
   -9.2353   22.5182  -30.3129 H   0  0  0  0  0  0  0  0  0  0  0  0
   -9.3408   23.4389  -31.8517 H   0  0  0  0  0  0  0  0  0  0  0  0
   -8.7031   21.7596  -31.8517 H   0  0  0  0  0  0  0  0  0  0  0  0
   -4.3807   21.3782  -33.0852 H   0  0  0  0  0  0  0  0  0  0  0  0
   -4.3700   18.5750  -35.1580 H   0  0  0  0  0  0  0  0  0  0  0  0
   -2.7181   21.2517  -33.9484 H   0  0  0  0  0  0  0  0  0  0  0  0
   -0.3312   21.4096  -33.2622 H   0  0  0  0  0  0  0  0  0  0  0  0
    1.8909   20.0385  -34.4786 H   0  0  0  0  0  0  0  0  0  0  0  0
    2.3845   21.0752  -33.0831 H   0  0  0  0  0  0  0  0  0  0  0  0
    3.6399   18.5475  -34.1600 H   0  0  0  0  0  0  0  0  0  0  0  0
    4.3910   20.1087  -33.5547 H   0  0  0  0  0  0  0  0  0  0  0  0
    3.7630   17.6750  -32.1530 H   0  0  0  0  0  0  0  0  0  0  0  0
    3.4664   18.7600  -30.0394 H   0  0  0  0  0  0  0  0  0  0  0  0
    3.3276   20.3316  -30.9085 H   0  0  0  0  0  0  0  0  0  0  0  0
    1.4542   17.9191  -31.0596 H   0  0  0  0  0  0  0  0  0  0  0  0
    1.0829   19.5967  -30.5046 H   0  0  0  0  0  0  0  0  0  0  0  0
   -0.1762   17.1027  -32.8152 H   0  0  0  0  0  0  0  0  0  0  0  0
   -2.5591   16.9427  -33.5239 H   0  0  0  0  0  0  0  0  0  0  0  0
   -8.7007   18.0777  -31.0459 H   0  0  0  0  0  0  0  0  0  0  0  0
   -9.4666   18.6239  -32.5761 H   0  0  0  0  0  0  0  0  0  0  0  0
   -8.3805   17.1931  -32.5761 H   0  0  0  0  0  0  0  0  0  0  0  0
   -8.2019   20.6435  -31.2019 H   0  0  0  0  0  0  0  0  0  0  0  0
   -4.0423   22.4028  -31.3336 H   0  0  0  0  0  0  0  0  0  0  0  0
   -4.4363   23.2908  -27.8797 H   0  0  0  0  0  0  0  0  0  0  0  0
   -4.2716   20.9990  -26.9247 H   0  0  0  0  0  0  0  0  0  0  0  0
  1  2  1  0
  2  3  2  0
  3  4  1  0
  4  5  1  0
  5  6  2  0
  5  7  1  0
  7  8  1  0
  8  9  2  0
  9 10  1  0
 10 11  2  0
 11 12  1  0
 11 13  1  0
 13 14  1  0
 14 15  1  0
 15 16  2  0
 16 17  1  0
 17 18  1  0
 18 19  2  0
 19 20  1  0
 20 21  2  0
 21 22  1  0
 22 23  1  0
 23 24  1  0
 24 25  1  0
 25 26  1  0
 26 27  1  0
 21 28  1  0
 28 29  2  0
 16 30  1  0
 30 31  2  0
 30 32  1  0
 32 33  1  0
 32 34  1  0
 13 35  2  0
  4 36  2  0
 36 37  1  0
 37 38  2  0
 38 39  1  0
 38  2  1  0
 35  8  1  0
 34 14  2  0
 29 18  1  0
 27 22  1  0
  1 40  1  0
  1 41  1  0
  1 42  1  0
  3 43  1  0
  9 44  1  0
 10 45  1  0
 12 46  1  0
 12 47  1  0
 12 48  1  0
 15 49  1  0
 17 50  1  0
 19 51  1  0
 20 52  1  0
 23 53  1  0
 23 54  1  0
 24 55  1  0
 24 56  1  0
 25 57  1  0
 26 58  1  0
 26 59  1  0
 27 60  1  0
 27 61  1  0
 28 62  1  0
 29 63  1  0
 33 64  1  0
 33 65  1  0
 33 66  1  0
 34 67  1  0
 35 68  1  0
 36 69  1  0
 37 70  1  0
M  CHG  1   7  -1
M  END
>  <UniqueID>  (46) 
42

>  <SMILES>  (46) 
Cc1cc(C(=O)[N-]c2ccc(C)c(-c3cc(Nc4ccc(N5CCNCC5)cc4)c(=O)n(C)c3)c2)ccc1Cl

>  <Energy>  (46) 
104.91125729959728

>  <Genealogy>  (46) 
Cc1cc(C(=O)[N-]c2ccc(C)c(-c3cc(Nc4ccc(N5CCNCC5)cc4)c(=O)n(C)c3)c2)ccc1Cl (protonated)
Cc1cc(C(=O)[N-]c2ccc(C)c(-c3cc(Nc4ccc(N5CCNCC5)cc4)c(=O)n(C)c3)c2)ccc1Cl (3D coordinates assigned)
Cc1cc(C(=O)[N-]c2ccc(C)c(-c3cc(Nc4ccc(N5CCNCC5)cc4)c(=O)n(C)c3)c2)ccc1Cl (nonaromatic ring conformer: 104.91125729959728 kcal/mol)

>  <smiles>  (46) 
Cc1cc(C(=O)Nc2ccc(C)c(-c3cc(Nc4ccc(N5CCNCC5)cc4)c(=O)n(C)c3)c2)ccc1Cl

>  <score_type>  (46) 
oracle

>  <origin>  (46) 
adgpu

>  <m_score__min__energy>  (46) 
-12.65

>  <m_primary>  (46) 
energy

$$$$
46:0
     RDKit          3D

 51 54  0  0  0  0  0  0  0  0999 V2000
   -4.8500   26.6470  -30.8340 H   0  0  0  0  0  0  0  0  0  0  0  0
   -4.3960   25.7830  -30.4590 N   0  0  0  0  0  0  0  0  0  0  0  0
   -4.7250   24.6040  -30.8840 C   0  0  0  0  0  0  0  0  0  0  0  0
   -5.6940   24.4810  -31.8320 N   0  0  0  0  0  0  0  0  0  0  0  0
   -6.1050   23.2730  -32.2980 C   0  0  0  0  0  0  0  0  0  0  0  0
   -6.8860   23.2210  -33.0709 H   0  0  0  0  0  0  0  0  0  0  0  0
   -5.5380   22.0920  -31.7980 C   0  0  0  0  0  0  0  0  0  0  0  0
   -5.9860   20.7650  -32.2930 C   0  0  0  0  0  0  0  0  0  0  0  0
   -7.1750   20.1910  -31.8140 C   0  0  0  0  0  0  0  0  0  0  0  0
   -7.7772   20.7289  -31.0670 H   0  0  0  0  0  0  0  0  0  0  0  0
   -7.6000   18.9440  -32.2770 C   0  0  0  0  0  0  0  0  0  0  0  0
   -9.0960   18.2610  -31.6580 Cl  0  0  0  0  0  0  0  0  0  0  0  0
   -6.8420   18.2480  -33.2290 C   0  0  0  0  0  0  0  0  0  0  0  0
   -7.2860   17.0040  -33.6770 O   0  0  0  0  0  0  0  0  0  0  0  0
   -6.7890   16.4720  -34.3810 H   0  0  0  0  0  0  0  0  0  0  0  0
   -5.6470   18.8060  -33.7210 C   0  0  0  0  0  0  0  0  0  0  0  0
   -4.9070   18.0860  -34.6720 O   0  0  0  0  0  0  0  0  0  0  0  0
   -3.9490   17.0810  -34.3600 C   0  0  0  0  0  0  0  0  0  0  0  0
   -3.8591   16.9866  -33.2678 H   0  0  0  0  0  0  0  0  0  0  0  0
   -4.2738   16.1201  -34.7855 H   0  0  0  0  0  0  0  0  0  0  0  0
   -2.9736   17.3595  -34.7855 H   0  0  0  0  0  0  0  0  0  0  0  0
   -5.2270   20.0640  -33.2480 C   0  0  0  0  0  0  0  0  0  0  0  0
   -4.2940   20.5041  -33.6298 H   0  0  0  0  0  0  0  0  0  0  0  0
   -4.5380   22.1940  -30.8190 C   0  0  0  0  0  0  0  0  0  0  0  0
   -4.0832   21.2800  -30.4094 H   0  0  0  0  0  0  0  0  0  0  0  0
   -4.1110   23.4490  -30.3560 C   0  0  0  0  0  0  0  0  0  0  0  0
   -3.0400   23.5230  -29.3300 C   0  0  0  0  0  0  0  0  0  0  0  0
   -1.7510   23.0500  -29.6060 C   0  0  0  0  0  0  0  0  0  0  0  0
   -1.5258   22.6275  -30.5964 H   0  0  0  0  0  0  0  0  0  0  0  0
   -0.7480   23.1100  -28.6340 C   0  0  0  0  0  0  0  0  0  0  0  0
    0.2596   22.7400  -28.8745 H   0  0  0  0  0  0  0  0  0  0  0  0
   -1.0050   23.6380  -27.3460 C   0  0  0  0  0  0  0  0  0  0  0  0
    0.0420   23.7020  -26.3270 N   0  0  0  0  0  0  0  0  0  0  0  0
    1.2030   24.5960  -26.5480 C   0  0  0  0  0  0  0  0  0  0  0  0
    1.6651   24.3280  -27.5096 H   0  0  0  0  0  0  0  0  0  0  0  0
    0.8140   25.6248  -26.5302 H   0  0  0  0  0  0  0  0  0  0  0  0
    2.2790   24.5180  -25.4620 C   0  0  0  0  0  0  0  0  0  0  0  0
    2.9296   23.6532  -25.6591 H   0  0  0  0  0  0  0  0  0  0  0  0
    2.8669   25.4476  -25.4776 H   0  0  0  0  0  0  0  0  0  0  0  0
    1.6690   24.3690  -24.1450 N   0  0  0  0  0  0  0  0  0  0  0  0
    2.4400   24.3760  -23.4370 H   0  0  0  0  0  0  0  0  0  0  0  0
    1.0260   23.0610  -24.0830 C   0  0  0  0  0  0  0  0  0  0  0  0
    1.7542   22.2864  -24.3653 H   0  0  0  0  0  0  0  0  0  0  0  0
    0.6674   22.8902  -23.0572 H   0  0  0  0  0  0  0  0  0  0  0  0
   -0.1670   23.0020  -25.0390 C   0  0  0  0  0  0  0  0  0  0  0  0
   -0.3831   21.9450  -25.2537 H   0  0  0  0  0  0  0  0  0  0  0  0
   -0.9975   23.5174  -24.5344 H   0  0  0  0  0  0  0  0  0  0  0  0
   -2.3140   24.1100  -27.0860 C   0  0  0  0  0  0  0  0  0  0  0  0
   -2.5490   24.5340  -26.0986 H   0  0  0  0  0  0  0  0  0  0  0  0
   -3.3130   24.0470  -28.0610 C   0  0  0  0  0  0  0  0  0  0  0  0
   -4.3241   24.4129  -27.8290 H   0  0  0  0  0  0  0  0  0  0  0  0
  1  2  1  0
  2  3  2  0
  3  4  1  0
  4  5  1  0
  5  6  1  0
  5  7  2  0
  7  8  1  0
  8  9  2  0
  9 10  1  0
  9 11  1  0
 11 12  1  0
 11 13  2  0
 13 14  1  0
 14 15  1  0
 13 16  1  0
 16 17  1  0
 17 18  1  0
 18 19  1  0
 18 20  1  0
 18 21  1  0
 16 22  2  0
 22 23  1  0
  7 24  1  0
 24 25  1  0
 24 26  2  0
 26 27  1  0
 27 28  2  0
 28 29  1  0
 28 30  1  0
 30 31  1  0
 30 32  2  0
 32 33  1  0
 33 34  1  0
 34 35  1  0
 34 36  1  0
 34 37  1  0
 37 38  1  0
 37 39  1  0
 37 40  1  0
 40 41  1  0
 40 42  1  0
 42 43  1  0
 42 44  1  0
 42 45  1  0
 45 46  1  0
 45 47  1  0
 32 48  1  0
 48 49  1  0
 48 50  2  0
 50 51  1  0
 26  3  1  0
 50 27  1  0
 22  8  1  0
 45 33  1  0
M  CHG  1   4  -1
M  END
>  <UniqueID>  (47) 
43

>  <SMILES>  (47) 
[H]/N=c1\[n-]cc(-c2cc(Cl)c(O)c(OC)c2)cc1-c1ccc(N2CCNCC2)cc1

>  <Energy>  (47) 
73.6981681544199

>  <Genealogy>  (47) 
COc1cc(-c2c[n-]c(=N)c(-c3ccc(N4CCNCC4)cc3)c2)cc(Cl)c1O (protonated)
[H]/N=c1\[n-]cc(-c2cc(Cl)c(O)c(OC)c2)cc1-c1ccc(N2CCNCC2)cc1 (cis-trans isomerization)
[H]/N=c1\[n-]cc(-c2cc(Cl)c(O)c(OC)c2)cc1-c1ccc(N2CCNCC2)cc1 (3D coordinates assigned)
[H]/N=c1\[n-]cc(-c2cc(Cl)c(O)c(OC)c2)cc1-c1ccc(N2CCNCC2)cc1 (nonaromatic ring conformer: 73.6981681544199 kcal/mol)

>  <smiles>  (47) 
COc1cc(-c2c[nH]c(=N)c(-c3ccc(N4CCNCC4)cc3)c2)cc(Cl)c1O

>  <score_type>  (47) 
oracle

>  <origin>  (47) 
adgpu

>  <m_score__min__energy>  (47) 
-9.6899999999999995

>  <m_primary>  (47) 
energy

$$$$
47:0
     RDKit          3D

 31 33  0  0  0  0  0  0  0  0999 V2000
    0.1570   24.1240  -28.1460 C   0  0  0  0  0  0  0  0  0  0  0  0
   -1.0740   23.4810  -28.7340 C   0  0  0  0  0  0  0  0  0  0  0  0
   -1.1950   22.0790  -28.7570 C   0  0  0  0  0  0  0  0  0  0  0  0
   -0.1910   21.2780  -28.2130 O   0  0  0  0  0  0  0  0  0  0  0  0
   -2.3230   21.4830  -29.3300 C   0  0  0  0  0  0  0  0  0  0  0  0
   -3.3290   22.2650  -29.8980 C   0  0  0  0  0  0  0  0  0  0  0  0
   -4.3900   21.6680  -30.4340 O   0  0  0  0  0  0  0  0  0  0  0  0
   -5.3890   22.3360  -31.0060 C   0  0  0  0  0  0  0  0  0  0  0  0
   -6.5270   21.5730  -31.5660 C   0  0  0  0  0  0  0  0  0  0  0  0
   -7.8140   21.7950  -31.0450 C   0  0  0  0  0  0  0  0  0  0  0  0
   -8.9150   21.0970  -31.5510 C   0  0  0  0  0  0  0  0  0  0  0  0
   -8.7420   20.1610  -32.5720 C   0  0  0  0  0  0  0  0  0  0  0  0
   -9.8380   19.4710  -33.0760 O   0  0  0  0  0  0  0  0  0  0  0  0
   -7.4660   19.9160  -33.0850 C   0  0  0  0  0  0  0  0  0  0  0  0
   -6.3570   20.6050  -32.5820 C   0  0  0  0  0  0  0  0  0  0  0  0
   -5.0940   20.3000  -33.0770 O   0  0  0  0  0  0  0  0  0  0  0  0
   -5.3560   23.7370  -31.0420 C   0  0  0  0  0  0  0  0  0  0  0  0
   -4.2660   24.4110  -30.4930 C   0  0  0  0  0  0  0  0  0  0  0  0
   -4.2450   25.6720  -30.5280 O   0  0  0  0  0  0  0  0  0  0  0  0
   -3.2160   23.6750  -29.9040 C   0  0  0  0  0  0  0  0  0  0  0  0
   -2.0740   24.2790  -29.3270 C   0  0  0  0  0  0  0  0  0  0  0  0
   -1.9240   25.6640  -29.3400 O   0  0  0  0  0  0  0  0  0  0  0  0
    0.0979   24.0931  -27.0480 H   0  0  0  0  0  0  0  0  0  0  0  0
    1.0513   23.5778  -28.4806 H   0  0  0  0  0  0  0  0  0  0  0  0
    0.2197   25.1700  -28.4806 H   0  0  0  0  0  0  0  0  0  0  0  0
   -0.3080   20.2760  -28.1060 H   0  0  0  0  0  0  0  0  0  0  0  0
   -2.4179   20.3871  -29.3328 H   0  0  0  0  0  0  0  0  0  0  0  0
   -7.9559   22.5234  -30.2330 H   0  0  0  0  0  0  0  0  0  0  0  0
   -9.9192   21.2859  -31.1437 H   0  0  0  0  0  0  0  0  0  0  0  0
   -7.3323   19.1772  -33.8890 H   0  0  0  0  0  0  0  0  0  0  0  0
   -6.1830   24.2998  -31.4995 H   0  0  0  0  0  0  0  0  0  0  0  0
  1  2  1  0
  2  3  2  0
  3  4  1  0
  3  5  1  0
  5  6  2  0
  6  7  1  0
  7  8  1  0
  8  9  1  0
  9 10  2  0
 10 11  1  0
 11 12  2  0
 12 13  1  0
 12 14  1  0
 14 15  2  0
 15 16  1  0
  8 17  2  0
 17 18  1  0
 18 19  2  0
 18 20  1  0
 20 21  2  0
 21 22  1  0
 21  2  1  0
 20  6  1  0
 15  9  1  0
  1 23  1  0
  1 24  1  0
  1 25  1  0
  4 26  1  0
  5 27  1  0
 10 28  1  0
 11 29  1  0
 14 30  1  0
 17 31  1  0
M  CHG  3  13  -1  16  -1  22  -1
M  END
>  <UniqueID>  (48) 
44

>  <SMILES>  (48) 
Cc1c(O)cc2oc(-c3ccc([O-])cc3[O-])cc(=O)c2c1[O-]

>  <Energy>  (48) 
47.25002658821692

>  <Genealogy>  (48) 
Cc1c(O)cc2oc(-c3ccc([O-])cc3[O-])cc(=O)c2c1[O-] (protonated)
Cc1c(O)cc2oc(-c3ccc([O-])cc3[O-])cc(=O)c2c1[O-] (3D coordinates assigned)
Cc1c(O)cc2oc(-c3ccc([O-])cc3[O-])cc(=O)c2c1[O-] (optimized conformer: 47.25002658821692 kcal/mol)

>  <smiles>  (48) 
Cc1c(O)cc2oc(-c3ccc(O)cc3O)cc(=O)c2c1O

>  <score_type>  (48) 
oracle

>  <origin>  (48) 
adgpu

>  <m_score__min__energy>  (48) 
-9.8699999999999992

>  <m_primary>  (48) 
energy

$$$$
