0:0
     RDKit          3D

 42 44  0  0  0  0  0  0  0  0999 V2000
   -0.6080   20.5660  -33.0710 C   0  0  0  0  0  0  0  0  0  0  0  0
   -2.0510   20.7680  -32.7210 C   0  0  0  0  0  0  0  0  0  0  0  0
   -2.6150   20.0870  -31.6310 C   0  0  0  0  0  0  0  0  0  0  0  0
   -3.9560   20.2850  -31.2950 C   0  0  0  0  0  0  0  0  0  0  0  0
   -4.7480   21.1730  -32.0400 C   0  0  0  0  0  0  0  0  0  0  0  0
   -6.1750   21.3580  -31.6990 C   0  0  0  0  0  0  0  0  0  0  0  0
   -7.1310   20.3890  -32.0950 C   0  0  0  0  0  0  0  0  0  0  0  0
   -6.7500   19.1450  -32.8630 C   0  0  0  0  0  0  0  0  0  0  0  0
   -6.4650   19.4820  -34.2530 N   0  0  0  0  0  0  0  0  0  0  0  0
   -8.4820   20.6100  -31.7950 C   0  0  0  0  0  0  0  0  0  0  0  0
   -8.8630   21.7170  -31.1100 N   0  0  0  0  0  0  0  0  0  0  0  0
   -7.9690   22.6500  -30.7000 C   0  0  0  0  0  0  0  0  0  0  0  0
   -6.6050   22.5030  -30.9830 C   0  0  0  0  0  0  0  0  0  0  0  0
   -5.4780   23.7580  -30.4280 S   0  0  0  0  0  0  0  0  0  0  0  0
   -6.2010   24.6720  -29.4800 O   0  0  0  0  0  0  0  0  0  0  0  0
   -4.9880   24.5710  -31.5940 O   0  0  0  0  0  0  0  0  0  0  0  0
   -4.0730   23.0380  -29.6450 C   0  0  0  0  0  0  0  0  0  0  0  0
   -4.2390   22.2980  -28.4660 C   0  0  0  0  0  0  0  0  0  0  0  0
   -3.1270   21.7610  -27.8110 C   0  0  0  0  0  0  0  0  0  0  0  0
   -1.8450   21.9570  -28.3330 C   0  0  0  0  0  0  0  0  0  0  0  0
   -0.7670   21.4420  -27.6900 F   0  0  0  0  0  0  0  0  0  0  0  0
   -1.6750   22.6880  -29.5130 C   0  0  0  0  0  0  0  0  0  0  0  0
   -0.4310   22.8870  -30.0160 F   0  0  0  0  0  0  0  0  0  0  0  0
   -2.7860   23.2250  -30.1700 C   0  0  0  0  0  0  0  0  0  0  0  0
   -4.1760   21.8840  -33.1040 C   0  0  0  0  0  0  0  0  0  0  0  0
   -2.8340   21.6840  -33.4420 C   0  0  0  0  0  0  0  0  0  0  0  0
   -0.0150   20.4830  -32.1482 H   0  0  0  0  0  0  0  0  0  0  0  0
   -0.4994   19.6439  -33.6608 H   0  0  0  0  0  0  0  0  0  0  0  0
   -0.2503   21.4228  -33.6608 H   0  0  0  0  0  0  0  0  0  0  0  0
   -1.9984   19.3946  -31.0391 H   0  0  0  0  0  0  0  0  0  0  0  0
   -4.3933   19.7431  -30.4434 H   0  0  0  0  0  0  0  0  0  0  0  0
   -5.8557   18.6954  -32.4069 H   0  0  0  0  0  0  0  0  0  0  0  0
   -7.5861   18.4310  -32.8297 H   0  0  0  0  0  0  0  0  0  0  0  0
   -6.4840   18.5950  -34.8060 H   0  0  0  0  0  0  0  0  0  0  0  0
   -7.2480   20.0750  -34.6130 H   0  0  0  0  0  0  0  0  0  0  0  0
   -9.2392   19.8802  -32.1175 H   0  0  0  0  0  0  0  0  0  0  0  0
   -8.3178   23.5303  -30.1401 H   0  0  0  0  0  0  0  0  0  0  0  0
   -5.2470   22.1395  -28.0552 H   0  0  0  0  0  0  0  0  0  0  0  0
   -3.2607   21.1838  -26.8842 H   0  0  0  0  0  0  0  0  0  0  0  0
   -2.6505   23.7954  -31.1007 H   0  0  0  0  0  0  0  0  0  0  0  0
   -4.7844   22.6011  -33.6746 H   0  0  0  0  0  0  0  0  0  0  0  0
   -2.3897   22.2466  -34.2763 H   0  0  0  0  0  0  0  0  0  0  0  0
  1  2  1  0
  2  3  2  0
  3  4  1  0
  4  5  2  0
  5  6  1  0
  6  7  2  0
  7  8  1  0
  8  9  1  0
  7 10  1  0
 10 11  2  0
 11 12  1  0
 12 13  2  0
 13 14  1  0
 14 15  2  0
 14 16  2  0
 14 17  1  0
 17 18  2  0
 18 19  1  0
 19 20  2  0
 20 21  1  0
 20 22  1  0
 22 23  1  0
 22 24  2  0
  5 25  1  0
 25 26  2  0
 26  2  1  0
 13  6  1  0
 24 17  1  0
  1 27  1  0
  1 28  1  0
  1 29  1  0
  3 30  1  0
  4 31  1  0
  8 32  1  0
  8 33  1  0
  9 34  1  0
  9 35  1  0
 10 36  1  0
 12 37  1  0
 18 38  1  0
 19 39  1  0
 24 40  1  0
 25 41  1  0
 26 42  1  0
M  END
>  <UniqueID>  (1) 
1

>  <SMILES>  (1) 
Cc1ccc(-c2c(CN)cncc2S(=O)(=O)c2ccc(F)c(F)c2)cc1

>  <Energy>  (1) 
51.14805209019922

>  <Genealogy>  (1) 
Cc1ccc(-c2c(CN)cncc2S(=O)(=O)c2ccc(F)c(F)c2)cc1 (3D coordinates assigned)
Cc1ccc(-c2c(CN)cncc2S(=O)(=O)c2ccc(F)c(F)c2)cc1 (optimized conformer: 51.14805209019922 kcal/mol)

>  <smiles>  (1) 
Cc1ccc(-c2c(CN)cncc2S(=O)(=O)c2ccc(F)c(F)c2)cc1

>  <score_type>  (1) 
oracle

>  <origin>  (1) 
adgpu

>  <m_score__min__energy>  (1) 
-8.6300000000000008

>  <m_primary>  (1) 
energy

$$$$
1:0
     RDKit          3D

 56 58  0  0  0  0  0  0  0  0999 V2000
    0.9600   27.9260  -22.8410 C   0  0  0  0  0  0  0  0  0  0  0  0
   -0.2880   27.5060  -23.3820 O   0  0  0  0  0  0  0  0  0  0  0  0
   -0.4350   26.4950  -24.3410 C   0  0  0  0  0  0  0  0  0  0  0  0
   -1.6310   26.3030  -25.0610 C   0  0  0  0  0  0  0  0  0  0  0  0
   -1.7260   25.2800  -26.0090 C   0  0  0  0  0  0  0  0  0  0  0  0
   -0.6390   24.4260  -26.2430 C   0  0  0  0  0  0  0  0  0  0  0  0
   -0.7690   23.1310  -27.4410 S   0  0  0  0  0  0  0  0  0  0  0  0
    0.0380   23.5100  -28.6510 O   0  0  0  0  0  0  0  0  0  0  0  0
   -0.1850   21.8660  -26.8730 O   0  0  0  0  0  0  0  0  0  0  0  0
   -2.4270   22.8460  -27.9230 N   0  0  0  0  0  0  0  0  0  0  0  0
   -2.8410   21.5010  -27.5000 C   0  0  0  0  0  0  0  0  0  0  0  0
   -2.5860   23.0080  -29.3810 C   0  0  0  0  0  0  0  0  0  0  0  0
   -2.7150   24.4650  -29.7530 C   0  0  0  0  0  0  0  0  0  0  0  0
   -1.8850   25.3010  -29.3050 O   0  0  0  0  0  0  0  0  0  0  0  0
   -3.8540   24.9440  -30.4760 N   0  0  0  0  0  0  0  0  0  0  0  0
   -5.0470   24.1810  -30.6700 C   0  0  0  0  0  0  0  0  0  0  0  0
   -5.4820   23.8630  -31.9620 C   0  0  0  0  0  0  0  0  0  0  0  0
   -6.6020   23.0480  -32.1460 C   0  0  0  0  0  0  0  0  0  0  0  0
   -7.3020   22.5540  -31.0370 C   0  0  0  0  0  0  0  0  0  0  0  0
   -8.6390   21.4250  -31.2640 S   0  0  0  0  0  0  0  0  0  0  0  0
   -9.3820   21.7800  -32.5220 O   0  0  0  0  0  0  0  0  0  0  0  0
   -9.5940   21.5470  -30.1080 O   0  0  0  0  0  0  0  0  0  0  0  0
   -8.0690   19.7740  -31.3650 N   0  0  0  0  0  0  0  0  0  0  0  0
   -6.6010   19.7140  -31.5530 C   0  0  0  0  0  0  0  0  0  0  0  0
   -6.2170   19.3810  -33.0090 C   0  0  0  0  0  0  0  0  0  0  0  0
   -6.7590   18.1510  -33.4740 O   0  0  0  0  0  0  0  0  0  0  0  0
   -8.0070   17.8140  -32.8800 C   0  0  0  0  0  0  0  0  0  0  0  0
   -8.8130   19.0320  -32.4020 C   0  0  0  0  0  0  0  0  0  0  0  0
   -6.9040   22.9300  -29.7460 C   0  0  0  0  0  0  0  0  0  0  0  0
   -5.7840   23.7480  -29.5640 C   0  0  0  0  0  0  0  0  0  0  0  0
    0.5530   24.6240  -25.5330 C   0  0  0  0  0  0  0  0  0  0  0  0
    0.6520   25.6500  -24.5900 C   0  0  0  0  0  0  0  0  0  0  0  0
    0.9079   27.9085  -21.7424 H   0  0  0  0  0  0  0  0  0  0  0  0
    1.7547   27.2458  -23.1813 H   0  0  0  0  0  0  0  0  0  0  0  0
    1.1817   28.9483  -23.1813 H   0  0  0  0  0  0  0  0  0  0  0  0
   -2.4932   26.9606  -24.8764 H   0  0  0  0  0  0  0  0  0  0  0  0
   -2.6594   25.1442  -26.5749 H   0  0  0  0  0  0  0  0  0  0  0  0
   -2.8565   21.4507  -26.4013 H   0  0  0  0  0  0  0  0  0  0  0  0
   -3.8466   21.2869  -27.8910 H   0  0  0  0  0  0  0  0  0  0  0  0
   -2.1298   20.7585  -27.8910 H   0  0  0  0  0  0  0  0  0  0  0  0
   -1.7067   22.5839  -29.8880 H   0  0  0  0  0  0  0  0  0  0  0  0
   -3.5014   22.4843  -29.6938 H   0  0  0  0  0  0  0  0  0  0  0  0
   -4.9404   24.2559  -32.8351 H   0  0  0  0  0  0  0  0  0  0  0  0
   -6.9348   22.7937  -33.1631 H   0  0  0  0  0  0  0  0  0  0  0  0
   -6.1688   20.6898  -31.2863 H   0  0  0  0  0  0  0  0  0  0  0  0
   -6.2087   18.9145  -30.9073 H   0  0  0  0  0  0  0  0  0  0  0  0
   -6.5827   20.1898  -33.6587 H   0  0  0  0  0  0  0  0  0  0  0  0
   -5.1218   19.2827  -33.0392 H   0  0  0  0  0  0  0  0  0  0  0  0
   -8.6088   17.2689  -33.6221 H   0  0  0  0  0  0  0  0  0  0  0  0
   -7.7857   17.2060  -31.9904 H   0  0  0  0  0  0  0  0  0  0  0  0
   -9.0027   19.6979  -33.2568 H   0  0  0  0  0  0  0  0  0  0  0  0
   -9.7637   18.6818  -31.9736 H   0  0  0  0  0  0  0  0  0  0  0  0
   -7.4747   22.5803  -28.8731 H   0  0  0  0  0  0  0  0  0  0  0  0
   -5.4831   24.0506  -28.5502 H   0  0  0  0  0  0  0  0  0  0  0  0
    1.4158   23.9676  -25.7194 H   0  0  0  0  0  0  0  0  0  0  0  0
    1.5927   25.7948  -24.0385 H   0  0  0  0  0  0  0  0  0  0  0  0
  1  2  1  0
  2  3  1  0
  3  4  2  0
  4  5  1  0
  5  6  2  0
  6  7  1  0
  7  8  2  0
  7  9  2  0
  7 10  1  0
 10 11  1  0
 10 12  1  0
 12 13  1  0
 13 14  2  0
 13 15  1  0
 15 16  1  0
 16 17  2  0
 17 18  1  0
 18 19  2  0
 19 20  1  0
 20 21  2  0
 20 22  2  0
 20 23  1  0
 23 24  1  0
 24 25  1  0
 25 26  1  0
 26 27  1  0
 27 28  1  0
 19 29  1  0
 29 30  2  0
  6 31  1  0
 31 32  2  0
 32  3  1  0
 30 16  1  0
 28 23  1  0
  1 33  1  0
  1 34  1  0
  1 35  1  0
  4 36  1  0
  5 37  1  0
 11 38  1  0
 11 39  1  0
 11 40  1  0
 12 41  1  0
 12 42  1  0
 17 43  1  0
 18 44  1  0
 24 45  1  0
 24 46  1  0
 25 47  1  0
 25 48  1  0
 27 49  1  0
 27 50  1  0
 28 51  1  0
 28 52  1  0
 29 53  1  0
 30 54  1  0
 31 55  1  0
 32 56  1  0
M  CHG  1  15  -1
M  END
>  <UniqueID>  (2) 
2

>  <SMILES>  (2) 
COc1ccc(S(=O)(=O)N(C)CC(=O)[N-]c2ccc(S(=O)(=O)N3CCOCC3)cc2)cc1

>  <Energy>  (2) 
70.24524121756409

>  <Genealogy>  (2) 
COc1ccc(S(=O)(=O)N(C)CC(=O)[N-]c2ccc(S(=O)(=O)N3CCOCC3)cc2)cc1 (protonated)
COc1ccc(S(=O)(=O)N(C)CC(=O)[N-]c2ccc(S(=O)(=O)N3CCOCC3)cc2)cc1 (3D coordinates assigned)
COc1ccc(S(=O)(=O)N(C)CC(=O)[N-]c2ccc(S(=O)(=O)N3CCOCC3)cc2)cc1 (nonaromatic ring conformer: 70.24524121756409 kcal/mol)

>  <smiles>  (2) 
COc1ccc(S(=O)(=O)N(C)CC(=O)Nc2ccc(S(=O)(=O)N3CCOCC3)cc2)cc1

>  <score_type>  (2) 
oracle

>  <origin>  (2) 
adgpu

>  <m_score__min__energy>  (2) 
-11.24

>  <m_primary>  (2) 
energy

$$$$
2:0
     RDKit          3D

 55 58  0  0  0  0  0  0  0  0999 V2000
   -5.7030   26.6650  -30.1530 O   0  0  0  0  0  0  0  0  0  0  0  0
   -5.2610   25.5260  -30.4690 C   0  0  0  0  0  0  0  0  0  0  0  0
   -3.8500   25.2970  -30.4630 N   0  0  0  0  0  0  0  0  0  0  0  0
   -3.2160   24.2320  -29.7410 C   0  0  0  0  0  0  0  0  0  0  0  0
   -3.1660   24.2950  -28.3450 C   0  0  0  0  0  0  0  0  0  0  0  0
   -2.4620   23.3290  -27.6220 C   0  0  0  0  0  0  0  0  0  0  0  0
   -1.7970   22.2980  -28.2880 C   0  0  0  0  0  0  0  0  0  0  0  0
   -1.8480   22.2160  -29.6890 C   0  0  0  0  0  0  0  0  0  0  0  0
   -0.9730   20.9440  -30.5470 S   0  0  0  0  0  0  0  0  0  0  0  0
   -0.2680   20.0690  -29.5460 O   0  0  0  0  0  0  0  0  0  0  0  0
    0.0710   21.5720  -31.4290 O   0  0  0  0  0  0  0  0  0  0  0  0
   -2.0310   19.9710  -31.5500 N   0  0  0  0  0  0  0  0  0  0  0  0
   -1.4720   19.7840  -32.8920 C   0  0  0  0  0  0  0  0  0  0  0  0
   -2.1600   20.7630  -33.8290 C   0  0  0  0  0  0  0  0  0  0  0  0
   -3.4830   21.0780  -33.1640 C   0  0  0  0  0  0  0  0  0  0  0  0
   -3.3540   20.5920  -31.7240 C   0  0  0  0  0  0  0  0  0  0  0  0
   -2.5720   23.1750  -30.4080 C   0  0  0  0  0  0  0  0  0  0  0  0
   -6.1930   24.4230  -30.7910 C   0  0  0  0  0  0  0  0  0  0  0  0
   -6.8020   23.6790  -29.7640 C   0  0  0  0  0  0  0  0  0  0  0  0
   -7.6170   22.5870  -30.0670 C   0  0  0  0  0  0  0  0  0  0  0  0
   -7.8360   22.2170  -31.4010 C   0  0  0  0  0  0  0  0  0  0  0  0
   -8.8100   20.7950  -31.7820 S   0  0  0  0  0  0  0  0  0  0  0  0
   -9.0880   20.0350  -30.5150 O   0  0  0  0  0  0  0  0  0  0  0  0
  -10.1280   21.2380  -32.3530 O   0  0  0  0  0  0  0  0  0  0  0  0
   -8.0110   19.7400  -32.9270 N   0  0  0  0  0  0  0  0  0  0  0  0
   -8.2420   18.3290  -32.5990 C   0  0  0  0  0  0  0  0  0  0  0  0
   -7.0240   17.7980  -31.8550 C   0  0  0  0  0  0  0  0  0  0  0  0
   -5.9480   18.8550  -32.0140 C   0  0  0  0  0  0  0  0  0  0  0  0
   -6.5570   19.9320  -32.8990 C   0  0  0  0  0  0  0  0  0  0  0  0
   -7.2540   22.9690  -32.4290 C   0  0  0  0  0  0  0  0  0  0  0  0
   -6.4370   24.0610  -32.1280 C   0  0  0  0  0  0  0  0  0  0  0  0
   -3.6829   25.1081  -27.8142 H   0  0  0  0  0  0  0  0  0  0  0  0
   -2.4315   23.3810  -26.5236 H   0  0  0  0  0  0  0  0  0  0  0  0
   -1.2320   21.5485  -27.7144 H   0  0  0  0  0  0  0  0  0  0  0  0
   -0.3898   19.9805  -32.8761 H   0  0  0  0  0  0  0  0  0  0  0  0
   -1.6348   18.7509  -33.2328 H   0  0  0  0  0  0  0  0  0  0  0  0
   -1.5579   21.6764  -33.9439 H   0  0  0  0  0  0  0  0  0  0  0  0
   -2.2937   20.3450  -34.8377 H   0  0  0  0  0  0  0  0  0  0  0  0
   -3.6741   22.1610  -33.1865 H   0  0  0  0  0  0  0  0  0  0  0  0
   -4.3214   20.5888  -33.6815 H   0  0  0  0  0  0  0  0  0  0  0  0
   -3.4560   21.4440  -31.0357 H   0  0  0  0  0  0  0  0  0  0  0  0
   -4.1433   19.8578  -31.5051 H   0  0  0  0  0  0  0  0  0  0  0  0
   -2.6374   23.1008  -31.5035 H   0  0  0  0  0  0  0  0  0  0  0  0
   -6.6346   23.9601  -28.7138 H   0  0  0  0  0  0  0  0  0  0  0  0
   -8.0894   22.0144  -29.2553 H   0  0  0  0  0  0  0  0  0  0  0  0
   -9.1342   18.2378  -31.9621 H   0  0  0  0  0  0  0  0  0  0  0  0
   -8.4016   17.7500  -33.5206 H   0  0  0  0  0  0  0  0  0  0  0  0
   -7.2602   17.6491  -30.7910 H   0  0  0  0  0  0  0  0  0  0  0  0
   -6.6983   16.8261  -32.2542 H   0  0  0  0  0  0  0  0  0  0  0  0
   -5.6735   19.2734  -31.0344 H   0  0  0  0  0  0  0  0  0  0  0  0
   -5.0307   18.4377  -32.4550 H   0  0  0  0  0  0  0  0  0  0  0  0
   -6.3212   20.9258  -32.4906 H   0  0  0  0  0  0  0  0  0  0  0  0
   -6.1466   19.8616  -33.9171 H   0  0  0  0  0  0  0  0  0  0  0  0
   -7.4412   22.6983  -33.4786 H   0  0  0  0  0  0  0  0  0  0  0  0
   -5.9809   24.6424  -32.9428 H   0  0  0  0  0  0  0  0  0  0  0  0
  1  2  2  0
  2  3  1  0
  3  4  1  0
  4  5  2  0
  5  6  1  0
  6  7  2  0
  7  8  1  0
  8  9  1  0
  9 10  2  0
  9 11  2  0
  9 12  1  0
 12 13  1  0
 13 14  1  0
 14 15  1  0
 15 16  1  0
  8 17  2  0
  2 18  1  0
 18 19  2  0
 19 20  1  0
 20 21  2  0
 21 22  1  0
 22 23  2  0
 22 24  2  0
 22 25  1  0
 25 26  1  0
 26 27  1  0
 27 28  1  0
 28 29  1  0
 21 30  1  0
 30 31  2  0
 17  4  1  0
 31 18  1  0
 16 12  1  0
 29 25  1  0
  5 32  1  0
  6 33  1  0
  7 34  1  0
 13 35  1  0
 13 36  1  0
 14 37  1  0
 14 38  1  0
 15 39  1  0
 15 40  1  0
 16 41  1  0
 16 42  1  0
 17 43  1  0
 19 44  1  0
 20 45  1  0
 26 46  1  0
 26 47  1  0
 27 48  1  0
 27 49  1  0
 28 50  1  0
 28 51  1  0
 29 52  1  0
 29 53  1  0
 30 54  1  0
 31 55  1  0
M  CHG  1   3  -1
M  END
>  <UniqueID>  (3) 
3

>  <SMILES>  (3) 
O=C([N-]c1cccc(S(=O)(=O)N2CCCC2)c1)c1ccc(S(=O)(=O)N2CCCC2)cc1

>  <Energy>  (3) 
63.05072253044867

>  <Genealogy>  (3) 
O=C([N-]c1cccc(S(=O)(=O)N2CCCC2)c1)c1ccc(S(=O)(=O)N2CCCC2)cc1 (protonated)
O=C([N-]c1cccc(S(=O)(=O)N2CCCC2)c1)c1ccc(S(=O)(=O)N2CCCC2)cc1 (3D coordinates assigned)
O=C([N-]c1cccc(S(=O)(=O)N2CCCC2)c1)c1ccc(S(=O)(=O)N2CCCC2)cc1 (nonaromatic ring conformer: 63.05072253044867 kcal/mol)

>  <smiles>  (3) 
O=C(Nc1cccc(S(=O)(=O)N2CCCC2)c1)c1ccc(S(=O)(=O)N2CCCC2)cc1

>  <score_type>  (3) 
oracle

>  <origin>  (3) 
adgpu

>  <m_score__min__energy>  (3) 
-12.970000000000001

>  <m_primary>  (3) 
energy

$$$$
3:0
     RDKit          3D

 52 54  0  0  0  0  0  0  0  0999 V2000
   -2.0180   25.0430  -27.8150 C   0  0  0  0  0  0  0  0  0  0  0  0
   -2.2630   24.0820  -28.9040 N   0  0  0  0  0  0  0  0  0  0  0  0
   -1.0260   23.3460  -29.2390 C   0  0  0  0  0  0  0  0  0  0  0  0
   -1.2920   22.2430  -30.2250 C   0  0  0  0  0  0  0  0  0  0  0  0
   -0.4910   21.2710  -30.2940 O   0  0  0  0  0  0  0  0  0  0  0  0
   -2.4570   22.2960  -31.0660 N   0  0  0  0  0  0  0  0  0  0  0  0
   -2.8170   21.2680  -32.0020 C   0  0  0  0  0  0  0  0  0  0  0  0
   -2.0850   21.1340  -33.1900 C   0  0  0  0  0  0  0  0  0  0  0  0
   -2.4210   20.1450  -34.1190 C   0  0  0  0  0  0  0  0  0  0  0  0
   -3.4970   19.2900  -33.8740 C   0  0  0  0  0  0  0  0  0  0  0  0
   -4.2500   19.4230  -32.7000 C   0  0  0  0  0  0  0  0  0  0  0  0
   -5.6040   18.3360  -32.3830 S   0  0  0  0  0  0  0  0  0  0  0  0
   -5.8530   18.2740  -30.9020 O   0  0  0  0  0  0  0  0  0  0  0  0
   -5.2450   16.9510  -32.8490 O   0  0  0  0  0  0  0  0  0  0  0  0
   -7.0670   18.8590  -33.1920 N   0  0  0  0  0  0  0  0  0  0  0  0
   -7.0890   20.3160  -33.3620 C   0  0  0  0  0  0  0  0  0  0  0  0
   -7.9460   20.9190  -32.2580 C   0  0  0  0  0  0  0  0  0  0  0  0
   -8.6760   19.7550  -31.6180 C   0  0  0  0  0  0  0  0  0  0  0  0
   -8.2560   18.5210  -32.4030 C   0  0  0  0  0  0  0  0  0  0  0  0
   -3.9190   20.4240  -31.7760 C   0  0  0  0  0  0  0  0  0  0  0  0
   -3.4360   23.2130  -28.6330 C   0  0  0  0  0  0  0  0  0  0  0  0
   -4.6560   23.5210  -29.4840 C   0  0  0  0  0  0  0  0  0  0  0  0
   -5.8220   22.7470  -29.3370 C   0  0  0  0  0  0  0  0  0  0  0  0
   -6.9570   23.0200  -30.1050 C   0  0  0  0  0  0  0  0  0  0  0  0
   -6.9370   24.0560  -31.0390 C   0  0  0  0  0  0  0  0  0  0  0  0
   -5.7780   24.8150  -31.2150 C   0  0  0  0  0  0  0  0  0  0  0  0
   -4.6360   24.5490  -30.4510 C   0  0  0  0  0  0  0  0  0  0  0  0
   -3.4870   25.3000  -30.6710 O   0  0  0  0  0  0  0  0  0  0  0  0
   -2.1464   24.5392  -26.8456 H   0  0  0  0  0  0  0  0  0  0  0  0
   -0.9920   25.4319  -27.8930 H   0  0  0  0  0  0  0  0  0  0  0  0
   -2.7326   25.8756  -27.8930 H   0  0  0  0  0  0  0  0  0  0  0  0
   -0.2994   24.0476  -29.6747 H   0  0  0  0  0  0  0  0  0  0  0  0
   -0.6308   22.8965  -28.3161 H   0  0  0  0  0  0  0  0  0  0  0  0
   -3.0040   23.1850  -31.0880 H   0  0  0  0  0  0  0  0  0  0  0  0
   -1.2417   21.8107  -33.3923 H   0  0  0  0  0  0  0  0  0  0  0  0
   -1.8364   20.0403  -35.0449 H   0  0  0  0  0  0  0  0  0  0  0  0
   -3.7545   18.5094  -34.6050 H   0  0  0  0  0  0  0  0  0  0  0  0
   -6.0652   20.7127  -33.2953 H   0  0  0  0  0  0  0  0  0  0  0  0
   -7.5067   20.5740  -34.3463 H   0  0  0  0  0  0  0  0  0  0  0  0
   -7.3127   21.4280  -31.5165 H   0  0  0  0  0  0  0  0  0  0  0  0
   -8.6477   21.6678  -32.6541 H   0  0  0  0  0  0  0  0  0  0  0  0
   -8.3854   19.6545  -30.5618 H   0  0  0  0  0  0  0  0  0  0  0  0
   -9.7664   19.8984  -31.6415 H   0  0  0  0  0  0  0  0  0  0  0  0
   -8.0207   17.7009  -31.7087 H   0  0  0  0  0  0  0  0  0  0  0  0
   -9.0718   18.1986  -33.0667 H   0  0  0  0  0  0  0  0  0  0  0  0
   -4.5259   20.5502  -30.8673 H   0  0  0  0  0  0  0  0  0  0  0  0
   -3.1414   22.1697  -28.8192 H   0  0  0  0  0  0  0  0  0  0  0  0
   -3.7278   23.3968  -27.5884 H   0  0  0  0  0  0  0  0  0  0  0  0
   -5.8401   21.9203  -28.6116 H   0  0  0  0  0  0  0  0  0  0  0  0
   -7.8676   22.4171  -29.9729 H   0  0  0  0  0  0  0  0  0  0  0  0
   -7.8340   24.2751  -31.6368 H   0  0  0  0  0  0  0  0  0  0  0  0
   -5.7626   25.6261  -31.9579 H   0  0  0  0  0  0  0  0  0  0  0  0
  1  2  1  0
  2  3  1  0
  3  4  1  0
  4  5  2  0
  4  6  1  0
  6  7  1  0
  7  8  2  0
  8  9  1  0
  9 10  2  0
 10 11  1  0
 11 12  1  0
 12 13  2  0
 12 14  2  0
 12 15  1  0
 15 16  1  0
 16 17  1  0
 17 18  1  0
 18 19  1  0
 11 20  2  0
  2 21  1  0
 21 22  1  0
 22 23  2  0
 23 24  1  0
 24 25  2  0
 25 26  1  0
 26 27  2  0
 27 28  1  0
 20  7  1  0
 27 22  1  0
 19 15  1  0
  1 29  1  0
  1 30  1  0
  1 31  1  0
  3 32  1  0
  3 33  1  0
  6 34  1  0
  8 35  1  0
  9 36  1  0
 10 37  1  0
 16 38  1  0
 16 39  1  0
 17 40  1  0
 17 41  1  0
 18 42  1  0
 18 43  1  0
 19 44  1  0
 19 45  1  0
 20 46  1  0
 21 47  1  0
 21 48  1  0
 23 49  1  0
 24 50  1  0
 25 51  1  0
 26 52  1  0
M  CHG  1  28  -1
M  END
>  <UniqueID>  (4) 
4

>  <SMILES>  (4) 
CN(CC(=O)Nc1cccc(S(=O)(=O)N2CCCC2)c1)Cc1ccccc1[O-]

>  <Energy>  (4) 
59.402788951501634

>  <Genealogy>  (4) 
CN(CC(=O)Nc1cccc(S(=O)(=O)N2CCCC2)c1)Cc1ccccc1[O-] (protonated)
CN(CC(=O)Nc1cccc(S(=O)(=O)N2CCCC2)c1)Cc1ccccc1[O-] (3D coordinates assigned)
CN(CC(=O)Nc1cccc(S(=O)(=O)N2CCCC2)c1)Cc1ccccc1[O-] (nonaromatic ring conformer: 59.402788951501634 kcal/mol)

>  <smiles>  (4) 
CN(CC(=O)Nc1cccc(S(=O)(=O)N2CCCC2)c1)Cc1ccccc1O

>  <score_type>  (4) 
oracle

>  <origin>  (4) 
adgpu

>  <m_score__min__energy>  (4) 
-12.59

>  <m_primary>  (4) 
energy

$$$$
4:0
     RDKit          3D

 48 49  0  0  0  0  0  0  0  0999 V2000
   -2.3420   21.0540  -28.5080 C   0  0  0  0  0  0  0  0  0  0  0  0
   -2.9080   22.0210  -29.2320 C   0  0  0  0  0  0  0  0  0  0  0  0
   -3.9630   21.7740  -30.0400 N   0  0  0  0  0  0  0  0  0  0  0  0
   -4.2910   22.9560  -30.6010 C   0  0  0  0  0  0  0  0  0  0  0  0
   -5.3080   23.1310  -31.4580 C   0  0  0  0  0  0  0  0  0  0  0  0
   -6.1780   22.0240  -31.9220 C   0  0  0  0  0  0  0  0  0  0  0  0
   -7.5630   22.1260  -31.7520 C   0  0  0  0  0  0  0  0  0  0  0  0
   -8.4070   21.0860  -32.1410 C   0  0  0  0  0  0  0  0  0  0  0  0
   -9.8870   21.1980  -31.9210 C   0  0  0  0  0  0  0  0  0  0  0  0
   -7.8600   19.9080  -32.6590 C   0  0  0  0  0  0  0  0  0  0  0  0
   -6.4630   19.7510  -32.8360 C   0  0  0  0  0  0  0  0  0  0  0  0
   -5.8690   18.4380  -33.4230 C   0  0  0  0  0  0  0  0  0  0  0  0
   -5.5540   18.5370  -34.9380 C   0  0  0  0  0  0  0  0  0  0  0  0
   -4.5410   18.0910  -32.7120 C   0  0  0  0  0  0  0  0  0  0  0  0
   -6.8760   17.2770  -33.2540 C   0  0  0  0  0  0  0  0  0  0  0  0
   -5.6220   20.8420  -32.4670 C   0  0  0  0  0  0  0  0  0  0  0  0
   -4.2410   20.7480  -32.6610 O   0  0  0  0  0  0  0  0  0  0  0  0
   -3.4520   23.9510  -30.1440 C   0  0  0  0  0  0  0  0  0  0  0  0
   -3.5020   25.2940  -30.5050 O   0  0  0  0  0  0  0  0  0  0  0  0
   -2.5540   23.3730  -29.2690 C   0  0  0  0  0  0  0  0  0  0  0  0
   -1.4670   24.0870  -28.5600 C   0  0  0  0  0  0  0  0  0  0  0  0
   -0.4840   24.5250  -29.2150 O   0  0  0  0  0  0  0  0  0  0  0  0
   -1.5140   24.2610  -27.1720 O   0  0  0  0  0  0  0  0  0  0  0  0
   -2.5360   24.9980  -26.5040 C   0  0  0  0  0  0  0  0  0  0  0  0
   -1.9280   25.9720  -25.5020 C   0  0  0  0  0  0  0  0  0  0  0  0
   -1.4843   21.2835  -27.8587 H   0  0  0  0  0  0  0  0  0  0  0  0
   -2.7330   20.0272  -28.5604 H   0  0  0  0  0  0  0  0  0  0  0  0
   -5.5061   24.1453  -31.8348 H   0  0  0  0  0  0  0  0  0  0  0  0
   -7.9909   23.0363  -31.3067 H   0  0  0  0  0  0  0  0  0  0  0  0
  -10.0970   21.2139  -30.8414 H   0  0  0  0  0  0  0  0  0  0  0  0
  -10.2567   22.1267  -32.3802 H   0  0  0  0  0  0  0  0  0  0  0  0
  -10.3923   20.3355  -32.3802 H   0  0  0  0  0  0  0  0  0  0  0  0
   -8.5315   19.0820  -32.9362 H   0  0  0  0  0  0  0  0  0  0  0  0
   -4.5128   18.8642  -35.0754 H   0  0  0  0  0  0  0  0  0  0  0  0
   -5.6936   17.5517  -35.4067 H   0  0  0  0  0  0  0  0  0  0  0  0
   -6.2321   19.2653  -35.4067 H   0  0  0  0  0  0  0  0  0  0  0  0
   -4.6875   18.1293  -31.6225 H   0  0  0  0  0  0  0  0  0  0  0  0
   -4.2223   17.0794  -33.0038 H   0  0  0  0  0  0  0  0  0  0  0  0
   -3.7682   18.8174  -33.0038 H   0  0  0  0  0  0  0  0  0  0  0  0
   -7.0405   17.0873  -32.1830 H   0  0  0  0  0  0  0  0  0  0  0  0
   -7.8304   17.5473  -33.7294 H   0  0  0  0  0  0  0  0  0  0  0  0
   -6.4735   16.3704  -33.7294 H   0  0  0  0  0  0  0  0  0  0  0  0
   -3.5540   21.0260  -31.9720 H   0  0  0  0  0  0  0  0  0  0  0  0
   -3.1197   25.5613  -27.2470 H   0  0  0  0  0  0  0  0  0  0  0  0
   -3.1856   24.2935  -25.9639 H   0  0  0  0  0  0  0  0  0  0  0  0
   -2.1428   25.6279  -24.4795 H   0  0  0  0  0  0  0  0  0  0  0  0
   -0.8393   26.0200  -25.6516 H   0  0  0  0  0  0  0  0  0  0  0  0
   -2.3631   26.9712  -25.6516 H   0  0  0  0  0  0  0  0  0  0  0  0
  1  2  2  0
  2  3  1  0
  3  4  1  0
  4  5  2  3
  5  6  1  0
  6  7  2  0
  7  8  1  0
  8  9  1  0
  8 10  2  0
 10 11  1  0
 11 12  1  0
 12 13  1  0
 12 14  1  0
 12 15  1  0
 11 16  2  0
 16 17  1  0
  4 18  1  0
 18 19  1  0
 18 20  2  0
 20 21  1  0
 21 22  2  0
 21 23  1  0
 23 24  1  0
 24 25  1  0
 20  2  1  0
 16  6  1  0
  1 26  1  0
  1 27  1  0
  5 28  1  0
  7 29  1  0
  9 30  1  0
  9 31  1  0
  9 32  1  0
 10 33  1  0
 13 34  1  0
 13 35  1  0
 13 36  1  0
 14 37  1  0
 14 38  1  0
 14 39  1  0
 15 40  1  0
 15 41  1  0
 15 42  1  0
 17 43  1  0
 24 44  1  0
 24 45  1  0
 25 46  1  0
 25 47  1  0
 25 48  1  0
M  CHG  2   3  -1  19  -1
M  END
>  <UniqueID>  (5) 
5

>  <SMILES>  (5) 
C=c1[n-]c(=Cc2cc(C)cc(C(C)(C)C)c2O)c([O-])c1C(=O)OCC

>  <Energy>  (5) 
83.68502648536456

>  <Genealogy>  (5) 
C=c1[n-]c(=Cc2cc(C)cc(C(C)(C)C)c2O)c([O-])c1C(=O)OCC (protonated)
C=c1[n-]c(=Cc2cc(C)cc(C(C)(C)C)c2O)c([O-])c1C(=O)OCC (3D coordinates assigned)
C=c1[n-]c(=Cc2cc(C)cc(C(C)(C)C)c2O)c([O-])c1C(=O)OCC (optimized conformer: 83.68502648536456 kcal/mol)

>  <smiles>  (5) 
C=c1[nH]c(=Cc2cc(C)cc(C(C)(C)C)c2O)c(O)c1C(=O)OCC

>  <score_type>  (5) 
oracle

>  <origin>  (5) 
adgpu

>  <m_score__min__energy>  (5) 
-12.130000000000001

>  <m_primary>  (5) 
energy

$$$$
5:0
     RDKit          3D

 62 65  0  0  0  0  0  0  0  0999 V2000
   -1.2870   21.4470  -34.1260 N   0  0  0  0  0  0  0  0  0  0  0  0
   -0.8760   20.8700  -32.8790 C   0  0  0  0  0  0  0  0  0  0  0  0
    0.3620   20.2150  -32.8040 C   0  0  0  0  0  0  0  0  0  0  0  0
    0.8210   19.7050  -31.5890 C   0  0  0  0  0  0  0  0  0  0  0  0
    0.0540   19.8460  -30.4280 C   0  0  0  0  0  0  0  0  0  0  0  0
    0.6270   19.1830  -28.8940 S   0  0  0  0  0  0  0  0  0  0  0  0
    2.1110   19.3940  -28.7870 O   0  0  0  0  0  0  0  0  0  0  0  0
    0.3630   17.7030  -28.8660 O   0  0  0  0  0  0  0  0  0  0  0  0
   -0.1700   19.9340  -27.5300 N   0  0  0  0  0  0  0  0  0  0  0  0
   -0.2680   21.3920  -27.7280 C   0  0  0  0  0  0  0  0  0  0  0  0
   -1.3760   21.9870  -26.8430 C   0  0  0  0  0  0  0  0  0  0  0  0
   -2.6710   21.4590  -27.1030 O   0  0  0  0  0  0  0  0  0  0  0  0
   -2.6560   20.1700  -27.7020 C   0  0  0  0  0  0  0  0  0  0  0  0
   -1.4740   19.2980  -27.2400 C   0  0  0  0  0  0  0  0  0  0  0  0
   -1.1810   20.5040  -30.4950 C   0  0  0  0  0  0  0  0  0  0  0  0
   -1.6670   20.9920  -31.7150 C   0  0  0  0  0  0  0  0  0  0  0  0
   -2.9640   21.6060  -31.7470 N   0  0  0  0  0  0  0  0  0  0  0  0
   -3.2820   22.7610  -30.9540 C   0  0  0  0  0  0  0  0  0  0  0  0
   -2.3690   23.3460  -30.3080 O   0  0  0  0  0  0  0  0  0  0  0  0
   -4.6580   23.3070  -30.9260 C   0  0  0  0  0  0  0  0  0  0  0  0
   -5.7430   22.4530  -31.1860 C   0  0  0  0  0  0  0  0  0  0  0  0
   -7.0590   22.9340  -31.1440 C   0  0  0  0  0  0  0  0  0  0  0  0
   -8.4120   21.8380  -31.4390 S   0  0  0  0  0  0  0  0  0  0  0  0
   -9.0660   21.4900  -30.1310 O   0  0  0  0  0  0  0  0  0  0  0  0
   -9.4300   22.5320  -32.3000 O   0  0  0  0  0  0  0  0  0  0  0  0
   -7.8880   20.3720  -32.2320 N   0  0  0  0  0  0  0  0  0  0  0  0
   -6.7670   20.6550  -33.1440 C   0  0  0  0  0  0  0  0  0  0  0  0
   -6.4710   19.4250  -34.0250 C   0  0  0  0  0  0  0  0  0  0  0  0
   -6.9430   18.1130  -33.3780 C   0  0  0  0  0  0  0  0  0  0  0  0
   -6.7680   18.1530  -31.8570 C   0  0  0  0  0  0  0  0  0  0  0  0
   -7.5090   19.3560  -31.2280 C   0  0  0  0  0  0  0  0  0  0  0  0
   -7.2930   24.2840  -30.8590 C   0  0  0  0  0  0  0  0  0  0  0  0
   -6.2220   25.1460  -30.6200 C   0  0  0  0  0  0  0  0  0  0  0  0
   -4.9070   24.6710  -30.6600 C   0  0  0  0  0  0  0  0  0  0  0  0
   -3.8610   25.5660  -30.4600 O   0  0  0  0  0  0  0  0  0  0  0  0
   -0.6440   21.4480  -34.9480 H   0  0  0  0  0  0  0  0  0  0  0  0
   -2.2010   21.9400  -34.2270 H   0  0  0  0  0  0  0  0  0  0  0  0
    0.9757   20.1025  -33.7099 H   0  0  0  0  0  0  0  0  0  0  0  0
    1.7915   19.1892  -31.5441 H   0  0  0  0  0  0  0  0  0  0  0  0
    0.6933   21.8576  -27.4651 H   0  0  0  0  0  0  0  0  0  0  0  0
   -0.5123   21.5903  -28.7820 H   0  0  0  0  0  0  0  0  0  0  0  0
   -1.1247   21.7845  -25.7914 H   0  0  0  0  0  0  0  0  0  0  0  0
   -1.4200   23.0627  -27.0687 H   0  0  0  0  0  0  0  0  0  0  0  0
   -3.5925   19.6540  -27.4438 H   0  0  0  0  0  0  0  0  0  0  0  0
   -2.5490   20.3159  -28.7870 H   0  0  0  0  0  0  0  0  0  0  0  0
   -1.5560   19.1343  -26.1553 H   0  0  0  0  0  0  0  0  0  0  0  0
   -1.5180   18.3465  -27.7902 H   0  0  0  0  0  0  0  0  0  0  0  0
   -1.7757   20.6390  -29.5795 H   0  0  0  0  0  0  0  0  0  0  0  0
   -3.5930   21.3700  -32.5470 H   0  0  0  0  0  0  0  0  0  0  0  0
   -5.5577   21.3954  -31.4251 H   0  0  0  0  0  0  0  0  0  0  0  0
   -7.0290   21.5078  -33.7875 H   0  0  0  0  0  0  0  0  0  0  0  0
   -5.8728   20.8928  -32.5492 H   0  0  0  0  0  0  0  0  0  0  0  0
   -6.9863   19.5488  -34.9889 H   0  0  0  0  0  0  0  0  0  0  0  0
   -5.3807   19.3610  -34.1558 H   0  0  0  0  0  0  0  0  0  0  0  0
   -8.0065   17.9589  -33.6132 H   0  0  0  0  0  0  0  0  0  0  0  0
   -6.3347   17.2882  -33.7777 H   0  0  0  0  0  0  0  0  0  0  0  0
   -7.1688   17.2231  -31.4274 H   0  0  0  0  0  0  0  0  0  0  0  0
   -5.6952   18.2579  -31.6376 H   0  0  0  0  0  0  0  0  0  0  0  0
   -8.4212   18.9900  -30.7341 H   0  0  0  0  0  0  0  0  0  0  0  0
   -6.8254   19.8327  -30.5101 H   0  0  0  0  0  0  0  0  0  0  0  0
   -8.3237   24.6666  -30.8233 H   0  0  0  0  0  0  0  0  0  0  0  0
   -6.4132   26.2064  -30.3986 H   0  0  0  0  0  0  0  0  0  0  0  0
  1  2  1  0
  2  3  2  0
  3  4  1  0
  4  5  2  0
  5  6  1  0
  6  7  2  0
  6  8  2  0
  6  9  1  0
  9 10  1  0
 10 11  1  0
 11 12  1  0
 12 13  1  0
 13 14  1  0
  5 15  1  0
 15 16  2  0
 16 17  1  0
 17 18  1  0
 18 19  2  0
 18 20  1  0
 20 21  2  0
 21 22  1  0
 22 23  1  0
 23 24  2  0
 23 25  2  0
 23 26  1  0
 26 27  1  0
 27 28  1  0
 28 29  1  0
 29 30  1  0
 30 31  1  0
 22 32  2  0
 32 33  1  0
 33 34  2  0
 34 35  1  0
 16  2  1  0
 34 20  1  0
 14  9  1  0
 31 26  1  0
  1 36  1  0
  1 37  1  0
  3 38  1  0
  4 39  1  0
 10 40  1  0
 10 41  1  0
 11 42  1  0
 11 43  1  0
 13 44  1  0
 13 45  1  0
 14 46  1  0
 14 47  1  0
 15 48  1  0
 17 49  1  0
 21 50  1  0
 27 51  1  0
 27 52  1  0
 28 53  1  0
 28 54  1  0
 29 55  1  0
 29 56  1  0
 30 57  1  0
 30 58  1  0
 31 59  1  0
 31 60  1  0
 32 61  1  0
 33 62  1  0
M  CHG  1  35  -1
M  END
>  <UniqueID>  (6) 
6

>  <SMILES>  (6) 
Nc1ccc(S(=O)(=O)N2CCOCC2)cc1NC(=O)c1cc(S(=O)(=O)N2CCCCC2)ccc1[O-]

>  <Energy>  (6) 
87.3276027394183

>  <Genealogy>  (6) 
Nc1ccc(S(=O)(=O)N2CCOCC2)cc1NC(=O)c1cc(S(=O)(=O)N2CCCCC2)ccc1[O-] (protonated)
Nc1ccc(S(=O)(=O)N2CCOCC2)cc1NC(=O)c1cc(S(=O)(=O)N2CCCCC2)ccc1[O-] (3D coordinates assigned)
Nc1ccc(S(=O)(=O)N2CCOCC2)cc1NC(=O)c1cc(S(=O)(=O)N2CCCCC2)ccc1[O-] (nonaromatic ring conformer: 87.3276027394183 kcal/mol)

>  <smiles>  (6) 
Nc1ccc(S(=O)(=O)N2CCOCC2)cc1NC(=O)c1cc(S(=O)(=O)N2CCCCC2)ccc1O

>  <score_type>  (6) 
oracle

>  <origin>  (6) 
adgpu

>  <m_score__min__energy>  (6) 
-14.09

>  <m_primary>  (6) 
energy

$$$$
6:0
     RDKit          3D

 45 49  0  0  0  0  0  0  0  0999 V2000
   -6.0380   19.4000  -34.5920 O   0  0  0  0  0  0  0  0  0  0  0  0
   -5.8010   19.9800  -33.3350 C   0  0  1  0  0  0  0  0  0  0  0  0
   -4.7830   21.0360  -33.4300 N   0  0  0  0  0  0  0  0  0  0  0  0
   -3.7060   21.1990  -32.4850 C   0  0  0  0  0  0  0  0  0  0  0  0
   -2.3480   21.1640  -32.8880 C   0  0  0  0  0  0  0  0  0  0  0  0
   -1.3180   21.3250  -31.9520 C   0  0  0  0  0  0  0  0  0  0  0  0
   -1.6430   21.5210  -30.6100 C   0  0  0  0  0  0  0  0  0  0  0  0
   -2.9850   21.5510  -30.1970 C   0  0  0  0  0  0  0  0  0  0  0  0
   -4.0160   21.3920  -31.1240 C   0  0  0  0  0  0  0  0  0  0  0  0
   -3.1670   21.7710  -28.7040 C   0  0  1  0  0  0  0  0  0  0  0  0
   -2.3530   20.6260  -28.0260 C   0  0  0  0  0  0  0  0  0  0  0  0
   -0.9290   20.6090  -28.5050 N   0  0  0  0  0  0  0  0  0  0  0  0
   -0.6530   21.7040  -29.4740 C   0  0  2  0  0  0  0  0  0  0  0  0
   -1.0500   23.0080  -28.7980 C   0  0  0  0  0  0  0  0  0  0  0  0
   -0.2120   24.1010  -28.5730 C   0  0  0  0  0  0  0  0  0  0  0  0
   -0.7290   25.2330  -27.9280 C   0  0  0  0  0  0  0  0  0  0  0  0
   -2.0720   25.2670  -27.5160 C   0  0  0  0  0  0  0  0  0  0  0  0
   -2.9120   24.1670  -27.7430 C   0  0  0  0  0  0  0  0  0  0  0  0
   -2.3940   23.0390  -28.3840 C   0  0  0  0  0  0  0  0  0  0  0  0
   -7.0960   20.5190  -32.7600 C   0  0  0  0  0  0  0  0  0  0  0  0
   -7.1660   21.8410  -32.2850 C   0  0  0  0  0  0  0  0  0  0  0  0
   -8.3590   22.3370  -31.7480 C   0  0  0  0  0  0  0  0  0  0  0  0
   -9.4900   21.5200  -31.6820 C   0  0  0  0  0  0  0  0  0  0  0  0
   -9.4330   20.2060  -32.1510 C   0  0  0  0  0  0  0  0  0  0  0  0
   -8.2430   19.7060  -32.6880 C   0  0  0  0  0  0  0  0  0  0  0  0
   -6.9450   19.6750  -34.8860 H   0  0  0  0  0  0  0  0  0  0  0  0
   -5.4142   19.2061  -32.6556 H   0  0  0  0  0  0  0  0  0  0  0  0
   -4.8420   21.7200  -34.2190 H   0  0  0  0  0  0  0  0  0  0  0  0
   -2.0995   21.0086  -33.9482 H   0  0  0  0  0  0  0  0  0  0  0  0
   -0.2658   21.2972  -32.2717 H   0  0  0  0  0  0  0  0  0  0  0  0
   -5.0650   21.4172  -30.7940 H   0  0  0  0  0  0  0  0  0  0  0  0
   -4.2219   21.8114  -28.3950 H   0  0  0  0  0  0  0  0  0  0  0  0
   -2.3625   20.7767  -26.9364 H   0  0  0  0  0  0  0  0  0  0  0  0
   -2.8192   19.6656  -28.2909 H   0  0  0  0  0  0  0  0  0  0  0  0
   -0.2900   20.7240  -27.6830 H   0  0  0  0  0  0  0  0  0  0  0  0
    0.3959   21.7034  -29.8054 H   0  0  0  0  0  0  0  0  0  0  0  0
    0.8388   24.0746  -28.8971 H   0  0  0  0  0  0  0  0  0  0  0  0
   -0.0789   26.1008  -27.7430 H   0  0  0  0  0  0  0  0  0  0  0  0
   -2.4669   26.1617  -27.0124 H   0  0  0  0  0  0  0  0  0  0  0  0
   -3.9635   24.1921  -27.4210 H   0  0  0  0  0  0  0  0  0  0  0  0
   -6.2781   22.4884  -32.3360 H   0  0  0  0  0  0  0  0  0  0  0  0
   -8.4063   23.3716  -31.3773 H   0  0  0  0  0  0  0  0  0  0  0  0
  -10.4270   21.9123  -31.2599 H   0  0  0  0  0  0  0  0  0  0  0  0
  -10.3247   19.5641  -32.0979 H   0  0  0  0  0  0  0  0  0  0  0  0
   -8.2027   18.6704  -33.0567 H   0  0  0  0  0  0  0  0  0  0  0  0
  1  2  1  0
  2  3  1  0
  3  4  1  0
  4  5  2  0
  5  6  1  0
  6  7  2  0
  7  8  1  0
  8  9  2  0
  8 10  1  0
 10 11  1  0
 11 12  1  0
 12 13  1  0
 13 14  1  0
 14 15  2  0
 15 16  1  0
 16 17  2  0
 17 18  1  0
 18 19  2  0
  2 20  1  0
 20 21  2  0
 21 22  1  0
 22 23  2  0
 23 24  1  0
 24 25  2  0
  9  4  1  0
 19 10  1  0
 25 20  1  0
 13  7  1  0
 19 14  1  0
  1 26  1  0
  2 27  1  1
  3 28  1  0
  5 29  1  0
  6 30  1  0
  9 31  1  0
 10 32  1  6
 11 33  1  0
 11 34  1  0
 12 35  1  0
 13 36  1  6
 15 37  1  0
 16 38  1  0
 17 39  1  0
 18 40  1  0
 21 41  1  0
 22 42  1  0
 23 43  1  0
 24 44  1  0
 25 45  1  0
M  END
>  <UniqueID>  (7) 
7

>  <SMILES>  (7) 
O[C@@H](Nc1ccc2c(c1)[C@H]1CNC2c2ccccc21)c1ccccc1

>  <Energy>  (7) 
86.95608580728594

>  <Genealogy>  (7) 
O[C@@H](Nc1ccc2c(c1)[C@H]1CNC2c2ccccc21)c1ccccc1 (chirality)
O[C@@H](Nc1ccc2c(c1)[C@H]1CNC2c2ccccc21)c1ccccc1 (3D coordinates assigned)
O[C@@H](Nc1ccc2c(c1)[C@H]1CNC2c2ccccc21)c1ccccc1 (nonaromatic ring conformer: 86.95608580728594 kcal/mol)

>  <smiles>  (7) 
OC(Nc1ccc2c(c1)C1CNC2c2ccccc21)c1ccccc1

>  <score_type>  (7) 
oracle

>  <origin>  (7) 
adgpu

>  <m_score__min__energy>  (7) 
-9.0500000000000007

>  <m_primary>  (7) 
energy

$$$$
7:0
     RDKit          3D

 40 42  0  0  0  0  0  0  0  0999 V2000
   -5.7160   26.4980  -30.1050 O   0  0  0  0  0  0  0  0  0  0  0  0
   -5.2050   25.4000  -30.4520 C   0  0  0  0  0  0  0  0  0  0  0  0
   -3.7750   25.2850  -30.4700 N   0  0  0  0  0  0  0  0  0  0  0  0
   -2.9890   24.3780  -29.6830 C   0  0  0  0  0  0  0  0  0  0  0  0
   -2.2520   24.8730  -28.6040 C   0  0  0  0  0  0  0  0  0  0  0  0
   -1.4690   24.0090  -27.8340 C   0  0  0  0  0  0  0  0  0  0  0  0
   -1.4220   22.6530  -28.1650 C   0  0  0  0  0  0  0  0  0  0  0  0
   -2.1240   22.1880  -29.2320 N   0  0  0  0  0  0  0  0  0  0  0  0
   -2.8950   23.0100  -29.9940 C   0  0  0  0  0  0  0  0  0  0  0  0
   -6.0890   24.2560  -30.7760 C   0  0  0  0  0  0  0  0  0  0  0  0
   -6.5920   24.1020  -32.0800 C   0  0  0  0  0  0  0  0  0  0  0  0
   -7.4190   23.0200  -32.3950 C   0  0  0  0  0  0  0  0  0  0  0  0
   -7.7690   22.0890  -31.4100 C   0  0  0  0  0  0  0  0  0  0  0  0
   -8.7770   20.7050  -31.8250 S   0  0  0  0  0  0  0  0  0  0  0  0
  -10.0900   21.1930  -32.3700 O   0  0  0  0  0  0  0  0  0  0  0  0
   -9.0460   19.8850  -30.5910 O   0  0  0  0  0  0  0  0  0  0  0  0
   -7.9640   19.7420  -33.0320 N   0  0  0  0  0  0  0  0  0  0  0  0
   -7.8870   18.3320  -32.6440 C   0  0  0  0  0  0  0  0  0  0  0  0
   -6.6600   17.7560  -33.3360 C   0  0  0  0  0  0  0  0  0  0  0  0
   -5.8090   18.9580  -33.7230 C   0  0  0  0  0  0  0  0  0  0  0  0
   -6.5800   20.1760  -33.2350 C   0  0  0  0  0  0  0  0  0  0  0  0
   -7.2830   22.2450  -30.1060 C   0  0  0  0  0  0  0  0  0  0  0  0
   -6.4560   23.3250  -29.7880 C   0  0  0  0  0  0  0  0  0  0  0  0
   -2.2883   25.9450  -28.3602 H   0  0  0  0  0  0  0  0  0  0  0  0
   -0.8961   24.3925  -26.9768 H   0  0  0  0  0  0  0  0  0  0  0  0
   -0.8164   21.9607  -27.5617 H   0  0  0  0  0  0  0  0  0  0  0  0
   -3.4459   22.6037  -30.8550 H   0  0  0  0  0  0  0  0  0  0  0  0
   -6.3333   24.8370  -32.8564 H   0  0  0  0  0  0  0  0  0  0  0  0
   -7.7963   22.8996  -33.4212 H   0  0  0  0  0  0  0  0  0  0  0  0
   -8.4900   19.8250  -33.9350 H   0  0  0  0  0  0  0  0  0  0  0  0
   -7.7832   18.2440  -31.5524 H   0  0  0  0  0  0  0  0  0  0  0  0
   -8.7982   17.7900  -32.9370 H   0  0  0  0  0  0  0  0  0  0  0  0
   -6.1060   17.0974  -32.6509 H   0  0  0  0  0  0  0  0  0  0  0  0
   -6.9328   17.1501  -34.2126 H   0  0  0  0  0  0  0  0  0  0  0  0
   -4.8246   18.9052  -33.2350 H   0  0  0  0  0  0  0  0  0  0  0  0
   -5.6274   18.9974  -34.8072 H   0  0  0  0  0  0  0  0  0  0  0  0
   -6.1540   20.5406  -32.2887 H   0  0  0  0  0  0  0  0  0  0  0  0
   -6.5251   20.9981  -33.9638 H   0  0  0  0  0  0  0  0  0  0  0  0
   -7.5534   21.5145  -29.3293 H   0  0  0  0  0  0  0  0  0  0  0  0
   -6.0895   23.4480  -28.7582 H   0  0  0  0  0  0  0  0  0  0  0  0
  1  2  2  0
  2  3  1  0
  3  4  1  0
  4  5  2  0
  5  6  1  0
  6  7  2  0
  7  8  1  0
  8  9  2  0
  2 10  1  0
 10 11  2  0
 11 12  1  0
 12 13  2  0
 13 14  1  0
 14 15  2  0
 14 16  2  0
 14 17  1  0
 17 18  1  0
 18 19  1  0
 19 20  1  0
 20 21  1  0
 13 22  1  0
 22 23  2  0
  9  4  1  0
 23 10  1  0
 21 17  1  0
  5 24  1  0
  6 25  1  0
  7 26  1  0
  9 27  1  0
 11 28  1  0
 12 29  1  0
 17 30  1  0
 18 31  1  0
 18 32  1  0
 19 33  1  0
 19 34  1  0
 20 35  1  0
 20 36  1  0
 21 37  1  0
 21 38  1  0
 22 39  1  0
 23 40  1  0
M  CHG  2   3  -1  17   1
M  END
>  <UniqueID>  (8) 
8

>  <SMILES>  (8) 
O=C([N-]c1cccnc1)c1ccc(S(=O)(=O)[NH+]2CCCC2)cc1

>  <Energy>  (8) 
49.498288395980154

>  <Genealogy>  (8) 
O=C([N-]c1cccnc1)c1ccc(S(=O)(=O)[NH+]2CCCC2)cc1 (protonated)
O=C([N-]c1cccnc1)c1ccc(S(=O)(=O)[NH+]2CCCC2)cc1 (3D coordinates assigned)
O=C([N-]c1cccnc1)c1ccc(S(=O)(=O)[NH+]2CCCC2)cc1 (nonaromatic ring conformer: 49.498288395980154 kcal/mol)

>  <smiles>  (8) 
O=C(Nc1cccnc1)c1ccc(S(=O)(=O)N2CCCC2)cc1

>  <score_type>  (8) 
oracle

>  <origin>  (8) 
adgpu

>  <m_score__min__energy>  (8) 
-10.26

>  <m_primary>  (8) 
energy

$$$$
8:0
     RDKit          3D

 48 51  0  0  0  0  0  0  0  0999 V2000
   -6.8340   21.9320  -31.8330 C   0  0  0  0  0  0  0  0  0  0  0  0
   -5.3570   21.6470  -31.7660 C   0  0  0  0  0  0  0  0  0  0  0  0
   -4.8880   20.4080  -32.2360 C   0  0  0  0  0  0  0  0  0  0  0  0
   -3.5360   20.0790  -32.1470 C   0  0  0  0  0  0  0  0  0  0  0  0
   -2.6300   20.9750  -31.5770 C   0  0  0  0  0  0  0  0  0  0  0  0
   -0.9360   20.5170  -31.4260 S   0  0  0  0  0  0  0  0  0  0  0  0
   -0.7570   19.4550  -30.3780 O   0  0  0  0  0  0  0  0  0  0  0  0
   -0.1420   21.7320  -31.0360 O   0  0  0  0  0  0  0  0  0  0  0  0
   -0.3570   19.9250  -32.9490 N   0  0  0  0  0  0  0  0  0  0  0  0
    0.2980   20.7240  -33.9460 C   0  0  0  0  0  0  0  0  0  0  0  0
   -0.4000   21.6870  -34.6950 C   0  0  0  0  0  0  0  0  0  0  0  0
    0.2630   22.4620  -35.6490 C   0  0  0  0  0  0  0  0  0  0  0  0
    1.6300   22.2890  -35.8770 C   0  0  0  0  0  0  0  0  0  0  0  0
    2.2670   23.0780  -36.8310 O   0  0  0  0  0  0  0  0  0  0  0  0
    2.3450   21.3270  -35.1420 C   0  0  0  0  0  0  0  0  0  0  0  0
    3.7230   21.1240  -35.3340 C   0  0  0  0  0  0  0  0  0  0  0  0
    4.4000   20.1670  -34.5770 C   0  0  0  0  0  0  0  0  0  0  0  0
    3.6980   19.4150  -33.6340 C   0  0  0  0  0  0  0  0  0  0  0  0
    2.3650   19.6140  -33.4570 N   0  0  0  0  0  0  0  0  0  0  0  0
    1.6720   20.5390  -34.1750 C   0  0  0  0  0  0  0  0  0  0  0  0
   -3.0820   22.2120  -31.1040 C   0  0  0  0  0  0  0  0  0  0  0  0
   -4.4410   22.5590  -31.1850 C   0  0  0  0  0  0  0  0  0  0  0  0
   -4.9680   24.1180  -30.5300 S   0  0  0  0  0  0  0  0  0  0  0  0
   -5.5810   24.9380  -31.6290 O   0  0  0  0  0  0  0  0  0  0  0  0
   -5.9720   23.8780  -29.4380 O   0  0  0  0  0  0  0  0  0  0  0  0
   -3.6140   24.9870  -29.8790 N   0  0  0  0  0  0  0  0  0  0  0  0
   -2.7330   24.4960  -28.8600 C   0  0  0  0  0  0  0  0  0  0  0  0
   -3.0230   23.3300  -28.1280 C   0  0  0  0  0  0  0  0  0  0  0  0
   -2.1340   22.8730  -27.1490 C   0  0  0  0  0  0  0  0  0  0  0  0
   -0.9550   23.5750  -26.8930 C   0  0  0  0  0  0  0  0  0  0  0  0
   -0.6600   24.7330  -27.6170 C   0  0  0  0  0  0  0  0  0  0  0  0
   -1.5420   25.1920  -28.6000 C   0  0  0  0  0  0  0  0  0  0  0  0
   -1.2340   26.3450  -29.3150 O   0  0  0  0  0  0  0  0  0  0  0  0
   -7.2390   22.0101  -30.8133 H   0  0  0  0  0  0  0  0  0  0  0  0
   -7.0008   22.8789  -32.3673 H   0  0  0  0  0  0  0  0  0  0  0  0
   -7.3412   21.1152  -32.3673 H   0  0  0  0  0  0  0  0  0  0  0  0
   -5.5948   19.6907  -32.6785 H   0  0  0  0  0  0  0  0  0  0  0  0
   -3.1819   19.1095  -32.5275 H   0  0  0  0  0  0  0  0  0  0  0  0
   -1.4777   21.8314  -34.5283 H   0  0  0  0  0  0  0  0  0  0  0  0
   -0.2956   23.2143  -36.2252 H   0  0  0  0  0  0  0  0  0  0  0  0
    4.2676   21.7198  -36.0813 H   0  0  0  0  0  0  0  0  0  0  0  0
    5.4785   20.0066  -34.7224 H   0  0  0  0  0  0  0  0  0  0  0  0
    4.2246   18.6594  -33.0325 H   0  0  0  0  0  0  0  0  0  0  0  0
   -2.3651   22.9207  -30.6638 H   0  0  0  0  0  0  0  0  0  0  0  0
   -3.9522   22.7756  -28.3261 H   0  0  0  0  0  0  0  0  0  0  0  0
   -2.3644   21.9598  -26.5806 H   0  0  0  0  0  0  0  0  0  0  0  0
   -0.2580   23.2165  -26.1212 H   0  0  0  0  0  0  0  0  0  0  0  0
    0.2691   25.2853  -27.4130 H   0  0  0  0  0  0  0  0  0  0  0  0
  1  2  1  0
  2  3  2  0
  3  4  1  0
  4  5  2  0
  5  6  1  0
  6  7  2  0
  6  8  2  0
  6  9  1  0
  9 10  1  0
 10 11  2  0
 11 12  1  0
 12 13  2  0
 13 14  1  0
 13 15  1  0
 15 16  2  0
 16 17  1  0
 17 18  2  0
 18 19  1  0
 19 20  2  0
  5 21  1  0
 21 22  2  0
 22 23  1  0
 23 24  2  0
 23 25  2  0
 23 26  1  0
 26 27  1  0
 27 28  2  0
 28 29  1  0
 29 30  2  0
 30 31  1  0
 31 32  2  0
 32 33  1  0
 22  2  1  0
 32 27  1  0
 20 10  1  0
 20 15  1  0
  1 34  1  0
  1 35  1  0
  1 36  1  0
  3 37  1  0
  4 38  1  0
 11 39  1  0
 12 40  1  0
 16 41  1  0
 17 42  1  0
 18 43  1  0
 21 44  1  0
 28 45  1  0
 29 46  1  0
 30 47  1  0
 31 48  1  0
M  CHG  4   9  -1  14  -1  26  -1  33  -1
M  END
>  <UniqueID>  (9) 
9

>  <SMILES>  (9) 
Cc1ccc(S(=O)(=O)[N-]c2ccc([O-])c3cccnc23)cc1S(=O)(=O)[N-]c1ccccc1[O-]

>  <Energy>  (9) 
66.91384299781916

>  <Genealogy>  (9) 
Cc1ccc(S(=O)(=O)[N-]c2ccc([O-])c3cccnc23)cc1S(=O)(=O)[N-]c1ccccc1[O-] (protonated)
Cc1ccc(S(=O)(=O)[N-]c2ccc([O-])c3cccnc23)cc1S(=O)(=O)[N-]c1ccccc1[O-] (3D coordinates assigned)
Cc1ccc(S(=O)(=O)[N-]c2ccc([O-])c3cccnc23)cc1S(=O)(=O)[N-]c1ccccc1[O-] (optimized conformer: 66.91384299781916 kcal/mol)

>  <smiles>  (9) 
Cc1ccc(S(=O)(=O)Nc2ccc(O)c3cccnc23)cc1S(=O)(=O)Nc1ccccc1O

>  <score_type>  (9) 
oracle

>  <origin>  (9) 
adgpu

>  <m_score__min__energy>  (9) 
-15.279999999999999

>  <m_primary>  (9) 
energy

$$$$
9:0
     RDKit          3D

 63 67  0  0  0  0  0  0  0  0999 V2000
    0.9490   19.7540  -30.1200 C   0  0  0  0  0  0  0  0  0  0  0  0
   -0.3650   20.1740  -30.6930 C   0  0  0  0  0  0  0  0  0  0  0  0
   -1.5180   20.1740  -29.9970 N   0  0  0  0  0  0  0  0  0  0  0  0
   -2.4790   20.5830  -30.8130 N   0  0  0  0  0  0  0  0  0  0  0  0
   -3.8650   20.7700  -30.3910 C   0  0  0  0  0  0  0  0  0  0  0  0
   -4.1820   22.2370  -30.3060 C   0  0  0  0  0  0  0  0  0  0  0  0
   -5.5070   22.6810  -30.4530 C   0  0  0  0  0  0  0  0  0  0  0  0
   -5.8130   24.0410  -30.3410 C   0  0  0  0  0  0  0  0  0  0  0  0
   -4.7980   24.9660  -30.0730 C   0  0  0  0  0  0  0  0  0  0  0  0
   -3.4800   24.5310  -29.9130 C   0  0  0  0  0  0  0  0  0  0  0  0
   -3.1700   23.1720  -30.0260 C   0  0  0  0  0  0  0  0  0  0  0  0
   -1.9570   20.8620  -32.0260 C   0  0  0  0  0  0  0  0  0  0  0  0
   -2.8620   21.4480  -33.4150 Cl  0  0  0  0  0  0  0  0  0  0  0  0
   -0.6020   20.6060  -31.9890 C   0  0  0  0  0  0  0  0  0  0  0  0
    0.3800   20.7490  -33.1180 C   0  0  0  0  0  0  0  0  0  0  0  0
    0.7300   19.4210  -33.6700 N   0  0  0  0  0  0  0  0  0  0  0  0
   -0.0530   19.0770  -34.8770 C   0  0  0  0  0  0  0  0  0  0  0  0
   -1.5170   18.6970  -34.5550 C   0  0  0  0  0  0  0  0  0  0  0  0
   -1.6760   18.0890  -33.2100 N   0  0  0  0  0  0  0  0  0  0  0  0
   -2.8990   17.2560  -33.1070 C   0  0  0  0  0  0  0  0  0  0  0  0
   -4.1710   17.9820  -33.4670 C   0  0  0  0  0  0  0  0  0  0  0  0
   -4.7520   18.0850  -34.7160 C   0  0  0  0  0  0  0  0  0  0  0  0
   -5.8930   18.7930  -34.6150 N   0  0  0  0  0  0  0  0  0  0  0  0
   -6.0520   19.1390  -33.3440 N   0  0  0  0  0  0  0  0  0  0  0  0
   -7.1770   19.9030  -32.8610 C   0  0  0  0  0  0  0  0  0  0  0  0
   -7.0920   21.2990  -32.6880 C   0  0  0  0  0  0  0  0  0  0  0  0
   -8.1940   22.0230  -32.2220 C   0  0  0  0  0  0  0  0  0  0  0  0
   -9.3910   21.3670  -31.9280 C   0  0  0  0  0  0  0  0  0  0  0  0
   -9.4900   19.9850  -32.1020 C   0  0  0  0  0  0  0  0  0  0  0  0
   -8.3920   19.2560  -32.5680 C   0  0  0  0  0  0  0  0  0  0  0  0
   -5.0220   18.6550  -32.6160 C   0  0  0  0  0  0  0  0  0  0  0  0
   -0.4600   17.3650  -32.7910 C   0  0  0  0  0  0  0  0  0  0  0  0
    0.7270   18.3400  -32.6520 C   0  0  0  0  0  0  0  0  0  0  0  0
    0.8926   19.7720  -29.0216 H   0  0  0  0  0  0  0  0  0  0  0  0
    1.1876   18.7348  -30.4582 H   0  0  0  0  0  0  0  0  0  0  0  0
    1.7345   20.4458  -30.4582 H   0  0  0  0  0  0  0  0  0  0  0  0
   -4.5358   20.2939  -31.1214 H   0  0  0  0  0  0  0  0  0  0  0  0
   -4.0065   20.3116  -29.4011 H   0  0  0  0  0  0  0  0  0  0  0  0
   -6.3078   21.9550  -30.6572 H   0  0  0  0  0  0  0  0  0  0  0  0
   -6.8512   24.3833  -30.4635 H   0  0  0  0  0  0  0  0  0  0  0  0
   -5.0378   26.0362  -29.9882 H   0  0  0  0  0  0  0  0  0  0  0  0
   -2.6842   25.2592  -29.6976 H   0  0  0  0  0  0  0  0  0  0  0  0
   -2.1315   22.8336  -29.8955 H   0  0  0  0  0  0  0  0  0  0  0  0
   -0.0679   21.3647  -33.9119 H   0  0  0  0  0  0  0  0  0  0  0  0
    1.2937   21.2287  -32.7370 H   0  0  0  0  0  0  0  0  0  0  0  0
   -0.0559   19.9449  -35.5529 H   0  0  0  0  0  0  0  0  0  0  0  0
    0.4220   18.1997  -35.3403 H   0  0  0  0  0  0  0  0  0  0  0  0
   -2.1340   19.6063  -34.6038 H   0  0  0  0  0  0  0  0  0  0  0  0
   -1.8325   17.9465  -35.2948 H   0  0  0  0  0  0  0  0  0  0  0  0
   -1.8160   18.8700  -32.5250 H   0  0  0  0  0  0  0  0  0  0  0  0
   -2.7890   16.3958  -33.7837 H   0  0  0  0  0  0  0  0  0  0  0  0
   -2.9917   16.9579  -32.0522 H   0  0  0  0  0  0  0  0  0  0  0  0
   -4.3472   17.6570  -35.6449 H   0  0  0  0  0  0  0  0  0  0  0  0
   -6.1530   21.8224  -32.9210 H   0  0  0  0  0  0  0  0  0  0  0  0
   -8.1176   23.1120  -32.0867 H   0  0  0  0  0  0  0  0  0  0  0  0
  -10.2556   21.9386  -31.5595 H   0  0  0  0  0  0  0  0  0  0  0  0
  -10.4338   19.4690  -31.8719 H   0  0  0  0  0  0  0  0  0  0  0  0
   -8.4783   18.1682  -32.7068 H   0  0  0  0  0  0  0  0  0  0  0  0
   -4.8857   18.7768  -31.5313 H   0  0  0  0  0  0  0  0  0  0  0  0
   -0.6442   16.8781  -31.8220 H   0  0  0  0  0  0  0  0  0  0  0  0
   -0.2141   16.6108  -33.5531 H   0  0  0  0  0  0  0  0  0  0  0  0
    0.6830   18.8016  -31.6545 H   0  0  0  0  0  0  0  0  0  0  0  0
    1.6456   17.7536  -32.8011 H   0  0  0  0  0  0  0  0  0  0  0  0
  1  2  1  0
  2  3  2  0
  3  4  1  0
  4  5  1  0
  5  6  1  0
  6  7  2  0
  7  8  1  0
  8  9  2  0
  9 10  1  0
 10 11  2  0
  4 12  1  0
 12 13  1  0
 12 14  2  0
 14 15  1  0
 15 16  1  0
 16 17  1  0
 17 18  1  0
 18 19  1  0
 19 20  1  0
 20 21  1  0
 21 22  1  0
 22 23  2  0
 23 24  1  0
 24 25  1  0
 25 26  2  0
 26 27  1  0
 27 28  2  0
 28 29  1  0
 29 30  2  0
 24 31  1  0
 19 32  1  0
 32 33  1  0
 14  2  1  0
 33 16  1  0
 11  6  1  0
 31 21  2  0
 30 25  1  0
  1 34  1  0
  1 35  1  0
  1 36  1  0
  5 37  1  0
  5 38  1  0
  7 39  1  0
  8 40  1  0
  9 41  1  0
 10 42  1  0
 11 43  1  0
 15 44  1  0
 15 45  1  0
 17 46  1  0
 17 47  1  0
 18 48  1  0
 18 49  1  0
 19 50  1  0
 20 51  1  0
 20 52  1  0
 22 53  1  0
 26 54  1  0
 27 55  1  0
 28 56  1  0
 29 57  1  0
 30 58  1  0
 31 59  1  0
 32 60  1  0
 32 61  1  0
 33 62  1  0
 33 63  1  0
M  CHG  1  19   1
M  END
>  <UniqueID>  (10) 
10

>  <SMILES>  (10) 
Cc1nn(Cc2ccccc2)c(Cl)c1CN1CC[NH+](Cc2cnn(-c3ccccc3)c2)CC1

>  <Energy>  (10) 
142.70930975170137

>  <Genealogy>  (10) 
Cc1nn(Cc2ccccc2)c(Cl)c1CN1CC[NH+](Cc2cnn(-c3ccccc3)c2)CC1 (protonated)
Cc1nn(Cc2ccccc2)c(Cl)c1CN1CC[NH+](Cc2cnn(-c3ccccc3)c2)CC1 (3D coordinates assigned)
Cc1nn(Cc2ccccc2)c(Cl)c1CN1CC[NH+](Cc2cnn(-c3ccccc3)c2)CC1 (nonaromatic ring conformer: 142.70930975170137 kcal/mol)

>  <smiles>  (10) 
Cc1nn(Cc2ccccc2)c(Cl)c1CN1CCN(Cc2cnn(-c3ccccc3)c2)CC1

>  <score_type>  (10) 
oracle

>  <origin>  (10) 
adgpu

>  <m_score__min__energy>  (10) 
-9.2200000000000006

>  <m_primary>  (10) 
energy

$$$$
10:0
     RDKit          3D

 71 75  0  0  0  0  0  0  0  0999 V2000
   -4.7560   14.9130  -32.5920 C   0  0  0  0  0  0  0  0  0  0  0  0
   -3.8910   16.0920  -32.9520 C   0  0  0  0  0  0  0  0  0  0  0  0
   -2.5020   15.9790  -32.7720 C   0  0  0  0  0  0  0  0  0  0  0  0
   -1.6490   17.0230  -33.1260 C   0  0  0  0  0  0  0  0  0  0  0  0
   -2.1610   18.2060  -33.6590 C   0  0  0  0  0  0  0  0  0  0  0  0
   -1.2400   19.2300  -34.0640 N   0  0  0  0  0  0  0  0  0  0  0  0
   -0.8880   20.3730  -33.2730 C   0  0  0  0  0  0  0  0  0  0  0  0
   -1.5190   21.4510  -33.4320 O   0  0  0  0  0  0  0  0  0  0  0  0
    0.1800   20.2860  -32.3230 N   0  0  0  0  0  0  0  0  0  0  0  0
    0.2550   19.4360  -31.1710 C   0  0  0  0  0  0  0  0  0  0  0  0
    1.1020   18.3160  -31.1190 C   0  0  0  0  0  0  0  0  0  0  0  0
    1.1930   17.5590  -29.9450 C   0  0  0  0  0  0  0  0  0  0  0  0
    0.4330   17.9060  -28.8240 C   0  0  0  0  0  0  0  0  0  0  0  0
   -0.4360   19.0070  -28.8760 C   0  0  0  0  0  0  0  0  0  0  0  0
   -1.4310   19.4200  -27.4800 S   0  0  0  0  0  0  0  0  0  0  0  0
   -2.8660   19.4570  -27.9240 O   0  0  0  0  0  0  0  0  0  0  0  0
   -1.2890   18.3600  -26.4240 O   0  0  0  0  0  0  0  0  0  0  0  0
   -1.0290   20.9570  -26.7750 N   0  0  0  0  0  0  0  0  0  0  0  0
   -1.1810   22.2410  -27.3990 C   0  0  0  0  0  0  0  0  0  0  0  0
   -0.2170   23.2260  -27.1530 C   0  0  0  0  0  0  0  0  0  0  0  0
   -0.3610   24.5070  -27.6940 C   0  0  0  0  0  0  0  0  0  0  0  0
   -1.4890   24.8270  -28.4570 C   0  0  0  0  0  0  0  0  0  0  0  0
   -1.6220   26.1180  -28.9590 O   0  0  0  0  0  0  0  0  0  0  0  0
   -2.4770   23.8530  -28.6930 C   0  0  0  0  0  0  0  0  0  0  0  0
   -3.9590   24.2270  -29.5880 S   0  0  0  0  0  0  0  0  0  0  0  0
   -3.6520   25.2980  -30.6020 O   0  0  0  0  0  0  0  0  0  0  0  0
   -5.0020   24.7710  -28.6500 O   0  0  0  0  0  0  0  0  0  0  0  0
   -4.5880   22.8170  -30.4080 N   0  0  0  0  0  0  0  0  0  0  0  0
   -3.4770   21.9670  -30.8740 C   0  0  0  0  0  0  0  0  0  0  0  0
   -3.9920   20.7070  -31.6060 C   0  0  0  0  0  0  0  0  0  0  0  0
   -5.5190   20.6770  -31.7240 C   0  0  0  0  0  0  0  0  0  0  0  0
   -6.0460   22.0090  -32.2730 C   0  0  0  0  0  0  0  0  0  0  0  0
   -5.4360   23.2280  -31.5440 C   0  0  0  0  0  0  0  0  0  0  0  0
   -2.3110   22.5640  -28.1670 C   0  0  0  0  0  0  0  0  0  0  0  0
   -0.5070   19.7750  -30.0470 C   0  0  0  0  0  0  0  0  0  0  0  0
   -3.5550   18.3660  -33.7760 C   0  0  0  0  0  0  0  0  0  0  0  0
   -4.0720   19.6090  -34.1350 O   0  0  0  0  0  0  0  0  0  0  0  0
   -4.4280   17.2900  -33.4930 C   0  0  0  0  0  0  0  0  0  0  0  0
   -6.1720   17.4670  -33.8110 S   0  0  0  0  0  0  0  0  0  0  0  0
   -6.7700   16.1230  -34.1250 O   0  0  0  0  0  0  0  0  0  0  0  0
   -6.3940   18.3520  -35.0040 O   0  0  0  0  0  0  0  0  0  0  0  0
   -6.9500   18.2160  -32.3780 C   0  0  0  0  0  0  0  0  0  0  0  0
   -8.4310   17.9220  -32.1960 C   0  0  0  0  0  0  0  0  0  0  0  0
   -7.9850   19.2770  -32.7220 C   0  0  0  0  0  0  0  0  0  0  0  0
   -4.8200   14.8258  -31.4973 H   0  0  0  0  0  0  0  0  0  0  0  0
   -5.7641   15.0573  -33.0079 H   0  0  0  0  0  0  0  0  0  0  0  0
   -4.3158   13.9947  -33.0079 H   0  0  0  0  0  0  0  0  0  0  0  0
   -2.0827   15.0553  -32.3465 H   0  0  0  0  0  0  0  0  0  0  0  0
   -0.5638   16.9132  -32.9840 H   0  0  0  0  0  0  0  0  0  0  0  0
    1.6943   18.0337  -32.0019 H   0  0  0  0  0  0  0  0  0  0  0  0
    1.8644   16.6886  -29.9044 H   0  0  0  0  0  0  0  0  0  0  0  0
    0.5162   17.3152  -27.8998 H   0  0  0  0  0  0  0  0  0  0  0  0
    0.6588   22.9906  -26.5304 H   0  0  0  0  0  0  0  0  0  0  0  0
    0.4156   25.2662  -27.5191 H   0  0  0  0  0  0  0  0  0  0  0  0
   -2.8480   22.5485  -31.5641 H   0  0  0  0  0  0  0  0  0  0  0  0
   -2.9005   21.6424  -29.9952 H   0  0  0  0  0  0  0  0  0  0  0  0
   -3.5600   20.6859  -32.6174 H   0  0  0  0  0  0  0  0  0  0  0  0
   -3.6862   19.8305  -31.0158 H   0  0  0  0  0  0  0  0  0  0  0  0
   -5.8128   19.8643  -32.4045 H   0  0  0  0  0  0  0  0  0  0  0  0
   -5.9480   20.5115  -30.7247 H   0  0  0  0  0  0  0  0  0  0  0  0
   -5.7954   22.0747  -33.3421 H   0  0  0  0  0  0  0  0  0  0  0  0
   -7.1340   22.0315  -32.1126 H   0  0  0  0  0  0  0  0  0  0  0  0
   -4.8241   23.8001  -32.2569 H   0  0  0  0  0  0  0  0  0  0  0  0
   -6.2609   23.8409  -31.1518 H   0  0  0  0  0  0  0  0  0  0  0  0
   -3.0754   21.7965  -28.3584 H   0  0  0  0  0  0  0  0  0  0  0  0
   -1.1685   20.6531  -30.0826 H   0  0  0  0  0  0  0  0  0  0  0  0
   -6.0679   18.1534  -31.7238 H   0  0  0  0  0  0  0  0  0  0  0  0
   -8.9370   17.2114  -32.8661 H   0  0  0  0  0  0  0  0  0  0  0  0
   -9.0590   17.5808  -31.3598 H   0  0  0  0  0  0  0  0  0  0  0  0
   -8.1681   19.5466  -33.7726 H   0  0  0  0  0  0  0  0  0  0  0  0
   -8.1564   20.3219  -32.4240 H   0  0  0  0  0  0  0  0  0  0  0  0
  1  2  1  0
  2  3  2  0
  3  4  1  0
  4  5  2  0
  5  6  1  0
  6  7  1  0
  7  8  2  0
  7  9  1  0
  9 10  1  0
 10 11  2  0
 11 12  1  0
 12 13  2  0
 13 14  1  0
 14 15  1  0
 15 16  2  0
 15 17  2  0
 15 18  1  0
 18 19  1  0
 19 20  2  0
 20 21  1  0
 21 22  2  0
 22 23  1  0
 22 24  1  0
 24 25  1  0
 25 26  2  0
 25 27  2  0
 25 28  1  0
 28 29  1  0
 29 30  1  0
 30 31  1  0
 31 32  1  0
 32 33  1  0
 24 34  2  0
 14 35  2  0
  5 36  1  0
 36 37  1  0
 36 38  2  0
 38 39  1  0
 39 40  2  0
 39 41  2  0
 39 42  1  0
 42 43  1  0
 43 44  1  0
 38  2  1  0
 44 42  1  0
 35 10  1  0
 34 19  1  0
 33 28  1  0
  1 45  1  0
  1 46  1  0
  1 47  1  0
  3 48  1  0
  4 49  1  0
 11 50  1  0
 12 51  1  0
 13 52  1  0
 20 53  1  0
 21 54  1  0
 29 55  1  0
 29 56  1  0
 30 57  1  0
 30 58  1  0
 31 59  1  0
 31 60  1  0
 32 61  1  0
 32 62  1  0
 33 63  1  0
 33 64  1  0
 34 65  1  0
 35 66  1  0
 42 67  1  0
 43 68  1  0
 43 69  1  0
 44 70  1  0
 44 71  1  0
M  CHG  5   6  -1   9  -1  18  -1  23  -1  37  -1
M  END
>  <UniqueID>  (11) 
11

>  <SMILES>  (11) 
Cc1ccc([N-]C(=O)[N-]c2cccc(S(=O)(=O)[N-]c3ccc([O-])c(S(=O)(=O)N4CCCCC4)c3)c2)c([O-])c1S(=O)(=O)C1CC1

>  <Energy>  (11) 
361.6646859481243

>  <Genealogy>  (11) 
Cc1ccc([N-]C(=O)[N-]c2cccc(S(=O)(=O)[N-]c3ccc([O-])c(S(=O)(=O)N4CCCCC4)c3)c2)c([O-])c1S(=O)(=O)C1CC1 (protonated)
Cc1ccc([N-]C(=O)[N-]c2cccc(S(=O)(=O)[N-]c3ccc([O-])c(S(=O)(=O)N4CCCCC4)c3)c2)c([O-])c1S(=O)(=O)C1CC1 (3D coordinates assigned)
Cc1ccc([N-]C(=O)[N-]c2cccc(S(=O)(=O)[N-]c3ccc([O-])c(S(=O)(=O)N4CCCCC4)c3)c2)c([O-])c1S(=O)(=O)C1CC1 (nonaromatic ring conformer: 361.6646859481243 kcal/mol)

>  <smiles>  (11) 
Cc1ccc(NC(=O)Nc2cccc(S(=O)(=O)Nc3ccc(O)c(S(=O)(=O)N4CCCCC4)c3)c2)c(O)c1S(=O)(=O)C1CC1

>  <score_type>  (11) 
oracle

>  <origin>  (11) 
adgpu

>  <m_score__min__energy>  (11) 
-19.18

>  <m_primary>  (11) 
energy

$$$$
11:0
     RDKit          3D

 44 46  0  0  0  0  0  0  0  0999 V2000
   -3.9130   25.0120  -30.7490 O   0  0  0  0  0  0  0  0  0  0  0  0
   -3.5970   23.7920  -30.7190 C   0  0  0  0  0  0  0  0  0  0  0  0
   -3.6910   22.9980  -31.9040 N   0  0  0  0  0  0  0  0  0  0  0  0
   -4.2230   21.3520  -31.8780 S   0  0  0  0  0  0  0  0  0  0  0  0
   -3.6430   20.6660  -30.6710 O   0  0  0  0  0  0  0  0  0  0  0  0
   -3.7340   20.6370  -33.1060 O   0  0  0  0  0  0  0  0  0  0  0  0
   -5.9820   21.3000  -31.7990 C   0  0  0  0  0  0  0  0  0  0  0  0
   -6.7060   22.4530  -31.4700 C   0  0  0  0  0  0  0  0  0  0  0  0
   -8.0990   22.4110  -31.4010 C   0  0  0  0  0  0  0  0  0  0  0  0
   -8.7800   21.2220  -31.6790 C   0  0  0  0  0  0  0  0  0  0  0  0
   -8.0720   20.0670  -32.0530 C   0  0  0  0  0  0  0  0  0  0  0  0
   -8.8160   18.7870  -32.3400 C   0  0  0  0  0  0  0  0  0  0  0  0
   -9.2580   18.2190  -31.1570 F   0  0  0  0  0  0  0  0  0  0  0  0
   -7.9680   17.8990  -32.9780 F   0  0  0  0  0  0  0  0  0  0  0  0
   -9.9170   19.0170  -33.1470 F   0  0  0  0  0  0  0  0  0  0  0  0
   -6.6660   20.1090  -32.0860 C   0  0  0  0  0  0  0  0  0  0  0  0
   -3.1840   23.1790  -29.4920 N   0  0  0  0  0  0  0  0  0  0  0  0
   -3.0830   23.9060  -28.2570 C   0  0  0  0  0  0  0  0  0  0  0  0
   -4.2440   24.2360  -27.5360 C   0  0  0  0  0  0  0  0  0  0  0  0
   -4.1520   24.9460  -26.3360 C   0  0  0  0  0  0  0  0  0  0  0  0
   -2.9040   25.3360  -25.8460 C   0  0  0  0  0  0  0  0  0  0  0  0
   -1.7440   25.0190  -26.5570 C   0  0  0  0  0  0  0  0  0  0  0  0
   -1.8240   24.3080  -27.7630 C   0  0  0  0  0  0  0  0  0  0  0  0
   -0.3010   23.9010  -28.6270 S   0  0  0  0  0  0  0  0  0  0  0  0
   -0.5630   22.1320  -28.4730 C   0  0  0  0  0  0  0  0  0  0  0  0
   -0.5280   21.3120  -29.6080 C   0  0  0  0  0  0  0  0  0  0  0  0
   -0.7250   19.9320  -29.4810 C   0  0  0  0  0  0  0  0  0  0  0  0
   -0.9690   19.3720  -28.2230 C   0  0  0  0  0  0  0  0  0  0  0  0
   -1.0200   20.1930  -27.0910 C   0  0  0  0  0  0  0  0  0  0  0  0
   -0.8170   21.5690  -27.2150 C   0  0  0  0  0  0  0  0  0  0  0  0
   -6.1749   23.3943  -31.2654 H   0  0  0  0  0  0  0  0  0  0  0  0
   -8.6625   23.3152  -31.1273 H   0  0  0  0  0  0  0  0  0  0  0  0
   -9.8770   21.1903  -31.6045 H   0  0  0  0  0  0  0  0  0  0  0  0
   -6.0987   19.2011  -32.3387 H   0  0  0  0  0  0  0  0  0  0  0  0
   -3.0830   22.1400  -29.4750 H   0  0  0  0  0  0  0  0  0  0  0  0
   -5.2300   23.9337  -27.9186 H   0  0  0  0  0  0  0  0  0  0  0  0
   -5.0647   25.1982  -25.7762 H   0  0  0  0  0  0  0  0  0  0  0  0
   -2.8342   25.8929  -24.9000 H   0  0  0  0  0  0  0  0  0  0  0  0
   -0.7625   25.3288  -26.1687 H   0  0  0  0  0  0  0  0  0  0  0  0
   -0.3457   21.7525  -30.5993 H   0  0  0  0  0  0  0  0  0  0  0  0
   -0.6879   19.2874  -30.3716 H   0  0  0  0  0  0  0  0  0  0  0  0
   -1.1207   18.2871  -28.1234 H   0  0  0  0  0  0  0  0  0  0  0  0
   -1.2202   19.7540  -26.1025 H   0  0  0  0  0  0  0  0  0  0  0  0
   -0.8565   22.2123  -26.3236 H   0  0  0  0  0  0  0  0  0  0  0  0
  1  2  2  0
  2  3  1  0
  3  4  1  0
  4  5  2  0
  4  6  2  0
  4  7  1  0
  7  8  2  0
  8  9  1  0
  9 10  2  0
 10 11  1  0
 11 12  1  0
 12 13  1  0
 12 14  1  0
 12 15  1  0
 11 16  2  0
  2 17  1  0
 17 18  1  0
 18 19  2  0
 19 20  1  0
 20 21  2  0
 21 22  1  0
 22 23  2  0
 23 24  1  0
 24 25  1  0
 25 26  2  0
 26 27  1  0
 27 28  2  0
 28 29  1  0
 29 30  2  0
 16  7  1  0
 23 18  1  0
 30 25  1  0
  8 31  1  0
  9 32  1  0
 10 33  1  0
 16 34  1  0
 17 35  1  0
 19 36  1  0
 20 37  1  0
 21 38  1  0
 22 39  1  0
 26 40  1  0
 27 41  1  0
 28 42  1  0
 29 43  1  0
 30 44  1  0
M  CHG  1   3  -1
M  END
>  <UniqueID>  (12) 
12

>  <SMILES>  (12) 
O=C([N-]S(=O)(=O)c1cccc(C(F)(F)F)c1)Nc1ccccc1Sc1ccccc1

>  <Energy>  (12) 
45.55811170203384

>  <Genealogy>  (12) 
O=C([N-]S(=O)(=O)c1cccc(C(F)(F)F)c1)Nc1ccccc1Sc1ccccc1 (protonated)
O=C([N-]S(=O)(=O)c1cccc(C(F)(F)F)c1)Nc1ccccc1Sc1ccccc1 (3D coordinates assigned)
O=C([N-]S(=O)(=O)c1cccc(C(F)(F)F)c1)Nc1ccccc1Sc1ccccc1 (optimized conformer: 45.55811170203384 kcal/mol)

>  <smiles>  (12) 
O=C(Nc1ccccc1Sc1ccccc1)NS(=O)(=O)c1cccc(C(F)(F)F)c1

>  <score_type>  (12) 
oracle

>  <origin>  (12) 
adgpu

>  <m_score__min__energy>  (12) 
-10.449999999999999

>  <m_primary>  (12) 
energy

$$$$
12:0
     RDKit          3D

 56 59  0  0  0  0  0  0  0  0999 V2000
   -6.8990   22.7260  -32.3250 C   0  0  0  0  0  0  0  0  0  0  0  0
   -7.3020   21.2770  -32.2110 C   0  0  0  0  0  0  0  0  0  0  0  0
   -8.4690   20.9650  -31.4960 C   0  0  0  0  0  0  0  0  0  0  0  0
   -8.8700   19.6410  -31.3290 C   0  0  0  0  0  0  0  0  0  0  0  0
   -8.1160   18.6100  -31.8790 C   0  0  0  0  0  0  0  0  0  0  0  0
   -6.9440   18.8870  -32.5910 C   0  0  0  0  0  0  0  0  0  0  0  0
   -6.2160   17.7920  -33.1650 N   0  0  0  0  0  0  0  0  0  0  0  0
   -6.0600   17.6900  -34.6180 C   0  0  0  0  0  0  0  0  0  0  0  0
   -4.5960   17.3730  -34.9370 C   0  0  0  0  0  0  0  0  0  0  0  0
   -4.1300   16.1110  -34.2940 N   0  0  0  0  0  0  0  0  0  0  0  0
   -2.6880   16.1950  -33.9980 C   0  0  0  0  0  0  0  0  0  0  0  0
   -4.8980   15.7120  -33.0800 C   0  0  0  0  0  0  0  0  0  0  0  0
   -5.4350   16.9140  -32.2900 C   0  0  0  0  0  0  0  0  0  0  0  0
   -6.5040   20.2260  -32.7450 C   0  0  0  0  0  0  0  0  0  0  0  0
   -5.1910   20.5310  -33.4480 C   0  0  0  0  0  0  0  0  0  0  0  0
   -4.3010   21.3120  -32.5660 N   0  0  0  0  0  0  0  0  0  0  0  0
   -2.9970   21.5230  -33.2170 C   0  0  0  0  0  0  0  0  0  0  0  0
   -4.1360   20.6730  -31.2400 C   0  0  0  0  0  0  0  0  0  0  0  0
   -3.1840   21.4870  -30.4070 C   0  0  0  0  0  0  0  0  0  0  0  0
   -2.1000   20.8860  -29.7290 C   0  0  0  0  0  0  0  0  0  0  0  0
   -1.1850   21.6760  -28.9980 C   0  0  0  0  0  0  0  0  0  0  0  0
   -1.3370   23.0730  -28.9370 C   0  0  0  0  0  0  0  0  0  0  0  0
   -2.4150   23.6370  -29.6140 C   0  0  0  0  0  0  0  0  0  0  0  0
   -2.7540   24.9340  -29.6770 N   0  0  0  0  0  0  0  0  0  0  0  0
   -3.8710   24.8980  -30.4450 C   0  0  0  0  0  0  0  0  0  0  0  0
   -4.5160   25.9340  -30.7460 O   0  0  0  0  0  0  0  0  0  0  0  0
   -4.2460   23.6630  -30.8620 N   0  0  0  0  0  0  0  0  0  0  0  0
   -3.3010   22.8790  -30.3200 C   0  0  0  0  0  0  0  0  0  0  0  0
   -6.7800   23.1538  -31.3186 H   0  0  0  0  0  0  0  0  0  0  0  0
   -5.9462   22.7998  -32.8698 H   0  0  0  0  0  0  0  0  0  0  0  0
   -7.6768   23.2812  -32.8698 H   0  0  0  0  0  0  0  0  0  0  0  0
   -9.0739   21.7750  -31.0625 H   0  0  0  0  0  0  0  0  0  0  0  0
   -9.7839   19.4111  -30.7616 H   0  0  0  0  0  0  0  0  0  0  0  0
   -8.4440   17.5676  -31.7531 H   0  0  0  0  0  0  0  0  0  0  0  0
   -6.7046   16.8863  -35.0034 H   0  0  0  0  0  0  0  0  0  0  0  0
   -6.3482   18.6398  -35.0921 H   0  0  0  0  0  0  0  0  0  0  0  0
   -4.4862   17.2746  -36.0271 H   0  0  0  0  0  0  0  0  0  0  0  0
   -3.9827   18.1955  -34.5404 H   0  0  0  0  0  0  0  0  0  0  0  0
   -4.2450   15.3400  -34.9940 H   0  0  0  0  0  0  0  0  0  0  0  0
   -2.5373   16.2038  -32.9084 H   0  0  0  0  0  0  0  0  0  0  0  0
   -2.1733   15.3253  -34.4324 H   0  0  0  0  0  0  0  0  0  0  0  0
   -2.2777   17.1186  -34.4324 H   0  0  0  0  0  0  0  0  0  0  0  0
   -5.7490   15.0889  -33.3923 H   0  0  0  0  0  0  0  0  0  0  0  0
   -4.2097   15.1642  -32.4196 H   0  0  0  0  0  0  0  0  0  0  0  0
   -6.0765   16.5532  -31.4725 H   0  0  0  0  0  0  0  0  0  0  0  0
   -4.5855   17.4810  -31.8815 H   0  0  0  0  0  0  0  0  0  0  0  0
   -4.6961   19.5860  -33.7164 H   0  0  0  0  0  0  0  0  0  0  0  0
   -5.4007   21.1199  -34.3531 H   0  0  0  0  0  0  0  0  0  0  0  0
   -2.2198   21.6488  -32.4488 H   0  0  0  0  0  0  0  0  0  0  0  0
   -2.7551   20.6523  -33.8442 H   0  0  0  0  0  0  0  0  0  0  0  0
   -3.0421   22.4255  -33.8442 H   0  0  0  0  0  0  0  0  0  0  0  0
   -5.1116   20.6192  -30.7348 H   0  0  0  0  0  0  0  0  0  0  0  0
   -3.7341   19.6573  -31.3695 H   0  0  0  0  0  0  0  0  0  0  0  0
   -1.9675   19.7948  -29.7706 H   0  0  0  0  0  0  0  0  0  0  0  0
   -0.3470   21.1948  -28.4724 H   0  0  0  0  0  0  0  0  0  0  0  0
   -0.6286   23.6984  -28.3739 H   0  0  0  0  0  0  0  0  0  0  0  0
  1  2  1  0
  2  3  2  0
  3  4  1  0
  4  5  2  0
  5  6  1  0
  6  7  1  0
  7  8  1  0
  8  9  1  0
  9 10  1  0
 10 11  1  0
 10 12  1  0
 12 13  1  0
  6 14  2  0
 14 15  1  0
 15 16  1  0
 16 17  1  0
 16 18  1  0
 18 19  1  0
 19 20  2  0
 20 21  1  0
 21 22  2  0
 22 23  1  0
 23 24  1  0
 24 25  1  0
 25 26  2  0
 25 27  1  0
 27 28  1  0
 14  2  1  0
 28 19  1  0
 13  7  1  0
 28 23  2  0
  1 29  1  0
  1 30  1  0
  1 31  1  0
  3 32  1  0
  4 33  1  0
  5 34  1  0
  8 35  1  0
  8 36  1  0
  9 37  1  0
  9 38  1  0
 10 39  1  0
 11 40  1  0
 11 41  1  0
 11 42  1  0
 12 43  1  0
 12 44  1  0
 13 45  1  0
 13 46  1  0
 15 47  1  0
 15 48  1  0
 17 49  1  0
 17 50  1  0
 17 51  1  0
 18 52  1  0
 18 53  1  0
 20 54  1  0
 21 55  1  0
 22 56  1  0
M  CHG  3  10   1  24  -1  27  -1
M  END
>  <UniqueID>  (13) 
13

>  <SMILES>  (13) 
Cc1cccc(N2CC[NH+](C)CC2)c1CN(C)Cc1cccc2[n-]c(=O)[n-]c12

>  <Energy>  (13) 
106.46432937125888

>  <Genealogy>  (13) 
Cc1cccc(N2CC[NH+](C)CC2)c1CN(C)Cc1cccc2[n-]c(=O)[n-]c12 (protonated)
Cc1cccc(N2CC[NH+](C)CC2)c1CN(C)Cc1cccc2[n-]c(=O)[n-]c12 (3D coordinates assigned)
Cc1cccc(N2CC[NH+](C)CC2)c1CN(C)Cc1cccc2[n-]c(=O)[n-]c12 (nonaromatic ring conformer: 106.46432937125888 kcal/mol)

>  <smiles>  (13) 
Cc1cccc(N2CCN(C)CC2)c1CN(C)Cc1cccc2[nH]c(=O)[nH]c12

>  <score_type>  (13) 
oracle

>  <origin>  (13) 
adgpu

>  <m_score__min__energy>  (13) 
-11.41

>  <m_primary>  (13) 
energy

$$$$
13:0
     RDKit          3D

 55 58  0  0  0  0  0  0  0  0999 V2000
   -5.1230   25.1700  -31.1450 O   0  0  0  0  0  0  0  0  0  0  0  0
   -5.0010   23.9190  -31.2190 C   0  0  0  0  0  0  0  0  0  0  0  0
   -3.6930   23.3400  -31.1190 N   0  0  0  0  0  0  0  0  0  0  0  0
   -3.2440   22.4910  -30.0520 C   0  0  0  0  0  0  0  0  0  0  0  0
   -3.8290   22.6660  -28.7840 C   0  0  0  0  0  0  0  0  0  0  0  0
   -3.4230   21.9070  -27.6930 C   0  0  0  0  0  0  0  0  0  0  0  0
   -2.4140   20.9690  -27.8440 C   0  0  0  0  0  0  0  0  0  0  0  0
   -1.8090   20.7810  -29.0860 C   0  0  0  0  0  0  0  0  0  0  0  0
   -2.2010   21.5230  -30.2330 C   0  0  0  0  0  0  0  0  0  0  0  0
   -1.5700   21.2370  -31.5330 N   0  0  0  0  0  0  0  0  0  0  0  0
   -0.0980   21.1830  -31.6720 C   0  0  0  0  0  0  0  0  0  0  0  0
    0.3760   20.8010  -33.0730 C   0  0  0  0  0  0  0  0  0  0  0  0
   -0.4050   21.4420  -34.0500 O   0  0  0  0  0  0  0  0  0  0  0  0
   -1.6820   20.8530  -34.0420 C   0  0  0  0  0  0  0  0  0  0  0  0
   -2.4320   21.1520  -32.7370 C   0  0  0  0  0  0  0  0  0  0  0  0
   -6.1960   23.0790  -31.4540 C   0  0  0  0  0  0  0  0  0  0  0  0
   -7.4650   23.6670  -31.5770 C   0  0  0  0  0  0  0  0  0  0  0  0
   -8.5960   22.8670  -31.7650 C   0  0  0  0  0  0  0  0  0  0  0  0
   -8.4670   21.4780  -31.8480 C   0  0  0  0  0  0  0  0  0  0  0  0
   -7.2030   20.8820  -31.7580 C   0  0  0  0  0  0  0  0  0  0  0  0
   -7.0350   19.1320  -31.8890 S   0  0  0  0  0  0  0  0  0  0  0  0
   -5.8180   18.7110  -31.1110 O   0  0  0  0  0  0  0  0  0  0  0  0
   -8.2360   18.4750  -31.2680 O   0  0  0  0  0  0  0  0  0  0  0  0
   -6.8490   18.6670  -33.5700 N   0  0  0  0  0  0  0  0  0  0  0  0
   -5.6860   19.3260  -34.2010 C   0  0  0  0  0  0  0  0  0  0  0  0
   -4.3670   18.6160  -33.8610 C   0  0  0  0  0  0  0  0  0  0  0  0
   -4.4260   17.2530  -34.2210 O   0  0  0  0  0  0  0  0  0  0  0  0
   -5.4240   16.6060  -33.4610 C   0  0  0  0  0  0  0  0  0  0  0  0
   -6.8130   17.1990  -33.7520 C   0  0  0  0  0  0  0  0  0  0  0  0
   -6.0710   21.6840  -31.5630 C   0  0  0  0  0  0  0  0  0  0  0  0
   -4.6220   23.4172  -28.6542 H   0  0  0  0  0  0  0  0  0  0  0  0
   -3.9010   22.0503  -26.7127 H   0  0  0  0  0  0  0  0  0  0  0  0
   -2.0891   20.3703  -26.9803 H   0  0  0  0  0  0  0  0  0  0  0  0
   -1.0047   20.0366  -29.1809 H   0  0  0  0  0  0  0  0  0  0  0  0
    0.3100   22.1745  -31.4263 H   0  0  0  0  0  0  0  0  0  0  0  0
    0.2595   20.3990  -30.9883 H   0  0  0  0  0  0  0  0  0  0  0  0
    1.4267   21.1031  -33.1943 H   0  0  0  0  0  0  0  0  0  0  0  0
    0.2770   19.7125  -33.1970 H   0  0  0  0  0  0  0  0  0  0  0  0
   -2.2636   21.2495  -34.8873 H   0  0  0  0  0  0  0  0  0  0  0  0
   -1.5596   19.7632  -34.1273 H   0  0  0  0  0  0  0  0  0  0  0  0
   -2.9533   22.1135  -32.8539 H   0  0  0  0  0  0  0  0  0  0  0  0
   -3.1159   20.3067  -32.5707 H   0  0  0  0  0  0  0  0  0  0  0  0
   -7.5697   24.7608  -31.5253 H   0  0  0  0  0  0  0  0  0  0  0  0
   -9.5895   23.3319  -31.8478 H   0  0  0  0  0  0  0  0  0  0  0  0
   -9.3606   20.8512  -31.9844 H   0  0  0  0  0  0  0  0  0  0  0  0
   -7.7070   19.0190  -34.0550 H   0  0  0  0  0  0  0  0  0  0  0  0
   -5.8224   19.3180  -35.2925 H   0  0  0  0  0  0  0  0  0  0  0  0
   -5.6275   20.3542  -33.8146 H   0  0  0  0  0  0  0  0  0  0  0  0
   -3.5452   19.0990  -34.4099 H   0  0  0  0  0  0  0  0  0  0  0  0
   -4.1965   18.6879  -32.7767 H   0  0  0  0  0  0  0  0  0  0  0  0
   -5.4303   15.5354  -33.7135 H   0  0  0  0  0  0  0  0  0  0  0  0
   -5.1991   16.7502  -32.3939 H   0  0  0  0  0  0  0  0  0  0  0  0
   -7.0862   16.9651  -34.7915 H   0  0  0  0  0  0  0  0  0  0  0  0
   -7.5233   16.7551  -33.0389 H   0  0  0  0  0  0  0  0  0  0  0  0
   -5.0769   21.2180  -31.4947 H   0  0  0  0  0  0  0  0  0  0  0  0
  1  2  2  0
  2  3  1  0
  3  4  1  0
  4  5  2  0
  5  6  1  0
  6  7  2  0
  7  8  1  0
  8  9  2  0
  9 10  1  0
 10 11  1  0
 11 12  1  0
 12 13  1  0
 13 14  1  0
 14 15  1  0
  2 16  1  0
 16 17  2  0
 17 18  1  0
 18 19  2  0
 19 20  1  0
 20 21  1  0
 21 22  2  0
 21 23  2  0
 21 24  1  0
 24 25  1  0
 25 26  1  0
 26 27  1  0
 27 28  1  0
 28 29  1  0
 20 30  2  0
  9  4  1  0
 15 10  1  0
 30 16  1  0
 29 24  1  0
  5 31  1  0
  6 32  1  0
  7 33  1  0
  8 34  1  0
 11 35  1  0
 11 36  1  0
 12 37  1  0
 12 38  1  0
 14 39  1  0
 14 40  1  0
 15 41  1  0
 15 42  1  0
 17 43  1  0
 18 44  1  0
 19 45  1  0
 24 46  1  0
 25 47  1  0
 25 48  1  0
 26 49  1  0
 26 50  1  0
 28 51  1  0
 28 52  1  0
 29 53  1  0
 29 54  1  0
 30 55  1  0
M  CHG  2   3  -1  24   1
M  END
>  <UniqueID>  (14) 
14

>  <SMILES>  (14) 
O=C([N-]c1ccccc1N1CCOCC1)c1cccc(S(=O)(=O)[NH+]2CCOCC2)c1

>  <Energy>  (14) 
79.25654501423745

>  <Genealogy>  (14) 
O=C([N-]c1ccccc1N1CCOCC1)c1cccc(S(=O)(=O)[NH+]2CCOCC2)c1 (protonated)
O=C([N-]c1ccccc1N1CCOCC1)c1cccc(S(=O)(=O)[NH+]2CCOCC2)c1 (3D coordinates assigned)
O=C([N-]c1ccccc1N1CCOCC1)c1cccc(S(=O)(=O)[NH+]2CCOCC2)c1 (nonaromatic ring conformer: 79.25654501423745 kcal/mol)

>  <smiles>  (14) 
O=C(Nc1ccccc1N1CCOCC1)c1cccc(S(=O)(=O)N2CCOCC2)c1

>  <score_type>  (14) 
oracle

>  <origin>  (14) 
adgpu

>  <m_score__min__energy>  (14) 
-9.9199999999999999

>  <m_primary>  (14) 
energy

$$$$
14:0
     RDKit          3D

 42 44  0  0  0  0  0  0  0  0999 V2000
   -5.4940   15.7570  -32.1670 O   0  0  0  0  0  0  0  0  0  0  0  0
   -6.1850   16.4660  -33.2990 S   0  0  0  0  0  0  0  0  0  0  0  0
   -7.2480   15.5460  -33.8330 O   0  0  0  0  0  0  0  0  0  0  0  0
   -6.9570   17.9270  -32.6820 C   0  0  0  0  0  0  0  0  0  0  0  0
   -8.3510   18.0050  -32.5910 C   0  0  0  0  0  0  0  0  0  0  0  0
   -8.9600   19.1600  -32.0980 C   0  0  0  0  0  0  0  0  0  0  0  0
   -8.1820   20.2510  -31.6850 C   0  0  0  0  0  0  0  0  0  0  0  0
   -8.8100   21.4180  -31.2500 O   0  0  0  0  0  0  0  0  0  0  0  0
   -6.7740   20.1670  -31.7440 C   0  0  0  0  0  0  0  0  0  0  0  0
   -5.9190   21.2460  -31.3320 N   0  0  0  0  0  0  0  0  0  0  0  0
   -4.7100   21.1070  -30.8760 C   0  0  0  0  0  0  0  0  0  0  0  0
   -3.9170   22.2820  -30.4610 C   0  0  0  0  0  0  0  0  0  0  0  0
   -2.6500   22.1400  -29.8670 C   0  0  0  0  0  0  0  0  0  0  0  0
   -1.9200   23.2690  -29.4840 C   0  0  0  0  0  0  0  0  0  0  0  0
   -2.4450   24.5480  -29.6890 C   0  0  0  0  0  0  0  0  0  0  0  0
   -1.7130   25.6660  -29.3060 O   0  0  0  0  0  0  0  0  0  0  0  0
   -3.7040   24.6990  -30.2800 C   0  0  0  0  0  0  0  0  0  0  0  0
   -4.2310   25.9690  -30.4860 O   0  0  0  0  0  0  0  0  0  0  0  0
   -4.4370   23.5710  -30.6650 C   0  0  0  0  0  0  0  0  0  0  0  0
   -6.1760   19.0180  -32.2740 C   0  0  0  0  0  0  0  0  0  0  0  0
   -5.0240   16.8010  -34.5680 N   0  0  0  0  0  0  0  0  0  0  0  0
   -3.7400   16.1060  -34.3580 C   0  0  0  0  0  0  0  0  0  0  0  0
   -2.8000   16.8520  -33.3800 C   0  0  0  0  0  0  0  0  0  0  0  0
   -3.2540   18.1490  -33.0470 O   0  0  0  0  0  0  0  0  0  0  0  0
   -3.6030   18.8470  -34.2190 C   0  0  0  0  0  0  0  0  0  0  0  0
   -4.8750   18.2460  -34.8430 C   0  0  0  0  0  0  0  0  0  0  0  0
   -8.9694   17.1527  -32.9092 H   0  0  0  0  0  0  0  0  0  0  0  0
  -10.0567   19.2147  -32.0331 H   0  0  0  0  0  0  0  0  0  0  0  0
   -8.2810   22.2110  -30.9070 H   0  0  0  0  0  0  0  0  0  0  0  0
   -4.2715   20.1012  -30.7981 H   0  0  0  0  0  0  0  0  0  0  0  0
   -2.2316   21.1360  -29.7031 H   0  0  0  0  0  0  0  0  0  0  0  0
   -0.9297   23.1505  -29.0200 H   0  0  0  0  0  0  0  0  0  0  0  0
   -5.4262   23.6943  -31.1301 H   0  0  0  0  0  0  0  0  0  0  0  0
   -5.0814   18.9701  -32.3716 H   0  0  0  0  0  0  0  0  0  0  0  0
   -3.9459   15.1050  -33.9511 H   0  0  0  0  0  0  0  0  0  0  0  0
   -3.2298   16.0572  -35.3313 H   0  0  0  0  0  0  0  0  0  0  0  0
   -2.7194   16.2622  -32.4550 H   0  0  0  0  0  0  0  0  0  0  0  0
   -1.8294   16.9664  -33.8848 H   0  0  0  0  0  0  0  0  0  0  0  0
   -3.7851   19.9031  -33.9712 H   0  0  0  0  0  0  0  0  0  0  0  0
   -2.7780   18.7651  -34.9420 H   0  0  0  0  0  0  0  0  0  0  0  0
   -5.7494   18.7731  -34.4336 H   0  0  0  0  0  0  0  0  0  0  0  0
   -4.7967   18.3679  -35.9334 H   0  0  0  0  0  0  0  0  0  0  0  0
  1  2  2  0
  2  3  2  0
  2  4  1  0
  4  5  2  0
  5  6  1  0
  6  7  2  0
  7  8  1  0
  7  9  1  0
  9 10  1  0
 10 11  2  3
 11 12  1  0
 12 13  2  0
 13 14  1  0
 14 15  2  0
 15 16  1  0
 15 17  1  0
 17 18  1  0
 17 19  2  0
  9 20  2  0
  2 21  1  0
 21 22  1  0
 22 23  1  0
 23 24  1  0
 24 25  1  0
 25 26  1  0
 20  4  1  0
 26 21  1  0
 19 12  1  0
  5 27  1  0
  6 28  1  0
  8 29  1  0
 11 30  1  0
 13 31  1  0
 14 32  1  0
 19 33  1  0
 20 34  1  0
 22 35  1  0
 22 36  1  0
 23 37  1  0
 23 38  1  0
 25 39  1  0
 25 40  1  0
 26 41  1  0
 26 42  1  0
M  CHG  2  16  -1  18  -1
M  END
>  <UniqueID>  (15) 
15

>  <SMILES>  (15) 
O=S(=O)(c1ccc(O)c(N=Cc2ccc([O-])c([O-])c2)c1)N1CCOCC1

>  <Energy>  (15) 
59.23074052345251

>  <Genealogy>  (15) 
O=S(=O)(c1ccc(O)c(N=Cc2ccc([O-])c([O-])c2)c1)N1CCOCC1 (protonated)
O=S(=O)(c1ccc(O)c(N=Cc2ccc([O-])c([O-])c2)c1)N1CCOCC1 (3D coordinates assigned)
O=S(=O)(c1ccc(O)c(N=Cc2ccc([O-])c([O-])c2)c1)N1CCOCC1 (nonaromatic ring conformer: 59.23074052345251 kcal/mol)

>  <smiles>  (15) 
O=S(=O)(c1ccc(O)c(N=Cc2ccc(O)c(O)c2)c1)N1CCOCC1

>  <score_type>  (15) 
oracle

>  <origin>  (15) 
adgpu

>  <m_score__min__energy>  (15) 
-12.67

>  <m_primary>  (15) 
energy

$$$$
15:0
     RDKit          3D

 60 63  0  0  0  0  0  0  0  0999 V2000
   -5.6970   26.1640  -30.7480 O   0  0  0  0  0  0  0  0  0  0  0  0
   -4.9810   25.1340  -30.6230 C   0  0  0  0  0  0  0  0  0  0  0  0
   -3.6220   25.2930  -30.1900 N   0  0  0  0  0  0  0  0  0  0  0  0
   -2.7710   24.2600  -29.6700 C   0  0  0  0  0  0  0  0  0  0  0  0
   -2.0620   24.5000  -28.4860 C   0  0  0  0  0  0  0  0  0  0  0  0
   -1.2340   23.5120  -27.9460 C   0  0  0  0  0  0  0  0  0  0  0  0
   -1.1170   22.2720  -28.5800 C   0  0  0  0  0  0  0  0  0  0  0  0
   -1.8380   22.0110  -29.7540 C   0  0  0  0  0  0  0  0  0  0  0  0
   -1.7330   20.4370  -30.5380 S   0  0  0  0  0  0  0  0  0  0  0  0
   -1.1890   19.4490  -29.5440 O   0  0  0  0  0  0  0  0  0  0  0  0
   -3.1090   19.9860  -30.9420 O   0  0  0  0  0  0  0  0  0  0  0  0
   -0.6580   20.5340  -31.9200 N   0  0  0  0  0  0  0  0  0  0  0  0
   -1.1680   21.4450  -32.9670 C   0  0  0  0  0  0  0  0  0  0  0  0
   -2.2260   20.7760  -33.8590 C   0  0  0  0  0  0  0  0  0  0  0  0
   -1.7280   19.5770  -34.4160 O   0  0  0  0  0  0  0  0  0  0  0  0
   -1.4410   18.6590  -33.3820 C   0  0  0  0  0  0  0  0  0  0  0  0
   -0.3320   19.2000  -32.4640 C   0  0  0  0  0  0  0  0  0  0  0  0
   -2.6750   23.0000  -30.2880 C   0  0  0  0  0  0  0  0  0  0  0  0
   -5.5440   23.8100  -30.9770 C   0  0  0  0  0  0  0  0  0  0  0  0
   -5.0910   23.1120  -32.1100 C   0  0  0  0  0  0  0  0  0  0  0  0
   -5.6320   21.8660  -32.4380 C   0  0  0  0  0  0  0  0  0  0  0  0
   -6.6440   21.3060  -31.6470 C   0  0  0  0  0  0  0  0  0  0  0  0
   -7.3180   19.7250  -32.0380 S   0  0  0  0  0  0  0  0  0  0  0  0
   -7.9240   19.7600  -33.4160 O   0  0  0  0  0  0  0  0  0  0  0  0
   -8.4100   19.4150  -31.0490 O   0  0  0  0  0  0  0  0  0  0  0  0
   -6.0850   18.4820  -31.9430 N   0  0  0  0  0  0  0  0  0  0  0  0
   -4.9250   18.7800  -32.8090 C   0  0  0  0  0  0  0  0  0  0  0  0
   -5.2260   18.5770  -34.3060 C   0  0  0  0  0  0  0  0  0  0  0  0
   -6.1000   17.3400  -34.5820 C   0  0  0  0  0  0  0  0  0  0  0  0
   -6.1430   16.3910  -33.3860 C   0  0  0  0  0  0  0  0  0  0  0  0
   -6.6540   17.1220  -32.1300 C   0  0  0  0  0  0  0  0  0  0  0  0
   -7.1070   22.0000  -30.5240 C   0  0  0  0  0  0  0  0  0  0  0  0
   -6.5670   23.2470  -30.1940 C   0  0  0  0  0  0  0  0  0  0  0  0
   -2.1574   25.4713  -27.9785 H   0  0  0  0  0  0  0  0  0  0  0  0
   -0.6735   23.7107  -27.0206 H   0  0  0  0  0  0  0  0  0  0  0  0
   -0.4581   21.4993  -28.1572 H   0  0  0  0  0  0  0  0  0  0  0  0
    0.2330   20.9470  -31.5560 H   0  0  0  0  0  0  0  0  0  0  0  0
   -1.6186   22.3236  -32.4823 H   0  0  0  0  0  0  0  0  0  0  0  0
   -0.3199   21.7295  -33.6072 H   0  0  0  0  0  0  0  0  0  0  0  0
   -3.1166   20.5499  -33.2543 H   0  0  0  0  0  0  0  0  0  0  0  0
   -2.4831   21.4645  -34.6774 H   0  0  0  0  0  0  0  0  0  0  0  0
   -2.3508   18.4895  -32.7873 H   0  0  0  0  0  0  0  0  0  0  0  0
   -1.0972   17.7163  -33.8327 H   0  0  0  0  0  0  0  0  0  0  0  0
   -0.1929   18.5004  -31.6266 H   0  0  0  0  0  0  0  0  0  0  0  0
    0.5854   19.2952  -33.0634 H   0  0  0  0  0  0  0  0  0  0  0  0
   -3.2602   22.7899  -31.1954 H   0  0  0  0  0  0  0  0  0  0  0  0
   -4.3050   23.5498  -32.7429 H   0  0  0  0  0  0  0  0  0  0  0  0
   -5.2621   21.3229  -33.3202 H   0  0  0  0  0  0  0  0  0  0  0  0
   -4.6280   19.8271  -32.6497 H   0  0  0  0  0  0  0  0  0  0  0  0
   -4.1213   18.0802  -32.5363 H   0  0  0  0  0  0  0  0  0  0  0  0
   -5.7507   19.4677  -34.6819 H   0  0  0  0  0  0  0  0  0  0  0  0
   -4.2643   18.4207  -34.8165 H   0  0  0  0  0  0  0  0  0  0  0  0
   -7.1239   17.6721  -34.8088 H   0  0  0  0  0  0  0  0  0  0  0  0
   -5.6606   16.7963  -35.4313 H   0  0  0  0  0  0  0  0  0  0  0  0
   -6.8165   15.5519  -33.6147 H   0  0  0  0  0  0  0  0  0  0  0  0
   -5.1256   16.0210  -33.1909 H   0  0  0  0  0  0  0  0  0  0  0  0
   -7.7477   17.2129  -32.2048 H   0  0  0  0  0  0  0  0  0  0  0  0
   -6.3343   16.5238  -31.2640 H   0  0  0  0  0  0  0  0  0  0  0  0
   -7.8990   21.5630  -29.8981 H   0  0  0  0  0  0  0  0  0  0  0  0
   -6.9452   23.7910  -29.3159 H   0  0  0  0  0  0  0  0  0  0  0  0
  1  2  2  0
  2  3  1  0
  3  4  1  0
  4  5  2  0
  5  6  1  0
  6  7  2  0
  7  8  1  0
  8  9  1  0
  9 10  2  0
  9 11  2  0
  9 12  1  0
 12 13  1  0
 13 14  1  0
 14 15  1  0
 15 16  1  0
 16 17  1  0
  8 18  2  0
  2 19  1  0
 19 20  2  0
 20 21  1  0
 21 22  2  0
 22 23  1  0
 23 24  2  0
 23 25  2  0
 23 26  1  0
 26 27  1  0
 27 28  1  0
 28 29  1  0
 29 30  1  0
 30 31  1  0
 22 32  1  0
 32 33  2  0
 18  4  1  0
 33 19  1  0
 17 12  1  0
 31 26  1  0
  5 34  1  0
  6 35  1  0
  7 36  1  0
 12 37  1  0
 13 38  1  0
 13 39  1  0
 14 40  1  0
 14 41  1  0
 16 42  1  0
 16 43  1  0
 17 44  1  0
 17 45  1  0
 18 46  1  0
 20 47  1  0
 21 48  1  0
 27 49  1  0
 27 50  1  0
 28 51  1  0
 28 52  1  0
 29 53  1  0
 29 54  1  0
 30 55  1  0
 30 56  1  0
 31 57  1  0
 31 58  1  0
 32 59  1  0
 33 60  1  0
M  CHG  2   3  -1  12   1
M  END
>  <UniqueID>  (16) 
16

>  <SMILES>  (16) 
O=C([N-]c1cccc(S(=O)(=O)[NH+]2CCOCC2)c1)c1ccc(S(=O)(=O)N2CCCCC2)cc1

>  <Energy>  (16) 
78.21894458947092

>  <Genealogy>  (16) 
O=C([N-]c1cccc(S(=O)(=O)[NH+]2CCOCC2)c1)c1ccc(S(=O)(=O)N2CCCCC2)cc1 (protonated)
O=C([N-]c1cccc(S(=O)(=O)[NH+]2CCOCC2)c1)c1ccc(S(=O)(=O)N2CCCCC2)cc1 (3D coordinates assigned)
O=C([N-]c1cccc(S(=O)(=O)[NH+]2CCOCC2)c1)c1ccc(S(=O)(=O)N2CCCCC2)cc1 (nonaromatic ring conformer: 78.21894458947092 kcal/mol)

>  <smiles>  (16) 
O=C(Nc1cccc(S(=O)(=O)N2CCOCC2)c1)c1ccc(S(=O)(=O)N2CCCCC2)cc1

>  <score_type>  (16) 
oracle

>  <origin>  (16) 
adgpu

>  <m_score__min__energy>  (16) 
-12.630000000000001

>  <m_primary>  (16) 
energy

$$$$
16:0
     RDKit          3D

 44 46  0  0  0  0  0  0  0  0999 V2000
   -6.1640   15.5720  -34.3360 H   0  0  0  0  0  0  0  0  0  0  0  0
   -6.9510   16.0020  -33.8670 O   0  0  0  0  0  0  0  0  0  0  0  0
   -6.9050   17.3240  -33.4220 C   0  0  0  0  0  0  0  0  0  0  0  0
   -7.7790   17.7430  -32.4120 C   0  0  0  0  0  0  0  0  0  0  0  0
   -8.4693   17.0205  -31.9522 H   0  0  0  0  0  0  0  0  0  0  0  0
   -7.7800   19.0710  -31.9850 C   0  0  0  0  0  0  0  0  0  0  0  0
   -8.4541   19.3844  -31.1742 H   0  0  0  0  0  0  0  0  0  0  0  0
   -6.9260   20.0090  -32.5840 C   0  0  0  0  0  0  0  0  0  0  0  0
   -6.9610   21.4360  -32.1810 C   0  0  0  0  0  0  0  0  0  0  0  0
   -6.1540   22.2430  -32.7140 O   0  0  0  0  0  0  0  0  0  0  0  0
   -7.8790   21.9510  -31.1410 C   0  0  0  0  0  0  0  0  0  0  0  0
   -8.8863   21.5116  -31.0933 H   0  0  0  0  0  0  0  0  0  0  0  0
   -7.5820   22.9110  -30.2510 C   0  0  0  0  0  0  0  0  0  0  0  0
   -8.3950   23.2713  -29.6036 H   0  0  0  0  0  0  0  0  0  0  0  0
   -6.2470   23.5220  -30.0730 C   0  0  0  0  0  0  0  0  0  0  0  0
   -5.9820   24.7720  -30.6510 C   0  0  0  0  0  0  0  0  0  0  0  0
   -6.7689   25.2914  -31.2175 H   0  0  0  0  0  0  0  0  0  0  0  0
   -4.7210   25.3610  -30.5100 C   0  0  0  0  0  0  0  0  0  0  0  0
   -4.5134   26.3340  -30.9793 H   0  0  0  0  0  0  0  0  0  0  0  0
   -3.7240   24.7140  -29.7730 C   0  0  0  0  0  0  0  0  0  0  0  0
   -2.4700   25.2990  -29.6400 O   0  0  0  0  0  0  0  0  0  0  0  0
   -3.9900   23.4840  -29.1670 C   0  0  0  0  0  0  0  0  0  0  0  0
   -3.2075   22.9792  -28.5815 H   0  0  0  0  0  0  0  0  0  0  0  0
   -5.2500   22.8940  -29.3040 C   0  0  0  0  0  0  0  0  0  0  0  0
   -5.4628   21.9351  -28.8087 H   0  0  0  0  0  0  0  0  0  0  0  0
   -6.0350   19.5850  -33.5810 C   0  0  0  0  0  0  0  0  0  0  0  0
   -5.3581   20.3151  -34.0486 H   0  0  0  0  0  0  0  0  0  0  0  0
   -5.9940   18.2400  -33.9920 C   0  0  0  0  0  0  0  0  0  0  0  0
   -5.0090   17.8060  -35.0680 C   0  0  0  0  0  0  0  0  0  0  0  0
   -5.5667   17.6679  -36.0060 H   0  0  0  0  0  0  0  0  0  0  0  0
   -4.2476   18.5977  -35.1264 H   0  0  0  0  0  0  0  0  0  0  0  0
   -4.2780   16.5460  -34.7760 N   0  0  0  0  0  0  0  0  0  0  0  0
   -3.7460   16.4590  -33.4110 C   0  0  0  0  0  0  0  0  0  0  0  0
   -4.2773   17.1654  -32.7563 H   0  0  0  0  0  0  0  0  0  0  0  0
   -3.8826   15.4444  -33.0086 H   0  0  0  0  0  0  0  0  0  0  0  0
   -2.2690   16.8150  -33.4660 C   0  0  0  0  0  0  0  0  0  0  0  0
   -2.1135   17.8593  -33.1575 H   0  0  0  0  0  0  0  0  0  0  0  0
   -1.6725   16.1881  -32.7869 H   0  0  0  0  0  0  0  0  0  0  0  0
   -1.8590   16.6230  -34.9170 C   0  0  0  0  0  0  0  0  0  0  0  0
   -1.4096   17.5455  -35.3133 H   0  0  0  0  0  0  0  0  0  0  0  0
   -1.1090   15.8254  -35.0235 H   0  0  0  0  0  0  0  0  0  0  0  0
   -3.1420   16.2910  -35.6710 C   0  0  0  0  0  0  0  0  0  0  0  0
   -3.2230   16.9255  -36.5659 H   0  0  0  0  0  0  0  0  0  0  0  0
   -3.1357   15.2374  -35.9870 H   0  0  0  0  0  0  0  0  0  0  0  0
  1  2  1  0
  2  3  1  0
  3  4  2  0
  4  5  1  0
  4  6  1  0
  6  7  1  0
  6  8  2  0
  8  9  1  0
  9 10  2  0
  9 11  1  0
 11 12  1  0
 11 13  2  0
 13 14  1  0
 13 15  1  0
 15 16  2  0
 16 17  1  0
 16 18  1  0
 18 19  1  0
 18 20  2  0
 20 21  1  0
 20 22  1  0
 22 23  1  0
 22 24  2  0
 24 25  1  0
  8 26  1  0
 26 27  1  0
 26 28  2  0
 28 29  1  0
 29 30  1  0
 29 31  1  0
 29 32  1  0
 32 33  1  0
 33 34  1  0
 33 35  1  0
 33 36  1  0
 36 37  1  0
 36 38  1  0
 36 39  1  0
 39 40  1  0
 39 41  1  0
 39 42  1  0
 42 43  1  0
 42 44  1  0
 28  3  1  0
 42 32  1  0
 24 15  1  0
M  CHG  1  21  -1
M  END
>  <UniqueID>  (17) 
17

>  <SMILES>  (17) 
O=C(/C=C\c1ccc([O-])cc1)c1ccc(O)c(CN2CCCC2)c1

>  <Energy>  (17) 
61.445150089837774

>  <Genealogy>  (17) 
O=C(C=Cc1ccc([O-])cc1)c1ccc(O)c(CN2CCCC2)c1 (protonated)
O=C(/C=C\c1ccc([O-])cc1)c1ccc(O)c(CN2CCCC2)c1 (cis-trans isomerization)
O=C(/C=C\c1ccc([O-])cc1)c1ccc(O)c(CN2CCCC2)c1 (3D coordinates assigned)
O=C(/C=C\c1ccc([O-])cc1)c1ccc(O)c(CN2CCCC2)c1 (nonaromatic ring conformer: 61.445150089837774 kcal/mol)

>  <smiles>  (17) 
O=C(C=Cc1ccc(O)cc1)c1ccc(O)c(CN2CCCC2)c1

>  <score_type>  (17) 
oracle

>  <origin>  (17) 
adgpu

>  <m_score__min__energy>  (17) 
-10.82

>  <m_primary>  (17) 
energy

$$$$
17:0
     RDKit          3D

 29 30  0  0  0  0  0  0  0  0999 V2000
   -2.4570   21.1810  -31.4330 C   0  0  0  0  0  0  0  0  0  0  0  0
   -2.5180   22.5040  -30.7400 C   0  0  0  0  0  0  0  0  0  0  0  0
   -1.4520   22.9410  -29.9460 C   0  0  0  0  0  0  0  0  0  0  0  0
   -1.5600   24.1810  -29.3120 C   0  0  0  0  0  0  0  0  0  0  0  0
   -0.6190   24.6060  -28.5920 O   0  0  0  0  0  0  0  0  0  0  0  0
   -2.6810   24.9300  -29.4720 N   0  0  0  0  0  0  0  0  0  0  0  0
   -3.7090   24.4880  -30.2440 C   0  0  0  0  0  0  0  0  0  0  0  0
   -5.1730   25.4980  -30.4500 S   0  0  0  0  0  0  0  0  0  0  0  0
   -6.3420   24.0940  -30.3610 C   0  0  0  0  0  0  0  0  0  0  0  0
   -6.4590   23.3890  -31.6870 C   0  0  0  0  0  0  0  0  0  0  0  0
   -5.7430   23.7990  -32.6410 O   0  0  0  0  0  0  0  0  0  0  0  0
   -7.3580   22.2220  -31.8970 C   0  0  0  0  0  0  0  0  0  0  0  0
   -8.7580   22.3400  -31.7890 C   0  0  0  0  0  0  0  0  0  0  0  0
   -9.5810   21.2260  -31.9810 C   0  0  0  0  0  0  0  0  0  0  0  0
   -9.0220   19.9830  -32.2810 C   0  0  0  0  0  0  0  0  0  0  0  0
   -7.6360   19.8500  -32.3930 C   0  0  0  0  0  0  0  0  0  0  0  0
   -6.8700   18.1470  -32.7990 Br  0  0  0  0  0  0  0  0  0  0  0  0
   -6.8070   20.9610  -32.2030 C   0  0  0  0  0  0  0  0  0  0  0  0
   -3.6250   23.2830  -30.8650 N   0  0  0  0  0  0  0  0  0  0  0  0
   -2.4199   20.3762  -30.6841 H   0  0  0  0  0  0  0  0  0  0  0  0
   -3.3503   21.0553  -32.0624 H   0  0  0  0  0  0  0  0  0  0  0  0
   -1.5559   21.1380  -32.0624 H   0  0  0  0  0  0  0  0  0  0  0  0
   -0.5504   22.3228  -29.8240 H   0  0  0  0  0  0  0  0  0  0  0  0
   -5.9845   23.3784  -29.6059 H   0  0  0  0  0  0  0  0  0  0  0  0
   -7.3332   24.4865  -30.0898 H   0  0  0  0  0  0  0  0  0  0  0  0
   -9.2068   23.3159  -31.5519 H   0  0  0  0  0  0  0  0  0  0  0  0
  -10.6727   21.3298  -31.8953 H   0  0  0  0  0  0  0  0  0  0  0  0
   -9.6725   19.1084  -32.4292 H   0  0  0  0  0  0  0  0  0  0  0  0
   -5.7164   20.8496  -32.2931 H   0  0  0  0  0  0  0  0  0  0  0  0
  1  2  1  0
  2  3  2  0
  3  4  1  0
  4  5  2  0
  4  6  1  0
  6  7  1  0
  7  8  1  0
  8  9  1  0
  9 10  1  0
 10 11  2  0
 10 12  1  0
 12 13  2  0
 13 14  1  0
 14 15  2  0
 15 16  1  0
 16 17  1  0
 16 18  2  0
  7 19  2  0
 19  2  1  0
 18 12  1  0
  1 20  1  0
  1 21  1  0
  1 22  1  0
  3 23  1  0
  9 24  1  0
  9 25  1  0
 13 26  1  0
 14 27  1  0
 15 28  1  0
 18 29  1  0
M  CHG  1   6  -1
M  END
>  <UniqueID>  (18) 
18

>  <SMILES>  (18) 
Cc1cc(=O)[n-]c(SCC(=O)c2cccc(Br)c2)n1

>  <Energy>  (18) 
26.340892335567858

>  <Genealogy>  (18) 
Cc1cc(=O)[n-]c(SCC(=O)c2cccc(Br)c2)n1 (protonated)
Cc1cc(=O)[n-]c(SCC(=O)c2cccc(Br)c2)n1 (3D coordinates assigned)
Cc1cc(=O)[n-]c(SCC(=O)c2cccc(Br)c2)n1 (optimized conformer: 26.340892335567858 kcal/mol)

>  <smiles>  (18) 
Cc1cc(=O)[nH]c(SCC(=O)c2cccc(Br)c2)n1

>  <score_type>  (18) 
oracle

>  <origin>  (18) 
adgpu

>  <m_score__min__energy>  (18) 
-9.4600000000000009

>  <m_primary>  (18) 
energy

$$$$
18:0
     RDKit          3D

 42 44  0  0  0  0  0  0  0  0999 V2000
   -4.1130   23.5620  -29.1660 O   0  0  0  0  0  0  0  0  0  0  0  0
   -3.5670   24.5440  -29.7390 C   0  0  0  0  0  0  0  0  0  0  0  0
   -4.2280   25.2040  -30.8210 N   0  0  0  0  0  0  0  0  0  0  0  0
   -5.6060   25.6690  -30.7350 C   0  0  0  0  0  0  0  0  0  0  0  0
   -6.5590   24.4750  -30.8320 C   0  0  0  0  0  0  0  0  0  0  0  0
   -6.0940   23.4400  -31.8650 C   0  0  0  0  0  0  0  0  0  0  0  0
   -7.0630   22.2910  -31.9910 C   0  0  0  0  0  0  0  0  0  0  0  0
   -6.6510   21.0800  -32.5700 C   0  0  0  0  0  0  0  0  0  0  0  0
   -7.5550   20.0230  -32.7100 C   0  0  0  0  0  0  0  0  0  0  0  0
   -8.8770   20.1690  -32.2780 C   0  0  0  0  0  0  0  0  0  0  0  0
   -9.2960   21.3740  -31.7080 C   0  0  0  0  0  0  0  0  0  0  0  0
   -8.3950   22.4340  -31.5650 C   0  0  0  0  0  0  0  0  0  0  0  0
   -2.2760   25.0030  -29.3200 N   0  0  0  0  0  0  0  0  0  0  0  0
   -1.5420   24.3680  -28.2620 C   0  0  0  0  0  0  0  0  0  0  0  0
   -1.4190   25.0390  -27.0370 C   0  0  0  0  0  0  0  0  0  0  0  0
   -0.6850   24.4800  -25.9900 C   0  0  0  0  0  0  0  0  0  0  0  0
   -0.0730   23.2360  -26.1460 C   0  0  0  0  0  0  0  0  0  0  0  0
   -0.2070   22.5290  -27.3490 C   0  0  0  0  0  0  0  0  0  0  0  0
    0.3860   21.2650  -27.4930 C   0  0  0  0  0  0  0  0  0  0  0  0
    0.2280   20.5450  -28.6790 C   0  0  0  0  0  0  0  0  0  0  0  0
   -0.5300   21.0730  -29.7240 C   0  0  0  0  0  0  0  0  0  0  0  0
   -1.1250   22.3320  -29.5970 C   0  0  0  0  0  0  0  0  0  0  0  0
   -0.9570   23.0860  -28.4190 C   0  0  0  0  0  0  0  0  0  0  0  0
   -5.7596   26.1826  -29.7745 H   0  0  0  0  0  0  0  0  0  0  0  0
   -5.8083   26.3654  -31.5621 H   0  0  0  0  0  0  0  0  0  0  0  0
   -6.6186   23.9892  -29.8469 H   0  0  0  0  0  0  0  0  0  0  0  0
   -7.5404   24.8535  -31.1538 H   0  0  0  0  0  0  0  0  0  0  0  0
   -5.9991   23.9332  -32.8436 H   0  0  0  0  0  0  0  0  0  0  0  0
   -5.1287   23.0343  -31.5279 H   0  0  0  0  0  0  0  0  0  0  0  0
   -5.6130   20.9626  -32.9147 H   0  0  0  0  0  0  0  0  0  0  0  0
   -7.2260   19.0750  -33.1606 H   0  0  0  0  0  0  0  0  0  0  0  0
   -9.5867   19.3356  -32.3869 H   0  0  0  0  0  0  0  0  0  0  0  0
  -10.3368   21.4891  -31.3710 H   0  0  0  0  0  0  0  0  0  0  0  0
   -8.7294   23.3819  -31.1181 H   0  0  0  0  0  0  0  0  0  0  0  0
   -1.7690   25.6730  -29.9400 H   0  0  0  0  0  0  0  0  0  0  0  0
   -1.9059   26.0158  -26.8999 H   0  0  0  0  0  0  0  0  0  0  0  0
   -0.5886   25.0224  -25.0379 H   0  0  0  0  0  0  0  0  0  0  0  0
    0.5169   22.8084  -25.3219 H   0  0  0  0  0  0  0  0  0  0  0  0
    0.9774   20.8400  -26.6686 H   0  0  0  0  0  0  0  0  0  0  0  0
    0.7026   19.5588  -28.7894 H   0  0  0  0  0  0  0  0  0  0  0  0
   -0.6603   20.4967  -30.6518 H   0  0  0  0  0  0  0  0  0  0  0  0
   -1.7286   22.7365  -30.4229 H   0  0  0  0  0  0  0  0  0  0  0  0
  1  2  2  0
  2  3  1  0
  3  4  1  0
  4  5  1  0
  5  6  1  0
  6  7  1  0
  7  8  2  0
  8  9  1  0
  9 10  2  0
 10 11  1  0
 11 12  2  0
  2 13  1  0
 13 14  1  0
 14 15  2  0
 15 16  1  0
 16 17  2  0
 17 18  1  0
 18 19  2  0
 19 20  1  0
 20 21  2  0
 21 22  1  0
 22 23  2  0
 12  7  1  0
 23 14  1  0
 23 18  1  0
  4 24  1  0
  4 25  1  0
  5 26  1  0
  5 27  1  0
  6 28  1  0
  6 29  1  0
  8 30  1  0
  9 31  1  0
 10 32  1  0
 11 33  1  0
 12 34  1  0
 13 35  1  0
 15 36  1  0
 16 37  1  0
 17 38  1  0
 19 39  1  0
 20 40  1  0
 21 41  1  0
 22 42  1  0
M  CHG  1   3  -1
M  END
>  <UniqueID>  (19) 
19

>  <SMILES>  (19) 
O=C([N-]CCCc1ccccc1)Nc1cccc2ccccc12

>  <Energy>  (19) 
47.25493786954314

>  <Genealogy>  (19) 
O=C([N-]CCCc1ccccc1)Nc1cccc2ccccc12 (protonated)
O=C([N-]CCCc1ccccc1)Nc1cccc2ccccc12 (3D coordinates assigned)
O=C([N-]CCCc1ccccc1)Nc1cccc2ccccc12 (optimized conformer: 47.25493786954314 kcal/mol)

>  <smiles>  (19) 
O=C(NCCCc1ccccc1)Nc1cccc2ccccc12

>  <score_type>  (19) 
oracle

>  <origin>  (19) 
adgpu

>  <m_score__min__energy>  (19) 
-10.800000000000001

>  <m_primary>  (19) 
energy

$$$$
19:0
     RDKit          3D

 49 51  0  0  0  0  0  0  0  0999 V2000
   -2.8470   20.2120  -32.1170 C   0  0  0  0  0  0  0  0  0  0  0  0
   -3.2620   21.1830  -31.0900 N   0  0  0  0  0  0  0  0  0  0  0  0
   -2.3740   21.1540  -29.9040 C   0  0  0  0  0  0  0  0  0  0  0  0
   -2.5150   22.3670  -29.0070 C   0  0  0  0  0  0  0  0  0  0  0  0
   -1.5420   23.3810  -29.0220 C   0  0  0  0  0  0  0  0  0  0  0  0
   -1.6700   24.4940  -28.1860 C   0  0  0  0  0  0  0  0  0  0  0  0
   -2.7710   24.6070  -27.3340 C   0  0  0  0  0  0  0  0  0  0  0  0
   -3.7480   23.6080  -27.3180 C   0  0  0  0  0  0  0  0  0  0  0  0
   -3.6240   22.4930  -28.1520 C   0  0  0  0  0  0  0  0  0  0  0  0
   -3.4140   22.5430  -31.6480 C   0  0  0  0  0  0  0  0  0  0  0  0
   -4.6910   23.1770  -31.1530 C   0  0  0  0  0  0  0  0  0  0  0  0
   -5.8740   22.4220  -31.1550 C   0  0  0  0  0  0  0  0  0  0  0  0
   -7.0830   22.9810  -30.7120 C   0  0  0  0  0  0  0  0  0  0  0  0
   -8.3450   22.1580  -30.7190 C   0  0  0  0  0  0  0  0  0  0  0  0
   -8.5210   21.4880  -32.0090 N   0  0  0  0  0  0  0  0  0  0  0  0
   -7.8480   20.2740  -32.3950 C   0  0  0  0  0  0  0  0  0  0  0  0
   -6.8190   20.3350  -33.3490 C   0  0  0  0  0  0  0  0  0  0  0  0
   -6.1430   19.1750  -33.7410 C   0  0  0  0  0  0  0  0  0  0  0  0
   -6.4920   17.9410  -33.1870 C   0  0  0  0  0  0  0  0  0  0  0  0
   -7.5170   17.8660  -32.2420 C   0  0  0  0  0  0  0  0  0  0  0  0
   -8.1960   19.0230  -31.8480 C   0  0  0  0  0  0  0  0  0  0  0  0
   -7.1080   24.3180  -30.2910 C   0  0  0  0  0  0  0  0  0  0  0  0
   -5.9380   25.0800  -30.2960 C   0  0  0  0  0  0  0  0  0  0  0  0
   -4.7270   24.5200  -30.7270 C   0  0  0  0  0  0  0  0  0  0  0  0
   -3.5680   25.2950  -30.7370 O   0  0  0  0  0  0  0  0  0  0  0  0
   -2.4595   19.3054  -31.6292 H   0  0  0  0  0  0  0  0  0  0  0  0
   -3.7117   19.9498  -32.7444 H   0  0  0  0  0  0  0  0  0  0  0  0
   -2.0599   20.6557  -32.7444 H   0  0  0  0  0  0  0  0  0  0  0  0
   -2.6118   20.2565  -29.3141 H   0  0  0  0  0  0  0  0  0  0  0  0
   -1.3393   21.1492  -30.2775 H   0  0  0  0  0  0  0  0  0  0  0  0
   -0.6756   23.2984  -29.6948 H   0  0  0  0  0  0  0  0  0  0  0  0
   -0.9026   25.2819  -28.1992 H   0  0  0  0  0  0  0  0  0  0  0  0
   -2.8691   25.4826  -26.6754 H   0  0  0  0  0  0  0  0  0  0  0  0
   -4.6158   23.6991  -26.6482 H   0  0  0  0  0  0  0  0  0  0  0  0
   -4.3974   21.7109  -28.1393 H   0  0  0  0  0  0  0  0  0  0  0  0
   -2.5586   23.1602  -31.3359 H   0  0  0  0  0  0  0  0  0  0  0  0
   -3.4521   22.4755  -32.7453 H   0  0  0  0  0  0  0  0  0  0  0  0
   -5.8536   21.3803  -31.5077 H   0  0  0  0  0  0  0  0  0  0  0  0
   -8.2858   21.4001  -29.9240 H   0  0  0  0  0  0  0  0  0  0  0  0
   -9.2025   22.8255  -30.5482 H   0  0  0  0  0  0  0  0  0  0  0  0
   -9.1440   21.9560  -32.7060 H   0  0  0  0  0  0  0  0  0  0  0  0
   -6.5424   21.3033  -33.7916 H   0  0  0  0  0  0  0  0  0  0  0  0
   -5.3359   19.2344  -34.4861 H   0  0  0  0  0  0  0  0  0  0  0  0
   -5.9596   17.0290  -33.4951 H   0  0  0  0  0  0  0  0  0  0  0  0
   -7.7911   16.8939  -31.8062 H   0  0  0  0  0  0  0  0  0  0  0  0
   -9.0062   18.9563  -31.1070 H   0  0  0  0  0  0  0  0  0  0  0  0
   -8.0536   24.7687  -29.9552 H   0  0  0  0  0  0  0  0  0  0  0  0
   -5.9665   26.1269  -29.9595 H   0  0  0  0  0  0  0  0  0  0  0  0
   -3.1720   25.6460  -31.6010 H   0  0  0  0  0  0  0  0  0  0  0  0
  1  2  1  0
  2  3  1  0
  3  4  1  0
  4  5  2  0
  5  6  1  0
  6  7  2  0
  7  8  1  0
  8  9  2  0
  2 10  1  0
 10 11  1  0
 11 12  2  0
 12 13  1  0
 13 14  1  0
 14 15  1  0
 15 16  1  0
 16 17  2  0
 17 18  1  0
 18 19  2  0
 19 20  1  0
 20 21  2  0
 13 22  2  0
 22 23  1  0
 23 24  2  0
 24 25  1  0
  9  4  1  0
 24 11  1  0
 21 16  1  0
  1 26  1  0
  1 27  1  0
  1 28  1  0
  3 29  1  0
  3 30  1  0
  5 31  1  0
  6 32  1  0
  7 33  1  0
  8 34  1  0
  9 35  1  0
 10 36  1  0
 10 37  1  0
 12 38  1  0
 14 39  1  0
 14 40  1  0
 15 41  1  0
 17 42  1  0
 18 43  1  0
 19 44  1  0
 20 45  1  0
 21 46  1  0
 22 47  1  0
 23 48  1  0
 25 49  1  0
M  END
>  <UniqueID>  (20) 
20

>  <SMILES>  (20) 
CN(Cc1ccccc1)Cc1cc(CNc2ccccc2)ccc1O

>  <Energy>  (20) 
53.096372588181765

>  <Genealogy>  (20) 
CN(Cc1ccccc1)Cc1cc(CNc2ccccc2)ccc1O (3D coordinates assigned)
CN(Cc1ccccc1)Cc1cc(CNc2ccccc2)ccc1O (optimized conformer: 53.096372588181765 kcal/mol)

>  <smiles>  (20) 
CN(Cc1ccccc1)Cc1cc(CNc2ccccc2)ccc1O

>  <score_type>  (20) 
oracle

>  <origin>  (20) 
adgpu

>  <m_score__min__energy>  (20) 
-9.6300000000000008

>  <m_primary>  (20) 
energy

$$$$
20:0
     RDKit          3D

 50 52  0  0  0  0  0  0  0  0999 V2000
   -0.1830   23.0150  -24.8230 C   0  0  0  0  0  0  0  0  0  0  0  0
   -0.7680   23.9660  -26.2590 S   0  0  0  0  0  0  0  0  0  0  0  0
   -1.2880   22.5070  -27.1660 C   0  0  0  0  0  0  0  0  0  0  0  0
   -1.6470   21.3950  -26.4730 N   0  0  0  0  0  0  0  0  0  0  0  0
   -2.0460   20.2690  -27.1150 C   0  0  0  0  0  0  0  0  0  0  0  0
   -2.4190   19.1070  -26.3600 C   0  0  0  0  0  0  0  0  0  0  0  0
   -2.7200   18.1690  -25.7530 N   0  0  0  0  0  0  0  0  0  0  0  0
   -2.0750   20.2340  -28.4710 N   0  0  0  0  0  0  0  0  0  0  0  0
   -1.7290   21.3190  -29.2190 C   0  0  0  0  0  0  0  0  0  0  0  0
   -1.7060   21.2480  -30.6540 N   0  0  0  0  0  0  0  0  0  0  0  0
   -0.7770   20.7400  -31.4130 C   0  0  0  0  0  0  0  0  0  0  0  0
   -0.9440   20.7620  -32.8040 C   0  0  0  0  0  0  0  0  0  0  0  0
    0.0440   20.2150  -33.6250 C   0  0  0  0  0  0  0  0  0  0  0  0
    1.1900   19.6560  -33.0560 C   0  0  0  0  0  0  0  0  0  0  0  0
    1.3270   19.6510  -31.6670 C   0  0  0  0  0  0  0  0  0  0  0  0
    0.3520   20.1870  -30.8840 N   0  0  0  0  0  0  0  0  0  0  0  0
   -1.3400   22.5050  -28.5680 C   0  0  0  0  0  0  0  0  0  0  0  0
   -0.9590   23.6810  -29.2940 N   0  0  0  0  0  0  0  0  0  0  0  0
   -1.6420   24.9390  -29.2380 C   0  0  0  0  0  0  0  0  0  0  0  0
   -0.9950   26.0180  -29.3230 O   0  0  0  0  0  0  0  0  0  0  0  0
   -3.0630   24.9960  -29.0740 N   0  0  0  0  0  0  0  0  0  0  0  0
   -4.0490   24.5140  -29.9990 C   0  0  0  0  0  0  0  0  0  0  0  0
   -5.1460   25.3330  -30.2930 C   0  0  0  0  0  0  0  0  0  0  0  0
   -6.1090   24.9190  -31.2170 C   0  0  0  0  0  0  0  0  0  0  0  0
   -5.9760   23.6900  -31.8650 C   0  0  0  0  0  0  0  0  0  0  0  0
   -4.8730   22.8680  -31.5980 C   0  0  0  0  0  0  0  0  0  0  0  0
   -4.6850   21.3290  -32.4400 S   0  0  0  0  0  0  0  0  0  0  0  0
   -4.1600   20.2980  -31.4800 O   0  0  0  0  0  0  0  0  0  0  0  0
   -3.6760   21.4890  -33.5430 O   0  0  0  0  0  0  0  0  0  0  0  0
   -6.2000   20.7710  -33.1100 N   0  0  0  0  0  0  0  0  0  0  0  0
   -7.1800   20.5740  -32.0360 C   0  0  0  0  0  0  0  0  0  0  0  0
   -5.9870   19.5170  -33.8410 C   0  0  0  0  0  0  0  0  0  0  0  0
   -3.9070   23.2870  -30.6710 C   0  0  0  0  0  0  0  0  0  0  0  0
   -0.4941   23.5207  -23.8970 H   0  0  0  0  0  0  0  0  0  0  0  0
   -0.6156   22.0040  -24.8518 H   0  0  0  0  0  0  0  0  0  0  0  0
    0.9144   22.9452  -24.8518 H   0  0  0  0  0  0  0  0  0  0  0  0
   -1.8474   21.2072  -33.2462 H   0  0  0  0  0  0  0  0  0  0  0  0
   -0.0802   20.2244  -34.7179 H   0  0  0  0  0  0  0  0  0  0  0  0
    1.9751   19.2249  -33.6945 H   0  0  0  0  0  0  0  0  0  0  0  0
    2.2242   19.2133  -31.2049 H   0  0  0  0  0  0  0  0  0  0  0  0
   -5.2503   26.3077  -29.7938 H   0  0  0  0  0  0  0  0  0  0  0  0
   -6.9738   25.5631  -31.4342 H   0  0  0  0  0  0  0  0  0  0  0  0
   -6.7394   23.3657  -32.5875 H   0  0  0  0  0  0  0  0  0  0  0  0
   -6.6806   20.6744  -31.0610 H   0  0  0  0  0  0  0  0  0  0  0  0
   -7.9741   21.3305  -32.1209 H   0  0  0  0  0  0  0  0  0  0  0  0
   -7.6200   19.5694  -32.1209 H   0  0  0  0  0  0  0  0  0  0  0  0
   -5.8472   18.6941  -33.1245 H   0  0  0  0  0  0  0  0  0  0  0  0
   -6.8625   19.3079  -34.4733 H   0  0  0  0  0  0  0  0  0  0  0  0
   -5.0916   19.6087  -34.4733 H   0  0  0  0  0  0  0  0  0  0  0  0
   -3.0324   22.6513  -30.4684 H   0  0  0  0  0  0  0  0  0  0  0  0
  1  2  1  0
  2  3  1  0
  3  4  2  0
  4  5  1  0
  5  6  1  0
  6  7  3  0
  5  8  2  0
  8  9  1  0
  9 10  1  0
 10 11  2  3
 11 12  1  0
 12 13  2  0
 13 14  1  0
 14 15  2  0
 15 16  1  0
  9 17  2  0
 17 18  1  0
 18 19  1  0
 19 20  2  0
 19 21  1  0
 21 22  1  0
 22 23  2  0
 23 24  1  0
 24 25  2  0
 25 26  1  0
 26 27  1  0
 27 28  2  0
 27 29  2  0
 27 30  1  0
 30 31  1  0
 30 32  1  0
 26 33  2  0
 17  3  1  0
 33 22  1  0
 16 11  1  0
  1 34  1  0
  1 35  1  0
  1 36  1  0
 12 37  1  0
 13 38  1  0
 14 39  1  0
 15 40  1  0
 23 41  1  0
 24 42  1  0
 25 43  1  0
 31 44  1  0
 31 45  1  0
 31 46  1  0
 32 47  1  0
 32 48  1  0
 32 49  1  0
 33 50  1  0
M  CHG  3  16  -1  18  -1  21  -1
M  END
>  <UniqueID>  (21) 
21

>  <SMILES>  (21) 
CSc1nc(C#N)nc(N=c2cccc[n-]2)c1[N-]C(=O)[N-]c1cccc(S(=O)(=O)N(C)C)c1

>  <Energy>  (21) 
56.27668457009479

>  <Genealogy>  (21) 
CSc1nc(C#N)nc(N=c2cccc[n-]2)c1[N-]C(=O)[N-]c1cccc(S(=O)(=O)N(C)C)c1 (protonated)
CSc1nc(C#N)nc(N=c2cccc[n-]2)c1[N-]C(=O)[N-]c1cccc(S(=O)(=O)N(C)C)c1 (3D coordinates assigned)
CSc1nc(C#N)nc(N=c2cccc[n-]2)c1[N-]C(=O)[N-]c1cccc(S(=O)(=O)N(C)C)c1 (optimized conformer: 56.27668457009479 kcal/mol)

>  <smiles>  (21) 
CSc1nc(C#N)nc(N=c2cccc[nH]2)c1NC(=O)Nc1cccc(S(=O)(=O)N(C)C)c1

>  <score_type>  (21) 
oracle

>  <origin>  (21) 
adgpu

>  <m_score__min__energy>  (21) 
-12.19

>  <m_primary>  (21) 
energy

$$$$
21:0
     RDKit          3D

 51 53  0  0  0  0  0  0  0  0999 V2000
   -1.1530   26.7580  -26.3660 C   0  0  0  0  0  0  0  0  0  0  0  0
   -1.1960   25.3420  -26.9520 C   0  0  0  0  0  0  0  0  0  0  0  0
   -2.3860   24.5310  -26.3810 C   0  0  0  0  0  0  0  0  0  0  0  0
   -3.5600   24.4900  -27.3660 C   0  0  0  0  0  0  0  0  0  0  0  0
   -3.1780   23.8240  -28.6300 N   0  0  0  0  0  0  0  0  0  0  0  0
   -4.3570   24.1690  -29.8760 S   0  0  0  0  0  0  0  0  0  0  0  0
   -5.6550   24.5830  -29.2420 O   0  0  0  0  0  0  0  0  0  0  0  0
   -3.8660   25.3140  -30.7180 O   0  0  0  0  0  0  0  0  0  0  0  0
   -4.6330   22.7640  -30.9070 C   0  0  0  0  0  0  0  0  0  0  0  0
   -5.5960   22.8140  -31.9240 C   0  0  0  0  0  0  0  0  0  0  0  0
   -5.8590   21.6810  -32.6980 C   0  0  0  0  0  0  0  0  0  0  0  0
   -5.1580   20.4890  -32.4700 C   0  0  0  0  0  0  0  0  0  0  0  0
   -5.5370   19.0460  -33.4180 S   0  0  0  0  0  0  0  0  0  0  0  0
   -4.2690   18.4800  -33.9960 O   0  0  0  0  0  0  0  0  0  0  0  0
   -6.4220   19.4540  -34.5620 O   0  0  0  0  0  0  0  0  0  0  0  0
   -6.3720   17.8240  -32.4780 N   0  0  0  0  0  0  0  0  0  0  0  0
   -5.8950   16.4710  -32.7910 C   0  0  0  0  0  0  0  0  0  0  0  0
   -7.8420   17.9480  -32.5140 C   0  0  0  0  0  0  0  0  0  0  0  0
   -8.3570   19.3050  -32.1140 C   0  0  0  0  0  0  0  0  0  0  0  0
   -9.4180   19.9770  -32.6890 C   0  0  0  0  0  0  0  0  0  0  0  0
   -9.5410   21.1530  -31.9790 C   0  0  0  0  0  0  0  0  0  0  0  0
   -8.5550   21.1220  -31.0140 C   0  0  0  0  0  0  0  0  0  0  0  0
   -7.8670   20.0080  -31.1200 O   0  0  0  0  0  0  0  0  0  0  0  0
   -4.1580   20.4570  -31.4880 C   0  0  0  0  0  0  0  0  0  0  0  0
   -3.9060   21.5830  -30.7030 C   0  0  0  0  0  0  0  0  0  0  0  0
   -1.7940   24.1080  -29.0870 C   0  0  0  0  0  0  0  0  0  0  0  0
   -1.2210   25.4030  -28.4950 C   0  0  0  0  0  0  0  0  0  0  0  0
   -1.1547   26.7004  -25.2675 H   0  0  0  0  0  0  0  0  0  0  0  0
   -0.2390   27.2675  -26.7050 H   0  0  0  0  0  0  0  0  0  0  0  0
   -2.0344   27.3220  -26.7050 H   0  0  0  0  0  0  0  0  0  0  0  0
   -0.2811   24.8102  -26.6517 H   0  0  0  0  0  0  0  0  0  0  0  0
   -2.0533   23.5024  -26.1780 H   0  0  0  0  0  0  0  0  0  0  0  0
   -2.7268   25.0210  -25.4570 H   0  0  0  0  0  0  0  0  0  0  0  0
   -4.3933   23.9374  -26.9075 H   0  0  0  0  0  0  0  0  0  0  0  0
   -3.8577   25.5240  -27.5946 H   0  0  0  0  0  0  0  0  0  0  0  0
   -6.1461   23.7476  -32.1133 H   0  0  0  0  0  0  0  0  0  0  0  0
   -6.6204   21.7247  -33.4907 H   0  0  0  0  0  0  0  0  0  0  0  0
   -5.7024   15.9247  -31.8559 H   0  0  0  0  0  0  0  0  0  0  0  0
   -6.6597   15.9388  -33.3758 H   0  0  0  0  0  0  0  0  0  0  0  0
   -4.9656   16.5360  -33.3758 H   0  0  0  0  0  0  0  0  0  0  0  0
   -8.1808   17.7390  -33.5394 H   0  0  0  0  0  0  0  0  0  0  0  0
   -8.2377   17.2308  -31.7798 H   0  0  0  0  0  0  0  0  0  0  0  0
  -10.0357   19.6439  -33.5361 H   0  0  0  0  0  0  0  0  0  0  0  0
  -10.2762   21.9536  -32.1478 H   0  0  0  0  0  0  0  0  0  0  0  0
   -8.3728   21.9105  -30.2690 H   0  0  0  0  0  0  0  0  0  0  0  0
   -3.5694   19.5403  -31.3356 H   0  0  0  0  0  0  0  0  0  0  0  0
   -3.1336   21.5436  -29.9208 H   0  0  0  0  0  0  0  0  0  0  0  0
   -1.1473   23.2698  -28.7884 H   0  0  0  0  0  0  0  0  0  0  0  0
   -1.8271   24.2320  -30.1795 H   0  0  0  0  0  0  0  0  0  0  0  0
   -0.1953   25.5453  -28.8661 H   0  0  0  0  0  0  0  0  0  0  0  0
   -1.8617   26.2426  -28.8024 H   0  0  0  0  0  0  0  0  0  0  0  0
  1  2  1  0
  2  3  1  0
  3  4  1  0
  4  5  1  0
  5  6  1  0
  6  7  2  0
  6  8  2  0
  6  9  1  0
  9 10  2  0
 10 11  1  0
 11 12  2  0
 12 13  1  0
 13 14  2  0
 13 15  2  0
 13 16  1  0
 16 17  1  0
 16 18  1  0
 18 19  1  0
 19 20  2  0
 20 21  1  0
 21 22  2  0
 22 23  1  0
 12 24  1  0
 24 25  2  0
  5 26  1  0
 26 27  1  0
 27  2  1  0
 25  9  1  0
 23 19  1  0
  1 28  1  0
  1 29  1  0
  1 30  1  0
  2 31  1  0
  3 32  1  0
  3 33  1  0
  4 34  1  0
  4 35  1  0
 10 36  1  0
 11 37  1  0
 17 38  1  0
 17 39  1  0
 17 40  1  0
 18 41  1  0
 18 42  1  0
 20 43  1  0
 21 44  1  0
 22 45  1  0
 24 46  1  0
 25 47  1  0
 26 48  1  0
 26 49  1  0
 27 50  1  0
 27 51  1  0
M  END
>  <UniqueID>  (22) 
22

>  <SMILES>  (22) 
CC1CCN(S(=O)(=O)c2ccc(S(=O)(=O)N(C)Cc3ccco3)cc2)CC1

>  <Energy>  (22) 
80.12614066773766

>  <Genealogy>  (22) 
CC1CCN(S(=O)(=O)c2ccc(S(=O)(=O)N(C)Cc3ccco3)cc2)CC1 (3D coordinates assigned)
CC1CCN(S(=O)(=O)c2ccc(S(=O)(=O)N(C)Cc3ccco3)cc2)CC1 (nonaromatic ring conformer: 80.12614066773766 kcal/mol)

>  <smiles>  (22) 
CC1CCN(S(=O)(=O)c2ccc(S(=O)(=O)N(C)Cc3ccco3)cc2)CC1

>  <score_type>  (22) 
oracle

>  <origin>  (22) 
adgpu

>  <m_score__min__energy>  (22) 
-10.5

>  <m_primary>  (22) 
energy

$$$$
22:0
     RDKit          3D

 52 55  0  0  0  0  0  0  0  0999 V2000
   -7.0390   17.0310  -33.1660 C   0  0  0  0  0  0  0  0  0  0  0  0
   -6.7940   17.8450  -31.9630 N   0  0  0  0  0  0  0  0  0  0  0  0
   -7.9710   18.6170  -31.4980 C   0  0  0  0  0  0  0  0  0  0  0  0
   -8.4590   19.7000  -32.4760 C   0  0  0  0  0  0  0  0  0  0  0  0
   -7.6830   20.9760  -32.3080 C   0  0  0  0  0  0  0  0  0  0  0  0
   -8.3720   22.1490  -31.9520 C   0  0  0  0  0  0  0  0  0  0  0  0
   -7.6920   23.3590  -31.8180 C   0  0  0  0  0  0  0  0  0  0  0  0
   -6.3200   23.4260  -32.0540 C   0  0  0  0  0  0  0  0  0  0  0  0
   -5.6500   24.6870  -31.9170 N   0  0  0  0  0  0  0  0  0  0  0  0
   -5.0440   25.1660  -30.7110 C   0  0  0  0  0  0  0  0  0  0  0  0
   -5.7530   25.7890  -29.8790 O   0  0  0  0  0  0  0  0  0  0  0  0
   -3.6490   24.9360  -30.4640 N   0  0  0  0  0  0  0  0  0  0  0  0
   -3.0600   23.9980  -29.5510 C   0  0  0  0  0  0  0  0  0  0  0  0
   -3.7450   22.8450  -29.1400 C   0  0  0  0  0  0  0  0  0  0  0  0
   -3.1650   21.9660  -28.2290 C   0  0  0  0  0  0  0  0  0  0  0  0
   -1.8920   22.2160  -27.7100 C   0  0  0  0  0  0  0  0  0  0  0  0
   -1.2650   21.0740  -26.5280 Cl  0  0  0  0  0  0  0  0  0  0  0  0
   -1.1810   23.3710  -28.1080 C   0  0  0  0  0  0  0  0  0  0  0  0
    0.4330   23.7240  -27.4530 S   0  0  0  0  0  0  0  0  0  0  0  0
    1.2240   24.5500  -28.4280 O   0  0  0  0  0  0  0  0  0  0  0  0
    1.1930   22.4470  -27.2210 O   0  0  0  0  0  0  0  0  0  0  0  0
    0.2420   24.6600  -25.9370 C   0  0  0  0  0  0  0  0  0  0  0  0
   -1.1860   25.0050  -25.5490 C   0  0  0  0  0  0  0  0  0  0  0  0
   -0.4460   23.8960  -24.8170 C   0  0  0  0  0  0  0  0  0  0  0  0
   -1.7900   24.2790  -29.0040 C   0  0  0  0  0  0  0  0  0  0  0  0
   -1.1300   25.4630  -29.3430 O   0  0  0  0  0  0  0  0  0  0  0  0
   -5.6180   22.2540  -32.3760 C   0  0  0  0  0  0  0  0  0  0  0  0
   -6.2860   21.0270  -32.5360 C   0  0  0  0  0  0  0  0  0  0  0  0
   -5.4460   19.8110  -32.8950 C   0  0  0  0  0  0  0  0  0  0  0  0
   -5.5110   18.5760  -31.9600 C   0  0  0  0  0  0  0  0  0  0  0  0
   -7.3441   16.0173  -32.8670 H   0  0  0  0  0  0  0  0  0  0  0  0
   -7.8380   17.4928  -33.7647 H   0  0  0  0  0  0  0  0  0  0  0  0
   -6.1179   16.9750  -33.7647 H   0  0  0  0  0  0  0  0  0  0  0  0
   -8.7977   17.9115  -31.3281 H   0  0  0  0  0  0  0  0  0  0  0  0
   -7.6554   19.1433  -30.5851 H   0  0  0  0  0  0  0  0  0  0  0  0
   -8.3319   19.3362  -33.5063 H   0  0  0  0  0  0  0  0  0  0  0  0
   -9.5185   19.9072  -32.2648 H   0  0  0  0  0  0  0  0  0  0  0  0
   -9.4574   22.1117  -31.7776 H   0  0  0  0  0  0  0  0  0  0  0  0
   -8.2414   24.2656  -31.5244 H   0  0  0  0  0  0  0  0  0  0  0  0
   -4.7476   22.6337  -29.5402 H   0  0  0  0  0  0  0  0  0  0  0  0
   -3.7142   21.0662  -27.9149 H   0  0  0  0  0  0  0  0  0  0  0  0
    1.1724   25.2373  -26.0426 H   0  0  0  0  0  0  0  0  0  0  0  0
   -1.4026   25.9535  -25.0358 H   0  0  0  0  0  0  0  0  0  0  0  0
   -2.1423   25.0781  -26.0877 H   0  0  0  0  0  0  0  0  0  0  0  0
   -0.1271   24.0424  -23.7745 H   0  0  0  0  0  0  0  0  0  0  0  0
   -0.6450   22.8347  -24.6069 H   0  0  0  0  0  0  0  0  0  0  0  0
   -0.1860   25.4820  -29.7070 H   0  0  0  0  0  0  0  0  0  0  0  0
   -4.5265   22.2961  -32.5054 H   0  0  0  0  0  0  0  0  0  0  0  0
   -5.7615   19.4801  -33.8955 H   0  0  0  0  0  0  0  0  0  0  0  0
   -4.4069   20.1623  -32.8120 H   0  0  0  0  0  0  0  0  0  0  0  0
   -4.7208   17.8755  -32.2679 H   0  0  0  0  0  0  0  0  0  0  0  0
   -5.3856   18.9632  -30.9380 H   0  0  0  0  0  0  0  0  0  0  0  0
  1  2  1  0
  2  3  1  0
  3  4  1  0
  4  5  1  0
  5  6  2  0
  6  7  1  0
  7  8  2  0
  8  9  1  0
  9 10  1  0
 10 11  2  0
 10 12  1  0
 12 13  1  0
 13 14  2  0
 14 15  1  0
 15 16  2  0
 16 17  1  0
 16 18  1  0
 18 19  1  0
 19 20  2  0
 19 21  2  0
 19 22  1  0
 22 23  1  0
 23 24  1  0
 18 25  2  0
 25 26  1  0
  8 27  1  0
 27 28  2  0
 28 29  1  0
 29 30  1  0
 30  2  1  0
 28  5  1  0
 25 13  1  0
 24 22  1  0
  1 31  1  0
  1 32  1  0
  1 33  1  0
  3 34  1  0
  3 35  1  0
  4 36  1  0
  4 37  1  0
  6 38  1  0
  7 39  1  0
 14 40  1  0
 15 41  1  0
 22 42  1  0
 23 43  1  0
 23 44  1  0
 24 45  1  0
 24 46  1  0
 26 47  1  0
 27 48  1  0
 29 49  1  0
 29 50  1  0
 30 51  1  0
 30 52  1  0
M  CHG  2   9  -1  12  -1
M  END
>  <UniqueID>  (23) 
23

>  <SMILES>  (23) 
CN1CCc2ccc([N-]C(=O)[N-]c3ccc(Cl)c(S(=O)(=O)C4CC4)c3O)cc2CC1

>  <Energy>  (23) 
344.2525854769047

>  <Genealogy>  (23) 
CN1CCc2ccc([N-]C(=O)[N-]c3ccc(Cl)c(S(=O)(=O)C4CC4)c3O)cc2CC1 (protonated)
CN1CCc2ccc([N-]C(=O)[N-]c3ccc(Cl)c(S(=O)(=O)C4CC4)c3O)cc2CC1 (3D coordinates assigned)
CN1CCc2ccc([N-]C(=O)[N-]c3ccc(Cl)c(S(=O)(=O)C4CC4)c3O)cc2CC1 (nonaromatic ring conformer: 344.2525854769047 kcal/mol)

>  <smiles>  (23) 
CN1CCc2ccc(NC(=O)Nc3ccc(Cl)c(S(=O)(=O)C4CC4)c3O)cc2CC1

>  <score_type>  (23) 
oracle

>  <origin>  (23) 
adgpu

>  <m_score__min__energy>  (23) 
-11.92

>  <m_primary>  (23) 
energy

$$$$
23:0
     RDKit          3D

 58 61  0  0  0  0  0  0  0  0999 V2000
   -3.7210   24.6310  -25.9810 O   0  0  0  0  0  0  0  0  0  0  0  0
   -3.0320   24.6840  -27.0370 C   0  0  0  0  0  0  0  0  0  0  0  0
   -3.6740   24.5450  -28.2670 C   0  0  0  0  0  0  0  0  0  0  0  0
   -2.9150   24.5670  -29.4330 C   0  0  0  0  0  0  0  0  0  0  0  0
   -3.5670   24.4340  -30.7080 N   0  0  0  0  0  0  0  0  0  0  0  0
   -4.8060   23.7320  -30.9100 C   0  0  0  0  0  0  0  0  0  0  0  0
   -4.8590   22.3490  -30.6840 C   0  0  0  0  0  0  0  0  0  0  0  0
   -6.0440   21.6410  -30.9040 C   0  0  0  0  0  0  0  0  0  0  0  0
   -7.1880   22.3060  -31.3660 C   0  0  0  0  0  0  0  0  0  0  0  0
   -8.6780   21.4200  -31.6780 S   0  0  0  0  0  0  0  0  0  0  0  0
   -9.2730   20.9380  -30.3840 O   0  0  0  0  0  0  0  0  0  0  0  0
   -9.6590   22.3470  -32.3420 O   0  0  0  0  0  0  0  0  0  0  0  0
   -8.3540   20.0590  -32.7260 N   0  0  0  0  0  0  0  0  0  0  0  0
   -7.0080   20.1950  -33.3280 C   0  0  0  0  0  0  0  0  0  0  0  0
   -6.4980   18.8590  -33.8710 C   0  0  0  0  0  0  0  0  0  0  0  0
   -6.3510   17.8220  -32.7440 C   0  0  0  0  0  0  0  0  0  0  0  0
   -7.2870   18.1000  -31.5550 C   0  0  0  0  0  0  0  0  0  0  0  0
   -8.5870   18.7750  -32.0180 C   0  0  0  0  0  0  0  0  0  0  0  0
   -7.1310   23.6810  -31.6200 C   0  0  0  0  0  0  0  0  0  0  0  0
   -5.9480   24.3910  -31.4000 C   0  0  0  0  0  0  0  0  0  0  0  0
   -1.5700   24.7620  -29.3510 N   0  0  0  0  0  0  0  0  0  0  0  0
   -0.9480   24.8990  -28.1480 C   0  0  0  0  0  0  0  0  0  0  0  0
    0.3050   25.0530  -28.1200 O   0  0  0  0  0  0  0  0  0  0  0  0
   -1.6750   24.8720  -26.9820 N   0  0  0  0  0  0  0  0  0  0  0  0
   -0.9930   24.9890  -25.6770 C   0  0  0  0  0  0  0  0  0  0  0  0
   -0.7490   23.6000  -25.0810 C   0  0  0  0  0  0  0  0  0  0  0  0
   -0.5510   22.5820  -26.1710 C   0  0  0  0  0  0  0  0  0  0  0  0
   -1.6030   21.7270  -26.5420 C   0  0  0  0  0  0  0  0  0  0  0  0
   -1.4080   20.7600  -27.5330 C   0  0  0  0  0  0  0  0  0  0  0  0
   -0.1610   20.6340  -28.1530 C   0  0  0  0  0  0  0  0  0  0  0  0
    0.8940   21.4710  -27.7790 C   0  0  0  0  0  0  0  0  0  0  0  0
    0.7030   22.4400  -26.7890 C   0  0  0  0  0  0  0  0  0  0  0  0
   -4.7658   24.4196  -28.3149 H   0  0  0  0  0  0  0  0  0  0  0  0
   -3.1200   24.8880  -31.5360 H   0  0  0  0  0  0  0  0  0  0  0  0
   -3.9625   21.8180  -30.3314 H   0  0  0  0  0  0  0  0  0  0  0  0
   -6.0788   20.5581  -30.7139 H   0  0  0  0  0  0  0  0  0  0  0  0
   -7.0574   20.9206  -34.1533 H   0  0  0  0  0  0  0  0  0  0  0  0
   -6.3137   20.5369  -32.5463 H   0  0  0  0  0  0  0  0  0  0  0  0
   -7.2108   18.4792  -34.6177 H   0  0  0  0  0  0  0  0  0  0  0  0
   -5.5101   19.0217  -34.3267 H   0  0  0  0  0  0  0  0  0  0  0  0
   -6.5836   16.8263  -33.1495 H   0  0  0  0  0  0  0  0  0  0  0  0
   -5.3170   17.8790  -32.3731 H   0  0  0  0  0  0  0  0  0  0  0  0
   -7.5329   17.1481  -31.0616 H   0  0  0  0  0  0  0  0  0  0  0  0
   -6.7723   18.7768  -30.8571 H   0  0  0  0  0  0  0  0  0  0  0  0
   -9.1144   18.0902  -32.6985 H   0  0  0  0  0  0  0  0  0  0  0  0
   -9.1801   18.9981  -31.1188 H   0  0  0  0  0  0  0  0  0  0  0  0
   -8.0223   24.2055  -31.9948 H   0  0  0  0  0  0  0  0  0  0  0  0
   -5.9095   25.4699  -31.6109 H   0  0  0  0  0  0  0  0  0  0  0  0
   -0.9980   24.8250  -30.2240 H   0  0  0  0  0  0  0  0  0  0  0  0
   -0.0285   25.4994  -25.8156 H   0  0  0  0  0  0  0  0  0  0  0  0
   -1.6289   25.5673  -24.9905 H   0  0  0  0  0  0  0  0  0  0  0  0
    0.1502   23.6313  -24.4482 H   0  0  0  0  0  0  0  0  0  0  0  0
   -1.6262   23.3123  -24.4829 H   0  0  0  0  0  0  0  0  0  0  0  0
   -2.5831   21.8189  -26.0511 H   0  0  0  0  0  0  0  0  0  0  0  0
   -2.2363   20.0978  -27.8251 H   0  0  0  0  0  0  0  0  0  0  0  0
   -0.0103   19.8757  -28.9355 H   0  0  0  0  0  0  0  0  0  0  0  0
    1.8758   21.3674  -28.2640 H   0  0  0  0  0  0  0  0  0  0  0  0
    1.5371   23.0932  -26.4931 H   0  0  0  0  0  0  0  0  0  0  0  0
  1  2  2  0
  2  3  1  0
  3  4  2  0
  4  5  1  0
  5  6  1  0
  6  7  2  0
  7  8  1  0
  8  9  2  0
  9 10  1  0
 10 11  2  0
 10 12  2  0
 10 13  1  0
 13 14  1  0
 14 15  1  0
 15 16  1  0
 16 17  1  0
 17 18  1  0
  9 19  1  0
 19 20  2  0
  4 21  1  0
 21 22  1  0
 22 23  2  0
 22 24  1  0
 24 25  1  0
 25 26  1  0
 26 27  1  0
 27 28  2  0
 28 29  1  0
 29 30  2  0
 30 31  1  0
 31 32  2  0
 24  2  1  0
 32 27  1  0
 20  6  1  0
 18 13  1  0
  3 33  1  0
  5 34  1  0
  7 35  1  0
  8 36  1  0
 14 37  1  0
 14 38  1  0
 15 39  1  0
 15 40  1  0
 16 41  1  0
 16 42  1  0
 17 43  1  0
 17 44  1  0
 18 45  1  0
 18 46  1  0
 19 47  1  0
 20 48  1  0
 21 49  1  0
 25 50  1  0
 25 51  1  0
 26 52  1  0
 26 53  1  0
 28 54  1  0
 29 55  1  0
 30 56  1  0
 31 57  1  0
 32 58  1  0
M  END
>  <UniqueID>  (24) 
24

>  <SMILES>  (24) 
O=c1cc(Nc2ccc(S(=O)(=O)N3CCCCC3)cc2)[nH]c(=O)n1CCc1ccccc1

>  <Energy>  (24) 
72.16193623908495

>  <Genealogy>  (24) 
O=c1cc(Nc2ccc(S(=O)(=O)N3CCCCC3)cc2)[nH]c(=O)n1CCc1ccccc1 (3D coordinates assigned)
O=c1cc(Nc2ccc(S(=O)(=O)N3CCCCC3)cc2)[nH]c(=O)n1CCc1ccccc1 (nonaromatic ring conformer: 72.16193623908495 kcal/mol)

>  <smiles>  (24) 
O=c1cc(Nc2ccc(S(=O)(=O)N3CCCCC3)cc2)[nH]c(=O)n1CCc1ccccc1

>  <score_type>  (24) 
oracle

>  <origin>  (24) 
adgpu

>  <m_score__min__energy>  (24) 
-11.380000000000001

>  <m_primary>  (24) 
energy

$$$$
24:0
     RDKit          3D

 59 62  0  0  0  0  0  0  0  0999 V2000
   -3.9320   21.5490  -31.6250 O   0  0  0  0  0  0  0  0  0  0  0  0
   -4.0240   22.5340  -30.8430 C   0  0  0  0  0  0  0  0  0  0  0  0
   -5.2460   23.2870  -30.7820 N   0  0  0  0  0  0  0  0  0  0  0  0
   -6.5260   22.7710  -31.1840 C   0  0  0  0  0  0  0  0  0  0  0  0
   -7.5900   23.6290  -31.5190 C   0  0  0  0  0  0  0  0  0  0  0  0
   -8.8150   23.1010  -31.9340 C   0  0  0  0  0  0  0  0  0  0  0  0
   -8.9880   21.7200  -32.0350 C   0  0  0  0  0  0  0  0  0  0  0  0
   -7.9280   20.8540  -31.7310 C   0  0  0  0  0  0  0  0  0  0  0  0
   -8.1320   19.1090  -31.8970 S   0  0  0  0  0  0  0  0  0  0  0  0
   -8.8320   18.5770  -30.6780 O   0  0  0  0  0  0  0  0  0  0  0  0
   -9.0030   18.8250  -33.0900 O   0  0  0  0  0  0  0  0  0  0  0  0
   -6.5990   18.2840  -32.0930 N   0  0  0  0  0  0  0  0  0  0  0  0
   -6.7850   16.9570  -32.6880 C   0  0  0  0  0  0  0  0  0  0  0  0
   -6.5120   17.0580  -34.1810 C   0  0  0  0  0  0  0  0  0  0  0  0
   -5.8020   18.3810  -34.3830 C   0  0  0  0  0  0  0  0  0  0  0  0
   -5.7130   19.0190  -33.0030 C   0  0  0  0  0  0  0  0  0  0  0  0
   -6.7030   21.3840  -31.3050 C   0  0  0  0  0  0  0  0  0  0  0  0
   -2.8410   22.9440  -30.0500 C   0  0  0  0  0  0  0  0  0  0  0  0
   -1.9330   21.9650  -29.6060 C   0  0  0  0  0  0  0  0  0  0  0  0
   -0.8060   22.3210  -28.8520 C   0  0  0  0  0  0  0  0  0  0  0  0
    0.3130   21.0780  -28.2860 S   0  0  0  0  0  0  0  0  0  0  0  0
    0.7300   20.2180  -29.4480 O   0  0  0  0  0  0  0  0  0  0  0  0
    1.5440   21.7360  -27.7290 O   0  0  0  0  0  0  0  0  0  0  0  0
   -0.4140   20.0760  -27.0490 N   0  0  0  0  0  0  0  0  0  0  0  0
   -1.6140   20.7200  -26.4610 C   0  0  0  0  0  0  0  0  0  0  0  0
   -2.9300   20.1210  -26.9780 C   0  0  0  0  0  0  0  0  0  0  0  0
   -3.0070   18.6130  -26.6850 C   0  0  0  0  0  0  0  0  0  0  0  0
   -1.6250   17.9350  -26.6860 C   0  0  0  0  0  0  0  0  0  0  0  0
   -0.6340   18.7060  -27.5620 C   0  0  0  0  0  0  0  0  0  0  0  0
   -0.5790   23.6670  -28.5440 C   0  0  0  0  0  0  0  0  0  0  0  0
   -1.4790   24.6460  -28.9670 C   0  0  0  0  0  0  0  0  0  0  0  0
   -2.6120   24.2930  -29.7070 C   0  0  0  0  0  0  0  0  0  0  0  0
   -3.5120   25.2890  -30.0690 O   0  0  0  0  0  0  0  0  0  0  0  0
   -5.1810   24.3000  -30.5290 H   0  0  0  0  0  0  0  0  0  0  0  0
   -7.4567   24.7189  -31.4539 H   0  0  0  0  0  0  0  0  0  0  0  0
   -9.6467   23.7767  -32.1822 H   0  0  0  0  0  0  0  0  0  0  0  0
   -9.9577   21.3100  -32.3537 H   0  0  0  0  0  0  0  0  0  0  0  0
   -6.0849   16.2429  -32.2298 H   0  0  0  0  0  0  0  0  0  0  0  0
   -7.8128   16.6056  -32.5145 H   0  0  0  0  0  0  0  0  0  0  0  0
   -5.8724   16.2259  -34.5104 H   0  0  0  0  0  0  0  0  0  0  0  0
   -7.4415   17.0041  -34.7668 H   0  0  0  0  0  0  0  0  0  0  0  0
   -4.7953   18.2165  -34.7946 H   0  0  0  0  0  0  0  0  0  0  0  0
   -6.3410   19.0255  -35.0930 H   0  0  0  0  0  0  0  0  0  0  0  0
   -4.6774   18.9664  -32.6358 H   0  0  0  0  0  0  0  0  0  0  0  0
   -6.0176   20.0747  -33.0551 H   0  0  0  0  0  0  0  0  0  0  0  0
   -5.8713   20.7060  -31.0629 H   0  0  0  0  0  0  0  0  0  0  0  0
   -2.1096   20.9078  -29.8535 H   0  0  0  0  0  0  0  0  0  0  0  0
   -1.5781   20.5970  -25.3685 H   0  0  0  0  0  0  0  0  0  0  0  0
   -1.5965   21.7797  -26.7555 H   0  0  0  0  0  0  0  0  0  0  0  0
   -3.7729   20.6262  -26.4837 H   0  0  0  0  0  0  0  0  0  0  0  0
   -2.9754   20.2672  -28.0673 H   0  0  0  0  0  0  0  0  0  0  0  0
   -3.4682   18.4699  -25.6967 H   0  0  0  0  0  0  0  0  0  0  0  0
   -3.6042   18.1499  -27.4843 H   0  0  0  0  0  0  0  0  0  0  0  0
   -1.2415   17.8993  -25.6556 H   0  0  0  0  0  0  0  0  0  0  0  0
   -1.7344   16.9189  -27.0930 H   0  0  0  0  0  0  0  0  0  0  0  0
    0.3262   18.1695  -27.5737 H   0  0  0  0  0  0  0  0  0  0  0  0
   -1.0522   18.7789  -28.5768 H   0  0  0  0  0  0  0  0  0  0  0  0
    0.3120   23.9544  -27.9664 H   0  0  0  0  0  0  0  0  0  0  0  0
   -1.2962   25.7015  -28.7169 H   0  0  0  0  0  0  0  0  0  0  0  0
  1  2  2  0
  2  3  1  0
  3  4  1  0
  4  5  2  0
  5  6  1  0
  6  7  2  0
  7  8  1  0
  8  9  1  0
  9 10  2  0
  9 11  2  0
  9 12  1  0
 12 13  1  0
 13 14  1  0
 14 15  1  0
 15 16  1  0
  8 17  2  0
  2 18  1  0
 18 19  2  0
 19 20  1  0
 20 21  1  0
 21 22  2  0
 21 23  2  0
 21 24  1  0
 24 25  1  0
 25 26  1  0
 26 27  1  0
 27 28  1  0
 28 29  1  0
 20 30  2  0
 30 31  1  0
 31 32  2  0
 32 33  1  0
 17  4  1  0
 32 18  1  0
 16 12  1  0
 29 24  1  0
  3 34  1  0
  5 35  1  0
  6 36  1  0
  7 37  1  0
 13 38  1  0
 13 39  1  0
 14 40  1  0
 14 41  1  0
 15 42  1  0
 15 43  1  0
 16 44  1  0
 16 45  1  0
 17 46  1  0
 19 47  1  0
 25 48  1  0
 25 49  1  0
 26 50  1  0
 26 51  1  0
 27 52  1  0
 27 53  1  0
 28 54  1  0
 28 55  1  0
 29 56  1  0
 29 57  1  0
 30 58  1  0
 31 59  1  0
M  CHG  1  33  -1
M  END
>  <UniqueID>  (25) 
25

>  <SMILES>  (25) 
O=C(Nc1cccc(S(=O)(=O)N2CCCC2)c1)c1cc(S(=O)(=O)N2CCCCC2)ccc1[O-]

>  <Energy>  (25) 
72.63668443065862

>  <Genealogy>  (25) 
O=C(Nc1cccc(S(=O)(=O)N2CCCC2)c1)c1cc(S(=O)(=O)N2CCCCC2)ccc1[O-] (protonated)
O=C(Nc1cccc(S(=O)(=O)N2CCCC2)c1)c1cc(S(=O)(=O)N2CCCCC2)ccc1[O-] (3D coordinates assigned)
O=C(Nc1cccc(S(=O)(=O)N2CCCC2)c1)c1cc(S(=O)(=O)N2CCCCC2)ccc1[O-] (nonaromatic ring conformer: 72.63668443065862 kcal/mol)

>  <smiles>  (25) 
O=C(Nc1cccc(S(=O)(=O)N2CCCC2)c1)c1cc(S(=O)(=O)N2CCCCC2)ccc1O

>  <score_type>  (25) 
oracle

>  <origin>  (25) 
adgpu

>  <m_score__min__energy>  (25) 
-13.25

>  <m_primary>  (25) 
energy

$$$$
25:0
     RDKit          3D

 53 56  0  0  0  0  0  0  0  0999 V2000
    0.0630   26.3830  -27.4720 C   0  0  0  0  0  0  0  0  0  0  0  0
   -1.1050   25.4800  -27.7520 C   0  0  0  0  0  0  0  0  0  0  0  0
   -1.4370   24.4520  -26.8620 C   0  0  0  0  0  0  0  0  0  0  0  0
   -2.5020   23.5970  -27.1690 C   0  0  0  0  0  0  0  0  0  0  0  0
   -3.2180   23.7680  -28.3560 C   0  0  0  0  0  0  0  0  0  0  0  0
   -2.8630   24.8150  -29.2300 C   0  0  0  0  0  0  0  0  0  0  0  0
   -3.5220   25.0230  -30.4880 N   0  0  0  0  0  0  0  0  0  0  0  0
   -4.9180   24.8820  -30.7930 C   0  0  0  0  0  0  0  0  0  0  0  0
   -5.7680   25.6610  -30.2840 O   0  0  0  0  0  0  0  0  0  0  0  0
   -5.3650   23.8550  -31.6850 N   0  0  0  0  0  0  0  0  0  0  0  0
   -4.6760   22.6260  -31.9480 C   0  0  0  0  0  0  0  0  0  0  0  0
   -4.2400   22.2810  -33.2380 C   0  0  0  0  0  0  0  0  0  0  0  0
   -3.5920   21.0630  -33.4600 C   0  0  0  0  0  0  0  0  0  0  0  0
   -3.3930   20.1700  -32.3990 C   0  0  0  0  0  0  0  0  0  0  0  0
   -2.5590   18.6100  -32.6900 S   0  0  0  0  0  0  0  0  0  0  0  0
   -1.0560   19.3860  -33.3070 C   0  0  0  0  0  0  0  0  0  0  0  0
   -0.7520   19.2360  -34.6670 C   0  0  0  0  0  0  0  0  0  0  0  0
    0.3970   19.8190  -35.2050 C   0  0  0  0  0  0  0  0  0  0  0  0
    1.2590   20.5470  -34.3850 C   0  0  0  0  0  0  0  0  0  0  0  0
    0.9710   20.7000  -33.0270 C   0  0  0  0  0  0  0  0  0  0  0  0
   -0.1880   20.1310  -32.4720 C   0  0  0  0  0  0  0  0  0  0  0  0
   -0.4560   20.3080  -31.0680 N   0  0  0  0  0  0  0  0  0  0  0  0
   -0.5120   19.1530  -30.1670 C   0  0  0  0  0  0  0  0  0  0  0  0
    0.3680   19.3820  -28.9200 C   0  0  0  0  0  0  0  0  0  0  0  0
    0.5000   20.7990  -28.5160 N   0  0  0  0  0  0  0  0  0  0  0  0
   -0.6040   21.6410  -28.9900 C   0  0  0  0  0  0  0  0  0  0  0  0
   -0.6280   21.6630  -30.5250 C   0  0  0  0  0  0  0  0  0  0  0  0
   -3.8330   20.5060  -31.1180 C   0  0  0  0  0  0  0  0  0  0  0  0
   -4.4900   21.7190  -30.8960 C   0  0  0  0  0  0  0  0  0  0  0  0
   -1.8110   25.6220  -28.9080 N   0  0  0  0  0  0  0  0  0  0  0  0
    0.1951   26.4851  -26.3848 H   0  0  0  0  0  0  0  0  0  0  0  0
    0.9738   25.9519  -27.9131 H   0  0  0  0  0  0  0  0  0  0  0  0
   -0.1249   27.3730  -27.9131 H   0  0  0  0  0  0  0  0  0  0  0  0
   -0.8669   24.3174  -25.9309 H   0  0  0  0  0  0  0  0  0  0  0  0
   -2.7754   22.7892  -26.4743 H   0  0  0  0  0  0  0  0  0  0  0  0
   -4.0498   23.0929  -28.6059 H   0  0  0  0  0  0  0  0  0  0  0  0
   -4.4093   22.9723  -34.0767 H   0  0  0  0  0  0  0  0  0  0  0  0
   -3.2378   20.8051  -34.4690 H   0  0  0  0  0  0  0  0  0  0  0  0
   -1.4238   18.6545  -35.3155 H   0  0  0  0  0  0  0  0  0  0  0  0
    0.6224   19.7042  -36.2755 H   0  0  0  0  0  0  0  0  0  0  0  0
    2.1669   21.0013  -34.8085 H   0  0  0  0  0  0  0  0  0  0  0  0
    1.6580   21.2714  -32.3856 H   0  0  0  0  0  0  0  0  0  0  0  0
   -1.5530   18.9951  -29.8487 H   0  0  0  0  0  0  0  0  0  0  0  0
   -0.1356   18.2702  -30.7046 H   0  0  0  0  0  0  0  0  0  0  0  0
   -0.0734   18.8248  -28.0806 H   0  0  0  0  0  0  0  0  0  0  0  0
    1.3786   19.0350  -29.1814 H   0  0  0  0  0  0  0  0  0  0  0  0
    1.3980   21.1820  -28.8970 H   0  0  0  0  0  0  0  0  0  0  0  0
   -1.5564   21.2365  -28.6168 H   0  0  0  0  0  0  0  0  0  0  0  0
   -0.4614   22.6660  -28.6170 H   0  0  0  0  0  0  0  0  0  0  0  0
   -1.5924   22.0683  -30.8650 H   0  0  0  0  0  0  0  0  0  0  0  0
    0.1992   22.2941  -30.8821 H   0  0  0  0  0  0  0  0  0  0  0  0
   -3.6621   19.8137  -30.2804 H   0  0  0  0  0  0  0  0  0  0  0  0
   -4.8631   21.9632  -29.8904 H   0  0  0  0  0  0  0  0  0  0  0  0
  1  2  1  0
  2  3  2  0
  3  4  1  0
  4  5  2  0
  5  6  1  0
  6  7  1  0
  7  8  1  0
  8  9  2  0
  8 10  1  0
 10 11  1  0
 11 12  2  0
 12 13  1  0
 13 14  2  0
 14 15  1  0
 15 16  1  0
 16 17  2  0
 17 18  1  0
 18 19  2  0
 19 20  1  0
 20 21  2  0
 21 22  1  0
 22 23  1  0
 23 24  1  0
 24 25  1  0
 25 26  1  0
 26 27  1  0
 14 28  1  0
 28 29  2  0
  6 30  2  0
 30  2  1  0
 29 11  1  0
 21 16  1  0
 27 22  1  0
  1 31  1  0
  1 32  1  0
  1 33  1  0
  3 34  1  0
  4 35  1  0
  5 36  1  0
 12 37  1  0
 13 38  1  0
 17 39  1  0
 18 40  1  0
 19 41  1  0
 20 42  1  0
 23 43  1  0
 23 44  1  0
 24 45  1  0
 24 46  1  0
 25 47  1  0
 26 48  1  0
 26 49  1  0
 27 50  1  0
 27 51  1  0
 28 52  1  0
 29 53  1  0
M  CHG  2   7  -1  10  -1
M  END
>  <UniqueID>  (26) 
26

>  <SMILES>  (26) 
Cc1cccc([N-]C(=O)[N-]c2ccc(Sc3ccccc3N3CCNCC3)cc2)n1

>  <Energy>  (26) 
67.96658522751893

>  <Genealogy>  (26) 
Cc1cccc([N-]C(=O)[N-]c2ccc(Sc3ccccc3N3CCNCC3)cc2)n1 (protonated)
Cc1cccc([N-]C(=O)[N-]c2ccc(Sc3ccccc3N3CCNCC3)cc2)n1 (3D coordinates assigned)
Cc1cccc([N-]C(=O)[N-]c2ccc(Sc3ccccc3N3CCNCC3)cc2)n1 (nonaromatic ring conformer: 67.96658522751893 kcal/mol)

>  <smiles>  (26) 
Cc1cccc(NC(=O)Nc2ccc(Sc3ccccc3N3CCNCC3)cc2)n1

>  <score_type>  (26) 
oracle

>  <origin>  (26) 
adgpu

>  <m_score__min__energy>  (26) 
-11.029999999999999

>  <m_primary>  (26) 
energy

$$$$
26:0
     RDKit          3D

 34 36  0  0  0  0  0  0  0  0999 V2000
   -9.6770   17.8560  -31.8290 O   0  0  0  0  0  0  0  0  0  0  0  0
   -8.7390   18.6460  -32.1180 C   0  0  0  0  0  0  0  0  0  0  0  0
   -9.0720   19.9820  -32.7280 C   0  0  0  0  0  0  0  0  0  0  0  0
   -8.5260   21.0650  -31.9200 N   0  0  0  0  0  0  0  0  0  0  0  0
   -9.1650   21.6480  -30.9200 N   0  0  0  0  0  0  0  0  0  0  0  0
   -8.3520   22.5170  -30.3410 N   0  0  0  0  0  0  0  0  0  0  0  0
   -7.1950   22.4280  -31.0320 C   0  0  0  0  0  0  0  0  0  0  0  0
   -5.9630   23.1740  -30.7050 C   0  0  0  0  0  0  0  0  0  0  0  0
   -5.9230   24.5740  -30.8340 C   0  0  0  0  0  0  0  0  0  0  0  0
   -4.7610   25.2790  -30.5050 C   0  0  0  0  0  0  0  0  0  0  0  0
   -3.6320   24.5960  -30.0430 C   0  0  0  0  0  0  0  0  0  0  0  0
   -2.4790   25.2990  -29.7150 O   0  0  0  0  0  0  0  0  0  0  0  0
   -3.6650   23.2050  -29.9110 C   0  0  0  0  0  0  0  0  0  0  0  0
   -4.8230   22.4960  -30.2410 C   0  0  0  0  0  0  0  0  0  0  0  0
   -7.2900   21.5220  -32.0250 N   0  0  0  0  0  0  0  0  0  0  0  0
   -7.3920   18.2630  -31.8050 N   0  0  0  0  0  0  0  0  0  0  0  0
   -6.3230   18.1350  -32.7490 C   0  0  0  0  0  0  0  0  0  0  0  0
   -6.3660   17.1610  -33.7610 C   0  0  0  0  0  0  0  0  0  0  0  0
   -5.3250   17.0630  -34.6890 C   0  0  0  0  0  0  0  0  0  0  0  0
   -4.2290   17.9240  -34.6040 C   0  0  0  0  0  0  0  0  0  0  0  0
   -4.1660   18.8780  -33.5840 C   0  0  0  0  0  0  0  0  0  0  0  0
   -5.2080   18.9820  -32.6510 C   0  0  0  0  0  0  0  0  0  0  0  0
   -5.1490   19.9350  -31.6350 O   0  0  0  0  0  0  0  0  0  0  0  0
   -8.6436   20.0344  -33.7398 H   0  0  0  0  0  0  0  0  0  0  0  0
  -10.1659   20.0891  -32.7721 H   0  0  0  0  0  0  0  0  0  0  0  0
   -6.8092   25.1165  -31.1951 H   0  0  0  0  0  0  0  0  0  0  0  0
   -4.7352   26.3737  -30.6100 H   0  0  0  0  0  0  0  0  0  0  0  0
   -2.7774   22.6671  -29.5465 H   0  0  0  0  0  0  0  0  0  0  0  0
   -4.8423   21.4011  -30.1370 H   0  0  0  0  0  0  0  0  0  0  0  0
   -7.2220   16.4730  -33.8233 H   0  0  0  0  0  0  0  0  0  0  0  0
   -5.3694   16.3070  -35.4868 H   0  0  0  0  0  0  0  0  0  0  0  0
   -3.4147   17.8516  -35.3400 H   0  0  0  0  0  0  0  0  0  0  0  0
   -3.2970   19.5487  -33.5130 H   0  0  0  0  0  0  0  0  0  0  0  0
   -5.9520   20.1390  -31.0520 H   0  0  0  0  0  0  0  0  0  0  0  0
  1  2  2  0
  2  3  1  0
  3  4  1  0
  4  5  1  0
  5  6  2  0
  6  7  1  0
  7  8  1  0
  8  9  2  0
  9 10  1  0
 10 11  2  0
 11 12  1  0
 11 13  1  0
 13 14  2  0
  7 15  2  0
  2 16  1  0
 16 17  1  0
 17 18  2  0
 18 19  1  0
 19 20  2  0
 20 21  1  0
 21 22  2  0
 22 23  1  0
 15  4  1  0
 22 17  1  0
 14  8  1  0
  3 24  1  0
  3 25  1  0
  9 26  1  0
 10 27  1  0
 13 28  1  0
 14 29  1  0
 18 30  1  0
 19 31  1  0
 20 32  1  0
 21 33  1  0
 23 34  1  0
M  CHG  2  12  -1  16  -1
M  END
>  <UniqueID>  (27) 
27

>  <SMILES>  (27) 
O=C(Cn1nnc(-c2ccc([O-])cc2)n1)[N-]c1ccccc1O

>  <Energy>  (27) 
76.69784073734715

>  <Genealogy>  (27) 
O=C(Cn1nnc(-c2ccc([O-])cc2)n1)[N-]c1ccccc1O (protonated)
O=C(Cn1nnc(-c2ccc([O-])cc2)n1)[N-]c1ccccc1O (3D coordinates assigned)
O=C(Cn1nnc(-c2ccc([O-])cc2)n1)[N-]c1ccccc1O (optimized conformer: 76.69784073734715 kcal/mol)

>  <smiles>  (27) 
O=C(Cn1nnc(-c2ccc(O)cc2)n1)Nc1ccccc1O

>  <score_type>  (27) 
oracle

>  <origin>  (27) 
adgpu

>  <m_score__min__energy>  (27) 
-10.85

>  <m_primary>  (27) 
energy

$$$$
27:0
     RDKit          3D

 63 67  0  0  0  0  0  0  0  0999 V2000
   -9.4620   22.7220  -32.0240 O   0  0  0  0  0  0  0  0  0  0  0  0
   -8.3830   22.0680  -32.0020 C   0  0  0  0  0  0  0  0  0  0  0  0
   -7.1530   22.7870  -31.5890 C   0  0  0  0  0  0  0  0  0  0  0  0
   -7.1940   23.8710  -30.6970 C   0  0  0  0  0  0  0  0  0  0  0  0
   -6.0170   24.5280  -30.3300 C   0  0  0  0  0  0  0  0  0  0  0  0
   -4.7890   24.1200  -30.8610 C   0  0  0  0  0  0  0  0  0  0  0  0
   -3.5910   24.7870  -30.4690 N   0  0  0  0  0  0  0  0  0  0  0  0
   -2.9400   24.5630  -28.8840 S   0  0  0  0  0  0  0  0  0  0  0  0
   -1.9570   25.6620  -28.5930 O   0  0  0  0  0  0  0  0  0  0  0  0
   -4.0460   24.6340  -27.8670 O   0  0  0  0  0  0  0  0  0  0  0  0
   -2.1310   23.0030  -28.7930 C   0  0  0  0  0  0  0  0  0  0  0  0
   -1.1290   22.6750  -29.7160 C   0  0  0  0  0  0  0  0  0  0  0  0
   -0.5000   21.4280  -29.6650 C   0  0  0  0  0  0  0  0  0  0  0  0
   -0.8720   20.4890  -28.6920 C   0  0  0  0  0  0  0  0  0  0  0  0
   -0.2500   19.2330  -28.6320 C   0  0  0  0  0  0  0  0  0  0  0  0
   -0.6350   18.3060  -27.6590 C   0  0  0  0  0  0  0  0  0  0  0  0
   -1.6410   18.6220  -26.7430 C   0  0  0  0  0  0  0  0  0  0  0  0
   -2.2710   19.8700  -26.7930 C   0  0  0  0  0  0  0  0  0  0  0  0
   -1.8920   20.8120  -27.7620 C   0  0  0  0  0  0  0  0  0  0  0  0
   -2.5140   22.0680  -27.8200 C   0  0  0  0  0  0  0  0  0  0  0  0
   -4.7430   23.0630  -31.7790 C   0  0  0  0  0  0  0  0  0  0  0  0
   -3.5620   22.6760  -32.3210 F   0  0  0  0  0  0  0  0  0  0  0  0
   -5.9210   22.4030  -32.1420 C   0  0  0  0  0  0  0  0  0  0  0  0
   -8.4000   20.6710  -32.4010 N   0  0  1  0  0  0  0  0  0  0  0  0
   -7.2500   20.2710  -33.2680 C   0  0  0  0  0  0  0  0  0  0  0  0
   -6.2350   19.3680  -32.5460 C   0  0  0  0  0  0  0  0  0  0  0  0
   -6.8840   18.0660  -31.9880 C   0  0  2  0  0  0  0  0  0  0  0  0
   -6.1560   17.6900  -30.8400 O   0  0  0  0  0  0  0  0  0  0  0  0
   -6.8370   16.9190  -33.0450 C   0  0  0  0  0  0  0  0  0  0  0  0
   -5.4620   16.6730  -33.6240 C   0  0  0  0  0  0  0  0  0  0  0  0
   -5.0580   17.3060  -34.8090 C   0  0  0  0  0  0  0  0  0  0  0  0
   -3.7850   17.0720  -35.3310 C   0  0  0  0  0  0  0  0  0  0  0  0
   -2.9180   16.2080  -34.6590 C   0  0  0  0  0  0  0  0  0  0  0  0
   -3.3150   15.6090  -33.5050 N   0  0  0  0  0  0  0  0  0  0  0  0
   -4.5520   15.8200  -32.9780 C   0  0  0  0  0  0  0  0  0  0  0  0
   -8.3710   18.3260  -31.5880 C   0  0  0  0  0  0  0  0  0  0  0  0
   -8.6150   19.7950  -31.2260 C   0  0  0  0  0  0  0  0  0  0  0  0
   -8.1579   24.2045  -30.2852 H   0  0  0  0  0  0  0  0  0  0  0  0
   -6.0561   25.3685  -29.6215 H   0  0  0  0  0  0  0  0  0  0  0  0
   -0.8355   23.4039  -30.4858 H   0  0  0  0  0  0  0  0  0  0  0  0
    0.2895   21.1822  -30.3905 H   0  0  0  0  0  0  0  0  0  0  0  0
    0.5417   18.9772  -29.3515 H   0  0  0  0  0  0  0  0  0  0  0  0
   -0.1433   17.3230  -27.6146 H   0  0  0  0  0  0  0  0  0  0  0  0
   -1.9387   17.8875  -25.9802 H   0  0  0  0  0  0  0  0  0  0  0  0
   -3.0649   20.1135  -26.0716 H   0  0  0  0  0  0  0  0  0  0  0  0
   -3.3056   22.3208  -27.0993 H   0  0  0  0  0  0  0  0  0  0  0  0
   -5.8822   21.5763  -32.8666 H   0  0  0  0  0  0  0  0  0  0  0  0
   -9.2540   20.5600  -33.0000 H   0  0  0  0  0  0  0  0  0  0  0  0
   -6.7318   21.1812  -33.6040 H   0  0  0  0  0  0  0  0  0  0  0  0
   -7.6597   19.6952  -34.1110 H   0  0  0  0  0  0  0  0  0  0  0  0
   -5.7963   19.9302  -31.7084 H   0  0  0  0  0  0  0  0  0  0  0  0
   -5.4707   19.0720  -33.2796 H   0  0  0  0  0  0  0  0  0  0  0  0
   -6.3610   16.7400  -30.6400 H   0  0  0  0  0  0  0  0  0  0  0  0
   -7.1811   15.9913  -32.5644 H   0  0  0  0  0  0  0  0  0  0  0  0
   -7.4834   17.2283  -33.8796 H   0  0  0  0  0  0  0  0  0  0  0  0
   -5.7466   17.9888  -35.3282 H   0  0  0  0  0  0  0  0  0  0  0  0
   -3.4678   17.5634  -36.2626 H   0  0  0  0  0  0  0  0  0  0  0  0
   -1.9139   16.0121  -35.0633 H   0  0  0  0  0  0  0  0  0  0  0  0
   -4.8405   15.3201  -32.0416 H   0  0  0  0  0  0  0  0  0  0  0  0
   -8.6208   17.6991  -30.7193 H   0  0  0  0  0  0  0  0  0  0  0  0
   -9.0056   18.0769  -32.4512 H   0  0  0  0  0  0  0  0  0  0  0  0
   -7.9202   20.0890  -30.4255 H   0  0  0  0  0  0  0  0  0  0  0  0
   -9.6566   19.9062  -30.8903 H   0  0  0  0  0  0  0  0  0  0  0  0
  1  2  2  0
  2  3  1  0
  3  4  2  0
  4  5  1  0
  5  6  2  0
  6  7  1  0
  7  8  1  0
  8  9  2  0
  8 10  2  0
  8 11  1  0
 11 12  2  0
 12 13  1  0
 13 14  2  0
 14 15  1  0
 15 16  2  0
 16 17  1  0
 17 18  2  0
 18 19  1  0
 19 20  2  0
  6 21  1  0
 21 22  1  0
 21 23  2  0
  2 24  1  0
 24 25  1  0
 25 26  1  0
 26 27  1  0
 27 28  1  1
 27 29  1  0
 29 30  1  0
 30 31  2  0
 31 32  1  0
 32 33  2  0
 33 34  1  0
 34 35  2  0
 27 36  1  0
 36 37  1  0
 23  3  1  0
 37 24  1  0
 20 11  1  0
 35 30  1  0
 19 14  1  0
  4 38  1  0
  5 39  1  0
 12 40  1  0
 13 41  1  0
 15 42  1  0
 16 43  1  0
 17 44  1  0
 18 45  1  0
 20 46  1  0
 23 47  1  0
 24 48  1  6
 25 49  1  0
 25 50  1  0
 26 51  1  0
 26 52  1  0
 28 53  1  0
 29 54  1  0
 29 55  1  0
 31 56  1  0
 32 57  1  0
 33 58  1  0
 35 59  1  0
 36 60  1  0
 36 61  1  0
 37 62  1  0
 37 63  1  0
M  CHG  2   7  -1  24   1
M  END
>  <UniqueID>  (28) 
28

>  <SMILES>  (28) 
O=C(c1ccc([N-]S(=O)(=O)c2ccc3ccccc3c2)c(F)c1)[NH+]1CCC(O)(Cc2cccnc2)CC1

>  <Energy>  (28) 
102.60390377011917

>  <Genealogy>  (28) 
O=C(c1ccc([N-]S(=O)(=O)c2ccc3ccccc3c2)c(F)c1)[NH+]1CCC(O)(Cc2cccnc2)CC1 (protonated)
O=C(c1ccc([N-]S(=O)(=O)c2ccc3ccccc3c2)c(F)c1)[NH+]1CCC(O)(Cc2cccnc2)CC1 (3D coordinates assigned)
O=C(c1ccc([N-]S(=O)(=O)c2ccc3ccccc3c2)c(F)c1)[NH+]1CCC(O)(Cc2cccnc2)CC1 (nonaromatic ring conformer: 102.60390377011917 kcal/mol)

>  <smiles>  (28) 
O=C(c1ccc(NS(=O)(=O)c2ccc3ccccc3c2)c(F)c1)N1CCC(O)(Cc2cccnc2)CC1

>  <score_type>  (28) 
oracle

>  <origin>  (28) 
adgpu

>  <m_score__min__energy>  (28) 
-12.859999999999999

>  <m_primary>  (28) 
energy

$$$$
28:0
     RDKit          3D

 51 53  0  0  0  0  0  0  0  0999 V2000
   -6.9620   25.1140  -30.0630 C   0  0  0  0  0  0  0  0  0  0  0  0
   -5.5290   24.6980  -30.0670 C   0  0  0  0  0  0  0  0  0  0  0  0
   -4.9540   23.7670  -29.2290 C   0  0  0  0  0  0  0  0  0  0  0  0
   -3.6210   23.8070  -29.5790 C   0  0  0  0  0  0  0  0  0  0  0  0
   -2.5160   22.9840  -28.9820 C   0  0  0  0  0  0  0  0  0  0  0  0
   -1.2720   23.0600  -29.7780 N   0  0  1  0  0  0  0  0  0  0  0  0
   -0.1240   23.2990  -28.8910 C   0  0  0  0  0  0  0  0  0  0  0  0
   -1.0050   21.5960  -30.7040 S   0  0  0  0  0  0  0  0  0  0  0  0
   -0.4820   20.5150  -29.8000 O   0  0  0  0  0  0  0  0  0  0  0  0
    0.0320   21.8480  -31.7640 O   0  0  0  0  0  0  0  0  0  0  0  0
   -2.4950   21.0330  -31.4650 C   0  0  0  0  0  0  0  0  0  0  0  0
   -2.6290   21.0700  -32.8590 C   0  0  0  0  0  0  0  0  0  0  0  0
   -3.7900   20.5880  -33.4680 C   0  0  0  0  0  0  0  0  0  0  0  0
   -4.8300   20.0620  -32.6880 C   0  0  0  0  0  0  0  0  0  0  0  0
   -6.2690   19.3920  -33.4600 S   0  0  0  0  0  0  0  0  0  0  0  0
   -5.9940   19.1800  -34.9220 O   0  0  0  0  0  0  0  0  0  0  0  0
   -6.5830   18.0560  -32.8470 O   0  0  0  0  0  0  0  0  0  0  0  0
   -7.6460   20.4520  -33.2680 N   0  0  0  0  0  0  0  0  0  0  0  0
   -7.2590   21.6700  -32.5220 C   0  0  0  0  0  0  0  0  0  0  0  0
   -8.4850   22.4000  -31.9640 C   0  0  0  0  0  0  0  0  0  0  0  0
   -9.2440   21.5140  -30.9600 C   0  0  0  0  0  0  0  0  0  0  0  0
   -9.0430   20.0120  -31.2180 C   0  0  0  0  0  0  0  0  0  0  0  0
   -8.8190   19.7310  -32.7130 C   0  0  0  0  0  0  0  0  0  0  0  0
   -4.7050   20.0470  -31.2920 C   0  0  0  0  0  0  0  0  0  0  0  0
   -3.5430   20.5280  -30.6830 C   0  0  0  0  0  0  0  0  0  0  0  0
   -3.4550   24.6950  -30.5310 O   0  0  0  0  0  0  0  0  0  0  0  0
   -4.5850   25.2590  -30.8460 N   0  0  0  0  0  0  0  0  0  0  0  0
   -7.3115   25.2154  -29.0249 H   0  0  0  0  0  0  0  0  0  0  0  0
   -7.0651   26.0791  -30.5806 H   0  0  0  0  0  0  0  0  0  0  0  0
   -7.5659   24.3541  -30.5806 H   0  0  0  0  0  0  0  0  0  0  0  0
   -5.4410   23.1428  -28.4653 H   0  0  0  0  0  0  0  0  0  0  0  0
   -2.3097   23.3513  -27.9659 H   0  0  0  0  0  0  0  0  0  0  0  0
   -2.8453   21.9345  -28.9684 H   0  0  0  0  0  0  0  0  0  0  0  0
   -1.3300   23.8620  -30.4480 H   0  0  0  0  0  0  0  0  0  0  0  0
   -0.4502   23.2311  -27.8427 H   0  0  0  0  0  0  0  0  0  0  0  0
    0.6516   22.5431  -29.0834 H   0  0  0  0  0  0  0  0  0  0  0  0
    0.2855   24.3017  -29.0834 H   0  0  0  0  0  0  0  0  0  0  0  0
   -1.8165   21.4804  -33.4766 H   0  0  0  0  0  0  0  0  0  0  0  0
   -3.8889   20.6211  -34.5630 H   0  0  0  0  0  0  0  0  0  0  0  0
   -6.6024   21.3842  -31.6870 H   0  0  0  0  0  0  0  0  0  0  0  0
   -6.7391   22.3483  -33.2145 H   0  0  0  0  0  0  0  0  0  0  0  0
   -8.1565   23.3189  -31.4564 H   0  0  0  0  0  0  0  0  0  0  0  0
   -9.1595   22.6413  -32.7987 H   0  0  0  0  0  0  0  0  0  0  0  0
   -8.8869   21.7470  -29.9460 H   0  0  0  0  0  0  0  0  0  0  0  0
  -10.3167   21.7285  -31.0750 H   0  0  0  0  0  0  0  0  0  0  0  0
   -8.1660   19.6647  -30.6521 H   0  0  0  0  0  0  0  0  0  0  0  0
   -9.9488   19.4782  -30.8946 H   0  0  0  0  0  0  0  0  0  0  0  0
   -8.6623   18.6505  -32.8472 H   0  0  0  0  0  0  0  0  0  0  0  0
   -9.7096   20.0862  -33.2522 H   0  0  0  0  0  0  0  0  0  0  0  0
   -5.5254   19.6548  -30.6730 H   0  0  0  0  0  0  0  0  0  0  0  0
   -3.4504   20.5103  -29.5870 H   0  0  0  0  0  0  0  0  0  0  0  0
  1  2  1  0
  2  3  1  0
  3  4  2  0
  4  5  1  0
  5  6  1  0
  6  7  1  0
  6  8  1  0
  8  9  2  0
  8 10  2  0
  8 11  1  0
 11 12  2  0
 12 13  1  0
 13 14  2  0
 14 15  1  0
 15 16  2  0
 15 17  2  0
 15 18  1  0
 18 19  1  0
 19 20  1  0
 20 21  1  0
 21 22  1  0
 22 23  1  0
 14 24  1  0
 24 25  2  0
  4 26  1  0
 26 27  1  0
 27  2  2  0
 25 11  1  0
 23 18  1  0
  1 28  1  0
  1 29  1  0
  1 30  1  0
  3 31  1  0
  5 32  1  0
  5 33  1  0
  6 34  1  6
  7 35  1  0
  7 36  1  0
  7 37  1  0
 12 38  1  0
 13 39  1  0
 19 40  1  0
 19 41  1  0
 20 42  1  0
 20 43  1  0
 21 44  1  0
 21 45  1  0
 22 46  1  0
 22 47  1  0
 23 48  1  0
 23 49  1  0
 24 50  1  0
 25 51  1  0
M  CHG  1   6   1
M  END
>  <UniqueID>  (29) 
29

>  <SMILES>  (29) 
Cc1cc(C[N@@H+](C)S(=O)(=O)c2ccc(S(=O)(=O)N3CCCCC3)cc2)on1

>  <Energy>  (29) 
82.26356633758365

>  <Genealogy>  (29) 
Cc1cc(C[NH+](C)S(=O)(=O)c2ccc(S(=O)(=O)N3CCCCC3)cc2)on1 (protonated)
Cc1cc(C[N@@H+](C)S(=O)(=O)c2ccc(S(=O)(=O)N3CCCCC3)cc2)on1 (chirality)
Cc1cc(C[N@@H+](C)S(=O)(=O)c2ccc(S(=O)(=O)N3CCCCC3)cc2)on1 (3D coordinates assigned)
Cc1cc(C[N@@H+](C)S(=O)(=O)c2ccc(S(=O)(=O)N3CCCCC3)cc2)on1 (nonaromatic ring conformer: 82.26356633758365 kcal/mol)

>  <smiles>  (29) 
Cc1cc(CN(C)S(=O)(=O)c2ccc(S(=O)(=O)N3CCCCC3)cc2)on1

>  <score_type>  (29) 
oracle

>  <origin>  (29) 
adgpu

>  <m_score__min__energy>  (29) 
-8.9499999999999993

>  <m_primary>  (29) 
energy

$$$$
29:0
     RDKit          3D

 48 50  0  0  0  0  0  0  0  0999 V2000
   -1.5890   25.6690  -28.4590 C   0  0  0  0  0  0  0  0  0  0  0  0
   -2.1530   24.5270  -29.2560 C   0  0  0  0  0  0  0  0  0  0  0  0
   -3.1970   24.7850  -30.0810 N   0  0  0  0  0  0  0  0  0  0  0  0
   -3.7910   23.8320  -30.8360 C   0  0  0  0  0  0  0  0  0  0  0  0
   -4.7560   24.1590  -31.5740 O   0  0  0  0  0  0  0  0  0  0  0  0
   -3.3220   22.5060  -30.8050 C   0  0  0  0  0  0  0  0  0  0  0  0
   -4.1630   21.2760  -31.7880 S   0  0  0  0  0  0  0  0  0  0  0  0
   -3.2030   20.5680  -32.7040 O   0  0  0  0  0  0  0  0  0  0  0  0
   -4.7580   20.2420  -30.8750 O   0  0  0  0  0  0  0  0  0  0  0  0
   -5.4370   21.9910  -32.7220 N   0  0  0  0  0  0  0  0  0  0  0  0
   -6.8110   21.8170  -32.3630 C   0  0  0  0  0  0  0  0  0  0  0  0
   -7.5770   22.9120  -31.9360 C   0  0  0  0  0  0  0  0  0  0  0  0
   -8.9220   22.7420  -31.6000 C   0  0  0  0  0  0  0  0  0  0  0  0
   -9.5080   21.4770  -31.6750 C   0  0  0  0  0  0  0  0  0  0  0  0
   -8.7480   20.3760  -32.0800 C   0  0  0  0  0  0  0  0  0  0  0  0
   -7.3990   20.5410  -32.4210 C   0  0  0  0  0  0  0  0  0  0  0  0
   -6.6300   19.4160  -32.8610 N   0  0  0  0  0  0  0  0  0  0  0  0
   -6.0860   19.3940  -34.2180 C   0  0  0  0  0  0  0  0  0  0  0  0
   -4.8020   18.5570  -34.2310 C   0  0  0  0  0  0  0  0  0  0  0  0
   -5.0270   17.2830  -33.6540 O   0  0  0  0  0  0  0  0  0  0  0  0
   -5.3480   17.4260  -32.2810 C   0  0  0  0  0  0  0  0  0  0  0  0
   -6.6790   18.1640  -32.1100 C   0  0  0  0  0  0  0  0  0  0  0  0
   -2.1800   22.2060  -30.0100 C   0  0  0  0  0  0  0  0  0  0  0  0
   -1.5410   20.8330  -30.0520 C   0  0  0  0  0  0  0  0  0  0  0  0
   -1.6460   23.2110  -29.1550 C   0  0  0  0  0  0  0  0  0  0  0  0
   -0.5180   22.8960  -28.1940 C   0  0  0  0  0  0  0  0  0  0  0  0
   -1.6950   25.4544  -27.3853 H   0  0  0  0  0  0  0  0  0  0  0  0
   -0.5243   25.7966  -28.7041 H   0  0  0  0  0  0  0  0  0  0  0  0
   -2.1348   26.5920  -28.7041 H   0  0  0  0  0  0  0  0  0  0  0  0
   -5.1780   22.8100  -33.3160 H   0  0  0  0  0  0  0  0  0  0  0  0
   -7.1165   23.9085  -31.8655 H   0  0  0  0  0  0  0  0  0  0  0  0
   -9.5205   23.6061  -31.2758 H   0  0  0  0  0  0  0  0  0  0  0  0
  -10.5689   21.3466  -31.4151 H   0  0  0  0  0  0  0  0  0  0  0  0
   -9.2095   19.3788  -32.1311 H   0  0  0  0  0  0  0  0  0  0  0  0
   -6.8227   18.9488  -34.9028 H   0  0  0  0  0  0  0  0  0  0  0  0
   -5.8621   20.4205  -34.5438 H   0  0  0  0  0  0  0  0  0  0  0  0
   -4.4659   18.4280  -35.2704 H   0  0  0  0  0  0  0  0  0  0  0  0
   -4.0337   19.0802  -33.6427 H   0  0  0  0  0  0  0  0  0  0  0  0
   -5.4265   16.4290  -31.8228 H   0  0  0  0  0  0  0  0  0  0  0  0
   -4.5546   18.0098  -31.7914 H   0  0  0  0  0  0  0  0  0  0  0  0
   -7.4992   17.5377  -32.4907 H   0  0  0  0  0  0  0  0  0  0  0  0
   -6.8511   18.3769  -31.0446 H   0  0  0  0  0  0  0  0  0  0  0  0
   -1.3742   20.4746  -29.0255 H   0  0  0  0  0  0  0  0  0  0  0  0
   -2.2067   20.1348  -30.5805 H   0  0  0  0  0  0  0  0  0  0  0  0
   -0.5781   20.8927  -30.5805 H   0  0  0  0  0  0  0  0  0  0  0  0
   -0.8786   22.9967  -27.1597 H   0  0  0  0  0  0  0  0  0  0  0  0
   -0.1697   21.8662  -28.3623 H   0  0  0  0  0  0  0  0  0  0  0  0
    0.3134   23.5963  -28.3623 H   0  0  0  0  0  0  0  0  0  0  0  0
  1  2  1  0
  2  3  1  0
  3  4  1  0
  4  5  2  0
  4  6  1  0
  6  7  1  0
  7  8  2  0
  7  9  2  0
  7 10  1  0
 10 11  1  0
 11 12  2  0
 12 13  1  0
 13 14  2  0
 14 15  1  0
 15 16  2  0
 16 17  1  0
 17 18  1  0
 18 19  1  0
 19 20  1  0
 20 21  1  0
 21 22  1  0
  6 23  2  0
 23 24  1  0
 23 25  1  0
 25 26  1  0
 25  2  2  0
 16 11  1  0
 22 17  1  0
  1 27  1  0
  1 28  1  0
  1 29  1  0
 10 30  1  0
 12 31  1  0
 13 32  1  0
 14 33  1  0
 15 34  1  0
 18 35  1  0
 18 36  1  0
 19 37  1  0
 19 38  1  0
 21 39  1  0
 21 40  1  0
 22 41  1  0
 22 42  1  0
 24 43  1  0
 24 44  1  0
 24 45  1  0
 26 46  1  0
 26 47  1  0
 26 48  1  0
M  CHG  1   3  -1
M  END
>  <UniqueID>  (30) 
30

>  <SMILES>  (30) 
Cc1[n-]c(=O)c(S(=O)(=O)Nc2ccccc2N2CCOCC2)c(C)c1C

>  <Energy>  (30) 
68.91847172804877

>  <Genealogy>  (30) 
Cc1[n-]c(=O)c(S(=O)(=O)Nc2ccccc2N2CCOCC2)c(C)c1C (protonated)
Cc1[n-]c(=O)c(S(=O)(=O)Nc2ccccc2N2CCOCC2)c(C)c1C (3D coordinates assigned)
Cc1[n-]c(=O)c(S(=O)(=O)Nc2ccccc2N2CCOCC2)c(C)c1C (nonaromatic ring conformer: 68.91847172804877 kcal/mol)

>  <smiles>  (30) 
Cc1[nH]c(=O)c(S(=O)(=O)Nc2ccccc2N2CCOCC2)c(C)c1C

>  <score_type>  (30) 
oracle

>  <origin>  (30) 
adgpu

>  <m_score__min__energy>  (30) 
-11.119999999999999

>  <m_primary>  (30) 
energy

$$$$
30:0
     RDKit          3D

 56 59  0  0  0  0  0  0  0  0999 V2000
   -0.4910   18.4430  -27.7130 C   0  0  0  0  0  0  0  0  0  0  0  0
   -1.3800   19.2510  -26.7690 C   0  0  0  0  0  0  0  0  0  0  0  0
   -0.8760   20.6890  -26.5760 C   0  0  0  0  0  0  0  0  0  0  0  0
   -1.8550   21.7040  -27.1110 C   0  0  0  0  0  0  0  0  0  0  0  0
   -1.6480   23.0760  -26.8960 C   0  0  0  0  0  0  0  0  0  0  0  0
   -2.5780   24.0110  -27.3600 C   0  0  0  0  0  0  0  0  0  0  0  0
   -3.7370   23.5920  -28.0310 C   0  0  0  0  0  0  0  0  0  0  0  0
   -4.6970   24.5710  -28.4630 N   0  0  0  0  0  0  0  0  0  0  0  0
   -5.0740   24.8500  -30.1340 S   0  0  0  0  0  0  0  0  0  0  0  0
   -6.1330   25.9120  -30.2380 O   0  0  0  0  0  0  0  0  0  0  0  0
   -3.8360   25.3190  -30.8470 O   0  0  0  0  0  0  0  0  0  0  0  0
   -5.6900   23.3650  -30.8540 C   0  0  0  0  0  0  0  0  0  0  0  0
   -4.8160   22.5190  -31.5480 C   0  0  0  0  0  0  0  0  0  0  0  0
   -5.2970   21.3670  -32.1750 C   0  0  0  0  0  0  0  0  0  0  0  0
   -6.6640   21.0360  -32.0990 C   0  0  0  0  0  0  0  0  0  0  0  0
   -7.5380   21.8900  -31.4000 C   0  0  0  0  0  0  0  0  0  0  0  0
   -7.0540   23.0470  -30.7820 C   0  0  0  0  0  0  0  0  0  0  0  0
   -8.9050   21.5910  -31.3450 O   0  0  0  0  0  0  0  0  0  0  0  0
   -9.4130   20.3270  -31.7660 C   0  0  0  0  0  0  0  0  0  0  0  0
   -8.6640   19.8320  -33.0080 C   0  0  0  0  0  0  0  0  0  0  0  0
   -7.2140   19.8790  -32.7710 N   0  0  0  0  0  0  0  0  0  0  0  0
   -6.3800   18.8190  -33.2750 C   0  0  0  0  0  0  0  0  0  0  0  0
   -5.8770   18.8750  -34.5830 C   0  0  0  0  0  0  0  0  0  0  0  0
   -5.0730   17.8420  -35.0730 C   0  0  0  0  0  0  0  0  0  0  0  0
   -4.7690   16.7450  -34.2630 C   0  0  0  0  0  0  0  0  0  0  0  0
   -5.2690   16.6740  -32.9540 C   0  0  0  0  0  0  0  0  0  0  0  0
   -4.9640   15.4940  -32.0780 C   0  0  0  0  0  0  0  0  0  0  0  0
   -6.0820   17.7090  -32.4680 C   0  0  0  0  0  0  0  0  0  0  0  0
   -3.9340   22.2180  -28.2600 C   0  0  0  0  0  0  0  0  0  0  0  0
   -3.0030   21.2830  -27.7980 C   0  0  0  0  0  0  0  0  0  0  0  0
    0.1965   17.8181  -27.1241 H   0  0  0  0  0  0  0  0  0  0  0  0
   -1.1188   17.7999  -28.3473 H   0  0  0  0  0  0  0  0  0  0  0  0
    0.0893   19.1292  -28.3473 H   0  0  0  0  0  0  0  0  0  0  0  0
   -2.3973   19.2864  -27.1859 H   0  0  0  0  0  0  0  0  0  0  0  0
   -1.3633   18.7556  -25.7870 H   0  0  0  0  0  0  0  0  0  0  0  0
   -0.7252   20.8720  -25.5019 H   0  0  0  0  0  0  0  0  0  0  0  0
    0.0665   20.7978  -27.1326 H   0  0  0  0  0  0  0  0  0  0  0  0
   -0.7499   23.4168  -26.3600 H   0  0  0  0  0  0  0  0  0  0  0  0
   -2.3997   25.0843  -27.1977 H   0  0  0  0  0  0  0  0  0  0  0  0
   -5.3270   25.0100  -27.7540 H   0  0  0  0  0  0  0  0  0  0  0  0
   -3.7446   22.7630  -31.5997 H   0  0  0  0  0  0  0  0  0  0  0  0
   -4.6056   20.7160  -32.7301 H   0  0  0  0  0  0  0  0  0  0  0  0
   -7.7442   23.7089  -30.2384 H   0  0  0  0  0  0  0  0  0  0  0  0
   -9.2865   19.5973  -30.9527 H   0  0  0  0  0  0  0  0  0  0  0  0
  -10.4787   20.4378  -32.0149 H   0  0  0  0  0  0  0  0  0  0  0  0
   -8.9643   18.7965  -33.2262 H   0  0  0  0  0  0  0  0  0  0  0  0
   -8.9121   20.4795  -33.8619 H   0  0  0  0  0  0  0  0  0  0  0  0
   -6.1161   19.7351  -35.2257 H   0  0  0  0  0  0  0  0  0  0  0  0
   -4.6787   17.8929  -36.0987 H   0  0  0  0  0  0  0  0  0  0  0  0
   -4.1357   15.9344  -34.6527 H   0  0  0  0  0  0  0  0  0  0  0  0
   -5.0410   15.7918  -31.0219 H   0  0  0  0  0  0  0  0  0  0  0  0
   -5.6833   14.6880  -32.2851 H   0  0  0  0  0  0  0  0  0  0  0  0
   -3.9442   15.1375  -32.2851 H   0  0  0  0  0  0  0  0  0  0  0  0
   -6.4889   17.6506  -31.4477 H   0  0  0  0  0  0  0  0  0  0  0  0
   -4.8261   21.8772  -28.8059 H   0  0  0  0  0  0  0  0  0  0  0  0
   -3.1719   20.2104  -27.9744 H   0  0  0  0  0  0  0  0  0  0  0  0
  1  2  1  0
  2  3  1  0
  3  4  1  0
  4  5  2  0
  5  6  1  0
  6  7  2  0
  7  8  1  0
  8  9  1  0
  9 10  2  0
  9 11  2  0
  9 12  1  0
 12 13  2  0
 13 14  1  0
 14 15  2  0
 15 16  1  0
 16 17  2  0
 16 18  1  0
 18 19  1  0
 19 20  1  0
 20 21  1  0
 21 22  1  0
 22 23  2  0
 23 24  1  0
 24 25  2  0
 25 26  1  0
 26 27  1  0
 26 28  2  0
  7 29  1  0
 29 30  2  0
 30  4  1  0
 17 12  1  0
 28 22  1  0
 21 15  1  0
  1 31  1  0
  1 32  1  0
  1 33  1  0
  2 34  1  0
  2 35  1  0
  3 36  1  0
  3 37  1  0
  5 38  1  0
  6 39  1  0
  8 40  1  0
 13 41  1  0
 14 42  1  0
 17 43  1  0
 19 44  1  0
 19 45  1  0
 20 46  1  0
 20 47  1  0
 23 48  1  0
 24 49  1  0
 25 50  1  0
 27 51  1  0
 27 52  1  0
 27 53  1  0
 28 54  1  0
 29 55  1  0
 30 56  1  0
M  END
>  <UniqueID>  (31) 
31

>  <SMILES>  (31) 
CCCc1ccc(NS(=O)(=O)c2ccc3c(c2)OCCN3c2cccc(C)c2)cc1

>  <Energy>  (31) 
63.36792034577688

>  <Genealogy>  (31) 
CCCc1ccc(NS(=O)(=O)c2ccc3c(c2)OCCN3c2cccc(C)c2)cc1 (3D coordinates assigned)
CCCc1ccc(NS(=O)(=O)c2ccc3c(c2)OCCN3c2cccc(C)c2)cc1 (nonaromatic ring conformer: 63.36792034577688 kcal/mol)

>  <smiles>  (31) 
CCCc1ccc(NS(=O)(=O)c2ccc3c(c2)OCCN3c2cccc(C)c2)cc1

>  <score_type>  (31) 
oracle

>  <origin>  (31) 
adgpu

>  <m_score__min__energy>  (31) 
-11.140000000000001

>  <m_primary>  (31) 
energy

$$$$
31:0
     RDKit          3D

 58 62  0  0  0  0  0  0  0  0999 V2000
   -6.3630   16.5730  -34.5150 C   0  0  0  0  0  0  0  0  0  0  0  0
   -5.6020   16.4880  -33.1830 C   0  0  1  0  0  0  0  0  0  0  0  0
   -5.3810   15.0170  -32.7420 C   0  0  0  0  0  0  0  0  0  0  0  0
   -3.9000   14.5870  -32.8010 C   0  0  1  0  0  0  0  0  0  0  0  0
   -3.7710   13.0600  -32.7330 C   0  0  0  0  0  0  0  0  0  0  0  0
   -3.2320   15.1400  -34.0750 C   0  0  0  0  0  0  0  0  0  0  0  0
   -3.3180   16.6190  -34.1920 N   0  0  0  0  0  0  0  0  0  0  0  0
   -1.7440   17.3560  -34.0080 S   0  0  0  0  0  0  0  0  0  0  0  0
   -1.1570   17.6490  -35.3620 O   0  0  0  0  0  0  0  0  0  0  0  0
   -0.8200   16.4250  -33.2740 O   0  0  0  0  0  0  0  0  0  0  0  0
   -1.9000   18.8430  -33.0780 C   0  0  0  0  0  0  0  0  0  0  0  0
   -1.3680   18.9390  -31.7830 C   0  0  0  0  0  0  0  0  0  0  0  0
   -1.4880   20.1290  -31.0610 C   0  0  0  0  0  0  0  0  0  0  0  0
   -2.1310   21.2420  -31.6280 C   0  0  0  0  0  0  0  0  0  0  0  0
   -2.2770   22.4620  -30.8820 N   0  0  0  0  0  0  0  0  0  0  0  0
   -3.2060   23.4100  -31.1210 C   0  0  0  0  0  0  0  0  0  0  0  0
   -3.0830   24.4140  -30.1880 C   0  0  0  0  0  0  0  0  0  0  0  0
   -3.8730   25.5550  -30.1260 O   0  0  0  0  0  0  0  0  0  0  0  0
   -2.0380   24.0930  -29.3390 C   0  0  0  0  0  0  0  0  0  0  0  0
   -1.5400   24.9300  -28.2280 C   0  0  0  0  0  0  0  0  0  0  0  0
   -1.4890   26.2870  -28.2760 N   0  0  0  0  0  0  0  0  0  0  0  0
   -0.9950   26.6070  -27.0730 C   0  0  0  0  0  0  0  0  0  0  0  0
   -0.7280   27.8790  -26.5700 C   0  0  0  0  0  0  0  0  0  0  0  0
   -0.2060   27.9690  -25.2650 C   0  0  0  0  0  0  0  0  0  0  0  0
    0.0310   26.7980  -24.5090 C   0  0  0  0  0  0  0  0  0  0  0  0
   -0.2530   25.5300  -25.0500 C   0  0  0  0  0  0  0  0  0  0  0  0
   -0.7680   25.4820  -26.3450 C   0  0  0  0  0  0  0  0  0  0  0  0
   -1.1080   24.3970  -27.0530 N   0  0  0  0  0  0  0  0  0  0  0  0
   -1.5610   22.8680  -29.8040 C   0  0  0  0  0  0  0  0  0  0  0  0
   -0.4370   22.1500  -29.2780 N   0  0  0  0  0  0  0  0  0  0  0  0
   -2.6730   21.1380  -32.9190 C   0  0  0  0  0  0  0  0  0  0  0  0
   -2.5500   19.9470  -33.6410 C   0  0  0  0  0  0  0  0  0  0  0  0
   -4.2710   17.2610  -33.2620 C   0  0  0  0  0  0  0  0  0  0  0  0
   -7.4382   16.6931  -34.3160 H   0  0  0  0  0  0  0  0  0  0  0  0
   -5.9981   17.4360  -35.0913 H   0  0  0  0  0  0  0  0  0  0  0  0
   -6.1975   15.6508  -35.0913 H   0  0  0  0  0  0  0  0  0  0  0  0
   -6.2240   16.9645  -32.4109 H   0  0  0  0  0  0  0  0  0  0  0  0
   -5.9635   14.3607  -33.4053 H   0  0  0  0  0  0  0  0  0  0  0  0
   -5.7066   14.9346  -31.6945 H   0  0  0  0  0  0  0  0  0  0  0  0
   -3.3808   15.0075  -31.9271 H   0  0  0  0  0  0  0  0  0  0  0  0
   -3.7440   12.7408  -31.6807 H   0  0  0  0  0  0  0  0  0  0  0  0
   -4.6332   12.5965  -33.2348 H   0  0  0  0  0  0  0  0  0  0  0  0
   -2.8433   12.7477  -33.2348 H   0  0  0  0  0  0  0  0  0  0  0  0
   -3.7253   14.6917  -34.9500 H   0  0  0  0  0  0  0  0  0  0  0  0
   -2.1645   14.8800  -34.0210 H   0  0  0  0  0  0  0  0  0  0  0  0
   -0.8552   18.0750  -31.3352 H   0  0  0  0  0  0  0  0  0  0  0  0
   -1.0767   20.1949  -30.0429 H   0  0  0  0  0  0  0  0  0  0  0  0
   -3.9461   23.3846  -31.9344 H   0  0  0  0  0  0  0  0  0  0  0  0
   -0.9182   28.7806  -27.1708 H   0  0  0  0  0  0  0  0  0  0  0  0
    0.0184   28.9550  -24.8319 H   0  0  0  0  0  0  0  0  0  0  0  0
    0.4401   26.8784  -23.4911 H   0  0  0  0  0  0  0  0  0  0  0  0
   -0.0753   24.6108  -24.4725 H   0  0  0  0  0  0  0  0  0  0  0  0
    0.0180   21.3770  -29.8060 H   0  0  0  0  0  0  0  0  0  0  0  0
   -0.0280   22.4040  -28.3520 H   0  0  0  0  0  0  0  0  0  0  0  0
   -3.1965   21.9969  -33.3642 H   0  0  0  0  0  0  0  0  0  0  0  0
   -2.9663   19.8774  -34.6568 H   0  0  0  0  0  0  0  0  0  0  0  0
   -4.4737   18.2845  -33.6103 H   0  0  0  0  0  0  0  0  0  0  0  0
   -3.8189   17.2670  -32.2592 H   0  0  0  0  0  0  0  0  0  0  0  0
  1  2  1  0
  2  3  1  0
  3  4  1  0
  4  5  1  0
  4  6  1  0
  6  7  1  0
  7  8  1  0
  8  9  2  0
  8 10  2  0
  8 11  1  0
 11 12  2  0
 12 13  1  0
 13 14  2  0
 14 15  1  0
 15 16  1  0
 16 17  2  0
 17 18  1  0
 17 19  1  0
 19 20  1  0
 20 21  2  0
 21 22  1  0
 22 23  2  0
 23 24  1  0
 24 25  2  0
 25 26  1  0
 26 27  2  0
 27 28  1  0
 19 29  2  0
 29 30  1  0
 14 31  1  0
 31 32  2  0
  7 33  1  0
 33  2  1  0
 32 11  1  0
 29 15  1  0
 28 20  1  0
 27 22  1  0
  1 34  1  0
  1 35  1  0
  1 36  1  0
  2 37  1  1
  3 38  1  0
  3 39  1  0
  4 40  1  1
  5 41  1  0
  5 42  1  0
  5 43  1  0
  6 44  1  0
  6 45  1  0
 12 46  1  0
 13 47  1  0
 16 48  1  0
 23 49  1  0
 24 50  1  0
 25 51  1  0
 26 52  1  0
 30 53  1  0
 30 54  1  0
 31 55  1  0
 32 56  1  0
 33 57  1  0
 33 58  1  0
M  CHG  2  18  -1  28  -1
M  END
>  <UniqueID>  (32) 
32

>  <SMILES>  (32) 
C[C@@H]1C[C@H](C)CN(S(=O)(=O)c2ccc(-n3cc([O-])c(-c4nc5ccccc5[n-]4)c3N)cc2)C1

>  <Energy>  (32) 
136.9418260862616

>  <Genealogy>  (32) 
CC1CC(C)CN(S(=O)(=O)c2ccc(-n3cc([O-])c(-c4nc5ccccc5[n-]4)c3N)cc2)C1 (protonated)
C[C@@H]1C[C@H](C)CN(S(=O)(=O)c2ccc(-n3cc([O-])c(-c4nc5ccccc5[n-]4)c3N)cc2)C1 (chirality)
C[C@@H]1C[C@H](C)CN(S(=O)(=O)c2ccc(-n3cc([O-])c(-c4nc5ccccc5[n-]4)c3N)cc2)C1 (3D coordinates assigned)
C[C@@H]1C[C@H](C)CN(S(=O)(=O)c2ccc(-n3cc([O-])c(-c4nc5ccccc5[n-]4)c3N)cc2)C1 (nonaromatic ring conformer: 136.9418260862616 kcal/mol)

>  <smiles>  (32) 
CC1CC(C)CN(S(=O)(=O)c2ccc(-n3cc(O)c(-c4nc5ccccc5[nH]4)c3N)cc2)C1

>  <score_type>  (32) 
oracle

>  <origin>  (32) 
adgpu

>  <m_score__min__energy>  (32) 
-12.06

>  <m_primary>  (32) 
energy

$$$$
32:0
     RDKit          3D

 54 57  0  0  0  0  0  0  0  0999 V2000
    0.0040   27.0980  -27.2000 C   0  0  0  0  0  0  0  0  0  0  0  0
   -0.7060   25.7960  -27.4140 C   0  0  0  0  0  0  0  0  0  0  0  0
   -1.9570   25.5630  -26.8270 C   0  0  0  0  0  0  0  0  0  0  0  0
   -2.5920   24.3360  -27.0260 C   0  0  0  0  0  0  0  0  0  0  0  0
   -1.9760   23.3400  -27.8040 C   0  0  0  0  0  0  0  0  0  0  0  0
   -2.6130   22.0150  -28.0060 C   0  0  0  0  0  0  0  0  0  0  0  0
   -3.8670   21.9110  -27.9380 O   0  0  0  0  0  0  0  0  0  0  0  0
   -1.8260   20.8060  -28.3140 C   0  0  0  0  0  0  0  0  0  0  0  0
   -1.5120   19.7940  -27.4200 C   0  0  0  0  0  0  0  0  0  0  0  0
   -1.9190   19.7270  -25.9820 C   0  0  0  0  0  0  0  0  0  0  0  0
   -0.7410   18.8670  -28.0190 N   0  0  0  0  0  0  0  0  0  0  0  0
   -0.5550   19.2690  -29.2920 C   0  0  0  0  0  0  0  0  0  0  0  0
    0.2490   18.4880  -30.2820 C   0  0  0  0  0  0  0  0  0  0  0  0
   -1.2140   20.4730  -29.5180 C   0  0  0  0  0  0  0  0  0  0  0  0
   -1.1960   21.4450  -30.9980 S   0  0  0  0  0  0  0  0  0  0  0  0
   -1.6210   20.6180  -32.1800 O   0  0  0  0  0  0  0  0  0  0  0  0
    0.2090   21.9080  -31.2640 O   0  0  0  0  0  0  0  0  0  0  0  0
   -2.2030   22.8470  -30.8010 N   0  0  0  0  0  0  0  0  0  0  0  0
   -3.6210   22.9360  -31.0050 C   0  0  0  0  0  0  0  0  0  0  0  0
   -4.4010   21.8280  -31.3730 C   0  0  0  0  0  0  0  0  0  0  0  0
   -5.7910   21.9450  -31.5330 C   0  0  0  0  0  0  0  0  0  0  0  0
   -6.4180   23.1900  -31.2890 C   0  0  0  0  0  0  0  0  0  0  0  0
   -5.6300   24.3040  -30.9640 C   0  0  0  0  0  0  0  0  0  0  0  0
   -4.2460   24.1780  -30.8170 C   0  0  0  0  0  0  0  0  0  0  0  0
   -3.4930   25.2960  -30.4680 O   0  0  0  0  0  0  0  0  0  0  0  0
   -7.9060   23.3720  -31.4740 C   0  0  0  0  0  0  0  0  0  0  0  0
   -8.6700   22.0440  -31.4130 C   0  0  0  0  0  0  0  0  0  0  0  0
   -8.0110   21.0190  -32.3380 C   0  0  0  0  0  0  0  0  0  0  0  0
   -6.5940   20.7010  -31.8510 C   0  0  0  0  0  0  0  0  0  0  0  0
   -0.7140   23.6170  -28.3630 C   0  0  0  0  0  0  0  0  0  0  0  0
   -0.1180   24.8220  -28.1570 N   0  0  0  0  0  0  0  0  0  0  0  0
    0.1068   27.2866  -26.1212 H   0  0  0  0  0  0  0  0  0  0  0  0
    1.0017   27.0516  -27.6609 H   0  0  0  0  0  0  0  0  0  0  0  0
   -0.5753   27.9116  -27.6609 H   0  0  0  0  0  0  0  0  0  0  0  0
   -2.4350   26.3413  -26.2140 H   0  0  0  0  0  0  0  0  0  0  0  0
   -3.5766   24.1479  -26.5731 H   0  0  0  0  0  0  0  0  0  0  0  0
   -1.0351   19.8725  -25.3436 H   0  0  0  0  0  0  0  0  0  0  0  0
   -2.6565   20.5158  -25.7725 H   0  0  0  0  0  0  0  0  0  0  0  0
   -2.3647   18.7434  -25.7725 H   0  0  0  0  0  0  0  0  0  0  0  0
   -0.3560   18.0000  -27.5770 H   0  0  0  0  0  0  0  0  0  0  0  0
    0.9386   17.8181  -29.7474 H   0  0  0  0  0  0  0  0  0  0  0  0
   -0.4259   17.8915  -30.9134 H   0  0  0  0  0  0  0  0  0  0  0  0
    0.8257   19.1799  -30.9134 H   0  0  0  0  0  0  0  0  0  0  0  0
   -3.9162   20.8545  -31.5383 H   0  0  0  0  0  0  0  0  0  0  0  0
   -6.1058   25.2858  -30.8236 H   0  0  0  0  0  0  0  0  0  0  0  0
   -8.2825   24.0328  -30.6793 H   0  0  0  0  0  0  0  0  0  0  0  0
   -8.0690   23.8069  -32.4712 H   0  0  0  0  0  0  0  0  0  0  0  0
   -8.6583   21.6639  -30.3808 H   0  0  0  0  0  0  0  0  0  0  0  0
   -9.7080   22.2090  -31.7377 H   0  0  0  0  0  0  0  0  0  0  0  0
   -8.6094   20.0960  -32.3425 H   0  0  0  0  0  0  0  0  0  0  0  0
   -7.9561   21.4359  -33.3545 H   0  0  0  0  0  0  0  0  0  0  0  0
   -6.6644   20.0859  -30.9418 H   0  0  0  0  0  0  0  0  0  0  0  0
   -6.0755   20.1701  -32.6630 H   0  0  0  0  0  0  0  0  0  0  0  0
   -0.2064   22.8534  -28.9707 H   0  0  0  0  0  0  0  0  0  0  0  0
  1  2  1  0
  2  3  2  0
  3  4  1  0
  4  5  2  0
  5  6  1  0
  6  7  2  0
  6  8  1  0
  8  9  2  0
  9 10  1  0
  9 11  1  0
 11 12  1  0
 12 13  1  0
 12 14  2  0
 14 15  1  0
 15 16  2  0
 15 17  2  0
 15 18  1  0
 18 19  1  0
 19 20  2  0
 20 21  1  0
 21 22  2  0
 22 23  1  0
 23 24  2  0
 24 25  1  0
 22 26  1  0
 26 27  1  0
 27 28  1  0
 28 29  1  0
  5 30  1  0
 30 31  2  0
 31  2  1  0
 14  8  1  0
 24 19  1  0
 29 21  1  0
  1 32  1  0
  1 33  1  0
  1 34  1  0
  3 35  1  0
  4 36  1  0
 10 37  1  0
 10 38  1  0
 10 39  1  0
 11 40  1  0
 13 41  1  0
 13 42  1  0
 13 43  1  0
 20 44  1  0
 23 45  1  0
 26 46  1  0
 26 47  1  0
 27 48  1  0
 27 49  1  0
 28 50  1  0
 28 51  1  0
 29 52  1  0
 29 53  1  0
 30 54  1  0
M  CHG  2  18  -1  25  -1
M  END
>  <UniqueID>  (33) 
33

>  <SMILES>  (33) 
Cc1ccc(C(=O)c2c(C)[nH]c(C)c2S(=O)(=O)[N-]c2cc3c(cc2[O-])CCCC3)cn1

>  <Energy>  (33) 
92.23147642398428

>  <Genealogy>  (33) 
Cc1ccc(C(=O)c2c(C)[nH]c(C)c2S(=O)(=O)[N-]c2cc3c(cc2[O-])CCCC3)cn1 (protonated)
Cc1ccc(C(=O)c2c(C)[nH]c(C)c2S(=O)(=O)[N-]c2cc3c(cc2[O-])CCCC3)cn1 (3D coordinates assigned)
Cc1ccc(C(=O)c2c(C)[nH]c(C)c2S(=O)(=O)[N-]c2cc3c(cc2[O-])CCCC3)cn1 (nonaromatic ring conformer: 92.23147642398428 kcal/mol)

>  <smiles>  (33) 
Cc1ccc(C(=O)c2c(C)[nH]c(C)c2S(=O)(=O)Nc2cc3c(cc2O)CCCC3)cn1

>  <score_type>  (33) 
oracle

>  <origin>  (33) 
adgpu

>  <m_score__min__energy>  (33) 
-13.529999999999999

>  <m_primary>  (33) 
energy

$$$$
33:0
     RDKit          3D

 36 38  0  0  0  0  0  0  0  0999 V2000
   -5.6880   12.9460  -32.9220 N   0  0  0  0  0  0  0  0  0  0  0  0
   -5.8630   13.9530  -34.3160 S   0  0  0  0  0  0  0  0  0  0  0  0
   -7.3160   14.0340  -34.6960 O   0  0  0  0  0  0  0  0  0  0  0  0
   -5.0990   13.3580  -35.4650 O   0  0  0  0  0  0  0  0  0  0  0  0
   -5.2500   15.5660  -33.9620 C   0  0  0  0  0  0  0  0  0  0  0  0
   -3.9210   15.7400  -33.5560 C   0  0  0  0  0  0  0  0  0  0  0  0
   -3.4350   17.0170  -33.2600 C   0  0  0  0  0  0  0  0  0  0  0  0
   -4.2760   18.1410  -33.3640 C   0  0  0  0  0  0  0  0  0  0  0  0
   -3.7780   19.5030  -33.0550 C   0  0  0  0  0  0  0  0  0  0  0  0
   -3.9980   20.2450  -31.9100 C   0  0  0  0  0  0  0  0  0  0  0  0
   -3.3460   21.4070  -32.0880 N   0  0  0  0  0  0  0  0  0  0  0  0
   -3.2210   22.4910  -31.1220 C   0  0  0  0  0  0  0  0  0  0  0  0
   -4.5560   23.1630  -30.9290 C   0  0  0  0  0  0  0  0  0  0  0  0
   -5.7350   22.4030  -31.0100 C   0  0  0  0  0  0  0  0  0  0  0  0
   -6.9790   23.0040  -30.7920 C   0  0  0  0  0  0  0  0  0  0  0  0
   -8.4460   22.0480  -30.9010 Cl  0  0  0  0  0  0  0  0  0  0  0  0
   -7.0530   24.3650  -30.4820 C   0  0  0  0  0  0  0  0  0  0  0  0
   -5.8860   25.1240  -30.3840 C   0  0  0  0  0  0  0  0  0  0  0  0
   -4.6370   24.5290  -30.5980 C   0  0  0  0  0  0  0  0  0  0  0  0
   -3.4860   25.3010  -30.4800 O   0  0  0  0  0  0  0  0  0  0  0  0
   -2.7440   21.3790  -33.2650 N   0  0  0  0  0  0  0  0  0  0  0  0
   -2.9950   20.2320  -33.8800 N   0  0  0  0  0  0  0  0  0  0  0  0
   -5.6110   17.9560  -33.7650 C   0  0  0  0  0  0  0  0  0  0  0  0
   -6.0930   16.6780  -34.0590 C   0  0  0  0  0  0  0  0  0  0  0  0
   -5.1480   12.1030  -33.2220 H   0  0  0  0  0  0  0  0  0  0  0  0
   -5.0850   13.4650  -32.2450 H   0  0  0  0  0  0  0  0  0  0  0  0
   -3.2564   14.8678  -33.4696 H   0  0  0  0  0  0  0  0  0  0  0  0
   -2.3891   17.1442  -32.9439 H   0  0  0  0  0  0  0  0  0  0  0  0
   -4.5874   19.9454  -31.0309 H   0  0  0  0  0  0  0  0  0  0  0  0
   -2.8750   22.0843  -30.1603 H   0  0  0  0  0  0  0  0  0  0  0  0
   -2.4955   23.2280  -31.4968 H   0  0  0  0  0  0  0  0  0  0  0  0
   -5.6794   21.3301  -31.2460 H   0  0  0  0  0  0  0  0  0  0  0  0
   -8.0319   24.8382  -30.3152 H   0  0  0  0  0  0  0  0  0  0  0  0
   -5.9478   26.1943  -30.1376 H   0  0  0  0  0  0  0  0  0  0  0  0
   -6.2812   18.8243  -33.8479 H   0  0  0  0  0  0  0  0  0  0  0  0
   -7.1403   16.5457  -34.3682 H   0  0  0  0  0  0  0  0  0  0  0  0
  1  2  1  0
  2  3  2  0
  2  4  2  0
  2  5  1  0
  5  6  2  0
  6  7  1  0
  7  8  2  0
  8  9  1  0
  9 10  2  0
 10 11  1  0
 11 12  1  0
 12 13  1  0
 13 14  2  0
 14 15  1  0
 15 16  1  0
 15 17  2  0
 17 18  1  0
 18 19  2  0
 19 20  1  0
 11 21  1  0
 21 22  2  0
  8 23  1  0
 23 24  2  0
 24  5  1  0
 22  9  1  0
 19 13  1  0
  1 25  1  0
  1 26  1  0
  6 27  1  0
  7 28  1  0
 10 29  1  0
 12 30  1  0
 12 31  1  0
 14 32  1  0
 17 33  1  0
 18 34  1  0
 23 35  1  0
 24 36  1  0
M  CHG  1  20  -1
M  END
>  <UniqueID>  (34) 
34

>  <SMILES>  (34) 
NS(=O)(=O)c1ccc(-c2cn(Cc3cc(Cl)ccc3[O-])nn2)cc1

>  <Energy>  (34) 
72.2623352254416

>  <Genealogy>  (34) 
NS(=O)(=O)c1ccc(-c2cn(Cc3cc(Cl)ccc3[O-])nn2)cc1 (protonated)
NS(=O)(=O)c1ccc(-c2cn(Cc3cc(Cl)ccc3[O-])nn2)cc1 (3D coordinates assigned)
NS(=O)(=O)c1ccc(-c2cn(Cc3cc(Cl)ccc3[O-])nn2)cc1 (optimized conformer: 72.2623352254416 kcal/mol)

>  <smiles>  (34) 
NS(=O)(=O)c1ccc(-c2cn(Cc3cc(Cl)ccc3O)nn2)cc1

>  <score_type>  (34) 
oracle

>  <origin>  (34) 
adgpu

>  <m_score__min__energy>  (34) 
-11.42

>  <m_primary>  (34) 
energy

$$$$
34:0
     RDKit          3D

 60 64  0  0  0  0  0  0  0  0999 V2000
    5.0700   25.3500  -24.8350 C   0  0  0  0  0  0  0  0  0  0  0  0
    3.6600   25.5140  -25.2200 N   0  0  0  0  0  0  0  0  0  0  0  0
    2.8070   24.5380  -24.5050 C   0  0  0  0  0  0  0  0  0  0  0  0
    1.3530   25.0120  -24.4560 C   0  0  0  0  0  0  0  0  0  0  0  0
    1.2290   26.2680  -23.6710 N   0  0  0  0  0  0  0  0  0  0  0  0
   -0.2310   27.1200  -24.1240 S   0  0  0  0  0  0  0  0  0  0  0  0
    0.0750   28.5640  -24.4140 O   0  0  0  0  0  0  0  0  0  0  0  0
   -1.2200   27.0610  -22.9900 O   0  0  0  0  0  0  0  0  0  0  0  0
   -0.9530   26.3700  -25.5460 C   0  0  0  0  0  0  0  0  0  0  0  0
   -2.1680   25.6800  -25.4380 C   0  0  0  0  0  0  0  0  0  0  0  0
   -2.7280   25.0580  -26.5570 C   0  0  0  0  0  0  0  0  0  0  0  0
   -2.0720   25.1010  -27.7980 C   0  0  0  0  0  0  0  0  0  0  0  0
   -2.6430   24.4080  -28.9740 C   0  0  0  0  0  0  0  0  0  0  0  0
   -1.9890   23.4140  -29.6330 N   0  0  0  0  0  0  0  0  0  0  0  0
   -2.8660   23.0570  -30.5850 C   0  0  0  0  0  0  0  0  0  0  0  0
   -2.7260   22.0480  -31.5450 C   0  0  0  0  0  0  0  0  0  0  0  0
   -1.5330   21.2450  -31.5910 N   0  0  0  0  0  0  0  0  0  0  0  0
   -1.2740   20.1050  -30.7100 C   0  0  0  0  0  0  0  0  0  0  0  0
   -1.2300   20.5480  -29.2700 C   0  0  0  0  0  0  0  0  0  0  0  0
   -2.3550   20.3760  -28.4460 C   0  0  0  0  0  0  0  0  0  0  0  0
   -2.3230   20.7940  -27.1130 C   0  0  0  0  0  0  0  0  0  0  0  0
   -1.1690   21.3880  -26.5930 C   0  0  0  0  0  0  0  0  0  0  0  0
   -0.0480   21.5660  -27.4060 C   0  0  0  0  0  0  0  0  0  0  0  0
   -0.0780   21.1580  -28.7420 C   0  0  0  0  0  0  0  0  0  0  0  0
   -3.8090   21.8590  -32.4380 C   0  0  0  0  0  0  0  0  0  0  0  0
   -4.9710   22.6580  -32.3370 C   0  0  0  0  0  0  0  0  0  0  0  0
   -5.0690   23.6520  -31.3480 C   0  0  0  0  0  0  0  0  0  0  0  0
   -3.9910   23.8160  -30.4860 C   0  0  0  0  0  0  0  0  0  0  0  0
   -3.8820   24.6800  -29.4680 N   0  0  0  0  0  0  0  0  0  0  0  0
   -0.8550   25.7980  -27.9030 C   0  0  0  0  0  0  0  0  0  0  0  0
   -0.3030   26.4300  -26.7850 C   0  0  0  0  0  0  0  0  0  0  0  0
    2.4160   27.1540  -23.7790 C   0  0  0  0  0  0  0  0  0  0  0  0
    3.2130   26.9210  -25.0740 C   0  0  0  0  0  0  0  0  0  0  0  0
    5.1519   25.3405  -23.7381 H   0  0  0  0  0  0  0  0  0  0  0  0
    5.4526   24.4013  -25.2395 H   0  0  0  0  0  0  0  0  0  0  0  0
    5.6601   26.1856  -25.2395 H   0  0  0  0  0  0  0  0  0  0  0  0
    2.8525   23.5706  -25.0267 H   0  0  0  0  0  0  0  0  0  0  0  0
    3.1777   24.4381  -23.4742 H   0  0  0  0  0  0  0  0  0  0  0  0
    0.9985   25.1922  -25.4816 H   0  0  0  0  0  0  0  0  0  0  0  0
    0.7465   24.2335  -23.9702 H   0  0  0  0  0  0  0  0  0  0  0  0
    1.1170   26.0040  -22.6620 H   0  0  0  0  0  0  0  0  0  0  0  0
   -2.6834   25.6278  -24.4676 H   0  0  0  0  0  0  0  0  0  0  0  0
   -3.6892   24.5311  -26.4652 H   0  0  0  0  0  0  0  0  0  0  0  0
   -0.7490   21.5490  -32.2140 H   0  0  0  0  0  0  0  0  0  0  0  0
   -2.0750   19.3616  -30.8354 H   0  0  0  0  0  0  0  0  0  0  0  0
   -0.3018   19.6645  -30.9759 H   0  0  0  0  0  0  0  0  0  0  0  0
   -3.2650   19.9102  -28.8521 H   0  0  0  0  0  0  0  0  0  0  0  0
   -3.2064   20.6556  -26.4723 H   0  0  0  0  0  0  0  0  0  0  0  0
   -1.1443   21.7152  -25.5431 H   0  0  0  0  0  0  0  0  0  0  0  0
    0.8609   22.0285  -26.9938 H   0  0  0  0  0  0  0  0  0  0  0  0
    0.8022   21.3144  -29.3829 H   0  0  0  0  0  0  0  0  0  0  0  0
   -3.7455   21.0843  -33.2164 H   0  0  0  0  0  0  0  0  0  0  0  0
   -5.8044   22.5006  -33.0375 H   0  0  0  0  0  0  0  0  0  0  0  0
   -5.9685   24.2790  -31.2592 H   0  0  0  0  0  0  0  0  0  0  0  0
   -0.3343   25.8461  -28.8708 H   0  0  0  0  0  0  0  0  0  0  0  0
    0.6466   26.9772  -26.8789 H   0  0  0  0  0  0  0  0  0  0  0  0
    2.0776   28.2004  -23.7572 H   0  0  0  0  0  0  0  0  0  0  0  0
    3.0807   26.9245  -22.9331 H   0  0  0  0  0  0  0  0  0  0  0  0
    2.5752   27.1795  -25.9322 H   0  0  0  0  0  0  0  0  0  0  0  0
    4.1112   27.5547  -25.0325 H   0  0  0  0  0  0  0  0  0  0  0  0
  1  2  1  0
  2  3  1  0
  3  4  1  0
  4  5  1  0
  5  6  1  0
  6  7  2  0
  6  8  2  0
  6  9  1  0
  9 10  2  0
 10 11  1  0
 11 12  2  0
 12 13  1  0
 13 14  2  0
 14 15  1  0
 15 16  2  0
 16 17  1  0
 17 18  1  0
 18 19  1  0
 19 20  2  0
 20 21  1  0
 21 22  2  0
 22 23  1  0
 23 24  2  0
 16 25  1  0
 25 26  2  0
 26 27  1  0
 27 28  2  0
 28 29  1  0
 12 30  1  0
 30 31  2  0
  5 32  1  0
 32 33  1  0
 33  2  1  0
 31  9  1  0
 29 13  1  0
 28 15  1  0
 24 19  1  0
  1 34  1  0
  1 35  1  0
  1 36  1  0
  3 37  1  0
  3 38  1  0
  4 39  1  0
  4 40  1  0
  5 41  1  0
 10 42  1  0
 11 43  1  0
 17 44  1  0
 18 45  1  0
 18 46  1  0
 20 47  1  0
 21 48  1  0
 22 49  1  0
 23 50  1  0
 24 51  1  0
 25 52  1  0
 26 53  1  0
 27 54  1  0
 30 55  1  0
 31 56  1  0
 32 57  1  0
 32 58  1  0
 33 59  1  0
 33 60  1  0
M  CHG  2   5   1  29  -1
M  END
>  <UniqueID>  (35) 
35

>  <SMILES>  (35) 
CN1CC[NH+](S(=O)(=O)c2ccc(-c3nc4c(NCc5ccccc5)cccc4[n-]3)cc2)CC1

>  <Energy>  (35) 
110.07810137681292

>  <Genealogy>  (35) 
CN1CC[NH+](S(=O)(=O)c2ccc(-c3nc4c(NCc5ccccc5)cccc4[n-]3)cc2)CC1 (protonated)
CN1CC[NH+](S(=O)(=O)c2ccc(-c3nc4c(NCc5ccccc5)cccc4[n-]3)cc2)CC1 (3D coordinates assigned)
CN1CC[NH+](S(=O)(=O)c2ccc(-c3nc4c(NCc5ccccc5)cccc4[n-]3)cc2)CC1 (nonaromatic ring conformer: 110.07810137681292 kcal/mol)

>  <smiles>  (35) 
CN1CCN(S(=O)(=O)c2ccc(-c3nc4c(NCc5ccccc5)cccc4[nH]3)cc2)CC1

>  <score_type>  (35) 
oracle

>  <origin>  (35) 
adgpu

>  <m_score__min__energy>  (35) 
-10.720000000000001

>  <m_primary>  (35) 
energy

$$$$
35:0
     RDKit          3D

 49 51  0  0  0  0  0  0  0  0999 V2000
    0.4660   23.8030  -28.3780 C   0  0  0  0  0  0  0  0  0  0  0  0
   -0.2150   24.5830  -27.2870 C   0  0  0  0  0  0  0  0  0  0  0  0
    0.2900   24.4990  -25.9770 C   0  0  0  0  0  0  0  0  0  0  0  0
   -0.3430   25.1700  -24.9280 C   0  0  0  0  0  0  0  0  0  0  0  0
   -1.4850   25.9330  -25.1750 C   0  0  0  0  0  0  0  0  0  0  0  0
   -1.9860   26.0440  -26.4730 C   0  0  0  0  0  0  0  0  0  0  0  0
   -1.3440   25.4010  -27.5390 C   0  0  0  0  0  0  0  0  0  0  0  0
   -1.8850   25.5610  -28.8570 N   0  0  0  0  0  0  0  0  0  0  0  0
   -2.6690   24.5680  -29.5200 C   0  0  0  0  0  0  0  0  0  0  0  0
   -2.4900   23.3530  -29.2380 O   0  0  0  0  0  0  0  0  0  0  0  0
   -3.6370   24.9500  -30.5060 N   0  0  0  0  0  0  0  0  0  0  0  0
   -4.8280   24.2170  -30.8240 C   0  0  0  0  0  0  0  0  0  0  0  0
   -6.0550   24.7610  -30.4530 C   0  0  0  0  0  0  0  0  0  0  0  0
   -7.2370   24.0870  -30.7270 C   0  0  0  0  0  0  0  0  0  0  0  0
   -7.2240   22.8450  -31.3840 C   0  0  0  0  0  0  0  0  0  0  0  0
   -8.5490   22.1780  -31.6420 C   0  0  0  0  0  0  0  0  0  0  0  0
   -5.9810   22.2700  -31.7710 C   0  0  0  0  0  0  0  0  0  0  0  0
   -5.8790   20.7420  -32.6930 S   0  0  0  0  0  0  0  0  0  0  0  0
   -4.5540   20.5610  -33.3760 O   0  0  0  0  0  0  0  0  0  0  0  0
   -6.9490   20.7690  -33.7500 O   0  0  0  0  0  0  0  0  0  0  0  0
   -6.1550   19.3830  -31.6200 N   0  0  0  0  0  0  0  0  0  0  0  0
   -5.3390   18.2140  -31.9940 C   0  0  0  0  0  0  0  0  0  0  0  0
   -5.8850   17.4910  -33.2480 C   0  0  0  0  0  0  0  0  0  0  0  0
   -7.2350   17.8060  -33.5440 O   0  0  0  0  0  0  0  0  0  0  0  0
   -7.9980   17.8420  -32.3610 C   0  0  0  0  0  0  0  0  0  0  0  0
   -7.5930   19.0530  -31.5010 C   0  0  0  0  0  0  0  0  0  0  0  0
   -4.7780   22.9480  -31.4320 C   0  0  0  0  0  0  0  0  0  0  0  0
   -3.5210   22.3730  -31.6510 O   0  0  0  0  0  0  0  0  0  0  0  0
    1.1267   23.0462  -27.9300 H   0  0  0  0  0  0  0  0  0  0  0  0
   -0.2919   23.3055  -29.0009 H   0  0  0  0  0  0  0  0  0  0  0  0
    1.0612   24.4869  -29.0009 H   0  0  0  0  0  0  0  0  0  0  0  0
    1.1907   23.9001  -25.7769 H   0  0  0  0  0  0  0  0  0  0  0  0
    0.0590   25.0969  -23.9067 H   0  0  0  0  0  0  0  0  0  0  0  0
   -1.9913   26.4479  -24.3452 H   0  0  0  0  0  0  0  0  0  0  0  0
   -2.8911   26.6405  -26.6601 H   0  0  0  0  0  0  0  0  0  0  0  0
   -6.0878   25.7328  -29.9386 H   0  0  0  0  0  0  0  0  0  0  0  0
   -8.1971   24.5312  -30.4257 H   0  0  0  0  0  0  0  0  0  0  0  0
   -9.0304   21.9357  -30.6831 H   0  0  0  0  0  0  0  0  0  0  0  0
   -9.1961   22.8578  -32.2157 H   0  0  0  0  0  0  0  0  0  0  0  0
   -8.3885   21.2533  -32.2157 H   0  0  0  0  0  0  0  0  0  0  0  0
   -4.3122   18.5510  -32.1994 H   0  0  0  0  0  0  0  0  0  0  0  0
   -5.3692   17.5018  -31.1562 H   0  0  0  0  0  0  0  0  0  0  0  0
   -5.2647   17.7755  -34.1107 H   0  0  0  0  0  0  0  0  0  0  0  0
   -5.8446   16.4116  -33.0402 H   0  0  0  0  0  0  0  0  0  0  0  0
   -9.0644   17.9206  -32.6192 H   0  0  0  0  0  0  0  0  0  0  0  0
   -7.8158   16.9200  -31.7893 H   0  0  0  0  0  0  0  0  0  0  0  0
   -8.1818   19.9250  -31.8217 H   0  0  0  0  0  0  0  0  0  0  0  0
   -7.7886   18.7942  -30.4499 H   0  0  0  0  0  0  0  0  0  0  0  0
   -2.6590   22.7290  -31.2650 H   0  0  0  0  0  0  0  0  0  0  0  0
  1  2  1  0
  2  3  2  0
  3  4  1  0
  4  5  2  0
  5  6  1  0
  6  7  2  0
  7  8  1  0
  8  9  1  0
  9 10  2  0
  9 11  1  0
 11 12  1  0
 12 13  2  0
 13 14  1  0
 14 15  2  0
 15 16  1  0
 15 17  1  0
 17 18  1  0
 18 19  2  0
 18 20  2  0
 18 21  1  0
 21 22  1  0
 22 23  1  0
 23 24  1  0
 24 25  1  0
 25 26  1  0
 17 27  2  0
 27 28  1  0
  7  2  1  0
 27 12  1  0
 26 21  1  0
  1 29  1  0
  1 30  1  0
  1 31  1  0
  3 32  1  0
  4 33  1  0
  5 34  1  0
  6 35  1  0
 13 36  1  0
 14 37  1  0
 16 38  1  0
 16 39  1  0
 16 40  1  0
 22 41  1  0
 22 42  1  0
 23 43  1  0
 23 44  1  0
 25 45  1  0
 25 46  1  0
 26 47  1  0
 26 48  1  0
 28 49  1  0
M  CHG  2   8  -1  11  -1
M  END
>  <UniqueID>  (36) 
36

>  <SMILES>  (36) 
Cc1ccccc1[N-]C(=O)[N-]c1ccc(C)c(S(=O)(=O)N2CCOCC2)c1O

>  <Energy>  (36) 
78.96846842927081

>  <Genealogy>  (36) 
Cc1ccccc1[N-]C(=O)[N-]c1ccc(C)c(S(=O)(=O)N2CCOCC2)c1O (protonated)
Cc1ccccc1[N-]C(=O)[N-]c1ccc(C)c(S(=O)(=O)N2CCOCC2)c1O (3D coordinates assigned)
Cc1ccccc1[N-]C(=O)[N-]c1ccc(C)c(S(=O)(=O)N2CCOCC2)c1O (nonaromatic ring conformer: 78.96846842927081 kcal/mol)

>  <smiles>  (36) 
Cc1ccccc1NC(=O)Nc1ccc(C)c(S(=O)(=O)N2CCOCC2)c1O

>  <score_type>  (36) 
oracle

>  <origin>  (36) 
adgpu

>  <m_score__min__energy>  (36) 
-11.800000000000001

>  <m_primary>  (36) 
energy

$$$$
36:0
     RDKit          3D

 56 59  0  0  0  0  0  0  0  0999 V2000
   -3.5770   25.2670  -30.6970 O   0  0  0  0  0  0  0  0  0  0  0  0
   -3.6410   24.0770  -30.2850 C   0  0  0  0  0  0  0  0  0  0  0  0
   -4.4650   23.1200  -30.9660 N   0  0  0  0  0  0  0  0  0  0  0  0
   -4.0210   22.1320  -31.9080 C   0  0  0  0  0  0  0  0  0  0  0  0
   -2.6520   21.8860  -32.1190 C   0  0  0  0  0  0  0  0  0  0  0  0
   -2.2370   20.8860  -33.0050 C   0  0  0  0  0  0  0  0  0  0  0  0
   -0.5170   20.6100  -33.2650 S   0  0  0  0  0  0  0  0  0  0  0  0
   -0.3480   19.4550  -34.2100 O   0  0  0  0  0  0  0  0  0  0  0  0
    0.1120   21.8380  -33.8670 O   0  0  0  0  0  0  0  0  0  0  0  0
    0.2460   20.2340  -31.7400 N   0  0  0  0  0  0  0  0  0  0  0  0
   -0.1820   18.9280  -31.2370 C   0  0  0  0  0  0  0  0  0  0  0  0
   -0.0630   18.9860  -29.7220 C   0  0  0  0  0  0  0  0  0  0  0  0
   -0.0200   20.4660  -29.3750 C   0  0  0  0  0  0  0  0  0  0  0  0
   -0.1330   21.1950  -30.7050 C   0  0  0  0  0  0  0  0  0  0  0  0
   -3.1920   20.1010  -33.6620 C   0  0  0  0  0  0  0  0  0  0  0  0
   -4.5510   20.3190  -33.4380 C   0  0  0  0  0  0  0  0  0  0  0  0
   -4.9750   21.3310  -32.5640 C   0  0  0  0  0  0  0  0  0  0  0  0
   -6.3800   21.5440  -32.3590 N   0  0  0  0  0  0  0  0  0  0  0  0
   -7.2600   20.3910  -32.1190 C   0  0  0  0  0  0  0  0  0  0  0  0
   -8.6710   20.8390  -31.7260 C   0  0  0  0  0  0  0  0  0  0  0  0
   -8.6090   21.9130  -30.6320 C   0  0  0  0  0  0  0  0  0  0  0  0
   -7.7110   23.1160  -31.0050 C   0  0  0  0  0  0  0  0  0  0  0  0
   -6.9110   22.9100  -32.2990 C   0  0  0  0  0  0  0  0  0  0  0  0
   -2.8700   23.6540  -29.0960 C   0  0  0  0  0  0  0  0  0  0  0  0
   -3.1400   22.3900  -28.5380 C   0  0  0  0  0  0  0  0  0  0  0  0
   -2.3920   21.9150  -27.4580 C   0  0  0  0  0  0  0  0  0  0  0  0
   -1.3660   22.6910  -26.9210 C   0  0  0  0  0  0  0  0  0  0  0  0
   -1.0980   23.9550  -27.4500 C   0  0  0  0  0  0  0  0  0  0  0  0
   -1.8520   24.4560  -28.5190 C   0  0  0  0  0  0  0  0  0  0  0  0
   -1.5830   25.7570  -28.9500 O   0  0  0  0  0  0  0  0  0  0  0  0
   -1.9014   22.4851  -31.5827 H   0  0  0  0  0  0  0  0  0  0  0  0
   -1.2243   18.7319  -31.5287 H   0  0  0  0  0  0  0  0  0  0  0  0
    0.4377   18.1200  -31.6531 H   0  0  0  0  0  0  0  0  0  0  0  0
   -0.9322   18.5053  -29.2493 H   0  0  0  0  0  0  0  0  0  0  0  0
    0.8311   18.4560  -29.3620 H   0  0  0  0  0  0  0  0  0  0  0  0
   -0.8608   20.7319  -28.7175 H   0  0  0  0  0  0  0  0  0  0  0  0
    0.9019   20.7341  -28.8381 H   0  0  0  0  0  0  0  0  0  0  0  0
   -1.1664   21.5368  -30.8642 H   0  0  0  0  0  0  0  0  0  0  0  0
    0.5176   22.0816  -30.7286 H   0  0  0  0  0  0  0  0  0  0  0  0
   -2.8698   19.3108  -34.3561 H   0  0  0  0  0  0  0  0  0  0  0  0
   -5.2961   19.6927  -33.9505 H   0  0  0  0  0  0  0  0  0  0  0  0
   -7.3184   19.7878  -33.0370 H   0  0  0  0  0  0  0  0  0  0  0  0
   -6.8403   19.8008  -31.2910 H   0  0  0  0  0  0  0  0  0  0  0  0
   -9.1791   21.2518  -32.6100 H   0  0  0  0  0  0  0  0  0  0  0  0
   -9.2255   19.9706  -31.3408 H   0  0  0  0  0  0  0  0  0  0  0  0
   -9.6285   22.2825  -30.4474 H   0  0  0  0  0  0  0  0  0  0  0  0
   -8.1700   21.4435  -29.7393 H   0  0  0  0  0  0  0  0  0  0  0  0
   -8.3510   24.0019  -31.1295 H   0  0  0  0  0  0  0  0  0  0  0  0
   -6.9810   23.2373  -30.1911 H   0  0  0  0  0  0  0  0  0  0  0  0
   -7.5693   23.0814  -33.1634 H   0  0  0  0  0  0  0  0  0  0  0  0
   -6.0715   23.6206  -32.3169 H   0  0  0  0  0  0  0  0  0  0  0  0
   -3.9473   21.7708  -28.9562 H   0  0  0  0  0  0  0  0  0  0  0  0
   -2.6132   20.9260  -27.0302 H   0  0  0  0  0  0  0  0  0  0  0  0
   -0.7680   22.3078  -26.0811 H   0  0  0  0  0  0  0  0  0  0  0  0
   -0.2869   24.5633  -27.0232 H   0  0  0  0  0  0  0  0  0  0  0  0
   -1.6430   26.0490  -29.9160 H   0  0  0  0  0  0  0  0  0  0  0  0
  1  2  2  0
  2  3  1  0
  3  4  1  0
  4  5  2  0
  5  6  1  0
  6  7  1  0
  7  8  2  0
  7  9  2  0
  7 10  1  0
 10 11  1  0
 11 12  1  0
 12 13  1  0
 13 14  1  0
  6 15  2  0
 15 16  1  0
 16 17  2  0
 17 18  1  0
 18 19  1  0
 19 20  1  0
 20 21  1  0
 21 22  1  0
 22 23  1  0
  2 24  1  0
 24 25  2  0
 25 26  1  0
 26 27  2  0
 27 28  1  0
 28 29  2  0
 29 30  1  0
 17  4  1  0
 23 18  1  0
 29 24  1  0
 14 10  1  0
  5 31  1  0
 11 32  1  0
 11 33  1  0
 12 34  1  0
 12 35  1  0
 13 36  1  0
 13 37  1  0
 14 38  1  0
 14 39  1  0
 15 40  1  0
 16 41  1  0
 19 42  1  0
 19 43  1  0
 20 44  1  0
 20 45  1  0
 21 46  1  0
 21 47  1  0
 22 48  1  0
 22 49  1  0
 23 50  1  0
 23 51  1  0
 25 52  1  0
 26 53  1  0
 27 54  1  0
 28 55  1  0
 30 56  1  0
M  CHG  1   3  -1
M  END
>  <UniqueID>  (37) 
37

>  <SMILES>  (37) 
O=C([N-]c1cc(S(=O)(=O)N2CCCC2)ccc1N1CCCCC1)c1ccccc1O

>  <Energy>  (37) 
73.2416769797027

>  <Genealogy>  (37) 
O=C([N-]c1cc(S(=O)(=O)N2CCCC2)ccc1N1CCCCC1)c1ccccc1O (protonated)
O=C([N-]c1cc(S(=O)(=O)N2CCCC2)ccc1N1CCCCC1)c1ccccc1O (3D coordinates assigned)
O=C([N-]c1cc(S(=O)(=O)N2CCCC2)ccc1N1CCCCC1)c1ccccc1O (nonaromatic ring conformer: 73.2416769797027 kcal/mol)

>  <smiles>  (37) 
O=C(Nc1cc(S(=O)(=O)N2CCCC2)ccc1N1CCCCC1)c1ccccc1O

>  <score_type>  (37) 
oracle

>  <origin>  (37) 
adgpu

>  <m_score__min__energy>  (37) 
-11.109999999999999

>  <m_primary>  (37) 
energy

$$$$
37:0
     RDKit          3D

 57 60  0  0  0  0  0  0  0  0999 V2000
   -8.5910   21.2330  -32.2710 C   0  0  0  0  0  0  0  0  0  0  0  0
   -7.4020   21.8260  -31.5620 C   0  0  0  0  0  0  0  0  0  0  0  0
   -7.6010   22.8500  -30.6230 C   0  0  0  0  0  0  0  0  0  0  0  0
   -6.5210   23.4160  -29.9460 C   0  0  0  0  0  0  0  0  0  0  0  0
   -5.2150   22.9680  -30.1910 C   0  0  0  0  0  0  0  0  0  0  0  0
   -4.0970   23.5700  -29.5130 N   0  0  0  0  0  0  0  0  0  0  0  0
   -3.4440   23.0560  -28.4470 C   0  0  0  0  0  0  0  0  0  0  0  0
   -2.3920   23.8880  -28.0840 C   0  0  0  0  0  0  0  0  0  0  0  0
   -1.4260   23.6780  -26.9860 C   0  0  0  0  0  0  0  0  0  0  0  0
   -1.5370   24.3500  -25.9290 O   0  0  0  0  0  0  0  0  0  0  0  0
   -0.3900   22.6900  -27.0730 N   0  0  0  0  0  0  0  0  0  0  0  0
   -0.5890   21.3030  -27.3770 C   0  0  0  0  0  0  0  0  0  0  0  0
   -1.3470   20.4700  -26.5350 C   0  0  0  0  0  0  0  0  0  0  0  0
   -1.4950   19.1150  -26.8370 C   0  0  0  0  0  0  0  0  0  0  0  0
   -0.8970   18.5830  -27.9810 C   0  0  0  0  0  0  0  0  0  0  0  0
   -0.1560   19.4080  -28.8380 C   0  0  0  0  0  0  0  0  0  0  0  0
    0.6470   18.7260  -30.2540 S   0  0  0  0  0  0  0  0  0  0  0  0
    0.4480   17.2360  -30.2660 O   0  0  0  0  0  0  0  0  0  0  0  0
    2.1230   18.9990  -30.1670 O   0  0  0  0  0  0  0  0  0  0  0  0
    0.0280   19.4190  -31.7360 N   0  0  0  0  0  0  0  0  0  0  0  0
    0.0930   20.9030  -31.7150 C   0  0  0  0  0  0  0  0  0  0  0  0
   -1.2700   21.5600  -31.4540 C   0  0  0  0  0  0  0  0  0  0  0  0
   -2.3030   21.1410  -32.5150 C   0  0  0  0  0  0  0  0  0  0  0  0
   -2.0480   19.7290  -33.0700 C   0  0  0  0  0  0  0  0  0  0  0  0
   -1.3070   18.8630  -32.0490 C   0  0  0  0  0  0  0  0  0  0  0  0
   -0.0280   20.7750  -28.5450 C   0  0  0  0  0  0  0  0  0  0  0  0
   -2.4380   24.9600  -28.9540 C   0  0  0  0  0  0  0  0  0  0  0  0
   -1.5860   26.0560  -28.9670 O   0  0  0  0  0  0  0  0  0  0  0  0
   -3.4850   24.7360  -29.8160 C   0  0  0  0  0  0  0  0  0  0  0  0
   -3.8780   25.5940  -30.8360 O   0  0  0  0  0  0  0  0  0  0  0  0
   -5.0070   21.9440  -31.1280 C   0  0  0  0  0  0  0  0  0  0  0  0
   -6.0910   21.3520  -31.8020 C   0  0  0  0  0  0  0  0  0  0  0  0
   -5.8280   20.2440  -32.7890 C   0  0  0  0  0  0  0  0  0  0  0  0
   -9.3174   20.8707  -31.5286 H   0  0  0  0  0  0  0  0  0  0  0  0
   -9.0629   22.0013  -32.9011 H   0  0  0  0  0  0  0  0  0  0  0  0
   -8.2612   20.3938  -32.9011 H   0  0  0  0  0  0  0  0  0  0  0  0
   -8.6201   23.2101  -30.4188 H   0  0  0  0  0  0  0  0  0  0  0  0
   -6.6948   24.2193  -29.2149 H   0  0  0  0  0  0  0  0  0  0  0  0
   -3.7072   22.1157  -27.9405 H   0  0  0  0  0  0  0  0  0  0  0  0
   -1.8246   20.8871  -25.6361 H   0  0  0  0  0  0  0  0  0  0  0  0
   -2.0837   18.4655  -26.1725 H   0  0  0  0  0  0  0  0  0  0  0  0
   -1.0078   17.5129  -28.2104 H   0  0  0  0  0  0  0  0  0  0  0  0
    0.7888   21.2121  -30.9211 H   0  0  0  0  0  0  0  0  0  0  0  0
    0.4315   21.2314  -32.7088 H   0  0  0  0  0  0  0  0  0  0  0  0
   -1.6314   21.2540  -30.4611 H   0  0  0  0  0  0  0  0  0  0  0  0
   -1.1449   22.6518  -31.5022 H   0  0  0  0  0  0  0  0  0  0  0  0
   -3.3040   21.1641  -32.0594 H   0  0  0  0  0  0  0  0  0  0  0  0
   -2.2205   21.8469  -33.3546 H   0  0  0  0  0  0  0  0  0  0  0  0
   -3.0124   19.2571  -33.3092 H   0  0  0  0  0  0  0  0  0  0  0  0
   -1.4260   19.8149  -33.9732 H   0  0  0  0  0  0  0  0  0  0  0  0
   -1.9001   18.8142  -31.1239 H   0  0  0  0  0  0  0  0  0  0  0  0
   -1.1716   17.8599  -32.4798 H   0  0  0  0  0  0  0  0  0  0  0  0
    0.5161   21.4344  -29.2372 H   0  0  0  0  0  0  0  0  0  0  0  0
   -3.9836   21.5999  -31.3381 H   0  0  0  0  0  0  0  0  0  0  0  0
   -5.6071   19.3135  -32.2454 H   0  0  0  0  0  0  0  0  0  0  0  0
   -6.7163   20.0974  -33.4210 H   0  0  0  0  0  0  0  0  0  0  0  0
   -4.9686   20.5123  -33.4210 H   0  0  0  0  0  0  0  0  0  0  0  0
  1  2  1  0
  2  3  2  0
  3  4  1  0
  4  5  2  0
  5  6  1  0
  6  7  1  0
  7  8  2  0
  8  9  1  0
  9 10  2  0
  9 11  1  0
 11 12  1  0
 12 13  2  0
 13 14  1  0
 14 15  2  0
 15 16  1  0
 16 17  1  0
 17 18  2  0
 17 19  2  0
 17 20  1  0
 20 21  1  0
 21 22  1  0
 22 23  1  0
 23 24  1  0
 24 25  1  0
 16 26  2  0
  8 27  1  0
 27 28  1  0
 27 29  2  0
 29 30  1  0
  5 31  1  0
 31 32  2  0
 32 33  1  0
 32  2  1  0
 29  6  1  0
 26 12  1  0
 25 20  1  0
  1 34  1  0
  1 35  1  0
  1 36  1  0
  3 37  1  0
  4 38  1  0
  7 39  1  0
 13 40  1  0
 14 41  1  0
 15 42  1  0
 21 43  1  0
 21 44  1  0
 22 45  1  0
 22 46  1  0
 23 47  1  0
 23 48  1  0
 24 49  1  0
 24 50  1  0
 25 51  1  0
 25 52  1  0
 26 53  1  0
 31 54  1  0
 33 55  1  0
 33 56  1  0
 33 57  1  0
M  CHG  3  11  -1  28  -1  30  -1
M  END
>  <UniqueID>  (38) 
38

>  <SMILES>  (38) 
Cc1ccc(-n2cc(C(=O)[N-]c3cccc(S(=O)(=O)N4CCCCC4)c3)c([O-])c2[O-])cc1C

>  <Energy>  (38) 
100.49036844494029

>  <Genealogy>  (38) 
Cc1ccc(-n2cc(C(=O)[N-]c3cccc(S(=O)(=O)N4CCCCC4)c3)c([O-])c2[O-])cc1C (protonated)
Cc1ccc(-n2cc(C(=O)[N-]c3cccc(S(=O)(=O)N4CCCCC4)c3)c([O-])c2[O-])cc1C (3D coordinates assigned)
Cc1ccc(-n2cc(C(=O)[N-]c3cccc(S(=O)(=O)N4CCCCC4)c3)c([O-])c2[O-])cc1C (nonaromatic ring conformer: 100.49036844494029 kcal/mol)

>  <smiles>  (38) 
Cc1ccc(-n2cc(C(=O)Nc3cccc(S(=O)(=O)N4CCCCC4)c3)c(O)c2O)cc1C

>  <score_type>  (38) 
oracle

>  <origin>  (38) 
adgpu

>  <m_score__min__energy>  (38) 
-15.949999999999999

>  <m_primary>  (38) 
energy

$$$$
38:0
     RDKit          3D

 58 61  0  0  1  0  0  0  0  0999 V2000
   -7.1860   17.3010  -32.5920 C   0  0  0  0  0  0  0  0  0  0  0  0
   -7.0890   18.7750  -32.5430 C   0  0  0  0  0  0  0  0  0  0  0  0
   -8.2280   19.4740  -32.1870 C   0  0  0  0  0  0  0  0  0  0  0  0
   -8.1860   20.8690  -32.1260 C   0  0  0  0  0  0  0  0  0  0  0  0
   -9.4240   21.6160  -31.7410 C   0  0  0  0  0  0  0  0  0  0  0  0
   -7.0110   21.5500  -32.4190 C   0  0  0  0  0  0  0  0  0  0  0  0
   -7.0390   22.9690  -32.3360 N   0  0  0  0  0  0  0  0  0  0  0  0
   -6.4550   23.5420  -31.3400 C   0  0  0  0  0  0  0  0  0  0  0  0
   -5.8030   22.8500  -30.3480 C   0  0  0  0  0  0  0  0  0  0  0  0
   -5.1720   23.4860  -29.2730 C   0  0  0  0  0  0  0  0  0  0  0  0
   -4.5010   22.7100  -28.3030 N   0  0  0  0  0  0  0  0  0  0  0  0
   -3.1830   22.8610  -27.8590 C   0  0  0  0  0  0  0  0  0  0  0  0
   -2.5370   21.7440  -27.3230 C   0  0  0  0  0  0  0  0  0  0  0  0
   -1.2530   21.7960  -26.8410 C   0  0  0  0  0  0  0  0  0  0  0  0
   -0.5500   22.9800  -26.8720 C   0  0  0  0  0  0  0  0  0  0  0  0
   -1.1490   24.1020  -27.3910 C   0  0  0  0  0  0  0  0  0  0  0  0
   -0.2340   25.5820  -27.4170 S   0  0  0  0  0  0  0  0  0  0  0  0
   -0.7950   26.5480  -28.4360 O   0  0  0  0  0  0  0  0  0  0  0  0
    1.1800   25.2820  -27.8300 O   0  0  0  0  0  0  0  0  0  0  0  0
   -0.1860   26.4120  -25.9330 N   0  0  0  0  0  0  0  0  0  0  0  0
   -1.4870   26.6380  -25.3520 C   0  0  0  0  0  0  0  0  0  0  0  0
   -1.2200   26.7790  -23.8680 C   0  0  0  0  0  0  0  0  0  0  0  0
    0.3010   26.7070  -23.7230 C   0  0  0  0  0  0  0  0  0  0  0  0
    0.6510   25.8240  -24.9190 C   0  0  0  0  0  0  0  0  0  0  0  0
   -2.4520   24.0240  -27.8740 C   0  0  0  0  0  0  0  0  0  0  0  0
   -5.2450   24.8240  -29.2690 N   0  0  0  0  0  0  0  0  0  0  0  0
   -5.8790   25.5390  -30.2290 C   0  0  0  0  0  0  0  0  0  0  0  0
   -6.4790   24.8850  -31.2570 N   0  0  0  0  0  0  0  0  0  0  0  0
   -5.8740   20.8510  -32.7730 C   0  0  0  0  0  0  0  0  0  0  0  0
   -4.6160   21.5950  -33.0870 C   0  0  0  0  0  0  0  0  0  0  0  0
   -5.9280   19.4570  -32.8310 C   0  0  0  0  0  0  0  0  0  0  0  0
   -7.2123   16.9010  -31.5676 H   0  0  0  0  0  0  0  0  0  0  0  0
   -8.1051   17.0115  -33.1224 H   0  0  0  0  0  0  0  0  0  0  0  0
   -6.3127   16.8935  -33.1224 H   0  0  0  0  0  0  0  0  0  0  0  0
   -9.1588   18.9362  -31.9539 H   0  0  0  0  0  0  0  0  0  0  0  0
   -9.4989   21.6612  -30.6445 H   0  0  0  0  0  0  0  0  0  0  0  0
   -9.3776   22.6370  -32.1477 H   0  0  0  0  0  0  0  0  0  0  0  0
  -10.3056   21.0990  -32.1477 H   0  0  0  0  0  0  0  0  0  0  0  0
   -5.7760   21.7516  -30.4010 H   0  0  0  0  0  0  0  0  0  0  0  0
   -5.0600   21.9240  -27.8590 H   0  0  0  0  0  0  0  0  0  0  0  0
   -3.0779   20.7869  -27.2859 H   0  0  0  0  0  0  0  0  0  0  0  0
   -0.7843   20.8901  -26.4290 H   0  0  0  0  0  0  0  0  0  0  0  0
    0.4789   23.0266  -26.4857 H   0  0  0  0  0  0  0  0  0  0  0  0
   -1.9385   27.5566  -25.7549 H   0  0  0  0  0  0  0  0  0  0  0  0
   -2.1919   25.8234  -25.5747 H   0  0  0  0  0  0  0  0  0  0  0  0
   -1.5970   27.7441  -23.4987 H   0  0  0  0  0  0  0  0  0  0  0  0
   -1.7252   25.9955  -23.2841 H   0  0  0  0  0  0  0  0  0  0  0  0
    0.7644   27.7015  -23.8026 H   0  0  0  0  0  0  0  0  0  0  0  0
    0.6522   26.3261  -22.7527 H   0  0  0  0  0  0  0  0  0  0  0  0
    1.7171   25.8972  -25.1797 H   0  0  0  0  0  0  0  0  0  0  0  0
    0.4886   24.7481  -24.7576 H   0  0  0  0  0  0  0  0  0  0  0  0
   -2.9163   24.9324  -28.2853 H   0  0  0  0  0  0  0  0  0  0  0  0
   -4.7940   25.3790  -28.5200 H   0  0  0  0  0  0  0  0  0  0  0  0
   -5.9076   26.6374  -30.1766 H   0  0  0  0  0  0  0  0  0  0  0  0
   -4.1199   21.8884  -32.1501 H   0  0  0  0  0  0  0  0  0  0  0  0
   -3.9440   20.9490  -33.6710 H   0  0  0  0  0  0  0  0  0  0  0  0
   -4.8584   22.4951  -33.6710 H   0  0  0  0  0  0  0  0  0  0  0  0
   -5.0263   18.8931  -33.1120 H   0  0  0  0  0  0  0  0  0  0  0  0
  1  2  1  0
  2  3  2  0
  3  4  1  0
  4  5  1  0
  4  6  2  0
  6  7  1  0
  7  8  2  0
  8  9  1  0
  9 10  2  0
 10 11  1  0
 11 12  1  0
 12 13  2  0
 13 14  1  0
 14 15  2  0
 15 16  1  0
 16 17  1  0
 17 18  2  0
 17 19  2  0
 17 20  1  0
 20 21  1  0
 21 22  1  0
 22 23  1  0
 23 24  1  0
 16 25  2  0
 10 26  1  0
 26 27  1  0
 27 28  2  0
  6 29  1  0
 29 30  1  0
 29 31  2  0
 31  2  1  0
 28  8  1  0
 25 12  1  0
 24 20  1  0
  1 32  1  0
  1 33  1  0
  1 34  1  0
  3 35  1  0
  5 36  1  0
  5 37  1  0
  5 38  1  0
  9 39  1  0
 11 40  1  0
 13 41  1  0
 14 42  1  0
 15 43  1  0
 21 44  1  0
 21 45  1  0
 22 46  1  0
 22 47  1  0
 23 48  1  0
 23 49  1  0
 24 50  1  0
 24 51  1  0
 25 52  1  0
 26 53  1  0
 27 54  1  0
 30 55  1  0
 30 56  1  0
 30 57  1  0
 31 58  1  0
M  END
>  <smiles>  (39) 
Cc1cc(C)c(N=c2cc(Nc3cccc(S(=O)(=O)N4CCCC4)c3)[nH]cn2)c(C)c1

>  <score_type>  (39) 
oracle

>  <origin>  (39) 
adgpu

>  <m_score__min__energy>  (39) 
-10.970000000000001

>  <m_primary>  (39) 
energy

$$$$
39:0
     RDKit          3D

 49 51  0  0  0  0  0  0  0  0999 V2000
   -7.2380   17.1140  -33.4660 C   0  0  0  0  0  0  0  0  0  0  0  0
   -6.8060   18.2530  -32.5990 C   0  0  0  0  0  0  0  0  0  0  0  0
   -6.2860   18.0130  -31.4760 O   0  0  0  0  0  0  0  0  0  0  0  0
   -7.0280   19.6030  -33.0330 N   0  0  0  0  0  0  0  0  0  0  0  0
   -6.5570   20.7650  -32.3380 C   0  0  0  0  0  0  0  0  0  0  0  0
   -5.2630   21.2760  -32.5520 C   0  0  0  0  0  0  0  0  0  0  0  0
   -4.8540   22.4500  -31.9140 C   0  0  0  0  0  0  0  0  0  0  0  0
   -5.7370   23.1420  -31.0740 C   0  0  0  0  0  0  0  0  0  0  0  0
   -5.2790   24.7250  -30.4450 S   0  0  0  0  0  0  0  0  0  0  0  0
   -5.9230   25.8140  -31.2510 O   0  0  0  0  0  0  0  0  0  0  0  0
   -5.7480   24.8230  -29.0210 O   0  0  0  0  0  0  0  0  0  0  0  0
   -3.5520   24.9230  -30.4890 N   0  0  0  0  0  0  0  0  0  0  0  0
   -2.6330   24.1770  -29.6810 C   0  0  0  0  0  0  0  0  0  0  0  0
   -2.6900   22.7760  -29.6160 C   0  0  0  0  0  0  0  0  0  0  0  0
   -1.9040   22.0770  -28.6900 C   0  0  0  0  0  0  0  0  0  0  0  0
   -1.0180   22.7740  -27.8590 C   0  0  0  0  0  0  0  0  0  0  0  0
   -0.9000   24.1640  -27.9770 C   0  0  0  0  0  0  0  0  0  0  0  0
   -1.7070   24.8620  -28.8830 C   0  0  0  0  0  0  0  0  0  0  0  0
   -1.6080   26.2420  -28.9650 O   0  0  0  0  0  0  0  0  0  0  0  0
   -0.2390   21.9970  -26.8370 C   0  0  0  0  0  0  0  0  0  0  0  0
    0.3170   20.7180  -27.4820 C   0  0  0  0  0  0  0  0  0  0  0  0
   -0.7730   19.8330  -28.1860 C   0  0  0  0  0  0  0  0  0  0  0  0
   -1.0870   18.6080  -27.3000 C   0  0  0  0  0  0  0  0  0  0  0  0
   -0.2110   19.3240  -29.5340 C   0  0  0  0  0  0  0  0  0  0  0  0
   -2.1080   20.6040  -28.4550 C   0  0  0  0  0  0  0  0  0  0  0  0
   -7.0240   22.6320  -30.8540 C   0  0  0  0  0  0  0  0  0  0  0  0
   -7.4330   21.4570  -31.4890 C   0  0  0  0  0  0  0  0  0  0  0  0
   -7.5572   16.2724  -32.8337 H   0  0  0  0  0  0  0  0  0  0  0  0
   -8.0771   17.4343  -34.1011 H   0  0  0  0  0  0  0  0  0  0  0  0
   -6.3975   16.7973  -34.1011 H   0  0  0  0  0  0  0  0  0  0  0  0
   -7.6590   19.7490  -33.8580 H   0  0  0  0  0  0  0  0  0  0  0  0
   -4.5705   20.7487  -33.2246 H   0  0  0  0  0  0  0  0  0  0  0  0
   -3.8348   22.8326  -32.0717 H   0  0  0  0  0  0  0  0  0  0  0  0
   -3.3554   22.2236  -30.2958 H   0  0  0  0  0  0  0  0  0  0  0  0
   -0.1723   24.7082  -27.3571 H   0  0  0  0  0  0  0  0  0  0  0  0
    0.5936   22.6121  -26.4650 H   0  0  0  0  0  0  0  0  0  0  0  0
   -0.8989   21.7285  -25.9989 H   0  0  0  0  0  0  0  0  0  0  0  0
    1.0664   21.0070  -28.2335 H   0  0  0  0  0  0  0  0  0  0  0  0
    0.7443   20.1114  -26.6700 H   0  0  0  0  0  0  0  0  0  0  0  0
   -1.0138   18.8936  -26.2402 H   0  0  0  0  0  0  0  0  0  0  0  0
   -2.1055   18.2519  -27.5143 H   0  0  0  0  0  0  0  0  0  0  0  0
   -0.3654   17.8059  -27.5143 H   0  0  0  0  0  0  0  0  0  0  0  0
    0.5922   18.5965  -29.3451 H   0  0  0  0  0  0  0  0  0  0  0  0
   -1.0157   18.8410  -30.1078 H   0  0  0  0  0  0  0  0  0  0  0  0
    0.1902   20.1724  -30.1078 H   0  0  0  0  0  0  0  0  0  0  0  0
   -2.5888   20.1711  -29.3447 H   0  0  0  0  0  0  0  0  0  0  0  0
   -2.7332   20.4995  -27.5560 H   0  0  0  0  0  0  0  0  0  0  0  0
   -7.7143   23.1590  -30.1789 H   0  0  0  0  0  0  0  0  0  0  0  0
   -8.4496   21.0716  -31.3220 H   0  0  0  0  0  0  0  0  0  0  0  0
  1  2  1  0
  2  3  2  0
  2  4  1  0
  4  5  1  0
  5  6  2  0
  6  7  1  0
  7  8  2  0
  8  9  1  0
  9 10  2  0
  9 11  2  0
  9 12  1  0
 12 13  1  0
 13 14  2  0
 14 15  1  0
 15 16  2  0
 16 17  1  0
 17 18  2  0
 18 19  1  0
 16 20  1  0
 20 21  1  0
 21 22  1  0
 22 23  1  0
 22 24  1  0
 22 25  1  0
  8 26  1  0
 26 27  2  0
 27  5  1  0
 18 13  1  0
 25 15  1  0
  1 28  1  0
  1 29  1  0
  1 30  1  0
  4 31  1  0
  6 32  1  0
  7 33  1  0
 14 34  1  0
 17 35  1  0
 20 36  1  0
 20 37  1  0
 21 38  1  0
 21 39  1  0
 23 40  1  0
 23 41  1  0
 23 42  1  0
 24 43  1  0
 24 44  1  0
 24 45  1  0
 25 46  1  0
 25 47  1  0
 26 48  1  0
 27 49  1  0
M  CHG  2  12  -1  19  -1
M  END
>  <UniqueID>  (40) 
39

>  <SMILES>  (40) 
CC(=O)Nc1ccc(S(=O)(=O)[N-]c2cc3c(cc2[O-])CCC(C)(C)C3)cc1

>  <Energy>  (40) 
62.00268500745141

>  <Genealogy>  (40) 
CC(=O)Nc1ccc(S(=O)(=O)[N-]c2cc3c(cc2[O-])CCC(C)(C)C3)cc1 (protonated)
CC(=O)Nc1ccc(S(=O)(=O)[N-]c2cc3c(cc2[O-])CCC(C)(C)C3)cc1 (3D coordinates assigned)
CC(=O)Nc1ccc(S(=O)(=O)[N-]c2cc3c(cc2[O-])CCC(C)(C)C3)cc1 (nonaromatic ring conformer: 62.00268500745141 kcal/mol)

>  <smiles>  (40) 
CC(=O)Nc1ccc(S(=O)(=O)Nc2cc3c(cc2O)CCC(C)(C)C3)cc1

>  <score_type>  (40) 
oracle

>  <origin>  (40) 
adgpu

>  <m_score__min__energy>  (40) 
-14.609999999999999

>  <m_primary>  (40) 
energy

$$$$
40:0
     RDKit          3D

 46 48  0  0  0  0  0  0  0  0999 V2000
   -4.6770   25.3150  -29.6810 N   0  0  0  0  0  0  0  0  0  0  0  0
   -5.1850   24.1190  -30.2890 C   0  0  0  0  0  0  0  0  0  0  0  0
   -6.5640   23.8700  -30.2700 C   0  0  0  0  0  0  0  0  0  0  0  0
   -7.0820   22.7150  -30.8570 C   0  0  0  0  0  0  0  0  0  0  0  0
   -6.2280   21.7870  -31.4630 C   0  0  0  0  0  0  0  0  0  0  0  0
   -6.8850   20.3310  -32.2150 S   0  0  0  0  0  0  0  0  0  0  0  0
   -7.9580   19.7570  -31.3310 O   0  0  0  0  0  0  0  0  0  0  0  0
   -7.5130   20.6920  -33.5330 O   0  0  0  0  0  0  0  0  0  0  0  0
   -5.6400   19.1310  -32.4810 N   0  0  0  0  0  0  0  0  0  0  0  0
   -6.1230   17.7640  -32.1610 C   0  0  0  0  0  0  0  0  0  0  0  0
   -6.4570   16.9400  -33.4130 C   0  0  0  0  0  0  0  0  0  0  0  0
   -5.2330   16.8080  -34.3360 C   0  0  0  0  0  0  0  0  0  0  0  0
   -4.2940   18.0250  -34.2570 C   0  0  0  0  0  0  0  0  0  0  0  0
   -5.0590   19.2820  -33.8330 C   0  0  0  0  0  0  0  0  0  0  0  0
   -4.8480   22.0250  -31.4760 C   0  0  0  0  0  0  0  0  0  0  0  0
   -4.3180   23.2030  -30.9170 C   0  0  0  0  0  0  0  0  0  0  0  0
   -2.9050   23.4570  -30.9270 N   0  0  0  0  0  0  0  0  0  0  0  0
   -1.9200   22.8230  -30.1000 C   0  0  0  0  0  0  0  0  0  0  0  0
   -1.2200   21.8780  -30.5550 O   0  0  0  0  0  0  0  0  0  0  0  0
   -1.7340   23.2830  -28.7060 C   0  0  0  0  0  0  0  0  0  0  0  0
   -1.7190   22.3210  -27.6790 C   0  0  0  0  0  0  0  0  0  0  0  0
   -1.4770   22.6950  -26.3560 C   0  0  0  0  0  0  0  0  0  0  0  0
   -1.2460   24.0330  -26.0380 C   0  0  0  0  0  0  0  0  0  0  0  0
   -1.2760   25.0030  -27.0410 C   0  0  0  0  0  0  0  0  0  0  0  0
   -1.5380   24.6480  -28.3710 C   0  0  0  0  0  0  0  0  0  0  0  0
   -1.6290   25.6760  -29.3120 O   0  0  0  0  0  0  0  0  0  0  0  0
   -5.2060   26.2140  -29.7170 H   0  0  0  0  0  0  0  0  0  0  0  0
   -3.7580   25.3090  -29.1860 H   0  0  0  0  0  0  0  0  0  0  0  0
   -7.2426   24.5899  -29.7891 H   0  0  0  0  0  0  0  0  0  0  0  0
   -8.1668   22.5332  -30.8433 H   0  0  0  0  0  0  0  0  0  0  0  0
   -5.3403   17.2390  -31.5938 H   0  0  0  0  0  0  0  0  0  0  0  0
   -7.0499   17.8694  -31.5782 H   0  0  0  0  0  0  0  0  0  0  0  0
   -6.7838   15.9359  -33.1049 H   0  0  0  0  0  0  0  0  0  0  0  0
   -7.2559   17.4556  -33.9661 H   0  0  0  0  0  0  0  0  0  0  0  0
   -4.6690   15.9092  -34.0459 H   0  0  0  0  0  0  0  0  0  0  0  0
   -5.6028   16.7409  -35.3698 H   0  0  0  0  0  0  0  0  0  0  0  0
   -3.5018   17.8209  -33.5217 H   0  0  0  0  0  0  0  0  0  0  0  0
   -3.8602   18.1981  -35.2529 H   0  0  0  0  0  0  0  0  0  0  0  0
   -4.3681   20.1379  -33.8319 H   0  0  0  0  0  0  0  0  0  0  0  0
   -5.8806   19.4439  -34.5463 H   0  0  0  0  0  0  0  0  0  0  0  0
   -4.1717   21.2842  -31.9274 H   0  0  0  0  0  0  0  0  0  0  0  0
   -1.8998   21.2634  -27.9212 H   0  0  0  0  0  0  0  0  0  0  0  0
   -1.4685   21.9329  -25.5629 H   0  0  0  0  0  0  0  0  0  0  0  0
   -1.0403   24.3237  -24.9972 H   0  0  0  0  0  0  0  0  0  0  0  0
   -1.0921   26.0568  -26.7849 H   0  0  0  0  0  0  0  0  0  0  0  0
   -2.2870   25.6720  -30.0800 H   0  0  0  0  0  0  0  0  0  0  0  0
  1  2  1  0
  2  3  2  0
  3  4  1  0
  4  5  2  0
  5  6  1  0
  6  7  2  0
  6  8  2  0
  6  9  1  0
  9 10  1  0
 10 11  1  0
 11 12  1  0
 12 13  1  0
 13 14  1  0
  5 15  1  0
 15 16  2  0
 16 17  1  0
 17 18  1  0
 18 19  2  0
 18 20  1  0
 20 21  2  0
 21 22  1  0
 22 23  2  0
 23 24  1  0
 24 25  2  0
 25 26  1  0
 16  2  1  0
 25 20  1  0
 14  9  1  0
  1 27  1  0
  1 28  1  0
  3 29  1  0
  4 30  1  0
 10 31  1  0
 10 32  1  0
 11 33  1  0
 11 34  1  0
 12 35  1  0
 12 36  1  0
 13 37  1  0
 13 38  1  0
 14 39  1  0
 14 40  1  0
 15 41  1  0
 21 42  1  0
 22 43  1  0
 23 44  1  0
 24 45  1  0
 26 46  1  0
M  CHG  1  17  -1
M  END
>  <UniqueID>  (41) 
40

>  <SMILES>  (41) 
Nc1ccc(S(=O)(=O)N2CCCCC2)cc1[N-]C(=O)c1ccccc1O

>  <Energy>  (41) 
60.468706509898745

>  <Genealogy>  (41) 
Nc1ccc(S(=O)(=O)N2CCCCC2)cc1[N-]C(=O)c1ccccc1O (protonated)
Nc1ccc(S(=O)(=O)N2CCCCC2)cc1[N-]C(=O)c1ccccc1O (3D coordinates assigned)
Nc1ccc(S(=O)(=O)N2CCCCC2)cc1[N-]C(=O)c1ccccc1O (nonaromatic ring conformer: 60.468706509898745 kcal/mol)

>  <smiles>  (41) 
Nc1ccc(S(=O)(=O)N2CCCCC2)cc1NC(=O)c1ccccc1O

>  <score_type>  (41) 
oracle

>  <origin>  (41) 
adgpu

>  <m_score__min__energy>  (41) 
-10.84

>  <m_primary>  (41) 
energy

$$$$
41:0
     RDKit          3D

 70 74  0  0  0  0  0  0  0  0999 V2000
   -8.5440   19.8360  -32.5630 C   0  0  0  0  0  0  0  0  0  0  0  0
   -7.8650   21.1520  -32.2860 C   0  0  0  0  0  0  0  0  0  0  0  0
   -8.6780   22.2460  -31.9530 C   0  0  0  0  0  0  0  0  0  0  0  0
   -8.1300   23.4990  -31.7060 C   0  0  0  0  0  0  0  0  0  0  0  0
   -6.7460   23.6880  -31.7640 C   0  0  0  0  0  0  0  0  0  0  0  0
   -6.1550   24.9850  -31.5870 N   0  0  0  0  0  0  0  0  0  0  0  0
   -5.3780   25.4460  -30.4720 C   0  0  0  0  0  0  0  0  0  0  0  0
   -5.9430   25.8810  -29.4340 O   0  0  0  0  0  0  0  0  0  0  0  0
   -3.9530   25.3160  -30.4870 N   0  0  0  0  0  0  0  0  0  0  0  0
   -3.2020   24.3840  -29.6960 C   0  0  0  0  0  0  0  0  0  0  0  0
   -3.8160   23.2070  -29.2760 C   0  0  0  0  0  0  0  0  0  0  0  0
   -3.1060   22.2680  -28.5310 C   0  0  0  0  0  0  0  0  0  0  0  0
   -1.7600   22.4860  -28.1690 C   0  0  0  0  0  0  0  0  0  0  0  0
   -1.1570   23.7330  -28.5130 C   0  0  0  0  0  0  0  0  0  0  0  0
   -1.8860   24.6500  -29.2950 C   0  0  0  0  0  0  0  0  0  0  0  0
    0.2660   24.1220  -28.1540 C   0  0  0  0  0  0  0  0  0  0  0  0
    0.8550   23.3100  -27.0020 C   0  0  0  0  0  0  0  0  0  0  0  0
    1.3920   21.9480  -27.4680 C   0  0  0  0  0  0  0  0  0  0  0  0
    0.3050   20.9320  -27.9330 C   0  0  1  0  0  0  0  0  0  0  0  0
    0.7240   19.5510  -27.5200 N   0  0  0  0  0  0  0  0  0  0  0  0
   -0.3250   18.5050  -27.6670 C   0  0  0  0  0  0  0  0  0  0  0  0
    0.2640   17.0850  -27.6760 C   0  0  0  0  0  0  0  0  0  0  0  0
    1.2050   16.8710  -28.8020 N   0  0  0  0  0  0  0  0  0  0  0  0
    0.5660   16.1430  -29.9080 C   0  0  0  0  0  0  0  0  0  0  0  0
    1.8130   18.1260  -29.2960 C   0  0  0  0  0  0  0  0  0  0  0  0
    2.0120   19.1350  -28.1550 C   0  0  0  0  0  0  0  0  0  0  0  0
   -1.0750   21.3920  -27.3540 C   0  0  0  0  0  0  0  0  0  0  0  0
   -5.9090   22.6130  -32.0970 C   0  0  0  0  0  0  0  0  0  0  0  0
   -4.5350   22.8730  -32.1780 O   0  0  0  0  0  0  0  0  0  0  0  0
   -6.4520   21.3230  -32.3500 C   0  0  0  0  0  0  0  0  0  0  0  0
   -5.3400   19.9750  -32.7400 S   0  0  0  0  0  0  0  0  0  0  0  0
   -5.3740   19.5970  -34.1940 O   0  0  0  0  0  0  0  0  0  0  0  0
   -5.7800   18.7680  -31.9600 O   0  0  0  0  0  0  0  0  0  0  0  0
   -3.6310   20.3380  -32.3110 C   0  0  0  0  0  0  0  0  0  0  0  0
   -2.7490   20.9100  -33.4160 C   0  0  0  0  0  0  0  0  0  0  0  0
   -2.6120   19.4520  -33.0120 C   0  0  0  0  0  0  0  0  0  0  0  0
   -8.7967   19.3462  -31.6110 H   0  0  0  0  0  0  0  0  0  0  0  0
   -9.4637   20.0123  -33.1401 H   0  0  0  0  0  0  0  0  0  0  0  0
   -7.8674   19.1886  -33.1401 H   0  0  0  0  0  0  0  0  0  0  0  0
   -9.7675   22.1096  -31.8863 H   0  0  0  0  0  0  0  0  0  0  0  0
   -8.7884   24.3462  -31.4637 H   0  0  0  0  0  0  0  0  0  0  0  0
   -4.8683   23.0174  -29.5341 H   0  0  0  0  0  0  0  0  0  0  0  0
   -3.6046   21.3385  -28.2189 H   0  0  0  0  0  0  0  0  0  0  0  0
   -1.4120   25.5954  -29.5975 H   0  0  0  0  0  0  0  0  0  0  0  0
    0.8998   23.9757  -29.0411 H   0  0  0  0  0  0  0  0  0  0  0  0
    0.2380   25.1713  -27.8250 H   0  0  0  0  0  0  0  0  0  0  0  0
    1.6802   23.8810  -26.5515 H   0  0  0  0  0  0  0  0  0  0  0  0
    0.0519   23.1253  -26.2733 H   0  0  0  0  0  0  0  0  0  0  0  0
    2.0779   22.1223  -28.3101 H   0  0  0  0  0  0  0  0  0  0  0  0
    1.8795   21.4952  -26.5920 H   0  0  0  0  0  0  0  0  0  0  0  0
    0.1948   20.9023  -29.0271 H   0  0  0  0  0  0  0  0  0  0  0  0
   -1.0298   18.5903  -26.8267 H   0  0  0  0  0  0  0  0  0  0  0  0
   -0.8284   18.6666  -28.6316 H   0  0  0  0  0  0  0  0  0  0  0  0
    0.8009   16.9192  -26.7304 H   0  0  0  0  0  0  0  0  0  0  0  0
   -0.5692   16.3768  -27.7957 H   0  0  0  0  0  0  0  0  0  0  0  0
   -0.1080   15.3751  -29.5005 H   0  0  0  0  0  0  0  0  0  0  0  0
   -0.0110   16.8471  -30.5255 H   0  0  0  0  0  0  0  0  0  0  0  0
    1.3390   15.6621  -30.5255 H   0  0  0  0  0  0  0  0  0  0  0  0
    2.7899   17.8978  -29.7473 H   0  0  0  0  0  0  0  0  0  0  0  0
    1.1359   18.5712  -30.0398 H   0  0  0  0  0  0  0  0  0  0  0  0
    2.6507   18.6753  -27.3864 H   0  0  0  0  0  0  0  0  0  0  0  0
    2.4757   20.0350  -28.5851 H   0  0  0  0  0  0  0  0  0  0  0  0
   -1.7429   20.5187  -27.3181 H   0  0  0  0  0  0  0  0  0  0  0  0
   -0.8757   21.8160  -26.3587 H   0  0  0  0  0  0  0  0  0  0  0  0
   -4.1130   23.7720  -31.9870 H   0  0  0  0  0  0  0  0  0  0  0  0
   -3.8480   20.6358  -31.2746 H   0  0  0  0  0  0  0  0  0  0  0  0
   -3.1880   21.1720  -34.3900 H   0  0  0  0  0  0  0  0  0  0  0  0
   -2.0591   21.7628  -33.4977 H   0  0  0  0  0  0  0  0  0  0  0  0
   -2.9510   18.6586  -33.6944 H   0  0  0  0  0  0  0  0  0  0  0  0
   -1.7803   18.8128  -32.6806 H   0  0  0  0  0  0  0  0  0  0  0  0
  1  2  1  0
  2  3  2  0
  3  4  1  0
  4  5  2  0
  5  6  1  0
  6  7  1  0
  7  8  2  0
  7  9  1  0
  9 10  1  0
 10 11  2  0
 11 12  1  0
 12 13  2  0
 13 14  1  0
 14 15  2  0
 14 16  1  0
 16 17  1  0
 17 18  1  0
 18 19  1  0
 19 20  1  0
 20 21  1  0
 21 22  1  0
 22 23  1  0
 23 24  1  0
 23 25  1  0
 25 26  1  0
 19 27  1  0
  5 28  1  0
 28 29  1  0
 28 30  2  0
 30 31  1  0
 31 32  2  0
 31 33  2  0
 31 34  1  0
 34 35  1  0
 35 36  1  0
 30  2  1  0
 36 34  1  0
 15 10  1  0
 26 20  1  0
 27 13  1  0
  1 37  1  0
  1 38  1  0
  1 39  1  0
  3 40  1  0
  4 41  1  0
 11 42  1  0
 12 43  1  0
 15 44  1  0
 16 45  1  0
 16 46  1  0
 17 47  1  0
 17 48  1  0
 18 49  1  0
 18 50  1  0
 19 51  1  6
 21 52  1  0
 21 53  1  0
 22 54  1  0
 22 55  1  0
 24 56  1  0
 24 57  1  0
 24 58  1  0
 25 59  1  0
 25 60  1  0
 26 61  1  0
 26 62  1  0
 27 63  1  0
 27 64  1  0
 29 65  1  0
 34 66  1  0
 35 67  1  0
 35 68  1  0
 36 69  1  0
 36 70  1  0
M  CHG  2   6  -1   9  -1
M  END
>  <UniqueID>  (42) 
41

>  <SMILES>  (42) 
Cc1ccc([N-]C(=O)[N-]c2ccc3c(c2)CCC[C@@H](N2CCN(C)CC2)C3)c(O)c1S(=O)(=O)C1CC1

>  <Energy>  (42) 
380.2147983469357

>  <Genealogy>  (42) 
Cc1ccc([N-]C(=O)[N-]c2ccc3c(c2)CCCC(N2CCN(C)CC2)C3)c(O)c1S(=O)(=O)C1CC1 (protonated)
Cc1ccc([N-]C(=O)[N-]c2ccc3c(c2)CCC[C@@H](N2CCN(C)CC2)C3)c(O)c1S(=O)(=O)C1CC1 (chirality)
Cc1ccc([N-]C(=O)[N-]c2ccc3c(c2)CCC[C@@H](N2CCN(C)CC2)C3)c(O)c1S(=O)(=O)C1CC1 (3D coordinates assigned)
Cc1ccc([N-]C(=O)[N-]c2ccc3c(c2)CCC[C@@H](N2CCN(C)CC2)C3)c(O)c1S(=O)(=O)C1CC1 (nonaromatic ring conformer: 380.2147983469357 kcal/mol)

>  <smiles>  (42) 
Cc1ccc(NC(=O)Nc2ccc3c(c2)CCCC(N2CCN(C)CC2)C3)c(O)c1S(=O)(=O)C1CC1

>  <score_type>  (42) 
oracle

>  <origin>  (42) 
adgpu

>  <m_score__min__energy>  (42) 
-13.43

>  <m_primary>  (42) 
energy

$$$$
42:0
     RDKit          3D

 55 58  0  0  0  0  0  0  0  0999 V2000
    1.2350   26.6840  -24.6880 C   0  0  0  0  0  0  0  0  0  0  0  0
   -0.2840   26.9600  -24.7030 C   0  0  0  0  0  0  0  0  0  0  0  0
   -0.8600   26.4980  -23.3430 C   0  0  0  0  0  0  0  0  0  0  0  0
   -0.5280   28.4800  -24.8230 C   0  0  0  0  0  0  0  0  0  0  0  0
   -0.9240   26.2390  -25.9080 C   0  0  0  0  0  0  0  0  0  0  0  0
   -0.4330   26.3720  -27.2280 C   0  0  0  0  0  0  0  0  0  0  0  0
   -1.0440   25.7050  -28.2930 C   0  0  0  0  0  0  0  0  0  0  0  0
   -2.1670   24.8970  -28.0780 C   0  0  0  0  0  0  0  0  0  0  0  0
   -2.8150   24.1780  -29.1910 C   0  0  0  0  0  0  0  0  0  0  0  0
   -3.8240   24.7050  -29.9130 N   0  0  0  0  0  0  0  0  0  0  0  0
   -4.1420   23.8210  -30.8460 N   0  0  0  0  0  0  0  0  0  0  0  0
   -3.3130   22.7730  -30.6890 C   0  0  0  0  0  0  0  0  0  0  0  0
   -3.3350   21.3340  -31.7650 S   0  0  0  0  0  0  0  0  0  0  0  0
   -4.5600   22.0230  -32.9340 C   0  0  0  0  0  0  0  0  0  0  0  0
   -5.9680   21.7810  -32.4520 C   0  0  0  0  0  0  0  0  0  0  0  0
   -6.4750   20.4710  -32.4430 C   0  0  0  0  0  0  0  0  0  0  0  0
   -7.7680   20.2140  -31.9750 C   0  0  0  0  0  0  0  0  0  0  0  0
   -8.3890   18.5730  -31.9670 Cl  0  0  0  0  0  0  0  0  0  0  0  0
   -8.5640   21.2640  -31.5090 C   0  0  0  0  0  0  0  0  0  0  0  0
   -8.0690   22.5700  -31.5090 C   0  0  0  0  0  0  0  0  0  0  0  0
   -6.7740   22.8370  -31.9770 C   0  0  0  0  0  0  0  0  0  0  0  0
   -6.2870   24.1440  -31.9630 O   0  0  0  0  0  0  0  0  0  0  0  0
   -2.4630   22.9580  -29.6600 N   0  0  0  0  0  0  0  0  0  0  0  0
   -1.3850   22.0700  -29.2170 C   0  0  0  0  0  0  0  0  0  0  0  0
   -1.8750   21.1390  -28.1520 C   0  0  0  0  0  0  0  0  0  0  0  0
   -1.1920   20.8020  -27.0020 C   0  0  0  0  0  0  0  0  0  0  0  0
   -2.0030   19.9080  -26.3370 C   0  0  0  0  0  0  0  0  0  0  0  0
   -3.1260   19.7500  -27.1260 C   0  0  0  0  0  0  0  0  0  0  0  0
   -3.0190   20.4940  -28.2020 O   0  0  0  0  0  0  0  0  0  0  0  0
   -2.6500   24.7360  -26.7750 C   0  0  0  0  0  0  0  0  0  0  0  0
   -2.0430   25.4020  -25.7070 C   0  0  0  0  0  0  0  0  0  0  0  0
    1.5858   26.6203  -23.6474 H   0  0  0  0  0  0  0  0  0  0  0  0
    1.4401   25.7339  -25.2030 H   0  0  0  0  0  0  0  0  0  0  0  0
    1.7613   27.5012  -25.2030 H   0  0  0  0  0  0  0  0  0  0  0  0
   -0.2855   26.9588  -22.5259 H   0  0  0  0  0  0  0  0  0  0  0  0
   -1.9139   26.8040  -23.2682 H   0  0  0  0  0  0  0  0  0  0  0  0
   -0.7900   25.4028  -23.2682 H   0  0  0  0  0  0  0  0  0  0  0  0
   -0.5987   28.9205  -23.8175 H   0  0  0  0  0  0  0  0  0  0  0  0
    0.3072   28.9435  -25.3685 H   0  0  0  0  0  0  0  0  0  0  0  0
   -1.4663   28.6588  -25.3685 H   0  0  0  0  0  0  0  0  0  0  0  0
    0.4426   27.0099  -27.4188 H   0  0  0  0  0  0  0  0  0  0  0  0
   -0.6390   25.8158  -29.3097 H   0  0  0  0  0  0  0  0  0  0  0  0
   -4.3947   23.1062  -33.0302 H   0  0  0  0  0  0  0  0  0  0  0  0
   -4.4335   21.5241  -33.9061 H   0  0  0  0  0  0  0  0  0  0  0  0
   -5.8509   19.6414  -32.8065 H   0  0  0  0  0  0  0  0  0  0  0  0
   -9.5810   21.0617  -31.1420 H   0  0  0  0  0  0  0  0  0  0  0  0
   -8.6980   23.3935  -31.1400 H   0  0  0  0  0  0  0  0  0  0  0  0
   -5.5770   24.4400  -31.3030 H   0  0  0  0  0  0  0  0  0  0  0  0
   -1.0256   21.4818  -30.0742 H   0  0  0  0  0  0  0  0  0  0  0  0
   -0.5678   22.6810  -28.8061 H   0  0  0  0  0  0  0  0  0  0  0  0
   -0.2059   21.1700  -26.6824 H   0  0  0  0  0  0  0  0  0  0  0  0
   -1.7977   19.4192  -25.3732 H   0  0  0  0  0  0  0  0  0  0  0  0
   -3.9804   19.0992  -26.8884 H   0  0  0  0  0  0  0  0  0  0  0  0
   -3.5137   24.0805  -26.5898 H   0  0  0  0  0  0  0  0  0  0  0  0
   -2.4444   25.2717  -24.6912 H   0  0  0  0  0  0  0  0  0  0  0  0
  1  2  1  0
  2  3  1  0
  2  4  1  0
  2  5  1  0
  5  6  2  0
  6  7  1  0
  7  8  2  0
  8  9  1  0
  9 10  2  0
 10 11  1  0
 11 12  2  0
 12 13  1  0
 13 14  1  0
 14 15  1  0
 15 16  2  0
 16 17  1  0
 17 18  1  0
 17 19  2  0
 19 20  1  0
 20 21  2  0
 21 22  1  0
 12 23  1  0
 23 24  1  0
 24 25  1  0
 25 26  2  0
 26 27  1  0
 27 28  2  0
 28 29  1  0
  8 30  1  0
 30 31  2  0
 31  5  1  0
 23  9  1  0
 29 25  1  0
 21 15  1  0
  1 32  1  0
  1 33  1  0
  1 34  1  0
  3 35  1  0
  3 36  1  0
  3 37  1  0
  4 38  1  0
  4 39  1  0
  4 40  1  0
  6 41  1  0
  7 42  1  0
 14 43  1  0
 14 44  1  0
 16 45  1  0
 19 46  1  0
 20 47  1  0
 22 48  1  0
 24 49  1  0
 24 50  1  0
 26 51  1  0
 27 52  1  0
 28 53  1  0
 30 54  1  0
 31 55  1  0
M  END
>  <UniqueID>  (43) 
42

>  <SMILES>  (43) 
CC(C)(C)c1ccc(-c2nnc(SCc3cc(Cl)ccc3O)n2Cc2ccco2)cc1

>  <Energy>  (43) 
118.88141865114663

>  <Genealogy>  (43) 
CC(C)(C)c1ccc(-c2nnc(SCc3cc(Cl)ccc3O)n2Cc2ccco2)cc1 (3D coordinates assigned)
CC(C)(C)c1ccc(-c2nnc(SCc3cc(Cl)ccc3O)n2Cc2ccco2)cc1 (optimized conformer: 118.88141865114663 kcal/mol)

>  <smiles>  (43) 
CC(C)(C)c1ccc(-c2nnc(SCc3cc(Cl)ccc3O)n2Cc2ccco2)cc1

>  <score_type>  (43) 
oracle

>  <origin>  (43) 
adgpu

>  <m_score__min__energy>  (43) 
-10.01

>  <m_primary>  (43) 
energy

$$$$
43:0
     RDKit          3D

 57 60  0  0  0  0  0  0  0  0999 V2000
   -2.0980   21.2350  -33.6720 C   0  0  0  0  0  0  0  0  0  0  0  0
   -3.2140   20.2740  -33.4190 C   0  0  0  0  0  0  0  0  0  0  0  0
   -4.5050   20.6440  -33.3040 N   0  0  0  0  0  0  0  0  0  0  0  0
   -5.2060   19.5710  -32.9710 N   0  0  0  0  0  0  0  0  0  0  0  0
   -6.6150   19.6240  -32.6940 C   0  0  0  0  0  0  0  0  0  0  0  0
   -7.3500   18.4350  -32.5770 C   0  0  0  0  0  0  0  0  0  0  0  0
   -8.7270   18.4770  -32.3360 C   0  0  0  0  0  0  0  0  0  0  0  0
   -9.3820   19.7070  -32.2260 C   0  0  0  0  0  0  0  0  0  0  0  0
   -8.6610   20.8960  -32.3660 C   0  0  0  0  0  0  0  0  0  0  0  0
   -7.2850   20.8580  -32.6050 C   0  0  0  0  0  0  0  0  0  0  0  0
   -4.3840   18.5000  -32.8780 C   0  0  0  0  0  0  0  0  0  0  0  0
   -4.8060   17.1030  -32.5180 C   0  0  0  0  0  0  0  0  0  0  0  0
   -3.0890   18.9220  -33.1410 C   0  0  0  0  0  0  0  0  0  0  0  0
   -1.8090   18.1490  -32.9670 C   0  0  0  0  0  0  0  0  0  0  0  0
   -0.9660   18.7390  -31.8720 C   0  0  0  0  0  0  0  0  0  0  0  0
    0.2720   18.4980  -31.8470 O   0  0  0  0  0  0  0  0  0  0  0  0
   -1.5650   19.5360  -30.8410 N   0  0  0  0  0  0  0  0  0  0  0  0
   -0.7840   20.0970  -29.7400 C   0  0  0  0  0  0  0  0  0  0  0  0
   -1.1180   21.5540  -29.5560 C   0  0  0  0  0  0  0  0  0  0  0  0
   -0.1340   22.4680  -29.1480 C   0  0  0  0  0  0  0  0  0  0  0  0
   -0.4350   23.8300  -29.0530 C   0  0  0  0  0  0  0  0  0  0  0  0
   -1.7130   24.2940  -29.3810 C   0  0  0  0  0  0  0  0  0  0  0  0
   -1.9940   25.6510  -29.2780 O   0  0  0  0  0  0  0  0  0  0  0  0
   -2.7020   23.3910  -29.8010 C   0  0  0  0  0  0  0  0  0  0  0  0
   -3.9940   23.8650  -30.1970 N   0  0  0  0  0  0  0  0  0  0  0  0
   -4.7200   24.9200  -29.4980 C   0  0  0  0  0  0  0  0  0  0  0  0
   -6.2340   24.7080  -29.7260 C   0  0  0  0  0  0  0  0  0  0  0  0
   -6.4730   23.9240  -31.0240 C   0  0  0  0  0  0  0  0  0  0  0  0
   -5.0030   22.9840  -31.2620 S   0  0  0  0  0  0  0  0  0  0  0  0
   -4.5190   23.0530  -32.6820 O   0  0  0  0  0  0  0  0  0  0  0  0
   -5.1730   21.5630  -30.8030 O   0  0  0  0  0  0  0  0  0  0  0  0
   -2.4010   22.0220  -29.8780 C   0  0  0  0  0  0  0  0  0  0  0  0
   -1.6911   21.5854  -32.7120 H   0  0  0  0  0  0  0  0  0  0  0  0
   -1.3046   20.7329  -34.2451 H   0  0  0  0  0  0  0  0  0  0  0  0
   -2.4767   22.0941  -34.2451 H   0  0  0  0  0  0  0  0  0  0  0  0
   -6.8409   17.4649  -32.6753 H   0  0  0  0  0  0  0  0  0  0  0  0
   -9.2954   17.5409  -32.2329 H   0  0  0  0  0  0  0  0  0  0  0  0
  -10.4638   19.7390  -32.0295 H   0  0  0  0  0  0  0  0  0  0  0  0
   -9.1780   21.8638  -32.2879 H   0  0  0  0  0  0  0  0  0  0  0  0
   -6.7234   21.7963  -32.7240 H   0  0  0  0  0  0  0  0  0  0  0  0
   -4.8371   17.0000  -31.4233 H   0  0  0  0  0  0  0  0  0  0  0  0
   -5.8046   16.9030  -32.9336 H   0  0  0  0  0  0  0  0  0  0  0  0
   -4.0851   16.3836  -32.9336 H   0  0  0  0  0  0  0  0  0  0  0  0
   -2.0506   17.1065  -32.7124 H   0  0  0  0  0  0  0  0  0  0  0  0
   -1.2418   18.1954  -33.9084 H   0  0  0  0  0  0  0  0  0  0  0  0
   -2.5950   19.7080  -30.8740 H   0  0  0  0  0  0  0  0  0  0  0  0
   -1.0169   19.5509  -28.8139 H   0  0  0  0  0  0  0  0  0  0  0  0
    0.2866   20.0005  -29.9733 H   0  0  0  0  0  0  0  0  0  0  0  0
    0.8772   22.1116  -28.9022 H   0  0  0  0  0  0  0  0  0  0  0  0
    0.3364   24.5395  -28.7190 H   0  0  0  0  0  0  0  0  0  0  0  0
   -4.4968   24.8736  -28.4219 H   0  0  0  0  0  0  0  0  0  0  0  0
   -4.4155   25.9049  -29.8818 H   0  0  0  0  0  0  0  0  0  0  0  0
   -6.6530   24.1444  -28.8793 H   0  0  0  0  0  0  0  0  0  0  0  0
   -6.7246   25.6893  -29.8054 H   0  0  0  0  0  0  0  0  0  0  0  0
   -7.3443   23.2605  -30.9207 H   0  0  0  0  0  0  0  0  0  0  0  0
   -6.6831   24.5873  -31.8760 H   0  0  0  0  0  0  0  0  0  0  0  0
   -3.1778   21.3099  -30.1935 H   0  0  0  0  0  0  0  0  0  0  0  0
  1  2  1  0
  2  3  2  0
  3  4  1  0
  4  5  1  0
  5  6  2  0
  6  7  1  0
  7  8  2  0
  8  9  1  0
  9 10  2  0
  4 11  1  0
 11 12  1  0
 11 13  2  0
 13 14  1  0
 14 15  1  0
 15 16  2  0
 15 17  1  0
 17 18  1  0
 18 19  1  0
 19 20  2  0
 20 21  1  0
 21 22  2  0
 22 23  1  0
 22 24  1  0
 24 25  1  0
 25 26  1  0
 26 27  1  0
 27 28  1  0
 28 29  1  0
 29 30  2  0
 29 31  2  0
 24 32  2  0
 13  2  1  0
 32 19  1  0
 10  5  1  0
 29 25  1  0
  1 33  1  0
  1 34  1  0
  1 35  1  0
  6 36  1  0
  7 37  1  0
  8 38  1  0
  9 39  1  0
 10 40  1  0
 12 41  1  0
 12 42  1  0
 12 43  1  0
 14 44  1  0
 14 45  1  0
 17 46  1  0
 18 47  1  0
 18 48  1  0
 20 49  1  0
 21 50  1  0
 26 51  1  0
 26 52  1  0
 27 53  1  0
 27 54  1  0
 28 55  1  0
 28 56  1  0
 32 57  1  0
M  CHG  1  23  -1
M  END
>  <UniqueID>  (44) 
43

>  <SMILES>  (44) 
Cc1nn(-c2ccccc2)c(C)c1CC(=O)NCc1ccc([O-])c(N2CCCS2(=O)=O)c1

>  <Energy>  (44) 
99.63936071542054

>  <Genealogy>  (44) 
Cc1nn(-c2ccccc2)c(C)c1CC(=O)NCc1ccc([O-])c(N2CCCS2(=O)=O)c1 (protonated)
Cc1nn(-c2ccccc2)c(C)c1CC(=O)NCc1ccc([O-])c(N2CCCS2(=O)=O)c1 (3D coordinates assigned)
Cc1nn(-c2ccccc2)c(C)c1CC(=O)NCc1ccc([O-])c(N2CCCS2(=O)=O)c1 (nonaromatic ring conformer: 99.63936071542054 kcal/mol)

>  <smiles>  (44) 
Cc1nn(-c2ccccc2)c(C)c1CC(=O)NCc1ccc(O)c(N2CCCS2(=O)=O)c1

>  <score_type>  (44) 
oracle

>  <origin>  (44) 
adgpu

>  <m_score__min__energy>  (44) 
-13.25

>  <m_primary>  (44) 
energy

$$$$
44:0
     RDKit          3D

 62 65  0  0  0  0  0  0  0  0999 V2000
   -3.8630   25.2730  -30.5060 O   0  0  0  0  0  0  0  0  0  0  0  0
   -3.8380   24.0110  -30.4790 C   0  0  0  0  0  0  0  0  0  0  0  0
   -4.4460   23.2550  -31.5360 N   0  0  0  0  0  0  0  0  0  0  0  0
   -5.8310   22.9010  -31.6610 C   0  0  0  0  0  0  0  0  0  0  0  0
   -6.8640   23.8490  -31.5310 C   0  0  0  0  0  0  0  0  0  0  0  0
   -8.2000   23.4500  -31.6240 C   0  0  0  0  0  0  0  0  0  0  0  0
   -8.5190   22.1060  -31.8260 C   0  0  0  0  0  0  0  0  0  0  0  0
   -7.5020   21.1490  -31.9330 C   0  0  0  0  0  0  0  0  0  0  0  0
   -7.9230   19.4510  -32.1560 S   0  0  0  0  0  0  0  0  0  0  0  0
   -9.0560   19.3650  -33.1400 O   0  0  0  0  0  0  0  0  0  0  0  0
   -8.3700   18.8560  -30.8490 O   0  0  0  0  0  0  0  0  0  0  0  0
   -6.5450   18.5660  -32.7640 N   0  0  0  0  0  0  0  0  0  0  0  0
   -6.8780   17.1230  -32.8780 C   0  0  0  0  0  0  0  0  0  0  0  0
   -5.9450   16.3540  -33.8410 C   0  0  0  0  0  0  0  0  0  0  0  0
   -4.6000   17.0630  -34.0110 C   0  0  0  0  0  0  0  0  0  0  0  0
   -4.7850   18.5030  -34.5210 C   0  0  0  0  0  0  0  0  0  0  0  0
   -6.1150   19.1310  -34.0570 C   0  0  0  0  0  0  0  0  0  0  0  0
   -6.1610   21.5520  -31.8490 C   0  0  0  0  0  0  0  0  0  0  0  0
   -3.1350   23.3100  -29.3770 C   0  0  0  0  0  0  0  0  0  0  0  0
   -3.6750   22.1420  -28.8100 C   0  0  0  0  0  0  0  0  0  0  0  0
   -3.0020   21.4760  -27.7810 C   0  0  0  0  0  0  0  0  0  0  0  0
   -1.7930   21.9760  -27.2950 C   0  0  0  0  0  0  0  0  0  0  0  0
   -1.2490   23.1470  -27.8370 C   0  0  0  0  0  0  0  0  0  0  0  0
    0.2560   23.8140  -27.2080 S   0  0  0  0  0  0  0  0  0  0  0  0
    0.7400   24.8790  -28.1540 O   0  0  0  0  0  0  0  0  0  0  0  0
    1.2940   22.7300  -27.1140 O   0  0  0  0  0  0  0  0  0  0  0  0
   -0.0430   24.5000  -25.6250 N   0  0  0  0  0  0  0  0  0  0  0  0
    0.8930   25.6110  -25.3090 C   0  0  0  0  0  0  0  0  0  0  0  0
    0.2060   26.9730  -25.1100 C   0  0  0  0  0  0  0  0  0  0  0  0
   -0.8550   27.1980  -26.1850 C   0  0  0  0  0  0  0  0  0  0  0  0
   -1.9190   26.0860  -26.1780 C   0  0  0  0  0  0  0  0  0  0  0  0
   -1.4710   24.8190  -25.4230 C   0  0  0  0  0  0  0  0  0  0  0  0
   -1.9150   23.8050  -28.8790 C   0  0  0  0  0  0  0  0  0  0  0  0
   -6.6186   24.9068  -31.3557 H   0  0  0  0  0  0  0  0  0  0  0  0
   -9.0027   24.1972  -31.5378 H   0  0  0  0  0  0  0  0  0  0  0  0
   -9.5722   21.7977  -31.9014 H   0  0  0  0  0  0  0  0  0  0  0  0
   -5.7720   18.6870  -32.0670 H   0  0  0  0  0  0  0  0  0  0  0  0
   -6.8016   16.6672  -31.8798 H   0  0  0  0  0  0  0  0  0  0  0  0
   -7.8965   17.0553  -33.2880 H   0  0  0  0  0  0  0  0  0  0  0  0
   -5.7683   15.3461  -33.4374 H   0  0  0  0  0  0  0  0  0  0  0  0
   -6.4335   16.3040  -34.8253 H   0  0  0  0  0  0  0  0  0  0  0  0
   -4.0847   17.0908  -33.0395 H   0  0  0  0  0  0  0  0  0  0  0  0
   -4.0067   16.5069  -34.7517 H   0  0  0  0  0  0  0  0  0  0  0  0
   -3.9547   19.1190  -34.1454 H   0  0  0  0  0  0  0  0  0  0  0  0
   -4.7993   18.4675  -35.6203 H   0  0  0  0  0  0  0  0  0  0  0  0
   -5.9809   20.2173  -33.9478 H   0  0  0  0  0  0  0  0  0  0  0  0
   -6.8870   18.9111  -34.8091 H   0  0  0  0  0  0  0  0  0  0  0  0
   -5.3607   20.8019  -31.9315 H   0  0  0  0  0  0  0  0  0  0  0  0
   -4.6341   21.7493  -29.1787 H   0  0  0  0  0  0  0  0  0  0  0  0
   -3.4265   20.5557  -27.3535 H   0  0  0  0  0  0  0  0  0  0  0  0
   -1.2667   21.4495  -26.4851 H   0  0  0  0  0  0  0  0  0  0  0  0
    1.4311   25.3569  -24.3838 H   0  0  0  0  0  0  0  0  0  0  0  0
    1.5634   25.7171  -26.1746 H   0  0  0  0  0  0  0  0  0  0  0  0
   -0.2715   26.9964  -24.1193 H   0  0  0  0  0  0  0  0  0  0  0  0
    0.9627   27.7678  -25.1846 H   0  0  0  0  0  0  0  0  0  0  0  0
   -1.3482   28.1641  -26.0021 H   0  0  0  0  0  0  0  0  0  0  0  0
   -0.3564   27.1886  -27.1655 H   0  0  0  0  0  0  0  0  0  0  0  0
   -2.8284   26.4758  -25.6973 H   0  0  0  0  0  0  0  0  0  0  0  0
   -2.0952   25.7967  -27.2246 H   0  0  0  0  0  0  0  0  0  0  0  0
   -1.6473   24.9711  -24.3479 H   0  0  0  0  0  0  0  0  0  0  0  0
   -2.0553   23.9760  -25.8203 H   0  0  0  0  0  0  0  0  0  0  0  0
   -1.4802   24.7177  -29.3124 H   0  0  0  0  0  0  0  0  0  0  0  0
  1  2  2  0
  2  3  1  0
  3  4  1  0
  4  5  2  0
  5  6  1  0
  6  7  2  0
  7  8  1  0
  8  9  1  0
  9 10  2  0
  9 11  2  0
  9 12  1  0
 12 13  1  0
 13 14  1  0
 14 15  1  0
 15 16  1  0
 16 17  1  0
  8 18  2  0
  2 19  1  0
 19 20  2  0
 20 21  1  0
 21 22  2  0
 22 23  1  0
 23 24  1  0
 24 25  2  0
 24 26  2  0
 24 27  1  0
 27 28  1  0
 28 29  1  0
 29 30  1  0
 30 31  1  0
 31 32  1  0
 23 33  2  0
 18  4  1  0
 33 19  1  0
 17 12  1  0
 32 27  1  0
  5 34  1  0
  6 35  1  0
  7 36  1  0
 12 37  1  0
 13 38  1  0
 13 39  1  0
 14 40  1  0
 14 41  1  0
 15 42  1  0
 15 43  1  0
 16 44  1  0
 16 45  1  0
 17 46  1  0
 17 47  1  0
 18 48  1  0
 20 49  1  0
 21 50  1  0
 22 51  1  0
 28 52  1  0
 28 53  1  0
 29 54  1  0
 29 55  1  0
 30 56  1  0
 30 57  1  0
 31 58  1  0
 31 59  1  0
 32 60  1  0
 32 61  1  0
 33 62  1  0
M  CHG  2   3  -1  12   1
M  END
>  <UniqueID>  (45) 
44

>  <SMILES>  (45) 
O=C([N-]c1cccc(S(=O)(=O)[NH+]2CCCCC2)c1)c1cccc(S(=O)(=O)N2CCCCC2)c1

>  <Energy>  (45) 
78.30594413474043

>  <Genealogy>  (45) 
O=C([N-]c1cccc(S(=O)(=O)[NH+]2CCCCC2)c1)c1cccc(S(=O)(=O)N2CCCCC2)c1 (protonated)
O=C([N-]c1cccc(S(=O)(=O)[NH+]2CCCCC2)c1)c1cccc(S(=O)(=O)N2CCCCC2)c1 (3D coordinates assigned)
O=C([N-]c1cccc(S(=O)(=O)[NH+]2CCCCC2)c1)c1cccc(S(=O)(=O)N2CCCCC2)c1 (nonaromatic ring conformer: 78.30594413474043 kcal/mol)

>  <smiles>  (45) 
O=C(Nc1cccc(S(=O)(=O)N2CCCCC2)c1)c1cccc(S(=O)(=O)N2CCCCC2)c1

>  <score_type>  (45) 
oracle

>  <origin>  (45) 
adgpu

>  <m_score__min__energy>  (45) 
-13.18

>  <m_primary>  (45) 
energy

$$$$
45:0
     RDKit          3D

 43 45  0  0  0  0  0  0  0  0999 V2000
   -6.4630   25.7260  -29.3800 C   0  0  0  0  0  0  0  0  0  0  0  0
   -5.6370   24.5260  -29.3130 N   0  0  0  0  0  0  0  0  0  0  0  0
   -4.4700   24.3700  -30.1300 C   0  0  0  0  0  0  0  0  0  0  0  0
   -4.0600   25.3300  -30.8360 O   0  0  0  0  0  0  0  0  0  0  0  0
   -3.6930   23.1190  -30.1020 C   0  0  0  0  0  0  0  0  0  0  0  0
   -2.8510   22.9120  -29.0540 N   0  0  0  0  0  0  0  0  0  0  0  0
   -2.0970   21.7860  -28.9480 C   0  0  0  0  0  0  0  0  0  0  0  0
   -1.1750   21.6090  -27.7840 C   0  0  0  0  0  0  0  0  0  0  0  0
   -2.1710   20.8220  -29.9540 C   0  0  0  0  0  0  0  0  0  0  0  0
   -2.9870   21.0300  -31.0180 N   0  0  0  0  0  0  0  0  0  0  0  0
   -3.7560   22.1480  -31.1310 C   0  0  0  0  0  0  0  0  0  0  0  0
   -4.5530   22.3360  -32.3980 C   0  0  0  0  0  0  0  0  0  0  0  0
   -5.6490   21.3070  -32.5170 C   0  0  0  0  0  0  0  0  0  0  0  0
   -6.9600   21.6190  -32.1280 C   0  0  0  0  0  0  0  0  0  0  0  0
   -7.9730   20.6670  -32.2430 C   0  0  0  0  0  0  0  0  0  0  0  0
   -7.6870   19.3920  -32.7380 C   0  0  0  0  0  0  0  0  0  0  0  0
   -6.3770   19.0510  -33.1220 C   0  0  0  0  0  0  0  0  0  0  0  0
   -6.0720   17.6960  -33.6480 C   0  0  0  0  0  0  0  0  0  0  0  0
   -4.9290   17.2830  -34.3190 C   0  0  0  0  0  0  0  0  0  0  0  0
   -5.0340   15.9740  -34.6210 N   0  0  0  0  0  0  0  0  0  0  0  0
   -6.2070   15.5540  -34.1750 N   0  0  0  0  0  0  0  0  0  0  0  0
   -6.6580   14.1720  -34.2540 C   0  0  0  0  0  0  0  0  0  0  0  0
   -6.8610   16.5620  -33.5710 C   0  0  0  0  0  0  0  0  0  0  0  0
   -5.3610   20.0180  -33.0000 C   0  0  0  0  0  0  0  0  0  0  0  0
   -6.6977   26.0670  -28.3608 H   0  0  0  0  0  0  0  0  0  0  0  0
   -5.9174   26.5173  -29.9148 H   0  0  0  0  0  0  0  0  0  0  0  0
   -7.3970   25.4988  -29.9148 H   0  0  0  0  0  0  0  0  0  0  0  0
   -5.8780   23.7920  -28.6120 H   0  0  0  0  0  0  0  0  0  0  0  0
   -1.7417   21.7178  -26.8475 H   0  0  0  0  0  0  0  0  0  0  0  0
   -0.7219   20.6075  -27.8241 H   0  0  0  0  0  0  0  0  0  0  0  0
   -0.3832   22.3715  -27.8241 H   0  0  0  0  0  0  0  0  0  0  0  0
   -1.5730   19.9013  -29.8852 H   0  0  0  0  0  0  0  0  0  0  0  0
   -5.0035   23.3395  -32.3917 H   0  0  0  0  0  0  0  0  0  0  0  0
   -3.8734   22.2183  -33.2549 H   0  0  0  0  0  0  0  0  0  0  0  0
   -7.1902   22.6185  -31.7306 H   0  0  0  0  0  0  0  0  0  0  0  0
   -9.0004   20.9208  -31.9430 H   0  0  0  0  0  0  0  0  0  0  0  0
   -8.4927   18.6486  -32.8282 H   0  0  0  0  0  0  0  0  0  0  0  0
   -4.0705   17.9249  -34.5659 H   0  0  0  0  0  0  0  0  0  0  0  0
   -6.7890   13.7704  -33.2383 H   0  0  0  0  0  0  0  0  0  0  0  0
   -7.6167   14.1293  -34.7917 H   0  0  0  0  0  0  0  0  0  0  0  0
   -5.9090   13.5720  -34.7917 H   0  0  0  0  0  0  0  0  0  0  0  0
   -7.8518   16.4963  -33.0976 H   0  0  0  0  0  0  0  0  0  0  0  0
   -4.3300   19.7623  -33.2858 H   0  0  0  0  0  0  0  0  0  0  0  0
  1  2  1  0
  2  3  1  0
  3  4  2  0
  3  5  1  0
  5  6  2  0
  6  7  1  0
  7  8  1  0
  7  9  2  0
  9 10  1  0
 10 11  2  0
 11 12  1  0
 12 13  1  0
 13 14  2  0
 14 15  1  0
 15 16  2  0
 16 17  1  0
 17 18  1  0
 18 19  1  0
 19 20  2  0
 20 21  1  0
 21 22  1  0
 21 23  1  0
 17 24  2  0
 11  5  1  0
 24 13  1  0
 23 18  2  0
  1 25  1  0
  1 26  1  0
  1 27  1  0
  2 28  1  0
  8 29  1  0
  8 30  1  0
  8 31  1  0
  9 32  1  0
 12 33  1  0
 12 34  1  0
 14 35  1  0
 15 36  1  0
 16 37  1  0
 19 38  1  0
 22 39  1  0
 22 40  1  0
 22 41  1  0
 23 42  1  0
 24 43  1  0
M  END
>  <UniqueID>  (46) 
45

>  <SMILES>  (46) 
CNC(=O)c1nc(C)cnc1Cc1cccc(-c2cnn(C)c2)c1

>  <Energy>  (46) 
77.89482212595684

>  <Genealogy>  (46) 
CNC(=O)c1nc(C)cnc1Cc1cccc(-c2cnn(C)c2)c1 (3D coordinates assigned)
CNC(=O)c1nc(C)cnc1Cc1cccc(-c2cnn(C)c2)c1 (optimized conformer: 77.89482212595684 kcal/mol)

>  <smiles>  (46) 
CNC(=O)c1nc(C)cnc1Cc1cccc(-c2cnn(C)c2)c1

>  <score_type>  (46) 
oracle

>  <origin>  (46) 
adgpu

>  <m_score__min__energy>  (46) 
-8.5199999999999996

>  <m_primary>  (46) 
energy

$$$$
46:0
     RDKit          3D

 54 57  0  0  0  0  0  0  0  0999 V2000
   -7.2790   17.9040  -32.4890 C   0  0  0  0  0  0  0  0  0  0  0  0
   -6.0740   17.7190  -33.4100 C   0  0  0  0  0  0  0  0  0  0  0  0
   -5.7310   19.0000  -34.1790 C   0  0  0  0  0  0  0  0  0  0  0  0
   -5.2410   20.0420  -33.2750 N   0  0  0  0  0  0  0  0  0  0  0  0
   -3.9630   20.2410  -32.8710 C   0  0  0  0  0  0  0  0  0  0  0  0
   -3.8270   21.2940  -32.0240 N   0  0  0  0  0  0  0  0  0  0  0  0
   -5.0850   21.7630  -31.9100 C   0  0  0  0  0  0  0  0  0  0  0  0
   -5.5390   22.8290  -31.1260 C   0  0  0  0  0  0  0  0  0  0  0  0
   -4.4600   23.7530  -30.0800 S   0  0  0  0  0  0  0  0  0  0  0  0
   -3.8770   24.9150  -30.8370 O   0  0  0  0  0  0  0  0  0  0  0  0
   -5.2620   24.2950  -28.9280 O   0  0  0  0  0  0  0  0  0  0  0  0
   -3.1930   22.7010  -29.4920 N   0  0  0  0  0  0  0  0  0  0  0  0
   -3.5100   22.2230  -28.1300 C   0  0  0  0  0  0  0  0  0  0  0  0
   -2.2900   21.6170  -27.3960 C   0  0  0  0  0  0  0  0  0  0  0  0
   -1.1650   21.3560  -28.3100 N   0  0  0  0  0  0  0  0  0  0  0  0
   -0.3640   20.1580  -28.1590 C   0  0  0  0  0  0  0  0  0  0  0  0
   -0.9090   18.9720  -27.6200 C   0  0  0  0  0  0  0  0  0  0  0  0
   -0.1080   17.8350  -27.5040 C   0  0  0  0  0  0  0  0  0  0  0  0
    1.2270   17.8780  -27.9120 C   0  0  0  0  0  0  0  0  0  0  0  0
    1.7430   19.0670  -28.4340 C   0  0  0  0  0  0  0  0  0  0  0  0
    0.9460   20.1630  -28.5470 N   0  0  0  0  0  0  0  0  0  0  0  0
   -0.7610   22.4060  -29.2610 C   0  0  0  0  0  0  0  0  0  0  0  0
   -1.8970   23.4010  -29.5160 C   0  0  0  0  0  0  0  0  0  0  0  0
   -6.9210   23.1140  -31.1500 C   0  0  0  0  0  0  0  0  0  0  0  0
   -7.8060   22.3570  -31.9590 C   0  0  0  0  0  0  0  0  0  0  0  0
   -9.2770   22.6550  -31.9430 C   0  0  0  0  0  0  0  0  0  0  0  0
   -7.3100   21.2760  -32.7200 C   0  0  0  0  0  0  0  0  0  0  0  0
   -5.9390   21.0160  -32.6680 C   0  0  0  0  0  0  0  0  0  0  0  0
   -6.9503   17.8535  -31.4405 H   0  0  0  0  0  0  0  0  0  0  0  0
   -7.7408   18.8836  -32.6817 H   0  0  0  0  0  0  0  0  0  0  0  0
   -8.0134   17.1081  -32.6817 H   0  0  0  0  0  0  0  0  0  0  0  0
   -5.2049   17.4273  -32.8020 H   0  0  0  0  0  0  0  0  0  0  0  0
   -6.3273   16.9412  -34.1454 H   0  0  0  0  0  0  0  0  0  0  0  0
   -4.9528   18.7749  -34.9231 H   0  0  0  0  0  0  0  0  0  0  0  0
   -6.6433   19.3662  -34.6725 H   0  0  0  0  0  0  0  0  0  0  0  0
   -3.1205   19.6130  -33.1963 H   0  0  0  0  0  0  0  0  0  0  0  0
   -3.1520   21.8770  -30.1390 H   0  0  0  0  0  0  0  0  0  0  0  0
   -3.8861   23.0721  -27.5404 H   0  0  0  0  0  0  0  0  0  0  0  0
   -4.2600   21.4246  -28.2306 H   0  0  0  0  0  0  0  0  0  0  0  0
   -1.9588   22.3209  -26.6183 H   0  0  0  0  0  0  0  0  0  0  0  0
   -2.6010   20.6563  -26.9598 H   0  0  0  0  0  0  0  0  0  0  0  0
   -1.9590   18.9445  -27.2934 H   0  0  0  0  0  0  0  0  0  0  0  0
   -0.5278   16.9057  -27.0915 H   0  0  0  0  0  0  0  0  0  0  0  0
    1.8649   16.9862  -27.8234 H   0  0  0  0  0  0  0  0  0  0  0  0
    2.7944   19.1165  -28.7537 H   0  0  0  0  0  0  0  0  0  0  0  0
    0.1029   22.9481  -28.8489 H   0  0  0  0  0  0  0  0  0  0  0  0
   -0.5030   21.9252  -30.2161 H   0  0  0  0  0  0  0  0  0  0  0  0
   -1.8861   24.1748  -28.7343 H   0  0  0  0  0  0  0  0  0  0  0  0
   -1.7555   23.8663  -30.5026 H   0  0  0  0  0  0  0  0  0  0  0  0
   -7.3169   23.9341  -30.5330 H   0  0  0  0  0  0  0  0  0  0  0  0
   -9.6255   22.7256  -30.9021 H   0  0  0  0  0  0  0  0  0  0  0  0
   -9.4634   23.6092  -32.4576 H   0  0  0  0  0  0  0  0  0  0  0  0
   -9.8201   21.8486  -32.4576 H   0  0  0  0  0  0  0  0  0  0  0  0
   -7.9820   20.6585  -33.3341 H   0  0  0  0  0  0  0  0  0  0  0  0
  1  2  1  0
  2  3  1  0
  3  4  1  0
  4  5  1  0
  5  6  2  0
  6  7  1  0
  7  8  2  0
  8  9  1  0
  9 10  2  0
  9 11  2  0
  9 12  1  0
 12 13  1  0
 13 14  1  0
 14 15  1  0
 15 16  1  0
 16 17  2  0
 17 18  1  0
 18 19  2  0
 19 20  1  0
 20 21  2  0
 15 22  1  0
 22 23  1  0
  8 24  1  0
 24 25  2  0
 25 26  1  0
 25 27  1  0
 27 28  2  0
 28  4  1  0
 28  7  1  0
 23 12  1  0
 21 16  1  0
  1 29  1  0
  1 30  1  0
  1 31  1  0
  2 32  1  0
  2 33  1  0
  3 34  1  0
  3 35  1  0
  5 36  1  0
 12 37  1  0
 13 38  1  0
 13 39  1  0
 14 40  1  0
 14 41  1  0
 17 42  1  0
 18 43  1  0
 19 44  1  0
 20 45  1  0
 22 46  1  0
 22 47  1  0
 23 48  1  0
 23 49  1  0
 24 50  1  0
 26 51  1  0
 26 52  1  0
 26 53  1  0
 27 54  1  0
M  CHG  1  12   1
M  END
>  <UniqueID>  (47) 
46

>  <SMILES>  (47) 
CCCn1cnc2c(S(=O)(=O)[NH+]3CCN(c4ccccn4)CC3)cc(C)cc21

>  <Energy>  (47) 
96.09027408992827

>  <Genealogy>  (47) 
CCCn1cnc2c(S(=O)(=O)[NH+]3CCN(c4ccccn4)CC3)cc(C)cc21 (protonated)
CCCn1cnc2c(S(=O)(=O)[NH+]3CCN(c4ccccn4)CC3)cc(C)cc21 (3D coordinates assigned)
CCCn1cnc2c(S(=O)(=O)[NH+]3CCN(c4ccccn4)CC3)cc(C)cc21 (nonaromatic ring conformer: 96.09027408992827 kcal/mol)

>  <smiles>  (47) 
CCCn1cnc2c(S(=O)(=O)N3CCN(c4ccccn4)CC3)cc(C)cc21

>  <score_type>  (47) 
oracle

>  <origin>  (47) 
adgpu

>  <m_score__min__energy>  (47) 
-8.4499999999999993

>  <m_primary>  (47) 
energy

$$$$
47:0
     RDKit          3D

 45 48  0  0  0  0  0  0  0  0999 V2000
   -4.8180   17.6630  -34.7640 C   0  0  0  0  0  0  0  0  0  0  0  0
   -4.7180   18.9770  -34.0670 C   0  0  0  0  0  0  0  0  0  0  0  0
   -3.5600   19.6270  -33.8430 N   0  0  0  0  0  0  0  0  0  0  0  0
   -3.8770   20.7270  -33.1770 N   0  0  0  0  0  0  0  0  0  0  0  0
   -5.2160   20.7030  -33.0180 C   0  0  0  0  0  0  0  0  0  0  0  0
   -5.9950   21.7270  -32.2980 C   0  0  0  0  0  0  0  0  0  0  0  0
   -7.3980   21.7350  -32.3520 C   0  0  0  0  0  0  0  0  0  0  0  0
   -8.1200   22.7620  -31.7350 C   0  0  0  0  0  0  0  0  0  0  0  0
   -7.4480   23.7950  -31.0770 C   0  0  0  0  0  0  0  0  0  0  0  0
   -6.0490   23.7900  -31.0030 C   0  0  0  0  0  0  0  0  0  0  0  0
   -5.2010   25.1540  -30.2720 S   0  0  0  0  0  0  0  0  0  0  0  0
   -5.6070   26.4180  -30.9750 O   0  0  0  0  0  0  0  0  0  0  0  0
   -5.5550   25.2840  -28.8170 O   0  0  0  0  0  0  0  0  0  0  0  0
   -3.4910   24.9250  -30.4560 N   0  0  0  0  0  0  0  0  0  0  0  0
   -2.6830   24.1710  -29.5420 C   0  0  0  0  0  0  0  0  0  0  0  0
   -3.0060   22.8470  -29.2040 C   0  0  0  0  0  0  0  0  0  0  0  0
   -2.1470   22.0900  -28.3980 C   0  0  0  0  0  0  0  0  0  0  0  0
   -0.9840   22.6740  -27.8780 C   0  0  0  0  0  0  0  0  0  0  0  0
   -0.6950   24.0180  -28.1500 C   0  0  0  0  0  0  0  0  0  0  0  0
   -1.5380   24.7640  -28.9880 C   0  0  0  0  0  0  0  0  0  0  0  0
   -1.2350   26.0920  -29.2850 O   0  0  0  0  0  0  0  0  0  0  0  0
   -0.1070   21.8450  -26.9790 C   0  0  0  0  0  0  0  0  0  0  0  0
    0.0830   20.4230  -27.5420 C   0  0  0  0  0  0  0  0  0  0  0  0
   -1.1850   19.7980  -28.1850 C   0  0  0  0  0  0  0  0  0  0  0  0
   -2.4510   20.6590  -28.0540 C   0  0  0  0  0  0  0  0  0  0  0  0
   -5.3290   22.7430  -31.5950 C   0  0  0  0  0  0  0  0  0  0  0  0
   -5.7370   19.6280  -33.5640 O   0  0  0  0  0  0  0  0  0  0  0  0
   -4.8794   16.8563  -34.0187 H   0  0  0  0  0  0  0  0  0  0  0  0
   -5.7198   17.6497  -35.3938 H   0  0  0  0  0  0  0  0  0  0  0  0
   -3.9286   17.5134  -35.3938 H   0  0  0  0  0  0  0  0  0  0  0  0
   -7.9310   20.9313  -32.8811 H   0  0  0  0  0  0  0  0  0  0  0  0
   -9.2195   22.7562  -31.7680 H   0  0  0  0  0  0  0  0  0  0  0  0
   -8.0188   24.6144  -30.6158 H   0  0  0  0  0  0  0  0  0  0  0  0
   -3.9407   22.4012  -29.5751 H   0  0  0  0  0  0  0  0  0  0  0  0
    0.1943   24.4891  -27.7058 H   0  0  0  0  0  0  0  0  0  0  0  0
   -1.2510   26.4390  -30.2380 H   0  0  0  0  0  0  0  0  0  0  0  0
    0.8763   22.3301  -26.8904 H   0  0  0  0  0  0  0  0  0  0  0  0
   -0.5917   21.7678  -25.9946 H   0  0  0  0  0  0  0  0  0  0  0  0
    0.8709   20.4618  -28.3087 H   0  0  0  0  0  0  0  0  0  0  0  0
    0.3401   19.7841  -26.6843 H   0  0  0  0  0  0  0  0  0  0  0  0
   -0.9858   19.6390  -29.2551 H   0  0  0  0  0  0  0  0  0  0  0  0
   -1.3837   18.8616  -27.6431 H   0  0  0  0  0  0  0  0  0  0  0  0
   -3.2220   20.2771  -28.7393 H   0  0  0  0  0  0  0  0  0  0  0  0
   -2.8113   20.6095  -27.0159 H   0  0  0  0  0  0  0  0  0  0  0  0
   -4.2328   22.7175  -31.5078 H   0  0  0  0  0  0  0  0  0  0  0  0
  1  2  1  0
  2  3  2  0
  3  4  1  0
  4  5  2  0
  5  6  1  0
  6  7  2  0
  7  8  1  0
  8  9  2  0
  9 10  1  0
 10 11  1  0
 11 12  2  0
 11 13  2  0
 11 14  1  0
 14 15  1  0
 15 16  2  0
 16 17  1  0
 17 18  2  0
 18 19  1  0
 19 20  2  0
 20 21  1  0
 18 22  1  0
 22 23  1  0
 23 24  1  0
 24 25  1  0
 10 26  2  0
  5 27  1  0
 27  2  1  0
 26  6  1  0
 20 15  1  0
 25 17  1  0
  1 28  1  0
  1 29  1  0
  1 30  1  0
  7 31  1  0
  8 32  1  0
  9 33  1  0
 16 34  1  0
 19 35  1  0
 21 36  1  0
 22 37  1  0
 22 38  1  0
 23 39  1  0
 23 40  1  0
 24 41  1  0
 24 42  1  0
 25 43  1  0
 25 44  1  0
 26 45  1  0
M  CHG  1  14  -1
M  END
>  <UniqueID>  (48) 
47

>  <SMILES>  (48) 
Cc1nnc(-c2cccc(S(=O)(=O)[N-]c3cc4c(cc3O)CCCC4)c2)o1

>  <Energy>  (48) 
88.51970676205197

>  <Genealogy>  (48) 
Cc1nnc(-c2cccc(S(=O)(=O)[N-]c3cc4c(cc3O)CCCC4)c2)o1 (protonated)
Cc1nnc(-c2cccc(S(=O)(=O)[N-]c3cc4c(cc3O)CCCC4)c2)o1 (3D coordinates assigned)
Cc1nnc(-c2cccc(S(=O)(=O)[N-]c3cc4c(cc3O)CCCC4)c2)o1 (nonaromatic ring conformer: 88.51970676205197 kcal/mol)

>  <smiles>  (48) 
Cc1nnc(-c2cccc(S(=O)(=O)Nc3cc4c(cc3O)CCCC4)c2)o1

>  <score_type>  (48) 
oracle

>  <origin>  (48) 
adgpu

>  <m_score__min__energy>  (48) 
-11.949999999999999

>  <m_primary>  (48) 
energy

$$$$
