0:0
     RDKit          3D

 57 60  0  0  0  0  0  0  0  0999 V2000
   -7.9720   18.4790  -31.9620 C   0  0  0  0  0  0  0  0  0  0  0  0
   -7.5580   19.8540  -33.0790 S   0  0  0  0  0  0  0  0  0  0  0  0
   -6.0260   19.0980  -33.6380 C   0  0  0  0  0  0  0  0  0  0  0  0
   -6.1110   17.9280  -34.3270 N   0  0  0  0  0  0  0  0  0  0  0  0
   -5.0100   17.2730  -34.7780 C   0  0  0  0  0  0  0  0  0  0  0  0
   -3.7430   17.7960  -34.5350 C   0  0  0  0  0  0  0  0  0  0  0  0
   -3.6180   18.9870  -33.8190 C   0  0  0  0  0  0  0  0  0  0  0  0
   -4.7590   19.6580  -33.3540 C   0  0  0  0  0  0  0  0  0  0  0  0
   -4.5970   20.9200  -32.5970 C   0  0  0  0  0  0  0  0  0  0  0  0
   -3.8490   21.8230  -33.0480 O   0  0  0  0  0  0  0  0  0  0  0  0
   -5.2480   21.0970  -31.3280 N   0  0  0  0  0  0  0  0  0  0  0  0
   -5.0190   22.2330  -30.4800 C   0  0  0  0  0  0  0  0  0  0  0  0
   -3.7310   22.5010  -29.9880 C   0  0  0  0  0  0  0  0  0  0  0  0
   -3.4790   23.6560  -29.2310 C   0  0  0  0  0  0  0  0  0  0  0  0
   -1.8290   24.0080  -28.6880 S   0  0  0  0  0  0  0  0  0  0  0  0
   -0.9190   22.9050  -29.1600 O   0  0  0  0  0  0  0  0  0  0  0  0
   -1.3770   25.2930  -29.3300 O   0  0  0  0  0  0  0  0  0  0  0  0
   -1.6540   24.1220  -26.9480 N   0  0  0  0  0  0  0  0  0  0  0  0
   -0.2540   24.2200  -26.5060 C   0  0  0  0  0  0  0  0  0  0  0  0
   -0.1550   25.3840  -25.5240 C   0  0  0  0  0  0  0  0  0  0  0  0
   -1.5880   25.7140  -25.1670 C   0  0  0  0  0  0  0  0  0  0  0  0
   -2.3840   25.2580  -26.3750 C   0  0  0  0  0  0  0  0  0  0  0  0
   -4.5270   24.5520  -28.9760 C   0  0  0  0  0  0  0  0  0  0  0  0
   -5.8110   24.2920  -29.4590 C   0  0  0  0  0  0  0  0  0  0  0  0
   -6.0660   23.1380  -30.2130 C   0  0  0  0  0  0  0  0  0  0  0  0
   -7.3870   22.9010  -30.7230 N   0  0  0  0  0  0  0  0  0  0  0  0
   -8.2040   21.8490  -30.0950 C   0  0  0  0  0  0  0  0  0  0  0  0
   -9.5100   21.5450  -30.8610 C   0  0  0  0  0  0  0  0  0  0  0  0
   -9.4250   21.8980  -32.2280 O   0  0  0  0  0  0  0  0  0  0  0  0
   -9.2270   23.2930  -32.3290 C   0  0  0  0  0  0  0  0  0  0  0  0
   -7.7990   23.6400  -31.9220 C   0  0  0  0  0  0  0  0  0  0  0  0
   -7.8719   18.8116  -30.9183 H   0  0  0  0  0  0  0  0  0  0  0  0
   -9.0072   18.1560  -32.1462 H   0  0  0  0  0  0  0  0  0  0  0  0
   -7.2872   17.6381  -32.1462 H   0  0  0  0  0  0  0  0  0  0  0  0
   -5.1193   16.3305  -35.3345 H   0  0  0  0  0  0  0  0  0  0  0  0
   -2.8477   17.2746  -34.9045 H   0  0  0  0  0  0  0  0  0  0  0  0
   -2.6194   19.4021  -33.6180 H   0  0  0  0  0  0  0  0  0  0  0  0
   -5.8410   20.3200  -30.9520 H   0  0  0  0  0  0  0  0  0  0  0  0
   -2.9111   21.7984  -30.1981 H   0  0  0  0  0  0  0  0  0  0  0  0
    0.0482   23.2856  -26.0104 H   0  0  0  0  0  0  0  0  0  0  0  0
    0.4099   24.3864  -27.3671 H   0  0  0  0  0  0  0  0  0  0  0  0
    0.4089   25.0872  -24.6274 H   0  0  0  0  0  0  0  0  0  0  0  0
    0.3738   26.2466  -25.9557 H   0  0  0  0  0  0  0  0  0  0  0  0
   -1.9011   25.1688  -24.2644 H   0  0  0  0  0  0  0  0  0  0  0  0
   -1.7327   26.7814  -24.9442 H   0  0  0  0  0  0  0  0  0  0  0  0
   -3.3937   24.9462  -26.0695 H   0  0  0  0  0  0  0  0  0  0  0  0
   -2.4961   26.0703  -27.1082 H   0  0  0  0  0  0  0  0  0  0  0  0
   -4.3365   25.4647  -28.3923 H   0  0  0  0  0  0  0  0  0  0  0  0
   -6.6279   24.9973  -29.2465 H   0  0  0  0  0  0  0  0  0  0  0  0
   -7.6064   20.9268  -30.0456 H   0  0  0  0  0  0  0  0  0  0  0  0
   -8.4908   22.2137  -29.0976 H   0  0  0  0  0  0  0  0  0  0  0  0
   -9.7215   20.4681  -30.7862 H   0  0  0  0  0  0  0  0  0  0  0  0
  -10.3133   22.1445  -30.4079 H   0  0  0  0  0  0  0  0  0  0  0  0
   -9.3992   23.6126  -33.3674 H   0  0  0  0  0  0  0  0  0  0  0  0
   -9.9320   23.8103  -31.6617 H   0  0  0  0  0  0  0  0  0  0  0  0
   -7.1199   23.3862  -32.7493 H   0  0  0  0  0  0  0  0  0  0  0  0
   -7.7562   24.7157  -31.6962 H   0  0  0  0  0  0  0  0  0  0  0  0
  1  2  1  0
  2  3  1  0
  3  4  2  0
  4  5  1  0
  5  6  2  0
  6  7  1  0
  7  8  2  0
  8  9  1  0
  9 10  2  0
  9 11  1  0
 11 12  1  0
 12 13  2  0
 13 14  1  0
 14 15  1  0
 15 16  2  0
 15 17  2  0
 15 18  1  0
 18 19  1  0
 19 20  1  0
 20 21  1  0
 21 22  1  0
 14 23  2  0
 23 24  1  0
 24 25  2  0
 25 26  1  0
 26 27  1  0
 27 28  1  0
 28 29  1  0
 29 30  1  0
 30 31  1  0
  8  3  1  0
 25 12  1  0
 31 26  1  0
 22 18  1  0
  1 32  1  0
  1 33  1  0
  1 34  1  0
  5 35  1  0
  6 36  1  0
  7 37  1  0
 11 38  1  0
 13 39  1  0
 19 40  1  0
 19 41  1  0
 20 42  1  0
 20 43  1  0
 21 44  1  0
 21 45  1  0
 22 46  1  0
 22 47  1  0
 23 48  1  0
 24 49  1  0
 27 50  1  0
 27 51  1  0
 28 52  1  0
 28 53  1  0
 30 54  1  0
 30 55  1  0
 31 56  1  0
 31 57  1  0
M  END
>  <UniqueID>  (1) 
1

>  <SMILES>  (1) 
CSc1ncccc1C(=O)Nc1cc(S(=O)(=O)N2CCCC2)ccc1N1CCOCC1

>  <Energy>  (1) 
76.95226381690651

>  <Genealogy>  (1) 
CSc1ncccc1C(=O)Nc1cc(S(=O)(=O)N2CCCC2)ccc1N1CCOCC1 (3D coordinates assigned)
CSc1ncccc1C(=O)Nc1cc(S(=O)(=O)N2CCCC2)ccc1N1CCOCC1 (nonaromatic ring conformer: 76.95226381690651 kcal/mol)

>  <smiles>  (1) 
CSc1ncccc1C(=O)Nc1cc(S(=O)(=O)N2CCCC2)ccc1N1CCOCC1

>  <score_type>  (1) 
oracle

>  <origin>  (1) 
adgpu

>  <m_score__min__energy>  (1) 
-9.1300000000000008

>  <m_primary>  (1) 
energy

$$$$
1:0
     RDKit          3D

 51 54  0  0  0  0  0  0  0  0999 V2000
   -0.7410   22.7140  -25.4540 H   0  0  0  0  0  0  0  0  0  0  0  0
   -1.1730   22.8890  -26.3900 N   0  0  0  0  0  0  0  0  0  0  0  0
   -1.2210   21.9820  -27.3200 C   0  0  0  0  0  0  0  0  0  0  0  0
   -0.6770   20.7090  -27.0870 C   0  0  0  0  0  0  0  0  0  0  0  0
   -0.2095   20.4779  -26.1185 H   0  0  0  0  0  0  0  0  0  0  0  0
   -0.7310   19.7350  -28.0900 C   0  0  0  0  0  0  0  0  0  0  0  0
   -0.1450   18.3780  -27.8570 C   0  0  0  0  0  0  0  0  0  0  0  0
   -0.0654   18.1937  -26.7755 H   0  0  0  0  0  0  0  0  0  0  0  0
   -0.7939   17.6153  -28.3121 H   0  0  0  0  0  0  0  0  0  0  0  0
    0.8552   18.3274  -28.3121 H   0  0  0  0  0  0  0  0  0  0  0  0
   -1.3060   20.0260  -29.2870 N   0  0  0  0  0  0  0  0  0  0  0  0
   -1.8430   21.2450  -29.5510 C   0  0  0  0  0  0  0  0  0  0  0  0
   -2.4340   21.4870  -30.7950 C   0  0  0  0  0  0  0  0  0  0  0  0
   -2.4610   20.6902  -31.5529 H   0  0  0  0  0  0  0  0  0  0  0  0
   -2.9900   22.7360  -31.0790 C   0  0  0  0  0  0  0  0  0  0  0  0
   -3.4626   22.9131  -32.0564 H   0  0  0  0  0  0  0  0  0  0  0  0
   -2.9510   23.7640  -30.1310 C   0  0  0  0  0  0  0  0  0  0  0  0
   -3.5540   25.0230  -30.4620 N   0  0  0  0  0  0  0  0  0  0  0  0
   -4.9590   25.2930  -30.5800 C   0  0  0  0  0  0  0  0  0  0  0  0
   -5.3880   26.4730  -30.4650 O   0  0  0  0  0  0  0  0  0  0  0  0
   -5.9010   24.1920  -30.8910 C   0  0  0  0  0  0  0  0  0  0  0  0
   -6.3580   23.3300  -29.8760 C   0  0  0  0  0  0  0  0  0  0  0  0
   -6.0126   23.4733  -28.8415 H   0  0  0  0  0  0  0  0  0  0  0  0
   -7.2470   22.2940  -30.1730 C   0  0  0  0  0  0  0  0  0  0  0  0
   -7.5939   21.6246  -29.3721 H   0  0  0  0  0  0  0  0  0  0  0  0
   -7.6990   22.1030  -31.4850 C   0  0  0  0  0  0  0  0  0  0  0  0
   -8.8000   20.7760  -31.8490 S   0  0  0  0  0  0  0  0  0  0  0  0
  -10.1010   21.3240  -32.3640 O   0  0  0  0  0  0  0  0  0  0  0  0
   -9.0770   20.0300  -30.5730 O   0  0  0  0  0  0  0  0  0  0  0  0
   -8.0800   19.6820  -33.0150 N   0  0  0  0  0  0  0  0  0  0  0  0
   -8.7150   19.6930  -33.8480 H   0  0  0  0  0  0  0  0  0  0  0  0
   -6.7440   20.1570  -33.4540 C   0  0  0  0  0  0  0  0  0  0  0  0
   -6.6360   19.9583  -34.5305 H   0  0  0  0  0  0  0  0  0  0  0  0
   -6.6837   21.2325  -33.2312 H   0  0  0  0  0  0  0  0  0  0  0  0
   -5.5910   19.4610  -32.7060 C   0  0  0  0  0  0  0  0  0  0  0  0
   -5.3140   18.5418  -33.2429 H   0  0  0  0  0  0  0  0  0  0  0  0
   -4.7322   20.1467  -32.6595 H   0  0  0  0  0  0  0  0  0  0  0  0
   -5.9820   19.1310  -31.3930 O   0  0  0  0  0  0  0  0  0  0  0  0
   -6.9610   18.1060  -31.4130 C   0  0  0  0  0  0  0  0  0  0  0  0
   -6.4546   17.1446  -31.5838 H   0  0  0  0  0  0  0  0  0  0  0  0
   -7.4817   18.1381  -30.4446 H   0  0  0  0  0  0  0  0  0  0  0  0
   -8.0340   18.2960  -32.5120 C   0  0  0  0  0  0  0  0  0  0  0  0
   -7.8044   17.6225  -33.3509 H   0  0  0  0  0  0  0  0  0  0  0  0
   -9.0142   18.0658  -32.0691 H   0  0  0  0  0  0  0  0  0  0  0  0
   -7.2450   22.9530  -32.5020 C   0  0  0  0  0  0  0  0  0  0  0  0
   -7.5899   22.8034  -33.5358 H   0  0  0  0  0  0  0  0  0  0  0  0
   -6.3550   23.9910  -32.2080 C   0  0  0  0  0  0  0  0  0  0  0  0
   -6.0070   24.6556  -33.0125 H   0  0  0  0  0  0  0  0  0  0  0  0
   -2.3810   23.5200  -28.8680 C   0  0  0  0  0  0  0  0  0  0  0  0
   -2.3770   24.3153  -28.1081 H   0  0  0  0  0  0  0  0  0  0  0  0
   -1.8150   22.2640  -28.5690 C   0  0  0  0  0  0  0  0  0  0  0  0
  1  2  1  0
  2  3  2  0
  3  4  1  0
  4  5  1  0
  4  6  2  0
  6  7  1  0
  7  8  1  0
  7  9  1  0
  7 10  1  0
  6 11  1  0
 11 12  1  0
 12 13  2  0
 13 14  1  0
 13 15  1  0
 15 16  1  0
 15 17  2  0
 17 18  1  0
 18 19  1  0
 19 20  2  0
 19 21  1  0
 21 22  2  0
 22 23  1  0
 22 24  1  0
 24 25  1  0
 24 26  2  0
 26 27  1  0
 27 28  2  0
 27 29  2  0
 27 30  1  0
 30 31  1  0
 30 32  1  0
 32 33  1  0
 32 34  1  0
 32 35  1  0
 35 36  1  0
 35 37  1  0
 35 38  1  0
 38 39  1  0
 39 40  1  0
 39 41  1  0
 39 42  1  0
 42 43  1  0
 42 44  1  0
 26 45  1  0
 45 46  1  0
 45 47  2  0
 47 48  1  0
 17 49  1  0
 49 50  1  0
 49 51  2  0
 51  3  1  0
 51 12  1  0
 47 21  1  0
 42 30  1  0
M  CHG  3  11  -1  18  -1  30   1
M  END
>  <UniqueID>  (2) 
2

>  <SMILES>  (2) 
[H]/N=c1\cc(C)[n-]c2ccc([N-]C(=O)c3ccc(S(=O)(=O)[NH+]4CCOCC4)cc3)cc12

>  <Energy>  (2) 
73.33695154656517

>  <Genealogy>  (2) 
Cc1cc(=N)c2cc([N-]C(=O)c3ccc(S(=O)(=O)[NH+]4CCOCC4)cc3)ccc2[n-]1 (protonated)
[H]/N=c1\cc(C)[n-]c2ccc([N-]C(=O)c3ccc(S(=O)(=O)[NH+]4CCOCC4)cc3)cc12 (cis-trans isomerization)
[H]/N=c1\cc(C)[n-]c2ccc([N-]C(=O)c3ccc(S(=O)(=O)[NH+]4CCOCC4)cc3)cc12 (3D coordinates assigned)
[H]/N=c1\cc(C)[n-]c2ccc([N-]C(=O)c3ccc(S(=O)(=O)[NH+]4CCOCC4)cc3)cc12 (nonaromatic ring conformer: 73.33695154656517 kcal/mol)

>  <smiles>  (2) 
Cc1cc(=N)c2cc(NC(=O)c3ccc(S(=O)(=O)N4CCOCC4)cc3)ccc2[nH]1

>  <score_type>  (2) 
oracle

>  <origin>  (2) 
adgpu

>  <m_score__min__energy>  (2) 
-11.43

>  <m_primary>  (2) 
energy

$$$$
2:0
     RDKit          3D

 41 43  0  0  0  0  0  0  0  0999 V2000
   -9.4130   19.0020  -32.7200 N   0  0  0  0  0  0  0  0  0  0  0  0
   -8.0010   19.0900  -32.3490 C   0  0  0  0  0  0  0  0  0  0  0  0
   -7.2200   20.0480  -33.2800 C   0  0  2  0  0  0  0  0  0  0  0  0
   -6.1200   19.3200  -34.0880 C   0  0  0  0  0  0  0  0  0  0  0  0
   -4.7790   19.2640  -33.3520 C   0  0  0  0  0  0  0  0  0  0  0  0
   -4.2770   20.6710  -33.0400 C   0  0  0  0  0  0  0  0  0  0  0  0
   -5.3220   21.5120  -32.3520 C   0  0  0  0  0  0  0  0  0  0  0  0
   -4.9040   22.6350  -31.6200 C   0  0  0  0  0  0  0  0  0  0  0  0
   -5.8390   23.4990  -31.0410 C   0  0  0  0  0  0  0  0  0  0  0  0
   -5.2910   24.8740  -30.0870 S   0  0  0  0  0  0  0  0  0  0  0  0
   -6.4220   25.8330  -29.8380 O   0  0  0  0  0  0  0  0  0  0  0  0
   -4.2040   25.5840  -30.8420 O   0  0  0  0  0  0  0  0  0  0  0  0
   -4.6680   24.3260  -28.5630 N   0  0  0  0  0  0  0  0  0  0  0  0
   -3.3050   24.5130  -28.1400 C   0  0  0  0  0  0  0  0  0  0  0  0
   -2.9690   24.8310  -26.8130 C   0  0  0  0  0  0  0  0  0  0  0  0
   -1.6310   24.9910  -26.4480 C   0  0  0  0  0  0  0  0  0  0  0  0
   -0.6360   24.8400  -27.4150 C   0  0  0  0  0  0  0  0  0  0  0  0
   -0.9730   24.5410  -28.6970 N   0  0  0  0  0  0  0  0  0  0  0  0
   -2.2680   24.3790  -29.0770 C   0  0  0  0  0  0  0  0  0  0  0  0
   -7.2040   23.2660  -31.2270 C   0  0  0  0  0  0  0  0  0  0  0  0
   -7.6340   22.1640  -31.9670 C   0  0  0  0  0  0  0  0  0  0  0  0
   -6.7060   21.2670  -32.5270 C   0  0  0  0  0  0  0  0  0  0  0  0
   -9.4790   19.0510  -33.7630 H   0  0  0  0  0  0  0  0  0  0  0  0
   -9.8960   19.8590  -32.3650 H   0  0  0  0  0  0  0  0  0  0  0  0
   -7.9269   19.4592  -31.3154 H   0  0  0  0  0  0  0  0  0  0  0  0
   -7.5598   18.0868  -32.4435 H   0  0  0  0  0  0  0  0  0  0  0  0
   -7.9308   20.4255  -34.0299 H   0  0  0  0  0  0  0  0  0  0  0  0
   -6.4540   18.2911  -34.2877 H   0  0  0  0  0  0  0  0  0  0  0  0
   -5.9631   19.8871  -35.0174 H   0  0  0  0  0  0  0  0  0  0  0  0
   -4.9063   18.7089  -32.4109 H   0  0  0  0  0  0  0  0  0  0  0  0
   -4.0428   18.7599  -33.9953 H   0  0  0  0  0  0  0  0  0  0  0  0
   -3.3965   20.5953  -32.3851 H   0  0  0  0  0  0  0  0  0  0  0  0
   -4.0274   21.1584  -33.9940 H   0  0  0  0  0  0  0  0  0  0  0  0
   -3.8294   22.8374  -31.5007 H   0  0  0  0  0  0  0  0  0  0  0  0
   -5.3550   23.9130  -27.8920 H   0  0  0  0  0  0  0  0  0  0  0  0
   -3.7618   24.9541  -26.0604 H   0  0  0  0  0  0  0  0  0  0  0  0
   -1.3637   25.2336  -25.4089 H   0  0  0  0  0  0  0  0  0  0  0  0
    0.4217   24.9631  -27.1392 H   0  0  0  0  0  0  0  0  0  0  0  0
   -2.5049   24.1416  -30.1246 H   0  0  0  0  0  0  0  0  0  0  0  0
   -7.9422   23.9537  -30.7886 H   0  0  0  0  0  0  0  0  0  0  0  0
   -8.7109   21.9946  -32.1142 H   0  0  0  0  0  0  0  0  0  0  0  0
  1  2  1  0
  2  3  1  0
  3  4  1  0
  4  5  1  0
  5  6  1  0
  6  7  1  0
  7  8  2  0
  8  9  1  0
  9 10  1  0
 10 11  2  0
 10 12  2  0
 10 13  1  0
 13 14  1  0
 14 15  2  0
 15 16  1  0
 16 17  2  0
 17 18  1  0
 18 19  2  0
  9 20  2  0
 20 21  1  0
 21 22  2  0
 22  3  1  0
 22  7  1  0
 19 14  1  0
  1 23  1  0
  1 24  1  0
  2 25  1  0
  2 26  1  0
  3 27  1  6
  4 28  1  0
  4 29  1  0
  5 30  1  0
  5 31  1  0
  6 32  1  0
  6 33  1  0
  8 34  1  0
 13 35  1  0
 15 36  1  0
 16 37  1  0
 17 38  1  0
 19 39  1  0
 20 40  1  0
 21 41  1  0
M  END
>  <UniqueID>  (3) 
3

>  <SMILES>  (3) 
NC[C@@H]1CCCc2cc(S(=O)(=O)Nc3cccnc3)ccc21

>  <Energy>  (3) 
46.10501711978898

>  <Genealogy>  (3) 
NC[C@@H]1CCCc2cc(S(=O)(=O)Nc3cccnc3)ccc21 (chirality)
NC[C@@H]1CCCc2cc(S(=O)(=O)Nc3cccnc3)ccc21 (3D coordinates assigned)
NC[C@@H]1CCCc2cc(S(=O)(=O)Nc3cccnc3)ccc21 (nonaromatic ring conformer: 46.10501711978898 kcal/mol)

>  <smiles>  (3) 
NCC1CCCc2cc(S(=O)(=O)Nc3cccnc3)ccc21

>  <score_type>  (3) 
oracle

>  <origin>  (3) 
adgpu

>  <m_score__min__energy>  (3) 
-9.6099999999999994

>  <m_primary>  (3) 
energy

$$$$
3:0
     RDKit          3D

 46 49  0  0  0  0  0  0  0  0999 V2000
   -2.4470   24.5120  -28.6340 O   0  0  0  0  0  0  0  0  0  0  0  0
   -2.5660   23.6910  -29.5800 C   0  0  0  0  0  0  0  0  0  0  0  0
   -1.7630   22.5150  -29.7130 N   0  0  0  0  0  0  0  0  0  0  0  0
   -2.2530   21.9190  -30.9180 C   0  0  0  0  0  0  0  0  0  0  0  0
   -1.7800   20.7450  -31.4990 C   0  0  0  0  0  0  0  0  0  0  0  0
   -2.3600   20.3110  -32.7090 C   0  0  0  0  0  0  0  0  0  0  0  0
   -1.7280   18.8970  -33.5480 S   0  0  0  0  0  0  0  0  0  0  0  0
   -0.9610   19.2990  -34.7770 O   0  0  0  0  0  0  0  0  0  0  0  0
   -0.8090   18.1500  -32.6230 O   0  0  0  0  0  0  0  0  0  0  0  0
   -3.0520   17.8720  -34.0020 N   0  0  0  0  0  0  0  0  0  0  0  0
   -4.3970   18.1960  -33.6240 C   0  0  0  0  0  0  0  0  0  0  0  0
   -4.8630   17.8540  -32.3470 C   0  0  0  0  0  0  0  0  0  0  0  0
   -6.1260   18.2750  -31.9220 C   0  0  0  0  0  0  0  0  0  0  0  0
   -6.9410   19.0330  -32.7730 C   0  0  0  0  0  0  0  0  0  0  0  0
   -8.4720   19.6890  -32.1910 S   0  0  0  0  0  0  0  0  0  0  0  0
   -8.7820   19.1040  -30.8410 O   0  0  0  0  0  0  0  0  0  0  0  0
   -9.5730   19.2940  -33.1360 O   0  0  0  0  0  0  0  0  0  0  0  0
   -8.4060   21.4330  -32.0650 N   0  0  0  0  0  0  0  0  0  0  0  0
   -8.8210   21.8980  -30.7220 C   0  0  0  0  0  0  0  0  0  0  0  0
   -7.6210   22.3580  -29.8750 C   0  0  0  0  0  0  0  0  0  0  0  0
   -6.8970   23.4210  -30.4760 O   0  0  0  0  0  0  0  0  0  0  0  0
   -6.8270   23.3380  -31.8960 C   0  0  0  0  0  0  0  0  0  0  0  0
   -7.0730   21.9300  -32.4610 C   0  0  0  0  0  0  0  0  0  0  0  0
   -6.5040   19.3160  -34.0740 C   0  0  0  0  0  0  0  0  0  0  0  0
   -5.2420   18.8990  -34.4980 C   0  0  0  0  0  0  0  0  0  0  0  0
   -3.3980   21.0650  -33.3060 C   0  0  0  0  0  0  0  0  0  0  0  0
   -3.8660   22.2430  -32.7000 C   0  0  0  0  0  0  0  0  0  0  0  0
   -3.2730   22.6430  -31.5060 C   0  0  0  0  0  0  0  0  0  0  0  0
   -3.5170   23.8000  -30.6730 C   0  0  0  0  0  0  0  0  0  0  0  0
   -4.3680   24.7100  -30.8570 O   0  0  0  0  0  0  0  0  0  0  0  0
   -0.9719   20.1690  -31.0246 H   0  0  0  0  0  0  0  0  0  0  0  0
   -2.8260   16.8930  -34.2850 H   0  0  0  0  0  0  0  0  0  0  0  0
   -4.2320   17.2518  -31.6767 H   0  0  0  0  0  0  0  0  0  0  0  0
   -6.4817   18.0102  -30.9153 H   0  0  0  0  0  0  0  0  0  0  0  0
   -9.5180   22.7411  -30.8377 H   0  0  0  0  0  0  0  0  0  0  0  0
   -9.2997   21.0544  -30.2032 H   0  0  0  0  0  0  0  0  0  0  0  0
   -7.9911   22.6949  -28.8954 H   0  0  0  0  0  0  0  0  0  0  0  0
   -6.9355   21.5028  -29.7810 H   0  0  0  0  0  0  0  0  0  0  0  0
   -7.5837   24.0155  -32.3182 H   0  0  0  0  0  0  0  0  0  0  0  0
   -5.8002   23.6148  -32.1771 H   0  0  0  0  0  0  0  0  0  0  0  0
   -7.0128   21.9661  -33.5588 H   0  0  0  0  0  0  0  0  0  0  0  0
   -6.3084   21.2494  -32.0584 H   0  0  0  0  0  0  0  0  0  0  0  0
   -7.1586   19.8691  -34.7636 H   0  0  0  0  0  0  0  0  0  0  0  0
   -4.9072   19.1219  -35.5218 H   0  0  0  0  0  0  0  0  0  0  0  0
   -3.8426   20.7257  -34.2532 H   0  0  0  0  0  0  0  0  0  0  0  0
   -4.6764   22.8312  -33.1553 H   0  0  0  0  0  0  0  0  0  0  0  0
  1  2  2  0
  2  3  1  0
  3  4  1  0
  4  5  2  0
  5  6  1  0
  6  7  1  0
  7  8  2  0
  7  9  2  0
  7 10  1  0
 10 11  1  0
 11 12  2  0
 12 13  1  0
 13 14  2  0
 14 15  1  0
 15 16  2  0
 15 17  2  0
 15 18  1  0
 18 19  1  0
 19 20  1  0
 20 21  1  0
 21 22  1  0
 22 23  1  0
 14 24  1  0
 24 25  2  0
  6 26  2  0
 26 27  1  0
 27 28  2  0
 28 29  1  0
 29 30  2  0
 29  2  1  0
 28  4  1  0
 25 11  1  0
 23 18  1  0
  5 31  1  0
 10 32  1  0
 12 33  1  0
 13 34  1  0
 19 35  1  0
 19 36  1  0
 20 37  1  0
 20 38  1  0
 22 39  1  0
 22 40  1  0
 23 41  1  0
 23 42  1  0
 24 43  1  0
 25 44  1  0
 26 45  1  0
 27 46  1  0
M  CHG  1   3  -1
M  END
>  <UniqueID>  (4) 
4

>  <SMILES>  (4) 
O=C1[N-]c2cc(S(=O)(=O)Nc3ccc(S(=O)(=O)N4CCOCC4)cc3)ccc2C1=O

>  <Energy>  (4) 
91.81057901586595

>  <Genealogy>  (4) 
O=C1[N-]c2cc(S(=O)(=O)Nc3ccc(S(=O)(=O)N4CCOCC4)cc3)ccc2C1=O (protonated)
O=C1[N-]c2cc(S(=O)(=O)Nc3ccc(S(=O)(=O)N4CCOCC4)cc3)ccc2C1=O (3D coordinates assigned)
O=C1[N-]c2cc(S(=O)(=O)Nc3ccc(S(=O)(=O)N4CCOCC4)cc3)ccc2C1=O (nonaromatic ring conformer: 91.81057901586595 kcal/mol)

>  <smiles>  (4) 
O=C1Nc2cc(S(=O)(=O)Nc3ccc(S(=O)(=O)N4CCOCC4)cc3)ccc2C1=O

>  <score_type>  (4) 
oracle

>  <origin>  (4) 
adgpu

>  <m_score__min__energy>  (4) 
-11.07

>  <m_primary>  (4) 
energy

$$$$
4:0
     RDKit          3D

 67 71  0  0  0  0  0  0  0  0999 V2000
    1.2090   21.9610  -27.4690 C   0  0  0  0  0  0  0  0  0  0  0  0
    0.6230   22.9320  -26.5270 N   0  0  0  0  0  0  0  0  0  0  0  0
   -0.3530   22.3120  -25.6070 C   0  0  0  0  0  0  0  0  0  0  0  0
   -1.6100   21.7990  -26.3290 C   0  0  0  0  0  0  0  0  0  0  0  0
   -2.1060   22.7620  -27.3770 C   0  0  0  0  0  0  0  0  0  0  0  0
   -3.3760   22.5650  -27.9400 C   0  0  0  0  0  0  0  0  0  0  0  0
   -3.8530   23.4120  -28.9580 C   0  0  0  0  0  0  0  0  0  0  0  0
   -5.1410   23.2260  -29.5630 N   0  0  0  0  0  0  0  0  0  0  0  0
   -5.5330   23.3600  -31.2510 S   0  0  0  0  0  0  0  0  0  0  0  0
   -5.9140   24.7880  -31.5200 O   0  0  0  0  0  0  0  0  0  0  0  0
   -4.3610   23.0110  -32.1260 O   0  0  0  0  0  0  0  0  0  0  0  0
   -6.8960   22.3090  -31.6290 C   0  0  0  0  0  0  0  0  0  0  0  0
   -8.2020   22.8120  -31.5650 C   0  0  0  0  0  0  0  0  0  0  0  0
   -9.2840   21.9930  -31.8910 C   0  0  0  0  0  0  0  0  0  0  0  0
   -9.0720   20.6620  -32.2720 C   0  0  0  0  0  0  0  0  0  0  0  0
   -7.7710   20.1300  -32.3120 C   0  0  0  0  0  0  0  0  0  0  0  0
   -7.5550   18.6980  -32.6370 C   0  0  0  0  0  0  0  0  0  0  0  0
   -8.1480   17.8140  -31.9690 O   0  0  0  0  0  0  0  0  0  0  0  0
   -6.6350   18.3350  -33.6840 N   0  0  0  0  0  0  0  0  0  0  0  0
   -5.1960   18.3680  -33.6910 C   0  0  0  0  0  0  0  0  0  0  0  0
   -4.5270   17.6100  -34.6670 C   0  0  0  0  0  0  0  0  0  0  0  0
   -3.1380   17.6820  -34.8020 C   0  0  0  0  0  0  0  0  0  0  0  0
   -2.3820   18.5000  -33.9470 C   0  0  0  0  0  0  0  0  0  0  0  0
   -0.9160   18.6600  -34.1270 C   0  0  0  0  0  0  0  0  0  0  0  0
   -0.2230   17.6360  -34.3950 O   0  0  0  0  0  0  0  0  0  0  0  0
   -0.2550   19.9270  -33.9470 N   0  0  0  0  0  0  0  0  0  0  0  0
   -0.8310   21.1790  -34.4510 C   0  0  0  0  0  0  0  0  0  0  0  0
    0.2050   21.8640  -35.3480 C   0  0  0  0  0  0  0  0  0  0  0  0
    1.4170   22.0580  -34.6380 O   0  0  0  0  0  0  0  0  0  0  0  0
    2.0000   20.8040  -34.3240 C   0  0  0  0  0  0  0  0  0  0  0  0
    1.0960   19.9950  -33.3830 C   0  0  0  0  0  0  0  0  0  0  0  0
   -3.0480   19.2390  -32.9500 C   0  0  0  0  0  0  0  0  0  0  0  0
   -4.4400   19.1820  -32.8290 C   0  0  0  0  0  0  0  0  0  0  0  0
   -6.6840   20.9680  -31.9930 C   0  0  0  0  0  0  0  0  0  0  0  0
   -3.0310   24.4420  -29.4350 C   0  0  0  0  0  0  0  0  0  0  0  0
   -3.4940   25.2830  -30.4470 O   0  0  0  0  0  0  0  0  0  0  0  0
   -1.7590   24.6390  -28.8810 C   0  0  0  0  0  0  0  0  0  0  0  0
   -1.2880   23.8000  -27.8590 C   0  0  0  0  0  0  0  0  0  0  0  0
    0.0460   24.0990  -27.2190 C   0  0  0  0  0  0  0  0  0  0  0  0
    1.6971   21.1522  -26.9055 H   0  0  0  0  0  0  0  0  0  0  0  0
    0.4146   21.5391  -28.1022 H   0  0  0  0  0  0  0  0  0  0  0  0
    1.9525   22.4672  -28.1022 H   0  0  0  0  0  0  0  0  0  0  0  0
    0.1314   21.4646  -25.0998 H   0  0  0  0  0  0  0  0  0  0  0  0
   -0.6734   23.0856  -24.8937 H   0  0  0  0  0  0  0  0  0  0  0  0
   -1.3720   20.8410  -26.8144 H   0  0  0  0  0  0  0  0  0  0  0  0
   -2.4046   21.6844  -25.5770 H   0  0  0  0  0  0  0  0  0  0  0  0
   -4.0068   21.7383  -27.5813 H   0  0  0  0  0  0  0  0  0  0  0  0
   -8.3749   23.8539  -31.2574 H   0  0  0  0  0  0  0  0  0  0  0  0
  -10.3073   22.3944  -31.8486 H   0  0  0  0  0  0  0  0  0  0  0  0
   -9.9296   20.0282  -32.5419 H   0  0  0  0  0  0  0  0  0  0  0  0
   -5.1040   16.9517  -35.3331 H   0  0  0  0  0  0  0  0  0  0  0  0
   -2.6336   17.0941  -35.5830 H   0  0  0  0  0  0  0  0  0  0  0  0
   -1.7395   20.9621  -35.0321 H   0  0  0  0  0  0  0  0  0  0  0  0
   -1.0960   21.8373  -33.6105 H   0  0  0  0  0  0  0  0  0  0  0  0
    0.3969   21.2331  -36.2284 H   0  0  0  0  0  0  0  0  0  0  0  0
   -0.1857   22.8424  -35.6644 H   0  0  0  0  0  0  0  0  0  0  0  0
    2.1517   20.2354  -35.2534 H   0  0  0  0  0  0  0  0  0  0  0  0
    2.9607   20.9818  -33.8187 H   0  0  0  0  0  0  0  0  0  0  0  0
    1.4990   18.9776  -33.2714 H   0  0  0  0  0  0  0  0  0  0  0  0
    1.0594   20.4834  -32.3980 H   0  0  0  0  0  0  0  0  0  0  0  0
   -2.4670   19.8677  -32.2592 H   0  0  0  0  0  0  0  0  0  0  0  0
   -4.9465   19.7774  -32.0550 H   0  0  0  0  0  0  0  0  0  0  0  0
   -5.6596   20.5689  -32.0292 H   0  0  0  0  0  0  0  0  0  0  0  0
   -3.7640   24.9240  -31.3640 H   0  0  0  0  0  0  0  0  0  0  0  0
   -1.1243   25.4580  -29.2502 H   0  0  0  0  0  0  0  0  0  0  0  0
    0.7463   24.4246  -28.0023 H   0  0  0  0  0  0  0  0  0  0  0  0
   -0.1171   24.8833  -26.4652 H   0  0  0  0  0  0  0  0  0  0  0  0
  1  2  1  0
  2  3  1  0
  3  4  1  0
  4  5  1  0
  5  6  2  0
  6  7  1  0
  7  8  1  0
  8  9  1  0
  9 10  2  0
  9 11  2  0
  9 12  1  0
 12 13  2  0
 13 14  1  0
 14 15  2  0
 15 16  1  0
 16 17  1  0
 17 18  2  0
 17 19  1  0
 19 20  1  0
 20 21  2  0
 21 22  1  0
 22 23  2  0
 23 24  1  0
 24 25  2  0
 24 26  1  0
 26 27  1  0
 27 28  1  0
 28 29  1  0
 29 30  1  0
 30 31  1  0
 23 32  1  0
 32 33  2  0
 16 34  2  0
  7 35  2  0
 35 36  1  0
 35 37  1  0
 37 38  2  0
 38 39  1  0
 39  2  1  0
 38  5  1  0
 34 12  1  0
 33 20  1  0
 31 26  1  0
  1 40  1  0
  1 41  1  0
  1 42  1  0
  3 43  1  0
  3 44  1  0
  4 45  1  0
  4 46  1  0
  6 47  1  0
 13 48  1  0
 14 49  1  0
 15 50  1  0
 21 51  1  0
 22 52  1  0
 27 53  1  0
 27 54  1  0
 28 55  1  0
 28 56  1  0
 30 57  1  0
 30 58  1  0
 31 59  1  0
 31 60  1  0
 32 61  1  0
 33 62  1  0
 34 63  1  0
 36 64  1  0
 37 65  1  0
 39 66  1  0
 39 67  1  0
M  CHG  2   8  -1  19  -1
M  END
>  <UniqueID>  (5) 
5

>  <SMILES>  (5) 
CN1CCc2cc([N-]S(=O)(=O)c3cccc(C(=O)[N-]c4ccc(C(=O)N5CCOCC5)cc4)c3)c(O)cc2C1

>  <Energy>  (5) 
97.6692784027989

>  <Genealogy>  (5) 
CN1CCc2cc([N-]S(=O)(=O)c3cccc(C(=O)[N-]c4ccc(C(=O)N5CCOCC5)cc4)c3)c(O)cc2C1 (protonated)
CN1CCc2cc([N-]S(=O)(=O)c3cccc(C(=O)[N-]c4ccc(C(=O)N5CCOCC5)cc4)c3)c(O)cc2C1 (3D coordinates assigned)
CN1CCc2cc([N-]S(=O)(=O)c3cccc(C(=O)[N-]c4ccc(C(=O)N5CCOCC5)cc4)c3)c(O)cc2C1 (nonaromatic ring conformer: 97.6692784027989 kcal/mol)

>  <smiles>  (5) 
CN1CCc2cc(NS(=O)(=O)c3cccc(C(=O)Nc4ccc(C(=O)N5CCOCC5)cc4)c3)c(O)cc2C1

>  <score_type>  (5) 
oracle

>  <origin>  (5) 
adgpu

>  <m_score__min__energy>  (5) 
-12.92

>  <m_primary>  (5) 
energy

$$$$
5:0
     RDKit          3D

 65 68  0  0  0  0  0  0  0  0999 V2000
    1.6800   18.7180  -32.1890 C   0  0  0  0  0  0  0  0  0  0  0  0
    0.4160   17.9530  -31.1930 S   0  0  0  0  0  0  0  0  0  0  0  0
    0.9350   16.6510  -30.6430 O   0  0  0  0  0  0  0  0  0  0  0  0
   -0.7740   17.6760  -32.0690 O   0  0  0  0  0  0  0  0  0  0  0  0
   -0.0590   19.0110  -29.8870 N   0  0  0  0  0  0  0  0  0  0  0  0
   -0.4880   18.2100  -28.7310 C   0  0  0  0  0  0  0  0  0  0  0  0
   -1.1560   19.1300  -27.7040 C   0  0  0  0  0  0  0  0  0  0  0  0
   -0.4910   20.4370  -27.6610 N   0  0  0  0  0  0  0  0  0  0  0  0
   -1.0890   21.4960  -26.8970 C   0  0  0  0  0  0  0  0  0  0  0  0
   -1.5990   21.2320  -25.7750 O   0  0  0  0  0  0  0  0  0  0  0  0
   -1.1500   22.8830  -27.4170 C   0  0  0  0  0  0  0  0  0  0  0  0
   -0.2600   23.8660  -26.9480 C   0  0  0  0  0  0  0  0  0  0  0  0
   -0.3050   25.1630  -27.4610 C   0  0  0  0  0  0  0  0  0  0  0  0
   -1.2240   25.4930  -28.4600 C   0  0  0  0  0  0  0  0  0  0  0  0
   -1.2500   26.7890  -28.9660 O   0  0  0  0  0  0  0  0  0  0  0  0
   -2.1060   24.5230  -28.9580 C   0  0  0  0  0  0  0  0  0  0  0  0
   -3.0130   24.8890  -30.0060 N   0  0  0  0  0  0  0  0  0  0  0  0
   -4.7370   24.7090  -29.9590 S   0  0  0  0  0  0  0  0  0  0  0  0
   -5.1520   24.3810  -28.5510 O   0  0  0  0  0  0  0  0  0  0  0  0
   -5.3990   25.9790  -30.4100 O   0  0  0  0  0  0  0  0  0  0  0  0
   -5.1990   23.3900  -31.0360 C   0  0  0  0  0  0  0  0  0  0  0  0
   -4.2280   22.4600  -31.4330 C   0  0  0  0  0  0  0  0  0  0  0  0
   -4.5730   21.3670  -32.2380 C   0  0  0  0  0  0  0  0  0  0  0  0
   -3.3520   20.1800  -32.6930 S   0  0  0  0  0  0  0  0  0  0  0  0
   -2.7170   20.6090  -33.9890 O   0  0  0  0  0  0  0  0  0  0  0  0
   -2.2830   20.1240  -31.6360 O   0  0  0  0  0  0  0  0  0  0  0  0
   -4.0900   18.6060  -32.8860 N   0  0  0  0  0  0  0  0  0  0  0  0
   -4.4730   18.3570  -34.2950 C   0  0  0  0  0  0  0  0  0  0  0  0
   -5.9830   18.5390  -34.5260 C   0  0  0  0  0  0  0  0  0  0  0  0
   -6.7810   17.6840  -33.7220 O   0  0  0  0  0  0  0  0  0  0  0  0
   -6.2140   17.3980  -32.4480 C   0  0  0  0  0  0  0  0  0  0  0  0
   -5.2240   18.4650  -31.9530 C   0  0  0  0  0  0  0  0  0  0  0  0
   -5.8990   21.2140  -32.6630 C   0  0  0  0  0  0  0  0  0  0  0  0
   -6.8660   22.1550  -32.3000 C   0  0  0  0  0  0  0  0  0  0  0  0
   -6.5230   23.2470  -31.4900 C   0  0  0  0  0  0  0  0  0  0  0  0
   -7.4930   24.1860  -31.1400 O   0  0  0  0  0  0  0  0  0  0  0  0
   -2.0700   23.2200  -28.4260 C   0  0  0  0  0  0  0  0  0  0  0  0
    0.8930   20.5510  -28.1340 C   0  0  0  0  0  0  0  0  0  0  0  0
    1.0630   19.9070  -29.5280 C   0  0  0  0  0  0  0  0  0  0  0  0
    2.4361   19.1756  -31.5340 H   0  0  0  0  0  0  0  0  0  0  0  0
    2.1572   17.9570  -32.8239 H   0  0  0  0  0  0  0  0  0  0  0  0
    1.2271   19.4937  -32.8239 H   0  0  0  0  0  0  0  0  0  0  0  0
   -1.2048   17.4431  -29.0598 H   0  0  0  0  0  0  0  0  0  0  0  0
    0.3847   17.7186  -28.2761 H   0  0  0  0  0  0  0  0  0  0  0  0
   -2.2113   19.2718  -27.9802 H   0  0  0  0  0  0  0  0  0  0  0  0
   -1.0780   18.6633  -26.7110 H   0  0  0  0  0  0  0  0  0  0  0  0
    0.4764   23.6107  -26.1717 H   0  0  0  0  0  0  0  0  0  0  0  0
    0.3857   25.9283  -27.0773 H   0  0  0  0  0  0  0  0  0  0  0  0
   -3.1848   22.5900  -31.1091 H   0  0  0  0  0  0  0  0  0  0  0  0
   -3.9281   19.0617  -34.9403 H   0  0  0  0  0  0  0  0  0  0  0  0
   -4.2170   17.3147  -34.5361 H   0  0  0  0  0  0  0  0  0  0  0  0
   -6.2481   19.5816  -34.2967 H   0  0  0  0  0  0  0  0  0  0  0  0
   -6.1853   18.2812  -35.5761 H   0  0  0  0  0  0  0  0  0  0  0  0
   -7.0308   17.3171  -31.7157 H   0  0  0  0  0  0  0  0  0  0  0  0
   -5.6473   16.4612  -32.5538 H   0  0  0  0  0  0  0  0  0  0  0  0
   -5.7457   19.4301  -31.8721 H   0  0  0  0  0  0  0  0  0  0  0  0
   -4.8348   18.1545  -30.9721 H   0  0  0  0  0  0  0  0  0  0  0  0
   -6.1797   20.3507  -33.2842 H   0  0  0  0  0  0  0  0  0  0  0  0
   -7.9018   22.0386  -32.6515 H   0  0  0  0  0  0  0  0  0  0  0  0
   -7.2960   24.9390  -30.4930 H   0  0  0  0  0  0  0  0  0  0  0  0
   -2.7681   22.4582  -28.8031 H   0  0  0  0  0  0  0  0  0  0  0  0
    1.1646   21.6152  -28.1951 H   0  0  0  0  0  0  0  0  0  0  0  0
    1.5476   20.0232  -27.4248 H   0  0  0  0  0  0  0  0  0  0  0  0
    1.1275   20.7077  -30.2795 H   0  0  0  0  0  0  0  0  0  0  0  0
    1.9781   19.2972  -29.5015 H   0  0  0  0  0  0  0  0  0  0  0  0
  1  2  1  0
  2  3  2  0
  2  4  2  0
  2  5  1  0
  5  6  1  0
  6  7  1  0
  7  8  1  0
  8  9  1  0
  9 10  2  0
  9 11  1  0
 11 12  2  0
 12 13  1  0
 13 14  2  0
 14 15  1  0
 14 16  1  0
 16 17  1  0
 17 18  1  0
 18 19  2  0
 18 20  2  0
 18 21  1  0
 21 22  2  0
 22 23  1  0
 23 24  1  0
 24 25  2  0
 24 26  2  0
 24 27  1  0
 27 28  1  0
 28 29  1  0
 29 30  1  0
 30 31  1  0
 31 32  1  0
 23 33  2  0
 33 34  1  0
 34 35  2  0
 35 36  1  0
 16 37  2  0
  8 38  1  0
 38 39  1  0
 39  5  1  0
 37 11  1  0
 35 21  1  0
 32 27  1  0
  1 40  1  0
  1 41  1  0
  1 42  1  0
  6 43  1  0
  6 44  1  0
  7 45  1  0
  7 46  1  0
 12 47  1  0
 13 48  1  0
 22 49  1  0
 28 50  1  0
 28 51  1  0
 29 52  1  0
 29 53  1  0
 31 54  1  0
 31 55  1  0
 32 56  1  0
 32 57  1  0
 33 58  1  0
 34 59  1  0
 36 60  1  0
 37 61  1  0
 38 62  1  0
 38 63  1  0
 39 64  1  0
 39 65  1  0
M  CHG  2  15  -1  17  -1
M  END
>  <UniqueID>  (6) 
6

>  <SMILES>  (6) 
CS(=O)(=O)N1CCN(C(=O)c2ccc([O-])c([N-]S(=O)(=O)c3cc(S(=O)(=O)N4CCOCC4)ccc3O)c2)CC1

>  <Energy>  (6) 
88.21520182156834

>  <Genealogy>  (6) 
CS(=O)(=O)N1CCN(C(=O)c2ccc([O-])c([N-]S(=O)(=O)c3cc(S(=O)(=O)N4CCOCC4)ccc3O)c2)CC1 (protonated)
CS(=O)(=O)N1CCN(C(=O)c2ccc([O-])c([N-]S(=O)(=O)c3cc(S(=O)(=O)N4CCOCC4)ccc3O)c2)CC1 (3D coordinates assigned)
CS(=O)(=O)N1CCN(C(=O)c2ccc([O-])c([N-]S(=O)(=O)c3cc(S(=O)(=O)N4CCOCC4)ccc3O)c2)CC1 (nonaromatic ring conformer: 88.21520182156834 kcal/mol)

>  <smiles>  (6) 
CS(=O)(=O)N1CCN(C(=O)c2ccc(O)c(NS(=O)(=O)c3cc(S(=O)(=O)N4CCOCC4)ccc3O)c2)CC1

>  <score_type>  (6) 
oracle

>  <origin>  (6) 
adgpu

>  <m_score__min__energy>  (6) 
-13.699999999999999

>  <m_primary>  (6) 
energy

$$$$
6:0
     RDKit          3D

 46 48  0  0  0  0  0  0  0  0999 V2000
   -8.3280   23.1750  -31.8490 C   0  0  0  0  0  0  0  0  0  0  0  0
   -6.8730   23.3490  -31.5500 C   0  0  0  0  0  0  0  0  0  0  0  0
   -6.2180   24.6940  -30.7880 S   0  0  0  0  0  0  0  0  0  0  0  0
   -4.6280   24.1480  -30.8010 C   0  0  0  0  0  0  0  0  0  0  0  0
   -3.4850   24.9380  -30.4550 N   0  0  0  0  0  0  0  0  0  0  0  0
   -2.6980   24.8260  -29.2640 C   0  0  0  0  0  0  0  0  0  0  0  0
   -1.4530   24.9980  -29.3480 O   0  0  0  0  0  0  0  0  0  0  0  0
   -3.2820   24.3480  -27.9600 C   0  0  0  0  0  0  0  0  0  0  0  0
   -2.2960   24.4980  -26.8300 C   0  0  0  0  0  0  0  0  0  0  0  0
   -2.3240   25.6450  -26.0170 C   0  0  0  0  0  0  0  0  0  0  0  0
   -1.4280   25.7770  -24.9530 C   0  0  0  0  0  0  0  0  0  0  0  0
   -0.4990   24.7670  -24.6890 C   0  0  0  0  0  0  0  0  0  0  0  0
   -0.4660   23.6230  -25.4890 C   0  0  0  0  0  0  0  0  0  0  0  0
   -1.3620   23.4860  -26.5550 C   0  0  0  0  0  0  0  0  0  0  0  0
   -4.5710   22.9130  -31.4460 C   0  0  0  0  0  0  0  0  0  0  0  0
   -3.3060   22.1840  -31.7060 C   0  0  0  0  0  0  0  0  0  0  0  0
   -3.1960   21.5100  -32.7680 O   0  0  0  0  0  0  0  0  0  0  0  0
   -2.2120   22.2270  -30.7570 N   0  0  0  0  0  0  0  0  0  0  0  0
   -0.9810   21.6380  -31.2990 C   0  0  0  0  0  0  0  0  0  0  0  0
   -0.1830   21.1160  -30.1100 C   0  0  0  0  0  0  0  0  0  0  0  0
   -1.1680   21.0450  -28.9520 C   0  0  0  0  0  0  0  0  0  0  0  0
   -2.5090   21.4670  -29.5370 C   0  0  0  0  0  0  0  0  0  0  0  0
   -5.8460   22.4450  -31.8430 C   0  0  0  0  0  0  0  0  0  0  0  0
   -6.0760   21.1360  -32.5460 C   0  0  0  0  0  0  0  0  0  0  0  0
   -8.8906   23.1077  -30.9062 H   0  0  0  0  0  0  0  0  0  0  0  0
   -8.6884   24.0364  -32.4304 H   0  0  0  0  0  0  0  0  0  0  0  0
   -8.4751   22.2529  -32.4304 H   0  0  0  0  0  0  0  0  0  0  0  0
   -4.1809   24.9395  -27.7319 H   0  0  0  0  0  0  0  0  0  0  0  0
   -3.5329   23.2819  -28.0623 H   0  0  0  0  0  0  0  0  0  0  0  0
   -3.0546   26.4420  -26.2196 H   0  0  0  0  0  0  0  0  0  0  0  0
   -1.4539   26.6776  -24.3220 H   0  0  0  0  0  0  0  0  0  0  0  0
    0.2060   24.8731  -23.8513 H   0  0  0  0  0  0  0  0  0  0  0  0
    0.2655   22.8283  -25.2809 H   0  0  0  0  0  0  0  0  0  0  0  0
   -1.3346   22.5815  -27.1804 H   0  0  0  0  0  0  0  0  0  0  0  0
   -2.0150   23.2160  -30.4750 H   0  0  0  0  0  0  0  0  0  0  0  0
   -1.2255   20.8120  -31.9831 H   0  0  0  0  0  0  0  0  0  0  0  0
   -0.4033   22.3826  -31.8662 H   0  0  0  0  0  0  0  0  0  0  0  0
    0.2235   20.1177  -30.3295 H   0  0  0  0  0  0  0  0  0  0  0  0
    0.6714   21.7683  -29.8767 H   0  0  0  0  0  0  0  0  0  0  0  0
   -1.2254   20.0197  -28.5576 H   0  0  0  0  0  0  0  0  0  0  0  0
   -0.8642   21.6918  -28.1157 H   0  0  0  0  0  0  0  0  0  0  0  0
   -3.1135   20.5805  -29.7794 H   0  0  0  0  0  0  0  0  0  0  0  0
   -3.0818   22.0739  -28.8204 H   0  0  0  0  0  0  0  0  0  0  0  0
   -6.2160   20.3392  -31.8007 H   0  0  0  0  0  0  0  0  0  0  0  0
   -6.9747   21.2110  -33.1758 H   0  0  0  0  0  0  0  0  0  0  0  0
   -5.2055   20.9001  -33.1758 H   0  0  0  0  0  0  0  0  0  0  0  0
  1  2  1  0
  2  3  1  0
  3  4  1  0
  4  5  1  0
  5  6  1  0
  6  7  2  0
  6  8  1  0
  8  9  1  0
  9 10  2  0
 10 11  1  0
 11 12  2  0
 12 13  1  0
 13 14  2  0
  4 15  2  0
 15 16  1  0
 16 17  2  0
 16 18  1  0
 18 19  1  0
 19 20  1  0
 20 21  1  0
 21 22  1  0
 15 23  1  0
 23 24  1  0
 23  2  2  0
 14  9  1  0
 22 18  1  0
  1 25  1  0
  1 26  1  0
  1 27  1  0
  8 28  1  0
  8 29  1  0
 10 30  1  0
 11 31  1  0
 12 32  1  0
 13 33  1  0
 14 34  1  0
 18 35  1  0
 19 36  1  0
 19 37  1  0
 20 38  1  0
 20 39  1  0
 21 40  1  0
 21 41  1  0
 22 42  1  0
 22 43  1  0
 24 44  1  0
 24 45  1  0
 24 46  1  0
M  CHG  2   5  -1  18   1
M  END
>  <UniqueID>  (7) 
7

>  <SMILES>  (7) 
Cc1sc([N-]C(=O)Cc2ccccc2)c(C(=O)[NH+]2CCCC2)c1C

>  <Energy>  (7) 
83.91887794982073

>  <Genealogy>  (7) 
Cc1sc([N-]C(=O)Cc2ccccc2)c(C(=O)[NH+]2CCCC2)c1C (protonated)
Cc1sc([N-]C(=O)Cc2ccccc2)c(C(=O)[NH+]2CCCC2)c1C (3D coordinates assigned)
Cc1sc([N-]C(=O)Cc2ccccc2)c(C(=O)[NH+]2CCCC2)c1C (nonaromatic ring conformer: 83.91887794982073 kcal/mol)

>  <smiles>  (7) 
Cc1sc(NC(=O)Cc2ccccc2)c(C(=O)N2CCCC2)c1C

>  <score_type>  (7) 
oracle

>  <origin>  (7) 
adgpu

>  <m_score__min__energy>  (7) 
-8.5700000000000003

>  <m_primary>  (7) 
energy

$$$$
7:0
     RDKit          3D

 57 60  0  0  0  0  0  0  0  0999 V2000
   -5.5780   26.5470  -30.4680 O   0  0  0  0  0  0  0  0  0  0  0  0
   -5.0410   25.4130  -30.5810 C   0  0  0  0  0  0  0  0  0  0  0  0
   -3.6210   25.2950  -30.4070 N   0  0  0  0  0  0  0  0  0  0  0  0
   -3.0000   24.3180  -29.5610 C   0  0  0  0  0  0  0  0  0  0  0  0
   -2.1690   23.3210  -30.0970 C   0  0  0  0  0  0  0  0  0  0  0  0
   -1.4800   22.4490  -29.2510 C   0  0  0  0  0  0  0  0  0  0  0  0
   -1.6040   22.5720  -27.8610 C   0  0  0  0  0  0  0  0  0  0  0  0
   -0.6170   21.5700  -26.7930 S   0  0  0  0  0  0  0  0  0  0  0  0
   -1.5000   20.9220  -25.7620 O   0  0  0  0  0  0  0  0  0  0  0  0
    0.0350   20.4800  -27.5990 O   0  0  0  0  0  0  0  0  0  0  0  0
    0.6130   22.5160  -25.9820 N   0  0  0  0  0  0  0  0  0  0  0  0
    0.0200   23.2920  -24.8760 C   0  0  0  0  0  0  0  0  0  0  0  0
    0.9370   24.4620  -24.4830 C   0  0  0  0  0  0  0  0  0  0  0  0
    1.1920   25.3850  -25.5370 O   0  0  0  0  0  0  0  0  0  0  0  0
    0.9980   24.8400  -26.8330 C   0  0  0  0  0  0  0  0  0  0  0  0
    1.3830   23.3530  -26.9300 C   0  0  0  0  0  0  0  0  0  0  0  0
   -2.4810   23.5280  -27.3280 C   0  0  0  0  0  0  0  0  0  0  0  0
   -3.1860   24.3890  -28.1760 C   0  0  0  0  0  0  0  0  0  0  0  0
   -5.8760   24.2350  -30.9100 C   0  0  0  0  0  0  0  0  0  0  0  0
   -6.2020   23.2970  -29.9160 C   0  0  0  0  0  0  0  0  0  0  0  0
   -7.0710   22.2410  -30.1970 C   0  0  0  0  0  0  0  0  0  0  0  0
   -7.6150   22.0990  -31.4800 C   0  0  0  0  0  0  0  0  0  0  0  0
   -8.7900   20.8320  -31.8230 S   0  0  0  0  0  0  0  0  0  0  0  0
   -9.0910   20.1140  -30.5370 O   0  0  0  0  0  0  0  0  0  0  0  0
  -10.0520   21.4640  -32.3430 O   0  0  0  0  0  0  0  0  0  0  0  0
   -8.1350   19.7090  -33.0020 N   0  0  0  0  0  0  0  0  0  0  0  0
   -8.2310   18.3080  -32.5390 C   0  0  0  0  0  0  0  0  0  0  0  0
   -6.9250   17.8050  -31.8950 C   0  0  0  0  0  0  0  0  0  0  0  0
   -6.2320   18.8730  -31.2870 O   0  0  0  0  0  0  0  0  0  0  0  0
   -5.7410   19.7650  -32.2740 C   0  0  0  0  0  0  0  0  0  0  0  0
   -6.7620   20.0620  -33.3970 C   0  0  0  0  0  0  0  0  0  0  0  0
   -7.2540   23.0030  -32.4870 C   0  0  0  0  0  0  0  0  0  0  0  0
   -6.3830   24.0620  -32.2070 C   0  0  0  0  0  0  0  0  0  0  0  0
   -2.0602   23.2264  -31.1875 H   0  0  0  0  0  0  0  0  0  0  0  0
   -0.8384   21.6637  -29.6772 H   0  0  0  0  0  0  0  0  0  0  0  0
   -0.9553   23.6884  -25.1948 H   0  0  0  0  0  0  0  0  0  0  0  0
   -0.1040   22.6309  -24.0056 H   0  0  0  0  0  0  0  0  0  0  0  0
    0.4631   25.0079  -23.6539 H   0  0  0  0  0  0  0  0  0  0  0  0
    1.9070   24.0233  -24.2062 H   0  0  0  0  0  0  0  0  0  0  0  0
   -0.0638   24.9443  -27.1006 H   0  0  0  0  0  0  0  0  0  0  0  0
    1.6542   25.3928  -27.5214 H   0  0  0  0  0  0  0  0  0  0  0  0
    1.1867   23.0017  -27.9538 H   0  0  0  0  0  0  0  0  0  0  0  0
    2.4490   23.2614  -26.6745 H   0  0  0  0  0  0  0  0  0  0  0  0
   -2.6151   23.6011  -26.2387 H   0  0  0  0  0  0  0  0  0  0  0  0
   -3.8877   25.1230  -27.7532 H   0  0  0  0  0  0  0  0  0  0  0  0
   -5.7695   23.3953  -28.9094 H   0  0  0  0  0  0  0  0  0  0  0  0
   -7.3292   21.5185  -29.4087 H   0  0  0  0  0  0  0  0  0  0  0  0
   -9.0397   18.2371  -31.7967 H   0  0  0  0  0  0  0  0  0  0  0  0
   -8.4314   17.6796  -33.4193 H   0  0  0  0  0  0  0  0  0  0  0  0
   -7.1647   17.0484  -31.1333 H   0  0  0  0  0  0  0  0  0  0  0  0
   -6.2880   17.3662  -32.6771 H   0  0  0  0  0  0  0  0  0  0  0  0
   -5.4749   20.7137  -31.7850 H   0  0  0  0  0  0  0  0  0  0  0  0
   -4.8723   19.2816  -32.7449 H   0  0  0  0  0  0  0  0  0  0  0  0
   -6.7259   21.1354  -33.6349 H   0  0  0  0  0  0  0  0  0  0  0  0
   -6.4925   19.4511  -34.2712 H   0  0  0  0  0  0  0  0  0  0  0  0
   -7.6571   22.8800  -33.5031 H   0  0  0  0  0  0  0  0  0  0  0  0
   -6.0949   24.7609  -33.0061 H   0  0  0  0  0  0  0  0  0  0  0  0
  1  2  2  0
  2  3  1  0
  3  4  1  0
  4  5  2  0
  5  6  1  0
  6  7  2  0
  7  8  1  0
  8  9  2  0
  8 10  2  0
  8 11  1  0
 11 12  1  0
 12 13  1  0
 13 14  1  0
 14 15  1  0
 15 16  1  0
  7 17  1  0
 17 18  2  0
  2 19  1  0
 19 20  2  0
 20 21  1  0
 21 22  2  0
 22 23  1  0
 23 24  2  0
 23 25  2  0
 23 26  1  0
 26 27  1  0
 27 28  1  0
 28 29  1  0
 29 30  1  0
 30 31  1  0
 22 32  1  0
 32 33  2  0
 18  4  1  0
 33 19  1  0
 16 11  1  0
 31 26  1  0
  5 34  1  0
  6 35  1  0
 12 36  1  0
 12 37  1  0
 13 38  1  0
 13 39  1  0
 15 40  1  0
 15 41  1  0
 16 42  1  0
 16 43  1  0
 17 44  1  0
 18 45  1  0
 20 46  1  0
 21 47  1  0
 27 48  1  0
 27 49  1  0
 28 50  1  0
 28 51  1  0
 30 52  1  0
 30 53  1  0
 31 54  1  0
 31 55  1  0
 32 56  1  0
 33 57  1  0
M  CHG  1   3  -1
M  END
>  <UniqueID>  (8) 
8

>  <SMILES>  (8) 
O=C([N-]c1ccc(S(=O)(=O)N2CCOCC2)cc1)c1ccc(S(=O)(=O)N2CCOCC2)cc1

>  <Energy>  (8) 
87.04203008506661

>  <Genealogy>  (8) 
O=C([N-]c1ccc(S(=O)(=O)N2CCOCC2)cc1)c1ccc(S(=O)(=O)N2CCOCC2)cc1 (protonated)
O=C([N-]c1ccc(S(=O)(=O)N2CCOCC2)cc1)c1ccc(S(=O)(=O)N2CCOCC2)cc1 (3D coordinates assigned)
O=C([N-]c1ccc(S(=O)(=O)N2CCOCC2)cc1)c1ccc(S(=O)(=O)N2CCOCC2)cc1 (nonaromatic ring conformer: 87.04203008506661 kcal/mol)

>  <smiles>  (8) 
O=C(Nc1ccc(S(=O)(=O)N2CCOCC2)cc1)c1ccc(S(=O)(=O)N2CCOCC2)cc1

>  <score_type>  (8) 
oracle

>  <origin>  (8) 
adgpu

>  <m_score__min__energy>  (8) 
-12.09

>  <m_primary>  (8) 
energy

$$$$
8:0
     RDKit          3D

 45 48  0  0  0  0  0  0  0  0999 V2000
   -1.7150   13.2670  -35.7050 O   0  0  0  0  0  0  0  0  0  0  0  0
   -2.9280   13.5650  -35.5480 C   0  0  0  0  0  0  0  0  0  0  0  0
   -3.8960   12.5940  -35.7760 O   0  0  0  0  0  0  0  0  0  0  0  0
   -3.3190   14.9280  -35.1280 C   0  0  0  0  0  0  0  0  0  0  0  0
   -2.3960   16.0020  -35.2430 C   0  0  0  0  0  0  0  0  0  0  0  0
   -2.7520   17.3030  -34.8480 C   0  0  0  0  0  0  0  0  0  0  0  0
   -4.0320   17.5080  -34.3430 C   0  0  0  0  0  0  0  0  0  0  0  0
   -4.9340   16.4750  -34.2220 C   0  0  0  0  0  0  0  0  0  0  0  0
   -4.6100   15.1750  -34.6070 C   0  0  0  0  0  0  0  0  0  0  0  0
   -6.1640   17.0230  -33.6640 C   0  0  0  0  0  0  0  0  0  0  0  0
   -7.2230   16.3730  -33.4570 O   0  0  0  0  0  0  0  0  0  0  0  0
   -6.0150   18.4280  -33.4330 N   0  0  0  0  0  0  0  0  0  0  0  0
   -6.9820   19.3380  -32.8800 C   0  0  0  0  0  0  0  0  0  0  0  0
   -8.1680   18.8530  -32.3080 C   0  0  0  0  0  0  0  0  0  0  0  0
   -9.0990   19.7350  -31.7580 C   0  0  0  0  0  0  0  0  0  0  0  0
   -8.8620   21.1120  -31.7720 C   0  0  0  0  0  0  0  0  0  0  0  0
   -9.7980   21.9680  -31.2010 O   0  0  0  0  0  0  0  0  0  0  0  0
   -7.6830   21.6180  -32.3540 C   0  0  0  0  0  0  0  0  0  0  0  0
   -7.3750   23.0970  -32.3440 C   0  0  0  0  0  0  0  0  0  0  0  0
   -6.8760   23.5670  -30.9700 C   0  0  0  0  0  0  0  0  0  0  0  0
   -5.3820   23.4210  -30.8380 C   0  0  0  0  0  0  0  0  0  0  0  0
   -4.7430   22.2460  -31.2670 C   0  0  0  0  0  0  0  0  0  0  0  0
   -3.3640   22.0930  -31.0990 C   0  0  0  0  0  0  0  0  0  0  0  0
   -2.6090   23.1050  -30.4980 C   0  0  0  0  0  0  0  0  0  0  0  0
   -1.2340   22.9260  -30.3420 O   0  0  0  0  0  0  0  0  0  0  0  0
   -3.2430   24.2800  -30.0600 C   0  0  0  0  0  0  0  0  0  0  0  0
   -2.5110   25.2940  -29.4550 O   0  0  0  0  0  0  0  0  0  0  0  0
   -4.6240   24.4320  -30.2270 C   0  0  0  0  0  0  0  0  0  0  0  0
   -6.7470   20.7220  -32.8990 C   0  0  0  0  0  0  0  0  0  0  0  0
   -4.6790   18.7220  -33.8580 C   0  0  0  0  0  0  0  0  0  0  0  0
   -4.1360   19.8550  -33.7730 O   0  0  0  0  0  0  0  0  0  0  0  0
   -1.3902   15.8129  -35.6462 H   0  0  0  0  0  0  0  0  0  0  0  0
   -2.0386   18.1357  -34.9357 H   0  0  0  0  0  0  0  0  0  0  0  0
   -5.3420   14.3599  -34.5077 H   0  0  0  0  0  0  0  0  0  0  0  0
   -8.3650   17.7709  -32.2931 H   0  0  0  0  0  0  0  0  0  0  0  0
  -10.0248   19.3440  -31.3108 H   0  0  0  0  0  0  0  0  0  0  0  0
   -6.5980   23.3038  -33.0947 H   0  0  0  0  0  0  0  0  0  0  0  0
   -8.3030   23.6407  -32.5748 H   0  0  0  0  0  0  0  0  0  0  0  0
   -7.1436   24.6256  -30.8369 H   0  0  0  0  0  0  0  0  0  0  0  0
   -7.3504   22.9399  -30.2008 H   0  0  0  0  0  0  0  0  0  0  0  0
   -5.3301   21.4432  -31.7369 H   0  0  0  0  0  0  0  0  0  0  0  0
   -2.8700   21.1717  -31.4413 H   0  0  0  0  0  0  0  0  0  0  0  0
   -0.6320   23.6650  -30.0010 H   0  0  0  0  0  0  0  0  0  0  0  0
   -5.1188   25.3500  -29.8771 H   0  0  0  0  0  0  0  0  0  0  0  0
   -5.8195   21.1098  -33.3456 H   0  0  0  0  0  0  0  0  0  0  0  0
  1  2  2  0
  2  3  1  0
  2  4  1  0
  4  5  2  0
  5  6  1  0
  6  7  2  0
  7  8  1  0
  8  9  2  0
  8 10  1  0
 10 11  2  0
 10 12  1  0
 12 13  1  0
 13 14  2  0
 14 15  1  0
 15 16  2  0
 16 17  1  0
 16 18  1  0
 18 19  1  0
 19 20  1  0
 20 21  1  0
 21 22  2  0
 22 23  1  0
 23 24  2  0
 24 25  1  0
 24 26  1  0
 26 27  1  0
 26 28  2  0
 18 29  2  0
 12 30  1  0
 30 31  2  0
  9  4  1  0
 29 13  1  0
 30  7  1  0
 28 21  1  0
  5 32  1  0
  6 33  1  0
  9 34  1  0
 14 35  1  0
 15 36  1  0
 19 37  1  0
 19 38  1  0
 20 39  1  0
 20 40  1  0
 22 41  1  0
 23 42  1  0
 25 43  1  0
 28 44  1  0
 29 45  1  0
M  CHG  3   3  -1  17  -1  27  -1
M  END
>  <UniqueID>  (9) 
9

>  <SMILES>  (9) 
O=C([O-])c1ccc2c(c1)C(=O)N(c1ccc([O-])c(CCc3ccc(O)c([O-])c3)c1)C2=O

>  <Energy>  (9) 
84.22267812102736

>  <Genealogy>  (9) 
O=C([O-])c1ccc2c(c1)C(=O)N(c1ccc([O-])c(CCc3ccc(O)c([O-])c3)c1)C2=O (protonated)
O=C([O-])c1ccc2c(c1)C(=O)N(c1ccc([O-])c(CCc3ccc(O)c([O-])c3)c1)C2=O (3D coordinates assigned)
O=C([O-])c1ccc2c(c1)C(=O)N(c1ccc([O-])c(CCc3ccc(O)c([O-])c3)c1)C2=O (nonaromatic ring conformer: 84.22267812102736 kcal/mol)

>  <smiles>  (9) 
O=C(O)c1ccc2c(c1)C(=O)N(c1ccc(O)c(CCc3ccc(O)c(O)c3)c1)C2=O

>  <score_type>  (9) 
oracle

>  <origin>  (9) 
adgpu

>  <m_score__min__energy>  (9) 
-13.09

>  <m_primary>  (9) 
energy

$$$$
9:0
     RDKit          3D

 57 60  0  0  0  0  0  0  0  0999 V2000
    0.2280   22.6960  -26.5410 C   0  0  0  0  0  0  0  0  0  0  0  0
   -1.1260   23.1290  -27.0350 C   0  0  0  0  0  0  0  0  0  0  0  0
   -1.7060   24.2970  -26.5180 C   0  0  0  0  0  0  0  0  0  0  0  0
   -2.9520   24.7320  -26.9740 C   0  0  0  0  0  0  0  0  0  0  0  0
   -3.6340   24.0170  -27.9730 C   0  0  0  0  0  0  0  0  0  0  0  0
   -4.9000   24.4640  -28.4860 N   0  0  0  0  0  0  0  0  0  0  0  0
   -5.1900   24.7520  -30.1740 S   0  0  0  0  0  0  0  0  0  0  0  0
   -3.9330   25.2830  -30.8080 O   0  0  0  0  0  0  0  0  0  0  0  0
   -6.2840   25.7710  -30.3280 O   0  0  0  0  0  0  0  0  0  0  0  0
   -5.7020   23.2560  -30.9500 C   0  0  0  0  0  0  0  0  0  0  0  0
   -4.7500   22.3710  -31.5130 C   0  0  0  0  0  0  0  0  0  0  0  0
   -5.1550   21.1520  -32.0840 C   0  0  0  0  0  0  0  0  0  0  0  0
   -6.5170   20.8370  -32.0800 C   0  0  0  0  0  0  0  0  0  0  0  0
   -7.4450   21.7090  -31.5360 C   0  0  0  0  0  0  0  0  0  0  0  0
   -7.0710   22.9230  -30.9650 C   0  0  0  0  0  0  0  0  0  0  0  0
   -8.7610   21.1170  -31.7020 C   0  0  0  0  0  0  0  0  0  0  0  0
   -9.8690   21.6090  -31.3590 O   0  0  0  0  0  0  0  0  0  0  0  0
   -8.5310   19.8480  -32.3810 C   0  0  0  0  0  0  0  0  0  0  0  0
   -9.4260   19.0430  -32.7500 O   0  0  0  0  0  0  0  0  0  0  0  0
   -7.1320   19.6490  -32.5910 N   0  0  0  0  0  0  0  0  0  0  0  0
   -6.5350   18.7020  -33.5270 C   0  0  0  0  0  0  0  0  0  0  0  0
   -3.0600   22.8440  -28.4840 C   0  0  0  0  0  0  0  0  0  0  0  0
   -1.8070   22.4040  -28.0370 C   0  0  0  0  0  0  0  0  0  0  0  0
   -1.2380   21.2210  -28.6170 N   0  0  0  0  0  0  0  0  0  0  0  0
   -1.1310   19.9920  -27.8260 C   0  0  0  0  0  0  0  0  0  0  0  0
    0.2200   19.2750  -28.0890 C   0  0  1  0  0  0  0  0  0  0  0  0
    0.0890   17.7710  -27.7990 C   0  0  0  0  0  0  0  0  0  0  0  0
    0.7700   19.5200  -29.4460 N   0  0  0  0  0  0  0  0  0  0  0  0
   -0.2580   19.8770  -30.4360 C   0  0  2  0  0  0  0  0  0  0  0  0
    0.3570   19.9710  -31.8370 C   0  0  0  0  0  0  0  0  0  0  0  0
   -0.8810   21.2220  -30.0370 C   0  0  0  0  0  0  0  0  0  0  0  0
    0.2336   22.6942  -25.4410 H   0  0  0  0  0  0  0  0  0  0  0  0
    0.4464   21.6832  -26.9105 H   0  0  0  0  0  0  0  0  0  0  0  0
    0.9936   23.3941  -26.9105 H   0  0  0  0  0  0  0  0  0  0  0  0
   -1.1750   24.8748  -25.7472 H   0  0  0  0  0  0  0  0  0  0  0  0
   -3.4027   25.6406  -26.5483 H   0  0  0  0  0  0  0  0  0  0  0  0
   -5.7330   24.4600  -27.8560 H   0  0  0  0  0  0  0  0  0  0  0  0
   -3.6835   22.6402  -31.5033 H   0  0  0  0  0  0  0  0  0  0  0  0
   -4.4184   20.4630  -32.5231 H   0  0  0  0  0  0  0  0  0  0  0  0
   -7.8231   23.6026  -30.5378 H   0  0  0  0  0  0  0  0  0  0  0  0
   -6.0302   17.9013  -32.9666 H   0  0  0  0  0  0  0  0  0  0  0  0
   -7.3221   18.2664  -34.1600 H   0  0  0  0  0  0  0  0  0  0  0  0
   -5.8026   19.2244  -34.1600 H   0  0  0  0  0  0  0  0  0  0  0  0
   -3.6002   22.2620  -29.2453 H   0  0  0  0  0  0  0  0  0  0  0  0
   -1.2017   20.2448  -26.7578 H   0  0  0  0  0  0  0  0  0  0  0  0
   -1.9482   19.3160  -28.1179 H   0  0  0  0  0  0  0  0  0  0  0  0
    0.9513   19.7139  -27.3943 H   0  0  0  0  0  0  0  0  0  0  0  0
    0.0747   17.6072  -26.7114 H   0  0  0  0  0  0  0  0  0  0  0  0
   -0.8455   17.3928  -28.2391 H   0  0  0  0  0  0  0  0  0  0  0  0
    0.9440   17.2369  -28.2391 H   0  0  0  0  0  0  0  0  0  0  0  0
    1.3060   18.6850  -29.7800 H   0  0  0  0  0  0  0  0  0  0  0  0
   -1.0353   19.0989  -30.4572 H   0  0  0  0  0  0  0  0  0  0  0  0
    1.4411   20.1367  -31.7512 H   0  0  0  0  0  0  0  0  0  0  0  0
    0.1713   19.0340  -32.3826 H   0  0  0  0  0  0  0  0  0  0  0  0
   -0.1001   20.8097  -32.3826 H   0  0  0  0  0  0  0  0  0  0  0  0
   -0.1562   22.0273  -30.2274 H   0  0  0  0  0  0  0  0  0  0  0  0
   -1.7918   21.3827  -30.6325 H   0  0  0  0  0  0  0  0  0  0  0  0
  1  2  1  0
  2  3  2  0
  3  4  1  0
  4  5  2  0
  5  6  1  0
  6  7  1  0
  7  8  2  0
  7  9  2  0
  7 10  1  0
 10 11  2  0
 11 12  1  0
 12 13  2  0
 13 14  1  0
 14 15  2  0
 14 16  1  0
 16 17  2  0
 16 18  1  0
 18 19  2  0
 18 20  1  0
 20 21  1  0
  5 22  1  0
 22 23  2  0
 23 24  1  0
 24 25  1  0
 25 26  1  0
 26 27  1  0
 26 28  1  0
 28 29  1  0
 29 30  1  0
 29 31  1  0
 23  2  1  0
 31 24  1  0
 15 10  1  0
 20 13  1  0
  1 32  1  0
  1 33  1  0
  1 34  1  0
  3 35  1  0
  4 36  1  0
  6 37  1  0
 11 38  1  0
 12 39  1  0
 15 40  1  0
 21 41  1  0
 21 42  1  0
 21 43  1  0
 22 44  1  0
 25 45  1  0
 25 46  1  0
 26 47  1  1
 27 48  1  0
 27 49  1  0
 27 50  1  0
 28 51  1  0
 29 52  1  6
 30 53  1  0
 30 54  1  0
 30 55  1  0
 31 56  1  0
 31 57  1  0
M  END
>  <UniqueID>  (10) 
10

>  <SMILES>  (10) 
Cc1ccc(NS(=O)(=O)c2ccc3c(c2)C(=O)C(=O)N3C)cc1N1C[C@@H](C)N[C@H](C)C1

>  <Energy>  (10) 
100.22869469593415

>  <Genealogy>  (10) 
Cc1ccc(NS(=O)(=O)c2ccc3c(c2)C(=O)C(=O)N3C)cc1N1C[C@@H](C)N[C@H](C)C1 (chirality)
Cc1ccc(NS(=O)(=O)c2ccc3c(c2)C(=O)C(=O)N3C)cc1N1C[C@@H](C)N[C@H](C)C1 (3D coordinates assigned)
Cc1ccc(NS(=O)(=O)c2ccc3c(c2)C(=O)C(=O)N3C)cc1N1C[C@@H](C)N[C@H](C)C1 (nonaromatic ring conformer: 100.22869469593415 kcal/mol)

>  <smiles>  (10) 
Cc1ccc(NS(=O)(=O)c2ccc3c(c2)C(=O)C(=O)N3C)cc1N1CC(C)NC(C)C1

>  <score_type>  (10) 
oracle

>  <origin>  (10) 
adgpu

>  <m_score__min__energy>  (10) 
-10.960000000000001

>  <m_primary>  (10) 
energy

$$$$
10:0
     RDKit          3D

 65 68  0  0  0  0  0  0  0  0999 V2000
   -4.9180   25.5720  -30.4690 C   0  0  0  0  0  0  0  0  0  0  0  0
   -3.5270   25.2720  -30.4220 O   0  0  0  0  0  0  0  0  0  0  0  0
   -2.8950   24.5940  -29.3670 C   0  0  0  0  0  0  0  0  0  0  0  0
   -1.7750   25.1320  -28.7000 C   0  0  0  0  0  0  0  0  0  0  0  0
   -1.1760   24.4320  -27.6510 C   0  0  0  0  0  0  0  0  0  0  0  0
   -1.6860   23.1950  -27.2510 C   0  0  0  0  0  0  0  0  0  0  0  0
   -2.7940   22.6520  -27.9030 C   0  0  0  0  0  0  0  0  0  0  0  0
   -3.4040   23.3430  -28.9630 C   0  0  0  0  0  0  0  0  0  0  0  0
   -4.5220   22.7590  -29.6510 N   0  0  0  0  0  0  0  0  0  0  0  0
   -4.2780   21.7260  -30.6670 C   0  0  0  0  0  0  0  0  0  0  0  0
   -5.3080   21.7990  -31.8160 C   0  0  0  0  0  0  0  0  0  0  0  0
   -6.5610   22.5010  -31.4510 N   0  0  0  0  0  0  0  0  0  0  0  0
   -7.6620   22.0830  -32.3440 C   0  0  0  0  0  0  0  0  0  0  0  0
   -7.8550   20.5870  -32.2980 C   0  0  0  0  0  0  0  0  0  0  0  0
   -8.7270   19.9410  -31.4420 C   0  0  0  0  0  0  0  0  0  0  0  0
   -8.6210   18.5940  -31.7150 C   0  0  0  0  0  0  0  0  0  0  0  0
   -7.6890   18.4660  -32.7290 C   0  0  0  0  0  0  0  0  0  0  0  0
   -7.2710   17.1360  -33.3190 C   0  0  0  0  0  0  0  0  0  0  0  0
   -6.0450   16.5970  -32.6780 N   0  0  0  0  0  0  0  0  0  0  0  0
   -5.2970   17.6800  -31.9790 C   0  0  0  0  0  0  0  0  0  0  0  0
   -4.1330   18.2210  -32.8260 C   0  0  0  0  0  0  0  0  0  0  0  0
   -3.1390   17.1640  -33.1310 N   0  0  0  0  0  0  0  0  0  0  0  0
   -2.3940   17.4930  -34.3570 C   0  0  0  0  0  0  0  0  0  0  0  0
   -3.7310   15.8050  -33.2090 C   0  0  0  0  0  0  0  0  0  0  0  0
   -5.2010   15.8480  -33.6500 C   0  0  0  0  0  0  0  0  0  0  0  0
   -7.2380   19.6890  -33.1050 N   0  0  0  0  0  0  0  0  0  0  0  0
   -6.2160   20.0020  -34.1070 C   0  0  0  0  0  0  0  0  0  0  0  0
   -6.9110   22.2820  -30.0360 C   0  0  0  0  0  0  0  0  0  0  0  0
   -5.8830   22.9910  -29.1550 C   0  0  0  0  0  0  0  0  0  0  0  0
   -5.3097   25.6565  -29.4446 H   0  0  0  0  0  0  0  0  0  0  0  0
   -5.0701   26.5236  -30.9994 H   0  0  0  0  0  0  0  0  0  0  0  0
   -5.4489   24.7677  -30.9994 H   0  0  0  0  0  0  0  0  0  0  0  0
   -1.3714   26.1079  -29.0077 H   0  0  0  0  0  0  0  0  0  0  0  0
   -0.3000   24.8559  -27.1382 H   0  0  0  0  0  0  0  0  0  0  0  0
   -1.2140   22.6482  -26.4214 H   0  0  0  0  0  0  0  0  0  0  0  0
   -3.1920   21.6771  -27.5850 H   0  0  0  0  0  0  0  0  0  0  0  0
   -3.2695   21.8666  -31.0831 H   0  0  0  0  0  0  0  0  0  0  0  0
   -4.3722   20.7420  -30.1845 H   0  0  0  0  0  0  0  0  0  0  0  0
   -4.8469   22.3295  -32.6622 H   0  0  0  0  0  0  0  0  0  0  0  0
   -5.5819   20.7638  -32.0676 H   0  0  0  0  0  0  0  0  0  0  0  0
   -8.5919   22.5760  -32.0242 H   0  0  0  0  0  0  0  0  0  0  0  0
   -7.4079   22.3728  -33.3743 H   0  0  0  0  0  0  0  0  0  0  0  0
   -9.3783   20.4101  -30.6899 H   0  0  0  0  0  0  0  0  0  0  0  0
   -9.1710   17.7789  -31.2220 H   0  0  0  0  0  0  0  0  0  0  0  0
   -8.0895   16.4143  -33.1803 H   0  0  0  0  0  0  0  0  0  0  0  0
   -7.0521   17.2942  -34.3853 H   0  0  0  0  0  0  0  0  0  0  0  0
   -6.3530   15.9180  -31.9410 H   0  0  0  0  0  0  0  0  0  0  0  0
   -5.9903   18.5057  -31.7609 H   0  0  0  0  0  0  0  0  0  0  0  0
   -4.8750   17.2575  -31.0552 H   0  0  0  0  0  0  0  0  0  0  0  0
   -4.5336   18.6169  -33.7709 H   0  0  0  0  0  0  0  0  0  0  0  0
   -3.6281   19.0106  -32.2502 H   0  0  0  0  0  0  0  0  0  0  0  0
   -1.4182   17.9239  -34.0886 H   0  0  0  0  0  0  0  0  0  0  0  0
   -2.2407   16.5789  -34.9493 H   0  0  0  0  0  0  0  0  0  0  0  0
   -2.9663   18.2221  -34.9493 H   0  0  0  0  0  0  0  0  0  0  0  0
   -3.1588   15.2085  -33.9348 H   0  0  0  0  0  0  0  0  0  0  0  0
   -3.6879   15.3551  -32.2061 H   0  0  0  0  0  0  0  0  0  0  0  0
   -5.2647   16.3407  -34.6314 H   0  0  0  0  0  0  0  0  0  0  0  0
   -5.5738   14.8145  -33.7034 H   0  0  0  0  0  0  0  0  0  0  0  0
   -5.2820   20.2880  -33.6012 H   0  0  0  0  0  0  0  0  0  0  0  0
   -6.0363   19.1177  -34.7361 H   0  0  0  0  0  0  0  0  0  0  0  0
   -6.5623   20.8353  -34.7361 H   0  0  0  0  0  0  0  0  0  0  0  0
   -7.9126   22.6905  -29.8361 H   0  0  0  0  0  0  0  0  0  0  0  0
   -6.9105   21.2044  -29.8150 H   0  0  0  0  0  0  0  0  0  0  0  0
   -6.0888   24.0716  -29.1591 H   0  0  0  0  0  0  0  0  0  0  0  0
   -5.9586   22.5902  -28.1334 H   0  0  0  0  0  0  0  0  0  0  0  0
  1  2  1  0
  2  3  1  0
  3  4  2  0
  4  5  1  0
  5  6  2  0
  6  7  1  0
  7  8  2  0
  8  9  1  0
  9 10  1  0
 10 11  1  0
 11 12  1  0
 12 13  1  0
 13 14  1  0
 14 15  2  0
 15 16  1  0
 16 17  2  0
 17 18  1  0
 18 19  1  0
 19 20  1  0
 20 21  1  0
 21 22  1  0
 22 23  1  0
 22 24  1  0
 24 25  1  0
 17 26  1  0
 26 27  1  0
 12 28  1  0
 28 29  1  0
  8  3  1  0
 29  9  1  0
 26 14  1  0
 25 19  1  0
  1 30  1  0
  1 31  1  0
  1 32  1  0
  4 33  1  0
  5 34  1  0
  6 35  1  0
  7 36  1  0
 10 37  1  0
 10 38  1  0
 11 39  1  0
 11 40  1  0
 13 41  1  0
 13 42  1  0
 15 43  1  0
 16 44  1  0
 18 45  1  0
 18 46  1  0
 19 47  1  0
 20 48  1  0
 20 49  1  0
 21 50  1  0
 21 51  1  0
 23 52  1  0
 23 53  1  0
 23 54  1  0
 24 55  1  0
 24 56  1  0
 25 57  1  0
 25 58  1  0
 27 59  1  0
 27 60  1  0
 27 61  1  0
 28 62  1  0
 28 63  1  0
 29 64  1  0
 29 65  1  0
M  CHG  1  19   1
M  END
>  <UniqueID>  (11) 
11

>  <SMILES>  (11) 
COc1ccccc1N1CCN(Cc2ccc(C[NH+]3CCN(C)CC3)n2C)CC1

>  <Energy>  (11) 
115.93152687468934

>  <Genealogy>  (11) 
COc1ccccc1N1CCN(Cc2ccc(C[NH+]3CCN(C)CC3)n2C)CC1 (protonated)
COc1ccccc1N1CCN(Cc2ccc(C[NH+]3CCN(C)CC3)n2C)CC1 (3D coordinates assigned)
COc1ccccc1N1CCN(Cc2ccc(C[NH+]3CCN(C)CC3)n2C)CC1 (nonaromatic ring conformer: 115.93152687468934 kcal/mol)

>  <smiles>  (11) 
COc1ccccc1N1CCN(Cc2ccc(CN3CCN(C)CC3)n2C)CC1

>  <score_type>  (11) 
oracle

>  <origin>  (11) 
adgpu

>  <m_score__min__energy>  (11) 
-7.8899999999999997

>  <m_primary>  (11) 
energy

$$$$
11:0
     RDKit          3D

 38 40  0  0  0  0  0  0  0  0999 V2000
   -4.8050   25.0950  -30.3600 C   0  0  0  0  0  0  0  0  0  0  0  0
   -3.4530   24.5360  -30.0350 C   0  0  0  0  0  0  0  0  0  0  0  0
   -2.5760   25.2980  -29.3270 N   0  0  0  0  0  0  0  0  0  0  0  0
   -1.3360   24.8420  -29.0160 C   0  0  0  0  0  0  0  0  0  0  0  0
   -0.5480   25.5670  -28.3560 O   0  0  0  0  0  0  0  0  0  0  0  0
   -0.9450   23.6060  -29.4160 N   0  0  0  0  0  0  0  0  0  0  0  0
   -1.7760   22.8060  -30.1320 C   0  0  0  0  0  0  0  0  0  0  0  0
   -1.3800   21.6690  -30.4990 O   0  0  0  0  0  0  0  0  0  0  0  0
   -3.0620   23.2550  -30.4680 C   0  0  0  0  0  0  0  0  0  0  0  0
   -3.9480   22.4210  -31.2300 N   0  0  0  0  0  0  0  0  0  0  0  0
   -5.0490   21.7320  -30.5430 C   0  0  0  0  0  0  0  0  0  0  0  0
   -5.9600   21.0070  -31.5390 C   0  0  0  0  0  0  0  0  0  0  0  0
   -5.1500   20.2540  -32.5050 N   0  0  0  0  0  0  0  0  0  0  0  0
   -5.5300   18.9180  -32.8770 C   0  0  0  0  0  0  0  0  0  0  0  0
   -4.5330   17.9530  -33.0900 C   0  0  0  0  0  0  0  0  0  0  0  0
   -4.8790   16.6460  -33.4440 C   0  0  0  0  0  0  0  0  0  0  0  0
   -6.2210   16.2920  -33.5920 C   0  0  0  0  0  0  0  0  0  0  0  0
   -7.2220   17.2450  -33.3900 C   0  0  0  0  0  0  0  0  0  0  0  0
   -6.8860   18.5590  -33.0340 C   0  0  0  0  0  0  0  0  0  0  0  0
   -7.9410   19.5300  -32.8710 C   0  0  0  0  0  0  0  0  0  0  0  0
   -8.7860   20.3090  -32.7410 N   0  0  0  0  0  0  0  0  0  0  0  0
   -3.9620   20.8590  -33.1230 C   0  0  0  0  0  0  0  0  0  0  0  0
   -3.7830   22.3150  -32.6830 C   0  0  0  0  0  0  0  0  0  0  0  0
   -5.3436   25.3177  -29.4271 H   0  0  0  0  0  0  0  0  0  0  0  0
   -4.6887   26.0188  -30.9457 H   0  0  0  0  0  0  0  0  0  0  0  0
   -5.3750   24.3588  -30.9457 H   0  0  0  0  0  0  0  0  0  0  0  0
   -4.6289   20.9968  -29.8409 H   0  0  0  0  0  0  0  0  0  0  0  0
   -5.6483   22.4832  -30.0077 H   0  0  0  0  0  0  0  0  0  0  0  0
   -6.6158   20.3123  -30.9937 H   0  0  0  0  0  0  0  0  0  0  0  0
   -6.5678   21.7486  -32.0781 H   0  0  0  0  0  0  0  0  0  0  0  0
   -3.4736   18.2270  -32.9777 H   0  0  0  0  0  0  0  0  0  0  0  0
   -4.0921   15.8947  -33.6063 H   0  0  0  0  0  0  0  0  0  0  0  0
   -6.4905   15.2618  -33.8679 H   0  0  0  0  0  0  0  0  0  0  0  0
   -8.2785   16.9635  -33.5107 H   0  0  0  0  0  0  0  0  0  0  0  0
   -3.0724   20.2837  -32.8269 H   0  0  0  0  0  0  0  0  0  0  0  0
   -4.0929   20.8411  -34.2150 H   0  0  0  0  0  0  0  0  0  0  0  0
   -2.7761   22.6591  -32.9618 H   0  0  0  0  0  0  0  0  0  0  0  0
   -4.5402   22.9393  -33.1800 H   0  0  0  0  0  0  0  0  0  0  0  0
  1  2  1  0
  2  3  1  0
  3  4  1  0
  4  5  2  0
  4  6  1  0
  6  7  1  0
  7  8  2  0
  7  9  1  0
  9 10  1  0
 10 11  1  0
 11 12  1  0
 12 13  1  0
 13 14  1  0
 14 15  2  0
 15 16  1  0
 16 17  2  0
 17 18  1  0
 18 19  2  0
 19 20  1  0
 20 21  3  0
 13 22  1  0
 22 23  1  0
  9  2  2  0
 23 10  1  0
 19 14  1  0
  1 24  1  0
  1 25  1  0
  1 26  1  0
 11 27  1  0
 11 28  1  0
 12 29  1  0
 12 30  1  0
 15 31  1  0
 16 32  1  0
 17 33  1  0
 18 34  1  0
 22 35  1  0
 22 36  1  0
 23 37  1  0
 23 38  1  0
M  CHG  2   3  -1   6  -1
M  END
>  <UniqueID>  (12) 
12

>  <SMILES>  (12) 
Cc1[n-]c(=O)[n-]c(=O)c1N1CCN(c2ccccc2C#N)CC1

>  <Energy>  (12) 
50.492258828867875

>  <Genealogy>  (12) 
Cc1[n-]c(=O)[n-]c(=O)c1N1CCN(c2ccccc2C#N)CC1 (protonated)
Cc1[n-]c(=O)[n-]c(=O)c1N1CCN(c2ccccc2C#N)CC1 (3D coordinates assigned)
Cc1[n-]c(=O)[n-]c(=O)c1N1CCN(c2ccccc2C#N)CC1 (nonaromatic ring conformer: 50.492258828867875 kcal/mol)

>  <smiles>  (12) 
Cc1[nH]c(=O)[nH]c(=O)c1N1CCN(c2ccccc2C#N)CC1

>  <score_type>  (12) 
oracle

>  <origin>  (12) 
adgpu

>  <m_score__min__energy>  (12) 
-10.43

>  <m_primary>  (12) 
energy

$$$$
12:0
     RDKit          3D

 50 53  0  0  0  0  0  0  0  0999 V2000
    0.3010   25.8150  -25.4390 O   0  0  0  0  0  0  0  0  0  0  0  0
   -0.8120   25.4860  -25.9270 C   0  0  0  0  0  0  0  0  0  0  0  0
   -2.1350   25.9450  -25.4120 C   0  0  0  0  0  0  0  0  0  0  0  0
   -3.1640   25.2610  -26.3450 C   0  0  0  0  0  0  0  0  0  0  0  0
   -2.3310   24.4840  -27.3150 C   0  0  0  0  0  0  0  0  0  0  0  0
   -2.7850   23.7050  -28.3810 C   0  0  0  0  0  0  0  0  0  0  0  0
   -1.8390   23.0680  -29.2080 C   0  0  0  0  0  0  0  0  0  0  0  0
   -2.3670   22.0770  -30.5690 S   0  0  0  0  0  0  0  0  0  0  0  0
   -3.1120   20.8710  -30.0670 O   0  0  0  0  0  0  0  0  0  0  0  0
   -1.1670   21.6100  -31.3450 O   0  0  0  0  0  0  0  0  0  0  0  0
   -3.3790   23.0160  -31.6120 N   0  0  0  0  0  0  0  0  0  0  0  0
   -4.6710   23.4500  -31.1870 C   0  0  0  0  0  0  0  0  0  0  0  0
   -5.7410   22.5520  -31.2340 C   0  0  0  0  0  0  0  0  0  0  0  0
   -7.0380   22.9770  -30.9200 C   0  0  0  0  0  0  0  0  0  0  0  0
   -8.3950   21.8630  -31.0810 S   0  0  0  0  0  0  0  0  0  0  0  0
   -9.3220   22.3520  -32.1590 O   0  0  0  0  0  0  0  0  0  0  0  0
   -9.1600   21.8300  -29.7880 O   0  0  0  0  0  0  0  0  0  0  0  0
   -7.8510   20.2510  -31.4790 N   0  0  0  0  0  0  0  0  0  0  0  0
   -8.9560   19.2810  -31.3140 C   0  0  0  0  0  0  0  0  0  0  0  0
   -8.6490   17.9170  -31.9720 C   0  0  0  0  0  0  0  0  0  0  0  0
   -7.1490   17.7340  -32.2290 C   0  0  0  0  0  0  0  0  0  0  0  0
   -6.5810   18.8790  -33.0850 C   0  0  0  0  0  0  0  0  0  0  0  0
   -7.3120   20.2110  -32.8470 C   0  0  0  0  0  0  0  0  0  0  0  0
   -7.2520   24.3030  -30.5180 C   0  0  0  0  0  0  0  0  0  0  0  0
   -6.1800   25.1950  -30.4370 C   0  0  0  0  0  0  0  0  0  0  0  0
   -4.8890   24.7740  -30.7730 C   0  0  0  0  0  0  0  0  0  0  0  0
   -3.8320   25.6710  -30.6880 O   0  0  0  0  0  0  0  0  0  0  0  0
   -0.4620   23.2090  -28.9370 C   0  0  0  0  0  0  0  0  0  0  0  0
   -0.0270   23.9890  -27.8540 C   0  0  0  0  0  0  0  0  0  0  0  0
   -0.9890   24.6190  -27.0640 C   0  0  0  0  0  0  0  0  0  0  0  0
   -2.2803   25.6248  -24.3697 H   0  0  0  0  0  0  0  0  0  0  0  0
   -2.2298   27.0409  -25.4118 H   0  0  0  0  0  0  0  0  0  0  0  0
   -3.8220   24.5903  -25.7730 H   0  0  0  0  0  0  0  0  0  0  0  0
   -3.8219   25.9866  -26.8457 H   0  0  0  0  0  0  0  0  0  0  0  0
   -3.8623   23.5907  -28.5717 H   0  0  0  0  0  0  0  0  0  0  0  0
   -5.5633   21.5047  -31.5195 H   0  0  0  0  0  0  0  0  0  0  0  0
   -9.1294   19.1232  -30.2393 H   0  0  0  0  0  0  0  0  0  0  0  0
   -9.8445   19.6989  -31.8098 H   0  0  0  0  0  0  0  0  0  0  0  0
   -8.9967   17.1139  -31.3056 H   0  0  0  0  0  0  0  0  0  0  0  0
   -9.1690   17.8798  -32.9406 H   0  0  0  0  0  0  0  0  0  0  0  0
   -6.6209   17.7127  -31.2643 H   0  0  0  0  0  0  0  0  0  0  0  0
   -7.0045   16.7900  -32.7748 H   0  0  0  0  0  0  0  0  0  0  0  0
   -5.5176   19.0110  -32.8367 H   0  0  0  0  0  0  0  0  0  0  0  0
   -6.7188   18.6063  -34.1417 H   0  0  0  0  0  0  0  0  0  0  0  0
   -6.6065   21.0436  -32.9851 H   0  0  0  0  0  0  0  0  0  0  0  0
   -8.1407   20.3016  -33.5647 H   0  0  0  0  0  0  0  0  0  0  0  0
   -8.2675   24.6421  -30.2655 H   0  0  0  0  0  0  0  0  0  0  0  0
   -6.3514   26.2307  -30.1083 H   0  0  0  0  0  0  0  0  0  0  0  0
    0.2757   22.7045  -29.5784 H   0  0  0  0  0  0  0  0  0  0  0  0
    1.0449   24.1006  -27.6338 H   0  0  0  0  0  0  0  0  0  0  0  0
  1  2  2  0
  2  3  1  0
  3  4  1  0
  4  5  1  0
  5  6  2  0
  6  7  1  0
  7  8  1  0
  8  9  2  0
  8 10  2  0
  8 11  1  0
 11 12  1  0
 12 13  2  0
 13 14  1  0
 14 15  1  0
 15 16  2  0
 15 17  2  0
 15 18  1  0
 18 19  1  0
 19 20  1  0
 20 21  1  0
 21 22  1  0
 22 23  1  0
 14 24  2  0
 24 25  1  0
 25 26  2  0
 26 27  1  0
  7 28  2  0
 28 29  1  0
 29 30  2  0
 30  2  1  0
 30  5  1  0
 26 12  1  0
 23 18  1  0
  3 31  1  0
  3 32  1  0
  4 33  1  0
  4 34  1  0
  6 35  1  0
 13 36  1  0
 19 37  1  0
 19 38  1  0
 20 39  1  0
 20 40  1  0
 21 41  1  0
 21 42  1  0
 22 43  1  0
 22 44  1  0
 23 45  1  0
 23 46  1  0
 24 47  1  0
 25 48  1  0
 28 49  1  0
 29 50  1  0
M  CHG  2  11  -1  27  -1
M  END
>  <UniqueID>  (13) 
13

>  <SMILES>  (13) 
O=C1CCc2cc(S(=O)(=O)[N-]c3cc(S(=O)(=O)N4CCCCC4)ccc3[O-])ccc21

>  <Energy>  (13) 
71.81878041962177

>  <Genealogy>  (13) 
O=C1CCc2cc(S(=O)(=O)[N-]c3cc(S(=O)(=O)N4CCCCC4)ccc3[O-])ccc21 (protonated)
O=C1CCc2cc(S(=O)(=O)[N-]c3cc(S(=O)(=O)N4CCCCC4)ccc3[O-])ccc21 (3D coordinates assigned)
O=C1CCc2cc(S(=O)(=O)[N-]c3cc(S(=O)(=O)N4CCCCC4)ccc3[O-])ccc21 (nonaromatic ring conformer: 71.81878041962177 kcal/mol)

>  <smiles>  (13) 
O=C1CCc2cc(S(=O)(=O)Nc3cc(S(=O)(=O)N4CCCCC4)ccc3O)ccc21

>  <score_type>  (13) 
oracle

>  <origin>  (13) 
adgpu

>  <m_score__min__energy>  (13) 
-15.050000000000001

>  <m_primary>  (13) 
energy

$$$$
13:0
     RDKit          3D

 57 61  0  0  0  0  0  0  0  0999 V2000
   -2.6750   20.4780  -31.8320 O   0  0  0  0  0  0  0  0  0  0  0  0
   -3.5670   21.3720  -31.8360 C   0  0  0  0  0  0  0  0  0  0  0  0
   -4.4300   21.5440  -33.0600 C   0  0  0  0  0  0  0  0  0  0  0  0
   -5.6370   20.6810  -33.0020 N   0  0  0  0  0  0  0  0  0  0  0  0
   -5.5550   19.3540  -33.3940 C   0  0  0  0  0  0  0  0  0  0  0  0
   -4.4220   18.8410  -34.0800 C   0  0  0  0  0  0  0  0  0  0  0  0
   -4.3400   17.4920  -34.4290 C   0  0  0  0  0  0  0  0  0  0  0  0
   -5.3780   16.6220  -34.1190 C   0  0  0  0  0  0  0  0  0  0  0  0
   -6.5180   17.1000  -33.4770 C   0  0  0  0  0  0  0  0  0  0  0  0
   -6.6280   18.4620  -33.1250 C   0  0  0  0  0  0  0  0  0  0  0  0
   -7.7930   18.9460  -32.5170 C   0  0  0  0  0  0  0  0  0  0  0  0
   -8.7410   18.1570  -32.2470 O   0  0  0  0  0  0  0  0  0  0  0  0
   -7.9160   20.3130  -32.2350 C   0  0  0  0  0  0  0  0  0  0  0  0
   -9.1110   20.8230  -31.6860 C   0  0  0  0  0  0  0  0  0  0  0  0
   -9.2580   22.1870  -31.4520 C   0  0  0  0  0  0  0  0  0  0  0  0
   -8.2280   23.0620  -31.7770 C   0  0  0  0  0  0  0  0  0  0  0  0
   -7.0350   22.5770  -32.3140 C   0  0  0  0  0  0  0  0  0  0  0  0
   -6.8340   21.1880  -32.5210 C   0  0  0  0  0  0  0  0  0  0  0  0
   -3.7300   22.2250  -30.6830 N   0  0  0  0  0  0  0  0  0  0  0  0
   -3.1870   21.8090  -29.3800 C   0  0  0  0  0  0  0  0  0  0  0  0
   -4.1210   22.2690  -28.2590 C   0  0  0  0  0  0  0  0  0  0  0  0
   -4.3650   23.8030  -28.2760 C   0  0  0  0  0  0  0  0  0  0  0  0
   -3.6910   24.5400  -27.0900 C   0  0  0  0  0  0  0  0  0  0  0  0
   -2.1770   24.5120  -27.1110 C   0  0  0  0  0  0  0  0  0  0  0  0
   -1.4430   25.6590  -27.4570 C   0  0  0  0  0  0  0  0  0  0  0  0
   -0.0440   25.6250  -27.4760 C   0  0  0  0  0  0  0  0  0  0  0  0
    0.6340   24.4440  -27.1600 C   0  0  0  0  0  0  0  0  0  0  0  0
   -0.0870   23.2940  -26.8310 C   0  0  0  0  0  0  0  0  0  0  0  0
   -1.4850   23.3240  -26.8120 C   0  0  0  0  0  0  0  0  0  0  0  0
   -4.0350   24.4530  -29.6430 C   0  0  0  0  0  0  0  0  0  0  0  0
   -4.4000   23.5310  -30.8110 C   0  0  0  0  0  0  0  0  0  0  0  0
   -4.7457   22.5954  -33.1296 H   0  0  0  0  0  0  0  0  0  0  0  0
   -3.8400   21.2524  -33.9414 H   0  0  0  0  0  0  0  0  0  0  0  0
   -3.5953   19.5182  -34.3406 H   0  0  0  0  0  0  0  0  0  0  0  0
   -3.4487   17.1156  -34.9523 H   0  0  0  0  0  0  0  0  0  0  0  0
   -5.2996   15.5564  -34.3804 H   0  0  0  0  0  0  0  0  0  0  0  0
   -7.3408   16.4088  -33.2421 H   0  0  0  0  0  0  0  0  0  0  0  0
   -9.9344   20.1362  -31.4405 H   0  0  0  0  0  0  0  0  0  0  0  0
  -10.1887   22.5724  -31.0101 H   0  0  0  0  0  0  0  0  0  0  0  0
   -8.3540   24.1419  -31.6100 H   0  0  0  0  0  0  0  0  0  0  0  0
   -6.2361   23.2842  -32.5816 H   0  0  0  0  0  0  0  0  0  0  0  0
   -3.0980   20.7129  -29.3545 H   0  0  0  0  0  0  0  0  0  0  0  0
   -2.1960   22.2646  -29.2372 H   0  0  0  0  0  0  0  0  0  0  0  0
   -5.0879   21.7572  -28.3739 H   0  0  0  0  0  0  0  0  0  0  0  0
   -3.6406   22.0188  -27.3016 H   0  0  0  0  0  0  0  0  0  0  0  0
   -5.4485   23.9277  -28.1326 H   0  0  0  0  0  0  0  0  0  0  0  0
   -4.0153   25.5909  -27.1098 H   0  0  0  0  0  0  0  0  0  0  0  0
   -4.0007   24.0109  -26.1767 H   0  0  0  0  0  0  0  0  0  0  0  0
   -1.9709   26.5891  -27.7144 H   0  0  0  0  0  0  0  0  0  0  0  0
    0.5234   26.5296  -27.7402 H   0  0  0  0  0  0  0  0  0  0  0  0
    1.7337   24.4205  -27.1705 H   0  0  0  0  0  0  0  0  0  0  0  0
    0.4456   22.3632  -26.5864 H   0  0  0  0  0  0  0  0  0  0  0  0
   -2.0475   22.4125  -26.5616 H   0  0  0  0  0  0  0  0  0  0  0  0
   -4.6022   25.3907  -29.7382 H   0  0  0  0  0  0  0  0  0  0  0  0
   -2.9520   24.6422  -29.6806 H   0  0  0  0  0  0  0  0  0  0  0  0
   -5.4891   23.3770  -30.8208 H   0  0  0  0  0  0  0  0  0  0  0  0
   -4.0689   24.0041  -31.7472 H   0  0  0  0  0  0  0  0  0  0  0  0
  1  2  2  0
  2  3  1  0
  3  4  1  0
  4  5  1  0
  5  6  2  0
  6  7  1  0
  7  8  2  0
  8  9  1  0
  9 10  2  0
 10 11  1  0
 11 12  2  0
 11 13  1  0
 13 14  2  0
 14 15  1  0
 15 16  2  0
 16 17  1  0
 17 18  2  0
  2 19  1  0
 19 20  1  0
 20 21  1  0
 21 22  1  0
 22 23  1  0
 23 24  1  0
 24 25  2  0
 25 26  1  0
 26 27  2  0
 27 28  1  0
 28 29  2  0
 22 30  1  0
 30 31  1  0
 18  4  1  0
 31 19  1  0
 10  5  1  0
 18 13  1  0
 29 24  1  0
  3 32  1  0
  3 33  1  0
  6 34  1  0
  7 35  1  0
  8 36  1  0
  9 37  1  0
 14 38  1  0
 15 39  1  0
 16 40  1  0
 17 41  1  0
 20 42  1  0
 20 43  1  0
 21 44  1  0
 21 45  1  0
 22 46  1  0
 23 47  1  0
 23 48  1  0
 25 49  1  0
 26 50  1  0
 27 51  1  0
 28 52  1  0
 29 53  1  0
 30 54  1  0
 30 55  1  0
 31 56  1  0
 31 57  1  0
M  END
>  <UniqueID>  (14) 
14

>  <SMILES>  (14) 
O=C(Cn1c2ccccc2c(=O)c2ccccc21)N1CCC(Cc2ccccc2)CC1

>  <Energy>  (14) 
86.01731185317864

>  <Genealogy>  (14) 
O=C(Cn1c2ccccc2c(=O)c2ccccc21)N1CCC(Cc2ccccc2)CC1 (3D coordinates assigned)
O=C(Cn1c2ccccc2c(=O)c2ccccc21)N1CCC(Cc2ccccc2)CC1 (nonaromatic ring conformer: 86.01731185317864 kcal/mol)

>  <smiles>  (14) 
O=C(Cn1c2ccccc2c(=O)c2ccccc21)N1CCC(Cc2ccccc2)CC1

>  <score_type>  (14) 
oracle

>  <origin>  (14) 
adgpu

>  <m_score__min__energy>  (14) 
-10.369999999999999

>  <m_primary>  (14) 
energy

$$$$
14:0
     RDKit          3D

 52 55  0  0  0  0  0  0  0  0999 V2000
   -6.8630   16.3570  -33.9790 C   0  0  0  0  0  0  0  0  0  0  0  0
   -6.6960   17.7560  -33.4650 C   0  0  0  0  0  0  0  0  0  0  0  0
   -5.6740   18.5750  -33.9660 C   0  0  0  0  0  0  0  0  0  0  0  0
   -5.4940   19.8660  -33.4600 C   0  0  0  0  0  0  0  0  0  0  0  0
   -6.3240   20.3520  -32.4350 C   0  0  0  0  0  0  0  0  0  0  0  0
   -6.1320   21.7170  -31.9000 C   0  0  0  0  0  0  0  0  0  0  0  0
   -5.9820   22.8130  -32.6730 N   0  0  0  0  0  0  0  0  0  0  0  0
   -5.8470   23.7970  -31.8380 O   0  0  0  0  0  0  0  0  0  0  0  0
   -5.9060   23.3430  -30.6110 C   0  0  0  0  0  0  0  0  0  0  0  0
   -5.8190   24.2000  -29.3910 C   0  0  0  0  0  0  0  0  0  0  0  0
   -4.4470   24.1790  -28.8600 N   0  0  0  0  0  0  0  0  0  0  0  0
   -4.2490   23.8270  -27.5510 C   0  0  0  0  0  0  0  0  0  0  0  0
   -2.9680   23.8220  -27.0000 C   0  0  0  0  0  0  0  0  0  0  0  0
   -1.8750   24.1880  -27.7880 C   0  0  0  0  0  0  0  0  0  0  0  0
   -0.2480   24.1730  -27.1110 S   0  0  0  0  0  0  0  0  0  0  0  0
    0.0050   22.8510  -26.4400 O   0  0  0  0  0  0  0  0  0  0  0  0
    0.7520   24.3350  -28.2220 O   0  0  0  0  0  0  0  0  0  0  0  0
   -0.0270   25.4960  -25.9180 C   0  0  0  0  0  0  0  0  0  0  0  0
   -0.4150   25.0330  -24.4940 C   0  0  0  0  0  0  0  0  0  0  0  0
   -0.8190   26.1960  -23.5620 C   0  0  0  0  0  0  0  0  0  0  0  0
   -0.1420   27.5100  -23.9600 C   0  0  0  0  0  0  0  0  0  0  0  0
   -0.5230   27.9360  -25.3920 C   0  0  0  0  0  0  0  0  0  0  0  0
   -0.8190   26.7470  -26.3300 C   0  0  0  0  0  0  0  0  0  0  0  0
   -2.0870   24.5610  -29.1180 C   0  0  0  0  0  0  0  0  0  0  0  0
   -3.3840   24.5570  -29.6420 C   0  0  0  0  0  0  0  0  0  0  0  0
   -3.5600   24.9080  -30.8410 O   0  0  0  0  0  0  0  0  0  0  0  0
   -6.0930   22.0100  -30.5810 N   0  0  0  0  0  0  0  0  0  0  0  0
   -7.3340   19.5210  -31.9240 C   0  0  0  0  0  0  0  0  0  0  0  0
   -7.5160   18.2300  -32.4310 C   0  0  0  0  0  0  0  0  0  0  0  0
   -6.9460   15.6620  -33.1304 H   0  0  0  0  0  0  0  0  0  0  0  0
   -7.7746   16.2979  -34.5918 H   0  0  0  0  0  0  0  0  0  0  0  0
   -5.9910   16.0850  -34.5918 H   0  0  0  0  0  0  0  0  0  0  0  0
   -5.0114   18.2004  -34.7601 H   0  0  0  0  0  0  0  0  0  0  0  0
   -4.6972   20.5059  -33.8670 H   0  0  0  0  0  0  0  0  0  0  0  0
   -6.0936   25.2330  -29.6508 H   0  0  0  0  0  0  0  0  0  0  0  0
   -6.5087   23.8124  -28.6267 H   0  0  0  0  0  0  0  0  0  0  0  0
   -5.1102   23.5451  -26.9275 H   0  0  0  0  0  0  0  0  0  0  0  0
   -2.8193   23.5311  -25.9496 H   0  0  0  0  0  0  0  0  0  0  0  0
    1.0401   25.7628  -25.9035 H   0  0  0  0  0  0  0  0  0  0  0  0
   -1.2636   24.3374  -24.5722 H   0  0  0  0  0  0  0  0  0  0  0  0
    0.4729   24.5561  -24.0534 H   0  0  0  0  0  0  0  0  0  0  0  0
   -1.9098   26.3289  -23.6119 H   0  0  0  0  0  0  0  0  0  0  0  0
   -0.4960   25.9422  -22.5416 H   0  0  0  0  0  0  0  0  0  0  0  0
   -0.4533   28.2982  -23.2587 H   0  0  0  0  0  0  0  0  0  0  0  0
    0.9471   27.3594  -23.9250 H   0  0  0  0  0  0  0  0  0  0  0  0
   -1.4205   28.5698  -25.3395 H   0  0  0  0  0  0  0  0  0  0  0  0
    0.3419   28.4711  -25.8112 H   0  0  0  0  0  0  0  0  0  0  0  0
   -1.8943   26.5189  -26.2900 H   0  0  0  0  0  0  0  0  0  0  0  0
   -0.5167   27.0274  -27.3498 H   0  0  0  0  0  0  0  0  0  0  0  0
   -1.2370   24.8567  -29.7505 H   0  0  0  0  0  0  0  0  0  0  0  0
   -7.9872   19.8881  -31.1187 H   0  0  0  0  0  0  0  0  0  0  0  0
   -8.3049   17.5846  -32.0172 H   0  0  0  0  0  0  0  0  0  0  0  0
  1  2  1  0
  2  3  2  0
  3  4  1  0
  4  5  2  0
  5  6  1  0
  6  7  2  0
  7  8  1  0
  8  9  1  0
  9 10  1  0
 10 11  1  0
 11 12  1  0
 12 13  2  0
 13 14  1  0
 14 15  1  0
 15 16  2  0
 15 17  2  0
 15 18  1  0
 18 19  1  0
 19 20  1  0
 20 21  1  0
 21 22  1  0
 22 23  1  0
 14 24  2  0
 24 25  1  0
 25 26  2  0
  9 27  2  0
  5 28  1  0
 28 29  2  0
 29  2  1  0
 27  6  1  0
 25 11  1  0
 23 18  1  0
  1 30  1  0
  1 31  1  0
  1 32  1  0
  3 33  1  0
  4 34  1  0
 10 35  1  0
 10 36  1  0
 12 37  1  0
 13 38  1  0
 18 39  1  0
 19 40  1  0
 19 41  1  0
 20 42  1  0
 20 43  1  0
 21 44  1  0
 21 45  1  0
 22 46  1  0
 22 47  1  0
 23 48  1  0
 23 49  1  0
 24 50  1  0
 28 51  1  0
 29 52  1  0
M  END
>  <UniqueID>  (15) 
15

>  <SMILES>  (15) 
Cc1ccc(-c2noc(Cn3ccc(S(=O)(=O)C4CCCCC4)cc3=O)n2)cc1

>  <Energy>  (15) 
87.0106768407104

>  <Genealogy>  (15) 
Cc1ccc(-c2noc(Cn3ccc(S(=O)(=O)C4CCCCC4)cc3=O)n2)cc1 (3D coordinates assigned)
Cc1ccc(-c2noc(Cn3ccc(S(=O)(=O)C4CCCCC4)cc3=O)n2)cc1 (nonaromatic ring conformer: 87.0106768407104 kcal/mol)

>  <smiles>  (15) 
Cc1ccc(-c2noc(Cn3ccc(S(=O)(=O)C4CCCCC4)cc3=O)n2)cc1

>  <score_type>  (15) 
oracle

>  <origin>  (15) 
adgpu

>  <m_score__min__energy>  (15) 
-10.869999999999999

>  <m_primary>  (15) 
energy

$$$$
15:0
     RDKit          3D

 67 71  0  0  0  0  0  0  0  0999 V2000
   -2.1550   22.4790  -31.6750 O   0  0  0  0  0  0  0  0  0  0  0  0
   -3.3890   22.6930  -31.5570 C   0  0  0  0  0  0  0  0  0  0  0  0
   -3.8170   23.8310  -30.7950 N   0  0  0  0  0  0  0  0  0  0  0  0
   -3.5310   24.0750  -29.4080 C   0  0  0  0  0  0  0  0  0  0  0  0
   -4.5570   24.3430  -28.4860 C   0  0  0  0  0  0  0  0  0  0  0  0
   -4.2480   24.5710  -27.1430 C   0  0  0  0  0  0  0  0  0  0  0  0
   -2.9180   24.5590  -26.7170 C   0  0  0  0  0  0  0  0  0  0  0  0
   -1.8850   24.3210  -27.6330 C   0  0  0  0  0  0  0  0  0  0  0  0
   -0.2070   24.3470  -27.0960 S   0  0  0  0  0  0  0  0  0  0  0  0
    0.6940   24.4990  -28.2900 O   0  0  0  0  0  0  0  0  0  0  0  0
    0.1180   23.0460  -26.4150 O   0  0  0  0  0  0  0  0  0  0  0  0
    0.0380   25.6890  -26.0030 N   0  0  0  0  0  0  0  0  0  0  0  0
   -0.6400   26.8940  -26.4820 C   0  0  0  0  0  0  0  0  0  0  0  0
   -1.0620   27.6940  -25.2560 C   0  0  0  0  0  0  0  0  0  0  0  0
   -0.8810   26.7550  -24.0760 C   0  0  0  0  0  0  0  0  0  0  0  0
   -0.5350   25.4110  -24.6910 C   0  0  0  0  0  0  0  0  0  0  0  0
   -2.1950   24.0950  -28.9820 C   0  0  0  0  0  0  0  0  0  0  0  0
   -4.3550   21.7420  -32.1670 C   0  0  0  0  0  0  0  0  0  0  0  0
   -5.7350   22.0030  -32.1330 C   0  0  0  0  0  0  0  0  0  0  0  0
   -6.6370   21.1150  -32.7180 C   0  0  0  0  0  0  0  0  0  0  0  0
   -6.1780   19.9380  -33.3020 C   0  0  0  0  0  0  0  0  0  0  0  0
   -4.8130   19.6320  -33.3180 C   0  0  0  0  0  0  0  0  0  0  0  0
   -4.4180   18.4010  -33.9510 N   0  0  0  0  0  0  0  0  0  0  0  0
   -3.1150   17.8960  -34.2890 C   0  0  0  0  0  0  0  0  0  0  0  0
   -2.9870   16.8850  -35.0270 O   0  0  0  0  0  0  0  0  0  0  0  0
   -1.9110   18.6030  -33.7870 C   0  0  0  0  0  0  0  0  0  0  0  0
   -1.2130   19.5040  -34.6170 C   0  0  0  0  0  0  0  0  0  0  0  0
   -0.0670   20.1610  -34.1530 C   0  0  0  0  0  0  0  0  0  0  0  0
    0.3920   19.9370  -32.8570 C   0  0  0  0  0  0  0  0  0  0  0  0
   -0.2750   19.0320  -32.0210 C   0  0  0  0  0  0  0  0  0  0  0  0
    0.2220   18.8160  -30.6970 N   0  0  0  0  0  0  0  0  0  0  0  0
    0.2670   20.0630  -29.4930 S   0  0  0  0  0  0  0  0  0  0  0  0
    0.1270   21.4220  -30.1190 O   0  0  0  0  0  0  0  0  0  0  0  0
    1.5920   20.0030  -28.7870 O   0  0  0  0  0  0  0  0  0  0  0  0
   -1.0460   19.7900  -28.3530 C   0  0  0  0  0  0  0  0  0  0  0  0
   -0.9650   18.7260  -27.4390 C   0  0  0  0  0  0  0  0  0  0  0  0
   -1.9800   18.5290  -26.4970 C   0  0  0  0  0  0  0  0  0  0  0  0
   -3.0790   19.3920  -26.4600 C   0  0  0  0  0  0  0  0  0  0  0  0
   -3.1630   20.4560  -27.3630 C   0  0  0  0  0  0  0  0  0  0  0  0
   -2.1500   20.6560  -28.3090 C   0  0  0  0  0  0  0  0  0  0  0  0
   -1.4350   18.3780  -32.4810 C   0  0  0  0  0  0  0  0  0  0  0  0
   -3.9000   20.5460  -32.7530 C   0  0  0  0  0  0  0  0  0  0  0  0
   -5.6040   24.3733  -28.8220 H   0  0  0  0  0  0  0  0  0  0  0  0
   -5.0542   24.7605  -26.4191 H   0  0  0  0  0  0  0  0  0  0  0  0
   -2.6805   24.7372  -25.6578 H   0  0  0  0  0  0  0  0  0  0  0  0
    0.0452   27.4899  -27.1028 H   0  0  0  0  0  0  0  0  0  0  0  0
   -1.5144   26.6311  -27.0954 H   0  0  0  0  0  0  0  0  0  0  0  0
   -0.4259   28.5839  -25.1401 H   0  0  0  0  0  0  0  0  0  0  0  0
   -2.0995   28.0500  -25.3386 H   0  0  0  0  0  0  0  0  0  0  0  0
   -0.0650   27.1040  -23.4261 H   0  0  0  0  0  0  0  0  0  0  0  0
   -1.7832   26.7018  -23.4489 H   0  0  0  0  0  0  0  0  0  0  0  0
    0.1961   24.8824  -24.0617 H   0  0  0  0  0  0  0  0  0  0  0  0
   -1.4261   24.7714  -24.7744 H   0  0  0  0  0  0  0  0  0  0  0  0
   -1.3861   23.9326  -29.7096 H   0  0  0  0  0  0  0  0  0  0  0  0
   -6.1066   22.9142  -31.6415 H   0  0  0  0  0  0  0  0  0  0  0  0
   -7.7127   21.3450  -32.7179 H   0  0  0  0  0  0  0  0  0  0  0  0
   -6.8969   19.2402  -33.7563 H   0  0  0  0  0  0  0  0  0  0  0  0
   -1.5724   19.6927  -35.6394 H   0  0  0  0  0  0  0  0  0  0  0  0
    0.4723   20.8559  -34.8136 H   0  0  0  0  0  0  0  0  0  0  0  0
    1.2801   20.4718  -32.4892 H   0  0  0  0  0  0  0  0  0  0  0  0
   -0.1008   18.0459  -27.4643 H   0  0  0  0  0  0  0  0  0  0  0  0
   -1.9133   17.6938  -25.7843 H   0  0  0  0  0  0  0  0  0  0  0  0
   -3.8778   19.2340  -25.7204 H   0  0  0  0  0  0  0  0  0  0  0  0
   -4.0261   21.1371  -27.3304 H   0  0  0  0  0  0  0  0  0  0  0  0
   -2.2195   21.4933  -29.0190 H   0  0  0  0  0  0  0  0  0  0  0  0
   -1.9726   17.6868  -31.8153 H   0  0  0  0  0  0  0  0  0  0  0  0
   -2.8231   20.3224  -32.7704 H   0  0  0  0  0  0  0  0  0  0  0  0
  1  2  2  0
  2  3  1  0
  3  4  1  0
  4  5  2  0
  5  6  1  0
  6  7  2  0
  7  8  1  0
  8  9  1  0
  9 10  2  0
  9 11  2  0
  9 12  1  0
 12 13  1  0
 13 14  1  0
 14 15  1  0
 15 16  1  0
  8 17  2  0
  2 18  1  0
 18 19  2  0
 19 20  1  0
 20 21  2  0
 21 22  1  0
 22 23  1  0
 23 24  1  0
 24 25  2  0
 24 26  1  0
 26 27  2  0
 27 28  1  0
 28 29  2  0
 29 30  1  0
 30 31  1  0
 31 32  1  0
 32 33  2  0
 32 34  2  0
 32 35  1  0
 35 36  2  0
 36 37  1  0
 37 38  2  0
 38 39  1  0
 39 40  2  0
 30 41  2  0
 22 42  2  0
 17  4  1  0
 42 18  1  0
 16 12  1  0
 41 26  1  0
 40 35  1  0
  5 43  1  0
  6 44  1  0
  7 45  1  0
 13 46  1  0
 13 47  1  0
 14 48  1  0
 14 49  1  0
 15 50  1  0
 15 51  1  0
 16 52  1  0
 16 53  1  0
 17 54  1  0
 19 55  1  0
 20 56  1  0
 21 57  1  0
 27 58  1  0
 28 59  1  0
 29 60  1  0
 36 61  1  0
 37 62  1  0
 38 63  1  0
 39 64  1  0
 40 65  1  0
 41 66  1  0
 42 67  1  0
M  CHG  3   3  -1  23  -1  31  -1
M  END
>  <UniqueID>  (16) 
16

>  <SMILES>  (16) 
O=C([N-]c1cccc(S(=O)(=O)N2CCCC2)c1)c1cccc([N-]C(=O)c2cccc([N-]S(=O)(=O)c3ccccc3)c2)c1

>  <Energy>  (16) 
94.1734475507526

>  <Genealogy>  (16) 
O=C([N-]c1cccc(S(=O)(=O)N2CCCC2)c1)c1cccc([N-]C(=O)c2cccc([N-]S(=O)(=O)c3ccccc3)c2)c1 (protonated)
O=C([N-]c1cccc(S(=O)(=O)N2CCCC2)c1)c1cccc([N-]C(=O)c2cccc([N-]S(=O)(=O)c3ccccc3)c2)c1 (3D coordinates assigned)
O=C([N-]c1cccc(S(=O)(=O)N2CCCC2)c1)c1cccc([N-]C(=O)c2cccc([N-]S(=O)(=O)c3ccccc3)c2)c1 (nonaromatic ring conformer: 94.1734475507526 kcal/mol)

>  <smiles>  (16) 
O=C(Nc1cccc(S(=O)(=O)N2CCCC2)c1)c1cccc(NC(=O)c2cccc(NS(=O)(=O)c3ccccc3)c2)c1

>  <score_type>  (16) 
oracle

>  <origin>  (16) 
adgpu

>  <m_score__min__energy>  (16) 
-12.43

>  <m_primary>  (16) 
energy

$$$$
16:0
     RDKit          3D

 57 60  0  0  0  0  0  0  0  0999 V2000
   -2.3520   18.8490  -26.4820 C   0  0  0  0  0  0  0  0  0  0  0  0
   -1.8610   20.1430  -26.9820 N   0  0  0  0  0  0  0  0  0  0  0  0
   -1.2500   20.9120  -25.8810 C   0  0  0  0  0  0  0  0  0  0  0  0
   -0.5500   22.1510  -26.4410 C   0  0  0  0  0  0  0  0  0  0  0  0
   -1.4020   22.8900  -27.4390 C   0  0  0  0  0  0  0  0  0  0  0  0
   -1.0050   24.1630  -27.8730 C   0  0  0  0  0  0  0  0  0  0  0  0
   -1.7330   24.8380  -28.8570 C   0  0  0  0  0  0  0  0  0  0  0  0
   -1.2420   26.0440  -29.3430 O   0  0  0  0  0  0  0  0  0  0  0  0
   -2.9100   24.2690  -29.3770 C   0  0  0  0  0  0  0  0  0  0  0  0
   -3.7000   24.9310  -30.3750 N   0  0  0  0  0  0  0  0  0  0  0  0
   -5.3620   24.5720  -30.7410 S   0  0  0  0  0  0  0  0  0  0  0  0
   -5.9030   25.6980  -31.5710 O   0  0  0  0  0  0  0  0  0  0  0  0
   -6.1750   24.4630  -29.4880 O   0  0  0  0  0  0  0  0  0  0  0  0
   -5.5040   23.0630  -31.6460 C   0  0  0  0  0  0  0  0  0  0  0  0
   -4.3540   22.4270  -32.1300 C   0  0  0  0  0  0  0  0  0  0  0  0
   -4.4390   21.1760  -32.7490 C   0  0  0  0  0  0  0  0  0  0  0  0
   -2.9680   20.3260  -33.2350 S   0  0  0  0  0  0  0  0  0  0  0  0
   -2.0130   21.3120  -33.8480 O   0  0  0  0  0  0  0  0  0  0  0  0
   -3.3090   19.2970  -34.2780 O   0  0  0  0  0  0  0  0  0  0  0  0
   -2.2080   19.5150  -31.8790 N   0  0  0  0  0  0  0  0  0  0  0  0
   -1.0180   18.7470  -32.3030 C   0  0  0  0  0  0  0  0  0  0  0  0
    0.0410   18.6430  -31.2040 C   0  0  0  0  0  0  0  0  0  0  0  0
    0.5370   20.0400  -30.8330 C   0  0  0  0  0  0  0  0  0  0  0  0
   -0.6120   21.0570  -30.6620 C   0  0  0  0  0  0  0  0  0  0  0  0
   -2.0120   20.4190  -30.7210 C   0  0  0  0  0  0  0  0  0  0  0  0
   -5.6950   20.5790  -32.9240 C   0  0  0  0  0  0  0  0  0  0  0  0
   -6.8520   21.2230  -32.4760 C   0  0  0  0  0  0  0  0  0  0  0  0
   -6.7630   22.4570  -31.8250 C   0  0  0  0  0  0  0  0  0  0  0  0
   -7.9180   23.0750  -31.3470 O   0  0  0  0  0  0  0  0  0  0  0  0
   -3.2770   22.9760  -28.9820 C   0  0  0  0  0  0  0  0  0  0  0  0
   -2.5250   22.2740  -28.0290 C   0  0  0  0  0  0  0  0  0  0  0  0
   -2.9760   20.9060  -27.5800 C   0  0  0  0  0  0  0  0  0  0  0  0
   -2.3493   18.8560  -25.3820 H   0  0  0  0  0  0  0  0  0  0  0  0
   -3.3766   18.6805  -26.8451 H   0  0  0  0  0  0  0  0  0  0  0  0
   -1.6971   18.0432  -26.8451 H   0  0  0  0  0  0  0  0  0  0  0  0
   -2.0333   21.2232  -25.1742 H   0  0  0  0  0  0  0  0  0  0  0  0
   -0.5127   20.2813  -25.3628 H   0  0  0  0  0  0  0  0  0  0  0  0
   -0.3127   22.8294  -25.6082 H   0  0  0  0  0  0  0  0  0  0  0  0
    0.3602   21.8161  -26.9600 H   0  0  0  0  0  0  0  0  0  0  0  0
   -0.1128   24.6345  -27.4352 H   0  0  0  0  0  0  0  0  0  0  0  0
   -3.3746   22.9161  -32.0222 H   0  0  0  0  0  0  0  0  0  0  0  0
   -1.3358   17.7317  -32.5824 H   0  0  0  0  0  0  0  0  0  0  0  0
   -0.5643   19.2797  -33.1517 H   0  0  0  0  0  0  0  0  0  0  0  0
   -0.3985   18.1634  -30.3169 H   0  0  0  0  0  0  0  0  0  0  0  0
    0.8865   18.0411  -31.5685 H   0  0  0  0  0  0  0  0  0  0  0  0
    1.0931   19.9755  -29.8861 H   0  0  0  0  0  0  0  0  0  0  0  0
    1.1736   20.3950  -31.6568 H   0  0  0  0  0  0  0  0  0  0  0  0
   -0.4961   21.5523  -29.6867 H   0  0  0  0  0  0  0  0  0  0  0  0
   -0.5441   21.7653  -31.5008 H   0  0  0  0  0  0  0  0  0  0  0  0
   -2.1688   19.8404  -29.7987 H   0  0  0  0  0  0  0  0  0  0  0  0
   -2.7348   21.2410  -30.8298 H   0  0  0  0  0  0  0  0  0  0  0  0
   -5.7707   19.5984  -33.4166 H   0  0  0  0  0  0  0  0  0  0  0  0
   -7.8356   20.7573  -32.6362 H   0  0  0  0  0  0  0  0  0  0  0  0
   -7.8750   23.8970  -30.7610 H   0  0  0  0  0  0  0  0  0  0  0  0
   -4.1668   22.5052  -29.4253 H   0  0  0  0  0  0  0  0  0  0  0  0
   -3.7744   21.0195  -26.8319 H   0  0  0  0  0  0  0  0  0  0  0  0
   -3.3419   20.3550  -28.4590 H   0  0  0  0  0  0  0  0  0  0  0  0
  1  2  1  0
  2  3  1  0
  3  4  1  0
  4  5  1  0
  5  6  2  0
  6  7  1  0
  7  8  1  0
  7  9  2  0
  9 10  1  0
 10 11  1  0
 11 12  2  0
 11 13  2  0
 11 14  1  0
 14 15  2  0
 15 16  1  0
 16 17  1  0
 17 18  2  0
 17 19  2  0
 17 20  1  0
 20 21  1  0
 21 22  1  0
 22 23  1  0
 23 24  1  0
 24 25  1  0
 16 26  2  0
 26 27  1  0
 27 28  2  0
 28 29  1  0
  9 30  1  0
 30 31  2  0
 31 32  1  0
 32  2  1  0
 31  5  1  0
 28 14  1  0
 25 20  1  0
  1 33  1  0
  1 34  1  0
  1 35  1  0
  3 36  1  0
  3 37  1  0
  4 38  1  0
  4 39  1  0
  6 40  1  0
 15 41  1  0
 21 42  1  0
 21 43  1  0
 22 44  1  0
 22 45  1  0
 23 46  1  0
 23 47  1  0
 24 48  1  0
 24 49  1  0
 25 50  1  0
 25 51  1  0
 26 52  1  0
 27 53  1  0
 29 54  1  0
 30 55  1  0
 32 56  1  0
 32 57  1  0
M  CHG  2   8  -1  10  -1
M  END
>  <UniqueID>  (17) 
17

>  <SMILES>  (17) 
CN1CCc2cc([O-])c([N-]S(=O)(=O)c3cc(S(=O)(=O)N4CCCCC4)ccc3O)cc2C1

>  <Energy>  (17) 
74.1695769099841

>  <Genealogy>  (17) 
CN1CCc2cc([O-])c([N-]S(=O)(=O)c3cc(S(=O)(=O)N4CCCCC4)ccc3O)cc2C1 (protonated)
CN1CCc2cc([O-])c([N-]S(=O)(=O)c3cc(S(=O)(=O)N4CCCCC4)ccc3O)cc2C1 (3D coordinates assigned)
CN1CCc2cc([O-])c([N-]S(=O)(=O)c3cc(S(=O)(=O)N4CCCCC4)ccc3O)cc2C1 (nonaromatic ring conformer: 74.1695769099841 kcal/mol)

>  <smiles>  (17) 
CN1CCc2cc(O)c(NS(=O)(=O)c3cc(S(=O)(=O)N4CCCCC4)ccc3O)cc2C1

>  <score_type>  (17) 
oracle

>  <origin>  (17) 
adgpu

>  <m_score__min__energy>  (17) 
-14.68

>  <m_primary>  (17) 
energy

$$$$
17:0
     RDKit          3D

 47 49  0  0  0  0  0  0  0  0999 V2000
   -6.4720   16.4350  -34.1050 C   0  0  0  0  0  0  0  0  0  0  0  0
   -6.0360   17.7460  -33.5210 C   0  0  0  0  0  0  0  0  0  0  0  0
   -5.0990   18.5440  -34.1960 C   0  0  0  0  0  0  0  0  0  0  0  0
   -4.6660   19.7500  -33.6350 C   0  0  0  0  0  0  0  0  0  0  0  0
   -5.1520   20.1620  -32.3870 C   0  0  0  0  0  0  0  0  0  0  0  0
   -4.6320   21.6910  -31.6820 S   0  0  0  0  0  0  0  0  0  0  0  0
   -4.8820   22.7730  -32.6950 O   0  0  0  0  0  0  0  0  0  0  0  0
   -5.4400   21.9830  -30.4490 O   0  0  0  0  0  0  0  0  0  0  0  0
   -2.9130   21.6440  -31.2540 C   0  0  0  0  0  0  0  0  0  0  0  0
   -2.1110   20.5980  -31.7410 C   0  0  0  0  0  0  0  0  0  0  0  0
   -0.7460   20.5530  -31.4490 C   0  0  0  0  0  0  0  0  0  0  0  0
   -0.1660   21.5460  -30.6610 C   0  0  0  0  0  0  0  0  0  0  0  0
   -0.9500   22.5840  -30.1570 C   0  0  0  0  0  0  0  0  0  0  0  0
   -2.3230   22.6440  -30.4440 C   0  0  0  0  0  0  0  0  0  0  0  0
   -3.1180   23.7450  -29.8640 C   0  0  0  0  0  0  0  0  0  0  0  0
   -3.4770   23.6800  -28.6600 O   0  0  0  0  0  0  0  0  0  0  0  0
   -3.4930   24.8860  -30.6440 N   0  0  0  0  0  0  0  0  0  0  0  0
   -4.7300   25.6300  -30.4420 C   0  0  0  0  0  0  0  0  0  0  0  0
   -5.8760   24.9360  -31.1790 C   0  0  0  0  0  0  0  0  0  0  0  0
   -6.9460   24.4090  -30.2140 C   0  0  0  0  0  0  0  0  0  0  0  0
   -7.6780   23.2870  -30.7990 N   0  0  0  0  0  0  0  0  0  0  0  0
   -8.2110   22.2410  -30.1470 C   0  0  0  0  0  0  0  0  0  0  0  0
   -8.7610   21.3960  -31.0860 C   0  0  0  0  0  0  0  0  0  0  0  0
   -8.5700   21.9050  -32.3210 N   0  0  0  0  0  0  0  0  0  0  0  0
   -7.9030   23.0590  -32.1070 C   0  0  0  0  0  0  0  0  0  0  0  0
   -6.0790   19.3600  -31.7060 C   0  0  0  0  0  0  0  0  0  0  0  0
   -6.5130   18.1550  -32.2660 C   0  0  0  0  0  0  0  0  0  0  0  0
   -6.7060   15.7314  -33.2925 H   0  0  0  0  0  0  0  0  0  0  0  0
   -7.3671   16.5895  -34.7254 H   0  0  0  0  0  0  0  0  0  0  0  0
   -5.6626   16.0227  -34.7254 H   0  0  0  0  0  0  0  0  0  0  0  0
   -4.7037   18.2197  -35.1699 H   0  0  0  0  0  0  0  0  0  0  0  0
   -3.9415   20.3770  -34.1754 H   0  0  0  0  0  0  0  0  0  0  0  0
   -2.5625   19.8072  -32.3580 H   0  0  0  0  0  0  0  0  0  0  0  0
   -0.1274   19.7325  -31.8415 H   0  0  0  0  0  0  0  0  0  0  0  0
    0.9103   21.5111  -30.4365 H   0  0  0  0  0  0  0  0  0  0  0  0
   -0.4890   23.3614  -29.5300 H   0  0  0  0  0  0  0  0  0  0  0  0
   -4.9595   25.6727  -29.3670 H   0  0  0  0  0  0  0  0  0  0  0  0
   -4.6094   26.6502  -30.8352 H   0  0  0  0  0  0  0  0  0  0  0  0
   -6.3426   25.6558  -31.8676 H   0  0  0  0  0  0  0  0  0  0  0  0
   -5.4579   24.0768  -31.7239 H   0  0  0  0  0  0  0  0  0  0  0  0
   -6.4591   24.0751  -29.2859 H   0  0  0  0  0  0  0  0  0  0  0  0
   -7.6591   25.2206  -30.0072 H   0  0  0  0  0  0  0  0  0  0  0  0
   -8.2089   22.0864  -29.0579 H   0  0  0  0  0  0  0  0  0  0  0  0
   -9.2771   20.4506  -30.8629 H   0  0  0  0  0  0  0  0  0  0  0  0
   -7.5796   23.7369  -32.9107 H   0  0  0  0  0  0  0  0  0  0  0  0
   -6.4661   19.6803  -30.7275 H   0  0  0  0  0  0  0  0  0  0  0  0
   -7.2312   17.5248  -31.7209 H   0  0  0  0  0  0  0  0  0  0  0  0
  1  2  1  0
  2  3  2  0
  3  4  1  0
  4  5  2  0
  5  6  1  0
  6  7  2  0
  6  8  2  0
  6  9  1  0
  9 10  2  0
 10 11  1  0
 11 12  2  0
 12 13  1  0
 13 14  2  0
 14 15  1  0
 15 16  2  0
 15 17  1  0
 17 18  1  0
 18 19  1  0
 19 20  1  0
 20 21  1  0
 21 22  1  0
 22 23  2  0
 23 24  1  0
 24 25  2  0
  5 26  1  0
 26 27  2  0
 27  2  1  0
 14  9  1  0
 25 21  1  0
  1 28  1  0
  1 29  1  0
  1 30  1  0
  3 31  1  0
  4 32  1  0
 10 33  1  0
 11 34  1  0
 12 35  1  0
 13 36  1  0
 18 37  1  0
 18 38  1  0
 19 39  1  0
 19 40  1  0
 20 41  1  0
 20 42  1  0
 22 43  1  0
 23 44  1  0
 25 45  1  0
 26 46  1  0
 27 47  1  0
M  CHG  1  17  -1
M  END
>  <UniqueID>  (18) 
18

>  <SMILES>  (18) 
Cc1ccc(S(=O)(=O)c2ccccc2C(=O)[N-]CCCn2ccnc2)cc1

>  <Energy>  (18) 
80.07501899880444

>  <Genealogy>  (18) 
Cc1ccc(S(=O)(=O)c2ccccc2C(=O)[N-]CCCn2ccnc2)cc1 (protonated)
Cc1ccc(S(=O)(=O)c2ccccc2C(=O)[N-]CCCn2ccnc2)cc1 (3D coordinates assigned)
Cc1ccc(S(=O)(=O)c2ccccc2C(=O)[N-]CCCn2ccnc2)cc1 (optimized conformer: 80.07501899880444 kcal/mol)

>  <smiles>  (18) 
Cc1ccc(S(=O)(=O)c2ccccc2C(=O)NCCCn2ccnc2)cc1

>  <score_type>  (18) 
oracle

>  <origin>  (18) 
adgpu

>  <m_score__min__energy>  (18) 
-10.130000000000001

>  <m_primary>  (18) 
energy

$$$$
18:0
     RDKit          3D

 49 52  0  0  0  0  0  0  0  0999 V2000
   -7.1690   25.6510  -29.1060 O   0  0  0  0  0  0  0  0  0  0  0  0
   -5.9850   25.2210  -29.1190 C   0  0  0  0  0  0  0  0  0  0  0  0
   -5.2850   24.9760  -27.9900 N   0  0  0  0  0  0  0  0  0  0  0  0
   -4.1010   24.5080  -28.4410 C   0  0  0  0  0  0  0  0  0  0  0  0
   -3.0430   23.9360  -27.5440 C   0  0  0  0  0  0  0  0  0  0  0  0
   -2.1170   25.0270  -27.0610 C   0  0  0  0  0  0  0  0  0  0  0  0
   -1.9410   25.2210  -25.6780 C   0  0  0  0  0  0  0  0  0  0  0  0
   -1.0690   26.2050  -25.2030 C   0  0  0  0  0  0  0  0  0  0  0  0
   -0.8520   26.4270  -23.4780 Cl  0  0  0  0  0  0  0  0  0  0  0  0
   -0.3720   27.0130  -26.1050 C   0  0  0  0  0  0  0  0  0  0  0  0
   -0.5400   26.8340  -27.4790 C   0  0  0  0  0  0  0  0  0  0  0  0
   -1.4100   25.8510  -27.9620 C   0  0  0  0  0  0  0  0  0  0  0  0
   -1.5650   25.7050  -29.3360 O   0  0  0  0  0  0  0  0  0  0  0  0
   -4.1230   24.4700  -29.8220 C   0  0  0  0  0  0  0  0  0  0  0  0
   -3.1170   23.9990  -30.6620 O   0  0  0  0  0  0  0  0  0  0  0  0
   -5.3080   24.9340  -30.2510 N   0  0  0  0  0  0  0  0  0  0  0  0
   -5.8290   24.8880  -31.6180 C   0  0  0  0  0  0  0  0  0  0  0  0
   -6.4590   23.5450  -31.8650 C   0  0  0  0  0  0  0  0  0  0  0  0
   -5.6720   22.4590  -32.2830 C   0  0  0  0  0  0  0  0  0  0  0  0
   -6.2310   21.1830  -32.3860 C   0  0  0  0  0  0  0  0  0  0  0  0
   -7.5800   20.9760  -32.0730 C   0  0  0  0  0  0  0  0  0  0  0  0
   -8.2550   19.3530  -32.0980 S   0  0  0  0  0  0  0  0  0  0  0  0
   -8.7760   18.9910  -30.7350 O   0  0  0  0  0  0  0  0  0  0  0  0
   -9.3990   19.2830  -33.0710 O   0  0  0  0  0  0  0  0  0  0  0  0
   -6.9890   18.2320  -32.5830 C   0  0  0  0  0  0  0  0  0  0  0  0
   -6.4790   18.2690  -33.8880 C   0  0  0  0  0  0  0  0  0  0  0  0
   -5.4480   17.4020  -34.2650 C   0  0  0  0  0  0  0  0  0  0  0  0
   -4.9190   16.5000  -33.3380 C   0  0  0  0  0  0  0  0  0  0  0  0
   -5.4170   16.4660  -32.0320 C   0  0  0  0  0  0  0  0  0  0  0  0
   -6.4470   17.3330  -31.6530 C   0  0  0  0  0  0  0  0  0  0  0  0
   -8.3690   22.0570  -31.6590 C   0  0  0  0  0  0  0  0  0  0  0  0
   -7.8120   23.3350  -31.5560 C   0  0  0  0  0  0  0  0  0  0  0  0
   -3.5224   23.4573  -26.6774 H   0  0  0  0  0  0  0  0  0  0  0  0
   -2.4581   23.1953  -28.1089 H   0  0  0  0  0  0  0  0  0  0  0  0
   -2.4945   24.5927  -24.9646 H   0  0  0  0  0  0  0  0  0  0  0  0
    0.3100   27.7912  -25.7318 H   0  0  0  0  0  0  0  0  0  0  0  0
    0.0145   27.4691  -28.1855 H   0  0  0  0  0  0  0  0  0  0  0  0
   -2.1410   24.1900  -30.4790 H   0  0  0  0  0  0  0  0  0  0  0  0
   -6.5833   25.6776  -31.7505 H   0  0  0  0  0  0  0  0  0  0  0  0
   -5.0066   25.0459  -32.3312 H   0  0  0  0  0  0  0  0  0  0  0  0
   -4.6114   22.6141  -32.5302 H   0  0  0  0  0  0  0  0  0  0  0  0
   -5.6089   20.3373  -32.7143 H   0  0  0  0  0  0  0  0  0  0  0  0
   -6.8906   18.9818  -34.6177 H   0  0  0  0  0  0  0  0  0  0  0  0
   -5.0536   17.4303  -35.2915 H   0  0  0  0  0  0  0  0  0  0  0  0
   -4.1104   15.8164  -33.6360 H   0  0  0  0  0  0  0  0  0  0  0  0
   -4.9986   15.7571  -31.3023 H   0  0  0  0  0  0  0  0  0  0  0  0
   -6.8328   17.3097  -30.6231 H   0  0  0  0  0  0  0  0  0  0  0  0
   -9.4298   21.8997  -31.4143 H   0  0  0  0  0  0  0  0  0  0  0  0
   -8.4369   24.1800  -31.2313 H   0  0  0  0  0  0  0  0  0  0  0  0
  1  2  2  0
  2  3  1  0
  3  4  1  0
  4  5  1  0
  5  6  1  0
  6  7  2  0
  7  8  1  0
  8  9  1  0
  8 10  2  0
 10 11  1  0
 11 12  2  0
 12 13  1  0
  4 14  2  0
 14 15  1  0
 14 16  1  0
 16 17  1  0
 17 18  1  0
 18 19  2  0
 19 20  1  0
 20 21  2  0
 21 22  1  0
 22 23  2  0
 22 24  2  0
 22 25  1  0
 25 26  2  0
 26 27  1  0
 27 28  2  0
 28 29  1  0
 29 30  2  0
 21 31  1  0
 31 32  2  0
 16  2  1  0
 32 18  1  0
 12  6  1  0
 30 25  1  0
  5 33  1  0
  5 34  1  0
  7 35  1  0
 10 36  1  0
 11 37  1  0
 15 38  1  0
 17 39  1  0
 17 40  1  0
 19 41  1  0
 20 42  1  0
 26 43  1  0
 27 44  1  0
 28 45  1  0
 29 46  1  0
 30 47  1  0
 31 48  1  0
 32 49  1  0
M  CHG  2   3  -1  13  -1
M  END
>  <UniqueID>  (19) 
19

>  <SMILES>  (19) 
O=c1[n-]c(Cc2cc(Cl)ccc2[O-])c(O)n1Cc1ccc(S(=O)(=O)c2ccccc2)cc1

>  <Energy>  (19) 
82.31816436669828

>  <Genealogy>  (19) 
O=c1[n-]c(Cc2cc(Cl)ccc2[O-])c(O)n1Cc1ccc(S(=O)(=O)c2ccccc2)cc1 (protonated)
O=c1[n-]c(Cc2cc(Cl)ccc2[O-])c(O)n1Cc1ccc(S(=O)(=O)c2ccccc2)cc1 (3D coordinates assigned)
O=c1[n-]c(Cc2cc(Cl)ccc2[O-])c(O)n1Cc1ccc(S(=O)(=O)c2ccccc2)cc1 (optimized conformer: 82.31816436669828 kcal/mol)

>  <smiles>  (19) 
O=c1[nH]c(Cc2cc(Cl)ccc2O)c(O)n1Cc1ccc(S(=O)(=O)c2ccccc2)cc1

>  <score_type>  (19) 
oracle

>  <origin>  (19) 
adgpu

>  <m_score__min__energy>  (19) 
-13.380000000000001

>  <m_primary>  (19) 
energy

$$$$
19:0
     RDKit          3D

 53 56  0  0  0  0  0  0  0  0999 V2000
   -6.4810   19.3320  -34.1160 C   0  0  0  0  0  0  0  0  0  0  0  0
   -6.6760   19.1820  -32.5810 C   0  0  2  0  0  0  0  0  0  0  0  0
   -5.7920   18.0230  -31.9730 C   0  0  0  0  0  0  0  0  0  0  0  0
   -6.4400   17.1910  -30.9530 N   0  0  0  0  0  0  0  0  0  0  0  0
   -8.1700   18.7910  -32.3200 C   0  0  0  0  0  0  0  0  0  0  0  0
   -9.1250   19.9790  -32.3950 C   0  0  0  0  0  0  0  0  0  0  0  0
   -8.7760   20.9670  -31.2950 C   0  0  0  0  0  0  0  0  0  0  0  0
   -7.3300   21.3840  -31.3640 C   0  0  0  0  0  0  0  0  0  0  0  0
   -6.9780   22.6330  -30.8300 C   0  0  0  0  0  0  0  0  0  0  0  0
   -5.6550   23.0830  -30.8770 C   0  0  0  0  0  0  0  0  0  0  0  0
   -5.2540   24.7410  -30.4250 S   0  0  0  0  0  0  0  0  0  0  0  0
   -5.8270   25.7180  -31.4140 O   0  0  0  0  0  0  0  0  0  0  0  0
   -5.8270   25.0230  -29.0600 O   0  0  0  0  0  0  0  0  0  0  0  0
   -3.5290   24.9220  -30.3810 N   0  0  0  0  0  0  0  0  0  0  0  0
   -2.6680   24.2040  -29.4840 C   0  0  0  0  0  0  0  0  0  0  0  0
   -2.9530   22.8870  -29.0910 C   0  0  0  0  0  0  0  0  0  0  0  0
   -2.1940   22.2580  -28.0910 C   0  0  0  0  0  0  0  0  0  0  0  0
   -1.1200   22.9490  -27.4970 C   0  0  0  0  0  0  0  0  0  0  0  0
   -0.7780   24.2270  -27.9590 C   0  0  0  0  0  0  0  0  0  0  0  0
   -1.5510   24.8540  -28.9390 C   0  0  0  0  0  0  0  0  0  0  0  0
   -1.2250   26.1390  -29.3460 O   0  0  0  0  0  0  0  0  0  0  0  0
   -0.3010   22.3010  -26.4090 C   0  0  0  0  0  0  0  0  0  0  0  0
   -1.0630   21.2740  -25.6870 N   0  0  0  0  0  0  0  0  0  0  0  0
   -1.6040   20.2780  -26.6260 C   0  0  0  0  0  0  0  0  0  0  0  0
   -2.6310   20.9090  -27.5800 C   0  0  0  0  0  0  0  0  0  0  0  0
   -4.6670   22.2590  -31.4150 C   0  0  0  0  0  0  0  0  0  0  0  0
   -4.9980   21.0070  -31.9320 C   0  0  0  0  0  0  0  0  0  0  0  0
   -6.3280   20.5340  -31.9140 C   0  0  0  0  0  0  0  0  0  0  0  0
   -5.6233   19.9917  -34.3139 H   0  0  0  0  0  0  0  0  0  0  0  0
   -6.2932   18.3433  -34.5601 H   0  0  0  0  0  0  0  0  0  0  0  0
   -7.3884   19.7671  -34.5601 H   0  0  0  0  0  0  0  0  0  0  0  0
   -5.4843   17.3650  -32.7991 H   0  0  0  0  0  0  0  0  0  0  0  0
   -4.9558   18.5229  -31.4623 H   0  0  0  0  0  0  0  0  0  0  0  0
   -5.7160   16.7440  -30.3430 H   0  0  0  0  0  0  0  0  0  0  0  0
   -7.0980   17.7440  -30.3650 H   0  0  0  0  0  0  0  0  0  0  0  0
   -8.4741   18.0500  -33.0739 H   0  0  0  0  0  0  0  0  0  0  0  0
   -8.2286   18.3889  -31.2978 H   0  0  0  0  0  0  0  0  0  0  0  0
   -9.0272   20.4690  -33.3750 H   0  0  0  0  0  0  0  0  0  0  0  0
  -10.1605   19.6310  -32.2660 H   0  0  0  0  0  0  0  0  0  0  0  0
   -9.4105   21.8592  -31.4017 H   0  0  0  0  0  0  0  0  0  0  0  0
   -8.9475   20.4774  -30.3250 H   0  0  0  0  0  0  0  0  0  0  0  0
   -7.7515   23.2651  -30.3693 H   0  0  0  0  0  0  0  0  0  0  0  0
   -3.7792   22.3422  -29.5712 H   0  0  0  0  0  0  0  0  0  0  0  0
    0.1042   24.7393  -27.5476 H   0  0  0  0  0  0  0  0  0  0  0  0
    0.5854   21.8331  -26.8622 H   0  0  0  0  0  0  0  0  0  0  0  0
   -0.0135   23.0811  -25.6887 H   0  0  0  0  0  0  0  0  0  0  0  0
   -1.8560   21.7380  -25.1780 H   0  0  0  0  0  0  0  0  0  0  0  0
   -0.7774   19.8570  -27.2171 H   0  0  0  0  0  0  0  0  0  0  0  0
   -2.1076   19.4912  -26.0452 H   0  0  0  0  0  0  0  0  0  0  0  0
   -2.7743   20.2364  -28.4385 H   0  0  0  0  0  0  0  0  0  0  0  0
   -3.5651   21.0522  -27.0170 H   0  0  0  0  0  0  0  0  0  0  0  0
   -3.6208   22.5985  -31.4316 H   0  0  0  0  0  0  0  0  0  0  0  0
   -4.2070   20.3753  -32.3625 H   0  0  0  0  0  0  0  0  0  0  0  0
  2  1  1  6
  2  3  1  0
  3  4  1  0
  2  5  1  0
  5  6  1  0
  6  7  1  0
  7  8  1  0
  8  9  2  0
  9 10  1  0
 10 11  1  0
 11 12  2  0
 11 13  2  0
 11 14  1  0
 14 15  1  0
 15 16  2  0
 16 17  1  0
 17 18  2  0
 18 19  1  0
 19 20  2  0
 20 21  1  0
 18 22  1  0
 22 23  1  0
 23 24  1  0
 24 25  1  0
 10 26  2  0
 26 27  1  0
 27 28  2  0
 28  2  1  0
 28  8  1  0
 20 15  1  0
 25 17  1  0
  1 29  1  0
  1 30  1  0
  1 31  1  0
  3 32  1  0
  3 33  1  0
  4 34  1  0
  4 35  1  0
  5 36  1  0
  5 37  1  0
  6 38  1  0
  6 39  1  0
  7 40  1  0
  7 41  1  0
  9 42  1  0
 16 43  1  0
 19 44  1  0
 22 45  1  0
 22 46  1  0
 23 47  1  0
 24 48  1  0
 24 49  1  0
 25 50  1  0
 25 51  1  0
 26 52  1  0
 27 53  1  0
M  CHG  2  14  -1  21  -1
M  END
>  <UniqueID>  (20) 
20

>  <SMILES>  (20) 
C[C@]1(CN)CCCc2cc(S(=O)(=O)[N-]c3cc4c(cc3[O-])CNCC4)ccc21

>  <Energy>  (20) 
70.77004324371379

>  <Genealogy>  (20) 
CC1(CN)CCCc2cc(S(=O)(=O)[N-]c3cc4c(cc3[O-])CNCC4)ccc21 (protonated)
C[C@]1(CN)CCCc2cc(S(=O)(=O)[N-]c3cc4c(cc3[O-])CNCC4)ccc21 (chirality)
C[C@]1(CN)CCCc2cc(S(=O)(=O)[N-]c3cc4c(cc3[O-])CNCC4)ccc21 (3D coordinates assigned)
C[C@]1(CN)CCCc2cc(S(=O)(=O)[N-]c3cc4c(cc3[O-])CNCC4)ccc21 (nonaromatic ring conformer: 70.77004324371379 kcal/mol)

>  <smiles>  (20) 
CC1(CN)CCCc2cc(S(=O)(=O)Nc3cc4c(cc3O)CNCC4)ccc21

>  <score_type>  (20) 
oracle

>  <origin>  (20) 
adgpu

>  <m_score__min__energy>  (20) 
-15.4

>  <m_primary>  (20) 
energy

$$$$
20:0
     RDKit          3D

 60 63  0  0  0  0  0  0  0  0999 V2000
   -5.4490   26.4090  -30.4620 O   0  0  0  0  0  0  0  0  0  0  0  0
   -4.9260   25.2600  -30.6080 C   0  0  0  0  0  0  0  0  0  0  0  0
   -3.5230   25.1070  -30.3550 N   0  0  0  0  0  0  0  0  0  0  0  0
   -2.9520   24.2780  -29.3220 C   0  0  0  0  0  0  0  0  0  0  0  0
   -3.5290   23.0260  -29.0670 C   0  0  0  0  0  0  0  0  0  0  0  0
   -2.9590   22.1560  -28.1290 C   0  0  0  0  0  0  0  0  0  0  0  0
   -1.7960   22.5260  -27.4520 C   0  0  0  0  0  0  0  0  0  0  0  0
   -1.1910   23.7630  -27.7130 C   0  0  0  0  0  0  0  0  0  0  0  0
    0.2560   24.2420  -26.8140 S   0  0  0  0  0  0  0  0  0  0  0  0
    0.9010   25.3740  -27.5680 O   0  0  0  0  0  0  0  0  0  0  0  0
    1.2300   23.0960  -26.8190 O   0  0  0  0  0  0  0  0  0  0  0  0
   -0.0280   24.7740  -25.1600 N   0  0  0  0  0  0  0  0  0  0  0  0
    1.0640   25.6280  -24.6330 C   0  0  0  0  0  0  0  0  0  0  0  0
    0.9140   27.1150  -24.9770 C   0  0  0  0  0  0  0  0  0  0  0  0
   -0.4680   27.6320  -24.6080 C   0  0  0  0  0  0  0  0  0  0  0  0
   -1.5430   26.7940  -25.2860 C   0  0  0  0  0  0  0  0  0  0  0  0
   -1.3910   25.3110  -24.9290 C   0  0  0  0  0  0  0  0  0  0  0  0
   -1.7850   24.6440  -28.6290 C   0  0  0  0  0  0  0  0  0  0  0  0
   -5.7620   24.1210  -31.0650 C   0  0  0  0  0  0  0  0  0  0  0  0
   -7.1580   24.1690  -30.9170 C   0  0  0  0  0  0  0  0  0  0  0  0
   -7.9540   23.1040  -31.3520 C   0  0  0  0  0  0  0  0  0  0  0  0
   -7.3650   21.9870  -31.9510 C   0  0  0  0  0  0  0  0  0  0  0  0
   -5.9760   21.9250  -32.1080 C   0  0  0  0  0  0  0  0  0  0  0  0
   -5.2170   20.5120  -32.8360 S   0  0  0  0  0  0  0  0  0  0  0  0
   -4.6770   19.6460  -31.7310 O   0  0  0  0  0  0  0  0  0  0  0  0
   -4.0710   20.9520  -33.7060 O   0  0  0  0  0  0  0  0  0  0  0  0
   -6.3950   19.6180  -33.7770 N   0  0  0  0  0  0  0  0  0  0  0  0
   -5.7700   18.5770  -34.6180 C   0  0  0  0  0  0  0  0  0  0  0  0
   -5.8210   17.1730  -33.9780 C   0  0  0  0  0  0  0  0  0  0  0  0
   -5.8080   17.2690  -32.5730 O   0  0  0  0  0  0  0  0  0  0  0  0
   -7.0270   17.8350  -32.1190 C   0  0  0  0  0  0  0  0  0  0  0  0
   -7.4710   19.0780  -32.9270 C   0  0  0  0  0  0  0  0  0  0  0  0
   -5.1780   22.9910  -31.6670 C   0  0  0  0  0  0  0  0  0  0  0  0
   -4.4377   22.7242  -29.6085 H   0  0  0  0  0  0  0  0  0  0  0  0
   -3.4277   21.1817  -27.9260 H   0  0  0  0  0  0  0  0  0  0  0  0
   -1.3527   21.8445  -26.7111 H   0  0  0  0  0  0  0  0  0  0  0  0
    0.0190   23.8850  -24.6080 H   0  0  0  0  0  0  0  0  0  0  0  0
    1.0846   25.5266  -23.5379 H   0  0  0  0  0  0  0  0  0  0  0  0
    1.9947   25.2837  -25.1077 H   0  0  0  0  0  0  0  0  0  0  0  0
    1.6709   27.6890  -24.4224 H   0  0  0  0  0  0  0  0  0  0  0  0
    1.0510   27.2355  -26.0618 H   0  0  0  0  0  0  0  0  0  0  0  0
   -0.5976   27.5751  -23.5171 H   0  0  0  0  0  0  0  0  0  0  0  0
   -0.5618   28.6751  -24.9443 H   0  0  0  0  0  0  0  0  0  0  0  0
   -2.5326   27.1436  -24.9565 H   0  0  0  0  0  0  0  0  0  0  0  0
   -1.4379   26.9045  -26.3754 H   0  0  0  0  0  0  0  0  0  0  0  0
   -1.6375   25.1840  -23.8645 H   0  0  0  0  0  0  0  0  0  0  0  0
   -2.0705   24.7523  -25.5894 H   0  0  0  0  0  0  0  0  0  0  0  0
   -1.3331   25.6310  -28.8067 H   0  0  0  0  0  0  0  0  0  0  0  0
   -7.6285   25.0499  -30.4559 H   0  0  0  0  0  0  0  0  0  0  0  0
   -9.0455   23.1458  -31.2224 H   0  0  0  0  0  0  0  0  0  0  0  0
   -7.9946   21.1551  -32.2997 H   0  0  0  0  0  0  0  0  0  0  0  0
   -6.2979   18.5419  -35.5824 H   0  0  0  0  0  0  0  0  0  0  0  0
   -4.7100   18.8448  -34.7394 H   0  0  0  0  0  0  0  0  0  0  0  0
   -6.7420   16.6632  -34.2972 H   0  0  0  0  0  0  0  0  0  0  0  0
   -4.9386   16.6023  -34.3031 H   0  0  0  0  0  0  0  0  0  0  0  0
   -7.8148   17.0711  -32.1949 H   0  0  0  0  0  0  0  0  0  0  0  0
   -6.8634   18.1652  -31.0825 H   0  0  0  0  0  0  0  0  0  0  0  0
   -8.3186   18.7961  -33.5689 H   0  0  0  0  0  0  0  0  0  0  0  0
   -7.7494   19.8608  -32.2061 H   0  0  0  0  0  0  0  0  0  0  0  0
   -4.0863   22.9432  -31.7928 H   0  0  0  0  0  0  0  0  0  0  0  0
  1  2  2  0
  2  3  1  0
  3  4  1  0
  4  5  2  0
  5  6  1  0
  6  7  2  0
  7  8  1  0
  8  9  1  0
  9 10  2  0
  9 11  2  0
  9 12  1  0
 12 13  1  0
 13 14  1  0
 14 15  1  0
 15 16  1  0
 16 17  1  0
  8 18  2  0
  2 19  1  0
 19 20  2  0
 20 21  1  0
 21 22  2  0
 22 23  1  0
 23 24  1  0
 24 25  2  0
 24 26  2  0
 24 27  1  0
 27 28  1  0
 28 29  1  0
 29 30  1  0
 30 31  1  0
 31 32  1  0
 23 33  2  0
 18  4  1  0
 33 19  1  0
 17 12  1  0
 32 27  1  0
  5 34  1  0
  6 35  1  0
  7 36  1  0
 12 37  1  0
 13 38  1  0
 13 39  1  0
 14 40  1  0
 14 41  1  0
 15 42  1  0
 15 43  1  0
 16 44  1  0
 16 45  1  0
 17 46  1  0
 17 47  1  0
 18 48  1  0
 20 49  1  0
 21 50  1  0
 22 51  1  0
 28 52  1  0
 28 53  1  0
 29 54  1  0
 29 55  1  0
 31 56  1  0
 31 57  1  0
 32 58  1  0
 32 59  1  0
 33 60  1  0
M  CHG  2   3  -1  12   1
M  END
>  <UniqueID>  (21) 
21

>  <SMILES>  (21) 
O=C([N-]c1cccc(S(=O)(=O)[NH+]2CCCCC2)c1)c1cccc(S(=O)(=O)N2CCOCC2)c1

>  <Energy>  (21) 
79.25329258138872

>  <Genealogy>  (21) 
O=C([N-]c1cccc(S(=O)(=O)[NH+]2CCCCC2)c1)c1cccc(S(=O)(=O)N2CCOCC2)c1 (protonated)
O=C([N-]c1cccc(S(=O)(=O)[NH+]2CCCCC2)c1)c1cccc(S(=O)(=O)N2CCOCC2)c1 (3D coordinates assigned)
O=C([N-]c1cccc(S(=O)(=O)[NH+]2CCCCC2)c1)c1cccc(S(=O)(=O)N2CCOCC2)c1 (nonaromatic ring conformer: 79.25329258138872 kcal/mol)

>  <smiles>  (21) 
O=C(Nc1cccc(S(=O)(=O)N2CCCCC2)c1)c1cccc(S(=O)(=O)N2CCOCC2)c1

>  <score_type>  (21) 
oracle

>  <origin>  (21) 
adgpu

>  <m_score__min__energy>  (21) 
-12.42

>  <m_primary>  (21) 
energy

$$$$
21:0
     RDKit          3D

 58 60  0  0  0  0  0  0  0  0999 V2000
   -2.3170   19.6420  -26.8420 C   0  0  0  0  0  0  0  0  0  0  0  0
   -2.3340   20.3520  -28.1950 C   0  0  0  0  0  0  0  0  0  0  0  0
   -0.9930   20.2450  -28.9320 C   0  0  0  0  0  0  0  0  0  0  0  0
   -1.1320   20.5530  -30.7340 S   0  0  0  0  0  0  0  0  0  0  0  0
   -2.1270   22.0390  -30.5700 C   0  0  0  0  0  0  0  0  0  0  0  0
   -3.2580   22.2060  -31.3640 C   0  0  0  0  0  0  0  0  0  0  0  0
   -4.0330   23.3600  -31.1930 C   0  0  0  0  0  0  0  0  0  0  0  0
   -5.1810   23.6000  -31.9620 O   0  0  0  0  0  0  0  0  0  0  0  0
   -6.3370   22.8040  -31.9510 C   0  0  0  0  0  0  0  0  0  0  0  0
   -7.5850   23.4280  -31.8580 C   0  0  0  0  0  0  0  0  0  0  0  0
   -8.7560   22.6670  -31.8540 C   0  0  0  0  0  0  0  0  0  0  0  0
   -8.6870   21.2730  -31.9320 C   0  0  0  0  0  0  0  0  0  0  0  0
   -7.4410   20.6240  -32.0020 C   0  0  0  0  0  0  0  0  0  0  0  0
   -7.3470   19.1120  -32.0840 C   0  0  0  0  0  0  0  0  0  0  0  0
   -6.6400   18.6730  -33.3740 C   0  0  0  0  0  0  0  0  0  0  0  0
   -8.7310   18.4620  -31.9650 C   0  0  0  0  0  0  0  0  0  0  0  0
   -6.2690   21.4000  -31.9960 C   0  0  0  0  0  0  0  0  0  0  0  0
   -3.6490   24.2890  -30.2780 N   0  0  0  0  0  0  0  0  0  0  0  0
   -2.5440   24.1170  -29.5060 C   0  0  0  0  0  0  0  0  0  0  0  0
   -2.2700   25.0120  -28.6010 N   0  0  0  0  0  0  0  0  0  0  0  0
   -0.9780   24.9290  -27.4420 S   0  0  0  0  0  0  0  0  0  0  0  0
   -1.2920   23.8740  -26.4170 O   0  0  0  0  0  0  0  0  0  0  0  0
    0.2950   24.5570  -28.1450 O   0  0  0  0  0  0  0  0  0  0  0  0
   -0.7710   26.5070  -26.6860 C   0  0  0  0  0  0  0  0  0  0  0  0
   -0.9580   26.6740  -25.3060 C   0  0  0  0  0  0  0  0  0  0  0  0
   -0.8730   27.9470  -24.7340 C   0  0  0  0  0  0  0  0  0  0  0  0
   -0.5790   29.0640  -25.5330 C   0  0  0  0  0  0  0  0  0  0  0  0
   -0.5280   30.4390  -24.9350 C   0  0  0  0  0  0  0  0  0  0  0  0
   -0.3870   28.8940  -26.9120 C   0  0  0  0  0  0  0  0  0  0  0  0
   -0.4800   27.6210  -27.4840 C   0  0  0  0  0  0  0  0  0  0  0  0
   -1.7740   22.9990  -29.6750 N   0  0  0  0  0  0  0  0  0  0  0  0
   -2.3349   20.3896  -26.0353 H   0  0  0  0  0  0  0  0  0  0  0  0
   -3.1998   18.9911  -26.7583 H   0  0  0  0  0  0  0  0  0  0  0  0
   -1.4040   19.0341  -26.7583 H   0  0  0  0  0  0  0  0  0  0  0  0
   -3.1174   19.8997  -28.8208 H   0  0  0  0  0  0  0  0  0  0  0  0
   -2.5293   21.4186  -28.0101 H   0  0  0  0  0  0  0  0  0  0  0  0
   -0.2989   20.9832  -28.5038 H   0  0  0  0  0  0  0  0  0  0  0  0
   -0.6311   19.2142  -28.8037 H   0  0  0  0  0  0  0  0  0  0  0  0
   -3.5373   21.4475  -32.1101 H   0  0  0  0  0  0  0  0  0  0  0  0
   -7.6447   24.5241  -31.7876 H   0  0  0  0  0  0  0  0  0  0  0  0
   -9.7344   23.1655  -31.7894 H   0  0  0  0  0  0  0  0  0  0  0  0
   -9.6132   20.6797  -31.9387 H   0  0  0  0  0  0  0  0  0  0  0  0
   -6.7417   18.7674  -31.2326 H   0  0  0  0  0  0  0  0  0  0  0  0
   -5.7308   18.1084  -33.1199 H   0  0  0  0  0  0  0  0  0  0  0  0
   -7.3151   18.0350  -33.9632 H   0  0  0  0  0  0  0  0  0  0  0  0
   -6.3675   19.5610  -33.9632 H   0  0  0  0  0  0  0  0  0  0  0  0
   -8.9890   18.3408  -30.9026 H   0  0  0  0  0  0  0  0  0  0  0  0
   -9.4801   19.1024  -32.4535 H   0  0  0  0  0  0  0  0  0  0  0  0
   -8.7165   17.4765  -32.4535 H   0  0  0  0  0  0  0  0  0  0  0  0
   -5.2878   20.9037  -32.0268 H   0  0  0  0  0  0  0  0  0  0  0  0
   -1.1721   25.8010  -24.6719 H   0  0  0  0  0  0  0  0  0  0  0  0
   -1.0371   28.0742  -23.6538 H   0  0  0  0  0  0  0  0  0  0  0  0
   -0.5309   30.3620  -23.8377 H   0  0  0  0  0  0  0  0  0  0  0  0
    0.3897   30.9483  -25.2644 H   0  0  0  0  0  0  0  0  0  0  0  0
   -1.4054   31.0149  -25.2644 H   0  0  0  0  0  0  0  0  0  0  0  0
   -0.1626   29.7647  -27.5457 H   0  0  0  0  0  0  0  0  0  0  0  0
   -0.3239   27.4940  -28.5654 H   0  0  0  0  0  0  0  0  0  0  0  0
   -0.8990   22.8490  -29.1300 H   0  0  0  0  0  0  0  0  0  0  0  0
  1  2  1  0
  2  3  1  0
  3  4  1  0
  4  5  1  0
  5  6  2  0
  6  7  1  0
  7  8  1  0
  8  9  1  0
  9 10  2  0
 10 11  1  0
 11 12  2  0
 12 13  1  0
 13 14  1  0
 14 15  1  0
 14 16  1  0
 13 17  2  0
  7 18  2  0
 18 19  1  0
 19 20  2  3
 20 21  1  0
 21 22  2  0
 21 23  2  0
 21 24  1  0
 24 25  2  0
 25 26  1  0
 26 27  2  0
 27 28  1  0
 27 29  1  0
 29 30  2  0
 19 31  1  0
 31  5  1  0
 17  9  1  0
 30 24  1  0
  1 32  1  0
  1 33  1  0
  1 34  1  0
  2 35  1  0
  2 36  1  0
  3 37  1  0
  3 38  1  0
  6 39  1  0
 10 40  1  0
 11 41  1  0
 12 42  1  0
 14 43  1  0
 15 44  1  0
 15 45  1  0
 15 46  1  0
 16 47  1  0
 16 48  1  0
 16 49  1  0
 17 50  1  0
 25 51  1  0
 26 52  1  0
 28 53  1  0
 28 54  1  0
 28 55  1  0
 29 56  1  0
 30 57  1  0
 31 58  1  0
M  END
>  <UniqueID>  (22) 
22

>  <SMILES>  (22) 
CCCSc1cc(Oc2cccc(C(C)C)c2)nc(=NS(=O)(=O)c2ccc(C)cc2)[nH]1

>  <Energy>  (22) 
55.64389453975582

>  <Genealogy>  (22) 
CCCSc1cc(Oc2cccc(C(C)C)c2)nc(=NS(=O)(=O)c2ccc(C)cc2)[nH]1 (3D coordinates assigned)
CCCSc1cc(Oc2cccc(C(C)C)c2)nc(=NS(=O)(=O)c2ccc(C)cc2)[nH]1 (optimized conformer: 55.64389453975582 kcal/mol)

>  <smiles>  (22) 
CCCSc1cc(Oc2cccc(C(C)C)c2)nc(=NS(=O)(=O)c2ccc(C)cc2)[nH]1

>  <score_type>  (22) 
oracle

>  <origin>  (22) 
adgpu

>  <m_score__min__energy>  (22) 
-9.8900000000000006

>  <m_primary>  (22) 
energy

$$$$
22:0
     RDKit          3D

 59 62  0  0  0  0  0  0  0  0999 V2000
   -4.7220   25.3520  -31.2380 O   0  0  0  0  0  0  0  0  0  0  0  0
   -4.8940   24.1640  -30.3330 S   0  0  0  0  0  0  0  0  0  0  0  0
   -6.3600   23.9550  -30.0780 O   0  0  0  0  0  0  0  0  0  0  0  0
   -4.0910   24.4770  -28.8330 N   0  0  0  0  0  0  0  0  0  0  0  0
   -2.8680   23.8180  -28.5150 C   0  0  0  0  0  0  0  0  0  0  0  0
   -2.8940   22.5420  -27.9380 C   0  0  0  0  0  0  0  0  0  0  0  0
   -1.6970   21.8780  -27.6370 C   0  0  0  0  0  0  0  0  0  0  0  0
   -1.7380   20.2550  -26.9460 S   0  0  0  0  0  0  0  0  0  0  0  0
   -1.6030   20.3460  -25.4520 O   0  0  0  0  0  0  0  0  0  0  0  0
   -3.0650   19.6200  -27.2550 O   0  0  0  0  0  0  0  0  0  0  0  0
   -0.4600   19.2540  -27.5890 N   0  0  0  0  0  0  0  0  0  0  0  0
   -0.4820   19.2850  -29.0670 C   0  0  0  0  0  0  0  0  0  0  0  0
    0.4760   18.2430  -29.6880 C   0  0  0  0  0  0  0  0  0  0  0  0
    1.4320   17.6540  -28.6470 C   0  0  0  0  0  0  0  0  0  0  0  0
    0.6540   17.0460  -27.4690 C   0  0  0  0  0  0  0  0  0  0  0  0
   -0.5910   17.8740  -27.0940 C   0  0  0  0  0  0  0  0  0  0  0  0
   -0.4710   22.5060  -27.9020 C   0  0  0  0  0  0  0  0  0  0  0  0
   -0.4430   23.7830  -28.4680 C   0  0  0  0  0  0  0  0  0  0  0  0
   -1.6390   24.4410  -28.7750 C   0  0  0  0  0  0  0  0  0  0  0  0
   -1.6000   25.7110  -29.3390 O   0  0  0  0  0  0  0  0  0  0  0  0
   -4.2270   22.7150  -31.0760 C   0  0  0  0  0  0  0  0  0  0  0  0
   -2.8780   22.6600  -31.4510 C   0  0  0  0  0  0  0  0  0  0  0  0
   -2.3660   21.5110  -32.0600 C   0  0  0  0  0  0  0  0  0  0  0  0
   -3.1920   20.4080  -32.2900 C   0  0  0  0  0  0  0  0  0  0  0  0
   -2.6670   19.2780  -32.9070 O   0  0  0  0  0  0  0  0  0  0  0  0
   -4.5420   20.4470  -31.8980 C   0  0  0  0  0  0  0  0  0  0  0  0
   -5.5900   19.0540  -32.1710 S   0  0  0  0  0  0  0  0  0  0  0  0
   -4.9640   18.1610  -33.2060 O   0  0  0  0  0  0  0  0  0  0  0  0
   -5.7500   18.2720  -30.8960 O   0  0  0  0  0  0  0  0  0  0  0  0
   -7.1430   19.6100  -32.7400 N   0  0  0  0  0  0  0  0  0  0  0  0
   -7.6750   20.6670  -31.8820 C   0  0  0  0  0  0  0  0  0  0  0  0
   -9.1870   20.6150  -32.0250 C   0  0  0  0  0  0  0  0  0  0  0  0
   -9.4940   19.2100  -32.5190 C   0  0  0  0  0  0  0  0  0  0  0  0
   -8.1390   18.5400  -32.7040 C   0  0  0  0  0  0  0  0  0  0  0  0
   -5.0550   21.6090  -31.3070 C   0  0  0  0  0  0  0  0  0  0  0  0
   -3.8580   22.0590  -27.7202 H   0  0  0  0  0  0  0  0  0  0  0  0
   -1.5055   19.0739  -29.4104 H   0  0  0  0  0  0  0  0  0  0  0  0
   -0.1492   20.2830  -29.3885 H   0  0  0  0  0  0  0  0  0  0  0  0
   -0.1199   17.4281  -30.1248 H   0  0  0  0  0  0  0  0  0  0  0  0
    1.0788   18.7495  -30.4562 H   0  0  0  0  0  0  0  0  0  0  0  0
    2.0403   16.8691  -29.1202 H   0  0  0  0  0  0  0  0  0  0  0  0
    2.0749   18.4605  -28.2645 H   0  0  0  0  0  0  0  0  0  0  0  0
    0.3326   16.0308  -27.7449 H   0  0  0  0  0  0  0  0  0  0  0  0
    1.3235   17.0349  -26.5963 H   0  0  0  0  0  0  0  0  0  0  0  0
   -1.4823   17.4113  -27.5430 H   0  0  0  0  0  0  0  0  0  0  0  0
   -0.6869   17.8964  -25.9984 H   0  0  0  0  0  0  0  0  0  0  0  0
    0.4714   21.9913  -27.6634 H   0  0  0  0  0  0  0  0  0  0  0  0
    0.5209   24.2719  -28.6726 H   0  0  0  0  0  0  0  0  0  0  0  0
   -2.2209   23.5225  -31.2658 H   0  0  0  0  0  0  0  0  0  0  0  0
   -1.3082   21.4750  -32.3595 H   0  0  0  0  0  0  0  0  0  0  0  0
   -7.3854   20.4896  -30.8357 H   0  0  0  0  0  0  0  0  0  0  0  0
   -7.2806   21.6522  -32.1716 H   0  0  0  0  0  0  0  0  0  0  0  0
   -9.6725   20.7972  -31.0549 H   0  0  0  0  0  0  0  0  0  0  0  0
   -9.5607   21.3843  -32.7168 H   0  0  0  0  0  0  0  0  0  0  0  0
  -10.0949   18.6640  -31.7768 H   0  0  0  0  0  0  0  0  0  0  0  0
  -10.0743   19.2231  -33.4534 H   0  0  0  0  0  0  0  0  0  0  0  0
   -7.9345   17.8598  -31.8641 H   0  0  0  0  0  0  0  0  0  0  0  0
   -8.1145   17.9452  -33.6290 H   0  0  0  0  0  0  0  0  0  0  0  0
   -6.1165   21.6532  -31.0221 H   0  0  0  0  0  0  0  0  0  0  0  0
  1  2  2  0
  2  3  2  0
  2  4  1  0
  4  5  1  0
  5  6  2  0
  6  7  1  0
  7  8  1  0
  8  9  2  0
  8 10  2  0
  8 11  1  0
 11 12  1  0
 12 13  1  0
 13 14  1  0
 14 15  1  0
 15 16  1  0
  7 17  2  0
 17 18  1  0
 18 19  2  0
 19 20  1  0
  2 21  1  0
 21 22  2  0
 22 23  1  0
 23 24  2  0
 24 25  1  0
 24 26  1  0
 26 27  1  0
 27 28  2  0
 27 29  2  0
 27 30  1  0
 30 31  1  0
 31 32  1  0
 32 33  1  0
 33 34  1  0
 26 35  2  0
 19  5  1  0
 35 21  1  0
 16 11  1  0
 34 30  1  0
  6 36  1  0
 12 37  1  0
 12 38  1  0
 13 39  1  0
 13 40  1  0
 14 41  1  0
 14 42  1  0
 15 43  1  0
 15 44  1  0
 16 45  1  0
 16 46  1  0
 17 47  1  0
 18 48  1  0
 22 49  1  0
 23 50  1  0
 31 51  1  0
 31 52  1  0
 32 53  1  0
 32 54  1  0
 33 55  1  0
 33 56  1  0
 34 57  1  0
 34 58  1  0
 35 59  1  0
M  CHG  3   4  -1  20  -1  25  -1
M  END
>  <UniqueID>  (23) 
23

>  <SMILES>  (23) 
O=S(=O)([N-]c1cc(S(=O)(=O)N2CCCCC2)ccc1[O-])c1ccc([O-])c(S(=O)(=O)N2CCCC2)c1

>  <Energy>  (23) 
69.5627623007969

>  <Genealogy>  (23) 
O=S(=O)([N-]c1cc(S(=O)(=O)N2CCCCC2)ccc1[O-])c1ccc([O-])c(S(=O)(=O)N2CCCC2)c1 (protonated)
O=S(=O)([N-]c1cc(S(=O)(=O)N2CCCCC2)ccc1[O-])c1ccc([O-])c(S(=O)(=O)N2CCCC2)c1 (3D coordinates assigned)
O=S(=O)([N-]c1cc(S(=O)(=O)N2CCCCC2)ccc1[O-])c1ccc([O-])c(S(=O)(=O)N2CCCC2)c1 (nonaromatic ring conformer: 69.5627623007969 kcal/mol)

>  <smiles>  (23) 
O=S(=O)(Nc1cc(S(=O)(=O)N2CCCCC2)ccc1O)c1ccc(O)c(S(=O)(=O)N2CCCC2)c1

>  <score_type>  (23) 
oracle

>  <origin>  (23) 
adgpu

>  <m_score__min__energy>  (23) 
-15.48

>  <m_primary>  (23) 
energy

$$$$
23:0
     RDKit          3D

 62 65  0  0  0  0  0  0  0  0999 V2000
   -3.4120   17.6990  -34.1880 C   0  0  0  0  0  0  0  0  0  0  0  0
   -4.3390   18.1300  -33.0430 C   0  0  0  0  0  0  0  0  0  0  0  0
   -5.0850   19.4430  -33.3860 C   0  0  0  0  0  0  0  0  0  0  0  0
   -6.4780   19.1620  -33.9700 C   0  0  0  0  0  0  0  0  0  0  0  0
   -7.3440   18.3800  -33.0520 N   0  0  0  0  0  0  0  0  0  0  0  0
   -8.4800   19.4130  -32.2170 S   0  0  0  0  0  0  0  0  0  0  0  0
   -8.9290   18.7590  -30.9400 O   0  0  0  0  0  0  0  0  0  0  0  0
   -9.6880   19.6520  -33.0810 O   0  0  0  0  0  0  0  0  0  0  0  0
   -7.7240   20.9650  -31.8630 C   0  0  0  0  0  0  0  0  0  0  0  0
   -8.3720   22.1630  -32.1880 C   0  0  0  0  0  0  0  0  0  0  0  0
   -7.7790   23.3880  -31.8780 C   0  0  0  0  0  0  0  0  0  0  0  0
   -6.5260   23.4250  -31.2590 C   0  0  0  0  0  0  0  0  0  0  0  0
   -5.8660   22.2300  -30.9160 C   0  0  0  0  0  0  0  0  0  0  0  0
   -6.4810   21.0000  -31.2170 C   0  0  0  0  0  0  0  0  0  0  0  0
   -4.6290   22.2870  -30.1650 N   0  0  0  0  0  0  0  0  0  0  0  0
   -3.5950   21.2440  -30.3020 C   0  0  0  0  0  0  0  0  0  0  0  0
   -2.4420   21.7030  -31.1620 C   0  0  0  0  0  0  0  0  0  0  0  0
   -2.7090   22.2710  -32.2570 O   0  0  0  0  0  0  0  0  0  0  0  0
   -1.0600   21.5270  -30.7710 N   0  0  0  0  0  0  0  0  0  0  0  0
   -0.1020   21.0750  -31.7870 C   0  0  0  0  0  0  0  0  0  0  0  0
   -0.5880   21.8100  -29.4040 C   0  0  0  0  0  0  0  0  0  0  0  0
   -0.9370   20.6940  -28.4520 C   0  0  0  0  0  0  0  0  0  0  0  0
   -2.0030   20.8270  -27.5460 C   0  0  0  0  0  0  0  0  0  0  0  0
   -2.3440   19.7690  -26.6970 C   0  0  0  0  0  0  0  0  0  0  0  0
   -1.6320   18.5680  -26.7540 C   0  0  0  0  0  0  0  0  0  0  0  0
   -0.5840   18.4190  -27.6650 C   0  0  0  0  0  0  0  0  0  0  0  0
   -0.2390   19.4740  -28.5140 C   0  0  0  0  0  0  0  0  0  0  0  0
   -4.4600   23.3400  -29.1890 C   0  0  0  0  0  0  0  0  0  0  0  0
   -3.5650   23.2540  -28.3050 O   0  0  0  0  0  0  0  0  0  0  0  0
   -5.3780   24.5280  -29.1790 C   0  0  0  0  0  0  0  0  0  0  0  0
   -5.7630   25.0070  -30.8920 S   0  0  0  0  0  0  0  0  0  0  0  0
   -6.6080   17.5480  -32.0750 C   0  0  0  0  0  0  0  0  0  0  0  0
   -5.3160   16.9870  -32.6770 C   0  0  0  0  0  0  0  0  0  0  0  0
   -2.4891   17.2699  -33.7708 H   0  0  0  0  0  0  0  0  0  0  0  0
   -3.9200   16.9447  -34.8069 H   0  0  0  0  0  0  0  0  0  0  0  0
   -3.1627   18.5735  -34.8069 H   0  0  0  0  0  0  0  0  0  0  0  0
   -3.7216   18.3380  -32.1567 H   0  0  0  0  0  0  0  0  0  0  0  0
   -5.1955   20.0414  -32.4696 H   0  0  0  0  0  0  0  0  0  0  0  0
   -4.4976   19.9873  -34.1401 H   0  0  0  0  0  0  0  0  0  0  0  0
   -6.9696   20.1229  -34.1824 H   0  0  0  0  0  0  0  0  0  0  0  0
   -6.3382   18.5625  -34.8816 H   0  0  0  0  0  0  0  0  0  0  0  0
   -9.3510   22.1387  -32.6890 H   0  0  0  0  0  0  0  0  0  0  0  0
   -8.2988   24.3264  -32.1213 H   0  0  0  0  0  0  0  0  0  0  0  0
   -5.9818   20.0589  -30.9429 H   0  0  0  0  0  0  0  0  0  0  0  0
   -3.2133   20.9883  -29.3025 H   0  0  0  0  0  0  0  0  0  0  0  0
   -4.0547   20.3701  -30.7867 H   0  0  0  0  0  0  0  0  0  0  0  0
    0.7866   20.6558  -31.2923 H   0  0  0  0  0  0  0  0  0  0  0  0
   -0.5705   20.3030  -32.4150 H   0  0  0  0  0  0  0  0  0  0  0  0
    0.1959   21.9275  -32.4150 H   0  0  0  0  0  0  0  0  0  0  0  0
    0.5048   21.9342  -29.4226 H   0  0  0  0  0  0  0  0  0  0  0  0
   -1.0828   22.7277  -29.0532 H   0  0  0  0  0  0  0  0  0  0  0  0
   -2.5719   21.7675  -27.5043 H   0  0  0  0  0  0  0  0  0  0  0  0
   -3.1736   19.8825  -25.9836 H   0  0  0  0  0  0  0  0  0  0  0  0
   -1.8971   17.7394  -26.0809 H   0  0  0  0  0  0  0  0  0  0  0  0
   -0.0296   17.4702  -27.7143 H   0  0  0  0  0  0  0  0  0  0  0  0
    0.5827   19.3499  -29.2347 H   0  0  0  0  0  0  0  0  0  0  0  0
   -6.3083   24.2688  -28.6523 H   0  0  0  0  0  0  0  0  0  0  0  0
   -4.8881   25.3672  -28.6635 H   0  0  0  0  0  0  0  0  0  0  0  0
   -6.3564   18.1637  -31.1989 H   0  0  0  0  0  0  0  0  0  0  0  0
   -7.2507   16.7028  -31.7877 H   0  0  0  0  0  0  0  0  0  0  0  0
   -4.8353   16.3225  -31.9439 H   0  0  0  0  0  0  0  0  0  0  0  0
   -5.5660   16.4302  -33.5921 H   0  0  0  0  0  0  0  0  0  0  0  0
  1  2  1  0
  2  3  1  0
  3  4  1  0
  4  5  1  0
  5  6  1  0
  6  7  2  0
  6  8  2  0
  6  9  1  0
  9 10  2  0
 10 11  1  0
 11 12  2  0
 12 13  1  0
 13 14  2  0
 13 15  1  0
 15 16  1  0
 16 17  1  0
 17 18  2  0
 17 19  1  0
 19 20  1  0
 19 21  1  0
 21 22  1  0
 22 23  2  0
 23 24  1  0
 24 25  2  0
 25 26  1  0
 26 27  2  0
 15 28  1  0
 28 29  2  0
 28 30  1  0
 30 31  1  0
  5 32  1  0
 32 33  1  0
 33  2  1  0
 14  9  1  0
 27 22  1  0
 31 12  1  0
  1 34  1  0
  1 35  1  0
  1 36  1  0
  2 37  1  0
  3 38  1  0
  3 39  1  0
  4 40  1  0
  4 41  1  0
 10 42  1  0
 11 43  1  0
 14 44  1  0
 16 45  1  0
 16 46  1  0
 20 47  1  0
 20 48  1  0
 20 49  1  0
 21 50  1  0
 21 51  1  0
 23 52  1  0
 24 53  1  0
 25 54  1  0
 26 55  1  0
 27 56  1  0
 30 57  1  0
 30 58  1  0
 32 59  1  0
 32 60  1  0
 33 61  1  0
 33 62  1  0
M  END
>  <UniqueID>  (24) 
24

>  <SMILES>  (24) 
CC1CCN(S(=O)(=O)c2ccc3c(c2)N(CC(=O)N(C)Cc2ccccc2)C(=O)CS3)CC1

>  <Energy>  (24) 
71.68547664837163

>  <Genealogy>  (24) 
CC1CCN(S(=O)(=O)c2ccc3c(c2)N(CC(=O)N(C)Cc2ccccc2)C(=O)CS3)CC1 (3D coordinates assigned)
CC1CCN(S(=O)(=O)c2ccc3c(c2)N(CC(=O)N(C)Cc2ccccc2)C(=O)CS3)CC1 (nonaromatic ring conformer: 71.68547664837163 kcal/mol)

>  <smiles>  (24) 
CC1CCN(S(=O)(=O)c2ccc3c(c2)N(CC(=O)N(C)Cc2ccccc2)C(=O)CS3)CC1

>  <score_type>  (24) 
oracle

>  <origin>  (24) 
adgpu

>  <m_score__min__energy>  (24) 
-11.08

>  <m_primary>  (24) 
energy

$$$$
24:0
     RDKit          3D

 39 41  0  0  0  0  0  0  0  0999 V2000
   -3.0450   20.6640  -32.3210 O   0  0  0  0  0  0  0  0  0  0  0  0
   -2.6290   21.5730  -31.5550 C   0  0  0  0  0  0  0  0  0  0  0  0
   -3.1730   22.8940  -31.6940 N   0  0  0  0  0  0  0  0  0  0  0  0
   -4.4810   23.3210  -31.2830 C   0  0  0  0  0  0  0  0  0  0  0  0
   -5.6320   22.5850  -31.6110 C   0  0  0  0  0  0  0  0  0  0  0  0
   -6.8970   23.0220  -31.1970 C   0  0  0  0  0  0  0  0  0  0  0  0
   -8.3140   22.0500  -31.5810 S   0  0  0  0  0  0  0  0  0  0  0  0
   -8.9050   21.4760  -30.3220 O   0  0  0  0  0  0  0  0  0  0  0  0
   -9.3330   22.9360  -32.2410 O   0  0  0  0  0  0  0  0  0  0  0  0
   -7.8540   20.7590  -32.6710 N   0  0  0  0  0  0  0  0  0  0  0  0
   -6.9130   19.8440  -32.0150 C   0  0  0  0  0  0  0  0  0  0  0  0
   -7.7110   18.7090  -31.3930 C   0  0  0  0  0  0  0  0  0  0  0  0
   -9.0780   18.7660  -32.0470 C   0  0  0  0  0  0  0  0  0  0  0  0
   -9.0190   19.9390  -33.0160 C   0  0  0  0  0  0  0  0  0  0  0  0
   -7.0170   24.2180  -30.4780 C   0  0  0  0  0  0  0  0  0  0  0  0
   -5.8800   24.9720  -30.1790 C   0  0  0  0  0  0  0  0  0  0  0  0
   -4.6160   24.5300  -30.5820 C   0  0  0  0  0  0  0  0  0  0  0  0
   -3.4920   25.2900  -30.2760 O   0  0  0  0  0  0  0  0  0  0  0  0
   -1.5320   21.2740  -30.6050 C   0  0  0  0  0  0  0  0  0  0  0  0
   -1.0690   22.2350  -29.6800 C   0  0  0  0  0  0  0  0  0  0  0  0
   -1.5670   23.5380  -29.6520 O   0  0  0  0  0  0  0  0  0  0  0  0
   -0.0890   21.9010  -28.8010 N   0  0  0  0  0  0  0  0  0  0  0  0
    0.4670   20.6650  -28.7950 C   0  0  0  0  0  0  0  0  0  0  0  0
    1.3750   20.3870  -27.9700 O   0  0  0  0  0  0  0  0  0  0  0  0
    0.0470   19.7280  -29.6810 N   0  0  0  0  0  0  0  0  0  0  0  0
   -0.9330   20.0000  -30.5790 C   0  0  0  0  0  0  0  0  0  0  0  0
   -1.3090   19.0940  -31.3710 O   0  0  0  0  0  0  0  0  0  0  0  0
   -5.5392   21.6588  -32.1972 H   0  0  0  0  0  0  0  0  0  0  0  0
   -6.2074   19.4407  -32.7563 H   0  0  0  0  0  0  0  0  0  0  0  0
   -6.3420   20.3767  -31.2403 H   0  0  0  0  0  0  0  0  0  0  0  0
   -7.2274   17.7424  -31.5975 H   0  0  0  0  0  0  0  0  0  0  0  0
   -7.7781   18.8098  -30.2997 H   0  0  0  0  0  0  0  0  0  0  0  0
   -9.2842   17.8308  -32.5881 H   0  0  0  0  0  0  0  0  0  0  0  0
   -9.8799   18.8911  -31.3044 H   0  0  0  0  0  0  0  0  0  0  0  0
   -8.9204   19.5665  -34.0463 H   0  0  0  0  0  0  0  0  0  0  0  0
   -9.9394   20.5372  -32.9454 H   0  0  0  0  0  0  0  0  0  0  0  0
   -8.0079   24.5638  -30.1484 H   0  0  0  0  0  0  0  0  0  0  0  0
   -5.9792   25.9169  -29.6246 H   0  0  0  0  0  0  0  0  0  0  0  0
   -2.3350   23.8490  -30.2330 H   0  0  0  0  0  0  0  0  0  0  0  0
  1  2  2  0
  2  3  1  0
  3  4  1  0
  4  5  2  0
  5  6  1  0
  6  7  1  0
  7  8  2  0
  7  9  2  0
  7 10  1  0
 10 11  1  0
 11 12  1  0
 12 13  1  0
 13 14  1  0
  6 15  2  0
 15 16  1  0
 16 17  2  0
 17 18  1  0
  2 19  1  0
 19 20  2  0
 20 21  1  0
 20 22  1  0
 22 23  1  0
 23 24  2  0
 23 25  1  0
 25 26  1  0
 26 27  2  0
 17  4  1  0
 26 19  1  0
 14 10  1  0
  5 28  1  0
 11 29  1  0
 11 30  1  0
 12 31  1  0
 12 32  1  0
 13 33  1  0
 13 34  1  0
 14 35  1  0
 14 36  1  0
 15 37  1  0
 16 38  1  0
 21 39  1  0
M  CHG  4   3  -1  18  -1  22  -1  25  -1
M  END
>  <UniqueID>  (25) 
25

>  <SMILES>  (25) 
O=C([N-]c1cc(S(=O)(=O)N2CCCC2)ccc1[O-])c1c(O)[n-]c(=O)[n-]c1=O

>  <Energy>  (25) 
51.81271290223266

>  <Genealogy>  (25) 
O=C([N-]c1cc(S(=O)(=O)N2CCCC2)ccc1[O-])c1c(O)[n-]c(=O)[n-]c1=O (protonated)
O=C([N-]c1cc(S(=O)(=O)N2CCCC2)ccc1[O-])c1c(O)[n-]c(=O)[n-]c1=O (3D coordinates assigned)
O=C([N-]c1cc(S(=O)(=O)N2CCCC2)ccc1[O-])c1c(O)[n-]c(=O)[n-]c1=O (nonaromatic ring conformer: 51.81271290223266 kcal/mol)

>  <smiles>  (25) 
O=C(Nc1cc(S(=O)(=O)N2CCCC2)ccc1O)c1c(O)[nH]c(=O)[nH]c1=O

>  <score_type>  (25) 
oracle

>  <origin>  (25) 
adgpu

>  <m_score__min__energy>  (25) 
-13.92

>  <m_primary>  (25) 
energy

$$$$
25:0
     RDKit          3D

 32 33  0  0  0  0  0  0  0  0999 V2000
   -4.4220   19.3230  -25.7690 H   0  0  0  0  0  0  0  0  0  0  0  0
   -3.4400   18.9680  -25.7340 N   0  0  0  0  0  0  0  0  0  0  0  0
   -2.6230   19.1560  -26.7190 C   0  0  0  0  0  0  0  0  0  0  0  0
   -1.3110   18.7300  -26.7580 C   0  0  0  0  0  0  0  0  0  0  0  0
   -0.7568   18.1688  -25.9912 H   0  0  0  0  0  0  0  0  0  0  0  0
   -0.8550   19.1740  -27.9880 C   0  0  0  0  0  0  0  0  0  0  0  0
    0.1614   19.0312  -28.3836 H   0  0  0  0  0  0  0  0  0  0  0  0
   -1.8630   19.8110  -28.6220 N   0  0  0  0  0  0  0  0  0  0  0  0
   -1.7740   20.4940  -29.9090 C   0  0  0  0  0  0  0  0  0  0  0  0
   -0.8635   20.1683  -30.4332 H   0  0  0  0  0  0  0  0  0  0  0  0
   -2.6584   20.2459  -30.5142 H   0  0  0  0  0  0  0  0  0  0  0  0
   -1.7210   21.9800  -29.6930 C   0  0  0  0  0  0  0  0  0  0  0  0
   -0.6680   22.5480  -28.9620 C   0  0  0  0  0  0  0  0  0  0  0  0
    0.1378   21.9058  -28.5769 H   0  0  0  0  0  0  0  0  0  0  0  0
   -0.6340   23.9340  -28.7170 C   0  0  0  0  0  0  0  0  0  0  0  0
    0.4060   24.5410  -27.9960 O   0  0  0  0  0  0  0  0  0  0  0  0
    0.2360   25.2240  -26.7580 C   0  0  0  0  0  0  0  0  0  0  0  0
    0.4100   24.5250  -25.9267 H   0  0  0  0  0  0  0  0  0  0  0  0
    0.9549   26.0542  -26.6955 H   0  0  0  0  0  0  0  0  0  0  0  0
   -0.7882   25.6204  -26.6955 H   0  0  0  0  0  0  0  0  0  0  0  0
   -1.6710   24.7410  -29.2030 C   0  0  0  0  0  0  0  0  0  0  0  0
   -1.6420   26.1120  -28.9660 O   0  0  0  0  0  0  0  0  0  0  0  0
   -2.7390   24.1840  -29.9200 C   0  0  0  0  0  0  0  0  0  0  0  0
   -3.7560   25.0380  -30.3760 O   0  0  0  0  0  0  0  0  0  0  0  0
   -5.1350   24.8930  -30.0510 C   0  0  0  0  0  0  0  0  0  0  0  0
   -5.2547   24.8804  -28.9576 H   0  0  0  0  0  0  0  0  0  0  0  0
   -5.7016   25.7365  -30.4722 H   0  0  0  0  0  0  0  0  0  0  0  0
   -5.5138   23.9501  -30.4722 H   0  0  0  0  0  0  0  0  0  0  0  0
   -2.7600   22.7980  -30.1590 C   0  0  0  0  0  0  0  0  0  0  0  0
   -3.5977   22.3526  -30.7156 H   0  0  0  0  0  0  0  0  0  0  0  0
   -2.9380   19.8100  -27.8500 N   0  0  0  0  0  0  0  0  0  0  0  0
   -3.8520   20.2580  -28.0870 H   0  0  0  0  0  0  0  0  0  0  0  0
  1  2  1  0
  2  3  2  0
  3  4  1  0
  4  5  1  0
  4  6  2  0
  6  7  1  0
  6  8  1  0
  8  9  1  0
  9 10  1  0
  9 11  1  0
  9 12  1  0
 12 13  2  0
 13 14  1  0
 13 15  1  0
 15 16  1  0
 16 17  1  0
 17 18  1  0
 17 19  1  0
 17 20  1  0
 15 21  2  0
 21 22  1  0
 21 23  1  0
 23 24  1  0
 24 25  1  0
 25 26  1  0
 25 27  1  0
 25 28  1  0
 23 29  2  0
 29 30  1  0
  8 31  1  0
 31 32  1  0
 31  3  1  0
 29 12  1  0
M  CHG  1  22  -1
M  END
>  <UniqueID>  (26) 
26

>  <SMILES>  (26) 
[H]/N=c1/ccn(Cc2cc(OC)c([O-])c(OC)c2)[nH]1

>  <Energy>  (26) 
60.570758884094204

>  <Genealogy>  (26) 
COc1cc(Cn2ccc(=N)[nH]2)cc(OC)c1[O-] (protonated)
[H]/N=c1/ccn(Cc2cc(OC)c([O-])c(OC)c2)[nH]1 (cis-trans isomerization)
[H]/N=c1/ccn(Cc2cc(OC)c([O-])c(OC)c2)[nH]1 (3D coordinates assigned)
[H]/N=c1/ccn(Cc2cc(OC)c([O-])c(OC)c2)[nH]1 (optimized conformer: 60.570758884094204 kcal/mol)

>  <smiles>  (26) 
COc1cc(Cn2ccc(=N)[nH]2)cc(OC)c1O

>  <score_type>  (26) 
oracle

>  <origin>  (26) 
adgpu

>  <m_score__min__energy>  (26) 
-9.25

>  <m_primary>  (26) 
energy

$$$$
26:0
     RDKit          3D

 66 69  0  0  0  0  0  0  0  0999 V2000
   -8.1330   20.3410  -32.8000 N   0  0  0  0  0  0  0  0  0  0  0  0
   -7.4280   21.4410  -32.2140 C   0  0  0  0  0  0  0  0  0  0  0  0
   -8.1510   22.4570  -31.5760 C   0  0  0  0  0  0  0  0  0  0  0  0
   -7.5010   23.6000  -31.1020 C   0  0  0  0  0  0  0  0  0  0  0  0
   -6.1200   23.7500  -31.2770 C   0  0  0  0  0  0  0  0  0  0  0  0
   -5.4330   24.9800  -30.8360 C   0  0  0  0  0  0  0  0  0  0  0  0
   -6.1220   25.9540  -30.4360 O   0  0  0  0  0  0  0  0  0  0  0  0
   -4.0010   25.0890  -30.8120 N   0  0  0  0  0  0  0  0  0  0  0  0
   -3.0950   24.1960  -30.0940 C   0  0  0  0  0  0  0  0  0  0  0  0
   -3.5360   24.0260  -28.6350 C   0  0  0  0  0  0  0  0  0  0  0  0
   -2.5140   24.6170  -27.7020 C   0  0  0  0  0  0  0  0  0  0  0  0
   -1.1530   24.6340  -28.0530 C   0  0  0  0  0  0  0  0  0  0  0  0
   -0.2040   25.1460  -27.1630 C   0  0  0  0  0  0  0  0  0  0  0  0
   -0.6020   25.6350  -25.9160 C   0  0  0  0  0  0  0  0  0  0  0  0
   -1.9530   25.6080  -25.5540 C   0  0  0  0  0  0  0  0  0  0  0  0
   -2.9050   25.0940  -26.4400 C   0  0  0  0  0  0  0  0  0  0  0  0
   -5.3840   22.7140  -31.8660 C   0  0  0  0  0  0  0  0  0  0  0  0
   -6.0230   21.5510  -32.3210 C   0  0  0  0  0  0  0  0  0  0  0  0
   -5.2300   20.5050  -32.8940 N   0  0  0  0  0  0  0  0  0  0  0  0
   -3.5180   20.6830  -33.1110 S   0  0  0  0  0  0  0  0  0  0  0  0
   -2.9950   19.5340  -33.9250 O   0  0  0  0  0  0  0  0  0  0  0  0
   -3.2260   21.9600  -33.8500 O   0  0  0  0  0  0  0  0  0  0  0  0
   -2.7260   20.6960  -31.5390 C   0  0  0  0  0  0  0  0  0  0  0  0
   -1.3280   20.6290  -31.4690 C   0  0  0  0  0  0  0  0  0  0  0  0
   -0.6860   20.6030  -30.2280 C   0  0  0  0  0  0  0  0  0  0  0  0
   -1.4360   20.6330  -29.0450 C   0  0  0  0  0  0  0  0  0  0  0  0
   -0.6300   20.5370  -27.4770 S   0  0  0  0  0  0  0  0  0  0  0  0
    0.0200   21.8590  -27.1740 O   0  0  0  0  0  0  0  0  0  0  0  0
   -1.6550   20.2660  -26.4100 O   0  0  0  0  0  0  0  0  0  0  0  0
    0.5770   19.2710  -27.4540 N   0  0  0  0  0  0  0  0  0  0  0  0
    1.7410   19.6550  -28.2840 C   0  0  0  0  0  0  0  0  0  0  0  0
    2.5980   18.4370  -28.6460 C   0  0  0  0  0  0  0  0  0  0  0  0
    1.7950   17.4230  -29.4800 C   0  0  0  0  0  0  0  0  0  0  0  0
    0.2810   17.5080  -29.2260 C   0  0  0  0  0  0  0  0  0  0  0  0
   -0.0130   17.9490  -27.7830 C   0  0  0  0  0  0  0  0  0  0  0  0
   -2.8350   20.7130  -29.1150 C   0  0  0  0  0  0  0  0  0  0  0  0
   -3.4770   20.7440  -30.3560 C   0  0  0  0  0  0  0  0  0  0  0  0
   -8.6230   19.6360  -32.2070 H   0  0  0  0  0  0  0  0  0  0  0  0
   -8.0690   20.1530  -33.8250 H   0  0  0  0  0  0  0  0  0  0  0  0
   -9.2386   22.3546  -31.4470 H   0  0  0  0  0  0  0  0  0  0  0  0
   -8.0767   24.3848  -30.5895 H   0  0  0  0  0  0  0  0  0  0  0  0
   -3.0934   23.2125  -30.5866 H   0  0  0  0  0  0  0  0  0  0  0  0
   -2.0861   24.6342  -30.1073 H   0  0  0  0  0  0  0  0  0  0  0  0
   -4.4992   24.5360  -28.4864 H   0  0  0  0  0  0  0  0  0  0  0  0
   -3.6371   22.9525  -28.4172 H   0  0  0  0  0  0  0  0  0  0  0  0
   -0.8337   24.2434  -29.0305 H   0  0  0  0  0  0  0  0  0  0  0  0
    0.8590   25.1639  -27.4453 H   0  0  0  0  0  0  0  0  0  0  0  0
    0.1464   26.0409  -25.2195 H   0  0  0  0  0  0  0  0  0  0  0  0
   -2.2666   25.9913  -24.5718 H   0  0  0  0  0  0  0  0  0  0  0  0
   -3.9649   25.0631  -26.1473 H   0  0  0  0  0  0  0  0  0  0  0  0
   -4.2937   22.8134  -31.9729 H   0  0  0  0  0  0  0  0  0  0  0  0
   -5.7050   19.8000  -33.4980 H   0  0  0  0  0  0  0  0  0  0  0  0
   -0.7339   20.5968  -32.3942 H   0  0  0  0  0  0  0  0  0  0  0  0
    0.4121   20.5588  -30.1798 H   0  0  0  0  0  0  0  0  0  0  0  0
    1.3800   20.1262  -29.2101 H   0  0  0  0  0  0  0  0  0  0  0  0
    2.3620   20.3547  -27.7055 H   0  0  0  0  0  0  0  0  0  0  0  0
    3.4695   18.7711  -29.2282 H   0  0  0  0  0  0  0  0  0  0  0  0
    2.9198   17.9470  -27.7152 H   0  0  0  0  0  0  0  0  0  0  0  0
    1.9838   17.6171  -30.5462 H   0  0  0  0  0  0  0  0  0  0  0  0
    2.1243   16.4162  -29.1837 H   0  0  0  0  0  0  0  0  0  0  0  0
   -0.1598   18.2372  -29.9216 H   0  0  0  0  0  0  0  0  0  0  0  0
   -0.1566   16.5111  -29.3832 H   0  0  0  0  0  0  0  0  0  0  0  0
   -1.1032   18.0074  -27.6485 H   0  0  0  0  0  0  0  0  0  0  0  0
    0.4419   17.2067  -27.1106 H   0  0  0  0  0  0  0  0  0  0  0  0
   -3.4287   20.7515  -28.1898 H   0  0  0  0  0  0  0  0  0  0  0  0
   -4.5742   20.8062  -30.4048 H   0  0  0  0  0  0  0  0  0  0  0  0
  1  2  1  0
  2  3  2  0
  3  4  1  0
  4  5  2  0
  5  6  1  0
  6  7  2  0
  6  8  1  0
  8  9  1  0
  9 10  1  0
 10 11  1  0
 11 12  2  0
 12 13  1  0
 13 14  2  0
 14 15  1  0
 15 16  2  0
  5 17  1  0
 17 18  2  0
 18 19  1  0
 19 20  1  0
 20 21  2  0
 20 22  2  0
 20 23  1  0
 23 24  2  0
 24 25  1  0
 25 26  2  0
 26 27  1  0
 27 28  2  0
 27 29  2  0
 27 30  1  0
 30 31  1  0
 31 32  1  0
 32 33  1  0
 33 34  1  0
 34 35  1  0
 26 36  1  0
 36 37  2  0
 18  2  1  0
 37 23  1  0
 16 11  1  0
 35 30  1  0
  1 38  1  0
  1 39  1  0
  3 40  1  0
  4 41  1  0
  9 42  1  0
  9 43  1  0
 10 44  1  0
 10 45  1  0
 12 46  1  0
 13 47  1  0
 14 48  1  0
 15 49  1  0
 16 50  1  0
 17 51  1  0
 19 52  1  0
 24 53  1  0
 25 54  1  0
 31 55  1  0
 31 56  1  0
 32 57  1  0
 32 58  1  0
 33 59  1  0
 33 60  1  0
 34 61  1  0
 34 62  1  0
 35 63  1  0
 35 64  1  0
 36 65  1  0
 37 66  1  0
M  CHG  1   8  -1
M  END
>  <UniqueID>  (27) 
27

>  <SMILES>  (27) 
Nc1ccc(C(=O)[N-]CCc2ccccc2)cc1NS(=O)(=O)c1ccc(S(=O)(=O)N2CCCCC2)cc1

>  <Energy>  (27) 
81.35839586962297

>  <Genealogy>  (27) 
Nc1ccc(C(=O)[N-]CCc2ccccc2)cc1NS(=O)(=O)c1ccc(S(=O)(=O)N2CCCCC2)cc1 (protonated)
Nc1ccc(C(=O)[N-]CCc2ccccc2)cc1NS(=O)(=O)c1ccc(S(=O)(=O)N2CCCCC2)cc1 (3D coordinates assigned)
Nc1ccc(C(=O)[N-]CCc2ccccc2)cc1NS(=O)(=O)c1ccc(S(=O)(=O)N2CCCCC2)cc1 (nonaromatic ring conformer: 81.35839586962297 kcal/mol)

>  <smiles>  (27) 
Nc1ccc(C(=O)NCCc2ccccc2)cc1NS(=O)(=O)c1ccc(S(=O)(=O)N2CCCCC2)cc1

>  <score_type>  (27) 
oracle

>  <origin>  (27) 
adgpu

>  <m_score__min__energy>  (27) 
-11.369999999999999

>  <m_primary>  (27) 
energy

$$$$
27:0
     RDKit          3D

 65 68  0  0  0  0  0  0  0  0999 V2000
   -3.8110   21.9060  -27.4920 C   0  0  0  0  0  0  0  0  0  0  0  0
   -3.1330   23.0890  -28.1220 C   0  0  0  0  0  0  0  0  0  0  0  0
   -3.8200   23.8120  -29.0460 N   0  0  0  0  0  0  0  0  0  0  0  0
   -3.2720   24.8980  -29.6460 C   0  0  0  0  0  0  0  0  0  0  0  0
   -3.9330   25.5460  -30.4990 O   0  0  0  0  0  0  0  0  0  0  0  0
   -2.0140   25.2890  -29.3260 N   0  0  0  0  0  0  0  0  0  0  0  0
   -1.2760   24.6050  -28.4140 C   0  0  0  0  0  0  0  0  0  0  0  0
   -0.1160   25.0110  -28.1360 O   0  0  0  0  0  0  0  0  0  0  0  0
   -1.8090   23.4610  -27.7890 C   0  0  0  0  0  0  0  0  0  0  0  0
   -1.0110   22.7070  -26.7470 C   0  0  0  0  0  0  0  0  0  0  0  0
    0.3330   22.4230  -27.2640 N   0  0  0  0  0  0  0  0  0  0  0  0
    0.5910   20.9780  -27.3770 C   0  0  0  0  0  0  0  0  0  0  0  0
    0.7390   20.5250  -28.8400 C   0  0  0  0  0  0  0  0  0  0  0  0
   -0.4960   20.8700  -29.6290 C   0  0  0  0  0  0  0  0  0  0  0  0
   -0.4860   21.9430  -30.5340 C   0  0  0  0  0  0  0  0  0  0  0  0
   -1.6400   22.2710  -31.2520 C   0  0  0  0  0  0  0  0  0  0  0  0
   -2.8210   21.5430  -31.0610 C   0  0  0  0  0  0  0  0  0  0  0  0
   -4.2680   21.9450  -31.9850 S   0  0  0  0  0  0  0  0  0  0  0  0
   -3.8630   22.3100  -33.3870 O   0  0  0  0  0  0  0  0  0  0  0  0
   -4.9510   23.1320  -31.3630 O   0  0  0  0  0  0  0  0  0  0  0  0
   -5.3540   20.5740  -32.0230 N   0  0  0  0  0  0  0  0  0  0  0  0
   -6.4510   20.8260  -32.9880 C   0  0  0  0  0  0  0  0  0  0  0  0
   -7.0700   19.5130  -33.4780 C   0  0  0  0  0  0  0  0  0  0  0  0
   -6.0720   18.7170  -34.2250 N   0  0  0  0  0  0  0  0  0  0  0  0
   -6.4860   17.3160  -34.4680 C   0  0  0  0  0  0  0  0  0  0  0  0
   -5.6180   16.2870  -33.7700 C   0  0  0  0  0  0  0  0  0  0  0  0
   -4.6610   15.5560  -34.4960 C   0  0  0  0  0  0  0  0  0  0  0  0
   -3.8580   14.6070  -33.8550 C   0  0  0  0  0  0  0  0  0  0  0  0
   -3.9920   14.3920  -32.4810 C   0  0  0  0  0  0  0  0  0  0  0  0
   -3.2100   13.4730  -31.8590 F   0  0  0  0  0  0  0  0  0  0  0  0
   -4.9220   15.1310  -31.7440 C   0  0  0  0  0  0  0  0  0  0  0  0
   -5.7250   16.0810  -32.3830 C   0  0  0  0  0  0  0  0  0  0  0  0
   -4.6750   18.8800  -33.7560 C   0  0  0  0  0  0  0  0  0  0  0  0
   -4.6070   19.3130  -32.2810 C   0  0  0  0  0  0  0  0  0  0  0  0
   -2.8390   20.4810  -30.1460 C   0  0  0  0  0  0  0  0  0  0  0  0
   -1.6840   20.1460  -29.4340 C   0  0  0  0  0  0  0  0  0  0  0  0
   -3.7602   21.9946  -26.3968 H   0  0  0  0  0  0  0  0  0  0  0  0
   -4.8639   21.8751  -27.8089 H   0  0  0  0  0  0  0  0  0  0  0  0
   -3.3054   20.9819  -27.8089 H   0  0  0  0  0  0  0  0  0  0  0  0
   -0.9308   23.3174  -25.8354 H   0  0  0  0  0  0  0  0  0  0  0  0
   -1.5194   21.7599  -26.5135 H   0  0  0  0  0  0  0  0  0  0  0  0
    0.4440   22.8780  -28.2010 H   0  0  0  0  0  0  0  0  0  0  0  0
    1.5198   20.7410  -26.8374 H   0  0  0  0  0  0  0  0  0  0  0  0
   -0.2703   20.4471  -26.9453 H   0  0  0  0  0  0  0  0  0  0  0  0
    1.6073   21.0297  -29.2886 H   0  0  0  0  0  0  0  0  0  0  0  0
    0.8801   19.4343  -28.8610 H   0  0  0  0  0  0  0  0  0  0  0  0
    0.4339   22.5284  -30.6790 H   0  0  0  0  0  0  0  0  0  0  0  0
   -1.6202   23.1043  -31.9698 H   0  0  0  0  0  0  0  0  0  0  0  0
   -5.7750   20.5050  -31.0660 H   0  0  0  0  0  0  0  0  0  0  0  0
   -7.2294   21.4285  -32.4971 H   0  0  0  0  0  0  0  0  0  0  0  0
   -6.0362   21.3607  -33.8552 H   0  0  0  0  0  0  0  0  0  0  0  0
   -7.4210   18.9328  -32.6119 H   0  0  0  0  0  0  0  0  0  0  0  0
   -7.9127   19.7444  -34.1460 H   0  0  0  0  0  0  0  0  0  0  0  0
   -7.5201   17.1943  -34.1132 H   0  0  0  0  0  0  0  0  0  0  0  0
   -6.3855   17.1371  -35.5487 H   0  0  0  0  0  0  0  0  0  0  0  0
   -4.5431   15.7317  -35.5755 H   0  0  0  0  0  0  0  0  0  0  0  0
   -3.1209   14.0299  -34.4327 H   0  0  0  0  0  0  0  0  0  0  0  0
   -5.0222   14.9652  -30.6612 H   0  0  0  0  0  0  0  0  0  0  0  0
   -6.4450   16.6710  -31.7969 H   0  0  0  0  0  0  0  0  0  0  0  0
   -4.1487   17.9207  -33.8688 H   0  0  0  0  0  0  0  0  0  0  0  0
   -4.2035   19.6673  -34.3625 H   0  0  0  0  0  0  0  0  0  0  0  0
   -5.0370   18.5144  -31.6586 H   0  0  0  0  0  0  0  0  0  0  0  0
   -3.5505   19.4934  -32.0336 H   0  0  0  0  0  0  0  0  0  0  0  0
   -3.7654   19.9094  -29.9879 H   0  0  0  0  0  0  0  0  0  0  0  0
   -1.7052   19.3116  -28.7176 H   0  0  0  0  0  0  0  0  0  0  0  0
  1  2  1  0
  2  3  1  0
  3  4  1  0
  4  5  2  0
  4  6  1  0
  6  7  1  0
  7  8  2  0
  7  9  1  0
  9 10  1  0
 10 11  1  0
 11 12  1  0
 12 13  1  0
 13 14  1  0
 14 15  2  0
 15 16  1  0
 16 17  2  0
 17 18  1  0
 18 19  2  0
 18 20  2  0
 18 21  1  0
 21 22  1  0
 22 23  1  0
 23 24  1  0
 24 25  1  0
 25 26  1  0
 26 27  2  0
 27 28  1  0
 28 29  2  0
 29 30  1  0
 29 31  1  0
 31 32  2  0
 24 33  1  0
 33 34  1  0
 17 35  1  0
 35 36  2  0
  9  2  2  0
 36 14  1  0
 34 21  1  0
 32 26  1  0
  1 37  1  0
  1 38  1  0
  1 39  1  0
 10 40  1  0
 10 41  1  0
 11 42  1  0
 12 43  1  0
 12 44  1  0
 13 45  1  0
 13 46  1  0
 15 47  1  0
 16 48  1  0
 21 49  1  0
 22 50  1  0
 22 51  1  0
 23 52  1  0
 23 53  1  0
 25 54  1  0
 25 55  1  0
 27 56  1  0
 28 57  1  0
 31 58  1  0
 32 59  1  0
 33 60  1  0
 33 61  1  0
 34 62  1  0
 34 63  1  0
 35 64  1  0
 36 65  1  0
M  CHG  3   3  -1   6  -1  21   1
M  END
>  <UniqueID>  (28) 
28

>  <SMILES>  (28) 
Cc1[n-]c(=O)[n-]c(=O)c1CNCCc1ccc(S(=O)(=O)[NH+]2CCN(Cc3ccc(F)cc3)CC2)cc1

>  <Energy>  (28) 
81.62100614966283

>  <Genealogy>  (28) 
Cc1[n-]c(=O)[n-]c(=O)c1CNCCc1ccc(S(=O)(=O)[NH+]2CCN(Cc3ccc(F)cc3)CC2)cc1 (protonated)
Cc1[n-]c(=O)[n-]c(=O)c1CNCCc1ccc(S(=O)(=O)[NH+]2CCN(Cc3ccc(F)cc3)CC2)cc1 (3D coordinates assigned)
Cc1[n-]c(=O)[n-]c(=O)c1CNCCc1ccc(S(=O)(=O)[NH+]2CCN(Cc3ccc(F)cc3)CC2)cc1 (nonaromatic ring conformer: 81.62100614966283 kcal/mol)

>  <smiles>  (28) 
Cc1[nH]c(=O)[nH]c(=O)c1CNCCc1ccc(S(=O)(=O)N2CCN(Cc3ccc(F)cc3)CC2)cc1

>  <score_type>  (28) 
oracle

>  <origin>  (28) 
adgpu

>  <m_score__min__energy>  (28) 
-12.039999999999999

>  <m_primary>  (28) 
energy

$$$$
28:0
     RDKit          3D

 49 52  0  0  0  0  0  0  0  0999 V2000
   -3.9160   25.5740  -30.8910 O   0  0  0  0  0  0  0  0  0  0  0  0
   -4.4400   24.7060  -30.1440 C   0  0  0  0  0  0  0  0  0  0  0  0
   -5.8230   24.3780  -30.3410 N   0  0  0  0  0  0  0  0  0  0  0  0
   -6.3390   23.1160  -30.7920 C   0  0  0  0  0  0  0  0  0  0  0  0
   -5.4400   22.0940  -31.1150 C   0  0  0  0  0  0  0  0  0  0  0  0
   -5.9090   20.8570  -31.5680 C   0  0  0  0  0  0  0  0  0  0  0  0
   -7.2840   20.6340  -31.7120 C   0  0  0  0  0  0  0  0  0  0  0  0
   -7.8750   19.0880  -32.3050 S   0  0  0  0  0  0  0  0  0  0  0  0
   -8.1970   18.1820  -31.1490 O   0  0  0  0  0  0  0  0  0  0  0  0
   -9.1340   19.2920  -33.1010 O   0  0  0  0  0  0  0  0  0  0  0  0
   -6.6370   18.3500  -33.3140 C   0  0  0  0  0  0  0  0  0  0  0  0
   -5.8440   19.1440  -34.1520 C   0  0  0  0  0  0  0  0  0  0  0  0
   -4.8490   18.5570  -34.9380 C   0  0  0  0  0  0  0  0  0  0  0  0
   -4.6370   17.1770  -34.8860 C   0  0  0  0  0  0  0  0  0  0  0  0
   -5.4210   16.3740  -34.0440 C   0  0  0  0  0  0  0  0  0  0  0  0
   -5.1480   14.6310  -33.9700 S   0  0  0  0  0  0  0  0  0  0  0  0
   -6.4700   13.9390  -33.7880 O   0  0  0  0  0  0  0  0  0  0  0  0
   -4.5570   14.1750  -35.2740 O   0  0  0  0  0  0  0  0  0  0  0  0
   -4.0550   14.1220  -32.6410 C   0  0  0  0  0  0  0  0  0  0  0  0
   -4.6810   14.0640  -31.2570 C   0  0  0  0  0  0  0  0  0  0  0  0
   -4.3770   12.7770  -32.0120 C   0  0  0  0  0  0  0  0  0  0  0  0
   -6.4160   16.9680  -33.2540 C   0  0  0  0  0  0  0  0  0  0  0  0
   -8.1860   21.6670  -31.4240 C   0  0  0  0  0  0  0  0  0  0  0  0
   -7.7180   22.9040  -30.9710 C   0  0  0  0  0  0  0  0  0  0  0  0
   -3.6030   24.0030  -29.1410 C   0  0  0  0  0  0  0  0  0  0  0  0
   -4.0640   22.8140  -28.5480 C   0  0  0  0  0  0  0  0  0  0  0  0
   -3.2840   22.1410  -27.6060 C   0  0  0  0  0  0  0  0  0  0  0  0
   -2.0260   22.6410  -27.2480 C   0  0  0  0  0  0  0  0  0  0  0  0
   -1.2380   21.9770  -26.3100 O   0  0  0  0  0  0  0  0  0  0  0  0
   -1.5530   23.8160  -27.8390 C   0  0  0  0  0  0  0  0  0  0  0  0
   -2.3320   24.4980  -28.7810 C   0  0  0  0  0  0  0  0  0  0  0  0
   -1.8400   25.6730  -29.3400 O   0  0  0  0  0  0  0  0  0  0  0  0
   -4.3582   22.2644  -31.0121 H   0  0  0  0  0  0  0  0  0  0  0  0
   -5.1954   20.0563  -31.8121 H   0  0  0  0  0  0  0  0  0  0  0  0
   -6.0047   20.2315  -34.1915 H   0  0  0  0  0  0  0  0  0  0  0  0
   -4.2313   19.1827  -35.5991 H   0  0  0  0  0  0  0  0  0  0  0  0
   -3.8532   16.7188  -35.5070 H   0  0  0  0  0  0  0  0  0  0  0  0
   -3.1549   14.5891  -33.0672 H   0  0  0  0  0  0  0  0  0  0  0  0
   -4.0867   14.3365  -30.3724 H   0  0  0  0  0  0  0  0  0  0  0  0
   -5.5764   14.4988  -30.7889 H   0  0  0  0  0  0  0  0  0  0  0  0
   -3.5631   12.1194  -31.6728 H   0  0  0  0  0  0  0  0  0  0  0  0
   -4.9620   11.8962  -32.3154 H   0  0  0  0  0  0  0  0  0  0  0  0
   -7.0263   16.3452  -32.5835 H   0  0  0  0  0  0  0  0  0  0  0  0
   -9.2660   21.5040  -31.5548 H   0  0  0  0  0  0  0  0  0  0  0  0
   -8.4301   23.7138  -30.7539 H   0  0  0  0  0  0  0  0  0  0  0  0
   -5.0481   22.4107  -28.8290 H   0  0  0  0  0  0  0  0  0  0  0  0
   -3.6585   21.2157  -27.1439 H   0  0  0  0  0  0  0  0  0  0  0  0
   -0.7270   22.4830  -25.5960 H   0  0  0  0  0  0  0  0  0  0  0  0
   -0.5628   24.2070  -27.5622 H   0  0  0  0  0  0  0  0  0  0  0  0
  1  2  2  0
  2  3  1  0
  3  4  1  0
  4  5  2  0
  5  6  1  0
  6  7  2  0
  7  8  1  0
  8  9  2  0
  8 10  2  0
  8 11  1  0
 11 12  2  0
 12 13  1  0
 13 14  2  0
 14 15  1  0
 15 16  1  0
 16 17  2  0
 16 18  2  0
 16 19  1  0
 19 20  1  0
 20 21  1  0
 15 22  2  0
  7 23  1  0
 23 24  2  0
  2 25  1  0
 25 26  2  0
 26 27  1  0
 27 28  2  0
 28 29  1  0
 28 30  1  0
 30 31  2  0
 31 32  1  0
 24  4  1  0
 31 25  1  0
 22 11  1  0
 21 19  1  0
  5 33  1  0
  6 34  1  0
 12 35  1  0
 13 36  1  0
 14 37  1  0
 19 38  1  0
 20 39  1  0
 20 40  1  0
 21 41  1  0
 21 42  1  0
 22 43  1  0
 23 44  1  0
 24 45  1  0
 26 46  1  0
 27 47  1  0
 29 48  1  0
 30 49  1  0
M  CHG  2   3  -1  32  -1
M  END
>  <UniqueID>  (29) 
29

>  <SMILES>  (29) 
O=C([N-]c1ccc(S(=O)(=O)c2cccc(S(=O)(=O)C3CC3)c2)cc1)c1ccc(O)cc1[O-]

>  <Energy>  (29) 
324.86621263220877

>  <Genealogy>  (29) 
O=C([N-]c1ccc(S(=O)(=O)c2cccc(S(=O)(=O)C3CC3)c2)cc1)c1ccc(O)cc1[O-] (protonated)
O=C([N-]c1ccc(S(=O)(=O)c2cccc(S(=O)(=O)C3CC3)c2)cc1)c1ccc(O)cc1[O-] (3D coordinates assigned)
O=C([N-]c1ccc(S(=O)(=O)c2cccc(S(=O)(=O)C3CC3)c2)cc1)c1ccc(O)cc1[O-] (nonaromatic ring conformer: 324.86621263220877 kcal/mol)

>  <smiles>  (29) 
O=C(Nc1ccc(S(=O)(=O)c2cccc(S(=O)(=O)C3CC3)c2)cc1)c1ccc(O)cc1O

>  <score_type>  (29) 
oracle

>  <origin>  (29) 
adgpu

>  <m_score__min__energy>  (29) 
-14.140000000000001

>  <m_primary>  (29) 
energy

$$$$
29:0
     RDKit          3D

 49 52  0  0  0  0  0  0  0  0999 V2000
    0.2700   17.9280  -29.0110 C   0  0  0  0  0  0  0  0  0  0  0  0
    1.1340   19.0820  -27.9010 S   0  0  0  0  0  0  0  0  0  0  0  0
    0.1190   20.4770  -28.3730 C   0  0  0  0  0  0  0  0  0  0  0  0
   -0.1500   21.5110  -27.5460 N   0  0  0  0  0  0  0  0  0  0  0  0
   -0.9480   22.4220  -28.1560 C   0  0  0  0  0  0  0  0  0  0  0  0
   -1.4120   23.5920  -27.5540 C   0  0  0  0  0  0  0  0  0  0  0  0
   -2.2470   24.4430  -28.2970 C   0  0  0  0  0  0  0  0  0  0  0  0
   -2.6150   24.1240  -29.6290 C   0  0  0  0  0  0  0  0  0  0  0  0
   -3.4760   24.9680  -30.4040 N   0  0  0  0  0  0  0  0  0  0  0  0
   -5.2120   24.9740  -30.3000 S   0  0  0  0  0  0  0  0  0  0  0  0
   -5.7350   26.1780  -31.0360 O   0  0  0  0  0  0  0  0  0  0  0  0
   -5.6650   25.0760  -28.8640 O   0  0  0  0  0  0  0  0  0  0  0  0
   -5.8360   23.5060  -31.0660 C   0  0  0  0  0  0  0  0  0  0  0  0
   -6.9930   23.5450  -31.8630 C   0  0  0  0  0  0  0  0  0  0  0  0
   -7.5710   22.3570  -32.3270 C   0  0  0  0  0  0  0  0  0  0  0  0
   -6.9870   21.1200  -32.0130 C   0  0  0  0  0  0  0  0  0  0  0  0
   -7.7900   19.6160  -32.4610 S   0  0  0  0  0  0  0  0  0  0  0  0
   -7.9670   18.7640  -31.2340 O   0  0  0  0  0  0  0  0  0  0  0  0
   -9.1500   19.9230  -33.0300 O   0  0  0  0  0  0  0  0  0  0  0  0
   -6.8230   18.7540  -33.6360 N   0  0  0  0  0  0  0  0  0  0  0  0
   -6.9070   17.2970  -33.3990 C   0  0  0  0  0  0  0  0  0  0  0  0
   -5.8490   16.5280  -34.2180 C   0  0  0  0  0  0  0  0  0  0  0  0
   -5.2390   17.3620  -35.1850 O   0  0  0  0  0  0  0  0  0  0  0  0
   -4.5260   18.3950  -34.5340 C   0  0  0  0  0  0  0  0  0  0  0  0
   -5.4240   19.2150  -33.5780 C   0  0  0  0  0  0  0  0  0  0  0  0
   -5.8050   21.0850  -31.2590 C   0  0  0  0  0  0  0  0  0  0  0  0
   -5.2390   22.2700  -30.7780 C   0  0  0  0  0  0  0  0  0  0  0  0
   -2.1140   22.9520  -30.2270 C   0  0  0  0  0  0  0  0  0  0  0  0
   -1.3000   22.1190  -29.4620 C   0  0  0  0  0  0  0  0  0  0  0  0
   -0.6140   20.6520  -29.8860 S   0  0  0  0  0  0  0  0  0  0  0  0
   -0.2833   17.1890  -28.4130 H   0  0  0  0  0  0  0  0  0  0  0  0
   -0.4335   18.4870  -29.6456 H   0  0  0  0  0  0  0  0  0  0  0  0
    1.0044   17.4104  -29.6456 H   0  0  0  0  0  0  0  0  0  0  0  0
   -1.1303   23.8425  -26.5206 H   0  0  0  0  0  0  0  0  0  0  0  0
   -2.6209   25.3705  -27.8389 H   0  0  0  0  0  0  0  0  0  0  0  0
   -7.4464   24.5128  -32.1234 H   0  0  0  0  0  0  0  0  0  0  0  0
   -8.4845   22.3933  -32.9387 H   0  0  0  0  0  0  0  0  0  0  0  0
   -7.2160   18.9720  -34.5830 H   0  0  0  0  0  0  0  0  0  0  0  0
   -6.7440   17.0990  -32.3293 H   0  0  0  0  0  0  0  0  0  0  0  0
   -7.9034   16.9534  -33.7139 H   0  0  0  0  0  0  0  0  0  0  0  0
   -5.0755   16.1465  -33.5352 H   0  0  0  0  0  0  0  0  0  0  0  0
   -6.3502   15.7003  -34.7411 H   0  0  0  0  0  0  0  0  0  0  0  0
   -3.7064   17.9473  -33.9527 H   0  0  0  0  0  0  0  0  0  0  0  0
   -4.1436   19.0787  -35.3062 H   0  0  0  0  0  0  0  0  0  0  0  0
   -5.0510   19.1016  -32.5494 H   0  0  0  0  0  0  0  0  0  0  0  0
   -5.3912   20.2700  -33.8877 H   0  0  0  0  0  0  0  0  0  0  0  0
   -5.3207   20.1208  -31.0449 H   0  0  0  0  0  0  0  0  0  0  0  0
   -4.3221   22.2325  -30.1715 H   0  0  0  0  0  0  0  0  0  0  0  0
   -2.3585   22.7007  -31.2696 H   0  0  0  0  0  0  0  0  0  0  0  0
  1  2  1  0
  2  3  1  0
  3  4  2  0
  4  5  1  0
  5  6  2  0
  6  7  1  0
  7  8  2  0
  8  9  1  0
  9 10  1  0
 10 11  2  0
 10 12  2  0
 10 13  1  0
 13 14  2  0
 14 15  1  0
 15 16  2  0
 16 17  1  0
 17 18  2  0
 17 19  2  0
 17 20  1  0
 20 21  1  0
 21 22  1  0
 22 23  1  0
 23 24  1  0
 24 25  1  0
 16 26  1  0
 26 27  2  0
  8 28  1  0
 28 29  2  0
 29 30  1  0
 30  3  1  0
 29  5  1  0
 27 13  1  0
 25 20  1  0
  1 31  1  0
  1 32  1  0
  1 33  1  0
  6 34  1  0
  7 35  1  0
 14 36  1  0
 15 37  1  0
 20 38  1  0
 21 39  1  0
 21 40  1  0
 22 41  1  0
 22 42  1  0
 24 43  1  0
 24 44  1  0
 25 45  1  0
 25 46  1  0
 26 47  1  0
 27 48  1  0
 28 49  1  0
M  CHG  2   9  -1  20   1
M  END
>  <UniqueID>  (30) 
30

>  <SMILES>  (30) 
CSc1nc2ccc([N-]S(=O)(=O)c3ccc(S(=O)(=O)[NH+]4CCOCC4)cc3)cc2s1

>  <Energy>  (30) 
95.53428164295822

>  <Genealogy>  (30) 
CSc1nc2ccc([N-]S(=O)(=O)c3ccc(S(=O)(=O)[NH+]4CCOCC4)cc3)cc2s1 (protonated)
CSc1nc2ccc([N-]S(=O)(=O)c3ccc(S(=O)(=O)[NH+]4CCOCC4)cc3)cc2s1 (3D coordinates assigned)
CSc1nc2ccc([N-]S(=O)(=O)c3ccc(S(=O)(=O)[NH+]4CCOCC4)cc3)cc2s1 (nonaromatic ring conformer: 95.53428164295822 kcal/mol)

>  <smiles>  (30) 
CSc1nc2ccc(NS(=O)(=O)c3ccc(S(=O)(=O)N4CCOCC4)cc3)cc2s1

>  <score_type>  (30) 
oracle

>  <origin>  (30) 
adgpu

>  <m_score__min__energy>  (30) 
-11.199999999999999

>  <m_primary>  (30) 
energy

$$$$
30:0
     RDKit          3D

 63 66  0  0  0  0  0  0  0  0999 V2000
   -3.2750   23.9480  -28.1010 C   0  0  0  0  0  0  0  0  0  0  0  0
   -2.5580   24.5470  -29.3000 C   0  0  0  0  0  0  0  0  0  0  0  0
   -3.4910   25.2750  -30.0930 O   0  0  0  0  0  0  0  0  0  0  0  0
   -4.8160   24.8790  -30.3340 C   0  0  0  0  0  0  0  0  0  0  0  0
   -5.9170   25.5880  -29.8100 C   0  0  0  0  0  0  0  0  0  0  0  0
   -7.2210   25.1650  -30.0790 C   0  0  0  0  0  0  0  0  0  0  0  0
   -7.4420   24.0270  -30.8530 C   0  0  0  0  0  0  0  0  0  0  0  0
   -6.3600   23.3130  -31.3720 C   0  0  0  0  0  0  0  0  0  0  0  0
   -5.0430   23.7450  -31.1350 C   0  0  0  0  0  0  0  0  0  0  0  0
   -3.9140   23.0190  -31.6480 N   0  0  0  0  0  0  0  0  0  0  0  0
   -3.6610   21.6180  -31.4910 C   0  0  0  0  0  0  0  0  0  0  0  0
   -3.8590   21.0970  -30.3620 O   0  0  0  0  0  0  0  0  0  0  0  0
   -3.1010   20.7920  -32.5900 C   0  0  0  0  0  0  0  0  0  0  0  0
   -1.7830   21.0290  -33.0170 C   0  0  0  0  0  0  0  0  0  0  0  0
   -1.1880   20.2250  -33.9960 C   0  0  0  0  0  0  0  0  0  0  0  0
    0.4930   20.4990  -34.4650 S   0  0  0  0  0  0  0  0  0  0  0  0
    0.7450   19.8590  -35.8010 O   0  0  0  0  0  0  0  0  0  0  0  0
    0.7320   21.9770  -34.6030 O   0  0  0  0  0  0  0  0  0  0  0  0
    1.6040   19.8210  -33.2940 N   0  0  0  0  0  0  0  0  0  0  0  0
    2.0080   18.4410  -33.6600 C   0  0  0  0  0  0  0  0  0  0  0  0
    1.2700   17.3660  -32.8470 C   0  0  0  0  0  0  0  0  0  0  0  0
    1.5040   17.5470  -31.3360 C   0  0  0  0  0  0  0  0  0  0  0  0
    1.7590   19.0130  -30.9440 C   0  0  0  0  0  0  0  0  0  0  0  0
    1.0680   19.9680  -31.9230 C   0  0  0  0  0  0  0  0  0  0  0  0
   -1.9190   19.1800  -34.5700 C   0  0  0  0  0  0  0  0  0  0  0  0
   -3.2310   18.9370  -34.1650 C   0  0  0  0  0  0  0  0  0  0  0  0
   -3.8330   19.7300  -33.1770 C   0  0  0  0  0  0  0  0  0  0  0  0
   -5.1860   19.4420  -32.7910 N   0  0  0  0  0  0  0  0  0  0  0  0
   -6.2230   20.4260  -33.1330 C   0  0  0  0  0  0  0  0  0  0  0  0
   -7.5730   20.0970  -32.4900 C   0  0  0  0  0  0  0  0  0  0  0  0
   -7.8110   18.7080  -32.4960 O   0  0  0  0  0  0  0  0  0  0  0  0
   -6.9110   18.0860  -31.6050 C   0  0  0  0  0  0  0  0  0  0  0  0
   -5.4770   18.1560  -32.1350 C   0  0  0  0  0  0  0  0  0  0  0  0
   -2.8202   24.3280  -27.1743 H   0  0  0  0  0  0  0  0  0  0  0  0
   -4.3377   24.2305  -28.1305 H   0  0  0  0  0  0  0  0  0  0  0  0
   -3.1860   22.8520  -28.1305 H   0  0  0  0  0  0  0  0  0  0  0  0
   -1.7643   25.2245  -28.9523 H   0  0  0  0  0  0  0  0  0  0  0  0
   -2.1128   23.7415  -29.9025 H   0  0  0  0  0  0  0  0  0  0  0  0
   -5.7481   26.4783  -29.1865 H   0  0  0  0  0  0  0  0  0  0  0  0
   -8.0751   25.7312  -29.6792 H   0  0  0  0  0  0  0  0  0  0  0  0
   -8.4698   23.6911  -31.0552 H   0  0  0  0  0  0  0  0  0  0  0  0
   -6.5390   22.4072  -31.9698 H   0  0  0  0  0  0  0  0  0  0  0  0
   -1.2109   21.8583  -32.5754 H   0  0  0  0  0  0  0  0  0  0  0  0
    1.7924   18.2836  -34.7271 H   0  0  0  0  0  0  0  0  0  0  0  0
    3.0813   18.3421  -33.4401 H   0  0  0  0  0  0  0  0  0  0  0  0
    0.1920   17.4379  -33.0536 H   0  0  0  0  0  0  0  0  0  0  0  0
    1.6585   16.3802  -33.1424 H   0  0  0  0  0  0  0  0  0  0  0  0
    0.6145   17.1886  -30.7971 H   0  0  0  0  0  0  0  0  0  0  0  0
    2.4024   16.9713  -31.0685 H   0  0  0  0  0  0  0  0  0  0  0  0
    1.3665   19.1887  -29.9316 H   0  0  0  0  0  0  0  0  0  0  0  0
    2.8423   19.2018  -30.9738 H   0  0  0  0  0  0  0  0  0  0  0  0
   -0.0099   19.7488  -31.9353 H   0  0  0  0  0  0  0  0  0  0  0  0
    1.2544   20.9992  -31.5885 H   0  0  0  0  0  0  0  0  0  0  0  0
   -1.4577   18.5480  -35.3431 H   0  0  0  0  0  0  0  0  0  0  0  0
   -3.7995   18.1152  -34.6249 H   0  0  0  0  0  0  0  0  0  0  0  0
   -5.8980   21.4175  -32.7849 H   0  0  0  0  0  0  0  0  0  0  0  0
   -6.3573   20.4068  -34.2246 H   0  0  0  0  0  0  0  0  0  0  0  0
   -7.5736   20.4574  -31.4507 H   0  0  0  0  0  0  0  0  0  0  0  0
   -8.3666   20.5907  -33.0700 H   0  0  0  0  0  0  0  0  0  0  0  0
   -6.9597   18.5950  -30.6311 H   0  0  0  0  0  0  0  0  0  0  0  0
   -7.1950   17.0283  -31.5020 H   0  0  0  0  0  0  0  0  0  0  0  0
   -4.7817   18.0230  -31.2930 H   0  0  0  0  0  0  0  0  0  0  0  0
   -5.3561   17.3605  -32.8851 H   0  0  0  0  0  0  0  0  0  0  0  0
  1  2  1  0
  2  3  1  0
  3  4  1  0
  4  5  2  0
  5  6  1  0
  6  7  2  0
  7  8  1  0
  8  9  2  0
  9 10  1  0
 10 11  1  0
 11 12  2  0
 11 13  1  0
 13 14  2  0
 14 15  1  0
 15 16  1  0
 16 17  2  0
 16 18  2  0
 16 19  1  0
 19 20  1  0
 20 21  1  0
 21 22  1  0
 22 23  1  0
 23 24  1  0
 15 25  2  0
 25 26  1  0
 26 27  2  0
 27 28  1  0
 28 29  1  0
 29 30  1  0
 30 31  1  0
 31 32  1  0
 32 33  1  0
  9  4  1  0
 27 13  1  0
 33 28  1  0
 24 19  1  0
  1 34  1  0
  1 35  1  0
  1 36  1  0
  2 37  1  0
  2 38  1  0
  5 39  1  0
  6 40  1  0
  7 41  1  0
  8 42  1  0
 14 43  1  0
 20 44  1  0
 20 45  1  0
 21 46  1  0
 21 47  1  0
 22 48  1  0
 22 49  1  0
 23 50  1  0
 23 51  1  0
 24 52  1  0
 24 53  1  0
 25 54  1  0
 26 55  1  0
 29 56  1  0
 29 57  1  0
 30 58  1  0
 30 59  1  0
 32 60  1  0
 32 61  1  0
 33 62  1  0
 33 63  1  0
M  CHG  1  10  -1
M  END
>  <UniqueID>  (31) 
31

>  <SMILES>  (31) 
CCOc1ccccc1[N-]C(=O)c1cc(S(=O)(=O)N2CCCCC2)ccc1N1CCOCC1

>  <Energy>  (31) 
81.42660775922685

>  <Genealogy>  (31) 
CCOc1ccccc1[N-]C(=O)c1cc(S(=O)(=O)N2CCCCC2)ccc1N1CCOCC1 (protonated)
CCOc1ccccc1[N-]C(=O)c1cc(S(=O)(=O)N2CCCCC2)ccc1N1CCOCC1 (3D coordinates assigned)
CCOc1ccccc1[N-]C(=O)c1cc(S(=O)(=O)N2CCCCC2)ccc1N1CCOCC1 (nonaromatic ring conformer: 81.42660775922685 kcal/mol)

>  <smiles>  (31) 
CCOc1ccccc1NC(=O)c1cc(S(=O)(=O)N2CCCCC2)ccc1N1CCOCC1

>  <score_type>  (31) 
oracle

>  <origin>  (31) 
adgpu

>  <m_score__min__energy>  (31) 
-10.75

>  <m_primary>  (31) 
energy

$$$$
31:0
     RDKit          3D

 66 70  0  0  0  0  0  0  0  0999 V2000
   -1.1223   21.9369  -32.8891 H   0  0  0  0  0  0  0  0  0  0  0  0
   -2.0130   21.5730  -32.3560 C   0  0  0  0  0  0  0  0  0  0  0  0
   -2.3630   22.1270  -31.1690 N   0  0  0  0  0  0  0  0  0  0  0  0
   -3.4570   21.6950  -30.4850 C   0  0  0  0  0  0  0  0  0  0  0  0
   -3.8060   22.2360  -29.3540 N   0  0  0  0  0  0  0  0  0  0  0  0
   -3.0930   23.2460  -28.6210 C   0  0  0  0  0  0  0  0  0  0  0  0
   -1.7290   23.5090  -28.8460 C   0  0  0  0  0  0  0  0  0  0  0  0
   -1.1858   22.9542  -29.6252 H   0  0  0  0  0  0  0  0  0  0  0  0
   -1.0610   24.4720  -28.0840 C   0  0  0  0  0  0  0  0  0  0  0  0
    0.0027   24.6770  -28.2753 H   0  0  0  0  0  0  0  0  0  0  0  0
   -1.7370   25.1810  -27.0750 C   0  0  0  0  0  0  0  0  0  0  0  0
   -1.0180   26.2160  -26.2280 C   0  0  0  0  0  0  0  0  0  0  0  0
   -1.2376   27.2065  -26.6531 H   0  0  0  0  0  0  0  0  0  0  0  0
    0.5260   26.0600  -26.2900 C   0  0  0  0  0  0  0  0  0  0  0  0
    0.7764   25.3207  -27.0651 H   0  0  0  0  0  0  0  0  0  0  0  0
    0.9557   27.0455  -26.5226 H   0  0  0  0  0  0  0  0  0  0  0  0
    1.1160   25.5930  -24.9530 C   0  0  0  0  0  0  0  0  0  0  0  0
    0.7182   24.5950  -24.7170 H   0  0  0  0  0  0  0  0  0  0  0  0
    2.2113   25.5676  -25.0517 H   0  0  0  0  0  0  0  0  0  0  0  0
    0.7750   26.5150  -23.8550 N   0  0  0  0  0  0  0  0  0  0  0  0
    0.9540   26.0140  -22.9540 H   0  0  0  0  0  0  0  0  0  0  0  0
   -0.6210   27.0030  -23.8620 C   0  0  0  0  0  0  0  0  0  0  0  0
   -1.0139   26.9477  -22.8360 H   0  0  0  0  0  0  0  0  0  0  0  0
   -0.6007   28.0331  -24.2473 H   0  0  0  0  0  0  0  0  0  0  0  0
   -1.5490   26.1970  -24.7810 C   0  0  0  0  0  0  0  0  0  0  0  0
   -1.5974   25.1570  -24.4259 H   0  0  0  0  0  0  0  0  0  0  0  0
   -2.5517   26.6489  -24.7620 H   0  0  0  0  0  0  0  0  0  0  0  0
   -3.0880   24.8850  -26.8270 C   0  0  0  0  0  0  0  0  0  0  0  0
   -3.6251   25.4158  -26.0271 H   0  0  0  0  0  0  0  0  0  0  0  0
   -3.7550   23.9210  -27.5890 C   0  0  0  0  0  0  0  0  0  0  0  0
   -4.8093   23.6911  -27.3755 H   0  0  0  0  0  0  0  0  0  0  0  0
   -4.2260   20.7090  -31.0100 N   0  0  0  0  0  0  0  0  0  0  0  0
   -3.9250   20.1200  -32.1990 C   0  0  0  0  0  0  0  0  0  0  0  0
   -4.8080   19.0430  -32.7060 C   0  0  0  0  0  0  0  0  0  0  0  0
   -4.4220   17.6960  -32.5850 C   0  0  0  0  0  0  0  0  0  0  0  0
   -3.4682   17.4449  -32.0979 H   0  0  0  0  0  0  0  0  0  0  0  0
   -5.2390   16.6710  -33.0780 C   0  0  0  0  0  0  0  0  0  0  0  0
   -4.7510   14.9880  -32.8990 S   0  0  0  0  0  0  0  0  0  0  0  0
   -5.6600   14.1050  -33.7070 O   0  0  0  0  0  0  0  0  0  0  0  0
   -3.3430   14.8110  -33.3960 O   0  0  0  0  0  0  0  0  0  0  0  0
   -4.8370   14.5310  -31.2340 N   0  0  0  0  0  0  0  0  0  0  0  0
   -5.4450   15.2320  -30.7550 H   0  0  0  0  0  0  0  0  0  0  0  0
   -5.3420   13.6180  -31.1930 H   0  0  0  0  0  0  0  0  0  0  0  0
   -6.4550   16.9890  -33.6870 C   0  0  0  0  0  0  0  0  0  0  0  0
   -7.1087   16.1857  -34.0577 H   0  0  0  0  0  0  0  0  0  0  0  0
   -6.8440   18.3220  -33.8270 C   0  0  0  0  0  0  0  0  0  0  0  0
   -7.8031   18.5631  -34.3086 H   0  0  0  0  0  0  0  0  0  0  0  0
   -6.0190   19.3590  -33.3570 C   0  0  0  0  0  0  0  0  0  0  0  0
   -6.4130   20.7020  -33.4680 O   0  0  0  0  0  0  0  0  0  0  0  0
   -6.6890   21.5590  -32.3930 C   0  0  0  0  0  0  0  0  0  0  0  0
   -6.0320   22.7950  -32.3330 C   0  0  0  0  0  0  0  0  0  0  0  0
   -5.3081   23.0678  -33.1150 H   0  0  0  0  0  0  0  0  0  0  0  0
   -6.2910   23.6840  -31.2850 C   0  0  0  0  0  0  0  0  0  0  0  0
   -5.7644   24.6487  -31.2395 H   0  0  0  0  0  0  0  0  0  0  0  0
   -7.2190   23.3470  -30.2950 C   0  0  0  0  0  0  0  0  0  0  0  0
   -7.4183   24.0439  -29.4676 H   0  0  0  0  0  0  0  0  0  0  0  0
   -7.8930   22.1250  -30.3570 C   0  0  0  0  0  0  0  0  0  0  0  0
   -8.6270   21.8633  -29.5807 H   0  0  0  0  0  0  0  0  0  0  0  0
   -7.6370   21.2340  -31.4030 C   0  0  0  0  0  0  0  0  0  0  0  0
   -8.1769   20.2769  -31.4533 H   0  0  0  0  0  0  0  0  0  0  0  0
   -2.7830   20.5370  -32.9070 C   0  0  0  0  0  0  0  0  0  0  0  0
   -2.4360   19.9030  -34.1110 O   0  0  0  0  0  0  0  0  0  0  0  0
   -1.5550   18.7900  -34.2100 C   0  0  0  0  0  0  0  0  0  0  0  0
   -1.2832   18.4466  -33.2009 H   0  0  0  0  0  0  0  0  0  0  0  0
   -2.0546   17.9741  -34.7528 H   0  0  0  0  0  0  0  0  0  0  0  0
   -0.6461   19.0889  -34.7528 H   0  0  0  0  0  0  0  0  0  0  0  0
  1  2  1  0
  2  3  2  0
  3  4  1  0
  4  5  2  0
  5  6  1  0
  6  7  2  0
  7  8  1  0
  7  9  1  0
  9 10  1  0
  9 11  2  0
 11 12  1  0
 12 13  1  0
 12 14  1  0
 14 15  1  0
 14 16  1  0
 14 17  1  0
 17 18  1  0
 17 19  1  0
 17 20  1  0
 20 21  1  0
 20 22  1  0
 22 23  1  0
 22 24  1  0
 22 25  1  0
 25 26  1  0
 25 27  1  0
 11 28  1  0
 28 29  1  0
 28 30  2  0
 30 31  1  0
  4 32  1  0
 32 33  1  0
 33 34  1  0
 34 35  2  0
 35 36  1  0
 35 37  1  0
 37 38  1  0
 38 39  2  0
 38 40  2  0
 38 41  1  0
 41 42  1  0
 41 43  1  0
 37 44  2  0
 44 45  1  0
 44 46  1  0
 46 47  1  0
 46 48  2  0
 48 49  1  0
 49 50  1  0
 50 51  2  0
 51 52  1  0
 51 53  1  0
 53 54  1  0
 53 55  2  0
 55 56  1  0
 55 57  1  0
 57 58  1  0
 57 59  2  0
 59 60  1  0
 33 61  2  0
 61 62  1  0
 62 63  1  0
 63 64  1  0
 63 65  1  0
 63 66  1  0
 61  2  1  0
 30  6  1  0
 48 34  1  0
 59 50  1  0
 25 12  1  0
M  CHG  1  32  -1
M  END
>  <UniqueID>  (32) 
32

>  <SMILES>  (32) 
COc1cn/c(=N\c2ccc(C3CCNCC3)cc2)[n-]c1-c1cc(S(N)(=O)=O)ccc1Oc1ccccc1

>  <Energy>  (32) 
95.63624711503503

>  <Genealogy>  (32) 
COc1cnc(=Nc2ccc(C3CCNCC3)cc2)[n-]c1-c1cc(S(N)(=O)=O)ccc1Oc1ccccc1 (protonated)
COc1cn/c(=N\c2ccc(C3CCNCC3)cc2)[n-]c1-c1cc(S(N)(=O)=O)ccc1Oc1ccccc1 (cis-trans isomerization)
COc1cn/c(=N\c2ccc(C3CCNCC3)cc2)[n-]c1-c1cc(S(N)(=O)=O)ccc1Oc1ccccc1 (3D coordinates assigned)
COc1cn/c(=N\c2ccc(C3CCNCC3)cc2)[n-]c1-c1cc(S(N)(=O)=O)ccc1Oc1ccccc1 (nonaromatic ring conformer: 95.63624711503503 kcal/mol)

>  <smiles>  (32) 
COc1cnc(=Nc2ccc(C3CCNCC3)cc2)[nH]c1-c1cc(S(N)(=O)=O)ccc1Oc1ccccc1

>  <score_type>  (32) 
oracle

>  <origin>  (32) 
adgpu

>  <m_score__min__energy>  (32) 
-11.289999999999999

>  <m_primary>  (32) 
energy

$$$$
32:0
     RDKit          3D

 46 49  0  0  0  0  0  0  0  0999 V2000
    0.7550   18.7300  -27.7060 C   0  0  0  0  0  0  0  0  0  0  0  0
   -0.4590   19.5090  -28.0000 N   0  0  0  0  0  0  0  0  0  0  0  0
   -1.4860   19.2380  -26.9780 C   0  0  0  0  0  0  0  0  0  0  0  0
   -2.8140   19.8720  -27.3980 C   0  0  0  0  0  0  0  0  0  0  0  0
   -2.6420   21.2960  -27.8610 C   0  0  0  0  0  0  0  0  0  0  0  0
   -3.7730   22.1120  -27.9980 C   0  0  0  0  0  0  0  0  0  0  0  0
   -3.6580   23.4120  -28.5070 C   0  0  0  0  0  0  0  0  0  0  0  0
   -4.8020   24.2650  -28.5940 N   0  0  0  0  0  0  0  0  0  0  0  0
   -5.4940   24.7010  -30.1190 S   0  0  0  0  0  0  0  0  0  0  0  0
   -6.8220   25.3680  -29.8890 O   0  0  0  0  0  0  0  0  0  0  0  0
   -4.5940   25.6610  -30.8520 O   0  0  0  0  0  0  0  0  0  0  0  0
   -5.7300   23.2270  -31.0530 C   0  0  0  0  0  0  0  0  0  0  0  0
   -4.6850   22.6940  -31.8170 C   0  0  0  0  0  0  0  0  0  0  0  0
   -4.8380   21.4630  -32.4630 C   0  0  0  0  0  0  0  0  0  0  0  0
   -6.0420   20.7460  -32.3510 C   0  0  0  0  0  0  0  0  0  0  0  0
   -6.2320   19.4270  -32.9970 C   0  0  0  0  0  0  0  0  0  0  0  0
   -6.9440   18.3430  -32.5070 C   0  0  0  0  0  0  0  0  0  0  0  0
   -6.8430   17.3620  -33.4750 C   0  0  0  0  0  0  0  0  0  0  0  0
   -6.0820   17.9030  -34.4920 C   0  0  0  0  0  0  0  0  0  0  0  0
   -5.7330   19.1280  -34.1800 O   0  0  0  0  0  0  0  0  0  0  0  0
   -7.0890   21.2950  -31.5930 C   0  0  0  0  0  0  0  0  0  0  0  0
   -6.9320   22.5200  -30.9460 C   0  0  0  0  0  0  0  0  0  0  0  0
   -2.4040   23.8920  -28.9070 C   0  0  0  0  0  0  0  0  0  0  0  0
   -2.2880   25.1850  -29.4190 O   0  0  0  0  0  0  0  0  0  0  0  0
   -1.2690   23.0830  -28.7690 C   0  0  0  0  0  0  0  0  0  0  0  0
   -1.3810   21.7810  -28.2560 C   0  0  0  0  0  0  0  0  0  0  0  0
   -0.1400   20.9510  -28.0360 C   0  0  0  0  0  0  0  0  0  0  0  0
    0.8831   18.6478  -26.6166 H   0  0  0  0  0  0  0  0  0  0  0  0
    0.6595   17.7241  -28.1409 H   0  0  0  0  0  0  0  0  0  0  0  0
    1.6296   19.2359  -28.1409 H   0  0  0  0  0  0  0  0  0  0  0  0
   -1.6176   18.1511  -26.8715 H   0  0  0  0  0  0  0  0  0  0  0  0
   -1.1655   19.6680  -26.0176 H   0  0  0  0  0  0  0  0  0  0  0  0
   -3.2445   19.2814  -28.2201 H   0  0  0  0  0  0  0  0  0  0  0  0
   -3.4779   19.8792  -26.5210 H   0  0  0  0  0  0  0  0  0  0  0  0
   -4.7607   21.7280  -27.7030 H   0  0  0  0  0  0  0  0  0  0  0  0
   -3.7383   23.2464  -31.9097 H   0  0  0  0  0  0  0  0  0  0  0  0
   -4.0114   21.0535  -33.0622 H   0  0  0  0  0  0  0  0  0  0  0  0
   -7.4780   18.2775  -31.5476 H   0  0  0  0  0  0  0  0  0  0  0  0
   -7.2807   16.3534  -33.4419 H   0  0  0  0  0  0  0  0  0  0  0  0
   -5.8096   17.3848  -35.4233 H   0  0  0  0  0  0  0  0  0  0  0  0
   -8.0426   20.7531  -31.5089 H   0  0  0  0  0  0  0  0  0  0  0  0
   -7.7580   22.9327  -30.3481 H   0  0  0  0  0  0  0  0  0  0  0  0
   -3.1010   25.7210  -29.7070 H   0  0  0  0  0  0  0  0  0  0  0  0
   -0.2829   23.4705  -29.0647 H   0  0  0  0  0  0  0  0  0  0  0  0
    0.5684   21.1411  -28.8558 H   0  0  0  0  0  0  0  0  0  0  0  0
    0.3002   21.2338  -27.0684 H   0  0  0  0  0  0  0  0  0  0  0  0
  1  2  1  0
  2  3  1  0
  3  4  1  0
  4  5  1  0
  5  6  2  0
  6  7  1  0
  7  8  1  0
  8  9  1  0
  9 10  2  0
  9 11  2  0
  9 12  1  0
 12 13  2  0
 13 14  1  0
 14 15  2  0
 15 16  1  0
 16 17  2  0
 17 18  1  0
 18 19  2  0
 19 20  1  0
 15 21  1  0
 21 22  2  0
  7 23  2  0
 23 24  1  0
 23 25  1  0
 25 26  2  0
 26 27  1  0
 27  2  1  0
 26  5  1  0
 22 12  1  0
 20 16  1  0
  1 28  1  0
  1 29  1  0
  1 30  1  0
  3 31  1  0
  3 32  1  0
  4 33  1  0
  4 34  1  0
  6 35  1  0
 13 36  1  0
 14 37  1  0
 17 38  1  0
 18 39  1  0
 19 40  1  0
 21 41  1  0
 22 42  1  0
 24 43  1  0
 25 44  1  0
 27 45  1  0
 27 46  1  0
M  CHG  1   8  -1
M  END
>  <UniqueID>  (33) 
33

>  <SMILES>  (33) 
CN1CCc2cc([N-]S(=O)(=O)c3ccc(-c4ccco4)cc3)c(O)cc2C1

>  <Energy>  (33) 
85.47805136814081

>  <Genealogy>  (33) 
CN1CCc2cc([N-]S(=O)(=O)c3ccc(-c4ccco4)cc3)c(O)cc2C1 (protonated)
CN1CCc2cc([N-]S(=O)(=O)c3ccc(-c4ccco4)cc3)c(O)cc2C1 (3D coordinates assigned)
CN1CCc2cc([N-]S(=O)(=O)c3ccc(-c4ccco4)cc3)c(O)cc2C1 (nonaromatic ring conformer: 85.47805136814081 kcal/mol)

>  <smiles>  (33) 
CN1CCc2cc(NS(=O)(=O)c3ccc(-c4ccco4)cc3)c(O)cc2C1

>  <score_type>  (33) 
oracle

>  <origin>  (33) 
adgpu

>  <m_score__min__energy>  (33) 
-11

>  <m_primary>  (33) 
energy

$$$$
33:0
     RDKit          3D

 55 58  0  0  0  0  0  0  0  0999 V2000
   -0.7590   20.3290  -35.2970 O   0  0  0  0  0  0  0  0  0  0  0  0
   -1.4060   19.8120  -34.0400 S   0  0  0  0  0  0  0  0  0  0  0  0
   -2.4440   20.8060  -33.5950 O   0  0  0  0  0  0  0  0  0  0  0  0
   -2.2090   18.2770  -34.3640 C   0  0  0  0  0  0  0  0  0  0  0  0
   -1.5580   17.3010  -35.1300 C   0  0  0  0  0  0  0  0  0  0  0  0
   -2.1880   16.0830  -35.3970 C   0  0  0  0  0  0  0  0  0  0  0  0
   -3.4740   15.8380  -34.9090 C   0  0  0  0  0  0  0  0  0  0  0  0
   -4.1380   16.8110  -34.1530 C   0  0  0  0  0  0  0  0  0  0  0  0
   -5.7570   16.4850  -33.5370 S   0  0  0  0  0  0  0  0  0  0  0  0
   -5.6460   15.5500  -32.3650 O   0  0  0  0  0  0  0  0  0  0  0  0
   -6.5880   15.8210  -34.6010 O   0  0  0  0  0  0  0  0  0  0  0  0
   -6.5140   17.9800  -33.0380 N   0  0  0  0  0  0  0  0  0  0  0  0
   -6.1940   18.2850  -31.6150 C   0  0  0  0  0  0  0  0  0  0  0  0
   -5.1290   19.3760  -31.4520 C   0  0  0  0  0  0  0  0  0  0  0  0
   -5.5390   20.5910  -32.1720 N   0  0  0  0  0  0  0  0  0  0  0  0
   -5.1130   21.8960  -31.7210 C   0  0  0  0  0  0  0  0  0  0  0  0
   -3.8030   22.0960  -31.2450 C   0  0  0  0  0  0  0  0  0  0  0  0
   -3.3940   23.3590  -30.8040 C   0  0  0  0  0  0  0  0  0  0  0  0
   -4.2840   24.4350  -30.8340 C   0  0  0  0  0  0  0  0  0  0  0  0
   -3.8750   25.6890  -30.3970 O   0  0  0  0  0  0  0  0  0  0  0  0
   -5.5870   24.2490  -31.3040 C   0  0  0  0  0  0  0  0  0  0  0  0
   -6.0000   22.9890  -31.7450 C   0  0  0  0  0  0  0  0  0  0  0  0
   -6.3500   20.4510  -33.3890 C   0  0  0  0  0  0  0  0  0  0  0  0
   -6.1580   19.0560  -33.9930 C   0  0  0  0  0  0  0  0  0  0  0  0
   -3.5020   18.0310  -33.8790 C   0  0  0  0  0  0  0  0  0  0  0  0
   -0.2110   19.6000  -32.7800 N   0  0  0  0  0  0  0  0  0  0  0  0
    0.3050   20.8980  -32.3320 C   0  0  0  0  0  0  0  0  0  0  0  0
   -0.5170   21.3480  -31.1310 C   0  0  0  0  0  0  0  0  0  0  0  0
   -1.2610   20.1140  -30.6620 C   0  0  0  0  0  0  0  0  0  0  0  0
   -0.8200   18.9930  -31.5920 C   0  0  0  0  0  0  0  0  0  0  0  0
   -0.5486   17.4942  -35.5220 H   0  0  0  0  0  0  0  0  0  0  0  0
   -1.6709   15.3159  -35.9922 H   0  0  0  0  0  0  0  0  0  0  0  0
   -3.9664   14.8772  -35.1196 H   0  0  0  0  0  0  0  0  0  0  0  0
   -7.5470   17.8240  -33.1070 H   0  0  0  0  0  0  0  0  0  0  0  0
   -7.1148   18.6186  -31.1141 H   0  0  0  0  0  0  0  0  0  0  0  0
   -5.7884   17.3652  -31.1684 H   0  0  0  0  0  0  0  0  0  0  0  0
   -5.0070   19.6092  -30.3840 H   0  0  0  0  0  0  0  0  0  0  0  0
   -4.1761   19.0151  -31.8664 H   0  0  0  0  0  0  0  0  0  0  0  0
   -3.0964   21.2533  -31.2197 H   0  0  0  0  0  0  0  0  0  0  0  0
   -2.3689   23.5051  -30.4327 H   0  0  0  0  0  0  0  0  0  0  0  0
   -6.2886   25.0959  -31.3268 H   0  0  0  0  0  0  0  0  0  0  0  0
   -7.0269   22.8500  -32.1140 H   0  0  0  0  0  0  0  0  0  0  0  0
   -7.4111   20.5956  -33.1376 H   0  0  0  0  0  0  0  0  0  0  0  0
   -6.0323   21.2072  -34.1220 H   0  0  0  0  0  0  0  0  0  0  0  0
   -6.7964   18.9646  -34.8841 H   0  0  0  0  0  0  0  0  0  0  0  0
   -5.0945   18.9421  -34.2499 H   0  0  0  0  0  0  0  0  0  0  0  0
   -4.0188   18.7969  -33.2821 H   0  0  0  0  0  0  0  0  0  0  0  0
    1.3620   20.7992  -32.0439 H   0  0  0  0  0  0  0  0  0  0  0  0
    0.2293   21.6374  -33.1429 H   0  0  0  0  0  0  0  0  0  0  0  0
    0.1413   21.7254  -30.3347 H   0  0  0  0  0  0  0  0  0  0  0  0
   -1.2063   22.1646  -31.3920 H   0  0  0  0  0  0  0  0  0  0  0  0
   -0.9944   19.8771  -29.6214 H   0  0  0  0  0  0  0  0  0  0  0  0
   -2.3508   20.2606  -30.6890 H   0  0  0  0  0  0  0  0  0  0  0  0
   -0.0851   18.3528  -31.0820 H   0  0  0  0  0  0  0  0  0  0  0  0
   -1.6831   18.3747  -31.8798 H   0  0  0  0  0  0  0  0  0  0  0  0
  1  2  2  0
  2  3  2  0
  2  4  1  0
  4  5  2  0
  5  6  1  0
  6  7  2  0
  7  8  1  0
  8  9  1  0
  9 10  2  0
  9 11  2  0
  9 12  1  0
 12 13  1  0
 13 14  1  0
 14 15  1  0
 15 16  1  0
 16 17  2  0
 17 18  1  0
 18 19  2  0
 19 20  1  0
 19 21  1  0
 21 22  2  0
 15 23  1  0
 23 24  1  0
  8 25  2  0
  2 26  1  0
 26 27  1  0
 27 28  1  0
 28 29  1  0
 29 30  1  0
 25  4  1  0
 30 26  1  0
 24 12  1  0
 22 16  1  0
  5 31  1  0
  6 32  1  0
  7 33  1  0
 12 34  1  0
 13 35  1  0
 13 36  1  0
 14 37  1  0
 14 38  1  0
 17 39  1  0
 18 40  1  0
 21 41  1  0
 22 42  1  0
 23 43  1  0
 23 44  1  0
 24 45  1  0
 24 46  1  0
 25 47  1  0
 27 48  1  0
 27 49  1  0
 28 50  1  0
 28 51  1  0
 29 52  1  0
 29 53  1  0
 30 54  1  0
 30 55  1  0
M  CHG  2  12   1  20  -1
M  END
>  <UniqueID>  (34) 
34

>  <SMILES>  (34) 
O=S(=O)(c1cccc(S(=O)(=O)[NH+]2CCN(c3ccc([O-])cc3)CC2)c1)N1CCCC1

>  <Energy>  (34) 
66.3843380658719

>  <Genealogy>  (34) 
O=S(=O)(c1cccc(S(=O)(=O)[NH+]2CCN(c3ccc([O-])cc3)CC2)c1)N1CCCC1 (protonated)
O=S(=O)(c1cccc(S(=O)(=O)[NH+]2CCN(c3ccc([O-])cc3)CC2)c1)N1CCCC1 (3D coordinates assigned)
O=S(=O)(c1cccc(S(=O)(=O)[NH+]2CCN(c3ccc([O-])cc3)CC2)c1)N1CCCC1 (nonaromatic ring conformer: 66.3843380658719 kcal/mol)

>  <smiles>  (34) 
O=S(=O)(c1cccc(S(=O)(=O)N2CCN(c3ccc(O)cc3)CC2)c1)N1CCCC1

>  <score_type>  (34) 
oracle

>  <origin>  (34) 
adgpu

>  <m_score__min__energy>  (34) 
-10.19

>  <m_primary>  (34) 
energy

$$$$
34:0
     RDKit          3D

 48 50  0  0  0  0  0  0  0  0999 V2000
   -5.3520   18.1330  -34.6480 C   0  0  0  0  0  0  0  0  0  0  0  0
   -5.0190   17.8710  -33.2530 N   0  0  0  0  0  0  0  0  0  0  0  0
   -6.4740   17.7980  -32.3050 S   0  0  0  0  0  0  0  0  0  0  0  0
   -7.4580   16.8830  -32.9780 O   0  0  0  0  0  0  0  0  0  0  0  0
   -6.1520   17.2480  -30.9430 O   0  0  0  0  0  0  0  0  0  0  0  0
   -7.1930   19.4010  -32.1650 C   0  0  0  0  0  0  0  0  0  0  0  0
   -8.5790   19.5750  -32.2590 C   0  0  0  0  0  0  0  0  0  0  0  0
   -9.1320   20.8550  -32.1570 C   0  0  0  0  0  0  0  0  0  0  0  0
   -8.3090   21.9670  -31.9550 C   0  0  0  0  0  0  0  0  0  0  0  0
   -8.8840   23.2300  -31.8760 O   0  0  0  0  0  0  0  0  0  0  0  0
   -6.9170   21.7980  -31.8430 C   0  0  0  0  0  0  0  0  0  0  0  0
   -5.8340   23.1690  -31.5990 S   0  0  0  0  0  0  0  0  0  0  0  0
   -6.4930   24.4600  -31.9980 O   0  0  0  0  0  0  0  0  0  0  0  0
   -4.6030   22.9620  -32.4340 O   0  0  0  0  0  0  0  0  0  0  0  0
   -5.4240   23.2610  -29.9160 N   0  0  0  0  0  0  0  0  0  0  0  0
   -4.0820   23.1870  -29.4290 C   0  0  0  0  0  0  0  0  0  0  0  0
   -3.7220   22.1100  -28.6120 C   0  0  0  0  0  0  0  0  0  0  0  0
   -2.4080   21.9800  -28.1440 C   0  0  0  0  0  0  0  0  0  0  0  0
   -1.9500   20.5760  -27.1840 S   0  0  0  0  0  0  0  0  0  0  0  0
   -1.2760   21.0340  -25.9210 O   0  0  0  0  0  0  0  0  0  0  0  0
   -3.1840   19.7990  -26.8120 O   0  0  0  0  0  0  0  0  0  0  0  0
   -0.8470   19.5830  -28.1030 N   0  0  0  0  0  0  0  0  0  0  0  0
   -0.6770   18.2650  -27.4890 C   0  0  0  0  0  0  0  0  0  0  0  0
    0.7040   17.7740  -27.8920 C   0  0  0  0  0  0  0  0  0  0  0  0
    1.4610   19.0150  -28.3380 C   0  0  0  0  0  0  0  0  0  0  0  0
    0.4910   20.1690  -28.1360 C   0  0  0  0  0  0  0  0  0  0  0  0
   -1.4550   22.9500  -28.4820 C   0  0  0  0  0  0  0  0  0  0  0  0
   -1.8200   24.0510  -29.2630 C   0  0  0  0  0  0  0  0  0  0  0  0
   -3.1330   24.1790  -29.7300 C   0  0  0  0  0  0  0  0  0  0  0  0
   -3.4870   25.3030  -30.4680 O   0  0  0  0  0  0  0  0  0  0  0  0
   -6.3670   20.5130  -31.9620 C   0  0  0  0  0  0  0  0  0  0  0  0
   -6.2156   18.8125  -34.6974 H   0  0  0  0  0  0  0  0  0  0  0  0
   -4.4904   18.5980  -35.1495 H   0  0  0  0  0  0  0  0  0  0  0  0
   -5.6012   17.1862  -35.1495 H   0  0  0  0  0  0  0  0  0  0  0  0
   -9.2332   18.7042  -32.4132 H   0  0  0  0  0  0  0  0  0  0  0  0
  -10.2211   20.9880  -32.2361 H   0  0  0  0  0  0  0  0  0  0  0  0
   -4.4767   21.3592  -28.3349 H   0  0  0  0  0  0  0  0  0  0  0  0
   -0.7472   18.3443  -26.3941 H   0  0  0  0  0  0  0  0  0  0  0  0
   -1.4594   17.5676  -27.8228 H   0  0  0  0  0  0  0  0  0  0  0  0
    1.2092   17.3020  -27.0364 H   0  0  0  0  0  0  0  0  0  0  0  0
    0.6522   17.0183  -28.6897 H   0  0  0  0  0  0  0  0  0  0  0  0
    2.3630   19.1576  -27.7248 H   0  0  0  0  0  0  0  0  0  0  0  0
    1.7962   18.9383  -29.3829 H   0  0  0  0  0  0  0  0  0  0  0  0
    0.7043   20.6836  -27.1875 H   0  0  0  0  0  0  0  0  0  0  0  0
    0.5812   20.9113  -28.9428 H   0  0  0  0  0  0  0  0  0  0  0  0
   -0.4174   22.8452  -28.1322 H   0  0  0  0  0  0  0  0  0  0  0  0
   -1.0726   24.8190  -29.5111 H   0  0  0  0  0  0  0  0  0  0  0  0
   -5.2774   20.3779  -31.8952 H   0  0  0  0  0  0  0  0  0  0  0  0
  1  2  1  0
  2  3  1  0
  3  4  2  0
  3  5  2  0
  3  6  1  0
  6  7  2  0
  7  8  1  0
  8  9  2  0
  9 10  1  0
  9 11  1  0
 11 12  1  0
 12 13  2  0
 12 14  2  0
 12 15  1  0
 15 16  1  0
 16 17  2  0
 17 18  1  0
 18 19  1  0
 19 20  2  0
 19 21  2  0
 19 22  1  0
 22 23  1  0
 23 24  1  0
 24 25  1  0
 25 26  1  0
 18 27  2  0
 27 28  1  0
 28 29  2  0
 29 30  1  0
 11 31  2  0
 31  6  1  0
 29 16  1  0
 26 22  1  0
  1 32  1  0
  1 33  1  0
  1 34  1  0
  7 35  1  0
  8 36  1  0
 17 37  1  0
 23 38  1  0
 23 39  1  0
 24 40  1  0
 24 41  1  0
 25 42  1  0
 25 43  1  0
 26 44  1  0
 26 45  1  0
 27 46  1  0
 28 47  1  0
 31 48  1  0
M  CHG  4   2  -1  10  -1  15  -1  30  -1
M  END
>  <UniqueID>  (35) 
35

>  <SMILES>  (35) 
C[N-]S(=O)(=O)c1ccc([O-])c(S(=O)(=O)[N-]c2cc(S(=O)(=O)N3CCCC3)ccc2[O-])c1

>  <Energy>  (35) 
55.36896163717973

>  <Genealogy>  (35) 
C[N-]S(=O)(=O)c1ccc([O-])c(S(=O)(=O)[N-]c2cc(S(=O)(=O)N3CCCC3)ccc2[O-])c1 (protonated)
C[N-]S(=O)(=O)c1ccc([O-])c(S(=O)(=O)[N-]c2cc(S(=O)(=O)N3CCCC3)ccc2[O-])c1 (3D coordinates assigned)
C[N-]S(=O)(=O)c1ccc([O-])c(S(=O)(=O)[N-]c2cc(S(=O)(=O)N3CCCC3)ccc2[O-])c1 (nonaromatic ring conformer: 55.36896163717973 kcal/mol)

>  <smiles>  (35) 
CNS(=O)(=O)c1ccc(O)c(S(=O)(=O)Nc2cc(S(=O)(=O)N3CCCC3)ccc2O)c1

>  <score_type>  (35) 
oracle

>  <origin>  (35) 
adgpu

>  <m_score__min__energy>  (35) 
-14.539999999999999

>  <m_primary>  (35) 
energy

$$$$
35:0
     RDKit          3D

 39 40  0  0  0  0  0  0  0  0999 V2000
   -3.5830   17.5380  -34.2240 C   0  0  0  0  0  0  0  0  0  0  0  0
   -4.7710   16.7990  -34.8270 C   0  0  0  0  0  0  0  0  0  0  0  0
   -6.0770   16.5900  -33.6260 S   0  0  0  0  0  0  0  0  0  0  0  0
   -5.5420   15.8590  -32.4280 O   0  0  0  0  0  0  0  0  0  0  0  0
   -7.1890   15.7760  -34.2270 O   0  0  0  0  0  0  0  0  0  0  0  0
   -6.6830   18.1650  -33.1260 C   0  0  0  0  0  0  0  0  0  0  0  0
   -6.3750   19.3130  -33.8690 C   0  0  0  0  0  0  0  0  0  0  0  0
   -6.8040   20.5680  -33.4320 C   0  0  0  0  0  0  0  0  0  0  0  0
   -7.5390   20.6880  -32.2460 C   0  0  0  0  0  0  0  0  0  0  0  0
   -7.9840   22.2810  -31.6440 S   0  0  0  0  0  0  0  0  0  0  0  0
   -7.7330   23.3110  -32.7090 O   0  0  0  0  0  0  0  0  0  0  0  0
   -9.4470   22.3000  -31.2990 O   0  0  0  0  0  0  0  0  0  0  0  0
   -7.0340   22.6690  -30.1800 C   0  0  0  0  0  0  0  0  0  0  0  0
   -5.8430   23.5220  -30.5190 C   0  0  0  0  0  0  0  0  0  0  0  0
   -5.6020   24.8350  -30.1510 C   0  0  0  0  0  0  0  0  0  0  0  0
   -6.5050   25.7290  -29.3640 C   0  0  0  0  0  0  0  0  0  0  0  0
   -4.3810   25.2050  -30.5840 N   0  0  0  0  0  0  0  0  0  0  0  0
   -3.8680   24.1790  -31.2020 O   0  0  0  0  0  0  0  0  0  0  0  0
   -4.6920   23.1570  -31.1960 C   0  0  0  0  0  0  0  0  0  0  0  0
   -4.3700   21.8260  -31.7910 C   0  0  0  0  0  0  0  0  0  0  0  0
   -7.8540   19.5400  -31.5060 C   0  0  0  0  0  0  0  0  0  0  0  0
   -7.4270   18.2840  -31.9450 C   0  0  0  0  0  0  0  0  0  0  0  0
   -3.6456   17.4990  -33.1265 H   0  0  0  0  0  0  0  0  0  0  0  0
   -2.6484   17.0616  -34.5551 H   0  0  0  0  0  0  0  0  0  0  0  0
   -3.5972   18.5869  -34.5551 H   0  0  0  0  0  0  0  0  0  0  0  0
   -5.1570   17.3757  -35.6805 H   0  0  0  0  0  0  0  0  0  0  0  0
   -4.4341   15.8039  -35.1528 H   0  0  0  0  0  0  0  0  0  0  0  0
   -5.7938   19.2251  -34.7988 H   0  0  0  0  0  0  0  0  0  0  0  0
   -6.5638   21.4653  -34.0213 H   0  0  0  0  0  0  0  0  0  0  0  0
   -7.6744   23.2120  -29.4694 H   0  0  0  0  0  0  0  0  0  0  0  0
   -6.6757   21.7285  -29.7361 H   0  0  0  0  0  0  0  0  0  0  0  0
   -6.3385   25.5641  -28.2893 H   0  0  0  0  0  0  0  0  0  0  0  0
   -6.2887   26.7787  -29.6118 H   0  0  0  0  0  0  0  0  0  0  0  0
   -7.5524   25.5022  -29.6118 H   0  0  0  0  0  0  0  0  0  0  0  0
   -4.1937   21.0974  -30.9859 H   0  0  0  0  0  0  0  0  0  0  0  0
   -5.2125   21.4888  -32.4127 H   0  0  0  0  0  0  0  0  0  0  0  0
   -3.4666   21.9112  -32.4127 H   0  0  0  0  0  0  0  0  0  0  0  0
   -8.4383   19.6280  -30.5782 H   0  0  0  0  0  0  0  0  0  0  0  0
   -7.6759   17.3856  -31.3612 H   0  0  0  0  0  0  0  0  0  0  0  0
  1  2  1  0
  2  3  1  0
  3  4  2  0
  3  5  2  0
  3  6  1  0
  6  7  2  0
  7  8  1  0
  8  9  2  0
  9 10  1  0
 10 11  2  0
 10 12  2  0
 10 13  1  0
 13 14  1  0
 14 15  1  0
 15 16  1  0
 15 17  2  0
 17 18  1  0
 18 19  1  0
 19 20  1  0
  9 21  1  0
 21 22  2  0
 22  6  1  0
 19 14  2  0
  1 23  1  0
  1 24  1  0
  1 25  1  0
  2 26  1  0
  2 27  1  0
  7 28  1  0
  8 29  1  0
 13 30  1  0
 13 31  1  0
 16 32  1  0
 16 33  1  0
 16 34  1  0
 20 35  1  0
 20 36  1  0
 20 37  1  0
 21 38  1  0
 22 39  1  0
M  END
>  <UniqueID>  (36) 
36

>  <SMILES>  (36) 
CCS(=O)(=O)c1ccc(S(=O)(=O)Cc2c(C)noc2C)cc1

>  <Energy>  (36) 
55.18735647737607

>  <Genealogy>  (36) 
CCS(=O)(=O)c1ccc(S(=O)(=O)Cc2c(C)noc2C)cc1 (3D coordinates assigned)
CCS(=O)(=O)c1ccc(S(=O)(=O)Cc2c(C)noc2C)cc1 (optimized conformer: 55.18735647737607 kcal/mol)

>  <smiles>  (36) 
CCS(=O)(=O)c1ccc(S(=O)(=O)Cc2c(C)noc2C)cc1

>  <score_type>  (36) 
oracle

>  <origin>  (36) 
adgpu

>  <m_score__min__energy>  (36) 
-9.6199999999999992

>  <m_primary>  (36) 
energy

$$$$
36:0
     RDKit          3D

 42 44  0  0  1  0  0  0  0  0999 V2000
   -8.2050   19.8220  -33.3540 N   0  0  0  0  0  0  0  0  0  0  0  0
   -8.6580   20.8160  -31.9970 S   0  0  0  0  0  0  0  0  0  0  0  0
   -9.8490   21.6560  -32.3120 O   0  0  0  0  0  0  0  0  0  0  0  0
   -8.9680   19.8450  -30.8690 O   0  0  0  0  0  0  0  0  0  0  0  0
   -7.2880   21.8360  -31.5890 C   0  0  0  0  0  0  0  0  0  0  0  0
   -7.4950   23.0400  -30.9450 C   0  0  0  0  0  0  0  0  0  0  0  0
   -6.4200   23.8520  -30.6190 C   0  0  0  0  0  0  0  0  0  0  0  0
   -5.1200   23.5010  -30.9180 C   0  0  0  0  0  0  0  0  0  0  0  0
   -3.9970   24.3150  -30.5950 N   0  0  0  0  0  0  0  0  0  0  0  0
   -3.2380   23.9980  -29.6280 C   0  0  0  0  0  0  0  0  0  0  0  0
   -3.4270   22.9070  -28.8610 N   0  0  0  0  0  0  0  0  0  0  0  0
   -2.5810   22.6260  -27.8460 C   0  0  0  0  0  0  0  0  0  0  0  0
   -1.5090   23.4560  -27.5830 C   0  0  0  0  0  0  0  0  0  0  0  0
   -1.3150   24.5740  -28.3690 C   0  0  0  0  0  0  0  0  0  0  0  0
   -0.3580   25.3890  -28.1980 N   0  0  0  0  0  0  0  0  0  0  0  0
    0.5960   25.1540  -27.1240 C   0  0  0  0  0  0  0  0  0  0  0  0
    0.1690   25.8210  -25.8660 C   0  0  0  0  0  0  0  0  0  0  0  0
    1.1220   26.1060  -24.8950 C   0  0  0  0  0  0  0  0  0  0  0  0
    0.7190   26.7270  -23.7310 C   0  0  0  0  0  0  0  0  0  0  0  0
   -0.6090   27.0440  -23.5630 C   0  0  0  0  0  0  0  0  0  0  0  0
   -1.5720   26.7620  -24.5330 C   0  0  0  0  0  0  0  0  0  0  0  0
   -1.1660   26.1400  -25.7010 C   0  0  0  0  0  0  0  0  0  0  0  0
   -2.1850   24.8140  -29.3710 N   0  0  0  0  0  0  0  0  0  0  0  0
   -4.9140   22.2950  -31.5630 C   0  0  0  0  0  0  0  0  0  0  0  0
   -5.9890   21.4730  -31.8940 C   0  0  0  0  0  0  0  0  0  0  0  0
   -8.3120   20.4140  -34.2080 H   0  0  0  0  0  0  0  0  0  0  0  0
   -8.8890   19.0300  -33.4480 H   0  0  0  0  0  0  0  0  0  0  0  0
   -8.5173   23.3559  -30.6897 H   0  0  0  0  0  0  0  0  0  0  0  0
   -6.6096   24.8063  -30.1057 H   0  0  0  0  0  0  0  0  0  0  0  0
   -4.2380   22.2810  -29.0620 H   0  0  0  0  0  0  0  0  0  0  0  0
   -2.7467   21.7323  -27.2264 H   0  0  0  0  0  0  0  0  0  0  0  0
   -0.8184   23.2290  -26.7575 H   0  0  0  0  0  0  0  0  0  0  0  0
    0.6757   24.0714  -26.9462 H   0  0  0  0  0  0  0  0  0  0  0  0
    1.5679   25.5718  -27.4256 H   0  0  0  0  0  0  0  0  0  0  0  0
    2.1781   25.8412  -25.0519 H   0  0  0  0  0  0  0  0  0  0  0  0
    1.4514   26.9660  -22.9459 H   0  0  0  0  0  0  0  0  0  0  0  0
   -0.9230   27.5372  -22.6312 H   0  0  0  0  0  0  0  0  0  0  0  0
   -2.6275   27.0275  -24.3733 H   0  0  0  0  0  0  0  0  0  0  0  0
   -1.8966   25.9024  -26.4883 H   0  0  0  0  0  0  0  0  0  0  0  0
   -2.0380   25.6700  -29.9740 H   0  0  0  0  0  0  0  0  0  0  0  0
   -3.8907   21.9816  -31.8173 H   0  0  0  0  0  0  0  0  0  0  0  0
   -5.8011   20.5183  -32.4071 H   0  0  0  0  0  0  0  0  0  0  0  0
  1  2  1  0
  2  3  2  0
  2  4  2  0
  2  5  1  0
  5  6  2  0
  6  7  1  0
  7  8  2  0
  8  9  1  0
  9 10  2  0
 10 11  1  0
 11 12  1  0
 12 13  2  0
 13 14  1  0
 14 15  2  0
 15 16  1  0
 16 17  1  0
 17 18  2  0
 18 19  1  0
 19 20  2  0
 20 21  1  0
 21 22  2  0
 14 23  1  0
  8 24  1  0
 24 25  2  0
 25  5  1  0
 23 10  1  0
 22 17  1  0
  1 26  1  0
  1 27  1  0
  6 28  1  0
  7 29  1  0
 11 30  1  0
 12 31  1  0
 13 32  1  0
 16 33  1  0
 16 34  1  0
 18 35  1  0
 19 36  1  0
 20 37  1  0
 21 38  1  0
 22 39  1  0
 23 40  1  0
 24 41  1  0
 25 42  1  0
M  END
>  <smiles>  (37) 
NS(=O)(=O)c1ccc(N=c2[nH]ccc(=NCc3ccccc3)[nH]2)cc1

>  <score_type>  (37) 
oracle

>  <origin>  (37) 
adgpu

>  <m_score__min__energy>  (37) 
-9.5299999999999994

>  <m_primary>  (37) 
energy

$$$$
37:0
     RDKit          3D

 55 58  0  0  0  0  0  0  0  0999 V2000
   -6.0850   17.0660  -33.1960 C   0  0  0  0  0  0  0  0  0  0  0  0
   -5.1770   18.2280  -34.2010 S   0  0  0  0  0  0  0  0  0  0  0  0
   -6.1230   19.2960  -34.6720 O   0  0  0  0  0  0  0  0  0  0  0  0
   -4.6280   17.5100  -35.4020 O   0  0  0  0  0  0  0  0  0  0  0  0
   -3.8690   18.9760  -33.3180 N   0  0  0  0  0  0  0  0  0  0  0  0
   -3.8370   20.4330  -33.5720 C   0  0  0  0  0  0  0  0  0  0  0  0
   -2.4830   21.0750  -33.2040 C   0  0  0  0  0  0  0  0  0  0  0  0
   -1.7120   20.2080  -32.3030 N   0  0  0  0  0  0  0  0  0  0  0  0
   -0.9120   20.7740  -31.2490 C   0  0  0  0  0  0  0  0  0  0  0  0
    0.2800   20.3910  -31.1050 O   0  0  0  0  0  0  0  0  0  0  0  0
   -1.4700   21.7760  -30.3090 C   0  0  0  0  0  0  0  0  0  0  0  0
   -1.1950   21.7010  -28.9340 C   0  0  0  0  0  0  0  0  0  0  0  0
   -1.7140   22.6560  -28.0580 C   0  0  0  0  0  0  0  0  0  0  0  0
   -2.4980   23.7090  -28.5410 C   0  0  0  0  0  0  0  0  0  0  0  0
   -2.9940   24.6450  -27.6320 O   0  0  0  0  0  0  0  0  0  0  0  0
   -2.7660   23.8120  -29.9190 C   0  0  0  0  0  0  0  0  0  0  0  0
   -3.5520   24.9120  -30.4030 N   0  0  0  0  0  0  0  0  0  0  0  0
   -5.2800   25.0280  -30.3100 S   0  0  0  0  0  0  0  0  0  0  0  0
   -5.7480   26.1380  -31.2060 O   0  0  0  0  0  0  0  0  0  0  0  0
   -5.6860   25.3470  -28.8980 O   0  0  0  0  0  0  0  0  0  0  0  0
   -6.0030   23.5170  -30.8530 C   0  0  0  0  0  0  0  0  0  0  0  0
   -5.2170   22.3590  -30.9060 C   0  0  0  0  0  0  0  0  0  0  0  0
   -5.7760   21.1420  -31.3100 C   0  0  0  0  0  0  0  0  0  0  0  0
   -7.1330   21.0710  -31.6570 C   0  0  0  0  0  0  0  0  0  0  0  0
   -7.7080   19.8520  -32.0490 C   0  0  0  0  0  0  0  0  0  0  0  0
   -9.0640   19.7930  -32.3850 C   0  0  0  0  0  0  0  0  0  0  0  0
   -9.8530   20.9440  -32.3310 C   0  0  0  0  0  0  0  0  0  0  0  0
   -9.2930   22.1650  -31.9430 C   0  0  0  0  0  0  0  0  0  0  0  0
   -7.9320   22.2380  -31.6040 C   0  0  0  0  0  0  0  0  0  0  0  0
   -7.3580   23.4570  -31.2100 C   0  0  0  0  0  0  0  0  0  0  0  0
   -2.2550   22.8350  -30.7920 C   0  0  0  0  0  0  0  0  0  0  0  0
   -1.5260   18.7950  -32.6560 C   0  0  0  0  0  0  0  0  0  0  0  0
   -2.5890   18.3400  -33.6600 C   0  0  0  0  0  0  0  0  0  0  0  0
   -5.9119   17.2875  -32.1325 H   0  0  0  0  0  0  0  0  0  0  0  0
   -7.1591   17.1502  -33.4180 H   0  0  0  0  0  0  0  0  0  0  0  0
   -5.7437   16.0441  -33.4180 H   0  0  0  0  0  0  0  0  0  0  0  0
   -4.0297   20.6077  -34.6408 H   0  0  0  0  0  0  0  0  0  0  0  0
   -4.6065   20.8966  -32.9372 H   0  0  0  0  0  0  0  0  0  0  0  0
   -1.9035   21.2426  -34.1238 H   0  0  0  0  0  0  0  0  0  0  0  0
   -2.6773   22.0276  -32.6894 H   0  0  0  0  0  0  0  0  0  0  0  0
   -0.5674   20.8856  -28.5452 H   0  0  0  0  0  0  0  0  0  0  0  0
   -1.5051   22.5800  -26.9807 H   0  0  0  0  0  0  0  0  0  0  0  0
   -3.7620   25.2660  -27.8570 H   0  0  0  0  0  0  0  0  0  0  0  0
   -4.1537   22.4068  -30.6283 H   0  0  0  0  0  0  0  0  0  0  0  0
   -5.1499   20.2387  -31.3556 H   0  0  0  0  0  0  0  0  0  0  0  0
   -7.0912   18.9422  -32.0919 H   0  0  0  0  0  0  0  0  0  0  0  0
   -9.5110   18.8363  -32.6930 H   0  0  0  0  0  0  0  0  0  0  0  0
  -10.9195   20.8898  -32.5948 H   0  0  0  0  0  0  0  0  0  0  0  0
   -9.9187   23.0688  -31.9032 H   0  0  0  0  0  0  0  0  0  0  0  0
   -7.9732   24.3684  -31.1812 H   0  0  0  0  0  0  0  0  0  0  0  0
   -2.4734   22.9015  -31.8681 H   0  0  0  0  0  0  0  0  0  0  0  0
   -0.5291   18.6630  -33.1018 H   0  0  0  0  0  0  0  0  0  0  0  0
   -1.6210   18.1885  -31.7433 H   0  0  0  0  0  0  0  0  0  0  0  0
   -2.2888   18.6368  -34.6758 H   0  0  0  0  0  0  0  0  0  0  0  0
   -2.6942   17.2457  -33.6216 H   0  0  0  0  0  0  0  0  0  0  0  0
  1  2  1  0
  2  3  2  0
  2  4  2  0
  2  5  1  0
  5  6  1  0
  6  7  1  0
  7  8  1  0
  8  9  1  0
  9 10  2  0
  9 11  1  0
 11 12  2  0
 12 13  1  0
 13 14  2  0
 14 15  1  0
 14 16  1  0
 16 17  1  0
 17 18  1  0
 18 19  2  0
 18 20  2  0
 18 21  1  0
 21 22  2  0
 22 23  1  0
 23 24  2  0
 24 25  1  0
 25 26  2  0
 26 27  1  0
 27 28  2  0
 28 29  1  0
 29 30  2  0
 16 31  2  0
  8 32  1  0
 32 33  1  0
 33  5  1  0
 31 11  1  0
 30 21  1  0
 29 24  1  0
  1 34  1  0
  1 35  1  0
  1 36  1  0
  6 37  1  0
  6 38  1  0
  7 39  1  0
  7 40  1  0
 12 41  1  0
 13 42  1  0
 15 43  1  0
 22 44  1  0
 23 45  1  0
 25 46  1  0
 26 47  1  0
 27 48  1  0
 28 49  1  0
 30 50  1  0
 31 51  1  0
 32 52  1  0
 32 53  1  0
 33 54  1  0
 33 55  1  0
M  CHG  1  17  -1
M  END
>  <UniqueID>  (38) 
37

>  <SMILES>  (38) 
CS(=O)(=O)N1CCN(C(=O)c2ccc(O)c([N-]S(=O)(=O)c3ccc4ccccc4c3)c2)CC1

>  <Energy>  (38) 
68.35223774355052

>  <Genealogy>  (38) 
CS(=O)(=O)N1CCN(C(=O)c2ccc(O)c([N-]S(=O)(=O)c3ccc4ccccc4c3)c2)CC1 (protonated)
CS(=O)(=O)N1CCN(C(=O)c2ccc(O)c([N-]S(=O)(=O)c3ccc4ccccc4c3)c2)CC1 (3D coordinates assigned)
CS(=O)(=O)N1CCN(C(=O)c2ccc(O)c([N-]S(=O)(=O)c3ccc4ccccc4c3)c2)CC1 (nonaromatic ring conformer: 68.35223774355052 kcal/mol)

>  <smiles>  (38) 
CS(=O)(=O)N1CCN(C(=O)c2ccc(O)c(NS(=O)(=O)c3ccc4ccccc4c3)c2)CC1

>  <score_type>  (38) 
oracle

>  <origin>  (38) 
adgpu

>  <m_score__min__energy>  (38) 
-12.01

>  <m_primary>  (38) 
energy

$$$$
38:0
     RDKit          3D

 61 65  0  0  0  0  0  0  0  0999 V2000
   -4.2130   22.3250  -27.9260 C   0  0  0  0  0  0  0  0  0  0  0  0
   -4.6970   23.3140  -28.9550 C   0  0  0  0  0  0  0  0  0  0  0  0
   -6.0190   23.2100  -29.4210 C   0  0  0  0  0  0  0  0  0  0  0  0
   -6.5230   24.1240  -30.3470 C   0  0  0  0  0  0  0  0  0  0  0  0
   -5.7140   25.1550  -30.8240 C   0  0  0  0  0  0  0  0  0  0  0  0
   -4.3940   25.2680  -30.3860 C   0  0  0  0  0  0  0  0  0  0  0  0
   -3.8610   24.3460  -29.4640 C   0  0  0  0  0  0  0  0  0  0  0  0
   -2.4430   24.4930  -29.0570 C   0  0  0  0  0  0  0  0  0  0  0  0
   -1.9240   25.6370  -28.9700 O   0  0  0  0  0  0  0  0  0  0  0  0
   -1.6930   23.3300  -28.6800 N   0  0  0  0  0  0  0  0  0  0  0  0
   -1.2750   22.2510  -29.5360 C   0  0  0  0  0  0  0  0  0  0  0  0
   -1.2310   22.4090  -30.9310 C   0  0  0  0  0  0  0  0  0  0  0  0
   -0.8610   21.3490  -31.7560 C   0  0  0  0  0  0  0  0  0  0  0  0
   -0.5300   20.1060  -31.2130 C   0  0  0  0  0  0  0  0  0  0  0  0
   -0.2480   19.0190  -32.0990 N   0  0  0  0  0  0  0  0  0  0  0  0
   -0.9730   19.0080  -33.6700 S   0  0  0  0  0  0  0  0  0  0  0  0
   -0.5840   20.2500  -34.4210 O   0  0  0  0  0  0  0  0  0  0  0  0
   -0.4890   17.8080  -34.4350 O   0  0  0  0  0  0  0  0  0  0  0  0
   -2.7240   18.9320  -33.4800 C   0  0  0  0  0  0  0  0  0  0  0  0
   -3.3740   17.7030  -33.4310 C   0  0  0  0  0  0  0  0  0  0  0  0
   -4.7430   17.6410  -33.1840 C   0  0  0  0  0  0  0  0  0  0  0  0
   -5.5000   18.8160  -32.9590 C   0  0  0  0  0  0  0  0  0  0  0  0
   -4.8340   20.0750  -32.9810 C   0  0  0  0  0  0  0  0  0  0  0  0
   -3.4470   20.1070  -33.2630 C   0  0  0  0  0  0  0  0  0  0  0  0
   -5.5400   21.2290  -32.7160 N   0  0  0  0  0  0  0  0  0  0  0  0
   -4.8630   22.5430  -32.6980 C   0  0  0  0  0  0  0  0  0  0  0  0
   -6.8840   21.1560  -32.4550 C   0  0  0  0  0  0  0  0  0  0  0  0
   -7.5510   22.2000  -32.2080 O   0  0  0  0  0  0  0  0  0  0  0  0
   -7.5430   19.9230  -32.4570 C   0  0  0  0  0  0  0  0  0  0  0  0
   -8.7830   19.8980  -32.2150 O   0  0  0  0  0  0  0  0  0  0  0  0
   -6.8560   18.7650  -32.7140 N   0  0  0  0  0  0  0  0  0  0  0  0
   -7.5740   17.4740  -32.7130 C   0  0  0  0  0  0  0  0  0  0  0  0
   -0.5960   19.9090  -29.8170 C   0  0  0  0  0  0  0  0  0  0  0  0
   -0.3330   18.6480  -29.2450 C   0  0  0  0  0  0  0  0  0  0  0  0
   -0.4470   18.4560  -27.8680 C   0  0  0  0  0  0  0  0  0  0  0  0
   -0.8210   19.5140  -27.0420 C   0  0  0  0  0  0  0  0  0  0  0  0
   -1.0850   20.7710  -27.5850 C   0  0  0  0  0  0  0  0  0  0  0  0
   -0.9830   20.9880  -28.9740 C   0  0  0  0  0  0  0  0  0  0  0  0
   -4.4065   22.7204  -26.9179 H   0  0  0  0  0  0  0  0  0  0  0  0
   -4.7463   21.3716  -28.0545 H   0  0  0  0  0  0  0  0  0  0  0  0
   -3.1329   22.1612  -28.0545 H   0  0  0  0  0  0  0  0  0  0  0  0
   -6.6636   22.3988  -29.0515 H   0  0  0  0  0  0  0  0  0  0  0  0
   -7.5602   24.0312  -30.7014 H   0  0  0  0  0  0  0  0  0  0  0  0
   -6.1170   25.8800  -31.5464 H   0  0  0  0  0  0  0  0  0  0  0  0
   -3.7630   26.0856  -30.7647 H   0  0  0  0  0  0  0  0  0  0  0  0
   -1.4915   23.3802  -31.3770 H   0  0  0  0  0  0  0  0  0  0  0  0
   -0.8293   21.4928  -32.8461 H   0  0  0  0  0  0  0  0  0  0  0  0
    0.0950   18.1160  -31.7040 H   0  0  0  0  0  0  0  0  0  0  0  0
   -2.8037   16.7756  -33.5882 H   0  0  0  0  0  0  0  0  0  0  0  0
   -5.2448   16.6624  -33.1633 H   0  0  0  0  0  0  0  0  0  0  0  0
   -2.9288   21.0760  -33.3121 H   0  0  0  0  0  0  0  0  0  0  0  0
   -4.7009   22.8577  -31.6565 H   0  0  0  0  0  0  0  0  0  0  0  0
   -3.8938   22.4632  -33.2120 H   0  0  0  0  0  0  0  0  0  0  0  0
   -5.4906   23.2859  -33.2120 H   0  0  0  0  0  0  0  0  0  0  0  0
   -7.7519   17.1542  -31.6757 H   0  0  0  0  0  0  0  0  0  0  0  0
   -8.5373   17.5898  -33.2313 H   0  0  0  0  0  0  0  0  0  0  0  0
   -6.9675   16.7167  -33.2313 H   0  0  0  0  0  0  0  0  0  0  0  0
   -0.0353   17.8081  -29.8899 H   0  0  0  0  0  0  0  0  0  0  0  0
   -0.2411   17.4668  -27.4331 H   0  0  0  0  0  0  0  0  0  0  0  0
   -0.9084   19.3570  -25.9568 H   0  0  0  0  0  0  0  0  0  0  0  0
   -1.3754   21.6005  -26.9235 H   0  0  0  0  0  0  0  0  0  0  0  0
  1  2  1  0
  2  3  2  0
  3  4  1  0
  4  5  2  0
  5  6  1  0
  6  7  2  0
  7  8  1  0
  8  9  2  0
  8 10  1  0
 10 11  1  0
 11 12  2  0
 12 13  1  0
 13 14  2  0
 14 15  1  0
 15 16  1  0
 16 17  2  0
 16 18  2  0
 16 19  1  0
 19 20  2  0
 20 21  1  0
 21 22  2  0
 22 23  1  0
 23 24  2  0
 23 25  1  0
 25 26  1  0
 25 27  1  0
 27 28  2  0
 27 29  1  0
 29 30  2  0
 29 31  1  0
 31 32  1  0
 14 33  1  0
 33 34  2  0
 34 35  1  0
 35 36  2  0
 36 37  1  0
 37 38  2  0
  7  2  1  0
 38 11  1  0
 24 19  1  0
 38 33  1  0
 31 22  1  0
  1 39  1  0
  1 40  1  0
  1 41  1  0
  3 42  1  0
  4 43  1  0
  5 44  1  0
  6 45  1  0
 12 46  1  0
 13 47  1  0
 15 48  1  0
 20 49  1  0
 21 50  1  0
 24 51  1  0
 26 52  1  0
 26 53  1  0
 26 54  1  0
 32 55  1  0
 32 56  1  0
 32 57  1  0
 34 58  1  0
 35 59  1  0
 36 60  1  0
 37 61  1  0
M  CHG  1  10  -1
M  END
>  <UniqueID>  (39) 
38

>  <SMILES>  (39) 
Cc1ccccc1C(=O)[N-]c1ccc(NS(=O)(=O)c2ccc3c(c2)n(C)c(=O)c(=O)n3C)c2ccccc12

>  <Energy>  (39) 
102.27787237704966

>  <Genealogy>  (39) 
Cc1ccccc1C(=O)[N-]c1ccc(NS(=O)(=O)c2ccc3c(c2)n(C)c(=O)c(=O)n3C)c2ccccc12 (protonated)
Cc1ccccc1C(=O)[N-]c1ccc(NS(=O)(=O)c2ccc3c(c2)n(C)c(=O)c(=O)n3C)c2ccccc12 (3D coordinates assigned)
Cc1ccccc1C(=O)[N-]c1ccc(NS(=O)(=O)c2ccc3c(c2)n(C)c(=O)c(=O)n3C)c2ccccc12 (optimized conformer: 102.27787237704966 kcal/mol)

>  <smiles>  (39) 
Cc1ccccc1C(=O)Nc1ccc(NS(=O)(=O)c2ccc3c(c2)n(C)c(=O)c(=O)n3C)c2ccccc12

>  <score_type>  (39) 
oracle

>  <origin>  (39) 
adgpu

>  <m_score__min__energy>  (39) 
-12.48

>  <m_primary>  (39) 
energy

$$$$
39:0
     RDKit          3D

 45 48  0  0  0  0  0  0  0  0999 V2000
    1.1500   19.1470  -27.9910 C   0  0  0  0  0  0  0  0  0  0  0  0
   -0.0730   19.9130  -28.2830 N   0  0  0  0  0  0  0  0  0  0  0  0
   -1.1300   19.5690  -27.3160 C   0  0  0  0  0  0  0  0  0  0  0  0
   -2.4570   20.1860  -27.7620 C   0  0  0  0  0  0  0  0  0  0  0  0
   -2.3030   21.6370  -28.1400 C   0  0  0  0  0  0  0  0  0  0  0  0
   -3.4470   22.4340  -28.2900 C   0  0  0  0  0  0  0  0  0  0  0  0
   -3.3500   23.7740  -28.6860 C   0  0  0  0  0  0  0  0  0  0  0  0
   -4.5780   24.5140  -28.8090 N   0  0  0  0  0  0  0  0  0  0  0  0
   -5.4030   24.9910  -30.2580 S   0  0  0  0  0  0  0  0  0  0  0  0
   -4.4290   25.6290  -31.2070 O   0  0  0  0  0  0  0  0  0  0  0  0
   -6.5030   25.9550  -29.9100 O   0  0  0  0  0  0  0  0  0  0  0  0
   -6.1150   23.5760  -31.0430 C   0  0  0  0  0  0  0  0  0  0  0  0
   -7.4990   23.3810  -31.0010 C   0  0  0  0  0  0  0  0  0  0  0  0
   -8.0770   22.2710  -31.6130 C   0  0  0  0  0  0  0  0  0  0  0  0
   -7.2930   21.3240  -32.2860 C   0  0  0  0  0  0  0  0  0  0  0  0
   -7.9590   20.2130  -32.9080 N   0  0  0  0  0  0  0  0  0  0  0  0
   -5.8840   21.4980  -32.3300 C   0  0  0  0  0  0  0  0  0  0  0  0
   -5.0170   20.5820  -32.9640 C   0  0  0  0  0  0  0  0  0  0  0  0
   -3.6400   20.8050  -32.9760 C   0  0  0  0  0  0  0  0  0  0  0  0
   -3.1210   21.9370  -32.3550 C   0  0  0  0  0  0  0  0  0  0  0  0
   -3.9540   22.8130  -31.7380 N   0  0  0  0  0  0  0  0  0  0  0  0
   -5.3030   22.6350  -31.7030 C   0  0  0  0  0  0  0  0  0  0  0  0
   -2.0730   24.3210  -28.9470 C   0  0  0  0  0  0  0  0  0  0  0  0
   -1.9060   25.6400  -29.3430 O   0  0  0  0  0  0  0  0  0  0  0  0
   -0.9320   23.5230  -28.8100 C   0  0  0  0  0  0  0  0  0  0  0  0
   -1.0360   22.1800  -28.4270 C   0  0  0  0  0  0  0  0  0  0  0  0
    0.2150   21.3600  -28.2270 C   0  0  0  0  0  0  0  0  0  0  0  0
    1.2803   19.0654  -26.9018 H   0  0  0  0  0  0  0  0  0  0  0  0
    1.0650   18.1405  -28.4265 H   0  0  0  0  0  0  0  0  0  0  0  0
    2.0185   19.6628  -28.4265 H   0  0  0  0  0  0  0  0  0  0  0  0
   -1.2349   18.4753  -27.2625 H   0  0  0  0  0  0  0  0  0  0  0  0
   -0.8597   19.9629  -26.3251 H   0  0  0  0  0  0  0  0  0  0  0  0
   -2.8330   19.6295  -28.6332 H   0  0  0  0  0  0  0  0  0  0  0  0
   -3.1613   20.1261  -26.9192 H   0  0  0  0  0  0  0  0  0  0  0  0
   -4.4380   21.9991  -28.0932 H   0  0  0  0  0  0  0  0  0  0  0  0
   -8.1369   24.1103  -30.4802 H   0  0  0  0  0  0  0  0  0  0  0  0
   -9.1677   22.1354  -31.5673 H   0  0  0  0  0  0  0  0  0  0  0  0
   -8.4420   19.4970  -32.3200 H   0  0  0  0  0  0  0  0  0  0  0  0
   -8.0360   20.0890  -33.9380 H   0  0  0  0  0  0  0  0  0  0  0  0
   -5.4299   19.6866  -33.4517 H   0  0  0  0  0  0  0  0  0  0  0  0
   -2.9682   20.0900  -33.4736 H   0  0  0  0  0  0  0  0  0  0  0  0
   -2.0366   22.1216  -32.3642 H   0  0  0  0  0  0  0  0  0  0  0  0
    0.0600   23.9563  -29.0057 H   0  0  0  0  0  0  0  0  0  0  0  0
    0.9377   21.6116  -29.0172 H   0  0  0  0  0  0  0  0  0  0  0  0
    0.6254   21.5925  -27.2332 H   0  0  0  0  0  0  0  0  0  0  0  0
  1  2  1  0
  2  3  1  0
  3  4  1  0
  4  5  1  0
  5  6  2  0
  6  7  1  0
  7  8  1  0
  8  9  1  0
  9 10  2  0
  9 11  2  0
  9 12  1  0
 12 13  2  0
 13 14  1  0
 14 15  2  0
 15 16  1  0
 15 17  1  0
 17 18  2  0
 18 19  1  0
 19 20  2  0
 20 21  1  0
 21 22  2  0
  7 23  2  0
 23 24  1  0
 23 25  1  0
 25 26  2  0
 26 27  1  0
 27  2  1  0
 26  5  1  0
 22 12  1  0
 22 17  1  0
  1 28  1  0
  1 29  1  0
  1 30  1  0
  3 31  1  0
  3 32  1  0
  4 33  1  0
  4 34  1  0
  6 35  1  0
 13 36  1  0
 14 37  1  0
 16 38  1  0
 16 39  1  0
 18 40  1  0
 19 41  1  0
 20 42  1  0
 25 43  1  0
 27 44  1  0
 27 45  1  0
M  CHG  2   8  -1  24  -1
M  END
>  <UniqueID>  (40) 
39

>  <SMILES>  (40) 
CN1CCc2cc([N-]S(=O)(=O)c3ccc(N)c4cccnc34)c([O-])cc2C1

>  <Energy>  (40) 
65.78565579826108

>  <Genealogy>  (40) 
CN1CCc2cc([N-]S(=O)(=O)c3ccc(N)c4cccnc34)c([O-])cc2C1 (protonated)
CN1CCc2cc([N-]S(=O)(=O)c3ccc(N)c4cccnc34)c([O-])cc2C1 (3D coordinates assigned)
CN1CCc2cc([N-]S(=O)(=O)c3ccc(N)c4cccnc34)c([O-])cc2C1 (nonaromatic ring conformer: 65.78565579826108 kcal/mol)

>  <smiles>  (40) 
CN1CCc2cc(NS(=O)(=O)c3ccc(N)c4cccnc34)c(O)cc2C1

>  <score_type>  (40) 
oracle

>  <origin>  (40) 
adgpu

>  <m_score__min__energy>  (40) 
-13.26

>  <m_primary>  (40) 
energy

$$$$
40:0
     RDKit          3D

 39 41  0  0  0  0  0  0  0  0999 V2000
   -9.3380   21.7850  -31.4860 C   0  0  0  0  0  0  0  0  0  0  0  0
   -7.8840   22.1160  -31.6660 C   0  0  0  0  0  0  0  0  0  0  0  0
   -7.3390   23.2600  -31.0620 C   0  0  0  0  0  0  0  0  0  0  0  0
   -5.9770   23.5700  -31.2020 C   0  0  0  0  0  0  0  0  0  0  0  0
   -5.3360   25.0260  -30.4280 S   0  0  0  0  0  0  0  0  0  0  0  0
   -5.8930   25.1280  -29.0360 O   0  0  0  0  0  0  0  0  0  0  0  0
   -5.7320   26.2280  -31.2390 O   0  0  0  0  0  0  0  0  0  0  0  0
   -3.6050   24.9470  -30.3420 N   0  0  0  0  0  0  0  0  0  0  0  0
   -2.8540   24.1920  -29.3820 C   0  0  0  0  0  0  0  0  0  0  0  0
   -3.1420   22.8420  -29.1050 C   0  0  0  0  0  0  0  0  0  0  0  0
   -2.3870   22.1320  -28.1630 C   0  0  0  0  0  0  0  0  0  0  0  0
   -1.3440   22.7780  -27.4700 C   0  0  0  0  0  0  0  0  0  0  0  0
   -1.0470   24.1160  -27.7580 C   0  0  0  0  0  0  0  0  0  0  0  0
   -1.8000   24.8200  -28.7030 C   0  0  0  0  0  0  0  0  0  0  0  0
   -1.4940   26.1510  -28.9690 O   0  0  0  0  0  0  0  0  0  0  0  0
   -0.4970   22.0140  -26.4800 C   0  0  0  0  0  0  0  0  0  0  0  0
   -1.2530   20.8160  -25.8920 C   0  0  0  0  0  0  0  0  0  0  0  0
   -1.8400   19.9510  -27.0100 C   0  0  0  0  0  0  0  0  0  0  0  0
   -2.6950   20.7580  -27.8800 N   0  0  0  0  0  0  0  0  0  0  0  0
   -5.1460   22.7090  -31.9560 C   0  0  0  0  0  0  0  0  0  0  0  0
   -3.7830   22.9550  -32.1390 O   0  0  0  0  0  0  0  0  0  0  0  0
   -5.6910   21.5640  -32.5450 C   0  0  0  0  0  0  0  0  0  0  0  0
   -7.0460   21.2620  -32.4010 C   0  0  0  0  0  0  0  0  0  0  0  0
   -7.5550   20.1080  -32.9900 O   0  0  0  0  0  0  0  0  0  0  0  0
   -9.5718   21.7318  -30.4124 H   0  0  0  0  0  0  0  0  0  0  0  0
   -9.9529   22.5661  -31.9569 H   0  0  0  0  0  0  0  0  0  0  0  0
   -9.5542   20.8147  -31.9569 H   0  0  0  0  0  0  0  0  0  0  0  0
   -7.9881   23.9227  -30.4708 H   0  0  0  0  0  0  0  0  0  0  0  0
   -3.9668   22.3408  -29.6328 H   0  0  0  0  0  0  0  0  0  0  0  0
   -0.2167   24.6160  -27.2379 H   0  0  0  0  0  0  0  0  0  0  0  0
    0.4066   21.6495  -26.9905 H   0  0  0  0  0  0  0  0  0  0  0  0
   -0.2368   22.6936  -25.6551 H   0  0  0  0  0  0  0  0  0  0  0  0
   -0.5591   20.2094  -25.2915 H   0  0  0  0  0  0  0  0  0  0  0  0
   -2.0743   21.1882  -25.2619 H   0  0  0  0  0  0  0  0  0  0  0  0
   -1.0204   19.5208  -27.6043 H   0  0  0  0  0  0  0  0  0  0  0  0
   -2.4425   19.1472  -26.5618 H   0  0  0  0  0  0  0  0  0  0  0  0
   -3.5060   20.2980  -28.3510 H   0  0  0  0  0  0  0  0  0  0  0  0
   -3.3250   23.8030  -31.8360 H   0  0  0  0  0  0  0  0  0  0  0  0
   -5.0439   20.8930  -33.1290 H   0  0  0  0  0  0  0  0  0  0  0  0
  1  2  1  0
  2  3  2  0
  3  4  1  0
  4  5  1  0
  5  6  2  0
  5  7  2  0
  5  8  1  0
  8  9  1  0
  9 10  2  0
 10 11  1  0
 11 12  2  0
 12 13  1  0
 13 14  2  0
 14 15  1  0
 12 16  1  0
 16 17  1  0
 17 18  1  0
 18 19  1  0
  4 20  2  0
 20 21  1  0
 20 22  1  0
 22 23  2  0
 23 24  1  0
 23  2  1  0
 14  9  1  0
 19 11  1  0
  1 25  1  0
  1 26  1  0
  1 27  1  0
  3 28  1  0
 10 29  1  0
 13 30  1  0
 16 31  1  0
 16 32  1  0
 17 33  1  0
 17 34  1  0
 18 35  1  0
 18 36  1  0
 19 37  1  0
 21 38  1  0
 22 39  1  0
M  CHG  3   8  -1  15  -1  24  -1
M  END
>  <UniqueID>  (41) 
40

>  <SMILES>  (41) 
Cc1cc(S(=O)(=O)[N-]c2cc3c(cc2[O-])CCCN3)c(O)cc1[O-]

>  <Energy>  (41) 
45.4280132559119

>  <Genealogy>  (41) 
Cc1cc(S(=O)(=O)[N-]c2cc3c(cc2[O-])CCCN3)c(O)cc1[O-] (protonated)
Cc1cc(S(=O)(=O)[N-]c2cc3c(cc2[O-])CCCN3)c(O)cc1[O-] (3D coordinates assigned)
Cc1cc(S(=O)(=O)[N-]c2cc3c(cc2[O-])CCCN3)c(O)cc1[O-] (nonaromatic ring conformer: 45.4280132559119 kcal/mol)

>  <smiles>  (41) 
Cc1cc(S(=O)(=O)Nc2cc3c(cc2O)CCCN3)c(O)cc1O

>  <score_type>  (41) 
oracle

>  <origin>  (41) 
adgpu

>  <m_score__min__energy>  (41) 
-12.35

>  <m_primary>  (41) 
energy

$$$$
41:0
     RDKit          3D

 46 48  0  0  0  0  0  0  0  0999 V2000
   -5.4150   21.9830  -32.6420 C   0  0  0  0  0  0  0  0  0  0  0  0
   -5.1400   20.5580  -32.7830 N   0  0  0  0  0  0  0  0  0  0  0  0
   -6.0840   19.5680  -33.1910 C   0  0  0  0  0  0  0  0  0  0  0  0
   -7.3290   19.7640  -33.1880 O   0  0  0  0  0  0  0  0  0  0  0  0
   -5.4310   18.2830  -33.6340 C   0  0  0  0  0  0  0  0  0  0  0  0
   -5.7780   17.9640  -35.0960 C   0  0  0  0  0  0  0  0  0  0  0  0
   -5.7970   17.1260  -32.6950 C   0  0  0  0  0  0  0  0  0  0  0  0
   -3.9840   18.6720  -33.4870 C   0  0  0  0  0  0  0  0  0  0  0  0
   -2.8480   17.9100  -33.7760 C   0  0  0  0  0  0  0  0  0  0  0  0
   -1.5840   18.4860  -33.5830 C   0  0  0  0  0  0  0  0  0  0  0  0
   -1.4640   19.8120  -33.1140 C   0  0  0  0  0  0  0  0  0  0  0  0
    0.1360   20.5040  -32.8680 S   0  0  0  0  0  0  0  0  0  0  0  0
    1.1630   19.4150  -32.9960 O   0  0  0  0  0  0  0  0  0  0  0  0
    0.4170   21.5500  -33.9110 O   0  0  0  0  0  0  0  0  0  0  0  0
    0.2420   21.2020  -31.2780 N   0  0  0  0  0  0  0  0  0  0  0  0
   -0.3750   20.3360  -30.2700 C   0  0  0  0  0  0  0  0  0  0  0  0
   -0.7640   21.1310  -29.0180 C   0  0  0  0  0  0  0  0  0  0  0  0
   -1.6130   22.3270  -29.3640 C   0  0  0  0  0  0  0  0  0  0  0  0
   -2.8000   22.1650  -30.0990 C   0  0  0  0  0  0  0  0  0  0  0  0
   -3.5700   23.2790  -30.4450 C   0  0  0  0  0  0  0  0  0  0  0  0
   -3.1610   24.5610  -30.0670 C   0  0  0  0  0  0  0  0  0  0  0  0
   -3.9320   25.6640  -30.4140 O   0  0  0  0  0  0  0  0  0  0  0  0
   -1.9730   24.7310  -29.3450 C   0  0  0  0  0  0  0  0  0  0  0  0
   -1.5590   26.0040  -28.9710 O   0  0  0  0  0  0  0  0  0  0  0  0
   -1.2010   23.6180  -28.9970 C   0  0  0  0  0  0  0  0  0  0  0  0
   -2.6200   20.5630  -32.8270 C   0  0  0  0  0  0  0  0  0  0  0  0
   -3.8690   19.9660  -33.0190 C   0  0  0  0  0  0  0  0  0  0  0  0
   -5.4651   22.2429  -31.5743 H   0  0  0  0  0  0  0  0  0  0  0  0
   -4.6118   22.5608  -33.1227 H   0  0  0  0  0  0  0  0  0  0  0  0
   -6.3755   22.2204  -33.1227 H   0  0  0  0  0  0  0  0  0  0  0  0
   -6.5875   17.2198  -35.1267 H   0  0  0  0  0  0  0  0  0  0  0  0
   -6.1053   18.8831  -35.6041 H   0  0  0  0  0  0  0  0  0  0  0  0
   -4.8897   17.5607  -35.6041 H   0  0  0  0  0  0  0  0  0  0  0  0
   -5.6930   17.4546  -31.6504 H   0  0  0  0  0  0  0  0  0  0  0  0
   -6.8365   16.8178  -32.8807 H   0  0  0  0  0  0  0  0  0  0  0  0
   -5.1239   16.2761  -32.8807 H   0  0  0  0  0  0  0  0  0  0  0  0
   -2.9438   16.8790  -34.1474 H   0  0  0  0  0  0  0  0  0  0  0  0
   -0.6786   17.8997  -33.7989 H   0  0  0  0  0  0  0  0  0  0  0  0
   -1.2779   19.8753  -30.6972 H   0  0  0  0  0  0  0  0  0  0  0  0
    0.3542   19.5652  -29.9801 H   0  0  0  0  0  0  0  0  0  0  0  0
   -1.3299   20.4753  -28.3399 H   0  0  0  0  0  0  0  0  0  0  0  0
    0.1579   21.4901  -28.5373 H   0  0  0  0  0  0  0  0  0  0  0  0
   -3.1239   21.1586  -30.4028 H   0  0  0  0  0  0  0  0  0  0  0  0
   -4.5005   23.1464  -31.0164 H   0  0  0  0  0  0  0  0  0  0  0  0
   -0.2665   23.7547  -28.4330 H   0  0  0  0  0  0  0  0  0  0  0  0
   -2.5417   21.5969  -32.4597 H   0  0  0  0  0  0  0  0  0  0  0  0
  1  2  1  0
  2  3  1  0
  3  4  2  0
  3  5  1  0
  5  6  1  0
  5  7  1  0
  5  8  1  0
  8  9  2  0
  9 10  1  0
 10 11  2  0
 11 12  1  0
 12 13  2  0
 12 14  2  0
 12 15  1  0
 15 16  1  0
 16 17  1  0
 17 18  1  0
 18 19  2  0
 19 20  1  0
 20 21  2  0
 21 22  1  0
 21 23  1  0
 23 24  1  0
 23 25  2  0
 11 26  1  0
 26 27  2  0
 27  2  1  0
 27  8  1  0
 25 18  1  0
  1 28  1  0
  1 29  1  0
  1 30  1  0
  6 31  1  0
  6 32  1  0
  6 33  1  0
  7 34  1  0
  7 35  1  0
  7 36  1  0
  9 37  1  0
 10 38  1  0
 16 39  1  0
 16 40  1  0
 17 41  1  0
 17 42  1  0
 19 43  1  0
 20 44  1  0
 25 45  1  0
 26 46  1  0
M  CHG  3  15  -1  22  -1  24  -1
M  END
>  <UniqueID>  (42) 
41

>  <SMILES>  (42) 
CN1C(=O)C(C)(C)c2ccc(S(=O)(=O)[N-]CCc3ccc([O-])c([O-])c3)cc21

>  <Energy>  (42) 
61.04069620393643

>  <Genealogy>  (42) 
CN1C(=O)C(C)(C)c2ccc(S(=O)(=O)[N-]CCc3ccc([O-])c([O-])c3)cc21 (protonated)
CN1C(=O)C(C)(C)c2ccc(S(=O)(=O)[N-]CCc3ccc([O-])c([O-])c3)cc21 (3D coordinates assigned)
CN1C(=O)C(C)(C)c2ccc(S(=O)(=O)[N-]CCc3ccc([O-])c([O-])c3)cc21 (nonaromatic ring conformer: 61.04069620393643 kcal/mol)

>  <smiles>  (42) 
CN1C(=O)C(C)(C)c2ccc(S(=O)(=O)NCCc3ccc(O)c(O)c3)cc21

>  <score_type>  (42) 
oracle

>  <origin>  (42) 
adgpu

>  <m_score__min__energy>  (42) 
-14.25

>  <m_primary>  (42) 
energy

$$$$
42:0
     RDKit          3D

 36 39  0  0  0  0  0  0  0  0999 V2000
   -5.6200   24.5490  -32.0200 O   0  0  0  0  0  0  0  0  0  0  0  0
   -6.2750   23.5460  -31.1110 S   0  0  0  0  0  0  0  0  0  0  0  0
   -7.7650   23.7370  -31.1780 O   0  0  0  0  0  0  0  0  0  0  0  0
   -5.7480   23.8150  -29.4780 N   0  0  0  0  0  0  0  0  0  0  0  0
   -4.3670   23.7500  -29.0860 C   0  0  0  0  0  0  0  0  0  0  0  0
   -3.9140   22.7690  -28.1880 C   0  0  0  0  0  0  0  0  0  0  0  0
   -2.5670   22.7050  -27.8250 C   0  0  0  0  0  0  0  0  0  0  0  0
   -1.6460   23.6270  -28.3450 C   0  0  0  0  0  0  0  0  0  0  0  0
   -0.2200   23.5600  -27.9630 C   0  0  0  0  0  0  0  0  0  0  0  0
    0.6940   24.5050  -28.2550 N   0  0  0  0  0  0  0  0  0  0  0  0
    1.8230   24.0540  -27.7340 N   0  0  0  0  0  0  0  0  0  0  0  0
    1.6120   22.8860  -27.1480 N   0  0  0  0  0  0  0  0  0  0  0  0
    0.3390   22.5480  -27.2730 N   0  0  0  0  0  0  0  0  0  0  0  0
   -2.0990   24.6190  -29.2320 C   0  0  0  0  0  0  0  0  0  0  0  0
   -3.4470   24.6820  -29.5990 C   0  0  0  0  0  0  0  0  0  0  0  0
   -3.8640   25.6680  -30.4860 O   0  0  0  0  0  0  0  0  0  0  0  0
   -5.8200   21.9150  -31.6370 C   0  0  0  0  0  0  0  0  0  0  0  0
   -4.4620   21.6400  -31.8710 C   0  0  0  0  0  0  0  0  0  0  0  0
   -4.0560   20.3870  -32.3310 C   0  0  0  0  0  0  0  0  0  0  0  0
   -4.9960   19.3870  -32.5670 C   0  0  0  0  0  0  0  0  0  0  0  0
   -6.3520   19.6300  -32.3380 C   0  0  0  0  0  0  0  0  0  0  0  0
   -7.2590   18.6430  -32.5730 N   0  0  0  0  0  0  0  0  0  0  0  0
   -8.5880   18.8230  -32.3650 C   0  0  0  0  0  0  0  0  0  0  0  0
   -9.0600   20.0460  -31.8920 C   0  0  0  0  0  0  0  0  0  0  0  0
   -8.1590   21.0810  -31.6370 C   0  0  0  0  0  0  0  0  0  0  0  0
   -6.7810   20.8950  -31.8620 C   0  0  0  0  0  0  0  0  0  0  0  0
   -6.4550   24.2000  -28.8130 H   0  0  0  0  0  0  0  0  0  0  0  0
   -4.6269   22.0447  -27.7670 H   0  0  0  0  0  0  0  0  0  0  0  0
   -2.2258   21.9266  -27.1267 H   0  0  0  0  0  0  0  0  0  0  0  0
   -1.3875   25.3516  -29.6407 H   0  0  0  0  0  0  0  0  0  0  0  0
   -3.7100   22.4220  -31.6893 H   0  0  0  0  0  0  0  0  0  0  0  0
   -2.9887   20.1881  -32.5080 H   0  0  0  0  0  0  0  0  0  0  0  0
   -4.6695   18.4031  -32.9348 H   0  0  0  0  0  0  0  0  0  0  0  0
   -9.2927   18.0035  -32.5698 H   0  0  0  0  0  0  0  0  0  0  0  0
  -10.1363   20.1947  -31.7206 H   0  0  0  0  0  0  0  0  0  0  0  0
   -8.5267   22.0462  -31.2586 H   0  0  0  0  0  0  0  0  0  0  0  0
  1  2  2  0
  2  3  2  0
  2  4  1  0
  4  5  1  0
  5  6  2  0
  6  7  1  0
  7  8  2  0
  8  9  1  0
  9 10  1  0
 10 11  2  0
 11 12  1  0
 12 13  1  0
  8 14  1  0
 14 15  2  0
 15 16  1  0
  2 17  1  0
 17 18  2  0
 18 19  1  0
 19 20  2  0
 20 21  1  0
 21 22  2  0
 22 23  1  0
 23 24  2  0
 24 25  1  0
 25 26  2  0
 15  5  1  0
 26 17  1  0
 13  9  2  0
 26 21  1  0
  4 27  1  0
  6 28  1  0
  7 29  1  0
 14 30  1  0
 18 31  1  0
 19 32  1  0
 20 33  1  0
 23 34  1  0
 24 35  1  0
 25 36  1  0
M  CHG  2  12  -1  16  -1
M  END
>  <UniqueID>  (43) 
42

>  <SMILES>  (43) 
O=S(=O)(Nc1ccc(-c2nn[n-]n2)cc1[O-])c1cccc2ncccc12

>  <Energy>  (43) 
88.36344600342257

>  <Genealogy>  (43) 
O=S(=O)(Nc1ccc(-c2nn[n-]n2)cc1[O-])c1cccc2ncccc12 (protonated)
O=S(=O)(Nc1ccc(-c2nn[n-]n2)cc1[O-])c1cccc2ncccc12 (3D coordinates assigned)
O=S(=O)(Nc1ccc(-c2nn[n-]n2)cc1[O-])c1cccc2ncccc12 (optimized conformer: 88.36344600342257 kcal/mol)

>  <smiles>  (43) 
O=S(=O)(Nc1ccc(-c2nn[nH]n2)cc1O)c1cccc2ncccc12

>  <score_type>  (43) 
oracle

>  <origin>  (43) 
adgpu

>  <m_score__min__energy>  (43) 
-13.300000000000001

>  <m_primary>  (43) 
energy

$$$$
43:0
     RDKit          3D

 42 44  0  0  0  0  0  0  0  0999 V2000
   -5.1080   17.8980  -34.9150 C   0  0  0  0  0  0  0  0  0  0  0  0
   -6.1340   17.1210  -33.6880 S   0  0  0  0  0  0  0  0  0  0  0  0
   -5.2660   16.4880  -32.6360 O   0  0  0  0  0  0  0  0  0  0  0  0
   -6.9690   16.0510  -34.3330 O   0  0  0  0  0  0  0  0  0  0  0  0
   -7.1820   18.3290  -32.9520 C   0  0  0  0  0  0  0  0  0  0  0  0
   -8.2920   17.9340  -32.1940 C   0  0  0  0  0  0  0  0  0  0  0  0
   -9.1060   18.8960  -31.5900 C   0  0  0  0  0  0  0  0  0  0  0  0
   -8.8180   20.2560  -31.7420 C   0  0  0  0  0  0  0  0  0  0  0  0
   -7.7200   20.6640  -32.5070 C   0  0  0  0  0  0  0  0  0  0  0  0
   -7.4530   22.0360  -32.6230 O   0  0  0  0  0  0  0  0  0  0  0  0
   -6.4090   22.7180  -31.9780 C   0  0  0  0  0  0  0  0  0  0  0  0
   -6.6410   23.8510  -31.1780 C   0  0  0  0  0  0  0  0  0  0  0  0
   -5.5780   24.4940  -30.5380 C   0  0  0  0  0  0  0  0  0  0  0  0
   -4.2680   23.9960  -30.6680 C   0  0  0  0  0  0  0  0  0  0  0  0
   -3.1440   24.6390  -30.0490 N   0  0  0  0  0  0  0  0  0  0  0  0
   -2.0720   23.9990  -29.3420 C   0  0  0  0  0  0  0  0  0  0  0  0
   -1.5120   22.9860  -29.8420 O   0  0  0  0  0  0  0  0  0  0  0  0
   -1.5760   24.5540  -28.0540 C   0  0  0  0  0  0  0  0  0  0  0  0
   -1.5020   23.7140  -26.9220 C   0  0  0  0  0  0  0  0  0  0  0  0
   -1.0370   24.2030  -25.6990 C   0  0  0  0  0  0  0  0  0  0  0  0
   -0.6420   25.5350  -25.5810 C   0  0  0  0  0  0  0  0  0  0  0  0
   -0.7110   26.3820  -26.6870 C   0  0  0  0  0  0  0  0  0  0  0  0
   -1.1740   25.9050  -27.9190 C   0  0  0  0  0  0  0  0  0  0  0  0
   -1.2320   26.7890  -28.9900 O   0  0  0  0  0  0  0  0  0  0  0  0
   -4.0400   22.8710  -31.4680 C   0  0  0  0  0  0  0  0  0  0  0  0
   -5.1050   22.2270  -32.1060 C   0  0  0  0  0  0  0  0  0  0  0  0
   -6.8890   19.6930  -33.0960 C   0  0  0  0  0  0  0  0  0  0  0  0
   -4.3259   18.4903  -34.4174 H   0  0  0  0  0  0  0  0  0  0  0  0
   -4.6394   17.1262  -35.5433 H   0  0  0  0  0  0  0  0  0  0  0  0
   -5.7239   18.5582  -35.5433 H   0  0  0  0  0  0  0  0  0  0  0  0
   -8.5231   16.8653  -32.0741 H   0  0  0  0  0  0  0  0  0  0  0  0
   -9.9755   18.5827  -30.9935 H   0  0  0  0  0  0  0  0  0  0  0  0
   -9.4578   21.0085  -31.2578 H   0  0  0  0  0  0  0  0  0  0  0  0
   -7.6651   24.2333  -31.0553 H   0  0  0  0  0  0  0  0  0  0  0  0
   -5.7656   25.3919  -29.9309 H   0  0  0  0  0  0  0  0  0  0  0  0
   -1.8141   22.6624  -27.0039 H   0  0  0  0  0  0  0  0  0  0  0  0
   -0.9823   23.5354  -24.8265 H   0  0  0  0  0  0  0  0  0  0  0  0
   -0.2763   25.9174  -24.6166 H   0  0  0  0  0  0  0  0  0  0  0  0
   -0.3993   27.4325  -26.5905 H   0  0  0  0  0  0  0  0  0  0  0  0
   -3.0159   22.4904  -31.5961 H   0  0  0  0  0  0  0  0  0  0  0  0
   -4.9163   21.3288  -32.7123 H   0  0  0  0  0  0  0  0  0  0  0  0
   -6.0055   20.0053  -33.6721 H   0  0  0  0  0  0  0  0  0  0  0  0
  1  2  1  0
  2  3  2  0
  2  4  2  0
  2  5  1  0
  5  6  2  0
  6  7  1  0
  7  8  2  0
  8  9  1  0
  9 10  1  0
 10 11  1  0
 11 12  2  0
 12 13  1  0
 13 14  2  0
 14 15  1  0
 15 16  1  0
 16 17  2  0
 16 18  1  0
 18 19  2  0
 19 20  1  0
 20 21  2  0
 21 22  1  0
 22 23  2  0
 23 24  1  0
 14 25  1  0
 25 26  2  0
  9 27  2  0
 27  5  1  0
 26 11  1  0
 23 18  1  0
  1 28  1  0
  1 29  1  0
  1 30  1  0
  6 31  1  0
  7 32  1  0
  8 33  1  0
 12 34  1  0
 13 35  1  0
 19 36  1  0
 20 37  1  0
 21 38  1  0
 22 39  1  0
 25 40  1  0
 26 41  1  0
 27 42  1  0
M  CHG  2  15  -1  24  -1
M  END
>  <UniqueID>  (44) 
43

>  <SMILES>  (44) 
CS(=O)(=O)c1cccc(Oc2ccc([N-]C(=O)c3ccccc3[O-])cc2)c1

>  <Energy>  (44) 
54.884296282271045

>  <Genealogy>  (44) 
CS(=O)(=O)c1cccc(Oc2ccc([N-]C(=O)c3ccccc3[O-])cc2)c1 (protonated)
CS(=O)(=O)c1cccc(Oc2ccc([N-]C(=O)c3ccccc3[O-])cc2)c1 (3D coordinates assigned)
CS(=O)(=O)c1cccc(Oc2ccc([N-]C(=O)c3ccccc3[O-])cc2)c1 (optimized conformer: 54.884296282271045 kcal/mol)

>  <smiles>  (44) 
CS(=O)(=O)c1cccc(Oc2ccc(NC(=O)c3ccccc3O)cc2)c1

>  <score_type>  (44) 
oracle

>  <origin>  (44) 
adgpu

>  <m_score__min__energy>  (44) 
-13.449999999999999

>  <m_primary>  (44) 
energy

$$$$
44:0
     RDKit          3D

 48 50  0  0  0  0  0  0  0  0999 V2000
    0.0170   21.5420  -27.7740 C   0  0  0  0  0  0  0  0  0  0  0  0
   -0.7700   22.6970  -28.1950 N   0  0  0  0  0  0  0  0  0  0  0  0
   -2.0930   22.6950  -28.4660 C   0  0  0  0  0  0  0  0  0  0  0  0
   -2.4880   23.9520  -28.9040 C   0  0  0  0  0  0  0  0  0  0  0  0
   -3.8320   24.3630  -29.3530 C   0  0  0  0  0  0  0  0  0  0  0  0
   -4.8380   23.9540  -28.7160 O   0  0  0  0  0  0  0  0  0  0  0  0
   -4.0380   25.2030  -30.4970 N   0  0  0  0  0  0  0  0  0  0  0  0
   -5.2980   25.3810  -31.2150 C   0  0  0  0  0  0  0  0  0  0  0  0
   -5.9720   24.0540  -31.4360 C   0  0  0  0  0  0  0  0  0  0  0  0
   -7.2010   23.7640  -30.8210 C   0  0  0  0  0  0  0  0  0  0  0  0
   -7.8370   22.5430  -31.0560 C   0  0  0  0  0  0  0  0  0  0  0  0
   -7.2440   21.5880  -31.8950 C   0  0  0  0  0  0  0  0  0  0  0  0
   -8.0340   20.0320  -32.1710 S   0  0  0  0  0  0  0  0  0  0  0  0
   -8.6280   19.5430  -30.8790 O   0  0  0  0  0  0  0  0  0  0  0  0
   -9.1530   20.2140  -33.1570 O   0  0  0  0  0  0  0  0  0  0  0  0
   -6.9090   18.8410  -32.7800 N   0  0  0  0  0  0  0  0  0  0  0  0
   -5.8200   18.5680  -31.8090 C   0  0  0  0  0  0  0  0  0  0  0  0
   -4.4920   19.2360  -32.1960 C   0  0  0  0  0  0  0  0  0  0  0  0
   -4.0140   18.7610  -33.5810 C   0  0  0  0  0  0  0  0  0  0  0  0
   -3.2310   19.7530  -34.1470 F   0  0  0  0  0  0  0  0  0  0  0  0
   -3.2310   17.6270  -33.4290 F   0  0  0  0  0  0  0  0  0  0  0  0
   -5.1870   18.4340  -34.5270 C   0  0  0  0  0  0  0  0  0  0  0  0
   -6.4490   19.2120  -34.1370 C   0  0  0  0  0  0  0  0  0  0  0  0
   -6.0190   21.8760  -32.5110 C   0  0  0  0  0  0  0  0  0  0  0  0
   -5.3880   23.1020  -32.2870 C   0  0  0  0  0  0  0  0  0  0  0  0
   -1.3420   24.7220  -28.9370 C   0  0  0  0  0  0  0  0  0  0  0  0
   -1.2440   26.0470  -29.3430 O   0  0  0  0  0  0  0  0  0  0  0  0
   -0.3080   23.9290  -28.4980 C   0  0  0  0  0  0  0  0  0  0  0  0
    1.0220   24.3320  -28.4040 O   0  0  0  0  0  0  0  0  0  0  0  0
    0.0463   21.4991  -26.6752 H   0  0  0  0  0  0  0  0  0  0  0  0
   -0.4433   20.6225  -28.1648 H   0  0  0  0  0  0  0  0  0  0  0  0
    1.0411   21.6340  -28.1648 H   0  0  0  0  0  0  0  0  0  0  0  0
   -2.7589   21.8264  -28.3561 H   0  0  0  0  0  0  0  0  0  0  0  0
   -5.9619   26.0302  -30.6252 H   0  0  0  0  0  0  0  0  0  0  0  0
   -5.0881   25.8400  -32.1924 H   0  0  0  0  0  0  0  0  0  0  0  0
   -7.6651   24.5025  -30.1507 H   0  0  0  0  0  0  0  0  0  0  0  0
   -8.8062   22.3295  -30.5816 H   0  0  0  0  0  0  0  0  0  0  0  0
   -6.1274   18.9441  -30.8221 H   0  0  0  0  0  0  0  0  0  0  0  0
   -5.6518   17.4810  -31.7989 H   0  0  0  0  0  0  0  0  0  0  0  0
   -4.6321   20.3268  -32.2192 H   0  0  0  0  0  0  0  0  0  0  0  0
   -3.7319   18.9590  -31.4507 H   0  0  0  0  0  0  0  0  0  0  0  0
   -4.9038   18.7025  -35.5554 H   0  0  0  0  0  0  0  0  0  0  0  0
   -5.4046   17.3583  -34.4522 H   0  0  0  0  0  0  0  0  0  0  0  0
   -6.2274   20.2892  -34.1586 H   0  0  0  0  0  0  0  0  0  0  0  0
   -7.2457   18.9653  -34.8542 H   0  0  0  0  0  0  0  0  0  0  0  0
   -5.5519   21.1331  -33.1742 H   0  0  0  0  0  0  0  0  0  0  0  0
   -4.4294   23.3226  -32.7794 H   0  0  0  0  0  0  0  0  0  0  0  0
    1.2750   25.3060  -28.2890 H   0  0  0  0  0  0  0  0  0  0  0  0
  1  2  1  0
  2  3  1  0
  3  4  2  0
  4  5  1  0
  5  6  2  0
  5  7  1  0
  7  8  1  0
  8  9  1  0
  9 10  2  0
 10 11  1  0
 11 12  2  0
 12 13  1  0
 13 14  2  0
 13 15  2  0
 13 16  1  0
 16 17  1  0
 17 18  1  0
 18 19  1  0
 19 20  1  0
 19 21  1  0
 19 22  1  0
 22 23  1  0
 12 24  1  0
 24 25  2  0
  4 26  1  0
 26 27  1  0
 26 28  2  0
 28 29  1  0
 28  2  1  0
 25  9  1  0
 23 16  1  0
  1 30  1  0
  1 31  1  0
  1 32  1  0
  3 33  1  0
  8 34  1  0
  8 35  1  0
 10 36  1  0
 11 37  1  0
 17 38  1  0
 17 39  1  0
 18 40  1  0
 18 41  1  0
 22 42  1  0
 22 43  1  0
 23 44  1  0
 23 45  1  0
 24 46  1  0
 25 47  1  0
 29 48  1  0
M  CHG  2   7  -1  27  -1
M  END
>  <UniqueID>  (45) 
44

>  <SMILES>  (45) 
Cn1cc(C(=O)[N-]Cc2ccc(S(=O)(=O)N3CCC(F)(F)CC3)cc2)c([O-])c1O

>  <Energy>  (45) 
83.34428139043725

>  <Genealogy>  (45) 
Cn1cc(C(=O)[N-]Cc2ccc(S(=O)(=O)N3CCC(F)(F)CC3)cc2)c([O-])c1O (protonated)
Cn1cc(C(=O)[N-]Cc2ccc(S(=O)(=O)N3CCC(F)(F)CC3)cc2)c([O-])c1O (3D coordinates assigned)
Cn1cc(C(=O)[N-]Cc2ccc(S(=O)(=O)N3CCC(F)(F)CC3)cc2)c([O-])c1O (nonaromatic ring conformer: 83.34428139043725 kcal/mol)

>  <smiles>  (45) 
Cn1cc(C(=O)NCc2ccc(S(=O)(=O)N3CCC(F)(F)CC3)cc2)c(O)c1O

>  <score_type>  (45) 
oracle

>  <origin>  (45) 
adgpu

>  <m_score__min__energy>  (45) 
-14.07

>  <m_primary>  (45) 
energy

$$$$
45:0
     RDKit          3D

 51 53  0  0  0  0  0  0  0  0999 V2000
    0.7340   27.5200  -22.9790 C   0  0  0  0  0  0  0  0  0  0  0  0
    0.6380   26.2350  -23.6990 N   0  0  0  0  0  0  0  0  0  0  0  0
    1.8140   26.0490  -24.5720 C   0  0  0  0  0  0  0  0  0  0  0  0
   -0.6350   26.1490  -24.3960 C   0  0  0  0  0  0  0  0  0  0  0  0
   -1.6180   26.8110  -23.9580 O   0  0  0  0  0  0  0  0  0  0  0  0
   -0.8760   25.2400  -25.5350 C   0  0  0  0  0  0  0  0  0  0  0  0
   -0.5060   23.8900  -25.4380 C   0  0  0  0  0  0  0  0  0  0  0  0
   -0.7680   23.0130  -26.4900 C   0  0  0  0  0  0  0  0  0  0  0  0
   -1.3980   23.4740  -27.6480 C   0  0  0  0  0  0  0  0  0  0  0  0
   -1.7630   24.8220  -27.7680 C   0  0  0  0  0  0  0  0  0  0  0  0
   -2.3990   25.2510  -28.9410 O   0  0  0  0  0  0  0  0  0  0  0  0
   -3.2770   24.4600  -29.6930 C   0  0  0  0  0  0  0  0  0  0  0  0
   -2.8200   23.3310  -30.3950 C   0  0  0  0  0  0  0  0  0  0  0  0
   -3.7070   22.5760  -31.1640 C   0  0  0  0  0  0  0  0  0  0  0  0
   -5.0570   22.9380  -31.2440 C   0  0  0  0  0  0  0  0  0  0  0  0
   -6.1440   22.0630  -32.3230 S   0  0  0  0  0  0  0  0  0  0  0  0
   -5.3490   21.4300  -33.4260 O   0  0  0  0  0  0  0  0  0  0  0  0
   -7.1090   23.0350  -32.9400 O   0  0  0  0  0  0  0  0  0  0  0  0
   -7.0250   20.8120  -31.4700 N   0  0  0  0  0  0  0  0  0  0  0  0
   -8.4580   21.1540  -31.3060 C   0  0  0  0  0  0  0  0  0  0  0  0
   -9.3500   20.4590  -32.3510 C   0  0  0  0  0  0  0  0  0  0  0  0
   -9.2080   18.9850  -32.3380 N   0  0  0  0  0  0  0  0  0  0  0  0
   -7.9290   18.5200  -31.7700 C   0  0  0  0  0  0  0  0  0  0  0  0
   -6.7880   19.4900  -32.0930 C   0  0  0  0  0  0  0  0  0  0  0  0
   -5.5230   24.0380  -30.5070 C   0  0  0  0  0  0  0  0  0  0  0  0
   -4.6380   24.7850  -29.7230 C   0  0  0  0  0  0  0  0  0  0  0  0
   -1.5180   25.7000  -26.6930 C   0  0  0  0  0  0  0  0  0  0  0  0
    0.7202   27.3347  -21.8948 H   0  0  0  0  0  0  0  0  0  0  0  0
    1.6723   28.0245  -23.2528 H   0  0  0  0  0  0  0  0  0  0  0  0
   -0.1190   28.1583  -23.2528 H   0  0  0  0  0  0  0  0  0  0  0  0
    0.6600   25.4640  -22.9960 H   0  0  0  0  0  0  0  0  0  0  0  0
    2.7118   25.9070  -23.9525 H   0  0  0  0  0  0  0  0  0  0  0  0
    1.6629   25.1636  -25.2070 H   0  0  0  0  0  0  0  0  0  0  0  0
    1.9435   26.9378  -25.2070 H   0  0  0  0  0  0  0  0  0  0  0  0
   -0.0076   23.5222  -24.5290 H   0  0  0  0  0  0  0  0  0  0  0  0
   -0.4777   21.9552  -26.4075 H   0  0  0  0  0  0  0  0  0  0  0  0
   -1.6090   22.7751  -28.4708 H   0  0  0  0  0  0  0  0  0  0  0  0
   -1.7602   23.0418  -30.3381 H   0  0  0  0  0  0  0  0  0  0  0  0
   -3.3437   21.6926  -31.7096 H   0  0  0  0  0  0  0  0  0  0  0  0
   -8.7827   20.8437  -30.3019 H   0  0  0  0  0  0  0  0  0  0  0  0
   -8.5619   22.2402  -31.4452 H   0  0  0  0  0  0  0  0  0  0  0  0
  -10.3996   20.7127  -32.1415 H   0  0  0  0  0  0  0  0  0  0  0  0
   -9.0346   20.8132  -33.3435 H   0  0  0  0  0  0  0  0  0  0  0  0
   -9.2540   18.6560  -33.3330 H   0  0  0  0  0  0  0  0  0  0  0  0
   -8.0311   18.4386  -30.6778 H   0  0  0  0  0  0  0  0  0  0  0  0
   -7.6883   17.5426  -32.2136 H   0  0  0  0  0  0  0  0  0  0  0  0
   -5.8438   19.0755  -31.7099 H   0  0  0  0  0  0  0  0  0  0  0  0
   -6.7362   19.6203  -33.1840 H   0  0  0  0  0  0  0  0  0  0  0  0
   -6.5873   24.3133  -30.5462 H   0  0  0  0  0  0  0  0  0  0  0  0
   -5.0128   25.6308  -29.1279 H   0  0  0  0  0  0  0  0  0  0  0  0
   -1.8323   26.7518  -26.7632 H   0  0  0  0  0  0  0  0  0  0  0  0
  1  2  1  0
  2  3  1  0
  2  4  1  0
  4  5  2  0
  4  6  1  0
  6  7  2  0
  7  8  1  0
  8  9  2  0
  9 10  1  0
 10 11  1  0
 11 12  1  0
 12 13  2  0
 13 14  1  0
 14 15  2  0
 15 16  1  0
 16 17  2  0
 16 18  2  0
 16 19  1  0
 19 20  1  0
 20 21  1  0
 21 22  1  0
 22 23  1  0
 23 24  1  0
 15 25  1  0
 25 26  2  0
 10 27  2  0
 27  6  1  0
 26 12  1  0
 24 19  1  0
  1 28  1  0
  1 29  1  0
  1 30  1  0
  2 31  1  0
  3 32  1  0
  3 33  1  0
  3 34  1  0
  7 35  1  0
  8 36  1  0
  9 37  1  0
 13 38  1  0
 14 39  1  0
 20 40  1  0
 20 41  1  0
 21 42  1  0
 21 43  1  0
 22 44  1  0
 23 45  1  0
 23 46  1  0
 24 47  1  0
 24 48  1  0
 25 49  1  0
 26 50  1  0
 27 51  1  0
M  CHG  1   2   1
M  END
>  <UniqueID>  (46) 
45

>  <SMILES>  (46) 
C[NH+](C)C(=O)c1cccc(Oc2ccc(S(=O)(=O)N3CCNCC3)cc2)c1

>  <Energy>  (46) 
76.60150954200721

>  <Genealogy>  (46) 
C[NH+](C)C(=O)c1cccc(Oc2ccc(S(=O)(=O)N3CCNCC3)cc2)c1 (protonated)
C[NH+](C)C(=O)c1cccc(Oc2ccc(S(=O)(=O)N3CCNCC3)cc2)c1 (3D coordinates assigned)
C[NH+](C)C(=O)c1cccc(Oc2ccc(S(=O)(=O)N3CCNCC3)cc2)c1 (nonaromatic ring conformer: 76.60150954200721 kcal/mol)

>  <smiles>  (46) 
CN(C)C(=O)c1cccc(Oc2ccc(S(=O)(=O)N3CCNCC3)cc2)c1

>  <score_type>  (46) 
oracle

>  <origin>  (46) 
adgpu

>  <m_score__min__energy>  (46) 
-9.7100000000000009

>  <m_primary>  (46) 
energy

$$$$
46:0
     RDKit          3D

 64 67  0  0  0  0  0  0  0  0999 V2000
   -1.3940   16.3080  -34.1480 O   0  0  0  0  0  0  0  0  0  0  0  0
   -1.9160   17.4220  -34.4180 C   0  0  0  0  0  0  0  0  0  0  0  0
   -3.1810   17.4450  -35.0930 N   0  0  0  0  0  0  0  0  0  0  0  0
   -4.4540   17.1800  -34.4880 C   0  0  0  0  0  0  0  0  0  0  0  0
   -5.0110   15.8890  -34.4790 C   0  0  0  0  0  0  0  0  0  0  0  0
   -6.2450   15.6600  -33.8670 C   0  0  0  0  0  0  0  0  0  0  0  0
   -6.9300   16.7120  -33.2570 C   0  0  0  0  0  0  0  0  0  0  0  0
   -6.3900   18.0060  -33.2680 C   0  0  0  0  0  0  0  0  0  0  0  0
   -7.2390   19.3230  -32.4550 S   0  0  0  0  0  0  0  0  0  0  0  0
   -8.3100   18.7230  -31.5860 O   0  0  0  0  0  0  0  0  0  0  0  0
   -7.9180   20.1720  -33.4950 O   0  0  0  0  0  0  0  0  0  0  0  0
   -6.1950   20.3080  -31.4420 N   0  0  0  0  0  0  0  0  0  0  0  0
   -6.6930   21.6800  -31.2040 C   0  0  0  0  0  0  0  0  0  0  0  0
   -6.3600   22.6300  -32.3590 C   0  0  0  0  0  0  0  0  0  0  0  0
   -4.8540   22.6450  -32.6120 C   0  0  0  0  0  0  0  0  0  0  0  0
   -4.3470   21.2310  -32.9020 C   0  0  0  0  0  0  0  0  0  0  0  0
   -4.7600   20.2410  -31.7940 C   0  0  0  0  0  0  0  0  0  0  0  0
   -5.1670   18.2400  -33.9140 C   0  0  0  0  0  0  0  0  0  0  0  0
   -1.1950   18.6670  -34.0640 C   0  0  0  0  0  0  0  0  0  0  0  0
   -0.2480   19.2250  -34.9420 C   0  0  0  0  0  0  0  0  0  0  0  0
    0.4160   20.4070  -34.6040 C   0  0  0  0  0  0  0  0  0  0  0  0
    0.1450   21.0440  -33.3920 C   0  0  0  0  0  0  0  0  0  0  0  0
   -0.7900   20.4930  -32.5030 C   0  0  0  0  0  0  0  0  0  0  0  0
   -1.1370   21.2770  -30.9630 S   0  0  0  0  0  0  0  0  0  0  0  0
    0.1390   21.5870  -30.2320 O   0  0  0  0  0  0  0  0  0  0  0  0
   -1.8610   22.5670  -31.2270 O   0  0  0  0  0  0  0  0  0  0  0  0
   -2.1470   20.2450  -29.9950 N   0  0  0  0  0  0  0  0  0  0  0  0
   -1.5700   20.0310  -28.6650 C   0  0  0  0  0  0  0  0  0  0  0  0
   -2.0950   21.0690  -27.6670 C   0  0  0  0  0  0  0  0  0  0  0  0
   -2.6400   22.2840  -28.3720 C   0  0  0  0  0  0  0  0  0  0  0  0
   -3.9250   22.2560  -28.9390 C   0  0  0  0  0  0  0  0  0  0  0  0
   -4.4190   23.3730  -29.6170 C   0  0  0  0  0  0  0  0  0  0  0  0
   -3.6330   24.5280  -29.7440 C   0  0  0  0  0  0  0  0  0  0  0  0
   -4.1200   25.6460  -30.4170 O   0  0  0  0  0  0  0  0  0  0  0  0
   -2.3440   24.5560  -29.1930 C   0  0  0  0  0  0  0  0  0  0  0  0
   -1.5530   25.6930  -29.3230 O   0  0  0  0  0  0  0  0  0  0  0  0
   -1.8480   23.4380  -28.5120 C   0  0  0  0  0  0  0  0  0  0  0  0
   -1.4460   19.3010  -32.8360 C   0  0  0  0  0  0  0  0  0  0  0  0
   -4.4728   15.0565  -34.9557 H   0  0  0  0  0  0  0  0  0  0  0  0
   -6.6780   14.6488  -33.8656 H   0  0  0  0  0  0  0  0  0  0  0  0
   -7.8965   16.5254  -32.7661 H   0  0  0  0  0  0  0  0  0  0  0  0
   -7.7854   21.6430  -31.0806 H   0  0  0  0  0  0  0  0  0  0  0  0
   -6.1984   22.0645  -30.2998 H   0  0  0  0  0  0  0  0  0  0  0  0
   -6.8779   22.2917  -33.2686 H   0  0  0  0  0  0  0  0  0  0  0  0
   -6.6897   23.6456  -32.0949 H   0  0  0  0  0  0  0  0  0  0  0  0
   -4.6381   23.2915  -33.4754 H   0  0  0  0  0  0  0  0  0  0  0  0
   -4.3457   23.0290  -31.7153 H   0  0  0  0  0  0  0  0  0  0  0  0
   -4.7675   20.8905  -33.8597 H   0  0  0  0  0  0  0  0  0  0  0  0
   -3.2482   21.2615  -32.9438 H   0  0  0  0  0  0  0  0  0  0  0  0
   -4.5339   19.2208  -32.1378 H   0  0  0  0  0  0  0  0  0  0  0  0
   -4.1943   20.5144  -30.8911 H   0  0  0  0  0  0  0  0  0  0  0  0
   -4.7654   19.2625  -33.9701 H   0  0  0  0  0  0  0  0  0  0  0  0
   -0.0293   18.7285  -35.8989 H   0  0  0  0  0  0  0  0  0  0  0  0
    1.1552   20.8372  -35.2958 H   0  0  0  0  0  0  0  0  0  0  0  0
    0.6648   21.9784  -33.1338 H   0  0  0  0  0  0  0  0  0  0  0  0
   -1.8401   19.0244  -28.3131 H   0  0  0  0  0  0  0  0  0  0  0  0
   -0.4770   20.1332  -28.7357 H   0  0  0  0  0  0  0  0  0  0  0  0
   -2.8965   20.6143  -27.0663 H   0  0  0  0  0  0  0  0  0  0  0  0
   -1.2590   21.3867  -27.0265 H   0  0  0  0  0  0  0  0  0  0  0  0
   -4.5443   21.3514  -28.8488 H   0  0  0  0  0  0  0  0  0  0  0  0
   -5.4285   23.3468  -30.0531 H   0  0  0  0  0  0  0  0  0  0  0  0
   -3.8750   26.5860  -30.1270 H   0  0  0  0  0  0  0  0  0  0  0  0
   -0.8347   23.4621  -28.0846 H   0  0  0  0  0  0  0  0  0  0  0  0
   -2.1637   18.8578  -32.1300 H   0  0  0  0  0  0  0  0  0  0  0  0
  1  2  2  0
  2  3  1  0
  3  4  1  0
  4  5  2  0
  5  6  1  0
  6  7  2  0
  7  8  1  0
  8  9  1  0
  9 10  2  0
  9 11  2  0
  9 12  1  0
 12 13  1  0
 13 14  1  0
 14 15  1  0
 15 16  1  0
 16 17  1  0
  8 18  2  0
  2 19  1  0
 19 20  2  0
 20 21  1  0
 21 22  2  0
 22 23  1  0
 23 24  1  0
 24 25  2  0
 24 26  2  0
 24 27  1  0
 27 28  1  0
 28 29  1  0
 29 30  1  0
 30 31  2  0
 31 32  1  0
 32 33  2  0
 33 34  1  0
 33 35  1  0
 35 36  1  0
 35 37  2  0
 23 38  2  0
 18  4  1  0
 38 19  1  0
 17 12  1  0
 37 30  1  0
  5 39  1  0
  6 40  1  0
  7 41  1  0
 13 42  1  0
 13 43  1  0
 14 44  1  0
 14 45  1  0
 15 46  1  0
 15 47  1  0
 16 48  1  0
 16 49  1  0
 17 50  1  0
 17 51  1  0
 18 52  1  0
 20 53  1  0
 21 54  1  0
 22 55  1  0
 28 56  1  0
 28 57  1  0
 29 58  1  0
 29 59  1  0
 31 60  1  0
 32 61  1  0
 34 62  1  0
 37 63  1  0
 38 64  1  0
M  CHG  3   3  -1  27  -1  36  -1
M  END
>  <UniqueID>  (47) 
46

>  <SMILES>  (47) 
O=C([N-]c1cccc(S(=O)(=O)N2CCCCC2)c1)c1cccc(S(=O)(=O)[N-]CCc2ccc(O)c([O-])c2)c1

>  <Energy>  (47) 
71.90289459698548

>  <Genealogy>  (47) 
O=C([N-]c1cccc(S(=O)(=O)N2CCCCC2)c1)c1cccc(S(=O)(=O)[N-]CCc2ccc(O)c([O-])c2)c1 (protonated)
O=C([N-]c1cccc(S(=O)(=O)N2CCCCC2)c1)c1cccc(S(=O)(=O)[N-]CCc2ccc(O)c([O-])c2)c1 (3D coordinates assigned)
O=C([N-]c1cccc(S(=O)(=O)N2CCCCC2)c1)c1cccc(S(=O)(=O)[N-]CCc2ccc(O)c([O-])c2)c1 (nonaromatic ring conformer: 71.90289459698548 kcal/mol)

>  <smiles>  (47) 
O=C(Nc1cccc(S(=O)(=O)N2CCCCC2)c1)c1cccc(S(=O)(=O)NCCc2ccc(O)c(O)c2)c1

>  <score_type>  (47) 
oracle

>  <origin>  (47) 
adgpu

>  <m_score__min__energy>  (47) 
-14.949999999999999

>  <m_primary>  (47) 
energy

$$$$
47:0
     RDKit          3D

 48 50  0  0  0  0  0  0  0  0999 V2000
   -2.4370   16.5310  -35.5530 H   0  0  0  0  0  0  0  0  0  0  0  0
   -2.6880   15.9760  -34.7450 O   0  0  0  0  0  0  0  0  0  0  0  0
   -3.7790   15.0960  -34.7000 C   0  0  0  0  0  0  0  0  0  0  0  0
   -5.0150   15.5870  -34.2520 C   0  0  0  0  0  0  0  0  0  0  0  0
   -5.1350   17.0210  -33.8590 C   0  0  0  0  0  0  0  0  0  0  0  0
   -4.2459   17.6671  -33.9036 H   0  0  0  0  0  0  0  0  0  0  0  0
   -6.2670   17.5240  -33.4650 N   0  0  0  0  0  0  0  0  0  0  0  0
   -6.5090   18.8850  -33.0690 C   0  0  0  0  0  0  0  0  0  0  0  0
   -5.5160   19.8850  -33.1270 C   0  0  0  0  0  0  0  0  0  0  0  0
   -4.5044   19.6332  -33.4780 H   0  0  0  0  0  0  0  0  0  0  0  0
   -5.8130   21.1950  -32.7400 C   0  0  0  0  0  0  0  0  0  0  0  0
   -5.0328   21.9691  -32.7852 H   0  0  0  0  0  0  0  0  0  0  0  0
   -7.0990   21.5270  -32.2950 C   0  0  0  0  0  0  0  0  0  0  0  0
   -7.4600   23.1810  -31.8110 S   0  0  0  0  0  0  0  0  0  0  0  0
   -8.9390   23.4270  -31.9210 O   0  0  0  0  0  0  0  0  0  0  0  0
   -6.7340   24.1170  -32.7370 O   0  0  0  0  0  0  0  0  0  0  0  0
   -6.9290   23.4320  -30.1610 N   0  0  0  0  0  0  0  0  0  0  0  0
   -6.8370   24.8700  -29.8240 C   0  0  0  0  0  0  0  0  0  0  0  0
   -7.4516   25.4386  -30.5374 H   0  0  0  0  0  0  0  0  0  0  0  0
   -7.1945   24.9926  -28.7910 H   0  0  0  0  0  0  0  0  0  0  0  0
   -5.3940   25.4030  -29.8830 C   0  0  0  0  0  0  0  0  0  0  0  0
   -5.4134   26.4798  -30.1069 H   0  0  0  0  0  0  0  0  0  0  0  0
   -4.9077   25.2296  -28.9117 H   0  0  0  0  0  0  0  0  0  0  0  0
   -4.6670   24.7320  -30.8870 O   0  0  0  0  0  0  0  0  0  0  0  0
   -4.4450   23.3830  -30.5150 C   0  0  0  0  0  0  0  0  0  0  0  0
   -4.1655   22.8156  -31.4150 H   0  0  0  0  0  0  0  0  0  0  0  0
   -3.6480   23.3846  -29.7569 H   0  0  0  0  0  0  0  0  0  0  0  0
   -5.6810   22.7050  -29.8730 C   0  0  0  0  0  0  0  0  0  0  0  0
   -5.7683   21.6819  -30.2676 H   0  0  0  0  0  0  0  0  0  0  0  0
   -5.5360   22.7036  -28.7826 H   0  0  0  0  0  0  0  0  0  0  0  0
   -8.0930   20.5420  -32.2580 C   0  0  0  0  0  0  0  0  0  0  0  0
   -9.1086   20.7997  -31.9230 H   0  0  0  0  0  0  0  0  0  0  0  0
   -7.7980   19.2310  -32.6460 C   0  0  0  0  0  0  0  0  0  0  0  0
   -8.5864   18.4644  -32.6185 H   0  0  0  0  0  0  0  0  0  0  0  0
   -6.1040   14.6970  -34.2030 C   0  0  0  0  0  0  0  0  0  0  0  0
   -7.2400   15.1120  -33.8400 O   0  0  0  0  0  0  0  0  0  0  0  0
   -5.9410   13.3840  -34.5530 N   0  0  0  0  0  0  0  0  0  0  0  0
   -7.0930   12.4660  -34.5100 C   0  0  0  0  0  0  0  0  0  0  0  0
   -7.3560   12.2565  -33.4626 H   0  0  0  0  0  0  0  0  0  0  0  0
   -7.9512   12.9306  -35.0176 H   0  0  0  0  0  0  0  0  0  0  0  0
   -6.8317   11.5258  -35.0176 H   0  0  0  0  0  0  0  0  0  0  0  0
   -4.7300   12.9390  -35.0180 C   0  0  0  0  0  0  0  0  0  0  0  0
   -4.6140   11.7370  -35.3930 O   0  0  0  0  0  0  0  0  0  0  0  0
   -3.6500   13.7840  -35.0840 N   0  0  0  0  0  0  0  0  0  0  0  0
   -2.3470   13.2920  -35.5680 C   0  0  0  0  0  0  0  0  0  0  0  0
   -1.7045   13.0494  -34.7087 H   0  0  0  0  0  0  0  0  0  0  0  0
   -2.4995   12.3895  -36.1782 H   0  0  0  0  0  0  0  0  0  0  0  0
   -1.8649   14.0700  -36.1782 H   0  0  0  0  0  0  0  0  0  0  0  0
  1  2  1  0
  2  3  1  0
  3  4  2  0
  4  5  1  0
  5  6  1  0
  5  7  2  0
  7  8  1  0
  8  9  2  0
  9 10  1  0
  9 11  1  0
 11 12  1  0
 11 13  2  0
 13 14  1  0
 14 15  2  0
 14 16  2  0
 14 17  1  0
 17 18  1  0
 18 19  1  0
 18 20  1  0
 18 21  1  0
 21 22  1  0
 21 23  1  0
 21 24  1  0
 24 25  1  0
 25 26  1  0
 25 27  1  0
 25 28  1  0
 28 29  1  0
 28 30  1  0
 13 31  1  0
 31 32  1  0
 31 33  2  0
 33 34  1  0
  4 35  1  0
 35 36  2  0
 35 37  1  0
 37 38  1  0
 38 39  1  0
 38 40  1  0
 38 41  1  0
 37 42  1  0
 42 43  2  0
 42 44  1  0
 44 45  1  0
 45 46  1  0
 45 47  1  0
 45 48  1  0
 44  3  1  0
 33  8  1  0
 28 17  1  0
M  END
>  <UniqueID>  (48) 
47

>  <SMILES>  (48) 
Cn1c(O)c(/C=N/c2ccc(S(=O)(=O)N3CCOCC3)cc2)c(=O)n(C)c1=O

>  <Energy>  (48) 
74.84351695623762

>  <Genealogy>  (48) 
Cn1c(O)c(/C=N/c2ccc(S(=O)(=O)N3CCOCC3)cc2)c(=O)n(C)c1=O (cis-trans isomerization)
Cn1c(O)c(/C=N/c2ccc(S(=O)(=O)N3CCOCC3)cc2)c(=O)n(C)c1=O (3D coordinates assigned)
Cn1c(O)c(/C=N/c2ccc(S(=O)(=O)N3CCOCC3)cc2)c(=O)n(C)c1=O (nonaromatic ring conformer: 74.84351695623762 kcal/mol)

>  <smiles>  (48) 
Cn1c(O)c(C=Nc2ccc(S(=O)(=O)N3CCOCC3)cc2)c(=O)n(C)c1=O

>  <score_type>  (48) 
oracle

>  <origin>  (48) 
adgpu

>  <m_score__min__energy>  (48) 
-7.9900000000000002

>  <m_primary>  (48) 
energy

$$$$
48:0
     RDKit          3D

 62 65  0  0  0  0  0  0  0  0999 V2000
   -6.1190   16.9860  -30.7900 C   0  0  0  0  0  0  0  0  0  0  0  0
   -6.6700   18.1550  -31.5510 C   0  0  0  0  0  0  0  0  0  0  0  0
   -8.0470   18.2600  -31.7890 C   0  0  0  0  0  0  0  0  0  0  0  0
   -8.5610   19.3680  -32.4670 C   0  0  0  0  0  0  0  0  0  0  0  0
   -7.7080   20.3860  -32.8980 C   0  0  0  0  0  0  0  0  0  0  0  0
   -6.3270   20.3040  -32.6510 C   0  0  0  0  0  0  0  0  0  0  0  0
   -5.4080   21.4270  -33.0530 C   0  0  0  0  0  0  0  0  0  0  0  0
   -4.2570   21.4910  -32.1410 N   0  0  0  0  0  0  0  0  0  0  0  0
   -3.0400   20.9170  -32.3340 C   0  0  0  0  0  0  0  0  0  0  0  0
   -2.7030   19.9950  -33.4320 C   0  0  0  0  0  0  0  0  0  0  0  0
   -2.1750   20.4420  -34.4850 O   0  0  0  0  0  0  0  0  0  0  0  0
   -2.9670   18.5940  -33.3010 N   0  0  0  0  0  0  0  0  0  0  0  0
   -2.5250   17.6370  -34.3170 C   0  0  0  0  0  0  0  0  0  0  0  0
   -3.7140   16.8860  -34.9250 C   0  0  0  0  0  0  0  0  0  0  0  0
   -4.9740   17.2340  -34.2300 N   0  0  0  0  0  0  0  0  0  0  0  0
   -5.7940   16.0350  -33.9790 C   0  0  0  0  0  0  0  0  0  0  0  0
   -5.7490   18.1960  -35.0300 C   0  0  0  0  0  0  0  0  0  0  0  0
   -2.1290   21.3550  -31.3830 C   0  0  0  0  0  0  0  0  0  0  0  0
   -2.8240   22.2360  -30.5710 C   0  0  0  0  0  0  0  0  0  0  0  0
   -2.4200   23.0020  -29.4550 C   0  0  0  0  0  0  0  0  0  0  0  0
   -1.1270   22.9860  -28.8940 C   0  0  0  0  0  0  0  0  0  0  0  0
   -0.2310   22.2620  -29.4080 O   0  0  0  0  0  0  0  0  0  0  0  0
   -0.8380   23.7570  -27.7910 N   0  0  0  0  0  0  0  0  0  0  0  0
    0.5190   23.7360  -27.2140 C   0  0  0  0  0  0  0  0  0  0  0  0
   -1.8020   24.5930  -27.2700 C   0  0  0  0  0  0  0  0  0  0  0  0
   -1.5420   25.4860  -26.0820 C   0  0  0  0  0  0  0  0  0  0  0  0
   -2.7470   26.0060  -25.5910 O   0  0  0  0  0  0  0  0  0  0  0  0
   -3.0510   24.6080  -27.8010 N   0  0  0  0  0  0  0  0  0  0  0  0
   -3.3880   23.8450  -28.8640 C   0  0  0  0  0  0  0  0  0  0  0  0
   -4.6990   23.9070  -29.3770 C   0  0  0  0  0  0  0  0  0  0  0  0
   -5.0710   23.1350  -30.4850 C   0  0  0  0  0  0  0  0  0  0  0  0
   -4.1100   22.2990  -31.0660 C   0  0  0  0  0  0  0  0  0  0  0  0
   -5.8160   19.1870  -31.9700 C   0  0  0  0  0  0  0  0  0  0  0  0
   -6.2087   17.1762  -29.7103 H   0  0  0  0  0  0  0  0  0  0  0  0
   -6.6845   16.0793  -31.0508 H   0  0  0  0  0  0  0  0  0  0  0  0
   -5.0597   16.8451  -31.0508 H   0  0  0  0  0  0  0  0  0  0  0  0
   -8.7255   17.4673  -31.4408 H   0  0  0  0  0  0  0  0  0  0  0  0
   -9.6413   19.4387  -32.6620 H   0  0  0  0  0  0  0  0  0  0  0  0
   -8.1184   21.2552  -33.4328 H   0  0  0  0  0  0  0  0  0  0  0  0
   -5.0500   21.2543  -34.0787 H   0  0  0  0  0  0  0  0  0  0  0  0
   -5.9592   22.3776  -33.0032 H   0  0  0  0  0  0  0  0  0  0  0  0
   -3.4080   18.2470  -32.4200 H   0  0  0  0  0  0  0  0  0  0  0  0
   -1.9970   18.1793  -35.1152 H   0  0  0  0  0  0  0  0  0  0  0  0
   -1.8579   16.9046  -33.8389 H   0  0  0  0  0  0  0  0  0  0  0  0
   -3.8036   17.1548  -35.9879 H   0  0  0  0  0  0  0  0  0  0  0  0
   -3.5396   15.8056  -34.8136 H   0  0  0  0  0  0  0  0  0  0  0  0
   -5.8983   15.8825  -32.8946 H   0  0  0  0  0  0  0  0  0  0  0  0
   -6.7892   16.1709  -34.4275 H   0  0  0  0  0  0  0  0  0  0  0  0
   -5.3065   15.1569  -34.4275 H   0  0  0  0  0  0  0  0  0  0  0  0
   -6.2957   18.8747  -34.3588 H   0  0  0  0  0  0  0  0  0  0  0  0
   -5.0658   18.7796  -35.6646 H   0  0  0  0  0  0  0  0  0  0  0  0
   -6.4647   17.6527  -35.6646 H   0  0  0  0  0  0  0  0  0  0  0  0
   -1.0724   21.0626  -31.2927 H   0  0  0  0  0  0  0  0  0  0  0  0
    0.4507   23.7371  -26.1161 H   0  0  0  0  0  0  0  0  0  0  0  0
    1.0454   22.8296  -27.5477 H   0  0  0  0  0  0  0  0  0  0  0  0
    1.0732   24.6257  -27.5477 H   0  0  0  0  0  0  0  0  0  0  0  0
   -1.0494   24.9024  -25.2903 H   0  0  0  0  0  0  0  0  0  0  0  0
   -0.8946   26.3183  -26.3952 H   0  0  0  0  0  0  0  0  0  0  0  0
   -3.3650   26.0730  -26.3660 H   0  0  0  0  0  0  0  0  0  0  0  0
   -5.4383   24.5688  -28.9022 H   0  0  0  0  0  0  0  0  0  0  0  0
   -6.0931   23.1844  -30.8887 H   0  0  0  0  0  0  0  0  0  0  0  0
   -4.7376   19.1204  -31.7633 H   0  0  0  0  0  0  0  0  0  0  0  0
  1  2  1  0
  2  3  2  0
  3  4  1  0
  4  5  2  0
  5  6  1  0
  6  7  1  0
  7  8  1  0
  8  9  1  0
  9 10  1  0
 10 11  2  0
 10 12  1  0
 12 13  1  0
 13 14  1  0
 14 15  1  0
 15 16  1  0
 15 17  1  0
  9 18  2  0
 18 19  1  0
 19 20  2  0
 20 21  1  0
 21 22  2  0
 21 23  1  0
 23 24  1  0
 23 25  1  0
 25 26  1  0
 26 27  1  0
 25 28  2  0
 28 29  1  0
 29 30  2  0
 30 31  1  0
 31 32  2  0
  6 33  2  0
 33  2  1  0
 32  8  1  0
 32 19  1  0
 29 20  1  0
  1 34  1  0
  1 35  1  0
  1 36  1  0
  3 37  1  0
  4 38  1  0
  5 39  1  0
  7 40  1  0
  7 41  1  0
 12 42  1  0
 13 43  1  0
 13 44  1  0
 14 45  1  0
 14 46  1  0
 16 47  1  0
 16 48  1  0
 16 49  1  0
 17 50  1  0
 17 51  1  0
 17 52  1  0
 18 53  1  0
 24 54  1  0
 24 55  1  0
 24 56  1  0
 26 57  1  0
 26 58  1  0
 27 59  1  0
 30 60  1  0
 31 61  1  0
 33 62  1  0
M  END
>  <UniqueID>  (49) 
48

>  <SMILES>  (49) 
Cc1cccc(Cn2c(C(=O)NCCN(C)C)cc3c4c(=O)n(C)c(CO)nc4ccc32)c1

>  <Energy>  (49) 
105.8345393383941

>  <Genealogy>  (49) 
Cc1cccc(Cn2c(C(=O)NCCN(C)C)cc3c4c(=O)n(C)c(CO)nc4ccc32)c1 (3D coordinates assigned)
Cc1cccc(Cn2c(C(=O)NCCN(C)C)cc3c4c(=O)n(C)c(CO)nc4ccc32)c1 (optimized conformer: 105.8345393383941 kcal/mol)

>  <smiles>  (49) 
Cc1cccc(Cn2c(C(=O)NCCN(C)C)cc3c4c(=O)n(C)c(CO)nc4ccc32)c1

>  <score_type>  (49) 
oracle

>  <origin>  (49) 
adgpu

>  <m_score__min__energy>  (49) 
-8.5299999999999994

>  <m_primary>  (49) 
energy

$$$$
