0:0
     RDKit          3D

 14 14  0  0  0  0  0  0  0  0999 V2000
   -3.8700   25.2940  -30.1350 N   0  0  0  0  0  0  0  0  0  0  0  0
   -4.8610   24.4040  -30.6530 C   0  0  0  0  0  0  0  0  0  0  0  0
   -6.2220   24.7290  -30.5580 C   0  0  0  0  0  0  0  0  0  0  0  0
   -7.1900   23.8570  -31.0670 C   0  0  0  0  0  0  0  0  0  0  0  0
   -6.8040   22.6570  -31.6720 C   0  0  0  0  0  0  0  0  0  0  0  0
   -5.4480   22.3280  -31.7700 C   0  0  0  0  0  0  0  0  0  0  0  0
   -4.4780   23.1980  -31.2620 C   0  0  0  0  0  0  0  0  0  0  0  0
   -3.1170   25.6740  -30.7510 H   0  0  0  0  0  0  0  0  0  0  0  0
   -3.8790   25.5780  -29.1300 H   0  0  0  0  0  0  0  0  0  0  0  0
   -6.5290   25.6720  -30.0820 H   0  0  0  0  0  0  0  0  0  0  0  0
   -8.2565   24.1157  -30.9912 H   0  0  0  0  0  0  0  0  0  0  0  0
   -7.5665   21.9718  -32.0708 H   0  0  0  0  0  0  0  0  0  0  0  0
   -5.1444   21.3844  -32.2469 H   0  0  0  0  0  0  0  0  0  0  0  0
   -3.4123   22.9369  -31.3397 H   0  0  0  0  0  0  0  0  0  0  0  0
  1  2  1  0
  2  3  2  0
  3  4  1  0
  4  5  2  0
  5  6  1  0
  6  7  2  0
  7  2  1  0
  1  8  1  0
  1  9  1  0
  3 10  1  0
  4 11  1  0
  5 12  1  0
  6 13  1  0
  7 14  1  0
M  END
>  <UniqueID>  (1) 
1

>  <SMILES>  (1) 
Nc1ccccc1

>  <Energy>  (1) 
11.50413135395747

>  <Genealogy>  (1) 
Nc1ccccc1 (3D coordinates assigned)
Nc1ccccc1 (optimized conformer: 11.50413135395747 kcal/mol)

>  <smiles>  (1) 
Nc1ccccc1

>  <score_type>  (1) 
oracle

>  <origin>  (1) 
adgpu

>  <m_score__min__energy>  (1) 
-4.3700000000000001

>  <m_primary>  (1) 
energy

$$$$
1:0
     RDKit          3D

 37 40  0  0  0  0  0  0  0  0999 V2000
   -1.8770   25.4470  -28.9500 O   0  0  0  0  0  0  0  0  0  0  0  0
   -2.5650   24.5450  -29.4950 C   0  0  0  0  0  0  0  0  0  0  0  0
   -3.5390   24.9240  -30.4780 N   0  0  0  0  0  0  0  0  0  0  0  0
   -4.7670   24.2390  -30.7660 C   0  0  0  0  0  0  0  0  0  0  0  0
   -5.9760   24.8630  -30.4550 C   0  0  0  0  0  0  0  0  0  0  0  0
   -7.1870   24.2250  -30.7200 C   0  0  0  0  0  0  0  0  0  0  0  0
   -7.2120   22.9560  -31.3120 C   0  0  0  0  0  0  0  0  0  0  0  0
   -8.7920   22.2170  -31.5560 Cl  0  0  0  0  0  0  0  0  0  0  0  0
   -5.9950   22.3200  -31.6630 C   0  0  0  0  0  0  0  0  0  0  0  0
   -5.9310   20.9800  -32.3020 C   0  0  0  0  0  0  0  0  0  0  0  0
   -5.0040   20.6120  -33.2280 N   0  0  0  0  0  0  0  0  0  0  0  0
   -5.3470   19.3400  -33.4880 C   0  0  0  0  0  0  0  0  0  0  0  0
   -4.7420   18.4520  -34.3740 C   0  0  0  0  0  0  0  0  0  0  0  0
   -5.2880   17.1570  -34.4740 C   0  0  0  0  0  0  0  0  0  0  0  0
   -6.4110   16.7920  -33.6950 C   0  0  0  0  0  0  0  0  0  0  0  0
   -6.9960   17.7180  -32.8100 C   0  0  0  0  0  0  0  0  0  0  0  0
   -6.4270   18.9860  -32.7400 C   0  0  0  0  0  0  0  0  0  0  0  0
   -6.7800   20.0050  -32.0080 O   0  0  0  0  0  0  0  0  0  0  0  0
   -4.7830   22.9810  -31.3930 C   0  0  0  0  0  0  0  0  0  0  0  0
   -2.3800   23.1360  -29.0720 C   0  0  0  0  0  0  0  0  0  0  0  0
   -3.2320   22.5740  -28.1060 C   0  0  0  0  0  0  0  0  0  0  0  0
   -3.0560   21.2480  -27.6940 C   0  0  0  0  0  0  0  0  0  0  0  0
   -2.0380   20.4710  -28.2500 C   0  0  0  0  0  0  0  0  0  0  0  0
   -1.1970   21.0140  -29.2240 C   0  0  0  0  0  0  0  0  0  0  0  0
   -1.3680   22.3390  -29.6390 C   0  0  0  0  0  0  0  0  0  0  0  0
   -5.9734   25.8637  -29.9983 H   0  0  0  0  0  0  0  0  0  0  0  0
   -8.1328   24.7236  -30.4614 H   0  0  0  0  0  0  0  0  0  0  0  0
   -3.8697   18.7508  -34.9738 H   0  0  0  0  0  0  0  0  0  0  0  0
   -4.8385   16.4256  -35.1617 H   0  0  0  0  0  0  0  0  0  0  0  0
   -6.8299   15.7785  -33.7811 H   0  0  0  0  0  0  0  0  0  0  0  0
   -7.8693   17.4493  -32.1975 H   0  0  0  0  0  0  0  0  0  0  0  0
   -3.8325   22.5058  -31.6771 H   0  0  0  0  0  0  0  0  0  0  0  0
   -4.0413   23.1792  -27.6715 H   0  0  0  0  0  0  0  0  0  0  0  0
   -3.7209   20.8173  -26.9308 H   0  0  0  0  0  0  0  0  0  0  0  0
   -1.8982   19.4308  -27.9208 H   0  0  0  0  0  0  0  0  0  0  0  0
   -0.3990   20.3989  -29.6654 H   0  0  0  0  0  0  0  0  0  0  0  0
   -0.7084   22.7599  -30.4121 H   0  0  0  0  0  0  0  0  0  0  0  0
  1  2  2  0
  2  3  1  0
  3  4  1  0
  4  5  2  0
  5  6  1  0
  6  7  2  0
  7  8  1  0
  7  9  1  0
  9 10  1  0
 10 11  2  0
 11 12  1  0
 12 13  2  0
 13 14  1  0
 14 15  2  0
 15 16  1  0
 16 17  2  0
 17 18  1  0
  9 19  2  0
  2 20  1  0
 20 21  2  0
 21 22  1  0
 22 23  2  0
 23 24  1  0
 24 25  2  0
 19  4  1  0
 25 20  1  0
 18 10  1  0
 17 12  1  0
  5 26  1  0
  6 27  1  0
 13 28  1  0
 14 29  1  0
 15 30  1  0
 16 31  1  0
 19 32  1  0
 21 33  1  0
 22 34  1  0
 23 35  1  0
 24 36  1  0
 25 37  1  0
M  CHG  1   3  -1
M  END
>  <UniqueID>  (2) 
2

>  <SMILES>  (2) 
O=C([N-]c1ccc(Cl)c(-c2nc3ccccc3o2)c1)c1ccccc1

>  <Energy>  (2) 
89.67609365145861

>  <Genealogy>  (2) 
O=C([N-]c1ccc(Cl)c(-c2nc3ccccc3o2)c1)c1ccccc1 (protonated)
O=C([N-]c1ccc(Cl)c(-c2nc3ccccc3o2)c1)c1ccccc1 (3D coordinates assigned)
O=C([N-]c1ccc(Cl)c(-c2nc3ccccc3o2)c1)c1ccccc1 (optimized conformer: 89.67609365145861 kcal/mol)

>  <smiles>  (2) 
O=C(Nc1ccc(Cl)c(-c2nc3ccccc3o2)c1)c1ccccc1

>  <score_type>  (2) 
oracle

>  <origin>  (2) 
adgpu

>  <m_score__min__energy>  (2) 
-11.06

>  <m_primary>  (2) 
energy

$$$$
2:0
     RDKit          3D

 38 40  0  0  0  0  0  0  0  0999 V2000
   -0.6230   21.1410  -30.3860 C   0  0  0  0  0  0  0  0  0  0  0  0
   -2.0130   21.3310  -30.9140 C   0  0  0  0  0  0  0  0  0  0  0  0
   -2.5340   20.3860  -31.7380 N   0  0  0  0  0  0  0  0  0  0  0  0
   -3.7970   20.4850  -32.2310 C   0  0  0  0  0  0  0  0  0  0  0  0
   -4.3300   19.4550  -33.0880 N   0  0  0  0  0  0  0  0  0  0  0  0
   -3.6890   18.1360  -33.1140 C   0  0  0  0  0  0  0  0  0  0  0  0
   -5.5100   19.7200  -33.9240 C   0  0  0  0  0  0  0  0  0  0  0  0
   -6.7700   19.5930  -33.1090 C   0  0  0  0  0  0  0  0  0  0  0  0
   -7.4860   20.7360  -32.7140 C   0  0  0  0  0  0  0  0  0  0  0  0
   -8.6410   20.6090  -31.9360 C   0  0  0  0  0  0  0  0  0  0  0  0
   -9.0910   19.3430  -31.5500 C   0  0  0  0  0  0  0  0  0  0  0  0
   -8.3850   18.2020  -31.9420 C   0  0  0  0  0  0  0  0  0  0  0  0
   -7.2280   18.3240  -32.7170 C   0  0  0  0  0  0  0  0  0  0  0  0
   -4.5560   21.5620  -31.9000 N   0  0  0  0  0  0  0  0  0  0  0  0
   -4.0910   22.5480  -31.0880 C   0  0  0  0  0  0  0  0  0  0  0  0
   -4.9590   23.6470  -30.7820 N   0  0  0  0  0  0  0  0  0  0  0  0
   -6.1650   23.5820  -30.1850 C   0  0  0  0  0  0  0  0  0  0  0  0
   -6.6140   24.8670  -29.9710 C   0  0  0  0  0  0  0  0  0  0  0  0
   -5.6040   25.6770  -30.4520 C   0  0  0  0  0  0  0  0  0  0  0  0
   -4.6010   24.9130  -30.9280 N   0  0  0  0  0  0  0  0  0  0  0  0
   -2.7930   22.4450  -30.5500 C   0  0  0  0  0  0  0  0  0  0  0  0
   -2.1310   23.7150  -29.2610 Br  0  0  0  0  0  0  0  0  0  0  0  0
   -0.6449   21.1440  -29.2862 H   0  0  0  0  0  0  0  0  0  0  0  0
   -0.2237   20.1799  -30.7422 H   0  0  0  0  0  0  0  0  0  0  0  0
    0.0196   21.9597  -30.7422 H   0  0  0  0  0  0  0  0  0  0  0  0
   -3.5207   17.7897  -32.0836 H   0  0  0  0  0  0  0  0  0  0  0  0
   -4.3406   17.4220  -33.6390 H   0  0  0  0  0  0  0  0  0  0  0  0
   -2.7250   18.2071  -33.6390 H   0  0  0  0  0  0  0  0  0  0  0  0
   -5.4435   20.7393  -34.3321 H   0  0  0  0  0  0  0  0  0  0  0  0
   -5.5392   18.9861  -34.7429 H   0  0  0  0  0  0  0  0  0  0  0  0
   -7.1367   21.7338  -33.0178 H   0  0  0  0  0  0  0  0  0  0  0  0
   -9.1964   21.5068  -31.6272 H   0  0  0  0  0  0  0  0  0  0  0  0
   -9.9999   19.2448  -30.9383 H   0  0  0  0  0  0  0  0  0  0  0  0
   -8.7407   17.2059  -31.6400 H   0  0  0  0  0  0  0  0  0  0  0  0
   -6.6743   17.4234  -33.0209 H   0  0  0  0  0  0  0  0  0  0  0  0
   -6.7002   22.6599  -29.9144 H   0  0  0  0  0  0  0  0  0  0  0  0
   -7.5664   25.1788  -29.5173 H   0  0  0  0  0  0  0  0  0  0  0  0
   -5.6164   26.7769  -30.4473 H   0  0  0  0  0  0  0  0  0  0  0  0
  1  2  1  0
  2  3  2  0
  3  4  1  0
  4  5  1  0
  5  6  1  0
  5  7  1  0
  7  8  1  0
  8  9  2  0
  9 10  1  0
 10 11  2  0
 11 12  1  0
 12 13  2  0
  4 14  2  0
 14 15  1  0
 15 16  1  0
 16 17  1  0
 17 18  2  0
 18 19  1  0
 19 20  2  0
 15 21  2  0
 21 22  1  0
 21  2  1  0
 13  8  1  0
 20 16  1  0
  1 23  1  0
  1 24  1  0
  1 25  1  0
  6 26  1  0
  6 27  1  0
  6 28  1  0
  7 29  1  0
  7 30  1  0
  9 31  1  0
 10 32  1  0
 11 33  1  0
 12 34  1  0
 13 35  1  0
 17 36  1  0
 18 37  1  0
 19 38  1  0
M  END
>  <UniqueID>  (3) 
3

>  <SMILES>  (3) 
Cc1nc(N(C)Cc2ccccc2)nc(-n2cccn2)c1Br

>  <Energy>  (3) 
72.89287328777849

>  <Genealogy>  (3) 
Cc1nc(N(C)Cc2ccccc2)nc(-n2cccn2)c1Br (3D coordinates assigned)
Cc1nc(N(C)Cc2ccccc2)nc(-n2cccn2)c1Br (optimized conformer: 72.89287328777849 kcal/mol)

>  <smiles>  (3) 
Cc1nc(N(C)Cc2ccccc2)nc(-n2cccn2)c1Br

>  <score_type>  (3) 
oracle

>  <origin>  (3) 
adgpu

>  <m_score__min__energy>  (3) 
-8.0899999999999999

>  <m_primary>  (3) 
energy

$$$$
3:0
     RDKit          3D

 25 26  0  0  0  0  0  0  0  0999 V2000
   -9.4190   21.1720  -32.0500 C   0  0  0  0  0  0  0  0  0  0  0  0
   -8.0520   21.7400  -31.8110 C   0  0  0  0  0  0  0  0  0  0  0  0
   -6.9190   20.9160  -31.9000 C   0  0  0  0  0  0  0  0  0  0  0  0
   -5.6420   21.4520  -31.7130 C   0  0  0  0  0  0  0  0  0  0  0  0
   -5.4800   22.8260  -31.4620 C   0  0  0  0  0  0  0  0  0  0  0  0
   -4.1840   23.4040  -31.2460 N   0  0  0  0  0  0  0  0  0  0  0  0
   -3.9030   24.5760  -30.4690 C   0  0  0  0  0  0  0  0  0  0  0  0
   -4.3810   25.6790  -30.8380 O   0  0  0  0  0  0  0  0  0  0  0  0
   -3.0200   24.5410  -29.2890 C   0  0  0  0  0  0  0  0  0  0  0  0
   -3.1470   23.7180  -28.1850 C   0  0  0  0  0  0  0  0  0  0  0  0
   -2.0870   24.0320  -27.3620 C   0  0  0  0  0  0  0  0  0  0  0  0
   -1.3770   25.0200  -28.0140 C   0  0  0  0  0  0  0  0  0  0  0  0
   -1.9550   25.2990  -29.1590 O   0  0  0  0  0  0  0  0  0  0  0  0
   -6.6110   23.6440  -31.3660 C   0  0  0  0  0  0  0  0  0  0  0  0
   -7.8890   23.1100  -31.5530 C   0  0  0  0  0  0  0  0  0  0  0  0
   -9.9059   20.9697  -31.0846 H   0  0  0  0  0  0  0  0  0  0  0  0
  -10.0216   21.8942  -32.6204 H   0  0  0  0  0  0  0  0  0  0  0  0
   -9.3323   20.2354  -32.6204 H   0  0  0  0  0  0  0  0  0  0  0  0
   -7.0368   19.8442  -32.1178 H   0  0  0  0  0  0  0  0  0  0  0  0
   -4.7601   20.7964  -31.7624 H   0  0  0  0  0  0  0  0  0  0  0  0
   -3.9310   22.9685  -28.0018 H   0  0  0  0  0  0  0  0  0  0  0  0
   -1.8540   23.5858  -26.3839 H   0  0  0  0  0  0  0  0  0  0  0  0
   -0.4645   25.5009  -27.6317 H   0  0  0  0  0  0  0  0  0  0  0  0
   -6.4936   24.7145  -31.1419 H   0  0  0  0  0  0  0  0  0  0  0  0
   -8.7704   23.7658  -31.4978 H   0  0  0  0  0  0  0  0  0  0  0  0
  1  2  1  0
  2  3  2  0
  3  4  1  0
  4  5  2  0
  5  6  1  0
  6  7  1  0
  7  8  2  0
  7  9  1  0
  9 10  2  0
 10 11  1  0
 11 12  2  0
 12 13  1  0
  5 14  1  0
 14 15  2  0
 15  2  1  0
 13  9  1  0
  1 16  1  0
  1 17  1  0
  1 18  1  0
  3 19  1  0
  4 20  1  0
 10 21  1  0
 11 22  1  0
 12 23  1  0
 14 24  1  0
 15 25  1  0
M  CHG  1   6  -1
M  END
>  <UniqueID>  (4) 
4

>  <SMILES>  (4) 
Cc1ccc([N-]C(=O)c2ccco2)cc1

>  <Energy>  (4) 
55.51181441439943

>  <Genealogy>  (4) 
Cc1ccc([N-]C(=O)c2ccco2)cc1 (protonated)
Cc1ccc([N-]C(=O)c2ccco2)cc1 (3D coordinates assigned)
Cc1ccc([N-]C(=O)c2ccco2)cc1 (optimized conformer: 55.51181441439943 kcal/mol)

>  <smiles>  (4) 
Cc1ccc(NC(=O)c2ccco2)cc1

>  <score_type>  (4) 
oracle

>  <origin>  (4) 
adgpu

>  <m_score__min__energy>  (4) 
-7.6299999999999999

>  <m_primary>  (4) 
energy

$$$$
4:0
     RDKit          3D

 29 30  0  0  0  0  0  0  0  0999 V2000
   -0.8640   26.4690  -28.1480 C   0  0  0  0  0  0  0  0  0  0  0  0
   -1.6700   25.6770  -29.0120 O   0  0  0  0  0  0  0  0  0  0  0  0
   -2.1440   24.4170  -28.6350 C   0  0  0  0  0  0  0  0  0  0  0  0
   -1.4740   23.7350  -27.6110 C   0  0  0  0  0  0  0  0  0  0  0  0
   -1.9410   22.4980  -27.1620 C   0  0  0  0  0  0  0  0  0  0  0  0
   -3.0760   21.9290  -27.7380 C   0  0  0  0  0  0  0  0  0  0  0  0
   -3.7380   22.5860  -28.7780 C   0  0  0  0  0  0  0  0  0  0  0  0
   -3.2680   23.8220  -29.2560 C   0  0  0  0  0  0  0  0  0  0  0  0
   -3.9480   24.4470  -30.4140 C   0  0  0  0  0  0  0  0  0  0  0  0
   -4.2010   25.6810  -30.3850 O   0  0  0  0  0  0  0  0  0  0  0  0
   -4.3010   23.7020  -31.5880 N   0  0  0  0  0  0  0  0  0  0  0  0
   -5.4290   22.8260  -31.7300 C   0  0  0  0  0  0  0  0  0  0  0  0
   -6.7240   23.2170  -31.3440 C   0  0  0  0  0  0  0  0  0  0  0  0
   -7.8000   22.3400  -31.5050 C   0  0  0  0  0  0  0  0  0  0  0  0
   -7.5960   21.0750  -32.0640 C   0  0  0  0  0  0  0  0  0  0  0  0
   -9.0680   19.8770  -32.2840 Br  0  0  0  0  0  0  0  0  0  0  0  0
   -6.3150   20.6900  -32.4730 C   0  0  0  0  0  0  0  0  0  0  0  0
   -5.2370   21.5670  -32.3130 C   0  0  0  0  0  0  0  0  0  0  0  0
   -1.1056   26.2316  -27.1014 H   0  0  0  0  0  0  0  0  0  0  0  0
    0.1979   26.2533  -28.3372 H   0  0  0  0  0  0  0  0  0  0  0  0
   -1.0611   27.5345  -28.3372 H   0  0  0  0  0  0  0  0  0  0  0  0
   -0.5743   24.1768  -27.1578 H   0  0  0  0  0  0  0  0  0  0  0  0
   -1.4129   21.9720  -26.3531 H   0  0  0  0  0  0  0  0  0  0  0  0
   -3.4508   20.9614  -27.3730 H   0  0  0  0  0  0  0  0  0  0  0  0
   -4.6343   22.1327  -29.2266 H   0  0  0  0  0  0  0  0  0  0  0  0
   -6.8901   24.2159  -30.9142 H   0  0  0  0  0  0  0  0  0  0  0  0
   -8.8091   22.6455  -31.1914 H   0  0  0  0  0  0  0  0  0  0  0  0
   -6.1553   19.6978  -32.9204 H   0  0  0  0  0  0  0  0  0  0  0  0
   -4.2330   21.2662  -32.6469 H   0  0  0  0  0  0  0  0  0  0  0  0
  1  2  1  0
  2  3  1  0
  3  4  2  0
  4  5  1  0
  5  6  2  0
  6  7  1  0
  7  8  2  0
  8  9  1  0
  9 10  2  0
  9 11  1  0
 11 12  1  0
 12 13  2  0
 13 14  1  0
 14 15  2  0
 15 16  1  0
 15 17  1  0
 17 18  2  0
  8  3  1  0
 18 12  1  0
  1 19  1  0
  1 20  1  0
  1 21  1  0
  4 22  1  0
  5 23  1  0
  6 24  1  0
  7 25  1  0
 13 26  1  0
 14 27  1  0
 17 28  1  0
 18 29  1  0
M  CHG  1  11  -1
M  END
>  <UniqueID>  (5) 
5

>  <SMILES>  (5) 
COc1ccccc1C(=O)[N-]c1ccc(Br)cc1

>  <Energy>  (5) 
43.03727160788191

>  <Genealogy>  (5) 
COc1ccccc1C(=O)[N-]c1ccc(Br)cc1 (protonated)
COc1ccccc1C(=O)[N-]c1ccc(Br)cc1 (3D coordinates assigned)
COc1ccccc1C(=O)[N-]c1ccc(Br)cc1 (optimized conformer: 43.03727160788191 kcal/mol)

>  <smiles>  (5) 
COc1ccccc1C(=O)Nc1ccc(Br)cc1

>  <score_type>  (5) 
oracle

>  <origin>  (5) 
adgpu

>  <m_score__min__energy>  (5) 
-8.8100000000000005

>  <m_primary>  (5) 
energy

$$$$
5:0
     RDKit          3D

 32 33  0  0  0  0  0  0  0  0999 V2000
   -0.5190   25.0670  -28.4690 H   0  0  0  0  0  0  0  0  0  0  0  0
   -1.4170   25.4620  -28.8310 N   0  0  0  0  0  0  0  0  0  0  0  0
   -2.3460   24.7190  -29.3450 C   0  0  0  0  0  0  0  0  0  0  0  0
   -3.4880   25.2990  -29.7970 N   0  0  0  0  0  0  0  0  0  0  0  0
   -4.5060   24.5800  -30.3480 C   0  0  0  0  0  0  0  0  0  0  0  0
   -5.7150   25.3250  -30.8350 C   0  0  0  0  0  0  0  0  0  0  0  0
   -6.2967   25.6834  -29.9729 H   0  0  0  0  0  0  0  0  0  0  0  0
   -5.3959   26.1833  -31.4444 H   0  0  0  0  0  0  0  0  0  0  0  0
   -6.3383   24.6541  -31.4444 H   0  0  0  0  0  0  0  0  0  0  0  0
   -4.3930   23.1720  -30.4500 C   0  0  0  0  0  0  0  0  0  0  0  0
   -5.4780   22.3270  -31.0080 C   0  0  0  0  0  0  0  0  0  0  0  0
   -5.2070   21.4510  -32.0120 N   0  0  0  0  0  0  0  0  0  0  0  0
   -6.1650   20.6620  -32.5660 C   0  0  0  0  0  0  0  0  0  0  0  0
   -5.8982   19.9601  -33.3698 H   0  0  0  0  0  0  0  0  0  0  0  0
   -7.4930   20.7380  -32.1180 C   0  0  0  0  0  0  0  0  0  0  0  0
   -8.5460   19.8260  -32.7160 C   0  0  2  0  0  0  0  0  0  0  0  0
   -8.4601   19.9007  -33.8101 H   0  0  0  0  0  0  0  0  0  0  0  0
   -9.8470   20.2450  -32.3760 O   0  0  0  0  0  0  0  0  0  0  0  0
  -10.4570   19.4660  -32.4360 H   0  0  0  0  0  0  0  0  0  0  0  0
   -8.2980   18.3470  -32.3530 C   0  0  0  0  0  0  0  0  0  0  0  0
   -8.2022   17.7626  -33.2800 H   0  0  0  0  0  0  0  0  0  0  0  0
   -7.3760   18.2881  -31.7559 H   0  0  0  0  0  0  0  0  0  0  0  0
   -9.3520   17.8210  -31.5890 O   0  0  0  0  0  0  0  0  0  0  0  0
   -9.6940   18.5600  -31.0230 H   0  0  0  0  0  0  0  0  0  0  0  0
   -7.7920   21.6270  -31.0720 C   0  0  0  0  0  0  0  0  0  0  0  0
   -8.8199   21.6927  -30.6858 H   0  0  0  0  0  0  0  0  0  0  0  0
   -6.7900   22.4270  -30.5210 C   0  0  0  0  0  0  0  0  0  0  0  0
   -7.0273   23.1314  -29.7101 H   0  0  0  0  0  0  0  0  0  0  0  0
   -3.2110   22.5640  -29.9920 C   0  0  0  0  0  0  0  0  0  0  0  0
   -3.0928   21.4732  -30.0704 H   0  0  0  0  0  0  0  0  0  0  0  0
   -2.1870   23.3330  -29.4390 C   0  0  0  0  0  0  0  0  0  0  0  0
   -1.2639   22.8540  -29.0806 H   0  0  0  0  0  0  0  0  0  0  0  0
  1  2  1  0
  2  3  2  0
  3  4  1  0
  4  5  1  0
  5  6  1  0
  6  7  1  0
  6  8  1  0
  6  9  1  0
  5 10  2  0
 10 11  1  0
 11 12  2  0
 12 13  1  0
 13 14  1  0
 13 15  2  0
 15 16  1  0
 16 17  1  6
 16 18  1  0
 18 19  1  0
 16 20  1  0
 20 21  1  0
 20 22  1  0
 20 23  1  0
 23 24  1  0
 15 25  1  0
 25 26  1  0
 25 27  2  0
 27 28  1  0
 10 29  1  0
 29 30  1  0
 29 31  2  0
 31 32  1  0
 31  3  1  0
 27 11  1  0
M  CHG  1   4  -1
M  END
>  <UniqueID>  (6) 
6

>  <SMILES>  (6) 
[H]/N=c1\ccc(-c2ccc([C@H](O)CO)cn2)c(C)[n-]1

>  <Energy>  (6) 
40.42605719578205

>  <Genealogy>  (6) 
Cc1[n-]c(=N)ccc1-c1ccc(C(O)CO)cn1 (protonated)
Cc1[n-]c(=N)ccc1-c1ccc([C@H](O)CO)cn1 (chirality)
[H]/N=c1\ccc(-c2ccc([C@H](O)CO)cn2)c(C)[n-]1 (cis-trans isomerization)
[H]/N=c1\ccc(-c2ccc([C@H](O)CO)cn2)c(C)[n-]1 (3D coordinates assigned)
[H]/N=c1\ccc(-c2ccc([C@H](O)CO)cn2)c(C)[n-]1 (optimized conformer: 40.42605719578205 kcal/mol)

>  <smiles>  (6) 
Cc1[nH]c(=N)ccc1-c1ccc(C(O)CO)cn1

>  <score_type>  (6) 
oracle

>  <origin>  (6) 
adgpu

>  <m_score__min__energy>  (6) 
-7.8099999999999996

>  <m_primary>  (6) 
energy

$$$$
6:0
     RDKit          3D

 28 29  0  0  0  0  0  0  0  0999 V2000
   -5.7040   26.3270  -30.4560 O   0  0  0  0  0  0  0  0  0  0  0  0
   -5.0370   25.3130  -30.7930 C   0  0  0  0  0  0  0  0  0  0  0  0
   -5.7070   24.1910  -31.5240 C   0  0  0  0  0  0  0  0  0  0  0  0
   -6.8860   23.6330  -30.7210 C   0  0  0  0  0  0  0  0  0  0  0  0
   -7.4740   22.4730  -31.3900 N   0  0  0  0  0  0  0  0  0  0  0  0
   -8.6820   21.9340  -31.1590 C   0  0  0  0  0  0  0  0  0  0  0  0
   -8.7990   20.8120  -31.9480 C   0  0  0  0  0  0  0  0  0  0  0  0
   -7.6680   20.6420  -32.6650 N   0  0  0  0  0  0  0  0  0  0  0  0
   -6.8800   21.6740  -32.2960 C   0  0  0  0  0  0  0  0  0  0  0  0
   -3.6430   25.2130  -30.4770 N   0  0  0  0  0  0  0  0  0  0  0  0
   -3.0690   24.4860  -29.3820 C   0  0  0  0  0  0  0  0  0  0  0  0
   -3.6620   23.3120  -28.8780 C   0  0  0  0  0  0  0  0  0  0  0  0
   -3.0560   22.6100  -27.8320 C   0  0  0  0  0  0  0  0  0  0  0  0
   -1.8500   23.0630  -27.2910 C   0  0  0  0  0  0  0  0  0  0  0  0
   -1.2440   24.2130  -27.8010 C   0  0  0  0  0  0  0  0  0  0  0  0
   -1.8460   24.9180  -28.8490 C   0  0  0  0  0  0  0  0  0  0  0  0
   -1.2420   26.0290  -29.3410 F   0  0  0  0  0  0  0  0  0  0  0  0
   -6.0756   24.5625  -32.4915 H   0  0  0  0  0  0  0  0  0  0  0  0
   -4.9736   23.3846  -31.6722 H   0  0  0  0  0  0  0  0  0  0  0  0
   -6.5318   23.3319  -29.7241 H   0  0  0  0  0  0  0  0  0  0  0  0
   -7.6543   24.4157  -30.6370 H   0  0  0  0  0  0  0  0  0  0  0  0
   -9.4420   22.3199  -30.4637 H   0  0  0  0  0  0  0  0  0  0  0  0
   -9.6798   20.1543  -31.9881 H   0  0  0  0  0  0  0  0  0  0  0  0
   -5.8673   21.8429  -32.6909 H   0  0  0  0  0  0  0  0  0  0  0  0
   -4.6056   22.9462  -29.3091 H   0  0  0  0  0  0  0  0  0  0  0  0
   -3.5291   21.7000  -27.4344 H   0  0  0  0  0  0  0  0  0  0  0  0
   -1.3779   22.5136  -26.4632 H   0  0  0  0  0  0  0  0  0  0  0  0
   -0.2916   24.5653  -27.3781 H   0  0  0  0  0  0  0  0  0  0  0  0
  1  2  2  0
  2  3  1  0
  3  4  1  0
  4  5  1  0
  5  6  1  0
  6  7  2  0
  7  8  1  0
  8  9  2  0
  2 10  1  0
 10 11  1  0
 11 12  2  0
 12 13  1  0
 13 14  2  0
 14 15  1  0
 15 16  2  0
 16 17  1  0
  9  5  1  0
 16 11  1  0
  3 18  1  0
  3 19  1  0
  4 20  1  0
  4 21  1  0
  6 22  1  0
  7 23  1  0
  9 24  1  0
 12 25  1  0
 13 26  1  0
 14 27  1  0
 15 28  1  0
M  CHG  1  10  -1
M  END
>  <UniqueID>  (7) 
7

>  <SMILES>  (7) 
O=C(CCn1ccnc1)[N-]c1ccccc1F

>  <Energy>  (7) 
55.618176326627946

>  <Genealogy>  (7) 
O=C(CCn1ccnc1)[N-]c1ccccc1F (protonated)
O=C(CCn1ccnc1)[N-]c1ccccc1F (3D coordinates assigned)
O=C(CCn1ccnc1)[N-]c1ccccc1F (optimized conformer: 55.618176326627946 kcal/mol)

>  <smiles>  (7) 
O=C(CCn1ccnc1)Nc1ccccc1F

>  <score_type>  (7) 
oracle

>  <origin>  (7) 
adgpu

>  <m_score__min__energy>  (7) 
-7.7000000000000002

>  <m_primary>  (7) 
energy

$$$$
7:0
     RDKit          3D

 34 36  0  0  0  0  0  0  0  0999 V2000
  -10.7880   20.5550  -32.2690 H   0  0  0  0  0  0  0  0  0  0  0  0
  -10.1300   21.3060  -31.9590 N   0  0  0  0  0  0  0  0  0  0  0  0
   -8.8430   21.1900  -32.0590 C   0  0  0  0  0  0  0  0  0  0  0  0
   -8.0190   22.2310  -31.6250 C   0  0  0  0  0  0  0  0  0  0  0  0
   -8.4611   23.1454  -31.2025 H   0  0  0  0  0  0  0  0  0  0  0  0
   -6.6230   22.1060  -31.7300 C   0  0  0  0  0  0  0  0  0  0  0  0
   -5.7070   23.1840  -31.2790 C   0  0  0  0  0  0  0  0  0  0  0  0
   -6.1250   24.5260  -31.2170 C   0  0  0  0  0  0  0  0  0  0  0  0
   -7.1529   24.7976  -31.4991 H   0  0  0  0  0  0  0  0  0  0  0  0
   -5.2300   25.5120  -30.7960 C   0  0  0  0  0  0  0  0  0  0  0  0
   -5.5556   26.5613  -30.7421 H   0  0  0  0  0  0  0  0  0  0  0  0
   -3.9590   25.1790  -30.4530 N   0  0  0  0  0  0  0  0  0  0  0  0
   -3.5200   23.8950  -30.5090 C   0  0  0  0  0  0  0  0  0  0  0  0
   -2.4841   23.6561  -30.2264 H   0  0  0  0  0  0  0  0  0  0  0  0
   -4.3820   22.8770  -30.9250 C   0  0  0  0  0  0  0  0  0  0  0  0
   -4.0244   21.8379  -30.9753 H   0  0  0  0  0  0  0  0  0  0  0  0
   -6.0980   20.9580  -32.2450 N   0  0  0  0  0  0  0  0  0  0  0  0
   -6.8700   19.9240  -32.6750 C   0  0  0  0  0  0  0  0  0  0  0  0
   -6.2310   18.7120  -33.2440 C   0  0  0  0  0  0  0  0  0  0  0  0
   -5.8020   18.7340  -34.5840 C   0  0  0  0  0  0  0  0  0  0  0  0
   -5.9708   19.6336  -35.1941 H   0  0  0  0  0  0  0  0  0  0  0  0
   -5.1650   17.6280  -35.1480 C   0  0  0  0  0  0  0  0  0  0  0  0
   -4.8375   17.6593  -36.1976 H   0  0  0  0  0  0  0  0  0  0  0  0
   -4.9430   16.4840  -34.3840 C   0  0  0  0  0  0  0  0  0  0  0  0
   -4.4349   15.6158  -34.8291 H   0  0  0  0  0  0  0  0  0  0  0  0
   -5.3650   16.4390  -33.0540 C   0  0  0  0  0  0  0  0  0  0  0  0
   -5.1802   15.5352  -32.4548 H   0  0  0  0  0  0  0  0  0  0  0  0
   -6.0240   17.5370  -32.4720 C   0  0  0  0  0  0  0  0  0  0  0  0
   -6.4760   17.4330  -31.0400 C   0  0  0  0  0  0  0  0  0  0  0  0
   -5.6246   17.6289  -30.3716 H   0  0  0  0  0  0  0  0  0  0  0  0
   -7.2682   18.1723  -30.8510 H   0  0  0  0  0  0  0  0  0  0  0  0
   -6.8655   16.4218  -30.8510 H   0  0  0  0  0  0  0  0  0  0  0  0
   -8.2670   20.0280  -32.5940 C   0  0  0  0  0  0  0  0  0  0  0  0
   -8.9055   19.2049  -32.9472 H   0  0  0  0  0  0  0  0  0  0  0  0
  1  2  1  0
  2  3  2  0
  3  4  1  0
  4  5  1  0
  4  6  2  0
  6  7  1  0
  7  8  2  0
  8  9  1  0
  8 10  1  0
 10 11  1  0
 10 12  2  0
 12 13  1  0
 13 14  1  0
 13 15  2  0
 15 16  1  0
  6 17  1  0
 17 18  1  0
 18 19  1  0
 19 20  2  0
 20 21  1  0
 20 22  1  0
 22 23  1  0
 22 24  2  0
 24 25  1  0
 24 26  1  0
 26 27  1  0
 26 28  2  0
 28 29  1  0
 29 30  1  0
 29 31  1  0
 29 32  1  0
 18 33  2  0
 33 34  1  0
 33  3  1  0
 15  7  1  0
 28 19  1  0
M  CHG  1  17  -1
M  END
>  <UniqueID>  (8) 
8

>  <SMILES>  (8) 
[H]/N=c1/cc(-c2ccncc2)[n-]c(-c2ccccc2C)c1

>  <Energy>  (8) 
48.35751369848742

>  <Genealogy>  (8) 
Cc1ccccc1-c1cc(=N)cc(-c2ccncc2)[n-]1 (protonated)
[H]/N=c1/cc(-c2ccncc2)[n-]c(-c2ccccc2C)c1 (cis-trans isomerization)
[H]/N=c1/cc(-c2ccncc2)[n-]c(-c2ccccc2C)c1 (3D coordinates assigned)
[H]/N=c1/cc(-c2ccncc2)[n-]c(-c2ccccc2C)c1 (optimized conformer: 48.35751369848742 kcal/mol)

>  <smiles>  (8) 
Cc1ccccc1-c1cc(=N)cc(-c2ccncc2)[nH]1

>  <score_type>  (8) 
oracle

>  <origin>  (8) 
adgpu

>  <m_score__min__energy>  (8) 
-7.9500000000000002

>  <m_primary>  (8) 
energy

$$$$
8:0
     RDKit          3D

 26 27  0  0  0  0  0  0  0  0999 V2000
   -7.2330   23.7490  -31.0260 C   0  0  0  0  0  0  0  0  0  0  0  0
   -7.6220   22.4120  -31.5780 C   0  0  0  0  0  0  0  0  0  0  0  0
   -8.9200   21.9330  -31.6740 C   0  0  0  0  0  0  0  0  0  0  0  0
   -8.7690   20.6940  -32.2580 C   0  0  0  0  0  0  0  0  0  0  0  0
   -9.7070   19.8930  -32.5130 O   0  0  0  0  0  0  0  0  0  0  0  0
   -7.4660   20.4460  -32.5010 N   0  0  0  0  0  0  0  0  0  0  0  0
   -6.9280   19.2410  -33.0760 C   0  0  0  0  0  0  0  0  0  0  0  0
   -6.1140   19.3060  -34.2190 C   0  0  0  0  0  0  0  0  0  0  0  0
   -5.5990   18.1350  -34.7850 C   0  0  0  0  0  0  0  0  0  0  0  0
   -5.9000   16.8930  -34.2190 C   0  0  0  0  0  0  0  0  0  0  0  0
   -6.7180   16.8200  -33.0890 C   0  0  0  0  0  0  0  0  0  0  0  0
   -7.2340   17.9890  -32.5200 C   0  0  0  0  0  0  0  0  0  0  0  0
   -6.7660   21.5030  -32.1020 N   0  0  0  0  0  0  0  0  0  0  0  0
   -5.3110   21.6520  -32.2100 C   0  0  0  0  0  0  0  0  0  0  0  0
   -7.2445   23.7093  -29.9268 H   0  0  0  0  0  0  0  0  0  0  0  0
   -6.2220   24.0089  -31.3729 H   0  0  0  0  0  0  0  0  0  0  0  0
   -7.9468   24.5107  -31.3729 H   0  0  0  0  0  0  0  0  0  0  0  0
   -9.8512   22.4262  -31.3582 H   0  0  0  0  0  0  0  0  0  0  0  0
   -5.8807   20.2815  -34.6707 H   0  0  0  0  0  0  0  0  0  0  0  0
   -4.9567   18.1917  -35.6762 H   0  0  0  0  0  0  0  0  0  0  0  0
   -5.4927   15.9729  -34.6634 H   0  0  0  0  0  0  0  0  0  0  0  0
   -6.9567   15.8418  -32.6460 H   0  0  0  0  0  0  0  0  0  0  0  0
   -7.8821   17.9269  -31.6334 H   0  0  0  0  0  0  0  0  0  0  0  0
   -4.8713   21.6970  -31.2027 H   0  0  0  0  0  0  0  0  0  0  0  0
   -4.8937   20.7919  -32.7541 H   0  0  0  0  0  0  0  0  0  0  0  0
   -5.0767   22.5788  -32.7541 H   0  0  0  0  0  0  0  0  0  0  0  0
  1  2  1  0
  2  3  2  0
  3  4  1  0
  4  5  2  0
  4  6  1  0
  6  7  1  0
  7  8  2  0
  8  9  1  0
  9 10  2  0
 10 11  1  0
 11 12  2  0
  6 13  1  0
 13 14  1  0
 13  2  1  0
 12  7  1  0
  1 15  1  0
  1 16  1  0
  1 17  1  0
  3 18  1  0
  8 19  1  0
  9 20  1  0
 10 21  1  0
 11 22  1  0
 12 23  1  0
 14 24  1  0
 14 25  1  0
 14 26  1  0
M  END
>  <UniqueID>  (9) 
9

>  <SMILES>  (9) 
Cc1cc(=O)n(-c2ccccc2)n1C

>  <Energy>  (9) 
64.63021635231087

>  <Genealogy>  (9) 
Cc1cc(=O)n(-c2ccccc2)n1C (3D coordinates assigned)
Cc1cc(=O)n(-c2ccccc2)n1C (optimized conformer: 64.63021635231087 kcal/mol)

>  <smiles>  (9) 
Cc1cc(=O)n(-c2ccccc2)n1C

>  <score_type>  (9) 
oracle

>  <origin>  (9) 
adgpu

>  <m_score__min__energy>  (9) 
-5.9500000000000002

>  <m_primary>  (9) 
energy

$$$$
9:0
     RDKit          3D

 40 41  0  0  0  0  0  0  0  0999 V2000
   -4.2270   24.3610  -27.5490 C   0  0  0  0  0  0  0  0  0  0  0  0
   -4.6450   24.0350  -28.9600 C   0  0  0  0  0  0  0  0  0  0  0  0
   -5.4980   24.9260  -29.6300 C   0  0  0  0  0  0  0  0  0  0  0  0
   -5.9300   24.6560  -30.9240 C   0  0  0  0  0  0  0  0  0  0  0  0
   -5.5240   23.4930  -31.5700 C   0  0  0  0  0  0  0  0  0  0  0  0
   -4.6550   22.5850  -30.9380 C   0  0  0  0  0  0  0  0  0  0  0  0
   -4.3250   21.3370  -31.5810 N   0  0  0  0  0  0  0  0  0  0  0  0
   -3.1820   21.1440  -32.4270 C   0  0  0  0  0  0  0  0  0  0  0  0
   -2.1940   21.9240  -32.3570 O   0  0  0  0  0  0  0  0  0  0  0  0
   -3.1460   20.0050  -33.4010 C   0  0  0  0  0  0  0  0  0  0  0  0
   -4.3300   19.1500  -33.2130 N   0  0  0  0  0  0  0  0  0  0  0  0
   -5.4990   19.6220  -33.9730 C   0  0  0  0  0  0  0  0  0  0  0  0
   -6.7430   19.6310  -33.1160 C   0  0  0  0  0  0  0  0  0  0  0  0
   -7.2780   20.8690  -32.7210 C   0  0  0  0  0  0  0  0  0  0  0  0
   -8.4220   20.9270  -31.9210 C   0  0  0  0  0  0  0  0  0  0  0  0
   -9.0420   19.7510  -31.5000 C   0  0  0  0  0  0  0  0  0  0  0  0
   -8.5260   18.5130  -31.8870 C   0  0  0  0  0  0  0  0  0  0  0  0
   -7.3860   18.4410  -32.6990 C   0  0  0  0  0  0  0  0  0  0  0  0
   -6.7950   16.8440  -33.1460 Cl  0  0  0  0  0  0  0  0  0  0  0  0
   -4.1840   22.8690  -29.6290 C   0  0  0  0  0  0  0  0  0  0  0  0
   -3.2390   21.9070  -28.9450 C   0  0  0  0  0  0  0  0  0  0  0  0
   -4.8909   23.8433  -26.8410 H   0  0  0  0  0  0  0  0  0  0  0  0
   -3.1902   24.0306  -27.3881 H   0  0  0  0  0  0  0  0  0  0  0  0
   -4.2949   25.4471  -27.3881 H   0  0  0  0  0  0  0  0  0  0  0  0
   -5.8279   25.8467  -29.1266 H   0  0  0  0  0  0  0  0  0  0  0  0
   -6.5953   25.3649  -31.4386 H   0  0  0  0  0  0  0  0  0  0  0  0
   -5.8865   23.2808  -32.5866 H   0  0  0  0  0  0  0  0  0  0  0  0
   -4.9750   20.5290  -31.4600 H   0  0  0  0  0  0  0  0  0  0  0  0
   -3.1414   20.4019  -34.4269 H   0  0  0  0  0  0  0  0  0  0  0  0
   -2.2372   19.4094  -33.2298 H   0  0  0  0  0  0  0  0  0  0  0  0
   -4.5910   19.1840  -32.1990 H   0  0  0  0  0  0  0  0  0  0  0  0
   -5.3042   20.6431  -34.3327 H   0  0  0  0  0  0  0  0  0  0  0  0
   -5.6640   18.9369  -34.8177 H   0  0  0  0  0  0  0  0  0  0  0  0
   -6.7916   21.8010  -33.0447 H   0  0  0  0  0  0  0  0  0  0  0  0
   -8.8344   21.9022  -31.6227 H   0  0  0  0  0  0  0  0  0  0  0  0
   -9.9375   19.7989  -30.8630 H   0  0  0  0  0  0  0  0  0  0  0  0
   -9.0176   17.5876  -31.5523 H   0  0  0  0  0  0  0  0  0  0  0  0
   -3.3386   22.0084  -27.8542 H   0  0  0  0  0  0  0  0  0  0  0  0
   -3.4862   20.8770  -29.2416 H   0  0  0  0  0  0  0  0  0  0  0  0
   -2.2047   22.1358  -29.2416 H   0  0  0  0  0  0  0  0  0  0  0  0
  1  2  1  0
  2  3  2  0
  3  4  1  0
  4  5  2  0
  5  6  1  0
  6  7  1  0
  7  8  1  0
  8  9  2  0
  8 10  1  0
 10 11  1  0
 11 12  1  0
 12 13  1  0
 13 14  2  0
 14 15  1  0
 15 16  2  0
 16 17  1  0
 17 18  2  0
 18 19  1  0
  6 20  2  0
 20 21  1  0
 20  2  1  0
 18 13  1  0
  1 22  1  0
  1 23  1  0
  1 24  1  0
  3 25  1  0
  4 26  1  0
  5 27  1  0
  7 28  1  0
 10 29  1  0
 10 30  1  0
 11 31  1  0
 12 32  1  0
 12 33  1  0
 14 34  1  0
 15 35  1  0
 16 36  1  0
 17 37  1  0
 21 38  1  0
 21 39  1  0
 21 40  1  0
M  END
>  <UniqueID>  (10) 
10

>  <SMILES>  (10) 
Cc1cccc(NC(=O)CNCc2ccccc2Cl)c1C

>  <Energy>  (10) 
42.99608620568963

>  <Genealogy>  (10) 
Cc1cccc(NC(=O)CNCc2ccccc2Cl)c1C (3D coordinates assigned)
Cc1cccc(NC(=O)CNCc2ccccc2Cl)c1C (optimized conformer: 42.99608620568963 kcal/mol)

>  <smiles>  (10) 
Cc1cccc(NC(=O)CNCc2ccccc2Cl)c1C

>  <score_type>  (10) 
oracle

>  <origin>  (10) 
adgpu

>  <m_score__min__energy>  (10) 
-8.6500000000000004

>  <m_primary>  (10) 
energy

$$$$
10:0
     RDKit          3D

 36 37  0  0  0  0  0  0  0  0999 V2000
   -0.7470   27.1980  -27.4600 C   0  0  0  0  0  0  0  0  0  0  0  0
   -1.1330   26.4060  -28.5770 O   0  0  0  0  0  0  0  0  0  0  0  0
   -1.0320   25.0070  -28.6380 C   0  0  0  0  0  0  0  0  0  0  0  0
    0.0410   24.3160  -28.0380 C   0  0  0  0  0  0  0  0  0  0  0  0
    0.1510   22.9290  -28.1710 C   0  0  0  0  0  0  0  0  0  0  0  0
   -0.7960   22.2190  -28.9070 C   0  0  0  0  0  0  0  0  0  0  0  0
   -1.8700   22.8900  -29.4980 C   0  0  0  0  0  0  0  0  0  0  0  0
   -2.0130   24.2740  -29.3440 C   0  0  0  0  0  0  0  0  0  0  0  0
   -3.1290   24.9190  -29.9720 N   0  0  0  0  0  0  0  0  0  0  0  0
   -4.5040   24.5760  -29.7600 C   0  0  0  0  0  0  0  0  0  0  0  0
   -4.8200   23.6950  -28.9150 O   0  0  0  0  0  0  0  0  0  0  0  0
   -5.5700   25.2740  -30.5480 C   0  0  2  0  0  0  0  0  0  0  0  0
   -6.8550   25.3420  -29.7180 C   0  0  0  0  0  0  0  0  0  0  0  0
   -5.7980   24.5540  -31.7630 O   0  0  0  0  0  0  0  0  0  0  0  0
   -6.4790   23.3310  -31.8790 C   0  0  0  0  0  0  0  0  0  0  0  0
   -7.8820   23.2240  -31.8090 C   0  0  0  0  0  0  0  0  0  0  0  0
   -8.5010   21.9770  -31.9330 C   0  0  0  0  0  0  0  0  0  0  0  0
   -7.7320   20.8270  -32.1310 C   0  0  0  0  0  0  0  0  0  0  0  0
   -8.5110   19.2630  -32.2870 Cl  0  0  0  0  0  0  0  0  0  0  0  0
   -6.3390   20.9250  -32.2060 C   0  0  0  0  0  0  0  0  0  0  0  0
   -5.7180   22.1710  -32.0820 C   0  0  0  0  0  0  0  0  0  0  0  0
   -1.0043   26.6702  -26.5298 H   0  0  0  0  0  0  0  0  0  0  0  0
    0.3382   27.3746  -27.4932 H   0  0  0  0  0  0  0  0  0  0  0  0
   -1.2765   28.1616  -27.4932 H   0  0  0  0  0  0  0  0  0  0  0  0
    0.7956   24.8717  -27.4621 H   0  0  0  0  0  0  0  0  0  0  0  0
    0.9869   22.3966  -27.6937 H   0  0  0  0  0  0  0  0  0  0  0  0
   -0.6979   21.1295  -29.0228 H   0  0  0  0  0  0  0  0  0  0  0  0
   -2.6080   22.3268  -30.0882 H   0  0  0  0  0  0  0  0  0  0  0  0
   -5.2520   26.2987  -30.7904 H   0  0  0  0  0  0  0  0  0  0  0  0
   -6.6013   25.3286  -28.6477 H   0  0  0  0  0  0  0  0  0  0  0  0
   -7.3959   26.2700  -29.9550 H   0  0  0  0  0  0  0  0  0  0  0  0
   -7.4908   24.4762  -29.9550 H   0  0  0  0  0  0  0  0  0  0  0  0
   -8.4930   24.1258  -31.6561 H   0  0  0  0  0  0  0  0  0  0  0  0
   -9.5968   21.9005  -31.8746 H   0  0  0  0  0  0  0  0  0  0  0  0
   -5.7319   20.0212  -32.3626 H   0  0  0  0  0  0  0  0  0  0  0  0
   -4.6221   22.2422  -32.1442 H   0  0  0  0  0  0  0  0  0  0  0  0
  1  2  1  0
  2  3  1  0
  3  4  2  0
  4  5  1  0
  5  6  2  0
  6  7  1  0
  7  8  2  0
  8  9  1  0
  9 10  1  0
 10 11  2  0
 10 12  1  0
 12 13  1  0
 12 14  1  0
 14 15  1  0
 15 16  2  0
 16 17  1  0
 17 18  2  0
 18 19  1  0
 18 20  1  0
 20 21  2  0
  8  3  1  0
 21 15  1  0
  1 22  1  0
  1 23  1  0
  1 24  1  0
  4 25  1  0
  5 26  1  0
  6 27  1  0
  7 28  1  0
 12 29  1  6
 13 30  1  0
 13 31  1  0
 13 32  1  0
 16 33  1  0
 17 34  1  0
 20 35  1  0
 21 36  1  0
M  CHG  1   9  -1
M  END
>  <UniqueID>  (11) 
11

>  <SMILES>  (11) 
COc1ccccc1[N-]C(=O)[C@H](C)Oc1ccc(Cl)cc1

>  <Energy>  (11) 
38.69627223272111

>  <Genealogy>  (11) 
COc1ccccc1[N-]C(=O)C(C)Oc1ccc(Cl)cc1 (protonated)
COc1ccccc1[N-]C(=O)[C@H](C)Oc1ccc(Cl)cc1 (chirality)
COc1ccccc1[N-]C(=O)[C@H](C)Oc1ccc(Cl)cc1 (3D coordinates assigned)
COc1ccccc1[N-]C(=O)[C@H](C)Oc1ccc(Cl)cc1 (optimized conformer: 38.69627223272111 kcal/mol)

>  <smiles>  (11) 
COc1ccccc1NC(=O)C(C)Oc1ccc(Cl)cc1

>  <score_type>  (11) 
oracle

>  <origin>  (11) 
adgpu

>  <m_score__min__energy>  (11) 
-10.140000000000001

>  <m_primary>  (11) 
energy

$$$$
11:0
     RDKit          3D

 29 31  0  0  0  0  0  0  0  0999 V2000
   -7.8110   19.0510  -32.6880 C   0  0  0  0  0  0  0  0  0  0  0  0
   -8.9310   19.5810  -32.0410 C   0  0  0  0  0  0  0  0  0  0  0  0
   -8.9130   20.9010  -31.5800 C   0  0  0  0  0  0  0  0  0  0  0  0
   -7.7780   21.6980  -31.7770 C   0  0  0  0  0  0  0  0  0  0  0  0
   -7.7620   23.4000  -31.2030 S   0  0  0  0  0  0  0  0  0  0  0  0
   -6.0790   23.7620  -31.8150 C   0  0  0  0  0  0  0  0  0  0  0  0
   -5.1470   24.0210  -30.6750 C   0  0  0  0  0  0  0  0  0  0  0  0
   -3.8090   24.1980  -30.8400 N   0  0  0  0  0  0  0  0  0  0  0  0
   -3.3700   24.3190  -29.5730 C   0  0  0  0  0  0  0  0  0  0  0  0
   -2.0600   24.5100  -29.1400 C   0  0  0  0  0  0  0  0  0  0  0  0
   -1.8350   24.5870  -27.7510 C   0  0  0  0  0  0  0  0  0  0  0  0
   -2.9140   24.4680  -26.8440 C   0  0  0  0  0  0  0  0  0  0  0  0
   -4.2260   24.2750  -27.3170 C   0  0  0  0  0  0  0  0  0  0  0  0
   -4.4070   24.2090  -28.6970 C   0  0  0  0  0  0  0  0  0  0  0  0
   -5.5430   24.0180  -29.3770 N   0  0  0  0  0  0  0  0  0  0  0  0
   -6.6530   21.1620  -32.4190 C   0  0  0  0  0  0  0  0  0  0  0  0
   -6.6720   19.8400  -32.8750 C   0  0  0  0  0  0  0  0  0  0  0  0
   -7.8258   18.0125  -33.0503 H   0  0  0  0  0  0  0  0  0  0  0  0
   -9.8267   18.9595  -31.8945 H   0  0  0  0  0  0  0  0  0  0  0  0
   -9.7911   21.3140  -31.0620 H   0  0  0  0  0  0  0  0  0  0  0  0
   -5.7120   22.9012  -32.3932 H   0  0  0  0  0  0  0  0  0  0  0  0
   -6.1188   24.6591  -32.4503 H   0  0  0  0  0  0  0  0  0  0  0  0
   -1.2304   24.5976  -29.8570 H   0  0  0  0  0  0  0  0  0  0  0  0
   -0.8146   24.7405  -27.3699 H   0  0  0  0  0  0  0  0  0  0  0  0
   -2.7267   24.5267  -25.7617 H   0  0  0  0  0  0  0  0  0  0  0  0
   -5.0751   24.1800  -26.6241 H   0  0  0  0  0  0  0  0  0  0  0  0
   -6.5050   23.8740  -28.9960 H   0  0  0  0  0  0  0  0  0  0  0  0
   -5.7554   21.7811  -32.5641 H   0  0  0  0  0  0  0  0  0  0  0  0
   -5.7900   19.4206  -33.3812 H   0  0  0  0  0  0  0  0  0  0  0  0
  1  2  2  0
  2  3  1  0
  3  4  2  0
  4  5  1  0
  5  6  1  0
  6  7  1  0
  7  8  2  0
  8  9  1  0
  9 10  2  0
 10 11  1  0
 11 12  2  0
 12 13  1  0
 13 14  2  0
 14 15  1  0
  4 16  1  0
 16 17  2  0
 17  1  1  0
 15  7  1  0
 14  9  1  0
  1 18  1  0
  2 19  1  0
  3 20  1  0
  6 21  1  0
  6 22  1  0
 10 23  1  0
 11 24  1  0
 12 25  1  0
 13 26  1  0
 15 27  1  0
 16 28  1  0
 17 29  1  0
M  END
>  <UniqueID>  (12) 
12

>  <SMILES>  (12) 
c1ccc(SCc2nc3ccccc3[nH]2)cc1

>  <Energy>  (12) 
61.69553496229589

>  <Genealogy>  (12) 
c1ccc(SCc2nc3ccccc3[nH]2)cc1 (3D coordinates assigned)
c1ccc(SCc2nc3ccccc3[nH]2)cc1 (optimized conformer: 61.69553496229589 kcal/mol)

>  <smiles>  (12) 
c1ccc(SCc2nc3ccccc3[nH]2)cc1

>  <score_type>  (12) 
oracle

>  <origin>  (12) 
adgpu

>  <m_score__min__energy>  (12) 
-7.4299999999999997

>  <m_primary>  (12) 
energy

$$$$
12:0
     RDKit          3D

 25 26  0  0  0  0  0  0  0  0999 V2000
   -4.5090   20.0200  -31.2210 O   0  0  0  0  0  0  0  0  0  0  0  0
   -4.9120   20.6850  -32.2120 C   0  0  0  0  0  0  0  0  0  0  0  0
   -5.4710   21.9880  -31.9920 N   0  0  0  0  0  0  0  0  0  0  0  0
   -4.9190   23.0280  -31.4290 C   0  0  0  0  0  0  0  0  0  0  0  0
   -5.6260   24.2370  -31.4330 C   0  0  0  0  0  0  0  0  0  0  0  0
   -5.0710   25.3730  -30.8370 C   0  0  0  0  0  0  0  0  0  0  0  0
   -3.8530   25.3020  -30.2390 N   0  0  0  0  0  0  0  0  0  0  0  0
   -3.1480   24.1420  -30.1980 C   0  0  0  0  0  0  0  0  0  0  0  0
   -3.6640   22.9830  -30.7820 C   0  0  0  0  0  0  0  0  0  0  0  0
   -4.9010   20.0990  -33.5170 N   0  0  0  0  0  0  0  0  0  0  0  0
   -5.8680   19.1000  -33.9470 C   0  0  0  0  0  0  0  0  0  0  0  0
   -7.0690   19.1600  -33.0590 C   0  0  0  0  0  0  0  0  0  0  0  0
   -7.9850   20.2240  -33.0730 C   0  0  0  0  0  0  0  0  0  0  0  0
   -9.0540   20.0450  -32.2070 C   0  0  0  0  0  0  0  0  0  0  0  0
   -8.8640   18.5600  -31.4430 S   0  0  0  0  0  0  0  0  0  0  0  0
   -7.4260   18.1290  -32.1960 C   0  0  0  0  0  0  0  0  0  0  0  0
   -6.6180   24.2925  -31.9051 H   0  0  0  0  0  0  0  0  0  0  0  0
   -5.6209   26.3256  -30.8521 H   0  0  0  0  0  0  0  0  0  0  0  0
   -2.1662   24.1151  -29.7026 H   0  0  0  0  0  0  0  0  0  0  0  0
   -3.0970   22.0414  -30.7385 H   0  0  0  0  0  0  0  0  0  0  0  0
   -6.1685   19.3027  -34.9856 H   0  0  0  0  0  0  0  0  0  0  0  0
   -5.4152   18.0993  -33.8870 H   0  0  0  0  0  0  0  0  0  0  0  0
   -7.8665   21.1136  -33.7091 H   0  0  0  0  0  0  0  0  0  0  0  0
   -9.8817   20.7518  -32.0481 H   0  0  0  0  0  0  0  0  0  0  0  0
   -6.8655   17.1963  -32.0352 H   0  0  0  0  0  0  0  0  0  0  0  0
  1  2  2  0
  2  3  1  0
  3  4  2  3
  4  5  1  0
  5  6  2  0
  6  7  1  0
  7  8  1  0
  8  9  2  0
  2 10  1  0
 10 11  1  0
 11 12  1  0
 12 13  1  0
 13 14  2  0
 14 15  1  0
 15 16  1  0
  9  4  1  0
 16 12  2  0
  5 17  1  0
  6 18  1  0
  8 19  1  0
  9 20  1  0
 11 21  1  0
 11 22  1  0
 13 23  1  0
 14 24  1  0
 16 25  1  0
M  CHG  2   7  -1  10  -1
M  END
>  <UniqueID>  (13) 
13

>  <SMILES>  (13) 
O=C(N=c1cc[n-]cc1)[N-]Cc1ccsc1

>  <Energy>  (13) 
56.02772372219671

>  <Genealogy>  (13) 
O=C(N=c1cc[n-]cc1)[N-]Cc1ccsc1 (protonated)
O=C(N=c1cc[n-]cc1)[N-]Cc1ccsc1 (3D coordinates assigned)
O=C(N=c1cc[n-]cc1)[N-]Cc1ccsc1 (optimized conformer: 56.02772372219671 kcal/mol)

>  <smiles>  (13) 
O=C(N=c1cc[nH]cc1)NCc1ccsc1

>  <score_type>  (13) 
oracle

>  <origin>  (13) 
adgpu

>  <m_score__min__energy>  (13) 
-8.25

>  <m_primary>  (13) 
energy

$$$$
13:0
     RDKit          3D

 27 28  0  0  0  0  0  0  0  0999 V2000
   -6.6140   26.7980  -29.5300 H   0  0  0  0  0  0  0  0  0  0  0  0
   -5.7850   26.2280  -29.8090 N   0  0  0  0  0  0  0  0  0  0  0  0
   -5.9040   25.0660  -30.3750 C   0  0  0  0  0  0  0  0  0  0  0  0
   -4.7530   24.3460  -30.7290 C   0  0  0  0  0  0  0  0  0  0  0  0
   -3.4900   24.9010  -30.4600 O   0  0  0  0  0  0  0  0  0  0  0  0
   -2.6590   24.5220  -29.3690 C   0  0  0  0  0  0  0  0  0  0  0  0
   -3.1684   24.7543  -28.4221 H   0  0  0  0  0  0  0  0  0  0  0  0
   -2.4558   23.4422  -29.4207 H   0  0  0  0  0  0  0  0  0  0  0  0
   -1.7104   25.0765  -29.4207 H   0  0  0  0  0  0  0  0  0  0  0  0
   -4.9050   23.0900  -31.3420 C   0  0  0  0  0  0  0  0  0  0  0  0
   -4.0145   22.5110  -31.6280 H   0  0  0  0  0  0  0  0  0  0  0  0
   -6.1840   22.5690  -31.5920 C   0  0  0  0  0  0  0  0  0  0  0  0
   -6.3520   21.2440  -32.2410 C   0  0  0  0  0  0  0  0  0  0  0  0
   -7.5410   20.5100  -32.0690 C   0  0  0  0  0  0  0  0  0  0  0  0
   -8.3518   20.9206  -31.4493 H   0  0  0  0  0  0  0  0  0  0  0  0
   -7.6980   19.2620  -32.6810 C   0  0  0  0  0  0  0  0  0  0  0  0
   -8.6310   18.6961  -32.5424 H   0  0  0  0  0  0  0  0  0  0  0  0
   -6.6720   18.7330  -33.4680 C   0  0  0  0  0  0  0  0  0  0  0  0
   -6.7966   17.7504  -33.9466 H   0  0  0  0  0  0  0  0  0  0  0  0
   -5.4880   19.4520  -33.6470 C   0  0  0  0  0  0  0  0  0  0  0  0
   -4.6811   19.0357  -34.2680 H   0  0  0  0  0  0  0  0  0  0  0  0
   -5.3270   20.7000  -33.0380 C   0  0  0  0  0  0  0  0  0  0  0  0
   -4.3921   21.2613  -33.1827 H   0  0  0  0  0  0  0  0  0  0  0  0
   -7.3000   23.3320  -31.2170 C   0  0  0  0  0  0  0  0  0  0  0  0
   -8.3126   22.9449  -31.4035 H   0  0  0  0  0  0  0  0  0  0  0  0
   -7.1410   24.5460  -30.6250 N   0  0  0  0  0  0  0  0  0  0  0  0
   -7.9970   25.0850  -30.3640 H   0  0  0  0  0  0  0  0  0  0  0  0
  1  2  1  0
  2  3  2  0
  3  4  1  0
  4  5  1  0
  5  6  1  0
  6  7  1  0
  6  8  1  0
  6  9  1  0
  4 10  2  0
 10 11  1  0
 10 12  1  0
 12 13  1  0
 13 14  2  0
 14 15  1  0
 14 16  1  0
 16 17  1  0
 16 18  2  0
 18 19  1  0
 18 20  1  0
 20 21  1  0
 20 22  2  0
 22 23  1  0
 12 24  2  0
 24 25  1  0
 24 26  1  0
 26 27  1  0
 26  3  1  0
 22 13  1  0
M  END
>  <UniqueID>  (14) 
14

>  <SMILES>  (14) 
[H]/N=c1\[nH]cc(-c2ccccc2)cc1OC

>  <Energy>  (14) 
32.978736043418856

>  <Genealogy>  (14) 
[H]/N=c1\[nH]cc(-c2ccccc2)cc1OC (cis-trans isomerization)
[H]/N=c1\[nH]cc(-c2ccccc2)cc1OC (3D coordinates assigned)
[H]/N=c1\[nH]cc(-c2ccccc2)cc1OC (optimized conformer: 32.978736043418856 kcal/mol)

>  <smiles>  (14) 
COc1cc(-c2ccccc2)c[nH]c1=N

>  <score_type>  (14) 
oracle

>  <origin>  (14) 
adgpu

>  <m_score__min__energy>  (14) 
-6.6299999999999999

>  <m_primary>  (14) 
energy

$$$$
14:0
     RDKit          3D

 29 30  0  0  0  0  0  0  0  0999 V2000
   -9.0670   21.6150  -31.2900 C   0  0  0  0  0  0  0  0  0  0  0  0
   -7.8480   21.7860  -32.0070 O   0  0  0  0  0  0  0  0  0  0  0  0
   -6.7940   22.6160  -31.5940 C   0  0  0  0  0  0  0  0  0  0  0  0
   -7.0150   23.8140  -30.8870 C   0  0  0  0  0  0  0  0  0  0  0  0
   -5.9380   24.6100  -30.4920 C   0  0  0  0  0  0  0  0  0  0  0  0
   -4.6210   24.2170  -30.7820 C   0  0  0  0  0  0  0  0  0  0  0  0
   -3.4930   25.0190  -30.4010 N   0  0  0  0  0  0  0  0  0  0  0  0
   -2.5710   24.7320  -29.3410 C   0  0  0  0  0  0  0  0  0  0  0  0
   -1.7910   25.6440  -28.9580 O   0  0  0  0  0  0  0  0  0  0  0  0
   -2.4730   23.3870  -28.7240 C   0  0  0  0  0  0  0  0  0  0  0  0
   -3.5850   22.8280  -28.0700 C   0  0  0  0  0  0  0  0  0  0  0  0
   -3.4980   21.5610  -27.4850 C   0  0  0  0  0  0  0  0  0  0  0  0
   -2.3000   20.8440  -27.5370 C   0  0  0  0  0  0  0  0  0  0  0  0
   -2.1840   19.1140  -26.7380 Br  0  0  0  0  0  0  0  0  0  0  0  0
   -1.1830   21.3980  -28.1710 C   0  0  0  0  0  0  0  0  0  0  0  0
   -1.2660   22.6650  -28.7570 C   0  0  0  0  0  0  0  0  0  0  0  0
   -4.4010   23.0390  -31.5040 C   0  0  0  0  0  0  0  0  0  0  0  0
   -5.4770   22.2380  -31.9030 C   0  0  0  0  0  0  0  0  0  0  0  0
   -5.1590   20.7570  -32.7930 Cl  0  0  0  0  0  0  0  0  0  0  0  0
   -8.8638   21.6435  -30.2093 H   0  0  0  0  0  0  0  0  0  0  0  0
   -9.7640   22.4242  -31.5535 H   0  0  0  0  0  0  0  0  0  0  0  0
   -9.5145   20.6453  -31.5535 H   0  0  0  0  0  0  0  0  0  0  0  0
   -8.0421   24.1243  -30.6446 H   0  0  0  0  0  0  0  0  0  0  0  0
   -6.1219   25.5499  -29.9508 H   0  0  0  0  0  0  0  0  0  0  0  0
   -4.5288   23.3906  -28.0182 H   0  0  0  0  0  0  0  0  0  0  0  0
   -4.3752   21.1275  -26.9824 H   0  0  0  0  0  0  0  0  0  0  0  0
   -0.2380   20.8363  -28.2087 H   0  0  0  0  0  0  0  0  0  0  0  0
   -0.3822   23.0997  -29.2467 H   0  0  0  0  0  0  0  0  0  0  0  0
   -3.3739   22.7399  -31.7601 H   0  0  0  0  0  0  0  0  0  0  0  0
  1  2  1  0
  2  3  1  0
  3  4  2  0
  4  5  1  0
  5  6  2  0
  6  7  1  0
  7  8  1  0
  8  9  2  0
  8 10  1  0
 10 11  2  0
 11 12  1  0
 12 13  2  0
 13 14  1  0
 13 15  1  0
 15 16  2  0
  6 17  1  0
 17 18  2  0
 18 19  1  0
 18  3  1  0
 16 10  1  0
  1 20  1  0
  1 21  1  0
  1 22  1  0
  4 23  1  0
  5 24  1  0
 11 25  1  0
 12 26  1  0
 15 27  1  0
 16 28  1  0
 17 29  1  0
M  CHG  1   7  -1
M  END
>  <UniqueID>  (15) 
15

>  <SMILES>  (15) 
COc1ccc([N-]C(=O)c2ccc(Br)cc2)cc1Cl

>  <Energy>  (15) 
36.07013175504235

>  <Genealogy>  (15) 
COc1ccc([N-]C(=O)c2ccc(Br)cc2)cc1Cl (protonated)
COc1ccc([N-]C(=O)c2ccc(Br)cc2)cc1Cl (3D coordinates assigned)
COc1ccc([N-]C(=O)c2ccc(Br)cc2)cc1Cl (optimized conformer: 36.07013175504235 kcal/mol)

>  <smiles>  (15) 
COc1ccc(NC(=O)c2ccc(Br)cc2)cc1Cl

>  <score_type>  (15) 
oracle

>  <origin>  (15) 
adgpu

>  <m_score__min__energy>  (15) 
-9.0500000000000007

>  <m_primary>  (15) 
energy

$$$$
15:0
     RDKit          3D

 45 48  0  0  0  0  0  0  0  0999 V2000
   -4.8716   18.2758  -34.1234 H   0  0  0  0  0  0  0  0  0  0  0  0
   -5.1340   19.1660  -33.5330 C   0  0  0  0  0  0  0  0  0  0  0  0
   -4.2220   20.1480  -33.4540 C   0  0  0  0  0  0  0  0  0  0  0  0
   -3.3333   20.0718  -34.0977 H   0  0  0  0  0  0  0  0  0  0  0  0
   -4.3260   21.3290  -32.5610 C   0  0  0  0  0  0  0  0  0  0  0  0
   -5.5520   21.8720  -32.3360 N   0  0  0  0  0  0  0  0  0  0  0  0
   -5.7290   22.9190  -31.4980 C   0  0  0  0  0  0  0  0  0  0  0  0
   -7.0060   23.4580  -31.3110 C   0  0  0  0  0  0  0  0  0  0  0  0
   -7.8669   23.0302  -31.8457 H   0  0  0  0  0  0  0  0  0  0  0  0
   -7.1890   24.5400  -30.4450 C   0  0  0  0  0  0  0  0  0  0  0  0
   -8.1939   24.9631  -30.2993 H   0  0  0  0  0  0  0  0  0  0  0  0
   -6.0970   25.0850  -29.7640 C   0  0  0  0  0  0  0  0  0  0  0  0
   -6.2445   25.9366  -29.0836 H   0  0  0  0  0  0  0  0  0  0  0  0
   -4.8180   24.5510  -29.9450 C   0  0  0  0  0  0  0  0  0  0  0  0
   -3.9615   24.9822  -29.4060 H   0  0  0  0  0  0  0  0  0  0  0  0
   -4.6240   23.4610  -30.8170 C   0  0  0  0  0  0  0  0  0  0  0  0
   -3.3610   22.8890  -31.0400 C   0  0  0  0  0  0  0  0  0  0  0  0
   -2.3470   23.3600  -30.4500 O   0  0  0  0  0  0  0  0  0  0  0  0
   -3.2250   21.8300  -31.9040 N   0  0  0  0  0  0  0  0  0  0  0  0
   -1.9140   21.2800  -32.1450 C   0  0  0  0  0  0  0  0  0  0  0  0
   -1.2980   21.4450  -33.3930 C   0  0  0  0  0  0  0  0  0  0  0  0
   -1.8177   21.9949  -34.1915 H   0  0  0  0  0  0  0  0  0  0  0  0
   -0.0260   20.9140  -33.6280 C   0  0  0  0  0  0  0  0  0  0  0  0
    0.4513   21.0480  -34.6099 H   0  0  0  0  0  0  0  0  0  0  0  0
    0.6460   20.2080  -32.6110 C   0  0  0  0  0  0  0  0  0  0  0  0
    1.9240   19.6570  -32.7950 O   0  0  0  0  0  0  0  0  0  0  0  0
    2.6010   18.8610  -31.8270 C   0  0  0  0  0  0  0  0  0  0  0  0
    2.3187   19.1930  -30.8170 H   0  0  0  0  0  0  0  0  0  0  0  0
    2.3194   17.8058  -31.9582 H   0  0  0  0  0  0  0  0  0  0  0  0
    3.6877   18.9695  -31.9582 H   0  0  0  0  0  0  0  0  0  0  0  0
    0.0250   20.0450  -31.3660 C   0  0  0  0  0  0  0  0  0  0  0  0
    0.5428   19.4962  -30.5655 H   0  0  0  0  0  0  0  0  0  0  0  0
   -1.2470   20.5740  -31.1330 C   0  0  0  0  0  0  0  0  0  0  0  0
   -1.7269   20.4364  -30.1528 H   0  0  0  0  0  0  0  0  0  0  0  0
   -6.4650   19.1890  -32.8870 C   0  0  0  0  0  0  0  0  0  0  0  0
   -7.4800   20.0570  -33.3300 C   0  0  0  0  0  0  0  0  0  0  0  0
   -7.2844   20.7492  -34.1622 H   0  0  0  0  0  0  0  0  0  0  0  0
   -8.7370   20.0430  -32.7160 C   0  0  0  0  0  0  0  0  0  0  0  0
   -9.5216   20.7360  -33.0537 H   0  0  0  0  0  0  0  0  0  0  0  0
   -8.9960   19.1490  -31.6740 C   0  0  0  0  0  0  0  0  0  0  0  0
   -9.9823   19.1437  -31.1870 H   0  0  0  0  0  0  0  0  0  0  0  0
   -8.0040   18.2620  -31.2500 C   0  0  0  0  0  0  0  0  0  0  0  0
   -8.2125   17.5533  -30.4350 H   0  0  0  0  0  0  0  0  0  0  0  0
   -6.7450   18.2740  -31.8610 C   0  0  0  0  0  0  0  0  0  0  0  0
   -5.9715   17.5629  -31.5354 H   0  0  0  0  0  0  0  0  0  0  0  0
  1  2  1  0
  2  3  2  0
  3  4  1  0
  3  5  1  0
  5  6  2  0
  6  7  1  0
  7  8  2  0
  8  9  1  0
  8 10  1  0
 10 11  1  0
 10 12  2  0
 12 13  1  0
 12 14  1  0
 14 15  1  0
 14 16  2  0
 16 17  1  0
 17 18  2  0
 17 19  1  0
 19 20  1  0
 20 21  2  0
 21 22  1  0
 21 23  1  0
 23 24  1  0
 23 25  2  0
 25 26  1  0
 26 27  1  0
 27 28  1  0
 27 29  1  0
 27 30  1  0
 25 31  1  0
 31 32  1  0
 31 33  2  0
 33 34  1  0
  2 35  1  0
 35 36  2  0
 36 37  1  0
 36 38  1  0
 38 39  1  0
 38 40  2  0
 40 41  1  0
 40 42  1  0
 42 43  1  0
 42 44  2  0
 44 45  1  0
 19  5  1  0
 33 20  1  0
 44 35  1  0
 16  7  1  0
M  END
>  <UniqueID>  (16) 
16

>  <SMILES>  (16) 
COc1ccc(-n2c(/C=C\c3ccccc3)nc3ccccc3c2=O)cc1

>  <Energy>  (16) 
71.4712649677216

>  <Genealogy>  (16) 
COc1ccc(-n2c(/C=C\c3ccccc3)nc3ccccc3c2=O)cc1 (cis-trans isomerization)
COc1ccc(-n2c(/C=C\c3ccccc3)nc3ccccc3c2=O)cc1 (3D coordinates assigned)
COc1ccc(-n2c(/C=C\c3ccccc3)nc3ccccc3c2=O)cc1 (optimized conformer: 71.4712649677216 kcal/mol)

>  <smiles>  (16) 
COc1ccc(-n2c(C=Cc3ccccc3)nc3ccccc3c2=O)cc1

>  <score_type>  (16) 
oracle

>  <origin>  (16) 
adgpu

>  <m_score__min__energy>  (16) 
-8.5399999999999991

>  <m_primary>  (16) 
energy

$$$$
16:0
     RDKit          3D

 18 18  0  0  0  0  0  0  0  0999 V2000
   -8.8040   22.0520  -31.1760 N   0  0  0  0  0  0  0  0  0  0  0  0
   -7.5150   22.6660  -31.1030 C   0  0  0  0  0  0  0  0  0  0  0  0
   -6.5280   22.3520  -32.0390 C   0  0  0  0  0  0  0  0  0  0  0  0
   -5.2690   22.9560  -31.9610 C   0  0  0  0  0  0  0  0  0  0  0  0
   -4.2610   22.6290  -32.9250 N   0  0  0  0  0  0  0  0  0  0  0  0
   -5.0180   23.8800  -30.9290 C   0  0  0  0  0  0  0  0  0  0  0  0
   -3.8850   24.4310  -30.8500 O   0  0  0  0  0  0  0  0  0  0  0  0
   -5.9950   24.1790  -30.0160 N   0  0  0  0  0  0  0  0  0  0  0  0
   -5.7470   25.1030  -28.9820 N   0  0  0  0  0  0  0  0  0  0  0  0
   -7.2250   23.5880  -30.0910 C   0  0  0  0  0  0  0  0  0  0  0  0
   -9.3950   22.1490  -32.0320 H   0  0  0  0  0  0  0  0  0  0  0  0
   -9.1780   21.4950  -30.3750 H   0  0  0  0  0  0  0  0  0  0  0  0
   -6.7409   21.6281  -32.8394 H   0  0  0  0  0  0  0  0  0  0  0  0
   -3.2460   22.6860  -32.6910 H   0  0  0  0  0  0  0  0  0  0  0  0
   -4.5250   22.3270  -33.8890 H   0  0  0  0  0  0  0  0  0  0  0  0
   -4.8590   25.6530  -28.9550 H   0  0  0  0  0  0  0  0  0  0  0  0
   -6.4370   25.2650  -28.2150 H   0  0  0  0  0  0  0  0  0  0  0  0
   -7.9956   23.8399  -29.3476 H   0  0  0  0  0  0  0  0  0  0  0  0
  1  2  1  0
  2  3  1  0
  3  4  2  0
  4  5  1  0
  4  6  1  0
  6  7  2  0
  6  8  1  0
  8  9  1  0
  8 10  1  0
 10  2  2  0
  1 11  1  0
  1 12  1  0
  3 13  1  0
  5 14  1  0
  5 15  1  0
  9 16  1  0
  9 17  1  0
 10 18  1  0
M  END
>  <UniqueID>  (17) 
17

>  <SMILES>  (17) 
Nc1cc(N)c(=O)n(N)c1

>  <Energy>  (17) 
16.54131743901578

>  <Genealogy>  (17) 
Nc1cc(N)c(=O)n(N)c1 (3D coordinates assigned)
Nc1cc(N)c(=O)n(N)c1 (optimized conformer: 16.54131743901578 kcal/mol)

>  <smiles>  (17) 
Nc1cc(N)c(=O)n(N)c1

>  <score_type>  (17) 
oracle

>  <origin>  (17) 
adgpu

>  <m_score__min__energy>  (17) 
-3.9500000000000002

>  <m_primary>  (17) 
energy

$$$$
17:0
     RDKit          3D

 32 35  0  0  0  0  0  0  0  0999 V2000
   -6.4440   16.3750  -34.1730 Cl  0  0  0  0  0  0  0  0  0  0  0  0
   -6.8050   17.7900  -33.2020 C   0  0  0  0  0  0  0  0  0  0  0  0
   -7.9670   17.8280  -32.4080 C   0  0  0  0  0  0  0  0  0  0  0  0
   -8.2570   18.9620  -31.6330 C   0  0  0  0  0  0  0  0  0  0  0  0
   -7.3610   20.0280  -31.6830 C   0  0  0  0  0  0  0  0  0  0  0  0
   -7.5020   21.1950  -31.0290 N   0  0  0  0  0  0  0  0  0  0  0  0
   -6.4110   21.9090  -31.4000 C   0  0  0  0  0  0  0  0  0  0  0  0
   -6.1850   23.2860  -30.9170 C   0  0  0  0  0  0  0  0  0  0  0  0
   -7.1660   24.1030  -30.3660 C   0  0  0  0  0  0  0  0  0  0  0  0
   -6.6810   25.3370  -29.9160 C   0  0  0  0  0  0  0  0  0  0  0  0
   -5.3130   25.4960  -30.0920 C   0  0  0  0  0  0  0  0  0  0  0  0
   -4.7140   24.0970  -30.8030 S   0  0  0  0  0  0  0  0  0  0  0  0
   -5.6270   21.1530  -32.2790 C   0  0  0  0  0  0  0  0  0  0  0  0
   -4.4430   21.6080  -33.0940 C   0  0  0  0  0  0  0  0  0  0  0  0
   -3.1660   21.2940  -32.3710 C   0  0  0  0  0  0  0  0  0  0  0  0
   -1.9240   21.1830  -33.0160 C   0  0  0  0  0  0  0  0  0  0  0  0
   -0.8690   20.9370  -32.1490 C   0  0  0  0  0  0  0  0  0  0  0  0
   -1.4810   20.8700  -30.5860 S   0  0  0  0  0  0  0  0  0  0  0  0
   -3.0880   21.1480  -30.9890 C   0  0  0  0  0  0  0  0  0  0  0  0
   -6.2550   19.9720  -32.4440 N   0  0  0  0  0  0  0  0  0  0  0  0
   -5.9400   18.8940  -33.2130 C   0  0  0  0  0  0  0  0  0  0  0  0
   -8.6502   16.9659  -32.3949 H   0  0  0  0  0  0  0  0  0  0  0  0
   -9.1608   19.0075  -31.0076 H   0  0  0  0  0  0  0  0  0  0  0  0
   -8.2230   23.8078  -30.2908 H   0  0  0  0  0  0  0  0  0  0  0  0
   -7.3234   26.1079  -29.4654 H   0  0  0  0  0  0  0  0  0  0  0  0
   -4.7245   26.3829  -29.8144 H   0  0  0  0  0  0  0  0  0  0  0  0
   -4.4485   21.0894  -34.0641 H   0  0  0  0  0  0  0  0  0  0  0  0
   -4.5101   22.6949  -33.2494 H   0  0  0  0  0  0  0  0  0  0  0  0
   -1.7992   21.2816  -34.1044 H   0  0  0  0  0  0  0  0  0  0  0  0
    0.1852   20.8082  -32.4354 H   0  0  0  0  0  0  0  0  0  0  0  0
   -3.9307   21.2047  -30.2843 H   0  0  0  0  0  0  0  0  0  0  0  0
   -5.0284   18.8888  -33.8286 H   0  0  0  0  0  0  0  0  0  0  0  0
  1  2  1  0
  2  3  1  0
  3  4  2  0
  4  5  1  0
  5  6  2  0
  6  7  1  0
  7  8  1  0
  8  9  2  0
  9 10  1  0
 10 11  2  0
 11 12  1  0
  7 13  2  0
 13 14  1  0
 14 15  1  0
 15 16  1  0
 16 17  2  0
 17 18  1  0
 18 19  1  0
 13 20  1  0
 20 21  1  0
 21  2  2  0
 20  5  1  0
 12  8  1  0
 19 15  2  0
  3 22  1  0
  4 23  1  0
  9 24  1  0
 10 25  1  0
 11 26  1  0
 14 27  1  0
 14 28  1  0
 16 29  1  0
 17 30  1  0
 19 31  1  0
 21 32  1  0
M  END
>  <UniqueID>  (18) 
18

>  <SMILES>  (18) 
Clc1ccc2nc(-c3cccs3)c(Cc3ccsc3)n2c1

>  <Energy>  (18) 
123.29246205839343

>  <Genealogy>  (18) 
Clc1ccc2nc(-c3cccs3)c(Cc3ccsc3)n2c1 (3D coordinates assigned)
Clc1ccc2nc(-c3cccs3)c(Cc3ccsc3)n2c1 (optimized conformer: 123.29246205839343 kcal/mol)

>  <smiles>  (18) 
Clc1ccc2nc(-c3cccs3)c(Cc3ccsc3)n2c1

>  <score_type>  (18) 
oracle

>  <origin>  (18) 
adgpu

>  <m_score__min__energy>  (18) 
-7.4800000000000004

>  <m_primary>  (18) 
energy

$$$$
18:0
     RDKit          3D

 26 27  0  0  0  0  0  0  0  0999 V2000
   -2.7720   24.4940  -29.3470 C   0  0  0  0  0  0  0  0  0  0  0  0
   -3.5880   24.8980  -30.4420 O   0  0  0  0  0  0  0  0  0  0  0  0
   -4.8020   24.2880  -30.7930 C   0  0  0  0  0  0  0  0  0  0  0  0
   -4.7610   23.1090  -31.5460 C   0  0  0  0  0  0  0  0  0  0  0  0
   -5.9430   22.4630  -31.9200 C   0  0  0  0  0  0  0  0  0  0  0  0
   -7.1870   22.9860  -31.5350 C   0  0  0  0  0  0  0  0  0  0  0  0
   -8.4600   22.3130  -31.9710 C   0  0  0  0  0  0  0  0  0  0  0  0
   -8.2410   20.8390  -32.1030 C   0  0  0  0  0  0  0  0  0  0  0  0
   -8.7220   19.8660  -31.2370 C   0  0  0  0  0  0  0  0  0  0  0  0
   -8.2910   18.5750  -31.5690 C   0  0  0  0  0  0  0  0  0  0  0  0
   -7.4640   18.5310  -32.6830 C   0  0  0  0  0  0  0  0  0  0  0  0
   -7.2640   20.1010  -33.2550 S   0  0  0  0  0  0  0  0  0  0  0  0
   -7.2330   24.1750  -30.7910 C   0  0  0  0  0  0  0  0  0  0  0  0
   -6.0500   24.8200  -30.4170 C   0  0  0  0  0  0  0  0  0  0  0  0
   -3.2765   24.7438  -28.4020 H   0  0  0  0  0  0  0  0  0  0  0  0
   -2.6031   23.4082  -29.3966 H   0  0  0  0  0  0  0  0  0  0  0  0
   -1.8061   25.0180  -29.3966 H   0  0  0  0  0  0  0  0  0  0  0  0
   -3.7905   22.6871  -31.8461 H   0  0  0  0  0  0  0  0  0  0  0  0
   -5.8978   21.5411  -32.5184 H   0  0  0  0  0  0  0  0  0  0  0  0
   -9.2449   22.4990  -31.2231 H   0  0  0  0  0  0  0  0  0  0  0  0
   -8.7683   22.7206  -32.9451 H   0  0  0  0  0  0  0  0  0  0  0  0
   -9.3741   20.0861  -30.3789 H   0  0  0  0  0  0  0  0  0  0  0  0
   -8.5810   17.6795  -30.9998 H   0  0  0  0  0  0  0  0  0  0  0  0
   -7.0161   17.6251  -33.1175 H   0  0  0  0  0  0  0  0  0  0  0  0
   -8.2044   24.6017  -30.5006 H   0  0  0  0  0  0  0  0  0  0  0  0
   -6.0947   25.7470  -29.8265 H   0  0  0  0  0  0  0  0  0  0  0  0
  1  2  1  0
  2  3  1  0
  3  4  2  0
  4  5  1  0
  5  6  2  0
  6  7  1  0
  7  8  1  0
  8  9  2  0
  9 10  1  0
 10 11  2  0
 11 12  1  0
  6 13  1  0
 13 14  2  0
 14  3  1  0
 12  8  1  0
  1 15  1  0
  1 16  1  0
  1 17  1  0
  4 18  1  0
  5 19  1  0
  7 20  1  0
  7 21  1  0
  9 22  1  0
 10 23  1  0
 11 24  1  0
 13 25  1  0
 14 26  1  0
M  END
>  <UniqueID>  (19) 
19

>  <SMILES>  (19) 
COc1ccc(Cc2cccs2)cc1

>  <Energy>  (19) 
49.30671910897787

>  <Genealogy>  (19) 
COc1ccc(Cc2cccs2)cc1 (3D coordinates assigned)
COc1ccc(Cc2cccs2)cc1 (optimized conformer: 49.30671910897787 kcal/mol)

>  <smiles>  (19) 
COc1ccc(Cc2cccs2)cc1

>  <score_type>  (19) 
oracle

>  <origin>  (19) 
adgpu

>  <m_score__min__energy>  (19) 
-6.8099999999999996

>  <m_primary>  (19) 
energy

$$$$
19:0
     RDKit          3D

 32 33  0  0  0  0  0  0  0  0999 V2000
   -5.4010   19.9540  -33.4790 C   0  0  0  0  0  0  0  0  0  0  0  0
   -4.0640   20.8630  -32.7360 S   0  0  0  0  0  0  0  0  0  0  0  0
   -3.2700   19.9510  -31.8440 O   0  0  0  0  0  0  0  0  0  0  0  0
   -3.1580   21.3960  -33.8110 O   0  0  0  0  0  0  0  0  0  0  0  0
   -4.7200   22.1990  -31.7960 C   0  0  0  0  0  0  0  0  0  0  0  0
   -6.0740   22.5360  -31.8960 C   0  0  0  0  0  0  0  0  0  0  0  0
   -6.5860   23.6120  -31.1690 C   0  0  0  0  0  0  0  0  0  0  0  0
   -5.7520   24.3630  -30.3360 C   0  0  0  0  0  0  0  0  0  0  0  0
   -6.4550   25.6940  -29.4240 Cl  0  0  0  0  0  0  0  0  0  0  0  0
   -4.3870   24.0310  -30.2190 C   0  0  0  0  0  0  0  0  0  0  0  0
   -3.5130   24.8170  -29.3890 N   0  0  0  0  0  0  0  0  0  0  0  0
   -3.2890   24.5420  -27.9970 C   0  0  0  0  0  0  0  0  0  0  0  0
   -4.1230   23.8500  -27.3530 O   0  0  0  0  0  0  0  0  0  0  0  0
   -2.1230   25.1190  -27.2870 C   0  0  0  0  0  0  0  0  0  0  0  0
   -1.9600   24.8720  -25.9110 C   0  0  0  0  0  0  0  0  0  0  0  0
   -0.8730   25.4110  -25.2170 C   0  0  0  0  0  0  0  0  0  0  0  0
    0.0670   26.1960  -25.8870 C   0  0  0  0  0  0  0  0  0  0  0  0
   -0.0730   26.4350  -27.2560 C   0  0  0  0  0  0  0  0  0  0  0  0
   -1.1540   25.8960  -27.9610 C   0  0  0  0  0  0  0  0  0  0  0  0
   -1.2380   26.1140  -29.3320 O   0  0  0  0  0  0  0  0  0  0  0  0
   -3.8780   22.9540  -30.9680 C   0  0  0  0  0  0  0  0  0  0  0  0
   -6.0347   19.5232  -32.6898 H   0  0  0  0  0  0  0  0  0  0  0  0
   -6.0024   20.6312  -34.1033 H   0  0  0  0  0  0  0  0  0  0  0  0
   -4.9925   19.1457  -34.1033 H   0  0  0  0  0  0  0  0  0  0  0  0
   -6.7376   21.9510  -32.5498 H   0  0  0  0  0  0  0  0  0  0  0  0
   -7.6520   23.8704  -31.2522 H   0  0  0  0  0  0  0  0  0  0  0  0
   -3.0810   25.6800  -29.7910 H   0  0  0  0  0  0  0  0  0  0  0  0
   -2.6938   24.2499  -25.3776 H   0  0  0  0  0  0  0  0  0  0  0  0
   -0.7580   25.2162  -24.1405 H   0  0  0  0  0  0  0  0  0  0  0  0
    0.9172   26.6260  -25.3373 H   0  0  0  0  0  0  0  0  0  0  0  0
    0.6711   27.0506  -27.7826 H   0  0  0  0  0  0  0  0  0  0  0  0
   -2.8092   22.7022  -30.9031 H   0  0  0  0  0  0  0  0  0  0  0  0
  1  2  1  0
  2  3  2  0
  2  4  2  0
  2  5  1  0
  5  6  2  0
  6  7  1  0
  7  8  2  0
  8  9  1  0
  8 10  1  0
 10 11  1  0
 11 12  1  0
 12 13  2  0
 12 14  1  0
 14 15  2  0
 15 16  1  0
 16 17  2  0
 17 18  1  0
 18 19  2  0
 19 20  1  0
 10 21  2  0
 21  5  1  0
 19 14  1  0
  1 22  1  0
  1 23  1  0
  1 24  1  0
  6 25  1  0
  7 26  1  0
 11 27  1  0
 15 28  1  0
 16 29  1  0
 17 30  1  0
 18 31  1  0
 21 32  1  0
M  CHG  1  20  -1
M  END
>  <UniqueID>  (20) 
20

>  <SMILES>  (20) 
CS(=O)(=O)c1ccc(Cl)c(NC(=O)c2ccccc2[O-])c1

>  <Energy>  (20) 
38.449840328892556

>  <Genealogy>  (20) 
CS(=O)(=O)c1ccc(Cl)c(NC(=O)c2ccccc2[O-])c1 (protonated)
CS(=O)(=O)c1ccc(Cl)c(NC(=O)c2ccccc2[O-])c1 (3D coordinates assigned)
CS(=O)(=O)c1ccc(Cl)c(NC(=O)c2ccccc2[O-])c1 (optimized conformer: 38.449840328892556 kcal/mol)

>  <smiles>  (20) 
CS(=O)(=O)c1ccc(Cl)c(NC(=O)c2ccccc2O)c1

>  <score_type>  (20) 
oracle

>  <origin>  (20) 
adgpu

>  <m_score__min__energy>  (20) 
-10.83

>  <m_primary>  (20) 
energy

$$$$
20:0
     RDKit          3D

 25 26  0  0  0  0  0  0  0  0999 V2000
   -5.7210   26.2780  -30.5220 O   0  0  0  0  0  0  0  0  0  0  0  0
   -5.1160   25.1850  -30.6880 C   0  0  0  0  0  0  0  0  0  0  0  0
   -3.6990   25.1470  -30.4690 N   0  0  0  0  0  0  0  0  0  0  0  0
   -3.0240   24.4490  -29.4120 C   0  0  0  0  0  0  0  0  0  0  0  0
   -3.5540   23.2310  -28.9650 C   0  0  0  0  0  0  0  0  0  0  0  0
   -2.9250   22.5180  -27.9400 C   0  0  0  0  0  0  0  0  0  0  0  0
   -3.4540   21.3490  -27.5030 F   0  0  0  0  0  0  0  0  0  0  0  0
   -1.7500   23.0110  -27.3640 C   0  0  0  0  0  0  0  0  0  0  0  0
   -1.1980   24.2090  -27.8230 C   0  0  0  0  0  0  0  0  0  0  0  0
   -1.8230   24.9250  -28.8490 C   0  0  0  0  0  0  0  0  0  0  0  0
   -1.2310   26.0540  -29.3170 F   0  0  0  0  0  0  0  0  0  0  0  0
   -5.8740   23.9980  -31.1510 C   0  0  0  0  0  0  0  0  0  0  0  0
   -7.2390   23.8690  -30.8400 C   0  0  0  0  0  0  0  0  0  0  0  0
   -7.9620   22.7530  -31.2740 C   0  0  0  0  0  0  0  0  0  0  0  0
   -7.3320   21.7620  -32.0310 C   0  0  0  0  0  0  0  0  0  0  0  0
   -5.9800   21.8870  -32.3580 C   0  0  0  0  0  0  0  0  0  0  0  0
   -5.2540   23.0000  -31.9270 C   0  0  0  0  0  0  0  0  0  0  0  0
   -4.4712   22.8333  -29.4238 H   0  0  0  0  0  0  0  0  0  0  0  0
   -1.2609   22.4557  -26.5501 H   0  0  0  0  0  0  0  0  0  0  0  0
   -0.2683   24.5908  -27.3759 H   0  0  0  0  0  0  0  0  0  0  0  0
   -7.7417   24.6507  -30.2516 H   0  0  0  0  0  0  0  0  0  0  0  0
   -9.0276   22.6555  -31.0191 H   0  0  0  0  0  0  0  0  0  0  0  0
   -7.9008   20.8834  -32.3694 H   0  0  0  0  0  0  0  0  0  0  0  0
   -5.4857   21.1074  -32.9562 H   0  0  0  0  0  0  0  0  0  0  0  0
   -4.1917   23.0973  -32.1954 H   0  0  0  0  0  0  0  0  0  0  0  0
  1  2  2  0
  2  3  1  0
  3  4  1  0
  4  5  2  0
  5  6  1  0
  6  7  1  0
  6  8  2  0
  8  9  1  0
  9 10  2  0
 10 11  1  0
  2 12  1  0
 12 13  2  0
 13 14  1  0
 14 15  2  0
 15 16  1  0
 16 17  2  0
 10  4  1  0
 17 12  1  0
  5 18  1  0
  8 19  1  0
  9 20  1  0
 13 21  1  0
 14 22  1  0
 15 23  1  0
 16 24  1  0
 17 25  1  0
M  CHG  1   3  -1
M  END
>  <UniqueID>  (21) 
21

>  <SMILES>  (21) 
O=C([N-]c1cc(F)ccc1F)c1ccccc1

>  <Energy>  (21) 
34.17492894625832

>  <Genealogy>  (21) 
O=C([N-]c1cc(F)ccc1F)c1ccccc1 (protonated)
O=C([N-]c1cc(F)ccc1F)c1ccccc1 (3D coordinates assigned)
O=C([N-]c1cc(F)ccc1F)c1ccccc1 (optimized conformer: 34.17492894625832 kcal/mol)

>  <smiles>  (21) 
O=C(Nc1cc(F)ccc1F)c1ccccc1

>  <score_type>  (21) 
oracle

>  <origin>  (21) 
adgpu

>  <m_score__min__energy>  (21) 
-8.1799999999999997

>  <m_primary>  (21) 
energy

$$$$
21:0
     RDKit          3D

 39 41  0  0  0  0  0  0  0  0999 V2000
   -0.4841   25.8922  -25.8336 H   0  0  0  0  0  0  0  0  0  0  0  0
   -1.2210   25.5150  -26.5580 C   0  0  0  0  0  0  0  0  0  0  0  0
   -0.8800   25.4040  -27.9070 C   0  0  0  0  0  0  0  0  0  0  0  0
    0.1261   25.6938  -28.2444 H   0  0  0  0  0  0  0  0  0  0  0  0
   -1.8150   24.9250  -28.8310 C   0  0  0  0  0  0  0  0  0  0  0  0
   -1.5405   24.8404  -29.8928 H   0  0  0  0  0  0  0  0  0  0  0  0
   -3.1040   24.5510  -28.4100 C   0  0  0  0  0  0  0  0  0  0  0  0
   -4.0970   24.0430  -29.3910 C   0  0  0  0  0  0  0  0  0  0  0  0
   -5.2340   24.7950  -29.6970 C   0  0  0  0  0  0  0  0  0  0  0  0
   -5.4057   25.7629  -29.2033 H   0  0  0  0  0  0  0  0  0  0  0  0
   -6.1460   24.3150  -30.6270 C   0  0  0  0  0  0  0  0  0  0  0  0
   -7.0375   24.9118  -30.8699 H   0  0  0  0  0  0  0  0  0  0  0  0
   -5.9470   23.0790  -31.2620 C   0  0  0  0  0  0  0  0  0  0  0  0
   -6.9120   22.7060  -32.3600 C   0  0  0  0  0  0  0  0  0  0  0  0
   -7.8506   22.3432  -31.9157 H   0  0  0  0  0  0  0  0  0  0  0  0
   -7.1183   23.5892  -32.9825 H   0  0  0  0  0  0  0  0  0  0  0  0
   -6.4707   21.9137  -32.9825 H   0  0  0  0  0  0  0  0  0  0  0  0
   -4.8110   22.2980  -30.8760 C   0  0  0  0  0  0  0  0  0  0  0  0
   -4.5550   21.0950  -31.3260 N   0  0  0  0  0  0  0  0  0  0  0  0
   -5.3650   20.2110  -32.1070 C   0  0  0  0  0  0  0  0  0  0  0  0
   -4.8810   19.7230  -33.3260 C   0  0  0  0  0  0  0  0  0  0  0  0
   -3.9074   20.0652  -33.7067 H   0  0  0  0  0  0  0  0  0  0  0  0
   -5.6330   18.8010  -34.0610 C   0  0  0  0  0  0  0  0  0  0  0  0
   -5.2583   18.4334  -35.0277 H   0  0  0  0  0  0  0  0  0  0  0  0
   -6.8590   18.3460  -33.5700 C   0  0  0  0  0  0  0  0  0  0  0  0
   -7.4462   17.6194  -34.1507 H   0  0  0  0  0  0  0  0  0  0  0  0
   -7.3450   18.8130  -32.3370 C   0  0  0  0  0  0  0  0  0  0  0  0
   -8.6340   18.2840  -31.7820 C   0  0  0  0  0  0  0  0  0  0  0  0
   -8.5941   18.3004  -30.6828 H   0  0  0  0  0  0  0  0  0  0  0  0
   -9.4676   18.9127  -32.1280 H   0  0  0  0  0  0  0  0  0  0  0  0
   -8.7857   17.2509  -32.1280 H   0  0  0  0  0  0  0  0  0  0  0  0
   -6.5770   19.7230  -31.5940 C   0  0  0  0  0  0  0  0  0  0  0  0
   -6.9264   20.0552  -30.6053 H   0  0  0  0  0  0  0  0  0  0  0  0
   -3.9170   22.8300  -29.9900 N   0  0  0  0  0  0  0  0  0  0  0  0
   -3.0610   22.2750  -29.7580 H   0  0  0  0  0  0  0  0  0  0  0  0
   -3.4360   24.6670  -27.0470 C   0  0  0  0  0  0  0  0  0  0  0  0
   -4.4400   24.3781  -26.7027 H   0  0  0  0  0  0  0  0  0  0  0  0
   -2.4980   25.1470  -26.1280 C   0  0  0  0  0  0  0  0  0  0  0  0
   -2.7661   25.2350  -25.0648 H   0  0  0  0  0  0  0  0  0  0  0  0
  1  2  1  0
  2  3  2  0
  3  4  1  0
  3  5  1  0
  5  6  1  0
  5  7  2  0
  7  8  1  0
  8  9  2  0
  9 10  1  0
  9 11  1  0
 11 12  1  0
 11 13  2  0
 13 14  1  0
 14 15  1  0
 14 16  1  0
 14 17  1  0
 13 18  1  0
 18 19  2  0
 19 20  1  0
 20 21  2  0
 21 22  1  0
 21 23  1  0
 23 24  1  0
 23 25  2  0
 25 26  1  0
 25 27  1  0
 27 28  1  0
 28 29  1  0
 28 30  1  0
 28 31  1  0
 27 32  2  0
 32 33  1  0
 18 34  1  0
 34 35  1  0
  7 36  1  0
 36 37  1  0
 36 38  2  0
 38 39  1  0
 38  2  1  0
 34  8  1  0
 32 20  1  0
M  END
>  <UniqueID>  (22) 
22

>  <SMILES>  (22) 
Cc1cccc(/N=c2/[nH]c(-c3ccccc3)ccc2C)c1

>  <Energy>  (22) 
63.58583650185148

>  <Genealogy>  (22) 
Cc1cccc(/N=c2/[nH]c(-c3ccccc3)ccc2C)c1 (cis-trans isomerization)
Cc1cccc(/N=c2/[nH]c(-c3ccccc3)ccc2C)c1 (3D coordinates assigned)
Cc1cccc(/N=c2/[nH]c(-c3ccccc3)ccc2C)c1 (optimized conformer: 63.58583650185148 kcal/mol)

>  <smiles>  (22) 
Cc1cccc(N=c2[nH]c(-c3ccccc3)ccc2C)c1

>  <score_type>  (22) 
oracle

>  <origin>  (22) 
adgpu

>  <m_score__min__energy>  (22) 
-7.6600000000000001

>  <m_primary>  (22) 
energy

$$$$
22:0
     RDKit          3D

 30 31  0  0  0  0  0  0  0  0999 V2000
   -4.3670   21.7120  -32.4330 C   0  0  0  0  0  0  0  0  0  0  0  0
   -4.7290   22.9340  -31.6330 C   0  0  0  0  0  0  0  0  0  0  0  0
   -3.7420   23.5560  -30.8480 C   0  0  0  0  0  0  0  0  0  0  0  0
   -4.0500   24.6800  -30.0800 C   0  0  0  0  0  0  0  0  0  0  0  0
   -3.0900   25.2670  -29.3240 F   0  0  0  0  0  0  0  0  0  0  0  0
   -5.3430   25.2000  -30.0910 C   0  0  0  0  0  0  0  0  0  0  0  0
   -6.3330   24.6010  -30.8710 C   0  0  0  0  0  0  0  0  0  0  0  0
   -6.0440   23.4640  -31.6530 C   0  0  0  0  0  0  0  0  0  0  0  0
   -7.0680   22.8550  -32.4670 N   0  0  0  0  0  0  0  0  0  0  0  0
   -8.0470   21.8940  -31.9570 C   0  0  0  0  0  0  0  0  0  0  0  0
   -7.6780   20.4950  -32.3750 C   0  0  0  0  0  0  0  0  0  0  0  0
   -6.8140   20.2920  -33.4630 C   0  0  0  0  0  0  0  0  0  0  0  0
   -6.4530   18.9970  -33.8450 C   0  0  0  0  0  0  0  0  0  0  0  0
   -6.9530   17.8940  -33.1440 C   0  0  0  0  0  0  0  0  0  0  0  0
   -6.4960   16.2690  -33.6230 Cl  0  0  0  0  0  0  0  0  0  0  0  0
   -7.8160   18.0890  -32.0600 C   0  0  0  0  0  0  0  0  0  0  0  0
   -8.1790   19.3830  -31.6760 C   0  0  0  0  0  0  0  0  0  0  0  0
   -4.1222   20.8856  -31.7495 H   0  0  0  0  0  0  0  0  0  0  0  0
   -5.2182   21.4235  -33.0671 H   0  0  0  0  0  0  0  0  0  0  0  0
   -3.4959   21.9337  -33.0671 H   0  0  0  0  0  0  0  0  0  0  0  0
   -2.7184   23.1533  -30.8391 H   0  0  0  0  0  0  0  0  0  0  0  0
   -5.5837   26.0848  -29.4833 H   0  0  0  0  0  0  0  0  0  0  0  0
   -7.3499   25.0205  -30.8758 H   0  0  0  0  0  0  0  0  0  0  0  0
   -7.0820   23.0370  -33.4950 H   0  0  0  0  0  0  0  0  0  0  0  0
   -8.0708   21.9495  -30.8587 H   0  0  0  0  0  0  0  0  0  0  0  0
   -9.0364   22.1400  -32.3700 H   0  0  0  0  0  0  0  0  0  0  0  0
   -6.4194   21.1563  -34.0173 H   0  0  0  0  0  0  0  0  0  0  0  0
   -5.7750   18.8447  -34.6977 H   0  0  0  0  0  0  0  0  0  0  0  0
   -8.2096   17.2222  -31.5089 H   0  0  0  0  0  0  0  0  0  0  0  0
   -8.8589   19.5317  -30.8241 H   0  0  0  0  0  0  0  0  0  0  0  0
  1  2  1  0
  2  3  2  0
  3  4  1  0
  4  5  1  0
  4  6  2  0
  6  7  1  0
  7  8  2  0
  8  9  1  0
  9 10  1  0
 10 11  1  0
 11 12  2  0
 12 13  1  0
 13 14  2  0
 14 15  1  0
 14 16  1  0
 16 17  2  0
  8  2  1  0
 17 11  1  0
  1 18  1  0
  1 19  1  0
  1 20  1  0
  3 21  1  0
  6 22  1  0
  7 23  1  0
  9 24  1  0
 10 25  1  0
 10 26  1  0
 12 27  1  0
 13 28  1  0
 16 29  1  0
 17 30  1  0
M  END
>  <UniqueID>  (23) 
23

>  <SMILES>  (23) 
Cc1cc(F)ccc1NCc1ccc(Cl)cc1

>  <Energy>  (23) 
30.772255670867967

>  <Genealogy>  (23) 
Cc1cc(F)ccc1NCc1ccc(Cl)cc1 (3D coordinates assigned)
Cc1cc(F)ccc1NCc1ccc(Cl)cc1 (optimized conformer: 30.772255670867967 kcal/mol)

>  <smiles>  (23) 
Cc1cc(F)ccc1NCc1ccc(Cl)cc1

>  <score_type>  (23) 
oracle

>  <origin>  (23) 
adgpu

>  <m_score__min__energy>  (23) 
-7.4199999999999999

>  <m_primary>  (23) 
energy

$$$$
23:0
     RDKit          3D

 34 36  0  0  0  0  0  0  0  0999 V2000
   -5.6040   25.7610  -30.0550 C   0  0  0  0  0  0  0  0  0  0  0  0
   -6.8790   25.2530  -29.8150 C   0  0  0  0  0  0  0  0  0  0  0  0
   -7.2350   24.0460  -30.3290 N   0  0  0  0  0  0  0  0  0  0  0  0
   -6.3670   23.3150  -31.0820 C   0  0  0  0  0  0  0  0  0  0  0  0
   -6.7670   22.0400  -31.6180 N   0  0  0  0  0  0  0  0  0  0  0  0
   -6.0140   21.4390  -32.7270 C   0  0  0  0  0  0  0  0  0  0  0  0
   -6.2800   19.9300  -32.8000 C   0  0  0  0  0  0  0  0  0  0  0  0
   -7.7280   19.6270  -32.9300 N   0  0  0  0  0  0  0  0  0  0  0  0
   -8.0110   18.1880  -32.7000 C   0  0  0  0  0  0  0  0  0  0  0  0
   -6.8370   17.2830  -32.9770 C   0  0  0  0  0  0  0  0  0  0  0  0
   -6.5490   16.7890  -34.2010 N   0  0  0  0  0  0  0  0  0  0  0  0
   -5.4530   15.9840  -34.1810 C   0  0  0  0  0  0  0  0  0  0  0  0
   -4.8630   15.8210  -32.9330 C   0  0  0  0  0  0  0  0  0  0  0  0
   -5.7500   16.7200  -31.8230 S   0  0  0  0  0  0  0  0  0  0  0  0
   -8.6250   20.5250  -32.1450 C   0  0  0  0  0  0  0  0  0  0  0  0
   -7.8950   21.2980  -31.0390 C   0  0  0  0  0  0  0  0  0  0  0  0
   -5.1170   23.8040  -31.3240 N   0  0  0  0  0  0  0  0  0  0  0  0
   -4.7230   25.0060  -30.8280 C   0  0  0  0  0  0  0  0  0  0  0  0
   -5.2996   26.7350  -29.6442 H   0  0  0  0  0  0  0  0  0  0  0  0
   -7.5963   25.8277  -29.2106 H   0  0  0  0  0  0  0  0  0  0  0  0
   -6.3253   21.9078  -33.6722 H   0  0  0  0  0  0  0  0  0  0  0  0
   -4.9395   21.6036  -32.5585 H   0  0  0  0  0  0  0  0  0  0  0  0
   -5.7510   19.5177  -33.6719 H   0  0  0  0  0  0  0  0  0  0  0  0
   -5.9199   19.4755  -31.8653 H   0  0  0  0  0  0  0  0  0  0  0  0
   -7.9610   19.7920  -33.9400 H   0  0  0  0  0  0  0  0  0  0  0  0
   -8.3089   18.0572  -31.6492 H   0  0  0  0  0  0  0  0  0  0  0  0
   -8.8073   17.9026  -33.4032 H   0  0  0  0  0  0  0  0  0  0  0  0
   -5.0619   15.4973  -35.0866 H   0  0  0  0  0  0  0  0  0  0  0  0
   -3.9741   15.2123  -32.7111 H   0  0  0  0  0  0  0  0  0  0  0  0
   -9.0824   21.2503  -32.8340 H   0  0  0  0  0  0  0  0  0  0  0  0
   -9.3757   19.8874  -31.6551 H   0  0  0  0  0  0  0  0  0  0  0  0
   -8.5924   22.0039  -30.5644 H   0  0  0  0  0  0  0  0  0  0  0  0
   -7.5183   20.5899  -30.2862 H   0  0  0  0  0  0  0  0  0  0  0  0
   -3.7107   25.3828  -31.0360 H   0  0  0  0  0  0  0  0  0  0  0  0
  1  2  2  0
  2  3  1  0
  3  4  2  0
  4  5  1  0
  5  6  1  0
  6  7  1  0
  7  8  1  0
  8  9  1  0
  9 10  1  0
 10 11  2  0
 11 12  1  0
 12 13  2  0
 13 14  1  0
  8 15  1  0
 15 16  1  0
  4 17  1  0
 17 18  2  0
 18  1  1  0
 16  5  1  0
 14 10  1  0
  1 19  1  0
  2 20  1  0
  6 21  1  0
  6 22  1  0
  7 23  1  0
  7 24  1  0
  8 25  1  0
  9 26  1  0
  9 27  1  0
 12 28  1  0
 13 29  1  0
 15 30  1  0
 15 31  1  0
 16 32  1  0
 16 33  1  0
 18 34  1  0
M  CHG  1   8   1
M  END
>  <UniqueID>  (24) 
24

>  <SMILES>  (24) 
c1cnc(N2CC[NH+](Cc3nccs3)CC2)nc1

>  <Energy>  (24) 
75.15433850494797

>  <Genealogy>  (24) 
c1cnc(N2CC[NH+](Cc3nccs3)CC2)nc1 (protonated)
c1cnc(N2CC[NH+](Cc3nccs3)CC2)nc1 (3D coordinates assigned)
c1cnc(N2CC[NH+](Cc3nccs3)CC2)nc1 (nonaromatic ring conformer: 75.15433850494797 kcal/mol)

>  <smiles>  (24) 
c1cnc(N2CCN(Cc3nccs3)CC2)nc1

>  <score_type>  (24) 
oracle

>  <origin>  (24) 
adgpu

>  <m_score__min__energy>  (24) 
-5.8099999999999996

>  <m_primary>  (24) 
energy

$$$$
24:0
     RDKit          3D

 28 29  0  0  0  0  0  0  0  0999 V2000
   -2.8560   21.0490  -27.8170 C   0  0  0  0  0  0  0  0  0  0  0  0
   -2.5080   22.4850  -28.0820 C   0  0  0  0  0  0  0  0  0  0  0  0
   -1.4890   23.1110  -27.3490 C   0  0  0  0  0  0  0  0  0  0  0  0
   -1.1320   24.4320  -27.6300 C   0  0  0  0  0  0  0  0  0  0  0  0
   -1.7870   25.1370  -28.6430 C   0  0  0  0  0  0  0  0  0  0  0  0
   -2.8160   24.5230  -29.3820 C   0  0  0  0  0  0  0  0  0  0  0  0
   -3.4920   25.1980  -30.4520 N   0  0  0  0  0  0  0  0  0  0  0  0
   -4.9110   25.3220  -30.6240 C   0  0  0  0  0  0  0  0  0  0  0  0
   -5.4710   26.4400  -30.4650 O   0  0  0  0  0  0  0  0  0  0  0  0
   -5.7280   24.1260  -30.9370 C   0  0  0  0  0  0  0  0  0  0  0  0
   -5.4000   23.3020  -32.0300 C   0  0  0  0  0  0  0  0  0  0  0  0
   -6.1710   22.1730  -32.3240 C   0  0  0  0  0  0  0  0  0  0  0  0
   -7.2760   21.8520  -31.5320 C   0  0  0  0  0  0  0  0  0  0  0  0
   -8.2410   20.4350  -31.9030 Cl  0  0  0  0  0  0  0  0  0  0  0  0
   -7.6120   22.6620  -30.4420 C   0  0  0  0  0  0  0  0  0  0  0  0
   -6.8440   23.7920  -30.1450 C   0  0  0  0  0  0  0  0  0  0  0  0
   -3.1510   23.1900  -29.1110 C   0  0  0  0  0  0  0  0  0  0  0  0
   -2.8979   20.8762  -26.7315 H   0  0  0  0  0  0  0  0  0  0  0  0
   -3.8354   20.8208  -28.2627 H   0  0  0  0  0  0  0  0  0  0  0  0
   -2.0897   20.3977  -28.2627 H   0  0  0  0  0  0  0  0  0  0  0  0
   -0.9697   22.5603  -26.5509 H   0  0  0  0  0  0  0  0  0  0  0  0
   -0.3327   24.9187  -27.0519 H   0  0  0  0  0  0  0  0  0  0  0  0
   -1.4977   26.1751  -28.8638 H   0  0  0  0  0  0  0  0  0  0  0  0
   -4.5307   23.5480  -32.6576 H   0  0  0  0  0  0  0  0  0  0  0  0
   -5.9067   21.5361  -33.1810 H   0  0  0  0  0  0  0  0  0  0  0  0
   -8.4817   22.4095  -29.8176 H   0  0  0  0  0  0  0  0  0  0  0  0
   -7.1133   24.4249  -29.2865 H   0  0  0  0  0  0  0  0  0  0  0  0
   -3.9261   22.6908  -29.7110 H   0  0  0  0  0  0  0  0  0  0  0  0
  1  2  1  0
  2  3  2  0
  3  4  1  0
  4  5  2  0
  5  6  1  0
  6  7  1  0
  7  8  1  0
  8  9  2  0
  8 10  1  0
 10 11  2  0
 11 12  1  0
 12 13  2  0
 13 14  1  0
 13 15  1  0
 15 16  2  0
  6 17  2  0
 17  2  1  0
 16 10  1  0
  1 18  1  0
  1 19  1  0
  1 20  1  0
  3 21  1  0
  4 22  1  0
  5 23  1  0
 11 24  1  0
 12 25  1  0
 15 26  1  0
 16 27  1  0
 17 28  1  0
M  CHG  1   7  -1
M  END
>  <UniqueID>  (25) 
25

>  <SMILES>  (25) 
Cc1cccc([N-]C(=O)c2ccc(Cl)cc2)c1

>  <Energy>  (25) 
32.15309113002114

>  <Genealogy>  (25) 
Cc1cccc([N-]C(=O)c2ccc(Cl)cc2)c1 (protonated)
Cc1cccc([N-]C(=O)c2ccc(Cl)cc2)c1 (3D coordinates assigned)
Cc1cccc([N-]C(=O)c2ccc(Cl)cc2)c1 (optimized conformer: 32.15309113002114 kcal/mol)

>  <smiles>  (25) 
Cc1cccc(NC(=O)c2ccc(Cl)cc2)c1

>  <score_type>  (25) 
oracle

>  <origin>  (25) 
adgpu

>  <m_score__min__energy>  (25) 
-8.7599999999999998

>  <m_primary>  (25) 
energy

$$$$
25:0
     RDKit          3D

 35 37  0  0  0  0  0  0  0  0999 V2000
   -4.4830   24.5880  -31.1580 O   0  0  0  0  0  0  0  0  0  0  0  0
   -5.2220   23.8490  -30.4530 C   0  0  0  0  0  0  0  0  0  0  0  0
   -5.0030   23.7560  -29.0340 N   0  0  0  0  0  0  0  0  0  0  0  0
   -3.8020   24.1970  -28.3780 C   0  0  0  0  0  0  0  0  0  0  0  0
   -3.8480   24.5440  -27.0180 C   0  0  0  0  0  0  0  0  0  0  0  0
   -2.6900   24.9530  -26.3510 C   0  0  0  0  0  0  0  0  0  0  0  0
   -1.4710   25.0070  -27.0330 C   0  0  0  0  0  0  0  0  0  0  0  0
   -1.4100   24.6420  -28.3810 C   0  0  0  0  0  0  0  0  0  0  0  0
   -2.5660   24.2320  -29.0510 C   0  0  0  0  0  0  0  0  0  0  0  0
   -6.3390   23.1120  -31.0830 C   0  0  0  0  0  0  0  0  0  0  0  0
   -7.6090   23.6950  -31.2180 C   0  0  0  0  0  0  0  0  0  0  0  0
   -8.6370   22.9660  -31.8150 C   0  0  0  0  0  0  0  0  0  0  0  0
   -8.3980   21.6710  -32.2780 C   0  0  0  0  0  0  0  0  0  0  0  0
   -7.1160   21.1130  -32.1430 C   0  0  0  0  0  0  0  0  0  0  0  0
   -6.8050   19.7380  -32.6150 C   0  0  0  0  0  0  0  0  0  0  0  0
   -7.1840   18.6020  -31.8720 C   0  0  0  0  0  0  0  0  0  0  0  0
   -6.8880   17.3180  -32.3400 C   0  0  0  0  0  0  0  0  0  0  0  0
   -6.2190   17.1500  -33.5540 C   0  0  0  0  0  0  0  0  0  0  0  0
   -5.8490   18.2670  -34.3070 C   0  0  0  0  0  0  0  0  0  0  0  0
   -5.2030   18.1030  -35.4880 F   0  0  0  0  0  0  0  0  0  0  0  0
   -6.1420   19.5540  -33.8430 C   0  0  0  0  0  0  0  0  0  0  0  0
   -6.1350   21.8490  -31.5480 N   0  0  0  0  0  0  0  0  0  0  0  0
   -5.7940   23.4330  -28.4320 H   0  0  0  0  0  0  0  0  0  0  0  0
   -4.8026   24.4935  -26.4737 H   0  0  0  0  0  0  0  0  0  0  0  0
   -2.7378   25.2327  -25.2882 H   0  0  0  0  0  0  0  0  0  0  0  0
   -0.5612   25.3362  -26.5097 H   0  0  0  0  0  0  0  0  0  0  0  0
   -0.4495   24.6776  -28.9159 H   0  0  0  0  0  0  0  0  0  0  0  0
   -2.5098   23.9354  -30.1088 H   0  0  0  0  0  0  0  0  0  0  0  0
   -7.7915   24.7176  -30.8561 H   0  0  0  0  0  0  0  0  0  0  0  0
   -9.6370   23.4118  -31.9211 H   0  0  0  0  0  0  0  0  0  0  0  0
   -9.2079   21.0916  -32.7453 H   0  0  0  0  0  0  0  0  0  0  0  0
   -7.7163   18.7262  -30.9174 H   0  0  0  0  0  0  0  0  0  0  0  0
   -7.1831   16.4377  -31.7500 H   0  0  0  0  0  0  0  0  0  0  0  0
   -5.9834   16.1388  -33.9173 H   0  0  0  0  0  0  0  0  0  0  0  0
   -5.8519   20.4293  -34.4428 H   0  0  0  0  0  0  0  0  0  0  0  0
  1  2  2  0
  2  3  1  0
  3  4  1  0
  4  5  2  0
  5  6  1  0
  6  7  2  0
  7  8  1  0
  8  9  2  0
  2 10  1  0
 10 11  2  0
 11 12  1  0
 12 13  2  0
 13 14  1  0
 14 15  1  0
 15 16  2  0
 16 17  1  0
 17 18  2  0
 18 19  1  0
 19 20  1  0
 19 21  2  0
 14 22  2  0
  9  4  1  0
 22 10  1  0
 21 15  1  0
  3 23  1  0
  5 24  1  0
  6 25  1  0
  7 26  1  0
  8 27  1  0
  9 28  1  0
 11 29  1  0
 12 30  1  0
 13 31  1  0
 16 32  1  0
 17 33  1  0
 18 34  1  0
 21 35  1  0
M  END
>  <UniqueID>  (26) 
26

>  <SMILES>  (26) 
O=C(Nc1ccccc1)c1cccc(-c2cccc(F)c2)n1

>  <Energy>  (26) 
46.07284803329286

>  <Genealogy>  (26) 
O=C(Nc1ccccc1)c1cccc(-c2cccc(F)c2)n1 (3D coordinates assigned)
O=C(Nc1ccccc1)c1cccc(-c2cccc(F)c2)n1 (optimized conformer: 46.07284803329286 kcal/mol)

>  <smiles>  (26) 
O=C(Nc1ccccc1)c1cccc(-c2cccc(F)c2)n1

>  <score_type>  (26) 
oracle

>  <origin>  (26) 
adgpu

>  <m_score__min__energy>  (26) 
-8.8900000000000006

>  <m_primary>  (26) 
energy

$$$$
26:0
     RDKit          3D

 22 22  0  0  0  0  0  0  0  0999 V2000
   -6.6660   17.8000  -32.0400 C   0  0  0  0  0  0  0  0  0  0  0  0
   -6.6210   19.0080  -32.8630 N   0  0  0  0  0  0  0  0  0  0  0  0
   -6.0840   18.9480  -34.2220 C   0  0  0  0  0  0  0  0  0  0  0  0
   -7.2230   20.2230  -32.3930 C   0  0  0  0  0  0  0  0  0  0  0  0
   -6.4040   21.2630  -31.9260 C   0  0  0  0  0  0  0  0  0  0  0  0
   -6.9670   22.4640  -31.4880 C   0  0  0  0  0  0  0  0  0  0  0  0
   -8.3530   22.6360  -31.5120 C   0  0  0  0  0  0  0  0  0  0  0  0
   -9.1790   21.6060  -31.9690 C   0  0  0  0  0  0  0  0  0  0  0  0
   -8.6250   20.3930  -32.4090 C   0  0  0  0  0  0  0  0  0  0  0  0
   -9.4940   19.3400  -32.8430 N   0  0  0  0  0  0  0  0  0  0  0  0
   -6.6556   18.0804  -30.9764 H   0  0  0  0  0  0  0  0  0  0  0  0
   -7.5857   17.2389  -32.2623 H   0  0  0  0  0  0  0  0  0  0  0  0
   -5.7906   17.1721  -32.2623 H   0  0  0  0  0  0  0  0  0  0  0  0
   -4.9916   18.8259  -34.1795 H   0  0  0  0  0  0  0  0  0  0  0  0
   -6.5280   18.0939  -34.7543 H   0  0  0  0  0  0  0  0  0  0  0  0
   -6.3285   19.8791  -34.7543 H   0  0  0  0  0  0  0  0  0  0  0  0
   -5.3121   21.1314  -31.9048 H   0  0  0  0  0  0  0  0  0  0  0  0
   -6.3186   23.2746  -31.1240 H   0  0  0  0  0  0  0  0  0  0  0  0
   -8.7948   23.5838  -31.1706 H   0  0  0  0  0  0  0  0  0  0  0  0
  -10.2699   21.7461  -31.9842 H   0  0  0  0  0  0  0  0  0  0  0  0
   -9.7870   19.2710  -33.8430 H   0  0  0  0  0  0  0  0  0  0  0  0
   -9.8850   18.6420  -32.1730 H   0  0  0  0  0  0  0  0  0  0  0  0
  1  2  1  0
  2  3  1  0
  2  4  1  0
  4  5  2  0
  5  6  1  0
  6  7  2  0
  7  8  1  0
  8  9  2  0
  9 10  1  0
  9  4  1  0
  1 11  1  0
  1 12  1  0
  1 13  1  0
  3 14  1  0
  3 15  1  0
  3 16  1  0
  5 17  1  0
  6 18  1  0
  7 19  1  0
  8 20  1  0
 10 21  1  0
 10 22  1  0
M  END
>  <UniqueID>  (27) 
27

>  <SMILES>  (27) 
CN(C)c1ccccc1N

>  <Energy>  (27) 
23.602418888717903

>  <Genealogy>  (27) 
CN(C)c1ccccc1N (3D coordinates assigned)
CN(C)c1ccccc1N (optimized conformer: 23.602418888717903 kcal/mol)

>  <smiles>  (27) 
CN(C)c1ccccc1N

>  <score_type>  (27) 
oracle

>  <origin>  (27) 
adgpu

>  <m_score__min__energy>  (27) 
-4.5599999999999996

>  <m_primary>  (27) 
energy

$$$$
27:0
     RDKit          3D

 24 25  0  0  0  0  0  0  0  0999 V2000
   -1.6260   25.4490  -29.3370 O   0  0  0  0  0  0  0  0  0  0  0  0
   -2.4530   24.5430  -29.6220 C   0  0  0  0  0  0  0  0  0  0  0  0
   -3.5580   24.8680  -30.4760 N   0  0  0  0  0  0  0  0  0  0  0  0
   -4.6170   23.9790  -30.8670 C   0  0  0  0  0  0  0  0  0  0  0  0
   -4.3660   22.8560  -31.6770 C   0  0  0  0  0  0  0  0  0  0  0  0
   -5.4150   22.0140  -32.0590 C   0  0  0  0  0  0  0  0  0  0  0  0
   -6.7210   22.2930  -31.6520 C   0  0  0  0  0  0  0  0  0  0  0  0
   -6.9820   23.4190  -30.8680 C   0  0  0  0  0  0  0  0  0  0  0  0
   -5.9380   24.2670  -30.4810 C   0  0  0  0  0  0  0  0  0  0  0  0
   -6.2990   25.6760  -29.4940 Cl  0  0  0  0  0  0  0  0  0  0  0  0
   -2.3130   23.2040  -29.0010 C   0  0  0  0  0  0  0  0  0  0  0  0
   -1.3970   22.2830  -29.5370 C   0  0  0  0  0  0  0  0  0  0  0  0
   -1.2600   21.0160  -28.9720 C   0  0  0  0  0  0  0  0  0  0  0  0
   -2.0440   20.6700  -27.8730 C   0  0  0  0  0  0  0  0  0  0  0  0
   -2.9270   21.5650  -27.3600 N   0  0  0  0  0  0  0  0  0  0  0  0
   -3.0870   22.8090  -27.8870 C   0  0  0  0  0  0  0  0  0  0  0  0
   -4.2230   23.8990  -27.1040 Cl  0  0  0  0  0  0  0  0  0  0  0  0
   -3.3405   22.6397  -32.0110 H   0  0  0  0  0  0  0  0  0  0  0  0
   -5.2108   21.1302  -32.6813 H   0  0  0  0  0  0  0  0  0  0  0  0
   -7.5441   21.6263  -31.9487 H   0  0  0  0  0  0  0  0  0  0  0  0
   -8.0125   23.6403  -30.5533 H   0  0  0  0  0  0  0  0  0  0  0  0
   -0.7849   22.5633  -30.4069 H   0  0  0  0  0  0  0  0  0  0  0  0
   -0.5402   20.2965  -29.3895 H   0  0  0  0  0  0  0  0  0  0  0  0
   -1.9475   19.6718  -27.4211 H   0  0  0  0  0  0  0  0  0  0  0  0
  1  2  2  0
  2  3  1  0
  3  4  1  0
  4  5  2  0
  5  6  1  0
  6  7  2  0
  7  8  1  0
  8  9  2  0
  9 10  1  0
  2 11  1  0
 11 12  2  0
 12 13  1  0
 13 14  2  0
 14 15  1  0
 15 16  2  0
 16 17  1  0
  9  4  1  0
 16 11  1  0
  5 18  1  0
  6 19  1  0
  7 20  1  0
  8 21  1  0
 12 22  1  0
 13 23  1  0
 14 24  1  0
M  CHG  1   3  -1
M  END
>  <UniqueID>  (28) 
28

>  <SMILES>  (28) 
O=C([N-]c1ccccc1Cl)c1cccnc1Cl

>  <Energy>  (28) 
35.06701663977727

>  <Genealogy>  (28) 
O=C([N-]c1ccccc1Cl)c1cccnc1Cl (protonated)
O=C([N-]c1ccccc1Cl)c1cccnc1Cl (3D coordinates assigned)
O=C([N-]c1ccccc1Cl)c1cccnc1Cl (optimized conformer: 35.06701663977727 kcal/mol)

>  <smiles>  (28) 
O=C(Nc1ccccc1Cl)c1cccnc1Cl

>  <score_type>  (28) 
oracle

>  <origin>  (28) 
adgpu

>  <m_score__min__energy>  (28) 
-7.9100000000000001

>  <m_primary>  (28) 
energy

$$$$
28:0
     RDKit          3D

 32 32  0  0  0  0  0  0  0  0999 V2000
   -7.2880   19.0940  -31.9580 C   0  0  0  0  0  0  0  0  0  0  0  0
   -7.1390   20.2610  -32.7590 O   0  0  0  0  0  0  0  0  0  0  0  0
   -6.6420   21.4890  -32.2920 C   0  0  0  0  0  0  0  0  0  0  0  0
   -5.2800   21.8320  -32.3910 C   0  0  0  0  0  0  0  0  0  0  0  0
   -4.8240   23.0630  -31.9140 C   0  0  0  0  0  0  0  0  0  0  0  0
   -5.7180   23.9730  -31.3340 C   0  0  0  0  0  0  0  0  0  0  0  0
   -5.2160   25.2900  -30.8020 C   0  0  0  0  0  0  0  0  0  0  0  0
   -3.9180   25.1160  -30.1320 N   0  0  0  0  0  0  0  0  0  0  0  0
   -3.9720   24.1560  -29.0140 C   0  0  0  0  0  0  0  0  0  0  0  0
   -2.6890   23.3090  -28.9040 C   0  0  0  0  0  0  0  0  0  0  0  0
   -1.4480   24.1680  -28.6320 C   0  0  0  0  0  0  0  0  0  0  0  0
   -1.7180   25.5770  -28.9130 N   0  0  0  0  0  0  0  0  0  0  0  0
   -7.0750   23.6330  -31.2300 C   0  0  0  0  0  0  0  0  0  0  0  0
   -7.5350   22.4000  -31.7060 C   0  0  0  0  0  0  0  0  0  0  0  0
   -9.2410   22.0060  -31.5570 Cl  0  0  0  0  0  0  0  0  0  0  0  0
   -7.2525   19.3723  -30.8944 H   0  0  0  0  0  0  0  0  0  0  0  0
   -8.2543   18.6176  -32.1803 H   0  0  0  0  0  0  0  0  0  0  0  0
   -6.4724   18.3901  -32.1803 H   0  0  0  0  0  0  0  0  0  0  0  0
   -4.5704   21.1259  -32.8470 H   0  0  0  0  0  0  0  0  0  0  0  0
   -3.7573   23.3196  -31.9940 H   0  0  0  0  0  0  0  0  0  0  0  0
   -5.1002   25.9968  -31.6369 H   0  0  0  0  0  0  0  0  0  0  0  0
   -5.9425   25.6785  -30.0731 H   0  0  0  0  0  0  0  0  0  0  0  0
   -3.5900   26.0460  -29.7820 H   0  0  0  0  0  0  0  0  0  0  0  0
   -4.1085   24.7138  -28.0758 H   0  0  0  0  0  0  0  0  0  0  0  0
   -4.8114   23.4702  -29.2012 H   0  0  0  0  0  0  0  0  0  0  0  0
   -2.8091   22.5897  -28.0805 H   0  0  0  0  0  0  0  0  0  0  0  0
   -2.5400   22.7962  -29.8657 H   0  0  0  0  0  0  0  0  0  0  0  0
   -1.1595   24.0601  -27.5760 H   0  0  0  0  0  0  0  0  0  0  0  0
   -0.6339   23.8280  -29.2890 H   0  0  0  0  0  0  0  0  0  0  0  0
   -2.5700   25.8510  -28.3730 H   0  0  0  0  0  0  0  0  0  0  0  0
   -1.9740   25.6690  -29.9220 H   0  0  0  0  0  0  0  0  0  0  0  0
   -7.7820   24.3400  -30.7714 H   0  0  0  0  0  0  0  0  0  0  0  0
  1  2  1  0
  2  3  1  0
  3  4  2  0
  4  5  1  0
  5  6  2  0
  6  7  1  0
  7  8  1  0
  8  9  1  0
  9 10  1  0
 10 11  1  0
 11 12  1  0
  6 13  1  0
 13 14  2  0
 14 15  1  0
 14  3  1  0
  1 16  1  0
  1 17  1  0
  1 18  1  0
  4 19  1  0
  5 20  1  0
  7 21  1  0
  7 22  1  0
  8 23  1  0
  9 24  1  0
  9 25  1  0
 10 26  1  0
 10 27  1  0
 11 28  1  0
 11 29  1  0
 12 30  1  0
 12 31  1  0
 13 32  1  0
M  END
>  <UniqueID>  (29) 
29

>  <SMILES>  (29) 
COc1ccc(CNCCCN)cc1Cl

>  <Energy>  (29) 
25.382672709954768

>  <Genealogy>  (29) 
COc1ccc(CNCCCN)cc1Cl (3D coordinates assigned)
COc1ccc(CNCCCN)cc1Cl (optimized conformer: 25.382672709954768 kcal/mol)

>  <smiles>  (29) 
COc1ccc(CNCCCN)cc1Cl

>  <score_type>  (29) 
oracle

>  <origin>  (29) 
adgpu

>  <m_score__min__energy>  (29) 
-6.2699999999999996

>  <m_primary>  (29) 
energy

$$$$
29:0
     RDKit          3D

 28 30  0  0  1  0  0  0  0  0999 V2000
   -1.0990   26.5380  -28.7400 N   0  0  0  0  0  0  0  0  0  0  0  0
   -1.2720   25.1840  -28.2810 C   0  0  0  0  0  0  0  0  0  0  0  0
   -0.4090   24.6630  -27.3370 C   0  0  0  0  0  0  0  0  0  0  0  0
   -0.6110   23.3890  -26.9380 N   0  0  0  0  0  0  0  0  0  0  0  0
   -1.6260   22.6360  -27.4400 C   0  0  0  0  0  0  0  0  0  0  0  0
   -2.4830   23.1230  -28.3650 N   0  0  0  0  0  0  0  0  0  0  0  0
   -2.2920   24.3800  -28.7660 C   0  0  0  0  0  0  0  0  0  0  0  0
   -3.0710   24.9250  -29.6510 N   0  0  0  0  0  0  0  0  0  0  0  0
   -4.1340   24.2540  -30.2300 C   0  0  0  0  0  0  0  0  0  0  0  0
   -4.9990   24.8620  -31.2520 N   0  0  0  0  0  0  0  0  0  0  0  0
   -5.9040   24.2370  -31.7190 N   0  0  0  0  0  0  0  0  0  0  0  0
   -6.1410   22.8970  -31.2820 C   0  0  0  0  0  0  0  0  0  0  0  0
   -7.1320   22.0050  -31.6940 C   0  0  0  0  0  0  0  0  0  0  0  0
   -8.4790   22.2870  -31.4430 C   0  0  0  0  0  0  0  0  0  0  0  0
   -9.4120   21.3620  -31.8780 C   0  0  0  0  0  0  0  0  0  0  0  0
   -9.0830   20.2290  -32.5190 N   0  0  0  0  0  0  0  0  0  0  0  0
   -7.8000   19.9740  -32.7530 C   0  0  0  0  0  0  0  0  0  0  0  0
   -6.8040   20.8390  -32.3540 C   0  0  0  0  0  0  0  0  0  0  0  0
   -4.8190   22.6890  -30.0650 S   0  0  0  0  0  0  0  0  0  0  0  0
   -1.2380   26.8100  -29.7370 H   0  0  0  0  0  0  0  0  0  0  0  0
   -0.8220   27.2380  -27.9940 H   0  0  0  0  0  0  0  0  0  0  0  0
    0.4142   25.2649  -26.9246 H   0  0  0  0  0  0  0  0  0  0  0  0
    0.0350   22.9640  -26.2160 H   0  0  0  0  0  0  0  0  0  0  0  0
   -1.7530   21.6030  -27.0838 H   0  0  0  0  0  0  0  0  0  0  0  0
   -8.7841   23.2061  -30.9213 H   0  0  0  0  0  0  0  0  0  0  0  0
  -10.4764   21.5652  -31.6891 H   0  0  0  0  0  0  0  0  0  0  0  0
   -7.5256   19.0478  -33.2792 H   0  0  0  0  0  0  0  0  0  0  0  0
   -5.7504   20.6002  -32.5613 H   0  0  0  0  0  0  0  0  0  0  0  0
  1  2  1  0
  2  3  2  0
  3  4  1  0
  4  5  1  0
  5  6  2  0
  6  7  1  0
  7  8  2  0
  8  9  1  0
  9 10  2  0
 10 11  1  0
 11 12  2  0
 12 13  1  0
 13 14  2  0
 14 15  1  0
 15 16  2  0
 16 17  1  0
 17 18  2  0
 12 19  1  0
  7  2  1  0
 19  9  1  0
 18 13  1  0
  1 20  1  0
  1 21  1  0
  3 22  1  0
  4 23  1  0
  5 24  1  0
 14 25  1  0
 15 26  1  0
 17 27  1  0
 18 28  1  0
M  END
>  <smiles>  (30) 
Nc1c[nH]cnc1=Nc1nnc(-c2ccncc2)s1

>  <score_type>  (30) 
oracle

>  <origin>  (30) 
adgpu

>  <m_score__min__energy>  (30) 
-7.4299999999999997

>  <m_primary>  (30) 
energy

$$$$
30:0
     RDKit          3D

 39 41  0  0  0  0  0  0  0  0999 V2000
   -3.2040   16.2540  -35.3570 C   0  0  0  0  0  0  0  0  0  0  0  0
   -4.3710   15.9340  -34.5260 N   0  0  0  0  0  0  0  0  0  0  0  0
   -4.6860   14.5320  -34.2260 C   0  0  0  0  0  0  0  0  0  0  0  0
   -5.2240   16.9760  -33.9930 C   0  0  0  0  0  0  0  0  0  0  0  0
   -5.9570   16.8000  -32.8050 C   0  0  0  0  0  0  0  0  0  0  0  0
   -6.7650   17.8340  -32.3310 C   0  0  0  0  0  0  0  0  0  0  0  0
   -6.8490   19.0460  -33.0310 C   0  0  0  0  0  0  0  0  0  0  0  0
   -7.7040   20.1560  -32.5390 C   0  0  0  0  0  0  0  0  0  0  0  0
   -9.1160   20.0830  -32.6010 C   0  0  0  0  0  0  0  0  0  0  0  0
   -9.9170   21.1470  -32.1270 C   0  0  0  0  0  0  0  0  0  0  0  0
   -9.3230   22.3010  -31.5870 C   0  0  0  0  0  0  0  0  0  0  0  0
   -7.9340   22.3520  -31.5400 C   0  0  0  0  0  0  0  0  0  0  0  0
   -7.1630   23.3530  -31.0830 N   0  0  0  0  0  0  0  0  0  0  0  0
   -5.9130   22.8620  -31.2990 C   0  0  0  0  0  0  0  0  0  0  0  0
   -4.7160   23.5810  -30.9660 N   0  0  0  0  0  0  0  0  0  0  0  0
   -3.4190   22.9220  -31.1270 C   0  0  0  0  0  0  0  0  0  0  0  0
   -4.8090   24.9570  -30.4710 C   0  0  0  0  0  0  0  0  0  0  0  0
   -5.9040   21.6580  -31.8450 O   0  0  0  0  0  0  0  0  0  0  0  0
   -7.1580   21.3260  -31.9960 C   0  0  0  0  0  0  0  0  0  0  0  0
   -6.1070   19.1830  -34.2140 C   0  0  0  0  0  0  0  0  0  0  0  0
   -5.3250   18.1630  -34.6550 N   0  0  0  0  0  0  0  0  0  0  0  0
   -2.3463   16.4892  -34.7097 H   0  0  0  0  0  0  0  0  0  0  0  0
   -2.9581   15.3901  -35.9920 H   0  0  0  0  0  0  0  0  0  0  0  0
   -3.4331   17.1225  -35.9920 H   0  0  0  0  0  0  0  0  0  0  0  0
   -4.7182   14.3886  -33.1359 H   0  0  0  0  0  0  0  0  0  0  0  0
   -5.6642   14.2753  -34.6587 H   0  0  0  0  0  0  0  0  0  0  0  0
   -3.9116   13.8815  -34.6587 H   0  0  0  0  0  0  0  0  0  0  0  0
   -5.8933   15.8511  -32.2522 H   0  0  0  0  0  0  0  0  0  0  0  0
   -7.3394   17.6976  -31.4029 H   0  0  0  0  0  0  0  0  0  0  0  0
   -9.5959   19.1877  -33.0230 H   0  0  0  0  0  0  0  0  0  0  0  0
  -11.0131   21.0714  -32.1811 H   0  0  0  0  0  0  0  0  0  0  0  0
   -9.9358   23.1351  -31.2144 H   0  0  0  0  0  0  0  0  0  0  0  0
   -2.9924   22.7052  -30.1365 H   0  0  0  0  0  0  0  0  0  0  0  0
   -3.5518   21.9820  -31.6827 H   0  0  0  0  0  0  0  0  0  0  0  0
   -2.7381   23.5835  -31.6827 H   0  0  0  0  0  0  0  0  0  0  0  0
   -4.8086   24.9518  -29.3710 H   0  0  0  0  0  0  0  0  0  0  0  0
   -3.9480   25.5367  -30.8352 H   0  0  0  0  0  0  0  0  0  0  0  0
   -5.7402   25.4155  -30.8352 H   0  0  0  0  0  0  0  0  0  0  0  0
   -6.1586   20.1205  -34.7871 H   0  0  0  0  0  0  0  0  0  0  0  0
  1  2  1  0
  2  3  1  0
  2  4  1  0
  4  5  2  0
  5  6  1  0
  6  7  2  0
  7  8  1  0
  8  9  2  0
  9 10  1  0
 10 11  2  0
 11 12  1  0
 12 13  1  0
 13 14  2  0
 14 15  1  0
 15 16  1  0
 15 17  1  0
 14 18  1  0
 18 19  1  0
  7 20  1  0
 20 21  2  0
 21  4  1  0
 19  8  1  0
 19 12  2  0
  1 22  1  0
  1 23  1  0
  1 24  1  0
  3 25  1  0
  3 26  1  0
  3 27  1  0
  5 28  1  0
  6 29  1  0
  9 30  1  0
 10 31  1  0
 11 32  1  0
 16 33  1  0
 16 34  1  0
 16 35  1  0
 17 36  1  0
 17 37  1  0
 17 38  1  0
 20 39  1  0
M  END
>  <UniqueID>  (31) 
30

>  <SMILES>  (31) 
CN(C)c1ccc(-c2cccc3nc(N(C)C)oc23)cn1

>  <Energy>  (31) 
78.98453505224033

>  <Genealogy>  (31) 
CN(C)c1ccc(-c2cccc3nc(N(C)C)oc23)cn1 (3D coordinates assigned)
CN(C)c1ccc(-c2cccc3nc(N(C)C)oc23)cn1 (optimized conformer: 78.98453505224033 kcal/mol)

>  <smiles>  (31) 
CN(C)c1ccc(-c2cccc3nc(N(C)C)oc23)cn1

>  <score_type>  (31) 
oracle

>  <origin>  (31) 
adgpu

>  <m_score__min__energy>  (31) 
-6.6600000000000001

>  <m_primary>  (31) 
energy

$$$$
31:0
     RDKit          3D

 40 42  0  0  1  0  0  0  0  0999 V2000
   -1.8580   23.7460  -26.7990 C   0  0  0  0  0  0  0  0  0  0  0  0
   -2.6480   23.8490  -28.0310 C   0  0  0  0  0  0  0  0  0  0  0  0
   -2.4460   24.8740  -28.9300 C   0  0  0  0  0  0  0  0  0  0  0  0
   -3.1970   24.9100  -30.0380 N   0  0  0  0  0  0  0  0  0  0  0  0
   -4.1450   24.0000  -30.3310 C   0  0  0  0  0  0  0  0  0  0  0  0
   -4.8690   24.0220  -31.3840 N   0  0  0  0  0  0  0  0  0  0  0  0
   -5.8590   23.0310  -31.6440 C   0  0  0  0  0  0  0  0  0  0  0  0
   -5.5700   21.8780  -32.3440 C   0  0  0  0  0  0  0  0  0  0  0  0
   -6.5590   20.9380  -32.5750 C   0  0  0  0  0  0  0  0  0  0  0  0
   -7.8350   21.1820  -32.0890 C   0  0  0  0  0  0  0  0  0  0  0  0
   -8.8320   20.2670  -32.3050 F   0  0  0  0  0  0  0  0  0  0  0  0
   -8.1370   22.3400  -31.3820 C   0  0  0  0  0  0  0  0  0  0  0  0
   -7.1230   23.2690  -31.1630 C   0  0  0  0  0  0  0  0  0  0  0  0
   -4.3660   22.9750  -29.4580 N   0  0  0  0  0  0  0  0  0  0  0  0
   -3.6180   22.9010  -28.3110 C   0  0  0  0  0  0  0  0  0  0  0  0
   -3.8950   21.7930  -27.4760 N   0  0  0  0  0  0  0  0  0  0  0  0
   -3.1080   20.7850  -27.4780 C   0  0  0  0  0  0  0  0  0  0  0  0
   -3.3490   19.6980  -26.6820 N   0  0  0  0  0  0  0  0  0  0  0  0
   -2.4020   18.7950  -26.8630 N   0  0  0  0  0  0  0  0  0  0  0  0
   -1.5430   19.2810  -27.7720 C   0  0  0  0  0  0  0  0  0  0  0  0
   -0.3040   18.6350  -28.3140 C   0  0  0  0  0  0  0  0  0  0  0  0
   -1.9600   20.5510  -28.1890 C   0  0  0  0  0  0  0  0  0  0  0  0
   -1.3040   21.4180  -29.1680 C   0  0  0  0  0  0  0  0  0  0  0  0
   -2.5241   23.8329  -25.9279 H   0  0  0  0  0  0  0  0  0  0  0  0
   -1.3449   22.7734  -26.7727 H   0  0  0  0  0  0  0  0  0  0  0  0
   -1.1127   24.5546  -26.7727 H   0  0  0  0  0  0  0  0  0  0  0  0
   -1.6848   25.6453  -28.7415 H   0  0  0  0  0  0  0  0  0  0  0  0
   -3.0620   25.6760  -30.7310 H   0  0  0  0  0  0  0  0  0  0  0  0
   -4.5506   21.7053  -32.7196 H   0  0  0  0  0  0  0  0  0  0  0  0
   -6.3377   20.0160  -33.1327 H   0  0  0  0  0  0  0  0  0  0  0  0
   -9.1544   22.5186  -31.0039 H   0  0  0  0  0  0  0  0  0  0  0  0
   -7.3344   24.1931  -30.6050 H   0  0  0  0  0  0  0  0  0  0  0  0
   -4.1550   19.5740  -26.0190 H   0  0  0  0  0  0  0  0  0  0  0  0
   -2.2710   17.8540  -26.4230 H   0  0  0  0  0  0  0  0  0  0  0  0
    0.3317   18.3036  -27.4797 H   0  0  0  0  0  0  0  0  0  0  0  0
   -0.5824   17.7673  -28.9301 H   0  0  0  0  0  0  0  0  0  0  0  0
    0.2481   19.3600  -28.9301 H   0  0  0  0  0  0  0  0  0  0  0  0
   -0.7209   22.1887  -28.6427 H   0  0  0  0  0  0  0  0  0  0  0  0
   -0.6327   20.8167  -29.7987 H   0  0  0  0  0  0  0  0  0  0  0  0
   -2.0652   21.9005  -29.7987 H   0  0  0  0  0  0  0  0  0  0  0  0
  1  2  1  0
  2  3  2  0
  3  4  1  0
  4  5  1  0
  5  6  2  0
  6  7  1  0
  7  8  2  0
  8  9  1  0
  9 10  2  0
 10 11  1  0
 10 12  1  0
 12 13  2  0
  5 14  1  0
 14 15  2  0
 15 16  1  0
 16 17  2  0
 17 18  1  0
 18 19  1  0
 19 20  1  0
 20 21  1  0
 20 22  2  0
 22 23  1  0
 15  2  1  0
 22 17  1  0
 13  7  1  0
  1 24  1  0
  1 25  1  0
  1 26  1  0
  3 27  1  0
  4 28  1  0
  8 29  1  0
  9 30  1  0
 12 31  1  0
 13 32  1  0
 18 33  1  0
 19 34  1  0
 21 35  1  0
 21 36  1  0
 21 37  1  0
 23 38  1  0
 23 39  1  0
 23 40  1  0
M  END
>  <smiles>  (32) 
Cc1c[nH]c(=Nc2ccc(F)cc2)nc1N=c1[nH][nH]c(C)c1C

>  <score_type>  (32) 
oracle

>  <origin>  (32) 
adgpu

>  <m_score__min__energy>  (32) 
-8.2599999999999998

>  <m_primary>  (32) 
energy

$$$$
32:0
     RDKit          3D

 34 35  0  0  0  0  0  0  0  0999 V2000
   -4.0830   24.1720  -28.7020 C   0  0  0  0  0  0  0  0  0  0  0  0
   -5.3360   23.6370  -29.2190 N   0  0  0  0  0  0  0  0  0  0  0  0
   -5.5430   23.4340  -30.6250 C   0  0  0  0  0  0  0  0  0  0  0  0
   -4.6810   23.8520  -31.4470 O   0  0  0  0  0  0  0  0  0  0  0  0
   -6.7630   22.7580  -31.1340 C   0  0  0  0  0  0  0  0  0  0  0  0
   -7.9110   23.4950  -31.4790 C   0  0  0  0  0  0  0  0  0  0  0  0
   -9.0510   22.8440  -31.9580 C   0  0  0  0  0  0  0  0  0  0  0  0
   -9.0640   21.4550  -32.0890 C   0  0  0  0  0  0  0  0  0  0  0  0
   -7.9370   20.7000  -31.7340 C   0  0  0  0  0  0  0  0  0  0  0  0
   -7.9510   19.2660  -31.8740 N   0  0  0  0  0  0  0  0  0  0  0  0
   -9.1130   18.5150  -31.3870 C   0  0  0  0  0  0  0  0  0  0  0  0
   -6.9220   18.6040  -32.6440 C   0  0  0  0  0  0  0  0  0  0  0  0
   -6.4230   19.1720  -33.8300 C   0  0  0  0  0  0  0  0  0  0  0  0
   -5.4280   18.5220  -34.5640 C   0  0  0  0  0  0  0  0  0  0  0  0
   -4.9140   17.2960  -34.1290 C   0  0  0  0  0  0  0  0  0  0  0  0
   -3.6610   16.5110  -35.0790 Cl  0  0  0  0  0  0  0  0  0  0  0  0
   -5.4050   16.7160  -32.9480 C   0  0  0  0  0  0  0  0  0  0  0  0
   -4.7900   15.1750  -32.3660 Cl  0  0  0  0  0  0  0  0  0  0  0  0
   -6.4030   17.3680  -32.2140 C   0  0  0  0  0  0  0  0  0  0  0  0
   -6.7900   21.3570  -31.2570 C   0  0  0  0  0  0  0  0  0  0  0  0
   -4.1061   24.1621  -27.6023 H   0  0  0  0  0  0  0  0  0  0  0  0
   -3.2458   23.5529  -29.0567 H   0  0  0  0  0  0  0  0  0  0  0  0
   -3.9512   25.2049  -29.0567 H   0  0  0  0  0  0  0  0  0  0  0  0
   -6.1060   23.4470  -28.5390 H   0  0  0  0  0  0  0  0  0  0  0  0
   -7.9111   24.5897  -31.3710 H   0  0  0  0  0  0  0  0  0  0  0  0
   -9.9413   23.4287  -32.2327 H   0  0  0  0  0  0  0  0  0  0  0  0
   -9.9627   20.9498  -32.4726 H   0  0  0  0  0  0  0  0  0  0  0  0
   -9.1143   18.5142  -30.2870 H   0  0  0  0  0  0  0  0  0  0  0  0
  -10.0356   18.9881  -31.7544 H   0  0  0  0  0  0  0  0  0  0  0  0
   -9.0606   17.4795  -31.7544 H   0  0  0  0  0  0  0  0  0  0  0  0
   -6.8194   20.1357  -34.1823 H   0  0  0  0  0  0  0  0  0  0  0  0
   -5.0463   18.9771  -35.4898 H   0  0  0  0  0  0  0  0  0  0  0  0
   -6.7861   16.9092  -31.2906 H   0  0  0  0  0  0  0  0  0  0  0  0
   -5.9035   20.7692  -30.9767 H   0  0  0  0  0  0  0  0  0  0  0  0
  1  2  1  0
  2  3  1  0
  3  4  2  0
  3  5  1  0
  5  6  2  0
  6  7  1  0
  7  8  2  0
  8  9  1  0
  9 10  1  0
 10 11  1  0
 10 12  1  0
 12 13  2  0
 13 14  1  0
 14 15  2  0
 15 16  1  0
 15 17  1  0
 17 18  1  0
 17 19  2  0
  9 20  2  0
 20  5  1  0
 19 12  1  0
  1 21  1  0
  1 22  1  0
  1 23  1  0
  2 24  1  0
  6 25  1  0
  7 26  1  0
  8 27  1  0
 11 28  1  0
 11 29  1  0
 11 30  1  0
 13 31  1  0
 14 32  1  0
 19 33  1  0
 20 34  1  0
M  END
>  <UniqueID>  (33) 
31

>  <SMILES>  (33) 
CNC(=O)c1cccc(N(C)c2ccc(Cl)c(Cl)c2)c1

>  <Energy>  (33) 
43.21887138930752

>  <Genealogy>  (33) 
CNC(=O)c1cccc(N(C)c2ccc(Cl)c(Cl)c2)c1 (3D coordinates assigned)
CNC(=O)c1cccc(N(C)c2ccc(Cl)c(Cl)c2)c1 (optimized conformer: 43.21887138930752 kcal/mol)

>  <smiles>  (33) 
CNC(=O)c1cccc(N(C)c2ccc(Cl)c(Cl)c2)c1

>  <score_type>  (33) 
oracle

>  <origin>  (33) 
adgpu

>  <m_score__min__energy>  (33) 
-8.1500000000000004

>  <m_primary>  (33) 
energy

$$$$
33:0
     RDKit          3D

 32 33  0  0  0  0  0  0  0  0999 V2000
   -8.3110   18.2700  -31.7130 C   0  0  0  0  0  0  0  0  0  0  0  0
   -9.4020   19.1290  -32.3430 C   0  0  0  0  0  0  0  0  0  0  0  0
   -8.8360   20.2730  -32.9810 O   0  0  0  0  0  0  0  0  0  0  0  0
   -7.4570   20.5030  -33.0750 C   0  0  0  0  0  0  0  0  0  0  0  0
   -6.8050   20.0480  -34.0540 O   0  0  0  0  0  0  0  0  0  0  0  0
   -6.7680   21.2760  -32.0190 C   0  0  0  0  0  0  0  0  0  0  0  0
   -7.4920   22.1210  -31.1590 C   0  0  0  0  0  0  0  0  0  0  0  0
   -6.8360   22.8510  -30.1630 C   0  0  0  0  0  0  0  0  0  0  0  0
   -5.4450   22.7380  -29.9980 C   0  0  0  0  0  0  0  0  0  0  0  0
   -4.7440   23.4960  -28.9960 N   0  0  0  0  0  0  0  0  0  0  0  0
   -3.6740   24.4100  -29.2880 C   0  0  0  0  0  0  0  0  0  0  0  0
   -3.4850   24.8120  -30.4690 O   0  0  0  0  0  0  0  0  0  0  0  0
   -2.8110   24.9230  -28.2090 C   0  0  0  0  0  0  0  0  0  0  0  0
   -3.1100   24.9040  -26.8510 C   0  0  0  0  0  0  0  0  0  0  0  0
   -2.1070   25.4710  -26.0540 C   0  0  0  0  0  0  0  0  0  0  0  0
   -1.0180   25.9400  -26.7770 C   0  0  0  0  0  0  0  0  0  0  0  0
   -1.3050   25.6480  -28.4070 S   0  0  0  0  0  0  0  0  0  0  0  0
   -4.7210   21.9140  -30.8700 C   0  0  0  0  0  0  0  0  0  0  0  0
   -5.3750   21.1840  -31.8670 C   0  0  0  0  0  0  0  0  0  0  0  0
   -8.3853   18.3285  -30.6171 H   0  0  0  0  0  0  0  0  0  0  0  0
   -8.4359   17.2252  -32.0337 H   0  0  0  0  0  0  0  0  0  0  0  0
   -7.3247   18.6366  -32.0337 H   0  0  0  0  0  0  0  0  0  0  0  0
   -9.9465   18.5316  -33.0891 H   0  0  0  0  0  0  0  0  0  0  0  0
  -10.0874   19.4674  -31.5520 H   0  0  0  0  0  0  0  0  0  0  0  0
   -8.5828   22.2083  -31.2707 H   0  0  0  0  0  0  0  0  0  0  0  0
   -7.4122   23.5177  -29.5047 H   0  0  0  0  0  0  0  0  0  0  0  0
   -5.0960   23.4460  -28.0140 H   0  0  0  0  0  0  0  0  0  0  0  0
   -4.0418   24.4852  -26.4430 H   0  0  0  0  0  0  0  0  0  0  0  0
   -2.1756   25.5384  -24.9582 H   0  0  0  0  0  0  0  0  0  0  0  0
   -0.1223   26.4197  -26.3556 H   0  0  0  0  0  0  0  0  0  0  0  0
   -3.6281   21.8408  -30.7692 H   0  0  0  0  0  0  0  0  0  0  0  0
   -4.7943   20.5330  -32.5371 H   0  0  0  0  0  0  0  0  0  0  0  0
  1  2  1  0
  2  3  1  0
  3  4  1  0
  4  5  2  0
  4  6  1  0
  6  7  2  0
  7  8  1  0
  8  9  2  0
  9 10  1  0
 10 11  1  0
 11 12  2  0
 11 13  1  0
 13 14  2  0
 14 15  1  0
 15 16  2  0
 16 17  1  0
  9 18  1  0
 18 19  2  0
 19  6  1  0
 17 13  1  0
  1 20  1  0
  1 21  1  0
  1 22  1  0
  2 23  1  0
  2 24  1  0
  7 25  1  0
  8 26  1  0
 10 27  1  0
 14 28  1  0
 15 29  1  0
 16 30  1  0
 18 31  1  0
 19 32  1  0
M  END
>  <UniqueID>  (34) 
32

>  <SMILES>  (34) 
CCOC(=O)c1ccc(NC(=O)c2cccs2)cc1

>  <Energy>  (34) 
57.810434486822984

>  <Genealogy>  (34) 
CCOC(=O)c1ccc(NC(=O)c2cccs2)cc1 (3D coordinates assigned)
CCOC(=O)c1ccc(NC(=O)c2cccs2)cc1 (optimized conformer: 57.810434486822984 kcal/mol)

>  <smiles>  (34) 
CCOC(=O)c1ccc(NC(=O)c2cccs2)cc1

>  <score_type>  (34) 
oracle

>  <origin>  (34) 
adgpu

>  <m_score__min__energy>  (34) 
-6.5599999999999996

>  <m_primary>  (34) 
energy

$$$$
34:0
     RDKit          3D

 41 44  0  0  0  0  0  0  0  0999 V2000
   -0.0350   24.4850  -28.7000 O   0  0  0  0  0  0  0  0  0  0  0  0
   -0.9980   25.1040  -28.1730 C   0  0  0  0  0  0  0  0  0  0  0  0
   -2.1160   25.4610  -28.9980 N   0  0  0  0  0  0  0  0  0  0  0  0
   -3.0400   24.5510  -29.6120 C   0  0  0  0  0  0  0  0  0  0  0  0
   -2.6270   23.3070  -30.1150 C   0  0  0  0  0  0  0  0  0  0  0  0
   -3.5500   22.4490  -30.7190 C   0  0  0  0  0  0  0  0  0  0  0  0
   -4.8980   22.8250  -30.8460 C   0  0  0  0  0  0  0  0  0  0  0  0
   -5.8680   21.9070  -31.4860 C   0  0  0  0  0  0  0  0  0  0  0  0
   -5.5200   20.7320  -32.0550 N   0  0  0  0  0  0  0  0  0  0  0  0
   -6.5840   20.0580  -32.5760 C   0  0  0  0  0  0  0  0  0  0  0  0
   -6.4100   18.7460  -33.2530 C   0  0  0  0  0  0  0  0  0  0  0  0
   -5.5060   18.6270  -34.3270 C   0  0  0  0  0  0  0  0  0  0  0  0
   -5.3270   17.4010  -34.9750 C   0  0  0  0  0  0  0  0  0  0  0  0
   -6.0440   16.2780  -34.5580 C   0  0  0  0  0  0  0  0  0  0  0  0
   -6.9390   16.3770  -33.4920 C   0  0  0  0  0  0  0  0  0  0  0  0
   -7.1230   17.6010  -32.8400 C   0  0  0  0  0  0  0  0  0  0  0  0
   -7.8100   20.7130  -32.4250 C   0  0  0  0  0  0  0  0  0  0  0  0
   -7.5280   22.1580  -31.6150 S   0  0  0  0  0  0  0  0  0  0  0  0
   -5.3010   24.0840  -30.3640 C   0  0  0  0  0  0  0  0  0  0  0  0
   -4.3750   24.9400  -29.7600 C   0  0  0  0  0  0  0  0  0  0  0  0
   -0.9200   25.4860  -26.7430 C   0  0  0  0  0  0  0  0  0  0  0  0
   -1.1690   26.8150  -26.3540 C   0  0  0  0  0  0  0  0  0  0  0  0
   -1.1000   27.1820  -25.0070 C   0  0  0  0  0  0  0  0  0  0  0  0
   -0.7920   26.2260  -24.0350 C   0  0  0  0  0  0  0  0  0  0  0  0
   -0.7270   26.5840  -22.7280 F   0  0  0  0  0  0  0  0  0  0  0  0
   -0.5600   24.9000  -24.4090 C   0  0  0  0  0  0  0  0  0  0  0  0
   -0.6280   24.5280  -25.7540 C   0  0  0  0  0  0  0  0  0  0  0  0
   -1.5721   23.0063  -30.0333 H   0  0  0  0  0  0  0  0  0  0  0  0
   -3.2185   21.4711  -31.0982 H   0  0  0  0  0  0  0  0  0  0  0  0
   -4.9356   19.5070  -34.6589 H   0  0  0  0  0  0  0  0  0  0  0  0
   -4.6204   17.3212  -35.8143 H   0  0  0  0  0  0  0  0  0  0  0  0
   -5.9033   15.3147  -35.0700 H   0  0  0  0  0  0  0  0  0  0  0  0
   -7.5012   15.4904  -33.1635 H   0  0  0  0  0  0  0  0  0  0  0  0
   -7.8288   17.6711  -31.9992 H   0  0  0  0  0  0  0  0  0  0  0  0
   -8.7866   20.3470  -32.7747 H   0  0  0  0  0  0  0  0  0  0  0  0
   -6.3510   24.3967  -30.4630 H   0  0  0  0  0  0  0  0  0  0  0  0
   -4.6991   25.9270  -29.3985 H   0  0  0  0  0  0  0  0  0  0  0  0
   -1.4194   27.5695  -27.1142 H   0  0  0  0  0  0  0  0  0  0  0  0
   -1.2884   28.2247  -24.7115 H   0  0  0  0  0  0  0  0  0  0  0  0
   -0.3233   24.1471  -23.6427 H   0  0  0  0  0  0  0  0  0  0  0  0
   -0.4524   23.4809  -26.0416 H   0  0  0  0  0  0  0  0  0  0  0  0
  1  2  2  0
  2  3  1  0
  3  4  1  0
  4  5  2  0
  5  6  1  0
  6  7  2  0
  7  8  1  0
  8  9  2  0
  9 10  1  0
 10 11  1  0
 11 12  2  0
 12 13  1  0
 13 14  2  0
 14 15  1  0
 15 16  2  0
 10 17  2  0
 17 18  1  0
  7 19  1  0
 19 20  2  0
  2 21  1  0
 21 22  2  0
 22 23  1  0
 23 24  2  0
 24 25  1  0
 24 26  1  0
 26 27  2  0
 20  4  1  0
 27 21  1  0
 18  8  1  0
 16 11  1  0
  5 28  1  0
  6 29  1  0
 12 30  1  0
 13 31  1  0
 14 32  1  0
 15 33  1  0
 16 34  1  0
 17 35  1  0
 19 36  1  0
 20 37  1  0
 22 38  1  0
 23 39  1  0
 26 40  1  0
 27 41  1  0
M  CHG  1   3  -1
M  END
>  <UniqueID>  (35) 
33

>  <SMILES>  (35) 
O=C([N-]c1ccc(-c2nc(-c3ccccc3)cs2)cc1)c1ccc(F)cc1

>  <Energy>  (35) 
85.81093408869394

>  <Genealogy>  (35) 
O=C([N-]c1ccc(-c2nc(-c3ccccc3)cs2)cc1)c1ccc(F)cc1 (protonated)
O=C([N-]c1ccc(-c2nc(-c3ccccc3)cs2)cc1)c1ccc(F)cc1 (3D coordinates assigned)
O=C([N-]c1ccc(-c2nc(-c3ccccc3)cs2)cc1)c1ccc(F)cc1 (optimized conformer: 85.81093408869394 kcal/mol)

>  <smiles>  (35) 
O=C(Nc1ccc(-c2nc(-c3ccccc3)cs2)cc1)c1ccc(F)cc1

>  <score_type>  (35) 
oracle

>  <origin>  (35) 
adgpu

>  <m_score__min__energy>  (35) 
-10.91

>  <m_primary>  (35) 
energy

$$$$
35:0
     RDKit          3D

 22 23  0  0  0  0  0  0  0  0999 V2000
   -6.1200   25.6370  -29.7910 Cl  0  0  0  0  0  0  0  0  0  0  0  0
   -5.5330   24.3130  -30.7770 C   0  0  0  0  0  0  0  0  0  0  0  0
   -6.4240   23.5560  -31.5420 C   0  0  0  0  0  0  0  0  0  0  0  0
   -5.9400   22.5070  -32.3300 C   0  0  0  0  0  0  0  0  0  0  0  0
   -6.8530   21.7560  -33.0850 O   0  0  0  0  0  0  0  0  0  0  0  0
   -7.2380   20.4440  -32.7850 C   0  0  0  0  0  0  0  0  0  0  0  0
   -6.4400   19.3870  -33.2350 C   0  0  0  0  0  0  0  0  0  0  0  0
   -6.7980   18.0640  -32.9610 C   0  0  0  0  0  0  0  0  0  0  0  0
   -7.9510   17.7920  -32.2210 C   0  0  0  0  0  0  0  0  0  0  0  0
   -8.7420   18.8420  -31.7460 C   0  0  0  0  0  0  0  0  0  0  0  0
   -8.3890   20.1700  -32.0170 C   0  0  0  0  0  0  0  0  0  0  0  0
   -9.4540   21.5740  -31.2660 Br  0  0  0  0  0  0  0  0  0  0  0  0
   -4.5620   22.2250  -32.3220 C   0  0  0  0  0  0  0  0  0  0  0  0
   -3.7060   23.0070  -31.5430 C   0  0  0  0  0  0  0  0  0  0  0  0
   -4.2040   24.0260  -30.7940 N   0  0  0  0  0  0  0  0  0  0  0  0
   -7.5000   23.7838  -31.5245 H   0  0  0  0  0  0  0  0  0  0  0  0
   -5.5251   19.5983  -33.8080 H   0  0  0  0  0  0  0  0  0  0  0  0
   -6.1720   17.2373  -33.3280 H   0  0  0  0  0  0  0  0  0  0  0  0
   -8.2368   16.7506  -32.0119 H   0  0  0  0  0  0  0  0  0  0  0  0
   -9.6452   18.6245  -31.1571 H   0  0  0  0  0  0  0  0  0  0  0  0
   -4.1619   21.3958  -32.9240 H   0  0  0  0  0  0  0  0  0  0  0  0
   -2.6261   22.7976  -31.5357 H   0  0  0  0  0  0  0  0  0  0  0  0
  1  2  1  0
  2  3  2  0
  3  4  1  0
  4  5  1  0
  5  6  1  0
  6  7  2  0
  7  8  1  0
  8  9  2  0
  9 10  1  0
 10 11  2  0
 11 12  1  0
  4 13  2  0
 13 14  1  0
 14 15  2  0
 15  2  1  0
 11  6  1  0
  3 16  1  0
  7 17  1  0
  8 18  1  0
  9 19  1  0
 10 20  1  0
 13 21  1  0
 14 22  1  0
M  END
>  <UniqueID>  (36) 
34

>  <SMILES>  (36) 
Clc1cc(Oc2ccccc2Br)ccn1

>  <Energy>  (36) 
32.28223956510269

>  <Genealogy>  (36) 
Clc1cc(Oc2ccccc2Br)ccn1 (3D coordinates assigned)
Clc1cc(Oc2ccccc2Br)ccn1 (optimized conformer: 32.28223956510269 kcal/mol)

>  <smiles>  (36) 
Clc1cc(Oc2ccccc2Br)ccn1

>  <score_type>  (36) 
oracle

>  <origin>  (36) 
adgpu

>  <m_score__min__energy>  (36) 
-7.1100000000000003

>  <m_primary>  (36) 
energy

$$$$
36:0
     RDKit          3D

 31 32  0  0  0  0  0  0  0  0999 V2000
   -2.4140   24.5660  -28.6760 C   0  0  0  0  0  0  0  0  0  0  0  0
   -3.1940   25.1330  -29.7230 O   0  0  0  0  0  0  0  0  0  0  0  0
   -4.3450   24.5400  -30.2630 C   0  0  0  0  0  0  0  0  0  0  0  0
   -4.2040   23.3510  -30.9880 C   0  0  0  0  0  0  0  0  0  0  0  0
   -5.3200   22.7210  -31.5450 C   0  0  0  0  0  0  0  0  0  0  0  0
   -6.6010   23.2740  -31.3810 C   0  0  0  0  0  0  0  0  0  0  0  0
   -7.7500   22.6280  -31.9640 N   0  0  0  0  0  0  0  0  0  0  0  0
   -8.9490   23.4240  -32.2440 C   0  0  0  0  0  0  0  0  0  0  0  0
   -7.7800   21.1880  -32.1000 C   0  0  0  0  0  0  0  0  0  0  0  0
   -6.8880   20.5210  -32.9640 C   0  0  0  0  0  0  0  0  0  0  0  0
   -6.9280   19.1290  -33.0860 C   0  0  0  0  0  0  0  0  0  0  0  0
   -7.8520   18.3860  -32.3480 C   0  0  0  0  0  0  0  0  0  0  0  0
   -8.7390   19.0340  -31.4860 C   0  0  0  0  0  0  0  0  0  0  0  0
   -8.7040   20.4250  -31.3610 C   0  0  0  0  0  0  0  0  0  0  0  0
   -6.7450   24.4680  -30.6590 C   0  0  0  0  0  0  0  0  0  0  0  0
   -5.6280   25.0970  -30.1020 C   0  0  0  0  0  0  0  0  0  0  0  0
   -2.8301   24.8685  -27.7037 H   0  0  0  0  0  0  0  0  0  0  0  0
   -2.4327   23.4692  -28.7576 H   0  0  0  0  0  0  0  0  0  0  0  0
   -1.3765   24.9222  -28.7576 H   0  0  0  0  0  0  0  0  0  0  0  0
   -3.2057   22.9085  -31.1205 H   0  0  0  0  0  0  0  0  0  0  0  0
   -5.1950   21.7881  -32.1143 H   0  0  0  0  0  0  0  0  0  0  0  0
   -9.4139   23.7326  -31.2960 H   0  0  0  0  0  0  0  0  0  0  0  0
   -8.6696   24.3166  -32.8230 H   0  0  0  0  0  0  0  0  0  0  0  0
   -9.6631   22.8200  -32.8230 H   0  0  0  0  0  0  0  0  0  0  0  0
   -6.1556   21.0997  -33.5461 H   0  0  0  0  0  0  0  0  0  0  0  0
   -6.2299   18.6175  -33.7650 H   0  0  0  0  0  0  0  0  0  0  0  0
   -7.8810   17.2907  -32.4458 H   0  0  0  0  0  0  0  0  0  0  0  0
   -9.4663   18.4484  -30.9045 H   0  0  0  0  0  0  0  0  0  0  0  0
   -9.4048   20.9287  -30.6789 H   0  0  0  0  0  0  0  0  0  0  0  0
   -7.7431   24.9120  -30.5304 H   0  0  0  0  0  0  0  0  0  0  0  0
   -5.7519   26.0316  -29.5352 H   0  0  0  0  0  0  0  0  0  0  0  0
  1  2  1  0
  2  3  1  0
  3  4  2  0
  4  5  1  0
  5  6  2  0
  6  7  1  0
  7  8  1  0
  7  9  1  0
  9 10  2  0
 10 11  1  0
 11 12  2  0
 12 13  1  0
 13 14  2  0
  6 15  1  0
 15 16  2  0
 16  3  1  0
 14  9  1  0
  1 17  1  0
  1 18  1  0
  1 19  1  0
  4 20  1  0
  5 21  1  0
  8 22  1  0
  8 23  1  0
  8 24  1  0
 10 25  1  0
 11 26  1  0
 12 27  1  0
 13 28  1  0
 14 29  1  0
 15 30  1  0
 16 31  1  0
M  END
>  <UniqueID>  (37) 
35

>  <SMILES>  (37) 
COc1ccc(N(C)c2ccccc2)cc1

>  <Energy>  (37) 
39.23039192368707

>  <Genealogy>  (37) 
COc1ccc(N(C)c2ccccc2)cc1 (3D coordinates assigned)
COc1ccc(N(C)c2ccccc2)cc1 (optimized conformer: 39.23039192368707 kcal/mol)

>  <smiles>  (37) 
COc1ccc(N(C)c2ccccc2)cc1

>  <score_type>  (37) 
oracle

>  <origin>  (37) 
adgpu

>  <m_score__min__energy>  (37) 
-7.2599999999999998

>  <m_primary>  (37) 
energy

$$$$
37:0
     RDKit          3D

 42 45  0  0  0  0  0  0  0  0999 V2000
   -9.4730   20.4310  -32.2950 C   0  0  0  0  0  0  0  0  0  0  0  0
   -8.0270   20.8010  -32.3210 C   0  0  0  0  0  0  0  0  0  0  0  0
   -7.5730   21.8330  -31.5400 N   0  0  0  0  0  0  0  0  0  0  0  0
   -6.2530   22.1830  -31.5120 C   0  0  0  0  0  0  0  0  0  0  0  0
   -5.8090   23.2730  -30.6930 N   0  0  0  0  0  0  0  0  0  0  0  0
   -4.9280   22.9920  -29.5520 C   0  0  0  0  0  0  0  0  0  0  0  0
   -4.5350   24.2880  -28.8330 C   0  0  0  0  0  0  0  0  0  0  0  0
   -5.6920   25.1880  -28.7550 N   0  0  0  0  0  0  0  0  0  0  0  0
   -6.1200   25.6670  -30.0850 C   0  0  0  0  0  0  0  0  0  0  0  0
   -5.9020   24.6390  -31.2180 C   0  0  0  0  0  0  0  0  0  0  0  0
   -5.3700   21.4340  -32.2890 C   0  0  0  0  0  0  0  0  0  0  0  0
   -3.9990   21.4600  -32.4380 C   0  0  0  0  0  0  0  0  0  0  0  0
   -3.7090   20.4140  -33.3210 C   0  0  0  0  0  0  0  0  0  0  0  0
   -2.3520   20.0330  -33.7860 C   0  0  0  0  0  0  0  0  0  0  0  0
   -2.0710   18.7090  -34.1720 C   0  0  0  0  0  0  0  0  0  0  0  0
   -0.7910   18.3530  -34.6090 C   0  0  0  0  0  0  0  0  0  0  0  0
    0.2220   19.3120  -34.6670 C   0  0  0  0  0  0  0  0  0  0  0  0
   -0.0430   20.6290  -34.2870 C   0  0  0  0  0  0  0  0  0  0  0  0
   -1.3210   20.9900  -33.8490 C   0  0  0  0  0  0  0  0  0  0  0  0
   -4.8480   19.7710  -33.6890 N   0  0  0  0  0  0  0  0  0  0  0  0
   -5.8390   20.4050  -33.0460 C   0  0  0  0  0  0  0  0  0  0  0  0
   -7.1510   20.0690  -33.0730 N   0  0  0  0  0  0  0  0  0  0  0  0
   -9.8107   20.3446  -31.2517 H   0  0  0  0  0  0  0  0  0  0  0  0
  -10.0596   21.2080  -32.8071 H   0  0  0  0  0  0  0  0  0  0  0  0
   -9.6143   19.4678  -32.8071 H   0  0  0  0  0  0  0  0  0  0  0  0
   -5.4531   22.3328  -28.8451 H   0  0  0  0  0  0  0  0  0  0  0  0
   -4.0145   22.5054  -29.9244 H   0  0  0  0  0  0  0  0  0  0  0  0
   -4.1889   24.0503  -27.8163 H   0  0  0  0  0  0  0  0  0  0  0  0
   -3.7290   24.7830  -29.3945 H   0  0  0  0  0  0  0  0  0  0  0  0
   -6.4870   24.6920  -28.2880 H   0  0  0  0  0  0  0  0  0  0  0  0
   -5.4380   26.0130  -28.1630 H   0  0  0  0  0  0  0  0  0  0  0  0
   -7.1920   25.9092  -30.0380 H   0  0  0  0  0  0  0  0  0  0  0  0
   -5.5004   26.5438  -30.3244 H   0  0  0  0  0  0  0  0  0  0  0  0
   -6.7473   24.6956  -31.9196 H   0  0  0  0  0  0  0  0  0  0  0  0
   -4.9558   24.8793  -31.7250 H   0  0  0  0  0  0  0  0  0  0  0  0
   -3.2876   22.1530  -31.9651 H   0  0  0  0  0  0  0  0  0  0  0  0
   -2.8644   17.9482  -34.1296 H   0  0  0  0  0  0  0  0  0  0  0  0
   -0.5820   17.3152  -34.9077 H   0  0  0  0  0  0  0  0  0  0  0  0
    1.2279   19.0302  -35.0117 H   0  0  0  0  0  0  0  0  0  0  0  0
    0.7553   21.3844  -34.3322 H   0  0  0  0  0  0  0  0  0  0  0  0
   -1.5225   22.0296  -33.5514 H   0  0  0  0  0  0  0  0  0  0  0  0
   -4.9510   18.9570  -34.3340 H   0  0  0  0  0  0  0  0  0  0  0  0
  1  2  1  0
  2  3  2  0
  3  4  1  0
  4  5  1  0
  5  6  1  0
  6  7  1  0
  7  8  1  0
  8  9  1  0
  9 10  1  0
  4 11  2  0
 11 12  1  0
 12 13  2  0
 13 14  1  0
 14 15  2  0
 15 16  1  0
 16 17  2  0
 17 18  1  0
 18 19  2  0
 13 20  1  0
 20 21  1  0
 21 22  2  0
 22  2  1  0
 10  5  1  0
 21 11  1  0
 19 14  1  0
  1 23  1  0
  1 24  1  0
  1 25  1  0
  6 26  1  0
  6 27  1  0
  7 28  1  0
  7 29  1  0
  8 30  1  0
  8 31  1  0
  9 32  1  0
  9 33  1  0
 10 34  1  0
 10 35  1  0
 12 36  1  0
 15 37  1  0
 16 38  1  0
 17 39  1  0
 18 40  1  0
 19 41  1  0
 20 42  1  0
M  CHG  1   8   1
M  END
>  <UniqueID>  (38) 
36

>  <SMILES>  (38) 
Cc1nc(N2CC[NH2+]CC2)c2cc(-c3ccccc3)[nH]c2n1

>  <Energy>  (38) 
89.82353007876894

>  <Genealogy>  (38) 
Cc1nc(N2CC[NH2+]CC2)c2cc(-c3ccccc3)[nH]c2n1 (protonated)
Cc1nc(N2CC[NH2+]CC2)c2cc(-c3ccccc3)[nH]c2n1 (3D coordinates assigned)
Cc1nc(N2CC[NH2+]CC2)c2cc(-c3ccccc3)[nH]c2n1 (nonaromatic ring conformer: 89.82353007876894 kcal/mol)

>  <smiles>  (38) 
Cc1nc(N2CCNCC2)c2cc(-c3ccccc3)[nH]c2n1

>  <score_type>  (38) 
oracle

>  <origin>  (38) 
adgpu

>  <m_score__min__energy>  (38) 
-7.2400000000000002

>  <m_primary>  (38) 
energy

$$$$
38:0
     RDKit          3D

 40 41  0  0  0  0  0  0  0  0999 V2000
   -2.9450   24.5520  -27.0240 C   0  0  0  0  0  0  0  0  0  0  0  0
   -2.0130   24.8670  -28.1920 C   0  0  0  0  0  0  0  0  0  0  0  0
   -2.7520   25.2810  -29.3460 O   0  0  0  0  0  0  0  0  0  0  0  0
   -3.9010   24.6520  -29.8510 C   0  0  0  0  0  0  0  0  0  0  0  0
   -3.8260   23.2830  -30.1360 C   0  0  0  0  0  0  0  0  0  0  0  0
   -4.9320   22.6060  -30.6560 C   0  0  0  0  0  0  0  0  0  0  0  0
   -6.1310   23.2890  -30.8950 C   0  0  0  0  0  0  0  0  0  0  0  0
   -7.4950   22.4250  -31.5990 S   0  0  0  0  0  0  0  0  0  0  0  0
   -8.5070   23.3860  -32.1630 O   0  0  0  0  0  0  0  0  0  0  0  0
   -8.1470   21.6040  -30.5190 O   0  0  0  0  0  0  0  0  0  0  0  0
   -6.9320   21.3690  -32.8590 N   0  0  0  0  0  0  0  0  0  0  0  0
   -6.9600   19.9460  -32.7030 C   0  0  0  0  0  0  0  0  0  0  0  0
   -8.0640   19.1330  -32.5230 C   0  0  0  0  0  0  0  0  0  0  0  0
   -9.4870   19.5620  -32.3530 C   0  0  0  0  0  0  0  0  0  0  0  0
   -7.6670   17.8450  -32.4990 N   0  0  0  0  0  0  0  0  0  0  0  0
   -6.3500   17.8240  -32.6500 N   0  0  0  0  0  0  0  0  0  0  0  0
   -5.5670   16.5980  -32.6860 C   0  0  0  0  0  0  0  0  0  0  0  0
   -5.8800   19.0870  -32.7500 C   0  0  0  0  0  0  0  0  0  0  0  0
   -4.4600   19.4610  -33.0350 C   0  0  0  0  0  0  0  0  0  0  0  0
   -6.2190   24.6550  -30.6010 C   0  0  0  0  0  0  0  0  0  0  0  0
   -5.1090   25.3370  -30.0900 C   0  0  0  0  0  0  0  0  0  0  0  0
   -2.4173   24.7303  -26.0754 H   0  0  0  0  0  0  0  0  0  0  0  0
   -3.8321   25.2002  -27.0776 H   0  0  0  0  0  0  0  0  0  0  0  0
   -3.2569   23.4985  -27.0776 H   0  0  0  0  0  0  0  0  0  0  0  0
   -1.3272   25.6746  -27.8962 H   0  0  0  0  0  0  0  0  0  0  0  0
   -1.4519   23.9556  -28.4459 H   0  0  0  0  0  0  0  0  0  0  0  0
   -2.8897   22.7368  -29.9491 H   0  0  0  0  0  0  0  0  0  0  0  0
   -4.8607   21.5312  -30.8788 H   0  0  0  0  0  0  0  0  0  0  0  0
   -6.8890   21.7650  -33.8240 H   0  0  0  0  0  0  0  0  0  0  0  0
   -9.7229   19.6331  -31.2810 H   0  0  0  0  0  0  0  0  0  0  0  0
   -9.6330   20.5441  -32.8265 H   0  0  0  0  0  0  0  0  0  0  0  0
  -10.1515   18.8242  -32.8265 H   0  0  0  0  0  0  0  0  0  0  0  0
   -5.3559   16.2675  -31.6583 H   0  0  0  0  0  0  0  0  0  0  0  0
   -6.1335   15.8165  -33.2135 H   0  0  0  0  0  0  0  0  0  0  0  0
   -4.6197   16.7833  -33.2135 H   0  0  0  0  0  0  0  0  0  0  0  0
   -3.9208   19.6030  -32.0868 H   0  0  0  0  0  0  0  0  0  0  0  0
   -3.9787   18.6590  -33.6139 H   0  0  0  0  0  0  0  0  0  0  0  0
   -4.4362   20.3960  -33.6139 H   0  0  0  0  0  0  0  0  0  0  0  0
   -7.1628   25.1934  -30.7721 H   0  0  0  0  0  0  0  0  0  0  0  0
   -5.1798   26.4132  -29.8738 H   0  0  0  0  0  0  0  0  0  0  0  0
  1  2  1  0
  2  3  1  0
  3  4  1  0
  4  5  2  0
  5  6  1  0
  6  7  2  0
  7  8  1  0
  8  9  2  0
  8 10  2  0
  8 11  1  0
 11 12  1  0
 12 13  1  0
 13 14  1  0
 13 15  2  0
 15 16  1  0
 16 17  1  0
 16 18  1  0
 18 19  1  0
  7 20  1  0
 20 21  2  0
 21  4  1  0
 18 12  2  0
  1 22  1  0
  1 23  1  0
  1 24  1  0
  2 25  1  0
  2 26  1  0
  5 27  1  0
  6 28  1  0
 11 29  1  0
 14 30  1  0
 14 31  1  0
 14 32  1  0
 17 33  1  0
 17 34  1  0
 17 35  1  0
 19 36  1  0
 19 37  1  0
 19 38  1  0
 20 39  1  0
 21 40  1  0
M  END
>  <UniqueID>  (39) 
37

>  <SMILES>  (39) 
CCOc1ccc(S(=O)(=O)Nc2c(C)nn(C)c2C)cc1

>  <Energy>  (39) 
70.84025814208955

>  <Genealogy>  (39) 
CCOc1ccc(S(=O)(=O)Nc2c(C)nn(C)c2C)cc1 (3D coordinates assigned)
CCOc1ccc(S(=O)(=O)Nc2c(C)nn(C)c2C)cc1 (optimized conformer: 70.84025814208955 kcal/mol)

>  <smiles>  (39) 
CCOc1ccc(S(=O)(=O)Nc2c(C)nn(C)c2C)cc1

>  <score_type>  (39) 
oracle

>  <origin>  (39) 
adgpu

>  <m_score__min__energy>  (39) 
-8.1300000000000008

>  <m_primary>  (39) 
energy

$$$$
39:0
     RDKit          3D

 22 23  0  0  0  0  0  0  0  0999 V2000
   -6.8370   17.9880  -33.4630 C   0  0  0  0  0  0  0  0  0  0  0  0
   -6.6320   19.3120  -32.7890 C   0  0  0  0  0  0  0  0  0  0  0  0
   -5.3510   19.7020  -32.3750 C   0  0  0  0  0  0  0  0  0  0  0  0
   -5.1530   20.9490  -31.7810 C   0  0  0  0  0  0  0  0  0  0  0  0
   -6.2280   21.8370  -31.5970 C   0  0  0  0  0  0  0  0  0  0  0  0
   -6.0010   23.1110  -30.9630 N   0  0  0  0  0  0  0  0  0  0  0  0
   -6.8110   23.7070  -30.0630 C   0  0  0  0  0  0  0  0  0  0  0  0
   -6.2700   24.9300  -29.7240 C   0  0  0  0  0  0  0  0  0  0  0  0
   -5.1170   25.0080  -30.4760 C   0  0  0  0  0  0  0  0  0  0  0  0
   -4.2460   26.0460  -30.4800 F   0  0  0  0  0  0  0  0  0  0  0  0
   -4.9710   23.9010  -31.2260 N   0  0  0  0  0  0  0  0  0  0  0  0
   -7.5150   21.4530  -32.0380 C   0  0  0  0  0  0  0  0  0  0  0  0
   -8.9010   22.5320  -31.9330 Cl  0  0  0  0  0  0  0  0  0  0  0  0
   -7.7050   20.1990  -32.6330 C   0  0  0  0  0  0  0  0  0  0  0  0
   -6.9584   17.2037  -32.7013 H   0  0  0  0  0  0  0  0  0  0  0  0
   -7.7390   18.0320  -34.0910 H   0  0  0  0  0  0  0  0  0  0  0  0
   -5.9639   17.7572  -34.0910 H   0  0  0  0  0  0  0  0  0  0  0  0
   -4.4982   19.0222  -32.5189 H   0  0  0  0  0  0  0  0  0  0  0  0
   -4.1445   21.2409  -31.4529 H   0  0  0  0  0  0  0  0  0  0  0  0
   -7.7470   23.2874  -29.6657 H   0  0  0  0  0  0  0  0  0  0  0  0
   -6.6673   25.6724  -29.0162 H   0  0  0  0  0  0  0  0  0  0  0  0
   -8.7070   19.9079  -32.9813 H   0  0  0  0  0  0  0  0  0  0  0  0
  1  2  1  0
  2  3  2  0
  3  4  1  0
  4  5  2  0
  5  6  1  0
  6  7  1  0
  7  8  2  0
  8  9  1  0
  9 10  1  0
  9 11  2  0
  5 12  1  0
 12 13  1  0
 12 14  2  0
 14  2  1  0
 11  6  1  0
  1 15  1  0
  1 16  1  0
  1 17  1  0
  3 18  1  0
  4 19  1  0
  7 20  1  0
  8 21  1  0
 14 22  1  0
M  END
>  <UniqueID>  (40) 
38

>  <SMILES>  (40) 
Cc1ccc(-n2ccc(F)n2)c(Cl)c1

>  <Energy>  (40) 
57.298022066925114

>  <Genealogy>  (40) 
Cc1ccc(-n2ccc(F)n2)c(Cl)c1 (3D coordinates assigned)
Cc1ccc(-n2ccc(F)n2)c(Cl)c1 (optimized conformer: 57.298022066925114 kcal/mol)

>  <smiles>  (40) 
Cc1ccc(-n2ccc(F)n2)c(Cl)c1

>  <score_type>  (40) 
oracle

>  <origin>  (40) 
adgpu

>  <m_score__min__energy>  (40) 
-6.4900000000000002

>  <m_primary>  (40) 
energy

$$$$
40:0
     RDKit          3D

 23 23  0  0  0  0  0  0  0  0999 V2000
   -5.5310   18.2320  -32.5160 C   0  0  0  0  0  0  0  0  0  0  0  0
   -5.6250   19.2690  -33.5840 C   0  0  0  0  0  0  0  0  0  0  0  0
   -6.0650   18.9550  -34.7230 O   0  0  0  0  0  0  0  0  0  0  0  0
   -5.2880   20.6270  -33.2840 N   0  0  0  0  0  0  0  0  0  0  0  0
   -6.0740   21.4860  -32.4480 C   0  0  0  0  0  0  0  0  0  0  0  0
   -5.4250   22.5110  -31.7490 C   0  0  0  0  0  0  0  0  0  0  0  0
   -6.1420   23.3470  -30.8820 C   0  0  0  0  0  0  0  0  0  0  0  0
   -5.3150   24.6270  -30.0010 S   0  0  0  0  0  0  0  0  0  0  0  0
   -3.8440   25.0320  -30.8120 N   0  0  0  0  0  0  0  0  0  0  0  0
   -5.0050   24.1660  -28.6030 O   0  0  0  0  0  0  0  0  0  0  0  0
   -6.1960   25.8430  -29.9210 O   0  0  0  0  0  0  0  0  0  0  0  0
   -7.5230   23.1710  -30.7350 C   0  0  0  0  0  0  0  0  0  0  0  0
   -8.1830   22.1740  -31.4550 C   0  0  0  0  0  0  0  0  0  0  0  0
   -7.4760   21.3410  -32.3300 C   0  0  0  0  0  0  0  0  0  0  0  0
   -8.1930   20.4150  -33.0880 O   0  0  0  0  0  0  0  0  0  0  0  0
   -5.5749   18.7166  -31.5295 H   0  0  0  0  0  0  0  0  0  0  0  0
   -6.3689   17.5262  -32.6154 H   0  0  0  0  0  0  0  0  0  0  0  0
   -4.5799   17.6884  -32.6154 H   0  0  0  0  0  0  0  0  0  0  0  0
   -4.3434   22.6615  -31.8814 H   0  0  0  0  0  0  0  0  0  0  0  0
   -3.8790   26.0560  -31.0120 H   0  0  0  0  0  0  0  0  0  0  0  0
   -8.0892   23.8199  -30.0506 H   0  0  0  0  0  0  0  0  0  0  0  0
   -9.2683   22.0417  -31.3338 H   0  0  0  0  0  0  0  0  0  0  0  0
   -7.7960   19.9310  -33.8820 H   0  0  0  0  0  0  0  0  0  0  0  0
  1  2  1  0
  2  3  2  0
  2  4  1  0
  4  5  1  0
  5  6  2  0
  6  7  1  0
  7  8  1  0
  8  9  1  0
  8 10  2  0
  8 11  2  0
  7 12  2  0
 12 13  1  0
 13 14  2  0
 14 15  1  0
 14  5  1  0
  1 16  1  0
  1 17  1  0
  1 18  1  0
  6 19  1  0
  9 20  1  0
 12 21  1  0
 13 22  1  0
 15 23  1  0
M  CHG  2   4  -1   9  -1
M  END
>  <UniqueID>  (41) 
39

>  <SMILES>  (41) 
CC(=O)[N-]c1cc(S([NH-])(=O)=O)ccc1O

>  <Energy>  (41) 
26.211028926825982

>  <Genealogy>  (41) 
CC(=O)[N-]c1cc(S([NH-])(=O)=O)ccc1O (protonated)
CC(=O)[N-]c1cc(S([NH-])(=O)=O)ccc1O (3D coordinates assigned)
CC(=O)[N-]c1cc(S([NH-])(=O)=O)ccc1O (optimized conformer: 26.211028926825982 kcal/mol)

>  <smiles>  (41) 
CC(=O)Nc1cc(S(N)(=O)=O)ccc1O

>  <score_type>  (41) 
oracle

>  <origin>  (41) 
adgpu

>  <m_score__min__energy>  (41) 
-7.8300000000000001

>  <m_primary>  (41) 
energy

$$$$
41:0
     RDKit          3D

 26 27  0  0  0  0  0  0  0  0999 V2000
   -7.1900   18.1320  -32.7190 Cl  0  0  0  0  0  0  0  0  0  0  0  0
   -7.7160   19.7460  -32.2750 C   0  0  0  0  0  0  0  0  0  0  0  0
   -9.0730   20.0760  -32.3250 C   0  0  0  0  0  0  0  0  0  0  0  0
   -9.4920   21.3600  -31.9690 C   0  0  0  0  0  0  0  0  0  0  0  0
   -8.5590   22.3160  -31.5620 C   0  0  0  0  0  0  0  0  0  0  0  0
   -7.1880   21.9980  -31.5050 C   0  0  0  0  0  0  0  0  0  0  0  0
   -6.2190   22.9850  -31.0870 N   0  0  0  0  0  0  0  0  0  0  0  0
   -5.0900   22.6120  -30.2240 C   0  0  0  0  0  0  0  0  0  0  0  0
   -3.8940   23.5340  -30.4950 C   0  0  0  0  0  0  0  0  0  0  0  0
   -4.2160   24.9700  -30.3620 N   0  0  0  0  0  0  0  0  0  0  0  0
   -5.6460   25.3030  -30.4850 C   0  0  0  0  0  0  0  0  0  0  0  0
   -6.3730   24.3920  -31.4790 C   0  0  0  0  0  0  0  0  0  0  0  0
   -6.7770   20.7010  -31.8690 C   0  0  0  0  0  0  0  0  0  0  0  0
   -9.8106   19.3251  -32.6445 H   0  0  0  0  0  0  0  0  0  0  0  0
  -10.5603   21.6190  -32.0094 H   0  0  0  0  0  0  0  0  0  0  0  0
   -8.8973   23.3250  -31.2838 H   0  0  0  0  0  0  0  0  0  0  0  0
   -5.3907   22.7060  -29.1701 H   0  0  0  0  0  0  0  0  0  0  0  0
   -4.8001   21.5728  -30.4385 H   0  0  0  0  0  0  0  0  0  0  0  0
   -3.0955   23.2883  -29.7794 H   0  0  0  0  0  0  0  0  0  0  0  0
   -3.5853   23.3664  -31.5374 H   0  0  0  0  0  0  0  0  0  0  0  0
   -3.8870   25.3020  -29.4250 H   0  0  0  0  0  0  0  0  0  0  0  0
   -6.1196   25.1981  -29.4977 H   0  0  0  0  0  0  0  0  0  0  0  0
   -5.7197   26.3348  -30.8591 H   0  0  0  0  0  0  0  0  0  0  0  0
   -7.4422   24.6500  -31.4928 H   0  0  0  0  0  0  0  0  0  0  0  0
   -5.9383   24.5346  -32.4793 H   0  0  0  0  0  0  0  0  0  0  0  0
   -5.7098   20.4366  -31.8339 H   0  0  0  0  0  0  0  0  0  0  0  0
  1  2  1  0
  2  3  2  0
  3  4  1  0
  4  5  2  0
  5  6  1  0
  6  7  1  0
  7  8  1  0
  8  9  1  0
  9 10  1  0
 10 11  1  0
 11 12  1  0
  6 13  2  0
 13  2  1  0
 12  7  1  0
  3 14  1  0
  4 15  1  0
  5 16  1  0
  8 17  1  0
  8 18  1  0
  9 19  1  0
  9 20  1  0
 10 21  1  0
 11 22  1  0
 11 23  1  0
 12 24  1  0
 12 25  1  0
 13 26  1  0
M  END
>  <UniqueID>  (42) 
40

>  <SMILES>  (42) 
Clc1cccc(N2CCNCC2)c1

>  <Energy>  (42) 
32.90277946508528

>  <Genealogy>  (42) 
Clc1cccc(N2CCNCC2)c1 (3D coordinates assigned)
Clc1cccc(N2CCNCC2)c1 (nonaromatic ring conformer: 32.90277946508528 kcal/mol)

>  <smiles>  (42) 
Clc1cccc(N2CCNCC2)c1

>  <score_type>  (42) 
oracle

>  <origin>  (42) 
adgpu

>  <m_score__min__energy>  (42) 
-6.7599999999999998

>  <m_primary>  (42) 
energy

$$$$
42:0
     RDKit          3D

 58 62  0  0  0  0  0  0  0  0999 V2000
   -7.5716   21.0416  -33.2143 H   0  0  0  0  0  0  0  0  0  0  0  0
   -7.0180   20.0930  -33.2750 C   0  0  0  0  0  0  0  0  0  0  0  0
   -5.7070   20.0790  -33.7600 C   0  0  0  0  0  0  0  0  0  0  0  0
   -5.2278   21.0190  -34.0709 H   0  0  0  0  0  0  0  0  0  0  0  0
   -4.9980   18.8670  -33.8520 C   0  0  0  0  0  0  0  0  0  0  0  0
   -3.6760   18.8160  -34.3200 O   0  0  0  0  0  0  0  0  0  0  0  0
   -2.5330   18.8900  -33.5110 C   0  0  0  0  0  0  0  0  0  0  0  0
   -1.4360   18.0390  -33.7550 C   0  0  0  0  0  0  0  0  0  0  0  0
   -1.5060   16.7500  -35.1660 Br  0  0  0  0  0  0  0  0  0  0  0  0
   -0.2770   18.1230  -32.9560 C   0  0  0  0  0  0  0  0  0  0  0  0
    0.5740   17.4516  -33.1432 H   0  0  0  0  0  0  0  0  0  0  0  0
   -0.2160   19.0670  -31.9220 C   0  0  0  0  0  0  0  0  0  0  0  0
    0.6750   19.1482  -31.2820 H   0  0  0  0  0  0  0  0  0  0  0  0
   -1.2860   19.8770  -31.7330 N   0  0  0  0  0  0  0  0  0  0  0  0
   -1.4010   20.8490  -30.8510 N   0  0  0  0  0  0  0  0  0  0  0  0
   -2.6210   21.3820  -31.1020 C   0  0  0  0  0  0  0  0  0  0  0  0
   -3.1410   22.3690  -30.4330 N   0  0  0  0  0  0  0  0  0  0  0  0
   -2.5170   23.1290  -29.3820 C   0  0  0  0  0  0  0  0  0  0  0  0
   -1.6870   22.5220  -28.4210 C   0  0  0  0  0  0  0  0  0  0  0  0
   -1.5329   21.4331  -28.4426 H   0  0  0  0  0  0  0  0  0  0  0  0
   -1.0580   23.2910  -27.4410 C   0  0  0  0  0  0  0  0  0  0  0  0
   -0.4314   22.8019  -26.6806 H   0  0  0  0  0  0  0  0  0  0  0  0
   -1.2200   24.6830  -27.4200 C   0  0  0  0  0  0  0  0  0  0  0  0
   -0.5620   25.4780  -26.4170 N   0  0  0  0  0  0  0  0  0  0  0  0
   -1.2640   25.8870  -25.1980 C   0  0  0  0  0  0  0  0  0  0  0  0
   -1.4010   26.9784  -25.2086 H   0  0  0  0  0  0  0  0  0  0  0  0
   -2.2403   25.3813  -25.1643 H   0  0  0  0  0  0  0  0  0  0  0  0
   -0.4550   25.4900  -23.9470 C   0  0  0  0  0  0  0  0  0  0  0  0
   -0.6758   26.2136  -23.1485 H   0  0  0  0  0  0  0  0  0  0  0  0
   -0.7565   24.4650  -23.6854 H   0  0  0  0  0  0  0  0  0  0  0  0
    1.0190   25.4640  -24.1610 N   0  0  0  0  0  0  0  0  0  0  0  0
    1.4710   25.8360  -23.2910 H   0  0  0  0  0  0  0  0  0  0  0  0
    1.5150   24.0840  -24.3290 C   0  0  0  0  0  0  0  0  0  0  0  0
    1.6781   23.6301  -23.3404 H   0  0  0  0  0  0  0  0  0  0  0  0
    0.7730   23.4929  -24.8859 H   0  0  0  0  0  0  0  0  0  0  0  0
    2.4635   24.1005  -24.8859 H   0  0  0  0  0  0  0  0  0  0  0  0
    1.4550   26.3370  -25.2760 C   0  0  0  0  0  0  0  0  0  0  0  0
    1.1617   27.3732  -25.0519 H   0  0  0  0  0  0  0  0  0  0  0  0
    2.5469   26.2460  -25.3731 H   0  0  0  0  0  0  0  0  0  0  0  0
    0.8210   25.9190  -26.6140 C   0  0  0  0  0  0  0  0  0  0  0  0
    0.8317   26.7771  -27.3022 H   0  0  0  0  0  0  0  0  0  0  0  0
    1.4014   25.0847  -27.0347 H   0  0  0  0  0  0  0  0  0  0  0  0
   -2.0310   25.2940  -28.3880 C   0  0  0  0  0  0  0  0  0  0  0  0
   -2.1652   26.3857  -28.3750 H   0  0  0  0  0  0  0  0  0  0  0  0
   -2.6750   24.5250  -29.3760 C   0  0  0  0  0  0  0  0  0  0  0  0
   -3.4860   25.1110  -30.3620 O   0  0  0  0  0  0  0  0  0  0  0  0
   -4.8990   24.9580  -30.4410 C   0  0  0  0  0  0  0  0  0  0  0  0
   -5.3202   24.9124  -29.4259 H   0  0  0  0  0  0  0  0  0  0  0  0
   -5.3311   25.8146  -30.9791 H   0  0  0  0  0  0  0  0  0  0  0  0
   -5.1377   24.0288  -30.9791 H   0  0  0  0  0  0  0  0  0  0  0  0
   -3.2870   20.7670  -32.1120 N   0  0  0  0  0  0  0  0  0  0  0  0
   -2.3990   19.8200  -32.4720 C   0  0  0  0  0  0  0  0  0  0  0  0
   -5.6070   17.6830  -33.4210 C   0  0  0  0  0  0  0  0  0  0  0  0
   -5.0508   16.7350  -33.4641 H   0  0  0  0  0  0  0  0  0  0  0  0
   -6.9180   17.6980  -32.9360 C   0  0  0  0  0  0  0  0  0  0  0  0
   -7.3933   16.7617  -32.6083 H   0  0  0  0  0  0  0  0  0  0  0  0
   -7.6260   18.9020  -32.8670 C   0  0  0  0  0  0  0  0  0  0  0  0
   -9.2690   18.9210  -32.2540 Cl  0  0  0  0  0  0  0  0  0  0  0  0
  1  2  1  0
  2  3  2  0
  3  4  1  0
  3  5  1  0
  5  6  1  0
  6  7  1  0
  7  8  2  0
  8  9  1  0
  8 10  1  0
 10 11  1  0
 10 12  2  0
 12 13  1  0
 12 14  1  0
 14 15  1  0
 15 16  1  0
 16 17  2  0
 17 18  1  0
 18 19  2  0
 19 20  1  0
 19 21  1  0
 21 22  1  0
 21 23  2  0
 23 24  1  0
 24 25  1  0
 25 26  1  0
 25 27  1  0
 25 28  1  0
 28 29  1  0
 28 30  1  0
 28 31  1  0
 31 32  1  0
 31 33  1  0
 33 34  1  0
 33 35  1  0
 33 36  1  0
 31 37  1  0
 37 38  1  0
 37 39  1  0
 37 40  1  0
 40 41  1  0
 40 42  1  0
 23 43  1  0
 43 44  1  0
 43 45  2  0
 45 46  1  0
 46 47  1  0
 47 48  1  0
 47 49  1  0
 47 50  1  0
 16 51  1  0
 51 52  2  0
  5 53  2  0
 53 54  1  0
 53 55  1  0
 55 56  1  0
 55 57  2  0
 57 58  1  0
 57  2  1  0
 52  7  1  0
 52 14  1  0
 45 18  1  0
 40 24  1  0
M  CHG  2  15  -1  31   1
M  END
>  <UniqueID>  (43) 
41

>  <SMILES>  (43) 
COc1cc(N2CC[NH+](C)CC2)ccc1/N=c1/nc2c(Oc3ccc(Cl)cc3)c(Br)ccn2[n-]1

>  <Energy>  (43) 
125.66031245119405

>  <Genealogy>  (43) 
COc1cc(N2CC[NH+](C)CC2)ccc1N=c1nc2c(Oc3ccc(Cl)cc3)c(Br)ccn2[n-]1 (protonated)
COc1cc(N2CC[NH+](C)CC2)ccc1/N=c1/nc2c(Oc3ccc(Cl)cc3)c(Br)ccn2[n-]1 (cis-trans isomerization)
COc1cc(N2CC[NH+](C)CC2)ccc1/N=c1/nc2c(Oc3ccc(Cl)cc3)c(Br)ccn2[n-]1 (3D coordinates assigned)
COc1cc(N2CC[NH+](C)CC2)ccc1/N=c1/nc2c(Oc3ccc(Cl)cc3)c(Br)ccn2[n-]1 (nonaromatic ring conformer: 125.66031245119405 kcal/mol)

>  <smiles>  (43) 
COc1cc(N2CCN(C)CC2)ccc1N=c1nc2c(Oc3ccc(Cl)cc3)c(Br)ccn2[nH]1

>  <score_type>  (43) 
oracle

>  <origin>  (43) 
adgpu

>  <m_score__min__energy>  (43) 
-9.9900000000000002

>  <m_primary>  (43) 
energy

$$$$
43:0
     RDKit          3D

 37 39  0  0  0  0  0  0  0  0999 V2000
   -7.6210   18.1630  -32.3990 C   0  0  0  0  0  0  0  0  0  0  0  0
   -6.7620   19.0480  -33.0570 C   0  0  0  0  0  0  0  0  0  0  0  0
   -6.9840   20.4270  -32.9820 C   0  0  0  0  0  0  0  0  0  0  0  0
   -8.0650   20.9310  -32.2380 C   0  0  0  0  0  0  0  0  0  0  0  0
   -8.3030   22.4160  -32.1650 C   0  0  0  0  0  0  0  0  0  0  0  0
   -7.0750   23.1540  -32.4670 N   0  0  0  0  0  0  0  0  0  0  0  0
   -6.0600   23.4820  -31.4970 C   0  0  0  0  0  0  0  0  0  0  0  0
   -4.8350   22.7920  -31.4410 C   0  0  0  0  0  0  0  0  0  0  0  0
   -3.8700   23.1390  -30.4910 C   0  0  0  0  0  0  0  0  0  0  0  0
   -4.1090   24.1770  -29.5750 C   0  0  0  0  0  0  0  0  0  0  0  0
   -3.0820   24.5470  -28.5670 C   0  0  0  0  0  0  0  0  0  0  0  0
   -3.4070   24.5870  -27.1970 C   0  0  0  0  0  0  0  0  0  0  0  0
   -2.4390   24.9360  -26.2510 C   0  0  0  0  0  0  0  0  0  0  0  0
   -1.1390   25.2470  -26.6570 C   0  0  0  0  0  0  0  0  0  0  0  0
   -0.8050   25.2090  -28.0130 C   0  0  0  0  0  0  0  0  0  0  0  0
   -1.7690   24.8620  -28.9640 C   0  0  0  0  0  0  0  0  0  0  0  0
   -5.3350   24.8610  -29.6290 C   0  0  0  0  0  0  0  0  0  0  0  0
   -6.3000   24.5130  -30.5790 C   0  0  0  0  0  0  0  0  0  0  0  0
   -8.9300   20.0340  -31.5900 C   0  0  0  0  0  0  0  0  0  0  0  0
   -8.7050   18.6560  -31.6680 C   0  0  0  0  0  0  0  0  0  0  0  0
   -7.4437   17.0789  -32.4567 H   0  0  0  0  0  0  0  0  0  0  0  0
   -5.9103   18.6594  -33.6346 H   0  0  0  0  0  0  0  0  0  0  0  0
   -6.3101   21.1198  -33.5072 H   0  0  0  0  0  0  0  0  0  0  0  0
   -9.0790   22.6933  -32.8936 H   0  0  0  0  0  0  0  0  0  0  0  0
   -8.6268   22.6719  -31.1454 H   0  0  0  0  0  0  0  0  0  0  0  0
   -6.9130   23.4180  -33.4660 H   0  0  0  0  0  0  0  0  0  0  0  0
   -4.6354   21.9744  -32.1493 H   0  0  0  0  0  0  0  0  0  0  0  0
   -2.9148   22.5943  -30.4604 H   0  0  0  0  0  0  0  0  0  0  0  0
   -4.4283   24.3422  -26.8698 H   0  0  0  0  0  0  0  0  0  0  0  0
   -2.7017   24.9659  -25.1833 H   0  0  0  0  0  0  0  0  0  0  0  0
   -0.3795   25.5214  -25.9101 H   0  0  0  0  0  0  0  0  0  0  0  0
    0.2188   25.4527  -28.3330 H   0  0  0  0  0  0  0  0  0  0  0  0
   -1.4995   24.8350  -30.0301 H   0  0  0  0  0  0  0  0  0  0  0  0
   -5.5372   25.6762  -28.9187 H   0  0  0  0  0  0  0  0  0  0  0  0
   -7.2573   25.0541  -30.6060 H   0  0  0  0  0  0  0  0  0  0  0  0
   -9.7883   20.4172  -31.0186 H   0  0  0  0  0  0  0  0  0  0  0  0
   -9.3825   17.9590  -31.1530 H   0  0  0  0  0  0  0  0  0  0  0  0
  1  2  2  0
  2  3  1  0
  3  4  2  0
  4  5  1  0
  5  6  1  0
  6  7  1  0
  7  8  2  0
  8  9  1  0
  9 10  2  0
 10 11  1  0
 11 12  2  0
 12 13  1  0
 13 14  2  0
 14 15  1  0
 15 16  2  0
 10 17  1  0
 17 18  2  0
  4 19  1  0
 19 20  2  0
 20  1  1  0
 18  7  1  0
 16 11  1  0
  1 21  1  0
  2 22  1  0
  3 23  1  0
  5 24  1  0
  5 25  1  0
  6 26  1  0
  8 27  1  0
  9 28  1  0
 12 29  1  0
 13 30  1  0
 14 31  1  0
 15 32  1  0
 16 33  1  0
 17 34  1  0
 18 35  1  0
 19 36  1  0
 20 37  1  0
M  END
>  <UniqueID>  (44) 
42

>  <SMILES>  (44) 
c1ccc(CNc2ccc(-c3ccccc3)cc2)cc1

>  <Energy>  (44) 
44.23123303169576

>  <Genealogy>  (44) 
c1ccc(CNc2ccc(-c3ccccc3)cc2)cc1 (3D coordinates assigned)
c1ccc(CNc2ccc(-c3ccccc3)cc2)cc1 (optimized conformer: 44.23123303169576 kcal/mol)

>  <smiles>  (44) 
c1ccc(CNc2ccc(-c3ccccc3)cc2)cc1

>  <score_type>  (44) 
oracle

>  <origin>  (44) 
adgpu

>  <m_score__min__energy>  (44) 
-8.2599999999999998

>  <m_primary>  (44) 
energy

$$$$
44:0
     RDKit          3D

 42 44  0  0  1  0  0  0  0  0999 V2000
    0.4140   24.2450  -26.7190 C   0  0  0  0  0  0  0  0  0  0  0  0
    0.3010   24.4490  -28.1180 O   0  0  0  0  0  0  0  0  0  0  0  0
   -0.8650   24.0500  -28.7660 C   0  0  0  0  0  0  0  0  0  0  0  0
   -1.8780   24.9540  -29.0760 C   0  0  0  0  0  0  0  0  0  0  0  0
   -3.0060   24.5100  -29.7150 C   0  0  0  0  0  0  0  0  0  0  0  0
   -4.0110   25.3530  -30.0330 N   0  0  0  0  0  0  0  0  0  0  0  0
   -5.1360   24.9300  -30.6660 C   0  0  0  0  0  0  0  0  0  0  0  0
   -5.3100   23.6330  -31.0140 N   0  0  0  0  0  0  0  0  0  0  0  0
   -4.3330   22.7600  -30.7150 C   0  0  0  0  0  0  0  0  0  0  0  0
   -4.3840   21.5030  -30.9940 N   0  0  0  0  0  0  0  0  0  0  0  0
   -5.5480   21.0200  -31.6580 C   0  0  0  0  0  0  0  0  0  0  0  0
   -5.3100   20.1600  -32.7360 C   0  0  0  0  0  0  0  0  0  0  0  0
   -6.3430   19.6370  -33.4440 C   0  0  0  0  0  0  0  0  0  0  0  0
   -6.0570   18.7190  -34.5920 C   0  0  0  0  0  0  0  0  0  0  0  0
   -7.6250   19.9650  -33.0880 C   0  0  0  0  0  0  0  0  0  0  0  0
   -7.8630   20.8240  -32.0120 C   0  0  0  0  0  0  0  0  0  0  0  0
   -9.2710   21.1550  -31.6590 C   0  0  0  0  0  0  0  0  0  0  0  0
   -6.8290   21.3670  -31.2770 C   0  0  0  0  0  0  0  0  0  0  0  0
   -3.1740   23.1880  -30.0640 C   0  0  0  0  0  0  0  0  0  0  0  0
   -2.1640   22.2990  -29.7520 C   0  0  0  0  0  0  0  0  0  0  0  0
   -0.9970   22.7110  -29.1010 C   0  0  0  0  0  0  0  0  0  0  0  0
   -0.0220   21.7640  -28.8180 O   0  0  0  0  0  0  0  0  0  0  0  0
   -0.3650   20.7010  -27.9710 C   0  0  0  0  0  0  0  0  0  0  0  0
   -0.0525   25.0871  -26.1868 H   0  0  0  0  0  0  0  0  0  0  0  0
   -0.0946   23.3096  -26.4426 H   0  0  0  0  0  0  0  0  0  0  0  0
    1.4767   24.1800  -26.4426 H   0  0  0  0  0  0  0  0  0  0  0  0
   -1.7735   26.0162  -28.8100 H   0  0  0  0  0  0  0  0  0  0  0  0
   -3.8910   26.3580  -29.7710 H   0  0  0  0  0  0  0  0  0  0  0  0
   -5.9252   25.6591  -30.9017 H   0  0  0  0  0  0  0  0  0  0  0  0
   -4.2761   19.9055  -33.0121 H   0  0  0  0  0  0  0  0  0  0  0  0
   -5.7505   17.7351  -34.2072 H   0  0  0  0  0  0  0  0  0  0  0  0
   -6.9627   18.6066  -35.2061 H   0  0  0  0  0  0  0  0  0  0  0  0
   -5.2477   19.1409  -35.2061 H   0  0  0  0  0  0  0  0  0  0  0  0
   -8.4723   19.5493  -33.6531 H   0  0  0  0  0  0  0  0  0  0  0  0
   -9.3784   21.1802  -30.5645 H   0  0  0  0  0  0  0  0  0  0  0  0
   -9.5319   22.1390  -32.0758 H   0  0  0  0  0  0  0  0  0  0  0  0
   -9.9430   20.3903  -32.0758 H   0  0  0  0  0  0  0  0  0  0  0  0
   -7.0160   22.0429  -30.4295 H   0  0  0  0  0  0  0  0  0  0  0  0
   -2.2807   21.2392  -30.0227 H   0  0  0  0  0  0  0  0  0  0  0  0
   -0.2623   21.0193  -26.9231 H   0  0  0  0  0  0  0  0  0  0  0  0
   -1.4057   20.4006  -28.1626 H   0  0  0  0  0  0  0  0  0  0  0  0
    0.3038   19.8490  -28.1626 H   0  0  0  0  0  0  0  0  0  0  0  0
  1  2  1  0
  2  3  1  0
  3  4  2  0
  4  5  1  0
  5  6  1  0
  6  7  1  0
  7  8  2  0
  8  9  1  0
  9 10  2  0
 10 11  1  0
 11 12  2  0
 12 13  1  0
 13 14  1  0
 13 15  2  0
 15 16  1  0
 16 17  1  0
 16 18  2  0
  9 19  1  0
 19 20  1  0
 20 21  2  0
 21 22  1  0
 22 23  1  0
 21  3  1  0
 19  5  2  0
 18 11  1  0
  1 24  1  0
  1 25  1  0
  1 26  1  0
  4 27  1  0
  6 28  1  0
  7 29  1  0
 12 30  1  0
 14 31  1  0
 14 32  1  0
 14 33  1  0
 15 34  1  0
 17 35  1  0
 17 36  1  0
 17 37  1  0
 18 38  1  0
 20 39  1  0
 23 40  1  0
 23 41  1  0
 23 42  1  0
M  END
>  <smiles>  (45) 
COc1cc2[nH]cnc(=Nc3cc(C)cc(C)c3)c2cc1OC

>  <score_type>  (45) 
oracle

>  <origin>  (45) 
adgpu

>  <m_score__min__energy>  (45) 
-7.7300000000000004

>  <m_primary>  (45) 
energy

$$$$
45:0
     RDKit          3D

 26 27  0  0  0  0  0  0  0  0999 V2000
   -4.4820   21.5340  -33.0130 C   0  0  0  0  0  0  0  0  0  0  0  0
   -5.6260   21.7840  -32.1260 N   0  0  0  0  0  0  0  0  0  0  0  0
   -6.6850   20.8100  -32.0610 C   0  0  0  0  0  0  0  0  0  0  0  0
   -8.0100   21.1800  -32.3490 C   0  0  0  0  0  0  0  0  0  0  0  0
   -9.0360   20.2320  -32.2830 C   0  0  0  0  0  0  0  0  0  0  0  0
   -8.7480   18.9110  -31.9320 C   0  0  0  0  0  0  0  0  0  0  0  0
   -7.4330   18.5340  -31.6460 C   0  0  0  0  0  0  0  0  0  0  0  0
   -6.4040   19.4790  -31.7090 C   0  0  0  0  0  0  0  0  0  0  0  0
   -5.6940   22.9760  -31.3100 C   0  0  0  0  0  0  0  0  0  0  0  0
   -6.8580   23.3180  -30.5930 C   0  0  0  0  0  0  0  0  0  0  0  0
   -6.8730   24.4750  -29.8130 C   0  0  0  0  0  0  0  0  0  0  0  0
   -5.7400   25.2850  -29.7450 C   0  0  0  0  0  0  0  0  0  0  0  0
   -4.6010   24.9230  -30.4630 C   0  0  0  0  0  0  0  0  0  0  0  0
   -4.6030   23.7920  -31.2180 N   0  0  0  0  0  0  0  0  0  0  0  0
   -3.5847   21.3379  -32.4077 H   0  0  0  0  0  0  0  0  0  0  0  0
   -4.6941   20.6610  -33.6477 H   0  0  0  0  0  0  0  0  0  0  0  0
   -4.3106   22.4159  -33.6477 H   0  0  0  0  0  0  0  0  0  0  0  0
   -8.2408   22.2189  -32.6273 H   0  0  0  0  0  0  0  0  0  0  0  0
  -10.0715   20.5271  -32.5079 H   0  0  0  0  0  0  0  0  0  0  0  0
   -9.5567   18.1671  -31.8807 H   0  0  0  0  0  0  0  0  0  0  0  0
   -7.2071   17.4931  -31.3711 H   0  0  0  0  0  0  0  0  0  0  0  0
   -5.3703   19.1791  -31.4820 H   0  0  0  0  0  0  0  0  0  0  0  0
   -7.7498   22.6764  -30.6479 H   0  0  0  0  0  0  0  0  0  0  0  0
   -7.7787   24.7481  -29.2517 H   0  0  0  0  0  0  0  0  0  0  0  0
   -5.7448   26.1985  -29.1323 H   0  0  0  0  0  0  0  0  0  0  0  0
   -3.7002   25.5527  -30.4187 H   0  0  0  0  0  0  0  0  0  0  0  0
  1  2  1  0
  2  3  1  0
  3  4  2  0
  4  5  1  0
  5  6  2  0
  6  7  1  0
  7  8  2  0
  2  9  1  0
  9 10  2  0
 10 11  1  0
 11 12  2  0
 12 13  1  0
 13 14  2  0
  8  3  1  0
 14  9  1  0
  1 15  1  0
  1 16  1  0
  1 17  1  0
  4 18  1  0
  5 19  1  0
  6 20  1  0
  7 21  1  0
  8 22  1  0
 10 23  1  0
 11 24  1  0
 12 25  1  0
 13 26  1  0
M  END
>  <UniqueID>  (46) 
43

>  <SMILES>  (46) 
CN(c1ccccc1)c1ccccn1

>  <Energy>  (46) 
34.726115717995505

>  <Genealogy>  (46) 
CN(c1ccccc1)c1ccccn1 (3D coordinates assigned)
CN(c1ccccc1)c1ccccn1 (optimized conformer: 34.726115717995505 kcal/mol)

>  <smiles>  (46) 
CN(c1ccccc1)c1ccccn1

>  <score_type>  (46) 
oracle

>  <origin>  (46) 
adgpu

>  <m_score__min__energy>  (46) 
-6.1500000000000004

>  <m_primary>  (46) 
energy

$$$$
46:0
     RDKit          3D

 28 29  0  0  0  0  0  0  0  0999 V2000
   -9.3290   18.1960  -31.9320 C   0  0  0  0  0  0  0  0  0  0  0  0
   -9.4330   19.5890  -32.2050 O   0  0  0  0  0  0  0  0  0  0  0  0
   -8.4240   20.5250  -31.9370 C   0  0  0  0  0  0  0  0  0  0  0  0
   -7.2570   20.6240  -32.7200 C   0  0  0  0  0  0  0  0  0  0  0  0
   -6.2800   21.5750  -32.4120 C   0  0  0  0  0  0  0  0  0  0  0  0
   -6.4490   22.4410  -31.3200 C   0  0  0  0  0  0  0  0  0  0  0  0
   -5.4150   23.4470  -30.9960 C   0  0  0  0  0  0  0  0  0  0  0  0
   -5.5830   24.6910  -30.4090 C   0  0  0  0  0  0  0  0  0  0  0  0
   -6.8660   25.3160  -29.9630 C   0  0  0  0  0  0  0  0  0  0  0  0
   -4.3840   25.2970  -30.2940 N   0  0  0  0  0  0  0  0  0  0  0  0
   -3.4940   24.4790  -30.7760 O   0  0  0  0  0  0  0  0  0  0  0  0
   -4.0490   23.3710  -31.2090 C   0  0  0  0  0  0  0  0  0  0  0  0
   -3.2840   22.2400  -31.8200 C   0  0  0  0  0  0  0  0  0  0  0  0
   -7.6120   22.3410  -30.5420 C   0  0  0  0  0  0  0  0  0  0  0  0
   -8.5890   21.3900  -30.8500 C   0  0  0  0  0  0  0  0  0  0  0  0
   -9.3170   18.0355  -30.8438 H   0  0  0  0  0  0  0  0  0  0  0  0
  -10.1905   17.6711  -32.3706 H   0  0  0  0  0  0  0  0  0  0  0  0
   -8.3992   17.8048  -32.3706 H   0  0  0  0  0  0  0  0  0  0  0  0
   -7.1141   19.9500  -33.5775 H   0  0  0  0  0  0  0  0  0  0  0  0
   -5.3724   21.6454  -33.0295 H   0  0  0  0  0  0  0  0  0  0  0  0
   -6.9025   25.3338  -28.8637 H   0  0  0  0  0  0  0  0  0  0  0  0
   -6.9264   26.3444  -30.3486 H   0  0  0  0  0  0  0  0  0  0  0  0
   -7.7130   24.7296  -30.3486 H   0  0  0  0  0  0  0  0  0  0  0  0
   -2.8592   21.6119  -31.0231 H   0  0  0  0  0  0  0  0  0  0  0  0
   -3.9591   21.6350  -32.4431 H   0  0  0  0  0  0  0  0  0  0  0  0
   -2.4712   22.6414  -32.4431 H   0  0  0  0  0  0  0  0  0  0  0  0
   -7.7559   23.0149  -29.6846 H   0  0  0  0  0  0  0  0  0  0  0  0
   -9.4962   21.3211  -30.2318 H   0  0  0  0  0  0  0  0  0  0  0  0
  1  2  1  0
  2  3  1  0
  3  4  2  0
  4  5  1  0
  5  6  2  0
  6  7  1  0
  7  8  1  0
  8  9  1  0
  8 10  2  0
 10 11  1  0
 11 12  1  0
 12 13  1  0
  6 14  1  0
 14 15  2  0
 15  3  1  0
 12  7  2  0
  1 16  1  0
  1 17  1  0
  1 18  1  0
  4 19  1  0
  5 20  1  0
  9 21  1  0
  9 22  1  0
  9 23  1  0
 13 24  1  0
 13 25  1  0
 13 26  1  0
 14 27  1  0
 15 28  1  0
M  END
>  <UniqueID>  (47) 
44

>  <SMILES>  (47) 
COc1ccc(-c2c(C)noc2C)cc1

>  <Energy>  (47) 
61.05747690799684

>  <Genealogy>  (47) 
COc1ccc(-c2c(C)noc2C)cc1 (3D coordinates assigned)
COc1ccc(-c2c(C)noc2C)cc1 (optimized conformer: 61.05747690799684 kcal/mol)

>  <smiles>  (47) 
COc1ccc(-c2c(C)noc2C)cc1

>  <score_type>  (47) 
oracle

>  <origin>  (47) 
adgpu

>  <m_score__min__energy>  (47) 
-6.7999999999999998

>  <m_primary>  (47) 
energy

$$$$
47:0
     RDKit          3D

 29 30  0  0  0  0  0  0  0  0999 V2000
   -6.1360   25.2460  -29.3530 C   0  0  0  0  0  0  0  0  0  0  0  0
   -5.3060   25.8450  -30.4820 C   0  0  0  0  0  0  0  0  0  0  0  0
   -3.9890   25.2950  -30.4900 O   0  0  0  0  0  0  0  0  0  0  0  0
   -3.6640   23.9270  -30.4250 C   0  0  0  0  0  0  0  0  0  0  0  0
   -4.0840   23.0130  -31.4140 C   0  0  0  0  0  0  0  0  0  0  0  0
   -3.7180   21.6670  -31.3350 C   0  0  0  0  0  0  0  0  0  0  0  0
   -2.9340   21.2150  -30.2750 C   0  0  0  0  0  0  0  0  0  0  0  0
   -2.5190   22.1050  -29.2830 C   0  0  0  0  0  0  0  0  0  0  0  0
   -2.8850   23.4620  -29.3420 C   0  0  0  0  0  0  0  0  0  0  0  0
   -2.4390   24.3820  -28.2680 C   0  0  0  0  0  0  0  0  0  0  0  0
   -3.1450   24.4610  -27.0530 C   0  0  0  0  0  0  0  0  0  0  0  0
   -2.7150   25.3250  -26.0420 C   0  0  0  0  0  0  0  0  0  0  0  0
   -1.5760   26.1120  -26.2300 C   0  0  0  0  0  0  0  0  0  0  0  0
   -0.8640   26.0350  -27.4300 C   0  0  0  0  0  0  0  0  0  0  0  0
   -1.2900   25.1720  -28.4440 C   0  0  0  0  0  0  0  0  0  0  0  0
   -5.7127   25.5515  -28.3848 H   0  0  0  0  0  0  0  0  0  0  0  0
   -7.1728   25.6054  -29.4296 H   0  0  0  0  0  0  0  0  0  0  0  0
   -6.1216   24.1488  -29.4296 H   0  0  0  0  0  0  0  0  0  0  0  0
   -5.7939   25.6264  -31.4434 H   0  0  0  0  0  0  0  0  0  0  0  0
   -5.2332   26.9317  -30.3277 H   0  0  0  0  0  0  0  0  0  0  0  0
   -4.7038   23.3623  -32.2530 H   0  0  0  0  0  0  0  0  0  0  0  0
   -4.0495   20.9620  -32.1116 H   0  0  0  0  0  0  0  0  0  0  0  0
   -2.6420   20.1559  -30.2201 H   0  0  0  0  0  0  0  0  0  0  0  0
   -1.9009   21.7424  -28.4485 H   0  0  0  0  0  0  0  0  0  0  0  0
   -4.0395   23.8398  -26.8983 H   0  0  0  0  0  0  0  0  0  0  0  0
   -3.2743   25.3855  -25.0967 H   0  0  0  0  0  0  0  0  0  0  0  0
   -1.2397   26.7921  -25.4335 H   0  0  0  0  0  0  0  0  0  0  0  0
    0.0331   26.6544  -27.5770 H   0  0  0  0  0  0  0  0  0  0  0  0
   -0.7229   25.1110  -29.3846 H   0  0  0  0  0  0  0  0  0  0  0  0
  1  2  1  0
  2  3  1  0
  3  4  1  0
  4  5  2  0
  5  6  1  0
  6  7  2  0
  7  8  1  0
  8  9  2  0
  9 10  1  0
 10 11  2  0
 11 12  1  0
 12 13  2  0
 13 14  1  0
 14 15  2  0
  9  4  1  0
 15 10  1  0
  1 16  1  0
  1 17  1  0
  1 18  1  0
  2 19  1  0
  2 20  1  0
  5 21  1  0
  6 22  1  0
  7 23  1  0
  8 24  1  0
 11 25  1  0
 12 26  1  0
 13 27  1  0
 14 28  1  0
 15 29  1  0
M  END
>  <UniqueID>  (48) 
45

>  <SMILES>  (48) 
CCOc1ccccc1-c1ccccc1

>  <Energy>  (48) 
33.90178757174844

>  <Genealogy>  (48) 
CCOc1ccccc1-c1ccccc1 (3D coordinates assigned)
CCOc1ccccc1-c1ccccc1 (optimized conformer: 33.90178757174844 kcal/mol)

>  <smiles>  (48) 
CCOc1ccccc1-c1ccccc1

>  <score_type>  (48) 
oracle

>  <origin>  (48) 
adgpu

>  <m_score__min__energy>  (48) 
-6.0700000000000003

>  <m_primary>  (48) 
energy

$$$$
48:0
     RDKit          3D

 31 31  0  0  0  0  0  0  0  0999 V2000
   -7.0019   22.8664  -30.0156 H   0  0  0  0  0  0  0  0  0  0  0  0
   -6.5220   23.2150  -30.9420 C   0  0  0  0  0  0  0  0  0  0  0  0
   -6.6310   22.5220  -32.0360 N   0  0  0  0  0  0  0  0  0  0  0  0
   -7.3510   21.2880  -32.1970 C   0  0  0  0  0  0  0  0  0  0  0  0
   -8.7300   21.2910  -31.9480 C   0  0  0  0  0  0  0  0  0  0  0  0
   -9.2286   22.2256  -31.6516 H   0  0  0  0  0  0  0  0  0  0  0  0
   -9.4770   20.1170  -32.0730 C   0  0  0  0  0  0  0  0  0  0  0  0
  -10.5599   20.1322  -31.8802 H   0  0  0  0  0  0  0  0  0  0  0  0
   -8.8520   18.9250  -32.4420 C   0  0  0  0  0  0  0  0  0  0  0  0
   -9.4430   18.0017  -32.5331 H   0  0  0  0  0  0  0  0  0  0  0  0
   -7.4740   18.9000  -32.6970 C   0  0  0  0  0  0  0  0  0  0  0  0
   -6.7940   17.6070  -33.0410 C   0  0  0  0  0  0  0  0  0  0  0  0
   -6.5172   17.0807  -32.1156 H   0  0  0  0  0  0  0  0  0  0  0  0
   -7.4781   16.9783  -33.6298 H   0  0  0  0  0  0  0  0  0  0  0  0
   -5.8883   17.8144  -33.6298 H   0  0  0  0  0  0  0  0  0  0  0  0
   -6.7220   20.0770  -32.5550 C   0  0  0  0  0  0  0  0  0  0  0  0
   -5.6353   20.0548  -32.7240 H   0  0  0  0  0  0  0  0  0  0  0  0
   -5.7370   24.4940  -30.9510 C   0  0  1  0  0  0  0  0  0  0  0  0
   -5.9274   25.0043  -31.9067 H   0  0  0  0  0  0  0  0  0  0  0  0
   -6.1630   25.3690  -29.8500 C   0  0  0  0  0  0  0  0  0  0  0  0
   -6.4970   26.0580  -28.9830 N   0  0  0  0  0  0  0  0  0  0  0  0
   -4.2700   24.2120  -30.8340 C   0  0  0  0  0  0  0  0  0  0  0  0
   -3.7560   23.2540  -31.4770 O   0  0  0  0  0  0  0  0  0  0  0  0
   -3.4790   25.0260  -30.0140 O   0  0  0  0  0  0  0  0  0  0  0  0
   -2.7910   24.5470  -28.8610 C   0  0  0  0  0  0  0  0  0  0  0  0
   -2.1308   25.3397  -28.4792 H   0  0  0  0  0  0  0  0  0  0  0  0
   -2.2015   23.6622  -29.1432 H   0  0  0  0  0  0  0  0  0  0  0  0
   -3.7790   24.1500  -27.7700 C   0  0  0  0  0  0  0  0  0  0  0  0
   -3.3280   24.3312  -26.7832 H   0  0  0  0  0  0  0  0  0  0  0  0
   -4.6958   24.7495  -27.8698 H   0  0  0  0  0  0  0  0  0  0  0  0
   -4.0261   23.0828  -27.8698 H   0  0  0  0  0  0  0  0  0  0  0  0
  1  2  1  0
  2  3  2  0
  3  4  1  0
  4  5  2  0
  5  6  1  0
  5  7  1  0
  7  8  1  0
  7  9  2  0
  9 10  1  0
  9 11  1  0
 11 12  1  0
 12 13  1  0
 12 14  1  0
 12 15  1  0
 11 16  2  0
 16 17  1  0
  2 18  1  0
 18 19  1  6
 18 20  1  0
 20 21  3  0
 18 22  1  0
 22 23  2  0
 22 24  1  0
 24 25  1  0
 25 26  1  0
 25 27  1  0
 25 28  1  0
 28 29  1  0
 28 30  1  0
 28 31  1  0
 16  4  1  0
M  END
>  <UniqueID>  (49) 
46

>  <SMILES>  (49) 
CCOC(=O)[C@H](C#N)/C=N/c1cccc(C)c1

>  <Energy>  (49) 
23.50287964319963

>  <Genealogy>  (49) 
CCOC(=O)[C@H](C#N)C=Nc1cccc(C)c1 (chirality)
CCOC(=O)[C@H](C#N)/C=N/c1cccc(C)c1 (cis-trans isomerization)
CCOC(=O)[C@H](C#N)/C=N/c1cccc(C)c1 (3D coordinates assigned)
CCOC(=O)[C@H](C#N)/C=N/c1cccc(C)c1 (optimized conformer: 23.50287964319963 kcal/mol)

>  <smiles>  (49) 
CCOC(=O)C(C#N)C=Nc1cccc(C)c1

>  <score_type>  (49) 
oracle

>  <origin>  (49) 
adgpu

>  <m_score__min__energy>  (49) 
-6.9900000000000002

>  <m_primary>  (49) 
energy

$$$$
49:0
     RDKit          3D

 32 34  0  0  0  0  0  0  0  0999 V2000
   -4.6210   17.8370  -34.7240 N   0  0  0  0  0  0  0  0  0  0  0  0
   -4.4290   18.8110  -34.1290 C   0  0  0  0  0  0  0  0  0  0  0  0
   -4.1910   20.0220  -33.3860 C   0  0  0  0  0  0  0  0  0  0  0  0
   -3.0720   20.8230  -33.4590 C   0  0  0  0  0  0  0  0  0  0  0  0
   -1.9040   20.5610  -34.2340 N   0  0  0  0  0  0  0  0  0  0  0  0
   -3.2260   21.8940  -32.7160 O   0  0  0  0  0  0  0  0  0  0  0  0
   -4.4100   21.8400  -32.1440 C   0  0  0  0  0  0  0  0  0  0  0  0
   -4.8930   22.8850  -31.2150 C   0  0  0  0  0  0  0  0  0  0  0  0
   -4.4480   22.9370  -29.8810 C   0  0  0  0  0  0  0  0  0  0  0  0
   -4.9070   23.9430  -29.0250 C   0  0  0  0  0  0  0  0  0  0  0  0
   -5.7990   24.9110  -29.4940 C   0  0  0  0  0  0  0  0  0  0  0  0
   -6.2270   24.8790  -30.8230 C   0  0  0  0  0  0  0  0  0  0  0  0
   -5.7710   23.8760  -31.6840 C   0  0  0  0  0  0  0  0  0  0  0  0
   -5.0730   20.6780  -32.5440 C   0  0  0  0  0  0  0  0  0  0  0  0
   -6.4700   20.2810  -32.2600 C   0  0  0  0  0  0  0  0  0  0  0  0
   -6.7750   18.9510  -31.9220 C   0  0  0  0  0  0  0  0  0  0  0  0
   -8.0950   18.5770  -31.6550 C   0  0  0  0  0  0  0  0  0  0  0  0
   -9.1210   19.5230  -31.7290 C   0  0  0  0  0  0  0  0  0  0  0  0
   -8.8270   20.8460  -32.0700 C   0  0  0  0  0  0  0  0  0  0  0  0
   -7.5080   21.2250  -32.3380 C   0  0  0  0  0  0  0  0  0  0  0  0
   -1.3420   19.6980  -34.0550 H   0  0  0  0  0  0  0  0  0  0  0  0
   -1.5990   21.2180  -34.9860 H   0  0  0  0  0  0  0  0  0  0  0  0
   -3.7369   22.1840  -29.5105 H   0  0  0  0  0  0  0  0  0  0  0  0
   -4.5651   23.9724  -27.9799 H   0  0  0  0  0  0  0  0  0  0  0  0
   -6.1638   25.6975  -28.8170 H   0  0  0  0  0  0  0  0  0  0  0  0
   -6.9245   25.6447  -31.1934 H   0  0  0  0  0  0  0  0  0  0  0  0
   -6.1013   23.8630  -32.7332 H   0  0  0  0  0  0  0  0  0  0  0  0
   -5.9716   18.2016  -31.8674 H   0  0  0  0  0  0  0  0  0  0  0  0
   -8.3268   17.5359  -31.3861 H   0  0  0  0  0  0  0  0  0  0  0  0
  -10.1592   19.2265  -31.5190 H   0  0  0  0  0  0  0  0  0  0  0  0
   -9.6347   21.5905  -32.1277 H   0  0  0  0  0  0  0  0  0  0  0  0
   -7.2820   22.2663  -32.6110 H   0  0  0  0  0  0  0  0  0  0  0  0
  1  2  3  0
  2  3  1  0
  3  4  2  0
  4  5  1  0
  4  6  1  0
  6  7  1  0
  7  8  1  0
  8  9  2  0
  9 10  1  0
 10 11  2  0
 11 12  1  0
 12 13  2  0
  7 14  2  0
 14 15  1  0
 15 16  2  0
 16 17  1  0
 17 18  2  0
 18 19  1  0
 19 20  2  0
 14  3  1  0
 20 15  1  0
 13  8  1  0
  5 21  1  0
  5 22  1  0
  9 23  1  0
 10 24  1  0
 11 25  1  0
 12 26  1  0
 13 27  1  0
 16 28  1  0
 17 29  1  0
 18 30  1  0
 19 31  1  0
 20 32  1  0
M  END
>  <UniqueID>  (50) 
47

>  <SMILES>  (50) 
N#Cc1c(N)oc(-c2ccccc2)c1-c1ccccc1

>  <Energy>  (50) 
69.43728088661783

>  <Genealogy>  (50) 
N#Cc1c(N)oc(-c2ccccc2)c1-c1ccccc1 (3D coordinates assigned)
N#Cc1c(N)oc(-c2ccccc2)c1-c1ccccc1 (optimized conformer: 69.43728088661783 kcal/mol)

>  <smiles>  (50) 
N#Cc1c(N)oc(-c2ccccc2)c1-c1ccccc1

>  <score_type>  (50) 
oracle

>  <origin>  (50) 
adgpu

>  <m_score__min__energy>  (50) 
-8.0500000000000007

>  <m_primary>  (50) 
energy

$$$$
