0:0
     RDKit          3D

 32 34  0  0  0  0  0  0  0  0999 V2000
  -10.3700   18.9740  -32.9670 H   0  0  0  0  0  0  0  0  0  0  0  0
   -9.8160   19.7980  -32.6430 N   0  0  0  0  0  0  0  0  0  0  0  0
   -8.5210   19.8100  -32.6650 C   0  0  0  0  0  0  0  0  0  0  0  0
   -7.8580   20.9110  -32.2290 N   0  0  0  0  0  0  0  0  0  0  0  0
   -6.4990   20.9730  -32.2240 C   0  0  0  0  0  0  0  0  0  0  0  0
   -5.8300   22.2080  -31.7400 C   0  0  0  0  0  0  0  0  0  0  0  0
   -4.4720   22.1700  -31.3710 C   0  0  0  0  0  0  0  0  0  0  0  0
   -3.9150   21.2239  -31.4389 H   0  0  0  0  0  0  0  0  0  0  0  0
   -3.8250   23.3240  -30.9190 C   0  0  0  0  0  0  0  0  0  0  0  0
   -2.7654   23.2811  -30.6268 H   0  0  0  0  0  0  0  0  0  0  0  0
   -4.5230   24.5320  -30.8380 C   0  0  0  0  0  0  0  0  0  0  0  0
   -3.8780   25.6780  -30.3890 O   0  0  0  0  0  0  0  0  0  0  0  0
   -5.8670   24.5870  -31.2120 C   0  0  0  0  0  0  0  0  0  0  0  0
   -6.4147   25.5390  -31.1510 H   0  0  0  0  0  0  0  0  0  0  0  0
   -6.5190   23.4350  -31.6640 C   0  0  0  0  0  0  0  0  0  0  0  0
   -7.5765   23.4871  -31.9621 H   0  0  0  0  0  0  0  0  0  0  0  0
   -5.7690   19.8740  -32.6980 C   0  0  0  0  0  0  0  0  0  0  0  0
   -4.6695   19.9024  -32.7175 H   0  0  0  0  0  0  0  0  0  0  0  0
   -6.4580   18.7380  -33.1470 C   0  0  0  0  0  0  0  0  0  0  0  0
   -5.7120   17.5610  -33.6600 C   0  0  0  0  0  0  0  0  0  0  0  0
   -6.1350   16.2530  -33.3580 C   0  0  0  0  0  0  0  0  0  0  0  0
   -7.0275   16.0978  -32.7341 H   0  0  0  0  0  0  0  0  0  0  0  0
   -5.4280   15.1490  -33.8460 C   0  0  0  0  0  0  0  0  0  0  0  0
   -5.7661   14.1303  -33.6053 H   0  0  0  0  0  0  0  0  0  0  0  0
   -4.2940   15.3380  -34.6380 C   0  0  0  0  0  0  0  0  0  0  0  0
   -3.6090   14.2660  -35.1090 F   0  0  0  0  0  0  0  0  0  0  0  0
   -3.8630   16.6310  -34.9440 C   0  0  0  0  0  0  0  0  0  0  0  0
   -2.9687   16.7788  -35.5672 H   0  0  0  0  0  0  0  0  0  0  0  0
   -4.5670   17.7380  -34.4590 C   0  0  0  0  0  0  0  0  0  0  0  0
   -4.2234   18.7539  -34.7037 H   0  0  0  0  0  0  0  0  0  0  0  0
   -7.8230   18.7300  -33.1190 N   0  0  0  0  0  0  0  0  0  0  0  0
   -8.3430   17.8780  -33.4320 H   0  0  0  0  0  0  0  0  0  0  0  0
  1  2  1  0
  2  3  2  0
  3  4  1  0
  4  5  2  0
  5  6  1  0
  6  7  2  0
  7  8  1  0
  7  9  1  0
  9 10  1  0
  9 11  2  0
 11 12  1  0
 11 13  1  0
 13 14  1  0
 13 15  2  0
 15 16  1  0
  5 17  1  0
 17 18  1  0
 17 19  2  0
 19 20  1  0
 20 21  2  0
 21 22  1  0
 21 23  1  0
 23 24  1  0
 23 25  2  0
 25 26  1  0
 25 27  1  0
 27 28  1  0
 27 29  2  0
 29 30  1  0
 19 31  1  0
 31 32  1  0
 31  3  1  0
 15  6  1  0
 29 20  1  0
M  CHG  1  12  -1
M  END
>  <UniqueID>  (1) 
1

>  <SMILES>  (1) 
[H]/N=c1/nc(-c2ccc([O-])cc2)cc(-c2ccc(F)cc2)[nH]1

>  <Energy>  (1) 
44.51735081852266

>  <Genealogy>  (1) 
N=c1nc(-c2ccc([O-])cc2)cc(-c2ccc(F)cc2)[nH]1 (protonated)
[H]/N=c1/nc(-c2ccc([O-])cc2)cc(-c2ccc(F)cc2)[nH]1 (cis-trans isomerization)
[H]/N=c1/nc(-c2ccc([O-])cc2)cc(-c2ccc(F)cc2)[nH]1 (3D coordinates assigned)
[H]/N=c1/nc(-c2ccc([O-])cc2)cc(-c2ccc(F)cc2)[nH]1 (optimized conformer: 44.51735081852266 kcal/mol)

>  <smiles>  (1) 
N=c1nc(-c2ccc(O)cc2)cc(-c2ccc(F)cc2)[nH]1

>  <score_type>  (1) 
oracle

>  <origin>  (1) 
adgpu

>  <m_score__min__energy>  (1) 
-10.380000000000001

>  <m_primary>  (1) 
energy

$$$$
1:0
     RDKit          3D

 49 52  0  0  0  0  0  0  0  0999 V2000
   -0.6900   27.0690  -27.7750 C   0  0  0  0  0  0  0  0  0  0  0  0
   -1.2210   26.2970  -28.8470 O   0  0  0  0  0  0  0  0  0  0  0  0
   -1.4520   24.9140  -28.7900 C   0  0  0  0  0  0  0  0  0  0  0  0
   -0.5410   24.0220  -28.2000 C   0  0  0  0  0  0  0  0  0  0  0  0
   -0.8190   22.6550  -28.1620 C   0  0  0  0  0  0  0  0  0  0  0  0
   -2.0130   22.1490  -28.7120 C   0  0  0  0  0  0  0  0  0  0  0  0
   -2.3290   20.7810  -28.6530 O   0  0  0  0  0  0  0  0  0  0  0  0
   -2.6750   20.0790  -27.4630 C   0  0  0  0  0  0  0  0  0  0  0  0
   -2.9230   23.0400  -29.3200 C   0  0  0  0  0  0  0  0  0  0  0  0
   -4.1830   22.5510  -29.9300 C   0  0  0  0  0  0  0  0  0  0  0  0
   -5.4110   23.1700  -29.6600 C   0  0  0  0  0  0  0  0  0  0  0  0
   -6.5520   22.6960  -30.2240 N   0  0  0  0  0  0  0  0  0  0  0  0
   -6.5340   21.6170  -31.0520 C   0  0  0  0  0  0  0  0  0  0  0  0
   -7.7550   21.1290  -31.6330 N   0  0  0  0  0  0  0  0  0  0  0  0
   -8.8620   22.0000  -31.9890 C   0  0  0  0  0  0  0  0  0  0  0  0
  -10.0490   21.0780  -32.2400 C   0  0  0  0  0  0  0  0  0  0  0  0
   -9.4660   19.6790  -32.4330 C   0  0  0  0  0  0  0  0  0  0  0  0
   -8.0720   19.7160  -31.8010 C   0  0  1  0  0  0  0  0  0  0  0  0
   -7.0460   19.0160  -32.6710 C   0  0  0  0  0  0  0  0  0  0  0  0
   -6.6140   17.7200  -32.3530 C   0  0  0  0  0  0  0  0  0  0  0  0
   -5.6760   17.0770  -33.1620 C   0  0  0  0  0  0  0  0  0  0  0  0
   -5.1820   17.7340  -34.2910 C   0  0  0  0  0  0  0  0  0  0  0  0
   -5.6170   18.9830  -34.5970 N   0  0  0  0  0  0  0  0  0  0  0  0
   -6.5300   19.6320  -33.8250 C   0  0  0  0  0  0  0  0  0  0  0  0
   -5.3530   20.9970  -31.3220 N   0  0  0  0  0  0  0  0  0  0  0  0
   -4.1880   21.4370  -30.7800 C   0  0  0  0  0  0  0  0  0  0  0  0
   -2.6340   24.4160  -29.3440 C   0  0  0  0  0  0  0  0  0  0  0  0
   -0.9958   26.6245  -26.8164 H   0  0  0  0  0  0  0  0  0  0  0  0
    0.4080   27.0805  -27.8402 H   0  0  0  0  0  0  0  0  0  0  0  0
   -1.0720   28.0985  -27.8402 H   0  0  0  0  0  0  0  0  0  0  0  0
    0.3954   24.4027  -27.7662 H   0  0  0  0  0  0  0  0  0  0  0  0
   -0.0984   21.9656  -27.6978 H   0  0  0  0  0  0  0  0  0  0  0  0
   -2.3810   20.6755  -26.5868 H   0  0  0  0  0  0  0  0  0  0  0  0
   -3.7612   19.9067  -27.4416 H   0  0  0  0  0  0  0  0  0  0  0  0
   -2.1500   19.1126  -27.4416 H   0  0  0  0  0  0  0  0  0  0  0  0
   -5.4508   24.0415  -28.9900 H   0  0  0  0  0  0  0  0  0  0  0  0
   -9.0835   22.6946  -31.1653 H   0  0  0  0  0  0  0  0  0  0  0  0
   -8.6290   22.6113  -32.8733 H   0  0  0  0  0  0  0  0  0  0  0  0
  -10.7317   21.0914  -31.3776 H   0  0  0  0  0  0  0  0  0  0  0  0
  -10.6267   21.3974  -33.1200 H   0  0  0  0  0  0  0  0  0  0  0  0
  -10.0947   18.9295  -31.9300 H   0  0  0  0  0  0  0  0  0  0  0  0
   -9.4205   19.4030  -33.4968 H   0  0  0  0  0  0  0  0  0  0  0  0
   -8.0538   19.1823  -30.8393 H   0  0  0  0  0  0  0  0  0  0  0  0
   -7.0150   17.2098  -31.4648 H   0  0  0  0  0  0  0  0  0  0  0  0
   -5.3294   16.0632  -32.9129 H   0  0  0  0  0  0  0  0  0  0  0  0
   -4.4391   17.2386  -34.9334 H   0  0  0  0  0  0  0  0  0  0  0  0
   -6.8656   20.6416  -34.1043 H   0  0  0  0  0  0  0  0  0  0  0  0
   -3.2458   20.9175  -31.0089 H   0  0  0  0  0  0  0  0  0  0  0  0
   -3.3500   25.1114  -29.8063 H   0  0  0  0  0  0  0  0  0  0  0  0
  1  2  1  0
  2  3  1  0
  3  4  2  0
  4  5  1  0
  5  6  2  0
  6  7  1  0
  7  8  1  0
  6  9  1  0
  9 10  1  0
 10 11  2  0
 11 12  1  0
 12 13  2  0
 13 14  1  0
 14 15  1  0
 15 16  1  0
 16 17  1  0
 17 18  1  0
 18 19  1  0
 19 20  2  0
 20 21  1  0
 21 22  2  0
 22 23  1  0
 23 24  2  0
 13 25  1  0
 25 26  2  0
  9 27  2  0
 27  3  1  0
 26 10  1  0
 18 14  1  0
 24 19  1  0
  1 28  1  0
  1 29  1  0
  1 30  1  0
  4 31  1  0
  5 32  1  0
  8 33  1  0
  8 34  1  0
  8 35  1  0
 11 36  1  0
 15 37  1  0
 15 38  1  0
 16 39  1  0
 16 40  1  0
 17 41  1  0
 17 42  1  0
 18 43  1  1
 20 44  1  0
 21 45  1  0
 22 46  1  0
 24 47  1  0
 26 48  1  0
 27 49  1  0
M  END
>  <UniqueID>  (2) 
2

>  <SMILES>  (2) 
COc1ccc(OC)c(-c2cnc(N3CCC[C@H]3c3cccnc3)nc2)c1

>  <Energy>  (2) 
59.7152407655541

>  <Genealogy>  (2) 
COc1ccc(OC)c(-c2cnc(N3CCC[C@H]3c3cccnc3)nc2)c1 (chirality)
COc1ccc(OC)c(-c2cnc(N3CCC[C@H]3c3cccnc3)nc2)c1 (3D coordinates assigned)
COc1ccc(OC)c(-c2cnc(N3CCC[C@H]3c3cccnc3)nc2)c1 (nonaromatic ring conformer: 59.7152407655541 kcal/mol)

>  <smiles>  (2) 
COc1ccc(OC)c(-c2cnc(N3CCCC3c3cccnc3)nc2)c1

>  <score_type>  (2) 
oracle

>  <origin>  (2) 
adgpu

>  <m_score__min__energy>  (2) 
-8.3200000000000003

>  <m_primary>  (2) 
energy

$$$$
2:0
     RDKit          3D

 50 53  0  0  0  0  0  0  0  0999 V2000
   -7.5807   24.9702  -30.6401 H   0  0  0  0  0  0  0  0  0  0  0  0
   -6.5830   24.5100  -30.6940 C   0  0  0  0  0  0  0  0  0  0  0  0
   -5.4680   25.2050  -30.2190 C   0  0  0  0  0  0  0  0  0  0  0  0
   -5.5864   26.2156  -29.8012 H   0  0  0  0  0  0  0  0  0  0  0  0
   -4.2010   24.6150  -30.2750 C   0  0  0  0  0  0  0  0  0  0  0  0
   -3.0960   25.2970  -29.7810 O   0  0  0  0  0  0  0  0  0  0  0  0
   -4.0480   23.3350  -30.8200 C   0  0  0  0  0  0  0  0  0  0  0  0
   -3.0528   22.8673  -30.8501 H   0  0  0  0  0  0  0  0  0  0  0  0
   -5.1640   22.6440  -31.3300 C   0  0  0  0  0  0  0  0  0  0  0  0
   -5.0570   21.3140  -31.8670 N   0  0  0  0  0  0  0  0  0  0  0  0
   -4.0470   20.8110  -32.5220 C   0  0  0  0  0  0  0  0  0  0  0  0
   -2.9730   21.5820  -32.8530 N   0  0  0  0  0  0  0  0  0  0  0  0
   -1.9210   21.0790  -33.5490 C   0  0  0  0  0  0  0  0  0  0  0  0
   -0.8290   21.8880  -33.8700 C   0  0  0  0  0  0  0  0  0  0  0  0
   -0.8177   22.9433  -33.5597 H   0  0  0  0  0  0  0  0  0  0  0  0
    0.2590   21.3550  -34.5910 C   0  0  0  0  0  0  0  0  0  0  0  0
    1.3760   22.1330  -34.9330 O   0  0  0  0  0  0  0  0  0  0  0  0
    1.3440   23.2470  -35.8180 C   0  0  0  0  0  0  0  0  0  0  0  0
    1.3172   24.1787  -35.2339 H   0  0  0  0  0  0  0  0  0  0  0  0
    2.2428   23.2375  -36.4521 H   0  0  0  0  0  0  0  0  0  0  0  0
    0.4472   23.1859  -36.4521 H   0  0  0  0  0  0  0  0  0  0  0  0
    0.2390   20.0060  -34.9880 C   0  0  0  0  0  0  0  0  0  0  0  0
    1.3380   19.5060  -35.7050 O   0  0  0  0  0  0  0  0  0  0  0  0
    2.6030   19.1970  -35.1290 C   0  0  0  0  0  0  0  0  0  0  0  0
    2.5212   19.2170  -34.0322 H   0  0  0  0  0  0  0  0  0  0  0  0
    2.9194   18.1952  -35.4549 H   0  0  0  0  0  0  0  0  0  0  0  0
    3.3456   19.9401  -35.4549 H   0  0  0  0  0  0  0  0  0  0  0  0
   -0.8680   19.1970  -34.6600 C   0  0  0  0  0  0  0  0  0  0  0  0
   -0.8859   18.1409  -34.9672 H   0  0  0  0  0  0  0  0  0  0  0  0
   -1.9420   19.7330  -33.9460 C   0  0  0  0  0  0  0  0  0  0  0  0
   -3.0140   18.9640  -33.6280 N   0  0  0  0  0  0  0  0  0  0  0  0
   -4.0780   19.4660  -32.9380 C   0  0  0  0  0  0  0  0  0  0  0  0
   -5.0910   18.7080  -32.6250 N   0  0  0  0  0  0  0  0  0  0  0  0
   -5.2980   17.3370  -33.0090 C   0  0  0  0  0  0  0  0  0  0  0  0
   -4.2330   16.4150  -33.0480 C   0  0  0  0  0  0  0  0  0  0  0  0
   -3.2217   16.7336  -32.7549 H   0  0  0  0  0  0  0  0  0  0  0  0
   -4.4560   15.0990  -33.4570 C   0  0  0  0  0  0  0  0  0  0  0  0
   -3.6236   14.3801  -33.4707 H   0  0  0  0  0  0  0  0  0  0  0  0
   -5.7310   14.6940  -33.8480 C   0  0  0  0  0  0  0  0  0  0  0  0
   -5.9051   13.6537  -34.1602 H   0  0  0  0  0  0  0  0  0  0  0  0
   -6.7880   15.6070  -33.8440 C   0  0  0  0  0  0  0  0  0  0  0  0
   -7.7902   15.2852  -34.1634 H   0  0  0  0  0  0  0  0  0  0  0  0
   -6.5770   16.9380  -33.4330 C   0  0  0  0  0  0  0  0  0  0  0  0
   -7.6120   17.8880  -33.4250 O   0  0  0  0  0  0  0  0  0  0  0  0
   -8.0720   18.5690  -32.2620 C   0  0  0  0  0  0  0  0  0  0  0  0
   -7.7164   18.0425  -31.3641 H   0  0  0  0  0  0  0  0  0  0  0  0
   -7.6832   19.5980  -32.2618 H   0  0  0  0  0  0  0  0  0  0  0  0
   -9.1717   18.5925  -32.2618 H   0  0  0  0  0  0  0  0  0  0  0  0
   -6.4330   23.2300  -31.2380 C   0  0  0  0  0  0  0  0  0  0  0  0
   -7.3164   22.6806  -31.5955 H   0  0  0  0  0  0  0  0  0  0  0  0
  1  2  1  0
  2  3  2  0
  3  4  1  0
  3  5  1  0
  5  6  1  0
  5  7  2  0
  7  8  1  0
  7  9  1  0
  9 10  1  0
 10 11  2  0
 11 12  1  0
 12 13  1  0
 13 14  2  0
 14 15  1  0
 14 16  1  0
 16 17  1  0
 17 18  1  0
 18 19  1  0
 18 20  1  0
 18 21  1  0
 16 22  2  0
 22 23  1  0
 23 24  1  0
 24 25  1  0
 24 26  1  0
 24 27  1  0
 22 28  1  0
 28 29  1  0
 28 30  2  0
 30 31  1  0
 31 32  1  0
 32 33  2  0
 33 34  1  0
 34 35  2  0
 35 36  1  0
 35 37  1  0
 37 38  1  0
 37 39  2  0
 39 40  1  0
 39 41  1  0
 41 42  1  0
 41 43  2  0
 43 44  1  0
 44 45  1  0
 45 46  1  0
 45 47  1  0
 45 48  1  0
  9 49  2  0
 49 50  1  0
 49  2  1  0
 32 11  1  0
 43 34  1  0
 30 13  1  0
M  CHG  3   6  -1  12  -1  31  -1
M  END
>  <UniqueID>  (3) 
3

>  <SMILES>  (3) 
COc1ccccc1/N=c1\[n-]c2cc(OC)c(OC)cc2[n-]\c1=N/c1cccc([O-])c1

>  <Energy>  (3) 
70.19692668530429

>  <Genealogy>  (3) 
COc1ccccc1N=c1[n-]c2cc(OC)c(OC)cc2[n-]c1=Nc1cccc([O-])c1 (protonated)
COc1ccccc1/N=c1\[n-]c2cc(OC)c(OC)cc2[n-]\c1=N/c1cccc([O-])c1 (cis-trans isomerization)
COc1ccccc1/N=c1\[n-]c2cc(OC)c(OC)cc2[n-]\c1=N/c1cccc([O-])c1 (3D coordinates assigned)
COc1ccccc1/N=c1\[n-]c2cc(OC)c(OC)cc2[n-]\c1=N/c1cccc([O-])c1 (optimized conformer: 70.19692668530429 kcal/mol)

>  <smiles>  (3) 
COc1ccccc1N=c1[nH]c2cc(OC)c(OC)cc2[nH]c1=Nc1cccc(O)c1

>  <score_type>  (3) 
oracle

>  <origin>  (3) 
adgpu

>  <m_score__min__energy>  (3) 
-10.99

>  <m_primary>  (3) 
energy

$$$$
3:0
     RDKit          3D

 49 52  0  0  0  0  0  0  0  0999 V2000
   -4.8490   18.2820  -34.3400 C   0  0  0  0  0  0  0  0  0  0  0  0
   -5.6400   19.3390  -33.6410 C   0  0  0  0  0  0  0  0  0  0  0  0
   -5.2680   20.6640  -33.4520 C   0  0  0  0  0  0  0  0  0  0  0  0
   -6.2050   21.3130  -32.7190 N   0  0  0  0  0  0  0  0  0  0  0  0
   -6.1340   22.6900  -32.3180 C   0  0  0  0  0  0  0  0  0  0  0  0
   -6.9490   23.5160  -32.8130 O   0  0  0  0  0  0  0  0  0  0  0  0
   -5.1530   23.1520  -31.3090 C   0  0  0  0  0  0  0  0  0  0  0  0
   -3.9000   22.5250  -31.2000 C   0  0  0  0  0  0  0  0  0  0  0  0
   -2.9740   22.9560  -30.2470 C   0  0  0  0  0  0  0  0  0  0  0  0
   -3.2800   24.0270  -29.3990 C   0  0  0  0  0  0  0  0  0  0  0  0
   -2.1150   24.5370  -28.1810 S   0  0  0  0  0  0  0  0  0  0  0  0
   -2.7900   24.7090  -26.8480 O   0  0  0  0  0  0  0  0  0  0  0  0
   -1.5380   25.8580  -28.6080 O   0  0  0  0  0  0  0  0  0  0  0  0
   -0.8530   23.3470  -28.0400 N   0  0  0  0  0  0  0  0  0  0  0  0
    0.5400   23.7650  -28.2110 C   0  0  0  0  0  0  0  0  0  0  0  0
   -1.1710   21.9620  -27.8060 C   0  0  0  0  0  0  0  0  0  0  0  0
   -2.4470   21.5890  -27.3460 C   0  0  0  0  0  0  0  0  0  0  0  0
   -2.7490   20.2440  -27.1100 C   0  0  0  0  0  0  0  0  0  0  0  0
   -1.7820   19.2600  -27.3260 C   0  0  0  0  0  0  0  0  0  0  0  0
   -0.5090   19.6180  -27.7750 C   0  0  0  0  0  0  0  0  0  0  0  0
   -0.2020   20.9610  -28.0120 C   0  0  0  0  0  0  0  0  0  0  0  0
   -4.5230   24.6650  -29.5120 C   0  0  0  0  0  0  0  0  0  0  0  0
   -5.4500   24.2350  -30.4630 C   0  0  0  0  0  0  0  0  0  0  0  0
   -7.1490   20.3960  -32.4110 C   0  0  0  0  0  0  0  0  0  0  0  0
   -8.2770   20.5500  -31.5950 C   0  0  0  0  0  0  0  0  0  0  0  0
   -9.0990   19.4290  -31.3870 C   0  0  0  0  0  0  0  0  0  0  0  0
   -8.7760   18.1840  -31.9690 C   0  0  0  0  0  0  0  0  0  0  0  0
   -7.6240   18.0480  -32.7650 C   0  0  0  0  0  0  0  0  0  0  0  0
   -6.8310   19.1790  -32.9620 C   0  0  0  0  0  0  0  0  0  0  0  0
   -4.3641   17.6340  -33.5950 H   0  0  0  0  0  0  0  0  0  0  0  0
   -5.5193   17.6787  -34.9698 H   0  0  0  0  0  0  0  0  0  0  0  0
   -4.0811   18.7549  -34.9698 H   0  0  0  0  0  0  0  0  0  0  0  0
   -4.3460   21.1205  -33.8411 H   0  0  0  0  0  0  0  0  0  0  0  0
   -3.6468   21.6896  -31.8693 H   0  0  0  0  0  0  0  0  0  0  0  0
   -2.0001   22.4516  -30.1625 H   0  0  0  0  0  0  0  0  0  0  0  0
    1.0048   23.9045  -27.2238 H   0  0  0  0  0  0  0  0  0  0  0  0
    1.0889   22.9920  -28.7688 H   0  0  0  0  0  0  0  0  0  0  0  0
    0.5727   24.7125  -28.7688 H   0  0  0  0  0  0  0  0  0  0  0  0
   -3.2119   22.3599  -27.1709 H   0  0  0  0  0  0  0  0  0  0  0  0
   -3.7503   19.9607  -26.7535 H   0  0  0  0  0  0  0  0  0  0  0  0
   -2.0230   18.2026  -27.1424 H   0  0  0  0  0  0  0  0  0  0  0  0
    0.2529   18.8424  -27.9423 H   0  0  0  0  0  0  0  0  0  0  0  0
    0.8035   21.2379  -28.3618 H   0  0  0  0  0  0  0  0  0  0  0  0
   -4.7688   25.5075  -28.8489 H   0  0  0  0  0  0  0  0  0  0  0  0
   -6.4196   24.7470  -30.5511 H   0  0  0  0  0  0  0  0  0  0  0  0
   -8.5125   21.5191  -31.1309 H   0  0  0  0  0  0  0  0  0  0  0  0
  -10.0017   19.5226  -30.7654 H   0  0  0  0  0  0  0  0  0  0  0  0
   -9.4289   17.3152  -31.7991 H   0  0  0  0  0  0  0  0  0  0  0  0
   -7.3571   17.0815  -33.2173 H   0  0  0  0  0  0  0  0  0  0  0  0
  1  2  1  0
  2  3  2  0
  3  4  1  0
  4  5  1  0
  5  6  2  0
  5  7  1  0
  7  8  2  0
  8  9  1  0
  9 10  2  0
 10 11  1  0
 11 12  2  0
 11 13  2  0
 11 14  1  0
 14 15  1  0
 14 16  1  0
 16 17  2  0
 17 18  1  0
 18 19  2  0
 19 20  1  0
 20 21  2  0
 10 22  1  0
 22 23  2  0
  4 24  1  0
 24 25  2  0
 25 26  1  0
 26 27  2  0
 27 28  1  0
 28 29  2  0
 29  2  1  0
 23  7  1  0
 29 24  1  0
 21 16  1  0
  1 30  1  0
  1 31  1  0
  1 32  1  0
  3 33  1  0
  8 34  1  0
  9 35  1  0
 15 36  1  0
 15 37  1  0
 15 38  1  0
 17 39  1  0
 18 40  1  0
 19 41  1  0
 20 42  1  0
 21 43  1  0
 22 44  1  0
 23 45  1  0
 25 46  1  0
 26 47  1  0
 27 48  1  0
 28 49  1  0
M  END
>  <UniqueID>  (4) 
4

>  <SMILES>  (4) 
Cc1cn(C(=O)c2ccc(S(=O)(=O)N(C)c3ccccc3)cc2)c2ccccc12

>  <Energy>  (4) 
97.0604969691688

>  <Genealogy>  (4) 
Cc1cn(C(=O)c2ccc(S(=O)(=O)N(C)c3ccccc3)cc2)c2ccccc12 (3D coordinates assigned)
Cc1cn(C(=O)c2ccc(S(=O)(=O)N(C)c3ccccc3)cc2)c2ccccc12 (optimized conformer: 97.0604969691688 kcal/mol)

>  <smiles>  (4) 
Cc1cn(C(=O)c2ccc(S(=O)(=O)N(C)c3ccccc3)cc2)c2ccccc12

>  <score_type>  (4) 
oracle

>  <origin>  (4) 
adgpu

>  <m_score__min__energy>  (4) 
-9.9399999999999995

>  <m_primary>  (4) 
energy

$$$$
4:0
     RDKit          3D

 47 49  0  0  0  0  0  0  0  0999 V2000
   -8.6070   22.5470  -31.5870 C   0  0  0  0  0  0  0  0  0  0  0  0
   -7.2740   23.1880  -31.3050 C   0  0  0  0  0  0  0  0  0  0  0  0
   -7.2170   24.3210  -30.4770 C   0  0  0  0  0  0  0  0  0  0  0  0
   -5.9950   24.9330  -30.1880 C   0  0  0  0  0  0  0  0  0  0  0  0
   -4.8020   24.4230  -30.7250 C   0  0  0  0  0  0  0  0  0  0  0  0
   -3.5270   25.0290  -30.4660 N   0  0  0  0  0  0  0  0  0  0  0  0
   -2.4180   24.5300  -29.2270 S   0  0  0  0  0  0  0  0  0  0  0  0
   -3.1230   24.5450  -27.8970 O   0  0  0  0  0  0  0  0  0  0  0  0
   -1.2630   25.4920  -29.1750 O   0  0  0  0  0  0  0  0  0  0  0  0
   -1.8640   22.8900  -29.5580 C   0  0  0  0  0  0  0  0  0  0  0  0
   -1.5210   22.0500  -28.4940 C   0  0  0  0  0  0  0  0  0  0  0  0
   -1.1200   20.7370  -28.7390 C   0  0  0  0  0  0  0  0  0  0  0  0
   -1.0770   20.2480  -30.0480 C   0  0  0  0  0  0  0  0  0  0  0  0
   -1.4410   21.0760  -31.1230 C   0  0  0  0  0  0  0  0  0  0  0  0
   -1.4220   20.6070  -32.4780 N   0  0  0  0  0  0  0  0  0  0  0  0
   -2.4050   19.7510  -33.0780 C   0  0  0  0  0  0  0  0  0  0  0  0
   -2.1970   19.2450  -34.2140 O   0  0  0  0  0  0  0  0  0  0  0  0
   -3.5870   19.4200  -32.3360 N   0  0  0  0  0  0  0  0  0  0  0  0
   -4.6840   18.6380  -32.8490 C   0  0  0  0  0  0  0  0  0  0  0  0
   -5.6730   18.1810  -31.9630 C   0  0  0  0  0  0  0  0  0  0  0  0
   -6.7550   17.4270  -32.4330 C   0  0  0  0  0  0  0  0  0  0  0  0
   -6.8650   17.1300  -33.7940 C   0  0  0  0  0  0  0  0  0  0  0  0
   -5.9000   17.5990  -34.6890 C   0  0  0  0  0  0  0  0  0  0  0  0
   -4.8180   18.3590  -34.2230 C   0  0  0  0  0  0  0  0  0  0  0  0
   -1.8040   22.4040  -30.8730 C   0  0  0  0  0  0  0  0  0  0  0  0
   -4.8510   23.2830  -31.5320 C   0  0  0  0  0  0  0  0  0  0  0  0
   -6.0740   22.6510  -31.8250 C   0  0  0  0  0  0  0  0  0  0  0  0
   -6.0760   21.4410  -32.7240 C   0  0  0  0  0  0  0  0  0  0  0  0
   -9.1066   22.3067  -30.6369 H   0  0  0  0  0  0  0  0  0  0  0  0
   -9.2333   23.2424  -32.1650 H   0  0  0  0  0  0  0  0  0  0  0  0
   -8.4549   21.6236  -32.1650 H   0  0  0  0  0  0  0  0  0  0  0  0
   -8.1448   24.7310  -30.0514 H   0  0  0  0  0  0  0  0  0  0  0  0
   -5.9672   25.8189  -29.5365 H   0  0  0  0  0  0  0  0  0  0  0  0
   -1.5676   22.4258  -27.4612 H   0  0  0  0  0  0  0  0  0  0  0  0
   -0.8368   20.0843  -27.9001 H   0  0  0  0  0  0  0  0  0  0  0  0
   -0.7574   19.2125  -30.2367 H   0  0  0  0  0  0  0  0  0  0  0  0
   -3.6200   19.7200  -31.3340 H   0  0  0  0  0  0  0  0  0  0  0  0
   -5.5970   18.4173  -30.8914 H   0  0  0  0  0  0  0  0  0  0  0  0
   -7.5203   17.0676  -31.7293 H   0  0  0  0  0  0  0  0  0  0  0  0
   -7.7098   16.5281  -34.1601 H   0  0  0  0  0  0  0  0  0  0  0  0
   -5.9894   17.3715  -35.7615 H   0  0  0  0  0  0  0  0  0  0  0  0
   -4.0699   18.7393  -34.9341 H   0  0  0  0  0  0  0  0  0  0  0  0
   -2.0441   23.0719  -31.7134 H   0  0  0  0  0  0  0  0  0  0  0  0
   -3.9178   22.8727  -31.9452 H   0  0  0  0  0  0  0  0  0  0  0  0
   -6.0775   20.5282  -32.1102 H   0  0  0  0  0  0  0  0  0  0  0  0
   -6.9741   21.4574  -33.3589 H   0  0  0  0  0  0  0  0  0  0  0  0
   -5.1778   21.4544  -33.3589 H   0  0  0  0  0  0  0  0  0  0  0  0
  1  2  1  0
  2  3  2  0
  3  4  1  0
  4  5  2  0
  5  6  1  0
  6  7  1  0
  7  8  2  0
  7  9  2  0
  7 10  1  0
 10 11  2  0
 11 12  1  0
 12 13  2  0
 13 14  1  0
 14 15  1  0
 15 16  1  0
 16 17  2  0
 16 18  1  0
 18 19  1  0
 19 20  2  0
 20 21  1  0
 21 22  2  0
 22 23  1  0
 23 24  2  0
 14 25  2  0
  5 26  1  0
 26 27  2  0
 27 28  1  0
 27  2  1  0
 25 10  1  0
 24 19  1  0
  1 29  1  0
  1 30  1  0
  1 31  1  0
  3 32  1  0
  4 33  1  0
 11 34  1  0
 12 35  1  0
 13 36  1  0
 18 37  1  0
 20 38  1  0
 21 39  1  0
 22 40  1  0
 23 41  1  0
 24 42  1  0
 25 43  1  0
 26 44  1  0
 28 45  1  0
 28 46  1  0
 28 47  1  0
M  CHG  2   6  -1  15  -1
M  END
>  <UniqueID>  (5) 
5

>  <SMILES>  (5) 
Cc1ccc([N-]S(=O)(=O)c2cccc([N-]C(=O)Nc3ccccc3)c2)cc1C

>  <Energy>  (5) 
59.609593684657675

>  <Genealogy>  (5) 
Cc1ccc([N-]S(=O)(=O)c2cccc([N-]C(=O)Nc3ccccc3)c2)cc1C (protonated)
Cc1ccc([N-]S(=O)(=O)c2cccc([N-]C(=O)Nc3ccccc3)c2)cc1C (3D coordinates assigned)
Cc1ccc([N-]S(=O)(=O)c2cccc([N-]C(=O)Nc3ccccc3)c2)cc1C (optimized conformer: 59.609593684657675 kcal/mol)

>  <smiles>  (5) 
Cc1ccc(NS(=O)(=O)c2cccc(NC(=O)Nc3ccccc3)c2)cc1C

>  <score_type>  (5) 
oracle

>  <origin>  (5) 
adgpu

>  <m_score__min__energy>  (5) 
-11.01

>  <m_primary>  (5) 
energy

$$$$
5:0
     RDKit          3D

 41 43  0  0  0  0  0  0  0  0999 V2000
   -4.5110   14.6740  -32.3160 C   0  0  0  0  0  0  0  0  0  0  0  0
   -4.1970   16.0260  -32.6340 O   0  0  0  0  0  0  0  0  0  0  0  0
   -5.1500   17.0370  -32.8270 C   0  0  0  0  0  0  0  0  0  0  0  0
   -6.1690   17.1800  -31.8800 C   0  0  0  0  0  0  0  0  0  0  0  0
   -7.1360   18.1780  -32.0210 C   0  0  0  0  0  0  0  0  0  0  0  0
   -7.0940   19.0600  -33.1140 C   0  0  0  0  0  0  0  0  0  0  0  0
   -8.0600   20.1130  -33.2660 N   0  0  0  0  0  0  0  0  0  0  0  0
   -8.5080   21.1640  -31.9600 S   0  0  0  0  0  0  0  0  0  0  0  0
   -8.8370   20.3460  -30.7430 O   0  0  0  0  0  0  0  0  0  0  0  0
   -9.7240   21.9550  -32.3500 O   0  0  0  0  0  0  0  0  0  0  0  0
   -7.1830   22.2780  -31.6350 C   0  0  0  0  0  0  0  0  0  0  0  0
   -5.9200   22.0300  -32.1880 C   0  0  0  0  0  0  0  0  0  0  0  0
   -4.8400   22.8590  -31.8720 C   0  0  0  0  0  0  0  0  0  0  0  0
   -5.0040   23.9230  -30.9790 C   0  0  0  0  0  0  0  0  0  0  0  0
   -3.8740   24.7410  -30.6480 N   0  0  0  0  0  0  0  0  0  0  0  0
   -2.8750   24.4160  -29.6720 C   0  0  0  0  0  0  0  0  0  0  0  0
   -2.0370   25.2960  -29.3420 O   0  0  0  0  0  0  0  0  0  0  0  0
   -2.7660   23.0590  -29.1040 C   0  0  0  0  0  0  0  0  0  0  0  0
   -3.4930   22.5700  -28.0360 C   0  0  0  0  0  0  0  0  0  0  0  0
   -3.0530   21.2770  -27.8480 C   0  0  0  0  0  0  0  0  0  0  0  0
   -2.0850   21.0590  -28.8070 C   0  0  0  0  0  0  0  0  0  0  0  0
   -1.9360   22.1390  -29.5380 O   0  0  0  0  0  0  0  0  0  0  0  0
   -6.2800   24.1930  -30.4530 C   0  0  0  0  0  0  0  0  0  0  0  0
   -7.3630   23.3730  -30.7790 C   0  0  0  0  0  0  0  0  0  0  0  0
   -6.0870   18.9020  -34.0780 C   0  0  0  0  0  0  0  0  0  0  0  0
   -5.1180   17.9040  -33.9360 C   0  0  0  0  0  0  0  0  0  0  0  0
   -4.5395   14.5515  -31.2232 H   0  0  0  0  0  0  0  0  0  0  0  0
   -5.4929   14.4162  -32.7396 H   0  0  0  0  0  0  0  0  0  0  0  0
   -3.7432   14.0099  -32.7396 H   0  0  0  0  0  0  0  0  0  0  0  0
   -6.2094   16.5003  -31.0161 H   0  0  0  0  0  0  0  0  0  0  0  0
   -7.9355   18.2741  -31.2716 H   0  0  0  0  0  0  0  0  0  0  0  0
   -8.3500   20.3990  -34.2280 H   0  0  0  0  0  0  0  0  0  0  0  0
   -5.7779   21.1808  -32.8726 H   0  0  0  0  0  0  0  0  0  0  0  0
   -3.8562   22.6738  -32.3278 H   0  0  0  0  0  0  0  0  0  0  0  0
   -4.2624   23.1013  -27.4565 H   0  0  0  0  0  0  0  0  0  0  0  0
   -3.4028   20.5635  -27.0874 H   0  0  0  0  0  0  0  0  0  0  0  0
   -1.5235   20.1224  -28.9388 H   0  0  0  0  0  0  0  0  0  0  0  0
   -6.4258   25.0528  -29.7826 H   0  0  0  0  0  0  0  0  0  0  0  0
   -8.3586   23.5871  -30.3632 H   0  0  0  0  0  0  0  0  0  0  0  0
   -6.0595   19.5686  -34.9526 H   0  0  0  0  0  0  0  0  0  0  0  0
   -4.3277   17.7958  -34.6935 H   0  0  0  0  0  0  0  0  0  0  0  0
  1  2  1  0
  2  3  1  0
  3  4  2  0
  4  5  1  0
  5  6  2  0
  6  7  1  0
  7  8  1  0
  8  9  2  0
  8 10  2  0
  8 11  1  0
 11 12  2  0
 12 13  1  0
 13 14  2  0
 14 15  1  0
 15 16  1  0
 16 17  2  0
 16 18  1  0
 18 19  2  0
 19 20  1  0
 20 21  2  0
 21 22  1  0
 14 23  1  0
 23 24  2  0
  6 25  1  0
 25 26  2  0
 26  3  1  0
 24 11  1  0
 22 18  1  0
  1 27  1  0
  1 28  1  0
  1 29  1  0
  4 30  1  0
  5 31  1  0
  7 32  1  0
 12 33  1  0
 13 34  1  0
 19 35  1  0
 20 36  1  0
 21 37  1  0
 23 38  1  0
 24 39  1  0
 25 40  1  0
 26 41  1  0
M  CHG  1  15  -1
M  END
>  <UniqueID>  (6) 
6

>  <SMILES>  (6) 
COc1ccc(NS(=O)(=O)c2ccc([N-]C(=O)c3ccco3)cc2)cc1

>  <Energy>  (6) 
75.03912049160574

>  <Genealogy>  (6) 
COc1ccc(NS(=O)(=O)c2ccc([N-]C(=O)c3ccco3)cc2)cc1 (protonated)
COc1ccc(NS(=O)(=O)c2ccc([N-]C(=O)c3ccco3)cc2)cc1 (3D coordinates assigned)
COc1ccc(NS(=O)(=O)c2ccc([N-]C(=O)c3ccco3)cc2)cc1 (optimized conformer: 75.03912049160574 kcal/mol)

>  <smiles>  (6) 
COc1ccc(NS(=O)(=O)c2ccc(NC(=O)c3ccco3)cc2)cc1

>  <score_type>  (6) 
oracle

>  <origin>  (6) 
adgpu

>  <m_score__min__energy>  (6) 
-10.4

>  <m_primary>  (6) 
energy

$$$$
6:0
     RDKit          3D

 43 45  0  0  0  0  0  0  0  0999 V2000
   -2.4850   24.3340  -28.7160 C   0  0  0  0  0  0  0  0  0  0  0  0
   -3.1700   24.9260  -29.8160 O   0  0  0  0  0  0  0  0  0  0  0  0
   -4.3350   24.4040  -30.4000 C   0  0  0  0  0  0  0  0  0  0  0  0
   -4.3240   23.2550  -31.2130 C   0  0  0  0  0  0  0  0  0  0  0  0
   -5.5120   22.7720  -31.7710 C   0  0  0  0  0  0  0  0  0  0  0  0
   -6.7320   23.4360  -31.5380 C   0  0  0  0  0  0  0  0  0  0  0  0
   -7.9700   22.9830  -32.1170 N   0  0  0  0  0  0  0  0  0  0  0  0
   -8.8180   21.5550  -31.6060 S   0  0  0  0  0  0  0  0  0  0  0  0
  -10.1970   21.5580  -32.2090 O   0  0  0  0  0  0  0  0  0  0  0  0
   -8.9350   21.5530  -30.1060 O   0  0  0  0  0  0  0  0  0  0  0  0
   -7.9700   20.1220  -32.1560 C   0  0  0  0  0  0  0  0  0  0  0  0
   -8.1190   18.8460  -31.6290 C   0  0  0  0  0  0  0  0  0  0  0  0
   -7.3190   17.8930  -32.2710 C   0  0  0  0  0  0  0  0  0  0  0  0
   -6.5570   18.4240  -33.3070 C   0  0  0  0  0  0  0  0  0  0  0  0
   -5.5710   17.6670  -34.1430 C   0  0  0  0  0  0  0  0  0  0  0  0
   -4.2480   17.6730  -33.5150 N   0  0  0  0  0  0  0  0  0  0  0  0
   -3.3090   18.7640  -33.6060 C   0  0  0  0  0  0  0  0  0  0  0  0
   -2.0370   18.5320  -34.1600 C   0  0  0  0  0  0  0  0  0  0  0  0
   -1.0990   19.5670  -34.2470 C   0  0  0  0  0  0  0  0  0  0  0  0
   -1.4220   20.8470  -33.7840 C   0  0  0  0  0  0  0  0  0  0  0  0
   -0.5090   21.8470  -33.8650 F   0  0  0  0  0  0  0  0  0  0  0  0
   -2.6850   21.0920  -33.2370 C   0  0  0  0  0  0  0  0  0  0  0  0
   -3.6260   20.0610  -33.1490 C   0  0  0  0  0  0  0  0  0  0  0  0
   -6.8550   20.0790  -33.4130 S   0  0  0  0  0  0  0  0  0  0  0  0
   -6.7370   24.5750  -30.7190 C   0  0  0  0  0  0  0  0  0  0  0  0
   -5.5490   25.0550  -30.1570 C   0  0  0  0  0  0  0  0  0  0  0  0
   -2.9145   24.7052  -27.7738 H   0  0  0  0  0  0  0  0  0  0  0  0
   -2.5931   23.2403  -28.7624 H   0  0  0  0  0  0  0  0  0  0  0  0
   -1.4185   24.5994  -28.7624 H   0  0  0  0  0  0  0  0  0  0  0  0
   -3.3756   22.7340  -31.4106 H   0  0  0  0  0  0  0  0  0  0  0  0
   -5.4934   21.8672  -32.3962 H   0  0  0  0  0  0  0  0  0  0  0  0
   -8.3460   23.4790  -32.9540 H   0  0  0  0  0  0  0  0  0  0  0  0
   -8.7950   18.6087  -30.7943 H   0  0  0  0  0  0  0  0  0  0  0  0
   -7.2953   16.8311  -31.9850 H   0  0  0  0  0  0  0  0  0  0  0  0
   -5.9137   16.6276  -34.2532 H   0  0  0  0  0  0  0  0  0  0  0  0
   -5.4972   18.1508  -35.1281 H   0  0  0  0  0  0  0  0  0  0  0  0
   -3.9880   16.8350  -32.9440 H   0  0  0  0  0  0  0  0  0  0  0  0
   -1.7773   17.5284  -34.5280 H   0  0  0  0  0  0  0  0  0  0  0  0
   -0.1064   19.3738  -34.6800 H   0  0  0  0  0  0  0  0  0  0  0  0
   -2.9395   22.0989  -32.8746 H   0  0  0  0  0  0  0  0  0  0  0  0
   -4.6191   20.2623  -32.7210 H   0  0  0  0  0  0  0  0  0  0  0  0
   -7.6845   25.0959  -30.5166 H   0  0  0  0  0  0  0  0  0  0  0  0
   -5.5698   25.9510  -29.5193 H   0  0  0  0  0  0  0  0  0  0  0  0
  1  2  1  0
  2  3  1  0
  3  4  2  0
  4  5  1  0
  5  6  2  0
  6  7  1  0
  7  8  1  0
  8  9  2  0
  8 10  2  0
  8 11  1  0
 11 12  2  0
 12 13  1  0
 13 14  2  0
 14 15  1  0
 15 16  1  0
 16 17  1  0
 17 18  2  0
 18 19  1  0
 19 20  2  0
 20 21  1  0
 20 22  1  0
 22 23  2  0
 14 24  1  0
  6 25  1  0
 25 26  2  0
 26  3  1  0
 24 11  1  0
 23 17  1  0
  1 27  1  0
  1 28  1  0
  1 29  1  0
  4 30  1  0
  5 31  1  0
  7 32  1  0
 12 33  1  0
 13 34  1  0
 15 35  1  0
 15 36  1  0
 16 37  1  0
 18 38  1  0
 19 39  1  0
 22 40  1  0
 23 41  1  0
 25 42  1  0
 26 43  1  0
M  END
>  <UniqueID>  (7) 
7

>  <SMILES>  (7) 
COc1ccc(NS(=O)(=O)c2ccc(CNc3ccc(F)cc3)s2)cc1

>  <Energy>  (7) 
72.01100798071631

>  <Genealogy>  (7) 
COc1ccc(NS(=O)(=O)c2ccc(CNc3ccc(F)cc3)s2)cc1 (3D coordinates assigned)
COc1ccc(NS(=O)(=O)c2ccc(CNc3ccc(F)cc3)s2)cc1 (optimized conformer: 72.01100798071631 kcal/mol)

>  <smiles>  (7) 
COc1ccc(NS(=O)(=O)c2ccc(CNc3ccc(F)cc3)s2)cc1

>  <score_type>  (7) 
oracle

>  <origin>  (7) 
adgpu

>  <m_score__min__energy>  (7) 
-9.8000000000000007

>  <m_primary>  (7) 
energy

$$$$
7:0
     RDKit          3D

 50 55  0  0  0  0  0  0  0  0999 V2000
    2.9831   19.9231  -32.0216 H   0  0  0  0  0  0  0  0  0  0  0  0
    2.3340   19.6280  -31.1840 C   0  0  0  0  0  0  0  0  0  0  0  0
    2.7310   18.9100  -30.1770 N   0  0  0  0  0  0  0  0  0  0  0  0
    1.5980   18.7360  -29.3330 C   0  0  0  0  0  0  0  0  0  0  0  0
    1.5490   17.9780  -28.1640 C   0  0  0  0  0  0  0  0  0  0  0  0
    2.4521   17.4893  -27.7696 H   0  0  0  0  0  0  0  0  0  0  0  0
    0.3150   17.8550  -27.5030 C   0  0  0  0  0  0  0  0  0  0  0  0
    0.2498   17.2790  -26.5682 H   0  0  0  0  0  0  0  0  0  0  0  0
   -0.8390   18.4660  -28.0320 C   0  0  0  0  0  0  0  0  0  0  0  0
   -1.8021   18.3559  -27.5120 H   0  0  0  0  0  0  0  0  0  0  0  0
   -0.7690   19.2150  -29.2190 C   0  0  0  0  0  0  0  0  0  0  0  0
   -1.6699   19.6741  -29.6521 H   0  0  0  0  0  0  0  0  0  0  0  0
    0.4790   19.3600  -29.8340 C   0  0  0  0  0  0  0  0  0  0  0  0
    0.9170   20.0000  -31.0740 C   0  0  0  0  0  0  0  0  0  0  0  0
    0.2510   20.7670  -31.9470 C   0  0  0  0  0  0  0  0  0  0  0  0
    0.7624   21.0565  -32.8769 H   0  0  0  0  0  0  0  0  0  0  0  0
   -1.1210   21.2440  -31.7360 C   0  0  0  0  0  0  0  0  0  0  0  0
   -2.2640   20.7040  -32.2970 C   0  0  0  0  0  0  0  0  0  0  0  0
   -2.3250   19.6190  -33.1640 O   0  0  0  0  0  0  0  0  0  0  0  0
   -3.3320   21.4200  -31.8030 C   0  0  0  0  0  0  0  0  0  0  0  0
   -4.7050   21.1990  -32.0280 C   0  0  0  0  0  0  0  0  0  0  0  0
   -5.0420   20.3767  -32.6762 H   0  0  0  0  0  0  0  0  0  0  0  0
   -5.6440   22.0580  -31.4020 C   0  0  0  0  0  0  0  0  0  0  0  0
   -7.1010   21.8920  -31.6190 C   0  0  0  0  0  0  0  0  0  0  0  0
   -7.9040   23.0320  -31.8000 C   0  0  0  0  0  0  0  0  0  0  0  0
   -7.4440   24.0312  -31.7894 H   0  0  0  0  0  0  0  0  0  0  0  0
   -9.2800   22.9050  -31.9930 C   0  0  0  0  0  0  0  0  0  0  0  0
   -9.9001   23.8026  -32.1335 H   0  0  0  0  0  0  0  0  0  0  0  0
   -9.8700   21.6420  -32.0080 C   0  0  0  0  0  0  0  0  0  0  0  0
  -10.9560   21.5456  -32.1543 H   0  0  0  0  0  0  0  0  0  0  0  0
   -9.0870   20.5000  -31.8380 C   0  0  0  0  0  0  0  0  0  0  0  0
   -9.5594   19.5067  -31.8530 H   0  0  0  0  0  0  0  0  0  0  0  0
   -7.6940   20.6100  -31.6470 C   0  0  0  0  0  0  0  0  0  0  0  0
   -6.8770   19.4760  -31.5040 O   0  0  0  0  0  0  0  0  0  0  0  0
   -6.9000   18.3470  -32.3730 C   0  0  0  0  0  0  0  0  0  0  0  0
   -6.9188   17.4241  -31.7747 H   0  0  0  0  0  0  0  0  0  0  0  0
   -7.7974   18.3909  -33.0076 H   0  0  0  0  0  0  0  0  0  0  0  0
   -6.0015   18.3544  -33.0076 H   0  0  0  0  0  0  0  0  0  0  0  0
   -5.1340   23.0910  -30.5940 C   0  0  0  0  0  0  0  0  0  0  0  0
   -5.8060   24.1290  -30.0580 N   0  0  0  0  0  0  0  0  0  0  0  0
   -4.8190   24.9210  -29.5640 C   0  0  0  0  0  0  0  0  0  0  0  0
   -5.0078   25.8741  -29.0483 H   0  0  0  0  0  0  0  0  0  0  0  0
   -3.5800   24.4180  -29.7710 N   0  0  0  0  0  0  0  0  0  0  0  0
   -2.4170   25.1470  -29.7070 O   0  0  0  0  0  0  0  0  0  0  0  0
   -3.7880   23.2560  -30.4090 C   0  0  0  0  0  0  0  0  0  0  0  0
   -2.8920   22.4100  -30.9890 N   0  0  0  0  0  0  0  0  0  0  0  0
   -1.5410   22.2980  -30.9260 C   0  0  0  0  0  0  0  0  0  0  0  0
   -0.7030   22.9800  -29.9920 N   0  0  0  0  0  0  0  0  0  0  0  0
   -0.7000   24.0210  -29.9510 H   0  0  0  0  0  0  0  0  0  0  0  0
   -0.2820   22.4620  -29.1900 H   0  0  0  0  0  0  0  0  0  0  0  0
  1  2  1  0
  2  3  2  0
  3  4  1  0
  4  5  2  0
  5  6  1  0
  5  7  1  0
  7  8  1  0
  7  9  2  0
  9 10  1  0
  9 11  1  0
 11 12  1  0
 11 13  2  0
 13 14  1  0
 14 15  2  0
 15 16  1  0
 15 17  1  0
 17 18  1  0
 18 19  1  0
 18 20  2  0
 20 21  1  0
 21 22  1  0
 21 23  2  0
 23 24  1  0
 24 25  2  0
 25 26  1  0
 25 27  1  0
 27 28  1  0
 27 29  2  0
 29 30  1  0
 29 31  1  0
 31 32  1  0
 31 33  2  0
 33 34  1  0
 34 35  1  0
 35 36  1  0
 35 37  1  0
 35 38  1  0
 23 39  1  0
 39 40  1  0
 40 41  1  0
 41 42  1  0
 41 43  2  0
 43 44  1  0
 43 45  1  0
 45 46  1  0
 46 47  1  0
 47 48  1  0
 48 49  1  0
 48 50  1  0
 14  2  1  0
 47 17  2  0
 13  4  1  0
 46 20  1  0
 33 24  1  0
 45 39  2  0
M  CHG  4  19  -1  40  -1  43   1  44  -1
M  END
>  <UniqueID>  (8) 
8

>  <SMILES>  (8) 
COc1ccccc1-c1cc2c([O-])c(/C=C3/C=Nc4ccccc43)c(N)n2c2c1[n-]c[n+]2[O-]

>  <Energy>  (8) 
185.61983045507756

>  <Genealogy>  (8) 
COc1ccccc1-c1cc2c([O-])c(C=C3C=Nc4ccccc43)c(N)n2c2c1[n-]c[n+]2[O-] (protonated)
COc1ccccc1-c1cc2c([O-])c(/C=C3/C=Nc4ccccc43)c(N)n2c2c1[n-]c[n+]2[O-] (cis-trans isomerization)
COc1ccccc1-c1cc2c([O-])c(/C=C3/C=Nc4ccccc43)c(N)n2c2c1[n-]c[n+]2[O-] (3D coordinates assigned)
COc1ccccc1-c1cc2c([O-])c(/C=C3/C=Nc4ccccc43)c(N)n2c2c1[n-]c[n+]2[O-] (nonaromatic ring conformer: 185.61983045507756 kcal/mol)

>  <smiles>  (8) 
COc1ccccc1-c1cc2c(O)c(C=C3C=Nc4ccccc43)c(N)n2c2c1[nH]c[n+]2[O-]

>  <score_type>  (8) 
oracle

>  <origin>  (8) 
adgpu

>  <m_score__min__energy>  (8) 
-11.16

>  <m_primary>  (8) 
energy

$$$$
8:0
     RDKit          3D

 29 31  0  0  0  0  0  0  0  0999 V2000
   -3.9180   25.6570  -30.7790 O   0  0  0  0  0  0  0  0  0  0  0  0
   -3.4500   24.5020  -30.1640 C   0  0  0  0  0  0  0  0  0  0  0  0
   -4.1510   23.3020  -30.3110 C   0  0  0  0  0  0  0  0  0  0  0  0
   -3.6870   22.1350  -29.6960 C   0  0  0  0  0  0  0  0  0  0  0  0
   -2.5110   22.1560  -28.9220 C   0  0  0  0  0  0  0  0  0  0  0  0
   -2.0030   20.9290  -28.2610 C   0  0  0  0  0  0  0  0  0  0  0  0
   -2.6640   20.1530  -27.3190 C   0  0  0  0  0  0  0  0  0  0  0  0
   -1.7750   19.1400  -27.0420 C   0  0  0  0  0  0  0  0  0  0  0  0
   -2.0200   18.0770  -26.1820 O   0  0  0  0  0  0  0  0  0  0  0  0
   -0.6510   19.3100  -27.7660 N   0  0  0  0  0  0  0  0  0  0  0  0
    0.5210   18.4730  -27.7910 C   0  0  0  0  0  0  0  0  0  0  0  0
    1.7760   18.9880  -28.1640 C   0  0  0  0  0  0  0  0  0  0  0  0
    2.9000   18.1580  -28.1930 C   0  0  0  0  0  0  0  0  0  0  0  0
    2.7850   16.8040  -27.8630 C   0  0  0  0  0  0  0  0  0  0  0  0
    3.9100   15.9890  -27.8960 O   0  0  0  0  0  0  0  0  0  0  0  0
    1.5370   16.2770  -27.5060 C   0  0  0  0  0  0  0  0  0  0  0  0
    1.3700   14.5770  -27.0950 Cl  0  0  0  0  0  0  0  0  0  0  0  0
    0.4100   17.1080  -27.4760 C   0  0  0  0  0  0  0  0  0  0  0  0
   -0.7890   20.3920  -28.5160 N   0  0  0  0  0  0  0  0  0  0  0  0
   -1.8140   23.3700  -28.7810 C   0  0  0  0  0  0  0  0  0  0  0  0
   -2.2810   24.5350  -29.3980 C   0  0  0  0  0  0  0  0  0  0  0  0
   -1.5790   25.7260  -29.2470 O   0  0  0  0  0  0  0  0  0  0  0  0
   -5.0714   23.2754  -30.9128 H   0  0  0  0  0  0  0  0  0  0  0  0
   -4.2444   21.1945  -29.8177 H   0  0  0  0  0  0  0  0  0  0  0  0
   -3.6657   20.3111  -26.8929 H   0  0  0  0  0  0  0  0  0  0  0  0
    1.8731   20.0498  -28.4343 H   0  0  0  0  0  0  0  0  0  0  0  0
    3.8791   18.5715  -28.4766 H   0  0  0  0  0  0  0  0  0  0  0  0
   -0.5699   16.6888  -27.2037 H   0  0  0  0  0  0  0  0  0  0  0  0
   -0.8933   23.4032  -28.1800 H   0  0  0  0  0  0  0  0  0  0  0  0
  1  2  1  0
  2  3  2  0
  3  4  1  0
  4  5  2  0
  5  6  1  0
  6  7  1  0
  7  8  2  0
  8  9  1  0
  8 10  1  0
 10 11  1  0
 11 12  2  0
 12 13  1  0
 13 14  2  0
 14 15  1  0
 14 16  1  0
 16 17  1  0
 16 18  2  0
 10 19  1  0
  5 20  1  0
 20 21  2  0
 21 22  1  0
 21  2  1  0
 19  6  2  0
 18 11  1  0
  3 23  1  0
  4 24  1  0
  7 25  1  0
 12 26  1  0
 13 27  1  0
 18 28  1  0
 20 29  1  0
M  CHG  4   1  -1   9  -1  15  -1  22  -1
M  END
>  <UniqueID>  (9) 
9

>  <SMILES>  (9) 
[O-]c1ccc(-c2cc([O-])n(-c3ccc([O-])c(Cl)c3)n2)cc1[O-]

>  <Energy>  (9) 
69.59751923550903

>  <Genealogy>  (9) 
[O-]c1ccc(-c2cc([O-])n(-c3ccc([O-])c(Cl)c3)n2)cc1[O-] (protonated)
[O-]c1ccc(-c2cc([O-])n(-c3ccc([O-])c(Cl)c3)n2)cc1[O-] (3D coordinates assigned)
[O-]c1ccc(-c2cc([O-])n(-c3ccc([O-])c(Cl)c3)n2)cc1[O-] (optimized conformer: 69.59751923550903 kcal/mol)

>  <smiles>  (9) 
Oc1ccc(-c2cc(O)n(-c3ccc(O)c(Cl)c3)n2)cc1O

>  <score_type>  (9) 
oracle

>  <origin>  (9) 
adgpu

>  <m_score__min__energy>  (9) 
-12.35

>  <m_primary>  (9) 
energy

$$$$
9:0
     RDKit          3D

 43 44  0  0  0  0  0  0  0  0999 V2000
   -5.5810   19.6310  -33.7860 C   0  0  0  0  0  0  0  0  0  0  0  0
   -5.4230   20.8830  -32.9760 C   0  0  0  0  0  0  0  0  0  0  0  0
   -4.1470   21.3480  -32.6370 C   0  0  0  0  0  0  0  0  0  0  0  0
   -3.9990   22.4970  -31.8600 C   0  0  0  0  0  0  0  0  0  0  0  0
   -5.1230   23.1950  -31.3910 C   0  0  0  0  0  0  0  0  0  0  0  0
   -4.8750   24.6650  -30.4290 S   0  0  0  0  0  0  0  0  0  0  0  0
   -5.4310   25.8420  -31.1780 O   0  0  0  0  0  0  0  0  0  0  0  0
   -5.5990   24.5530  -29.1160 O   0  0  0  0  0  0  0  0  0  0  0  0
   -3.1810   24.9210  -30.1290 N   0  0  0  0  0  0  0  0  0  0  0  0
   -2.5960   23.7970  -29.3940 C   0  0  0  0  0  0  0  0  0  0  0  0
   -1.0910   24.0060  -29.2190 C   0  0  0  0  0  0  0  0  0  0  0  0
   -0.8070   24.7580  -27.9470 C   0  0  0  0  0  0  0  0  0  0  0  0
   -1.1540   26.1140  -27.8350 C   0  0  0  0  0  0  0  0  0  0  0  0
   -0.9240   26.8050  -26.6420 C   0  0  0  0  0  0  0  0  0  0  0  0
   -0.3590   26.1450  -25.5420 C   0  0  0  0  0  0  0  0  0  0  0  0
   -0.0560   27.0170  -24.0430 S   0  0  0  0  0  0  0  0  0  0  0  0
    1.4270   26.4640  -23.3480 N   0  0  0  0  0  0  0  0  0  0  0  0
   -1.1860   26.7790  -23.0800 O   0  0  0  0  0  0  0  0  0  0  0  0
    0.0400   28.4910  -24.3200 O   0  0  0  0  0  0  0  0  0  0  0  0
   -0.0170   24.7890  -25.6490 C   0  0  0  0  0  0  0  0  0  0  0  0
   -0.2470   24.0980  -26.8410 C   0  0  0  0  0  0  0  0  0  0  0  0
   -6.4190   22.7120  -31.7000 C   0  0  0  0  0  0  0  0  0  0  0  0
   -7.6630   23.4240  -31.2380 C   0  0  0  0  0  0  0  0  0  0  0  0
   -6.5530   21.5600  -32.4950 C   0  0  0  0  0  0  0  0  0  0  0  0
   -5.6898   18.7691  -33.1113 H   0  0  0  0  0  0  0  0  0  0  0  0
   -6.4756   19.7152  -34.4204 H   0  0  0  0  0  0  0  0  0  0  0  0
   -4.6935   19.4903  -34.4204 H   0  0  0  0  0  0  0  0  0  0  0  0
   -3.2563   20.8045  -32.9851 H   0  0  0  0  0  0  0  0  0  0  0  0
   -2.9906   22.8600  -31.6121 H   0  0  0  0  0  0  0  0  0  0  0  0
   -3.0702   23.7240  -28.4041 H   0  0  0  0  0  0  0  0  0  0  0  0
   -2.7660   22.8700  -29.9612 H   0  0  0  0  0  0  0  0  0  0  0  0
   -0.5918   23.0266  -29.1795 H   0  0  0  0  0  0  0  0  0  0  0  0
   -0.7121   24.5911  -30.0699 H   0  0  0  0  0  0  0  0  0  0  0  0
   -1.6090   26.6350  -28.6903 H   0  0  0  0  0  0  0  0  0  0  0  0
   -1.1873   27.8703  -26.5661 H   0  0  0  0  0  0  0  0  0  0  0  0
    1.5490   26.9730  -22.4430 H   0  0  0  0  0  0  0  0  0  0  0  0
    1.2960   25.4550  -23.1110 H   0  0  0  0  0  0  0  0  0  0  0  0
    0.4338   24.2680  -24.7915 H   0  0  0  0  0  0  0  0  0  0  0  0
    0.0118   23.0314  -26.9138 H   0  0  0  0  0  0  0  0  0  0  0  0
   -7.6898   23.4393  -30.1384 H   0  0  0  0  0  0  0  0  0  0  0  0
   -7.6578   24.4559  -31.6191 H   0  0  0  0  0  0  0  0  0  0  0  0
   -8.5501   22.8969  -31.6191 H   0  0  0  0  0  0  0  0  0  0  0  0
   -7.5570   21.1850  -32.7428 H   0  0  0  0  0  0  0  0  0  0  0  0
  1  2  1  0
  2  3  2  0
  3  4  1  0
  4  5  2  0
  5  6  1  0
  6  7  2  0
  6  8  2  0
  6  9  1  0
  9 10  1  0
 10 11  1  0
 11 12  1  0
 12 13  2  0
 13 14  1  0
 14 15  2  0
 15 16  1  0
 16 17  1  0
 16 18  2  0
 16 19  2  0
 15 20  1  0
 20 21  2  0
  5 22  1  0
 22 23  1  0
 22 24  2  0
 24  2  1  0
 21 12  1  0
  1 25  1  0
  1 26  1  0
  1 27  1  0
  3 28  1  0
  4 29  1  0
 10 30  1  0
 10 31  1  0
 11 32  1  0
 11 33  1  0
 13 34  1  0
 14 35  1  0
 17 36  1  0
 17 37  1  0
 20 38  1  0
 21 39  1  0
 23 40  1  0
 23 41  1  0
 23 42  1  0
 24 43  1  0
M  CHG  1   9  -1
M  END
>  <UniqueID>  (10) 
10

>  <SMILES>  (10) 
Cc1ccc(S(=O)(=O)[N-]CCc2ccc(S(N)(=O)=O)cc2)c(C)c1

>  <Energy>  (10) 
39.06935162972393

>  <Genealogy>  (10) 
Cc1ccc(S(=O)(=O)[N-]CCc2ccc(S(N)(=O)=O)cc2)c(C)c1 (protonated)
Cc1ccc(S(=O)(=O)[N-]CCc2ccc(S(N)(=O)=O)cc2)c(C)c1 (3D coordinates assigned)
Cc1ccc(S(=O)(=O)[N-]CCc2ccc(S(N)(=O)=O)cc2)c(C)c1 (optimized conformer: 39.06935162972393 kcal/mol)

>  <smiles>  (10) 
Cc1ccc(S(=O)(=O)NCCc2ccc(S(N)(=O)=O)cc2)c(C)c1

>  <score_type>  (10) 
oracle

>  <origin>  (10) 
adgpu

>  <m_score__min__energy>  (10) 
-10.390000000000001

>  <m_primary>  (10) 
energy

$$$$
10:0
     RDKit          3D

 49 51  0  0  0  0  0  0  0  0999 V2000
   -4.8410   21.7290  -32.7380 C   0  0  0  0  0  0  0  0  0  0  0  0
   -6.0430   21.4760  -32.1970 C   0  0  0  0  0  0  0  0  0  0  0  0
   -6.8300   22.3450  -31.4260 C   0  0  0  0  0  0  0  0  0  0  0  0
   -6.5250   23.5150  -30.8320 C   0  0  0  0  0  0  0  0  0  0  0  0
   -5.1610   24.0400  -30.6290 C   0  0  0  0  0  0  0  0  0  0  0  0
   -4.8430   25.1070  -31.2180 O   0  0  0  0  0  0  0  0  0  0  0  0
   -4.1900   23.3950  -29.7060 C   0  0  0  0  0  0  0  0  0  0  0  0
   -4.2850   23.6140  -28.3200 C   0  0  0  0  0  0  0  0  0  0  0  0
   -3.3550   23.0450  -27.4450 C   0  0  0  0  0  0  0  0  0  0  0  0
   -2.3120   22.2400  -27.9400 C   0  0  0  0  0  0  0  0  0  0  0  0
   -1.3500   21.6550  -27.1040 O   0  0  0  0  0  0  0  0  0  0  0  0
   -1.5250   20.4200  -26.4170 C   0  0  0  0  0  0  0  0  0  0  0  0
   -2.2250   22.0090  -29.3160 C   0  0  0  0  0  0  0  0  0  0  0  0
   -3.1550   22.5740  -30.1930 C   0  0  0  0  0  0  0  0  0  0  0  0
   -8.0700   21.7370  -31.3000 C   0  0  0  0  0  0  0  0  0  0  0  0
   -7.9740   20.5060  -31.9160 C   0  0  0  0  0  0  0  0  0  0  0  0
   -9.0790   19.4970  -31.9930 C   0  0  0  0  0  0  0  0  0  0  0  0
   -6.7450   20.3440  -32.4510 N   0  0  0  0  0  0  0  0  0  0  0  0
   -6.2880   19.1850  -33.1720 C   0  0  0  0  0  0  0  0  0  0  0  0
   -6.1250   19.2720  -34.5600 C   0  0  0  0  0  0  0  0  0  0  0  0
   -5.6490   18.1820  -35.2840 C   0  0  0  0  0  0  0  0  0  0  0  0
   -5.3140   16.9980  -34.6280 C   0  0  0  0  0  0  0  0  0  0  0  0
   -5.4580   16.8860  -33.2360 C   0  0  0  0  0  0  0  0  0  0  0  0
   -5.0810   15.5880  -32.5700 C   0  0  0  0  0  0  0  0  0  0  0  0
   -5.9910   17.9740  -32.4970 C   0  0  0  0  0  0  0  0  0  0  0  0
   -6.1950   17.8640  -31.0020 C   0  0  0  0  0  0  0  0  0  0  0  0
   -4.3278   20.9531  -33.3250 H   0  0  0  0  0  0  0  0  0  0  0  0
   -4.3691   22.7122  -32.5943 H   0  0  0  0  0  0  0  0  0  0  0  0
   -7.3617   24.1296  -30.4684 H   0  0  0  0  0  0  0  0  0  0  0  0
   -5.0980   24.2384  -27.9211 H   0  0  0  0  0  0  0  0  0  0  0  0
   -3.4389   23.2275  -26.3635 H   0  0  0  0  0  0  0  0  0  0  0  0
   -1.4999   20.5974  -25.3317 H   0  0  0  0  0  0  0  0  0  0  0  0
   -2.4944   19.9803  -26.6943 H   0  0  0  0  0  0  0  0  0  0  0  0
   -0.7159   19.7283  -26.6943 H   0  0  0  0  0  0  0  0  0  0  0  0
   -1.4169   21.3765  -29.7122 H   0  0  0  0  0  0  0  0  0  0  0  0
   -3.0778   22.3757  -31.2722 H   0  0  0  0  0  0  0  0  0  0  0  0
   -8.9586   22.1553  -30.8046 H   0  0  0  0  0  0  0  0  0  0  0  0
   -9.3888   19.2141  -30.9761 H   0  0  0  0  0  0  0  0  0  0  0  0
   -9.9354   19.9313  -32.5297 H   0  0  0  0  0  0  0  0  0  0  0  0
   -8.7241   18.6048  -32.5297 H   0  0  0  0  0  0  0  0  0  0  0  0
   -6.3746   20.2076  -35.0819 H   0  0  0  0  0  0  0  0  0  0  0  0
   -5.5370   18.2551  -36.3758 H   0  0  0  0  0  0  0  0  0  0  0  0
   -4.9332   16.1435  -35.2067 H   0  0  0  0  0  0  0  0  0  0  0  0
   -5.1171   15.7123  -31.4776 H   0  0  0  0  0  0  0  0  0  0  0  0
   -5.7878   14.8015  -32.8731 H   0  0  0  0  0  0  0  0  0  0  0  0
   -4.0628   15.3026  -32.8731 H   0  0  0  0  0  0  0  0  0  0  0  0
   -5.3424   18.3238  -30.4808 H   0  0  0  0  0  0  0  0  0  0  0  0
   -7.1217   18.3847  -30.7191 H   0  0  0  0  0  0  0  0  0  0  0  0
   -6.2692   16.8036  -30.7191 H   0  0  0  0  0  0  0  0  0  0  0  0
  1  2  2  0
  2  3  1  0
  3  4  2  3
  4  5  1  0
  5  6  2  0
  5  7  1  0
  7  8  2  0
  8  9  1  0
  9 10  2  0
 10 11  1  0
 11 12  1  0
 10 13  1  0
 13 14  2  0
  3 15  1  0
 15 16  2  0
 16 17  1  0
 16 18  1  0
 18 19  1  0
 19 20  2  0
 20 21  1  0
 21 22  2  0
 22 23  1  0
 23 24  1  0
 23 25  2  0
 25 26  1  0
 18  2  1  0
 25 19  1  0
 14  7  1  0
  1 27  1  0
  1 28  1  0
  4 29  1  0
  8 30  1  0
  9 31  1  0
 12 32  1  0
 12 33  1  0
 12 34  1  0
 13 35  1  0
 14 36  1  0
 15 37  1  0
 17 38  1  0
 17 39  1  0
 17 40  1  0
 20 41  1  0
 21 42  1  0
 22 43  1  0
 24 44  1  0
 24 45  1  0
 24 46  1  0
 26 47  1  0
 26 48  1  0
 26 49  1  0
M  END
>  <UniqueID>  (11) 
11

>  <SMILES>  (11) 
C=c1c(=CC(=O)c2ccc(OC)cc2)cc(C)n1-c1cccc(C)c1C

>  <Energy>  (11) 
97.59804762994362

>  <Genealogy>  (11) 
C=c1c(=CC(=O)c2ccc(OC)cc2)cc(C)n1-c1cccc(C)c1C (3D coordinates assigned)
C=c1c(=CC(=O)c2ccc(OC)cc2)cc(C)n1-c1cccc(C)c1C (optimized conformer: 97.59804762994362 kcal/mol)

>  <smiles>  (11) 
C=c1c(=CC(=O)c2ccc(OC)cc2)cc(C)n1-c1cccc(C)c1C

>  <score_type>  (11) 
oracle

>  <origin>  (11) 
adgpu

>  <m_score__min__energy>  (11) 
-9.5899999999999999

>  <m_primary>  (11) 
energy

$$$$
11:0
     RDKit          3D

 27 28  0  0  0  0  0  0  0  0999 V2000
   -2.3590   19.3450  -25.5900 C   0  0  0  0  0  0  0  0  0  0  0  0
   -1.7290   19.7170  -26.8670 N   0  0  0  0  0  0  0  0  0  0  0  0
   -2.6870   19.9970  -27.9610 C   0  0  0  0  0  0  0  0  0  0  0  0
   -3.6070   21.2040  -27.7100 C   0  0  0  0  0  0  0  0  0  0  0  0
   -2.9430   22.4920  -28.1050 C   0  0  0  0  0  0  0  0  0  0  0  0
   -3.5550   23.3010  -29.0810 C   0  0  0  0  0  0  0  0  0  0  0  0
   -2.9710   24.5040  -29.4780 C   0  0  0  0  0  0  0  0  0  0  0  0
   -3.5890   25.2870  -30.4460 O   0  0  0  0  0  0  0  0  0  0  0  0
   -1.7680   24.9170  -28.9050 C   0  0  0  0  0  0  0  0  0  0  0  0
   -1.1770   26.1110  -29.3030 O   0  0  0  0  0  0  0  0  0  0  0  0
   -1.1550   24.1310  -27.9270 C   0  0  0  0  0  0  0  0  0  0  0  0
   -1.7380   22.9240  -27.4960 C   0  0  0  0  0  0  0  0  0  0  0  0
   -0.9970   22.1290  -26.4310 C   0  0  0  0  0  0  0  0  0  0  0  0
   -0.6020   20.6650  -26.7480 C   0  0  0  0  0  0  0  0  0  0  0  0
   -1.7411   19.7099  -24.7563 H   0  0  0  0  0  0  0  0  0  0  0  0
   -3.3601   19.7969  -25.5296 H   0  0  0  0  0  0  0  0  0  0  0  0
   -2.4467   18.2502  -25.5296 H   0  0  0  0  0  0  0  0  0  0  0  0
   -2.1131   20.1877  -28.8798 H   0  0  0  0  0  0  0  0  0  0  0  0
   -3.3409   19.1158  -28.0374 H   0  0  0  0  0  0  0  0  0  0  0  0
   -4.5276   21.0807  -28.2993 H   0  0  0  0  0  0  0  0  0  0  0  0
   -3.8342   21.2478  -26.6346 H   0  0  0  0  0  0  0  0  0  0  0  0
   -4.5042   22.9810  -29.5356 H   0  0  0  0  0  0  0  0  0  0  0  0
   -0.2021   24.4598  -27.4866 H   0  0  0  0  0  0  0  0  0  0  0  0
   -0.0692   22.6746  -26.2042 H   0  0  0  0  0  0  0  0  0  0  0  0
   -1.7194   22.0422  -25.6060 H   0  0  0  0  0  0  0  0  0  0  0  0
   -0.0523   20.6603  -27.7008 H   0  0  0  0  0  0  0  0  0  0  0  0
   -0.0042   20.3198  -25.8916 H   0  0  0  0  0  0  0  0  0  0  0  0
  1  2  1  0
  2  3  1  0
  3  4  1  0
  4  5  1  0
  5  6  2  0
  6  7  1  0
  7  8  1  0
  7  9  2  0
  9 10  1  0
  9 11  1  0
 11 12  2  0
 12 13  1  0
 13 14  1  0
 14  2  1  0
 12  5  1  0
  1 15  1  0
  1 16  1  0
  1 17  1  0
  3 18  1  0
  3 19  1  0
  4 20  1  0
  4 21  1  0
  6 22  1  0
 11 23  1  0
 13 24  1  0
 13 25  1  0
 14 26  1  0
 14 27  1  0
M  CHG  2   8  -1  10  -1
M  END
>  <UniqueID>  (12) 
12

>  <SMILES>  (12) 
CN1CCc2cc([O-])c([O-])cc2CC1

>  <Energy>  (12) 
43.93637678768958

>  <Genealogy>  (12) 
CN1CCc2cc([O-])c([O-])cc2CC1 (protonated)
CN1CCc2cc([O-])c([O-])cc2CC1 (3D coordinates assigned)
CN1CCc2cc([O-])c([O-])cc2CC1 (nonaromatic ring conformer: 43.93637678768958 kcal/mol)

>  <smiles>  (12) 
CN1CCc2cc(O)c(O)cc2CC1

>  <score_type>  (12) 
oracle

>  <origin>  (12) 
adgpu

>  <m_score__min__energy>  (12) 
-9.7200000000000006

>  <m_primary>  (12) 
energy

$$$$
12:0
     RDKit          3D

 53 55  0  0  0  0  0  0  0  0999 V2000
   -8.7290   21.1200  -31.1960 C   0  0  0  0  0  0  0  0  0  0  0  0
   -8.3110   22.3390  -31.8030 O   0  0  0  0  0  0  0  0  0  0  0  0
   -7.1580   23.0540  -31.4400 C   0  0  0  0  0  0  0  0  0  0  0  0
   -7.2160   24.1780  -30.5940 C   0  0  0  0  0  0  0  0  0  0  0  0
   -6.0480   24.8460  -30.2200 C   0  0  0  0  0  0  0  0  0  0  0  0
   -4.8050   24.4210  -30.6950 C   0  0  0  0  0  0  0  0  0  0  0  0
   -3.6320   25.1210  -30.2550 N   0  0  0  0  0  0  0  0  0  0  0  0
   -2.5690   24.6340  -28.9730 S   0  0  0  0  0  0  0  0  0  0  0  0
   -3.2570   24.7730  -27.6410 O   0  0  0  0  0  0  0  0  0  0  0  0
   -1.3670   25.5330  -28.9730 O   0  0  0  0  0  0  0  0  0  0  0  0
   -2.0410   22.9750  -29.2450 C   0  0  0  0  0  0  0  0  0  0  0  0
   -1.3030   22.6660  -30.3980 C   0  0  0  0  0  0  0  0  0  0  0  0
   -0.8960   21.3510  -30.6400 C   0  0  0  0  0  0  0  0  0  0  0  0
   -1.2290   20.3360  -29.7370 C   0  0  0  0  0  0  0  0  0  0  0  0
   -0.8420   19.0570  -29.9790 F   0  0  0  0  0  0  0  0  0  0  0  0
   -1.9640   20.6370  -28.5860 C   0  0  0  0  0  0  0  0  0  0  0  0
   -2.3700   21.9550  -28.3390 C   0  0  0  0  0  0  0  0  0  0  0  0
   -4.7430   23.3190  -31.5620 C   0  0  0  0  0  0  0  0  0  0  0  0
   -5.9090   22.6160  -31.9170 C   0  0  0  0  0  0  0  0  0  0  0  0
   -5.8210   21.4160  -32.7060 N   0  0  0  0  0  0  0  0  0  0  0  0
   -4.3870   20.4370  -32.7100 S   0  0  0  0  0  0  0  0  0  0  0  0
   -3.7690   20.4670  -31.3410 O   0  0  0  0  0  0  0  0  0  0  0  0
   -3.4080   20.9880  -33.7090 O   0  0  0  0  0  0  0  0  0  0  0  0
   -4.8020   18.7860  -33.1670 C   0  0  0  0  0  0  0  0  0  0  0  0
   -5.9560   18.1760  -32.6620 C   0  0  0  0  0  0  0  0  0  0  0  0
   -6.3280   16.9040  -33.1060 C   0  0  0  0  0  0  0  0  0  0  0  0
   -5.5640   16.2390  -34.0850 C   0  0  0  0  0  0  0  0  0  0  0  0
   -5.9350   14.9840  -34.5930 O   0  0  0  0  0  0  0  0  0  0  0  0
   -7.2030   14.3670  -34.3770 C   0  0  0  0  0  0  0  0  0  0  0  0
   -4.3990   16.8430  -34.5850 C   0  0  0  0  0  0  0  0  0  0  0  0
   -3.6690   16.1760  -35.5810 O   0  0  0  0  0  0  0  0  0  0  0  0
   -2.8570   15.0290  -35.3490 C   0  0  0  0  0  0  0  0  0  0  0  0
   -4.0060   18.1030  -34.0950 C   0  0  0  0  0  0  0  0  0  0  0  0
   -8.6932   21.2243  -30.1015 H   0  0  0  0  0  0  0  0  0  0  0  0
   -9.7579   20.8885  -31.5089 H   0  0  0  0  0  0  0  0  0  0  0  0
   -8.0587   20.3059  -31.5089 H   0  0  0  0  0  0  0  0  0  0  0  0
   -8.1894   24.5329  -30.2246 H   0  0  0  0  0  0  0  0  0  0  0  0
   -6.1073   25.7135  -29.5462 H   0  0  0  0  0  0  0  0  0  0  0  0
   -1.0442   23.4608  -31.1131 H   0  0  0  0  0  0  0  0  0  0  0  0
   -0.3129   21.1139  -31.5421 H   0  0  0  0  0  0  0  0  0  0  0  0
   -2.2234   19.8391  -27.8746 H   0  0  0  0  0  0  0  0  0  0  0  0
   -2.9478   22.1908  -27.4331 H   0  0  0  0  0  0  0  0  0  0  0  0
   -3.7716   23.0012  -31.9687 H   0  0  0  0  0  0  0  0  0  0  0  0
   -6.6920   20.9890  -33.0940 H   0  0  0  0  0  0  0  0  0  0  0  0
   -6.5711   18.6984  -31.9145 H   0  0  0  0  0  0  0  0  0  0  0  0
   -7.2228   16.4193  -32.6884 H   0  0  0  0  0  0  0  0  0  0  0  0
   -7.3877   14.2771  -33.2963 H   0  0  0  0  0  0  0  0  0  0  0  0
   -7.9925   14.9817  -34.8340 H   0  0  0  0  0  0  0  0  0  0  0  0
   -7.2065   13.3665  -34.8340 H   0  0  0  0  0  0  0  0  0  0  0  0
   -2.7456   14.8716  -34.2660 H   0  0  0  0  0  0  0  0  0  0  0  0
   -3.3322   14.1458  -35.8009 H   0  0  0  0  0  0  0  0  0  0  0  0
   -1.8661   15.1837  -35.8009 H   0  0  0  0  0  0  0  0  0  0  0  0
   -3.0658   18.5548  -34.4440 H   0  0  0  0  0  0  0  0  0  0  0  0
  1  2  1  0
  2  3  1  0
  3  4  2  0
  4  5  1  0
  5  6  2  0
  6  7  1  0
  7  8  1  0
  8  9  2  0
  8 10  2  0
  8 11  1  0
 11 12  2  0
 12 13  1  0
 13 14  2  0
 14 15  1  0
 14 16  1  0
 16 17  2  0
  6 18  1  0
 18 19  2  0
 19 20  1  0
 20 21  1  0
 21 22  2  0
 21 23  2  0
 21 24  1  0
 24 25  2  0
 25 26  1  0
 26 27  2  0
 27 28  1  0
 28 29  1  0
 27 30  1  0
 30 31  1  0
 31 32  1  0
 30 33  2  0
 19  3  1  0
 33 24  1  0
 17 11  1  0
  1 34  1  0
  1 35  1  0
  1 36  1  0
  4 37  1  0
  5 38  1  0
 12 39  1  0
 13 40  1  0
 16 41  1  0
 17 42  1  0
 18 43  1  0
 20 44  1  0
 25 45  1  0
 26 46  1  0
 29 47  1  0
 29 48  1  0
 29 49  1  0
 32 50  1  0
 32 51  1  0
 32 52  1  0
 33 53  1  0
M  CHG  1   7  -1
M  END
>  <UniqueID>  (13) 
13

>  <SMILES>  (13) 
COc1ccc([N-]S(=O)(=O)c2ccc(F)cc2)cc1NS(=O)(=O)c1ccc(OC)c(OC)c1

>  <Energy>  (13) 
59.4872068779496

>  <Genealogy>  (13) 
COc1ccc([N-]S(=O)(=O)c2ccc(F)cc2)cc1NS(=O)(=O)c1ccc(OC)c(OC)c1 (protonated)
COc1ccc([N-]S(=O)(=O)c2ccc(F)cc2)cc1NS(=O)(=O)c1ccc(OC)c(OC)c1 (3D coordinates assigned)
COc1ccc([N-]S(=O)(=O)c2ccc(F)cc2)cc1NS(=O)(=O)c1ccc(OC)c(OC)c1 (optimized conformer: 59.4872068779496 kcal/mol)

>  <smiles>  (13) 
COc1ccc(NS(=O)(=O)c2ccc(F)cc2)cc1NS(=O)(=O)c1ccc(OC)c(OC)c1

>  <score_type>  (13) 
oracle

>  <origin>  (13) 
adgpu

>  <m_score__min__energy>  (13) 
-9.9100000000000001

>  <m_primary>  (13) 
energy

$$$$
13:0
     RDKit          3D

 54 58  0  0  0  0  0  0  0  0999 V2000
    1.1950   30.8930  -24.3040 C   0  0  0  0  0  0  0  0  0  0  0  0
    1.0130   29.4030  -24.2650 C   0  0  0  0  0  0  0  0  0  0  0  0
    1.8530   28.6090  -23.4720 C   0  0  0  0  0  0  0  0  0  0  0  0
    1.7060   27.2180  -23.4650 C   0  0  0  0  0  0  0  0  0  0  0  0
    0.7190   26.6030  -24.2480 C   0  0  0  0  0  0  0  0  0  0  0  0
    0.5980   25.1700  -24.2350 N   0  0  0  0  0  0  0  0  0  0  0  0
   -0.3780   24.4460  -24.9980 C   0  0  0  0  0  0  0  0  0  0  0  0
   -0.1930   22.8240  -25.1760 S   0  0  0  0  0  0  0  0  0  0  0  0
   -1.6350   25.0610  -25.3230 N   0  0  0  0  0  0  0  0  0  0  0  0
   -2.4280   24.7250  -26.4740 C   0  0  0  0  0  0  0  0  0  0  0  0
   -3.8190   24.8830  -26.4230 C   0  0  0  0  0  0  0  0  0  0  0  0
   -4.6090   24.5890  -27.5380 C   0  0  0  0  0  0  0  0  0  0  0  0
   -4.0180   24.1440  -28.7340 C   0  0  0  0  0  0  0  0  0  0  0  0
   -4.8570   23.8330  -29.9190 C   0  0  0  0  0  0  0  0  0  0  0  0
   -5.6610   24.8250  -30.5040 C   0  0  0  0  0  0  0  0  0  0  0  0
   -6.4480   24.5320  -31.6170 C   0  0  0  0  0  0  0  0  0  0  0  0
   -6.4470   23.2470  -32.1620 C   0  0  0  0  0  0  0  0  0  0  0  0
   -5.6550   22.2320  -31.5940 C   0  0  0  0  0  0  0  0  0  0  0  0
   -5.6360   20.8590  -32.1600 C   0  0  0  0  0  0  0  0  0  0  0  0
   -5.9900   19.7620  -31.4330 N   0  0  0  0  0  0  0  0  0  0  0  0
   -5.8410   18.7550  -32.3090 C   0  0  0  0  0  0  0  0  0  0  0  0
   -6.0710   17.3970  -32.0960 C   0  0  0  0  0  0  0  0  0  0  0  0
   -5.8520   16.5200  -33.1760 C   0  0  0  0  0  0  0  0  0  0  0  0
   -5.4130   17.0170  -34.4250 C   0  0  0  0  0  0  0  0  0  0  0  0
   -5.1920   18.3960  -34.6040 C   0  0  0  0  0  0  0  0  0  0  0  0
   -5.4190   19.2320  -33.5130 C   0  0  0  0  0  0  0  0  0  0  0  0
   -5.2840   20.5610  -33.4400 N   0  0  0  0  0  0  0  0  0  0  0  0
   -4.8600   22.5390  -30.4740 C   0  0  0  0  0  0  0  0  0  0  0  0
   -2.6200   24.0080  -28.7910 C   0  0  0  0  0  0  0  0  0  0  0  0
   -1.8320   24.3010  -27.6750 C   0  0  0  0  0  0  0  0  0  0  0  0
   -0.0940   27.3990  -25.0750 C   0  0  0  0  0  0  0  0  0  0  0  0
    0.0530   28.7890  -25.0830 C   0  0  0  0  0  0  0  0  0  0  0  0
    1.2427   31.2836  -23.2768 H   0  0  0  0  0  0  0  0  0  0  0  0
    2.1293   31.1346  -24.8319 H   0  0  0  0  0  0  0  0  0  0  0  0
    0.3463   31.3524  -24.8319 H   0  0  0  0  0  0  0  0  0  0  0  0
    2.6302   29.0813  -22.8533 H   0  0  0  0  0  0  0  0  0  0  0  0
    2.3698   26.6021  -22.8405 H   0  0  0  0  0  0  0  0  0  0  0  0
    1.2430   24.6280  -23.6160 H   0  0  0  0  0  0  0  0  0  0  0  0
   -1.9950   25.7990  -24.6750 H   0  0  0  0  0  0  0  0  0  0  0  0
   -4.2936   25.2415  -25.4976 H   0  0  0  0  0  0  0  0  0  0  0  0
   -5.7011   24.7066  -27.4795 H   0  0  0  0  0  0  0  0  0  0  0  0
   -5.6698   25.8404  -30.0810 H   0  0  0  0  0  0  0  0  0  0  0  0
   -7.0727   25.3173  -32.0677 H   0  0  0  0  0  0  0  0  0  0  0  0
   -7.0696   23.0262  -33.0416 H   0  0  0  0  0  0  0  0  0  0  0  0
   -6.4115   17.0234  -31.1190 H   0  0  0  0  0  0  0  0  0  0  0  0
   -6.0236   15.4411  -33.0471 H   0  0  0  0  0  0  0  0  0  0  0  0
   -5.2433   16.3226  -35.2611 H   0  0  0  0  0  0  0  0  0  0  0  0
   -4.8526   18.7984  -35.5698 H   0  0  0  0  0  0  0  0  0  0  0  0
   -4.9900   21.2010  -34.2090 H   0  0  0  0  0  0  0  0  0  0  0  0
   -4.2312   21.7559  -30.0252 H   0  0  0  0  0  0  0  0  0  0  0  0
   -2.1425   23.6681  -29.7219 H   0  0  0  0  0  0  0  0  0  0  0  0
   -0.7384   24.1993  -27.7363 H   0  0  0  0  0  0  0  0  0  0  0  0
   -0.8495   26.9251  -25.7189 H   0  0  0  0  0  0  0  0  0  0  0  0
   -0.5866   29.4038  -25.7333 H   0  0  0  0  0  0  0  0  0  0  0  0
  1  2  1  0
  2  3  2  0
  3  4  1  0
  4  5  2  0
  5  6  1  0
  6  7  1  0
  7  8  2  0
  7  9  1  0
  9 10  1  0
 10 11  2  0
 11 12  1  0
 12 13  2  0
 13 14  1  0
 14 15  2  0
 15 16  1  0
 16 17  2  0
 17 18  1  0
 18 19  1  0
 19 20  2  0
 20 21  1  0
 21 22  2  0
 22 23  1  0
 23 24  2  0
 24 25  1  0
 25 26  2  0
 26 27  1  0
 18 28  2  0
 13 29  1  0
 29 30  2  0
  5 31  1  0
 31 32  2  0
 32  2  1  0
 30 10  1  0
 28 14  1  0
 27 19  1  0
 26 21  1  0
  1 33  1  0
  1 34  1  0
  1 35  1  0
  3 36  1  0
  4 37  1  0
  6 38  1  0
  9 39  1  0
 11 40  1  0
 12 41  1  0
 15 42  1  0
 16 43  1  0
 17 44  1  0
 22 45  1  0
 23 46  1  0
 24 47  1  0
 25 48  1  0
 27 49  1  0
 28 50  1  0
 29 51  1  0
 30 52  1  0
 31 53  1  0
 32 54  1  0
M  END
>  <UniqueID>  (14) 
14

>  <SMILES>  (14) 
Cc1ccc(NC(=S)Nc2ccc(-c3cccc(-c4nc5ccccc5[nH]4)c3)cc2)cc1

>  <Energy>  (14) 
110.99439606478677

>  <Genealogy>  (14) 
Cc1ccc(NC(=S)Nc2ccc(-c3cccc(-c4nc5ccccc5[nH]4)c3)cc2)cc1 (3D coordinates assigned)
Cc1ccc(NC(=S)Nc2ccc(-c3cccc(-c4nc5ccccc5[nH]4)c3)cc2)cc1 (optimized conformer: 110.99439606478677 kcal/mol)

>  <smiles>  (14) 
Cc1ccc(NC(=S)Nc2ccc(-c3cccc(-c4nc5ccccc5[nH]4)c3)cc2)cc1

>  <score_type>  (14) 
oracle

>  <origin>  (14) 
adgpu

>  <m_score__min__energy>  (14) 
-9.5500000000000007

>  <m_primary>  (14) 
energy

$$$$
14:0
     RDKit          3D

 45 48  0  0  0  0  0  0  0  0999 V2000
   -1.2290   26.0370  -29.9620 H   0  0  0  0  0  0  0  0  0  0  0  0
   -1.3880   25.6760  -28.9950 N   0  0  0  0  0  0  0  0  0  0  0  0
   -2.6780   24.5300  -29.0870 S   0  0  0  0  0  0  0  0  0  0  0  0
   -3.7490   24.9030  -28.1020 O   0  0  0  0  0  0  0  0  0  0  0  0
   -3.2670   24.5440  -30.4700 O   0  0  0  0  0  0  0  0  0  0  0  0
   -2.0580   22.9240  -28.7240 C   0  0  0  0  0  0  0  0  0  0  0  0
   -1.8090   22.5420  -27.3990 C   0  0  0  0  0  0  0  0  0  0  0  0
   -1.9927   23.2524  -26.5795 H   0  0  0  0  0  0  0  0  0  0  0  0
   -1.3280   21.2610  -27.1160 C   0  0  0  0  0  0  0  0  0  0  0  0
   -1.1475   20.9598  -26.0736 H   0  0  0  0  0  0  0  0  0  0  0  0
   -1.0760   20.3620  -28.1560 C   0  0  0  0  0  0  0  0  0  0  0  0
   -0.7158   19.3483  -27.9266 H   0  0  0  0  0  0  0  0  0  0  0  0
   -1.2790   20.7430  -29.4880 C   0  0  0  0  0  0  0  0  0  0  0  0
   -1.0290   19.7810  -30.5270 N   0  0  0  0  0  0  0  0  0  0  0  0
   -1.6650   19.6710  -31.6570 C   0  0  0  0  0  0  0  0  0  0  0  0
   -2.6230   20.5690  -32.0200 N   0  0  0  0  0  0  0  0  0  0  0  0
   -3.2820   20.4680  -33.2030 C   0  0  0  0  0  0  0  0  0  0  0  0
   -4.2540   21.4280  -33.5170 O   0  0  0  0  0  0  0  0  0  0  0  0
   -5.2720   21.8540  -32.6510 C   0  0  0  0  0  0  0  0  0  0  0  0
   -5.1310   23.0900  -32.0120 C   0  0  0  0  0  0  0  0  0  0  0  0
   -4.2302   23.6941  -32.1954 H   0  0  0  0  0  0  0  0  0  0  0  0
   -6.1170   23.5710  -31.1430 C   0  0  0  0  0  0  0  0  0  0  0  0
   -5.9220   24.8270  -30.5470 O   0  0  0  0  0  0  0  0  0  0  0  0
   -6.6720   25.3190  -29.4420 C   0  0  0  0  0  0  0  0  0  0  0  0
   -6.1920   25.0041  -28.5037 H   0  0  0  0  0  0  0  0  0  0  0  0
   -6.7092   26.4176  -29.4841 H   0  0  0  0  0  0  0  0  0  0  0  0
   -7.6945   24.9156  -29.4841 H   0  0  0  0  0  0  0  0  0  0  0  0
   -7.2610   22.7890  -30.8940 C   0  0  0  0  0  0  0  0  0  0  0  0
   -8.0458   23.1634  -30.2203 H   0  0  0  0  0  0  0  0  0  0  0  0
   -7.4020   21.5340  -31.5030 C   0  0  0  0  0  0  0  0  0  0  0  0
   -8.5200   20.7280  -31.2450 C   0  0  0  0  0  0  0  0  0  0  0  0
   -9.3144   21.0861  -30.5736 H   0  0  0  0  0  0  0  0  0  0  0  0
   -8.6230   19.4700  -31.8420 C   0  0  0  0  0  0  0  0  0  0  0  0
   -9.4995   18.8342  -31.6483 H   0  0  0  0  0  0  0  0  0  0  0  0
   -7.6040   19.0260  -32.6870 C   0  0  0  0  0  0  0  0  0  0  0  0
   -7.6726   18.0330  -33.1553 H   0  0  0  0  0  0  0  0  0  0  0  0
   -6.5270   19.8190  -32.9320 N   0  0  0  0  0  0  0  0  0  0  0  0
   -6.4010   21.0570  -32.3800 C   0  0  0  0  0  0  0  0  0  0  0  0
   -2.9450   19.4330  -34.0870 C   0  0  0  0  0  0  0  0  0  0  0  0
   -3.4508   19.3377  -35.0591 H   0  0  0  0  0  0  0  0  0  0  0  0
   -1.9560   18.5280  -33.7080 C   0  0  0  0  0  0  0  0  0  0  0  0
   -1.6782   17.7029  -34.3803 H   0  0  0  0  0  0  0  0  0  0  0  0
   -1.3350   18.6650  -32.5080 N   0  0  0  0  0  0  0  0  0  0  0  0
   -1.7970   22.0220  -29.7660 C   0  0  0  0  0  0  0  0  0  0  0  0
   -1.9983   22.3159  -30.8067 H   0  0  0  0  0  0  0  0  0  0  0  0
  1  2  1  0
  2  3  1  0
  3  4  2  0
  3  5  2  0
  3  6  1  0
  6  7  2  0
  7  8  1  0
  7  9  1  0
  9 10  1  0
  9 11  2  0
 11 12  1  0
 11 13  1  0
 13 14  1  0
 14 15  2  0
 15 16  1  0
 16 17  2  0
 17 18  1  0
 18 19  1  0
 19 20  2  0
 20 21  1  0
 20 22  1  0
 22 23  1  0
 23 24  1  0
 24 25  1  0
 24 26  1  0
 24 27  1  0
 22 28  2  0
 28 29  1  0
 28 30  1  0
 30 31  2  0
 31 32  1  0
 31 33  1  0
 33 34  1  0
 33 35  2  0
 35 36  1  0
 35 37  1  0
 37 38  2  0
 17 39  1  0
 39 40  1  0
 39 41  2  0
 41 42  1  0
 41 43  1  0
 13 44  2  0
 44 45  1  0
 44  6  1  0
 43 15  1  0
 38 19  1  0
 38 30  1  0
M  CHG  2   2  -1  43  -1
M  END
>  <UniqueID>  (15) 
15

>  <SMILES>  (15) 
COc1cc(Oc2cc[n-]/c(=N/c3cccc(S([NH-])(=O)=O)c3)n2)c2ncccc2c1

>  <Energy>  (15) 
67.28856643327782

>  <Genealogy>  (15) 
COc1cc(Oc2cc[n-]c(=Nc3cccc(S([NH-])(=O)=O)c3)n2)c2ncccc2c1 (protonated)
COc1cc(Oc2cc[n-]/c(=N/c3cccc(S([NH-])(=O)=O)c3)n2)c2ncccc2c1 (cis-trans isomerization)
COc1cc(Oc2cc[n-]/c(=N/c3cccc(S([NH-])(=O)=O)c3)n2)c2ncccc2c1 (3D coordinates assigned)
COc1cc(Oc2cc[n-]/c(=N/c3cccc(S([NH-])(=O)=O)c3)n2)c2ncccc2c1 (optimized conformer: 67.28856643327782 kcal/mol)

>  <smiles>  (15) 
COc1cc(Oc2cc[nH]c(=Nc3cccc(S(N)(=O)=O)c3)n2)c2ncccc2c1

>  <score_type>  (15) 
oracle

>  <origin>  (15) 
adgpu

>  <m_score__min__energy>  (15) 
-12.02

>  <m_primary>  (15) 
energy

$$$$
15:0
     RDKit          3D

 55 57  0  0  0  0  0  0  0  0999 V2000
   -3.4050   14.2230  -33.8970 C   0  0  0  0  0  0  0  0  0  0  0  0
   -4.7660   14.6170  -34.0620 O   0  0  0  0  0  0  0  0  0  0  0  0
   -5.3320   15.7700  -33.4940 C   0  0  0  0  0  0  0  0  0  0  0  0
   -5.2670   15.9280  -32.1030 C   0  0  0  0  0  0  0  0  0  0  0  0
   -5.8130   17.0620  -31.4900 C   0  0  0  0  0  0  0  0  0  0  0  0
   -6.4320   18.0550  -32.2580 C   0  0  0  0  0  0  0  0  0  0  0  0
   -6.9990   19.1880  -31.5840 N   0  0  0  0  0  0  0  0  0  0  0  0
   -7.3420   20.7300  -32.3080 S   0  0  0  0  0  0  0  0  0  0  0  0
   -7.2340   20.5790  -33.8000 O   0  0  0  0  0  0  0  0  0  0  0  0
   -8.7490   21.1310  -31.9560 O   0  0  0  0  0  0  0  0  0  0  0  0
   -6.1870   21.9650  -31.7720 C   0  0  0  0  0  0  0  0  0  0  0  0
   -6.6710   23.1310  -31.1580 C   0  0  0  0  0  0  0  0  0  0  0  0
   -5.7910   24.1200  -30.7150 C   0  0  0  0  0  0  0  0  0  0  0  0
   -4.4110   23.9500  -30.8460 C   0  0  0  0  0  0  0  0  0  0  0  0
   -3.5400   24.9860  -30.3670 N   0  0  0  0  0  0  0  0  0  0  0  0
   -2.5860   24.8550  -29.3060 C   0  0  0  0  0  0  0  0  0  0  0  0
   -1.6130   25.6510  -29.2170 O   0  0  0  0  0  0  0  0  0  0  0  0
   -2.7450   23.7940  -28.3580 N   0  0  0  0  0  0  0  0  0  0  0  0
   -2.1530   22.4880  -28.4390 C   0  0  0  0  0  0  0  0  0  0  0  0
   -1.1860   22.2460  -29.4200 C   0  0  0  0  0  0  0  0  0  0  0  0
   -0.5570   21.0010  -29.5060 C   0  0  0  0  0  0  0  0  0  0  0  0
   -0.8770   19.9640  -28.6040 C   0  0  0  0  0  0  0  0  0  0  0  0
   -0.2260   18.6680  -28.6910 N   0  0  0  0  0  0  0  0  0  0  0  0
    0.2630   18.1620  -29.9830 C   0  0  0  0  0  0  0  0  0  0  0  0
   -0.0540   17.8340  -27.4940 C   0  0  0  0  0  0  0  0  0  0  0  0
   -1.8410   20.2240  -27.6060 C   0  0  0  0  0  0  0  0  0  0  0  0
   -2.4620   21.4730  -27.5180 C   0  0  0  0  0  0  0  0  0  0  0  0
   -3.9140   22.7950  -31.4700 C   0  0  0  0  0  0  0  0  0  0  0  0
   -4.7890   21.7930  -31.9270 C   0  0  0  0  0  0  0  0  0  0  0  0
   -4.2110   20.5740  -32.6020 C   0  0  0  0  0  0  0  0  0  0  0  0
   -6.5050   17.9000  -33.6550 C   0  0  0  0  0  0  0  0  0  0  0  0
   -5.9550   16.7670  -34.2700 C   0  0  0  0  0  0  0  0  0  0  0  0
   -3.1704   14.1551  -32.8245 H   0  0  0  0  0  0  0  0  0  0  0  0
   -3.2473   13.2423  -34.3697 H   0  0  0  0  0  0  0  0  0  0  0  0
   -2.7478   14.9678  -34.3697 H   0  0  0  0  0  0  0  0  0  0  0  0
   -4.7832   15.1549  -31.4880 H   0  0  0  0  0  0  0  0  0  0  0  0
   -5.7551   17.1734  -30.3972 H   0  0  0  0  0  0  0  0  0  0  0  0
   -7.7544   23.2667  -31.0246 H   0  0  0  0  0  0  0  0  0  0  0  0
   -6.1873   25.0396  -30.2596 H   0  0  0  0  0  0  0  0  0  0  0  0
   -0.9182   23.0424  -30.1299 H   0  0  0  0  0  0  0  0  0  0  0  0
    0.1976   20.8271  -30.2872 H   0  0  0  0  0  0  0  0  0  0  0  0
    1.0178   17.3810  -29.8090 H   0  0  0  0  0  0  0  0  0  0  0  0
   -0.5774   17.7392  -30.5530 H   0  0  0  0  0  0  0  0  0  0  0  0
    0.7143   18.9875  -30.5530 H   0  0  0  0  0  0  0  0  0  0  0  0
   -0.1818   18.4535  -26.5940 H   0  0  0  0  0  0  0  0  0  0  0  0
   -0.8054   17.0306  -27.4958 H   0  0  0  0  0  0  0  0  0  0  0  0
    0.9539   17.3934  -27.4958 H   0  0  0  0  0  0  0  0  0  0  0  0
   -2.1067   19.4336  -26.8886 H   0  0  0  0  0  0  0  0  0  0  0  0
   -3.1976   21.6626  -26.7224 H   0  0  0  0  0  0  0  0  0  0  0  0
   -2.8290   22.6722  -31.6030 H   0  0  0  0  0  0  0  0  0  0  0  0
   -3.8717   19.8584  -31.8386 H   0  0  0  0  0  0  0  0  0  0  0  0
   -4.9815   20.1026  -33.2298 H   0  0  0  0  0  0  0  0  0  0  0  0
   -3.3584   20.8722  -33.2298 H   0  0  0  0  0  0  0  0  0  0  0  0
   -6.9958   18.6713  -34.2667 H   0  0  0  0  0  0  0  0  0  0  0  0
   -6.0101   16.6559  -35.3630 H   0  0  0  0  0  0  0  0  0  0  0  0
  1  2  1  0
  2  3  1  0
  3  4  2  0
  4  5  1  0
  5  6  2  0
  6  7  1  0
  7  8  1  0
  8  9  2  0
  8 10  2  0
  8 11  1  0
 11 12  2  0
 12 13  1  0
 13 14  2  0
 14 15  1  0
 15 16  1  0
 16 17  2  0
 16 18  1  0
 18 19  1  0
 19 20  2  0
 20 21  1  0
 21 22  2  0
 22 23  1  0
 23 24  1  0
 23 25  1  0
 22 26  1  0
 26 27  2  0
 14 28  1  0
 28 29  2  0
 29 30  1  0
  6 31  1  0
 31 32  2  0
 32  3  1  0
 29 11  1  0
 27 19  1  0
  1 33  1  0
  1 34  1  0
  1 35  1  0
  4 36  1  0
  5 37  1  0
 12 38  1  0
 13 39  1  0
 20 40  1  0
 21 41  1  0
 24 42  1  0
 24 43  1  0
 24 44  1  0
 25 45  1  0
 25 46  1  0
 25 47  1  0
 26 48  1  0
 27 49  1  0
 28 50  1  0
 30 51  1  0
 30 52  1  0
 30 53  1  0
 31 54  1  0
 32 55  1  0
M  CHG  3   7  -1  15  -1  18  -1
M  END
>  <UniqueID>  (16) 
16

>  <SMILES>  (16) 
COc1ccc([N-]S(=O)(=O)c2ccc([N-]C(=O)[N-]c3ccc(N(C)C)cc3)cc2C)cc1

>  <Energy>  (16) 
70.3123419611335

>  <Genealogy>  (16) 
COc1ccc([N-]S(=O)(=O)c2ccc([N-]C(=O)[N-]c3ccc(N(C)C)cc3)cc2C)cc1 (protonated)
COc1ccc([N-]S(=O)(=O)c2ccc([N-]C(=O)[N-]c3ccc(N(C)C)cc3)cc2C)cc1 (3D coordinates assigned)
COc1ccc([N-]S(=O)(=O)c2ccc([N-]C(=O)[N-]c3ccc(N(C)C)cc3)cc2C)cc1 (optimized conformer: 70.3123419611335 kcal/mol)

>  <smiles>  (16) 
COc1ccc(NS(=O)(=O)c2ccc(NC(=O)Nc3ccc(N(C)C)cc3)cc2C)cc1

>  <score_type>  (16) 
oracle

>  <origin>  (16) 
adgpu

>  <m_score__min__energy>  (16) 
-11.73

>  <m_primary>  (16) 
energy

$$$$
16:0
     RDKit          3D

 44 47  0  0  1  0  0  0  0  0999 V2000
   -8.5980   23.5470  -32.7100 O   0  0  0  0  0  0  0  0  0  0  0  0
   -7.9030   22.9140  -31.8800 C   0  0  0  0  0  0  0  0  0  0  0  0
   -7.0980   23.5030  -30.8810 N   0  0  0  0  0  0  0  0  0  0  0  0
   -5.8350   23.3130  -30.7400 C   0  0  0  0  0  0  0  0  0  0  0  0
   -5.1610   22.4630  -31.6230 C   0  0  0  0  0  0  0  0  0  0  0  0
   -3.8120   22.2540  -31.4740 C   0  0  0  0  0  0  0  0  0  0  0  0
   -3.0820   21.3640  -32.3900 C   0  0  0  0  0  0  0  0  0  0  0  0
   -1.7290   21.5440  -32.6570 C   0  0  0  0  0  0  0  0  0  0  0  0
   -1.0400   20.7050  -33.5240 C   0  0  0  0  0  0  0  0  0  0  0  0
   -1.6780   19.6500  -34.1570 C   0  0  0  0  0  0  0  0  0  0  0  0
   -3.0120   19.4610  -33.9020 C   0  0  0  0  0  0  0  0  0  0  0  0
   -3.6910   20.3110  -33.0300 C   0  0  0  0  0  0  0  0  0  0  0  0
   -3.1870   22.8890  -30.4660 N   0  0  0  0  0  0  0  0  0  0  0  0
   -3.8100   23.7120  -29.6010 C   0  0  0  0  0  0  0  0  0  0  0  0
   -3.1310   24.3910  -28.5110 C   0  0  0  0  0  0  0  0  0  0  0  0
   -3.7710   24.5250  -27.2850 C   0  0  0  0  0  0  0  0  0  0  0  0
   -3.1420   25.1680  -26.2190 C   0  0  0  0  0  0  0  0  0  0  0  0
   -1.8720   25.6850  -26.3500 C   0  0  0  0  0  0  0  0  0  0  0  0
   -1.2320   25.5620  -27.5440 C   0  0  0  0  0  0  0  0  0  0  0  0
   -1.8650   24.9210  -28.6020 C   0  0  0  0  0  0  0  0  0  0  0  0
   -5.1290   23.9010  -29.7670 N   0  0  0  0  0  0  0  0  0  0  0  0
   -7.9460   21.4500  -31.9730 C   0  0  0  0  0  0  0  0  0  0  0  0
   -7.2140   20.7620  -32.9280 C   0  0  0  0  0  0  0  0  0  0  0  0
   -7.2290   19.3880  -33.0420 C   0  0  0  0  0  0  0  0  0  0  0  0
   -8.0080   18.6350  -32.1720 C   0  0  0  0  0  0  0  0  0  0  0  0
   -8.7340   19.3310  -31.2250 C   0  0  0  0  0  0  0  0  0  0  0  0
   -8.7160   20.6960  -31.1160 C   0  0  0  0  0  0  0  0  0  0  0  0
   -5.7101   21.9633  -32.4346 H   0  0  0  0  0  0  0  0  0  0  0  0
   -1.1913   22.3708  -32.1699 H   0  0  0  0  0  0  0  0  0  0  0  0
    0.0296   20.8810  -33.7111 H   0  0  0  0  0  0  0  0  0  0  0  0
   -1.1316   18.9853  -34.8423 H   0  0  0  0  0  0  0  0  0  0  0  0
   -3.5497   18.6338  -34.3884 H   0  0  0  0  0  0  0  0  0  0  0  0
   -4.7605   20.1311  -32.8462 H   0  0  0  0  0  0  0  0  0  0  0  0
   -2.1710   22.7600  -30.3220 H   0  0  0  0  0  0  0  0  0  0  0  0
   -4.7850   24.1195  -27.1536 H   0  0  0  0  0  0  0  0  0  0  0  0
   -3.6687   25.2638  -25.2581 H   0  0  0  0  0  0  0  0  0  0  0  0
   -1.3834   26.1890  -25.5031 H   0  0  0  0  0  0  0  0  0  0  0  0
   -0.2177   25.9682  -27.6715 H   0  0  0  0  0  0  0  0  0  0  0  0
   -1.3280   24.8332  -29.5580 H   0  0  0  0  0  0  0  0  0  0  0  0
   -6.5919   21.3393  -33.6278 H   0  0  0  0  0  0  0  0  0  0  0  0
   -6.6277   18.8907  -33.8173 H   0  0  0  0  0  0  0  0  0  0  0  0
   -8.0448   17.5374  -32.2344 H   0  0  0  0  0  0  0  0  0  0  0  0
   -9.3585   18.7596  -30.5225 H   0  0  0  0  0  0  0  0  0  0  0  0
   -9.3189   21.1919  -30.3410 H   0  0  0  0  0  0  0  0  0  0  0  0
  1  2  2  0
  2  3  1  0
  3  4  2  0
  4  5  1  0
  5  6  2  0
  6  7  1  0
  7  8  2  0
  8  9  1  0
  9 10  2  0
 10 11  1  0
 11 12  2  0
  6 13  1  0
 13 14  1  0
 14 15  1  0
 15 16  2  0
 16 17  1  0
 17 18  2  0
 18 19  1  0
 19 20  2  0
 14 21  2  0
  2 22  1  0
 22 23  2  0
 23 24  1  0
 24 25  2  0
 25 26  1  0
 26 27  2  0
 21  4  1  0
 27 22  1  0
 12  7  1  0
 20 15  1  0
  5 28  1  0
  8 29  1  0
  9 30  1  0
 10 31  1  0
 11 32  1  0
 12 33  1  0
 13 34  1  0
 16 35  1  0
 17 36  1  0
 18 37  1  0
 19 38  1  0
 20 39  1  0
 23 40  1  0
 24 41  1  0
 25 42  1  0
 26 43  1  0
 27 44  1  0
M  END
>  <smiles>  (17) 
O=C(N=c1cc(-c2ccccc2)[nH]c(-c2ccccc2)n1)c1ccccc1

>  <score_type>  (17) 
oracle

>  <origin>  (17) 
adgpu

>  <m_score__min__energy>  (17) 
-9.0299999999999994

>  <m_primary>  (17) 
energy

$$$$
17:0
     RDKit          3D

 33 35  0  0  0  0  0  0  0  0999 V2000
   -9.7190   19.6463  -32.1444 H   0  0  0  0  0  0  0  0  0  0  0  0
   -8.9470   20.4120  -31.9780 C   0  0  0  0  0  0  0  0  0  0  0  0
   -9.1810   21.9020  -31.2280 S   0  0  0  0  0  0  0  0  0  0  0  0
   -7.5790   22.3610  -31.4030 C   0  0  0  0  0  0  0  0  0  0  0  0
   -7.1080   23.4920  -30.9710 N   0  0  0  0  0  0  0  0  0  0  0  0
   -5.4530   23.9910  -31.1170 S   0  0  0  0  0  0  0  0  0  0  0  0
   -5.3970   25.4900  -31.2010 O   0  0  0  0  0  0  0  0  0  0  0  0
   -4.8740   23.4090  -32.3760 O   0  0  0  0  0  0  0  0  0  0  0  0
   -4.5350   23.4640  -29.7090 C   0  0  0  0  0  0  0  0  0  0  0  0
   -4.5330   24.2300  -28.5340 C   0  0  0  0  0  0  0  0  0  0  0  0
   -5.1177   25.1604  -28.4846 H   0  0  0  0  0  0  0  0  0  0  0  0
   -3.7900   23.8140  -27.4260 C   0  0  0  0  0  0  0  0  0  0  0  0
   -3.7893   24.4176  -26.5064 H   0  0  0  0  0  0  0  0  0  0  0  0
   -3.0470   22.6300  -27.4860 C   0  0  0  0  0  0  0  0  0  0  0  0
   -2.4611   22.3037  -26.6141 H   0  0  0  0  0  0  0  0  0  0  0  0
   -3.0490   21.8620  -28.6530 C   0  0  0  0  0  0  0  0  0  0  0  0
   -2.4654   20.9307  -28.6991 H   0  0  0  0  0  0  0  0  0  0  0  0
   -3.7920   22.2760  -29.7620 C   0  0  0  0  0  0  0  0  0  0  0  0
   -3.7939   21.6683  -30.6789 H   0  0  0  0  0  0  0  0  0  0  0  0
   -6.8510   21.4060  -32.0280 N   0  0  0  0  0  0  0  0  0  0  0  0
   -5.8280   21.4770  -32.2210 H   0  0  0  0  0  0  0  0  0  0  0  0
   -7.6030   20.3150  -32.3530 C   0  0  0  0  0  0  0  0  0  0  0  0
   -7.0330   19.1310  -33.0420 C   0  0  0  0  0  0  0  0  0  0  0  0
   -6.1300   19.2910  -34.1100 C   0  0  0  0  0  0  0  0  0  0  0  0
   -5.8465   20.3018  -34.4385 H   0  0  0  0  0  0  0  0  0  0  0  0
   -5.5910   18.1750  -34.7560 C   0  0  0  0  0  0  0  0  0  0  0  0
   -4.8862   18.3110  -35.5895 H   0  0  0  0  0  0  0  0  0  0  0  0
   -5.9450   16.8870  -34.3460 C   0  0  0  0  0  0  0  0  0  0  0  0
   -5.5186   16.0101  -34.8550 H   0  0  0  0  0  0  0  0  0  0  0  0
   -6.8410   16.7150  -33.2890 C   0  0  0  0  0  0  0  0  0  0  0  0
   -7.1202   15.7012  -32.9663 H   0  0  0  0  0  0  0  0  0  0  0  0
   -7.3840   17.8270  -32.6400 C   0  0  0  0  0  0  0  0  0  0  0  0
   -8.0906   17.6833  -31.8093 H   0  0  0  0  0  0  0  0  0  0  0  0
  1  2  1  0
  2  3  1  0
  3  4  1  0
  4  5  2  0
  5  6  1  0
  6  7  2  0
  6  8  2  0
  6  9  1  0
  9 10  2  0
 10 11  1  0
 10 12  1  0
 12 13  1  0
 12 14  2  0
 14 15  1  0
 14 16  1  0
 16 17  1  0
 16 18  2  0
 18 19  1  0
  4 20  1  0
 20 21  1  0
 20 22  1  0
 22 23  1  0
 23 24  2  0
 24 25  1  0
 24 26  1  0
 26 27  1  0
 26 28  2  0
 28 29  1  0
 28 30  1  0
 30 31  1  0
 30 32  2  0
 32 33  1  0
 22  2  2  0
 32 23  1  0
 18  9  1  0
M  END
>  <UniqueID>  (18) 
17

>  <SMILES>  (18) 
O=S(=O)(/N=c1\[nH]c(-c2ccccc2)cs1)c1ccccc1

>  <Energy>  (18) 
71.89823582841633

>  <Genealogy>  (18) 
O=S(=O)(/N=c1\[nH]c(-c2ccccc2)cs1)c1ccccc1 (cis-trans isomerization)
O=S(=O)(/N=c1\[nH]c(-c2ccccc2)cs1)c1ccccc1 (3D coordinates assigned)
O=S(=O)(/N=c1\[nH]c(-c2ccccc2)cs1)c1ccccc1 (optimized conformer: 71.89823582841633 kcal/mol)

>  <smiles>  (18) 
O=S(=O)(N=c1[nH]c(-c2ccccc2)cs1)c1ccccc1

>  <score_type>  (18) 
oracle

>  <origin>  (18) 
adgpu

>  <m_score__min__energy>  (18) 
-8.5299999999999994

>  <m_primary>  (18) 
energy

$$$$
18:0
     RDKit          3D

 41 43  0  0  0  0  0  0  0  0999 V2000
   -3.8720   25.3010  -30.8420 N   0  0  0  0  0  0  0  0  0  0  0  0
   -5.1420   24.7930  -29.7860 S   0  0  0  0  0  0  0  0  0  0  0  0
   -5.9580   25.9850  -29.3650 O   0  0  0  0  0  0  0  0  0  0  0  0
   -4.5400   24.1570  -28.5640 O   0  0  0  0  0  0  0  0  0  0  0  0
   -6.1770   23.6460  -30.6290 C   0  0  0  0  0  0  0  0  0  0  0  0
   -7.4770   24.0230  -30.9890 C   0  0  0  0  0  0  0  0  0  0  0  0
   -8.3060   23.1260  -31.6660 C   0  0  0  0  0  0  0  0  0  0  0  0
   -7.8460   21.8440  -31.9790 C   0  0  0  0  0  0  0  0  0  0  0  0
   -6.5520   21.4430  -31.6020 C   0  0  0  0  0  0  0  0  0  0  0  0
   -6.0440   20.1410  -31.9350 N   0  0  0  0  0  0  0  0  0  0  0  0
   -6.2510   19.4990  -33.2080 C   0  0  0  0  0  0  0  0  0  0  0  0
   -6.9860   20.0440  -34.0750 O   0  0  0  0  0  0  0  0  0  0  0  0
   -5.6190   18.1940  -33.5220 C   0  0  0  0  0  0  0  0  0  0  0  0
   -4.2580   18.1450  -33.8710 C   0  0  0  0  0  0  0  0  0  0  0  0
   -3.6460   16.9240  -34.1740 C   0  0  0  0  0  0  0  0  0  0  0  0
   -4.3780   15.7340  -34.1300 C   0  0  0  0  0  0  0  0  0  0  0  0
   -3.7310   14.5330  -34.4550 O   0  0  0  0  0  0  0  0  0  0  0  0
   -3.1490   13.6470  -33.5350 C   0  0  0  0  0  0  0  0  0  0  0  0
   -3.4670   13.7820  -32.1770 C   0  0  0  0  0  0  0  0  0  0  0  0
   -2.9200   12.9080  -31.2330 C   0  0  0  0  0  0  0  0  0  0  0  0
   -2.0620   11.8840  -31.6420 C   0  0  0  0  0  0  0  0  0  0  0  0
   -1.7530   11.7290  -32.9950 C   0  0  0  0  0  0  0  0  0  0  0  0
   -2.3000   12.6020  -33.9420 C   0  0  0  0  0  0  0  0  0  0  0  0
   -5.7470   15.7810  -33.8160 C   0  0  0  0  0  0  0  0  0  0  0  0
   -6.3610   16.9980  -33.5120 C   0  0  0  0  0  0  0  0  0  0  0  0
   -5.7160   22.3600  -30.9450 C   0  0  0  0  0  0  0  0  0  0  0  0
   -2.9880   25.2870  -30.2850 H   0  0  0  0  0  0  0  0  0  0  0  0
   -7.8460   25.0284  -30.7378 H   0  0  0  0  0  0  0  0  0  0  0  0
   -9.3235   23.4292  -31.9536 H   0  0  0  0  0  0  0  0  0  0  0  0
   -8.4991   21.1455  -32.5227 H   0  0  0  0  0  0  0  0  0  0  0  0
   -5.5380   19.6260  -31.1810 H   0  0  0  0  0  0  0  0  0  0  0  0
   -3.6698   19.0739  -33.9061 H   0  0  0  0  0  0  0  0  0  0  0  0
   -2.5812   16.9003  -34.4488 H   0  0  0  0  0  0  0  0  0  0  0  0
   -4.1508   14.5800  -31.8520 H   0  0  0  0  0  0  0  0  0  0  0  0
   -3.1653   13.0266  -30.1673 H   0  0  0  0  0  0  0  0  0  0  0  0
   -1.6295   11.1993  -30.8976 H   0  0  0  0  0  0  0  0  0  0  0  0
   -1.0796   10.9207  -33.3163 H   0  0  0  0  0  0  0  0  0  0  0  0
   -2.0652   12.4705  -35.0086 H   0  0  0  0  0  0  0  0  0  0  0  0
   -6.3385   14.8536  -33.8096 H   0  0  0  0  0  0  0  0  0  0  0  0
   -7.4322   17.0220  -33.2630 H   0  0  0  0  0  0  0  0  0  0  0  0
   -4.6905   22.0670  -30.6758 H   0  0  0  0  0  0  0  0  0  0  0  0
  1  2  1  0
  2  3  2  0
  2  4  2  0
  2  5  1  0
  5  6  2  0
  6  7  1  0
  7  8  2  0
  8  9  1  0
  9 10  1  0
 10 11  1  0
 11 12  2  0
 11 13  1  0
 13 14  2  0
 14 15  1  0
 15 16  2  0
 16 17  1  0
 17 18  1  0
 18 19  2  0
 19 20  1  0
 20 21  2  0
 21 22  1  0
 22 23  2  0
 16 24  1  0
 24 25  2  0
  9 26  2  0
 26  5  1  0
 25 13  1  0
 23 18  1  0
  1 27  1  0
  6 28  1  0
  7 29  1  0
  8 30  1  0
 10 31  1  0
 14 32  1  0
 15 33  1  0
 19 34  1  0
 20 35  1  0
 21 36  1  0
 22 37  1  0
 23 38  1  0
 24 39  1  0
 25 40  1  0
 26 41  1  0
M  CHG  1   1  -1
M  END
>  <UniqueID>  (19) 
18

>  <SMILES>  (19) 
[NH-]S(=O)(=O)c1cccc(NC(=O)c2ccc(Oc3ccccc3)cc2)c1

>  <Energy>  (19) 
57.23978389171312

>  <Genealogy>  (19) 
[NH-]S(=O)(=O)c1cccc(NC(=O)c2ccc(Oc3ccccc3)cc2)c1 (protonated)
[NH-]S(=O)(=O)c1cccc(NC(=O)c2ccc(Oc3ccccc3)cc2)c1 (3D coordinates assigned)
[NH-]S(=O)(=O)c1cccc(NC(=O)c2ccc(Oc3ccccc3)cc2)c1 (optimized conformer: 57.23978389171312 kcal/mol)

>  <smiles>  (19) 
NS(=O)(=O)c1cccc(NC(=O)c2ccc(Oc3ccccc3)cc2)c1

>  <score_type>  (19) 
oracle

>  <origin>  (19) 
adgpu

>  <m_score__min__energy>  (19) 
-9.9000000000000004

>  <m_primary>  (19) 
energy

$$$$
19:0
     RDKit          3D

 53 56  0  0  0  0  0  0  0  0999 V2000
   -4.9390   18.1920  -34.9430 O   0  0  0  0  0  0  0  0  0  0  0  0
   -4.8250   18.6290  -33.7650 C   0  0  0  0  0  0  0  0  0  0  0  0
   -3.5240   18.6670  -33.1410 N   0  0  0  0  0  0  0  0  0  0  0  0
   -2.3060   18.4990  -33.8830 C   0  0  0  0  0  0  0  0  0  0  0  0
   -1.9430   17.2340  -34.3790 C   0  0  0  0  0  0  0  0  0  0  0  0
   -0.7750   17.0740  -35.1280 C   0  0  0  0  0  0  0  0  0  0  0  0
    0.0490   18.1720  -35.3820 C   0  0  0  0  0  0  0  0  0  0  0  0
   -0.2860   19.4290  -34.8740 C   0  0  0  0  0  0  0  0  0  0  0  0
   -1.4530   19.6000  -34.1180 C   0  0  0  0  0  0  0  0  0  0  0  0
   -1.8130   21.2410  -33.4650 S   0  0  0  0  0  0  0  0  0  0  0  0
   -1.3930   20.7990  -31.7790 C   0  0  0  0  0  0  0  0  0  0  0  0
   -2.3620   20.8990  -30.7720 C   0  0  0  0  0  0  0  0  0  0  0  0
   -2.0410   20.5650  -29.4540 C   0  0  0  0  0  0  0  0  0  0  0  0
   -0.7540   20.1170  -29.1400 C   0  0  0  0  0  0  0  0  0  0  0  0
    0.2110   19.9990  -30.1460 C   0  0  0  0  0  0  0  0  0  0  0  0
   -0.1090   20.3350  -31.4660 C   0  0  0  0  0  0  0  0  0  0  0  0
   -6.0240   19.1830  -33.0860 C   0  0  0  0  0  0  0  0  0  0  0  0
   -7.1660   18.3760  -32.9240 C   0  0  0  0  0  0  0  0  0  0  0  0
   -8.3350   18.9040  -32.3720 C   0  0  0  0  0  0  0  0  0  0  0  0
   -8.3880   20.2450  -31.9910 C   0  0  0  0  0  0  0  0  0  0  0  0
   -7.2610   21.0620  -32.1380 C   0  0  0  0  0  0  0  0  0  0  0  0
   -7.3540   22.7850  -31.7620 S   0  0  0  0  0  0  0  0  0  0  0  0
   -7.1410   23.5820  -33.0180 O   0  0  0  0  0  0  0  0  0  0  0  0
   -8.7250   23.1050  -31.2320 O   0  0  0  0  0  0  0  0  0  0  0  0
   -6.1480   23.2390  -30.5760 N   0  0  0  0  0  0  0  0  0  0  0  0
   -6.3650   24.6140  -30.0780 C   0  0  0  0  0  0  0  0  0  0  0  0
   -5.3790   25.6180  -30.7020 C   0  0  0  0  0  0  0  0  0  0  0  0
   -4.0140   25.2940  -30.4750 O   0  0  0  0  0  0  0  0  0  0  0  0
   -3.7660   23.8980  -30.3650 C   0  0  0  0  0  0  0  0  0  0  0  0
   -4.7890   23.0250  -31.1090 C   0  0  0  0  0  0  0  0  0  0  0  0
   -6.0730   20.5190  -32.6470 C   0  0  0  0  0  0  0  0  0  0  0  0
   -3.4370   19.0630  -32.1820 H   0  0  0  0  0  0  0  0  0  0  0  0
   -2.5841   16.3636  -34.1754 H   0  0  0  0  0  0  0  0  0  0  0  0
   -0.5041   16.0818  -35.5182 H   0  0  0  0  0  0  0  0  0  0  0  0
    0.9622   18.0470  -35.9823 H   0  0  0  0  0  0  0  0  0  0  0  0
    0.3704   20.2900  -35.0686 H   0  0  0  0  0  0  0  0  0  0  0  0
   -3.3777   21.2412  -31.0197 H   0  0  0  0  0  0  0  0  0  0  0  0
   -2.8005   20.6544  -28.6633 H   0  0  0  0  0  0  0  0  0  0  0  0
   -0.5003   19.8573  -28.1016 H   0  0  0  0  0  0  0  0  0  0  0  0
    1.2217   19.6419  -29.8991 H   0  0  0  0  0  0  0  0  0  0  0  0
    0.6478   20.2348  -32.2580 H   0  0  0  0  0  0  0  0  0  0  0  0
   -7.1373   17.3212  -33.2347 H   0  0  0  0  0  0  0  0  0  0  0  0
   -9.2169   18.2605  -32.2372 H   0  0  0  0  0  0  0  0  0  0  0  0
   -9.3171   20.6610  -31.5743 H   0  0  0  0  0  0  0  0  0  0  0  0
   -7.3910   24.9234  -30.3263 H   0  0  0  0  0  0  0  0  0  0  0  0
   -6.2016   24.6101  -28.9902 H   0  0  0  0  0  0  0  0  0  0  0  0
   -5.5532   25.6468  -31.7877 H   0  0  0  0  0  0  0  0  0  0  0  0
   -5.5629   26.5903  -30.2216 H   0  0  0  0  0  0  0  0  0  0  0  0
   -2.7676   23.6897  -30.7772 H   0  0  0  0  0  0  0  0  0  0  0  0
   -3.8431   23.6424  -29.2979 H   0  0  0  0  0  0  0  0  0  0  0  0
   -4.7758   23.2856  -32.1776 H   0  0  0  0  0  0  0  0  0  0  0  0
   -4.5181   21.9681  -30.9687 H   0  0  0  0  0  0  0  0  0  0  0  0
   -5.1696   21.1439  -32.7038 H   0  0  0  0  0  0  0  0  0  0  0  0
  1  2  2  0
  2  3  1  0
  3  4  1  0
  4  5  2  0
  5  6  1  0
  6  7  2  0
  7  8  1  0
  8  9  2  0
  9 10  1  0
 10 11  1  0
 11 12  2  0
 12 13  1  0
 13 14  2  0
 14 15  1  0
 15 16  2  0
  2 17  1  0
 17 18  2  0
 18 19  1  0
 19 20  2  0
 20 21  1  0
 21 22  1  0
 22 23  2  0
 22 24  2  0
 22 25  1  0
 25 26  1  0
 26 27  1  0
 27 28  1  0
 28 29  1  0
 29 30  1  0
 21 31  2  0
  9  4  1  0
 16 11  1  0
 31 17  1  0
 30 25  1  0
  3 32  1  0
  5 33  1  0
  6 34  1  0
  7 35  1  0
  8 36  1  0
 12 37  1  0
 13 38  1  0
 14 39  1  0
 15 40  1  0
 16 41  1  0
 18 42  1  0
 19 43  1  0
 20 44  1  0
 26 45  1  0
 26 46  1  0
 27 47  1  0
 27 48  1  0
 29 49  1  0
 29 50  1  0
 30 51  1  0
 30 52  1  0
 31 53  1  0
M  END
>  <UniqueID>  (20) 
19

>  <SMILES>  (20) 
O=C(Nc1ccccc1Sc1ccccc1)c1cccc(S(=O)(=O)N2CCOCC2)c1

>  <Energy>  (20) 
68.30323102041304

>  <Genealogy>  (20) 
O=C(Nc1ccccc1Sc1ccccc1)c1cccc(S(=O)(=O)N2CCOCC2)c1 (3D coordinates assigned)
O=C(Nc1ccccc1Sc1ccccc1)c1cccc(S(=O)(=O)N2CCOCC2)c1 (nonaromatic ring conformer: 68.30323102041304 kcal/mol)

>  <smiles>  (20) 
O=C(Nc1ccccc1Sc1ccccc1)c1cccc(S(=O)(=O)N2CCOCC2)c1

>  <score_type>  (20) 
oracle

>  <origin>  (20) 
adgpu

>  <m_score__min__energy>  (20) 
-10.800000000000001

>  <m_primary>  (20) 
energy

$$$$
20:0
     RDKit          3D

 32 33  0  0  0  0  0  0  0  0999 V2000
   -2.8010   23.5190  -28.5260 C   0  0  0  0  0  0  0  0  0  0  0  0
   -2.6620   24.7860  -29.3000 C   0  0  0  0  0  0  0  0  0  0  0  0
   -1.7550   25.6050  -28.9910 O   0  0  0  0  0  0  0  0  0  0  0  0
   -3.4870   25.0010  -30.4510 N   0  0  0  0  0  0  0  0  0  0  0  0
   -4.8780   24.6730  -30.5800 C   0  0  0  0  0  0  0  0  0  0  0  0
   -5.8630   25.2670  -29.7700 C   0  0  0  0  0  0  0  0  0  0  0  0
   -7.2040   24.9030  -29.9150 C   0  0  0  0  0  0  0  0  0  0  0  0
   -7.5710   23.9360  -30.8540 C   0  0  0  0  0  0  0  0  0  0  0  0
   -6.6020   23.3160  -31.6490 C   0  0  0  0  0  0  0  0  0  0  0  0
   -7.0210   22.3130  -32.5840 N   0  0  0  0  0  0  0  0  0  0  0  0
   -7.9760   20.9180  -32.1940 S   0  0  0  0  0  0  0  0  0  0  0  0
   -8.0300   20.7620  -30.7000 O   0  0  0  0  0  0  0  0  0  0  0  0
   -9.3720   21.1180  -32.7170 O   0  0  0  0  0  0  0  0  0  0  0  0
   -7.2510   19.4730  -32.8920 C   0  0  0  0  0  0  0  0  0  0  0  0
   -6.2950   19.5910  -33.9100 C   0  0  0  0  0  0  0  0  0  0  0  0
   -5.7260   18.4460  -34.4760 C   0  0  0  0  0  0  0  0  0  0  0  0
   -6.1070   17.1790  -34.0230 C   0  0  0  0  0  0  0  0  0  0  0  0
   -5.5550   16.0680  -34.5720 F   0  0  0  0  0  0  0  0  0  0  0  0
   -7.0570   17.0560  -33.0030 C   0  0  0  0  0  0  0  0  0  0  0  0
   -7.6280   18.2010  -32.4370 C   0  0  0  0  0  0  0  0  0  0  0  0
   -5.2520   23.6880  -31.5040 C   0  0  0  0  0  0  0  0  0  0  0  0
   -2.7765   23.7425  -27.4492 H   0  0  0  0  0  0  0  0  0  0  0  0
   -3.7573   23.0379  -28.7789 H   0  0  0  0  0  0  0  0  0  0  0  0
   -1.9717   22.8420  -28.7789 H   0  0  0  0  0  0  0  0  0  0  0  0
   -5.5767   26.0198  -29.0208 H   0  0  0  0  0  0  0  0  0  0  0  0
   -7.9726   25.3789  -29.2883 H   0  0  0  0  0  0  0  0  0  0  0  0
   -8.6297   23.6603  -30.9688 H   0  0  0  0  0  0  0  0  0  0  0  0
   -5.9915   20.5870  -34.2647 H   0  0  0  0  0  0  0  0  0  0  0  0
   -4.9788   18.5418  -35.2775 H   0  0  0  0  0  0  0  0  0  0  0  0
   -7.3549   16.0590  -32.6462 H   0  0  0  0  0  0  0  0  0  0  0  0
   -8.3736   18.1035  -31.6341 H   0  0  0  0  0  0  0  0  0  0  0  0
   -4.4833   23.2008  -32.1219 H   0  0  0  0  0  0  0  0  0  0  0  0
  1  2  1  0
  2  3  2  0
  2  4  1  0
  4  5  1  0
  5  6  2  0
  6  7  1  0
  7  8  2  0
  8  9  1  0
  9 10  1  0
 10 11  1  0
 11 12  2  0
 11 13  2  0
 11 14  1  0
 14 15  2  0
 15 16  1  0
 16 17  2  0
 17 18  1  0
 17 19  1  0
 19 20  2  0
  9 21  2  0
 21  5  1  0
 20 14  1  0
  1 22  1  0
  1 23  1  0
  1 24  1  0
  6 25  1  0
  7 26  1  0
  8 27  1  0
 15 28  1  0
 16 29  1  0
 19 30  1  0
 20 31  1  0
 21 32  1  0
M  CHG  2   4  -1  10  -1
M  END
>  <UniqueID>  (21) 
20

>  <SMILES>  (21) 
CC(=O)[N-]c1cccc([N-]S(=O)(=O)c2ccc(F)cc2)c1

>  <Energy>  (21) 
37.08849488530012

>  <Genealogy>  (21) 
CC(=O)[N-]c1cccc([N-]S(=O)(=O)c2ccc(F)cc2)c1 (protonated)
CC(=O)[N-]c1cccc([N-]S(=O)(=O)c2ccc(F)cc2)c1 (3D coordinates assigned)
CC(=O)[N-]c1cccc([N-]S(=O)(=O)c2ccc(F)cc2)c1 (optimized conformer: 37.08849488530012 kcal/mol)

>  <smiles>  (21) 
CC(=O)Nc1cccc(NS(=O)(=O)c2ccc(F)cc2)c1

>  <score_type>  (21) 
oracle

>  <origin>  (21) 
adgpu

>  <m_score__min__energy>  (21) 
-9.5700000000000003

>  <m_primary>  (21) 
energy

$$$$
21:0
     RDKit          3D

 49 51  0  0  0  0  0  0  0  0999 V2000
   -6.2840   16.7690  -32.7370 C   0  0  0  0  0  0  0  0  0  0  0  0
   -6.5710   18.1400  -32.2950 N   0  0  0  0  0  0  0  0  0  0  0  0
   -7.9840   18.2820  -31.9020 C   0  0  0  0  0  0  0  0  0  0  0  0
   -6.1700   19.2790  -33.5590 S   0  0  0  0  0  0  0  0  0  0  0  0
   -7.2220   20.3500  -33.6350 O   0  0  0  0  0  0  0  0  0  0  0  0
   -6.0860   18.5790  -34.8850 O   0  0  0  0  0  0  0  0  0  0  0  0
   -4.5980   19.9940  -33.2050 C   0  0  0  0  0  0  0  0  0  0  0  0
   -4.4940   21.3320  -32.8050 C   0  0  0  0  0  0  0  0  0  0  0  0
   -3.2640   21.8520  -32.3910 C   0  0  0  0  0  0  0  0  0  0  0  0
   -2.1160   21.0370  -32.3600 C   0  0  0  0  0  0  0  0  0  0  0  0
   -0.8350   21.5600  -31.8340 C   0  0  0  0  0  0  0  0  0  0  0  0
    0.2480   21.2760  -32.4150 O   0  0  0  0  0  0  0  0  0  0  0  0
   -0.8290   22.3490  -30.6400 N   0  0  0  0  0  0  0  0  0  0  0  0
   -1.0270   21.8540  -29.3100 C   0  0  0  0  0  0  0  0  0  0  0  0
   -1.1070   20.4720  -29.0660 C   0  0  0  0  0  0  0  0  0  0  0  0
   -1.2670   19.9950  -27.7630 C   0  0  0  0  0  0  0  0  0  0  0  0
   -1.3170   20.8880  -26.6930 C   0  0  0  0  0  0  0  0  0  0  0  0
   -1.2170   22.2630  -26.9190 C   0  0  0  0  0  0  0  0  0  0  0  0
   -1.0710   22.7610  -28.2250 C   0  0  0  0  0  0  0  0  0  0  0  0
   -1.0120   24.2350  -28.4310 C   0  0  0  0  0  0  0  0  0  0  0  0
   -0.0750   24.8940  -27.9090 O   0  0  0  0  0  0  0  0  0  0  0  0
   -1.9650   24.9230  -29.2610 N   0  0  0  0  0  0  0  0  0  0  0  0
   -3.1610   24.5210  -29.5870 C   0  0  0  0  0  0  0  0  0  0  0  0
   -3.7470   23.3610  -29.0300 C   0  0  0  0  0  0  0  0  0  0  0  0
   -5.0260   22.9760  -29.4330 C   0  0  0  0  0  0  0  0  0  0  0  0
   -5.7240   23.7510  -30.3630 C   0  0  0  0  0  0  0  0  0  0  0  0
   -7.3260   23.2740  -30.8880 Cl  0  0  0  0  0  0  0  0  0  0  0  0
   -5.1290   24.9070  -30.8730 C   0  0  0  0  0  0  0  0  0  0  0  0
   -3.8800   25.2580  -30.4730 N   0  0  0  0  0  0  0  0  0  0  0  0
   -2.2290   19.6940  -32.7630 C   0  0  0  0  0  0  0  0  0  0  0  0
   -3.4590   19.1790  -33.1790 C   0  0  0  0  0  0  0  0  0  0  0  0
   -6.1484   16.1213  -31.8583 H   0  0  0  0  0  0  0  0  0  0  0  0
   -7.1234   16.3955  -33.3418 H   0  0  0  0  0  0  0  0  0  0  0  0
   -5.3652   16.7635  -33.3418 H   0  0  0  0  0  0  0  0  0  0  0  0
   -5.9680   18.3560  -31.4660 H   0  0  0  0  0  0  0  0  0  0  0  0
   -8.0604   18.2897  -30.8047 H   0  0  0  0  0  0  0  0  0  0  0  0
   -8.3834   19.2248  -32.3040 H   0  0  0  0  0  0  0  0  0  0  0  0
   -8.5630   17.4375  -32.3040 H   0  0  0  0  0  0  0  0  0  0  0  0
   -5.3848   21.9773  -32.8166 H   0  0  0  0  0  0  0  0  0  0  0  0
   -3.1924   22.9067  -32.0869 H   0  0  0  0  0  0  0  0  0  0  0  0
   -1.0433   19.7632  -29.9048 H   0  0  0  0  0  0  0  0  0  0  0  0
   -1.3537   18.9137  -27.5806 H   0  0  0  0  0  0  0  0  0  0  0  0
   -1.4356   20.5084  -25.6674 H   0  0  0  0  0  0  0  0  0  0  0  0
   -1.2528   22.9604  -26.0691 H   0  0  0  0  0  0  0  0  0  0  0  0
   -3.1986   22.7665  -28.2845 H   0  0  0  0  0  0  0  0  0  0  0  0
   -5.4836   22.0650  -29.0199 H   0  0  0  0  0  0  0  0  0  0  0  0
   -5.6714   25.5321  -31.5976 H   0  0  0  0  0  0  0  0  0  0  0  0
   -1.3416   19.0441  -32.7504 H   0  0  0  0  0  0  0  0  0  0  0  0
   -3.5337   18.1260  -33.4884 H   0  0  0  0  0  0  0  0  0  0  0  0
  1  2  1  0
  2  3  1  0
  2  4  1  0
  4  5  2  0
  4  6  2  0
  4  7  1  0
  7  8  2  0
  8  9  1  0
  9 10  2  0
 10 11  1  0
 11 12  2  0
 11 13  1  0
 13 14  1  0
 14 15  2  0
 15 16  1  0
 16 17  2  0
 17 18  1  0
 18 19  2  0
 19 20  1  0
 20 21  2  0
 20 22  1  0
 22 23  2  3
 23 24  1  0
 24 25  2  0
 25 26  1  0
 26 27  1  0
 26 28  2  0
 28 29  1  0
 10 30  1  0
 30 31  2  0
 31  7  1  0
 19 14  1  0
 29 23  1  0
  1 32  1  0
  1 33  1  0
  1 34  1  0
  2 35  1  0
  3 36  1  0
  3 37  1  0
  3 38  1  0
  8 39  1  0
  9 40  1  0
 15 41  1  0
 16 42  1  0
 17 43  1  0
 18 44  1  0
 24 45  1  0
 25 46  1  0
 28 47  1  0
 30 48  1  0
 31 49  1  0
M  CHG  3   2   1  13  -1  29  -1
M  END
>  <UniqueID>  (22) 
21

>  <SMILES>  (22) 
C[NH+](C)S(=O)(=O)c1ccc(C(=O)[N-]c2ccccc2C(=O)N=c2ccc(Cl)c[n-]2)cc1

>  <Energy>  (22) 
65.93042478685537

>  <Genealogy>  (22) 
C[NH+](C)S(=O)(=O)c1ccc(C(=O)[N-]c2ccccc2C(=O)N=c2ccc(Cl)c[n-]2)cc1 (protonated)
C[NH+](C)S(=O)(=O)c1ccc(C(=O)[N-]c2ccccc2C(=O)N=c2ccc(Cl)c[n-]2)cc1 (3D coordinates assigned)
C[NH+](C)S(=O)(=O)c1ccc(C(=O)[N-]c2ccccc2C(=O)N=c2ccc(Cl)c[n-]2)cc1 (optimized conformer: 65.93042478685537 kcal/mol)

>  <smiles>  (22) 
CN(C)S(=O)(=O)c1ccc(C(=O)Nc2ccccc2C(=O)N=c2ccc(Cl)c[nH]2)cc1

>  <score_type>  (22) 
oracle

>  <origin>  (22) 
adgpu

>  <m_score__min__energy>  (22) 
-11.970000000000001

>  <m_primary>  (22) 
energy

$$$$
22:0
     RDKit          3D

 39 40  0  0  0  0  0  0  0  0999 V2000
   -7.8760   19.2820  -32.2130 C   0  0  0  0  0  0  0  0  0  0  0  0
   -7.7300   20.5290  -32.8840 O   0  0  0  0  0  0  0  0  0  0  0  0
   -7.1580   21.6770  -32.3140 C   0  0  0  0  0  0  0  0  0  0  0  0
   -7.9380   22.6730  -31.6990 C   0  0  0  0  0  0  0  0  0  0  0  0
   -7.3340   23.8020  -31.1430 C   0  0  0  0  0  0  0  0  0  0  0  0
   -5.9400   23.9610  -31.1880 C   0  0  0  0  0  0  0  0  0  0  0  0
   -5.3000   25.1590  -30.5940 C   0  0  0  0  0  0  0  0  0  0  0  0
   -6.0110   26.0780  -30.1010 O   0  0  0  0  0  0  0  0  0  0  0  0
   -3.8720   25.2790  -30.5740 N   0  0  0  0  0  0  0  0  0  0  0  0
   -3.0070   24.5370  -29.6630 C   0  0  0  0  0  0  0  0  0  0  0  0
   -3.7760   24.0810  -28.4170 C   0  0  0  0  0  0  0  0  0  0  0  0
   -2.8420   23.8200  -27.2300 C   0  0  0  0  0  0  0  0  0  0  0  0
   -1.5790   24.5280  -27.4210 N   0  0  0  0  0  0  0  0  0  0  0  0
   -1.3100   25.8000  -27.0910 C   0  0  0  0  0  0  0  0  0  0  0  0
    0.0170   26.0360  -27.3720 C   0  0  0  0  0  0  0  0  0  0  0  0
    0.5830   24.9130  -27.8640 N   0  0  0  0  0  0  0  0  0  0  0  0
   -0.4210   24.0120  -27.8750 C   0  0  0  0  0  0  0  0  0  0  0  0
   -5.1610   22.9650  -31.8010 C   0  0  0  0  0  0  0  0  0  0  0  0
   -5.7640   21.8230  -32.3660 C   0  0  0  0  0  0  0  0  0  0  0  0
   -5.0120   20.8120  -32.9860 O   0  0  0  0  0  0  0  0  0  0  0  0
   -3.5970   20.8410  -33.1490 C   0  0  0  0  0  0  0  0  0  0  0  0
   -7.8568   19.4463  -31.1255 H   0  0  0  0  0  0  0  0  0  0  0  0
   -8.8341   18.8225  -32.4975 H   0  0  0  0  0  0  0  0  0  0  0  0
   -7.0500   18.6136  -32.4975 H   0  0  0  0  0  0  0  0  0  0  0  0
   -9.0315   22.5614  -31.6559 H   0  0  0  0  0  0  0  0  0  0  0  0
   -7.9557   24.5737  -30.6655 H   0  0  0  0  0  0  0  0  0  0  0  0
   -2.6113   23.6528  -30.1841 H   0  0  0  0  0  0  0  0  0  0  0  0
   -2.1876   25.1981  -29.3444 H   0  0  0  0  0  0  0  0  0  0  0  0
   -4.4956   24.8645  -28.1372 H   0  0  0  0  0  0  0  0  0  0  0  0
   -4.2887   23.1386  -28.6599 H   0  0  0  0  0  0  0  0  0  0  0  0
   -3.3212   24.1736  -26.3052 H   0  0  0  0  0  0  0  0  0  0  0  0
   -2.6428   22.7405  -27.1588 H   0  0  0  0  0  0  0  0  0  0  0  0
   -2.0225   26.5252  -26.6708 H   0  0  0  0  0  0  0  0  0  0  0  0
    0.5368   26.9933  -27.2191 H   0  0  0  0  0  0  0  0  0  0  0  0
   -0.3066   22.9726  -28.2165 H   0  0  0  0  0  0  0  0  0  0  0  0
   -4.0675   23.0779  -31.8404 H   0  0  0  0  0  0  0  0  0  0  0  0
   -3.1142   20.8509  -32.1607 H   0  0  0  0  0  0  0  0  0  0  0  0
   -3.2737   19.9493  -33.7061 H   0  0  0  0  0  0  0  0  0  0  0  0
   -3.3105   21.7452  -33.7061 H   0  0  0  0  0  0  0  0  0  0  0  0
  1  2  1  0
  2  3  1  0
  3  4  2  0
  4  5  1  0
  5  6  2  0
  6  7  1  0
  7  8  2  0
  7  9  1  0
  9 10  1  0
 10 11  1  0
 11 12  1  0
 12 13  1  0
 13 14  1  0
 14 15  2  0
 15 16  1  0
 16 17  2  0
  6 18  1  0
 18 19  2  0
 19 20  1  0
 20 21  1  0
 19  3  1  0
 17 13  1  0
  1 22  1  0
  1 23  1  0
  1 24  1  0
  4 25  1  0
  5 26  1  0
 10 27  1  0
 10 28  1  0
 11 29  1  0
 11 30  1  0
 12 31  1  0
 12 32  1  0
 14 33  1  0
 15 34  1  0
 17 35  1  0
 18 36  1  0
 21 37  1  0
 21 38  1  0
 21 39  1  0
M  CHG  1   9  -1
M  END
>  <UniqueID>  (23) 
22

>  <SMILES>  (23) 
COc1ccc(C(=O)[N-]CCCn2ccnc2)cc1OC

>  <Energy>  (23) 
61.00488189606622

>  <Genealogy>  (23) 
COc1ccc(C(=O)[N-]CCCn2ccnc2)cc1OC (protonated)
COc1ccc(C(=O)[N-]CCCn2ccnc2)cc1OC (3D coordinates assigned)
COc1ccc(C(=O)[N-]CCCn2ccnc2)cc1OC (optimized conformer: 61.00488189606622 kcal/mol)

>  <smiles>  (23) 
COc1ccc(C(=O)NCCCn2ccnc2)cc1OC

>  <score_type>  (23) 
oracle

>  <origin>  (23) 
adgpu

>  <m_score__min__energy>  (23) 
-7.7800000000000002

>  <m_primary>  (23) 
energy

$$$$
23:0
     RDKit          3D

 48 51  0  0  0  0  0  0  0  0999 V2000
   -1.7500   20.8600  -26.8120 C   0  0  0  0  0  0  0  0  0  0  0  0
   -1.9450   22.0990  -27.6270 C   0  0  0  0  0  0  0  0  0  0  0  0
   -0.9850   23.1140  -27.6190 C   0  0  0  0  0  0  0  0  0  0  0  0
   -1.2260   24.2610  -28.3750 C   0  0  0  0  0  0  0  0  0  0  0  0
   -0.3810   25.1940  -28.3970 O   0  0  0  0  0  0  0  0  0  0  0  0
   -2.3760   24.3720  -29.0880 N   0  0  0  0  0  0  0  0  0  0  0  0
   -3.3150   23.3850  -29.0810 C   0  0  0  0  0  0  0  0  0  0  0  0
   -4.5670   23.5400  -29.8720 C   0  0  0  0  0  0  0  0  0  0  0  0
   -5.5550   22.5350  -29.8120 C   0  0  0  0  0  0  0  0  0  0  0  0
   -6.7550   22.6530  -30.5290 C   0  0  0  0  0  0  0  0  0  0  0  0
   -7.7260   21.5950  -30.4570 N   0  0  0  0  0  0  0  0  0  0  0  0
   -7.7500   20.4540  -31.3310 C   0  0  0  0  0  0  0  0  0  0  0  0
   -8.7570   19.4910  -31.1810 C   0  0  0  0  0  0  0  0  0  0  0  0
   -8.8100   18.3850  -32.0340 C   0  0  0  0  0  0  0  0  0  0  0  0
   -7.8610   18.2350  -33.0470 C   0  0  0  0  0  0  0  0  0  0  0  0
   -6.8480   19.1950  -33.2130 C   0  0  0  0  0  0  0  0  0  0  0  0
   -5.8690   19.0800  -34.2570 N   0  0  0  0  0  0  0  0  0  0  0  0
   -4.5100   18.6550  -34.0890 C   0  0  0  0  0  0  0  0  0  0  0  0
   -4.1310   17.6020  -34.6640 O   0  0  0  0  0  0  0  0  0  0  0  0
   -3.5330   19.4470  -33.3030 C   0  0  0  0  0  0  0  0  0  0  0  0
   -3.7930   19.7510  -31.9570 C   0  0  0  0  0  0  0  0  0  0  0  0
   -2.8790   20.5020  -31.2130 C   0  0  0  0  0  0  0  0  0  0  0  0
   -1.6900   20.9480  -31.7980 C   0  0  0  0  0  0  0  0  0  0  0  0
   -0.5670   21.8920  -30.8300 Cl  0  0  0  0  0  0  0  0  0  0  0  0
   -1.4120   20.6330  -33.1380 C   0  0  0  0  0  0  0  0  0  0  0  0
    0.0760   21.1650  -33.9090 Cl  0  0  0  0  0  0  0  0  0  0  0  0
   -2.3280   19.8810  -33.8820 C   0  0  0  0  0  0  0  0  0  0  0  0
   -6.8150   20.3140  -32.3730 C   0  0  0  0  0  0  0  0  0  0  0  0
   -6.9550   23.7710  -31.3500 C   0  0  0  0  0  0  0  0  0  0  0  0
   -5.9880   24.7730  -31.4240 C   0  0  0  0  0  0  0  0  0  0  0  0
   -4.8010   24.6680  -30.6930 C   0  0  0  0  0  0  0  0  0  0  0  0
   -3.8620   25.6880  -30.8080 O   0  0  0  0  0  0  0  0  0  0  0  0
   -3.0870   22.2610  -28.3480 N   0  0  0  0  0  0  0  0  0  0  0  0
   -1.7901   21.1145  -25.7426 H   0  0  0  0  0  0  0  0  0  0  0  0
   -2.5455   20.1375  -27.0470 H   0  0  0  0  0  0  0  0  0  0  0  0
   -0.7710   20.4168  -27.0470 H   0  0  0  0  0  0  0  0  0  0  0  0
   -0.0613   23.0110  -27.0306 H   0  0  0  0  0  0  0  0  0  0  0  0
   -5.3815   21.6430  -29.1921 H   0  0  0  0  0  0  0  0  0  0  0  0
   -8.4590   21.6540  -29.7120 H   0  0  0  0  0  0  0  0  0  0  0  0
   -9.5100   19.6062  -30.3874 H   0  0  0  0  0  0  0  0  0  0  0  0
   -9.6010   17.6312  -31.9069 H   0  0  0  0  0  0  0  0  0  0  0  0
   -7.9062   17.3635  -33.7167 H   0  0  0  0  0  0  0  0  0  0  0  0
   -4.7213   19.3960  -31.4856 H   0  0  0  0  0  0  0  0  0  0  0  0
   -3.0961   20.7434  -30.1620 H   0  0  0  0  0  0  0  0  0  0  0  0
   -2.1032   19.6274  -34.9285 H   0  0  0  0  0  0  0  0  0  0  0  0
   -6.0516   21.0905  -32.5288 H   0  0  0  0  0  0  0  0  0  0  0  0
   -7.8797   23.8586  -31.9392 H   0  0  0  0  0  0  0  0  0  0  0  0
   -6.1604   25.6523  -32.0621 H   0  0  0  0  0  0  0  0  0  0  0  0
  1  2  1  0
  2  3  2  0
  3  4  1  0
  4  5  2  0
  4  6  1  0
  6  7  1  0
  7  8  1  0
  8  9  2  0
  9 10  1  0
 10 11  1  0
 11 12  1  0
 12 13  2  0
 13 14  1  0
 14 15  2  0
 15 16  1  0
 16 17  1  0
 17 18  1  0
 18 19  2  0
 18 20  1  0
 20 21  2  0
 21 22  1  0
 22 23  2  0
 23 24  1  0
 23 25  1  0
 25 26  1  0
 25 27  2  0
 16 28  2  0
 10 29  2  0
 29 30  1  0
 30 31  2  0
 31 32  1  0
  7 33  2  0
 33  2  1  0
 31  8  1  0
 28 12  1  0
 27 20  1  0
  1 34  1  0
  1 35  1  0
  1 36  1  0
  3 37  1  0
  9 38  1  0
 11 39  1  0
 13 40  1  0
 14 41  1  0
 15 42  1  0
 21 43  1  0
 22 44  1  0
 27 45  1  0
 28 46  1  0
 29 47  1  0
 30 48  1  0
M  CHG  3   6  -1  17  -1  32  -1
M  END
>  <UniqueID>  (24) 
23

>  <SMILES>  (24) 
Cc1cc(=O)[n-]c(-c2cc(Nc3cccc([N-]C(=O)c4ccc(Cl)c(Cl)c4)c3)ccc2[O-])n1

>  <Energy>  (24) 
69.13690556158062

>  <Genealogy>  (24) 
Cc1cc(=O)[n-]c(-c2cc(Nc3cccc([N-]C(=O)c4ccc(Cl)c(Cl)c4)c3)ccc2[O-])n1 (protonated)
Cc1cc(=O)[n-]c(-c2cc(Nc3cccc([N-]C(=O)c4ccc(Cl)c(Cl)c4)c3)ccc2[O-])n1 (3D coordinates assigned)
Cc1cc(=O)[n-]c(-c2cc(Nc3cccc([N-]C(=O)c4ccc(Cl)c(Cl)c4)c3)ccc2[O-])n1 (optimized conformer: 69.13690556158062 kcal/mol)

>  <smiles>  (24) 
Cc1cc(=O)[nH]c(-c2cc(Nc3cccc(NC(=O)c4ccc(Cl)c(Cl)c4)c3)ccc2O)n1

>  <score_type>  (24) 
oracle

>  <origin>  (24) 
adgpu

>  <m_score__min__energy>  (24) 
-13.57

>  <m_primary>  (24) 
energy

$$$$
24:0
     RDKit          3D

 66 71  0  0  0  0  0  0  0  0999 V2000
   -1.6729   22.0132  -32.0264 H   0  0  0  0  0  0  0  0  0  0  0  0
   -1.3340   21.3150  -32.8060 C   0  0  0  0  0  0  0  0  0  0  0  0
   -0.1420   21.5180  -33.4210 N   0  0  0  0  0  0  0  0  0  0  0  0
    0.3180   20.6750  -34.3820 C   0  0  0  0  0  0  0  0  0  0  0  0
    1.5630   20.9170  -34.9730 C   0  0  0  0  0  0  0  0  0  0  0  0
    2.1562   21.7906  -34.6649 H   0  0  0  0  0  0  0  0  0  0  0  0
    2.0540   20.0520  -35.9530 C   0  0  0  0  0  0  0  0  0  0  0  0
    3.6130   20.3640  -36.6890 Cl  0  0  0  0  0  0  0  0  0  0  0  0
    1.3040   18.9420  -36.3470 C   0  0  0  0  0  0  0  0  0  0  0  0
    1.6960   18.2620  -37.1177 H   0  0  0  0  0  0  0  0  0  0  0  0
    0.0580   18.6910  -35.7670 C   0  0  0  0  0  0  0  0  0  0  0  0
   -0.5267   17.8149  -36.0842 H   0  0  0  0  0  0  0  0  0  0  0  0
   -0.4540   19.5550  -34.7770 C   0  0  0  0  0  0  0  0  0  0  0  0
   -1.7110   19.3390  -34.1680 C   0  0  0  0  0  0  0  0  0  0  0  0
   -2.4310   18.3090  -34.5250 N   0  0  0  0  0  0  0  0  0  0  0  0
   -3.7500   17.9630  -34.0740 C   0  0  0  0  0  0  0  0  0  0  0  0
   -4.6450   18.9550  -33.6430 C   0  0  0  0  0  0  0  0  0  0  0  0
   -4.3265   20.0078  -33.6332 H   0  0  0  0  0  0  0  0  0  0  0  0
   -5.9430   18.6180  -33.2240 C   0  0  0  0  0  0  0  0  0  0  0  0
   -6.8490   19.6750  -32.7210 C   0  0  0  0  0  0  0  0  0  0  0  0
   -6.3200   20.8270  -32.2240 N   0  0  0  0  0  0  0  0  0  0  0  0
   -7.0830   21.8310  -31.7060 C   0  0  0  0  0  0  0  0  0  0  0  0
   -6.4430   23.0200  -31.1870 N   0  0  0  0  0  0  0  0  0  0  0  0
   -5.0250   23.2520  -31.4980 C   0  0  0  0  0  0  0  0  0  0  0  0
   -4.5027   22.2855  -31.5531 H   0  0  0  0  0  0  0  0  0  0  0  0
   -4.9512   23.7757  -32.4625 H   0  0  0  0  0  0  0  0  0  0  0  0
   -4.3780   24.1140  -30.4130 C   0  0  0  0  0  0  0  0  0  0  0  0
   -4.3530   23.5515  -29.4681 H   0  0  0  0  0  0  0  0  0  0  0  0
   -3.3543   24.3729  -30.7214 H   0  0  0  0  0  0  0  0  0  0  0  0
   -5.1500   25.3490  -30.2230 N   0  0  0  0  0  0  0  0  0  0  0  0
   -4.6810   25.9020  -29.4660 H   0  0  0  0  0  0  0  0  0  0  0  0
   -6.5080   25.0320  -29.7680 C   0  0  0  0  0  0  0  0  0  0  0  0
   -6.4513   24.4610  -28.8295 H   0  0  0  0  0  0  0  0  0  0  0  0
   -7.0579   25.9711  -29.6078 H   0  0  0  0  0  0  0  0  0  0  0  0
   -7.2450   24.2000  -30.8200 C   0  0  0  0  0  0  0  0  0  0  0  0
   -8.2113   23.8699  -30.4109 H   0  0  0  0  0  0  0  0  0  0  0  0
   -7.4082   24.8166  -31.7162 H   0  0  0  0  0  0  0  0  0  0  0  0
   -8.4790   21.6630  -31.6520 C   0  0  0  0  0  0  0  0  0  0  0  0
   -9.1148   22.4470  -31.2147 H   0  0  0  0  0  0  0  0  0  0  0  0
   -9.0510   20.4950  -32.1570 C   0  0  0  0  0  0  0  0  0  0  0  0
  -10.1424   20.3609  -32.1269 H   0  0  0  0  0  0  0  0  0  0  0  0
   -8.2420   19.4970  -32.7000 C   0  0  0  0  0  0  0  0  0  0  0  0
   -8.6907   18.5792  -33.1079 H   0  0  0  0  0  0  0  0  0  0  0  0
   -6.3550   17.2760  -33.2970 C   0  0  0  0  0  0  0  0  0  0  0  0
   -7.3678   16.9966  -32.9711 H   0  0  0  0  0  0  0  0  0  0  0  0
   -5.4860   16.2950  -33.7810 C   0  0  0  0  0  0  0  0  0  0  0  0
   -5.8263   15.2518  -33.8574 H   0  0  0  0  0  0  0  0  0  0  0  0
   -4.1850   16.6330  -34.1690 C   0  0  0  0  0  0  0  0  0  0  0  0
   -3.2960   15.6180  -34.6530 N   0  0  0  0  0  0  0  0  0  0  0  0
   -2.7320   14.6500  -33.7070 C   0  0  0  0  0  0  0  0  0  0  0  0
   -2.2987   15.1899  -32.8521 H   0  0  0  0  0  0  0  0  0  0  0  0
   -3.5336   13.9786  -33.3655 H   0  0  0  0  0  0  0  0  0  0  0  0
   -1.6390   13.8130  -34.3810 C   0  0  0  0  0  0  0  0  0  0  0  0
   -0.9863   13.3773  -33.6102 H   0  0  0  0  0  0  0  0  0  0  0  0
   -2.1090   13.0105  -34.9685 H   0  0  0  0  0  0  0  0  0  0  0  0
   -0.8390   14.6590  -35.2740 N   0  0  0  0  0  0  0  0  0  0  0  0
   -0.0230   14.1050  -35.6230 H   0  0  0  0  0  0  0  0  0  0  0  0
   -0.4630   15.4780  -34.7380 H   0  0  0  0  0  0  0  0  0  0  0  0
   -1.6200   15.1460  -36.4290 C   0  0  0  0  0  0  0  0  0  0  0  0
   -1.1516   16.0693  -36.8007 H   0  0  0  0  0  0  0  0  0  0  0  0
   -1.6179   14.3428  -37.1806 H   0  0  0  0  0  0  0  0  0  0  0  0
   -3.0990   15.4490  -36.0950 C   0  0  0  0  0  0  0  0  0  0  0  0
   -3.3999   16.3741  -36.6085 H   0  0  0  0  0  0  0  0  0  0  0  0
   -3.7117   14.5997  -36.4316 H   0  0  0  0  0  0  0  0  0  0  0  0
   -2.1320   20.2270  -33.1560 C   0  0  0  0  0  0  0  0  0  0  0  0
   -3.0906   20.0608  -32.6427 H   0  0  0  0  0  0  0  0  0  0  0  0
  1  2  1  0
  2  3  1  0
  3  4  1  0
  4  5  2  0
  5  6  1  0
  5  7  1  0
  7  8  1  0
  7  9  2  0
  9 10  1  0
  9 11  1  0
 11 12  1  0
 11 13  2  0
 13 14  1  0
 14 15  2  0
 15 16  1  0
 16 17  2  0
 17 18  1  0
 17 19  1  0
 19 20  1  0
 20 21  2  0
 21 22  1  0
 22 23  1  0
 23 24  1  0
 24 25  1  0
 24 26  1  0
 24 27  1  0
 27 28  1  0
 27 29  1  0
 27 30  1  0
 30 31  1  0
 30 32  1  0
 32 33  1  0
 32 34  1  0
 32 35  1  0
 35 36  1  0
 35 37  1  0
 22 38  2  0
 38 39  1  0
 38 40  1  0
 40 41  1  0
 40 42  2  0
 42 43  1  0
 19 44  2  0
 44 45  1  0
 44 46  1  0
 46 47  1  0
 46 48  2  0
 48 49  1  0
 49 50  1  0
 50 51  1  0
 50 52  1  0
 50 53  1  0
 53 54  1  0
 53 55  1  0
 53 56  1  0
 56 57  1  0
 56 58  1  0
 56 59  1  0
 59 60  1  0
 59 61  1  0
 59 62  1  0
 62 63  1  0
 62 64  1  0
 14 65  1  0
 65 66  1  0
 65  2  2  0
 13  4  1  0
 48 16  1  0
 62 49  1  0
 42 20  1  0
 35 23  1  0
M  CHG  2   3  -1  56   1
M  END
>  <UniqueID>  (25) 
24

>  <SMILES>  (25) 
Clc1ccc2/c(=N/c3cc(-c4cccc(N5CCNCC5)n4)ccc3N3CC[NH2+]CC3)cc[n-]c2c1

>  <Energy>  (25) 
100.07719704821339

>  <Genealogy>  (25) 
Clc1ccc2c(=Nc3cc(-c4cccc(N5CCNCC5)n4)ccc3N3CC[NH2+]CC3)cc[n-]c2c1 (protonated)
Clc1ccc2/c(=N/c3cc(-c4cccc(N5CCNCC5)n4)ccc3N3CC[NH2+]CC3)cc[n-]c2c1 (cis-trans isomerization)
Clc1ccc2/c(=N/c3cc(-c4cccc(N5CCNCC5)n4)ccc3N3CC[NH2+]CC3)cc[n-]c2c1 (3D coordinates assigned)
Clc1ccc2/c(=N/c3cc(-c4cccc(N5CCNCC5)n4)ccc3N3CC[NH2+]CC3)cc[n-]c2c1 (nonaromatic ring conformer: 100.07719704821339 kcal/mol)

>  <smiles>  (25) 
Clc1ccc2c(=Nc3cc(-c4cccc(N5CCNCC5)n4)ccc3N3CCNCC3)cc[nH]c2c1

>  <score_type>  (25) 
oracle

>  <origin>  (25) 
adgpu

>  <m_score__min__energy>  (25) 
-10.029999999999999

>  <m_primary>  (25) 
energy

$$$$
25:0
     RDKit          3D

 65 68  0  0  0  0  0  0  0  0999 V2000
    0.2170   18.5550  -29.6420 C   0  0  0  0  0  0  0  0  0  0  0  0
    0.0050   20.0460  -29.3800 C   0  0  0  0  0  0  0  0  0  0  0  0
   -0.1630   20.3370  -27.9370 N   0  0  0  0  0  0  0  0  0  0  0  0
    0.5600   21.5350  -27.4220 C   0  0  0  0  0  0  0  0  0  0  0  0
   -0.1750   22.8570  -27.5610 C   0  0  0  0  0  0  0  0  0  0  0  0
   -0.3450   23.4380  -28.8290 C   0  0  0  0  0  0  0  0  0  0  0  0
   -1.0590   24.6320  -28.9700 C   0  0  0  0  0  0  0  0  0  0  0  0
   -1.6070   25.2560  -27.8480 C   0  0  0  0  0  0  0  0  0  0  0  0
   -1.4370   24.6910  -26.5830 C   0  0  0  0  0  0  0  0  0  0  0  0
   -0.7210   23.4990  -26.4380 C   0  0  0  0  0  0  0  0  0  0  0  0
   -1.8420   20.3340  -27.4200 S   0  0  0  0  0  0  0  0  0  0  0  0
   -1.9030   20.7840  -25.9860 O   0  0  0  0  0  0  0  0  0  0  0  0
   -2.4200   18.9480  -27.4800 O   0  0  0  0  0  0  0  0  0  0  0  0
   -2.8370   21.4100  -28.4010 C   0  0  0  0  0  0  0  0  0  0  0  0
   -2.7630   21.3630  -29.7990 C   0  0  0  0  0  0  0  0  0  0  0  0
   -3.5740   22.1940  -30.5760 C   0  0  0  0  0  0  0  0  0  0  0  0
   -4.4740   23.0760  -29.9630 C   0  0  0  0  0  0  0  0  0  0  0  0
   -5.5400   24.0660  -30.9550 S   0  0  0  0  0  0  0  0  0  0  0  0
   -6.8450   24.2950  -30.2440 O   0  0  0  0  0  0  0  0  0  0  0  0
   -4.9000   25.3990  -31.2140 O   0  0  0  0  0  0  0  0  0  0  0  0
   -5.8630   23.2380  -32.4430 N   0  0  0  0  0  0  0  0  0  0  0  0
   -6.3350   21.8880  -32.4500 C   0  0  0  0  0  0  0  0  0  0  0  0
   -7.5960   21.4460  -32.0840 C   0  0  0  0  0  0  0  0  0  0  0  0
   -8.7230   22.2990  -31.5890 C   0  0  0  0  0  0  0  0  0  0  0  0
   -7.6410   20.0990  -32.2460 N   0  0  0  0  0  0  0  0  0  0  0  0
   -8.8010   19.2440  -31.9810 C   0  0  0  0  0  0  0  0  0  0  0  0
   -6.4500   19.6770  -32.6700 N   0  0  0  0  0  0  0  0  0  0  0  0
   -6.0760   18.3100  -32.9170 C   0  0  0  0  0  0  0  0  0  0  0  0
   -5.9860   17.8280  -34.2320 C   0  0  0  0  0  0  0  0  0  0  0  0
   -5.5990   16.5070  -34.4720 C   0  0  0  0  0  0  0  0  0  0  0  0
   -5.2940   15.6610  -33.4030 C   0  0  0  0  0  0  0  0  0  0  0  0
   -5.3740   16.1370  -32.0910 C   0  0  0  0  0  0  0  0  0  0  0  0
   -5.7610   17.4570  -31.8460 C   0  0  0  0  0  0  0  0  0  0  0  0
   -5.6470   20.7520  -32.8110 C   0  0  0  0  0  0  0  0  0  0  0  0
   -4.4550   20.7030  -33.2190 O   0  0  0  0  0  0  0  0  0  0  0  0
   -4.5310   23.1420  -28.5640 C   0  0  0  0  0  0  0  0  0  0  0  0
   -3.7090   22.3200  -27.7870 C   0  0  0  0  0  0  0  0  0  0  0  0
    0.2929   18.0214  -28.6831 H   0  0  0  0  0  0  0  0  0  0  0  0
   -0.6339   18.1589  -30.2157 H   0  0  0  0  0  0  0  0  0  0  0  0
    1.1445   18.4118  -30.2157 H   0  0  0  0  0  0  0  0  0  0  0  0
    0.8781   20.6002  -29.7549 H   0  0  0  0  0  0  0  0  0  0  0  0
   -0.9146   20.3549  -29.8985 H   0  0  0  0  0  0  0  0  0  0  0  0
    0.7650   21.3728  -26.3535 H   0  0  0  0  0  0  0  0  0  0  0  0
    1.4651   21.6282  -28.0402 H   0  0  0  0  0  0  0  0  0  0  0  0
    0.0861   22.9507  -29.7160 H   0  0  0  0  0  0  0  0  0  0  0  0
   -1.1890   25.0800  -29.9662 H   0  0  0  0  0  0  0  0  0  0  0  0
   -2.1726   26.1927  -27.9607 H   0  0  0  0  0  0  0  0  0  0  0  0
   -1.8670   25.1844  -25.6989 H   0  0  0  0  0  0  0  0  0  0  0  0
   -0.5846   23.0614  -25.4380 H   0  0  0  0  0  0  0  0  0  0  0  0
   -2.0633   20.6688  -30.2873 H   0  0  0  0  0  0  0  0  0  0  0  0
   -3.5058   22.1558  -31.6732 H   0  0  0  0  0  0  0  0  0  0  0  0
   -6.0520   23.8320  -33.2800 H   0  0  0  0  0  0  0  0  0  0  0  0
   -8.7256   22.3010  -30.4890 H   0  0  0  0  0  0  0  0  0  0  0  0
   -8.5936   23.3274  -31.9572 H   0  0  0  0  0  0  0  0  0  0  0  0
   -9.6776   21.8951  -31.9572 H   0  0  0  0  0  0  0  0  0  0  0  0
   -8.9403   19.1413  -30.8947 H   0  0  0  0  0  0  0  0  0  0  0  0
   -9.6997   19.6974  -32.4247 H   0  0  0  0  0  0  0  0  0  0  0  0
   -8.6339   18.2514  -32.4247 H   0  0  0  0  0  0  0  0  0  0  0  0
   -6.2209   18.4924  -35.0766 H   0  0  0  0  0  0  0  0  0  0  0  0
   -5.5344   16.1326  -35.5043 H   0  0  0  0  0  0  0  0  0  0  0  0
   -4.9910   14.6208  -33.5935 H   0  0  0  0  0  0  0  0  0  0  0  0
   -5.1318   15.4709  -31.2498 H   0  0  0  0  0  0  0  0  0  0  0  0
   -5.8192   17.8291  -30.8125 H   0  0  0  0  0  0  0  0  0  0  0  0
   -5.2245   23.8426  -28.0759 H   0  0  0  0  0  0  0  0  0  0  0  0
   -3.7467   22.3876  -26.6897 H   0  0  0  0  0  0  0  0  0  0  0  0
  1  2  1  0
  2  3  1  0
  3  4  1  0
  4  5  1  0
  5  6  2  0
  6  7  1  0
  7  8  2  0
  8  9  1  0
  9 10  2  0
  3 11  1  0
 11 12  2  0
 11 13  2  0
 11 14  1  0
 14 15  2  0
 15 16  1  0
 16 17  2  0
 17 18  1  0
 18 19  2  0
 18 20  2  0
 18 21  1  0
 21 22  1  0
 22 23  2  0
 23 24  1  0
 23 25  1  0
 25 26  1  0
 25 27  1  0
 27 28  1  0
 28 29  2  0
 29 30  1  0
 30 31  2  0
 31 32  1  0
 32 33  2  0
 27 34  1  0
 34 35  2  0
 17 36  1  0
 36 37  2  0
 10  5  1  0
 37 14  1  0
 34 22  1  0
 33 28  1  0
  1 38  1  0
  1 39  1  0
  1 40  1  0
  2 41  1  0
  2 42  1  0
  4 43  1  0
  4 44  1  0
  6 45  1  0
  7 46  1  0
  8 47  1  0
  9 48  1  0
 10 49  1  0
 15 50  1  0
 16 51  1  0
 21 52  1  0
 24 53  1  0
 24 54  1  0
 24 55  1  0
 26 56  1  0
 26 57  1  0
 26 58  1  0
 29 59  1  0
 30 60  1  0
 31 61  1  0
 32 62  1  0
 33 63  1  0
 36 64  1  0
 37 65  1  0
M  END
>  <UniqueID>  (26) 
25

>  <SMILES>  (26) 
CCN(Cc1ccccc1)S(=O)(=O)c1ccc(S(=O)(=O)Nc2c(C)n(C)n(-c3ccccc3)c2=O)cc1

>  <Energy>  (26) 
121.21607211241904

>  <Genealogy>  (26) 
CCN(Cc1ccccc1)S(=O)(=O)c1ccc(S(=O)(=O)Nc2c(C)n(C)n(-c3ccccc3)c2=O)cc1 (3D coordinates assigned)
CCN(Cc1ccccc1)S(=O)(=O)c1ccc(S(=O)(=O)Nc2c(C)n(C)n(-c3ccccc3)c2=O)cc1 (optimized conformer: 121.21607211241904 kcal/mol)

>  <smiles>  (26) 
CCN(Cc1ccccc1)S(=O)(=O)c1ccc(S(=O)(=O)Nc2c(C)n(C)n(-c3ccccc3)c2=O)cc1

>  <score_type>  (26) 
oracle

>  <origin>  (26) 
adgpu

>  <m_score__min__energy>  (26) 
-11.869999999999999

>  <m_primary>  (26) 
energy

$$$$
26:0
     RDKit          3D

 48 51  0  0  0  0  0  0  0  0999 V2000
   -0.5281   28.5922  -25.3415 H   0  0  0  0  0  0  0  0  0  0  0  0
   -0.5110   27.6310  -25.8760 C   0  0  0  0  0  0  0  0  0  0  0  0
   -0.1370   26.4650  -25.2050 C   0  0  0  0  0  0  0  0  0  0  0  0
    0.1336   26.5071  -24.1396 H   0  0  0  0  0  0  0  0  0  0  0  0
   -0.1060   25.2450  -25.8850 C   0  0  0  0  0  0  0  0  0  0  0  0
    0.1806   24.3285  -25.3484 H   0  0  0  0  0  0  0  0  0  0  0  0
   -0.4380   25.1790  -27.2490 C   0  0  0  0  0  0  0  0  0  0  0  0
   -0.4000   23.8700  -27.9410 C   0  0  0  0  0  0  0  0  0  0  0  0
   -1.2740   23.6220  -28.9540 N   0  0  0  0  0  0  0  0  0  0  0  0
   -1.2830   22.4570  -29.6030 N   0  0  0  0  0  0  0  0  0  0  0  0
   -0.4210   21.4520  -29.2810 C   0  0  0  0  0  0  0  0  0  0  0  0
   -0.4460   20.3110  -29.9080 N   0  0  0  0  0  0  0  0  0  0  0  0
   -1.2520   19.9790  -31.0510 C   0  0  0  0  0  0  0  0  0  0  0  0
   -2.0850   20.9270  -31.6690 C   0  0  0  0  0  0  0  0  0  0  0  0
   -2.1632   21.9418  -31.2519 H   0  0  0  0  0  0  0  0  0  0  0  0
   -2.8150   20.5860  -32.8120 C   0  0  0  0  0  0  0  0  0  0  0  0
   -3.4715   21.3314  -33.2847 H   0  0  0  0  0  0  0  0  0  0  0  0
   -2.7140   19.2950  -33.3600 C   0  0  0  0  0  0  0  0  0  0  0  0
   -3.4430   18.9040  -34.5310 N   0  0  0  0  0  0  0  0  0  0  0  0
   -4.9160   17.9880  -34.5320 S   0  0  0  0  0  0  0  0  0  0  0  0
   -4.6640   16.6500  -33.8970 O   0  0  0  0  0  0  0  0  0  0  0  0
   -5.3660   17.7710  -35.9490 O   0  0  0  0  0  0  0  0  0  0  0  0
   -6.1450   18.8370  -33.5990 C   0  0  0  0  0  0  0  0  0  0  0  0
   -7.2040   18.1370  -33.0040 C   0  0  0  0  0  0  0  0  0  0  0  0
   -7.2664   17.0437  -33.1077 H   0  0  0  0  0  0  0  0  0  0  0  0
   -8.1810   18.8260  -32.2790 C   0  0  0  0  0  0  0  0  0  0  0  0
   -9.0170   18.2738  -31.8249 H   0  0  0  0  0  0  0  0  0  0  0  0
   -8.1000   20.2190  -32.1280 C   0  0  0  0  0  0  0  0  0  0  0  0
   -9.1670   20.9640  -31.3840 C   0  0  0  0  0  0  0  0  0  0  0  0
   -9.0060   20.8516  -30.3017 H   0  0  0  0  0  0  0  0  0  0  0  0
   -9.1248   22.0300  -31.6522 H   0  0  0  0  0  0  0  0  0  0  0  0
  -10.1532   20.5572  -31.6522 H   0  0  0  0  0  0  0  0  0  0  0  0
   -7.0480   20.9170  -32.7380 C   0  0  0  0  0  0  0  0  0  0  0  0
   -6.9893   22.0113  -32.6429 H   0  0  0  0  0  0  0  0  0  0  0  0
   -6.0740   20.2290  -33.4660 C   0  0  0  0  0  0  0  0  0  0  0  0
   -5.2483   20.7830  -33.9364 H   0  0  0  0  0  0  0  0  0  0  0  0
   -1.8600   18.3630  -32.7590 C   0  0  0  0  0  0  0  0  0  0  0  0
   -1.7661   17.3536  -33.1860 H   0  0  0  0  0  0  0  0  0  0  0  0
   -1.1250   18.7060  -31.6190 C   0  0  0  0  0  0  0  0  0  0  0  0
   -0.4433   17.9709  -31.1664 H   0  0  0  0  0  0  0  0  0  0  0  0
    0.4730   21.6410  -28.2270 C   0  0  0  0  0  0  0  0  0  0  0  0
    1.1593   20.8342  -27.9301 H   0  0  0  0  0  0  0  0  0  0  0  0
    0.4890   22.8600  -27.5540 C   0  0  0  0  0  0  0  0  0  0  0  0
    1.1935   23.0278  -26.7261 H   0  0  0  0  0  0  0  0  0  0  0  0
   -0.8350   26.3590  -27.9140 C   0  0  0  0  0  0  0  0  0  0  0  0
   -1.2300   26.3300  -29.2480 O   0  0  0  0  0  0  0  0  0  0  0  0
   -0.8630   27.5760  -27.2250 C   0  0  0  0  0  0  0  0  0  0  0  0
   -1.1642   28.4947  -27.7496 H   0  0  0  0  0  0  0  0  0  0  0  0
  1  2  1  0
  2  3  2  0
  3  4  1  0
  3  5  1  0
  5  6  1  0
  5  7  2  0
  7  8  1  0
  8  9  2  0
  9 10  1  0
 10 11  1  0
 11 12  2  0
 12 13  1  0
 13 14  2  0
 14 15  1  0
 14 16  1  0
 16 17  1  0
 16 18  2  0
 18 19  1  0
 19 20  1  0
 20 21  2  0
 20 22  2  0
 20 23  1  0
 23 24  2  0
 24 25  1  0
 24 26  1  0
 26 27  1  0
 26 28  2  0
 28 29  1  0
 29 30  1  0
 29 31  1  0
 29 32  1  0
 28 33  1  0
 33 34  1  0
 33 35  2  0
 35 36  1  0
 18 37  1  0
 37 38  1  0
 37 39  2  0
 39 40  1  0
 11 41  1  0
 41 42  1  0
 41 43  2  0
 43 44  1  0
  7 45  1  0
 45 46  1  0
 45 47  2  0
 47 48  1  0
 47  2  1  0
 43  8  1  0
 39 13  1  0
 35 23  1  0
M  CHG  3  10  -1  19  -1  46  -1
M  END
>  <UniqueID>  (27) 
26

>  <SMILES>  (27) 
Cc1ccc(S(=O)(=O)[N-]c2ccc(/N=c3/ccc(-c4ccccc4[O-])n[n-]3)cc2)cc1

>  <Energy>  (27) 
68.92926057479794

>  <Genealogy>  (27) 
Cc1ccc(S(=O)(=O)[N-]c2ccc(N=c3ccc(-c4ccccc4[O-])n[n-]3)cc2)cc1 (protonated)
Cc1ccc(S(=O)(=O)[N-]c2ccc(/N=c3/ccc(-c4ccccc4[O-])n[n-]3)cc2)cc1 (cis-trans isomerization)
Cc1ccc(S(=O)(=O)[N-]c2ccc(/N=c3/ccc(-c4ccccc4[O-])n[n-]3)cc2)cc1 (3D coordinates assigned)
Cc1ccc(S(=O)(=O)[N-]c2ccc(/N=c3/ccc(-c4ccccc4[O-])n[n-]3)cc2)cc1 (optimized conformer: 68.92926057479794 kcal/mol)

>  <smiles>  (27) 
Cc1ccc(S(=O)(=O)Nc2ccc(N=c3ccc(-c4ccccc4O)n[nH]3)cc2)cc1

>  <score_type>  (27) 
oracle

>  <origin>  (27) 
adgpu

>  <m_score__min__energy>  (27) 
-11.84

>  <m_primary>  (27) 
energy

$$$$
27:0
     RDKit          3D

 33 35  0  0  0  0  0  0  0  0999 V2000
   -9.4350   20.3000  -32.3460 C   0  0  0  0  0  0  0  0  0  0  0  0
   -8.2660   21.0960  -31.9650 N   0  0  0  0  0  0  0  0  0  0  0  0
   -8.3640   21.9960  -30.9420 C   0  0  0  0  0  0  0  0  0  0  0  0
   -7.2520   22.7370  -30.5390 C   0  0  0  0  0  0  0  0  0  0  0  0
   -6.0190   22.5480  -31.1810 C   0  0  0  0  0  0  0  0  0  0  0  0
   -4.8300   23.3240  -30.7690 C   0  0  0  0  0  0  0  0  0  0  0  0
   -4.6800   24.6450  -30.9950 N   0  0  0  0  0  0  0  0  0  0  0  0
   -3.5260   24.9450  -30.4850 O   0  0  0  0  0  0  0  0  0  0  0  0
   -2.9800   23.8700  -29.9730 C   0  0  0  0  0  0  0  0  0  0  0  0
   -1.6610   23.8480  -29.2740 C   0  0  0  0  0  0  0  0  0  0  0  0
   -1.7320   24.6730  -28.0190 C   0  0  0  0  0  0  0  0  0  0  0  0
   -2.8090   24.5180  -27.1300 C   0  0  0  0  0  0  0  0  0  0  0  0
   -2.8930   25.3100  -25.9810 C   0  0  0  0  0  0  0  0  0  0  0  0
   -1.9100   26.2680  -25.7170 C   0  0  0  0  0  0  0  0  0  0  0  0
   -0.8440   26.4380  -26.6040 C   0  0  0  0  0  0  0  0  0  0  0  0
   -0.7550   25.6480  -27.7550 C   0  0  0  0  0  0  0  0  0  0  0  0
   -3.7730   22.7910  -30.1200 N   0  0  0  0  0  0  0  0  0  0  0  0
   -5.9340   21.6050  -32.2150 C   0  0  0  0  0  0  0  0  0  0  0  0
   -7.0690   20.8820  -32.5880 C   0  0  0  0  0  0  0  0  0  0  0  0
   -9.9506   19.9489  -31.4400 H   0  0  0  0  0  0  0  0  0  0  0  0
  -10.1217   20.9190  -32.9421 H   0  0  0  0  0  0  0  0  0  0  0  0
   -9.1106   19.4343  -32.9421 H   0  0  0  0  0  0  0  0  0  0  0  0
   -9.3279   22.1380  -30.4313 H   0  0  0  0  0  0  0  0  0  0  0  0
   -7.3421   23.4667  -29.7208 H   0  0  0  0  0  0  0  0  0  0  0  0
   -1.4033   22.8106  -29.0142 H   0  0  0  0  0  0  0  0  0  0  0  0
   -0.8919   24.2672  -29.9394 H   0  0  0  0  0  0  0  0  0  0  0  0
   -3.5888   23.7708  -27.3388 H   0  0  0  0  0  0  0  0  0  0  0  0
   -3.7337   25.1791  -25.2838 H   0  0  0  0  0  0  0  0  0  0  0  0
   -1.9757   26.8881  -24.8108 H   0  0  0  0  0  0  0  0  0  0  0  0
   -0.0730   27.1947  -26.3968 H   0  0  0  0  0  0  0  0  0  0  0  0
    0.0815   25.7903  -28.4550 H   0  0  0  0  0  0  0  0  0  0  0  0
   -4.9771   21.4353  -32.7304 H   0  0  0  0  0  0  0  0  0  0  0  0
   -6.9987   20.1333  -33.3908 H   0  0  0  0  0  0  0  0  0  0  0  0
  1  2  1  0
  2  3  2  0
  3  4  1  0
  4  5  2  0
  5  6  1  0
  6  7  2  0
  7  8  1  0
  8  9  1  0
  9 10  1  0
 10 11  1  0
 11 12  2  0
 12 13  1  0
 13 14  2  0
 14 15  1  0
 15 16  2  0
  9 17  2  0
  5 18  1  0
 18 19  2  0
 19  2  1  0
 17  6  1  0
 16 11  1  0
  1 20  1  0
  1 21  1  0
  1 22  1  0
  3 23  1  0
  4 24  1  0
 10 25  1  0
 10 26  1  0
 12 27  1  0
 13 28  1  0
 14 29  1  0
 15 30  1  0
 16 31  1  0
 18 32  1  0
 19 33  1  0
M  CHG  1   2   1
M  END
>  <UniqueID>  (28) 
27

>  <SMILES>  (28) 
C[n+]1ccc(-c2noc(Cc3ccccc3)n2)cc1

>  <Energy>  (28) 
67.20274195702582

>  <Genealogy>  (28) 
C[n+]1ccc(-c2noc(Cc3ccccc3)n2)cc1 (3D coordinates assigned)
C[n+]1ccc(-c2noc(Cc3ccccc3)n2)cc1 (optimized conformer: 67.20274195702582 kcal/mol)

>  <smiles>  (28) 
C[n+]1ccc(-c2noc(Cc3ccccc3)n2)cc1

>  <score_type>  (28) 
oracle

>  <origin>  (28) 
adgpu

>  <m_score__min__energy>  (28) 
-7.2699999999999996

>  <m_primary>  (28) 
energy

$$$$
28:0
     RDKit          3D

 45 47  0  0  0  0  0  0  0  0999 V2000
   -7.1610   17.8150  -32.3540 C   0  0  0  0  0  0  0  0  0  0  0  0
   -8.2480   18.6490  -32.6960 O   0  0  0  0  0  0  0  0  0  0  0  0
   -8.7390   19.3090  -31.5440 C   0  0  0  0  0  0  0  0  0  0  0  0
   -8.3670   20.7680  -31.5730 C   0  0  0  0  0  0  0  0  0  0  0  0
   -7.0760   21.1850  -31.2340 C   0  0  0  0  0  0  0  0  0  0  0  0
   -6.7590   22.5530  -31.2960 C   0  0  0  0  0  0  0  0  0  0  0  0
   -5.4150   23.0550  -30.9460 C   0  0  0  0  0  0  0  0  0  0  0  0
   -5.1160   24.2440  -31.2400 O   0  0  0  0  0  0  0  0  0  0  0  0
   -4.4340   22.2000  -30.3350 N   0  0  0  0  0  0  0  0  0  0  0  0
   -3.2990   22.6890  -29.5990 C   0  0  0  0  0  0  0  0  0  0  0  0
   -2.0190   22.1990  -29.9000 C   0  0  0  0  0  0  0  0  0  0  0  0
   -0.9030   22.6430  -29.1860 C   0  0  0  0  0  0  0  0  0  0  0  0
   -1.0550   23.5700  -28.1470 C   0  0  0  0  0  0  0  0  0  0  0  0
    0.3520   24.1480  -27.2630 S   0  0  0  0  0  0  0  0  0  0  0  0
    1.3240   24.7930  -28.2120 O   0  0  0  0  0  0  0  0  0  0  0  0
    1.0480   22.9950  -26.5950 O   0  0  0  0  0  0  0  0  0  0  0  0
   -0.1700   25.3160  -26.0550 C   0  0  0  0  0  0  0  0  0  0  0  0
   -0.7070   26.5500  -26.4520 C   0  0  0  0  0  0  0  0  0  0  0  0
   -1.1410   27.4680  -25.4910 C   0  0  0  0  0  0  0  0  0  0  0  0
   -1.0450   27.1580  -24.1320 C   0  0  0  0  0  0  0  0  0  0  0  0
   -0.5190   25.9250  -23.7320 C   0  0  0  0  0  0  0  0  0  0  0  0
   -0.0840   25.0050  -24.6900 C   0  0  0  0  0  0  0  0  0  0  0  0
   -2.3310   24.0530  -27.8310 C   0  0  0  0  0  0  0  0  0  0  0  0
   -3.4480   23.6100  -28.5460 C   0  0  0  0  0  0  0  0  0  0  0  0
   -7.6920   23.4280  -31.6660 O   0  0  0  0  0  0  0  0  0  0  0  0
   -8.9280   23.0690  -32.0010 C   0  0  0  0  0  0  0  0  0  0  0  0
   -9.7600   23.9490  -32.3470 O   0  0  0  0  0  0  0  0  0  0  0  0
   -9.3050   21.7250  -31.9720 C   0  0  0  0  0  0  0  0  0  0  0  0
   -7.0780   17.7513  -31.2590 H   0  0  0  0  0  0  0  0  0  0  0  0
   -7.3258   16.8094  -32.7683 H   0  0  0  0  0  0  0  0  0  0  0  0
   -6.2324   18.2346  -32.7683 H   0  0  0  0  0  0  0  0  0  0  0  0
   -9.8346   19.2154  -31.5125 H   0  0  0  0  0  0  0  0  0  0  0  0
   -8.2929   18.8459  -30.6515 H   0  0  0  0  0  0  0  0  0  0  0  0
   -6.3178   20.4514  -30.9226 H   0  0  0  0  0  0  0  0  0  0  0  0
   -4.4810   21.1760  -30.5330 H   0  0  0  0  0  0  0  0  0  0  0  0
   -1.8932   21.4594  -30.7045 H   0  0  0  0  0  0  0  0  0  0  0  0
    0.0976   22.2635  -29.4405 H   0  0  0  0  0  0  0  0  0  0  0  0
   -0.7867   26.7956  -27.5213 H   0  0  0  0  0  0  0  0  0  0  0  0
   -1.5587   28.4359  -25.8053 H   0  0  0  0  0  0  0  0  0  0  0  0
   -1.3829   27.8831  -23.3770 H   0  0  0  0  0  0  0  0  0  0  0  0
   -0.4477   25.6792  -22.6622 H   0  0  0  0  0  0  0  0  0  0  0  0
    0.3266   24.0351  -24.3728 H   0  0  0  0  0  0  0  0  0  0  0  0
   -2.4549   24.7832  -27.0177 H   0  0  0  0  0  0  0  0  0  0  0  0
   -4.4488   23.9837  -28.2837 H   0  0  0  0  0  0  0  0  0  0  0  0
  -10.3235   21.4239  -32.2584 H   0  0  0  0  0  0  0  0  0  0  0  0
  1  2  1  0
  2  3  1  0
  3  4  1  0
  4  5  1  0
  5  6  2  0
  6  7  1  0
  7  8  2  0
  7  9  1  0
  9 10  1  0
 10 11  2  0
 11 12  1  0
 12 13  2  0
 13 14  1  0
 14 15  2  0
 14 16  2  0
 14 17  1  0
 17 18  2  0
 18 19  1  0
 19 20  2  0
 20 21  1  0
 21 22  2  0
 13 23  1  0
 23 24  2  0
  6 25  1  0
 25 26  1  0
 26 27  2  0
 26 28  1  0
 28  4  2  0
 24 10  1  0
 22 17  1  0
  1 29  1  0
  1 30  1  0
  1 31  1  0
  3 32  1  0
  3 33  1  0
  5 34  1  0
  9 35  1  0
 11 36  1  0
 12 37  1  0
 18 38  1  0
 19 39  1  0
 20 40  1  0
 21 41  1  0
 22 42  1  0
 23 43  1  0
 24 44  1  0
 28 45  1  0
M  END
>  <UniqueID>  (29) 
28

>  <SMILES>  (29) 
COCc1cc(C(=O)Nc2ccc(S(=O)(=O)c3ccccc3)cc2)oc(=O)c1

>  <Energy>  (29) 
56.80806295836979

>  <Genealogy>  (29) 
COCc1cc(C(=O)Nc2ccc(S(=O)(=O)c3ccccc3)cc2)oc(=O)c1 (3D coordinates assigned)
COCc1cc(C(=O)Nc2ccc(S(=O)(=O)c3ccccc3)cc2)oc(=O)c1 (optimized conformer: 56.80806295836979 kcal/mol)

>  <smiles>  (29) 
COCc1cc(C(=O)Nc2ccc(S(=O)(=O)c3ccccc3)cc2)oc(=O)c1

>  <score_type>  (29) 
oracle

>  <origin>  (29) 
adgpu

>  <m_score__min__energy>  (29) 
-9.7100000000000009

>  <m_primary>  (29) 
energy

$$$$
29:0
     RDKit          3D

 43 46  0  0  0  0  0  0  0  0999 V2000
    0.2550   21.0300  -33.9670 C   0  0  0  0  0  0  0  0  0  0  0  0
   -1.0960   21.0530  -33.3270 C   0  0  0  0  0  0  0  0  0  0  0  0
   -2.1200   20.2170  -33.8100 C   0  0  0  0  0  0  0  0  0  0  0  0
   -3.3480   20.2940  -33.1630 C   0  0  0  0  0  0  0  0  0  0  0  0
   -4.4560   19.5900  -33.4560 N   0  0  0  0  0  0  0  0  0  0  0  0
   -5.3230   20.0670  -32.5210 C   0  0  0  0  0  0  0  0  0  0  0  0
   -6.6880   19.6240  -32.4090 N   0  0  0  0  0  0  0  0  0  0  0  0
   -7.7530   20.3700  -33.0910 C   0  0  0  0  0  0  0  0  0  0  0  0
   -9.1000   20.1160  -32.4100 C   0  0  0  0  0  0  0  0  0  0  0  0
   -9.3340   18.7290  -32.2600 O   0  0  0  0  0  0  0  0  0  0  0  0
   -8.3880   18.1850  -31.3610 C   0  0  0  0  0  0  0  0  0  0  0  0
   -6.9740   18.2620  -31.9450 C   0  0  0  0  0  0  0  0  0  0  0  0
   -4.7760   21.0040  -31.7090 N   0  0  0  0  0  0  0  0  0  0  0  0
   -3.5350   21.1250  -32.1360 N   0  0  0  0  0  0  0  0  0  0  0  0
   -2.5570   21.9440  -31.6680 C   0  0  0  0  0  0  0  0  0  0  0  0
   -2.7860   22.8710  -30.5090 C   0  0  0  0  0  0  0  0  0  0  0  0
   -3.7630   23.8570  -30.8420 O   0  0  0  0  0  0  0  0  0  0  0  0
   -5.1460   23.6310  -30.9210 C   0  0  0  0  0  0  0  0  0  0  0  0
   -5.7710   23.7760  -32.1670 C   0  0  0  0  0  0  0  0  0  0  0  0
   -7.1460   23.5580  -32.3020 C   0  0  0  0  0  0  0  0  0  0  0  0
   -7.9080   23.1960  -31.1890 C   0  0  0  0  0  0  0  0  0  0  0  0
   -7.2980   23.0520  -29.9410 C   0  0  0  0  0  0  0  0  0  0  0  0
   -5.9230   23.2690  -29.8020 C   0  0  0  0  0  0  0  0  0  0  0  0
   -1.3350   21.8920  -32.2720 N   0  0  0  0  0  0  0  0  0  0  0  0
    1.0302   21.0168  -33.1867 H   0  0  0  0  0  0  0  0  0  0  0  0
    0.3491   20.1301  -34.5926 H   0  0  0  0  0  0  0  0  0  0  0  0
    0.3797   21.9262  -34.5926 H   0  0  0  0  0  0  0  0  0  0  0  0
   -1.9566   19.5359  -34.6581 H   0  0  0  0  0  0  0  0  0  0  0  0
   -7.5243   21.4453  -33.0530 H   0  0  0  0  0  0  0  0  0  0  0  0
   -7.8119   20.0338  -34.1367 H   0  0  0  0  0  0  0  0  0  0  0  0
   -9.0975   20.5906  -31.4176 H   0  0  0  0  0  0  0  0  0  0  0  0
   -9.8974   20.5421  -33.0365 H   0  0  0  0  0  0  0  0  0  0  0  0
   -8.4199   18.7508  -30.4182 H   0  0  0  0  0  0  0  0  0  0  0  0
   -8.6384   17.1288  -31.1830 H   0  0  0  0  0  0  0  0  0  0  0  0
   -6.2455   17.9823  -31.1697 H   0  0  0  0  0  0  0  0  0  0  0  0
   -6.9010   17.5709  -32.7977 H   0  0  0  0  0  0  0  0  0  0  0  0
   -3.1389   22.2893  -29.6447 H   0  0  0  0  0  0  0  0  0  0  0  0
   -1.8397   23.3763  -30.2656 H   0  0  0  0  0  0  0  0  0  0  0  0
   -5.1754   24.0636  -33.0459 H   0  0  0  0  0  0  0  0  0  0  0  0
   -7.6271   23.6717  -33.2847 H   0  0  0  0  0  0  0  0  0  0  0  0
   -8.9893   23.0242  -31.2954 H   0  0  0  0  0  0  0  0  0  0  0  0
   -7.9000   22.7673  -29.0654 H   0  0  0  0  0  0  0  0  0  0  0  0
   -5.4469   23.1568  -28.8168 H   0  0  0  0  0  0  0  0  0  0  0  0
  1  2  1  0
  2  3  2  0
  3  4  1  0
  4  5  2  0
  5  6  1  0
  6  7  1  0
  7  8  1  0
  8  9  1  0
  9 10  1  0
 10 11  1  0
 11 12  1  0
  6 13  2  0
 13 14  1  0
 14 15  1  0
 15 16  1  0
 16 17  1  0
 17 18  1  0
 18 19  2  0
 19 20  1  0
 20 21  2  0
 21 22  1  0
 22 23  2  0
 15 24  2  0
 24  2  1  0
 14  4  1  0
 23 18  1  0
 12  7  1  0
  1 25  1  0
  1 26  1  0
  1 27  1  0
  3 28  1  0
  8 29  1  0
  8 30  1  0
  9 31  1  0
  9 32  1  0
 11 33  1  0
 11 34  1  0
 12 35  1  0
 12 36  1  0
 16 37  1  0
 16 38  1  0
 19 39  1  0
 20 40  1  0
 21 41  1  0
 22 42  1  0
 23 43  1  0
M  END
>  <UniqueID>  (30) 
29

>  <SMILES>  (30) 
Cc1cc2nc(N3CCOCC3)nn2c(COc2ccccc2)n1

>  <Energy>  (30) 
84.44545458025941

>  <Genealogy>  (30) 
Cc1cc2nc(N3CCOCC3)nn2c(COc2ccccc2)n1 (3D coordinates assigned)
Cc1cc2nc(N3CCOCC3)nn2c(COc2ccccc2)n1 (nonaromatic ring conformer: 84.44545458025941 kcal/mol)

>  <smiles>  (30) 
Cc1cc2nc(N3CCOCC3)nn2c(COc2ccccc2)n1

>  <score_type>  (30) 
oracle

>  <origin>  (30) 
adgpu

>  <m_score__min__energy>  (30) 
-7.9199999999999999

>  <m_primary>  (30) 
energy

$$$$
30:0
     RDKit          3D

 27 28  0  0  0  0  0  0  0  0999 V2000
   -6.9668   25.4912  -30.3349 H   0  0  0  0  0  0  0  0  0  0  0  0
   -6.7650   24.4720  -30.6960 C   0  0  0  0  0  0  0  0  0  0  0  0
   -7.7430   23.6550  -31.1670 N   0  0  0  0  0  0  0  0  0  0  0  0
   -7.2590   22.4520  -31.5400 C   0  0  0  0  0  0  0  0  0  0  0  0
   -8.0200   21.5340  -32.0600 N   0  0  0  0  0  0  0  0  0  0  0  0
   -7.6180   20.2110  -32.4520 C   0  0  0  0  0  0  0  0  0  0  0  0
   -8.2510   19.0660  -31.9390 C   0  0  0  0  0  0  0  0  0  0  0  0
   -9.0537   19.1709  -31.1943 H   0  0  0  0  0  0  0  0  0  0  0  0
   -7.8640   17.7930  -32.3720 C   0  0  0  0  0  0  0  0  0  0  0  0
   -8.3468   16.9000  -31.9484 H   0  0  0  0  0  0  0  0  0  0  0  0
   -6.8620   17.6510  -33.3450 C   0  0  0  0  0  0  0  0  0  0  0  0
   -6.4220   16.2800  -33.7860 C   0  0  0  0  0  0  0  0  0  0  0  0
   -7.0601   15.9460  -34.6175 H   0  0  0  0  0  0  0  0  0  0  0  0
   -6.5116   15.5890  -32.9348 H   0  0  0  0  0  0  0  0  0  0  0  0
   -4.9690   16.3030  -34.2480 C   0  0  0  0  0  0  0  0  0  0  0  0
   -4.3054   16.3135  -33.3707 H   0  0  0  0  0  0  0  0  0  0  0  0
   -4.7625   15.4080  -34.8533 H   0  0  0  0  0  0  0  0  0  0  0  0
   -4.7909   17.2041  -34.8533 H   0  0  0  0  0  0  0  0  0  0  0  0
   -6.2470   18.7970  -33.8710 C   0  0  0  0  0  0  0  0  0  0  0  0
   -5.4558   18.6950  -34.6284 H   0  0  0  0  0  0  0  0  0  0  0  0
   -6.6350   20.0680  -33.4370 C   0  0  0  0  0  0  0  0  0  0  0  0
   -6.1642   20.9615  -33.8729 H   0  0  0  0  0  0  0  0  0  0  0  0
   -5.5850   22.3560  -31.3240 S   0  0  0  0  0  0  0  0  0  0  0  0
   -5.4880   23.9190  -30.7060 C   0  0  0  0  0  0  0  0  0  0  0  0
   -4.2570   24.5840  -30.2590 C   0  0  0  0  0  0  0  0  0  0  0  0
   -3.8610   25.6320  -30.8320 O   0  0  0  0  0  0  0  0  0  0  0  0
   -3.5230   24.0610  -29.2020 O   0  0  0  0  0  0  0  0  0  0  0  0
  1  2  1  0
  2  3  1  0
  3  4  1  0
  4  5  2  0
  5  6  1  0
  6  7  2  0
  7  8  1  0
  7  9  1  0
  9 10  1  0
  9 11  2  0
 11 12  1  0
 12 13  1  0
 12 14  1  0
 12 15  1  0
 15 16  1  0
 15 17  1  0
 15 18  1  0
 11 19  1  0
 19 20  1  0
 19 21  2  0
 21 22  1  0
  4 23  1  0
 23 24  1  0
 24 25  1  0
 25 26  2  0
 25 27  1  0
 24  2  2  0
 21  6  1  0
M  CHG  2   3  -1  27  -1
M  END
>  <UniqueID>  (31) 
30

>  <SMILES>  (31) 
CCc1ccc(/N=c2/[n-]cc(C(=O)[O-])s2)cc1

>  <Energy>  (31) 
60.810761024113674

>  <Genealogy>  (31) 
CCc1ccc(N=c2[n-]cc(C(=O)[O-])s2)cc1 (protonated)
CCc1ccc(/N=c2/[n-]cc(C(=O)[O-])s2)cc1 (cis-trans isomerization)
CCc1ccc(/N=c2/[n-]cc(C(=O)[O-])s2)cc1 (3D coordinates assigned)
CCc1ccc(/N=c2/[n-]cc(C(=O)[O-])s2)cc1 (optimized conformer: 60.810761024113674 kcal/mol)

>  <smiles>  (31) 
CCc1ccc(N=c2[nH]cc(C(=O)O)s2)cc1

>  <score_type>  (31) 
oracle

>  <origin>  (31) 
adgpu

>  <m_score__min__energy>  (31) 
-9.0800000000000001

>  <m_primary>  (31) 
energy

$$$$
31:0
     RDKit          3D

 50 53  0  0  0  0  0  0  0  0999 V2000
   -4.1220   14.7790  -35.3030 C   0  0  0  0  0  0  0  0  0  0  0  0
   -4.0520   16.1420  -34.6810 C   0  0  0  0  0  0  0  0  0  0  0  0
   -3.1010   16.4190  -33.6870 C   0  0  0  0  0  0  0  0  0  0  0  0
   -3.0580   17.6790  -33.0840 C   0  0  0  0  0  0  0  0  0  0  0  0
   -3.9650   18.6800  -33.4700 C   0  0  0  0  0  0  0  0  0  0  0  0
   -3.9210   20.0240  -32.8530 C   0  0  0  0  0  0  0  0  0  0  0  0
   -2.7390   20.6970  -32.8790 N   0  0  0  0  0  0  0  0  0  0  0  0
   -2.6230   21.9490  -32.3710 C   0  0  0  0  0  0  0  0  0  0  0  0
   -3.6970   22.5570  -31.8130 N   0  0  0  0  0  0  0  0  0  0  0  0
   -4.9030   21.9360  -31.7370 C   0  0  0  0  0  0  0  0  0  0  0  0
   -6.2590   22.8190  -30.9440 S   0  0  0  0  0  0  0  0  0  0  0  0
   -5.8690   24.4330  -31.7020 C   0  0  0  0  0  0  0  0  0  0  0  0
   -5.2700   25.3670  -30.7000 C   0  0  0  0  0  0  0  0  0  0  0  0
   -6.0170   26.1780  -30.0920 O   0  0  0  0  0  0  0  0  0  0  0  0
   -3.8620   25.2890  -30.4310 N   0  0  0  0  0  0  0  0  0  0  0  0
   -3.1540   24.5750  -29.4030 C   0  0  0  0  0  0  0  0  0  0  0  0
   -3.7930   23.4740  -28.8140 C   0  0  0  0  0  0  0  0  0  0  0  0
   -3.1620   22.7340  -27.8100 C   0  0  0  0  0  0  0  0  0  0  0  0
   -1.8790   23.0850  -27.3870 C   0  0  0  0  0  0  0  0  0  0  0  0
   -1.2240   24.1700  -27.9740 C   0  0  0  0  0  0  0  0  0  0  0  0
   -1.8520   24.9150  -28.9780 C   0  0  0  0  0  0  0  0  0  0  0  0
   -5.0560   20.6350  -32.2650 C   0  0  0  0  0  0  0  0  0  0  0  0
   -6.3610   19.9280  -32.1910 C   0  0  0  0  0  0  0  0  0  0  0  0
   -6.4490   18.6480  -31.6150 C   0  0  0  0  0  0  0  0  0  0  0  0
   -7.6670   17.9620  -31.6020 C   0  0  0  0  0  0  0  0  0  0  0  0
   -8.8100   18.5520  -32.1500 C   0  0  0  0  0  0  0  0  0  0  0  0
   -8.7330   19.8250  -32.7230 C   0  0  0  0  0  0  0  0  0  0  0  0
   -7.5130   20.5090  -32.7500 C   0  0  0  0  0  0  0  0  0  0  0  0
   -4.9420   18.3870  -34.4340 C   0  0  0  0  0  0  0  0  0  0  0  0
   -4.9850   17.1270  -35.0380 C   0  0  0  0  0  0  0  0  0  0  0  0
   -4.1612   14.0163  -34.5114 H   0  0  0  0  0  0  0  0  0  0  0  0
   -5.0250   14.7066  -35.9269 H   0  0  0  0  0  0  0  0  0  0  0  0
   -3.2311   14.6145  -35.9269 H   0  0  0  0  0  0  0  0  0  0  0  0
   -2.3862   15.6409  -33.3811 H   0  0  0  0  0  0  0  0  0  0  0  0
   -2.3110   17.8878  -32.3040 H   0  0  0  0  0  0  0  0  0  0  0  0
   -1.6558   22.4713  -32.4121 H   0  0  0  0  0  0  0  0  0  0  0  0
   -5.1538   24.2806  -32.5237 H   0  0  0  0  0  0  0  0  0  0  0  0
   -6.8022   24.8767  -32.0793 H   0  0  0  0  0  0  0  0  0  0  0  0
   -4.8024   23.1896  -29.1460 H   0  0  0  0  0  0  0  0  0  0  0  0
   -3.6763   21.8755  -27.3535 H   0  0  0  0  0  0  0  0  0  0  0  0
   -1.3842   22.5077  -26.5921 H   0  0  0  0  0  0  0  0  0  0  0  0
   -0.2096   24.4400  -27.6454 H   0  0  0  0  0  0  0  0  0  0  0  0
   -1.3298   25.7674  -29.4370 H   0  0  0  0  0  0  0  0  0  0  0  0
   -5.5550   18.1843  -31.1725 H   0  0  0  0  0  0  0  0  0  0  0  0
   -7.7262   16.9565  -31.1599 H   0  0  0  0  0  0  0  0  0  0  0  0
   -9.7697   18.0147  -32.1303 H   0  0  0  0  0  0  0  0  0  0  0  0
   -9.6327   20.2892  -33.1531 H   0  0  0  0  0  0  0  0  0  0  0  0
   -7.4546   21.5061  -33.2107 H   0  0  0  0  0  0  0  0  0  0  0  0
   -5.6786   19.1537  -34.7161 H   0  0  0  0  0  0  0  0  0  0  0  0
   -5.7522   16.9073  -35.7950 H   0  0  0  0  0  0  0  0  0  0  0  0
  1  2  1  0
  2  3  2  0
  3  4  1  0
  4  5  2  0
  5  6  1  0
  6  7  2  0
  7  8  1  0
  8  9  2  0
  9 10  1  0
 10 11  1  0
 11 12  1  0
 12 13  1  0
 13 14  2  0
 13 15  1  0
 15 16  1  0
 16 17  2  0
 17 18  1  0
 18 19  2  0
 19 20  1  0
 20 21  2  0
 10 22  2  0
 22 23  1  0
 23 24  2  0
 24 25  1  0
 25 26  2  0
 26 27  1  0
 27 28  2  0
  5 29  1  0
 29 30  2  0
 30  2  1  0
 22  6  1  0
 28 23  1  0
 21 16  1  0
  1 31  1  0
  1 32  1  0
  1 33  1  0
  3 34  1  0
  4 35  1  0
  8 36  1  0
 12 37  1  0
 12 38  1  0
 17 39  1  0
 18 40  1  0
 19 41  1  0
 20 42  1  0
 21 43  1  0
 24 44  1  0
 25 45  1  0
 26 46  1  0
 27 47  1  0
 28 48  1  0
 29 49  1  0
 30 50  1  0
M  CHG  1  15  -1
M  END
>  <UniqueID>  (32) 
31

>  <SMILES>  (32) 
Cc1ccc(-c2ncnc(SCC(=O)[N-]c3ccccc3)c2-c2ccccc2)cc1

>  <Energy>  (32) 
63.99920970131734

>  <Genealogy>  (32) 
Cc1ccc(-c2ncnc(SCC(=O)[N-]c3ccccc3)c2-c2ccccc2)cc1 (protonated)
Cc1ccc(-c2ncnc(SCC(=O)[N-]c3ccccc3)c2-c2ccccc2)cc1 (3D coordinates assigned)
Cc1ccc(-c2ncnc(SCC(=O)[N-]c3ccccc3)c2-c2ccccc2)cc1 (optimized conformer: 63.99920970131734 kcal/mol)

>  <smiles>  (32) 
Cc1ccc(-c2ncnc(SCC(=O)Nc3ccccc3)c2-c2ccccc2)cc1

>  <score_type>  (32) 
oracle

>  <origin>  (32) 
adgpu

>  <m_score__min__energy>  (32) 
-11.779999999999999

>  <m_primary>  (32) 
energy

$$$$
32:0
     RDKit          3D

 37 40  0  0  0  0  0  0  0  0999 V2000
   -4.2090   26.2410  -30.8240 H   0  0  0  0  0  0  0  0  0  0  0  0
   -3.8590   25.3050  -30.5230 N   0  0  0  0  0  0  0  0  0  0  0  0
   -4.4740   24.2120  -30.8450 C   0  0  0  0  0  0  0  0  0  0  0  0
   -5.6110   24.2800  -31.5900 N   0  0  0  0  0  0  0  0  0  0  0  0
   -6.2960   23.1660  -31.9550 C   0  0  0  0  0  0  0  0  0  0  0  0
   -7.2131   23.2519  -32.5563 H   0  0  0  0  0  0  0  0  0  0  0  0
   -5.8260   21.9050  -31.5600 C   0  0  0  0  0  0  0  0  0  0  0  0
   -6.5320   20.6490  -31.9200 C   0  0  0  0  0  0  0  0  0  0  0  0
   -7.8130   20.3930  -31.3970 C   0  0  0  0  0  0  0  0  0  0  0  0
   -8.2879   21.1300  -30.7327 H   0  0  0  0  0  0  0  0  0  0  0  0
   -8.4870   19.2110  -31.7140 C   0  0  0  0  0  0  0  0  0  0  0  0
   -9.4896   19.0239  -31.3019 H   0  0  0  0  0  0  0  0  0  0  0  0
   -7.8920   18.2670  -32.5520 C   0  0  0  0  0  0  0  0  0  0  0  0
   -8.4264   17.3376  -32.7981 H   0  0  0  0  0  0  0  0  0  0  0  0
   -6.6170   18.5000  -33.0800 C   0  0  0  0  0  0  0  0  0  0  0  0
   -5.8530   17.2940  -34.1110 S   0  0  0  0  0  0  0  0  0  0  0  0
   -4.5290   16.8900  -33.5260 O   0  0  0  0  0  0  0  0  0  0  0  0
   -5.6200   17.8680  -35.4810 O   0  0  0  0  0  0  0  0  0  0  0  0
   -6.8770   15.9080  -34.2330 N   0  0  0  0  0  0  0  0  0  0  0  0
   -6.3310   15.0930  -33.8730 H   0  0  0  0  0  0  0  0  0  0  0  0
   -5.9360   19.6830  -32.7550 C   0  0  0  0  0  0  0  0  0  0  0  0
   -4.9268   19.8581  -33.1561 H   0  0  0  0  0  0  0  0  0  0  0  0
   -4.6960   21.8430  -30.8050 N   0  0  0  0  0  0  0  0  0  0  0  0
   -3.9970   22.9490  -30.4310 C   0  0  0  0  0  0  0  0  0  0  0  0
   -2.8040   22.7950  -29.6320 N   0  0  0  0  0  0  0  0  0  0  0  0
   -1.7250   23.5720  -29.7040 N   0  0  0  0  0  0  0  0  0  0  0  0
   -0.8060   23.1270  -28.8100 C   0  0  0  0  0  0  0  0  0  0  0  0
    0.1880   23.5645  -28.6351 H   0  0  0  0  0  0  0  0  0  0  0  0
   -1.3320   22.0340  -28.1600 C   0  0  0  0  0  0  0  0  0  0  0  0
   -0.8440   21.1960  -27.1650 C   0  0  0  0  0  0  0  0  0  0  0  0
    0.1574   21.3396  -26.7332 H   0  0  0  0  0  0  0  0  0  0  0  0
   -1.6880   20.1550  -26.7340 C   0  0  0  0  0  0  0  0  0  0  0  0
   -1.3517   19.4616  -25.9491 H   0  0  0  0  0  0  0  0  0  0  0  0
   -2.9700   20.0030  -27.3130 C   0  0  0  0  0  0  0  0  0  0  0  0
   -3.6287   19.1897  -26.9745 H   0  0  0  0  0  0  0  0  0  0  0  0
   -3.3970   20.8600  -28.2910 N   0  0  0  0  0  0  0  0  0  0  0  0
   -2.5690   21.8570  -28.6950 C   0  0  0  0  0  0  0  0  0  0  0  0
  1  2  1  0
  2  3  2  0
  3  4  1  0
  4  5  1  0
  5  6  1  0
  5  7  2  0
  7  8  1  0
  8  9  2  0
  9 10  1  0
  9 11  1  0
 11 12  1  0
 11 13  2  0
 13 14  1  0
 13 15  1  0
 15 16  1  0
 16 17  2  0
 16 18  2  0
 16 19  1  0
 19 20  1  0
 15 21  2  0
 21 22  1  0
  7 23  1  0
 23 24  2  0
 24 25  1  0
 25 26  1  0
 26 27  2  0
 27 28  1  0
 27 29  1  0
 29 30  2  0
 30 31  1  0
 30 32  1  0
 32 33  1  0
 32 34  2  0
 34 35  1  0
 34 36  1  0
 36 37  2  0
 24  3  1  0
 37 25  1  0
 21  8  1  0
 37 29  1  0
M  CHG  2   4  -1  19  -1
M  END
>  <UniqueID>  (33) 
32

>  <SMILES>  (33) 
[H]/N=c1\[n-]cc(-c2cccc(S([NH-])(=O)=O)c2)nc1-n1ncc2cccnc21

>  <Energy>  (33) 
91.50353583854863

>  <Genealogy>  (33) 
N=c1[n-]cc(-c2cccc(S([NH-])(=O)=O)c2)nc1-n1ncc2cccnc21 (protonated)
[H]/N=c1\[n-]cc(-c2cccc(S([NH-])(=O)=O)c2)nc1-n1ncc2cccnc21 (cis-trans isomerization)
[H]/N=c1\[n-]cc(-c2cccc(S([NH-])(=O)=O)c2)nc1-n1ncc2cccnc21 (3D coordinates assigned)
[H]/N=c1\[n-]cc(-c2cccc(S([NH-])(=O)=O)c2)nc1-n1ncc2cccnc21 (optimized conformer: 91.50353583854863 kcal/mol)

>  <smiles>  (33) 
N=c1[nH]cc(-c2cccc(S(N)(=O)=O)c2)nc1-n1ncc2cccnc21

>  <score_type>  (33) 
oracle

>  <origin>  (33) 
adgpu

>  <m_score__min__energy>  (33) 
-11.67

>  <m_primary>  (33) 
energy

$$$$
33:0
     RDKit          3D

 44 46  0  0  0  0  0  0  0  0999 V2000
   -5.6530   15.3480  -33.3940 C   0  0  0  0  0  0  0  0  0  0  0  0
   -5.7090   16.8430  -33.5190 C   0  0  0  0  0  0  0  0  0  0  0  0
   -4.8880   17.5060  -34.4410 C   0  0  0  0  0  0  0  0  0  0  0  0
   -4.9650   18.8930  -34.5800 C   0  0  0  0  0  0  0  0  0  0  0  0
   -5.8730   19.6280  -33.8140 C   0  0  0  0  0  0  0  0  0  0  0  0
   -6.7290   18.9810  -32.9030 C   0  0  0  0  0  0  0  0  0  0  0  0
   -7.6700   19.7570  -32.1090 N   0  0  2  0  0  0  0  0  0  0  0  0
   -8.8720   19.9510  -32.8920 C   0  0  0  0  0  0  0  0  0  0  0  0
   -9.8230   19.1870  -32.7920 O   0  0  0  0  0  0  0  0  0  0  0  0
   -7.1010   21.0030  -31.5920 C   0  0  0  0  0  0  0  0  0  0  0  0
   -7.8530   22.2000  -31.6180 C   0  0  0  0  0  0  0  0  0  0  0  0
   -7.2940   23.4130  -31.2060 C   0  0  0  0  0  0  0  0  0  0  0  0
   -5.9570   23.4730  -30.8040 C   0  0  0  0  0  0  0  0  0  0  0  0
   -5.2280   25.0060  -30.3360 S   0  0  0  0  0  0  0  0  0  0  0  0
   -5.7150   26.1230  -31.2170 O   0  0  0  0  0  0  0  0  0  0  0  0
   -5.6040   25.3090  -28.9130 O   0  0  0  0  0  0  0  0  0  0  0  0
   -3.5010   24.8980  -30.4580 N   0  0  0  0  0  0  0  0  0  0  0  0
   -2.6530   24.1840  -29.5490 C   0  0  0  0  0  0  0  0  0  0  0  0
   -2.5050   24.5680  -28.2020 C   0  0  0  0  0  0  0  0  0  0  0  0
   -1.6600   23.8470  -27.3530 C   0  0  0  0  0  0  0  0  0  0  0  0
   -0.9600   22.7390  -27.8360 C   0  0  0  0  0  0  0  0  0  0  0  0
   -1.1010   22.3510  -29.1720 C   0  0  0  0  0  0  0  0  0  0  0  0
   -1.9480   23.0700  -30.0230 C   0  0  0  0  0  0  0  0  0  0  0  0
   -5.1790   22.3130  -30.8230 C   0  0  0  0  0  0  0  0  0  0  0  0
   -5.7350   21.0970  -31.2290 C   0  0  0  0  0  0  0  0  0  0  0  0
   -6.6330   17.5790  -32.7600 C   0  0  0  0  0  0  0  0  0  0  0  0
   -5.6426   15.0692  -32.3300 H   0  0  0  0  0  0  0  0  0  0  0  0
   -6.5352   14.9061  -33.8802 H   0  0  0  0  0  0  0  0  0  0  0  0
   -4.7402   14.9733  -33.8802 H   0  0  0  0  0  0  0  0  0  0  0  0
   -4.1806   16.9317  -35.0572 H   0  0  0  0  0  0  0  0  0  0  0  0
   -4.3081   19.4091  -35.2956 H   0  0  0  0  0  0  0  0  0  0  0  0
   -5.9194   20.7215  -33.9237 H   0  0  0  0  0  0  0  0  0  0  0  0
   -7.9470   19.2010  -31.2650 H   0  0  0  0  0  0  0  0  0  0  0  0
   -8.9317   20.7999  -33.5890 H   0  0  0  0  0  0  0  0  0  0  0  0
   -8.8954   22.1763  -31.9683 H   0  0  0  0  0  0  0  0  0  0  0  0
   -7.9094   24.3247  -31.1982 H   0  0  0  0  0  0  0  0  0  0  0  0
   -3.0563   25.4384  -27.8166 H   0  0  0  0  0  0  0  0  0  0  0  0
   -1.5462   24.1529  -26.3025 H   0  0  0  0  0  0  0  0  0  0  0  0
   -0.2978   22.1717  -27.1654 H   0  0  0  0  0  0  0  0  0  0  0  0
   -0.5465   21.4811  -29.5539 H   0  0  0  0  0  0  0  0  0  0  0  0
   -2.0610   22.7581  -31.0718 H   0  0  0  0  0  0  0  0  0  0  0  0
   -4.1234   22.3570  -30.5168 H   0  0  0  0  0  0  0  0  0  0  0  0
   -5.1018   20.1984  -31.2673 H   0  0  0  0  0  0  0  0  0  0  0  0
   -7.2889   17.0584  -32.0467 H   0  0  0  0  0  0  0  0  0  0  0  0
  1  2  1  0
  2  3  2  0
  3  4  1  0
  4  5  2  0
  5  6  1  0
  6  7  1  0
  7  8  1  0
  8  9  2  0
  7 10  1  0
 10 11  2  0
 11 12  1  0
 12 13  2  0
 13 14  1  0
 14 15  2  0
 14 16  2  0
 14 17  1  0
 17 18  1  0
 18 19  2  0
 19 20  1  0
 20 21  2  0
 21 22  1  0
 22 23  2  0
 13 24  1  0
 24 25  2  0
  6 26  2  0
 26  2  1  0
 25 10  1  0
 23 18  1  0
  1 27  1  0
  1 28  1  0
  1 29  1  0
  3 30  1  0
  4 31  1  0
  5 32  1  0
  7 33  1  1
  8 34  1  0
 11 35  1  0
 12 36  1  0
 19 37  1  0
 20 38  1  0
 21 39  1  0
 22 40  1  0
 23 41  1  0
 24 42  1  0
 25 43  1  0
 26 44  1  0
M  CHG  2   7   1  17  -1
M  END
>  <UniqueID>  (34) 
33

>  <SMILES>  (34) 
Cc1cccc([N@H+](C=O)c2ccc(S(=O)(=O)[N-]c3ccccc3)cc2)c1

>  <Energy>  (34) 
61.4654215931448

>  <Genealogy>  (34) 
Cc1cccc([NH+](C=O)c2ccc(S(=O)(=O)[N-]c3ccccc3)cc2)c1 (protonated)
Cc1cccc([N@H+](C=O)c2ccc(S(=O)(=O)[N-]c3ccccc3)cc2)c1 (chirality)
Cc1cccc([N@H+](C=O)c2ccc(S(=O)(=O)[N-]c3ccccc3)cc2)c1 (3D coordinates assigned)
Cc1cccc([N@H+](C=O)c2ccc(S(=O)(=O)[N-]c3ccccc3)cc2)c1 (optimized conformer: 61.4654215931448 kcal/mol)

>  <smiles>  (34) 
Cc1cccc(N(C=O)c2ccc(S(=O)(=O)Nc3ccccc3)cc2)c1

>  <score_type>  (34) 
oracle

>  <origin>  (34) 
adgpu

>  <m_score__min__energy>  (34) 
-10.01

>  <m_primary>  (34) 
energy

$$$$
34:0
     RDKit          3D

 39 41  0  0  0  0  0  0  0  0999 V2000
   -3.1390   15.7890  -35.7360 N   0  0  0  0  0  0  0  0  0  0  0  0
   -3.4860   16.9770  -35.0180 C   0  0  0  0  0  0  0  0  0  0  0  0
   -2.4810   17.8170  -34.5190 C   0  0  0  0  0  0  0  0  0  0  0  0
   -2.8180   18.9790  -33.8180 C   0  0  0  0  0  0  0  0  0  0  0  0
   -4.1660   19.3190  -33.6050 C   0  0  0  0  0  0  0  0  0  0  0  0
   -4.5260   20.5530  -32.8610 C   0  0  0  0  0  0  0  0  0  0  0  0
   -5.8360   21.0640  -32.9150 C   0  0  0  0  0  0  0  0  0  0  0  0
   -6.1750   22.2230  -32.2120 C   0  0  0  0  0  0  0  0  0  0  0  0
   -5.2120   22.8890  -31.4440 C   0  0  0  0  0  0  0  0  0  0  0  0
   -5.6560   24.3370  -30.5460 S   0  0  0  0  0  0  0  0  0  0  0  0
   -5.1220   25.5690  -31.2220 O   0  0  0  0  0  0  0  0  0  0  0  0
   -7.1540   24.4250  -30.4830 O   0  0  0  0  0  0  0  0  0  0  0  0
   -5.0190   24.2540  -28.9330 N   0  0  0  0  0  0  0  0  0  0  0  0
   -3.8250   23.5300  -28.5800 C   0  0  0  0  0  0  0  0  0  0  0  0
   -3.8870   22.2840  -27.9250 C   0  0  0  0  0  0  0  0  0  0  0  0
   -2.7160   21.6010  -27.5870 C   0  0  0  0  0  0  0  0  0  0  0  0
   -1.4700   22.1460  -27.9020 C   0  0  0  0  0  0  0  0  0  0  0  0
   -1.3940   23.3750  -28.5590 C   0  0  0  0  0  0  0  0  0  0  0  0
   -2.5610   24.0670  -28.8990 C   0  0  0  0  0  0  0  0  0  0  0  0
   -2.4570   25.2930  -29.5480 O   0  0  0  0  0  0  0  0  0  0  0  0
   -3.9050   22.3910  -31.3900 C   0  0  0  0  0  0  0  0  0  0  0  0
   -3.5640   21.2320  -32.0920 C   0  0  0  0  0  0  0  0  0  0  0  0
   -5.1690   18.4710  -34.1090 C   0  0  0  0  0  0  0  0  0  0  0  0
   -4.8300   17.3100  -34.8110 C   0  0  0  0  0  0  0  0  0  0  0  0
   -2.8680   14.9180  -35.2270 H   0  0  0  0  0  0  0  0  0  0  0  0
   -3.1510   15.7720  -36.7790 H   0  0  0  0  0  0  0  0  0  0  0  0
   -1.4233   17.5612  -34.6794 H   0  0  0  0  0  0  0  0  0  0  0  0
   -2.0226   19.6323  -33.4301 H   0  0  0  0  0  0  0  0  0  0  0  0
   -6.5991   20.5470  -33.5153 H   0  0  0  0  0  0  0  0  0  0  0  0
   -7.2021   22.6136  -32.2621 H   0  0  0  0  0  0  0  0  0  0  0  0
   -5.5970   24.6910  -28.1810 H   0  0  0  0  0  0  0  0  0  0  0  0
   -4.8651   21.8456  -27.6778 H   0  0  0  0  0  0  0  0  0  0  0  0
   -2.7760   20.6312  -27.0713 H   0  0  0  0  0  0  0  0  0  0  0  0
   -0.5494   21.6075  -27.6328 H   0  0  0  0  0  0  0  0  0  0  0  0
   -0.4117   23.8014  -28.8106 H   0  0  0  0  0  0  0  0  0  0  0  0
   -3.1435   22.9140  -30.7927 H   0  0  0  0  0  0  0  0  0  0  0  0
   -2.5346   20.8475  -32.0428 H   0  0  0  0  0  0  0  0  0  0  0  0
   -6.2278   18.7231  -33.9497 H   0  0  0  0  0  0  0  0  0  0  0  0
   -5.6228   16.6555  -35.2023 H   0  0  0  0  0  0  0  0  0  0  0  0
  1  2  1  0
  2  3  2  0
  3  4  1  0
  4  5  2  0
  5  6  1  0
  6  7  2  0
  7  8  1  0
  8  9  2  0
  9 10  1  0
 10 11  2  0
 10 12  2  0
 10 13  1  0
 13 14  1  0
 14 15  2  0
 15 16  1  0
 16 17  2  0
 17 18  1  0
 18 19  2  0
 19 20  1  0
  9 21  1  0
 21 22  2  0
  5 23  1  0
 23 24  2  0
 24  2  1  0
 22  6  1  0
 19 14  1  0
  1 25  1  0
  1 26  1  0
  3 27  1  0
  4 28  1  0
  7 29  1  0
  8 30  1  0
 13 31  1  0
 15 32  1  0
 16 33  1  0
 17 34  1  0
 18 35  1  0
 21 36  1  0
 22 37  1  0
 23 38  1  0
 24 39  1  0
M  CHG  1  20  -1
M  END
>  <UniqueID>  (35) 
34

>  <SMILES>  (35) 
Nc1ccc(-c2ccc(S(=O)(=O)Nc3ccccc3[O-])cc2)cc1

>  <Energy>  (35) 
49.55904558075914

>  <Genealogy>  (35) 
Nc1ccc(-c2ccc(S(=O)(=O)Nc3ccccc3[O-])cc2)cc1 (protonated)
Nc1ccc(-c2ccc(S(=O)(=O)Nc3ccccc3[O-])cc2)cc1 (3D coordinates assigned)
Nc1ccc(-c2ccc(S(=O)(=O)Nc3ccccc3[O-])cc2)cc1 (optimized conformer: 49.55904558075914 kcal/mol)

>  <smiles>  (35) 
Nc1ccc(-c2ccc(S(=O)(=O)Nc3ccccc3O)cc2)cc1

>  <score_type>  (35) 
oracle

>  <origin>  (35) 
adgpu

>  <m_score__min__energy>  (35) 
-12.33

>  <m_primary>  (35) 
energy

$$$$
35:0
     RDKit          3D

 49 52  0  0  0  0  0  0  0  0999 V2000
   -9.8670   21.1950  -31.9770 C   0  0  0  0  0  0  0  0  0  0  0  0
   -8.4070   20.8970  -32.0680 C   0  0  0  0  0  0  0  0  0  0  0  0
   -7.5020   21.7720  -31.5590 N   0  0  0  0  0  0  0  0  0  0  0  0
   -6.1660   21.5150  -31.5910 C   0  0  0  0  0  0  0  0  0  0  0  0
   -5.2210   22.5040  -31.0120 C   0  0  0  0  0  0  0  0  0  0  0  0
   -5.6760   23.7200  -30.4640 C   0  0  0  0  0  0  0  0  0  0  0  0
   -4.7710   24.6350  -29.9170 C   0  0  0  0  0  0  0  0  0  0  0  0
   -3.4000   24.3600  -29.9110 C   0  0  0  0  0  0  0  0  0  0  0  0
   -2.5270   25.2990  -29.3410 O   0  0  0  0  0  0  0  0  0  0  0  0
   -1.7970   25.1160  -28.1580 C   0  0  0  0  0  0  0  0  0  0  0  0
   -2.3790   25.2910  -26.8880 C   0  0  0  0  0  0  0  0  0  0  0  0
   -1.6210   25.0820  -25.7310 C   0  0  0  0  0  0  0  0  0  0  0  0
   -0.2850   24.6850  -25.8330 C   0  0  0  0  0  0  0  0  0  0  0  0
    0.2930   24.4900  -27.0900 C   0  0  0  0  0  0  0  0  0  0  0  0
   -0.4640   24.6980  -28.2480 C   0  0  0  0  0  0  0  0  0  0  0  0
   -2.9420   23.1370  -30.4260 C   0  0  0  0  0  0  0  0  0  0  0  0
   -3.8440   22.2190  -30.9730 C   0  0  0  0  0  0  0  0  0  0  0  0
   -5.7200   20.3050  -32.1460 C   0  0  0  0  0  0  0  0  0  0  0  0
   -6.6630   19.4090  -32.6660 C   0  0  0  0  0  0  0  0  0  0  0  0
   -6.2570   18.1440  -33.2240 N   0  0  0  0  0  0  0  0  0  0  0  0
   -7.2350   17.0550  -33.3340 C   0  0  0  0  0  0  0  0  0  0  0  0
   -4.8520   17.8830  -33.4390 C   0  0  0  0  0  0  0  0  0  0  0  0
   -4.0220   18.8320  -34.0670 C   0  0  0  0  0  0  0  0  0  0  0  0
   -2.6630   18.5640  -34.2660 C   0  0  0  0  0  0  0  0  0  0  0  0
   -2.1180   17.3520  -33.8400 C   0  0  0  0  0  0  0  0  0  0  0  0
   -2.9290   16.4020  -33.2140 C   0  0  0  0  0  0  0  0  0  0  0  0
   -4.2870   16.6650  -33.0130 C   0  0  0  0  0  0  0  0  0  0  0  0
   -7.9850   19.7230  -32.6030 N   0  0  0  0  0  0  0  0  0  0  0  0
  -10.1636   21.2555  -30.9195 H   0  0  0  0  0  0  0  0  0  0  0  0
  -10.0769   22.1545  -32.4722 H   0  0  0  0  0  0  0  0  0  0  0  0
  -10.4362   20.3945  -32.4722 H   0  0  0  0  0  0  0  0  0  0  0  0
   -6.7514   23.9512  -30.4666 H   0  0  0  0  0  0  0  0  0  0  0  0
   -5.1404   25.5782  -29.4882 H   0  0  0  0  0  0  0  0  0  0  0  0
   -3.4335   25.5931  -26.8053 H   0  0  0  0  0  0  0  0  0  0  0  0
   -2.0766   25.2302  -24.7408 H   0  0  0  0  0  0  0  0  0  0  0  0
    0.3120   24.5259  -24.9229 H   0  0  0  0  0  0  0  0  0  0  0  0
    1.3433   24.1729  -27.1691 H   0  0  0  0  0  0  0  0  0  0  0  0
   -0.0088   24.5320  -29.2356 H   0  0  0  0  0  0  0  0  0  0  0  0
   -1.8683   22.8996  -30.3991 H   0  0  0  0  0  0  0  0  0  0  0  0
   -3.4733   21.2652  -31.3765 H   0  0  0  0  0  0  0  0  0  0  0  0
   -4.6470   20.0643  -32.1721 H   0  0  0  0  0  0  0  0  0  0  0  0
   -7.5312   16.7251  -32.3273 H   0  0  0  0  0  0  0  0  0  0  0  0
   -8.1216   17.4120  -33.8786 H   0  0  0  0  0  0  0  0  0  0  0  0
   -6.7851   16.2118  -33.8786 H   0  0  0  0  0  0  0  0  0  0  0  0
   -4.4449   19.7902  -34.4033 H   0  0  0  0  0  0  0  0  0  0  0  0
   -2.0229   19.3103  -34.7593 H   0  0  0  0  0  0  0  0  0  0  0  0
   -1.0492   17.1445  -33.9972 H   0  0  0  0  0  0  0  0  0  0  0  0
   -2.4986   15.4467  -32.8792 H   0  0  0  0  0  0  0  0  0  0  0  0
   -4.9202   15.9141  -32.5177 H   0  0  0  0  0  0  0  0  0  0  0  0
  1  2  1  0
  2  3  2  0
  3  4  1  0
  4  5  1  0
  5  6  2  0
  6  7  1  0
  7  8  2  0
  8  9  1  0
  9 10  1  0
 10 11  2  0
 11 12  1  0
 12 13  2  0
 13 14  1  0
 14 15  2  0
  8 16  1  0
 16 17  2  0
  4 18  2  0
 18 19  1  0
 19 20  1  0
 20 21  1  0
 20 22  1  0
 22 23  2  0
 23 24  1  0
 24 25  2  0
 25 26  1  0
 26 27  2  0
 19 28  2  0
 28  2  1  0
 17  5  1  0
 27 22  1  0
 15 10  1  0
  1 29  1  0
  1 30  1  0
  1 31  1  0
  6 32  1  0
  7 33  1  0
 11 34  1  0
 12 35  1  0
 13 36  1  0
 14 37  1  0
 15 38  1  0
 16 39  1  0
 17 40  1  0
 18 41  1  0
 21 42  1  0
 21 43  1  0
 21 44  1  0
 23 45  1  0
 24 46  1  0
 25 47  1  0
 26 48  1  0
 27 49  1  0
M  END
>  <UniqueID>  (36) 
35

>  <SMILES>  (36) 
Cc1nc(-c2ccc(Oc3ccccc3)cc2)cc(N(C)c2ccccc2)n1

>  <Energy>  (36) 
71.19336102619852

>  <Genealogy>  (36) 
Cc1nc(-c2ccc(Oc3ccccc3)cc2)cc(N(C)c2ccccc2)n1 (3D coordinates assigned)
Cc1nc(-c2ccc(Oc3ccccc3)cc2)cc(N(C)c2ccccc2)n1 (optimized conformer: 71.19336102619852 kcal/mol)

>  <smiles>  (36) 
Cc1nc(-c2ccc(Oc3ccccc3)cc2)cc(N(C)c2ccccc2)n1

>  <score_type>  (36) 
oracle

>  <origin>  (36) 
adgpu

>  <m_score__min__energy>  (36) 
-9.0299999999999994

>  <m_primary>  (36) 
energy

$$$$
36:0
     RDKit          3D

 45 47  0  0  0  0  0  0  0  0999 V2000
   -5.7410   25.1360  -28.9520 O   0  0  0  0  0  0  0  0  0  0  0  0
   -5.3110   24.9730  -30.3830 S   0  0  0  0  0  0  0  0  0  0  0  0
   -5.7130   26.1920  -31.1640 O   0  0  0  0  0  0  0  0  0  0  0  0
   -3.5880   24.7780  -30.4570 N   0  0  0  0  0  0  0  0  0  0  0  0
   -2.8920   23.7480  -29.7430 C   0  0  0  0  0  0  0  0  0  0  0  0
   -2.1500   22.8080  -30.4700 C   0  0  0  0  0  0  0  0  0  0  0  0
   -1.5300   21.7390  -29.8180 C   0  0  0  0  0  0  0  0  0  0  0  0
   -1.6320   21.6110  -28.4310 C   0  0  0  0  0  0  0  0  0  0  0  0
   -2.3380   22.5640  -27.6920 C   0  0  0  0  0  0  0  0  0  0  0  0
   -2.9580   23.6430  -28.3390 C   0  0  0  0  0  0  0  0  0  0  0  0
   -3.6180   24.6140  -27.5870 O   0  0  0  0  0  0  0  0  0  0  0  0
   -6.0660   23.5560  -31.1080 C   0  0  0  0  0  0  0  0  0  0  0  0
   -7.3750   23.6140  -31.6040 C   0  0  0  0  0  0  0  0  0  0  0  0
   -8.0350   22.4410  -31.9780 C   0  0  0  0  0  0  0  0  0  0  0  0
   -7.3910   21.2020  -31.8620 C   0  0  0  0  0  0  0  0  0  0  0  0
   -8.2770   19.7050  -32.1540 S   0  0  0  0  0  0  0  0  0  0  0  0
   -9.4940   20.0070  -32.9860 O   0  0  0  0  0  0  0  0  0  0  0  0
   -8.7380   19.1300  -30.8430 O   0  0  0  0  0  0  0  0  0  0  0  0
   -7.2790   18.5370  -32.9880 N   0  0  0  0  0  0  0  0  0  0  0  0
   -6.3380   19.2190  -33.8930 C   0  0  0  0  0  0  0  0  0  0  0  0
   -5.6360   18.1980  -34.8060 C   0  0  0  0  0  0  0  0  0  0  0  0
   -5.6060   16.7880  -34.1950 C   0  0  0  0  0  0  0  0  0  0  0  0
   -5.4430   16.8500  -32.6730 C   0  0  0  0  0  0  0  0  0  0  0  0
   -6.5530   17.6980  -32.0120 C   0  0  0  0  0  0  0  0  0  0  0  0
   -6.0600   21.1530  -31.4250 C   0  0  0  0  0  0  0  0  0  0  0  0
   -5.4020   22.3240  -31.0480 C   0  0  0  0  0  0  0  0  0  0  0  0
   -2.0549   22.9122  -31.5609 H   0  0  0  0  0  0  0  0  0  0  0  0
   -0.9609   20.9974  -30.3978 H   0  0  0  0  0  0  0  0  0  0  0  0
   -1.1568   20.7604  -27.9205 H   0  0  0  0  0  0  0  0  0  0  0  0
   -2.4078   22.4676  -26.5985 H   0  0  0  0  0  0  0  0  0  0  0  0
   -4.2360   25.2910  -28.0190 H   0  0  0  0  0  0  0  0  0  0  0  0
   -7.8838   24.5846  -31.6991 H   0  0  0  0  0  0  0  0  0  0  0  0
   -9.0636   22.4902  -32.3648 H   0  0  0  0  0  0  0  0  0  0  0  0
   -6.8901   19.9404  -34.5133 H   0  0  0  0  0  0  0  0  0  0  0  0
   -5.5791   19.7406  -33.2914 H   0  0  0  0  0  0  0  0  0  0  0  0
   -6.1717   18.1556  -35.7658 H   0  0  0  0  0  0  0  0  0  0  0  0
   -4.5951   18.5277  -34.9392 H   0  0  0  0  0  0  0  0  0  0  0  0
   -6.5476   16.2724  -34.4348 H   0  0  0  0  0  0  0  0  0  0  0  0
   -4.7486   16.2427  -34.6163 H   0  0  0  0  0  0  0  0  0  0  0  0
   -5.4866   15.8281  -32.2681 H   0  0  0  0  0  0  0  0  0  0  0  0
   -4.4742   17.3215  -32.4514 H   0  0  0  0  0  0  0  0  0  0  0  0
   -7.2709   17.0218  -31.5247 H   0  0  0  0  0  0  0  0  0  0  0  0
   -6.0732   18.3694  -31.2847 H   0  0  0  0  0  0  0  0  0  0  0  0
   -5.5329   20.1886  -31.3792 H   0  0  0  0  0  0  0  0  0  0  0  0
   -4.3586   22.2797  -30.7026 H   0  0  0  0  0  0  0  0  0  0  0  0
  1  2  2  0
  2  3  2  0
  2  4  1  0
  4  5  1  0
  5  6  2  0
  6  7  1  0
  7  8  2  0
  8  9  1  0
  9 10  2  0
 10 11  1  0
  2 12  1  0
 12 13  2  0
 13 14  1  0
 14 15  2  0
 15 16  1  0
 16 17  2  0
 16 18  2  0
 16 19  1  0
 19 20  1  0
 20 21  1  0
 21 22  1  0
 22 23  1  0
 23 24  1  0
 15 25  1  0
 25 26  2  0
 10  5  1  0
 26 12  1  0
 24 19  1  0
  6 27  1  0
  7 28  1  0
  8 29  1  0
  9 30  1  0
 11 31  1  0
 13 32  1  0
 14 33  1  0
 20 34  1  0
 20 35  1  0
 21 36  1  0
 21 37  1  0
 22 38  1  0
 22 39  1  0
 23 40  1  0
 23 41  1  0
 24 42  1  0
 24 43  1  0
 25 44  1  0
 26 45  1  0
M  CHG  1   4  -1
M  END
>  <UniqueID>  (37) 
36

>  <SMILES>  (37) 
O=S(=O)([N-]c1ccccc1O)c1ccc(S(=O)(=O)N2CCCCC2)cc1

>  <Energy>  (37) 
53.5169259758775

>  <Genealogy>  (37) 
O=S(=O)([N-]c1ccccc1O)c1ccc(S(=O)(=O)N2CCCCC2)cc1 (protonated)
O=S(=O)([N-]c1ccccc1O)c1ccc(S(=O)(=O)N2CCCCC2)cc1 (3D coordinates assigned)
O=S(=O)([N-]c1ccccc1O)c1ccc(S(=O)(=O)N2CCCCC2)cc1 (nonaromatic ring conformer: 53.5169259758775 kcal/mol)

>  <smiles>  (37) 
O=S(=O)(Nc1ccccc1O)c1ccc(S(=O)(=O)N2CCCCC2)cc1

>  <score_type>  (37) 
oracle

>  <origin>  (37) 
adgpu

>  <m_score__min__energy>  (37) 
-12.789999999999999

>  <m_primary>  (37) 
energy

$$$$
37:0
     RDKit          3D

 53 56  0  0  0  0  0  0  0  0999 V2000
   -6.7240   25.3520  -29.7530 C   0  0  0  0  0  0  0  0  0  0  0  0
   -6.7490   24.0130  -30.4320 C   0  0  0  0  0  0  0  0  0  0  0  0
   -6.2540   23.8720  -31.7370 C   0  0  0  0  0  0  0  0  0  0  0  0
   -6.3180   22.6340  -32.3830 C   0  0  0  0  0  0  0  0  0  0  0  0
   -6.9020   21.5320  -31.7480 C   0  0  0  0  0  0  0  0  0  0  0  0
   -6.9510   20.2760  -32.4430 N   0  0  0  0  0  0  0  0  0  0  0  0
   -6.0560   19.8420  -33.4760 C   0  0  0  0  0  0  0  0  0  0  0  0
   -6.5250   19.6130  -34.6220 O   0  0  0  0  0  0  0  0  0  0  0  0
   -4.6140   19.6050  -33.2200 C   0  0  0  0  0  0  0  0  0  0  0  0
   -3.7670   20.6810  -32.9090 C   0  0  0  0  0  0  0  0  0  0  0  0
   -2.4080   20.4660  -32.6620 C   0  0  0  0  0  0  0  0  0  0  0  0
   -1.8770   19.1660  -32.7120 C   0  0  0  0  0  0  0  0  0  0  0  0
   -0.5200   18.9060  -32.4670 O   0  0  0  0  0  0  0  0  0  0  0  0
    0.1090   18.9320  -31.2130 C   0  0  0  0  0  0  0  0  0  0  0  0
    1.1920   18.0740  -30.9940 C   0  0  0  0  0  0  0  0  0  0  0  0
    1.8370   18.0520  -29.7550 C   0  0  0  0  0  0  0  0  0  0  0  0
    1.3920   18.8740  -28.7180 C   0  0  0  0  0  0  0  0  0  0  0  0
    0.2870   19.7140  -28.9050 C   0  0  0  0  0  0  0  0  0  0  0  0
   -0.1300   20.5540  -27.8170 N   0  0  0  0  0  0  0  0  0  0  0  0
   -1.4480   21.0650  -27.5760 C   0  0  0  0  0  0  0  0  0  0  0  0
   -2.1290   20.5500  -26.6500 O   0  0  0  0  0  0  0  0  0  0  0  0
   -2.0530   22.1300  -28.4120 C   0  0  0  0  0  0  0  0  0  0  0  0
   -3.1460   21.8320  -29.2440 C   0  0  0  0  0  0  0  0  0  0  0  0
   -3.7200   22.8250  -30.0420 C   0  0  0  0  0  0  0  0  0  0  0  0
   -3.2140   24.1280  -30.0210 C   0  0  0  0  0  0  0  0  0  0  0  0
   -3.8120   25.1020  -30.8200 O   0  0  0  0  0  0  0  0  0  0  0  0
   -2.1140   24.4330  -29.2040 C   0  0  0  0  0  0  0  0  0  0  0  0
   -1.5900   25.7200  -29.1760 O   0  0  0  0  0  0  0  0  0  0  0  0
   -1.5330   23.4360  -28.4120 C   0  0  0  0  0  0  0  0  0  0  0  0
   -0.3450   19.7510  -30.1610 C   0  0  0  0  0  0  0  0  0  0  0  0
   -2.7090   18.1000  -33.0650 C   0  0  0  0  0  0  0  0  0  0  0  0
   -4.0650   18.3140  -33.3210 C   0  0  0  0  0  0  0  0  0  0  0  0
   -7.3900   21.6700  -30.4370 C   0  0  0  0  0  0  0  0  0  0  0  0
   -7.3260   22.9080  -29.7910 C   0  0  0  0  0  0  0  0  0  0  0  0
   -6.7266   25.2101  -28.6622 H   0  0  0  0  0  0  0  0  0  0  0  0
   -5.8155   25.8967  -30.0497 H   0  0  0  0  0  0  0  0  0  0  0  0
   -7.6115   25.9302  -30.0497 H   0  0  0  0  0  0  0  0  0  0  0  0
   -5.8143   24.7380  -32.2534 H   0  0  0  0  0  0  0  0  0  0  0  0
   -5.9066   22.5252  -33.3973 H   0  0  0  0  0  0  0  0  0  0  0  0
   -4.1761   21.7009  -32.8594 H   0  0  0  0  0  0  0  0  0  0  0  0
   -1.7521   21.3174  -32.4277 H   0  0  0  0  0  0  0  0  0  0  0  0
    1.5378   17.4127  -31.8022 H   0  0  0  0  0  0  0  0  0  0  0  0
    2.6975   17.3855  -29.5961 H   0  0  0  0  0  0  0  0  0  0  0  0
    1.9121   18.8619  -27.7488 H   0  0  0  0  0  0  0  0  0  0  0  0
   -3.5523   20.8100  -29.2670 H   0  0  0  0  0  0  0  0  0  0  0  0
   -4.5744   22.5802  -30.6901 H   0  0  0  0  0  0  0  0  0  0  0  0
   -3.4900   26.0630  -30.8290 H   0  0  0  0  0  0  0  0  0  0  0  0
   -0.6622   23.6764  -27.7843 H   0  0  0  0  0  0  0  0  0  0  0  0
   -1.1997   20.4242  -30.3227 H   0  0  0  0  0  0  0  0  0  0  0  0
   -2.2926   17.0848  -33.1418 H   0  0  0  0  0  0  0  0  0  0  0  0
   -4.7080   17.4674  -33.6035 H   0  0  0  0  0  0  0  0  0  0  0  0
   -7.8231   20.8020  -29.9184 H   0  0  0  0  0  0  0  0  0  0  0  0
   -7.7307   23.0157  -28.7738 H   0  0  0  0  0  0  0  0  0  0  0  0
  1  2  1  0
  2  3  2  0
  3  4  1  0
  4  5  2  0
  5  6  1  0
  6  7  1  0
  7  8  2  0
  7  9  1  0
  9 10  2  0
 10 11  1  0
 11 12  2  0
 12 13  1  0
 13 14  1  0
 14 15  2  0
 15 16  1  0
 16 17  2  0
 17 18  1  0
 18 19  1  0
 19 20  1  0
 20 21  2  0
 20 22  1  0
 22 23  2  0
 23 24  1  0
 24 25  2  0
 25 26  1  0
 25 27  1  0
 27 28  1  0
 27 29  2  0
 18 30  2  0
 12 31  1  0
 31 32  2  0
  5 33  1  0
 33 34  2  0
 34  2  1  0
 32  9  1  0
 30 14  1  0
 29 22  1  0
  1 35  1  0
  1 36  1  0
  1 37  1  0
  3 38  1  0
  4 39  1  0
 10 40  1  0
 11 41  1  0
 15 42  1  0
 16 43  1  0
 17 44  1  0
 23 45  1  0
 24 46  1  0
 26 47  1  0
 29 48  1  0
 30 49  1  0
 31 50  1  0
 32 51  1  0
 33 52  1  0
 34 53  1  0
M  CHG  3   6  -1  19  -1  28  -1
M  END
>  <UniqueID>  (38) 
37

>  <SMILES>  (38) 
Cc1ccc([N-]C(=O)c2ccc(Oc3cccc([N-]C(=O)c4ccc(O)c([O-])c4)c3)cc2)cc1

>  <Energy>  (38) 
75.09378642916091

>  <Genealogy>  (38) 
Cc1ccc([N-]C(=O)c2ccc(Oc3cccc([N-]C(=O)c4ccc(O)c([O-])c4)c3)cc2)cc1 (protonated)
Cc1ccc([N-]C(=O)c2ccc(Oc3cccc([N-]C(=O)c4ccc(O)c([O-])c4)c3)cc2)cc1 (3D coordinates assigned)
Cc1ccc([N-]C(=O)c2ccc(Oc3cccc([N-]C(=O)c4ccc(O)c([O-])c4)c3)cc2)cc1 (optimized conformer: 75.09378642916091 kcal/mol)

>  <smiles>  (38) 
Cc1ccc(NC(=O)c2ccc(Oc3cccc(NC(=O)c4ccc(O)c(O)c4)c3)cc2)cc1

>  <score_type>  (38) 
oracle

>  <origin>  (38) 
adgpu

>  <m_score__min__energy>  (38) 
-13.369999999999999

>  <m_primary>  (38) 
energy

$$$$
38:0
     RDKit          3D

 40 42  0  0  0  0  0  0  0  0999 V2000
   -3.2930   23.7490  -29.6540 O   0  0  0  0  0  0  0  0  0  0  0  0
   -4.1420   24.3730  -30.3430 C   0  0  0  0  0  0  0  0  0  0  0  0
   -3.8580   25.6730  -30.7460 O   0  0  0  0  0  0  0  0  0  0  0  0
   -5.4230   23.7340  -30.7190 C   0  0  0  0  0  0  0  0  0  0  0  0
   -5.9880   23.9540  -31.9870 C   0  0  0  0  0  0  0  0  0  0  0  0
   -7.1990   23.3490  -32.3380 C   0  0  0  0  0  0  0  0  0  0  0  0
   -7.8700   22.5230  -31.4240 C   0  0  0  0  0  0  0  0  0  0  0  0
   -9.1760   21.8710  -31.7950 C   0  0  0  0  0  0  0  0  0  0  0  0
   -9.0900   20.4170  -31.6430 N   0  0  0  0  0  0  0  0  0  0  0  0
   -8.0440   19.6010  -32.2040 C   0  0  0  0  0  0  0  0  0  0  0  0
   -7.7510   18.3180  -31.7040 C   0  0  0  0  0  0  0  0  0  0  0  0
   -6.7200   17.5580  -32.2650 C   0  0  0  0  0  0  0  0  0  0  0  0
   -5.9610   18.0680  -33.3310 C   0  0  0  0  0  0  0  0  0  0  0  0
   -4.9280   17.3290  -33.9250 O   0  0  0  0  0  0  0  0  0  0  0  0
   -3.6020   17.7630  -34.0790 C   0  0  0  0  0  0  0  0  0  0  0  0
   -2.6290   16.9710  -34.7190 C   0  0  0  0  0  0  0  0  0  0  0  0
   -1.3150   17.4340  -34.8380 C   0  0  0  0  0  0  0  0  0  0  0  0
   -0.9600   18.6790  -34.3130 C   0  0  0  0  0  0  0  0  0  0  0  0
   -1.9170   19.4620  -33.6590 C   0  0  0  0  0  0  0  0  0  0  0  0
   -1.4270   21.1560  -32.9290 Br  0  0  0  0  0  0  0  0  0  0  0  0
   -3.2330   19.0000  -33.5380 C   0  0  0  0  0  0  0  0  0  0  0  0
   -6.2710   19.3290  -33.8490 C   0  0  0  0  0  0  0  0  0  0  0  0
   -7.3000   20.0920  -33.2890 C   0  0  0  0  0  0  0  0  0  0  0  0
   -7.3010   22.2920  -30.1620 C   0  0  0  0  0  0  0  0  0  0  0  0
   -6.0900   22.8950  -29.8100 C   0  0  0  0  0  0  0  0  0  0  0  0
   -5.4741   24.6065  -32.7082 H   0  0  0  0  0  0  0  0  0  0  0  0
   -7.6277   23.5218  -33.3362 H   0  0  0  0  0  0  0  0  0  0  0  0
   -9.9710   22.2562  -31.1396 H   0  0  0  0  0  0  0  0  0  0  0  0
   -9.4017   22.1041  -32.8461 H   0  0  0  0  0  0  0  0  0  0  0  0
   -9.8750   19.9440  -31.1400 H   0  0  0  0  0  0  0  0  0  0  0  0
   -8.3368   17.9108  -30.8667 H   0  0  0  0  0  0  0  0  0  0  0  0
   -6.5022   16.5551  -31.8692 H   0  0  0  0  0  0  0  0  0  0  0  0
   -2.9032   15.9865  -35.1259 H   0  0  0  0  0  0  0  0  0  0  0  0
   -0.5594   16.8168  -35.3460 H   0  0  0  0  0  0  0  0  0  0  0  0
    0.0728   19.0438  -34.4140 H   0  0  0  0  0  0  0  0  0  0  0  0
   -3.9816   19.6129  -33.0146 H   0  0  0  0  0  0  0  0  0  0  0  0
   -5.7013   19.7236  -34.7032 H   0  0  0  0  0  0  0  0  0  0  0  0
   -7.5288   21.0856  -33.7019 H   0  0  0  0  0  0  0  0  0  0  0  0
   -7.8114   21.6320  -29.4451 H   0  0  0  0  0  0  0  0  0  0  0  0
   -5.6566   22.7118  -28.8157 H   0  0  0  0  0  0  0  0  0  0  0  0
  1  2  2  0
  2  3  1  0
  2  4  1  0
  4  5  2  0
  5  6  1  0
  6  7  2  0
  7  8  1  0
  8  9  1  0
  9 10  1  0
 10 11  2  0
 11 12  1  0
 12 13  2  0
 13 14  1  0
 14 15  1  0
 15 16  2  0
 16 17  1  0
 17 18  2  0
 18 19  1  0
 19 20  1  0
 19 21  2  0
 13 22  1  0
 22 23  2  0
  7 24  1  0
 24 25  2  0
 25  4  1  0
 23 10  1  0
 21 15  1  0
  5 26  1  0
  6 27  1  0
  8 28  1  0
  8 29  1  0
  9 30  1  0
 11 31  1  0
 12 32  1  0
 16 33  1  0
 17 34  1  0
 18 35  1  0
 21 36  1  0
 22 37  1  0
 23 38  1  0
 24 39  1  0
 25 40  1  0
M  CHG  1   3  -1
M  END
>  <UniqueID>  (39) 
38

>  <SMILES>  (39) 
O=C([O-])c1ccc(CNc2ccc(Oc3cccc(Br)c3)cc2)cc1

>  <Energy>  (39) 
48.85130702192311

>  <Genealogy>  (39) 
O=C([O-])c1ccc(CNc2ccc(Oc3cccc(Br)c3)cc2)cc1 (protonated)
O=C([O-])c1ccc(CNc2ccc(Oc3cccc(Br)c3)cc2)cc1 (3D coordinates assigned)
O=C([O-])c1ccc(CNc2ccc(Oc3cccc(Br)c3)cc2)cc1 (optimized conformer: 48.85130702192311 kcal/mol)

>  <smiles>  (39) 
O=C(O)c1ccc(CNc2ccc(Oc3cccc(Br)c3)cc2)cc1

>  <score_type>  (39) 
oracle

>  <origin>  (39) 
adgpu

>  <m_score__min__energy>  (39) 
-10.59

>  <m_primary>  (39) 
energy

$$$$
39:0
     RDKit          3D

 38 40  0  0  0  0  0  0  0  0999 V2000
   -5.4000   17.5270  -35.0040 H   0  0  0  0  0  0  0  0  0  0  0  0
   -6.1980   18.0550  -34.5950 N   0  0  0  0  0  0  0  0  0  0  0  0
   -6.1000   19.1160  -33.8520 C   0  0  0  0  0  0  0  0  0  0  0  0
   -4.8460   19.6790  -33.4950 C   0  0  0  0  0  0  0  0  0  0  0  0
   -3.5420   19.0480  -33.8120 C   0  0  0  0  0  0  0  0  0  0  0  0
   -2.3490   19.6490  -33.6240 N   0  0  0  0  0  0  0  0  0  0  0  0
   -1.4250   18.7710  -33.9830 N   0  0  0  0  0  0  0  0  0  0  0  0
   -2.0880   17.6680  -34.3740 C   0  0  0  0  0  0  0  0  0  0  0  0
   -1.4280   16.4140  -34.8350 C   0  0  0  0  0  0  0  0  0  0  0  0
   -1.1162   15.8215  -33.9622 H   0  0  0  0  0  0  0  0  0  0  0  0
   -2.1351   15.8291  -35.4415 H   0  0  0  0  0  0  0  0  0  0  0  0
   -0.5455   16.6657  -35.4415 H   0  0  0  0  0  0  0  0  0  0  0  0
   -3.3850   17.8260  -34.2630 O   0  0  0  0  0  0  0  0  0  0  0  0
   -4.8380   20.8860  -32.7770 C   0  0  0  0  0  0  0  0  0  0  0  0
   -3.8779   21.3556  -32.5169 H   0  0  0  0  0  0  0  0  0  0  0  0
   -6.0360   21.5010  -32.3870 C   0  0  0  0  0  0  0  0  0  0  0  0
   -6.0240   22.7700  -31.6140 C   0  0  0  0  0  0  0  0  0  0  0  0
   -7.2290   23.3530  -31.1840 C   0  0  0  0  0  0  0  0  0  0  0  0
   -8.1870   22.8667  -31.4203 H   0  0  0  0  0  0  0  0  0  0  0  0
   -7.2160   24.5470  -30.4580 C   0  0  0  0  0  0  0  0  0  0  0  0
   -8.1634   24.9966  -30.1257 H   0  0  0  0  0  0  0  0  0  0  0  0
   -6.0060   25.1710  -30.1530 C   0  0  0  0  0  0  0  0  0  0  0  0
   -6.0044   26.1103  -29.5806 H   0  0  0  0  0  0  0  0  0  0  0  0
   -4.7940   24.6090  -30.5710 C   0  0  0  0  0  0  0  0  0  0  0  0
   -3.5740   25.2840  -30.2350 N   0  0  0  0  0  0  0  0  0  0  0  0
   -2.3390   24.6560  -29.1930 S   0  0  0  0  0  0  0  0  0  0  0  0
   -1.7230   23.4320  -29.8100 O   0  0  0  0  0  0  0  0  0  0  0  0
   -1.2830   25.7020  -28.9640 O   0  0  0  0  0  0  0  0  0  0  0  0
   -3.0690   24.2180  -27.6330 C   0  0  0  0  0  0  0  0  0  0  0  0
   -2.4390   24.5960  -26.8143 H   0  0  0  0  0  0  0  0  0  0  0  0
   -4.0720   24.6636  -27.5595 H   0  0  0  0  0  0  0  0  0  0  0  0
   -3.1478   23.1233  -27.5595 H   0  0  0  0  0  0  0  0  0  0  0  0
   -4.8070   23.4060  -31.3010 C   0  0  0  0  0  0  0  0  0  0  0  0
   -3.8578   22.9582  -31.6302 H   0  0  0  0  0  0  0  0  0  0  0  0
   -7.2440   20.8860  -32.7350 C   0  0  0  0  0  0  0  0  0  0  0  0
   -8.1969   21.3434  -32.4302 H   0  0  0  0  0  0  0  0  0  0  0  0
   -7.2490   19.7290  -33.4460 N   0  0  0  0  0  0  0  0  0  0  0  0
   -8.1730   19.3100  -33.6990 H   0  0  0  0  0  0  0  0  0  0  0  0
  1  2  1  0
  2  3  2  0
  3  4  1  0
  4  5  1  0
  5  6  2  0
  6  7  1  0
  7  8  2  0
  8  9  1  0
  9 10  1  0
  9 11  1  0
  9 12  1  0
  8 13  1  0
  4 14  2  0
 14 15  1  0
 14 16  1  0
 16 17  1  0
 17 18  2  0
 18 19  1  0
 18 20  1  0
 20 21  1  0
 20 22  2  0
 22 23  1  0
 22 24  1  0
 24 25  1  0
 25 26  1  0
 26 27  2  0
 26 28  2  0
 26 29  1  0
 29 30  1  0
 29 31  1  0
 29 32  1  0
 24 33  2  0
 33 34  1  0
 16 35  2  0
 35 36  1  0
 35 37  1  0
 37 38  1  0
 37  3  1  0
 13  5  1  0
 33 17  1  0
M  CHG  1  25  -1
M  END
>  <UniqueID>  (40) 
39

>  <SMILES>  (40) 
[H]/N=c1/[nH]cc(-c2cccc([N-]S(C)(=O)=O)c2)cc1-c1nnc(C)o1

>  <Energy>  (40) 
84.0700490712861

>  <Genealogy>  (40) 
Cc1nnc(-c2cc(-c3cccc([N-]S(C)(=O)=O)c3)c[nH]c2=N)o1 (protonated)
[H]/N=c1/[nH]cc(-c2cccc([N-]S(C)(=O)=O)c2)cc1-c1nnc(C)o1 (cis-trans isomerization)
[H]/N=c1/[nH]cc(-c2cccc([N-]S(C)(=O)=O)c2)cc1-c1nnc(C)o1 (3D coordinates assigned)
[H]/N=c1/[nH]cc(-c2cccc([N-]S(C)(=O)=O)c2)cc1-c1nnc(C)o1 (optimized conformer: 84.0700490712861 kcal/mol)

>  <smiles>  (40) 
Cc1nnc(-c2cc(-c3cccc(NS(C)(=O)=O)c3)c[nH]c2=N)o1

>  <score_type>  (40) 
oracle

>  <origin>  (40) 
adgpu

>  <m_score__min__energy>  (40) 
-10.19

>  <m_primary>  (40) 
energy

$$$$
40:0
     RDKit          3D

 52 55  0  0  0  0  0  0  0  0999 V2000
   -4.8340   24.4430  -28.4970 N   0  0  0  0  0  0  0  0  0  0  0  0
   -5.3740   24.9770  -30.0500 S   0  0  0  0  0  0  0  0  0  0  0  0
   -4.2440   25.6570  -30.7700 O   0  0  0  0  0  0  0  0  0  0  0  0
   -6.4960   25.9620  -29.8750 O   0  0  0  0  0  0  0  0  0  0  0  0
   -5.9240   23.5940  -30.9900 C   0  0  0  0  0  0  0  0  0  0  0  0
   -7.2130   23.0790  -30.8110 C   0  0  0  0  0  0  0  0  0  0  0  0
   -7.6370   21.9780  -31.5550 C   0  0  0  0  0  0  0  0  0  0  0  0
   -6.7820   21.3760  -32.4860 C   0  0  0  0  0  0  0  0  0  0  0  0
   -7.2490   20.2420  -33.2270 N   0  0  0  0  0  0  0  0  0  0  0  0
   -6.7470   18.9080  -33.0340 C   0  0  0  0  0  0  0  0  0  0  0  0
   -6.6100   18.4060  -31.7310 C   0  0  0  0  0  0  0  0  0  0  0  0
   -6.1230   17.1140  -31.5150 C   0  0  0  0  0  0  0  0  0  0  0  0
   -5.7570   16.3040  -32.6030 C   0  0  0  0  0  0  0  0  0  0  0  0
   -5.2750   14.9980  -32.4270 O   0  0  0  0  0  0  0  0  0  0  0  0
   -3.9230   14.6300  -32.3870 C   0  0  0  0  0  0  0  0  0  0  0  0
   -2.9900   15.4150  -33.0770 C   0  0  0  0  0  0  0  0  0  0  0  0
   -1.6300   15.0880  -33.0470 C   0  0  0  0  0  0  0  0  0  0  0  0
   -1.1920   13.9800  -32.3160 C   0  0  0  0  0  0  0  0  0  0  0  0
   -2.1130   13.2010  -31.6090 C   0  0  0  0  0  0  0  0  0  0  0  0
   -3.4730   13.5260  -31.6380 C   0  0  0  0  0  0  0  0  0  0  0  0
   -5.9210   16.7900  -33.9040 C   0  0  0  0  0  0  0  0  0  0  0  0
   -6.4070   18.0820  -34.1230 C   0  0  0  0  0  0  0  0  0  0  0  0
   -5.4630   21.8560  -32.6370 C   0  0  0  0  0  0  0  0  0  0  0  0
   -4.5490   21.2120  -33.5460 N   0  0  0  0  0  0  0  0  0  0  0  0
   -3.4470   20.3880  -33.1290 C   0  0  0  0  0  0  0  0  0  0  0  0
   -2.6940   20.7590  -32.0040 C   0  0  0  0  0  0  0  0  0  0  0  0
   -1.6050   19.9840  -31.5940 C   0  0  0  0  0  0  0  0  0  0  0  0
   -1.2490   18.8400  -32.3140 C   0  0  0  0  0  0  0  0  0  0  0  0
   -1.9780   18.4730  -33.4480 C   0  0  0  0  0  0  0  0  0  0  0  0
   -3.0690   19.2460  -33.8600 C   0  0  0  0  0  0  0  0  0  0  0  0
   -5.0550   22.9820  -31.9010 C   0  0  0  0  0  0  0  0  0  0  0  0
   -4.4950   25.2880  -27.9850 H   0  0  0  0  0  0  0  0  0  0  0  0
   -5.6760   24.0970  -27.9850 H   0  0  0  0  0  0  0  0  0  0  0  0
   -7.8932   23.5435  -30.0820 H   0  0  0  0  0  0  0  0  0  0  0  0
   -8.6518   21.5793  -31.4090 H   0  0  0  0  0  0  0  0  0  0  0  0
   -7.8930   20.4260  -34.0300 H   0  0  0  0  0  0  0  0  0  0  0  0
   -6.8882   19.0346  -30.8723 H   0  0  0  0  0  0  0  0  0  0  0  0
   -6.0258   16.7297  -30.4889 H   0  0  0  0  0  0  0  0  0  0  0  0
   -3.3287   16.2936  -33.6457 H   0  0  0  0  0  0  0  0  0  0  0  0
   -0.9046   15.7035  -33.5993 H   0  0  0  0  0  0  0  0  0  0  0  0
   -0.1231   13.7210  -32.2970 H   0  0  0  0  0  0  0  0  0  0  0  0
   -1.7677   12.3320  -31.0296 H   0  0  0  0  0  0  0  0  0  0  0  0
   -4.1940   12.9166  -31.0733 H   0  0  0  0  0  0  0  0  0  0  0  0
   -5.6655   16.1504  -34.7617 H   0  0  0  0  0  0  0  0  0  0  0  0
   -6.5245   18.4556  -35.1509 H   0  0  0  0  0  0  0  0  0  0  0  0
   -4.6780   21.3600  -34.5710 H   0  0  0  0  0  0  0  0  0  0  0  0
   -2.9624   21.6653  -31.4414 H   0  0  0  0  0  0  0  0  0  0  0  0
   -1.0278   20.2748  -30.7039 H   0  0  0  0  0  0  0  0  0  0  0  0
   -0.3948   18.2286  -31.9877 H   0  0  0  0  0  0  0  0  0  0  0  0
   -1.6940   17.5757  -34.0173 H   0  0  0  0  0  0  0  0  0  0  0  0
   -3.6340   18.9600  -34.7594 H   0  0  0  0  0  0  0  0  0  0  0  0
   -4.0419   23.3866  -32.0424 H   0  0  0  0  0  0  0  0  0  0  0  0
  1  2  1  0
  2  3  2  0
  2  4  2  0
  2  5  1  0
  5  6  2  0
  6  7  1  0
  7  8  2  0
  8  9  1  0
  9 10  1  0
 10 11  2  0
 11 12  1  0
 12 13  2  0
 13 14  1  0
 14 15  1  0
 15 16  2  0
 16 17  1  0
 17 18  2  0
 18 19  1  0
 19 20  2  0
 13 21  1  0
 21 22  2  0
  8 23  1  0
 23 24  1  0
 24 25  1  0
 25 26  2  0
 26 27  1  0
 27 28  2  0
 28 29  1  0
 29 30  2  0
 23 31  2  0
 31  5  1  0
 22 10  1  0
 30 25  1  0
 20 15  1  0
  1 32  1  0
  1 33  1  0
  6 34  1  0
  7 35  1  0
  9 36  1  0
 11 37  1  0
 12 38  1  0
 16 39  1  0
 17 40  1  0
 18 41  1  0
 19 42  1  0
 20 43  1  0
 21 44  1  0
 22 45  1  0
 24 46  1  0
 26 47  1  0
 27 48  1  0
 28 49  1  0
 29 50  1  0
 30 51  1  0
 31 52  1  0
M  END
>  <UniqueID>  (41) 
40

>  <SMILES>  (41) 
NS(=O)(=O)c1ccc(Nc2ccc(Oc3ccccc3)cc2)c(Nc2ccccc2)c1

>  <Energy>  (41) 
74.80704341639219

>  <Genealogy>  (41) 
NS(=O)(=O)c1ccc(Nc2ccc(Oc3ccccc3)cc2)c(Nc2ccccc2)c1 (3D coordinates assigned)
NS(=O)(=O)c1ccc(Nc2ccc(Oc3ccccc3)cc2)c(Nc2ccccc2)c1 (optimized conformer: 74.80704341639219 kcal/mol)

>  <smiles>  (41) 
NS(=O)(=O)c1ccc(Nc2ccc(Oc3ccccc3)cc2)c(Nc2ccccc2)c1

>  <score_type>  (41) 
oracle

>  <origin>  (41) 
adgpu

>  <m_score__min__energy>  (41) 
-10.16

>  <m_primary>  (41) 
energy

$$$$
41:0
     RDKit          3D

 28 30  0  0  0  0  0  0  0  0999 V2000
   -2.6020   20.7890  -32.9460 O   0  0  0  0  0  0  0  0  0  0  0  0
   -3.7640   20.4840  -32.5650 C   0  0  0  0  0  0  0  0  0  0  0  0
   -4.3760   19.4480  -33.1310 O   0  0  0  0  0  0  0  0  0  0  0  0
   -5.6090   19.0740  -32.8080 C   0  0  0  0  0  0  0  0  0  0  0  0
   -6.1940   17.9730  -33.4420 C   0  0  0  0  0  0  0  0  0  0  0  0
   -7.4930   17.5770  -33.1040 C   0  0  0  0  0  0  0  0  0  0  0  0
   -8.2160   18.2810  -32.1340 C   0  0  0  0  0  0  0  0  0  0  0  0
   -9.5080   17.8730  -31.8120 O   0  0  0  0  0  0  0  0  0  0  0  0
   -7.6360   19.3870  -31.4940 C   0  0  0  0  0  0  0  0  0  0  0  0
   -6.3330   19.7860  -31.8300 C   0  0  0  0  0  0  0  0  0  0  0  0
   -5.7220   20.8800  -31.2120 C   0  0  0  0  0  0  0  0  0  0  0  0
   -4.4160   21.2430  -31.5690 C   0  0  0  0  0  0  0  0  0  0  0  0
   -3.7600   22.3990  -30.9070 C   0  0  0  0  0  0  0  0  0  0  0  0
   -2.5620   22.2190  -30.1920 C   0  0  0  0  0  0  0  0  0  0  0  0
   -1.9370   23.3060  -29.5740 C   0  0  0  0  0  0  0  0  0  0  0  0
   -2.4960   24.5830  -29.6680 C   0  0  0  0  0  0  0  0  0  0  0  0
   -1.8690   25.6600  -29.0500 O   0  0  0  0  0  0  0  0  0  0  0  0
   -3.6830   24.7760  -30.3840 C   0  0  0  0  0  0  0  0  0  0  0  0
   -4.2400   26.0450  -30.4860 O   0  0  0  0  0  0  0  0  0  0  0  0
   -4.3110   23.6880  -31.0020 C   0  0  0  0  0  0  0  0  0  0  0  0
   -5.6322   17.4176  -34.2074 H   0  0  0  0  0  0  0  0  0  0  0  0
   -7.9479   16.7086  -33.6029 H   0  0  0  0  0  0  0  0  0  0  0  0
   -9.7560   17.5960  -30.8680 H   0  0  0  0  0  0  0  0  0  0  0  0
   -8.2018   19.9405  -30.7301 H   0  0  0  0  0  0  0  0  0  0  0  0
   -6.2645   21.4551  -30.4472 H   0  0  0  0  0  0  0  0  0  0  0  0
   -2.1143   21.2169  -30.1188 H   0  0  0  0  0  0  0  0  0  0  0  0
   -1.0031   23.1556  -29.0125 H   0  0  0  0  0  0  0  0  0  0  0  0
   -5.2425   23.8434  -31.5660 H   0  0  0  0  0  0  0  0  0  0  0  0
  1  2  2  0
  2  3  1  0
  3  4  1  0
  4  5  2  0
  5  6  1  0
  6  7  2  0
  7  8  1  0
  7  9  1  0
  9 10  2  0
 10 11  1  0
 11 12  2  0
 12 13  1  0
 13 14  2  0
 14 15  1  0
 15 16  2  0
 16 17  1  0
 16 18  1  0
 18 19  1  0
 18 20  2  0
 12  2  1  0
 20 13  1  0
 10  4  1  0
  5 21  1  0
  6 22  1  0
  8 23  1  0
  9 24  1  0
 11 25  1  0
 14 26  1  0
 15 27  1  0
 20 28  1  0
M  CHG  2  17  -1  19  -1
M  END
>  <UniqueID>  (42) 
41

>  <SMILES>  (42) 
O=c1oc2ccc(O)cc2cc1-c1ccc([O-])c([O-])c1

>  <Energy>  (42) 
41.85432820973566

>  <Genealogy>  (42) 
O=c1oc2ccc(O)cc2cc1-c1ccc([O-])c([O-])c1 (protonated)
O=c1oc2ccc(O)cc2cc1-c1ccc([O-])c([O-])c1 (3D coordinates assigned)
O=c1oc2ccc(O)cc2cc1-c1ccc([O-])c([O-])c1 (optimized conformer: 41.85432820973566 kcal/mol)

>  <smiles>  (42) 
O=c1oc2ccc(O)cc2cc1-c1ccc(O)c(O)c1

>  <score_type>  (42) 
oracle

>  <origin>  (42) 
adgpu

>  <m_score__min__energy>  (42) 
-11.76

>  <m_primary>  (42) 
energy

$$$$
42:0
     RDKit          3D

 44 47  0  0  0  0  0  0  0  0999 V2000
   -0.6660   22.7800  -26.3010 C   0  0  0  0  0  0  0  0  0  0  0  0
   -0.8710   24.1500  -25.7050 C   0  0  0  0  0  0  0  0  0  0  0  0
   -0.2700   24.4340  -24.4650 C   0  0  0  0  0  0  0  0  0  0  0  0
   -0.3980   25.6950  -23.8830 C   0  0  0  0  0  0  0  0  0  0  0  0
   -1.1270   26.6900  -24.5280 C   0  0  0  0  0  0  0  0  0  0  0  0
   -1.7410   26.4270  -25.7530 C   0  0  0  0  0  0  0  0  0  0  0  0
   -1.6380   25.1570  -26.3550 C   0  0  0  0  0  0  0  0  0  0  0  0
   -2.3440   24.9360  -27.6460 C   0  0  0  0  0  0  0  0  0  0  0  0
   -1.8810   25.3260  -28.8500 N   0  0  0  0  0  0  0  0  0  0  0  0
   -2.7670   24.9130  -29.7050 O   0  0  0  0  0  0  0  0  0  0  0  0
   -3.7330   24.2910  -29.0760 C   0  0  0  0  0  0  0  0  0  0  0  0
   -4.9060   23.6880  -29.7380 C   0  0  0  0  0  0  0  0  0  0  0  0
   -6.1460   24.3460  -29.7140 C   0  0  0  0  0  0  0  0  0  0  0  0
   -7.2590   23.7810  -30.3450 C   0  0  0  0  0  0  0  0  0  0  0  0
   -7.1460   22.5490  -31.0020 C   0  0  0  0  0  0  0  0  0  0  0  0
   -8.5400   21.8170  -31.7910 S   0  0  0  0  0  0  0  0  0  0  0  0
   -9.4070   22.9080  -32.3510 O   0  0  0  0  0  0  0  0  0  0  0  0
   -9.3500   21.0080  -30.8160 O   0  0  0  0  0  0  0  0  0  0  0  0
   -8.0080   20.7910  -33.0840 N   0  0  0  0  0  0  0  0  0  0  0  0
   -7.2370   19.5930  -32.9240 C   0  0  0  0  0  0  0  0  0  0  0  0
   -7.5320   18.7440  -31.8490 C   0  0  0  0  0  0  0  0  0  0  0  0
   -6.8030   17.5660  -31.6560 C   0  0  0  0  0  0  0  0  0  0  0  0
   -5.7740   17.2270  -32.5370 C   0  0  0  0  0  0  0  0  0  0  0  0
   -5.4720   18.0680  -33.6120 C   0  0  0  0  0  0  0  0  0  0  0  0
   -6.1980   19.2470  -33.8080 C   0  0  0  0  0  0  0  0  0  0  0  0
   -5.9120   21.8880  -31.0260 C   0  0  0  0  0  0  0  0  0  0  0  0
   -4.7970   22.4540  -30.4000 C   0  0  0  0  0  0  0  0  0  0  0  0
   -3.5160   24.2680  -27.7460 N   0  0  0  0  0  0  0  0  0  0  0  0
   -0.5555   22.0415  -25.4933 H   0  0  0  0  0  0  0  0  0  0  0  0
   -1.5347   22.5167  -26.9222 H   0  0  0  0  0  0  0  0  0  0  0  0
    0.2418   22.7825  -26.9222 H   0  0  0  0  0  0  0  0  0  0  0  0
    0.3073   23.6528  -23.9488 H   0  0  0  0  0  0  0  0  0  0  0  0
    0.0776   25.9034  -22.9133 H   0  0  0  0  0  0  0  0  0  0  0  0
   -1.2193   27.6862  -24.0708 H   0  0  0  0  0  0  0  0  0  0  0  0
   -2.3128   27.2212  -26.2553 H   0  0  0  0  0  0  0  0  0  0  0  0
   -6.2427   25.3115  -29.1959 H   0  0  0  0  0  0  0  0  0  0  0  0
   -8.2257   24.3055  -30.3253 H   0  0  0  0  0  0  0  0  0  0  0  0
   -8.3421   19.0056  -31.1524 H   0  0  0  0  0  0  0  0  0  0  0  0
   -7.0406   16.9056  -30.8090 H   0  0  0  0  0  0  0  0  0  0  0  0
   -5.2020   16.2997  -32.3853 H   0  0  0  0  0  0  0  0  0  0  0  0
   -4.6610   17.8016  -34.3057 H   0  0  0  0  0  0  0  0  0  0  0  0
   -5.9564   19.9056  -34.6552 H   0  0  0  0  0  0  0  0  0  0  0  0
   -5.8192   20.9196  -31.5393 H   0  0  0  0  0  0  0  0  0  0  0  0
   -3.8300   21.9304  -30.4261 H   0  0  0  0  0  0  0  0  0  0  0  0
  1  2  1  0
  2  3  2  0
  3  4  1  0
  4  5  2  0
  5  6  1  0
  6  7  2  0
  7  8  1  0
  8  9  2  0
  9 10  1  0
 10 11  1  0
 11 12  1  0
 12 13  2  0
 13 14  1  0
 14 15  2  0
 15 16  1  0
 16 17  2  0
 16 18  2  0
 16 19  1  0
 19 20  1  0
 20 21  2  0
 21 22  1  0
 22 23  2  0
 23 24  1  0
 24 25  2  0
 15 26  1  0
 26 27  2  0
 11 28  2  0
  7  2  1  0
 28  8  1  0
 27 12  1  0
 25 20  1  0
  1 29  1  0
  1 30  1  0
  1 31  1  0
  3 32  1  0
  4 33  1  0
  5 34  1  0
  6 35  1  0
 13 36  1  0
 14 37  1  0
 21 38  1  0
 22 39  1  0
 23 40  1  0
 24 41  1  0
 25 42  1  0
 26 43  1  0
 27 44  1  0
M  CHG  1  19  -1
M  END
>  <UniqueID>  (43) 
42

>  <SMILES>  (43) 
Cc1ccccc1-c1noc(-c2ccc(S(=O)(=O)[N-]c3ccccc3)cc2)n1

>  <Energy>  (43) 
89.20607489697522

>  <Genealogy>  (43) 
Cc1ccccc1-c1noc(-c2ccc(S(=O)(=O)[N-]c3ccccc3)cc2)n1 (protonated)
Cc1ccccc1-c1noc(-c2ccc(S(=O)(=O)[N-]c3ccccc3)cc2)n1 (3D coordinates assigned)
Cc1ccccc1-c1noc(-c2ccc(S(=O)(=O)[N-]c3ccccc3)cc2)n1 (optimized conformer: 89.20607489697522 kcal/mol)

>  <smiles>  (43) 
Cc1ccccc1-c1noc(-c2ccc(S(=O)(=O)Nc3ccccc3)cc2)n1

>  <score_type>  (43) 
oracle

>  <origin>  (43) 
adgpu

>  <m_score__min__energy>  (43) 
-10.199999999999999

>  <m_primary>  (43) 
energy

$$$$
43:0
     RDKit          3D

 61 64  0  0  0  0  0  0  0  0999 V2000
   -7.5830   20.3390  -32.9210 C   0  0  0  0  0  0  0  0  0  0  0  0
   -6.9910   21.5350  -32.2240 C   0  0  0  0  0  0  0  0  0  0  0  0
   -7.8100   22.3560  -31.4320 C   0  0  0  0  0  0  0  0  0  0  0  0
   -7.2780   23.4730  -30.7850 C   0  0  0  0  0  0  0  0  0  0  0  0
   -5.9150   23.7740  -30.8990 C   0  0  0  0  0  0  0  0  0  0  0  0
   -5.2610   25.1940  -30.0850 S   0  0  0  0  0  0  0  0  0  0  0  0
   -5.6920   26.4270  -30.8300 O   0  0  0  0  0  0  0  0  0  0  0  0
   -5.7800   25.2970  -28.6790 O   0  0  0  0  0  0  0  0  0  0  0  0
   -3.5270   25.1210  -30.0910 N   0  0  0  0  0  0  0  0  0  0  0  0
   -2.7200   24.0700  -29.5400 C   0  0  0  0  0  0  0  0  0  0  0  0
   -2.5020   24.0490  -28.1560 C   0  0  0  0  0  0  0  0  0  0  0  0
   -1.7270   23.0420  -27.5740 C   0  0  0  0  0  0  0  0  0  0  0  0
   -1.1590   22.0460  -28.3740 C   0  0  0  0  0  0  0  0  0  0  0  0
   -1.3760   22.0520  -29.7550 C   0  0  0  0  0  0  0  0  0  0  0  0
   -0.6720   20.7950  -30.7600 Cl  0  0  0  0  0  0  0  0  0  0  0  0
   -2.1540   23.0580  -30.3380 C   0  0  0  0  0  0  0  0  0  0  0  0
   -5.0890   22.9530  -31.6770 C   0  0  0  0  0  0  0  0  0  0  0  0
   -5.6190   21.8440  -32.3560 C   0  0  0  0  0  0  0  0  0  0  0  0
   -4.7640   21.0230  -33.1650 N   0  0  0  0  0  0  0  0  0  0  0  0
   -3.8270   20.0900  -32.6020 C   0  0  0  0  0  0  0  0  0  0  0  0
   -3.8830   19.8030  -31.3760 O   0  0  0  0  0  0  0  0  0  0  0  0
   -2.7620   19.4940  -33.4360 C   0  0  0  0  0  0  0  0  0  0  0  0
   -2.6990   18.1030  -33.6160 C   0  0  0  0  0  0  0  0  0  0  0  0
   -1.6800   17.5380  -34.3900 C   0  0  0  0  0  0  0  0  0  0  0  0
   -0.6990   18.3500  -34.9690 C   0  0  0  0  0  0  0  0  0  0  0  0
    0.3030   17.7670  -35.7380 O   0  0  0  0  0  0  0  0  0  0  0  0
   -0.7320   19.7400  -34.7690 C   0  0  0  0  0  0  0  0  0  0  0  0
    0.5190   20.7820  -35.4550 S   0  0  0  0  0  0  0  0  0  0  0  0
    0.3730   22.1640  -34.8780 O   0  0  0  0  0  0  0  0  0  0  0  0
    0.3340   20.8690  -36.9480 O   0  0  0  0  0  0  0  0  0  0  0  0
    2.1110   20.1630  -35.0850 N   0  0  0  0  0  0  0  0  0  0  0  0
    2.2270   19.9390  -33.6330 C   0  0  0  0  0  0  0  0  0  0  0  0
    3.5400   19.2050  -33.2980 C   0  0  0  0  0  0  0  0  0  0  0  0
    4.6110   19.3960  -34.3830 C   0  0  0  0  0  0  0  0  0  0  0  0
    4.5430   20.8080  -34.9780 C   0  0  0  0  0  0  0  0  0  0  0  0
    3.1420   21.1140  -35.5580 C   0  0  0  0  0  0  0  0  0  0  0  0
   -1.7710   20.3060  -34.0160 C   0  0  0  0  0  0  0  0  0  0  0  0
   -7.9402   19.6174  -32.1715 H   0  0  0  0  0  0  0  0  0  0  0  0
   -8.4256   20.6613  -33.5504 H   0  0  0  0  0  0  0  0  0  0  0  0
   -6.8157   19.8644  -33.5504 H   0  0  0  0  0  0  0  0  0  0  0  0
   -8.8780   22.1174  -31.3206 H   0  0  0  0  0  0  0  0  0  0  0  0
   -7.9327   24.1199  -30.1827 H   0  0  0  0  0  0  0  0  0  0  0  0
   -2.9445   24.8316  -27.5223 H   0  0  0  0  0  0  0  0  0  0  0  0
   -1.5639   23.0331  -26.4862 H   0  0  0  0  0  0  0  0  0  0  0  0
   -0.5419   21.2583  -27.9172 H   0  0  0  0  0  0  0  0  0  0  0  0
   -2.3241   23.0581  -31.4248 H   0  0  0  0  0  0  0  0  0  0  0  0
   -4.0154   23.1790  -31.7569 H   0  0  0  0  0  0  0  0  0  0  0  0
   -4.7600   21.1910  -34.1950 H   0  0  0  0  0  0  0  0  0  0  0  0
   -3.4538   17.4550  -33.1466 H   0  0  0  0  0  0  0  0  0  0  0  0
   -1.6499   16.4493  -34.5442 H   0  0  0  0  0  0  0  0  0  0  0  0
    2.2139   20.9097  -33.1157 H   0  0  0  0  0  0  0  0  0  0  0  0
    1.3809   19.3187  -33.3023 H   0  0  0  0  0  0  0  0  0  0  0  0
    3.9289   19.5938  -32.3454 H   0  0  0  0  0  0  0  0  0  0  0  0
    3.3162   18.1300  -33.2332 H   0  0  0  0  0  0  0  0  0  0  0  0
    5.6052   19.2400  -33.9388 H   0  0  0  0  0  0  0  0  0  0  0  0
    4.4302   18.6673  -35.1869 H   0  0  0  0  0  0  0  0  0  0  0  0
    4.7702   21.5395  -34.1885 H   0  0  0  0  0  0  0  0  0  0  0  0
    5.2758   20.8727  -35.7958 H   0  0  0  0  0  0  0  0  0  0  0  0
    2.8495   22.1303  -35.2553 H   0  0  0  0  0  0  0  0  0  0  0  0
    3.2060   21.0197  -36.6521 H   0  0  0  0  0  0  0  0  0  0  0  0
   -1.8112   21.3965  -33.8776 H   0  0  0  0  0  0  0  0  0  0  0  0
  1  2  1  0
  2  3  2  0
  3  4  1  0
  4  5  2  0
  5  6  1  0
  6  7  2  0
  6  8  2  0
  6  9  1  0
  9 10  1  0
 10 11  2  0
 11 12  1  0
 12 13  2  0
 13 14  1  0
 14 15  1  0
 14 16  2  0
  5 17  1  0
 17 18  2  0
 18 19  1  0
 19 20  1  0
 20 21  2  0
 20 22  1  0
 22 23  2  0
 23 24  1  0
 24 25  2  0
 25 26  1  0
 25 27  1  0
 27 28  1  0
 28 29  2  0
 28 30  2  0
 28 31  1  0
 31 32  1  0
 32 33  1  0
 33 34  1  0
 34 35  1  0
 35 36  1  0
 27 37  2  0
 18  2  1  0
 37 22  1  0
 16 10  1  0
 36 31  1  0
  1 38  1  0
  1 39  1  0
  1 40  1  0
  3 41  1  0
  4 42  1  0
 11 43  1  0
 12 44  1  0
 13 45  1  0
 16 46  1  0
 17 47  1  0
 19 48  1  0
 23 49  1  0
 24 50  1  0
 32 51  1  0
 32 52  1  0
 33 53  1  0
 33 54  1  0
 34 55  1  0
 34 56  1  0
 35 57  1  0
 35 58  1  0
 36 59  1  0
 36 60  1  0
 37 61  1  0
M  CHG  2   9  -1  26  -1
M  END
>  <UniqueID>  (44) 
43

>  <SMILES>  (44) 
Cc1ccc(S(=O)(=O)[N-]c2cccc(Cl)c2)cc1NC(=O)c1ccc([O-])c(S(=O)(=O)N2CCCCC2)c1

>  <Energy>  (44) 
78.52363752934826

>  <Genealogy>  (44) 
Cc1ccc(S(=O)(=O)[N-]c2cccc(Cl)c2)cc1NC(=O)c1ccc([O-])c(S(=O)(=O)N2CCCCC2)c1 (protonated)
Cc1ccc(S(=O)(=O)[N-]c2cccc(Cl)c2)cc1NC(=O)c1ccc([O-])c(S(=O)(=O)N2CCCCC2)c1 (3D coordinates assigned)
Cc1ccc(S(=O)(=O)[N-]c2cccc(Cl)c2)cc1NC(=O)c1ccc([O-])c(S(=O)(=O)N2CCCCC2)c1 (nonaromatic ring conformer: 78.52363752934826 kcal/mol)

>  <smiles>  (44) 
Cc1ccc(S(=O)(=O)Nc2cccc(Cl)c2)cc1NC(=O)c1ccc(O)c(S(=O)(=O)N2CCCCC2)c1

>  <score_type>  (44) 
oracle

>  <origin>  (44) 
adgpu

>  <m_score__min__energy>  (44) 
-13.33

>  <m_primary>  (44) 
energy

$$$$
44:0
     RDKit          3D

 38 41  0  0  0  0  0  0  0  0999 V2000
   -3.1300   23.0450  -28.0780 O   0  0  0  0  0  0  0  0  0  0  0  0
   -2.8840   24.2560  -28.3260 C   0  0  0  0  0  0  0  0  0  0  0  0
   -3.4890   24.8880  -29.4670 N   0  0  0  0  0  0  0  0  0  0  0  0
   -4.6900   24.4140  -30.1000 C   0  0  0  0  0  0  0  0  0  0  0  0
   -5.8400   25.2090  -30.0730 C   0  0  0  0  0  0  0  0  0  0  0  0
   -7.0230   24.7610  -30.6580 C   0  0  0  0  0  0  0  0  0  0  0  0
   -7.0850   23.5060  -31.2750 C   0  0  0  0  0  0  0  0  0  0  0  0
   -8.7920   22.9690  -31.9700 Br  0  0  0  0  0  0  0  0  0  0  0  0
   -5.9330   22.6800  -31.3040 C   0  0  0  0  0  0  0  0  0  0  0  0
   -5.9240   21.3400  -31.9430 C   0  0  0  0  0  0  0  0  0  0  0  0
   -6.8190   20.3600  -31.6460 N   0  0  0  0  0  0  0  0  0  0  0  0
   -6.4610   19.3680  -32.4740 C   0  0  0  0  0  0  0  0  0  0  0  0
   -7.0420   18.1080  -32.5990 C   0  0  0  0  0  0  0  0  0  0  0  0
   -6.4930   17.2280  -33.5510 C   0  0  0  0  0  0  0  0  0  0  0  0
   -5.3920   17.6290  -34.3430 C   0  0  0  0  0  0  0  0  0  0  0  0
   -4.8340   18.9110  -34.1890 C   0  0  0  0  0  0  0  0  0  0  0  0
   -5.4030   19.7540  -33.2360 C   0  0  0  0  0  0  0  0  0  0  0  0
   -5.0410   21.0050  -32.9250 N   0  0  0  0  0  0  0  0  0  0  0  0
   -4.7500   23.1430  -30.6980 C   0  0  0  0  0  0  0  0  0  0  0  0
   -1.9160   24.9910  -27.4780 C   0  0  0  0  0  0  0  0  0  0  0  0
   -1.8060   24.6650  -26.1140 C   0  0  0  0  0  0  0  0  0  0  0  0
   -0.8950   25.3370  -25.2940 C   0  0  0  0  0  0  0  0  0  0  0  0
   -0.0890   26.3470  -25.8230 C   0  0  0  0  0  0  0  0  0  0  0  0
   -0.1990   26.6920  -27.1710 C   0  0  0  0  0  0  0  0  0  0  0  0
   -1.1120   26.0280  -27.9990 C   0  0  0  0  0  0  0  0  0  0  0  0
   -1.2260   26.4280  -29.3270 O   0  0  0  0  0  0  0  0  0  0  0  0
   -2.9650   25.6660  -29.9270 H   0  0  0  0  0  0  0  0  0  0  0  0
   -5.8108   26.1951  -29.5865 H   0  0  0  0  0  0  0  0  0  0  0  0
   -7.9177   25.4005  -30.6346 H   0  0  0  0  0  0  0  0  0  0  0  0
   -7.8989   17.8113  -31.9763 H   0  0  0  0  0  0  0  0  0  0  0  0
   -6.9225   16.2235  -33.6795 H   0  0  0  0  0  0  0  0  0  0  0  0
   -4.9695   16.9342  -35.0838 H   0  0  0  0  0  0  0  0  0  0  0  0
   -3.9787   19.2367  -34.7992 H   0  0  0  0  0  0  0  0  0  0  0  0
   -3.8577   22.4998  -30.6922 H   0  0  0  0  0  0  0  0  0  0  0  0
   -2.4422   23.8746  -25.6891 H   0  0  0  0  0  0  0  0  0  0  0  0
   -0.8129   25.0697  -24.2301 H   0  0  0  0  0  0  0  0  0  0  0  0
    0.6321   26.8704  -25.1779 H   0  0  0  0  0  0  0  0  0  0  0  0
    0.4351   27.4899  -27.5850 H   0  0  0  0  0  0  0  0  0  0  0  0
  1  2  2  0
  2  3  1  0
  3  4  1  0
  4  5  2  0
  5  6  1  0
  6  7  2  0
  7  8  1  0
  7  9  1  0
  9 10  1  0
 10 11  2  0
 11 12  1  0
 12 13  2  0
 13 14  1  0
 14 15  2  0
 15 16  1  0
 16 17  2  0
 17 18  1  0
  9 19  2  0
  2 20  1  0
 20 21  2  0
 21 22  1  0
 22 23  2  0
 23 24  1  0
 24 25  2  0
 25 26  1  0
 19  4  1  0
 25 20  1  0
 18 10  1  0
 17 12  1  0
  3 27  1  0
  5 28  1  0
  6 29  1  0
 13 30  1  0
 14 31  1  0
 15 32  1  0
 16 33  1  0
 19 34  1  0
 21 35  1  0
 22 36  1  0
 23 37  1  0
 24 38  1  0
M  CHG  2  18  -1  26  -1
M  END
>  <UniqueID>  (45) 
44

>  <SMILES>  (45) 
O=C(Nc1ccc(Br)c(-c2nc3ccccc3[n-]2)c1)c1ccccc1[O-]

>  <Energy>  (45) 
90.29783203198357

>  <Genealogy>  (45) 
O=C(Nc1ccc(Br)c(-c2nc3ccccc3[n-]2)c1)c1ccccc1[O-] (protonated)
O=C(Nc1ccc(Br)c(-c2nc3ccccc3[n-]2)c1)c1ccccc1[O-] (3D coordinates assigned)
O=C(Nc1ccc(Br)c(-c2nc3ccccc3[n-]2)c1)c1ccccc1[O-] (optimized conformer: 90.29783203198357 kcal/mol)

>  <smiles>  (45) 
O=C(Nc1ccc(Br)c(-c2nc3ccccc3[nH]2)c1)c1ccccc1O

>  <score_type>  (45) 
oracle

>  <origin>  (45) 
adgpu

>  <m_score__min__energy>  (45) 
-12.91

>  <m_primary>  (45) 
energy

$$$$
45:0
     RDKit          3D

 33 35  0  0  0  0  0  0  0  0999 V2000
   -3.8760   18.7120  -26.3500 C   0  0  0  0  0  0  0  0  0  0  0  0
   -2.6890   19.0380  -26.8670 C   0  0  0  0  0  0  0  0  0  0  0  0
   -1.6620   18.1640  -26.9320 N   0  0  0  0  0  0  0  0  0  0  0  0
   -0.6310   18.7780  -27.4930 N   0  0  0  0  0  0  0  0  0  0  0  0
    0.6400   18.1380  -27.7160 C   0  0  0  0  0  0  0  0  0  0  0  0
    0.7110   16.7350  -27.7960 C   0  0  0  0  0  0  0  0  0  0  0  0
    1.9350   16.0990  -28.0220 C   0  0  0  0  0  0  0  0  0  0  0  0
    3.0980   16.8550  -28.1820 C   0  0  0  0  0  0  0  0  0  0  0  0
    3.0390   18.2500  -28.1220 C   0  0  0  0  0  0  0  0  0  0  0  0
    1.8170   18.8910  -27.8950 C   0  0  0  0  0  0  0  0  0  0  0  0
   -0.9820   20.0510  -27.7790 C   0  0  0  0  0  0  0  0  0  0  0  0
   -0.2150   20.8920  -28.3200 O   0  0  0  0  0  0  0  0  0  0  0  0
   -2.2970   20.2720  -27.3920 C   0  0  0  0  0  0  0  0  0  0  0  0
   -3.0450   21.3870  -27.5160 C   0  0  0  0  0  0  0  0  0  0  0  0
   -2.5360   22.6800  -28.0130 C   0  0  0  0  0  0  0  0  0  0  0  0
   -1.4080   23.2840  -27.4320 C   0  0  0  0  0  0  0  0  0  0  0  0
   -0.9680   24.5330  -27.8820 C   0  0  0  0  0  0  0  0  0  0  0  0
   -1.6640   25.1970  -28.8970 C   0  0  0  0  0  0  0  0  0  0  0  0
   -1.2210   26.4380  -29.3410 O   0  0  0  0  0  0  0  0  0  0  0  0
   -2.8060   24.6140  -29.4590 C   0  0  0  0  0  0  0  0  0  0  0  0
   -3.5070   25.2740  -30.4610 O   0  0  0  0  0  0  0  0  0  0  0  0
   -3.2470   23.3640  -29.0090 C   0  0  0  0  0  0  0  0  0  0  0  0
   -4.6849   19.4567  -26.3174 H   0  0  0  0  0  0  0  0  0  0  0  0
   -4.0450   17.6987  -25.9566 H   0  0  0  0  0  0  0  0  0  0  0  0
   -0.2032   16.1344  -27.6799 H   0  0  0  0  0  0  0  0  0  0  0  0
    1.9821   15.0012  -28.0739 H   0  0  0  0  0  0  0  0  0  0  0  0
    4.0610   16.3524  -28.3553 H   0  0  0  0  0  0  0  0  0  0  0  0
    3.9550   18.8446  -28.2535 H   0  0  0  0  0  0  0  0  0  0  0  0
    1.7746   19.9895  -27.8560 H   0  0  0  0  0  0  0  0  0  0  0  0
   -4.1049   21.3290  -27.2276 H   0  0  0  0  0  0  0  0  0  0  0  0
   -0.8693   22.7728  -26.6206 H   0  0  0  0  0  0  0  0  0  0  0  0
   -0.0736   24.9935  -27.4371 H   0  0  0  0  0  0  0  0  0  0  0  0
   -4.1553   22.9165  -29.4387 H   0  0  0  0  0  0  0  0  0  0  0  0
  1  2  2  0
  2  3  1  0
  3  4  1  0
  4  5  1  0
  5  6  2  0
  6  7  1  0
  7  8  2  0
  8  9  1  0
  9 10  2  0
  4 11  1  0
 11 12  2  0
 11 13  1  0
 13 14  2  3
 14 15  1  0
 15 16  2  0
 16 17  1  0
 17 18  2  0
 18 19  1  0
 18 20  1  0
 20 21  1  0
 20 22  2  0
 13  2  1  0
 22 15  1  0
 10  5  1  0
  1 23  1  0
  1 24  1  0
  6 25  1  0
  7 26  1  0
  8 27  1  0
  9 28  1  0
 10 29  1  0
 14 30  1  0
 16 31  1  0
 17 32  1  0
 22 33  1  0
M  CHG  3   3  -1  19  -1  21  -1
M  END
>  <UniqueID>  (46) 
45

>  <SMILES>  (46) 
C=c1[n-]n(-c2ccccc2)c(=O)c1=Cc1ccc([O-])c([O-])c1

>  <Energy>  (46) 
83.01439668834291

>  <Genealogy>  (46) 
C=c1[n-]n(-c2ccccc2)c(=O)c1=Cc1ccc([O-])c([O-])c1 (protonated)
C=c1[n-]n(-c2ccccc2)c(=O)c1=Cc1ccc([O-])c([O-])c1 (3D coordinates assigned)
C=c1[n-]n(-c2ccccc2)c(=O)c1=Cc1ccc([O-])c([O-])c1 (optimized conformer: 83.01439668834291 kcal/mol)

>  <smiles>  (46) 
C=c1[nH]n(-c2ccccc2)c(=O)c1=Cc1ccc(O)c(O)c1

>  <score_type>  (46) 
oracle

>  <origin>  (46) 
adgpu

>  <m_score__min__energy>  (46) 
-13.15

>  <m_primary>  (46) 
energy

$$$$
46:0
     RDKit          3D

 30 31  0  0  0  0  0  0  0  0999 V2000
    0.0090   26.0270  -27.0780 C   0  0  0  0  0  0  0  0  0  0  0  0
   -0.1500   24.5430  -27.2030 C   0  0  0  0  0  0  0  0  0  0  0  0
    0.7940   23.7930  -26.8390 O   0  0  0  0  0  0  0  0  0  0  0  0
   -1.4120   23.9490  -27.6970 C   0  0  0  0  0  0  0  0  0  0  0  0
   -1.9760   22.8020  -27.0950 C   0  0  0  0  0  0  0  0  0  0  0  0
   -1.3520   22.1390  -26.0380 O   0  0  0  0  0  0  0  0  0  0  0  0
   -3.1230   22.3100  -27.5490 O   0  0  0  0  0  0  0  0  0  0  0  0
   -3.7820   22.8250  -28.5800 C   0  0  0  0  0  0  0  0  0  0  0  0
   -4.8530   22.2760  -28.9550 O   0  0  0  0  0  0  0  0  0  0  0  0
   -3.2810   23.9510  -29.2550 C   0  0  0  0  0  0  0  0  0  0  0  0
   -3.9850   24.5070  -30.4390 C   0  0  0  0  0  0  0  0  0  0  0  0
   -4.2920   25.7270  -30.4550 O   0  0  0  0  0  0  0  0  0  0  0  0
   -4.2910   23.7050  -31.5900 N   0  0  0  0  0  0  0  0  0  0  0  0
   -5.4560   22.8880  -31.7740 C   0  0  0  0  0  0  0  0  0  0  0  0
   -6.6870   23.3470  -31.2940 C   0  0  0  0  0  0  0  0  0  0  0  0
   -7.8450   22.5860  -31.4720 C   0  0  0  0  0  0  0  0  0  0  0  0
   -7.7830   21.3490  -32.1230 C   0  0  0  0  0  0  0  0  0  0  0  0
   -9.2620   20.4240  -32.3390 Cl  0  0  0  0  0  0  0  0  0  0  0  0
   -6.5470   20.8650  -32.5820 C   0  0  0  0  0  0  0  0  0  0  0  0
   -6.4190   19.3090  -33.3910 Cl  0  0  0  0  0  0  0  0  0  0  0  0
   -5.3870   21.6280  -32.3970 C   0  0  0  0  0  0  0  0  0  0  0  0
   -2.0960   24.5340  -28.7770 C   0  0  0  0  0  0  0  0  0  0  0  0
   -1.6180   25.7110  -29.3480 O   0  0  0  0  0  0  0  0  0  0  0  0
    0.0387   26.3042  -26.0139 H   0  0  0  0  0  0  0  0  0  0  0  0
    0.9456   26.3377  -27.5641 H   0  0  0  0  0  0  0  0  0  0  0  0
   -0.8405   26.5290  -27.5641 H   0  0  0  0  0  0  0  0  0  0  0  0
   -0.4090   22.3420  -25.7340 H   0  0  0  0  0  0  0  0  0  0  0  0
   -6.7437   24.3140  -30.7727 H   0  0  0  0  0  0  0  0  0  0  0  0
   -8.8095   22.9608  -31.0988 H   0  0  0  0  0  0  0  0  0  0  0  0
   -4.4167   21.2402  -32.7406 H   0  0  0  0  0  0  0  0  0  0  0  0
  1  2  1  0
  2  3  2  0
  2  4  1  0
  4  5  2  0
  5  6  1  0
  5  7  1  0
  7  8  1  0
  8  9  2  0
  8 10  1  0
 10 11  1  0
 11 12  2  0
 11 13  1  0
 13 14  1  0
 14 15  2  0
 15 16  1  0
 16 17  2  0
 17 18  1  0
 17 19  1  0
 19 20  1  0
 19 21  2  0
 10 22  2  0
 22 23  1  0
 22  4  1  0
 21 14  1  0
  1 24  1  0
  1 25  1  0
  1 26  1  0
  6 27  1  0
 15 28  1  0
 16 29  1  0
 21 30  1  0
M  CHG  2  13  -1  23  -1
M  END
>  <UniqueID>  (47) 
46

>  <SMILES>  (47) 
CC(=O)c1c(O)oc(=O)c(C(=O)[N-]c2ccc(Cl)c(Cl)c2)c1[O-]

>  <Energy>  (47) 
47.99662611966549

>  <Genealogy>  (47) 
CC(=O)c1c(O)oc(=O)c(C(=O)[N-]c2ccc(Cl)c(Cl)c2)c1[O-] (protonated)
CC(=O)c1c(O)oc(=O)c(C(=O)[N-]c2ccc(Cl)c(Cl)c2)c1[O-] (3D coordinates assigned)
CC(=O)c1c(O)oc(=O)c(C(=O)[N-]c2ccc(Cl)c(Cl)c2)c1[O-] (optimized conformer: 47.99662611966549 kcal/mol)

>  <smiles>  (47) 
CC(=O)c1c(O)oc(=O)c(C(=O)Nc2ccc(Cl)c(Cl)c2)c1O

>  <score_type>  (47) 
oracle

>  <origin>  (47) 
adgpu

>  <m_score__min__energy>  (47) 
-11.68

>  <m_primary>  (47) 
energy

$$$$
47:0
     RDKit          3D

 55 58  0  0  0  0  0  0  0  0999 V2000
   -0.9430   25.3970  -27.0960 C   0  0  0  0  0  0  0  0  0  0  0  0
   -2.0510   25.0740  -28.0400 C   0  0  0  0  0  0  0  0  0  0  0  0
   -3.2490   24.4740  -27.7130 C   0  0  0  0  0  0  0  0  0  0  0  0
   -3.8880   24.3930  -28.9290 C   0  0  0  0  0  0  0  0  0  0  0  0
   -5.0680   23.8900  -29.1110 N   0  0  0  0  0  0  0  0  0  0  0  0
   -5.8360   23.8140  -30.6620 S   0  0  0  0  0  0  0  0  0  0  0  0
   -7.3090   24.0770  -30.5070 O   0  0  0  0  0  0  0  0  0  0  0  0
   -5.2540   24.8720  -31.5560 O   0  0  0  0  0  0  0  0  0  0  0  0
   -5.5580   22.2330  -31.3870 C   0  0  0  0  0  0  0  0  0  0  0  0
   -4.2820   21.6580  -31.3290 C   0  0  0  0  0  0  0  0  0  0  0  0
   -4.0540   20.3960  -31.8840 C   0  0  0  0  0  0  0  0  0  0  0  0
   -5.0930   19.6980  -32.5160 C   0  0  0  0  0  0  0  0  0  0  0  0
   -4.8360   18.3910  -33.0570 N   0  0  0  0  0  0  0  0  0  0  0  0
   -3.7420   18.0910  -33.9440 C   0  0  0  0  0  0  0  0  0  0  0  0
   -2.8960   18.9850  -34.2250 O   0  0  0  0  0  0  0  0  0  0  0  0
   -3.5770   16.7420  -34.5350 C   0  0  0  0  0  0  0  0  0  0  0  0
   -2.5310   16.4570  -35.4310 C   0  0  0  0  0  0  0  0  0  0  0  0
   -2.4060   15.1830  -35.9890 C   0  0  0  0  0  0  0  0  0  0  0  0
   -3.3240   14.1790  -35.6710 C   0  0  0  0  0  0  0  0  0  0  0  0
   -3.1780   12.9530  -36.2330 F   0  0  0  0  0  0  0  0  0  0  0  0
   -4.3860   14.4500  -34.7940 C   0  0  0  0  0  0  0  0  0  0  0  0
   -5.5820   13.2100  -34.4020 S   0  0  0  0  0  0  0  0  0  0  0  0
   -5.9370   12.4630  -35.6590 O   0  0  0  0  0  0  0  0  0  0  0  0
   -6.8350   13.8710  -33.9000 O   0  0  0  0  0  0  0  0  0  0  0  0
   -5.0070   12.0690  -33.2010 N   0  0  0  0  0  0  0  0  0  0  0  0
   -3.5420   12.1020  -33.0410 C   0  0  0  0  0  0  0  0  0  0  0  0
   -3.0590   13.2140  -32.0820 C   0  0  0  0  0  0  0  0  0  0  0  0
   -4.1200   13.8940  -31.4440 O   0  0  0  0  0  0  0  0  0  0  0  0
   -4.9890   12.9590  -30.8490 C   0  0  0  0  0  0  0  0  0  0  0  0
   -5.7440   12.1570  -31.9230 C   0  0  0  0  0  0  0  0  0  0  0  0
   -4.5020   15.7290  -34.2270 C   0  0  0  0  0  0  0  0  0  0  0  0
   -6.3790   20.2650  -32.5460 C   0  0  0  0  0  0  0  0  0  0  0  0
   -6.6070   21.5290  -31.9910 C   0  0  0  0  0  0  0  0  0  0  0  0
   -3.1170   24.9070  -29.9080 N   0  0  0  0  0  0  0  0  0  0  0  0
   -2.0200   25.3050  -29.3340 O   0  0  0  0  0  0  0  0  0  0  0  0
   -1.3009   25.2927  -26.0611 H   0  0  0  0  0  0  0  0  0  0  0  0
   -0.1040   24.7061  -27.2652 H   0  0  0  0  0  0  0  0  0  0  0  0
   -0.6067   26.4306  -27.2652 H   0  0  0  0  0  0  0  0  0  0  0  0
   -3.6049   24.1428  -26.7263 H   0  0  0  0  0  0  0  0  0  0  0  0
   -3.4571   22.2015  -30.8452 H   0  0  0  0  0  0  0  0  0  0  0  0
   -3.0517   19.9467  -31.8246 H   0  0  0  0  0  0  0  0  0  0  0  0
   -5.4550   17.6170  -32.7320 H   0  0  0  0  0  0  0  0  0  0  0  0
   -1.8070   17.2424  -35.6938 H   0  0  0  0  0  0  0  0  0  0  0  0
   -1.5799   14.9687  -36.6830 H   0  0  0  0  0  0  0  0  0  0  0  0
   -3.2117   11.1306  -32.6445 H   0  0  0  0  0  0  0  0  0  0  0  0
   -3.1098   12.3131  -34.0303 H   0  0  0  0  0  0  0  0  0  0  0  0
   -2.4209   12.7583  -31.3105 H   0  0  0  0  0  0  0  0  0  0  0  0
   -2.5113   13.9528  -32.6854 H   0  0  0  0  0  0  0  0  0  0  0  0
   -4.4029   12.2665  -30.2269 H   0  0  0  0  0  0  0  0  0  0  0  0
   -5.7215   13.5002  -30.2321 H   0  0  0  0  0  0  0  0  0  0  0  0
   -5.9138   11.1380  -31.5451 H   0  0  0  0  0  0  0  0  0  0  0  0
   -6.6892   12.6828  -32.1232 H   0  0  0  0  0  0  0  0  0  0  0  0
   -5.3279   15.9415  -33.5322 H   0  0  0  0  0  0  0  0  0  0  0  0
   -7.2102   19.7122  -33.0081 H   0  0  0  0  0  0  0  0  0  0  0  0
   -7.6135   21.9711  -32.0293 H   0  0  0  0  0  0  0  0  0  0  0  0
  1  2  1  0
  2  3  2  0
  3  4  1  0
  4  5  2  3
  5  6  1  0
  6  7  2  0
  6  8  2  0
  6  9  1  0
  9 10  2  0
 10 11  1  0
 11 12  2  0
 12 13  1  0
 13 14  1  0
 14 15  2  0
 14 16  1  0
 16 17  2  0
 17 18  1  0
 18 19  2  0
 19 20  1  0
 19 21  1  0
 21 22  1  0
 22 23  2  0
 22 24  2  0
 22 25  1  0
 25 26  1  0
 26 27  1  0
 27 28  1  0
 28 29  1  0
 29 30  1  0
 21 31  2  0
 12 32  1  0
 32 33  2  0
  4 34  1  0
 34 35  1  0
 35  2  1  0
 33  9  1  0
 31 16  1  0
 30 25  1  0
  1 36  1  0
  1 37  1  0
  1 38  1  0
  3 39  1  0
 10 40  1  0
 11 41  1  0
 13 42  1  0
 17 43  1  0
 18 44  1  0
 26 45  1  0
 26 46  1  0
 27 47  1  0
 27 48  1  0
 29 49  1  0
 29 50  1  0
 30 51  1  0
 30 52  1  0
 31 53  1  0
 32 54  1  0
 33 55  1  0
M  CHG  1  34  -1
M  END
>  <UniqueID>  (48) 
47

>  <SMILES>  (48) 
Cc1cc(=NS(=O)(=O)c2ccc(NC(=O)c3ccc(F)c(S(=O)(=O)N4CCOCC4)c3)cc2)[n-]o1

>  <Energy>  (48) 
109.24233493616168

>  <Genealogy>  (48) 
Cc1cc(=NS(=O)(=O)c2ccc(NC(=O)c3ccc(F)c(S(=O)(=O)N4CCOCC4)c3)cc2)[n-]o1 (protonated)
Cc1cc(=NS(=O)(=O)c2ccc(NC(=O)c3ccc(F)c(S(=O)(=O)N4CCOCC4)c3)cc2)[n-]o1 (3D coordinates assigned)
Cc1cc(=NS(=O)(=O)c2ccc(NC(=O)c3ccc(F)c(S(=O)(=O)N4CCOCC4)c3)cc2)[n-]o1 (nonaromatic ring conformer: 109.24233493616168 kcal/mol)

>  <smiles>  (48) 
Cc1cc(=NS(=O)(=O)c2ccc(NC(=O)c3ccc(F)c(S(=O)(=O)N4CCOCC4)c3)cc2)[nH]o1

>  <score_type>  (48) 
oracle

>  <origin>  (48) 
adgpu

>  <m_score__min__energy>  (48) 
-11.17

>  <m_primary>  (48) 
energy

$$$$
48:0
     RDKit          3D

 44 45  0  0  0  0  0  0  0  0999 V2000
   -0.5550   22.8640  -27.4820 N   0  0  0  0  0  0  0  0  0  0  0  0
   -1.0210   23.4730  -28.6880 C   0  0  0  0  0  0  0  0  0  0  0  0
   -0.5520   24.5890  -29.0450 O   0  0  0  0  0  0  0  0  0  0  0  0
   -2.1000   22.8190  -29.5050 C   0  0  0  0  0  0  0  0  0  0  0  0
   -3.4790   23.1010  -28.9090 C   0  0  0  0  0  0  0  0  0  0  0  0
   -3.7420   24.5420  -28.9200 N   0  0  0  0  0  0  0  0  0  0  0  0
   -5.0260   24.9060  -30.0310 S   0  0  0  0  0  0  0  0  0  0  0  0
   -4.4730   25.6580  -31.2080 O   0  0  0  0  0  0  0  0  0  0  0  0
   -6.0590   25.7600  -29.3480 O   0  0  0  0  0  0  0  0  0  0  0  0
   -5.7390   23.3960  -30.5890 C   0  0  0  0  0  0  0  0  0  0  0  0
   -5.0830   22.5980  -31.5390 C   0  0  0  0  0  0  0  0  0  0  0  0
   -5.6990   21.4430  -32.0270 C   0  0  0  0  0  0  0  0  0  0  0  0
   -6.9750   21.0740  -31.5740 C   0  0  0  0  0  0  0  0  0  0  0  0
   -7.7780   19.6510  -32.2420 S   0  0  0  0  0  0  0  0  0  0  0  0
   -8.7210   20.0770  -33.3350 O   0  0  0  0  0  0  0  0  0  0  0  0
   -8.5860   18.9890  -31.1600 O   0  0  0  0  0  0  0  0  0  0  0  0
   -6.6210   18.5090  -32.8800 N   0  0  0  0  0  0  0  0  0  0  0  0
   -7.2370   17.1690  -32.9940 C   0  0  0  0  0  0  0  0  0  0  0  0
   -6.3830   16.1950  -33.8370 C   0  0  0  0  0  0  0  0  0  0  0  0
   -4.9470   16.6980  -34.0030 C   0  0  0  0  0  0  0  0  0  0  0  0
   -4.9210   18.1020  -34.6300 C   0  0  0  0  0  0  0  0  0  0  0  0
   -6.1140   18.9680  -34.1830 C   0  0  0  0  0  0  0  0  0  0  0  0
   -7.6220   21.8650  -30.6140 C   0  0  0  0  0  0  0  0  0  0  0  0
   -7.0080   23.0230  -30.1260 C   0  0  0  0  0  0  0  0  0  0  0  0
   -0.9520   21.9550  -27.1550 H   0  0  0  0  0  0  0  0  0  0  0  0
    0.1910   23.3250  -26.9140 H   0  0  0  0  0  0  0  0  0  0  0  0
   -2.0635   23.2126  -30.5315 H   0  0  0  0  0  0  0  0  0  0  0  0
   -1.9318   21.7319  -29.5053 H   0  0  0  0  0  0  0  0  0  0  0  0
   -4.2463   22.5857  -29.5054 H   0  0  0  0  0  0  0  0  0  0  0  0
   -3.5067   22.7358  -27.8717 H   0  0  0  0  0  0  0  0  0  0  0  0
   -4.0833   22.8821  -31.8995 H   0  0  0  0  0  0  0  0  0  0  0  0
   -5.1810   20.8193  -32.7704 H   0  0  0  0  0  0  0  0  0  0  0  0
   -7.3577   16.7492  -31.9845 H   0  0  0  0  0  0  0  0  0  0  0  0
   -8.2060   17.2885  -33.5008 H   0  0  0  0  0  0  0  0  0  0  0  0
   -6.3619   15.2154  -33.3370 H   0  0  0  0  0  0  0  0  0  0  0  0
   -6.8367   16.1184  -34.8361 H   0  0  0  0  0  0  0  0  0  0  0  0
   -4.4635   16.7365  -33.0157 H   0  0  0  0  0  0  0  0  0  0  0  0
   -4.4099   16.0076  -34.6700 H   0  0  0  0  0  0  0  0  0  0  0  0
   -3.9888   18.6044  -34.3323 H   0  0  0  0  0  0  0  0  0  0  0  0
   -4.9842   17.9826  -35.7217 H   0  0  0  0  0  0  0  0  0  0  0  0
   -5.7895   20.0155  -34.0971 H   0  0  0  0  0  0  0  0  0  0  0  0
   -6.9175   18.8813  -34.9293 H   0  0  0  0  0  0  0  0  0  0  0  0
   -8.6159   21.5738  -30.2434 H   0  0  0  0  0  0  0  0  0  0  0  0
   -7.5225   23.6426  -29.3768 H   0  0  0  0  0  0  0  0  0  0  0  0
  1  2  1  0
  2  3  2  0
  2  4  1  0
  4  5  1  0
  5  6  1  0
  6  7  1  0
  7  8  2  0
  7  9  2  0
  7 10  1  0
 10 11  2  0
 11 12  1  0
 12 13  2  0
 13 14  1  0
 14 15  2  0
 14 16  2  0
 14 17  1  0
 17 18  1  0
 18 19  1  0
 19 20  1  0
 20 21  1  0
 21 22  1  0
 13 23  1  0
 23 24  2  0
 24 10  1  0
 22 17  1  0
  1 25  1  0
  1 26  1  0
  4 27  1  0
  4 28  1  0
  5 29  1  0
  5 30  1  0
 11 31  1  0
 12 32  1  0
 18 33  1  0
 18 34  1  0
 19 35  1  0
 19 36  1  0
 20 37  1  0
 20 38  1  0
 21 39  1  0
 21 40  1  0
 22 41  1  0
 22 42  1  0
 23 43  1  0
 24 44  1  0
M  CHG  1   6  -1
M  END
>  <UniqueID>  (49) 
48

>  <SMILES>  (49) 
NC(=O)CC[N-]S(=O)(=O)c1ccc(S(=O)(=O)N2CCCCC2)cc1

>  <Energy>  (49) 
37.9930841208007

>  <Genealogy>  (49) 
NC(=O)CC[N-]S(=O)(=O)c1ccc(S(=O)(=O)N2CCCCC2)cc1 (protonated)
NC(=O)CC[N-]S(=O)(=O)c1ccc(S(=O)(=O)N2CCCCC2)cc1 (3D coordinates assigned)
NC(=O)CC[N-]S(=O)(=O)c1ccc(S(=O)(=O)N2CCCCC2)cc1 (nonaromatic ring conformer: 37.9930841208007 kcal/mol)

>  <smiles>  (49) 
NC(=O)CCNS(=O)(=O)c1ccc(S(=O)(=O)N2CCCCC2)cc1

>  <score_type>  (49) 
oracle

>  <origin>  (49) 
adgpu

>  <m_score__min__energy>  (49) 
-10.85

>  <m_primary>  (49) 
energy

$$$$
