0:0
     RDKit          3D

 55 58  0  0  0  0  0  0  0  0999 V2000
   -1.0790   18.9610  -27.4390 C   0  0  0  0  0  0  0  0  0  0  0  0
    0.0410   19.6720  -28.0800 N   0  0  0  0  0  0  0  0  0  0  0  0
    0.0430   19.5240  -29.5500 C   0  0  0  0  0  0  0  0  0  0  0  0
   -1.1680   20.1990  -30.2110 C   0  0  0  0  0  0  0  0  0  0  0  0
   -1.4420   21.5670  -29.6420 C   0  0  0  0  0  0  0  0  0  0  0  0
   -2.3120   22.4300  -30.3230 C   0  0  0  0  0  0  0  0  0  0  0  0
   -2.6620   23.6780  -29.7770 C   0  0  0  0  0  0  0  0  0  0  0  0
   -3.4960   24.5960  -30.4950 N   0  0  0  0  0  0  0  0  0  0  0  0
   -5.1920   24.8040  -30.1940 S   0  0  0  0  0  0  0  0  0  0  0  0
   -5.4390   24.9600  -28.7210 O   0  0  0  0  0  0  0  0  0  0  0  0
   -5.6660   26.0430  -30.8930 O   0  0  0  0  0  0  0  0  0  0  0  0
   -6.0710   23.4200  -30.8410 C   0  0  0  0  0  0  0  0  0  0  0  0
   -5.3590   22.3130  -31.3200 C   0  0  0  0  0  0  0  0  0  0  0  0
   -6.0400   21.1770  -31.7640 C   0  0  0  0  0  0  0  0  0  0  0  0
   -7.4420   21.1290  -31.7240 C   0  0  0  0  0  0  0  0  0  0  0  0
   -8.2960   19.6740  -32.2430 S   0  0  0  0  0  0  0  0  0  0  0  0
   -9.4900   20.0690  -33.0620 O   0  0  0  0  0  0  0  0  0  0  0  0
   -8.7880   18.9360  -31.0330 O   0  0  0  0  0  0  0  0  0  0  0  0
   -7.2670   18.6080  -33.1750 N   0  0  0  0  0  0  0  0  0  0  0  0
   -6.4500   17.7340  -32.3030 C   0  0  0  0  0  0  0  0  0  0  0  0
   -4.9760   18.1710  -32.2680 C   0  0  0  0  0  0  0  0  0  0  0  0
   -4.3700   18.1640  -33.5540 O   0  0  0  0  0  0  0  0  0  0  0  0
   -5.2430   18.5670  -34.6030 C   0  0  0  0  0  0  0  0  0  0  0  0
   -6.4610   19.3820  -34.1380 C   0  0  0  0  0  0  0  0  0  0  0  0
   -8.1550   22.2390  -31.2480 C   0  0  0  0  0  0  0  0  0  0  0  0
   -7.4730   23.3820  -30.8170 C   0  0  0  0  0  0  0  0  0  0  0  0
   -2.1880   24.0300  -28.5080 C   0  0  0  0  0  0  0  0  0  0  0  0
   -2.5830   25.2350  -27.9350 O   0  0  0  0  0  0  0  0  0  0  0  0
   -1.3130   23.1760  -27.8240 C   0  0  0  0  0  0  0  0  0  0  0  0
   -0.9340   21.9450  -28.3830 C   0  0  0  0  0  0  0  0  0  0  0  0
    0.0960   21.0910  -27.6780 C   0  0  0  0  0  0  0  0  0  0  0  0
   -0.9768   19.0259  -26.3457 H   0  0  0  0  0  0  0  0  0  0  0  0
   -2.0295   19.4214  -27.7464 H   0  0  0  0  0  0  0  0  0  0  0  0
   -1.0668   17.9049  -27.7464 H   0  0  0  0  0  0  0  0  0  0  0  0
    0.9617   19.9788  -29.9490 H   0  0  0  0  0  0  0  0  0  0  0  0
   -0.0081   18.4490  -29.7777 H   0  0  0  0  0  0  0  0  0  0  0  0
   -0.9734   20.2969  -31.2892 H   0  0  0  0  0  0  0  0  0  0  0  0
   -2.0502   19.5713  -30.0171 H   0  0  0  0  0  0  0  0  0  0  0  0
   -2.7259   22.1274  -31.2962 H   0  0  0  0  0  0  0  0  0  0  0  0
   -4.2596   22.3382  -31.3467 H   0  0  0  0  0  0  0  0  0  0  0  0
   -5.4741   20.3151  -32.1472 H   0  0  0  0  0  0  0  0  0  0  0  0
   -6.8561   17.7721  -31.2814 H   0  0  0  0  0  0  0  0  0  0  0  0
   -6.4921   16.7130  -32.7101 H   0  0  0  0  0  0  0  0  0  0  0  0
   -4.9211   19.1906  -31.8588 H   0  0  0  0  0  0  0  0  0  0  0  0
   -4.4311   17.4504  -31.6405 H   0  0  0  0  0  0  0  0  0  0  0  0
   -4.6684   19.1812  -35.3119 H   0  0  0  0  0  0  0  0  0  0  0  0
   -5.6366   17.6449  -35.0555 H   0  0  0  0  0  0  0  0  0  0  0  0
   -6.1138   20.3082  -33.6567 H   0  0  0  0  0  0  0  0  0  0  0  0
   -7.0844   19.6183  -35.0129 H   0  0  0  0  0  0  0  0  0  0  0  0
   -9.2541   22.2108  -31.2134 H   0  0  0  0  0  0  0  0  0  0  0  0
   -8.0385   24.2545  -30.4578 H   0  0  0  0  0  0  0  0  0  0  0  0
   -3.4850   25.6540  -28.1430 H   0  0  0  0  0  0  0  0  0  0  0  0
   -0.9195   23.4724  -26.8405 H   0  0  0  0  0  0  0  0  0  0  0  0
    1.0965   21.4833  -27.9125 H   0  0  0  0  0  0  0  0  0  0  0  0
   -0.1205   21.1365  -26.6005 H   0  0  0  0  0  0  0  0  0  0  0  0
  1  2  1  0
  2  3  1  0
  3  4  1  0
  4  5  1  0
  5  6  2  0
  6  7  1  0
  7  8  1  0
  8  9  1  0
  9 10  2  0
  9 11  2  0
  9 12  1  0
 12 13  2  0
 13 14  1  0
 14 15  2  0
 15 16  1  0
 16 17  2  0
 16 18  2  0
 16 19  1  0
 19 20  1  0
 20 21  1  0
 21 22  1  0
 22 23  1  0
 23 24  1  0
 15 25  1  0
 25 26  2  0
  7 27  2  0
 27 28  1  0
 27 29  1  0
 29 30  2  0
 30 31  1  0
 31  2  1  0
 30  5  1  0
 26 12  1  0
 24 19  1  0
  1 32  1  0
  1 33  1  0
  1 34  1  0
  3 35  1  0
  3 36  1  0
  4 37  1  0
  4 38  1  0
  6 39  1  0
 13 40  1  0
 14 41  1  0
 20 42  1  0
 20 43  1  0
 21 44  1  0
 21 45  1  0
 23 46  1  0
 23 47  1  0
 24 48  1  0
 24 49  1  0
 25 50  1  0
 26 51  1  0
 28 52  1  0
 29 53  1  0
 31 54  1  0
 31 55  1  0
M  CHG  1   8  -1
M  END
>  <UniqueID>  (1) 
1

>  <SMILES>  (1) 
CN1CCc2cc([N-]S(=O)(=O)c3ccc(S(=O)(=O)N4CCOCC4)cc3)c(O)cc2C1

>  <Energy>  (1) 
78.5733483277888

>  <Genealogy>  (1) 
CN1CCc2cc([N-]S(=O)(=O)c3ccc(S(=O)(=O)N4CCOCC4)cc3)c(O)cc2C1 (protonated)
CN1CCc2cc([N-]S(=O)(=O)c3ccc(S(=O)(=O)N4CCOCC4)cc3)c(O)cc2C1 (3D coordinates assigned)
CN1CCc2cc([N-]S(=O)(=O)c3ccc(S(=O)(=O)N4CCOCC4)cc3)c(O)cc2C1 (nonaromatic ring conformer: 78.5733483277888 kcal/mol)

>  <smiles>  (1) 
CN1CCc2cc(NS(=O)(=O)c3ccc(S(=O)(=O)N4CCOCC4)cc3)c(O)cc2C1

>  <score_type>  (1) 
oracle

>  <origin>  (1) 
adgpu

>  <m_score__min__energy>  (1) 
-12.48

>  <m_primary>  (1) 
energy

$$$$
1:0
     RDKit          3D

 42 45  0  0  0  0  0  0  0  0999 V2000
   -0.6490   20.8500  -30.5470 C   0  0  0  0  0  0  0  0  0  0  0  0
   -1.3490   21.9080  -29.7480 C   0  0  0  0  0  0  0  0  0  0  0  0
   -1.2150   21.9260  -28.3530 C   0  0  0  0  0  0  0  0  0  0  0  0
   -1.8410   22.9190  -27.6000 C   0  0  0  0  0  0  0  0  0  0  0  0
   -2.6070   23.9080  -28.2280 C   0  0  0  0  0  0  0  0  0  0  0  0
   -3.2030   24.8920  -27.4400 O   0  0  0  0  0  0  0  0  0  0  0  0
   -2.7580   23.8980  -29.6290 C   0  0  0  0  0  0  0  0  0  0  0  0
   -3.5570   24.9140  -30.2540 N   0  0  0  0  0  0  0  0  0  0  0  0
   -5.2890   24.9850  -30.2460 S   0  0  0  0  0  0  0  0  0  0  0  0
   -5.7420   26.0610  -31.1920 O   0  0  0  0  0  0  0  0  0  0  0  0
   -5.7710   25.3300  -28.8640 O   0  0  0  0  0  0  0  0  0  0  0  0
   -5.9480   23.4440  -30.7830 C   0  0  0  0  0  0  0  0  0  0  0  0
   -7.2410   23.0500  -30.4210 C   0  0  0  0  0  0  0  0  0  0  0  0
   -7.7450   21.8190  -30.8440 C   0  0  0  0  0  0  0  0  0  0  0  0
   -6.9660   20.9640  -31.6430 C   0  0  0  0  0  0  0  0  0  0  0  0
   -5.6620   21.3590  -32.0130 C   0  0  0  0  0  0  0  0  0  0  0  0
   -5.1640   22.5990  -31.5750 C   0  0  0  0  0  0  0  0  0  0  0  0
   -4.8320   20.4690  -32.8600 C   0  0  0  0  0  0  0  0  0  0  0  0
   -3.6640   20.8180  -33.1860 O   0  0  0  0  0  0  0  0  0  0  0  0
   -5.3730   19.1700  -33.3270 C   0  0  0  0  0  0  0  0  0  0  0  0
   -4.5990   18.3230  -34.1420 C   0  0  0  0  0  0  0  0  0  0  0  0
   -5.1130   17.1000  -34.5810 C   0  0  0  0  0  0  0  0  0  0  0  0
   -6.3990   16.7100  -34.2130 C   0  0  0  0  0  0  0  0  0  0  0  0
   -7.1800   17.5410  -33.4050 C   0  0  0  0  0  0  0  0  0  0  0  0
   -6.6760   18.7750  -32.9540 C   0  0  0  0  0  0  0  0  0  0  0  0
   -7.5000   19.6590  -32.0970 C   0  0  0  0  0  0  0  0  0  0  0  0
   -8.6610   19.3020  -31.7540 O   0  0  0  0  0  0  0  0  0  0  0  0
   -2.1190   22.8950  -30.3810 C   0  0  0  0  0  0  0  0  0  0  0  0
   -0.1728   20.1303  -29.8649 H   0  0  0  0  0  0  0  0  0  0  0  0
   -1.3793   20.3261  -31.1812 H   0  0  0  0  0  0  0  0  0  0  0  0
    0.1188   21.3173  -31.1812 H   0  0  0  0  0  0  0  0  0  0  0  0
   -0.6139   21.1541  -27.8502 H   0  0  0  0  0  0  0  0  0  0  0  0
   -1.7321   22.9251  -26.5054 H   0  0  0  0  0  0  0  0  0  0  0  0
   -3.9170   25.5140  -27.7970 H   0  0  0  0  0  0  0  0  0  0  0  0
   -7.8624   23.7128  -29.8009 H   0  0  0  0  0  0  0  0  0  0  0  0
   -8.7604   21.5153  -30.5496 H   0  0  0  0  0  0  0  0  0  0  0  0
   -4.1469   22.9077  -31.8583 H   0  0  0  0  0  0  0  0  0  0  0  0
   -3.5829   18.6257  -34.4353 H   0  0  0  0  0  0  0  0  0  0  0  0
   -4.5014   16.4442  -35.2181 H   0  0  0  0  0  0  0  0  0  0  0  0
   -6.8004   15.7461  -34.5591 H   0  0  0  0  0  0  0  0  0  0  0  0
   -8.1953   17.2284  -33.1197 H   0  0  0  0  0  0  0  0  0  0  0  0
   -2.2243   22.8848  -31.4759 H   0  0  0  0  0  0  0  0  0  0  0  0
  1  2  1  0
  2  3  2  0
  3  4  1  0
  4  5  2  0
  5  6  1  0
  5  7  1  0
  7  8  1  0
  8  9  1  0
  9 10  2  0
  9 11  2  0
  9 12  1  0
 12 13  2  0
 13 14  1  0
 14 15  2  0
 15 16  1  0
 16 17  2  0
 16 18  1  0
 18 19  2  0
 18 20  1  0
 20 21  2  0
 21 22  1  0
 22 23  2  0
 23 24  1  0
 24 25  2  0
 25 26  1  0
 26 27  2  0
  7 28  2  0
 28  2  1  0
 17 12  1  0
 25 20  1  0
 26 15  1  0
  1 29  1  0
  1 30  1  0
  1 31  1  0
  3 32  1  0
  4 33  1  0
  6 34  1  0
 13 35  1  0
 14 36  1  0
 17 37  1  0
 21 38  1  0
 22 39  1  0
 23 40  1  0
 24 41  1  0
 28 42  1  0
M  CHG  1   8  -1
M  END
>  <UniqueID>  (2) 
2

>  <SMILES>  (2) 
Cc1ccc(O)c([N-]S(=O)(=O)c2ccc3c(c2)C(=O)c2ccccc2C3=O)c1

>  <Energy>  (2) 
54.279309419416784

>  <Genealogy>  (2) 
Cc1ccc(O)c([N-]S(=O)(=O)c2ccc3c(c2)C(=O)c2ccccc2C3=O)c1 (protonated)
Cc1ccc(O)c([N-]S(=O)(=O)c2ccc3c(c2)C(=O)c2ccccc2C3=O)c1 (3D coordinates assigned)
Cc1ccc(O)c([N-]S(=O)(=O)c2ccc3c(c2)C(=O)c2ccccc2C3=O)c1 (nonaromatic ring conformer: 54.279309419416784 kcal/mol)

>  <smiles>  (2) 
Cc1ccc(O)c(NS(=O)(=O)c2ccc3c(c2)C(=O)c2ccccc2C3=O)c1

>  <score_type>  (2) 
oracle

>  <origin>  (2) 
adgpu

>  <m_score__min__energy>  (2) 
-13.51

>  <m_primary>  (2) 
energy

$$$$
2:0
     RDKit          3D

 61 66  0  0  0  0  0  0  0  0999 V2000
   -6.0030   25.7310  -29.9470 O   0  0  0  0  0  0  0  0  0  0  0  0
   -5.2410   24.4380  -29.9560 S   0  0  0  0  0  0  0  0  0  0  0  0
   -4.0510   24.5860  -30.8590 O   0  0  0  0  0  0  0  0  0  0  0  0
   -4.6830   24.0990  -28.3480 N   0  0  0  0  0  0  0  0  0  0  0  0
   -3.3830   24.4280  -27.8510 C   0  0  0  0  0  0  0  0  0  0  0  0
   -3.1970   24.9460  -26.5380 C   0  0  0  0  0  0  0  0  0  0  0  0
   -1.9110   25.2990  -26.0820 C   0  0  0  0  0  0  0  0  0  0  0  0
   -0.8430   25.0840  -26.9510 C   0  0  0  0  0  0  0  0  0  0  0  0
    0.5060   25.3140  -26.8340 C   0  0  0  0  0  0  0  0  0  0  0  0
    1.1010   24.9120  -27.9900 N   0  0  0  0  0  0  0  0  0  0  0  0
    0.1780   24.4420  -28.8250 N   0  0  0  0  0  0  0  0  0  0  0  0
   -1.0090   24.5450  -28.1960 C   0  0  0  0  0  0  0  0  0  0  0  0
   -2.2660   24.1940  -28.6820 C   0  0  0  0  0  0  0  0  0  0  0  0
   -6.2940   23.1690  -30.5780 C   0  0  0  0  0  0  0  0  0  0  0  0
   -7.6130   23.0500  -30.0890 C   0  0  0  0  0  0  0  0  0  0  0  0
   -8.4430   22.0060  -30.5270 C   0  0  0  0  0  0  0  0  0  0  0  0
   -7.9290   21.1000  -31.4510 C   0  0  0  0  0  0  0  0  0  0  0  0
   -6.6450   21.2070  -31.9430 C   0  0  0  0  0  0  0  0  0  0  0  0
   -5.8060   22.2400  -31.5180 C   0  0  0  0  0  0  0  0  0  0  0  0
   -6.3260   20.1090  -32.8780 C   0  0  0  0  0  0  0  0  0  0  0  0
   -5.0890   20.0360  -33.6040 N   0  0  0  0  0  0  0  0  0  0  0  0
   -4.4810   18.8150  -34.0560 C   0  0  0  0  0  0  0  0  0  0  0  0
   -5.2490   17.7610  -34.5810 C   0  0  0  0  0  0  0  0  0  0  0  0
   -4.6380   16.5610  -34.9610 C   0  0  0  0  0  0  0  0  0  0  0  0
   -3.2540   16.3970  -34.8190 C   0  0  0  0  0  0  0  0  0  0  0  0
   -2.4810   14.8780  -35.2780 S   0  0  0  0  0  0  0  0  0  0  0  0
   -2.9570   14.4720  -36.6460 O   0  0  0  0  0  0  0  0  0  0  0  0
   -0.9920   15.0800  -35.3440 O   0  0  0  0  0  0  0  0  0  0  0  0
   -2.8420   13.5970  -34.1400 N   0  0  0  0  0  0  0  0  0  0  0  0
   -2.7900   14.0750  -32.7430 C   0  0  0  0  0  0  0  0  0  0  0  0
   -4.1940   14.2210  -32.1260 C   0  0  0  0  0  0  0  0  0  0  0  0
   -4.9470   13.0170  -32.1440 O   0  0  0  0  0  0  0  0  0  0  0  0
   -4.6800   12.1880  -33.2700 C   0  0  0  0  0  0  0  0  0  0  0  0
   -4.1190   12.9460  -34.4830 C   0  0  0  0  0  0  0  0  0  0  0  0
   -2.4890   17.4410  -34.2830 C   0  0  0  0  0  0  0  0  0  0  0  0
   -3.0990   18.6380  -33.8990 C   0  0  0  0  0  0  0  0  0  0  0  0
   -7.3040   19.2680  -33.0690 N   0  0  0  0  0  0  0  0  0  0  0  0
   -8.6870   19.7010  -32.1300 S   0  0  0  0  0  0  0  0  0  0  0  0
   -9.0110   18.6570  -31.0990 O   0  0  0  0  0  0  0  0  0  0  0  0
   -9.8650   20.0420  -32.9970 O   0  0  0  0  0  0  0  0  0  0  0  0
   -4.0646   25.0718  -25.8736 H   0  0  0  0  0  0  0  0  0  0  0  0
   -1.7565   25.7270  -25.0805 H   0  0  0  0  0  0  0  0  0  0  0  0
    1.0154   25.7467  -25.9603 H   0  0  0  0  0  0  0  0  0  0  0  0
   -2.3847   23.7489  -29.6809 H   0  0  0  0  0  0  0  0  0  0  0  0
   -7.9930   23.7805  -29.3596 H   0  0  0  0  0  0  0  0  0  0  0  0
   -9.4717   21.9064  -30.1504 H   0  0  0  0  0  0  0  0  0  0  0  0
   -4.7821   22.3265  -31.9105 H   0  0  0  0  0  0  0  0  0  0  0  0
   -4.6050   20.9350  -33.8280 H   0  0  0  0  0  0  0  0  0  0  0  0
   -6.3367   17.8804  -34.6937 H   0  0  0  0  0  0  0  0  0  0  0  0
   -5.2470   15.7429  -35.3730 H   0  0  0  0  0  0  0  0  0  0  0  0
   -2.2126   13.3558  -32.1436 H   0  0  0  0  0  0  0  0  0  0  0  0
   -2.3159   15.0676  -32.7428 H   0  0  0  0  0  0  0  0  0  0  0  0
   -4.0834   14.5473  -31.0813 H   0  0  0  0  0  0  0  0  0  0  0  0
   -4.7414   14.9550  -32.7356 H   0  0  0  0  0  0  0  0  0  0  0  0
   -3.9482   11.4231  -32.9710 H   0  0  0  0  0  0  0  0  0  0  0  0
   -5.6415   11.7541  -33.5818 H   0  0  0  0  0  0  0  0  0  0  0  0
   -3.9538   12.2373  -35.3079 H   0  0  0  0  0  0  0  0  0  0  0  0
   -4.8418   13.7182  -34.7851 H   0  0  0  0  0  0  0  0  0  0  0  0
   -1.4024   17.3178  -34.1638 H   0  0  0  0  0  0  0  0  0  0  0  0
   -2.4903   19.4477  -33.4702 H   0  0  0  0  0  0  0  0  0  0  0  0
   -7.2850   18.4760  -33.7490 H   0  0  0  0  0  0  0  0  0  0  0  0
  1  2  2  0
  2  3  2  0
  2  4  1  0
  4  5  1  0
  5  6  2  0
  6  7  1  0
  7  8  2  0
  8  9  1  0
  9 10  2  0
 10 11  1  0
 11 12  1  0
 12 13  2  0
  2 14  1  0
 14 15  2  0
 15 16  1  0
 16 17  2  0
 17 18  1  0
 18 19  2  0
 18 20  1  0
 20 21  1  0
 21 22  1  0
 22 23  2  0
 23 24  1  0
 24 25  2  0
 25 26  1  0
 26 27  2  0
 26 28  2  0
 26 29  1  0
 29 30  1  0
 30 31  1  0
 31 32  1  0
 32 33  1  0
 33 34  1  0
 25 35  1  0
 35 36  2  0
 20 37  2  0
 37 38  1  0
 38 39  2  0
 38 40  2  0
 13  5  1  0
 19 14  1  0
 36 22  1  0
 12  8  1  0
 38 17  1  0
 34 29  1  0
  6 41  1  0
  7 42  1  0
  9 43  1  0
 13 44  1  0
 15 45  1  0
 16 46  1  0
 19 47  1  0
 21 48  1  0
 23 49  1  0
 24 50  1  0
 30 51  1  0
 30 52  1  0
 31 53  1  0
 31 54  1  0
 33 55  1  0
 33 56  1  0
 34 57  1  0
 34 58  1  0
 35 59  1  0
 36 60  1  0
 37 61  1  0
M  CHG  3   4  -1  11  -1  37   1
M  END
>  <UniqueID>  (3) 
3

>  <SMILES>  (3) 
O=S(=O)([N-]c1ccc2cn[n-]c2c1)c1ccc2c(c1)C(Nc1ccc(S(=O)(=O)N3CCOCC3)cc1)=[NH+]S2(=O)=O

>  <Energy>  (3) 
154.36573207979518

>  <Genealogy>  (3) 
O=S(=O)([N-]c1ccc2cn[n-]c2c1)c1ccc2c(c1)C(Nc1ccc(S(=O)(=O)N3CCOCC3)cc1)=[NH+]S2(=O)=O (protonated)
O=S(=O)([N-]c1ccc2cn[n-]c2c1)c1ccc2c(c1)C(Nc1ccc(S(=O)(=O)N3CCOCC3)cc1)=[NH+]S2(=O)=O (3D coordinates assigned)
O=S(=O)([N-]c1ccc2cn[n-]c2c1)c1ccc2c(c1)C(Nc1ccc(S(=O)(=O)N3CCOCC3)cc1)=[NH+]S2(=O)=O (nonaromatic ring conformer: 154.36573207979518 kcal/mol)

>  <smiles>  (3) 
O=S1(=O)N=C(Nc2ccc(S(=O)(=O)N3CCOCC3)cc2)c2cc(S(=O)(=O)Nc3ccc4cn[nH]c4c3)ccc21

>  <score_type>  (3) 
oracle

>  <origin>  (3) 
adgpu

>  <m_score__min__energy>  (3) 
-12.800000000000001

>  <m_primary>  (3) 
energy

$$$$
3:0
     RDKit          3D

 58 61  0  0  0  0  0  0  0  0999 V2000
   -5.5160   26.1960  -30.0710 O   0  0  0  0  0  0  0  0  0  0  0  0
   -5.1440   25.2940  -30.8670 C   0  0  0  0  0  0  0  0  0  0  0  0
   -6.0830   24.7860  -31.8200 N   0  0  0  0  0  0  0  0  0  0  0  0
   -6.6400   23.4640  -31.8540 C   0  0  0  0  0  0  0  0  0  0  0  0
   -5.8480   22.4150  -32.3340 C   0  0  0  0  0  0  0  0  0  0  0  0
   -6.3650   21.1190  -32.4280 C   0  0  0  0  0  0  0  0  0  0  0  0
   -7.6920   20.8630  -32.0550 C   0  0  0  0  0  0  0  0  0  0  0  0
   -8.3600   19.2380  -32.1870 S   0  0  0  0  0  0  0  0  0  0  0  0
   -9.5520   19.2450  -33.1050 O   0  0  0  0  0  0  0  0  0  0  0  0
   -8.7970   18.7890  -30.8220 O   0  0  0  0  0  0  0  0  0  0  0  0
   -7.1430   18.1520  -32.8100 N   0  0  0  0  0  0  0  0  0  0  0  0
   -6.1410   17.8580  -31.7690 C   0  0  0  0  0  0  0  0  0  0  0  0
   -4.8630   17.2490  -32.3800 C   0  0  0  0  0  0  0  0  0  0  0  0
   -5.1290   16.7130  -33.6590 O   0  0  0  0  0  0  0  0  0  0  0  0
   -5.4610   17.7520  -34.5660 C   0  0  0  0  0  0  0  0  0  0  0  0
   -6.4990   18.7400  -33.9920 C   0  0  0  0  0  0  0  0  0  0  0  0
   -8.4970   21.9140  -31.6010 C   0  0  0  0  0  0  0  0  0  0  0  0
   -7.9790   23.2080  -31.5070 C   0  0  0  0  0  0  0  0  0  0  0  0
   -3.7980   24.7990  -30.8330 N   0  0  0  0  0  0  0  0  0  0  0  0
   -3.2210   23.9320  -29.8440 C   0  0  0  0  0  0  0  0  0  0  0  0
   -3.7460   22.6540  -29.5830 C   0  0  0  0  0  0  0  0  0  0  0  0
   -3.1600   21.8380  -28.6150 C   0  0  0  0  0  0  0  0  0  0  0  0
   -2.0670   22.2940  -27.8790 C   0  0  0  0  0  0  0  0  0  0  0  0
   -1.5600   23.5860  -28.0880 C   0  0  0  0  0  0  0  0  0  0  0  0
   -0.2230   24.1630  -27.0770 S   0  0  0  0  0  0  0  0  0  0  0  0
    0.6490   25.0960  -27.8690 O   0  0  0  0  0  0  0  0  0  0  0  0
    0.6200   22.9860  -26.6650 O   0  0  0  0  0  0  0  0  0  0  0  0
   -0.7980   24.9840  -25.6420 N   0  0  0  0  0  0  0  0  0  0  0  0
    0.1750   24.9040  -24.5330 C   0  0  0  0  0  0  0  0  0  0  0  0
    0.9470   26.2230  -24.3530 C   0  0  0  0  0  0  0  0  0  0  0  0
    0.1060   27.3380  -24.0900 O   0  0  0  0  0  0  0  0  0  0  0  0
   -1.1760   27.2480  -24.6990 C   0  0  0  0  0  0  0  0  0  0  0  0
   -1.2040   26.3680  -25.9570 C   0  0  0  0  0  0  0  0  0  0  0  0
   -2.1370   24.4000  -29.0850 C   0  0  0  0  0  0  0  0  0  0  0  0
   -1.6350   25.6720  -29.3380 O   0  0  0  0  0  0  0  0  0  0  0  0
   -4.8098   22.6115  -32.6400 H   0  0  0  0  0  0  0  0  0  0  0  0
   -5.7297   20.2994  -32.7951 H   0  0  0  0  0  0  0  0  0  0  0  0
   -5.8801   18.7913  -31.2485 H   0  0  0  0  0  0  0  0  0  0  0  0
   -6.5723   17.1293  -31.0668 H   0  0  0  0  0  0  0  0  0  0  0  0
   -4.0962   18.0327  -32.4690 H   0  0  0  0  0  0  0  0  0  0  0  0
   -4.5074   16.4406  -31.7242 H   0  0  0  0  0  0  0  0  0  0  0  0
   -4.5450   18.3089  -34.8126 H   0  0  0  0  0  0  0  0  0  0  0  0
   -5.9070   17.2840  -35.4560 H   0  0  0  0  0  0  0  0  0  0  0  0
   -5.9946   19.6749  -33.7063 H   0  0  0  0  0  0  0  0  0  0  0  0
   -7.2624   18.9500  -34.7556 H   0  0  0  0  0  0  0  0  0  0  0  0
   -9.5419   21.7203  -31.3170 H   0  0  0  0  0  0  0  0  0  0  0  0
   -8.6213   24.0308  -31.1599 H   0  0  0  0  0  0  0  0  0  0  0  0
   -4.6219   22.2963  -30.1441 H   0  0  0  0  0  0  0  0  0  0  0  0
   -3.5619   20.8306  -28.4316 H   0  0  0  0  0  0  0  0  0  0  0  0
   -1.5995   21.6375  -27.1304 H   0  0  0  0  0  0  0  0  0  0  0  0
   -0.3647   24.6775  -23.6016 H   0  0  0  0  0  0  0  0  0  0  0  0
    0.9011   24.1130  -24.7719 H   0  0  0  0  0  0  0  0  0  0  0  0
    1.6449   26.1064  -23.5108 H   0  0  0  0  0  0  0  0  0  0  0  0
    1.4684   26.4259  -25.3001 H   0  0  0  0  0  0  0  0  0  0  0  0
   -1.8796   26.8271  -23.9656 H   0  0  0  0  0  0  0  0  0  0  0  0
   -1.4536   28.2650  -25.0131 H   0  0  0  0  0  0  0  0  0  0  0  0
   -2.2245   26.3592  -26.3675 H   0  0  0  0  0  0  0  0  0  0  0  0
   -0.4976   26.7826  -26.6912 H   0  0  0  0  0  0  0  0  0  0  0  0
  1  2  2  0
  2  3  1  0
  3  4  1  0
  4  5  2  0
  5  6  1  0
  6  7  2  0
  7  8  1  0
  8  9  2  0
  8 10  2  0
  8 11  1  0
 11 12  1  0
 12 13  1  0
 13 14  1  0
 14 15  1  0
 15 16  1  0
  7 17  1  0
 17 18  2  0
  2 19  1  0
 19 20  1  0
 20 21  2  0
 21 22  1  0
 22 23  2  0
 23 24  1  0
 24 25  1  0
 25 26  2  0
 25 27  2  0
 25 28  1  0
 28 29  1  0
 29 30  1  0
 30 31  1  0
 31 32  1  0
 32 33  1  0
 24 34  2  0
 34 35  1  0
 18  4  1  0
 34 20  1  0
 16 11  1  0
 33 28  1  0
  5 36  1  0
  6 37  1  0
 12 38  1  0
 12 39  1  0
 13 40  1  0
 13 41  1  0
 15 42  1  0
 15 43  1  0
 16 44  1  0
 16 45  1  0
 17 46  1  0
 18 47  1  0
 21 48  1  0
 22 49  1  0
 23 50  1  0
 29 51  1  0
 29 52  1  0
 30 53  1  0
 30 54  1  0
 32 55  1  0
 32 56  1  0
 33 57  1  0
 33 58  1  0
M  CHG  3   3  -1  19  -1  35  -1
M  END
>  <UniqueID>  (4) 
4

>  <SMILES>  (4) 
O=C([N-]c1ccc(S(=O)(=O)N2CCOCC2)cc1)[N-]c1cccc(S(=O)(=O)N2CCOCC2)c1[O-]

>  <Energy>  (4) 
88.11452009329183

>  <Genealogy>  (4) 
O=C([N-]c1ccc(S(=O)(=O)N2CCOCC2)cc1)[N-]c1cccc(S(=O)(=O)N2CCOCC2)c1[O-] (protonated)
O=C([N-]c1ccc(S(=O)(=O)N2CCOCC2)cc1)[N-]c1cccc(S(=O)(=O)N2CCOCC2)c1[O-] (3D coordinates assigned)
O=C([N-]c1ccc(S(=O)(=O)N2CCOCC2)cc1)[N-]c1cccc(S(=O)(=O)N2CCOCC2)c1[O-] (nonaromatic ring conformer: 88.11452009329183 kcal/mol)

>  <smiles>  (4) 
O=C(Nc1ccc(S(=O)(=O)N2CCOCC2)cc1)Nc1cccc(S(=O)(=O)N2CCOCC2)c1O

>  <score_type>  (4) 
oracle

>  <origin>  (4) 
adgpu

>  <m_score__min__energy>  (4) 
-17.199999999999999

>  <m_primary>  (4) 
energy

$$$$
4:0
     RDKit          3D

 52 55  0  0  0  0  0  0  0  0999 V2000
   -2.5670   24.5380  -28.1750 C   0  0  0  0  0  0  0  0  0  0  0  0
   -3.1010   24.9510  -29.4300 O   0  0  0  0  0  0  0  0  0  0  0  0
   -4.1210   24.2780  -30.1200 C   0  0  0  0  0  0  0  0  0  0  0  0
   -3.8490   23.4190  -31.2030 C   0  0  0  0  0  0  0  0  0  0  0  0
   -4.8900   22.7520  -31.8700 C   0  0  0  0  0  0  0  0  0  0  0  0
   -4.5830   21.8940  -33.0750 C   0  0  0  0  0  0  0  0  0  0  0  0
   -3.5130   20.8010  -32.8040 C   0  0  2  0  0  0  0  0  0  0  0  0
   -2.1510   21.2050  -33.4390 C   0  0  0  0  0  0  0  0  0  0  0  0
   -1.2870   20.1180  -33.7500 O   0  0  0  0  0  0  0  0  0  0  0  0
   -1.4490   19.0480  -32.8440 C   0  0  0  0  0  0  0  0  0  0  0  0
   -2.8130   18.3940  -33.0740 C   0  0  0  0  0  0  0  0  0  0  0  0
   -3.8580   19.4200  -33.2190 N   0  0  0  0  0  0  0  0  0  0  0  0
   -5.0610   19.0440  -33.9200 C   0  0  0  0  0  0  0  0  0  0  0  0
   -4.9820   18.5550  -35.0780 O   0  0  0  0  0  0  0  0  0  0  0  0
   -6.3710   18.9950  -33.2300 C   0  0  0  0  0  0  0  0  0  0  0  0
   -7.0780   20.2040  -33.1010 C   0  0  0  0  0  0  0  0  0  0  0  0
   -8.2990   20.2510  -32.4280 C   0  0  0  0  0  0  0  0  0  0  0  0
   -8.8280   19.0940  -31.8630 C   0  0  0  0  0  0  0  0  0  0  0  0
   -8.1370   17.8870  -31.9690 C   0  0  0  0  0  0  0  0  0  0  0  0
   -6.9080   17.8150  -32.6490 C   0  0  0  0  0  0  0  0  0  0  0  0
   -6.2270   16.5500  -32.6990 N   0  0  0  0  0  0  0  0  0  0  0  0
   -6.1660   15.7350  -33.7720 C   0  0  0  0  0  0  0  0  0  0  0  0
   -5.2660   14.7280  -33.5070 C   0  0  0  0  0  0  0  0  0  0  0  0
   -4.8000   14.9980  -32.2360 C   0  0  0  0  0  0  0  0  0  0  0  0
   -5.3890   16.1160  -31.7710 N   0  0  0  0  0  0  0  0  0  0  0  0
   -6.2140   22.9640  -31.4560 C   0  0  0  0  0  0  0  0  0  0  0  0
   -6.4890   23.8050  -30.3780 C   0  0  0  0  0  0  0  0  0  0  0  0
   -5.4540   24.4630  -29.7090 C   0  0  0  0  0  0  0  0  0  0  0  0
   -5.7670   25.2950  -28.6360 O   0  0  0  0  0  0  0  0  0  0  0  0
   -3.1521   24.9905  -27.3608 H   0  0  0  0  0  0  0  0  0  0  0  0
   -2.6178   23.4419  -28.0977 H   0  0  0  0  0  0  0  0  0  0  0  0
   -1.5189   24.8628  -28.0977 H   0  0  0  0  0  0  0  0  0  0  0  0
   -2.8095   23.2688  -31.5301 H   0  0  0  0  0  0  0  0  0  0  0  0
   -5.5118   21.3995  -33.3955 H   0  0  0  0  0  0  0  0  0  0  0  0
   -4.1748   22.5599  -33.8495 H   0  0  0  0  0  0  0  0  0  0  0  0
   -3.4541   20.7605  -31.7063 H   0  0  0  0  0  0  0  0  0  0  0  0
   -2.3577   21.7538  -34.3697 H   0  0  0  0  0  0  0  0  0  0  0  0
   -1.6264   21.8086  -32.6837 H   0  0  0  0  0  0  0  0  0  0  0  0
   -0.6535   18.3057  -33.0057 H   0  0  0  0  0  0  0  0  0  0  0  0
   -1.3903   19.4259  -31.8126 H   0  0  0  0  0  0  0  0  0  0  0  0
   -2.7732   17.7858  -33.9897 H   0  0  0  0  0  0  0  0  0  0  0  0
   -3.0543   17.7599  -32.2082 H   0  0  0  0  0  0  0  0  0  0  0  0
   -6.6626   21.1247  -33.5366 H   0  0  0  0  0  0  0  0  0  0  0  0
   -8.8440   21.2028  -32.3438 H   0  0  0  0  0  0  0  0  0  0  0  0
   -9.7911   19.1316  -31.3329 H   0  0  0  0  0  0  0  0  0  0  0  0
   -8.5592   16.9787  -31.5144 H   0  0  0  0  0  0  0  0  0  0  0  0
   -6.7395   15.8551  -34.7030 H   0  0  0  0  0  0  0  0  0  0  0  0
   -4.9810   13.8924  -34.1632 H   0  0  0  0  0  0  0  0  0  0  0  0
   -4.0620   14.3936  -31.6881 H   0  0  0  0  0  0  0  0  0  0  0  0
   -7.0392   22.4643  -31.9845 H   0  0  0  0  0  0  0  0  0  0  0  0
   -7.5293   23.9514  -30.0518 H   0  0  0  0  0  0  0  0  0  0  0  0
   -5.0560   25.6870  -28.0300 H   0  0  0  0  0  0  0  0  0  0  0  0
  1  2  1  0
  2  3  1  0
  3  4  2  0
  4  5  1  0
  5  6  1  0
  6  7  1  0
  7  8  1  0
  8  9  1  0
  9 10  1  0
 10 11  1  0
 11 12  1  0
 12 13  1  0
 13 14  2  0
 13 15  1  0
 15 16  2  0
 16 17  1  0
 17 18  2  0
 18 19  1  0
 19 20  2  0
 20 21  1  0
 21 22  1  0
 22 23  2  0
 23 24  1  0
 24 25  2  0
  5 26  2  0
 26 27  1  0
 27 28  2  0
 28 29  1  0
 28  3  1  0
 12  7  1  0
 20 15  1  0
 25 21  1  0
  1 30  1  0
  1 31  1  0
  1 32  1  0
  4 33  1  0
  6 34  1  0
  6 35  1  0
  7 36  1  1
  8 37  1  0
  8 38  1  0
 10 39  1  0
 10 40  1  0
 11 41  1  0
 11 42  1  0
 16 43  1  0
 17 44  1  0
 18 45  1  0
 19 46  1  0
 22 47  1  0
 23 48  1  0
 24 49  1  0
 26 50  1  0
 27 51  1  0
 29 52  1  0
M  END
>  <UniqueID>  (5) 
5

>  <SMILES>  (5) 
COc1cc(C[C@@H]2COCCN2C(=O)c2ccccc2-n2cccn2)ccc1O

>  <Energy>  (5) 
108.47992860327565

>  <Genealogy>  (5) 
COc1cc(C[C@@H]2COCCN2C(=O)c2ccccc2-n2cccn2)ccc1O (chirality)
COc1cc(C[C@@H]2COCCN2C(=O)c2ccccc2-n2cccn2)ccc1O (3D coordinates assigned)
COc1cc(C[C@@H]2COCCN2C(=O)c2ccccc2-n2cccn2)ccc1O (nonaromatic ring conformer: 108.47992860327565 kcal/mol)

>  <smiles>  (5) 
COc1cc(CC2COCCN2C(=O)c2ccccc2-n2cccn2)ccc1O

>  <score_type>  (5) 
oracle

>  <origin>  (5) 
adgpu

>  <m_score__min__energy>  (5) 
-9.5399999999999991

>  <m_primary>  (5) 
energy

$$$$
5:0
     RDKit          3D

 38 40  0  0  0  0  0  0  0  0999 V2000
   -7.7990   19.9870  -32.5910 C   0  0  0  0  0  0  0  0  0  0  0  0
   -7.1660   21.2260  -32.0310 C   0  0  0  0  0  0  0  0  0  0  0  0
   -7.8580   22.0130  -31.0990 C   0  0  0  0  0  0  0  0  0  0  0  0
   -7.2780   23.1810  -30.5940 C   0  0  0  0  0  0  0  0  0  0  0  0
   -6.0070   23.5810  -31.0260 C   0  0  0  0  0  0  0  0  0  0  0  0
   -5.3000   25.0630  -30.3910 S   0  0  0  0  0  0  0  0  0  0  0  0
   -5.7380   26.2130  -31.2520 O   0  0  0  0  0  0  0  0  0  0  0  0
   -5.7550   25.3170  -28.9800 O   0  0  0  0  0  0  0  0  0  0  0  0
   -3.5700   24.9510  -30.4250 N   0  0  0  0  0  0  0  0  0  0  0  0
   -2.7710   24.1760  -29.5180 C   0  0  0  0  0  0  0  0  0  0  0  0
   -3.1260   22.8670  -29.1480 C   0  0  0  0  0  0  0  0  0  0  0  0
   -2.3230   22.1310  -28.2650 C   0  0  0  0  0  0  0  0  0  0  0  0
   -1.1730   22.7260  -27.7060 C   0  0  0  0  0  0  0  0  0  0  0  0
   -0.8130   24.0250  -28.0880 C   0  0  0  0  0  0  0  0  0  0  0  0
   -1.6090   24.7480  -28.9840 C   0  0  0  0  0  0  0  0  0  0  0  0
   -1.2400   26.0400  -29.3390 O   0  0  0  0  0  0  0  0  0  0  0  0
   -0.2820   21.9550  -26.7670 C   0  0  0  0  0  0  0  0  0  0  0  0
   -0.9900   20.7220  -26.1960 C   0  0  0  0  0  0  0  0  0  0  0  0
   -1.6620   19.9660  -27.2590 N   0  0  0  0  0  0  0  0  0  0  0  0
   -2.7610   20.7490  -27.8390 C   0  0  0  0  0  0  0  0  0  0  0  0
   -5.3230   22.8080  -31.9740 C   0  0  0  0  0  0  0  0  0  0  0  0
   -5.9010   21.6400  -32.4790 C   0  0  0  0  0  0  0  0  0  0  0  0
   -8.1299   19.3393  -31.7658 H   0  0  0  0  0  0  0  0  0  0  0  0
   -8.6655   20.2651  -33.2090 H   0  0  0  0  0  0  0  0  0  0  0  0
   -7.0659   19.4479  -33.2090 H   0  0  0  0  0  0  0  0  0  0  0  0
   -8.8610   21.7103  -30.7639 H   0  0  0  0  0  0  0  0  0  0  0  0
   -7.8218   23.7877  -29.8550 H   0  0  0  0  0  0  0  0  0  0  0  0
   -4.0428   22.4157  -29.5552 H   0  0  0  0  0  0  0  0  0  0  0  0
    0.1019   24.4800  -27.6808 H   0  0  0  0  0  0  0  0  0  0  0  0
    0.6150   21.6292  -27.3141 H   0  0  0  0  0  0  0  0  0  0  0  0
   -0.0152   22.6154  -25.9287 H   0  0  0  0  0  0  0  0  0  0  0  0
   -0.2474   20.0741  -25.7073 H   0  0  0  0  0  0  0  0  0  0  0  0
   -1.7458   21.0552  -25.4695 H   0  0  0  0  0  0  0  0  0  0  0  0
   -0.9690   19.7450  -28.0130 H   0  0  0  0  0  0  0  0  0  0  0  0
   -3.1491   20.2148  -28.7188 H   0  0  0  0  0  0  0  0  0  0  0  0
   -3.5335   20.8664  -27.0648 H   0  0  0  0  0  0  0  0  0  0  0  0
   -4.3277   23.1217  -32.3218 H   0  0  0  0  0  0  0  0  0  0  0  0
   -5.3632   21.0428  -33.2301 H   0  0  0  0  0  0  0  0  0  0  0  0
  1  2  1  0
  2  3  2  0
  3  4  1  0
  4  5  2  0
  5  6  1  0
  6  7  2  0
  6  8  2  0
  6  9  1  0
  9 10  1  0
 10 11  2  0
 11 12  1  0
 12 13  2  0
 13 14  1  0
 14 15  2  0
 15 16  1  0
 13 17  1  0
 17 18  1  0
 18 19  1  0
 19 20  1  0
  5 21  1  0
 21 22  2  0
 22  2  1  0
 15 10  1  0
 20 12  1  0
  1 23  1  0
  1 24  1  0
  1 25  1  0
  3 26  1  0
  4 27  1  0
 11 28  1  0
 14 29  1  0
 17 30  1  0
 17 31  1  0
 18 32  1  0
 18 33  1  0
 19 34  1  0
 20 35  1  0
 20 36  1  0
 21 37  1  0
 22 38  1  0
M  CHG  2   9  -1  16  -1
M  END
>  <UniqueID>  (6) 
6

>  <SMILES>  (6) 
Cc1ccc(S(=O)(=O)[N-]c2cc3c(cc2[O-])CCNC3)cc1

>  <Energy>  (6) 
43.92329472204729

>  <Genealogy>  (6) 
Cc1ccc(S(=O)(=O)[N-]c2cc3c(cc2[O-])CCNC3)cc1 (protonated)
Cc1ccc(S(=O)(=O)[N-]c2cc3c(cc2[O-])CCNC3)cc1 (3D coordinates assigned)
Cc1ccc(S(=O)(=O)[N-]c2cc3c(cc2[O-])CCNC3)cc1 (nonaromatic ring conformer: 43.92329472204729 kcal/mol)

>  <smiles>  (6) 
Cc1ccc(S(=O)(=O)Nc2cc3c(cc2O)CCNC3)cc1

>  <score_type>  (6) 
oracle

>  <origin>  (6) 
adgpu

>  <m_score__min__energy>  (6) 
-12.94

>  <m_primary>  (6) 
energy

$$$$
6:0
     RDKit          3D

 71 76  0  0  0  0  0  0  0  0999 V2000
   -9.1020   18.6150  -31.2330 C   0  0  0  0  0  0  0  0  0  0  0  0
   -7.9830   18.6200  -32.2270 C   0  0  0  0  0  0  0  0  0  0  0  0
   -7.2790   17.5220  -32.5660 N   0  0  0  0  0  0  0  0  0  0  0  0
   -6.3220   17.8980  -33.4040 N   0  0  0  0  0  0  0  0  0  0  0  0
   -5.3550   16.9870  -33.9680 C   0  0  0  0  0  0  0  0  0  0  0  0
   -4.2710   17.4570  -34.7380 C   0  0  0  0  0  0  0  0  0  0  0  0
   -3.3490   16.5600  -35.2820 C   0  0  0  0  0  0  0  0  0  0  0  0
   -3.4990   15.1850  -35.0750 C   0  0  0  0  0  0  0  0  0  0  0  0
   -4.5750   14.7060  -34.3210 C   0  0  0  0  0  0  0  0  0  0  0  0
   -5.4990   15.5990  -33.7720 C   0  0  0  0  0  0  0  0  0  0  0  0
   -6.3850   19.2360  -33.5950 C   0  0  0  0  0  0  0  0  0  0  0  0
   -7.4420   19.7270  -32.8560 C   0  0  0  0  0  0  0  0  0  0  0  0
   -7.8340   21.1670  -32.6840 C   0  0  0  0  0  0  0  0  0  0  0  0
   -6.9150   21.8410  -31.7450 N   0  0  0  0  0  0  0  0  0  0  0  0
   -7.3420   23.2310  -31.5050 C   0  0  0  0  0  0  0  0  0  0  0  0
   -6.5560   23.8110  -30.3240 C   0  0  0  0  0  0  0  0  0  0  0  0
   -5.0770   23.5310  -30.4350 C   0  0  0  0  0  0  0  0  0  0  0  0
   -4.1850   24.1840  -29.5710 C   0  0  0  0  0  0  0  0  0  0  0  0
   -2.8140   23.8990  -29.6180 C   0  0  0  0  0  0  0  0  0  0  0  0
   -1.7210   24.6650  -28.4740 S   0  0  0  0  0  0  0  0  0  0  0  0
   -2.3920   24.8270  -27.1400 O   0  0  0  0  0  0  0  0  0  0  0  0
   -1.3410   26.0310  -28.9740 O   0  0  0  0  0  0  0  0  0  0  0  0
   -0.2870   23.7000  -28.3470 N   0  0  0  0  0  0  0  0  0  0  0  0
   -0.2680   22.2870  -28.1070 C   0  0  0  0  0  0  0  0  0  0  0  0
    0.2330   21.3950  -29.0690 C   0  0  0  0  0  0  0  0  0  0  0  0
    0.1580   20.0080  -28.8700 C   0  0  0  0  0  0  0  0  0  0  0  0
   -0.3850   19.5050  -27.6720 C   0  0  0  0  0  0  0  0  0  0  0  0
   -0.8890   20.3980  -26.7140 C   0  0  0  0  0  0  0  0  0  0  0  0
   -0.8380   21.7800  -26.9260 C   0  0  0  0  0  0  0  0  0  0  0  0
   -1.3520   22.6310  -25.9450 O   0  0  0  0  0  0  0  0  0  0  0  0
   -0.5570   18.0180  -27.4560 C   0  0  0  0  0  0  0  0  0  0  0  0
    0.2970   17.1970  -28.3370 N   0  0  0  0  0  0  0  0  0  0  0  0
    1.6850   17.1250  -27.8440 C   0  0  0  0  0  0  0  0  0  0  0  0
    0.2120   17.6450  -29.7410 C   0  0  0  0  0  0  0  0  0  0  0  0
    0.7060   19.0840  -29.9270 C   0  0  0  0  0  0  0  0  0  0  0  0
   -2.3310   22.9540  -30.5310 C   0  0  0  0  0  0  0  0  0  0  0  0
   -3.2140   22.2890  -31.3870 C   0  0  0  0  0  0  0  0  0  0  0  0
   -4.5900   22.5510  -31.3260 C   0  0  0  0  0  0  0  0  0  0  0  0
   -5.5270   21.8290  -32.2610 C   0  0  0  0  0  0  0  0  0  0  0  0
   -8.6874   18.6169  -30.2141 H   0  0  0  0  0  0  0  0  0  0  0  0
   -9.7245   19.5104  -31.3772 H   0  0  0  0  0  0  0  0  0  0  0  0
   -9.7165   17.7141  -31.3772 H   0  0  0  0  0  0  0  0  0  0  0  0
   -4.1509   18.5366  -34.9112 H   0  0  0  0  0  0  0  0  0  0  0  0
   -2.5023   16.9361  -35.8750 H   0  0  0  0  0  0  0  0  0  0  0  0
   -2.7713   14.4810  -35.5049 H   0  0  0  0  0  0  0  0  0  0  0  0
   -4.6942   13.6244  -34.1598 H   0  0  0  0  0  0  0  0  0  0  0  0
   -6.3449   15.2157  -33.1825 H   0  0  0  0  0  0  0  0  0  0  0  0
   -5.7105   19.8296  -34.2295 H   0  0  0  0  0  0  0  0  0  0  0  0
   -7.7914   21.6735  -33.6595 H   0  0  0  0  0  0  0  0  0  0  0  0
   -8.8557   21.2132  -32.2790 H   0  0  0  0  0  0  0  0  0  0  0  0
   -7.1498   23.8340  -32.4047 H   0  0  0  0  0  0  0  0  0  0  0  0
   -8.4173   23.2492  -31.2737 H   0  0  0  0  0  0  0  0  0  0  0  0
   -6.7099   24.8998  -30.2958 H   0  0  0  0  0  0  0  0  0  0  0  0
   -6.9236   23.3325  -29.4043 H   0  0  0  0  0  0  0  0  0  0  0  0
   -4.5646   24.9247  -28.8518 H   0  0  0  0  0  0  0  0  0  0  0  0
    0.6896   21.7882  -29.9893 H   0  0  0  0  0  0  0  0  0  0  0  0
   -1.3295   20.0067  -25.7851 H   0  0  0  0  0  0  0  0  0  0  0  0
   -1.4530   23.6290  -26.0840 H   0  0  0  0  0  0  0  0  0  0  0  0
   -0.3054   17.7857  -26.4107 H   0  0  0  0  0  0  0  0  0  0  0  0
   -1.6023   17.7729  -27.6952 H   0  0  0  0  0  0  0  0  0  0  0  0
    1.6839   17.1251  -26.7440 H   0  0  0  0  0  0  0  0  0  0  0  0
    2.1567   16.2012  -28.2101 H   0  0  0  0  0  0  0  0  0  0  0  0
    2.2498   17.9951  -28.2101 H   0  0  0  0  0  0  0  0  0  0  0  0
    0.8269   16.9775  -30.3625 H   0  0  0  0  0  0  0  0  0  0  0  0
   -0.8463   17.6129  -30.0394 H   0  0  0  0  0  0  0  0  0  0  0  0
    1.8046   19.0927  -29.8719 H   0  0  0  0  0  0  0  0  0  0  0  0
    0.3549   19.4407  -30.9065 H   0  0  0  0  0  0  0  0  0  0  0  0
   -1.2541   22.7342  -30.5750 H   0  0  0  0  0  0  0  0  0  0  0  0
   -2.8275   21.5571  -32.1115 H   0  0  0  0  0  0  0  0  0  0  0  0
   -5.5053   22.3239  -33.2431 H   0  0  0  0  0  0  0  0  0  0  0  0
   -5.1965   20.7832  -32.3455 H   0  0  0  0  0  0  0  0  0  0  0  0
  1  2  1  0
  2  3  2  0
  3  4  1  0
  4  5  1  0
  5  6  2  0
  6  7  1  0
  7  8  2  0
  8  9  1  0
  9 10  2  0
  4 11  1  0
 11 12  2  0
 12 13  1  0
 13 14  1  0
 14 15  1  0
 15 16  1  0
 16 17  1  0
 17 18  2  0
 18 19  1  0
 19 20  1  0
 20 21  2  0
 20 22  2  0
 20 23  1  0
 23 24  1  0
 24 25  2  0
 25 26  1  0
 26 27  2  0
 27 28  1  0
 28 29  2  0
 29 30  1  0
 27 31  1  0
 31 32  1  0
 32 33  1  0
 32 34  1  0
 34 35  1  0
 19 36  2  0
 36 37  1  0
 37 38  2  0
 38 39  1  0
 12  2  1  0
 39 14  1  0
 10  5  1  0
 38 17  1  0
 29 24  1  0
 35 26  1  0
  1 40  1  0
  1 41  1  0
  1 42  1  0
  6 43  1  0
  7 44  1  0
  8 45  1  0
  9 46  1  0
 10 47  1  0
 11 48  1  0
 13 49  1  0
 13 50  1  0
 15 51  1  0
 15 52  1  0
 16 53  1  0
 16 54  1  0
 18 55  1  0
 25 56  1  0
 28 57  1  0
 30 58  1  0
 31 59  1  0
 31 60  1  0
 33 61  1  0
 33 62  1  0
 33 63  1  0
 34 64  1  0
 34 65  1  0
 35 66  1  0
 35 67  1  0
 36 68  1  0
 37 69  1  0
 39 70  1  0
 39 71  1  0
M  CHG  1  23  -1
M  END
>  <UniqueID>  (7) 
7

>  <SMILES>  (7) 
Cc1nn(-c2ccccc2)cc1CN1CCc2cc(S(=O)(=O)[N-]c3cc4c(cc3O)CN(C)CC4)ccc2C1

>  <Energy>  (7) 
123.7105006301417

>  <Genealogy>  (7) 
Cc1nn(-c2ccccc2)cc1CN1CCc2cc(S(=O)(=O)[N-]c3cc4c(cc3O)CN(C)CC4)ccc2C1 (protonated)
Cc1nn(-c2ccccc2)cc1CN1CCc2cc(S(=O)(=O)[N-]c3cc4c(cc3O)CN(C)CC4)ccc2C1 (3D coordinates assigned)
Cc1nn(-c2ccccc2)cc1CN1CCc2cc(S(=O)(=O)[N-]c3cc4c(cc3O)CN(C)CC4)ccc2C1 (nonaromatic ring conformer: 123.7105006301417 kcal/mol)

>  <smiles>  (7) 
Cc1nn(-c2ccccc2)cc1CN1CCc2cc(S(=O)(=O)Nc3cc4c(cc3O)CN(C)CC4)ccc2C1

>  <score_type>  (7) 
oracle

>  <origin>  (7) 
adgpu

>  <m_score__min__energy>  (7) 
-13.960000000000001

>  <m_primary>  (7) 
energy

$$$$
7:0
     RDKit          3D

 51 54  0  0  0  0  0  0  0  0999 V2000
   -1.4830   26.2370  -25.9150 C   0  0  0  0  0  0  0  0  0  0  0  0
   -1.3110   25.6490  -27.2770 C   0  0  0  0  0  0  0  0  0  0  0  0
   -1.2360   26.3790  -28.4060 N   0  0  0  0  0  0  0  0  0  0  0  0
   -1.0970   25.5400  -29.3910 O   0  0  0  0  0  0  0  0  0  0  0  0
   -1.0820   24.3000  -28.9630 C   0  0  0  0  0  0  0  0  0  0  0  0
   -0.9650   23.2920  -29.7750 N   0  0  0  0  0  0  0  0  0  0  0  0
   -0.9580   21.6000  -29.3890 S   0  0  0  0  0  0  0  0  0  0  0  0
   -2.2500   21.1910  -28.7390 O   0  0  0  0  0  0  0  0  0  0  0  0
    0.1970   21.2960  -28.4750 O   0  0  0  0  0  0  0  0  0  0  0  0
   -0.7780   20.7010  -30.8950 C   0  0  0  0  0  0  0  0  0  0  0  0
    0.2570   19.7750  -31.0960 C   0  0  0  0  0  0  0  0  0  0  0  0
    0.2850   19.2380  -32.3760 C   0  0  0  0  0  0  0  0  0  0  0  0
   -0.9720   19.9180  -33.2580 S   0  0  0  0  0  0  0  0  0  0  0  0
   -1.5780   20.8930  -32.0270 C   0  0  0  0  0  0  0  0  0  0  0  0
   -2.7450   21.7890  -32.1570 C   0  0  0  0  0  0  0  0  0  0  0  0
   -3.3230   21.9020  -33.2710 O   0  0  0  0  0  0  0  0  0  0  0  0
   -3.2100   22.5550  -31.0350 N   0  0  0  0  0  0  0  0  0  0  0  0
   -4.5310   23.1210  -30.9820 C   0  0  0  0  0  0  0  0  0  0  0  0
   -5.6660   22.3160  -31.1910 C   0  0  0  0  0  0  0  0  0  0  0  0
   -6.9510   22.8720  -31.1660 C   0  0  0  0  0  0  0  0  0  0  0  0
   -8.3620   21.8590  -31.4920 S   0  0  0  0  0  0  0  0  0  0  0  0
   -9.4600   22.7110  -32.0650 O   0  0  0  0  0  0  0  0  0  0  0  0
   -8.8570   21.2710  -30.1990 O   0  0  0  0  0  0  0  0  0  0  0  0
   -7.9940   20.5710  -32.6200 N   0  0  0  0  0  0  0  0  0  0  0  0
   -9.1090   19.6170  -32.7340 C   0  0  0  0  0  0  0  0  0  0  0  0
   -8.6590   18.2710  -32.1810 C   0  0  0  0  0  0  0  0  0  0  0  0
   -7.3210   18.5290  -31.5300 C   0  0  0  0  0  0  0  0  0  0  0  0
   -6.8230   19.8040  -32.1800 C   0  0  0  0  0  0  0  0  0  0  0  0
   -7.1060   24.2370  -30.8930 C   0  0  0  0  0  0  0  0  0  0  0  0
   -5.9870   25.0380  -30.6480 C   0  0  0  0  0  0  0  0  0  0  0  0
   -4.7030   24.4860  -30.6890 C   0  0  0  0  0  0  0  0  0  0  0  0
   -3.6010   25.3000  -30.4540 O   0  0  0  0  0  0  0  0  0  0  0  0
   -1.2150   24.3040  -27.5780 C   0  0  0  0  0  0  0  0  0  0  0  0
   -1.2130   22.9930  -26.4070 Cl  0  0  0  0  0  0  0  0  0  0  0  0
   -1.2597   25.4736  -25.1552 H   0  0  0  0  0  0  0  0  0  0  0  0
   -0.7960   27.0874  -25.7933 H   0  0  0  0  0  0  0  0  0  0  0  0
   -2.5200   26.5831  -25.7933 H   0  0  0  0  0  0  0  0  0  0  0  0
    0.9787   19.5003  -30.3126 H   0  0  0  0  0  0  0  0  0  0  0  0
    1.0061   18.4953  -32.7482 H   0  0  0  0  0  0  0  0  0  0  0  0
   -2.5540   22.7470  -30.2450 H   0  0  0  0  0  0  0  0  0  0  0  0
   -5.5426   21.2387  -31.3760 H   0  0  0  0  0  0  0  0  0  0  0  0
   -9.9709   19.9845  -32.1576 H   0  0  0  0  0  0  0  0  0  0  0  0
   -9.4036   19.5093  -33.7883 H   0  0  0  0  0  0  0  0  0  0  0  0
   -9.3817   17.8989  -31.4399 H   0  0  0  0  0  0  0  0  0  0  0  0
   -8.5883   17.5085  -32.9707 H   0  0  0  0  0  0  0  0  0  0  0  0
   -7.4364   18.6652  -30.4446 H   0  0  0  0  0  0  0  0  0  0  0  0
   -6.6219   17.6904  -31.6638 H   0  0  0  0  0  0  0  0  0  0  0  0
   -6.2421   20.3918  -31.4540 H   0  0  0  0  0  0  0  0  0  0  0  0
   -6.1734   19.5700  -33.0363 H   0  0  0  0  0  0  0  0  0  0  0  0
   -8.1124   24.6805  -30.8713 H   0  0  0  0  0  0  0  0  0  0  0  0
   -6.1170   26.1067  -30.4221 H   0  0  0  0  0  0  0  0  0  0  0  0
  1  2  1  0
  2  3  1  0
  3  4  1  0
  4  5  1  0
  5  6  2  3
  6  7  1  0
  7  8  2  0
  7  9  2  0
  7 10  1  0
 10 11  1  0
 11 12  2  0
 12 13  1  0
 13 14  1  0
 14 15  1  0
 15 16  2  0
 15 17  1  0
 17 18  1  0
 18 19  2  0
 19 20  1  0
 20 21  1  0
 21 22  2  0
 21 23  2  0
 21 24  1  0
 24 25  1  0
 25 26  1  0
 26 27  1  0
 27 28  1  0
 20 29  2  0
 29 30  1  0
 30 31  2  0
 31 32  1  0
  5 33  1  0
 33 34  1  0
 33  2  2  0
 14 10  2  0
 31 18  1  0
 28 24  1  0
  1 35  1  0
  1 36  1  0
  1 37  1  0
 11 38  1  0
 12 39  1  0
 17 40  1  0
 19 41  1  0
 25 42  1  0
 25 43  1  0
 26 44  1  0
 26 45  1  0
 27 46  1  0
 27 47  1  0
 28 48  1  0
 28 49  1  0
 29 50  1  0
 30 51  1  0
M  CHG  2   3  -1  32  -1
M  END
>  <UniqueID>  (8) 
8

>  <SMILES>  (8) 
Cc1[n-]oc(=NS(=O)(=O)c2ccsc2C(=O)Nc2cc(S(=O)(=O)N3CCCC3)ccc2[O-])c1Cl

>  <Energy>  (8) 
122.03953070820033

>  <Genealogy>  (8) 
Cc1[n-]oc(=NS(=O)(=O)c2ccsc2C(=O)Nc2cc(S(=O)(=O)N3CCCC3)ccc2[O-])c1Cl (protonated)
Cc1[n-]oc(=NS(=O)(=O)c2ccsc2C(=O)Nc2cc(S(=O)(=O)N3CCCC3)ccc2[O-])c1Cl (3D coordinates assigned)
Cc1[n-]oc(=NS(=O)(=O)c2ccsc2C(=O)Nc2cc(S(=O)(=O)N3CCCC3)ccc2[O-])c1Cl (nonaromatic ring conformer: 122.03953070820033 kcal/mol)

>  <smiles>  (8) 
Cc1[nH]oc(=NS(=O)(=O)c2ccsc2C(=O)Nc2cc(S(=O)(=O)N3CCCC3)ccc2O)c1Cl

>  <score_type>  (8) 
oracle

>  <origin>  (8) 
adgpu

>  <m_score__min__energy>  (8) 
-15.99

>  <m_primary>  (8) 
energy

$$$$
8:0
     RDKit          3D

 57 60  0  0  0  0  0  0  0  0999 V2000
   -1.2460   21.9130  -32.5460 O   0  0  0  0  0  0  0  0  0  0  0  0
   -2.4750   21.6980  -32.3320 C   0  0  0  0  0  0  0  0  0  0  0  0
   -3.2280   22.6030  -31.5170 N   0  0  0  0  0  0  0  0  0  0  0  0
   -2.9350   22.9280  -30.1530 C   0  0  0  0  0  0  0  0  0  0  0  0
   -2.5690   21.8930  -29.2810 C   0  0  0  0  0  0  0  0  0  0  0  0
   -2.1800   22.1720  -27.9620 C   0  0  0  0  0  0  0  0  0  0  0  0
   -1.6330   20.8660  -26.9020 S   0  0  0  0  0  0  0  0  0  0  0  0
   -2.7770   19.9190  -26.6650 O   0  0  0  0  0  0  0  0  0  0  0  0
   -1.2280   21.4480  -25.5750 O   0  0  0  0  0  0  0  0  0  0  0  0
   -0.2800   19.9800  -27.5670 N   0  0  0  0  0  0  0  0  0  0  0  0
   -0.5930   18.5650  -27.7540 C   0  0  0  0  0  0  0  0  0  0  0  0
    0.3160   18.0630  -28.8600 C   0  0  0  0  0  0  0  0  0  0  0  0
    0.6870   19.3030  -29.6590 C   0  0  0  0  0  0  0  0  0  0  0  0
    0.1210   20.4870  -28.8800 C   0  0  0  0  0  0  0  0  0  0  0  0
   -2.2240   23.4920  -27.4960 C   0  0  0  0  0  0  0  0  0  0  0  0
   -2.6530   24.5230  -28.3370 C   0  0  0  0  0  0  0  0  0  0  0  0
   -3.0140   24.2480  -29.6610 C   0  0  0  0  0  0  0  0  0  0  0  0
   -3.4770   25.2810  -30.4680 O   0  0  0  0  0  0  0  0  0  0  0  0
   -3.1150   20.4800  -32.8760 C   0  0  0  0  0  0  0  0  0  0  0  0
   -2.4230   19.6410  -33.7680 C   0  0  0  0  0  0  0  0  0  0  0  0
   -3.0340   18.4990  -34.2860 C   0  0  0  0  0  0  0  0  0  0  0  0
   -4.3560   18.1790  -33.9410 C   0  0  0  0  0  0  0  0  0  0  0  0
   -4.9510   17.0280  -34.4690 O   0  0  0  0  0  0  0  0  0  0  0  0
   -5.0710   19.0210  -33.0660 C   0  0  0  0  0  0  0  0  0  0  0  0
   -6.7620   18.6910  -32.6430 S   0  0  0  0  0  0  0  0  0  0  0  0
   -6.8260   18.2620  -31.2020 O   0  0  0  0  0  0  0  0  0  0  0  0
   -7.2910   17.5590  -33.4790 O   0  0  0  0  0  0  0  0  0  0  0  0
   -7.7810   20.0960  -32.8750 N   0  0  0  0  0  0  0  0  0  0  0  0
   -7.1530   21.3260  -32.3490 C   0  0  0  0  0  0  0  0  0  0  0  0
   -7.7430   21.7300  -30.9820 C   0  0  0  0  0  0  0  0  0  0  0  0
   -9.1490   21.9490  -31.0070 O   0  0  0  0  0  0  0  0  0  0  0  0
   -9.8330   21.1870  -31.9930 C   0  0  0  0  0  0  0  0  0  0  0  0
   -9.1350   19.8580  -32.3320 C   0  0  0  0  0  0  0  0  0  0  0  0
   -4.4350   20.1460  -32.5180 C   0  0  0  0  0  0  0  0  0  0  0  0
   -2.5870   20.8515  -29.6345 H   0  0  0  0  0  0  0  0  0  0  0  0
   -0.4032   18.0082  -26.8245 H   0  0  0  0  0  0  0  0  0  0  0  0
   -1.6520   18.4240  -28.0160 H   0  0  0  0  0  0  0  0  0  0  0  0
    1.2157   17.5923  -28.4370 H   0  0  0  0  0  0  0  0  0  0  0  0
   -0.1746   17.3014  -29.4839 H   0  0  0  0  0  0  0  0  0  0  0  0
    1.7802   19.3894  -29.7458 H   0  0  0  0  0  0  0  0  0  0  0  0
    0.2822   19.2612  -30.6810 H   0  0  0  0  0  0  0  0  0  0  0  0
    0.8887   21.2665  -28.7661 H   0  0  0  0  0  0  0  0  0  0  0  0
   -0.7350   20.9325  -29.4080 H   0  0  0  0  0  0  0  0  0  0  0  0
   -1.9196   23.7185  -26.4635 H   0  0  0  0  0  0  0  0  0  0  0  0
   -2.7070   25.5538  -27.9569 H   0  0  0  0  0  0  0  0  0  0  0  0
   -1.3914   19.8875  -34.0595 H   0  0  0  0  0  0  0  0  0  0  0  0
   -2.4750   17.8440  -34.9705 H   0  0  0  0  0  0  0  0  0  0  0  0
   -5.9210   16.8000  -34.2910 H   0  0  0  0  0  0  0  0  0  0  0  0
   -6.0728   21.1532  -32.2337 H   0  0  0  0  0  0  0  0  0  0  0  0
   -7.3487   22.1415  -33.0608 H   0  0  0  0  0  0  0  0  0  0  0  0
   -7.5295   20.9272  -30.2609 H   0  0  0  0  0  0  0  0  0  0  0  0
   -7.2744   22.6842  -30.6994 H   0  0  0  0  0  0  0  0  0  0  0  0
  -10.8445   20.9648  -31.6222 H   0  0  0  0  0  0  0  0  0  0  0  0
   -9.8503   21.7886  -32.9138 H   0  0  0  0  0  0  0  0  0  0  0  0
   -9.0549   19.2502  -31.4187 H   0  0  0  0  0  0  0  0  0  0  0  0
   -9.7310   19.3324  -33.0927 H   0  0  0  0  0  0  0  0  0  0  0  0
   -4.9765   20.7766  -31.7975 H   0  0  0  0  0  0  0  0  0  0  0  0
  1  2  2  0
  2  3  1  0
  3  4  1  0
  4  5  2  0
  5  6  1  0
  6  7  1  0
  7  8  2  0
  7  9  2  0
  7 10  1  0
 10 11  1  0
 11 12  1  0
 12 13  1  0
 13 14  1  0
  6 15  2  0
 15 16  1  0
 16 17  2  0
 17 18  1  0
  2 19  1  0
 19 20  2  0
 20 21  1  0
 21 22  2  0
 22 23  1  0
 22 24  1  0
 24 25  1  0
 25 26  2  0
 25 27  2  0
 25 28  1  0
 28 29  1  0
 29 30  1  0
 30 31  1  0
 31 32  1  0
 32 33  1  0
 24 34  2  0
 17  4  1  0
 34 19  1  0
 14 10  1  0
 33 28  1  0
  5 35  1  0
 11 36  1  0
 11 37  1  0
 12 38  1  0
 12 39  1  0
 13 40  1  0
 13 41  1  0
 14 42  1  0
 14 43  1  0
 15 44  1  0
 16 45  1  0
 20 46  1  0
 21 47  1  0
 23 48  1  0
 29 49  1  0
 29 50  1  0
 30 51  1  0
 30 52  1  0
 32 53  1  0
 32 54  1  0
 33 55  1  0
 33 56  1  0
 34 57  1  0
M  CHG  2   3  -1  18  -1
M  END
>  <UniqueID>  (9) 
9

>  <SMILES>  (9) 
O=C([N-]c1cc(S(=O)(=O)N2CCCC2)ccc1[O-])c1ccc(O)c(S(=O)(=O)N2CCOCC2)c1

>  <Energy>  (9) 
80.65436835830421

>  <Genealogy>  (9) 
O=C([N-]c1cc(S(=O)(=O)N2CCCC2)ccc1[O-])c1ccc(O)c(S(=O)(=O)N2CCOCC2)c1 (protonated)
O=C([N-]c1cc(S(=O)(=O)N2CCCC2)ccc1[O-])c1ccc(O)c(S(=O)(=O)N2CCOCC2)c1 (3D coordinates assigned)
O=C([N-]c1cc(S(=O)(=O)N2CCCC2)ccc1[O-])c1ccc(O)c(S(=O)(=O)N2CCOCC2)c1 (nonaromatic ring conformer: 80.65436835830421 kcal/mol)

>  <smiles>  (9) 
O=C(Nc1cc(S(=O)(=O)N2CCCC2)ccc1O)c1ccc(O)c(S(=O)(=O)N2CCOCC2)c1

>  <score_type>  (9) 
oracle

>  <origin>  (9) 
adgpu

>  <m_score__min__energy>  (9) 
-14.17

>  <m_primary>  (9) 
energy

$$$$
9:0
     RDKit          3D

 64 69  0  0  0  0  0  0  0  0999 V2000
   -2.3580   22.2920  -31.3540 O   0  0  0  0  0  0  0  0  0  0  0  0
   -3.4920   22.1210  -30.8290 C   0  0  0  0  0  0  0  0  0  0  0  0
   -3.7000   22.3800  -29.4300 N   0  0  0  0  0  0  0  0  0  0  0  0
   -2.7820   23.1000  -28.5850 C   0  0  0  0  0  0  0  0  0  0  0  0
   -1.3920   22.8410  -28.7030 C   0  0  0  0  0  0  0  0  0  0  0  0
   -0.4610   23.4970  -27.8750 C   0  0  0  0  0  0  0  0  0  0  0  0
   -0.9500   24.4040  -26.9390 C   0  0  0  0  0  0  0  0  0  0  0  0
   -0.2670   25.1230  -26.0830 O   0  0  0  0  0  0  0  0  0  0  0  0
   -1.1330   25.8490  -25.3930 C   0  0  0  0  0  0  0  0  0  0  0  0
   -0.7270   26.8200  -24.3230 C   0  0  0  0  0  0  0  0  0  0  0  0
   -0.6340   28.2570  -24.8160 C   0  0  0  0  0  0  0  0  0  0  0  0
    0.6300   27.4840  -24.4870 C   0  0  0  0  0  0  0  0  0  0  0  0
   -2.4350   25.5960  -25.8180 C   0  0  0  0  0  0  0  0  0  0  0  0
   -2.2890   24.6540  -26.8120 C   0  0  0  0  0  0  0  0  0  0  0  0
   -3.2400   24.0120  -27.6000 C   0  0  0  0  0  0  0  0  0  0  0  0
   -4.6010   21.6230  -31.6640 C   0  0  0  0  0  0  0  0  0  0  0  0
   -4.4520   20.4070  -32.3500 C   0  0  0  0  0  0  0  0  0  0  0  0
   -5.4620   19.9390  -33.1990 C   0  0  0  0  0  0  0  0  0  0  0  0
   -5.2590   18.4080  -34.0530 S   0  0  0  0  0  0  0  0  0  0  0  0
   -5.7120   18.5720  -35.4770 O   0  0  0  0  0  0  0  0  0  0  0  0
   -3.7980   18.0550  -34.0780 O   0  0  0  0  0  0  0  0  0  0  0  0
   -6.1500   17.0970  -33.3060 N   0  0  0  0  0  0  0  0  0  0  0  0
   -7.5710   17.4300  -33.0890 C   0  0  0  0  0  0  0  0  0  0  0  0
   -7.8110   18.2560  -31.8000 C   0  0  0  0  0  0  0  0  0  0  0  0
   -6.6710   18.3380  -30.9700 O   0  0  0  0  0  0  0  0  0  0  0  0
   -6.1170   17.0550  -30.7940 C   0  0  0  0  0  0  0  0  0  0  0  0
   -5.4780   16.5610  -32.1040 C   0  0  0  0  0  0  0  0  0  0  0  0
   -6.6240   20.7010  -33.3770 C   0  0  0  0  0  0  0  0  0  0  0  0
   -6.7870   21.9070  -32.6920 C   0  0  0  0  0  0  0  0  0  0  0  0
   -5.7860   22.3750  -31.8290 C   0  0  0  0  0  0  0  0  0  0  0  0
   -6.0020   23.5870  -31.0920 N   0  0  0  0  0  0  0  0  0  0  0  0
   -7.1020   23.7690  -30.1650 C   0  0  0  0  0  0  0  0  0  0  0  0
   -6.8530   25.1180  -29.4960 C   0  0  0  0  0  0  0  0  0  0  0  0
   -5.7740   25.8110  -30.3270 C   0  0  0  0  0  0  0  0  0  0  0  0
   -5.0760   24.7070  -31.1070 C   0  0  0  0  0  0  0  0  0  0  0  0
   -4.5730   22.0070  -28.9870 H   0  0  0  0  0  0  0  0  0  0  0  0
   -1.0367   22.1177  -29.4517 H   0  0  0  0  0  0  0  0  0  0  0  0
    0.6173   23.2993  -27.9648 H   0  0  0  0  0  0  0  0  0  0  0  0
   -1.2210   26.2895  -23.4957 H   0  0  0  0  0  0  0  0  0  0  0  0
   -0.8758   28.4964  -25.8621 H   0  0  0  0  0  0  0  0  0  0  0  0
   -1.0633   29.2182  -24.4969 H   0  0  0  0  0  0  0  0  0  0  0  0
    1.3044   27.1639  -25.2949 H   0  0  0  0  0  0  0  0  0  0  0  0
    1.4961   27.6542  -23.8306 H   0  0  0  0  0  0  0  0  0  0  0  0
   -3.3670   26.0458  -25.4450 H   0  0  0  0  0  0  0  0  0  0  0  0
   -4.3140   24.2060  -27.4630 H   0  0  0  0  0  0  0  0  0  0  0  0
   -3.5331   19.8166  -32.2191 H   0  0  0  0  0  0  0  0  0  0  0  0
   -7.9296   18.0128  -33.9503 H   0  0  0  0  0  0  0  0  0  0  0  0
   -8.1172   16.4817  -32.9777 H   0  0  0  0  0  0  0  0  0  0  0  0
   -8.1073   19.2753  -32.0883 H   0  0  0  0  0  0  0  0  0  0  0  0
   -8.5967   17.7435  -31.2256 H   0  0  0  0  0  0  0  0  0  0  0  0
   -5.3475   17.0972  -30.0090 H   0  0  0  0  0  0  0  0  0  0  0  0
   -6.9169   16.3583  -30.5029 H   0  0  0  0  0  0  0  0  0  0  0  0
   -4.4239   16.8749  -32.1212 H   0  0  0  0  0  0  0  0  0  0  0  0
   -5.5778   15.4658  -32.1291 H   0  0  0  0  0  0  0  0  0  0  0  0
   -7.4113   20.3479  -34.0592 H   0  0  0  0  0  0  0  0  0  0  0  0
   -7.7071   22.4938  -32.8305 H   0  0  0  0  0  0  0  0  0  0  0  0
   -8.0611   23.7783  -30.7036 H   0  0  0  0  0  0  0  0  0  0  0  0
   -7.1551   22.9526  -29.4297 H   0  0  0  0  0  0  0  0  0  0  0  0
   -7.7751   25.7177  -29.4914 H   0  0  0  0  0  0  0  0  0  0  0  0
   -6.5370   24.9951  -28.4496 H   0  0  0  0  0  0  0  0  0  0  0  0
   -6.2293   26.5374  -31.0162 H   0  0  0  0  0  0  0  0  0  0  0  0
   -5.0678   26.3651  -29.6911 H   0  0  0  0  0  0  0  0  0  0  0  0
   -4.8779   25.0301  -32.1396 H   0  0  0  0  0  0  0  0  0  0  0  0
   -4.1037   24.4429  -30.6656 H   0  0  0  0  0  0  0  0  0  0  0  0
  1  2  2  0
  2  3  1  0
  3  4  1  0
  4  5  2  0
  5  6  1  0
  6  7  2  0
  7  8  1  0
  8  9  1  0
  9 10  1  0
 10 11  1  0
 11 12  1  0
  9 13  2  0
 13 14  1  0
 14 15  2  0
  2 16  1  0
 16 17  2  0
 17 18  1  0
 18 19  1  0
 19 20  2  0
 19 21  2  0
 19 22  1  0
 22 23  1  0
 23 24  1  0
 24 25  1  0
 25 26  1  0
 26 27  1  0
 18 28  2  0
 28 29  1  0
 29 30  2  0
 30 31  1  0
 31 32  1  0
 32 33  1  0
 33 34  1  0
 34 35  1  0
 15  4  1  0
 30 16  1  0
 35 31  1  0
 14  7  1  0
 27 22  1  0
 12 10  1  0
  3 36  1  0
  5 37  1  0
  6 38  1  0
 10 39  1  0
 11 40  1  0
 11 41  1  0
 12 42  1  0
 12 43  1  0
 13 44  1  0
 15 45  1  0
 17 46  1  0
 23 47  1  0
 23 48  1  0
 24 49  1  0
 24 50  1  0
 26 51  1  0
 26 52  1  0
 27 53  1  0
 27 54  1  0
 28 55  1  0
 29 56  1  0
 32 57  1  0
 32 58  1  0
 33 59  1  0
 33 60  1  0
 34 61  1  0
 34 62  1  0
 35 63  1  0
 35 64  1  0
M  END
>  <UniqueID>  (10) 
10

>  <SMILES>  (10) 
O=C(Nc1ccc2oc(C3CC3)cc2c1)c1cc(S(=O)(=O)N2CCOCC2)ccc1N1CCCC1

>  <Energy>  (10) 
388.8595495910899

>  <Genealogy>  (10) 
O=C(Nc1ccc2oc(C3CC3)cc2c1)c1cc(S(=O)(=O)N2CCOCC2)ccc1N1CCCC1 (3D coordinates assigned)
O=C(Nc1ccc2oc(C3CC3)cc2c1)c1cc(S(=O)(=O)N2CCOCC2)ccc1N1CCCC1 (nonaromatic ring conformer: 388.8595495910899 kcal/mol)

>  <smiles>  (10) 
O=C(Nc1ccc2oc(C3CC3)cc2c1)c1cc(S(=O)(=O)N2CCOCC2)ccc1N1CCCC1

>  <score_type>  (10) 
oracle

>  <origin>  (10) 
adgpu

>  <m_score__min__energy>  (10) 
-10.32

>  <m_primary>  (10) 
energy

$$$$
10:0
     RDKit          3D

 35 36  0  0  0  0  0  0  0  0999 V2000
   -8.3930   18.7590  -31.7650 C   0  0  0  0  0  0  0  0  0  0  0  0
   -9.1210   20.0470  -32.1460 C   0  0  0  0  0  0  0  0  0  0  0  0
   -8.8290   21.2040  -31.1780 C   0  0  0  0  0  0  0  0  0  0  0  0
   -8.4520   22.5010  -31.9060 C   0  0  0  0  0  0  0  0  0  0  0  0
   -7.1450   23.0380  -31.3880 C   0  0  0  0  0  0  0  0  0  0  0  0
   -7.1610   24.1110  -30.5540 N   0  0  0  0  0  0  0  0  0  0  0  0
   -6.0230   24.6300  -30.0220 C   0  0  0  0  0  0  0  0  0  0  0  0
   -6.1110   25.7730  -29.1660 N   0  0  0  0  0  0  0  0  0  0  0  0
   -4.7910   24.0270  -30.3330 C   0  0  0  0  0  0  0  0  0  0  0  0
   -3.2360   24.6160  -29.6550 S   0  0  0  0  0  0  0  0  0  0  0  0
   -2.8390   23.0190  -28.9430 C   0  0  0  0  0  0  0  0  0  0  0  0
   -3.7310   22.4100  -28.0510 C   0  0  0  0  0  0  0  0  0  0  0  0
   -3.4210   21.1670  -27.4880 C   0  0  0  0  0  0  0  0  0  0  0  0
   -2.2210   20.5290  -27.8180 C   0  0  0  0  0  0  0  0  0  0  0  0
   -1.8320   18.9710  -27.1120 Cl  0  0  0  0  0  0  0  0  0  0  0  0
   -1.3320   21.1330  -28.7150 C   0  0  0  0  0  0  0  0  0  0  0  0
   -1.6410   22.3750  -29.2780 C   0  0  0  0  0  0  0  0  0  0  0  0
   -4.7730   22.9520  -31.1630 N   0  0  0  0  0  0  0  0  0  0  0  0
   -5.9110   22.4380  -31.6980 C   0  0  0  0  0  0  0  0  0  0  0  0
   -5.7860   21.0310  -32.7450 Cl  0  0  0  0  0  0  0  0  0  0  0  0
   -8.3455   18.6750  -30.6692 H   0  0  0  0  0  0  0  0  0  0  0  0
   -8.9365   17.8954  -32.1757 H   0  0  0  0  0  0  0  0  0  0  0  0
   -7.3728   18.7792  -32.1757 H   0  0  0  0  0  0  0  0  0  0  0  0
   -8.8031   20.3449  -33.1560 H   0  0  0  0  0  0  0  0  0  0  0  0
  -10.2010   19.8427  -32.1021 H   0  0  0  0  0  0  0  0  0  0  0  0
   -9.7265   21.3895  -30.5696 H   0  0  0  0  0  0  0  0  0  0  0  0
   -7.9710   20.9095  -30.5557 H   0  0  0  0  0  0  0  0  0  0  0  0
   -8.3578   22.2970  -32.9828 H   0  0  0  0  0  0  0  0  0  0  0  0
   -9.2385   23.2492  -31.7281 H   0  0  0  0  0  0  0  0  0  0  0  0
   -5.3750   25.9370  -28.4430 H   0  0  0  0  0  0  0  0  0  0  0  0
   -6.9050   26.4470  -29.2180 H   0  0  0  0  0  0  0  0  0  0  0  0
   -4.6764   22.9095  -27.7928 H   0  0  0  0  0  0  0  0  0  0  0  0
   -4.1214   20.6915  -26.7856 H   0  0  0  0  0  0  0  0  0  0  0  0
   -0.3895   20.6300  -28.9772 H   0  0  0  0  0  0  0  0  0  0  0  0
   -0.9426   22.8469  -29.9848 H   0  0  0  0  0  0  0  0  0  0  0  0
  1  2  1  0
  2  3  1  0
  3  4  1  0
  4  5  1  0
  5  6  2  0
  6  7  1  0
  7  8  1  0
  7  9  2  0
  9 10  1  0
 10 11  1  0
 11 12  2  0
 12 13  1  0
 13 14  2  0
 14 15  1  0
 14 16  1  0
 16 17  2  0
  9 18  1  0
 18 19  2  0
 19 20  1  0
 19  5  1  0
 17 11  1  0
  1 21  1  0
  1 22  1  0
  1 23  1  0
  2 24  1  0
  2 25  1  0
  3 26  1  0
  3 27  1  0
  4 28  1  0
  4 29  1  0
  8 30  1  0
  8 31  1  0
 12 32  1  0
 13 33  1  0
 16 34  1  0
 17 35  1  0
M  END
>  <UniqueID>  (11) 
11

>  <SMILES>  (11) 
CCCCc1nc(N)c(Sc2ccc(Cl)cc2)nc1Cl

>  <Energy>  (11) 
26.322487195507538

>  <Genealogy>  (11) 
CCCCc1nc(N)c(Sc2ccc(Cl)cc2)nc1Cl (3D coordinates assigned)
CCCCc1nc(N)c(Sc2ccc(Cl)cc2)nc1Cl (optimized conformer: 26.322487195507538 kcal/mol)

>  <smiles>  (11) 
CCCCc1nc(N)c(Sc2ccc(Cl)cc2)nc1Cl

>  <score_type>  (11) 
oracle

>  <origin>  (11) 
adgpu

>  <m_score__min__energy>  (11) 
-7.71

>  <m_primary>  (11) 
energy

$$$$
11:0
     RDKit          3D

 57 60  0  0  1  0  0  0  0  0999 V2000
   -0.0850   22.2940  -23.5360 C   0  0  0  0  0  0  0  0  0  0  0  0
   -0.5240   23.5080  -24.2750 C   0  0  0  0  0  0  0  0  0  0  0  0
   -0.7890   24.7060  -23.7240 N   0  0  0  0  0  0  0  0  0  0  0  0
   -1.1470   25.5150  -24.6990 N   0  0  0  0  0  0  0  0  0  0  0  0
   -1.1200   24.8580  -25.8940 C   0  0  0  0  0  0  0  0  0  0  0  0
   -1.4180   25.3950  -26.9830 N   0  0  0  0  0  0  0  0  0  0  0  0
   -1.4140   24.6870  -28.4760 S   0  0  0  0  0  0  0  0  0  0  0  0
   -0.2170   24.0210  -29.0420 O   0  0  0  0  0  0  0  0  0  0  0  0
   -1.2240   26.0030  -29.3170 O   0  0  0  0  0  0  0  0  0  0  0  0
   -2.9450   24.1740  -29.1510 C   0  0  0  0  0  0  0  0  0  0  0  0
   -3.0150   23.4230  -30.3350 C   0  0  0  0  0  0  0  0  0  0  0  0
   -4.2110   22.9940  -30.8680 C   0  0  0  0  0  0  0  0  0  0  0  0
   -5.4080   23.2860  -30.2550 C   0  0  0  0  0  0  0  0  0  0  0  0
   -6.6370   22.8040  -30.8710 C   0  0  0  0  0  0  0  0  0  0  0  0
   -7.5960   23.6660  -31.3850 C   0  0  0  0  0  0  0  0  0  0  0  0
   -8.7600   23.1580  -31.9670 C   0  0  0  0  0  0  0  0  0  0  0  0
   -8.9860   21.7940  -32.0450 C   0  0  0  0  0  0  0  0  0  0  0  0
   -8.0320   20.9340  -31.5350 C   0  0  0  0  0  0  0  0  0  0  0  0
   -8.1720   19.4550  -31.5660 C   0  0  0  0  0  0  0  0  0  0  0  0
   -7.1160   18.8480  -32.3220 N   0  0  0  0  0  0  0  0  0  0  0  0
   -6.8430   19.6750  -33.4830 C   0  0  0  0  0  0  0  0  0  0  0  0
   -5.6480   19.1170  -34.2070 C   0  0  0  0  0  0  0  0  0  0  0  0
   -6.0220   17.7860  -34.6650 N   0  0  0  0  0  0  0  0  0  0  0  0
   -6.3340   16.9180  -33.5500 C   0  0  0  0  0  0  0  0  0  0  0  0
   -7.4300   17.5050  -32.6950 C   0  0  0  0  0  0  0  0  0  0  0  0
   -6.8890   21.4500  -30.9630 C   0  0  0  0  0  0  0  0  0  0  0  0
   -5.3670   24.0160  -29.1000 C   0  0  0  0  0  0  0  0  0  0  0  0
   -4.1670   24.4450  -28.5660 C   0  0  0  0  0  0  0  0  0  0  0  0
   -0.7260   23.5770  -25.6360 C   0  0  0  0  0  0  0  0  0  0  0  0
   -0.5840   22.5330  -26.6800 C   0  0  0  0  0  0  0  0  0  0  0  0
   -0.1520   22.4793  -22.4538 H   0  0  0  0  0  0  0  0  0  0  0  0
   -0.7338   21.4471  -23.8039 H   0  0  0  0  0  0  0  0  0  0  0  0
    0.9554   22.0579  -23.8039 H   0  0  0  0  0  0  0  0  0  0  0  0
   -0.7250   24.9650  -22.6930 H   0  0  0  0  0  0  0  0  0  0  0  0
   -1.4080   26.5220  -24.5270 H   0  0  0  0  0  0  0  0  0  0  0  0
   -2.0807   23.1676  -30.8564 H   0  0  0  0  0  0  0  0  0  0  0  0
   -4.2090   22.4083  -31.7991 H   0  0  0  0  0  0  0  0  0  0  0  0
   -7.4388   24.7535  -31.3338 H   0  0  0  0  0  0  0  0  0  0  0  0
   -9.5103   23.8539  -32.3705 H   0  0  0  0  0  0  0  0  0  0  0  0
   -9.9062   21.4030  -32.5036 H   0  0  0  0  0  0  0  0  0  0  0  0
   -8.1421   19.0705  -30.5358 H   0  0  0  0  0  0  0  0  0  0  0  0
   -9.1300   19.2067  -32.0461 H   0  0  0  0  0  0  0  0  0  0  0  0
   -7.7156   19.6713  -34.1527 H   0  0  0  0  0  0  0  0  0  0  0  0
   -6.6382   20.7081  -33.1656 H   0  0  0  0  0  0  0  0  0  0  0  0
   -5.3922   19.7556  -35.0653 H   0  0  0  0  0  0  0  0  0  0  0  0
   -4.7684   19.0766  -33.5477 H   0  0  0  0  0  0  0  0  0  0  0  0
   -6.8970   17.9030  -35.2320 H   0  0  0  0  0  0  0  0  0  0  0  0
   -6.6631   15.9418  -33.9357 H   0  0  0  0  0  0  0  0  0  0  0  0
   -5.4312   16.8049  -32.9318 H   0  0  0  0  0  0  0  0  0  0  0  0
   -8.3726   17.4989  -33.2620 H   0  0  0  0  0  0  0  0  0  0  0  0
   -7.5292   16.8989  -31.7824 H   0  0  0  0  0  0  0  0  0  0  0  0
   -6.1423   20.7496  -30.5608 H   0  0  0  0  0  0  0  0  0  0  0  0
   -6.3068   24.2666  -28.5861 H   0  0  0  0  0  0  0  0  0  0  0  0
   -4.1854   25.0283  -27.6336 H   0  0  0  0  0  0  0  0  0  0  0  0
   -0.4505   21.5516  -26.2014 H   0  0  0  0  0  0  0  0  0  0  0  0
   -1.4880   22.5155  -27.3064 H   0  0  0  0  0  0  0  0  0  0  0  0
    0.2919   22.7576  -27.3064 H   0  0  0  0  0  0  0  0  0  0  0  0
  1  2  1  0
  2  3  1  0
  3  4  1  0
  4  5  1  0
  5  6  2  0
  6  7  1  0
  7  8  2  0
  7  9  2  0
  7 10  1  0
 10 11  2  0
 11 12  1  0
 12 13  2  0
 13 14  1  0
 14 15  2  0
 15 16  1  0
 16 17  2  0
 17 18  1  0
 18 19  1  0
 19 20  1  0
 20 21  1  0
 21 22  1  0
 22 23  1  0
 23 24  1  0
 24 25  1  0
 18 26  2  0
 13 27  1  0
 27 28  2  0
  5 29  1  0
 29 30  1  0
 29  2  2  0
 28 10  1  0
 26 14  1  0
 25 20  1  0
  1 31  1  0
  1 32  1  0
  1 33  1  0
  3 34  1  0
  4 35  1  0
 11 36  1  0
 12 37  1  0
 15 38  1  0
 16 39  1  0
 17 40  1  0
 19 41  1  0
 19 42  1  0
 21 43  1  0
 21 44  1  0
 22 45  1  0
 22 46  1  0
 23 47  1  0
 24 48  1  0
 24 49  1  0
 25 50  1  0
 25 51  1  0
 26 52  1  0
 27 53  1  0
 28 54  1  0
 30 55  1  0
 30 56  1  0
 30 57  1  0
M  END
>  <smiles>  (12) 
Cc1[nH][nH]c(=NS(=O)(=O)c2ccc(-c3cccc(CN4CCNCC4)c3)cc2)c1C

>  <score_type>  (12) 
oracle

>  <origin>  (12) 
adgpu

>  <m_score__min__energy>  (12) 
-10.6

>  <m_primary>  (12) 
energy

$$$$
12:0
     RDKit          3D

 54 57  0  0  0  0  0  0  0  0999 V2000
   -0.9290   16.8020  -34.2800 C   0  0  0  0  0  0  0  0  0  0  0  0
   -0.7830   16.6590  -32.7950 C   0  0  0  0  0  0  0  0  0  0  0  0
   -0.9230   15.5140  -32.2850 O   0  0  0  0  0  0  0  0  0  0  0  0
   -0.5040   17.7910  -31.9440 N   0  0  0  0  0  0  0  0  0  0  0  0
   -0.0470   17.5380  -30.5670 C   0  0  0  0  0  0  0  0  0  0  0  0
    0.4780   18.8110  -29.9020 C   0  0  0  0  0  0  0  0  0  0  0  0
   -0.4850   19.9020  -30.0850 N   0  0  0  0  0  0  0  0  0  0  0  0
   -0.9690   20.6300  -28.9440 C   0  0  0  0  0  0  0  0  0  0  0  0
   -1.3060   20.0000  -27.9050 O   0  0  0  0  0  0  0  0  0  0  0  0
   -1.0770   22.1060  -28.9630 C   0  0  0  0  0  0  0  0  0  0  0  0
   -0.1910   22.9000  -28.2170 C   0  0  0  0  0  0  0  0  0  0  0  0
   -0.3140   24.2910  -28.2240 C   0  0  0  0  0  0  0  0  0  0  0  0
   -1.3350   24.9040  -28.9540 C   0  0  0  0  0  0  0  0  0  0  0  0
   -1.4500   26.2900  -28.9440 O   0  0  0  0  0  0  0  0  0  0  0  0
   -2.2480   24.1210  -29.6790 C   0  0  0  0  0  0  0  0  0  0  0  0
   -3.3080   24.7460  -30.4130 N   0  0  0  0  0  0  0  0  0  0  0  0
   -4.9660   24.3440  -30.1020 S   0  0  0  0  0  0  0  0  0  0  0  0
   -5.1180   23.9460  -28.6610 O   0  0  0  0  0  0  0  0  0  0  0  0
   -5.8220   25.5530  -30.3560 O   0  0  0  0  0  0  0  0  0  0  0  0
   -5.5090   23.0320  -31.1430 C   0  0  0  0  0  0  0  0  0  0  0  0
   -6.8790   22.7790  -31.2990 C   0  0  0  0  0  0  0  0  0  0  0  0
   -7.3150   21.6940  -32.0630 C   0  0  0  0  0  0  0  0  0  0  0  0
   -6.3840   20.8430  -32.6760 C   0  0  0  0  0  0  0  0  0  0  0  0
   -6.8110   19.7410  -33.4330 C   0  0  0  0  0  0  0  0  0  0  0  0
   -5.8720   18.8960  -34.0320 C   0  0  0  0  0  0  0  0  0  0  0  0
   -4.5050   19.1430  -33.8800 C   0  0  0  0  0  0  0  0  0  0  0  0
   -4.0670   20.2370  -33.1290 C   0  0  0  0  0  0  0  0  0  0  0  0
   -4.9990   21.0940  -32.5220 C   0  0  0  0  0  0  0  0  0  0  0  0
   -4.5720   22.1890  -31.7560 C   0  0  0  0  0  0  0  0  0  0  0  0
   -2.0990   22.7270  -29.6980 C   0  0  0  0  0  0  0  0  0  0  0  0
   -1.0920   20.1340  -31.4030 C   0  0  0  0  0  0  0  0  0  0  0  0
   -0.5450   19.1690  -32.4640 C   0  0  0  0  0  0  0  0  0  0  0  0
   -1.6987   17.5559  -34.5018 H   0  0  0  0  0  0  0  0  0  0  0  0
    0.0307   17.1192  -34.7139 H   0  0  0  0  0  0  0  0  0  0  0  0
   -1.2262   15.8359  -34.7139 H   0  0  0  0  0  0  0  0  0  0  0  0
   -0.8904   17.1496  -29.9773 H   0  0  0  0  0  0  0  0  0  0  0  0
    0.7752   16.8083  -30.6074 H   0  0  0  0  0  0  0  0  0  0  0  0
    0.6225   18.6282  -28.8270 H   0  0  0  0  0  0  0  0  0  0  0  0
    1.4364   19.0921  -30.3629 H   0  0  0  0  0  0  0  0  0  0  0  0
    0.6039   22.4239  -27.6242 H   0  0  0  0  0  0  0  0  0  0  0  0
    0.3961   24.9065  -27.6523 H   0  0  0  0  0  0  0  0  0  0  0  0
   -3.1260   25.6730  -30.8580 H   0  0  0  0  0  0  0  0  0  0  0  0
   -7.6151   23.4390  -30.8168 H   0  0  0  0  0  0  0  0  0  0  0  0
   -8.3921   21.5064  -32.1842 H   0  0  0  0  0  0  0  0  0  0  0  0
   -7.8859   19.5419  -33.5552 H   0  0  0  0  0  0  0  0  0  0  0  0
   -6.2105   18.0336  -34.6251 H   0  0  0  0  0  0  0  0  0  0  0  0
   -3.7712   18.4739  -34.3532 H   0  0  0  0  0  0  0  0  0  0  0  0
   -2.9898   20.4272  -33.0131 H   0  0  0  0  0  0  0  0  0  0  0  0
   -3.4966   22.3869  -31.6359 H   0  0  0  0  0  0  0  0  0  0  0  0
   -2.7900   22.1137  -30.2950 H   0  0  0  0  0  0  0  0  0  0  0  0
   -2.1801   19.9944  -31.3227 H   0  0  0  0  0  0  0  0  0  0  0  0
   -0.8453   21.1593  -31.7158 H   0  0  0  0  0  0  0  0  0  0  0  0
   -1.1953   19.2010  -33.3506 H   0  0  0  0  0  0  0  0  0  0  0  0
    0.4772   19.4774  -32.7287 H   0  0  0  0  0  0  0  0  0  0  0  0
  1  2  1  0
  2  3  2  0
  2  4  1  0
  4  5  1  0
  5  6  1  0
  6  7  1  0
  7  8  1  0
  8  9  2  0
  8 10  1  0
 10 11  2  0
 11 12  1  0
 12 13  2  0
 13 14  1  0
 13 15  1  0
 15 16  1  0
 16 17  1  0
 17 18  2  0
 17 19  2  0
 17 20  1  0
 20 21  2  0
 21 22  1  0
 22 23  2  0
 23 24  1  0
 24 25  2  0
 25 26  1  0
 26 27  2  0
 27 28  1  0
 28 29  2  0
 15 30  2  0
  7 31  1  0
 31 32  1  0
 32  4  1  0
 30 10  1  0
 29 20  1  0
 28 23  1  0
  1 33  1  0
  1 34  1  0
  1 35  1  0
  5 36  1  0
  5 37  1  0
  6 38  1  0
  6 39  1  0
 11 40  1  0
 12 41  1  0
 16 42  1  0
 21 43  1  0
 22 44  1  0
 24 45  1  0
 25 46  1  0
 26 47  1  0
 27 48  1  0
 29 49  1  0
 30 50  1  0
 31 51  1  0
 31 52  1  0
 32 53  1  0
 32 54  1  0
M  CHG  1  14  -1
M  END
>  <UniqueID>  (13) 
12

>  <SMILES>  (13) 
CC(=O)N1CCN(C(=O)c2ccc([O-])c(NS(=O)(=O)c3ccc4ccccc4c3)c2)CC1

>  <Energy>  (13) 
71.51488592610289

>  <Genealogy>  (13) 
CC(=O)N1CCN(C(=O)c2ccc([O-])c(NS(=O)(=O)c3ccc4ccccc4c3)c2)CC1 (protonated)
CC(=O)N1CCN(C(=O)c2ccc([O-])c(NS(=O)(=O)c3ccc4ccccc4c3)c2)CC1 (3D coordinates assigned)
CC(=O)N1CCN(C(=O)c2ccc([O-])c(NS(=O)(=O)c3ccc4ccccc4c3)c2)CC1 (nonaromatic ring conformer: 71.51488592610289 kcal/mol)

>  <smiles>  (13) 
CC(=O)N1CCN(C(=O)c2ccc(O)c(NS(=O)(=O)c3ccc4ccccc4c3)c2)CC1

>  <score_type>  (13) 
oracle

>  <origin>  (13) 
adgpu

>  <m_score__min__energy>  (13) 
-13.91

>  <m_primary>  (13) 
energy

$$$$
13:0
     RDKit          3D

 67 70  0  0  0  0  0  0  0  0999 V2000
   -3.5510   17.0340  -33.4450 C   0  0  0  0  0  0  0  0  0  0  0  0
   -4.4850   18.0950  -33.0360 N   0  0  0  0  0  0  0  0  0  0  0  0
   -5.4370   17.6120  -32.0040 C   0  0  0  0  0  0  0  0  0  0  0  0
   -6.8010   17.2220  -32.6010 C   0  0  0  0  0  0  0  0  0  0  0  0
   -7.4350   18.3340  -33.3520 N   0  0  0  0  0  0  0  0  0  0  0  0
   -8.6820   19.1070  -32.4030 S   0  0  0  0  0  0  0  0  0  0  0  0
   -8.9990   18.2690  -31.1950 O   0  0  0  0  0  0  0  0  0  0  0  0
   -9.9340   19.2570  -33.2250 O   0  0  0  0  0  0  0  0  0  0  0  0
   -8.1190   20.6850  -31.8610 C   0  0  0  0  0  0  0  0  0  0  0  0
   -8.9420   21.8060  -32.0200 C   0  0  0  0  0  0  0  0  0  0  0  0
   -8.5100   23.0640  -31.5900 C   0  0  0  0  0  0  0  0  0  0  0  0
   -7.2470   23.2130  -30.9940 C   0  0  0  0  0  0  0  0  0  0  0  0
   -6.7860   24.5580  -30.5050 C   0  0  0  0  0  0  0  0  0  0  0  0
   -5.7290   24.3960  -29.5100 N   0  0  0  0  0  0  0  0  0  0  0  0
   -4.3430   24.2860  -29.8730 C   0  0  0  0  0  0  0  0  0  0  0  0
   -4.0240   24.1610  -31.0880 O   0  0  0  0  0  0  0  0  0  0  0  0
   -3.2780   24.2970  -28.8410 C   0  0  0  0  0  0  0  0  0  0  0  0
   -3.6100   24.5070  -27.4900 C   0  0  0  0  0  0  0  0  0  0  0  0
   -2.6140   24.5320  -26.5100 C   0  0  0  0  0  0  0  0  0  0  0  0
   -1.2730   24.3350  -26.8620 C   0  0  0  0  0  0  0  0  0  0  0  0
   -0.0030   24.4150  -25.6450 S   0  0  0  0  0  0  0  0  0  0  0  0
   -0.4860   23.8060  -24.3570 O   0  0  0  0  0  0  0  0  0  0  0  0
    1.1840   23.6310  -26.1320 O   0  0  0  0  0  0  0  0  0  0  0  0
    0.4600   26.0790  -25.3800 N   0  0  0  0  0  0  0  0  0  0  0  0
   -0.3600   26.6630  -24.2940 C   0  0  0  0  0  0  0  0  0  0  0  0
    0.2900   27.9220  -23.7130 C   0  0  0  0  0  0  0  0  0  0  0  0
    1.6550   27.5980  -23.0800 C   0  0  0  0  0  0  0  0  0  0  0  0
    2.3190   26.3570  -23.7020 C   0  0  0  0  0  0  0  0  0  0  0  0
    1.9270   26.1990  -25.1790 C   0  0  0  0  0  0  0  0  0  0  0  0
   -0.9360   24.1100  -28.2020 C   0  0  0  0  0  0  0  0  0  0  0  0
   -1.9300   24.0870  -29.1850 C   0  0  0  0  0  0  0  0  0  0  0  0
   -6.4310   22.0850  -30.8210 C   0  0  0  0  0  0  0  0  0  0  0  0
   -6.8630   20.8280  -31.2550 C   0  0  0  0  0  0  0  0  0  0  0  0
   -6.4780   19.3450  -33.8420 C   0  0  0  0  0  0  0  0  0  0  0  0
   -5.1430   18.6950  -34.2200 C   0  0  0  0  0  0  0  0  0  0  0  0
   -3.1278   16.5533  -32.5507 H   0  0  0  0  0  0  0  0  0  0  0  0
   -4.0876   16.2844  -34.0450 H   0  0  0  0  0  0  0  0  0  0  0  0
   -2.7394   17.4713  -34.0450 H   0  0  0  0  0  0  0  0  0  0  0  0
   -5.0035   16.7310  -31.5081 H   0  0  0  0  0  0  0  0  0  0  0  0
   -5.6050   18.4333  -31.2918 H   0  0  0  0  0  0  0  0  0  0  0  0
   -6.6562   16.3727  -33.2849 H   0  0  0  0  0  0  0  0  0  0  0  0
   -7.4678   16.9617  -31.7657 H   0  0  0  0  0  0  0  0  0  0  0  0
   -9.9328   21.6966  -32.4852 H   0  0  0  0  0  0  0  0  0  0  0  0
   -9.1618   23.9407  -31.7189 H   0  0  0  0  0  0  0  0  0  0  0  0
   -6.3998   25.1409  -31.3542 H   0  0  0  0  0  0  0  0  0  0  0  0
   -7.6355   25.0840  -30.0449 H   0  0  0  0  0  0  0  0  0  0  0  0
   -6.0130   24.3010  -28.5090 H   0  0  0  0  0  0  0  0  0  0  0  0
   -4.6618   24.6527  -27.2029 H   0  0  0  0  0  0  0  0  0  0  0  0
   -2.8844   24.7071  -25.4582 H   0  0  0  0  0  0  0  0  0  0  0  0
   -1.3501   26.9250  -24.6954 H   0  0  0  0  0  0  0  0  0  0  0  0
   -0.4474   25.9179  -23.4896 H   0  0  0  0  0  0  0  0  0  0  0  0
    0.4328   28.6572  -24.5186 H   0  0  0  0  0  0  0  0  0  0  0  0
   -0.3701   28.3280  -22.9323 H   0  0  0  0  0  0  0  0  0  0  0  0
    2.3218   28.4615  -23.2205 H   0  0  0  0  0  0  0  0  0  0  0  0
    1.4846   27.3845  -22.0145 H   0  0  0  0  0  0  0  0  0  0  0  0
    3.4117   26.4605  -23.6298 H   0  0  0  0  0  0  0  0  0  0  0  0
    1.9768   25.4670  -23.1536 H   0  0  0  0  0  0  0  0  0  0  0  0
    2.2860   27.0788  -25.7331 H   0  0  0  0  0  0  0  0  0  0  0  0
    2.3866   25.2686  -25.5439 H   0  0  0  0  0  0  0  0  0  0  0  0
    0.1155   23.9506  -28.4828 H   0  0  0  0  0  0  0  0  0  0  0  0
   -1.6563   23.9035  -30.2345 H   0  0  0  0  0  0  0  0  0  0  0  0
   -5.4465   22.1900  -30.3416 H   0  0  0  0  0  0  0  0  0  0  0  0
   -6.2156   19.9489  -31.1206 H   0  0  0  0  0  0  0  0  0  0  0  0
   -6.9006   19.8416  -34.7279 H   0  0  0  0  0  0  0  0  0  0  0  0
   -6.2985   20.0770  -33.0408 H   0  0  0  0  0  0  0  0  0  0  0  0
   -5.3258   17.9078  -34.9663 H   0  0  0  0  0  0  0  0  0  0  0  0
   -4.4810   19.4720  -34.6300 H   0  0  0  0  0  0  0  0  0  0  0  0
  1  2  1  0
  2  3  1  0
  3  4  1  0
  4  5  1  0
  5  6  1  0
  6  7  2  0
  6  8  2  0
  6  9  1  0
  9 10  2  0
 10 11  1  0
 11 12  2  0
 12 13  1  0
 13 14  1  0
 14 15  1  0
 15 16  2  0
 15 17  1  0
 17 18  2  0
 18 19  1  0
 19 20  2  0
 20 21  1  0
 21 22  2  0
 21 23  2  0
 21 24  1  0
 24 25  1  0
 25 26  1  0
 26 27  1  0
 27 28  1  0
 28 29  1  0
 20 30  1  0
 30 31  2  0
 12 32  1  0
 32 33  2  0
  5 34  1  0
 34 35  1  0
 35  2  1  0
 33  9  1  0
 31 17  1  0
 29 24  1  0
  1 36  1  0
  1 37  1  0
  1 38  1  0
  3 39  1  0
  3 40  1  0
  4 41  1  0
  4 42  1  0
 10 43  1  0
 11 44  1  0
 13 45  1  0
 13 46  1  0
 14 47  1  0
 18 48  1  0
 19 49  1  0
 25 50  1  0
 25 51  1  0
 26 52  1  0
 26 53  1  0
 27 54  1  0
 27 55  1  0
 28 56  1  0
 28 57  1  0
 29 58  1  0
 29 59  1  0
 30 60  1  0
 31 61  1  0
 32 62  1  0
 33 63  1  0
 34 64  1  0
 34 65  1  0
 35 66  1  0
 35 67  1  0
M  END
>  <UniqueID>  (14) 
13

>  <SMILES>  (14) 
CN1CCN(S(=O)(=O)c2ccc(CNC(=O)c3ccc(S(=O)(=O)N4CCCCC4)cc3)cc2)CC1

>  <Energy>  (14) 
83.92755059209111

>  <Genealogy>  (14) 
CN1CCN(S(=O)(=O)c2ccc(CNC(=O)c3ccc(S(=O)(=O)N4CCCCC4)cc3)cc2)CC1 (3D coordinates assigned)
CN1CCN(S(=O)(=O)c2ccc(CNC(=O)c3ccc(S(=O)(=O)N4CCCCC4)cc3)cc2)CC1 (nonaromatic ring conformer: 83.92755059209111 kcal/mol)

>  <smiles>  (14) 
CN1CCN(S(=O)(=O)c2ccc(CNC(=O)c3ccc(S(=O)(=O)N4CCCCC4)cc3)cc2)CC1

>  <score_type>  (14) 
oracle

>  <origin>  (14) 
adgpu

>  <m_score__min__energy>  (14) 
-11.41

>  <m_primary>  (14) 
energy

$$$$
14:0
     RDKit          3D

 40 42  0  0  1  0  0  0  0  0999 V2000
   -4.4200   14.6500  -32.5290 C   0  0  0  0  0  0  0  0  0  0  0  0
   -5.3590   15.8030  -32.3640 C   0  0  0  0  0  0  0  0  0  0  0  0
   -5.9840   16.4900  -33.3790 C   0  0  0  0  0  0  0  0  0  0  0  0
   -6.7450   17.4590  -32.7550 C   0  0  0  0  0  0  0  0  0  0  0  0
   -7.5150   18.3580  -33.2670 N   0  0  0  0  0  0  0  0  0  0  0  0
   -8.3680   19.4660  -32.2570 S   0  0  0  0  0  0  0  0  0  0  0  0
   -9.4950   20.0420  -33.0980 O   0  0  0  0  0  0  0  0  0  0  0  0
   -8.9160   18.8260  -31.0270 O   0  0  0  0  0  0  0  0  0  0  0  0
   -7.2660   20.7610  -31.8520 C   0  0  0  0  0  0  0  0  0  0  0  0
   -7.6840   21.8480  -31.1110 C   0  0  0  0  0  0  0  0  0  0  0  0
   -6.8170   22.8710  -30.7890 C   0  0  0  0  0  0  0  0  0  0  0  0
   -5.4740   22.8530  -31.1990 C   0  0  0  0  0  0  0  0  0  0  0  0
   -4.7020   23.9030  -30.8330 O   0  0  0  0  0  0  0  0  0  0  0  0
   -3.9500   24.1270  -29.7310 C   0  0  0  0  0  0  0  0  0  0  0  0
   -4.6180   24.3470  -28.5220 C   0  0  0  0  0  0  0  0  0  0  0  0
   -3.9360   24.5820  -27.3450 C   0  0  0  0  0  0  0  0  0  0  0  0
   -2.5530   24.6090  -27.3210 C   0  0  0  0  0  0  0  0  0  0  0  0
   -1.5900   24.9310  -25.7160 Br  0  0  0  0  0  0  0  0  0  0  0  0
   -1.8730   24.3950  -28.5010 C   0  0  0  0  0  0  0  0  0  0  0  0
   -0.4300   24.4220  -28.4850 C   0  0  0  0  0  0  0  0  0  0  0  0
    0.7360   24.4600  -28.4730 N   0  0  0  0  0  0  0  0  0  0  0  0
   -2.5750   24.1620  -29.6640 C   0  0  0  0  0  0  0  0  0  0  0  0
   -5.0960   21.7570  -31.9330 C   0  0  0  0  0  0  0  0  0  0  0  0
   -3.7450   21.6610  -32.3890 C   0  0  0  0  0  0  0  0  0  0  0  0
   -2.6640   21.5670  -32.7670 N   0  0  0  0  0  0  0  0  0  0  0  0
   -5.9510   20.7230  -32.2640 C   0  0  0  0  0  0  0  0  0  0  0  0
   -6.5630   17.3330  -31.4150 N   0  0  0  0  0  0  0  0  0  0  0  0
   -5.7190   16.3240  -31.1850 N   0  0  0  0  0  0  0  0  0  0  0  0
   -4.1176   14.2787  -31.5387 H   0  0  0  0  0  0  0  0  0  0  0  0
   -4.9224   13.8446  -33.0848 H   0  0  0  0  0  0  0  0  0  0  0  0
   -3.5296   14.9789  -33.0848 H   0  0  0  0  0  0  0  0  0  0  0  0
   -5.8961   16.3062  -34.4600 H   0  0  0  0  0  0  0  0  0  0  0  0
   -8.7288   21.8992  -30.7708 H   0  0  0  0  0  0  0  0  0  0  0  0
   -7.1862   23.7213  -30.1969 H   0  0  0  0  0  0  0  0  0  0  0  0
   -5.7178   24.3323  -28.5087 H   0  0  0  0  0  0  0  0  0  0  0  0
   -4.4990   24.7498  -26.4150 H   0  0  0  0  0  0  0  0  0  0  0  0
   -2.0053   23.9947  -30.5900 H   0  0  0  0  0  0  0  0  0  0  0  0
   -5.5830   19.8714  -32.8550 H   0  0  0  0  0  0  0  0  0  0  0  0
   -6.9860   17.9010  -30.6440 H   0  0  0  0  0  0  0  0  0  0  0  0
   -5.3960   15.9980  -30.2300 H   0  0  0  0  0  0  0  0  0  0  0  0
  1  2  1  0
  2  3  2  0
  3  4  1  0
  4  5  2  0
  5  6  1  0
  6  7  2  0
  6  8  2  0
  6  9  1  0
  9 10  2  0
 10 11  1  0
 11 12  2  0
 12 13  1  0
 13 14  1  0
 14 15  2  0
 15 16  1  0
 16 17  2  0
 17 18  1  0
 17 19  1  0
 19 20  1  0
 20 21  3  0
 19 22  2  0
 12 23  1  0
 23 24  1  0
 24 25  3  0
 23 26  2  0
  4 27  1  0
 27 28  1  0
 28  2  1  0
 26  9  1  0
 22 14  1  0
  1 29  1  0
  1 30  1  0
  1 31  1  0
  3 32  1  0
 10 33  1  0
 11 34  1  0
 15 35  1  0
 16 36  1  0
 22 37  1  0
 26 38  1  0
 27 39  1  0
 28 40  1  0
M  END
>  <smiles>  (15) 
Cc1cc(=NS(=O)(=O)c2ccc(Oc3ccc(Br)c(C#N)c3)c(C#N)c2)[nH][nH]1

>  <score_type>  (15) 
oracle

>  <origin>  (15) 
adgpu

>  <m_score__min__energy>  (15) 
-11.109999999999999

>  <m_primary>  (15) 
energy

$$$$
15:0
     RDKit          3D

 60 63  0  0  0  0  0  0  0  0999 V2000
   -5.2790   25.2880  -30.2230 C   0  0  0  0  0  0  0  0  0  0  0  0
   -3.8740   25.2980  -30.4640 O   0  0  0  0  0  0  0  0  0  0  0  0
   -2.9600   24.4090  -29.8790 C   0  0  0  0  0  0  0  0  0  0  0  0
   -1.7570   24.8690  -29.3010 C   0  0  0  0  0  0  0  0  0  0  0  0
   -0.8350   23.9650  -28.7690 C   0  0  0  0  0  0  0  0  0  0  0  0
    0.3510   24.4290  -28.2130 O   0  0  0  0  0  0  0  0  0  0  0  0
   -1.1000   22.5970  -28.8010 C   0  0  0  0  0  0  0  0  0  0  0  0
   -2.2860   22.1290  -29.3650 C   0  0  0  0  0  0  0  0  0  0  0  0
   -3.2330   23.0210  -29.8860 C   0  0  0  0  0  0  0  0  0  0  0  0
   -4.4250   22.4670  -30.4680 N   0  0  0  0  0  0  0  0  0  0  0  0
   -4.7220   22.2270  -31.8520 C   0  0  0  0  0  0  0  0  0  0  0  0
   -5.5950   22.9460  -32.4050 O   0  0  0  0  0  0  0  0  0  0  0  0
   -3.9850   21.2250  -32.6670 C   0  0  0  0  0  0  0  0  0  0  0  0
   -2.6670   21.4990  -33.0790 C   0  0  0  0  0  0  0  0  0  0  0  0
   -1.9490   20.5740  -33.8450 C   0  0  0  0  0  0  0  0  0  0  0  0
   -0.2870   20.9040  -34.3270 S   0  0  0  0  0  0  0  0  0  0  0  0
    0.1270   19.8820  -35.3500 O   0  0  0  0  0  0  0  0  0  0  0  0
   -0.1960   22.2710  -34.9480 O   0  0  0  0  0  0  0  0  0  0  0  0
    0.7440   20.8040  -32.9150 N   0  0  0  0  0  0  0  0  0  0  0  0
    1.7540   19.7200  -33.0430 C   0  0  0  0  0  0  0  0  0  0  0  0
    1.6220   18.6100  -31.9860 C   0  0  0  0  0  0  0  0  0  0  0  0
    0.1580   18.2070  -31.8150 C   0  0  0  0  0  0  0  0  0  0  0  0
   -0.7270   19.4070  -31.4280 C   0  0  0  0  0  0  0  0  0  0  0  0
   -0.0420   20.7680  -31.6650 C   0  0  0  0  0  0  0  0  0  0  0  0
   -2.5460   19.3660  -34.2120 C   0  0  0  0  0  0  0  0  0  0  0  0
   -3.8620   19.0920  -33.8410 C   0  0  0  0  0  0  0  0  0  0  0  0
   -4.5960   20.0130  -33.0780 C   0  0  0  0  0  0  0  0  0  0  0  0
   -5.9560   19.7050  -32.7250 N   0  0  0  0  0  0  0  0  0  0  0  0
   -7.0280   20.6080  -33.1530 C   0  0  0  0  0  0  0  0  0  0  0  0
   -8.2510   20.4240  -32.2490 C   0  0  0  0  0  0  0  0  0  0  0  0
   -8.6240   19.0610  -32.1870 O   0  0  0  0  0  0  0  0  0  0  0  0
   -7.6030   18.3160  -31.5490 C   0  0  0  0  0  0  0  0  0  0  0  0
   -6.3150   18.3270  -32.3790 C   0  0  0  0  0  0  0  0  0  0  0  0
   -5.4651   25.2867  -29.1388 H   0  0  0  0  0  0  0  0  0  0  0  0
   -5.7344   26.1829  -30.6721 H   0  0  0  0  0  0  0  0  0  0  0  0
   -5.7217   24.3867  -30.6721 H   0  0  0  0  0  0  0  0  0  0  0  0
   -1.5442   25.9478  -29.2694 H   0  0  0  0  0  0  0  0  0  0  0  0
   -0.3730   21.8863  -28.3811 H   0  0  0  0  0  0  0  0  0  0  0  0
   -2.4807   21.0470  -29.4015 H   0  0  0  0  0  0  0  0  0  0  0  0
   -2.1960   22.4517  -32.7953 H   0  0  0  0  0  0  0  0  0  0  0  0
    1.6468   19.2638  -34.0382 H   0  0  0  0  0  0  0  0  0  0  0  0
    2.7393   20.1854  -32.8927 H   0  0  0  0  0  0  0  0  0  0  0  0
    2.2039   17.7334  -32.3067 H   0  0  0  0  0  0  0  0  0  0  0  0
    2.0026   18.9861  -31.0249 H   0  0  0  0  0  0  0  0  0  0  0  0
   -0.2081   17.7864  -32.7632 H   0  0  0  0  0  0  0  0  0  0  0  0
    0.1010   17.4660  -31.0040 H   0  0  0  0  0  0  0  0  0  0  0  0
   -1.6482   19.3700  -32.0280 H   0  0  0  0  0  0  0  0  0  0  0  0
   -0.9326   19.3276  -30.3503 H   0  0  0  0  0  0  0  0  0  0  0  0
   -0.8167   21.5473  -31.7146 H   0  0  0  0  0  0  0  0  0  0  0  0
    0.6549   20.9373  -30.8309 H   0  0  0  0  0  0  0  0  0  0  0  0
   -1.9762   18.6281  -34.7958 H   0  0  0  0  0  0  0  0  0  0  0  0
   -4.3291   18.1450  -34.1493 H   0  0  0  0  0  0  0  0  0  0  0  0
   -6.6776   21.6486  -33.0866 H   0  0  0  0  0  0  0  0  0  0  0  0
   -7.3054   20.3768  -34.1920 H   0  0  0  0  0  0  0  0  0  0  0  0
   -8.0087   20.7789  -31.2364 H   0  0  0  0  0  0  0  0  0  0  0  0
   -9.0893   21.0024  -32.6646 H   0  0  0  0  0  0  0  0  0  0  0  0
   -7.3989   18.7572  -30.5622 H   0  0  0  0  0  0  0  0  0  0  0  0
   -7.9427   17.2752  -31.4429 H   0  0  0  0  0  0  0  0  0  0  0  0
   -5.5007   17.8738  -31.7946 H   0  0  0  0  0  0  0  0  0  0  0  0
   -6.4747   17.7517  -33.3028 H   0  0  0  0  0  0  0  0  0  0  0  0
  1  2  1  0
  2  3  1  0
  3  4  2  0
  4  5  1  0
  5  6  1  0
  5  7  2  0
  7  8  1  0
  8  9  2  0
  9 10  1  0
 10 11  1  0
 11 12  2  0
 11 13  1  0
 13 14  2  0
 14 15  1  0
 15 16  1  0
 16 17  2  0
 16 18  2  0
 16 19  1  0
 19 20  1  0
 20 21  1  0
 21 22  1  0
 22 23  1  0
 23 24  1  0
 15 25  2  0
 25 26  1  0
 26 27  2  0
 27 28  1  0
 28 29  1  0
 29 30  1  0
 30 31  1  0
 31 32  1  0
 32 33  1  0
  9  3  1  0
 27 13  1  0
 33 28  1  0
 24 19  1  0
  1 34  1  0
  1 35  1  0
  1 36  1  0
  4 37  1  0
  7 38  1  0
  8 39  1  0
 14 40  1  0
 20 41  1  0
 20 42  1  0
 21 43  1  0
 21 44  1  0
 22 45  1  0
 22 46  1  0
 23 47  1  0
 23 48  1  0
 24 49  1  0
 24 50  1  0
 25 51  1  0
 26 52  1  0
 29 53  1  0
 29 54  1  0
 30 55  1  0
 30 56  1  0
 32 57  1  0
 32 58  1  0
 33 59  1  0
 33 60  1  0
M  CHG  2   6  -1  10  -1
M  END
>  <UniqueID>  (16) 
14

>  <SMILES>  (16) 
COc1cc([O-])ccc1[N-]C(=O)c1cc(S(=O)(=O)N2CCCCC2)ccc1N1CCOCC1

>  <Energy>  (16) 
79.49538178628642

>  <Genealogy>  (16) 
COc1cc([O-])ccc1[N-]C(=O)c1cc(S(=O)(=O)N2CCCCC2)ccc1N1CCOCC1 (protonated)
COc1cc([O-])ccc1[N-]C(=O)c1cc(S(=O)(=O)N2CCCCC2)ccc1N1CCOCC1 (3D coordinates assigned)
COc1cc([O-])ccc1[N-]C(=O)c1cc(S(=O)(=O)N2CCCCC2)ccc1N1CCOCC1 (nonaromatic ring conformer: 79.49538178628642 kcal/mol)

>  <smiles>  (16) 
COc1cc(O)ccc1NC(=O)c1cc(S(=O)(=O)N2CCCCC2)ccc1N1CCOCC1

>  <score_type>  (16) 
oracle

>  <origin>  (16) 
adgpu

>  <m_score__min__energy>  (16) 
-10.859999999999999

>  <m_primary>  (16) 
energy

$$$$
16:0
     RDKit          3D

 54 57  0  0  0  0  0  0  0  0999 V2000
   -5.4590   24.9580  -31.1470 O   0  0  0  0  0  0  0  0  0  0  0  0
   -4.5440   24.0850  -30.3360 S   0  0  0  0  0  0  0  0  0  0  0  0
   -5.1970   23.8130  -29.0100 O   0  0  0  0  0  0  0  0  0  0  0  0
   -3.0460   24.9110  -30.0790 N   0  0  0  0  0  0  0  0  0  0  0  0
   -2.1760   24.5350  -29.0140 C   0  0  0  0  0  0  0  0  0  0  0  0
   -2.2220   23.2320  -28.5000 C   0  0  0  0  0  0  0  0  0  0  0  0
   -1.3700   22.8570  -27.4510 C   0  0  0  0  0  0  0  0  0  0  0  0
   -1.4080   21.2220  -26.7980 S   0  0  0  0  0  0  0  0  0  0  0  0
   -2.7310   20.5720  -27.1020 O   0  0  0  0  0  0  0  0  0  0  0  0
   -1.2430   21.3030  -25.3050 O   0  0  0  0  0  0  0  0  0  0  0  0
   -0.1000   20.2840  -27.4870 N   0  0  0  0  0  0  0  0  0  0  0  0
    0.5830   21.0530  -28.5320 C   0  0  0  0  0  0  0  0  0  0  0  0
   -0.0640   20.7130  -29.8660 C   0  0  0  0  0  0  0  0  0  0  0  0
   -0.8130   19.4150  -29.6330 C   0  0  0  0  0  0  0  0  0  0  0  0
   -0.6220   19.0890  -28.1580 C   0  0  0  0  0  0  0  0  0  0  0  0
   -0.4680   23.7900  -26.9250 C   0  0  0  0  0  0  0  0  0  0  0  0
   -0.4250   25.0910  -27.4340 C   0  0  0  0  0  0  0  0  0  0  0  0
   -1.2790   25.4660  -28.4750 C   0  0  0  0  0  0  0  0  0  0  0  0
   -1.2310   26.7640  -28.9740 O   0  0  0  0  0  0  0  0  0  0  0  0
   -4.2590   22.5570  -31.1740 C   0  0  0  0  0  0  0  0  0  0  0  0
   -5.3490   21.7530  -31.5380 C   0  0  0  0  0  0  0  0  0  0  0  0
   -5.1450   20.5400  -32.2070 C   0  0  0  0  0  0  0  0  0  0  0  0
   -6.5270   19.5460  -32.6520 S   0  0  0  0  0  0  0  0  0  0  0  0
   -7.3310   19.2240  -31.4240 O   0  0  0  0  0  0  0  0  0  0  0  0
   -7.4150   20.2850  -33.6140 O   0  0  0  0  0  0  0  0  0  0  0  0
   -5.9470   18.0640  -33.4020 C   0  0  0  0  0  0  0  0  0  0  0  0
   -6.2720   16.8180  -32.8470 C   0  0  0  0  0  0  0  0  0  0  0  0
   -5.7920   15.6420  -33.4330 C   0  0  0  0  0  0  0  0  0  0  0  0
   -4.9830   15.7070  -34.5720 C   0  0  0  0  0  0  0  0  0  0  0  0
   -4.6490   16.9480  -35.1230 C   0  0  0  0  0  0  0  0  0  0  0  0
   -5.1260   18.1250  -34.5380 C   0  0  0  0  0  0  0  0  0  0  0  0
   -3.8420   20.1260  -32.5090 C   0  0  0  0  0  0  0  0  0  0  0  0
   -2.7540   20.9340  -32.1710 C   0  0  0  0  0  0  0  0  0  0  0  0
   -2.9570   22.1490  -31.5100 C   0  0  0  0  0  0  0  0  0  0  0  0
   -1.8600   22.9450  -31.1990 O   0  0  0  0  0  0  0  0  0  0  0  0
   -2.9285   22.5012  -28.9206 H   0  0  0  0  0  0  0  0  0  0  0  0
    0.4797   22.1295  -28.3308 H   0  0  0  0  0  0  0  0  0  0  0  0
    1.6538   20.8023  -28.5522 H   0  0  0  0  0  0  0  0  0  0  0  0
   -0.7595   21.5091  -30.1701 H   0  0  0  0  0  0  0  0  0  0  0  0
    0.6818   20.6157  -30.6687 H   0  0  0  0  0  0  0  0  0  0  0  0
   -1.8812   19.5419  -29.8627 H   0  0  0  0  0  0  0  0  0  0  0  0
   -0.4379   18.6078  -30.2794 H   0  0  0  0  0  0  0  0  0  0  0  0
   -1.5861   18.8032  -27.7122 H   0  0  0  0  0  0  0  0  0  0  0  0
    0.0816   18.2513  -28.0426 H   0  0  0  0  0  0  0  0  0  0  0  0
    0.2089   23.4981  -26.1086 H   0  0  0  0  0  0  0  0  0  0  0  0
    0.2825   25.8214  -27.0144 H   0  0  0  0  0  0  0  0  0  0  0  0
   -6.3718   22.0778  -31.2961 H   0  0  0  0  0  0  0  0  0  0  0  0
   -6.9055   16.7652  -31.9493 H   0  0  0  0  0  0  0  0  0  0  0  0
   -6.0510   14.6655  -32.9977 H   0  0  0  0  0  0  0  0  0  0  0  0
   -4.6093   14.7816  -35.0345 H   0  0  0  0  0  0  0  0  0  0  0  0
   -4.0105   16.9983  -36.0173 H   0  0  0  0  0  0  0  0  0  0  0  0
   -4.8571   19.1005  -34.9693 H   0  0  0  0  0  0  0  0  0  0  0  0
   -3.6749   19.1628  -33.0133 H   0  0  0  0  0  0  0  0  0  0  0  0
   -1.7332   20.6130  -32.4260 H   0  0  0  0  0  0  0  0  0  0  0  0
  1  2  2  0
  2  3  2  0
  2  4  1  0
  4  5  1  0
  5  6  2  0
  6  7  1  0
  7  8  1  0
  8  9  2  0
  8 10  2  0
  8 11  1  0
 11 12  1  0
 12 13  1  0
 13 14  1  0
 14 15  1  0
  7 16  2  0
 16 17  1  0
 17 18  2  0
 18 19  1  0
  2 20  1  0
 20 21  2  0
 21 22  1  0
 22 23  1  0
 23 24  2  0
 23 25  2  0
 23 26  1  0
 26 27  2  0
 27 28  1  0
 28 29  2  0
 29 30  1  0
 30 31  2  0
 22 32  2  0
 32 33  1  0
 33 34  2  0
 34 35  1  0
 18  5  1  0
 34 20  1  0
 15 11  1  0
 31 26  1  0
  6 36  1  0
 12 37  1  0
 12 38  1  0
 13 39  1  0
 13 40  1  0
 14 41  1  0
 14 42  1  0
 15 43  1  0
 15 44  1  0
 16 45  1  0
 17 46  1  0
 21 47  1  0
 27 48  1  0
 28 49  1  0
 29 50  1  0
 30 51  1  0
 31 52  1  0
 32 53  1  0
 33 54  1  0
M  CHG  3   4  -1  19  -1  35  -1
M  END
>  <UniqueID>  (17) 
15

>  <SMILES>  (17) 
O=S(=O)([N-]c1cc(S(=O)(=O)N2CCCC2)ccc1[O-])c1cc(S(=O)(=O)c2ccccc2)ccc1[O-]

>  <Energy>  (17) 
65.98582046868077

>  <Genealogy>  (17) 
O=S(=O)([N-]c1cc(S(=O)(=O)N2CCCC2)ccc1[O-])c1cc(S(=O)(=O)c2ccccc2)ccc1[O-] (protonated)
O=S(=O)([N-]c1cc(S(=O)(=O)N2CCCC2)ccc1[O-])c1cc(S(=O)(=O)c2ccccc2)ccc1[O-] (3D coordinates assigned)
O=S(=O)([N-]c1cc(S(=O)(=O)N2CCCC2)ccc1[O-])c1cc(S(=O)(=O)c2ccccc2)ccc1[O-] (nonaromatic ring conformer: 65.98582046868077 kcal/mol)

>  <smiles>  (17) 
O=S(=O)(Nc1cc(S(=O)(=O)N2CCCC2)ccc1O)c1cc(S(=O)(=O)c2ccccc2)ccc1O

>  <score_type>  (17) 
oracle

>  <origin>  (17) 
adgpu

>  <m_score__min__energy>  (17) 
-15.26

>  <m_primary>  (17) 
energy

$$$$
17:0
     RDKit          3D

 59 62  0  0  0  0  0  0  0  0999 V2000
   -5.7920   23.1140  -30.4650 C   0  0  0  0  0  0  0  0  0  0  0  0
   -6.5470   22.1290  -31.3190 C   0  0  0  0  0  0  0  0  0  0  0  0
   -7.9380   22.0150  -31.1330 C   0  0  0  0  0  0  0  0  0  0  0  0
   -8.6880   21.1240  -31.9030 C   0  0  0  0  0  0  0  0  0  0  0  0
   -8.0620   20.3280  -32.8620 C   0  0  0  0  0  0  0  0  0  0  0  0
   -6.6830   20.4200  -33.0550 C   0  0  0  0  0  0  0  0  0  0  0  0
   -5.9080   21.3130  -32.2950 C   0  0  0  0  0  0  0  0  0  0  0  0
   -4.1650   21.3530  -32.6490 S   0  0  0  0  0  0  0  0  0  0  0  0
   -3.8320   22.2420  -33.8140 O   0  0  0  0  0  0  0  0  0  0  0  0
   -3.4950   21.9000  -31.4200 O   0  0  0  0  0  0  0  0  0  0  0  0
   -3.5780   19.7140  -33.0070 C   0  0  0  0  0  0  0  0  0  0  0  0
   -4.5070   18.6600  -32.9650 C   0  0  0  0  0  0  0  0  0  0  0  0
   -4.1090   17.3380  -33.1830 C   0  0  0  0  0  0  0  0  0  0  0  0
   -5.2980   16.0420  -33.1090 S   0  0  0  0  0  0  0  0  0  0  0  0
   -6.9340   16.7410  -33.1360 C   0  0  0  0  0  0  0  0  0  0  0  0
   -5.1300   15.1200  -34.2850 O   0  0  0  0  0  0  0  0  0  0  0  0
   -5.1050   15.2520  -31.8450 O   0  0  0  0  0  0  0  0  0  0  0  0
   -2.7740   17.0580  -33.4750 C   0  0  0  0  0  0  0  0  0  0  0  0
   -1.8430   18.0930  -33.5550 C   0  0  0  0  0  0  0  0  0  0  0  0
   -2.2270   19.4280  -33.3430 C   0  0  0  0  0  0  0  0  0  0  0  0
   -0.9850   20.6820  -33.5200 S   0  0  0  0  0  0  0  0  0  0  0  0
   -1.3860   21.9220  -32.7740 O   0  0  0  0  0  0  0  0  0  0  0  0
   -0.8450   21.0290  -34.9770 O   0  0  0  0  0  0  0  0  0  0  0  0
    0.5260   20.0740  -32.9210 N   0  0  0  0  0  0  0  0  0  0  0  0
    0.6690   19.1550  -31.8330 C   0  0  0  0  0  0  0  0  0  0  0  0
    1.4010   18.1420  -31.9910 O   0  0  0  0  0  0  0  0  0  0  0  0
   -0.0040   19.3570  -30.5350 C   0  0  0  0  0  0  0  0  0  0  0  0
    0.0230   18.3670  -29.5440 C   0  0  0  0  0  0  0  0  0  0  0  0
   -0.6040   18.5720  -28.3560 N   0  0  0  0  0  0  0  0  0  0  0  0
   -1.2680   19.7260  -28.0840 C   0  0  0  0  0  0  0  0  0  0  0  0
   -1.3080   20.7620  -29.0350 C   0  0  0  0  0  0  0  0  0  0  0  0
   -2.0250   22.0300  -28.7500 C   0  0  0  0  0  0  0  0  0  0  0  0
   -3.2330   22.0190  -28.0290 C   0  0  0  0  0  0  0  0  0  0  0  0
   -3.9040   23.2160  -27.7520 C   0  0  0  0  0  0  0  0  0  0  0  0
   -3.3750   24.4320  -28.1890 C   0  0  0  0  0  0  0  0  0  0  0  0
   -2.1770   24.4560  -28.9070 C   0  0  0  0  0  0  0  0  0  0  0  0
   -1.6490   25.6670  -29.3370 O   0  0  0  0  0  0  0  0  0  0  0  0
   -1.5030   23.2610  -29.1890 C   0  0  0  0  0  0  0  0  0  0  0  0
   -0.6560   20.5670  -30.2640 C   0  0  0  0  0  0  0  0  0  0  0  0
   -5.9659   22.8871  -29.4028 H   0  0  0  0  0  0  0  0  0  0  0  0
   -4.7166   23.0407  -30.6843 H   0  0  0  0  0  0  0  0  0  0  0  0
   -6.1422   24.1334  -30.6843 H   0  0  0  0  0  0  0  0  0  0  0  0
   -8.4386   22.6338  -30.3738 H   0  0  0  0  0  0  0  0  0  0  0  0
   -9.7752   21.0496  -31.7529 H   0  0  0  0  0  0  0  0  0  0  0  0
   -8.6559   19.6270  -33.4668 H   0  0  0  0  0  0  0  0  0  0  0  0
   -6.1966   19.7860  -33.8110 H   0  0  0  0  0  0  0  0  0  0  0  0
   -5.5647   18.8792  -32.7571 H   0  0  0  0  0  0  0  0  0  0  0  0
   -7.2856   16.8912  -32.1046 H   0  0  0  0  0  0  0  0  0  0  0  0
   -6.9110   17.7079  -33.6601 H   0  0  0  0  0  0  0  0  0  0  0  0
   -7.6168   16.0560  -33.6601 H   0  0  0  0  0  0  0  0  0  0  0  0
   -2.4551   16.0187  -33.6425 H   0  0  0  0  0  0  0  0  0  0  0  0
   -0.7931   17.8612  -33.7874 H   0  0  0  0  0  0  0  0  0  0  0  0
    0.5533   17.4210  -29.7282 H   0  0  0  0  0  0  0  0  0  0  0  0
   -1.7762   19.8506  -27.1164 H   0  0  0  0  0  0  0  0  0  0  0  0
   -3.6529   21.0638  -27.6807 H   0  0  0  0  0  0  0  0  0  0  0  0
   -4.8491   23.1985  -27.1894 H   0  0  0  0  0  0  0  0  0  0  0  0
   -3.9020   25.3718  -27.9677 H   0  0  0  0  0  0  0  0  0  0  0  0
   -0.5610   23.2848  -29.7564 H   0  0  0  0  0  0  0  0  0  0  0  0
   -0.6574   21.3685  -31.0174 H   0  0  0  0  0  0  0  0  0  0  0  0
  1  2  1  0
  2  3  2  0
  3  4  1  0
  4  5  2  0
  5  6  1  0
  6  7  2  0
  7  8  1  0
  8  9  2  0
  8 10  2  0
  8 11  1  0
 11 12  2  0
 12 13  1  0
 13 14  1  0
 14 15  1  0
 14 16  2  0
 14 17  2  0
 13 18  2  0
 18 19  1  0
 19 20  2  0
 20 21  1  0
 21 22  2  0
 21 23  2  0
 21 24  1  0
 24 25  1  0
 25 26  2  0
 25 27  1  0
 27 28  2  0
 28 29  1  0
 29 30  2  0
 30 31  1  0
 31 32  1  0
 32 33  2  0
 33 34  1  0
 34 35  2  0
 35 36  1  0
 36 37  1  0
 36 38  2  0
 31 39  2  0
  7  2  1  0
 20 11  1  0
 39 27  1  0
 38 32  1  0
  1 40  1  0
  1 41  1  0
  1 42  1  0
  3 43  1  0
  4 44  1  0
  5 45  1  0
  6 46  1  0
 12 47  1  0
 15 48  1  0
 15 49  1  0
 15 50  1  0
 18 51  1  0
 19 52  1  0
 28 53  1  0
 30 54  1  0
 33 55  1  0
 34 56  1  0
 35 57  1  0
 38 58  1  0
 39 59  1  0
M  CHG  2  24  -1  37  -1
M  END
>  <UniqueID>  (18) 
16

>  <SMILES>  (18) 
Cc1ccccc1S(=O)(=O)c1cc(S(C)(=O)=O)ccc1S(=O)(=O)[N-]C(=O)c1cncc(-c2cccc([O-])c2)c1

>  <Energy>  (18) 
85.2944004181736

>  <Genealogy>  (18) 
Cc1ccccc1S(=O)(=O)c1cc(S(C)(=O)=O)ccc1S(=O)(=O)[N-]C(=O)c1cncc(-c2cccc([O-])c2)c1 (protonated)
Cc1ccccc1S(=O)(=O)c1cc(S(C)(=O)=O)ccc1S(=O)(=O)[N-]C(=O)c1cncc(-c2cccc([O-])c2)c1 (3D coordinates assigned)
Cc1ccccc1S(=O)(=O)c1cc(S(C)(=O)=O)ccc1S(=O)(=O)[N-]C(=O)c1cncc(-c2cccc([O-])c2)c1 (optimized conformer: 85.2944004181736 kcal/mol)

>  <smiles>  (18) 
Cc1ccccc1S(=O)(=O)c1cc(S(C)(=O)=O)ccc1S(=O)(=O)NC(=O)c1cncc(-c2cccc(O)c2)c1

>  <score_type>  (18) 
oracle

>  <origin>  (18) 
adgpu

>  <m_score__min__energy>  (18) 
-14.32

>  <m_primary>  (18) 
energy

$$$$
18:0
     RDKit          3D

 39 41  0  0  0  0  0  0  0  0999 V2000
   -9.4670   21.9230  -31.5650 C   0  0  0  0  0  0  0  0  0  0  0  0
   -8.1230   21.4790  -31.9890 N   0  0  0  0  0  0  0  0  0  0  0  0
   -7.9910   20.3330  -32.7310 C   0  0  0  0  0  0  0  0  0  0  0  0
   -9.0060   19.6580  -33.0600 O   0  0  0  0  0  0  0  0  0  0  0  0
   -6.7290   19.8900  -33.1380 C   0  0  0  0  0  0  0  0  0  0  0  0
   -6.6500   18.8300  -33.8190 O   0  0  0  0  0  0  0  0  0  0  0  0
   -5.6010   20.5950  -32.8040 N   0  0  0  0  0  0  0  0  0  0  0  0
   -4.2790   20.1050  -33.2430 C   0  0  0  0  0  0  0  0  0  0  0  0
   -5.7150   21.7510  -32.0620 C   0  0  0  0  0  0  0  0  0  0  0  0
   -4.5750   22.5090  -31.6950 C   0  0  0  0  0  0  0  0  0  0  0  0
   -4.6870   23.6700  -30.9280 C   0  0  0  0  0  0  0  0  0  0  0  0
   -3.4900   24.3840  -30.5900 N   0  0  0  0  0  0  0  0  0  0  0  0
   -2.9310   24.4470  -29.2740 C   0  0  0  0  0  0  0  0  0  0  0  0
   -3.1940   23.5450  -28.4330 O   0  0  0  0  0  0  0  0  0  0  0  0
   -2.0130   25.5000  -28.9520 N   0  0  0  0  0  0  0  0  0  0  0  0
   -1.5620   25.7980  -27.6190 C   0  0  0  0  0  0  0  0  0  0  0  0
   -0.3940   26.5550  -27.4420 C   0  0  0  0  0  0  0  0  0  0  0  0
    0.0530   26.8780  -26.1570 C   0  0  0  0  0  0  0  0  0  0  0  0
   -0.6710   26.4590  -25.0370 C   0  0  0  0  0  0  0  0  0  0  0  0
   -0.1100   26.8670  -23.4260 Cl  0  0  0  0  0  0  0  0  0  0  0  0
   -1.8490   25.7260  -25.2040 C   0  0  0  0  0  0  0  0  0  0  0  0
   -2.2990   25.4000  -26.4880 C   0  0  0  0  0  0  0  0  0  0  0  0
   -5.9570   24.1350  -30.5570 C   0  0  0  0  0  0  0  0  0  0  0  0
   -6.1750   25.6770  -29.7330 Cl  0  0  0  0  0  0  0  0  0  0  0  0
   -7.0920   23.4070  -30.9080 C   0  0  0  0  0  0  0  0  0  0  0  0
   -7.0000   22.2040  -31.6500 C   0  0  0  0  0  0  0  0  0  0  0  0
   -9.5179   21.9398  -30.4663 H   0  0  0  0  0  0  0  0  0  0  0  0
   -9.6601   22.9327  -31.9565 H   0  0  0  0  0  0  0  0  0  0  0  0
  -10.2235   21.2270  -31.9565 H   0  0  0  0  0  0  0  0  0  0  0  0
   -3.6616   19.8762  -32.3618 H   0  0  0  0  0  0  0  0  0  0  0  0
   -4.4074   19.1947  -33.8471 H   0  0  0  0  0  0  0  0  0  0  0  0
   -3.7831   20.8791  -33.8471 H   0  0  0  0  0  0  0  0  0  0  0  0
   -3.5793   22.1748  -32.0220 H   0  0  0  0  0  0  0  0  0  0  0  0
   -1.5990   26.0370  -29.7470 H   0  0  0  0  0  0  0  0  0  0  0  0
    0.1739   26.8967  -28.3199 H   0  0  0  0  0  0  0  0  0  0  0  0
    0.9757   27.4627  -26.0273 H   0  0  0  0  0  0  0  0  0  0  0  0
   -2.4242   25.4044  -24.3233 H   0  0  0  0  0  0  0  0  0  0  0  0
   -3.2318   24.8308  -26.6139 H   0  0  0  0  0  0  0  0  0  0  0  0
   -8.0824   23.7750  -30.6018 H   0  0  0  0  0  0  0  0  0  0  0  0
  1  2  1  0
  2  3  1  0
  3  4  2  0
  3  5  1  0
  5  6  2  0
  5  7  1  0
  7  8  1  0
  7  9  1  0
  9 10  2  0
 10 11  1  0
 11 12  1  0
 12 13  1  0
 13 14  2  0
 13 15  1  0
 15 16  1  0
 16 17  2  0
 17 18  1  0
 18 19  2  0
 19 20  1  0
 19 21  1  0
 21 22  2  0
 11 23  2  0
 23 24  1  0
 23 25  1  0
 25 26  2  0
 26  2  1  0
 26  9  1  0
 22 16  1  0
  1 27  1  0
  1 28  1  0
  1 29  1  0
  8 30  1  0
  8 31  1  0
  8 32  1  0
 10 33  1  0
 15 34  1  0
 17 35  1  0
 18 36  1  0
 21 37  1  0
 22 38  1  0
 25 39  1  0
M  CHG  1  12  -1
M  END
>  <UniqueID>  (19) 
17

>  <SMILES>  (19) 
Cn1c(=O)c(=O)n(C)c2cc([N-]C(=O)Nc3ccc(Cl)cc3)c(Cl)cc21

>  <Energy>  (19) 
69.07389506997511

>  <Genealogy>  (19) 
Cn1c(=O)c(=O)n(C)c2cc([N-]C(=O)Nc3ccc(Cl)cc3)c(Cl)cc21 (protonated)
Cn1c(=O)c(=O)n(C)c2cc([N-]C(=O)Nc3ccc(Cl)cc3)c(Cl)cc21 (3D coordinates assigned)
Cn1c(=O)c(=O)n(C)c2cc([N-]C(=O)Nc3ccc(Cl)cc3)c(Cl)cc21 (optimized conformer: 69.07389506997511 kcal/mol)

>  <smiles>  (19) 
Cn1c(=O)c(=O)n(C)c2cc(NC(=O)Nc3ccc(Cl)cc3)c(Cl)cc21

>  <score_type>  (19) 
oracle

>  <origin>  (19) 
adgpu

>  <m_score__min__energy>  (19) 
-11.4

>  <m_primary>  (19) 
energy

$$$$
19:0
     RDKit          3D

 57 60  0  0  0  0  0  0  0  0999 V2000
   -2.9740   12.4530  -37.1110 C   0  0  0  0  0  0  0  0  0  0  0  0
   -3.6830   13.2680  -36.0710 C   0  0  0  0  0  0  0  0  0  0  0  0
   -4.8830   12.8120  -35.5020 C   0  0  0  0  0  0  0  0  0  0  0  0
   -5.5330   13.5730  -34.5260 C   0  0  0  0  0  0  0  0  0  0  0  0
   -4.9980   14.8040  -34.1100 C   0  0  0  0  0  0  0  0  0  0  0  0
   -5.7230   15.6410  -33.0880 C   0  0  0  0  0  0  0  0  0  0  0  0
   -5.1160   16.9670  -32.9830 N   0  0  0  0  0  0  0  0  0  0  0  0
   -5.3270   17.9930  -33.9660 C   0  0  0  0  0  0  0  0  0  0  0  0
   -5.9700   17.7260  -35.0270 O   0  0  0  0  0  0  0  0  0  0  0  0
   -5.0120   19.4290  -33.6050 C   0  0  0  0  0  0  0  0  0  0  0  0
   -6.4780   19.5540  -33.7520 C   0  0  0  0  0  0  0  0  0  0  0  0
   -7.2670   20.1770  -32.8130 N   0  0  0  0  0  0  0  0  0  0  0  0
   -8.7240   19.9700  -32.8510 C   0  0  0  0  0  0  0  0  0  0  0  0
   -6.6960   21.0950  -31.9790 C   0  0  0  0  0  0  0  0  0  0  0  0
   -7.4020   21.7580  -30.9550 C   0  0  0  0  0  0  0  0  0  0  0  0
   -6.7840   22.7750  -30.2200 C   0  0  0  0  0  0  0  0  0  0  0  0
   -5.4770   23.1740  -30.5260 C   0  0  0  0  0  0  0  0  0  0  0  0
   -4.6720   24.4160  -29.5650 S   0  0  0  0  0  0  0  0  0  0  0  0
   -3.8740   25.2980  -30.4840 O   0  0  0  0  0  0  0  0  0  0  0  0
   -5.7110   25.2720  -28.8940 O   0  0  0  0  0  0  0  0  0  0  0  0
   -3.6090   23.7420  -28.3440 N   0  0  0  0  0  0  0  0  0  0  0  0
   -2.4550   23.0320  -28.9260 C   0  0  0  0  0  0  0  0  0  0  0  0
   -1.3160   23.9870  -29.3590 C   0  0  0  0  0  0  0  0  0  0  0  0
   -1.4710   25.3070  -28.8720 O   0  0  0  0  0  0  0  0  0  0  0  0
   -1.8050   25.2790  -27.5040 C   0  0  0  0  0  0  0  0  0  0  0  0
   -3.2280   24.7240  -27.3080 C   0  0  0  0  0  0  0  0  0  0  0  0
   -4.7990   22.5580  -31.5840 C   0  0  0  0  0  0  0  0  0  0  0  0
   -5.3880   21.4820  -32.2680 C   0  0  0  0  0  0  0  0  0  0  0  0
   -4.7150   20.7620  -33.2710 C   0  0  0  0  0  0  0  0  0  0  0  0
   -3.6660   21.2530  -33.7730 O   0  0  0  0  0  0  0  0  0  0  0  0
   -3.7780   15.2410  -34.6530 C   0  0  0  0  0  0  0  0  0  0  0  0
   -3.1230   14.4750  -35.6230 C   0  0  0  0  0  0  0  0  0  0  0  0
   -2.3285   11.7110  -36.6182 H   0  0  0  0  0  0  0  0  0  0  0  0
   -3.7143   11.9356  -37.7389 H   0  0  0  0  0  0  0  0  0  0  0  0
   -2.3591   13.1145  -37.7389 H   0  0  0  0  0  0  0  0  0  0  0  0
   -5.3131   11.8526  -35.8254 H   0  0  0  0  0  0  0  0  0  0  0  0
   -6.4694   13.2058  -34.0807 H   0  0  0  0  0  0  0  0  0  0  0  0
   -6.7754   15.7482  -33.3897 H   0  0  0  0  0  0  0  0  0  0  0  0
   -5.6559   15.1423  -32.1098 H   0  0  0  0  0  0  0  0  0  0  0  0
   -4.5390   17.1890  -32.1400 H   0  0  0  0  0  0  0  0  0  0  0  0
   -6.9568   19.1320  -34.6479 H   0  0  0  0  0  0  0  0  0  0  0  0
   -9.1134   19.9147  -31.8237 H   0  0  0  0  0  0  0  0  0  0  0  0
   -9.2000   20.8095  -33.3788 H   0  0  0  0  0  0  0  0  0  0  0  0
   -8.9473   19.0311  -33.3788 H   0  0  0  0  0  0  0  0  0  0  0  0
   -8.4416   21.4749  -30.7333 H   0  0  0  0  0  0  0  0  0  0  0  0
   -7.3272   23.2637  -29.3977 H   0  0  0  0  0  0  0  0  0  0  0  0
   -2.0594   22.3312  -28.1760 H   0  0  0  0  0  0  0  0  0  0  0  0
   -2.8088   22.5102  -29.8274 H   0  0  0  0  0  0  0  0  0  0  0  0
   -0.3634   23.5863  -28.9822 H   0  0  0  0  0  0  0  0  0  0  0  0
   -1.3396   24.0422  -30.4574 H   0  0  0  0  0  0  0  0  0  0  0  0
   -1.0892   24.6371  -26.9696 H   0  0  0  0  0  0  0  0  0  0  0  0
   -1.7648   26.3040  -27.1067 H   0  0  0  0  0  0  0  0  0  0  0  0
   -3.2818   24.2351  -26.3241 H   0  0  0  0  0  0  0  0  0  0  0  0
   -3.9261   25.5708  -27.3826 H   0  0  0  0  0  0  0  0  0  0  0  0
   -3.8025   22.9174  -31.8805 H   0  0  0  0  0  0  0  0  0  0  0  0
   -3.3361   16.1895  -34.3139 H   0  0  0  0  0  0  0  0  0  0  0  0
   -2.1641   14.8201  -36.0370 H   0  0  0  0  0  0  0  0  0  0  0  0
  1  2  1  0
  2  3  2  0
  3  4  1  0
  4  5  2  0
  5  6  1  0
  6  7  1  0
  7  8  1  0
  8  9  2  0
  8 10  1  0
 10 11  2  0
 11 12  1  0
 12 13  1  0
 12 14  1  0
 14 15  2  0
 15 16  1  0
 16 17  2  0
 17 18  1  0
 18 19  2  0
 18 20  2  0
 18 21  1  0
 21 22  1  0
 22 23  1  0
 23 24  1  0
 24 25  1  0
 25 26  1  0
 17 27  1  0
 27 28  2  0
 28 29  1  0
 29 30  2  0
  5 31  1  0
 31 32  2  0
 32  2  1  0
 29 10  1  0
 28 14  1  0
 26 21  1  0
  1 33  1  0
  1 34  1  0
  1 35  1  0
  3 36  1  0
  4 37  1  0
  6 38  1  0
  6 39  1  0
  7 40  1  0
 11 41  1  0
 13 42  1  0
 13 43  1  0
 13 44  1  0
 15 45  1  0
 16 46  1  0
 22 47  1  0
 22 48  1  0
 23 49  1  0
 23 50  1  0
 25 51  1  0
 25 52  1  0
 26 53  1  0
 26 54  1  0
 27 55  1  0
 31 56  1  0
 32 57  1  0
M  END
>  <UniqueID>  (20) 
18

>  <SMILES>  (20) 
Cc1ccc(CNC(=O)c2cn(C)c3ccc(S(=O)(=O)N4CCOCC4)cc3c2=O)cc1

>  <Energy>  (20) 
228.94121768327008

>  <Genealogy>  (20) 
Cc1ccc(CNC(=O)c2cn(C)c3ccc(S(=O)(=O)N4CCOCC4)cc3c2=O)cc1 (3D coordinates assigned)
Cc1ccc(CNC(=O)c2cn(C)c3ccc(S(=O)(=O)N4CCOCC4)cc3c2=O)cc1 (nonaromatic ring conformer: 228.94121768327008 kcal/mol)

>  <smiles>  (20) 
Cc1ccc(CNC(=O)c2cn(C)c3ccc(S(=O)(=O)N4CCOCC4)cc3c2=O)cc1

>  <score_type>  (20) 
oracle

>  <origin>  (20) 
adgpu

>  <m_score__min__energy>  (20) 
-10.49

>  <m_primary>  (20) 
energy

$$$$
20:0
     RDKit          3D

 64 67  0  0  0  0  0  0  0  0999 V2000
   -5.7980   23.3420  -32.4880 O   0  0  0  0  0  0  0  0  0  0  0  0
   -6.4480   22.7730  -31.5700 C   0  0  0  0  0  0  0  0  0  0  0  0
   -6.2280   23.1100  -30.2300 O   0  0  0  0  0  0  0  0  0  0  0  0
   -5.8160   24.4090  -29.8120 C   0  0  0  0  0  0  0  0  0  0  0  0
   -4.3260   24.5600  -29.9390 C   0  0  0  0  0  0  0  0  0  0  0  0
   -3.8660   25.3280  -30.8260 O   0  0  0  0  0  0  0  0  0  0  0  0
   -3.4220   23.8360  -29.0850 N   0  0  0  0  0  0  0  0  0  0  0  0
   -1.9790   23.9620  -29.1760 C   0  0  0  0  0  0  0  0  0  0  0  0
   -1.4240   23.1940  -27.9850 C   0  0  0  0  0  0  0  0  0  0  0  0
   -2.5520   22.2760  -27.5240 C   0  0  0  0  0  0  0  0  0  0  0  0
   -3.8380   22.8960  -28.0560 C   0  0  0  0  0  0  0  0  0  0  0  0
   -7.4680   21.7640  -31.9010 C   0  0  0  0  0  0  0  0  0  0  0  0
   -8.8160   22.1270  -31.7470 C   0  0  0  0  0  0  0  0  0  0  0  0
   -9.8360   21.2340  -32.0780 C   0  0  0  0  0  0  0  0  0  0  0  0
   -9.5230   19.9640  -32.5590 C   0  0  0  0  0  0  0  0  0  0  0  0
   -8.1900   19.5760  -32.6920 C   0  0  0  0  0  0  0  0  0  0  0  0
   -7.1490   20.4560  -32.3540 C   0  0  0  0  0  0  0  0  0  0  0  0
   -5.4950   19.8140  -32.4460 S   0  0  0  0  0  0  0  0  0  0  0  0
   -5.1840   18.8880  -31.3040 O   0  0  0  0  0  0  0  0  0  0  0  0
   -5.3860   19.0200  -33.7210 O   0  0  0  0  0  0  0  0  0  0  0  0
   -4.3350   21.1250  -32.4980 N   0  0  2  0  0  0  0  0  0  0  0  0
   -3.2370   20.7810  -33.4390 C   0  0  0  0  0  0  0  0  0  0  0  0
   -1.9430   21.5430  -33.1200 C   0  0  0  0  0  0  0  0  0  0  0  0
   -1.4260   21.2080  -31.6960 C   0  0  2  0  0  0  0  0  0  0  0  0
   -0.2460   20.2020  -31.6850 C   0  0  0  0  0  0  0  0  0  0  0  0
    0.0180   19.5510  -30.3430 C   0  0  0  0  0  0  0  0  0  0  0  0
    0.1580   18.1540  -30.2420 C   0  0  0  0  0  0  0  0  0  0  0  0
    0.3570   17.5530  -28.9970 C   0  0  0  0  0  0  0  0  0  0  0  0
    0.4480   18.3390  -27.8450 C   0  0  0  0  0  0  0  0  0  0  0  0
    0.3510   19.7290  -27.9390 C   0  0  0  0  0  0  0  0  0  0  0  0
    0.1370   20.3340  -29.1810 C   0  0  0  0  0  0  0  0  0  0  0  0
   -2.5730   20.7910  -30.7430 C   0  0  0  0  0  0  0  0  0  0  0  0
   -3.8780   21.4980  -31.1340 C   0  0  0  0  0  0  0  0  0  0  0  0
   -6.3104   25.1643  -30.4405 H   0  0  0  0  0  0  0  0  0  0  0  0
   -6.0969   24.5470  -28.7575 H   0  0  0  0  0  0  0  0  0  0  0  0
   -1.6143   23.5258  -30.1177 H   0  0  0  0  0  0  0  0  0  0  0  0
   -1.6613   25.0151  -29.1645 H   0  0  0  0  0  0  0  0  0  0  0  0
   -0.5465   22.6025  -28.2852 H   0  0  0  0  0  0  0  0  0  0  0  0
   -1.0974   23.8709  -27.1818 H   0  0  0  0  0  0  0  0  0  0  0  0
   -2.4154   21.2653  -27.9360 H   0  0  0  0  0  0  0  0  0  0  0  0
   -2.5727   22.1801  -26.4284 H   0  0  0  0  0  0  0  0  0  0  0  0
   -4.4894   22.1204  -28.4850 H   0  0  0  0  0  0  0  0  0  0  0  0
   -4.4110   23.3922  -27.2588 H   0  0  0  0  0  0  0  0  0  0  0  0
   -9.0703   23.1254  -31.3616 H   0  0  0  0  0  0  0  0  0  0  0  0
  -10.8880   21.5328  -31.9592 H   0  0  0  0  0  0  0  0  0  0  0  0
  -10.3282   19.2668  -32.8341 H   0  0  0  0  0  0  0  0  0  0  0  0
   -7.9513   18.5694  -33.0659 H   0  0  0  0  0  0  0  0  0  0  0  0
   -4.8470   21.9480  -32.8920 H   0  0  0  0  0  0  0  0  0  0  0  0
   -3.0383   19.7011  -33.3726 H   0  0  0  0  0  0  0  0  0  0  0  0
   -3.5572   21.0664  -34.4519 H   0  0  0  0  0  0  0  0  0  0  0  0
   -1.1733   21.2649  -33.8550 H   0  0  0  0  0  0  0  0  0  0  0  0
   -2.1554   22.6213  -33.1668 H   0  0  0  0  0  0  0  0  0  0  0  0
   -1.0079   22.1459  -31.3016 H   0  0  0  0  0  0  0  0  0  0  0  0
   -0.4659   19.4079  -32.4137 H   0  0  0  0  0  0  0  0  0  0  0  0
    0.6568   20.7793  -31.9333 H   0  0  0  0  0  0  0  0  0  0  0  0
    0.1104   17.5324  -31.1483 H   0  0  0  0  0  0  0  0  0  0  0  0
    0.4423   16.4588  -28.9231 H   0  0  0  0  0  0  0  0  0  0  0  0
    0.5960   17.8629  -26.8645 H   0  0  0  0  0  0  0  0  0  0  0  0
    0.4431   20.3485  -27.0347 H   0  0  0  0  0  0  0  0  0  0  0  0
    0.0612   21.4292  -29.2497 H   0  0  0  0  0  0  0  0  0  0  0  0
   -2.7180   19.7024  -30.8051 H   0  0  0  0  0  0  0  0  0  0  0  0
   -2.3054   21.0790  -29.7156 H   0  0  0  0  0  0  0  0  0  0  0  0
   -4.6600   21.2222  -30.4112 H   0  0  0  0  0  0  0  0  0  0  0  0
   -3.6887   22.5816  -31.1272 H   0  0  0  0  0  0  0  0  0  0  0  0
  1  2  2  0
  2  3  1  0
  3  4  1  0
  4  5  1  0
  5  6  2  0
  5  7  1  0
  7  8  1  0
  8  9  1  0
  9 10  1  0
 10 11  1  0
  2 12  1  0
 12 13  2  0
 13 14  1  0
 14 15  2  0
 15 16  1  0
 16 17  2  0
 17 18  1  0
 18 19  2  0
 18 20  2  0
 18 21  1  0
 21 22  1  0
 22 23  1  0
 23 24  1  0
 24 25  1  0
 25 26  1  0
 26 27  2  0
 27 28  1  0
 28 29  2  0
 29 30  1  0
 30 31  2  0
 24 32  1  0
 32 33  1  0
 11  7  1  0
 17 12  1  0
 33 21  1  0
 31 26  1  0
  4 34  1  0
  4 35  1  0
  8 36  1  0
  8 37  1  0
  9 38  1  0
  9 39  1  0
 10 40  1  0
 10 41  1  0
 11 42  1  0
 11 43  1  0
 13 44  1  0
 14 45  1  0
 15 46  1  0
 16 47  1  0
 21 48  1  6
 22 49  1  0
 22 50  1  0
 23 51  1  0
 23 52  1  0
 24 53  1  1
 25 54  1  0
 25 55  1  0
 27 56  1  0
 28 57  1  0
 29 58  1  0
 30 59  1  0
 31 60  1  0
 32 61  1  0
 32 62  1  0
 33 63  1  0
 33 64  1  0
M  CHG  1  21   1
M  END
>  <UniqueID>  (21) 
19

>  <SMILES>  (21) 
O=C(OCC(=O)N1CCCC1)c1ccccc1S(=O)(=O)[NH+]1CCC(Cc2ccccc2)CC1

>  <Energy>  (21) 
72.98176774828943

>  <Genealogy>  (21) 
O=C(OCC(=O)N1CCCC1)c1ccccc1S(=O)(=O)[NH+]1CCC(Cc2ccccc2)CC1 (protonated)
O=C(OCC(=O)N1CCCC1)c1ccccc1S(=O)(=O)[NH+]1CCC(Cc2ccccc2)CC1 (3D coordinates assigned)
O=C(OCC(=O)N1CCCC1)c1ccccc1S(=O)(=O)[NH+]1CCC(Cc2ccccc2)CC1 (nonaromatic ring conformer: 72.98176774828943 kcal/mol)

>  <smiles>  (21) 
O=C(OCC(=O)N1CCCC1)c1ccccc1S(=O)(=O)N1CCC(Cc2ccccc2)CC1

>  <score_type>  (21) 
oracle

>  <origin>  (21) 
adgpu

>  <m_score__min__energy>  (21) 
-9.9299999999999997

>  <m_primary>  (21) 
energy

$$$$
21:0
     RDKit          3D

 54 57  0  0  0  0  0  0  0  0999 V2000
    0.2700   30.8550  -27.1170 C   0  0  0  0  0  0  0  0  0  0  0  0
    1.0720   29.7870  -26.4430 C   0  0  0  0  0  0  0  0  0  0  0  0
    2.3220   29.7780  -26.6020 O   0  0  0  0  0  0  0  0  0  0  0  0
    0.4550   28.7540  -25.6570 N   0  0  0  0  0  0  0  0  0  0  0  0
    0.5160   28.7250  -24.1940 C   0  0  0  0  0  0  0  0  0  0  0  0
   -0.0420   27.3490  -23.7650 C   0  0  0  0  0  0  0  0  0  0  0  0
   -0.4660   26.7350  -25.0530 C   0  0  0  0  0  0  0  0  0  0  0  0
   -1.1080   25.5110  -25.2430 C   0  0  0  0  0  0  0  0  0  0  0  0
   -1.4810   25.1420  -26.5430 C   0  0  0  0  0  0  0  0  0  0  0  0
   -1.2400   26.0150  -27.6310 C   0  0  0  0  0  0  0  0  0  0  0  0
   -1.6150   25.6720  -28.9720 N   0  0  0  0  0  0  0  0  0  0  0  0
   -2.6330   24.7380  -29.3470 C   0  0  0  0  0  0  0  0  0  0  0  0
   -2.6210   23.5840  -28.8430 O   0  0  0  0  0  0  0  0  0  0  0  0
   -3.5900   25.0710  -30.3610 N   0  0  0  0  0  0  0  0  0  0  0  0
   -4.6330   24.2090  -30.8340 C   0  0  0  0  0  0  0  0  0  0  0  0
   -5.9560   24.6440  -30.7130 C   0  0  0  0  0  0  0  0  0  0  0  0
   -7.0050   23.8470  -31.1640 C   0  0  0  0  0  0  0  0  0  0  0  0
   -6.7460   22.5940  -31.7170 C   0  0  0  0  0  0  0  0  0  0  0  0
   -5.4310   22.1100  -31.8040 C   0  0  0  0  0  0  0  0  0  0  0  0
   -5.1510   20.4920  -32.4700 S   0  0  0  0  0  0  0  0  0  0  0  0
   -3.8930   20.5340  -33.2930 O   0  0  0  0  0  0  0  0  0  0  0  0
   -4.9720   19.5180  -31.3380 O   0  0  0  0  0  0  0  0  0  0  0  0
   -6.5050   19.9990  -33.4710 N   0  0  0  0  0  0  0  0  0  0  0  0
   -7.7230   19.7580  -32.6650 C   0  0  0  0  0  0  0  0  0  0  0  0
   -7.9390   18.2670  -32.3430 C   0  0  0  0  0  0  0  0  0  0  0  0
   -6.7000   17.6030  -32.2330 O   0  0  0  0  0  0  0  0  0  0  0  0
   -6.0650   17.5320  -33.4980 C   0  0  0  0  0  0  0  0  0  0  0  0
   -6.1710   18.8410  -34.3170 C   0  0  0  0  0  0  0  0  0  0  0  0
   -4.3600   22.9250  -31.3560 C   0  0  0  0  0  0  0  0  0  0  0  0
   -3.0370   22.4800  -31.3920 O   0  0  0  0  0  0  0  0  0  0  0  0
   -0.5710   27.2330  -27.4080 C   0  0  0  0  0  0  0  0  0  0  0  0
   -0.1730   27.5580  -26.1060 C   0  0  0  0  0  0  0  0  0  0  0  0
   -0.2071   31.4904  -26.3563 H   0  0  0  0  0  0  0  0  0  0  0  0
    0.9319   31.4693  -27.7451 H   0  0  0  0  0  0  0  0  0  0  0  0
   -0.5045   30.3906  -27.7451 H   0  0  0  0  0  0  0  0  0  0  0  0
    1.5560   28.8374  -23.8536 H   0  0  0  0  0  0  0  0  0  0  0  0
   -0.0654   29.5480  -23.7527 H   0  0  0  0  0  0  0  0  0  0  0  0
    0.7356   26.7432  -23.2768 H   0  0  0  0  0  0  0  0  0  0  0  0
   -0.8607   27.4252  -23.0343 H   0  0  0  0  0  0  0  0  0  0  0  0
   -1.3173   24.8488  -24.3899 H   0  0  0  0  0  0  0  0  0  0  0  0
   -1.9634   24.1691  -26.7185 H   0  0  0  0  0  0  0  0  0  0  0  0
   -6.1698   25.6226  -30.2584 H   0  0  0  0  0  0  0  0  0  0  0  0
   -8.0412   24.2073  -31.0836 H   0  0  0  0  0  0  0  0  0  0  0  0
   -7.5791   21.9791  -32.0884 H   0  0  0  0  0  0  0  0  0  0  0  0
   -7.6344   20.3128  -31.7193 H   0  0  0  0  0  0  0  0  0  0  0  0
   -8.5854   20.0977  -33.2574 H   0  0  0  0  0  0  0  0  0  0  0  0
   -8.4841   18.1770  -31.3918 H   0  0  0  0  0  0  0  0  0  0  0  0
   -8.5192   17.8069  -33.1564 H   0  0  0  0  0  0  0  0  0  0  0  0
   -5.0002   17.3051  -33.3407 H   0  0  0  0  0  0  0  0  0  0  0  0
   -6.5783   16.7479  -34.0739 H   0  0  0  0  0  0  0  0  0  0  0  0
   -5.2064   19.0293  -34.8110 H   0  0  0  0  0  0  0  0  0  0  0  0
   -6.9789   18.7153  -35.0529 H   0  0  0  0  0  0  0  0  0  0  0  0
   -2.2830   22.9100  -30.8730 H   0  0  0  0  0  0  0  0  0  0  0  0
   -0.3643   27.9183  -28.2432 H   0  0  0  0  0  0  0  0  0  0  0  0
  1  2  1  0
  2  3  2  0
  2  4  1  0
  4  5  1  0
  5  6  1  0
  6  7  1  0
  7  8  2  0
  8  9  1  0
  9 10  2  0
 10 11  1  0
 11 12  1  0
 12 13  2  0
 12 14  1  0
 14 15  1  0
 15 16  2  0
 16 17  1  0
 17 18  2  0
 18 19  1  0
 19 20  1  0
 20 21  2  0
 20 22  2  0
 20 23  1  0
 23 24  1  0
 24 25  1  0
 25 26  1  0
 26 27  1  0
 27 28  1  0
 19 29  2  0
 29 30  1  0
 10 31  1  0
 31 32  2  0
 32  4  1  0
 32  7  1  0
 29 15  1  0
 28 23  1  0
  1 33  1  0
  1 34  1  0
  1 35  1  0
  5 36  1  0
  5 37  1  0
  6 38  1  0
  6 39  1  0
  8 40  1  0
  9 41  1  0
 16 42  1  0
 17 43  1  0
 18 44  1  0
 24 45  1  0
 24 46  1  0
 25 47  1  0
 25 48  1  0
 27 49  1  0
 27 50  1  0
 28 51  1  0
 28 52  1  0
 30 53  1  0
 31 54  1  0
M  CHG  2  11  -1  14  -1
M  END
>  <UniqueID>  (22) 
20

>  <SMILES>  (22) 
CC(=O)N1CCc2ccc([N-]C(=O)[N-]c3cccc(S(=O)(=O)N4CCOCC4)c3O)cc21

>  <Energy>  (22) 
95.79882853423389

>  <Genealogy>  (22) 
CC(=O)N1CCc2ccc([N-]C(=O)[N-]c3cccc(S(=O)(=O)N4CCOCC4)c3O)cc21 (protonated)
CC(=O)N1CCc2ccc([N-]C(=O)[N-]c3cccc(S(=O)(=O)N4CCOCC4)c3O)cc21 (3D coordinates assigned)
CC(=O)N1CCc2ccc([N-]C(=O)[N-]c3cccc(S(=O)(=O)N4CCOCC4)c3O)cc21 (nonaromatic ring conformer: 95.79882853423389 kcal/mol)

>  <smiles>  (22) 
CC(=O)N1CCc2ccc(NC(=O)Nc3cccc(S(=O)(=O)N4CCOCC4)c3O)cc21

>  <score_type>  (22) 
oracle

>  <origin>  (22) 
adgpu

>  <m_score__min__energy>  (22) 
-13.9

>  <m_primary>  (22) 
energy

$$$$
22:0
     RDKit          3D

 23 25  0  0  0  0  0  0  0  0999 V2000
   -2.2780   20.9630  -30.1090 S   0  0  0  0  0  0  0  0  0  0  0  0
   -2.5040   22.5760  -29.8240 C   0  0  0  0  0  0  0  0  0  0  0  0
   -1.5400   23.3200  -29.0920 C   0  0  0  0  0  0  0  0  0  0  0  0
   -0.3560   22.7440  -28.5740 C   0  0  0  0  0  0  0  0  0  0  0  0
    0.5610   23.5200  -27.8610 C   0  0  0  0  0  0  0  0  0  0  0  0
    0.3200   24.8780  -27.6490 C   0  0  0  0  0  0  0  0  0  0  0  0
   -0.8410   25.4660  -28.1510 C   0  0  0  0  0  0  0  0  0  0  0  0
   -1.7680   24.7000  -28.8670 C   0  0  0  0  0  0  0  0  0  0  0  0
   -2.8880   25.2960  -29.3440 N   0  0  0  0  0  0  0  0  0  0  0  0
   -3.8290   24.6190  -30.0470 C   0  0  0  0  0  0  0  0  0  0  0  0
   -4.9600   25.3020  -30.5080 C   0  0  0  0  0  0  0  0  0  0  0  0
   -5.9420   24.6270  -31.2320 C   0  0  0  0  0  0  0  0  0  0  0  0
   -5.8010   23.2660  -31.5000 C   0  0  0  0  0  0  0  0  0  0  0  0
   -4.6770   22.5710  -31.0460 C   0  0  0  0  0  0  0  0  0  0  0  0
   -3.6680   23.2360  -30.3100 C   0  0  0  0  0  0  0  0  0  0  0  0
   -0.1556   21.6744  -28.7343 H   0  0  0  0  0  0  0  0  0  0  0  0
    1.4774   23.0583  -27.4648 H   0  0  0  0  0  0  0  0  0  0  0  0
    1.0451   25.4844  -27.0864 H   0  0  0  0  0  0  0  0  0  0  0  0
   -1.0289   26.5368  -27.9833 H   0  0  0  0  0  0  0  0  0  0  0  0
   -5.0748   26.3757  -30.2984 H   0  0  0  0  0  0  0  0  0  0  0  0
   -6.8290   25.1688  -31.5922 H   0  0  0  0  0  0  0  0  0  0  0  0
   -6.5780   22.7370  -32.0714 H   0  0  0  0  0  0  0  0  0  0  0  0
   -4.5757   21.4973  -31.2627 H   0  0  0  0  0  0  0  0  0  0  0  0
  1  2  2  0
  2  3  1  0
  3  4  2  0
  4  5  1  0
  5  6  2  0
  6  7  1  0
  7  8  2  0
  8  9  1  0
  9 10  1  0
 10 11  2  0
 11 12  1  0
 12 13  2  0
 13 14  1  0
 14 15  2  0
 15  2  1  0
  8  3  1  0
 15 10  1  0
  4 16  1  0
  5 17  1  0
  6 18  1  0
  7 19  1  0
 11 20  1  0
 12 21  1  0
 13 22  1  0
 14 23  1  0
M  CHG  1   9  -1
M  END
>  <UniqueID>  (23) 
21

>  <SMILES>  (23) 
S=c1c2ccccc2[n-]c2ccccc12

>  <Energy>  (23) 
38.81497076565776

>  <Genealogy>  (23) 
S=c1c2ccccc2[n-]c2ccccc12 (protonated)
S=c1c2ccccc2[n-]c2ccccc12 (3D coordinates assigned)
S=c1c2ccccc2[n-]c2ccccc12 (optimized conformer: 38.81497076565776 kcal/mol)

>  <smiles>  (23) 
S=c1c2ccccc2[nH]c2ccccc12

>  <score_type>  (23) 
oracle

>  <origin>  (23) 
adgpu

>  <m_score__min__energy>  (23) 
-7.4800000000000004

>  <m_primary>  (23) 
energy

$$$$
23:0
     RDKit          3D

 47 50  0  0  0  0  0  0  0  0999 V2000
   -1.7580   20.9340  -27.0730 C   0  0  0  0  0  0  0  0  0  0  0  0
   -2.4240   22.1740  -27.2740 O   0  0  0  0  0  0  0  0  0  0  0  0
   -1.7860   23.4260  -27.3190 C   0  0  0  0  0  0  0  0  0  0  0  0
   -0.9560   23.8740  -26.2710 C   0  0  0  0  0  0  0  0  0  0  0  0
   -0.3530   25.1330  -26.3350 C   0  0  0  0  0  0  0  0  0  0  0  0
   -0.5660   25.9570  -27.4420 C   0  0  0  0  0  0  0  0  0  0  0  0
   -1.3800   25.5230  -28.4910 C   0  0  0  0  0  0  0  0  0  0  0  0
   -1.9840   24.2550  -28.4430 C   0  0  0  0  0  0  0  0  0  0  0  0
   -2.8820   23.8160  -29.5690 C   0  0  0  0  0  0  0  0  0  0  0  0
   -3.4830   24.9940  -30.1880 N   0  0  0  0  0  0  0  0  0  0  0  0
   -5.2000   24.7780  -30.3300 S   0  0  0  0  0  0  0  0  0  0  0  0
   -5.8330   24.9230  -28.9750 O   0  0  0  0  0  0  0  0  0  0  0  0
   -5.7570   25.8370  -31.2370 O   0  0  0  0  0  0  0  0  0  0  0  0
   -5.5660   23.1930  -31.0110 C   0  0  0  0  0  0  0  0  0  0  0  0
   -6.7580   22.5130  -30.6520 C   0  0  0  0  0  0  0  0  0  0  0  0
   -7.0440   21.2450  -31.1860 C   0  0  0  0  0  0  0  0  0  0  0  0
   -6.1240   20.6890  -32.0710 C   0  0  0  0  0  0  0  0  0  0  0  0
   -6.1210   19.4930  -32.7500 C   0  0  0  0  0  0  0  0  0  0  0  0
   -4.9290   19.4640  -33.4550 C   0  0  0  0  0  0  0  0  0  0  0  0
   -4.2250   20.6030  -33.2700 N   0  0  0  0  0  0  0  0  0  0  0  0
   -4.9620   21.3390  -32.4160 C   0  0  0  0  0  0  0  0  0  0  0  0
   -4.6520   22.5980  -31.9040 C   0  0  0  0  0  0  0  0  0  0  0  0
   -4.5490   18.3490  -34.3830 C   0  0  0  0  0  0  0  0  0  0  0  0
   -5.3540   17.0750  -34.0550 C   0  0  0  0  0  0  0  0  0  0  0  0
   -6.8560   17.3800  -33.8580 C   0  0  0  0  0  0  0  0  0  0  0  0
   -7.0950   18.3540  -32.6890 C   0  0  0  0  0  0  0  0  0  0  0  0
   -1.6556   20.7434  -25.9945 H   0  0  0  0  0  0  0  0  0  0  0  0
   -2.3428   20.1247  -27.5345 H   0  0  0  0  0  0  0  0  0  0  0  0
   -0.7603   20.9746  -27.5345 H   0  0  0  0  0  0  0  0  0  0  0  0
   -0.7820   23.2284  -25.3975 H   0  0  0  0  0  0  0  0  0  0  0  0
    0.2908   25.4757  -25.5116 H   0  0  0  0  0  0  0  0  0  0  0  0
   -0.0924   26.9488  -27.4881 H   0  0  0  0  0  0  0  0  0  0  0  0
   -1.5491   26.1771  -29.3591 H   0  0  0  0  0  0  0  0  0  0  0  0
   -2.2922   23.2669  -30.3178 H   0  0  0  0  0  0  0  0  0  0  0  0
   -3.6727   23.1589  -29.1777 H   0  0  0  0  0  0  0  0  0  0  0  0
   -7.4637   22.9817  -29.9504 H   0  0  0  0  0  0  0  0  0  0  0  0
   -7.9651   20.7089  -30.9136 H   0  0  0  0  0  0  0  0  0  0  0  0
   -3.3070   20.8570  -33.6980 H   0  0  0  0  0  0  0  0  0  0  0  0
   -3.7219   23.1118  -32.1884 H   0  0  0  0  0  0  0  0  0  0  0  0
   -4.7588   18.6530  -35.4191 H   0  0  0  0  0  0  0  0  0  0  0  0
   -3.4772   18.1339  -34.2605 H   0  0  0  0  0  0  0  0  0  0  0  0
   -5.2416   16.3597  -34.8831 H   0  0  0  0  0  0  0  0  0  0  0  0
   -4.9640   16.6566  -33.1154 H   0  0  0  0  0  0  0  0  0  0  0  0
   -7.2521   17.8282  -34.7812 H   0  0  0  0  0  0  0  0  0  0  0  0
   -7.3684   16.4349  -33.6249 H   0  0  0  0  0  0  0  0  0  0  0  0
   -8.1196   18.7496  -32.7505 H   0  0  0  0  0  0  0  0  0  0  0  0
   -6.9544   17.8146  -31.7407 H   0  0  0  0  0  0  0  0  0  0  0  0
  1  2  1  0
  2  3  1  0
  3  4  2  0
  4  5  1  0
  5  6  2  0
  6  7  1  0
  7  8  2  0
  8  9  1  0
  9 10  1  0
 10 11  1  0
 11 12  2  0
 11 13  2  0
 11 14  1  0
 14 15  2  0
 15 16  1  0
 16 17  2  0
 17 18  1  0
 18 19  2  0
 19 20  1  0
 20 21  1  0
 21 22  2  0
 19 23  1  0
 23 24  1  0
 24 25  1  0
 25 26  1  0
  8  3  1  0
 22 14  1  0
 21 17  1  0
 26 18  1  0
  1 27  1  0
  1 28  1  0
  1 29  1  0
  4 30  1  0
  5 31  1  0
  6 32  1  0
  7 33  1  0
  9 34  1  0
  9 35  1  0
 15 36  1  0
 16 37  1  0
 20 38  1  0
 22 39  1  0
 23 40  1  0
 23 41  1  0
 24 42  1  0
 24 43  1  0
 25 44  1  0
 25 45  1  0
 26 46  1  0
 26 47  1  0
M  CHG  1  10  -1
M  END
>  <UniqueID>  (24) 
22

>  <SMILES>  (24) 
COc1ccccc1C[N-]S(=O)(=O)c1ccc2c3c([nH]c2c1)CCCC3

>  <Energy>  (24) 
80.19327183554816

>  <Genealogy>  (24) 
COc1ccccc1C[N-]S(=O)(=O)c1ccc2c3c([nH]c2c1)CCCC3 (protonated)
COc1ccccc1C[N-]S(=O)(=O)c1ccc2c3c([nH]c2c1)CCCC3 (3D coordinates assigned)
COc1ccccc1C[N-]S(=O)(=O)c1ccc2c3c([nH]c2c1)CCCC3 (nonaromatic ring conformer: 80.19327183554816 kcal/mol)

>  <smiles>  (24) 
COc1ccccc1CNS(=O)(=O)c1ccc2c3c([nH]c2c1)CCCC3

>  <score_type>  (24) 
oracle

>  <origin>  (24) 
adgpu

>  <m_score__min__energy>  (24) 
-10.699999999999999

>  <m_primary>  (24) 
energy

$$$$
24:0
     RDKit          3D

 71 75  0  0  0  0  0  0  0  0999 V2000
   -9.1960   19.5190  -32.4250 C   0  0  0  0  0  0  0  0  0  0  0  0
   -7.8150   19.6420  -31.9270 N   0  0  0  0  0  0  0  0  0  0  0  0
   -7.2140   18.3330  -31.5920 C   0  0  0  0  0  0  0  0  0  0  0  0
   -6.8270   17.5270  -32.8390 C   0  0  0  0  0  0  0  0  0  0  0  0
   -6.0310   18.3640  -33.7360 N   0  0  0  0  0  0  0  0  0  0  0  0
   -4.7170   17.9550  -34.1590 C   0  0  0  0  0  0  0  0  0  0  0  0
   -4.5830   16.8270  -34.9830 C   0  0  0  0  0  0  0  0  0  0  0  0
   -3.3200   16.3600  -35.3460 C   0  0  0  0  0  0  0  0  0  0  0  0
   -2.1690   17.0100  -34.8900 C   0  0  0  0  0  0  0  0  0  0  0  0
   -0.5700   16.4000  -35.3210 S   0  0  0  0  0  0  0  0  0  0  0  0
   -0.7140   15.0270  -35.9190 O   0  0  0  0  0  0  0  0  0  0  0  0
    0.2680   16.2790  -34.0770 O   0  0  0  0  0  0  0  0  0  0  0  0
    0.2350   17.4480  -36.4630 N   0  0  0  0  0  0  0  0  0  0  0  0
    1.4260   16.7840  -37.0300 C   0  0  0  0  0  0  0  0  0  0  0  0
    2.3260   17.7900  -37.7800 C   0  0  0  0  0  0  0  0  0  0  0  0
    1.6270   18.9880  -38.0560 O   0  0  0  0  0  0  0  0  0  0  0  0
    1.3080   19.6510  -36.8440 C   0  0  0  0  0  0  0  0  0  0  0  0
    0.6070   18.7230  -35.8260 C   0  0  0  0  0  0  0  0  0  0  0  0
   -2.2920   18.1460  -34.0800 C   0  0  0  0  0  0  0  0  0  0  0  0
   -3.5570   18.6320  -33.7110 C   0  0  0  0  0  0  0  0  0  0  0  0
   -3.6430   19.8540  -32.8780 C   0  0  0  0  0  0  0  0  0  0  0  0
   -4.0950   19.7750  -31.5510 C   0  0  0  0  0  0  0  0  0  0  0  0
   -4.1830   20.9280  -30.7670 C   0  0  0  0  0  0  0  0  0  0  0  0
   -3.8170   22.1710  -31.2940 C   0  0  0  0  0  0  0  0  0  0  0  0
   -3.9240   23.6100  -30.2840 S   0  0  0  0  0  0  0  0  0  0  0  0
   -4.4850   23.2530  -28.9330 O   0  0  0  0  0  0  0  0  0  0  0  0
   -2.5390   24.1630  -30.0990 O   0  0  0  0  0  0  0  0  0  0  0  0
   -4.9400   24.8010  -31.0650 N   0  0  0  0  0  0  0  0  0  0  0  0
   -6.0400   24.1480  -31.7820 C   0  0  0  0  0  0  0  0  0  0  0  0
   -7.2450   24.0920  -30.8550 C   0  0  0  0  0  0  0  0  0  0  0  0
   -6.9450   25.0710  -29.7370 C   0  0  0  0  0  0  0  0  0  0  0  0
   -5.5820   25.6630  -30.0670 C   0  0  0  0  0  0  0  0  0  0  0  0
   -3.3510   22.2530  -32.6140 C   0  0  0  0  0  0  0  0  0  0  0  0
   -3.2610   21.1020  -33.4000 C   0  0  0  0  0  0  0  0  0  0  0  0
   -6.5620   19.6790  -34.1010 C   0  0  0  0  0  0  0  0  0  0  0  0
   -6.9570   20.4420  -32.8290 C   0  0  0  0  0  0  0  0  0  0  0  0
   -9.8889   19.4573  -31.5729 H   0  0  0  0  0  0  0  0  0  0  0  0
   -9.4448   20.3985  -33.0370 H   0  0  0  0  0  0  0  0  0  0  0  0
   -9.2854   18.6093  -33.0370 H   0  0  0  0  0  0  0  0  0  0  0  0
   -6.3106   18.5039  -30.9882 H   0  0  0  0  0  0  0  0  0  0  0  0
   -7.9665   17.7518  -31.0389 H   0  0  0  0  0  0  0  0  0  0  0  0
   -6.2373   16.6483  -32.5386 H   0  0  0  0  0  0  0  0  0  0  0  0
   -7.7387   17.1980  -33.3591 H   0  0  0  0  0  0  0  0  0  0  0  0
   -5.4818   16.3067  -35.3457 H   0  0  0  0  0  0  0  0  0  0  0  0
   -3.2288   15.4760  -35.9942 H   0  0  0  0  0  0  0  0  0  0  0  0
   -0.4460   17.6420  -37.2350 H   0  0  0  0  0  0  0  0  0  0  0  0
    2.0036   16.3261  -36.2135 H   0  0  0  0  0  0  0  0  0  0  0  0
    1.0893   16.0192  -37.7454 H   0  0  0  0  0  0  0  0  0  0  0  0
    3.2035   18.0207  -37.1581 H   0  0  0  0  0  0  0  0  0  0  0  0
    2.6372   17.3384  -38.7335 H   0  0  0  0  0  0  0  0  0  0  0  0
    2.2377   20.0292  -36.3940 H   0  0  0  0  0  0  0  0  0  0  0  0
    0.6121   20.4683  -37.0843 H   0  0  0  0  0  0  0  0  0  0  0  0
    1.2905   18.5232  -34.9876 H   0  0  0  0  0  0  0  0  0  0  0  0
   -0.3049   19.2185  -35.4613 H   0  0  0  0  0  0  0  0  0  0  0  0
   -1.3872   18.6636  -33.7287 H   0  0  0  0  0  0  0  0  0  0  0  0
   -4.3810   18.8012  -31.1269 H   0  0  0  0  0  0  0  0  0  0  0  0
   -4.5421   20.8580  -29.7296 H   0  0  0  0  0  0  0  0  0  0  0  0
   -6.2908   24.7251  -32.6842 H   0  0  0  0  0  0  0  0  0  0  0  0
   -5.7461   23.1321  -32.0847 H   0  0  0  0  0  0  0  0  0  0  0  0
   -8.1571   24.3906  -31.3924 H   0  0  0  0  0  0  0  0  0  0  0  0
   -7.4163   23.0755  -30.4710 H   0  0  0  0  0  0  0  0  0  0  0  0
   -7.7092   25.8615  -29.7033 H   0  0  0  0  0  0  0  0  0  0  0  0
   -6.9480   24.5791  -28.7531 H   0  0  0  0  0  0  0  0  0  0  0  0
   -5.7049   26.6774  -30.4743 H   0  0  0  0  0  0  0  0  0  0  0  0
   -4.9626   25.7222  -29.1599 H   0  0  0  0  0  0  0  0  0  0  0  0
   -3.0554   23.2267  -33.0317 H   0  0  0  0  0  0  0  0  0  0  0  0
   -2.8893   21.1725  -34.4329 H   0  0  0  0  0  0  0  0  0  0  0  0
   -5.7930   20.2468  -34.6453 H   0  0  0  0  0  0  0  0  0  0  0  0
   -7.4467   19.5522  -34.7423 H   0  0  0  0  0  0  0  0  0  0  0  0
   -6.0412   20.7215  -32.2875 H   0  0  0  0  0  0  0  0  0  0  0  0
   -7.5330   21.3269  -33.1375 H   0  0  0  0  0  0  0  0  0  0  0  0
  1  2  1  0
  2  3  1  0
  3  4  1  0
  4  5  1  0
  5  6  1  0
  6  7  2  0
  7  8  1  0
  8  9  2  0
  9 10  1  0
 10 11  2  0
 10 12  2  0
 10 13  1  0
 13 14  1  0
 14 15  1  0
 15 16  1  0
 16 17  1  0
 17 18  1  0
  9 19  1  0
 19 20  2  0
 20 21  1  0
 21 22  2  0
 22 23  1  0
 23 24  2  0
 24 25  1  0
 25 26  2  0
 25 27  2  0
 25 28  1  0
 28 29  1  0
 29 30  1  0
 30 31  1  0
 31 32  1  0
 24 33  1  0
 33 34  2  0
  5 35  1  0
 35 36  1  0
 36  2  1  0
 20  6  1  0
 34 21  1  0
 18 13  1  0
 32 28  1  0
  1 37  1  0
  1 38  1  0
  1 39  1  0
  3 40  1  0
  3 41  1  0
  4 42  1  0
  4 43  1  0
  7 44  1  0
  8 45  1  0
 13 46  1  0
 14 47  1  0
 14 48  1  0
 15 49  1  0
 15 50  1  0
 17 51  1  0
 17 52  1  0
 18 53  1  0
 18 54  1  0
 19 55  1  0
 22 56  1  0
 23 57  1  0
 29 58  1  0
 29 59  1  0
 30 60  1  0
 30 61  1  0
 31 62  1  0
 31 63  1  0
 32 64  1  0
 32 65  1  0
 33 66  1  0
 34 67  1  0
 35 68  1  0
 35 69  1  0
 36 70  1  0
 36 71  1  0
M  CHG  1  13   1
M  END
>  <UniqueID>  (25) 
23

>  <SMILES>  (25) 
CN1CCN(c2ccc(S(=O)(=O)[NH+]3CCOCC3)cc2-c2ccc(S(=O)(=O)N3CCCC3)cc2)CC1

>  <Energy>  (25) 
94.08719271923071

>  <Genealogy>  (25) 
CN1CCN(c2ccc(S(=O)(=O)[NH+]3CCOCC3)cc2-c2ccc(S(=O)(=O)N3CCCC3)cc2)CC1 (protonated)
CN1CCN(c2ccc(S(=O)(=O)[NH+]3CCOCC3)cc2-c2ccc(S(=O)(=O)N3CCCC3)cc2)CC1 (3D coordinates assigned)
CN1CCN(c2ccc(S(=O)(=O)[NH+]3CCOCC3)cc2-c2ccc(S(=O)(=O)N3CCCC3)cc2)CC1 (nonaromatic ring conformer: 94.08719271923071 kcal/mol)

>  <smiles>  (25) 
CN1CCN(c2ccc(S(=O)(=O)N3CCOCC3)cc2-c2ccc(S(=O)(=O)N3CCCC3)cc2)CC1

>  <score_type>  (25) 
oracle

>  <origin>  (25) 
adgpu

>  <m_score__min__energy>  (25) 
-10.43

>  <m_primary>  (25) 
energy

$$$$
25:0
     RDKit          3D

 48 50  0  0  0  0  0  0  0  0999 V2000
    1.8800   17.9700  -29.2770 C   0  0  0  0  0  0  0  0  0  0  0  0
    1.7640   18.9620  -28.2610 O   0  0  0  0  0  0  0  0  0  0  0  0
    0.5600   19.5770  -27.8870 C   0  0  0  0  0  0  0  0  0  0  0  0
    0.3800   20.9740  -27.9400 C   0  0  0  0  0  0  0  0  0  0  0  0
   -0.8440   21.5500  -27.5610 C   0  0  0  0  0  0  0  0  0  0  0  0
   -1.0480   23.0410  -27.6390 C   0  0  0  0  0  0  0  0  0  0  0  0
   -2.3170   23.3590  -28.3270 N   0  0  0  0  0  0  0  0  0  0  0  0
   -3.0080   24.5330  -27.7350 C   0  0  0  0  0  0  0  0  0  0  0  0
   -2.0800   25.5360  -27.0690 C   0  0  0  0  0  0  0  0  0  0  0  0
   -2.0150   25.5990  -25.6660 C   0  0  0  0  0  0  0  0  0  0  0  0
   -1.1770   26.5210  -25.0320 C   0  0  0  0  0  0  0  0  0  0  0  0
   -0.3800   27.3790  -25.7910 C   0  0  0  0  0  0  0  0  0  0  0  0
   -0.4060   27.3040  -27.1850 C   0  0  0  0  0  0  0  0  0  0  0  0
   -1.2390   26.3810  -27.8270 C   0  0  0  0  0  0  0  0  0  0  0  0
   -1.2050   26.2990  -29.2150 O   0  0  0  0  0  0  0  0  0  0  0  0
   -2.1460   23.4450  -29.7960 C   0  0  0  0  0  0  0  0  0  0  0  0
   -3.4640   23.2730  -30.5160 C   0  0  0  0  0  0  0  0  0  0  0  0
   -3.9300   21.9850  -30.8290 C   0  0  0  0  0  0  0  0  0  0  0  0
   -5.1540   21.8130  -31.4820 C   0  0  0  0  0  0  0  0  0  0  0  0
   -5.9350   22.9240  -31.8140 C   0  0  0  0  0  0  0  0  0  0  0  0
   -7.1510   22.7370  -32.4680 O   0  0  0  0  0  0  0  0  0  0  0  0
   -5.4920   24.2110  -31.4840 C   0  0  0  0  0  0  0  0  0  0  0  0
   -4.2680   24.3880  -30.8290 C   0  0  0  0  0  0  0  0  0  0  0  0
   -3.8620   25.6750  -30.4890 O   0  0  0  0  0  0  0  0  0  0  0  0
   -1.8900   20.7230  -27.1260 C   0  0  0  0  0  0  0  0  0  0  0  0
   -1.7150   19.3390  -27.0690 C   0  0  0  0  0  0  0  0  0  0  0  0
   -0.4970   18.7670  -27.4480 C   0  0  0  0  0  0  0  0  0  0  0  0
   -0.3390   17.3870  -27.3870 O   0  0  0  0  0  0  0  0  0  0  0  0
    1.9958   16.9801  -28.8114 H   0  0  0  0  0  0  0  0  0  0  0  0
    0.9748   17.9777  -29.9020 H   0  0  0  0  0  0  0  0  0  0  0  0
    2.7590   18.1863  -29.9020 H   0  0  0  0  0  0  0  0  0  0  0  0
    1.2041   21.6180  -28.2807 H   0  0  0  0  0  0  0  0  0  0  0  0
   -1.0756   23.4555  -26.6205 H   0  0  0  0  0  0  0  0  0  0  0  0
   -0.2167   23.4826  -28.2081 H   0  0  0  0  0  0  0  0  0  0  0  0
   -3.5559   25.0502  -28.5364 H   0  0  0  0  0  0  0  0  0  0  0  0
   -3.6691   24.1443  -26.9464 H   0  0  0  0  0  0  0  0  0  0  0  0
   -2.6296   24.9160  -25.0612 H   0  0  0  0  0  0  0  0  0  0  0  0
   -1.1458   26.5702  -23.9335 H   0  0  0  0  0  0  0  0  0  0  0  0
    0.2683   28.1139  -25.2914 H   0  0  0  0  0  0  0  0  0  0  0  0
    0.2313   27.9736  -27.7813 H   0  0  0  0  0  0  0  0  0  0  0  0
   -1.7251   24.4290  -30.0503 H   0  0  0  0  0  0  0  0  0  0  0  0
   -1.4702   22.6373  -30.1136 H   0  0  0  0  0  0  0  0  0  0  0  0
   -3.3273   21.1055  -30.5582 H   0  0  0  0  0  0  0  0  0  0  0  0
   -5.5034   20.8012  -31.7352 H   0  0  0  0  0  0  0  0  0  0  0  0
   -7.2460   22.8930  -33.4650 H   0  0  0  0  0  0  0  0  0  0  0  0
   -6.1081   25.0855  -31.7405 H   0  0  0  0  0  0  0  0  0  0  0  0
   -2.8517   21.1664  -26.8287 H   0  0  0  0  0  0  0  0  0  0  0  0
   -2.5386   18.6963  -26.7246 H   0  0  0  0  0  0  0  0  0  0  0  0
  1  2  1  0
  2  3  1  0
  3  4  2  0
  4  5  1  0
  5  6  1  0
  6  7  1  0
  7  8  1  0
  8  9  1  0
  9 10  2  0
 10 11  1  0
 11 12  2  0
 12 13  1  0
 13 14  2  0
 14 15  1  0
  7 16  1  0
 16 17  1  0
 17 18  2  0
 18 19  1  0
 19 20  2  0
 20 21  1  0
 20 22  1  0
 22 23  2  0
 23 24  1  0
  5 25  2  0
 25 26  1  0
 26 27  2  0
 27 28  1  0
 27  3  1  0
 14  9  1  0
 23 17  1  0
  1 29  1  0
  1 30  1  0
  1 31  1  0
  4 32  1  0
  6 33  1  0
  6 34  1  0
  8 35  1  0
  8 36  1  0
 10 37  1  0
 11 38  1  0
 12 39  1  0
 13 40  1  0
 16 41  1  0
 16 42  1  0
 18 43  1  0
 19 44  1  0
 21 45  1  0
 22 46  1  0
 25 47  1  0
 26 48  1  0
M  CHG  3  15  -1  24  -1  28  -1
M  END
>  <UniqueID>  (26) 
24

>  <SMILES>  (26) 
COc1cc(CN(Cc2ccccc2[O-])Cc2ccc(O)cc2[O-])ccc1[O-]

>  <Energy>  (26) 
55.31674798782412

>  <Genealogy>  (26) 
COc1cc(CN(Cc2ccccc2[O-])Cc2ccc(O)cc2[O-])ccc1[O-] (protonated)
COc1cc(CN(Cc2ccccc2[O-])Cc2ccc(O)cc2[O-])ccc1[O-] (3D coordinates assigned)
COc1cc(CN(Cc2ccccc2[O-])Cc2ccc(O)cc2[O-])ccc1[O-] (optimized conformer: 55.31674798782412 kcal/mol)

>  <smiles>  (26) 
COc1cc(CN(Cc2ccccc2O)Cc2ccc(O)cc2O)ccc1O

>  <score_type>  (26) 
oracle

>  <origin>  (26) 
adgpu

>  <m_score__min__energy>  (26) 
-13.35

>  <m_primary>  (26) 
energy

$$$$
26:0
     RDKit          3D

 62 66  0  0  0  0  0  0  0  0999 V2000
   -1.3710   20.4260  -26.9340 O   0  0  0  0  0  0  0  0  0  0  0  0
   -0.9680   20.8360  -28.0550 C   0  0  0  0  0  0  0  0  0  0  0  0
   -1.6430   21.9960  -28.6790 C   0  0  0  0  0  0  0  0  0  0  0  0
   -1.3490   23.3030  -28.2610 C   0  0  0  0  0  0  0  0  0  0  0  0
   -1.9830   24.3920  -28.8610 C   0  0  0  0  0  0  0  0  0  0  0  0
   -2.9270   24.1920  -29.8730 C   0  0  0  0  0  0  0  0  0  0  0  0
   -3.5000   25.2990  -30.4880 O   0  0  0  0  0  0  0  0  0  0  0  0
   -3.2680   22.8840  -30.2690 C   0  0  0  0  0  0  0  0  0  0  0  0
   -4.2430   22.6360  -31.2930 N   0  0  0  0  0  0  0  0  0  0  0  0
   -4.0520   21.3900  -32.4830 S   0  0  0  0  0  0  0  0  0  0  0  0
   -3.7770   21.9920  -33.8330 O   0  0  0  0  0  0  0  0  0  0  0  0
   -2.9030   20.5020  -32.0930 O   0  0  0  0  0  0  0  0  0  0  0  0
   -5.5520   20.4610  -32.5780 C   0  0  0  0  0  0  0  0  0  0  0  0
   -5.5160   19.1010  -32.9310 C   0  0  0  0  0  0  0  0  0  0  0  0
   -6.6950   18.3540  -32.9920 C   0  0  0  0  0  0  0  0  0  0  0  0
   -7.9240   18.9520  -32.7020 C   0  0  0  0  0  0  0  0  0  0  0  0
   -7.9780   20.3080  -32.3460 C   0  0  0  0  0  0  0  0  0  0  0  0
   -9.1980   20.9300  -32.0460 C   0  0  0  0  0  0  0  0  0  0  0  0
   -9.2240   22.2820  -31.6960 C   0  0  0  0  0  0  0  0  0  0  0  0
   -8.0280   23.0020  -31.6470 C   0  0  0  0  0  0  0  0  0  0  0  0
   -6.8500   22.3890  -31.9370 N   0  0  0  0  0  0  0  0  0  0  0  0
   -6.7870   21.0700  -32.2840 C   0  0  0  0  0  0  0  0  0  0  0  0
   -2.6120   21.7950  -29.6730 C   0  0  0  0  0  0  0  0  0  0  0  0
    0.1290   20.1620  -28.7030 N   0  0  0  0  0  0  0  0  0  0  0  0
    0.1540   20.0250  -30.1700 C   0  0  0  0  0  0  0  0  0  0  0  0
    0.8320   18.7150  -30.5790 C   0  0  0  0  0  0  0  0  0  0  0  0
    2.2760   18.6160  -30.0310 C   0  0  0  0  0  0  0  0  0  0  0  0
    2.7310   17.1380  -30.0200 C   0  0  0  0  0  0  0  0  0  0  0  0
    2.5030   16.4820  -28.6800 C   0  0  0  0  0  0  0  0  0  0  0  0
    3.5630   16.3350  -27.7670 C   0  0  0  0  0  0  0  0  0  0  0  0
    3.3490   15.7170  -26.5310 C   0  0  0  0  0  0  0  0  0  0  0  0
    2.0760   15.2470  -26.1940 C   0  0  0  0  0  0  0  0  0  0  0  0
    1.0160   15.3900  -27.0940 C   0  0  0  0  0  0  0  0  0  0  0  0
    1.2260   16.0050  -28.3320 C   0  0  0  0  0  0  0  0  0  0  0  0
    2.4330   19.2860  -28.6350 C   0  0  0  0  0  0  0  0  0  0  0  0
    1.1020   19.4200  -27.8870 C   0  0  0  0  0  0  0  0  0  0  0  0
   -0.6163   23.4698  -27.4577 H   0  0  0  0  0  0  0  0  0  0  0  0
   -1.7386   25.4140  -28.5358 H   0  0  0  0  0  0  0  0  0  0  0  0
   -4.9410   23.3840  -31.5080 H   0  0  0  0  0  0  0  0  0  0  0  0
   -4.5530   18.6216  -33.1608 H   0  0  0  0  0  0  0  0  0  0  0  0
   -6.6556   17.2903  -33.2696 H   0  0  0  0  0  0  0  0  0  0  0  0
   -8.8494   18.3595  -32.7528 H   0  0  0  0  0  0  0  0  0  0  0  0
  -10.1341   20.3538  -32.0862 H   0  0  0  0  0  0  0  0  0  0  0  0
  -10.1785   22.7757  -31.4609 H   0  0  0  0  0  0  0  0  0  0  0  0
   -8.0395   24.0673  -31.3731 H   0  0  0  0  0  0  0  0  0  0  0  0
   -2.8611   20.7714  -29.9896 H   0  0  0  0  0  0  0  0  0  0  0  0
   -0.8779   20.0320  -30.5511 H   0  0  0  0  0  0  0  0  0  0  0  0
    0.7229   20.8654  -30.5943 H   0  0  0  0  0  0  0  0  0  0  0  0
    0.2440   17.8726  -30.1858 H   0  0  0  0  0  0  0  0  0  0  0  0
    0.8819   18.6858  -31.6775 H   0  0  0  0  0  0  0  0  0  0  0  0
    2.9357   19.1817  -30.7054 H   0  0  0  0  0  0  0  0  0  0  0  0
    2.1645   16.5871  -30.7852 H   0  0  0  0  0  0  0  0  0  0  0  0
    3.8109   17.1152  -30.2281 H   0  0  0  0  0  0  0  0  0  0  0  0
    4.5648   16.7079  -28.0265 H   0  0  0  0  0  0  0  0  0  0  0  0
    4.1829   15.6005  -25.8232 H   0  0  0  0  0  0  0  0  0  0  0  0
    1.9085   14.7643  -25.2199 H   0  0  0  0  0  0  0  0  0  0  0  0
    0.0155   15.0183  -26.8279 H   0  0  0  0  0  0  0  0  0  0  0  0
    0.3890   16.1164  -29.0370 H   0  0  0  0  0  0  0  0  0  0  0  0
    3.1176   18.6759  -28.0275 H   0  0  0  0  0  0  0  0  0  0  0  0
    2.8252   20.3008  -28.7971 H   0  0  0  0  0  0  0  0  0  0  0  0
    0.7046   18.4172  -27.6714 H   0  0  0  0  0  0  0  0  0  0  0  0
    1.2731   19.9680  -26.9487 H   0  0  0  0  0  0  0  0  0  0  0  0
  1  2  2  0
  2  3  1  0
  3  4  2  0
  4  5  1  0
  5  6  2  0
  6  7  1  0
  6  8  1  0
  8  9  1  0
  9 10  1  0
 10 11  2  0
 10 12  2  0
 10 13  1  0
 13 14  2  0
 14 15  1  0
 15 16  2  0
 16 17  1  0
 17 18  2  0
 18 19  1  0
 19 20  2  0
 20 21  1  0
 21 22  2  0
  8 23  2  0
  2 24  1  0
 24 25  1  0
 25 26  1  0
 26 27  1  0
 27 28  1  0
 28 29  1  0
 29 30  2  0
 30 31  1  0
 31 32  2  0
 32 33  1  0
 33 34  2  0
 27 35  1  0
 35 36  1  0
 23  3  1  0
 36 24  1  0
 22 13  1  0
 34 29  1  0
 22 17  1  0
  4 37  1  0
  5 38  1  0
  9 39  1  0
 14 40  1  0
 15 41  1  0
 16 42  1  0
 18 43  1  0
 19 44  1  0
 20 45  1  0
 23 46  1  0
 25 47  1  0
 25 48  1  0
 26 49  1  0
 26 50  1  0
 27 51  1  0
 28 52  1  0
 28 53  1  0
 30 54  1  0
 31 55  1  0
 32 56  1  0
 33 57  1  0
 34 58  1  0
 35 59  1  0
 35 60  1  0
 36 61  1  0
 36 62  1  0
M  CHG  1   7  -1
M  END
>  <UniqueID>  (27) 
25

>  <SMILES>  (27) 
O=C(c1ccc([O-])c(NS(=O)(=O)c2cccc3cccnc23)c1)N1CCC(Cc2ccccc2)CC1

>  <Energy>  (27) 
83.53754302105548

>  <Genealogy>  (27) 
O=C(c1ccc([O-])c(NS(=O)(=O)c2cccc3cccnc23)c1)N1CCC(Cc2ccccc2)CC1 (protonated)
O=C(c1ccc([O-])c(NS(=O)(=O)c2cccc3cccnc23)c1)N1CCC(Cc2ccccc2)CC1 (3D coordinates assigned)
O=C(c1ccc([O-])c(NS(=O)(=O)c2cccc3cccnc23)c1)N1CCC(Cc2ccccc2)CC1 (nonaromatic ring conformer: 83.53754302105548 kcal/mol)

>  <smiles>  (27) 
O=C(c1ccc(O)c(NS(=O)(=O)c2cccc3cccnc23)c1)N1CCC(Cc2ccccc2)CC1

>  <score_type>  (27) 
oracle

>  <origin>  (27) 
adgpu

>  <m_score__min__energy>  (27) 
-13.91

>  <m_primary>  (27) 
energy

$$$$
27:0
     RDKit          3D

 66 69  0  0  0  0  0  0  0  0999 V2000
   -2.7250   18.0294  -34.4733 H   0  0  0  0  0  0  0  0  0  0  0  0
   -3.3310   18.6620  -33.8080 C   0  0  0  0  0  0  0  0  0  0  0  0
   -2.6920   19.8750  -33.2420 C   0  0  0  0  0  0  0  0  0  0  0  0
   -2.8380   20.9640  -33.8670 O   0  0  0  0  0  0  0  0  0  0  0  0
   -2.0920   19.8590  -31.9130 N   0  0  0  0  0  0  0  0  0  0  0  0
   -2.2660   18.8980  -31.5320 H   0  0  0  0  0  0  0  0  0  0  0  0
   -2.7310   20.8280  -30.9680 C   0  0  0  0  0  0  0  0  0  0  0  0
   -3.7233   21.0994  -31.3576 H   0  0  0  0  0  0  0  0  0  0  0  0
   -2.8039   20.3397  -29.9850 H   0  0  0  0  0  0  0  0  0  0  0  0
   -1.9000   22.1120  -30.7940 C   0  0  0  0  0  0  0  0  0  0  0  0
   -1.7835   22.5962  -31.7748 H   0  0  0  0  0  0  0  0  0  0  0  0
   -2.4301   22.7691  -30.0888 H   0  0  0  0  0  0  0  0  0  0  0  0
   -0.5540   21.8270  -30.2360 N   0  0  0  0  0  0  0  0  0  0  0  0
   -0.5350   21.9840  -28.7650 C   0  0  0  0  0  0  0  0  0  0  0  0
    0.5078   22.0711  -28.4259 H   0  0  0  0  0  0  0  0  0  0  0  0
   -1.1025   22.8887  -28.5016 H   0  0  0  0  0  0  0  0  0  0  0  0
   -1.1760   20.8010  -28.0880 C   0  0  0  0  0  0  0  0  0  0  0  0
   -2.5350   20.8450  -27.7360 C   0  0  0  0  0  0  0  0  0  0  0  0
   -3.1377   21.7310  -27.9847 H   0  0  0  0  0  0  0  0  0  0  0  0
   -3.1240   19.7650  -27.0700 C   0  0  0  0  0  0  0  0  0  0  0  0
   -4.1907   19.8005  -26.8037 H   0  0  0  0  0  0  0  0  0  0  0  0
   -2.3610   18.6410  -26.7420 C   0  0  0  0  0  0  0  0  0  0  0  0
   -2.8257   17.7949  -26.2146 H   0  0  0  0  0  0  0  0  0  0  0  0
   -1.0060   18.5930  -27.0850 C   0  0  0  0  0  0  0  0  0  0  0  0
   -0.4051   17.7083  -26.8277 H   0  0  0  0  0  0  0  0  0  0  0  0
   -0.4140   19.6690  -27.7550 C   0  0  0  0  0  0  0  0  0  0  0  0
    0.6523   19.6284  -28.0221 H   0  0  0  0  0  0  0  0  0  0  0  0
   -0.0330   20.4960  -30.6430 C   0  0  0  0  0  0  0  0  0  0  0  0
    1.0619   20.5539  -30.7312 H   0  0  0  0  0  0  0  0  0  0  0  0
   -0.3295   19.7638  -29.8775 H   0  0  0  0  0  0  0  0  0  0  0  0
   -0.6170   20.0430  -31.9890 C   0  0  0  0  0  0  0  0  0  0  0  0
   -0.3911   20.8042  -32.7503 H   0  0  0  0  0  0  0  0  0  0  0  0
   -0.1632   19.0763  -32.2527 H   0  0  0  0  0  0  0  0  0  0  0  0
   -4.5960   18.2800  -33.5670 C   0  0  0  0  0  0  0  0  0  0  0  0
   -4.8997   17.2871  -33.9302 H   0  0  0  0  0  0  0  0  0  0  0  0
   -5.6180   19.0830  -32.8530 C   0  0  0  0  0  0  0  0  0  0  0  0
   -6.7630   18.4420  -32.3630 C   0  0  0  0  0  0  0  0  0  0  0  0
   -6.8834   17.3577  -32.5034 H   0  0  0  0  0  0  0  0  0  0  0  0
   -7.7510   19.1670  -31.6990 C   0  0  0  0  0  0  0  0  0  0  0  0
   -8.6301   18.6454  -31.2926 H   0  0  0  0  0  0  0  0  0  0  0  0
   -7.6330   20.5630  -31.5440 C   0  0  0  0  0  0  0  0  0  0  0  0
   -8.6210   21.3160  -30.8910 O   0  0  0  0  0  0  0  0  0  0  0  0
   -9.7220   21.9400  -31.5400 C   0  0  0  0  0  0  0  0  0  0  0  0
  -10.4176   22.3342  -30.7845 H   0  0  0  0  0  0  0  0  0  0  0  0
   -9.3571   22.7656  -32.1687 H   0  0  0  0  0  0  0  0  0  0  0  0
  -10.2428   21.2028  -32.1687 H   0  0  0  0  0  0  0  0  0  0  0  0
   -6.4970   21.2170  -32.0580 C   0  0  0  0  0  0  0  0  0  0  0  0
   -6.3060   22.9700  -31.9080 S   0  0  0  0  0  0  0  0  0  0  0  0
   -5.0060   23.3760  -32.5470 O   0  0  0  0  0  0  0  0  0  0  0  0
   -7.4180   23.6610  -32.6470 O   0  0  0  0  0  0  0  0  0  0  0  0
   -6.2980   23.4470  -30.2220 N   0  0  0  0  0  0  0  0  0  0  0  0
   -6.5740   24.8870  -30.0550 C   0  0  0  0  0  0  0  0  0  0  0  0
   -7.4406   25.1556  -30.6770 H   0  0  0  0  0  0  0  0  0  0  0  0
   -6.7728   25.0703  -28.9887 H   0  0  0  0  0  0  0  0  0  0  0  0
   -5.3700   25.7680  -30.4710 C   0  0  0  0  0  0  0  0  0  0  0  0
   -5.5715   26.1829  -31.4696 H   0  0  0  0  0  0  0  0  0  0  0  0
   -5.2641   26.5511  -29.7058 H   0  0  0  0  0  0  0  0  0  0  0  0
   -4.1400   25.0640  -30.5180 O   0  0  0  0  0  0  0  0  0  0  0  0
   -4.0330   24.1920  -29.4160 C   0  0  0  0  0  0  0  0  0  0  0  0
   -3.0152   23.7762  -29.3802 H   0  0  0  0  0  0  0  0  0  0  0  0
   -4.2441   24.7539  -28.4942 H   0  0  0  0  0  0  0  0  0  0  0  0
   -5.0480   23.0400  -29.5430 C   0  0  0  0  0  0  0  0  0  0  0  0
   -4.5845   22.2257  -30.1192 H   0  0  0  0  0  0  0  0  0  0  0  0
   -5.3142   22.7204  -28.5246 H   0  0  0  0  0  0  0  0  0  0  0  0
   -5.5100   20.4770  -32.7250 C   0  0  0  0  0  0  0  0  0  0  0  0
   -4.6397   20.9956  -33.1536 H   0  0  0  0  0  0  0  0  0  0  0  0
  1  2  1  0
  2  3  1  0
  3  4  2  0
  3  5  1  0
  5  6  1  0
  5  7  1  0
  7  8  1  0
  7  9  1  0
  7 10  1  0
 10 11  1  0
 10 12  1  0
 10 13  1  0
 13 14  1  0
 14 15  1  0
 14 16  1  0
 14 17  1  0
 17 18  2  0
 18 19  1  0
 18 20  1  0
 20 21  1  0
 20 22  2  0
 22 23  1  0
 22 24  1  0
 24 25  1  0
 24 26  2  0
 26 27  1  0
 13 28  1  0
 28 29  1  0
 28 30  1  0
 28 31  1  0
 31 32  1  0
 31 33  1  0
  2 34  2  0
 34 35  1  0
 34 36  1  0
 36 37  2  0
 37 38  1  0
 37 39  1  0
 39 40  1  0
 39 41  2  0
 41 42  1  0
 42 43  1  0
 43 44  1  0
 43 45  1  0
 43 46  1  0
 41 47  1  0
 47 48  1  0
 48 49  2  0
 48 50  2  0
 48 51  1  0
 51 52  1  0
 52 53  1  0
 52 54  1  0
 52 55  1  0
 55 56  1  0
 55 57  1  0
 55 58  1  0
 58 59  1  0
 59 60  1  0
 59 61  1  0
 59 62  1  0
 62 63  1  0
 62 64  1  0
 47 65  2  0
 65 66  1  0
 31  5  1  0
 65 36  1  0
 26 17  1  0
 62 51  1  0
M  CHG  1   5   1
M  END
>  <UniqueID>  (28) 
26

>  <SMILES>  (28) 
COc1ccc(/C=C\C(=O)[NH+]2CCN(Cc3ccccc3)CC2)cc1S(=O)(=O)N1CCOCC1

>  <Energy>  (28) 
104.07780119326999

>  <Genealogy>  (28) 
COc1ccc(C=CC(=O)[NH+]2CCN(Cc3ccccc3)CC2)cc1S(=O)(=O)N1CCOCC1 (protonated)
COc1ccc(/C=C\C(=O)[NH+]2CCN(Cc3ccccc3)CC2)cc1S(=O)(=O)N1CCOCC1 (cis-trans isomerization)
COc1ccc(/C=C\C(=O)[NH+]2CCN(Cc3ccccc3)CC2)cc1S(=O)(=O)N1CCOCC1 (3D coordinates assigned)
COc1ccc(/C=C\C(=O)[NH+]2CCN(Cc3ccccc3)CC2)cc1S(=O)(=O)N1CCOCC1 (nonaromatic ring conformer: 104.07780119326999 kcal/mol)

>  <smiles>  (28) 
COc1ccc(C=CC(=O)N2CCN(Cc3ccccc3)CC2)cc1S(=O)(=O)N1CCOCC1

>  <score_type>  (28) 
oracle

>  <origin>  (28) 
adgpu

>  <m_score__min__energy>  (28) 
-10.300000000000001

>  <m_primary>  (28) 
energy

$$$$
28:0
     RDKit          3D

 47 48  0  0  0  0  0  0  0  0999 V2000
   -9.4790   19.1830  -32.5600 C   0  0  0  0  0  0  0  0  0  0  0  0
   -8.2360   20.0010  -32.3520 C   0  0  0  0  0  0  0  0  0  0  0  0
   -8.3000   21.2320  -31.6830 C   0  0  0  0  0  0  0  0  0  0  0  0
   -7.1430   22.0060  -31.4790 C   0  0  0  0  0  0  0  0  0  0  0  0
   -7.2670   23.3240  -30.7610 C   0  0  0  0  0  0  0  0  0  0  0  0
   -5.8990   21.5350  -31.9640 C   0  0  0  0  0  0  0  0  0  0  0  0
   -4.4030   22.4580  -31.7500 S   0  0  0  0  0  0  0  0  0  0  0  0
   -3.5240   22.3070  -32.9610 O   0  0  0  0  0  0  0  0  0  0  0  0
   -4.7420   23.9110  -31.5660 O   0  0  0  0  0  0  0  0  0  0  0  0
   -3.5600   21.8580  -30.3600 N   0  0  0  0  0  0  0  0  0  0  0  0
   -2.9110   22.6640  -29.3630 C   0  0  0  0  0  0  0  0  0  0  0  0
   -2.5600   23.9950  -29.6140 C   0  0  0  0  0  0  0  0  0  0  0  0
   -1.9380   24.7720  -28.6310 C   0  0  0  0  0  0  0  0  0  0  0  0
   -1.6160   26.0830  -28.9610 O   0  0  0  0  0  0  0  0  0  0  0  0
   -1.6500   24.2340  -27.3490 C   0  0  0  0  0  0  0  0  0  0  0  0
   -0.9710   25.0940  -26.2500 C   0  0  0  0  0  0  0  0  0  0  0  0
    0.2790   25.8560  -26.7620 C   0  0  0  0  0  0  0  0  0  0  0  0
   -0.5010   24.1930  -25.0850 C   0  0  0  0  0  0  0  0  0  0  0  0
   -1.9610   26.1580  -25.7250 C   0  0  0  0  0  0  0  0  0  0  0  0
   -2.0070   22.8810  -27.1190 C   0  0  0  0  0  0  0  0  0  0  0  0
   -2.6220   22.1030  -28.1090 C   0  0  0  0  0  0  0  0  0  0  0  0
   -2.9930   20.6720  -27.8180 C   0  0  0  0  0  0  0  0  0  0  0  0
   -5.8440   20.3010  -32.6310 C   0  0  0  0  0  0  0  0  0  0  0  0
   -6.9990   19.5390  -32.8250 C   0  0  0  0  0  0  0  0  0  0  0  0
   -6.9080   18.3210  -33.4910 O   0  0  0  0  0  0  0  0  0  0  0  0
   -9.9023   18.9045  -31.5837 H   0  0  0  0  0  0  0  0  0  0  0  0
  -10.2161   19.7731  -33.1243 H   0  0  0  0  0  0  0  0  0  0  0  0
   -9.2286   18.2726  -33.1243 H   0  0  0  0  0  0  0  0  0  0  0  0
   -9.2690   21.5977  -31.3124 H   0  0  0  0  0  0  0  0  0  0  0  0
   -7.2509   23.1526  -29.6746 H   0  0  0  0  0  0  0  0  0  0  0  0
   -6.4262   23.9752  -31.0420 H   0  0  0  0  0  0  0  0  0  0  0  0
   -8.2145   23.8069  -31.0420 H   0  0  0  0  0  0  0  0  0  0  0  0
   -2.7762   24.4366  -30.5980 H   0  0  0  0  0  0  0  0  0  0  0  0
    0.8669   26.2144  -25.9041 H   0  0  0  0  0  0  0  0  0  0  0  0
    0.8959   25.1802  -27.3725 H   0  0  0  0  0  0  0  0  0  0  0  0
   -0.0391   26.7139  -27.3725 H   0  0  0  0  0  0  0  0  0  0  0  0
   -0.7510   24.6722  -24.1270 H   0  0  0  0  0  0  0  0  0  0  0  0
   -1.0051   23.2174  -25.1495 H   0  0  0  0  0  0  0  0  0  0  0  0
    0.5875   24.0482  -25.1495 H   0  0  0  0  0  0  0  0  0  0  0  0
   -1.9559   26.1525  -24.6250 H   0  0  0  0  0  0  0  0  0  0  0  0
   -1.6584   27.1513  -26.0881 H   0  0  0  0  0  0  0  0  0  0  0  0
   -2.9735   25.9276  -26.0881 H   0  0  0  0  0  0  0  0  0  0  0  0
   -1.7957   22.4305  -26.1380 H   0  0  0  0  0  0  0  0  0  0  0  0
   -3.0330   20.5176  -26.7296 H   0  0  0  0  0  0  0  0  0  0  0  0
   -3.9778   20.4522  -28.2560 H   0  0  0  0  0  0  0  0  0  0  0  0
   -2.2390   20.0014  -28.2560 H   0  0  0  0  0  0  0  0  0  0  0  0
   -4.8790   19.9291  -33.0058 H   0  0  0  0  0  0  0  0  0  0  0  0
  1  2  1  0
  2  3  2  0
  3  4  1  0
  4  5  1  0
  4  6  2  0
  6  7  1  0
  7  8  2  0
  7  9  2  0
  7 10  1  0
 10 11  1  0
 11 12  2  0
 12 13  1  0
 13 14  1  0
 13 15  2  0
 15 16  1  0
 16 17  1  0
 16 18  1  0
 16 19  1  0
 15 20  1  0
 20 21  2  0
 21 22  1  0
  6 23  1  0
 23 24  2  0
 24 25  1  0
 24  2  1  0
 21 11  1  0
  1 26  1  0
  1 27  1  0
  1 28  1  0
  3 29  1  0
  5 30  1  0
  5 31  1  0
  5 32  1  0
 12 33  1  0
 17 34  1  0
 17 35  1  0
 17 36  1  0
 18 37  1  0
 18 38  1  0
 18 39  1  0
 19 40  1  0
 19 41  1  0
 19 42  1  0
 20 43  1  0
 22 44  1  0
 22 45  1  0
 22 46  1  0
 23 47  1  0
M  CHG  3  10  -1  14  -1  25  -1
M  END
>  <UniqueID>  (29) 
27

>  <SMILES>  (29) 
Cc1cc(C)c(S(=O)(=O)[N-]c2cc([O-])c(C(C)(C)C)cc2C)cc1[O-]

>  <Energy>  (29) 
57.07924402266812

>  <Genealogy>  (29) 
Cc1cc(C)c(S(=O)(=O)[N-]c2cc([O-])c(C(C)(C)C)cc2C)cc1[O-] (protonated)
Cc1cc(C)c(S(=O)(=O)[N-]c2cc([O-])c(C(C)(C)C)cc2C)cc1[O-] (3D coordinates assigned)
Cc1cc(C)c(S(=O)(=O)[N-]c2cc([O-])c(C(C)(C)C)cc2C)cc1[O-] (optimized conformer: 57.07924402266812 kcal/mol)

>  <smiles>  (29) 
Cc1cc(C)c(S(=O)(=O)Nc2cc(O)c(C(C)(C)C)cc2C)cc1O

>  <score_type>  (29) 
oracle

>  <origin>  (29) 
adgpu

>  <m_score__min__energy>  (29) 
-12.449999999999999

>  <m_primary>  (29) 
energy

$$$$
29:0
     RDKit          3D

 50 53  0  0  0  0  0  0  0  0999 V2000
   -4.3290   21.3380  -33.8140 O   0  0  0  0  0  0  0  0  0  0  0  0
   -4.7850   21.0520  -32.6710 C   0  0  0  0  0  0  0  0  0  0  0  0
   -5.0000   22.1510  -31.6940 C   0  0  0  0  0  0  0  0  0  0  0  0
   -6.2860   22.3820  -31.1780 C   0  0  0  0  0  0  0  0  0  0  0  0
   -6.5120   23.4270  -30.2820 C   0  0  0  0  0  0  0  0  0  0  0  0
   -5.4620   24.2570  -29.8860 C   0  0  0  0  0  0  0  0  0  0  0  0
   -5.7310   25.2830  -28.9770 O   0  0  0  0  0  0  0  0  0  0  0  0
   -4.1630   24.0470  -30.3950 C   0  0  0  0  0  0  0  0  0  0  0  0
   -3.1060   24.9190  -29.9630 N   0  0  0  0  0  0  0  0  0  0  0  0
   -2.1230   24.7990  -28.5360 S   0  0  0  0  0  0  0  0  0  0  0  0
   -2.9800   25.1950  -27.3660 O   0  0  0  0  0  0  0  0  0  0  0  0
   -0.9550   25.7430  -28.5970 O   0  0  0  0  0  0  0  0  0  0  0  0
   -1.5700   23.1350  -28.3130 C   0  0  0  0  0  0  0  0  0  0  0  0
   -0.2870   22.7510  -28.7380 C   0  0  0  0  0  0  0  0  0  0  0  0
    0.1650   21.4430  -28.5370 C   0  0  0  0  0  0  0  0  0  0  0  0
   -0.6670   20.4950  -27.9210 C   0  0  0  0  0  0  0  0  0  0  0  0
   -0.2230   19.1790  -27.7120 C   0  0  0  0  0  0  0  0  0  0  0  0
   -1.0650   18.2420  -27.1050 C   0  0  0  0  0  0  0  0  0  0  0  0
   -2.3550   18.6100  -26.7030 C   0  0  0  0  0  0  0  0  0  0  0  0
   -2.8080   19.9210  -26.9000 C   0  0  0  0  0  0  0  0  0  0  0  0
   -1.9700   20.8740  -27.5040 C   0  0  0  0  0  0  0  0  0  0  0  0
   -2.4060   22.1940  -27.6940 C   0  0  0  0  0  0  0  0  0  0  0  0
   -3.9460   23.0000  -31.3120 C   0  0  0  0  0  0  0  0  0  0  0  0
   -5.1000   19.6770  -32.3600 N   0  0  0  0  0  0  0  0  0  0  0  0
   -4.4090   18.5930  -33.0710 C   0  0  0  0  0  0  0  0  0  0  0  0
   -5.3560   17.9260  -34.0840 C   0  0  0  0  0  0  0  0  0  0  0  0
   -6.8350   17.9730  -33.6480 C   0  0  0  0  0  0  0  0  0  0  0  0
   -6.9840   18.0670  -32.1250 C   0  0  0  0  0  0  0  0  0  0  0  0
   -6.3170   19.3460  -31.5960 C   0  0  0  0  0  0  0  0  0  0  0  0
   -7.1210   21.7340  -31.4828 H   0  0  0  0  0  0  0  0  0  0  0  0
   -7.5236   23.5979  -29.8852 H   0  0  0  0  0  0  0  0  0  0  0  0
   -5.0240   25.6600  -28.3590 H   0  0  0  0  0  0  0  0  0  0  0  0
    0.3667   23.4846  -29.2325 H   0  0  0  0  0  0  0  0  0  0  0  0
    1.1758   21.1561  -28.8627 H   0  0  0  0  0  0  0  0  0  0  0  0
    0.7892   18.8848  -28.0265 H   0  0  0  0  0  0  0  0  0  0  0  0
   -0.7129   17.2126  -26.9428 H   0  0  0  0  0  0  0  0  0  0  0  0
   -3.0148   17.8672  -26.2309 H   0  0  0  0  0  0  0  0  0  0  0  0
   -3.8218   20.2051  -26.5813 H   0  0  0  0  0  0  0  0  0  0  0  0
   -3.4091   22.4926  -27.3556 H   0  0  0  0  0  0  0  0  0  0  0  0
   -2.9419   22.8449  -31.7336 H   0  0  0  0  0  0  0  0  0  0  0  0
   -3.5402   19.0058  -33.6046 H   0  0  0  0  0  0  0  0  0  0  0  0
   -4.0809   17.8394  -32.3399 H   0  0  0  0  0  0  0  0  0  0  0  0
   -5.2584   18.4446  -35.0491 H   0  0  0  0  0  0  0  0  0  0  0  0
   -5.0677   16.8669  -34.1559 H   0  0  0  0  0  0  0  0  0  0  0  0
   -7.3122   18.8519  -34.1061 H   0  0  0  0  0  0  0  0  0  0  0  0
   -7.3157   17.0405  -33.9787 H   0  0  0  0  0  0  0  0  0  0  0  0
   -8.0530   18.0829  -31.8663 H   0  0  0  0  0  0  0  0  0  0  0  0
   -6.4951   17.1952  -31.6657 H   0  0  0  0  0  0  0  0  0  0  0  0
   -7.0288   20.1806  -31.6785 H   0  0  0  0  0  0  0  0  0  0  0  0
   -6.0308   19.1774  -30.5474 H   0  0  0  0  0  0  0  0  0  0  0  0
  1  2  2  0
  2  3  1  0
  3  4  2  0
  4  5  1  0
  5  6  2  0
  6  7  1  0
  6  8  1  0
  8  9  1  0
  9 10  1  0
 10 11  2  0
 10 12  2  0
 10 13  1  0
 13 14  2  0
 14 15  1  0
 15 16  2  0
 16 17  1  0
 17 18  2  0
 18 19  1  0
 19 20  2  0
 20 21  1  0
 21 22  2  0
  8 23  2  0
  2 24  1  0
 24 25  1  0
 25 26  1  0
 26 27  1  0
 27 28  1  0
 28 29  1  0
 23  3  1  0
 29 24  1  0
 22 13  1  0
 21 16  1  0
  4 30  1  0
  5 31  1  0
  7 32  1  0
 14 33  1  0
 15 34  1  0
 17 35  1  0
 18 36  1  0
 19 37  1  0
 20 38  1  0
 22 39  1  0
 23 40  1  0
 25 41  1  0
 25 42  1  0
 26 43  1  0
 26 44  1  0
 27 45  1  0
 27 46  1  0
 28 47  1  0
 28 48  1  0
 29 49  1  0
 29 50  1  0
M  CHG  1   9  -1
M  END
>  <UniqueID>  (30) 
28

>  <SMILES>  (30) 
O=C(c1ccc(O)c([N-]S(=O)(=O)c2ccc3ccccc3c2)c1)N1CCCCC1

>  <Energy>  (30) 
67.38387785800921

>  <Genealogy>  (30) 
O=C(c1ccc(O)c([N-]S(=O)(=O)c2ccc3ccccc3c2)c1)N1CCCCC1 (protonated)
O=C(c1ccc(O)c([N-]S(=O)(=O)c2ccc3ccccc3c2)c1)N1CCCCC1 (3D coordinates assigned)
O=C(c1ccc(O)c([N-]S(=O)(=O)c2ccc3ccccc3c2)c1)N1CCCCC1 (nonaromatic ring conformer: 67.38387785800921 kcal/mol)

>  <smiles>  (30) 
O=C(c1ccc(O)c(NS(=O)(=O)c2ccc3ccccc3c2)c1)N1CCCCC1

>  <score_type>  (30) 
oracle

>  <origin>  (30) 
adgpu

>  <m_score__min__energy>  (30) 
-12.81

>  <m_primary>  (30) 
energy

$$$$
30:0
     RDKit          3D

 40 42  0  0  0  0  0  0  0  0999 V2000
    0.2080   26.2800  -27.7540 O   0  0  0  0  0  0  0  0  0  0  0  0
   -0.8680   25.6480  -27.9190 C   0  0  0  0  0  0  0  0  0  0  0  0
   -1.4380   24.9350  -26.8650 C   0  0  0  0  0  0  0  0  0  0  0  0
   -2.6290   24.2440  -27.0790 C   0  0  0  0  0  0  0  0  0  0  0  0
   -3.2150   24.2700  -28.3500 C   0  0  0  0  0  0  0  0  0  0  0  0
   -4.4810   23.5150  -28.6360 C   0  0  0  0  0  0  0  0  0  0  0  0
   -4.2840   22.5310  -29.7040 N   0  0  0  0  0  0  0  0  0  0  0  0
   -4.7440   23.1730  -31.2560 S   0  0  0  0  0  0  0  0  0  0  0  0
   -4.6570   24.6720  -31.2120 O   0  0  0  0  0  0  0  0  0  0  0  0
   -3.8050   22.6710  -32.3180 O   0  0  0  0  0  0  0  0  0  0  0  0
   -6.4030   22.7160  -31.6330 C   0  0  0  0  0  0  0  0  0  0  0  0
   -7.3880   23.7080  -31.7270 C   0  0  0  0  0  0  0  0  0  0  0  0
   -8.7180   23.3570  -31.9710 C   0  0  0  0  0  0  0  0  0  0  0  0
   -9.0700   22.0150  -32.1310 C   0  0  0  0  0  0  0  0  0  0  0  0
   -8.0900   21.0160  -32.0560 C   0  0  0  0  0  0  0  0  0  0  0  0
   -8.5300   19.3220  -32.2250 S   0  0  0  0  0  0  0  0  0  0  0  0
   -8.8050   18.7220  -30.8740 O   0  0  0  0  0  0  0  0  0  0  0  0
   -9.7780   19.2010  -33.0540 O   0  0  0  0  0  0  0  0  0  0  0  0
   -7.2060   18.4630  -33.0020 C   0  0  0  0  0  0  0  0  0  0  0  0
   -6.9830   17.1080  -32.7190 C   0  0  0  0  0  0  0  0  0  0  0  0
   -5.9530   16.4160  -33.3640 C   0  0  0  0  0  0  0  0  0  0  0  0
   -5.1450   17.0740  -34.2960 C   0  0  0  0  0  0  0  0  0  0  0  0
   -5.3680   18.4230  -34.5860 C   0  0  0  0  0  0  0  0  0  0  0  0
   -6.3980   19.1170  -33.9430 C   0  0  0  0  0  0  0  0  0  0  0  0
   -6.7570   21.3700  -31.8020 C   0  0  0  0  0  0  0  0  0  0  0  0
   -2.6200   24.9920  -29.3390 N   0  0  0  0  0  0  0  0  0  0  0  0
   -1.4840   25.6600  -29.1290 N   0  0  0  0  0  0  0  0  0  0  0  0
   -0.9538   24.9182  -25.8774 H   0  0  0  0  0  0  0  0  0  0  0  0
   -3.1030   23.6848  -26.2589 H   0  0  0  0  0  0  0  0  0  0  0  0
   -4.8011   22.9929  -27.7222 H   0  0  0  0  0  0  0  0  0  0  0  0
   -5.2475   24.2332  -28.9625 H   0  0  0  0  0  0  0  0  0  0  0  0
   -7.1132   24.7665  -31.6083 H   0  0  0  0  0  0  0  0  0  0  0  0
   -9.4891   24.1387  -32.0372 H   0  0  0  0  0  0  0  0  0  0  0  0
  -10.1192   21.7414  -32.3164 H   0  0  0  0  0  0  0  0  0  0  0  0
   -7.6196   16.5881  -31.9880 H   0  0  0  0  0  0  0  0  0  0  0  0
   -5.7786   15.3537  -33.1379 H   0  0  0  0  0  0  0  0  0  0  0  0
   -4.3334   16.5299  -34.8013 H   0  0  0  0  0  0  0  0  0  0  0  0
   -4.7327   18.9393  -35.3207 H   0  0  0  0  0  0  0  0  0  0  0  0
   -6.5745   20.1775  -34.1758 H   0  0  0  0  0  0  0  0  0  0  0  0
   -5.9860   20.5883  -31.7351 H   0  0  0  0  0  0  0  0  0  0  0  0
  1  2  2  0
  2  3  1  0
  3  4  2  0
  4  5  1  0
  5  6  1  0
  6  7  1  0
  7  8  1  0
  8  9  2  0
  8 10  2  0
  8 11  1  0
 11 12  2  0
 12 13  1  0
 13 14  2  0
 14 15  1  0
 15 16  1  0
 16 17  2  0
 16 18  2  0
 16 19  1  0
 19 20  2  0
 20 21  1  0
 21 22  2  0
 22 23  1  0
 23 24  2  0
 15 25  2  0
  5 26  2  0
 26 27  1  0
 27  2  1  0
 25 11  1  0
 24 19  1  0
  3 28  1  0
  4 29  1  0
  6 30  1  0
  6 31  1  0
 12 32  1  0
 13 33  1  0
 14 34  1  0
 20 35  1  0
 21 36  1  0
 22 37  1  0
 23 38  1  0
 24 39  1  0
 25 40  1  0
M  CHG  2   7  -1  27  -1
M  END
>  <UniqueID>  (31) 
29

>  <SMILES>  (31) 
O=c1ccc(C[N-]S(=O)(=O)c2cccc(S(=O)(=O)c3ccccc3)c2)n[n-]1

>  <Energy>  (31) 
39.41245740134313

>  <Genealogy>  (31) 
O=c1ccc(C[N-]S(=O)(=O)c2cccc(S(=O)(=O)c3ccccc3)c2)n[n-]1 (protonated)
O=c1ccc(C[N-]S(=O)(=O)c2cccc(S(=O)(=O)c3ccccc3)c2)n[n-]1 (3D coordinates assigned)
O=c1ccc(C[N-]S(=O)(=O)c2cccc(S(=O)(=O)c3ccccc3)c2)n[n-]1 (optimized conformer: 39.41245740134313 kcal/mol)

>  <smiles>  (31) 
O=c1ccc(CNS(=O)(=O)c2cccc(S(=O)(=O)c3ccccc3)c2)n[nH]1

>  <score_type>  (31) 
oracle

>  <origin>  (31) 
adgpu

>  <m_score__min__energy>  (31) 
-13.050000000000001

>  <m_primary>  (31) 
energy

$$$$
31:0
     RDKit          3D

 53 55  0  0  0  0  0  0  0  0999 V2000
   -8.2750   19.4520  -32.3500 C   0  0  0  0  0  0  0  0  0  0  0  0
   -7.7220   20.5870  -33.0060 O   0  0  0  0  0  0  0  0  0  0  0  0
   -7.0630   21.6430  -32.3550 C   0  0  0  0  0  0  0  0  0  0  0  0
   -7.7600   22.7530  -31.8460 C   0  0  0  0  0  0  0  0  0  0  0  0
   -7.0750   23.7890  -31.2080 C   0  0  0  0  0  0  0  0  0  0  0  0
   -5.6790   23.7430  -31.0730 C   0  0  0  0  0  0  0  0  0  0  0  0
   -4.9430   24.8380  -30.3960 C   0  0  0  0  0  0  0  0  0  0  0  0
   -5.5870   25.7320  -29.7880 O   0  0  0  0  0  0  0  0  0  0  0  0
   -3.5120   24.9320  -30.4420 N   0  0  0  0  0  0  0  0  0  0  0  0
   -2.5940   24.2790  -29.5530 C   0  0  0  0  0  0  0  0  0  0  0  0
   -2.7790   22.9180  -29.2820 C   0  0  0  0  0  0  0  0  0  0  0  0
   -1.9060   22.2370  -28.4220 C   0  0  0  0  0  0  0  0  0  0  0  0
   -2.1690   20.5350  -28.0600 S   0  0  0  0  0  0  0  0  0  0  0  0
   -0.7700   19.5900  -28.6190 C   0  0  0  0  0  0  0  0  0  0  0  0
   -3.4120   20.0520  -28.7530 O   0  0  0  0  0  0  0  0  0  0  0  0
   -2.3400   20.3520  -26.5790 O   0  0  0  0  0  0  0  0  0  0  0  0
   -0.8400   22.9260  -27.8300 C   0  0  0  0  0  0  0  0  0  0  0  0
   -0.6290   24.2760  -28.1210 C   0  0  0  0  0  0  0  0  0  0  0  0
   -1.4890   24.9520  -28.9920 C   0  0  0  0  0  0  0  0  0  0  0  0
   -1.2200   26.2790  -29.3150 O   0  0  0  0  0  0  0  0  0  0  0  0
   -4.9830   22.6280  -31.5670 C   0  0  0  0  0  0  0  0  0  0  0  0
   -5.6650   21.5840  -32.2080 C   0  0  0  0  0  0  0  0  0  0  0  0
   -4.7670   20.1950  -32.8270 S   0  0  0  0  0  0  0  0  0  0  0  0
   -5.3620   19.7280  -34.1280 O   0  0  0  0  0  0  0  0  0  0  0  0
   -4.8560   19.0800  -31.8220 O   0  0  0  0  0  0  0  0  0  0  0  0
   -3.0980   20.6420  -33.0730 N   0  0  0  0  0  0  0  0  0  0  0  0
   -2.4230   20.7830  -31.7660 C   0  0  0  0  0  0  0  0  0  0  0  0
   -0.8890   20.9170  -31.9090 C   0  0  0  0  0  0  0  0  0  0  0  0
   -0.4740   21.1970  -33.3560 C   0  0  0  0  0  0  0  0  0  0  0  0
   -1.0130   20.1090  -34.2990 C   0  0  0  0  0  0  0  0  0  0  0  0
   -2.4230   19.6300  -33.9030 C   0  0  0  0  0  0  0  0  0  0  0  0
   -8.2081   19.5894  -31.2607 H   0  0  0  0  0  0  0  0  0  0  0  0
   -9.3296   19.3380  -32.6411 H   0  0  0  0  0  0  0  0  0  0  0  0
   -7.7148   18.5512  -32.6411 H   0  0  0  0  0  0  0  0  0  0  0  0
   -8.8537   22.8056  -31.9513 H   0  0  0  0  0  0  0  0  0  0  0  0
   -7.6340   24.6479  -30.8081 H   0  0  0  0  0  0  0  0  0  0  0  0
   -3.6166   22.3783  -29.7479 H   0  0  0  0  0  0  0  0  0  0  0  0
   -0.2114   19.2127  -27.7497 H   0  0  0  0  0  0  0  0  0  0  0  0
   -1.1194   18.7421  -29.2265 H   0  0  0  0  0  0  0  0  0  0  0  0
   -0.1139   20.2307  -29.2265 H   0  0  0  0  0  0  0  0  0  0  0  0
   -0.1673   22.4030  -27.1343 H   0  0  0  0  0  0  0  0  0  0  0  0
    0.2171   24.8093  -27.6631 H   0  0  0  0  0  0  0  0  0  0  0  0
   -3.8906   22.5730  -31.4498 H   0  0  0  0  0  0  0  0  0  0  0  0
   -2.8111   21.6807  -31.2625 H   0  0  0  0  0  0  0  0  0  0  0  0
   -2.6283   19.8741  -31.1815 H   0  0  0  0  0  0  0  0  0  0  0  0
   -0.5433   21.7453  -31.2730 H   0  0  0  0  0  0  0  0  0  0  0  0
   -0.4329   19.9645  -31.6012 H   0  0  0  0  0  0  0  0  0  0  0  0
   -0.8767   22.1731  -33.6642 H   0  0  0  0  0  0  0  0  0  0  0  0
    0.6245   21.2005  -33.4133 H   0  0  0  0  0  0  0  0  0  0  0  0
   -1.0525   20.5155  -35.3204 H   0  0  0  0  0  0  0  0  0  0  0  0
   -0.3358   19.2446  -34.2334 H   0  0  0  0  0  0  0  0  0  0  0  0
   -3.0149   19.4554  -34.8136 H   0  0  0  0  0  0  0  0  0  0  0  0
   -2.3327   18.6987  -33.3247 H   0  0  0  0  0  0  0  0  0  0  0  0
  1  2  1  0
  2  3  1  0
  3  4  2  0
  4  5  1  0
  5  6  2  0
  6  7  1  0
  7  8  2  0
  7  9  1  0
  9 10  1  0
 10 11  2  0
 11 12  1  0
 12 13  1  0
 13 14  1  0
 13 15  2  0
 13 16  2  0
 12 17  2  0
 17 18  1  0
 18 19  2  0
 19 20  1  0
  6 21  1  0
 21 22  2  0
 22 23  1  0
 23 24  2  0
 23 25  2  0
 23 26  1  0
 26 27  1  0
 27 28  1  0
 28 29  1  0
 29 30  1  0
 30 31  1  0
 22  3  1  0
 31 26  1  0
 19 10  1  0
  1 32  1  0
  1 33  1  0
  1 34  1  0
  4 35  1  0
  5 36  1  0
 11 37  1  0
 14 38  1  0
 14 39  1  0
 14 40  1  0
 17 41  1  0
 18 42  1  0
 21 43  1  0
 27 44  1  0
 27 45  1  0
 28 46  1  0
 28 47  1  0
 29 48  1  0
 29 49  1  0
 30 50  1  0
 30 51  1  0
 31 52  1  0
 31 53  1  0
M  CHG  2   9  -1  20  -1
M  END
>  <UniqueID>  (32) 
30

>  <SMILES>  (32) 
COc1ccc(C(=O)[N-]c2cc(S(C)(=O)=O)ccc2[O-])cc1S(=O)(=O)N1CCCCC1

>  <Energy>  (32) 
61.93278905818218

>  <Genealogy>  (32) 
COc1ccc(C(=O)[N-]c2cc(S(C)(=O)=O)ccc2[O-])cc1S(=O)(=O)N1CCCCC1 (protonated)
COc1ccc(C(=O)[N-]c2cc(S(C)(=O)=O)ccc2[O-])cc1S(=O)(=O)N1CCCCC1 (3D coordinates assigned)
COc1ccc(C(=O)[N-]c2cc(S(C)(=O)=O)ccc2[O-])cc1S(=O)(=O)N1CCCCC1 (nonaromatic ring conformer: 61.93278905818218 kcal/mol)

>  <smiles>  (32) 
COc1ccc(C(=O)Nc2cc(S(C)(=O)=O)ccc2O)cc1S(=O)(=O)N1CCCCC1

>  <score_type>  (32) 
oracle

>  <origin>  (32) 
adgpu

>  <m_score__min__energy>  (32) 
-13.98

>  <m_primary>  (32) 
energy

$$$$
32:0
     RDKit          3D

 36 38  0  0  1  0  0  0  0  0999 V2000
   -3.5410   24.1700  -29.5600 C   0  0  0  0  0  0  0  0  0  0  0  0
   -4.1570   24.2980  -30.8290 O   0  0  0  0  0  0  0  0  0  0  0  0
   -5.2400   23.5160  -31.1860 C   0  0  0  0  0  0  0  0  0  0  0  0
   -6.5390   23.7910  -30.8430 C   0  0  0  0  0  0  0  0  0  0  0  0
   -7.5480   22.9450  -31.2490 C   0  0  0  0  0  0  0  0  0  0  0  0
   -7.3180   21.8080  -32.0020 C   0  0  0  0  0  0  0  0  0  0  0  0
   -8.3510   20.9700  -32.4010 C   0  0  0  0  0  0  0  0  0  0  0  0
   -9.5690   21.2370  -32.0730 N   0  0  0  0  0  0  0  0  0  0  0  0
   -8.0040   19.8890  -33.1340 N   0  0  0  0  0  0  0  0  0  0  0  0
   -6.7150   19.6280  -33.4670 C   0  0  0  0  0  0  0  0  0  0  0  0
   -6.4870   18.5790  -34.1650 N   0  0  0  0  0  0  0  0  0  0  0  0
   -5.1740   18.1980  -34.5760 C   0  0  0  0  0  0  0  0  0  0  0  0
   -4.6770   16.9920  -33.8430 C   0  0  0  0  0  0  0  0  0  0  0  0
   -3.3930   16.4870  -34.0520 C   0  0  0  0  0  0  0  0  0  0  0  0
   -2.8990   15.3950  -33.4070 C   0  0  0  0  0  0  0  0  0  0  0  0
   -3.6810   14.7610  -32.5200 N   0  0  0  0  0  0  0  0  0  0  0  0
   -4.9400   15.1950  -32.2660 C   0  0  0  0  0  0  0  0  0  0  0  0
   -5.4450   16.3110  -32.9240 C   0  0  0  0  0  0  0  0  0  0  0  0
   -5.7390   20.4570  -33.0670 N   0  0  0  0  0  0  0  0  0  0  0  0
   -6.0060   21.5410  -32.3430 C   0  0  0  0  0  0  0  0  0  0  0  0
   -4.9770   22.3780  -31.9440 C   0  0  0  0  0  0  0  0  0  0  0  0
   -3.3390   21.9790  -32.4100 Cl  0  0  0  0  0  0  0  0  0  0  0  0
   -4.2913   24.3259  -28.7708 H   0  0  0  0  0  0  0  0  0  0  0  0
   -3.1094   23.1630  -29.4618 H   0  0  0  0  0  0  0  0  0  0  0  0
   -2.7439   24.9217  -29.4618 H   0  0  0  0  0  0  0  0  0  0  0  0
   -6.7747   24.6841  -30.2457 H   0  0  0  0  0  0  0  0  0  0  0  0
   -8.5824   23.1846  -30.9614 H   0  0  0  0  0  0  0  0  0  0  0  0
  -10.3160   20.5820  -32.3920 H   0  0  0  0  0  0  0  0  0  0  0  0
   -8.7620   19.2240  -33.4580 H   0  0  0  0  0  0  0  0  0  0  0  0
   -5.1912   17.9751  -35.6530 H   0  0  0  0  0  0  0  0  0  0  0  0
   -4.4949   19.0331  -34.3493 H   0  0  0  0  0  0  0  0  0  0  0  0
   -2.7446   16.9996  -34.7778 H   0  0  0  0  0  0  0  0  0  0  0  0
   -1.8780   15.0390  -33.6091 H   0  0  0  0  0  0  0  0  0  0  0  0
   -5.5655   14.6613  -31.5353 H   0  0  0  0  0  0  0  0  0  0  0  0
   -6.4679   16.6536  -32.7087 H   0  0  0  0  0  0  0  0  0  0  0  0
   -4.7530   20.2540  -33.3240 H   0  0  0  0  0  0  0  0  0  0  0  0
  1  2  1  0
  2  3  1  0
  3  4  2  0
  4  5  1  0
  5  6  2  0
  6  7  1  0
  7  8  2  3
  7  9  1  0
  9 10  1  0
 10 11  2  0
 11 12  1  0
 12 13  1  0
 13 14  2  0
 14 15  1  0
 15 16  2  0
 16 17  1  0
 17 18  2  0
 10 19  1  0
 19 20  1  0
 20 21  2  0
 21 22  1  0
 21  3  1  0
 20  6  1  0
 18 13  1  0
  1 23  1  0
  1 24  1  0
  1 25  1  0
  4 26  1  0
  5 27  1  0
  8 28  1  0
  9 29  1  0
 12 30  1  0
 12 31  1  0
 14 32  1  0
 15 33  1  0
 17 34  1  0
 18 35  1  0
 19 36  1  0
M  END
>  <smiles>  (33) 
COc1ccc2c(=N)[nH]c(=NCc3ccncc3)[nH]c2c1Cl

>  <score_type>  (33) 
oracle

>  <origin>  (33) 
adgpu

>  <m_score__min__energy>  (33) 
-7.3300000000000001

>  <m_primary>  (33) 
energy

$$$$
33:0
     RDKit          3D

 59 62  0  0  0  0  0  0  0  0999 V2000
   -9.1270   19.5640  -32.2950 C   0  0  0  0  0  0  0  0  0  0  0  0
   -8.1580   20.7070  -32.3170 C   0  0  0  0  0  0  0  0  0  0  0  0
   -8.5860   21.8670  -32.0750 O   0  0  0  0  0  0  0  0  0  0  0  0
   -6.7680   20.5210  -32.6410 N   0  0  0  0  0  0  0  0  0  0  0  0
   -6.2860   19.4390  -33.4990 C   0  0  0  0  0  0  0  0  0  0  0  0
   -4.7420   19.4820  -33.4180 C   0  0  0  0  0  0  0  0  0  0  0  0
   -4.4750   20.6650  -32.5560 C   0  0  0  0  0  0  0  0  0  0  0  0
   -3.2370   21.2260  -32.2350 C   0  0  0  0  0  0  0  0  0  0  0  0
   -3.2100   22.4130  -31.4890 C   0  0  0  0  0  0  0  0  0  0  0  0
   -4.4150   23.0290  -31.0930 C   0  0  0  0  0  0  0  0  0  0  0  0
   -4.3960   24.5770  -30.2540 S   0  0  0  0  0  0  0  0  0  0  0  0
   -4.8460   25.6580  -31.1960 O   0  0  0  0  0  0  0  0  0  0  0  0
   -5.3190   24.5370  -29.0660 O   0  0  0  0  0  0  0  0  0  0  0  0
   -2.7790   24.9180  -29.7150 N   0  0  0  0  0  0  0  0  0  0  0  0
   -2.6590   24.6690  -28.2800 C   0  0  0  0  0  0  0  0  0  0  0  0
   -2.3460   23.2170  -28.0560 C   0  0  0  0  0  0  0  0  0  0  0  0
   -3.3840   22.2870  -27.8920 C   0  0  0  0  0  0  0  0  0  0  0  0
   -3.0940   20.9340  -27.7000 C   0  0  0  0  0  0  0  0  0  0  0  0
   -1.7630   20.4880  -27.6700 C   0  0  0  0  0  0  0  0  0  0  0  0
   -1.4510   19.0550  -27.4610 C   0  0  0  0  0  0  0  0  0  0  0  0
   -2.1540   18.3830  -26.6550 O   0  0  0  0  0  0  0  0  0  0  0  0
   -0.3550   18.4160  -28.1450 N   0  0  0  0  0  0  0  0  0  0  0  0
    0.3860   17.3480  -27.4680 C   0  0  0  0  0  0  0  0  0  0  0  0
    1.5900   16.8950  -28.3100 C   0  0  0  0  0  0  0  0  0  0  0  0
    2.2460   18.0300  -28.9900 N   0  0  0  0  0  0  0  0  0  0  0  0
    2.9110   18.9330  -28.0340 C   0  0  0  0  0  0  0  0  0  0  0  0
    1.3410   18.7650  -29.9130 C   0  0  0  0  0  0  0  0  0  0  0  0
   -0.1570   18.6060  -29.5850 C   0  0  0  0  0  0  0  0  0  0  0  0
   -0.7280   21.4150  -27.8730 C   0  0  0  0  0  0  0  0  0  0  0  0
   -1.0170   22.7700  -28.0640 C   0  0  0  0  0  0  0  0  0  0  0  0
   -5.6480   22.4350  -31.4200 C   0  0  0  0  0  0  0  0  0  0  0  0
   -5.6470   21.2340  -32.1370 C   0  0  0  0  0  0  0  0  0  0  0  0
   -9.3542   19.2960  -31.2526 H   0  0  0  0  0  0  0  0  0  0  0  0
  -10.0541   19.8593  -32.8081 H   0  0  0  0  0  0  0  0  0  0  0  0
   -8.6839   18.6977  -32.8081 H   0  0  0  0  0  0  0  0  0  0  0  0
   -6.6603   18.4698  -33.1377 H   0  0  0  0  0  0  0  0  0  0  0  0
   -6.6374   19.5605  -34.5343 H   0  0  0  0  0  0  0  0  0  0  0  0
   -4.3461   18.5637  -32.9598 H   0  0  0  0  0  0  0  0  0  0  0  0
   -4.2619   19.5527  -34.4052 H   0  0  0  0  0  0  0  0  0  0  0  0
   -2.3021   20.7465  -32.5607 H   0  0  0  0  0  0  0  0  0  0  0  0
   -2.2461   22.8649  -31.2119 H   0  0  0  0  0  0  0  0  0  0  0  0
   -1.8498   25.2882  -27.8654 H   0  0  0  0  0  0  0  0  0  0  0  0
   -3.6046   24.9250  -27.7798 H   0  0  0  0  0  0  0  0  0  0  0  0
   -4.4306   22.6248  -27.9147 H   0  0  0  0  0  0  0  0  0  0  0  0
   -3.9145   20.2127  -27.5714 H   0  0  0  0  0  0  0  0  0  0  0  0
    0.7452   17.7190  -26.4967 H   0  0  0  0  0  0  0  0  0  0  0  0
   -0.2866   16.4891  -27.3270 H   0  0  0  0  0  0  0  0  0  0  0  0
    2.3212   16.4053  -27.6500 H   0  0  0  0  0  0  0  0  0  0  0  0
    1.2243   16.2013  -29.0814 H   0  0  0  0  0  0  0  0  0  0  0  0
    2.6775   18.6159  -27.0069 H   0  0  0  0  0  0  0  0  0  0  0  0
    3.9991   18.8960  -28.1907 H   0  0  0  0  0  0  0  0  0  0  0  0
    2.5527   19.9611  -28.1907 H   0  0  0  0  0  0  0  0  0  0  0  0
    1.5934   19.8346  -29.8653 H   0  0  0  0  0  0  0  0  0  0  0  0
    1.4936   18.3367  -30.9146 H   0  0  0  0  0  0  0  0  0  0  0  0
   -0.6951   19.5097  -29.9073 H   0  0  0  0  0  0  0  0  0  0  0  0
   -0.5431   17.7225  -30.1146 H   0  0  0  0  0  0  0  0  0  0  0  0
    0.3175   21.0730  -27.8819 H   0  0  0  0  0  0  0  0  0  0  0  0
   -0.1985   23.4879  -28.2211 H   0  0  0  0  0  0  0  0  0  0  0  0
   -6.5948   22.9062  -31.1175 H   0  0  0  0  0  0  0  0  0  0  0  0
  1  2  1  0
  2  3  2  0
  2  4  1  0
  4  5  1  0
  5  6  1  0
  6  7  1  0
  7  8  2  0
  8  9  1  0
  9 10  2  0
 10 11  1  0
 11 12  2  0
 11 13  2  0
 11 14  1  0
 14 15  1  0
 15 16  1  0
 16 17  2  0
 17 18  1  0
 18 19  2  0
 19 20  1  0
 20 21  2  0
 20 22  1  0
 22 23  1  0
 23 24  1  0
 24 25  1  0
 25 26  1  0
 25 27  1  0
 27 28  1  0
 19 29  1  0
 29 30  2  0
 10 31  1  0
 31 32  2  0
 32  4  1  0
 32  7  1  0
 30 16  1  0
 28 22  1  0
  1 33  1  0
  1 34  1  0
  1 35  1  0
  5 36  1  0
  5 37  1  0
  6 38  1  0
  6 39  1  0
  8 40  1  0
  9 41  1  0
 15 42  1  0
 15 43  1  0
 17 44  1  0
 18 45  1  0
 23 46  1  0
 23 47  1  0
 24 48  1  0
 24 49  1  0
 26 50  1  0
 26 51  1  0
 26 52  1  0
 27 53  1  0
 27 54  1  0
 28 55  1  0
 28 56  1  0
 29 57  1  0
 30 58  1  0
 31 59  1  0
M  CHG  1  14  -1
M  END
>  <UniqueID>  (34) 
31

>  <SMILES>  (34) 
CC(=O)N1CCc2ccc(S(=O)(=O)[N-]Cc3ccc(C(=O)N4CCN(C)CC4)cc3)cc21

>  <Energy>  (34) 
86.20173757421769

>  <Genealogy>  (34) 
CC(=O)N1CCc2ccc(S(=O)(=O)[N-]Cc3ccc(C(=O)N4CCN(C)CC4)cc3)cc21 (protonated)
CC(=O)N1CCc2ccc(S(=O)(=O)[N-]Cc3ccc(C(=O)N4CCN(C)CC4)cc3)cc21 (3D coordinates assigned)
CC(=O)N1CCc2ccc(S(=O)(=O)[N-]Cc3ccc(C(=O)N4CCN(C)CC4)cc3)cc21 (nonaromatic ring conformer: 86.20173757421769 kcal/mol)

>  <smiles>  (34) 
CC(=O)N1CCc2ccc(S(=O)(=O)NCc3ccc(C(=O)N4CCN(C)CC4)cc3)cc21

>  <score_type>  (34) 
oracle

>  <origin>  (34) 
adgpu

>  <m_score__min__energy>  (34) 
-11.699999999999999

>  <m_primary>  (34) 
energy

$$$$
34:0
     RDKit          3D

 37 39  0  0  0  0  0  0  0  0999 V2000
   -3.6190   26.0600  -31.1990 H   0  0  0  0  0  0  0  0  0  0  0  0
   -3.4850   25.2870  -30.5080 N   0  0  0  0  0  0  0  0  0  0  0  0
   -5.0580   24.7050  -30.0920 S   0  0  0  0  0  0  0  0  0  0  0  0
   -5.0820   24.3110  -28.6420 O   0  0  0  0  0  0  0  0  0  0  0  0
   -6.0680   25.7970  -30.3110 O   0  0  0  0  0  0  0  0  0  0  0  0
   -5.4550   23.3140  -31.0950 C   0  0  0  0  0  0  0  0  0  0  0  0
   -6.7860   23.0480  -31.4400 C   0  0  0  0  0  0  0  0  0  0  0  0
   -7.5882   23.7059  -31.0744 H   0  0  0  0  0  0  0  0  0  0  0  0
   -7.1000   21.9500  -32.2470 C   0  0  0  0  0  0  0  0  0  0  0  0
   -8.1467   21.7537  -32.5225 H   0  0  0  0  0  0  0  0  0  0  0  0
   -6.0810   21.0950  -32.7080 C   0  0  0  0  0  0  0  0  0  0  0  0
   -6.3530   19.9740  -33.5670 N   0  0  0  0  0  0  0  0  0  0  0  0
   -6.2250   18.7150  -33.2650 C   0  0  0  0  0  0  0  0  0  0  0  0
   -5.7320   18.2610  -32.0900 N   0  0  0  0  0  0  0  0  0  0  0  0
   -5.7710   16.9270  -32.2590 C   0  0  0  0  0  0  0  0  0  0  0  0
   -5.3590   16.0090  -31.2990 O   0  0  0  0  0  0  0  0  0  0  0  0
   -5.1910   15.0420  -31.5480 H   0  0  0  0  0  0  0  0  0  0  0  0
   -6.2690   16.6220  -33.5080 C   0  0  0  0  0  0  0  0  0  0  0  0
   -6.4790   15.2830  -34.0900 C   0  0  0  0  0  0  0  0  0  0  0  0
   -7.5230   15.0530  -34.7560 O   0  0  0  0  0  0  0  0  0  0  0  0
   -5.4910   14.2520  -33.9770 N   0  0  0  0  0  0  0  0  0  0  0  0
   -4.1070   14.4480  -33.6510 C   0  0  0  0  0  0  0  0  0  0  0  0
   -3.3000   15.1650  -34.5440 C   0  0  0  0  0  0  0  0  0  0  0  0
   -3.7344   15.5683  -35.4706 H   0  0  0  0  0  0  0  0  0  0  0  0
   -1.9450   15.3710  -34.2640 C   0  0  0  0  0  0  0  0  0  0  0  0
   -0.9490   16.2910  -35.3760 Cl  0  0  0  0  0  0  0  0  0  0  0  0
   -1.3850   14.8430  -33.0970 C   0  0  0  0  0  0  0  0  0  0  0  0
   -0.3221   15.0143  -32.8714 H   0  0  0  0  0  0  0  0  0  0  0  0
   -2.1740   14.0980  -32.2170 C   0  0  0  0  0  0  0  0  0  0  0  0
   -1.7289   13.6783  -31.3028 H   0  0  0  0  0  0  0  0  0  0  0  0
   -3.5290   13.8840  -32.4950 C   0  0  0  0  0  0  0  0  0  0  0  0
   -4.2820   13.0940  -31.6330 O   0  0  0  0  0  0  0  0  0  0  0  0
   -6.5400   17.7560  -34.1060 O   0  0  0  0  0  0  0  0  0  0  0  0
   -4.7490   21.3880  -32.3910 C   0  0  0  0  0  0  0  0  0  0  0  0
   -3.9424   20.7492  -32.7800 H   0  0  0  0  0  0  0  0  0  0  0  0
   -4.4360   22.4860  -31.5840 C   0  0  0  0  0  0  0  0  0  0  0  0
   -3.3869   22.7004  -31.3323 H   0  0  0  0  0  0  0  0  0  0  0  0
  1  2  1  0
  2  3  1  0
  3  4  2  0
  3  5  2  0
  3  6  1  0
  6  7  2  0
  7  8  1  0
  7  9  1  0
  9 10  1  0
  9 11  2  0
 11 12  1  0
 12 13  2  0
 13 14  1  0
 14 15  1  0
 15 16  1  0
 16 17  1  0
 15 18  2  0
 18 19  1  0
 19 20  2  0
 19 21  1  0
 21 22  1  0
 22 23  2  0
 23 24  1  0
 23 25  1  0
 25 26  1  0
 25 27  2  0
 27 28  1  0
 27 29  1  0
 29 30  1  0
 29 31  2  0
 31 32  1  0
 18 33  1  0
 11 34  1  0
 34 35  1  0
 34 36  2  0
 36 37  1  0
 36  6  1  0
 33 13  1  0
 31 22  1  0
M  CHG  4   2  -1  14  -1  21  -1  32  -1
M  END
>  <UniqueID>  (35) 
32

>  <SMILES>  (35) 
[NH-]S(=O)(=O)c1ccc(/N=c2\[n-]c(O)c(C(=O)[N-]c3cc(Cl)ccc3[O-])o2)cc1

>  <Energy>  (35) 
81.8898561515236

>  <Genealogy>  (35) 
[NH-]S(=O)(=O)c1ccc(N=c2[n-]c(O)c(C(=O)[N-]c3cc(Cl)ccc3[O-])o2)cc1 (protonated)
[NH-]S(=O)(=O)c1ccc(/N=c2\[n-]c(O)c(C(=O)[N-]c3cc(Cl)ccc3[O-])o2)cc1 (cis-trans isomerization)
[NH-]S(=O)(=O)c1ccc(/N=c2\[n-]c(O)c(C(=O)[N-]c3cc(Cl)ccc3[O-])o2)cc1 (3D coordinates assigned)
[NH-]S(=O)(=O)c1ccc(/N=c2\[n-]c(O)c(C(=O)[N-]c3cc(Cl)ccc3[O-])o2)cc1 (optimized conformer: 81.8898561515236 kcal/mol)

>  <smiles>  (35) 
NS(=O)(=O)c1ccc(N=c2[nH]c(O)c(C(=O)Nc3cc(Cl)ccc3O)o2)cc1

>  <score_type>  (35) 
oracle

>  <origin>  (35) 
adgpu

>  <m_score__min__energy>  (35) 
-12.25

>  <m_primary>  (35) 
energy

$$$$
35:0
     RDKit          3D

 47 49  0  0  0  0  0  0  0  0999 V2000
   -6.1030   17.1850  -31.6420 C   0  0  0  0  0  0  0  0  0  0  0  0
   -6.5160   17.3840  -33.0980 C   0  0  0  0  0  0  0  0  0  0  0  0
   -6.5530   18.8380  -33.4840 C   0  0  0  0  0  0  0  0  0  0  0  0
   -6.1010   19.1800  -34.6090 O   0  0  0  0  0  0  0  0  0  0  0  0
   -7.1380   19.8370  -32.6320 N   0  0  0  0  0  0  0  0  0  0  0  0
   -6.4940   20.9760  -32.0750 C   0  0  0  0  0  0  0  0  0  0  0  0
   -5.1490   21.3420  -32.1920 C   0  0  0  0  0  0  0  0  0  0  0  0
   -4.7210   22.5310  -31.5800 C   0  0  0  0  0  0  0  0  0  0  0  0
   -5.6370   23.3450  -30.8830 C   0  0  0  0  0  0  0  0  0  0  0  0
   -5.0760   24.8160  -30.0940 S   0  0  0  0  0  0  0  0  0  0  0  0
   -3.8670   25.3330  -30.8230 O   0  0  0  0  0  0  0  0  0  0  0  0
   -6.1470   25.8710  -30.1430 O   0  0  0  0  0  0  0  0  0  0  0  0
   -4.6520   24.4900  -28.4410 N   0  0  0  0  0  0  0  0  0  0  0  0
   -3.1940   24.4500  -28.3030 C   0  0  0  0  0  0  0  0  0  0  0  0
   -2.6690   23.1620  -28.8740 C   0  0  0  0  0  0  0  0  0  0  0  0
   -3.2240   21.9330  -28.4790 C   0  0  0  0  0  0  0  0  0  0  0  0
   -2.7580   20.7380  -29.0370 C   0  0  0  0  0  0  0  0  0  0  0  0
   -1.7440   20.7630  -30.0000 C   0  0  0  0  0  0  0  0  0  0  0  0
   -1.2940   19.6040  -30.5400 F   0  0  0  0  0  0  0  0  0  0  0  0
   -1.1990   21.9840  -30.4090 C   0  0  0  0  0  0  0  0  0  0  0  0
   -1.6620   23.1800  -29.8530 C   0  0  0  0  0  0  0  0  0  0  0  0
   -6.9900   22.9650  -30.8040 C   0  0  0  0  0  0  0  0  0  0  0  0
   -7.3880   21.7770  -31.4180 C   0  0  0  0  0  0  0  0  0  0  0  0
   -8.7640   21.2160  -31.5000 C   0  0  0  0  0  0  0  0  0  0  0  0
   -8.5790   19.9400  -32.3690 C   0  0  2  0  0  0  0  0  0  0  0  0
   -9.0870   18.6880  -31.6500 C   0  0  0  0  0  0  0  0  0  0  0  0
   -6.8950   17.5666  -30.9808 H   0  0  0  0  0  0  0  0  0  0  0  0
   -5.9481   16.1134  -31.4480 H   0  0  0  0  0  0  0  0  0  0  0  0
   -5.1683   17.7316  -31.4480 H   0  0  0  0  0  0  0  0  0  0  0  0
   -5.7946   16.8638  -33.7453 H   0  0  0  0  0  0  0  0  0  0  0  0
   -7.5301   16.9759  -33.2205 H   0  0  0  0  0  0  0  0  0  0  0  0
   -4.4419   20.7119  -32.7514 H   0  0  0  0  0  0  0  0  0  0  0  0
   -3.6642   22.8293  -31.6448 H   0  0  0  0  0  0  0  0  0  0  0  0
   -5.0100   25.2930  -27.8740 H   0  0  0  0  0  0  0  0  0  0  0  0
   -2.7514   25.2984  -28.8456 H   0  0  0  0  0  0  0  0  0  0  0  0
   -2.9257   24.5140  -27.2381 H   0  0  0  0  0  0  0  0  0  0  0  0
   -4.0277   21.9106  -27.7283 H   0  0  0  0  0  0  0  0  0  0  0  0
   -3.1894   19.7777  -28.7181 H   0  0  0  0  0  0  0  0  0  0  0  0
   -0.4046   22.0034  -31.1696 H   0  0  0  0  0  0  0  0  0  0  0  0
   -1.2361   24.1389  -30.1834 H   0  0  0  0  0  0  0  0  0  0  0  0
   -7.7187   23.5918  -30.2691 H   0  0  0  0  0  0  0  0  0  0  0  0
   -9.1454   20.9601  -30.5005 H   0  0  0  0  0  0  0  0  0  0  0  0
   -9.4926   21.9231  -31.9233 H   0  0  0  0  0  0  0  0  0  0  0  0
   -9.1603   20.0140  -33.3000 H   0  0  0  0  0  0  0  0  0  0  0  0
   -9.0255   18.8395  -30.5622 H   0  0  0  0  0  0  0  0  0  0  0  0
  -10.1325   18.5000  -31.9355 H   0  0  0  0  0  0  0  0  0  0  0  0
   -8.4680   17.8247  -31.9355 H   0  0  0  0  0  0  0  0  0  0  0  0
  1  2  1  0
  2  3  1  0
  3  4  2  0
  3  5  1  0
  5  6  1  0
  6  7  2  0
  7  8  1  0
  8  9  2  0
  9 10  1  0
 10 11  2  0
 10 12  2  0
 10 13  1  0
 13 14  1  0
 14 15  1  0
 15 16  2  0
 16 17  1  0
 17 18  2  0
 18 19  1  0
 18 20  1  0
 20 21  2  0
  9 22  1  0
 22 23  2  0
 23 24  1  0
 24 25  1  0
 25 26  1  0
 25  5  1  0
 23  6  1  0
 21 15  1  0
  1 27  1  0
  1 28  1  0
  1 29  1  0
  2 30  1  0
  2 31  1  0
  7 32  1  0
  8 33  1  0
 13 34  1  0
 14 35  1  0
 14 36  1  0
 16 37  1  0
 17 38  1  0
 20 39  1  0
 21 40  1  0
 22 41  1  0
 24 42  1  0
 24 43  1  0
 25 44  1  6
 26 45  1  0
 26 46  1  0
 26 47  1  0
M  END
>  <UniqueID>  (36) 
33

>  <SMILES>  (36) 
CCC(=O)N1c2ccc(S(=O)(=O)NCc3ccc(F)cc3)cc2C[C@@H]1C

>  <Energy>  (36) 
59.49545763223128

>  <Genealogy>  (36) 
CCC(=O)N1c2ccc(S(=O)(=O)NCc3ccc(F)cc3)cc2C[C@@H]1C (chirality)
CCC(=O)N1c2ccc(S(=O)(=O)NCc3ccc(F)cc3)cc2C[C@@H]1C (3D coordinates assigned)
CCC(=O)N1c2ccc(S(=O)(=O)NCc3ccc(F)cc3)cc2C[C@@H]1C (nonaromatic ring conformer: 59.49545763223128 kcal/mol)

>  <smiles>  (36) 
CCC(=O)N1c2ccc(S(=O)(=O)NCc3ccc(F)cc3)cc2CC1C

>  <score_type>  (36) 
oracle

>  <origin>  (36) 
adgpu

>  <m_score__min__energy>  (36) 
-10.619999999999999

>  <m_primary>  (36) 
energy

$$$$
36:0
     RDKit          3D

 46 50  0  0  0  0  0  0  0  0999 V2000
   -1.8910   22.0130  -31.6330 C   0  0  0  0  0  0  0  0  0  0  0  0
   -2.9550   22.9530  -31.7410 O   0  0  0  0  0  0  0  0  0  0  0  0
   -4.2940   22.6800  -31.4170 C   0  0  0  0  0  0  0  0  0  0  0  0
   -4.8840   21.4270  -31.6740 C   0  0  0  0  0  0  0  0  0  0  0  0
   -6.2250   21.1860  -31.3370 C   0  0  0  0  0  0  0  0  0  0  0  0
   -6.8140   19.8980  -31.5880 N   0  0  0  0  0  0  0  0  0  0  0  0
   -8.2770   19.7840  -31.6570 C   0  0  0  0  0  0  0  0  0  0  0  0
   -8.7130   18.3160  -31.6740 C   0  0  0  0  0  0  0  0  0  0  0  0
   -7.9930   17.6060  -32.6620 O   0  0  0  0  0  0  0  0  0  0  0  0
   -6.6460   17.4500  -32.2570 C   0  0  0  0  0  0  0  0  0  0  0  0
   -5.9970   18.7740  -31.9680 C   0  0  0  0  0  0  0  0  0  0  0  0
   -4.7400   18.8660  -31.9780 O   0  0  0  0  0  0  0  0  0  0  0  0
   -6.9780   22.2050  -30.7370 C   0  0  0  0  0  0  0  0  0  0  0  0
   -6.4010   23.4500  -30.4810 C   0  0  0  0  0  0  0  0  0  0  0  0
   -5.0640   23.6900  -30.8170 C   0  0  0  0  0  0  0  0  0  0  0  0
   -4.3440   25.2950  -30.4590 S   0  0  0  0  0  0  0  0  0  0  0  0
   -3.0530   24.5810  -29.4510 C   0  0  0  0  0  0  0  0  0  0  0  0
   -3.1940   23.3180  -28.9690 N   0  0  0  0  0  0  0  0  0  0  0  0
   -2.2140   22.7550  -28.2180 C   0  0  0  0  0  0  0  0  0  0  0  0
   -1.0310   23.4760  -27.9250 C   0  0  0  0  0  0  0  0  0  0  0  0
   -0.0210   22.8610  -27.1370 C   0  0  0  0  0  0  0  0  0  0  0  0
   -0.1870   21.5870  -26.6690 N   0  0  0  0  0  0  0  0  0  0  0  0
   -1.3280   20.9180  -26.9640 C   0  0  0  0  0  0  0  0  0  0  0  0
   -1.7040   19.6450  -26.6060 C   0  0  0  0  0  0  0  0  0  0  0  0
   -2.9620   19.4780  -27.1820 C   0  0  0  0  0  0  0  0  0  0  0  0
   -3.3390   20.5900  -27.8580 N   0  0  0  0  0  0  0  0  0  0  0  0
   -2.3280   21.4630  -27.7140 C   0  0  0  0  0  0  0  0  0  0  0  0
   -0.9190   24.7770  -28.4360 C   0  0  0  0  0  0  0  0  0  0  0  0
    0.1080   25.4740  -28.2130 O   0  0  0  0  0  0  0  0  0  0  0  0
   -1.9280   25.2950  -29.1840 N   0  0  0  0  0  0  0  0  0  0  0  0
   -1.6760   21.8230  -30.5711 H   0  0  0  0  0  0  0  0  0  0  0  0
   -2.1822   21.0718  -32.1222 H   0  0  0  0  0  0  0  0  0  0  0  0
   -0.9929   22.4180  -32.1222 H   0  0  0  0  0  0  0  0  0  0  0  0
   -4.2883   20.6301  -32.1431 H   0  0  0  0  0  0  0  0  0  0  0  0
   -8.7182   20.2801  -30.7800 H   0  0  0  0  0  0  0  0  0  0  0  0
   -8.6224   20.2629  -32.5851 H   0  0  0  0  0  0  0  0  0  0  0  0
   -8.5178   17.8672  -30.6889 H   0  0  0  0  0  0  0  0  0  0  0  0
   -9.7874   18.2625  -31.9038 H   0  0  0  0  0  0  0  0  0  0  0  0
   -6.6163   16.8321  -31.3475 H   0  0  0  0  0  0  0  0  0  0  0  0
   -6.0941   16.9689  -33.0779 H   0  0  0  0  0  0  0  0  0  0  0  0
   -8.0285   22.0226  -30.4667 H   0  0  0  0  0  0  0  0  0  0  0  0
   -6.9997   24.2455  -30.0133 H   0  0  0  0  0  0  0  0  0  0  0  0
    0.9006   23.4136  -26.9019 H   0  0  0  0  0  0  0  0  0  0  0  0
   -1.1388   18.9209  -26.0008 H   0  0  0  0  0  0  0  0  0  0  0  0
   -3.5686   18.5642  -27.0988 H   0  0  0  0  0  0  0  0  0  0  0  0
   -4.2320   20.7340  -28.3820 H   0  0  0  0  0  0  0  0  0  0  0  0
  1  2  1  0
  2  3  1  0
  3  4  2  0
  4  5  1  0
  5  6  1  0
  6  7  1  0
  7  8  1  0
  8  9  1  0
  9 10  1  0
 10 11  1  0
 11 12  2  0
  5 13  2  0
 13 14  1  0
 14 15  2  0
 15 16  1  0
 16 17  1  0
 17 18  2  0
 18 19  1  0
 19 20  2  0
 20 21  1  0
 21 22  2  0
 22 23  1  0
 23 24  1  0
 24 25  2  0
 25 26  1  0
 26 27  1  0
 20 28  1  0
 28 29  2  0
 28 30  1  0
 15  3  1  0
 30 17  1  0
 11  6  1  0
 27 19  1  0
 27 23  2  0
  1 31  1  0
  1 32  1  0
  1 33  1  0
  4 34  1  0
  7 35  1  0
  7 36  1  0
  8 37  1  0
  8 38  1  0
 10 39  1  0
 10 40  1  0
 13 41  1  0
 14 42  1  0
 21 43  1  0
 24 44  1  0
 25 45  1  0
 26 46  1  0
M  CHG  1  30  -1
M  END
>  <UniqueID>  (37) 
34

>  <SMILES>  (37) 
COc1cc(N2CCOCC2=O)ccc1Sc1nc2c(cnc3cc[nH]c32)c(=O)[n-]1

>  <Energy>  (37) 
95.27431270246691

>  <Genealogy>  (37) 
COc1cc(N2CCOCC2=O)ccc1Sc1nc2c(cnc3cc[nH]c32)c(=O)[n-]1 (protonated)
COc1cc(N2CCOCC2=O)ccc1Sc1nc2c(cnc3cc[nH]c32)c(=O)[n-]1 (3D coordinates assigned)
COc1cc(N2CCOCC2=O)ccc1Sc1nc2c(cnc3cc[nH]c32)c(=O)[n-]1 (nonaromatic ring conformer: 95.27431270246691 kcal/mol)

>  <smiles>  (37) 
COc1cc(N2CCOCC2=O)ccc1Sc1nc2c(cnc3cc[nH]c32)c(=O)[nH]1

>  <score_type>  (37) 
oracle

>  <origin>  (37) 
adgpu

>  <m_score__min__energy>  (37) 
-9.5600000000000005

>  <m_primary>  (37) 
energy

$$$$
37:0
     RDKit          3D

 61 65  0  0  0  0  0  0  0  0999 V2000
   -3.1840   22.6640  -31.6740 C   0  0  0  0  0  0  0  0  0  0  0  0
   -4.6820   22.6950  -31.6750 C   0  0  0  0  0  0  0  0  0  0  0  0
   -5.5380   23.6860  -31.1690 C   0  0  0  0  0  0  0  0  0  0  0  0
   -5.1700   24.9710  -30.5440 C   0  0  0  0  0  0  0  0  0  0  0  0
   -6.0750   25.8120  -30.2880 O   0  0  0  0  0  0  0  0  0  0  0  0
   -3.8130   25.3030  -30.2440 N   0  0  0  0  0  0  0  0  0  0  0  0
   -2.9770   24.5630  -29.3440 C   0  0  0  0  0  0  0  0  0  0  0  0
   -3.5780   23.6770  -28.4430 C   0  0  0  0  0  0  0  0  0  0  0  0
   -2.7970   22.9470  -27.5430 C   0  0  0  0  0  0  0  0  0  0  0  0
   -1.4020   23.0880  -27.5390 C   0  0  0  0  0  0  0  0  0  0  0  0
   -0.4170   22.1620  -26.4050 S   0  0  0  0  0  0  0  0  0  0  0  0
    1.0140   22.6070  -26.5200 O   0  0  0  0  0  0  0  0  0  0  0  0
   -0.8790   22.4480  -25.0020 O   0  0  0  0  0  0  0  0  0  0  0  0
   -0.5090   20.4370  -26.7050 N   0  0  0  0  0  0  0  0  0  0  0  0
   -0.4140   20.1450  -28.1370 C   0  0  0  0  0  0  0  0  0  0  0  0
   -1.8190   19.9460  -28.6800 C   0  0  0  0  0  0  0  0  0  0  0  0
   -2.7070   19.7630  -27.4660 C   0  0  0  0  0  0  0  0  0  0  0  0
   -1.7910   19.8870  -26.2570 C   0  0  0  0  0  0  0  0  0  0  0  0
   -0.7980   23.9770  -28.4370 C   0  0  0  0  0  0  0  0  0  0  0  0
   -1.5780   24.7120  -29.3350 C   0  0  0  0  0  0  0  0  0  0  0  0
   -6.7980   23.3190  -31.3300 O   0  0  0  0  0  0  0  0  0  0  0  0
   -6.8070   22.1410  -31.9030 C   0  0  0  0  0  0  0  0  0  0  0  0
   -7.9180   21.3780  -32.2550 C   0  0  0  0  0  0  0  0  0  0  0  0
   -7.6910   20.1240  -32.8520 C   0  0  0  0  0  0  0  0  0  0  0  0
   -6.3720   19.6580  -33.0840 C   0  0  0  0  0  0  0  0  0  0  0  0
   -6.1060   18.0740  -33.8170 S   0  0  0  0  0  0  0  0  0  0  0  0
   -6.0830   18.1840  -35.3140 O   0  0  0  0  0  0  0  0  0  0  0  0
   -7.2350   17.1580  -33.4390 O   0  0  0  0  0  0  0  0  0  0  0  0
   -4.6370   17.3700  -33.2230 N   0  0  0  0  0  0  0  0  0  0  0  0
   -3.2960   17.6650  -33.6360 C   0  0  0  0  0  0  0  0  0  0  0  0
   -2.3520   16.6700  -33.9480 C   0  0  0  0  0  0  0  0  0  0  0  0
   -1.0700   17.0230  -34.3840 C   0  0  0  0  0  0  0  0  0  0  0  0
   -0.7190   18.3620  -34.5140 C   0  0  0  0  0  0  0  0  0  0  0  0
   -1.6400   19.3610  -34.1910 C   0  0  0  0  0  0  0  0  0  0  0  0
   -1.2730   20.6990  -34.3200 O   0  0  0  0  0  0  0  0  0  0  0  0
   -2.9220   19.0110  -33.7460 C   0  0  0  0  0  0  0  0  0  0  0  0
   -5.2730   20.4610  -32.7150 C   0  0  0  0  0  0  0  0  0  0  0  0
   -5.5300   21.7040  -32.1320 C   0  0  0  0  0  0  0  0  0  0  0  0
   -2.8181   22.6564  -30.6367 H   0  0  0  0  0  0  0  0  0  0  0  0
   -2.8356   21.7585  -32.1923 H   0  0  0  0  0  0  0  0  0  0  0  0
   -2.7985   23.5544  -32.1923 H   0  0  0  0  0  0  0  0  0  0  0  0
   -4.6712   23.5545  -28.4431 H   0  0  0  0  0  0  0  0  0  0  0  0
   -3.2792   22.2581  -26.8339 H   0  0  0  0  0  0  0  0  0  0  0  0
    0.0694   20.9856  -28.6563 H   0  0  0  0  0  0  0  0  0  0  0  0
    0.1858   19.2372  -28.2987 H   0  0  0  0  0  0  0  0  0  0  0  0
   -2.1354   20.8275  -29.2570 H   0  0  0  0  0  0  0  0  0  0  0  0
   -1.8735   19.0803  -29.3564 H   0  0  0  0  0  0  0  0  0  0  0  0
   -3.4836   20.5415  -27.4391 H   0  0  0  0  0  0  0  0  0  0  0  0
   -3.2217   18.7910  -27.4848 H   0  0  0  0  0  0  0  0  0  0  0  0
   -2.2448   20.5594  -25.5140 H   0  0  0  0  0  0  0  0  0  0  0  0
   -1.6390   18.9007  -25.7942 H   0  0  0  0  0  0  0  0  0  0  0  0
    0.2954   24.0976  -28.4358 H   0  0  0  0  0  0  0  0  0  0  0  0
   -1.0963   25.4089  -30.0366 H   0  0  0  0  0  0  0  0  0  0  0  0
   -8.9392   21.7437  -32.0723 H   0  0  0  0  0  0  0  0  0  0  0  0
   -8.5473   19.4976  -33.1423 H   0  0  0  0  0  0  0  0  0  0  0  0
   -2.6230   15.6085  -33.8487 H   0  0  0  0  0  0  0  0  0  0  0  0
   -0.3375   16.2385  -34.6247 H   0  0  0  0  0  0  0  0  0  0  0  0
    0.2849   18.6348  -34.8715 H   0  0  0  0  0  0  0  0  0  0  0  0
   -1.9140   21.3920  -34.6860 H   0  0  0  0  0  0  0  0  0  0  0  0
   -3.6411   19.8000  -33.4807 H   0  0  0  0  0  0  0  0  0  0  0  0
   -4.2413   20.1178  -32.8818 H   0  0  0  0  0  0  0  0  0  0  0  0
  1  2  1  0
  2  3  2  0
  3  4  1  0
  4  5  2  0
  4  6  1  0
  6  7  1  0
  7  8  2  0
  8  9  1  0
  9 10  2  0
 10 11  1  0
 11 12  2  0
 11 13  2  0
 11 14  1  0
 14 15  1  0
 15 16  1  0
 16 17  1  0
 17 18  1  0
 10 19  1  0
 19 20  2  0
  3 21  1  0
 21 22  1  0
 22 23  2  0
 23 24  1  0
 24 25  2  0
 25 26  1  0
 26 27  2  0
 26 28  2  0
 26 29  1  0
 29 30  1  0
 30 31  2  0
 31 32  1  0
 32 33  2  0
 33 34  1  0
 34 35  1  0
 34 36  2  0
 25 37  1  0
 37 38  2  0
 38  2  1  0
 20  7  1  0
 38 22  1  0
 18 14  1  0
 36 30  1  0
  1 39  1  0
  1 40  1  0
  1 41  1  0
  8 42  1  0
  9 43  1  0
 15 44  1  0
 15 45  1  0
 16 46  1  0
 16 47  1  0
 17 48  1  0
 17 49  1  0
 18 50  1  0
 18 51  1  0
 19 52  1  0
 20 53  1  0
 23 54  1  0
 24 55  1  0
 31 56  1  0
 32 57  1  0
 33 58  1  0
 35 59  1  0
 36 60  1  0
 37 61  1  0
M  CHG  2   6  -1  29  -1
M  END
>  <UniqueID>  (38) 
35

>  <SMILES>  (38) 
Cc1c(C(=O)[N-]c2ccc(S(=O)(=O)N3CCCC3)cc2)oc2ccc(S(=O)(=O)[N-]c3cccc(O)c3)cc12

>  <Energy>  (38) 
113.04382407810813

>  <Genealogy>  (38) 
Cc1c(C(=O)[N-]c2ccc(S(=O)(=O)N3CCCC3)cc2)oc2ccc(S(=O)(=O)[N-]c3cccc(O)c3)cc12 (protonated)
Cc1c(C(=O)[N-]c2ccc(S(=O)(=O)N3CCCC3)cc2)oc2ccc(S(=O)(=O)[N-]c3cccc(O)c3)cc12 (3D coordinates assigned)
Cc1c(C(=O)[N-]c2ccc(S(=O)(=O)N3CCCC3)cc2)oc2ccc(S(=O)(=O)[N-]c3cccc(O)c3)cc12 (nonaromatic ring conformer: 113.04382407810813 kcal/mol)

>  <smiles>  (38) 
Cc1c(C(=O)Nc2ccc(S(=O)(=O)N3CCCC3)cc2)oc2ccc(S(=O)(=O)Nc3cccc(O)c3)cc12

>  <score_type>  (38) 
oracle

>  <origin>  (38) 
adgpu

>  <m_score__min__energy>  (38) 
-12.15

>  <m_primary>  (38) 
energy

$$$$
38:0
     RDKit          3D

 62 65  0  0  0  0  0  0  0  0999 V2000
   -6.0210   25.3400  -29.5150 C   0  0  0  0  0  0  0  0  0  0  0  0
   -5.0810   25.0210  -30.6410 C   0  0  0  0  0  0  0  0  0  0  0  0
   -3.8610   25.3230  -30.5200 O   0  0  0  0  0  0  0  0  0  0  0  0
   -5.5140   24.3490  -31.8360 N   0  0  0  0  0  0  0  0  0  0  0  0
   -6.3660   23.1950  -31.9230 C   0  0  0  0  0  0  0  0  0  0  0  0
   -7.7190   23.3300  -31.5890 C   0  0  0  0  0  0  0  0  0  0  0  0
   -8.5690   22.2190  -31.6180 C   0  0  0  0  0  0  0  0  0  0  0  0
   -8.0680   20.9630  -31.9700 C   0  0  0  0  0  0  0  0  0  0  0  0
   -6.7150   20.8020  -32.2890 C   0  0  0  0  0  0  0  0  0  0  0  0
   -6.2580   19.5180  -32.6350 O   0  0  0  0  0  0  0  0  0  0  0  0
   -5.7020   19.1660  -33.9050 C   0  0  0  0  0  0  0  0  0  0  0  0
   -4.8520   17.9130  -33.8430 C   0  0  0  0  0  0  0  0  0  0  0  0
   -3.7380   17.7740  -34.6940 C   0  0  0  0  0  0  0  0  0  0  0  0
   -2.9170   16.6390  -34.6310 C   0  0  0  0  0  0  0  0  0  0  0  0
   -1.6710   16.5460  -35.4810 C   0  0  0  0  0  0  0  0  0  0  0  0
   -0.5720   17.2980  -34.8750 N   0  0  0  0  0  0  0  0  0  0  0  0
   -0.6080   18.6940  -34.5380 C   0  0  0  0  0  0  0  0  0  0  0  0
   -0.3670   19.5550  -35.4310 O   0  0  0  0  0  0  0  0  0  0  0  0
   -0.8870   19.1430  -33.1680 C   0  0  0  0  0  0  0  0  0  0  0  0
   -0.2690   18.3970  -31.7870 S   0  0  0  0  0  0  0  0  0  0  0  0
   -0.8600   19.5600  -30.7360 C   0  0  0  0  0  0  0  0  0  0  0  0
   -0.6740   19.5770  -29.3950 N   0  0  0  0  0  0  0  0  0  0  0  0
   -1.1840   20.5950  -28.6490 C   0  0  0  0  0  0  0  0  0  0  0  0
   -0.9810   20.6020  -27.1670 C   0  0  0  0  0  0  0  0  0  0  0  0
   -1.9380   21.6120  -29.2670 C   0  0  0  0  0  0  0  0  0  0  0  0
   -2.1530   21.5970  -30.6630 C   0  0  0  0  0  0  0  0  0  0  0  0
   -2.9980   22.6810  -31.2710 C   0  0  0  0  0  0  0  0  0  0  0  0
   -1.5560   20.5560  -31.4170 C   0  0  0  0  0  0  0  0  0  0  0  0
   -1.5530   20.3250  -32.8180 C   0  0  0  0  0  0  0  0  0  0  0  0
   -2.0320   21.2420  -33.8100 N   0  0  0  0  0  0  0  0  0  0  0  0
   -3.2310   15.6140  -33.7320 C   0  0  0  0  0  0  0  0  0  0  0  0
   -4.3240   15.7360  -32.8630 C   0  0  0  0  0  0  0  0  0  0  0  0
   -4.6290   14.6390  -31.8810 C   0  0  0  0  0  0  0  0  0  0  0  0
   -5.1210   16.8960  -32.8950 C   0  0  0  0  0  0  0  0  0  0  0  0
   -6.1600   17.0140  -31.9680 O   0  0  0  0  0  0  0  0  0  0  0  0
   -5.8600   21.9230  -32.2470 C   0  0  0  0  0  0  0  0  0  0  0  0
   -5.5139   25.1679  -28.5541 H   0  0  0  0  0  0  0  0  0  0  0  0
   -6.3303   26.3934  -29.5829 H   0  0  0  0  0  0  0  0  0  0  0  0
   -6.9076   24.6924  -29.5829 H   0  0  0  0  0  0  0  0  0  0  0  0
   -8.1159   24.3150  -31.3022 H   0  0  0  0  0  0  0  0  0  0  0  0
   -9.6329   22.3344  -31.3634 H   0  0  0  0  0  0  0  0  0  0  0  0
   -8.7422   20.0942  -31.9966 H   0  0  0  0  0  0  0  0  0  0  0  0
   -6.5249   18.9984  -34.6154 H   0  0  0  0  0  0  0  0  0  0  0  0
   -5.0518   19.9937  -34.2245 H   0  0  0  0  0  0  0  0  0  0  0  0
   -3.5085   18.5684  -35.4194 H   0  0  0  0  0  0  0  0  0  0  0  0
   -1.3768   15.4903  -35.5755 H   0  0  0  0  0  0  0  0  0  0  0  0
   -1.8869   16.9732  -36.4714 H   0  0  0  0  0  0  0  0  0  0  0  0
   -1.9581   20.5683  -26.6629 H   0  0  0  0  0  0  0  0  0  0  0  0
   -0.3869   19.7238  -26.8741 H   0  0  0  0  0  0  0  0  0  0  0  0
   -0.4488   21.5190  -26.8741 H   0  0  0  0  0  0  0  0  0  0  0  0
   -2.3624   22.4237  -28.6579 H   0  0  0  0  0  0  0  0  0  0  0  0
   -3.4621   23.2764  -30.4709 H   0  0  0  0  0  0  0  0  0  0  0  0
   -2.3668   23.3322  -31.8936 H   0  0  0  0  0  0  0  0  0  0  0  0
   -3.7835   22.2278  -31.8936 H   0  0  0  0  0  0  0  0  0  0  0  0
   -1.6710   21.1960  -34.7890 H   0  0  0  0  0  0  0  0  0  0  0  0
   -2.5620   22.1010  -33.5530 H   0  0  0  0  0  0  0  0  0  0  0  0
   -2.6142   14.7036  -33.7069 H   0  0  0  0  0  0  0  0  0  0  0  0
   -4.5219   15.0241  -30.8562 H   0  0  0  0  0  0  0  0  0  0  0  0
   -5.6594   14.2858  -32.0342 H   0  0  0  0  0  0  0  0  0  0  0  0
   -3.9288   13.8046  -32.0342 H   0  0  0  0  0  0  0  0  0  0  0  0
   -6.5720   17.8940  -31.6880 H   0  0  0  0  0  0  0  0  0  0  0  0
   -4.7895   21.8017  -32.4693 H   0  0  0  0  0  0  0  0  0  0  0  0
  1  2  1  0
  2  3  2  0
  2  4  1  0
  4  5  1  0
  5  6  2  0
  6  7  1  0
  7  8  2  0
  8  9  1  0
  9 10  1  0
 10 11  1  0
 11 12  1  0
 12 13  2  0
 13 14  1  0
 14 15  1  0
 15 16  1  0
 16 17  1  0
 17 18  2  0
 17 19  1  0
 19 20  1  0
 20 21  1  0
 21 22  2  0
 22 23  1  0
 23 24  1  0
 23 25  2  0
 25 26  1  0
 26 27  1  0
 26 28  2  0
 28 29  1  0
 29 30  1  0
 14 31  2  0
 31 32  1  0
 32 33  1  0
 32 34  2  0
 34 35  1  0
  9 36  2  0
 36  5  1  0
 34 12  1  0
 29 19  2  0
 28 21  1  0
  1 37  1  0
  1 38  1  0
  1 39  1  0
  6 40  1  0
  7 41  1  0
  8 42  1  0
 11 43  1  0
 11 44  1  0
 13 45  1  0
 15 46  1  0
 15 47  1  0
 24 48  1  0
 24 49  1  0
 24 50  1  0
 25 51  1  0
 27 52  1  0
 27 53  1  0
 27 54  1  0
 30 55  1  0
 30 56  1  0
 31 57  1  0
 33 58  1  0
 33 59  1  0
 33 60  1  0
 35 61  1  0
 36 62  1  0
M  CHG  2   4  -1  16  -1
M  END
>  <UniqueID>  (39) 
36

>  <SMILES>  (39) 
CC(=O)[N-]c1cccc(OCc2cc(C[N-]C(=O)c3sc4nc(C)cc(C)c4c3N)cc(C)c2O)c1

>  <Energy>  (39) 
105.83740446468582

>  <Genealogy>  (39) 
CC(=O)[N-]c1cccc(OCc2cc(C[N-]C(=O)c3sc4nc(C)cc(C)c4c3N)cc(C)c2O)c1 (protonated)
CC(=O)[N-]c1cccc(OCc2cc(C[N-]C(=O)c3sc4nc(C)cc(C)c4c3N)cc(C)c2O)c1 (3D coordinates assigned)
CC(=O)[N-]c1cccc(OCc2cc(C[N-]C(=O)c3sc4nc(C)cc(C)c4c3N)cc(C)c2O)c1 (optimized conformer: 105.83740446468582 kcal/mol)

>  <smiles>  (39) 
CC(=O)Nc1cccc(OCc2cc(CNC(=O)c3sc4nc(C)cc(C)c4c3N)cc(C)c2O)c1

>  <score_type>  (39) 
oracle

>  <origin>  (39) 
adgpu

>  <m_score__min__energy>  (39) 
-11.41

>  <m_primary>  (39) 
energy

$$$$
39:0
     RDKit          3D

 52 55  0  0  0  0  0  0  0  0999 V2000
   -6.3280   25.6030  -29.7530 C   0  0  0  0  0  0  0  0  0  0  0  0
   -6.7820   24.1450  -29.7370 C   0  0  0  0  0  0  0  0  0  0  0  0
   -7.3160   23.6780  -31.1000 C   0  0  0  0  0  0  0  0  0  0  0  0
   -7.0860   22.1960  -31.3400 C   0  0  0  0  0  0  0  0  0  0  0  0
   -8.2080   21.3460  -31.3190 C   0  0  0  0  0  0  0  0  0  0  0  0
   -8.0760   19.9770  -31.5460 C   0  0  0  0  0  0  0  0  0  0  0  0
   -6.8180   19.4300  -31.7880 C   0  0  0  0  0  0  0  0  0  0  0  0
   -5.6890   20.2470  -31.7910 C   0  0  0  0  0  0  0  0  0  0  0  0
   -5.7990   21.6300  -31.5640 C   0  0  0  0  0  0  0  0  0  0  0  0
   -4.3110   22.5940  -31.5190 S   0  0  0  0  0  0  0  0  0  0  0  0
   -3.4310   22.2550  -32.6890 O   0  0  0  0  0  0  0  0  0  0  0  0
   -4.6720   24.0500  -31.5930 O   0  0  0  0  0  0  0  0  0  0  0  0
   -3.4380   22.2650  -30.0560 N   0  0  0  0  0  0  0  0  0  0  0  0
   -3.2930   21.0640  -29.4470 C   0  0  0  0  0  0  0  0  0  0  0  0
   -2.5510   21.1270  -28.3110 N   0  0  0  0  0  0  0  0  0  0  0  0
   -2.2280   22.4330  -28.2320 C   0  0  0  0  0  0  0  0  0  0  0  0
   -1.4650   23.0590  -27.2510 C   0  0  0  0  0  0  0  0  0  0  0  0
   -1.2340   24.4500  -27.3710 C   0  0  0  0  0  0  0  0  0  0  0  0
   -0.4650   25.1480  -26.3730 N   0  0  0  0  0  0  0  0  0  0  0  0
    0.8280   24.6120  -25.9280 C   0  0  0  0  0  0  0  0  0  0  0  0
    1.2320   25.2230  -24.5780 C   0  0  0  0  0  0  0  0  0  0  0  0
    0.0460   25.3960  -23.7250 N   0  0  0  0  0  0  0  0  0  0  0  0
   -0.9030   26.3870  -24.2740 C   0  0  0  0  0  0  0  0  0  0  0  0
   -0.9260   26.4250  -25.8160 C   0  0  0  0  0  0  0  0  0  0  0  0
   -1.7910   25.1580  -28.4710 C   0  0  0  0  0  0  0  0  0  0  0  0
   -2.5570   24.4910  -29.4430 C   0  0  0  0  0  0  0  0  0  0  0  0
   -2.7560   23.1220  -29.2830 C   0  0  0  0  0  0  0  0  0  0  0  0
   -6.2158   25.9634  -28.7198 H   0  0  0  0  0  0  0  0  0  0  0  0
   -5.3631   25.6809  -30.2754 H   0  0  0  0  0  0  0  0  0  0  0  0
   -7.0781   26.2149  -30.2754 H   0  0  0  0  0  0  0  0  0  0  0  0
   -5.9263   23.5125  -29.4583 H   0  0  0  0  0  0  0  0  0  0  0  0
   -7.6032   24.0595  -29.0101 H   0  0  0  0  0  0  0  0  0  0  0  0
   -8.3968   23.8783  -31.1425 H   0  0  0  0  0  0  0  0  0  0  0  0
   -6.7703   24.2306  -31.8790 H   0  0  0  0  0  0  0  0  0  0  0  0
   -9.2040   21.7686  -31.1204 H   0  0  0  0  0  0  0  0  0  0  0  0
   -8.9648   19.3290  -31.5340 H   0  0  0  0  0  0  0  0  0  0  0  0
   -6.7155   18.3512  -31.9771 H   0  0  0  0  0  0  0  0  0  0  0  0
   -4.6988   19.8039  -31.9734 H   0  0  0  0  0  0  0  0  0  0  0  0
   -3.7316   20.1321  -29.8332 H   0  0  0  0  0  0  0  0  0  0  0  0
   -1.0528   22.4884  -26.4057 H   0  0  0  0  0  0  0  0  0  0  0  0
    0.7490   23.5200  -25.8212 H   0  0  0  0  0  0  0  0  0  0  0  0
    1.5934   24.8674  -26.6756 H   0  0  0  0  0  0  0  0  0  0  0  0
    1.9468   24.5546  -24.0757 H   0  0  0  0  0  0  0  0  0  0  0  0
    1.6959   26.2050  -24.7522 H   0  0  0  0  0  0  0  0  0  0  0  0
   -0.4360   24.4730  -23.6150 H   0  0  0  0  0  0  0  0  0  0  0  0
    0.3560   25.7100  -22.7760 H   0  0  0  0  0  0  0  0  0  0  0  0
   -1.9130   26.1379  -23.9163 H   0  0  0  0  0  0  0  0  0  0  0  0
   -0.5725   27.3781  -23.9298 H   0  0  0  0  0  0  0  0  0  0  0  0
   -1.9538   26.6178  -26.1572 H   0  0  0  0  0  0  0  0  0  0  0  0
   -0.2534   27.2245  -26.1602 H   0  0  0  0  0  0  0  0  0  0  0  0
   -1.6205   26.2408  -28.5626 H   0  0  0  0  0  0  0  0  0  0  0  0
   -2.9844   25.0318  -30.3003 H   0  0  0  0  0  0  0  0  0  0  0  0
  1  2  1  0
  2  3  1  0
  3  4  1  0
  4  5  2  0
  5  6  1  0
  6  7  2  0
  7  8  1  0
  8  9  2  0
  9 10  1  0
 10 11  2  0
 10 12  2  0
 10 13  1  0
 13 14  1  0
 14 15  2  0
 15 16  1  0
 16 17  2  0
 17 18  1  0
 18 19  1  0
 19 20  1  0
 20 21  1  0
 21 22  1  0
 22 23  1  0
 23 24  1  0
 18 25  2  0
 25 26  1  0
 26 27  2  0
  9  4  1  0
 27 13  1  0
 27 16  1  0
 24 19  1  0
  1 28  1  0
  1 29  1  0
  1 30  1  0
  2 31  1  0
  2 32  1  0
  3 33  1  0
  3 34  1  0
  5 35  1  0
  6 36  1  0
  7 37  1  0
  8 38  1  0
 14 39  1  0
 17 40  1  0
 20 41  1  0
 20 42  1  0
 21 43  1  0
 21 44  1  0
 22 45  1  0
 22 46  1  0
 23 47  1  0
 23 48  1  0
 24 49  1  0
 24 50  1  0
 25 51  1  0
 26 52  1  0
M  CHG  1  22   1
M  END
>  <UniqueID>  (40) 
37

>  <SMILES>  (40) 
CCCc1ccccc1S(=O)(=O)n1cnc2cc(N3CC[NH2+]CC3)ccc21

>  <Energy>  (40) 
101.08177168261606

>  <Genealogy>  (40) 
CCCc1ccccc1S(=O)(=O)n1cnc2cc(N3CC[NH2+]CC3)ccc21 (protonated)
CCCc1ccccc1S(=O)(=O)n1cnc2cc(N3CC[NH2+]CC3)ccc21 (3D coordinates assigned)
CCCc1ccccc1S(=O)(=O)n1cnc2cc(N3CC[NH2+]CC3)ccc21 (nonaromatic ring conformer: 101.08177168261606 kcal/mol)

>  <smiles>  (40) 
CCCc1ccccc1S(=O)(=O)n1cnc2cc(N3CCNCC3)ccc21

>  <score_type>  (40) 
oracle

>  <origin>  (40) 
adgpu

>  <m_score__min__energy>  (40) 
-9.3900000000000006

>  <m_primary>  (40) 
energy

$$$$
40:0
     RDKit          3D

 46 49  0  0  0  0  0  0  0  0999 V2000
   -4.3120   24.1720  -28.8020 C   0  0  0  0  0  0  0  0  0  0  0  0
   -4.2620   24.2490  -30.2950 C   0  0  0  0  0  0  0  0  0  0  0  0
   -3.9470   25.3410  -30.8380 O   0  0  0  0  0  0  0  0  0  0  0  0
   -4.6150   23.1240  -31.1180 N   0  0  0  0  0  0  0  0  0  0  0  0
   -3.7840   22.0280  -31.4820 C   0  0  0  0  0  0  0  0  0  0  0  0
   -2.4540   21.7960  -31.1100 C   0  0  0  0  0  0  0  0  0  0  0  0
   -1.8000   20.6650  -31.6230 C   0  0  0  0  0  0  0  0  0  0  0  0
   -2.4630   19.8010  -32.5170 C   0  0  0  0  0  0  0  0  0  0  0  0
   -1.6160   18.4070  -33.1800 S   0  0  0  0  0  0  0  0  0  0  0  0
   -2.5470   17.2350  -33.3190 O   0  0  0  0  0  0  0  0  0  0  0  0
   -0.4980   18.0350  -32.2480 O   0  0  0  0  0  0  0  0  0  0  0  0
   -0.9570   18.7980  -34.7380 N   0  0  0  0  0  0  0  0  0  0  0  0
    0.0370   19.8130  -34.9560 C   0  0  0  0  0  0  0  0  0  0  0  0
    1.4250   19.5230  -34.9000 C   0  0  0  0  0  0  0  0  0  0  0  0
    2.3780   20.5290  -35.1220 C   0  0  0  0  0  0  0  0  0  0  0  0
    1.9240   21.8140  -35.3950 C   0  0  0  0  0  0  0  0  0  0  0  0
    2.8200   23.2020  -35.6890 S   0  0  0  0  0  0  0  0  0  0  0  0
    1.4240   24.1410  -35.8900 C   0  0  0  0  0  0  0  0  0  0  0  0
    1.4260   25.6100  -36.1350 C   0  0  0  0  0  0  0  0  0  0  0  0
    0.2890   23.4200  -35.7170 N   0  0  0  0  0  0  0  0  0  0  0  0
    0.5760   22.1210  -35.4480 C   0  0  0  0  0  0  0  0  0  0  0  0
   -0.3830   21.1320  -35.2270 C   0  0  0  0  0  0  0  0  0  0  0  0
   -3.7900   20.0720  -32.8960 C   0  0  0  0  0  0  0  0  0  0  0  0
   -4.4210   21.1970  -32.3650 C   0  0  0  0  0  0  0  0  0  0  0  0
   -5.7840   21.7020  -32.6790 C   0  0  0  0  0  0  0  0  0  0  0  0
   -5.8760   23.0230  -31.8650 C   0  0  1  0  0  0  0  0  0  0  0  0
   -7.0720   23.0140  -30.9090 C   0  0  0  0  0  0  0  0  0  0  0  0
   -3.7605   25.0213  -28.3724 H   0  0  0  0  0  0  0  0  0  0  0  0
   -5.3594   24.2082  -28.4678 H   0  0  0  0  0  0  0  0  0  0  0  0
   -3.8529   23.2299  -28.4678 H   0  0  0  0  0  0  0  0  0  0  0  0
   -1.9327   22.4858  -30.4299 H   0  0  0  0  0  0  0  0  0  0  0  0
   -0.7628   20.4517  -31.3251 H   0  0  0  0  0  0  0  0  0  0  0  0
   -1.2450   18.1890  -35.5370 H   0  0  0  0  0  0  0  0  0  0  0  0
    1.7578   18.4979  -34.6801 H   0  0  0  0  0  0  0  0  0  0  0  0
    3.4545   20.3067  -35.0811 H   0  0  0  0  0  0  0  0  0  0  0  0
    1.4267   26.1423  -35.1724 H   0  0  0  0  0  0  0  0  0  0  0  0
    2.3245   25.8851  -36.7068 H   0  0  0  0  0  0  0  0  0  0  0  0
    0.5282   25.8876  -36.7068 H   0  0  0  0  0  0  0  0  0  0  0  0
   -1.4545   21.3781  -35.2637 H   0  0  0  0  0  0  0  0  0  0  0  0
   -4.3196   19.4101  -33.5970 H   0  0  0  0  0  0  0  0  0  0  0  0
   -5.8935   21.8952  -33.7563 H   0  0  0  0  0  0  0  0  0  0  0  0
   -6.5771   20.9841  -32.4230 H   0  0  0  0  0  0  0  0  0  0  0  0
   -6.0254   23.8848  -32.5321 H   0  0  0  0  0  0  0  0  0  0  0  0
   -6.7109   23.0167  -29.8700 H   0  0  0  0  0  0  0  0  0  0  0  0
   -7.6889   23.9075  -31.0851 H   0  0  0  0  0  0  0  0  0  0  0  0
   -7.6754   22.1113  -31.0851 H   0  0  0  0  0  0  0  0  0  0  0  0
  1  2  1  0
  2  3  2  0
  2  4  1  0
  4  5  1  0
  5  6  2  0
  6  7  1  0
  7  8  2  0
  8  9  1  0
  9 10  2  0
  9 11  2  0
  9 12  1  0
 12 13  1  0
 13 14  2  0
 14 15  1  0
 15 16  2  0
 16 17  1  0
 17 18  1  0
 18 19  1  0
 18 20  2  0
 20 21  1  0
 21 22  2  0
  8 23  1  0
 23 24  2  0
 24 25  1  0
 25 26  1  0
 26 27  1  0
 26  4  1  0
 24  5  1  0
 22 13  1  0
 21 16  1  0
  1 28  1  0
  1 29  1  0
  1 30  1  0
  6 31  1  0
  7 32  1  0
 12 33  1  0
 14 34  1  0
 15 35  1  0
 19 36  1  0
 19 37  1  0
 19 38  1  0
 22 39  1  0
 23 40  1  0
 25 41  1  0
 25 42  1  0
 26 43  1  6
 27 44  1  0
 27 45  1  0
 27 46  1  0
M  END
>  <UniqueID>  (41) 
38

>  <SMILES>  (41) 
CC(=O)N1c2ccc(S(=O)(=O)Nc3ccc4sc(C)nc4c3)cc2C[C@H]1C

>  <Energy>  (41) 
100.13001504436518

>  <Genealogy>  (41) 
CC(=O)N1c2ccc(S(=O)(=O)Nc3ccc4sc(C)nc4c3)cc2C[C@H]1C (chirality)
CC(=O)N1c2ccc(S(=O)(=O)Nc3ccc4sc(C)nc4c3)cc2C[C@H]1C (3D coordinates assigned)
CC(=O)N1c2ccc(S(=O)(=O)Nc3ccc4sc(C)nc4c3)cc2C[C@H]1C (nonaromatic ring conformer: 100.13001504436518 kcal/mol)

>  <smiles>  (41) 
CC(=O)N1c2ccc(S(=O)(=O)Nc3ccc4sc(C)nc4c3)cc2CC1C

>  <score_type>  (41) 
oracle

>  <origin>  (41) 
adgpu

>  <m_score__min__energy>  (41) 
-10.800000000000001

>  <m_primary>  (41) 
energy

$$$$
41:0
     RDKit          3D

 72 77  0  0  0  0  0  0  0  0999 V2000
    0.6551   16.4971  -32.2438 H   0  0  0  0  0  0  0  0  0  0  0  0
   -0.2790   17.0780  -32.2330 C   0  0  0  0  0  0  0  0  0  0  0  0
   -1.3250   16.6880  -33.1940 C   0  0  0  0  0  0  0  0  0  0  0  0
   -2.6610   17.0640  -33.1030 C   0  0  0  0  0  0  0  0  0  0  0  0
   -3.1085   17.5937  -32.2491 H   0  0  0  0  0  0  0  0  0  0  0  0
   -3.3310   16.6850  -34.2150 N   0  0  0  0  0  0  0  0  0  0  0  0
   -4.9830   17.0590  -34.5800 S   0  0  0  0  0  0  0  0  0  0  0  0
   -5.0950   17.4220  -36.0340 O   0  0  0  0  0  0  0  0  0  0  0  0
   -5.8500   15.8630  -34.3110 O   0  0  0  0  0  0  0  0  0  0  0  0
   -5.5160   18.3880  -33.5580 C   0  0  0  0  0  0  0  0  0  0  0  0
   -6.5880   18.2260  -32.6710 C   0  0  0  0  0  0  0  0  0  0  0  0
   -7.0983   17.2542  -32.5990 H   0  0  0  0  0  0  0  0  0  0  0  0
   -7.0110   19.2960  -31.8770 C   0  0  0  0  0  0  0  0  0  0  0  0
   -7.8659   19.1678  -31.1967 H   0  0  0  0  0  0  0  0  0  0  0  0
   -6.3510   20.5330  -31.9430 C   0  0  0  0  0  0  0  0  0  0  0  0
   -6.8290   21.6940  -31.1190 C   0  0  0  0  0  0  0  0  0  0  0  0
   -6.7291   21.4513  -30.0508 H   0  0  0  0  0  0  0  0  0  0  0  0
   -6.2235   22.5825  -31.3513 H   0  0  0  0  0  0  0  0  0  0  0  0
   -7.8845   21.8986  -31.3513 H   0  0  0  0  0  0  0  0  0  0  0  0
   -5.2880   20.6970  -32.8440 C   0  0  0  0  0  0  0  0  0  0  0  0
   -4.7824   21.6707  -32.9226 H   0  0  0  0  0  0  0  0  0  0  0  0
   -4.8680   19.6280  -33.6430 C   0  0  0  0  0  0  0  0  0  0  0  0
   -4.0272   19.7610  -34.3396 H   0  0  0  0  0  0  0  0  0  0  0  0
   -2.4280   16.1070  -35.0310 C   0  0  0  0  0  0  0  0  0  0  0  0
   -2.6330   15.6170  -36.3230 C   0  0  0  0  0  0  0  0  0  0  0  0
   -3.6354   15.6153  -36.7760 H   0  0  0  0  0  0  0  0  0  0  0  0
   -1.5190   15.1260  -37.0270 C   0  0  0  0  0  0  0  0  0  0  0  0
   -1.6497   14.7159  -38.0393 H   0  0  0  0  0  0  0  0  0  0  0  0
   -0.2340   15.1560  -36.4430 C   0  0  0  0  0  0  0  0  0  0  0  0
    0.6305   14.7741  -37.0058 H   0  0  0  0  0  0  0  0  0  0  0  0
   -0.0510   15.6710  -35.1460 C   0  0  0  0  0  0  0  0  0  0  0  0
    0.9504   15.7267  -34.6942 H   0  0  0  0  0  0  0  0  0  0  0  0
   -1.1820   16.1100  -34.4490 C   0  0  0  0  0  0  0  0  0  0  0  0
   -0.3670   18.0800  -31.3460 C   0  0  0  0  0  0  0  0  0  0  0  0
    0.8200   18.4060  -30.2100 S   0  0  0  0  0  0  0  0  0  0  0  0
    0.0100   19.7060  -29.4980 C   0  0  0  0  0  0  0  0  0  0  0  0
    0.4820   20.3690  -28.4100 C   0  0  0  0  0  0  0  0  0  0  0  0
    1.8310   20.1160  -27.9580 C   0  0  0  0  0  0  0  0  0  0  0  0
    2.9080   19.9130  -27.5940 N   0  0  0  0  0  0  0  0  0  0  0  0
   -0.3610   21.1710  -27.4960 C   0  0  0  0  0  0  0  0  0  0  0  0
   -1.4180   20.6690  -27.0230 O   0  0  0  0  0  0  0  0  0  0  0  0
    0.0770   22.4630  -27.0370 N   0  0  0  0  0  0  0  0  0  0  0  0
    0.0730   22.7200  -25.5890 C   0  0  0  0  0  0  0  0  0  0  0  0
   -0.9688   22.8546  -25.2626 H   0  0  0  0  0  0  0  0  0  0  0  0
    0.5544   21.8564  -25.1069 H   0  0  0  0  0  0  0  0  0  0  0  0
    0.8800   23.9760  -25.1800 C   0  0  0  0  0  0  0  0  0  0  0  0
    0.1732   24.7806  -24.9287 H   0  0  0  0  0  0  0  0  0  0  0  0
    1.5081   23.6987  -24.3206 H   0  0  0  0  0  0  0  0  0  0  0  0
    1.7400   24.4350  -26.2020 O   0  0  0  0  0  0  0  0  0  0  0  0
    0.9740   24.7440  -27.3440 C   0  0  0  0  0  0  0  0  0  0  0  0
    0.0869   25.3223  -27.0463 H   0  0  0  0  0  0  0  0  0  0  0  0
    1.5786   25.3394  -28.0439 H   0  0  0  0  0  0  0  0  0  0  0  0
    0.5360   23.4520  -28.0190 C   0  0  0  0  0  0  0  0  0  0  0  0
   -0.2864   23.6731  -28.7153 H   0  0  0  0  0  0  0  0  0  0  0  0
    1.3997   23.0319  -28.5552 H   0  0  0  0  0  0  0  0  0  0  0  0
   -1.1640   19.9410  -30.1650 N   0  0  0  0  0  0  0  0  0  0  0  0
   -2.0050   21.1010  -30.0130 C   0  0  0  0  0  0  0  0  0  0  0  0
   -3.3630   20.9500  -29.6950 C   0  0  0  0  0  0  0  0  0  0  0  0
   -3.7814   19.9436  -29.5464 H   0  0  0  0  0  0  0  0  0  0  0  0
   -4.1870   22.0710  -29.5660 C   0  0  0  0  0  0  0  0  0  0  0  0
   -5.2559   21.9423  -29.3403 H   0  0  0  0  0  0  0  0  0  0  0  0
   -3.6570   23.3580  -29.7230 C   0  0  0  0  0  0  0  0  0  0  0  0
   -4.5460   24.5650  -29.6230 C   0  0  0  0  0  0  0  0  0  0  0  0
   -4.7220   24.8040  -28.5638 H   0  0  0  0  0  0  0  0  0  0  0  0
   -4.0603   25.4200  -30.1160 H   0  0  0  0  0  0  0  0  0  0  0  0
   -5.5066   24.3547  -30.1160 H   0  0  0  0  0  0  0  0  0  0  0  0
   -2.3070   23.5090  -30.0810 C   0  0  0  0  0  0  0  0  0  0  0  0
   -1.8920   24.5150  -30.2415 H   0  0  0  0  0  0  0  0  0  0  0  0
   -1.4890   22.3860  -30.2340 C   0  0  0  0  0  0  0  0  0  0  0  0
   -0.4366   22.5107  -30.5289 H   0  0  0  0  0  0  0  0  0  0  0  0
   -1.3620   19.0510  -31.1920 C   0  0  0  0  0  0  0  0  0  0  0  0
   -2.3390   19.1610  -31.9830 O   0  0  0  0  0  0  0  0  0  0  0  0
  1  2  1  0
  2  3  1  0
  3  4  2  0
  4  5  1  0
  4  6  1  0
  6  7  1  0
  7  8  2  0
  7  9  2  0
  7 10  1  0
 10 11  2  0
 11 12  1  0
 11 13  1  0
 13 14  1  0
 13 15  2  0
 15 16  1  0
 16 17  1  0
 16 18  1  0
 16 19  1  0
 15 20  1  0
 20 21  1  0
 20 22  2  0
 22 23  1  0
  6 24  1  0
 24 25  2  0
 25 26  1  0
 25 27  1  0
 27 28  1  0
 27 29  2  0
 29 30  1  0
 29 31  1  0
 31 32  1  0
 31 33  2  0
  2 34  2  0
 34 35  1  0
 35 36  1  0
 36 37  2  3
 37 38  1  0
 38 39  3  0
 37 40  1  0
 40 41  2  0
 40 42  1  0
 42 43  1  0
 43 44  1  0
 43 45  1  0
 43 46  1  0
 46 47  1  0
 46 48  1  0
 46 49  1  0
 49 50  1  0
 50 51  1  0
 50 52  1  0
 50 53  1  0
 53 54  1  0
 53 55  1  0
 36 56  1  0
 56 57  1  0
 57 58  2  0
 58 59  1  0
 58 60  1  0
 60 61  1  0
 60 62  2  0
 62 63  1  0
 63 64  1  0
 63 65  1  0
 63 66  1  0
 62 67  1  0
 67 68  1  0
 67 69  2  0
 69 70  1  0
 56 71  1  0
 71 72  2  0
 33  3  1  0
 71 34  1  0
 22 10  1  0
 33 24  1  0
 53 42  1  0
 69 57  1  0
M  END
>  <UniqueID>  (42) 
39

>  <SMILES>  (42) 
Cc1ccc(-n2c(=C(C#N)C(=O)N3CCOCC3)s/c(=C/c3cn(S(=O)(=O)c4ccc(C)cc4)c4ccccc34)c2=O)cc1

>  <Energy>  (42) 
177.3137231673872

>  <Genealogy>  (42) 
Cc1ccc(-n2c(=C(C#N)C(=O)N3CCOCC3)s/c(=C/c3cn(S(=O)(=O)c4ccc(C)cc4)c4ccccc34)c2=O)cc1 (cis-trans isomerization)
Cc1ccc(-n2c(=C(C#N)C(=O)N3CCOCC3)s/c(=C/c3cn(S(=O)(=O)c4ccc(C)cc4)c4ccccc34)c2=O)cc1 (3D coordinates assigned)
Cc1ccc(-n2c(=C(C#N)C(=O)N3CCOCC3)s/c(=C/c3cn(S(=O)(=O)c4ccc(C)cc4)c4ccccc34)c2=O)cc1 (nonaromatic ring conformer: 177.3137231673872 kcal/mol)

>  <smiles>  (42) 
Cc1ccc(-n2c(=C(C#N)C(=O)N3CCOCC3)sc(=Cc3cn(S(=O)(=O)c4ccc(C)cc4)c4ccccc34)c2=O)cc1

>  <score_type>  (42) 
oracle

>  <origin>  (42) 
adgpu

>  <m_score__min__energy>  (42) 
-10.470000000000001

>  <m_primary>  (42) 
energy

$$$$
42:0
     RDKit          3D

 68 72  0  0  0  0  0  0  0  0999 V2000
   -0.6630   19.4560  -35.6180 H   0  0  0  0  0  0  0  0  0  0  0  0
   -0.8270   20.2100  -34.9120 N   0  0  0  0  0  0  0  0  0  0  0  0
   -1.8060   20.1550  -34.0650 C   0  0  0  0  0  0  0  0  0  0  0  0
   -2.6230   19.0850  -34.1150 N   0  0  0  0  0  0  0  0  0  0  0  0
   -3.7060   18.6600  -33.4250 C   0  0  0  0  0  0  0  0  0  0  0  0
   -4.2080   17.4240  -33.8730 C   0  0  0  0  0  0  0  0  0  0  0  0
   -3.7189   16.9306  -34.7259 H   0  0  0  0  0  0  0  0  0  0  0  0
   -5.3040   16.8020  -33.2740 C   0  0  0  0  0  0  0  0  0  0  0  0
   -5.8110   15.5050  -33.7800 C   0  0  0  0  0  0  0  0  0  0  0  0
   -5.2110   14.2800  -33.4760 C   0  0  0  0  0  0  0  0  0  0  0  0
   -4.3244   14.1348  -32.8413 H   0  0  0  0  0  0  0  0  0  0  0  0
   -6.0800   13.0680  -34.2490 S   0  0  0  0  0  0  0  0  0  0  0  0
   -7.1940   14.1330  -34.9280 C   0  0  0  0  0  0  0  0  0  0  0  0
   -8.1970   13.8380  -35.7080 N   0  0  0  0  0  0  0  0  0  0  0  0
   -8.6730   12.5560  -36.1560 C   0  0  0  0  0  0  0  0  0  0  0  0
   -9.0250   11.7150  -35.2880 O   0  0  0  0  0  0  0  0  0  0  0  0
   -8.7400   12.1580  -37.6000 C   0  0  0  0  0  0  0  0  0  0  0  0
   -8.9222   11.0757  -37.6740 H   0  0  0  0  0  0  0  0  0  0  0  0
   -9.5592   12.7022  -38.0927 H   0  0  0  0  0  0  0  0  0  0  0  0
   -7.7878   12.4040  -38.0927 H   0  0  0  0  0  0  0  0  0  0  0  0
   -6.9040   15.4080  -34.5900 N   0  0  0  0  0  0  0  0  0  0  0  0
   -7.4780   16.2250  -34.8990 H   0  0  0  0  0  0  0  0  0  0  0  0
   -5.9110   17.4270  -32.1910 C   0  0  0  0  0  0  0  0  0  0  0  0
   -6.7643   16.9455  -31.6909 H   0  0  0  0  0  0  0  0  0  0  0  0
   -5.4480   18.6560  -31.7350 C   0  0  0  0  0  0  0  0  0  0  0  0
   -5.9544   19.1258  -30.8789 H   0  0  0  0  0  0  0  0  0  0  0  0
   -4.3410   19.3340  -32.3330 C   0  0  0  0  0  0  0  0  0  0  0  0
   -3.9910   20.6180  -31.8000 C   0  0  0  0  0  0  0  0  0  0  0  0
   -4.7690   21.0840  -30.8480 N   0  0  0  0  0  0  0  0  0  0  0  0
   -4.7740   22.3290  -30.0590 C   0  0  1  0  0  0  0  0  0  0  0  0
   -5.8233   22.5967  -29.8661 H   0  0  0  0  0  0  0  0  0  0  0  0
   -4.2040   22.1440  -28.6240 C   0  0  0  0  0  0  0  0  0  0  0  0
   -3.9984   21.0723  -28.4859 H   0  0  0  0  0  0  0  0  0  0  0  0
   -4.9734   22.5626  -27.9586 H   0  0  0  0  0  0  0  0  0  0  0  0
   -2.9100   22.9150  -28.2690 C   0  0  0  0  0  0  0  0  0  0  0  0
   -2.0576   22.2492  -28.4694 H   0  0  0  0  0  0  0  0  0  0  0  0
   -3.0219   23.2051  -27.2139 H   0  0  0  0  0  0  0  0  0  0  0  0
   -2.6650   24.2430  -29.0400 C   0  0  2  0  0  0  0  0  0  0  0  0
   -1.8537   24.0600  -29.7599 H   0  0  0  0  0  0  0  0  0  0  0  0
   -2.2060   25.3070  -28.1100 N   0  0  0  0  0  0  0  0  0  0  0  0
   -0.7650   25.6620  -28.2020 C   0  0  0  0  0  0  0  0  0  0  0  0
   -0.3398   25.1804  -29.0949 H   0  0  0  0  0  0  0  0  0  0  0  0
   -0.6949   26.7582  -28.2603 H   0  0  0  0  0  0  0  0  0  0  0  0
    0.0350   25.2090  -26.9700 C   0  0  0  0  0  0  0  0  0  0  0  0
   -0.0107   24.1123  -26.8983 H   0  0  0  0  0  0  0  0  0  0  0  0
    1.0733   25.5522  -27.0890 H   0  0  0  0  0  0  0  0  0  0  0  0
   -0.5310   25.8220  -25.6650 C   0  0  0  0  0  0  0  0  0  0  0  0
   -0.3823   25.0698  -24.8763 H   0  0  0  0  0  0  0  0  0  0  0  0
    0.2260   27.0960  -25.2730 C   0  0  0  0  0  0  0  0  0  0  0  0
    0.2716   27.1727  -24.1766 H   0  0  0  0  0  0  0  0  0  0  0  0
    1.2469   27.0559  -25.6805 H   0  0  0  0  0  0  0  0  0  0  0  0
   -0.2973   27.9735  -25.6805 H   0  0  0  0  0  0  0  0  0  0  0  0
   -2.0490   26.1040  -25.7590 C   0  0  0  0  0  0  0  0  0  0  0  0
   -2.4990   25.9866  -24.7622 H   0  0  0  0  0  0  0  0  0  0  0  0
   -2.1925   27.1301  -26.1284 H   0  0  0  0  0  0  0  0  0  0  0  0
   -2.7280   25.1360  -26.7320 C   0  0  0  0  0  0  0  0  0  0  0  0
   -2.5387   24.1039  -26.4020 H   0  0  0  0  0  0  0  0  0  0  0  0
   -3.8072   25.3489  -26.7392 H   0  0  0  0  0  0  0  0  0  0  0  0
   -3.8600   24.6730  -29.9210 C   0  0  0  0  0  0  0  0  0  0  0  0
   -3.5795   25.5564  -30.5134 H   0  0  0  0  0  0  0  0  0  0  0  0
   -4.7186   24.9192  -29.2790 H   0  0  0  0  0  0  0  0  0  0  0  0
   -4.2380   23.5310  -30.8590 C   0  0  0  0  0  0  0  0  0  0  0  0
   -3.3488   23.2200  -31.4270 H   0  0  0  0  0  0  0  0  0  0  0  0
   -5.0239   23.8801  -31.5449 H   0  0  0  0  0  0  0  0  0  0  0  0
   -2.9010   21.4040  -32.2060 C   0  0  0  0  0  0  0  0  0  0  0  0
   -2.7941   22.3492  -31.6535 H   0  0  0  0  0  0  0  0  0  0  0  0
   -1.9380   21.2010  -33.1770 C   0  0  0  0  0  0  0  0  0  0  0  0
   -1.1692   21.9842  -33.2514 H   0  0  0  0  0  0  0  0  0  0  0  0
  1  2  1  0
  2  3  2  0
  3  4  1  0
  4  5  1  0
  5  6  2  0
  6  7  1  0
  6  8  1  0
  8  9  1  0
  9 10  2  0
 10 11  1  0
 10 12  1  0
 12 13  1  0
 13 14  2  0
 14 15  1  0
 15 16  2  0
 15 17  1  0
 17 18  1  0
 17 19  1  0
 17 20  1  0
 13 21  1  0
 21 22  1  0
  8 23  2  0
 23 24  1  0
 23 25  1  0
 25 26  1  0
 25 27  2  0
 27 28  1  0
 28 29  2  3
 29 30  1  0
 30 31  1  1
 30 32  1  0
 32 33  1  0
 32 34  1  0
 32 35  1  0
 35 36  1  0
 35 37  1  0
 35 38  1  0
 38 39  1  6
 38 40  1  0
 40 41  1  0
 41 42  1  0
 41 43  1  0
 41 44  1  0
 44 45  1  0
 44 46  1  0
 44 47  1  0
 47 48  1  0
 47 49  1  0
 49 50  1  0
 49 51  1  0
 49 52  1  0
 47 53  1  0
 53 54  1  0
 53 55  1  0
 53 56  1  0
 56 57  1  0
 56 58  1  0
 38 59  1  0
 59 60  1  0
 59 61  1  0
 59 62  1  0
 62 63  1  0
 62 64  1  0
 28 65  1  0
 65 66  1  0
 65 67  2  0
 67 68  1  0
 67  3  1  0
 27  5  1  0
 62 30  1  0
 21  9  1  0
 56 40  1  0
M  CHG  1   4  -1
M  END
>  <UniqueID>  (43) 
40

>  <SMILES>  (43) 
[H]/N=c1/ccc(=NC2CCC(N3CCC(C)CC3)CC2)c2ccc(-c3cs/c(=N\C(C)=O)[nH]3)cc2[n-]1

>  <Energy>  (43) 
168.2283473819219

>  <Genealogy>  (43) 
CC(=O)N=c1[nH]c(-c2ccc3c(=NC4CCC(N5CCC(C)CC5)CC4)ccc(=N)[n-]c3c2)cs1 (protonated)
[H]/N=c1/ccc(=NC2CCC(N3CCC(C)CC3)CC2)c2ccc(-c3cs/c(=N\C(C)=O)[nH]3)cc2[n-]1 (cis-trans isomerization)
[H]/N=c1/ccc(=NC2CCC(N3CCC(C)CC3)CC2)c2ccc(-c3cs/c(=N\C(C)=O)[nH]3)cc2[n-]1 (3D coordinates assigned)
[H]/N=c1/ccc(=NC2CCC(N3CCC(C)CC3)CC2)c2ccc(-c3cs/c(=N\C(C)=O)[nH]3)cc2[n-]1 (nonaromatic ring conformer: 168.2283473819219 kcal/mol)

>  <smiles>  (43) 
CC(=O)N=c1[nH]c(-c2ccc3c(=NC4CCC(N5CCC(C)CC5)CC4)ccc(=N)[nH]c3c2)cs1

>  <score_type>  (43) 
oracle

>  <origin>  (43) 
adgpu

>  <m_score__min__energy>  (43) 
-10.27

>  <m_primary>  (43) 
energy

$$$$
43:0
     RDKit          3D

 47 50  0  0  0  0  0  0  0  0999 V2000
   -3.9170   25.6710  -30.8440 N   0  0  0  0  0  0  0  0  0  0  0  0
   -5.1960   24.8850  -29.9830 S   0  0  0  0  0  0  0  0  0  0  0  0
   -6.3150   25.8670  -29.7660 O   0  0  0  0  0  0  0  0  0  0  0  0
   -4.6690   24.4190  -28.6530 O   0  0  0  0  0  0  0  0  0  0  0  0
   -5.7910   23.4930  -30.8980 C   0  0  0  0  0  0  0  0  0  0  0  0
   -7.1670   23.2130  -30.9160 C   0  0  0  0  0  0  0  0  0  0  0  0
   -7.6540   22.1310  -31.6570 C   0  0  0  0  0  0  0  0  0  0  0  0
   -6.7730   21.3240  -32.3870 C   0  0  0  0  0  0  0  0  0  0  0  0
   -5.4050   21.5970  -32.3810 C   0  0  0  0  0  0  0  0  0  0  0  0
   -4.9020   22.6830  -31.6400 C   0  0  0  0  0  0  0  0  0  0  0  0
   -3.4970   22.9510  -31.6060 N   0  0  0  0  0  0  0  0  0  0  0  0
   -2.3890   22.1530  -30.5370 S   0  0  0  0  0  0  0  0  0  0  0  0
   -1.1170   21.8580  -31.2850 O   0  0  0  0  0  0  0  0  0  0  0  0
   -2.9920   20.8450  -30.0990 O   0  0  0  0  0  0  0  0  0  0  0  0
   -1.9980   23.1510  -29.1380 C   0  0  0  0  0  0  0  0  0  0  0  0
   -2.0000   22.5890  -27.8350 C   0  0  0  0  0  0  0  0  0  0  0  0
   -1.6620   23.3750  -26.7160 C   0  0  0  0  0  0  0  0  0  0  0  0
   -1.3250   24.7070  -26.9400 C   0  0  0  0  0  0  0  0  0  0  0  0
   -0.9570   25.6220  -26.0310 N   0  0  0  0  0  0  0  0  0  0  0  0
   -0.7430   26.7270  -26.7970 C   0  0  0  0  0  0  0  0  0  0  0  0
   -0.3180   27.9840  -26.2390 N   0  0  0  0  0  0  0  0  0  0  0  0
   -0.0960   29.1530  -27.1010 C   0  0  0  0  0  0  0  0  0  0  0  0
   -0.6300   30.4180  -26.4130 C   0  0  0  0  0  0  0  0  0  0  0  0
   -0.0820   30.6130  -24.9840 C   0  0  0  0  0  0  0  0  0  0  0  0
    0.6640   29.3860  -24.4330 C   0  0  0  0  0  0  0  0  0  0  0  0
   -0.0550   28.0760  -24.7940 C   0  0  0  0  0  0  0  0  0  0  0  0
   -0.9560   26.5420  -28.1290 N   0  0  0  0  0  0  0  0  0  0  0  0
   -1.3240   25.2520  -28.1880 C   0  0  0  0  0  0  0  0  0  0  0  0
   -1.6570   24.5110  -29.3190 C   0  0  0  0  0  0  0  0  0  0  0  0
   -3.1210   24.9950  -30.9170 H   0  0  0  0  0  0  0  0  0  0  0  0
   -7.8634   23.8458  -30.3462 H   0  0  0  0  0  0  0  0  0  0  0  0
   -8.7323   21.9136  -31.6662 H   0  0  0  0  0  0  0  0  0  0  0  0
   -7.1603   20.4730  -32.9664 H   0  0  0  0  0  0  0  0  0  0  0  0
   -4.7168   20.9613  -32.9574 H   0  0  0  0  0  0  0  0  0  0  0  0
   -2.2677   21.5309  -27.6977 H   0  0  0  0  0  0  0  0  0  0  0  0
   -1.6643   22.9512  -25.7009 H   0  0  0  0  0  0  0  0  0  0  0  0
    0.9816   29.2677  -27.2899 H   0  0  0  0  0  0  0  0  0  0  0  0
   -0.6267   29.0070  -28.0534 H   0  0  0  0  0  0  0  0  0  0  0  0
   -0.3453   31.2913  -27.0183 H   0  0  0  0  0  0  0  0  0  0  0  0
   -1.7215   30.3084  -26.3313 H   0  0  0  0  0  0  0  0  0  0  0  0
    0.6122   31.4663  -24.9921 H   0  0  0  0  0  0  0  0  0  0  0  0
   -0.9490   30.7821  -24.3285 H   0  0  0  0  0  0  0  0  0  0  0  0
    1.6785   29.3649  -24.8577 H   0  0  0  0  0  0  0  0  0  0  0  0
    0.6981   29.4684  -23.3366 H   0  0  0  0  0  0  0  0  0  0  0  0
    0.5757   27.2272  -24.4910 H   0  0  0  0  0  0  0  0  0  0  0  0
   -1.0199   28.0559  -24.2662 H   0  0  0  0  0  0  0  0  0  0  0  0
   -1.6548   24.9684  -30.3194 H   0  0  0  0  0  0  0  0  0  0  0  0
  1  2  1  0
  2  3  2  0
  2  4  2  0
  2  5  1  0
  5  6  2  0
  6  7  1  0
  7  8  2  0
  8  9  1  0
  9 10  2  0
 10 11  1  0
 11 12  1  0
 12 13  2  0
 12 14  2  0
 12 15  1  0
 15 16  2  0
 16 17  1  0
 17 18  2  0
 18 19  1  0
 19 20  1  0
 20 21  1  0
 21 22  1  0
 22 23  1  0
 23 24  1  0
 24 25  1  0
 25 26  1  0
 20 27  2  0
 27 28  1  0
 28 29  2  0
 10  5  1  0
 29 15  1  0
 28 18  1  0
 26 21  1  0
  1 30  1  0
  6 31  1  0
  7 32  1  0
  8 33  1  0
  9 34  1  0
 16 35  1  0
 17 36  1  0
 22 37  1  0
 22 38  1  0
 23 39  1  0
 23 40  1  0
 24 41  1  0
 24 42  1  0
 25 43  1  0
 25 44  1  0
 26 45  1  0
 26 46  1  0
 29 47  1  0
M  CHG  3   1  -1  11  -1  19  -1
M  END
>  <UniqueID>  (44) 
41

>  <SMILES>  (44) 
[NH-]S(=O)(=O)c1ccccc1[N-]S(=O)(=O)c1ccc2[n-]c(N3CCCCC3)nc2c1

>  <Energy>  (44) 
93.26996350155912

>  <Genealogy>  (44) 
[NH-]S(=O)(=O)c1ccccc1[N-]S(=O)(=O)c1ccc2[n-]c(N3CCCCC3)nc2c1 (protonated)
[NH-]S(=O)(=O)c1ccccc1[N-]S(=O)(=O)c1ccc2[n-]c(N3CCCCC3)nc2c1 (3D coordinates assigned)
[NH-]S(=O)(=O)c1ccccc1[N-]S(=O)(=O)c1ccc2[n-]c(N3CCCCC3)nc2c1 (nonaromatic ring conformer: 93.26996350155912 kcal/mol)

>  <smiles>  (44) 
NS(=O)(=O)c1ccccc1NS(=O)(=O)c1ccc2[nH]c(N3CCCCC3)nc2c1

>  <score_type>  (44) 
oracle

>  <origin>  (44) 
adgpu

>  <m_score__min__energy>  (44) 
-13.1

>  <m_primary>  (44) 
energy

$$$$
44:0
     RDKit          3D

 42 45  0  0  0  0  0  0  0  0999 V2000
   -3.0190   14.8680  -32.8550 C   0  0  0  0  0  0  0  0  0  0  0  0
   -3.8020   14.6980  -34.0920 N   0  0  0  0  0  0  0  0  0  0  0  0
   -3.3160   15.5520  -35.1930 C   0  0  0  0  0  0  0  0  0  0  0  0
   -3.4960   17.0490  -34.8990 C   0  0  0  0  0  0  0  0  0  0  0  0
   -4.8400   17.3580  -34.2930 C   0  0  0  0  0  0  0  0  0  0  0  0
   -5.2550   18.6940  -34.2040 C   0  0  0  0  0  0  0  0  0  0  0  0
   -6.4760   19.0290  -33.5920 C   0  0  0  0  0  0  0  0  0  0  0  0
   -6.9120   20.3930  -33.4830 N   0  0  0  0  0  0  0  0  0  0  0  0
   -7.5730   21.1250  -32.0570 S   0  0  0  0  0  0  0  0  0  0  0  0
   -8.9900   21.5510  -32.3210 O   0  0  0  0  0  0  0  0  0  0  0  0
   -7.5740   20.1180  -30.9410 O   0  0  0  0  0  0  0  0  0  0  0  0
   -6.5760   22.4950  -31.5810 C   0  0  0  0  0  0  0  0  0  0  0  0
   -7.0740   23.8080  -31.7490 C   0  0  0  0  0  0  0  0  0  0  0  0
   -6.3080   24.9200  -31.3550 C   0  0  0  0  0  0  0  0  0  0  0  0
   -5.0570   24.6870  -30.7920 C   0  0  0  0  0  0  0  0  0  0  0  0
   -4.1900   25.6140  -30.3470 N   0  0  0  0  0  0  0  0  0  0  0  0
   -3.1450   24.8850  -29.8900 C   0  0  0  0  0  0  0  0  0  0  0  0
   -2.0100   25.4590  -29.3330 O   0  0  0  0  0  0  0  0  0  0  0  0
   -3.3360   23.5190  -30.0400 C   0  0  0  0  0  0  0  0  0  0  0  0
   -4.5740   23.4150  -30.6240 C   0  0  0  0  0  0  0  0  0  0  0  0
   -5.3020   22.2910  -31.0090 C   0  0  0  0  0  0  0  0  0  0  0  0
   -7.2880   18.0040  -33.0730 C   0  0  0  0  0  0  0  0  0  0  0  0
   -8.5140   18.2860  -32.4680 O   0  0  0  0  0  0  0  0  0  0  0  0
   -6.8710   16.6730  -33.1540 C   0  0  0  0  0  0  0  0  0  0  0  0
   -5.6410   16.3410  -33.7390 C   0  0  0  0  0  0  0  0  0  0  0  0
   -5.2470   14.8870  -33.8610 C   0  0  0  0  0  0  0  0  0  0  0  0
   -3.6748   14.7256  -31.9834 H   0  0  0  0  0  0  0  0  0  0  0  0
   -2.2083   14.1249  -32.8292 H   0  0  0  0  0  0  0  0  0  0  0  0
   -2.5894   15.8803  -32.8292 H   0  0  0  0  0  0  0  0  0  0  0  0
   -2.2464   15.3495  -35.3509 H   0  0  0  0  0  0  0  0  0  0  0  0
   -3.9090   15.3133  -36.0882 H   0  0  0  0  0  0  0  0  0  0  0  0
   -2.7107   17.3682  -34.1980 H   0  0  0  0  0  0  0  0  0  0  0  0
   -3.4271   17.5890  -35.8548 H   0  0  0  0  0  0  0  0  0  0  0  0
   -4.6181   19.4897  -34.6177 H   0  0  0  0  0  0  0  0  0  0  0  0
   -8.0693   23.9610  -32.1918 H   0  0  0  0  0  0  0  0  0  0  0  0
   -6.6869   25.9441  -31.4881 H   0  0  0  0  0  0  0  0  0  0  0  0
   -2.6521   22.7056  -29.7560 H   0  0  0  0  0  0  0  0  0  0  0  0
   -4.8969   21.2776  -30.8716 H   0  0  0  0  0  0  0  0  0  0  0  0
   -8.8550   19.2310  -32.3450 H   0  0  0  0  0  0  0  0  0  0  0  0
   -7.5154   15.8762  -32.7541 H   0  0  0  0  0  0  0  0  0  0  0  0
   -5.5237   14.3697  -32.9305 H   0  0  0  0  0  0  0  0  0  0  0  0
   -5.7760   14.4751  -34.7331 H   0  0  0  0  0  0  0  0  0  0  0  0
  1  2  1  0
  2  3  1  0
  3  4  1  0
  4  5  1  0
  5  6  2  0
  6  7  1  0
  7  8  1  0
  8  9  1  0
  9 10  2  0
  9 11  2  0
  9 12  1  0
 12 13  2  0
 13 14  1  0
 14 15  2  0
 15 16  1  0
 16 17  1  0
 17 18  1  0
 17 19  2  0
 19 20  1  0
 20 21  2  0
  7 22  2  0
 22 23  1  0
 22 24  1  0
 24 25  2  0
 25 26  1  0
 26  2  1  0
 25  5  1  0
 21 12  1  0
 20 15  1  0
  1 27  1  0
  1 28  1  0
  1 29  1  0
  3 30  1  0
  3 31  1  0
  4 32  1  0
  4 33  1  0
  6 34  1  0
 13 35  1  0
 14 36  1  0
 19 37  1  0
 21 38  1  0
 23 39  1  0
 24 40  1  0
 26 41  1  0
 26 42  1  0
M  CHG  3   8  -1  16  -1  18  -1
M  END
>  <UniqueID>  (45) 
42

>  <SMILES>  (45) 
CN1CCc2cc([N-]S(=O)(=O)c3ccc4[n-]c([O-])cc4c3)c(O)cc2C1

>  <Energy>  (45) 
86.06447224775776

>  <Genealogy>  (45) 
CN1CCc2cc([N-]S(=O)(=O)c3ccc4[n-]c([O-])cc4c3)c(O)cc2C1 (protonated)
CN1CCc2cc([N-]S(=O)(=O)c3ccc4[n-]c([O-])cc4c3)c(O)cc2C1 (3D coordinates assigned)
CN1CCc2cc([N-]S(=O)(=O)c3ccc4[n-]c([O-])cc4c3)c(O)cc2C1 (nonaromatic ring conformer: 86.06447224775776 kcal/mol)

>  <smiles>  (45) 
CN1CCc2cc(NS(=O)(=O)c3ccc4[nH]c(O)cc4c3)c(O)cc2C1

>  <score_type>  (45) 
oracle

>  <origin>  (45) 
adgpu

>  <m_score__min__energy>  (45) 
-12.6

>  <m_primary>  (45) 
energy

$$$$
45:0
     RDKit          3D

 50 52  0  0  0  0  0  0  0  0999 V2000
   -6.8200   25.3420  -29.6960 C   0  0  0  0  0  0  0  0  0  0  0  0
   -5.6040   24.4860  -29.5210 C   0  0  0  0  0  0  0  0  0  0  0  0
   -4.7770   24.5960  -28.4610 N   0  0  0  0  0  0  0  0  0  0  0  0
   -3.8450   23.6320  -28.5820 C   0  0  0  0  0  0  0  0  0  0  0  0
   -2.7390   23.4280  -27.5960 C   0  0  0  0  0  0  0  0  0  0  0  0
   -4.0690   22.8960  -29.7370 C   0  0  0  0  0  0  0  0  0  0  0  0
   -3.1240   21.5320  -30.3450 S   0  0  0  0  0  0  0  0  0  0  0  0
   -3.8980   20.2490  -30.2200 O   0  0  0  0  0  0  0  0  0  0  0  0
   -2.8090   21.7680  -31.7960 O   0  0  0  0  0  0  0  0  0  0  0  0
   -1.6400   21.3920  -29.4530 N   0  0  0  0  0  0  0  0  0  0  0  0
   -0.6960   22.4100  -29.9080 C   0  0  0  0  0  0  0  0  0  0  0  0
    0.1530   22.8740  -28.7590 C   0  0  0  0  0  0  0  0  0  0  0  0
    0.5860   22.0370  -27.9230 O   0  0  0  0  0  0  0  0  0  0  0  0
    0.4840   24.2590  -28.5870 N   0  0  0  0  0  0  0  0  0  0  0  0
    0.0120   25.0860  -27.5170 C   0  0  0  0  0  0  0  0  0  0  0  0
    0.6410   25.0070  -26.2670 C   0  0  0  0  0  0  0  0  0  0  0  0
    0.1970   25.7990  -25.2030 C   0  0  0  0  0  0  0  0  0  0  0  0
   -0.8660   26.6880  -25.3880 C   0  0  0  0  0  0  0  0  0  0  0  0
   -1.4760   26.7990  -26.6400 C   0  0  0  0  0  0  0  0  0  0  0  0
   -1.0310   26.0130  -27.7110 C   0  0  0  0  0  0  0  0  0  0  0  0
   -1.6080   26.1840  -28.9640 O   0  0  0  0  0  0  0  0  0  0  0  0
   -5.1810   23.4540  -30.3490 C   0  0  0  0  0  0  0  0  0  0  0  0
   -5.8190   22.9910  -31.5950 C   0  0  0  0  0  0  0  0  0  0  0  0
   -5.3790   23.4090  -32.6990 O   0  0  0  0  0  0  0  0  0  0  0  0
   -6.9360   22.0870  -31.5730 N   0  0  0  0  0  0  0  0  0  0  0  0
   -7.3330   21.2980  -32.7250 C   0  0  0  0  0  0  0  0  0  0  0  0
   -8.6900   20.7020  -32.3700 C   0  0  0  0  0  0  0  0  0  0  0  0
   -8.8410   20.8740  -30.8600 C   0  0  0  0  0  0  0  0  0  0  0  0
   -7.8850   21.9910  -30.4750 C   0  0  0  0  0  0  0  0  0  0  0  0
   -7.2169   25.6214  -28.7089 H   0  0  0  0  0  0  0  0  0  0  0  0
   -6.5512   26.2512  -30.2538 H   0  0  0  0  0  0  0  0  0  0  0  0
   -7.5852   24.7823  -30.2538 H   0  0  0  0  0  0  0  0  0  0  0  0
   -4.8610   25.2870  -27.6800 H   0  0  0  0  0  0  0  0  0  0  0  0
   -3.1402   23.5020  -26.5745 H   0  0  0  0  0  0  0  0  0  0  0  0
   -2.2946   22.4327  -27.7442 H   0  0  0  0  0  0  0  0  0  0  0  0
   -1.9688   24.1992  -27.7442 H   0  0  0  0  0  0  0  0  0  0  0  0
   -0.0498   21.9841  -30.6897 H   0  0  0  0  0  0  0  0  0  0  0  0
   -1.2557   23.2664  -30.3121 H   0  0  0  0  0  0  0  0  0  0  0  0
    1.4873   24.3194  -26.1221 H   0  0  0  0  0  0  0  0  0  0  0  0
    0.6846   25.7223  -24.2200 H   0  0  0  0  0  0  0  0  0  0  0  0
   -1.2225   27.3008  -24.5469 H   0  0  0  0  0  0  0  0  0  0  0  0
   -2.3072   27.5048  -26.7851 H   0  0  0  0  0  0  0  0  0  0  0  0
   -7.4162   21.9366  -33.6168 H   0  0  0  0  0  0  0  0  0  0  0  0
   -6.5943   20.5161  -32.9552 H   0  0  0  0  0  0  0  0  0  0  0  0
   -9.4929   21.2372  -32.8982 H   0  0  0  0  0  0  0  0  0  0  0  0
   -8.7558   19.6442  -32.6644 H   0  0  0  0  0  0  0  0  0  0  0  0
   -9.8753   21.1503  -30.6071 H   0  0  0  0  0  0  0  0  0  0  0  0
   -8.6145   19.9423  -30.3209 H   0  0  0  0  0  0  0  0  0  0  0  0
   -8.4301   22.9388  -30.3542 H   0  0  0  0  0  0  0  0  0  0  0  0
   -7.3823   21.7858  -29.5183 H   0  0  0  0  0  0  0  0  0  0  0  0
  1  2  1  0
  2  3  1  0
  3  4  1  0
  4  5  1  0
  4  6  2  0
  6  7  1  0
  7  8  2  0
  7  9  2  0
  7 10  1  0
 10 11  1  0
 11 12  1  0
 12 13  2  0
 12 14  1  0
 14 15  1  0
 15 16  2  0
 16 17  1  0
 17 18  2  0
 18 19  1  0
 19 20  2  0
 20 21  1  0
  6 22  1  0
 22 23  1  0
 23 24  2  0
 23 25  1  0
 25 26  1  0
 26 27  1  0
 27 28  1  0
 28 29  1  0
 22  2  2  0
 29 25  1  0
 20 15  1  0
  1 30  1  0
  1 31  1  0
  1 32  1  0
  3 33  1  0
  5 34  1  0
  5 35  1  0
  5 36  1  0
 11 37  1  0
 11 38  1  0
 16 39  1  0
 17 40  1  0
 18 41  1  0
 19 42  1  0
 26 43  1  0
 26 44  1  0
 27 45  1  0
 27 46  1  0
 28 47  1  0
 28 48  1  0
 29 49  1  0
 29 50  1  0
M  CHG  3  10  -1  14  -1  21  -1
M  END
>  <UniqueID>  (46) 
43

>  <SMILES>  (46) 
Cc1[nH]c(C)c(S(=O)(=O)[N-]CC(=O)[N-]c2ccccc2[O-])c1C(=O)N1CCCC1

>  <Energy>  (46) 
81.95278192871804

>  <Genealogy>  (46) 
Cc1[nH]c(C)c(S(=O)(=O)[N-]CC(=O)[N-]c2ccccc2[O-])c1C(=O)N1CCCC1 (protonated)
Cc1[nH]c(C)c(S(=O)(=O)[N-]CC(=O)[N-]c2ccccc2[O-])c1C(=O)N1CCCC1 (3D coordinates assigned)
Cc1[nH]c(C)c(S(=O)(=O)[N-]CC(=O)[N-]c2ccccc2[O-])c1C(=O)N1CCCC1 (nonaromatic ring conformer: 81.95278192871804 kcal/mol)

>  <smiles>  (46) 
Cc1[nH]c(C)c(S(=O)(=O)NCC(=O)Nc2ccccc2O)c1C(=O)N1CCCC1

>  <score_type>  (46) 
oracle

>  <origin>  (46) 
adgpu

>  <m_score__min__energy>  (46) 
-14.56

>  <m_primary>  (46) 
energy

$$$$
46:0
     RDKit          3D

 62 66  0  0  0  0  0  0  0  0999 V2000
   -3.7400   21.5930  -33.8190 O   0  0  0  0  0  0  0  0  0  0  0  0
   -4.6220   21.3410  -32.9510 C   0  0  0  0  0  0  0  0  0  0  0  0
   -4.9430   22.3900  -31.9570 C   0  0  0  0  0  0  0  0  0  0  0  0
   -6.2710   22.7160  -31.6470 C   0  0  0  0  0  0  0  0  0  0  0  0
   -6.5490   23.6930  -30.6860 C   0  0  0  0  0  0  0  0  0  0  0  0
   -5.5100   24.3850  -30.0560 C   0  0  0  0  0  0  0  0  0  0  0  0
   -5.8270   25.3520  -29.1040 O   0  0  0  0  0  0  0  0  0  0  0  0
   -4.1730   24.1130  -30.4080 C   0  0  0  0  0  0  0  0  0  0  0  0
   -3.1150   24.8530  -29.7910 N   0  0  0  0  0  0  0  0  0  0  0  0
   -2.5010   24.5270  -28.2020 S   0  0  0  0  0  0  0  0  0  0  0  0
   -3.4940   24.9110  -27.1390 O   0  0  0  0  0  0  0  0  0  0  0  0
   -1.2520   25.3400  -27.9930 O   0  0  0  0  0  0  0  0  0  0  0  0
   -2.1260   22.8100  -28.0880 C   0  0  0  0  0  0  0  0  0  0  0  0
   -3.1240   21.8840  -27.7180 C   0  0  0  0  0  0  0  0  0  0  0  0
   -2.8050   20.5280  -27.5460 C   0  0  0  0  0  0  0  0  0  0  0  0
   -1.4850   20.1170  -27.7480 C   0  0  0  0  0  0  0  0  0  0  0  0
   -0.5120   21.0120  -28.1140 C   0  0  0  0  0  0  0  0  0  0  0  0
   -0.8050   22.3670  -28.2920 C   0  0  0  0  0  0  0  0  0  0  0  0
    0.8170   20.3700  -28.2370 C   0  0  0  0  0  0  0  0  0  0  0  0
    0.5590   18.8960  -27.8600 C   0  0  0  0  0  0  0  0  0  0  0  0
   -0.9470   18.7490  -27.5630 C   0  0  0  0  0  0  0  0  0  0  0  0
   -3.9000   23.1040  -31.3460 C   0  0  0  0  0  0  0  0  0  0  0  0
   -5.2500   20.0360  -32.9210 N   0  0  0  0  0  0  0  0  0  0  0  0
   -5.6700   19.4580  -31.6300 C   0  0  0  0  0  0  0  0  0  0  0  0
   -6.0190   17.9690  -31.7550 C   0  0  0  0  0  0  0  0  0  0  0  0
   -4.9090   17.1820  -32.4910 C   0  0  0  0  0  0  0  0  0  0  0  0
   -5.3790   15.8220  -32.8040 N   0  0  0  0  0  0  0  0  0  0  0  0
   -4.7140   14.5880  -32.4010 C   0  0  0  0  0  0  0  0  0  0  0  0
   -5.3660   13.4520  -33.2130 C   0  0  0  0  0  0  0  0  0  0  0  0
   -6.3190   14.1020  -34.2280 C   0  0  0  0  0  0  0  0  0  0  0  0
   -6.2670   15.5340  -33.8730 C   0  0  0  0  0  0  0  0  0  0  0  0
   -6.9270   16.4210  -34.4810 O   0  0  0  0  0  0  0  0  0  0  0  0
   -4.3730   17.9090  -33.7580 C   0  0  0  0  0  0  0  0  0  0  0  0
   -5.1860   19.1620  -34.1020 C   0  0  0  0  0  0  0  0  0  0  0  0
   -7.0964   22.2018  -32.1612 H   0  0  0  0  0  0  0  0  0  0  0  0
   -7.5931   23.9189  -30.4236 H   0  0  0  0  0  0  0  0  0  0  0  0
   -5.1780   25.6320  -28.3820 H   0  0  0  0  0  0  0  0  0  0  0  0
   -4.1578   22.2266  -27.5635 H   0  0  0  0  0  0  0  0  0  0  0  0
   -3.5798   19.8024  -27.2575 H   0  0  0  0  0  0  0  0  0  0  0  0
   -0.0168   23.0755  -28.5865 H   0  0  0  0  0  0  0  0  0  0  0  0
    1.1952   20.4493  -29.2669 H   0  0  0  0  0  0  0  0  0  0  0  0
    1.5755   20.8432  -27.5961 H   0  0  0  0  0  0  0  0  0  0  0  0
    0.8425   18.2396  -28.6959 H   0  0  0  0  0  0  0  0  0  0  0  0
    1.1563   18.6111  -26.9813 H   0  0  0  0  0  0  0  0  0  0  0  0
   -1.4172   18.0457  -28.2661 H   0  0  0  0  0  0  0  0  0  0  0  0
   -1.1427   18.3500  -26.5568 H   0  0  0  0  0  0  0  0  0  0  0  0
   -2.8567   22.8704  -31.6050 H   0  0  0  0  0  0  0  0  0  0  0  0
   -4.8495   19.5712  -30.9062 H   0  0  0  0  0  0  0  0  0  0  0  0
   -6.5715   19.9920  -31.2951 H   0  0  0  0  0  0  0  0  0  0  0  0
   -6.1472   17.5469  -30.7473 H   0  0  0  0  0  0  0  0  0  0  0  0
   -6.9468   17.8817  -32.3394 H   0  0  0  0  0  0  0  0  0  0  0  0
   -4.0499   17.1170  -31.8071 H   0  0  0  0  0  0  0  0  0  0  0  0
   -3.6385   14.6457  -32.6247 H   0  0  0  0  0  0  0  0  0  0  0  0
   -4.8200   14.4147  -31.3199 H   0  0  0  0  0  0  0  0  0  0  0  0
   -4.5923   12.8744  -33.7400 H   0  0  0  0  0  0  0  0  0  0  0  0
   -5.9133   12.7653  -32.5505 H   0  0  0  0  0  0  0  0  0  0  0  0
   -5.9692   13.9383  -35.2580 H   0  0  0  0  0  0  0  0  0  0  0  0
   -7.3366   13.6858  -34.1911 H   0  0  0  0  0  0  0  0  0  0  0  0
   -3.3282   18.2038  -33.5804 H   0  0  0  0  0  0  0  0  0  0  0  0
   -4.4574   17.2121  -34.6049 H   0  0  0  0  0  0  0  0  0  0  0  0
   -4.7017   19.6987  -34.9311 H   0  0  0  0  0  0  0  0  0  0  0  0
   -6.2035   18.8715  -34.4024 H   0  0  0  0  0  0  0  0  0  0  0  0
  1  2  2  0
  2  3  1  0
  3  4  2  0
  4  5  1  0
  5  6  2  0
  6  7  1  0
  6  8  1  0
  8  9  1  0
  9 10  1  0
 10 11  2  0
 10 12  2  0
 10 13  1  0
 13 14  2  0
 14 15  1  0
 15 16  2  0
 16 17  1  0
 17 18  2  0
 17 19  1  0
 19 20  1  0
 20 21  1  0
  8 22  2  0
  2 23  1  0
 23 24  1  0
 24 25  1  0
 25 26  1  0
 26 27  1  0
 27 28  1  0
 28 29  1  0
 29 30  1  0
 30 31  1  0
 31 32  2  0
 26 33  1  0
 33 34  1  0
 22  3  1  0
 34 23  1  0
 18 13  1  0
 31 27  1  0
 21 16  1  0
  4 35  1  0
  5 36  1  0
  7 37  1  0
 14 38  1  0
 15 39  1  0
 18 40  1  0
 19 41  1  0
 19 42  1  0
 20 43  1  0
 20 44  1  0
 21 45  1  0
 21 46  1  0
 22 47  1  0
 24 48  1  0
 24 49  1  0
 25 50  1  0
 25 51  1  0
 26 52  1  0
 28 53  1  0
 28 54  1  0
 29 55  1  0
 29 56  1  0
 30 57  1  0
 30 58  1  0
 33 59  1  0
 33 60  1  0
 34 61  1  0
 34 62  1  0
M  CHG  1   9  -1
M  END
>  <UniqueID>  (47) 
44

>  <SMILES>  (47) 
O=C(c1ccc(O)c([N-]S(=O)(=O)c2ccc3c(c2)CCC3)c1)N1CCC(N2CCCC2=O)CC1

>  <Energy>  (47) 
94.76754780108176

>  <Genealogy>  (47) 
O=C(c1ccc(O)c([N-]S(=O)(=O)c2ccc3c(c2)CCC3)c1)N1CCC(N2CCCC2=O)CC1 (protonated)
O=C(c1ccc(O)c([N-]S(=O)(=O)c2ccc3c(c2)CCC3)c1)N1CCC(N2CCCC2=O)CC1 (3D coordinates assigned)
O=C(c1ccc(O)c([N-]S(=O)(=O)c2ccc3c(c2)CCC3)c1)N1CCC(N2CCCC2=O)CC1 (nonaromatic ring conformer: 94.76754780108176 kcal/mol)

>  <smiles>  (47) 
O=C(c1ccc(O)c(NS(=O)(=O)c2ccc3c(c2)CCC3)c1)N1CCC(N2CCCC2=O)CC1

>  <score_type>  (47) 
oracle

>  <origin>  (47) 
adgpu

>  <m_score__min__energy>  (47) 
-11.800000000000001

>  <m_primary>  (47) 
energy

$$$$
47:0
     RDKit          3D

 63 67  0  0  0  0  0  0  0  0999 V2000
   -2.2790   20.3280  -27.4160 C   0  0  0  0  0  0  0  0  0  0  0  0
   -2.4960   21.7940  -27.6430 C   0  0  0  0  0  0  0  0  0  0  0  0
   -1.7350   22.7410  -26.9420 C   0  0  0  0  0  0  0  0  0  0  0  0
   -1.9200   24.1060  -27.1780 C   0  0  0  0  0  0  0  0  0  0  0  0
   -2.8500   24.5350  -28.1290 C   0  0  0  0  0  0  0  0  0  0  0  0
   -3.5950   23.5960  -28.8560 C   0  0  0  0  0  0  0  0  0  0  0  0
   -4.7470   24.1330  -30.0760 S   0  0  0  0  0  0  0  0  0  0  0  0
   -4.1930   25.3020  -30.8410 O   0  0  0  0  0  0  0  0  0  0  0  0
   -6.0050   24.5700  -29.3780 O   0  0  0  0  0  0  0  0  0  0  0  0
   -5.0890   22.8200  -31.2210 C   0  0  0  0  0  0  0  0  0  0  0  0
   -4.0250   22.3000  -31.9750 C   0  0  0  0  0  0  0  0  0  0  0  0
   -4.2110   21.2170  -32.8470 C   0  0  0  0  0  0  0  0  0  0  0  0
   -3.0270   20.6130  -33.5110 C   0  0  0  0  0  0  0  0  0  0  0  0
   -1.8930   21.1200  -33.3030 O   0  0  0  0  0  0  0  0  0  0  0  0
   -3.1030   19.4510  -34.3590 N   0  0  0  0  0  0  0  0  0  0  0  0
   -3.7790   18.2210  -34.0720 C   0  0  0  0  0  0  0  0  0  0  0  0
   -5.1440   18.1330  -34.3870 C   0  0  0  0  0  0  0  0  0  0  0  0
   -5.8650   16.9740  -34.1020 C   0  0  0  0  0  0  0  0  0  0  0  0
   -5.2240   15.8810  -33.5240 C   0  0  0  0  0  0  0  0  0  0  0  0
   -3.8560   15.9370  -33.2500 C   0  0  0  0  0  0  0  0  0  0  0  0
   -3.1130   17.0960  -33.5260 C   0  0  0  0  0  0  0  0  0  0  0  0
   -1.3630   17.0480  -33.2480 S   0  0  0  0  0  0  0  0  0  0  0  0
   -1.0860   16.1240  -32.0930 O   0  0  0  0  0  0  0  0  0  0  0  0
   -0.6600   16.5030  -34.4590 O   0  0  0  0  0  0  0  0  0  0  0  0
   -0.7520   18.6440  -32.8950 N   0  0  0  0  0  0  0  0  0  0  0  0
   -0.8180   18.9680  -31.4720 C   0  0  0  0  0  0  0  0  0  0  0  0
    0.2140   20.0600  -31.2430 C   0  0  0  0  0  0  0  0  0  0  0  0
    1.2400   19.8680  -32.3510 C   0  0  0  0  0  0  0  0  0  0  0  0
    0.6550   18.8000  -33.2720 C   0  0  0  0  0  0  0  0  0  0  0  0
   -5.5060   20.7280  -33.0560 C   0  0  0  0  0  0  0  0  0  0  0  0
   -6.5870   21.2280  -32.3220 C   0  0  0  0  0  0  0  0  0  0  0  0
   -7.8680   20.6850  -32.5110 C   0  0  0  0  0  0  0  0  0  0  0  0
   -8.9490   21.1600  -31.7700 C   0  0  0  0  0  0  0  0  0  0  0  0
   -8.7640   22.1770  -30.8360 C   0  0  0  0  0  0  0  0  0  0  0  0
   -7.4990   22.7320  -30.6400 C   0  0  0  0  0  0  0  0  0  0  0  0
   -6.3880   22.2710  -31.3800 C   0  0  0  0  0  0  0  0  0  0  0  0
   -3.4180   22.2260  -28.6090 C   0  0  0  0  0  0  0  0  0  0  0  0
   -2.2489   20.1248  -26.3353 H   0  0  0  0  0  0  0  0  0  0  0  0
   -3.1029   19.7603  -27.8731 H   0  0  0  0  0  0  0  0  0  0  0  0
   -1.3260   20.0233  -27.8731 H   0  0  0  0  0  0  0  0  0  0  0  0
   -0.9902   22.4082  -26.2041 H   0  0  0  0  0  0  0  0  0  0  0  0
   -1.3320   24.8448  -26.6137 H   0  0  0  0  0  0  0  0  0  0  0  0
   -2.9975   25.6104  -28.3072 H   0  0  0  0  0  0  0  0  0  0  0  0
   -3.0260   22.7506  -31.8802 H   0  0  0  0  0  0  0  0  0  0  0  0
   -5.6496   18.9861  -34.8630 H   0  0  0  0  0  0  0  0  0  0  0  0
   -6.9392   16.9230  -34.3335 H   0  0  0  0  0  0  0  0  0  0  0  0
   -5.7959   14.9728  -33.2831 H   0  0  0  0  0  0  0  0  0  0  0  0
   -3.3538   15.0617  -32.8122 H   0  0  0  0  0  0  0  0  0  0  0  0
   -1.3170   19.3390  -33.4230 H   0  0  0  0  0  0  0  0  0  0  0  0
   -1.8227   19.3302  -31.2086 H   0  0  0  0  0  0  0  0  0  0  0  0
   -0.6158   18.0851  -30.8478 H   0  0  0  0  0  0  0  0  0  0  0  0
   -0.2518   21.0539  -31.3149 H   0  0  0  0  0  0  0  0  0  0  0  0
    0.6679   19.9976  -30.2430 H   0  0  0  0  0  0  0  0  0  0  0  0
    1.3914   20.8084  -32.9012 H   0  0  0  0  0  0  0  0  0  0  0  0
    2.2197   19.5680  -31.9509 H   0  0  0  0  0  0  0  0  0  0  0  0
    0.7330   19.1203  -34.3214 H   0  0  0  0  0  0  0  0  0  0  0  0
    1.1994   17.8494  -33.1715 H   0  0  0  0  0  0  0  0  0  0  0  0
   -5.6756   19.9415  -33.8061 H   0  0  0  0  0  0  0  0  0  0  0  0
   -8.0192   19.8815  -33.2468 H   0  0  0  0  0  0  0  0  0  0  0  0
   -9.9502   20.7309  -31.9231 H   0  0  0  0  0  0  0  0  0  0  0  0
   -9.6195   22.5443  -30.2501 H   0  0  0  0  0  0  0  0  0  0  0  0
   -7.3657   23.5366  -29.9018 H   0  0  0  0  0  0  0  0  0  0  0  0
   -4.0045   21.4873  -29.1750 H   0  0  0  0  0  0  0  0  0  0  0  0
  1  2  1  0
  2  3  2  0
  3  4  1  0
  4  5  2  0
  5  6  1  0
  6  7  1  0
  7  8  2  0
  7  9  2  0
  7 10  1  0
 10 11  2  0
 11 12  1  0
 12 13  1  0
 13 14  2  0
 13 15  1  0
 15 16  1  0
 16 17  2  0
 17 18  1  0
 18 19  2  0
 19 20  1  0
 20 21  2  0
 21 22  1  0
 22 23  2  0
 22 24  2  0
 22 25  1  0
 25 26  1  0
 26 27  1  0
 27 28  1  0
 28 29  1  0
 12 30  2  0
 30 31  1  0
 31 32  2  0
 32 33  1  0
 33 34  2  0
 34 35  1  0
 35 36  2  0
  6 37  2  0
 37  2  1  0
 36 10  1  0
 21 16  1  0
 29 25  1  0
 36 31  1  0
  1 38  1  0
  1 39  1  0
  1 40  1  0
  3 41  1  0
  4 42  1  0
  5 43  1  0
 11 44  1  0
 17 45  1  0
 18 46  1  0
 19 47  1  0
 20 48  1  0
 25 49  1  0
 26 50  1  0
 26 51  1  0
 27 52  1  0
 27 53  1  0
 28 54  1  0
 28 55  1  0
 29 56  1  0
 29 57  1  0
 30 58  1  0
 32 59  1  0
 33 60  1  0
 34 61  1  0
 35 62  1  0
 37 63  1  0
M  CHG  2  15  -1  25   1
M  END
>  <UniqueID>  (48) 
45

>  <SMILES>  (48) 
Cc1cccc(S(=O)(=O)c2cc(C(=O)[N-]c3ccccc3S(=O)(=O)[NH+]3CCCC3)cc3ccccc23)c1

>  <Energy>  (48) 
85.28044125992844

>  <Genealogy>  (48) 
Cc1cccc(S(=O)(=O)c2cc(C(=O)[N-]c3ccccc3S(=O)(=O)[NH+]3CCCC3)cc3ccccc23)c1 (protonated)
Cc1cccc(S(=O)(=O)c2cc(C(=O)[N-]c3ccccc3S(=O)(=O)[NH+]3CCCC3)cc3ccccc23)c1 (3D coordinates assigned)
Cc1cccc(S(=O)(=O)c2cc(C(=O)[N-]c3ccccc3S(=O)(=O)[NH+]3CCCC3)cc3ccccc23)c1 (nonaromatic ring conformer: 85.28044125992844 kcal/mol)

>  <smiles>  (48) 
Cc1cccc(S(=O)(=O)c2cc(C(=O)Nc3ccccc3S(=O)(=O)N3CCCC3)cc3ccccc23)c1

>  <score_type>  (48) 
oracle

>  <origin>  (48) 
adgpu

>  <m_score__min__energy>  (48) 
-13.75

>  <m_primary>  (48) 
energy

$$$$
48:0
     RDKit          3D

 49 52  0  0  0  0  0  0  0  0999 V2000
   -4.6110   13.5770  -31.3330 C   0  0  0  0  0  0  0  0  0  0  0  0
   -3.6270   14.1930  -32.2190 N   0  0  0  0  0  0  0  0  0  0  0  0
   -2.3860   13.5640  -32.6690 C   0  0  0  0  0  0  0  0  0  0  0  0
   -1.6920   14.6080  -33.5890 C   0  0  0  0  0  0  0  0  0  0  0  0
   -2.6110   15.7810  -33.5360 C   0  0  0  0  0  0  0  0  0  0  0  0
   -2.4460   17.0340  -34.1280 C   0  0  0  0  0  0  0  0  0  0  0  0
   -3.4450   18.0030  -33.9310 C   0  0  0  0  0  0  0  0  0  0  0  0
   -4.5910   17.7060  -33.1560 C   0  0  0  0  0  0  0  0  0  0  0  0
   -5.8340   18.9340  -32.9030 S   0  0  0  0  0  0  0  0  0  0  0  0
   -6.8600   18.8260  -33.9990 O   0  0  0  0  0  0  0  0  0  0  0  0
   -6.5290   18.7020  -31.5830 O   0  0  0  0  0  0  0  0  0  0  0  0
   -5.1710   20.5360  -32.9170 N   0  0  0  0  0  0  0  0  0  0  0  0
   -5.8340   21.6640  -32.3320 C   0  0  0  0  0  0  0  0  0  0  0  0
   -5.0940   22.7290  -31.7950 C   0  0  0  0  0  0  0  0  0  0  0  0
   -5.7410   23.8470  -31.2360 C   0  0  0  0  0  0  0  0  0  0  0  0
   -4.9620   24.9800  -30.6810 C   0  0  0  0  0  0  0  0  0  0  0  0
   -5.5680   26.0260  -30.3210 O   0  0  0  0  0  0  0  0  0  0  0  0
   -3.5320   24.9240  -30.5130 N   0  0  0  0  0  0  0  0  0  0  0  0
   -2.8280   24.3550  -29.4010 C   0  0  0  0  0  0  0  0  0  0  0  0
   -3.3250   23.1760  -28.8250 C   0  0  0  0  0  0  0  0  0  0  0  0
   -2.6430   22.5600  -27.7690 C   0  0  0  0  0  0  0  0  0  0  0  0
   -1.4680   23.1300  -27.2700 C   0  0  0  0  0  0  0  0  0  0  0  0
   -0.9870   24.3280  -27.8110 C   0  0  0  0  0  0  0  0  0  0  0  0
   -1.6710   24.9530  -28.8610 C   0  0  0  0  0  0  0  0  0  0  0  0
   -1.2080   26.1750  -29.3440 O   0  0  0  0  0  0  0  0  0  0  0  0
   -7.1460   23.8730  -31.1990 C   0  0  0  0  0  0  0  0  0  0  0  0
   -7.8890   22.8270  -31.7500 C   0  0  0  0  0  0  0  0  0  0  0  0
   -7.2440   21.7260  -32.3270 C   0  0  0  0  0  0  0  0  0  0  0  0
   -8.0230   20.7030  -32.8710 O   0  0  0  0  0  0  0  0  0  0  0  0
   -4.7280   16.4300  -32.5740 C   0  0  0  0  0  0  0  0  0  0  0  0
   -3.7100   15.4940  -32.7730 C   0  0  0  0  0  0  0  0  0  0  0  0
   -4.3247   13.7562  -30.2861 H   0  0  0  0  0  0  0  0  0  0  0  0
   -5.6013   14.0167  -31.5228 H   0  0  0  0  0  0  0  0  0  0  0  0
   -4.6481   12.4941  -31.5228 H   0  0  0  0  0  0  0  0  0  0  0  0
   -1.7438   13.3247  -31.8086 H   0  0  0  0  0  0  0  0  0  0  0  0
   -2.5796   12.6207  -33.2007 H   0  0  0  0  0  0  0  0  0  0  0  0
   -0.6956   14.8710  -33.2041 H   0  0  0  0  0  0  0  0  0  0  0  0
   -1.5278   14.2372  -34.6115 H   0  0  0  0  0  0  0  0  0  0  0  0
   -1.5557   17.2579  -34.7341 H   0  0  0  0  0  0  0  0  0  0  0  0
   -3.3350   18.9999  -34.3828 H   0  0  0  0  0  0  0  0  0  0  0  0
   -3.9948   22.6894  -31.8112 H   0  0  0  0  0  0  0  0  0  0  0  0
   -4.2569   22.7327  -29.2058 H   0  0  0  0  0  0  0  0  0  0  0  0
   -3.0313   21.6281  -27.3322 H   0  0  0  0  0  0  0  0  0  0  0  0
   -0.9216   22.6371  -26.4524 H   0  0  0  0  0  0  0  0  0  0  0  0
   -0.0681   24.7803  -27.4098 H   0  0  0  0  0  0  0  0  0  0  0  0
   -7.6641   24.7238  -30.7324 H   0  0  0  0  0  0  0  0  0  0  0  0
   -8.9881   22.8681  -31.7307 H   0  0  0  0  0  0  0  0  0  0  0  0
   -7.6920   19.7430  -32.9360 H   0  0  0  0  0  0  0  0  0  0  0  0
   -5.6162   16.1766  -31.9766 H   0  0  0  0  0  0  0  0  0  0  0  0
  1  2  1  0
  2  3  1  0
  3  4  1  0
  4  5  1  0
  5  6  2  0
  6  7  1  0
  7  8  2  0
  8  9  1  0
  9 10  2  0
  9 11  2  0
  9 12  1  0
 12 13  1  0
 13 14  2  0
 14 15  1  0
 15 16  1  0
 16 17  2  0
 16 18  1  0
 18 19  1  0
 19 20  2  0
 20 21  1  0
 21 22  2  0
 22 23  1  0
 23 24  2  0
 24 25  1  0
 15 26  2  0
 26 27  1  0
 27 28  2  0
 28 29  1  0
  8 30  1  0
 30 31  2  0
 31  2  1  0
 31  5  1  0
 28 13  1  0
 24 19  1  0
  1 32  1  0
  1 33  1  0
  1 34  1  0
  3 35  1  0
  3 36  1  0
  4 37  1  0
  4 38  1  0
  6 39  1  0
  7 40  1  0
 14 41  1  0
 20 42  1  0
 21 43  1  0
 22 44  1  0
 23 45  1  0
 26 46  1  0
 27 47  1  0
 29 48  1  0
 30 49  1  0
M  CHG  3  12  -1  18  -1  25  -1
M  END
>  <UniqueID>  (49) 
46

>  <SMILES>  (49) 
CN1CCc2ccc(S(=O)(=O)[N-]c3cc(C(=O)[N-]c4ccccc4[O-])ccc3O)cc21

>  <Energy>  (49) 
77.87723987118665

>  <Genealogy>  (49) 
CN1CCc2ccc(S(=O)(=O)[N-]c3cc(C(=O)[N-]c4ccccc4[O-])ccc3O)cc21 (protonated)
CN1CCc2ccc(S(=O)(=O)[N-]c3cc(C(=O)[N-]c4ccccc4[O-])ccc3O)cc21 (3D coordinates assigned)
CN1CCc2ccc(S(=O)(=O)[N-]c3cc(C(=O)[N-]c4ccccc4[O-])ccc3O)cc21 (nonaromatic ring conformer: 77.87723987118665 kcal/mol)

>  <smiles>  (49) 
CN1CCc2ccc(S(=O)(=O)Nc3cc(C(=O)Nc4ccccc4O)ccc3O)cc21

>  <score_type>  (49) 
oracle

>  <origin>  (49) 
adgpu

>  <m_score__min__energy>  (49) 
-13.49

>  <m_primary>  (49) 
energy

$$$$
