0:0
     RDKit          3D

 52 55  0  0  0  0  0  0  0  0999 V2000
   -0.0660   17.8930  -31.2710 C   0  0  0  0  0  0  0  0  0  0  0  0
    0.4720   18.7110  -30.1450 C   0  0  0  0  0  0  0  0  0  0  0  0
   -0.2670   19.3390  -29.1640 C   0  0  0  0  0  0  0  0  0  0  0  0
    0.7070   19.9340  -28.3820 C   0  0  0  0  0  0  0  0  0  0  0  0
    0.5200   20.6810  -27.3350 N   0  0  0  0  0  0  0  0  0  0  0  0
   -1.0340   21.1020  -26.6850 S   0  0  0  0  0  0  0  0  0  0  0  0
   -1.8860   19.8650  -26.6290 O   0  0  0  0  0  0  0  0  0  0  0  0
   -0.8570   21.6420  -25.2950 O   0  0  0  0  0  0  0  0  0  0  0  0
   -1.8050   22.3340  -27.6790 C   0  0  0  0  0  0  0  0  0  0  0  0
   -3.1790   22.2670  -27.9440 C   0  0  0  0  0  0  0  0  0  0  0  0
   -3.7700   23.1800  -28.8210 C   0  0  0  0  0  0  0  0  0  0  0  0
   -2.9870   24.1560  -29.4590 C   0  0  0  0  0  0  0  0  0  0  0  0
   -3.5380   25.0260  -30.4610 N   0  0  0  0  0  0  0  0  0  0  0  0
   -4.9350   25.1850  -30.7540 C   0  0  0  0  0  0  0  0  0  0  0  0
   -5.4110   26.3490  -30.8080 O   0  0  0  0  0  0  0  0  0  0  0  0
   -5.8220   24.0260  -31.0140 C   0  0  0  0  0  0  0  0  0  0  0  0
   -6.9380   23.7980  -30.1930 C   0  0  0  0  0  0  0  0  0  0  0  0
   -7.7230   22.6590  -30.3730 C   0  0  0  0  0  0  0  0  0  0  0  0
   -7.4040   21.7350  -31.3710 C   0  0  0  0  0  0  0  0  0  0  0  0
   -6.3050   21.9630  -32.2180 C   0  0  0  0  0  0  0  0  0  0  0  0
   -5.9230   21.0250  -33.2320 N   0  0  0  0  0  0  0  0  0  0  0  0
   -4.7970   19.7290  -32.9970 S   0  0  0  0  0  0  0  0  0  0  0  0
   -5.2820   18.8500  -31.8770 O   0  0  0  0  0  0  0  0  0  0  0  0
   -4.7020   18.9160  -34.2560 O   0  0  0  0  0  0  0  0  0  0  0  0
   -3.2090   20.3940  -32.6360 C   0  0  0  0  0  0  0  0  0  0  0  0
   -2.2010   20.3540  -33.6100 C   0  0  0  0  0  0  0  0  0  0  0  0
   -0.9380   20.8880  -33.3370 C   0  0  0  0  0  0  0  0  0  0  0  0
   -0.6760   21.4630  -32.0910 C   0  0  0  0  0  0  0  0  0  0  0  0
   -1.6770   21.5030  -31.1140 C   0  0  0  0  0  0  0  0  0  0  0  0
   -2.9400   20.9690  -31.3850 C   0  0  0  0  0  0  0  0  0  0  0  0
   -5.5430   23.1230  -32.0550 C   0  0  0  0  0  0  0  0  0  0  0  0
   -1.6310   24.2710  -29.1320 C   0  0  0  0  0  0  0  0  0  0  0  0
   -1.0420   23.3630  -28.2480 C   0  0  0  0  0  0  0  0  0  0  0  0
    1.9310   19.6550  -28.8660 N   0  0  0  0  0  0  0  0  0  0  0  0
    1.7510   18.9160  -29.9230 O   0  0  0  0  0  0  0  0  0  0  0  0
   -0.6283   17.0381  -30.8672 H   0  0  0  0  0  0  0  0  0  0  0  0
   -0.7336   18.5125  -31.8879 H   0  0  0  0  0  0  0  0  0  0  0  0
    0.7672   17.5254  -31.8879 H   0  0  0  0  0  0  0  0  0  0  0  0
   -1.3592   19.3612  -29.0354 H   0  0  0  0  0  0  0  0  0  0  0  0
   -3.7940   21.4937  -27.4604 H   0  0  0  0  0  0  0  0  0  0  0  0
   -4.8522   23.1343  -29.0125 H   0  0  0  0  0  0  0  0  0  0  0  0
   -7.1944   24.5207  -29.4044 H   0  0  0  0  0  0  0  0  0  0  0  0
   -8.5965   22.4878  -29.7267 H   0  0  0  0  0  0  0  0  0  0  0  0
   -8.0135   20.8277  -31.4944 H   0  0  0  0  0  0  0  0  0  0  0  0
   -2.4045   19.9012  -34.5916 H   0  0  0  0  0  0  0  0  0  0  0  0
   -0.1500   20.8554  -34.1038 H   0  0  0  0  0  0  0  0  0  0  0  0
    0.3175   21.8844  -31.8779 H   0  0  0  0  0  0  0  0  0  0  0  0
   -1.4699   21.9547  -30.1326 H   0  0  0  0  0  0  0  0  0  0  0  0
   -3.7252   20.9997  -30.6152 H   0  0  0  0  0  0  0  0  0  0  0  0
   -4.7155   23.3320  -32.7490 H   0  0  0  0  0  0  0  0  0  0  0  0
   -1.0272   25.0783  -29.5721 H   0  0  0  0  0  0  0  0  0  0  0  0
    0.0251   23.4562  -27.9976 H   0  0  0  0  0  0  0  0  0  0  0  0
  1  2  1  0
  2  3  2  0
  3  4  1  0
  4  5  2  3
  5  6  1  0
  6  7  2  0
  6  8  2  0
  6  9  1  0
  9 10  2  0
 10 11  1  0
 11 12  2  0
 12 13  1  0
 13 14  1  0
 14 15  2  0
 14 16  1  0
 16 17  2  0
 17 18  1  0
 18 19  2  0
 19 20  1  0
 20 21  1  0
 21 22  1  0
 22 23  2  0
 22 24  2  0
 22 25  1  0
 25 26  2  0
 26 27  1  0
 27 28  2  0
 28 29  1  0
 29 30  2  0
 20 31  2  0
 12 32  1  0
 32 33  2  0
  4 34  1  0
 34 35  1  0
 35  2  1  0
 33  9  1  0
 31 16  1  0
 30 25  1  0
  1 36  1  0
  1 37  1  0
  1 38  1  0
  3 39  1  0
 10 40  1  0
 11 41  1  0
 17 42  1  0
 18 43  1  0
 19 44  1  0
 26 45  1  0
 27 46  1  0
 28 47  1  0
 29 48  1  0
 30 49  1  0
 31 50  1  0
 32 51  1  0
 33 52  1  0
M  CHG  3  13  -1  21  -1  34  -1
M  END
>  <UniqueID>  (1) 
1

>  <SMILES>  (1) 
Cc1cc(=NS(=O)(=O)c2ccc([N-]C(=O)c3cccc([N-]S(=O)(=O)c4ccccc4)c3)cc2)[n-]o1

>  <Energy>  (1) 
96.13011145624638

>  <Genealogy>  (1) 
Cc1cc(=NS(=O)(=O)c2ccc([N-]C(=O)c3cccc([N-]S(=O)(=O)c4ccccc4)c3)cc2)[n-]o1 (protonated)
Cc1cc(=NS(=O)(=O)c2ccc([N-]C(=O)c3cccc([N-]S(=O)(=O)c4ccccc4)c3)cc2)[n-]o1 (3D coordinates assigned)
Cc1cc(=NS(=O)(=O)c2ccc([N-]C(=O)c3cccc([N-]S(=O)(=O)c4ccccc4)c3)cc2)[n-]o1 (optimized conformer: 96.13011145624638 kcal/mol)

>  <smiles>  (1) 
Cc1cc(=NS(=O)(=O)c2ccc(NC(=O)c3cccc(NS(=O)(=O)c4ccccc4)c3)cc2)[nH]o1

>  <score_type>  (1) 
oracle

>  <origin>  (1) 
adgpu

>  <m_score__min__energy>  (1) 
-13.130000000000001

>  <m_primary>  (1) 
energy

$$$$
1:0
     RDKit          3D

 68 72  0  0  0  0  0  0  0  0999 V2000
   -2.0060   25.3310  -28.8130 O   0  0  0  0  0  0  0  0  0  0  0  0
   -2.5680   24.5180  -29.5950 C   0  0  0  0  0  0  0  0  0  0  0  0
   -3.5710   25.0130  -30.4920 N   0  0  0  0  0  0  0  0  0  0  0  0
   -4.8350   24.3960  -30.7750 C   0  0  0  0  0  0  0  0  0  0  0  0
   -6.0290   24.8530  -30.1910 C   0  0  0  0  0  0  0  0  0  0  0  0
   -7.2450   24.2360  -30.4990 C   0  0  0  0  0  0  0  0  0  0  0  0
   -7.2940   23.1760  -31.4200 C   0  0  0  0  0  0  0  0  0  0  0  0
   -8.6010   22.4820  -31.7120 C   0  0  0  0  0  0  0  0  0  0  0  0
   -8.4210   21.4880  -32.6570 F   0  0  0  0  0  0  0  0  0  0  0  0
   -9.1180   21.9030  -30.5670 F   0  0  0  0  0  0  0  0  0  0  0  0
   -9.5080   23.4060  -32.1970 F   0  0  0  0  0  0  0  0  0  0  0  0
   -6.0960   22.7200  -31.9980 C   0  0  0  0  0  0  0  0  0  0  0  0
   -4.8800   23.3390  -31.6890 C   0  0  0  0  0  0  0  0  0  0  0  0
   -2.1400   23.0990  -29.5980 C   0  0  0  0  0  0  0  0  0  0  0  0
   -2.0460   22.3720  -28.3990 C   0  0  0  0  0  0  0  0  0  0  0  0
   -1.6540   21.0320  -28.4160 C   0  0  0  0  0  0  0  0  0  0  0  0
   -1.3630   20.3970  -29.6250 C   0  0  0  0  0  0  0  0  0  0  0  0
   -0.9710   19.0980  -29.6200 F   0  0  0  0  0  0  0  0  0  0  0  0
   -1.4630   21.1070  -30.8330 C   0  0  0  0  0  0  0  0  0  0  0  0
   -1.1840   20.4620  -32.0860 N   0  0  0  0  0  0  0  0  0  0  0  0
   -0.3150   19.2870  -32.1420 C   0  0  0  0  0  0  0  0  0  0  0  0
   -0.9520   18.1750  -33.0030 C   0  0  0  0  0  0  0  0  0  0  0  0
   -1.9430   18.6580  -34.0080 N   0  0  0  0  0  0  0  0  0  0  0  0
   -3.3460   18.5580  -33.5260 C   0  0  0  0  0  0  0  0  0  0  0  0
   -4.2730   17.6010  -34.3640 C   0  0  2  0  0  0  0  0  0  0  0  0
   -3.6160   17.4420  -35.6040 O   0  0  0  0  0  0  0  0  0  0  0  0
   -5.7070   18.1560  -34.6590 C   0  0  0  0  0  0  0  0  0  0  0  0
   -6.4710   18.5000  -33.4560 N   0  0  0  0  0  0  0  0  0  0  0  0
   -6.2110   19.5020  -32.6000 C   0  0  0  0  0  0  0  0  0  0  0  0
   -7.1060   19.5290  -31.5940 N   0  0  0  0  0  0  0  0  0  0  0  0
   -7.9080   18.4840  -31.8920 C   0  0  0  0  0  0  0  0  0  0  0  0
   -7.5300   17.8470  -33.0180 N   0  0  0  0  0  0  0  0  0  0  0  0
   -4.3870   16.2060  -33.7130 C   0  0  0  0  0  0  0  0  0  0  0  0
   -3.8770   15.0630  -34.3670 C   0  0  0  0  0  0  0  0  0  0  0  0
   -3.9410   13.8010  -33.7730 C   0  0  0  0  0  0  0  0  0  0  0  0
   -4.4920   13.6520  -32.5020 C   0  0  0  0  0  0  0  0  0  0  0  0
   -4.5470   12.4270  -31.9250 F   0  0  0  0  0  0  0  0  0  0  0  0
   -4.9580   14.7700  -31.8120 C   0  0  0  0  0  0  0  0  0  0  0  0
   -4.8950   16.0400  -32.3970 C   0  0  0  0  0  0  0  0  0  0  0  0
   -5.3040   17.0980  -31.6520 F   0  0  0  0  0  0  0  0  0  0  0  0
   -1.6050   20.0220  -34.4770 C   0  0  0  0  0  0  0  0  0  0  0  0
   -1.6650   21.0510  -33.3360 C   0  0  0  0  0  0  0  0  0  0  0  0
   -1.8560   22.4540  -30.8130 C   0  0  0  0  0  0  0  0  0  0  0  0
   -6.0065   25.6995  -29.4889 H   0  0  0  0  0  0  0  0  0  0  0  0
   -8.1707   24.5830  -30.0166 H   0  0  0  0  0  0  0  0  0  0  0  0
   -6.1150   21.8713  -32.6975 H   0  0  0  0  0  0  0  0  0  0  0  0
   -3.9529   22.9917  -32.1685 H   0  0  0  0  0  0  0  0  0  0  0  0
   -2.2824   22.8610  -27.4425 H   0  0  0  0  0  0  0  0  0  0  0  0
   -1.5740   20.4735  -27.4717 H   0  0  0  0  0  0  0  0  0  0  0  0
    0.6518   19.5740  -32.5812 H   0  0  0  0  0  0  0  0  0  0  0  0
   -0.1728   18.9044  -31.1205 H   0  0  0  0  0  0  0  0  0  0  0  0
   -0.1462   17.6526  -33.5395 H   0  0  0  0  0  0  0  0  0  0  0  0
   -1.5035   17.5222  -32.3105 H   0  0  0  0  0  0  0  0  0  0  0  0
   -3.3249   18.1904  -32.4895 H   0  0  0  0  0  0  0  0  0  0  0  0
   -3.7765   19.5654  -33.6247 H   0  0  0  0  0  0  0  0  0  0  0  0
   -2.6600   17.6910  -35.4930 H   0  0  0  0  0  0  0  0  0  0  0  0
   -5.6077   19.0609  -35.2765 H   0  0  0  0  0  0  0  0  0  0  0  0
   -6.2604   17.3542  -35.1697 H   0  0  0  0  0  0  0  0  0  0  0  0
   -5.3752   20.2091  -32.7069 H   0  0  0  0  0  0  0  0  0  0  0  0
   -8.7741   18.1857  -31.2830 H   0  0  0  0  0  0  0  0  0  0  0  0
   -3.4211   15.1688  -35.3624 H   0  0  0  0  0  0  0  0  0  0  0  0
   -3.5553   12.9219  -34.3100 H   0  0  0  0  0  0  0  0  0  0  0  0
   -5.3777   14.6535  -30.8019 H   0  0  0  0  0  0  0  0  0  0  0  0
   -0.5874   20.0127  -34.8945 H   0  0  0  0  0  0  0  0  0  0  0  0
   -2.3431   20.3136  -35.2387 H   0  0  0  0  0  0  0  0  0  0  0  0
   -1.0350   21.9148  -33.5946 H   0  0  0  0  0  0  0  0  0  0  0  0
   -2.7091   21.3690  -33.1996 H   0  0  0  0  0  0  0  0  0  0  0  0
   -1.9425   23.0102  -31.7581 H   0  0  0  0  0  0  0  0  0  0  0  0
  1  2  2  0
  2  3  1  0
  3  4  1  0
  4  5  2  0
  5  6  1  0
  6  7  2  0
  7  8  1  0
  8  9  1  0
  8 10  1  0
  8 11  1  0
  7 12  1  0
 12 13  2  0
  2 14  1  0
 14 15  2  0
 15 16  1  0
 16 17  2  0
 17 18  1  0
 17 19  1  0
 19 20  1  0
 20 21  1  0
 21 22  1  0
 22 23  1  0
 23 24  1  0
 24 25  1  0
 25 26  1  6
 25 27  1  0
 27 28  1  0
 28 29  1  0
 29 30  2  0
 30 31  1  0
 31 32  2  0
 25 33  1  0
 33 34  2  0
 34 35  1  0
 35 36  2  0
 36 37  1  0
 36 38  1  0
 38 39  2  0
 39 40  1  0
 23 41  1  0
 41 42  1  0
 19 43  2  0
 13  4  1  0
 43 14  1  0
 42 20  1  0
 32 28  1  0
 39 33  1  0
  5 44  1  0
  6 45  1  0
 12 46  1  0
 13 47  1  0
 15 48  1  0
 16 49  1  0
 21 50  1  0
 21 51  1  0
 22 52  1  0
 22 53  1  0
 24 54  1  0
 24 55  1  0
 26 56  1  0
 27 57  1  0
 27 58  1  0
 29 59  1  0
 31 60  1  0
 34 61  1  0
 35 62  1  0
 38 63  1  0
 41 64  1  0
 41 65  1  0
 42 66  1  0
 42 67  1  0
 43 68  1  0
M  CHG  1   3  -1
M  END
>  <UniqueID>  (2) 
2

>  <SMILES>  (2) 
O=C([N-]c1ccc(C(F)(F)F)cc1)c1ccc(F)c(N2CCN(C[C@](O)(Cn3cncn3)c3ccc(F)cc3F)CC2)c1

>  <Energy>  (2) 
140.11041672589508

>  <Genealogy>  (2) 
O=C([N-]c1ccc(C(F)(F)F)cc1)c1ccc(F)c(N2CCN(CC(O)(Cn3cncn3)c3ccc(F)cc3F)CC2)c1 (protonated)
O=C([N-]c1ccc(C(F)(F)F)cc1)c1ccc(F)c(N2CCN(C[C@](O)(Cn3cncn3)c3ccc(F)cc3F)CC2)c1 (chirality)
O=C([N-]c1ccc(C(F)(F)F)cc1)c1ccc(F)c(N2CCN(C[C@](O)(Cn3cncn3)c3ccc(F)cc3F)CC2)c1 (3D coordinates assigned)
O=C([N-]c1ccc(C(F)(F)F)cc1)c1ccc(F)c(N2CCN(C[C@](O)(Cn3cncn3)c3ccc(F)cc3F)CC2)c1 (nonaromatic ring conformer: 140.11041672589508 kcal/mol)

>  <smiles>  (2) 
O=C(Nc1ccc(C(F)(F)F)cc1)c1ccc(F)c(N2CCN(CC(O)(Cn3cncn3)c3ccc(F)cc3F)CC2)c1

>  <score_type>  (2) 
oracle

>  <origin>  (2) 
adgpu

>  <m_score__min__energy>  (2) 
-10.529999999999999

>  <m_primary>  (2) 
energy

$$$$
2:0
     RDKit          3D

 59 63  0  0  0  0  0  0  0  0999 V2000
    0.3957   16.0190  -37.0468 H   0  0  0  0  0  0  0  0  0  0  0  0
   -0.5340   15.8360  -36.4880 C   0  0  0  0  0  0  0  0  0  0  0  0
   -1.0670   16.8200  -35.7190 N   0  0  0  0  0  0  0  0  0  0  0  0
   -2.2070   16.6360  -34.9990 C   0  0  0  0  0  0  0  0  0  0  0  0
   -2.7280   17.7400  -34.2420 N   0  0  0  0  0  0  0  0  0  0  0  0
   -3.9800   18.0050  -34.0060 C   0  0  0  0  0  0  0  0  0  0  0  0
   -4.2970   19.1360  -33.3080 N   0  0  0  0  0  0  0  0  0  0  0  0
   -5.6030   19.3840  -33.0390 C   0  0  0  0  0  0  0  0  0  0  0  0
   -6.5960   18.5610  -33.4490 C   0  0  0  0  0  0  0  0  0  0  0  0
   -7.7990   19.0470  -33.0950 N   0  0  0  0  0  0  0  0  0  0  0  0
   -7.4630   20.2010  -32.4580 C   0  0  0  0  0  0  0  0  0  0  0  0
   -8.3260   20.9610  -31.9430 O   0  0  0  0  0  0  0  0  0  0  0  0
   -6.1250   20.4450  -32.4050 N   0  0  0  0  0  0  0  0  0  0  0  0
   -5.4330   21.5700  -31.8290 C   0  0  0  0  0  0  0  0  0  0  0  0
   -4.1290   21.4230  -31.3300 C   0  0  0  0  0  0  0  0  0  0  0  0
   -3.6378   20.4395  -31.3672 H   0  0  0  0  0  0  0  0  0  0  0  0
   -3.4500   22.5180  -30.7860 C   0  0  0  0  0  0  0  0  0  0  0  0
   -2.4325   22.3891  -30.3885 H   0  0  0  0  0  0  0  0  0  0  0  0
   -4.0620   23.7820  -30.7450 C   0  0  0  0  0  0  0  0  0  0  0  0
   -3.4080   24.9280  -30.1820 N   0  0  0  0  0  0  0  0  0  0  0  0
   -2.4470   24.9240  -29.1170 C   0  0  0  0  0  0  0  0  0  0  0  0
   -1.4030   25.6270  -29.1840 O   0  0  0  0  0  0  0  0  0  0  0  0
   -2.6970   24.0940  -27.9040 C   0  0  0  0  0  0  0  0  0  0  0  0
   -2.5151   24.6978  -27.0027 H   0  0  0  0  0  0  0  0  0  0  0  0
   -3.7401   23.7449  -27.9072 H   0  0  0  0  0  0  0  0  0  0  0  0
   -2.0202   23.2269  -27.9072 H   0  0  0  0  0  0  0  0  0  0  0  0
   -5.3730   23.9220  -31.2170 C   0  0  0  0  0  0  0  0  0  0  0  0
   -5.8725   24.9003  -31.1585 H   0  0  0  0  0  0  0  0  0  0  0  0
   -6.0520   22.8280  -31.7620 C   0  0  0  0  0  0  0  0  0  0  0  0
   -7.0772   22.9539  -32.1404 H   0  0  0  0  0  0  0  0  0  0  0  0
   -6.2950   17.4060  -34.1540 C   0  0  0  0  0  0  0  0  0  0  0  0
   -7.0868   16.7219  -34.4931 H   0  0  0  0  0  0  0  0  0  0  0  0
   -4.9780   17.1490  -34.4120 N   0  0  0  0  0  0  0  0  0  0  0  0
   -2.8880   15.4080  -35.0860 C   0  0  0  0  0  0  0  0  0  0  0  0
   -3.8326   15.2593  -34.5424 H   0  0  0  0  0  0  0  0  0  0  0  0
   -2.3530   14.3710  -35.8730 C   0  0  0  0  0  0  0  0  0  0  0  0
   -2.9720   13.1180  -35.9920 O   0  0  0  0  0  0  0  0  0  0  0  0
   -4.3440   12.9240  -36.3270 C   0  0  0  0  0  0  0  0  0  0  0  0
   -4.7125   13.7953  -36.8883 H   0  0  0  0  0  0  0  0  0  0  0  0
   -4.4492   12.0216  -36.9471 H   0  0  0  0  0  0  0  0  0  0  0  0
   -5.1630   12.7610  -35.0320 C   0  0  0  0  0  0  0  0  0  0  0  0
   -6.0409   13.4204  -35.0995 H   0  0  0  0  0  0  0  0  0  0  0  0
   -5.4188   11.6932  -34.9655 H   0  0  0  0  0  0  0  0  0  0  0  0
   -4.4380   13.0890  -33.7790 N   0  0  0  0  0  0  0  0  0  0  0  0
   -3.4440   13.2790  -34.0550 H   0  0  0  0  0  0  0  0  0  0  0  0
   -4.9200   14.2930  -33.0810 C   0  0  0  0  0  0  0  0  0  0  0  0
   -4.4037   15.1866  -33.4617 H   0  0  0  0  0  0  0  0  0  0  0  0
   -5.9980   14.4434  -33.2399 H   0  0  0  0  0  0  0  0  0  0  0  0
   -4.6020   14.0880  -31.6140 C   0  0  0  0  0  0  0  0  0  0  0  0
   -3.5864   14.4405  -31.3811 H   0  0  0  0  0  0  0  0  0  0  0  0
   -5.2778   14.6491  -30.9518 H   0  0  0  0  0  0  0  0  0  0  0  0
   -4.7090   12.5900  -31.4220 C   0  0  0  0  0  0  0  0  0  0  0  0
   -3.9744   12.2424  -30.6806 H   0  0  0  0  0  0  0  0  0  0  0  0
   -5.7002   12.2925  -31.0491 H   0  0  0  0  0  0  0  0  0  0  0  0
   -4.4110   11.9900  -32.7930 C   0  0  0  0  0  0  0  0  0  0  0  0
   -3.4183   11.5163  -32.7870 H   0  0  0  0  0  0  0  0  0  0  0  0
   -5.1577   11.2239  -33.0491 H   0  0  0  0  0  0  0  0  0  0  0  0
   -1.1630   14.5930  -36.5710 C   0  0  0  0  0  0  0  0  0  0  0  0
   -0.7239   13.7915  -37.1832 H   0  0  0  0  0  0  0  0  0  0  0  0
  1  2  1  0
  2  3  2  0
  3  4  1  0
  4  5  1  0
  5  6  2  0
  6  7  1  0
  7  8  2  0
  8  9  1  0
  9 10  1  0
 10 11  1  0
 11 12  2  0
 11 13  1  0
 13 14  1  0
 14 15  2  0
 15 16  1  0
 15 17  1  0
 17 18  1  0
 17 19  2  0
 19 20  1  0
 20 21  1  0
 21 22  2  0
 21 23  1  0
 23 24  1  0
 23 25  1  0
 23 26  1  0
 19 27  1  0
 27 28  1  0
 27 29  2  0
 29 30  1  0
  9 31  2  0
 31 32  1  0
 31 33  1  0
  4 34  2  0
 34 35  1  0
 34 36  1  0
 36 37  1  0
 37 38  1  0
 38 39  1  0
 38 40  1  0
 38 41  1  0
 41 42  1  0
 41 43  1  0
 41 44  1  0
 44 45  1  0
 44 46  1  0
 46 47  1  0
 46 48  1  0
 46 49  1  0
 49 50  1  0
 49 51  1  0
 49 52  1  0
 52 53  1  0
 52 54  1  0
 52 55  1  0
 55 56  1  0
 55 57  1  0
 36 58  2  0
 58 59  1  0
 58  2  1  0
 33  6  1  0
 55 44  1  0
 13  8  1  0
 29 14  1  0
M  CHG  4  10  -1  20  -1  33  -1  44   1
M  END
>  <UniqueID>  (3) 
3

>  <SMILES>  (3) 
CC(=O)[N-]c1ccc(-n2c(=O)[n-]c3c[n-]/c(=N\c4cc(OCC[NH+]5CCCC5)ccn4)nc32)cc1

>  <Energy>  (3) 
125.99071355102524

>  <Genealogy>  (3) 
CC(=O)[N-]c1ccc(-n2c(=O)[n-]c3c[n-]c(=Nc4cc(OCC[NH+]5CCCC5)ccn4)nc32)cc1 (protonated)
CC(=O)[N-]c1ccc(-n2c(=O)[n-]c3c[n-]/c(=N\c4cc(OCC[NH+]5CCCC5)ccn4)nc32)cc1 (cis-trans isomerization)
CC(=O)[N-]c1ccc(-n2c(=O)[n-]c3c[n-]/c(=N\c4cc(OCC[NH+]5CCCC5)ccn4)nc32)cc1 (3D coordinates assigned)
CC(=O)[N-]c1ccc(-n2c(=O)[n-]c3c[n-]/c(=N\c4cc(OCC[NH+]5CCCC5)ccn4)nc32)cc1 (nonaromatic ring conformer: 125.99071355102524 kcal/mol)

>  <smiles>  (3) 
CC(=O)Nc1ccc(-n2c(=O)[nH]c3c[nH]c(=Nc4cc(OCCN5CCCC5)ccn4)nc32)cc1

>  <score_type>  (3) 
oracle

>  <origin>  (3) 
adgpu

>  <m_score__min__energy>  (3) 
-10.06

>  <m_primary>  (3) 
energy

$$$$
3:0
     RDKit          3D

 46 48  0  0  0  0  0  0  0  0999 V2000
   -5.8860   18.0490  -34.1630 C   0  0  0  0  0  0  0  0  0  0  0  0
   -5.7690   19.5000  -34.1610 N   0  0  0  0  0  0  0  0  0  0  0  0
   -5.3440   20.2390  -33.0120 C   0  0  0  0  0  0  0  0  0  0  0  0
   -4.1820   20.0670  -32.5550 O   0  0  0  0  0  0  0  0  0  0  0  0
   -6.2640   21.1970  -32.3580 C   0  0  0  0  0  0  0  0  0  0  0  0
   -7.6540   21.1010  -32.2220 C   0  0  0  0  0  0  0  0  0  0  0  0
   -8.5300   20.0000  -32.7260 C   0  0  0  0  0  0  0  0  0  0  0  0
   -8.1260   22.1450  -31.5650 O   0  0  0  0  0  0  0  0  0  0  0  0
   -7.1130   22.9200  -31.2650 C   0  0  0  0  0  0  0  0  0  0  0  0
   -7.1510   24.1230  -30.5670 C   0  0  0  0  0  0  0  0  0  0  0  0
   -5.9340   24.7860  -30.3300 C   0  0  0  0  0  0  0  0  0  0  0  0
   -4.7110   24.2400  -30.7850 C   0  0  0  0  0  0  0  0  0  0  0  0
   -3.4940   24.9310  -30.4760 N   0  0  0  0  0  0  0  0  0  0  0  0
   -2.4490   24.5500  -29.1440 S   0  0  0  0  0  0  0  0  0  0  0  0
   -1.2860   25.5010  -29.1350 O   0  0  0  0  0  0  0  0  0  0  0  0
   -3.2120   24.7040  -27.8570 O   0  0  0  0  0  0  0  0  0  0  0  0
   -1.9050   22.8790  -29.2840 C   0  0  0  0  0  0  0  0  0  0  0  0
   -1.3590   22.4320  -30.4910 C   0  0  0  0  0  0  0  0  0  0  0  0
   -0.8800   21.1270  -30.6080 C   0  0  0  0  0  0  0  0  0  0  0  0
   -0.9360   20.2480  -29.5100 C   0  0  0  0  0  0  0  0  0  0  0  0
   -0.4560   18.9300  -29.5860 O   0  0  0  0  0  0  0  0  0  0  0  0
   -0.1000   18.2710  -30.7970 C   0  0  0  0  0  0  0  0  0  0  0  0
   -1.4840   20.6890  -28.2950 C   0  0  0  0  0  0  0  0  0  0  0  0
   -1.5200   19.7920  -27.2160 O   0  0  0  0  0  0  0  0  0  0  0  0
   -2.7010   19.1680  -26.7220 C   0  0  0  0  0  0  0  0  0  0  0  0
   -1.9730   22.0070  -28.1890 C   0  0  0  0  0  0  0  0  0  0  0  0
   -4.7150   23.0260  -31.5120 C   0  0  0  0  0  0  0  0  0  0  0  0
   -5.9380   22.3890  -31.7290 C   0  0  0  0  0  0  0  0  0  0  0  0
   -5.9156   17.6821  -33.1264 H   0  0  0  0  0  0  0  0  0  0  0  0
   -6.8107   17.7564  -34.6820 H   0  0  0  0  0  0  0  0  0  0  0  0
   -5.0202   17.6120  -34.6820 H   0  0  0  0  0  0  0  0  0  0  0  0
   -8.9627   19.4562  -31.8733 H   0  0  0  0  0  0  0  0  0  0  0  0
   -9.3389   20.4259  -33.3378 H   0  0  0  0  0  0  0  0  0  0  0  0
   -7.9332   19.3075  -33.3378 H   0  0  0  0  0  0  0  0  0  0  0  0
   -8.1038   24.5424  -30.2116 H   0  0  0  0  0  0  0  0  0  0  0  0
   -5.9329   25.7410  -29.7841 H   0  0  0  0  0  0  0  0  0  0  0  0
   -1.3068   23.1131  -31.3532 H   0  0  0  0  0  0  0  0  0  0  0  0
   -0.4564   20.7832  -31.5632 H   0  0  0  0  0  0  0  0  0  0  0  0
    0.4109   17.3253  -30.5633 H   0  0  0  0  0  0  0  0  0  0  0  0
   -1.0081   18.0624  -31.3816 H   0  0  0  0  0  0  0  0  0  0  0  0
    0.5723   18.9162  -31.3816 H   0  0  0  0  0  0  0  0  0  0  0  0
   -2.6870   19.1754  -25.6221 H   0  0  0  0  0  0  0  0  0  0  0  0
   -3.5837   19.7174  -27.0812 H   0  0  0  0  0  0  0  0  0  0  0  0
   -2.7445   18.1292  -27.0812 H   0  0  0  0  0  0  0  0  0  0  0  0
   -2.4106   22.3531  -27.2410 H   0  0  0  0  0  0  0  0  0  0  0  0
   -3.7786   22.5954  -31.8962 H   0  0  0  0  0  0  0  0  0  0  0  0
  1  2  1  0
  2  3  1  0
  3  4  2  0
  3  5  1  0
  5  6  2  0
  6  7  1  0
  6  8  1  0
  8  9  1  0
  9 10  2  0
 10 11  1  0
 11 12  2  0
 12 13  1  0
 13 14  1  0
 14 15  2  0
 14 16  2  0
 14 17  1  0
 17 18  2  0
 18 19  1  0
 19 20  2  0
 20 21  1  0
 21 22  1  0
 20 23  1  0
 23 24  1  0
 24 25  1  0
 23 26  2  0
 12 27  1  0
 27 28  2  0
 28  5  1  0
 28  9  1  0
 26 17  1  0
  1 29  1  0
  1 30  1  0
  1 31  1  0
  7 32  1  0
  7 33  1  0
  7 34  1  0
 10 35  1  0
 11 36  1  0
 18 37  1  0
 19 38  1  0
 22 39  1  0
 22 40  1  0
 22 41  1  0
 25 42  1  0
 25 43  1  0
 25 44  1  0
 26 45  1  0
 27 46  1  0
M  CHG  2   2  -1  13  -1
M  END
>  <UniqueID>  (4) 
4

>  <SMILES>  (4) 
C[N-]C(=O)c1c(C)oc2ccc([N-]S(=O)(=O)c3ccc(OC)c(OC)c3)cc12

>  <Energy>  (4) 
80.44150231855303

>  <Genealogy>  (4) 
C[N-]C(=O)c1c(C)oc2ccc([N-]S(=O)(=O)c3ccc(OC)c(OC)c3)cc12 (protonated)
C[N-]C(=O)c1c(C)oc2ccc([N-]S(=O)(=O)c3ccc(OC)c(OC)c3)cc12 (3D coordinates assigned)
C[N-]C(=O)c1c(C)oc2ccc([N-]S(=O)(=O)c3ccc(OC)c(OC)c3)cc12 (optimized conformer: 80.44150231855303 kcal/mol)

>  <smiles>  (4) 
CNC(=O)c1c(C)oc2ccc(NS(=O)(=O)c3ccc(OC)c(OC)c3)cc12

>  <score_type>  (4) 
oracle

>  <origin>  (4) 
adgpu

>  <m_score__min__energy>  (4) 
-9.5700000000000003

>  <m_primary>  (4) 
energy

$$$$
4:0
     RDKit          3D

 60 63  0  0  0  0  0  0  0  0999 V2000
   -4.5730   24.4870  -31.1940 O   0  0  0  0  0  0  0  0  0  0  0  0
   -5.1710   23.6020  -30.5210 C   0  0  0  0  0  0  0  0  0  0  0  0
   -4.7700   23.3480  -29.1630 N   0  0  0  0  0  0  0  0  0  0  0  0
   -3.4670   23.6620  -28.6460 C   0  0  0  0  0  0  0  0  0  0  0  0
   -3.0150   23.0250  -27.4810 C   0  0  0  0  0  0  0  0  0  0  0  0
   -1.7420   23.2970  -26.9710 C   0  0  0  0  0  0  0  0  0  0  0  0
   -0.8970   24.2020  -27.6260 C   0  0  0  0  0  0  0  0  0  0  0  0
    0.7040   24.5580  -26.9740 S   0  0  0  0  0  0  0  0  0  0  0  0
    1.1880   23.3770  -26.1790 O   0  0  0  0  0  0  0  0  0  0  0  0
    1.6650   24.7790  -28.1100 O   0  0  0  0  0  0  0  0  0  0  0  0
    0.6770   25.9730  -25.9470 N   0  0  0  0  0  0  0  0  0  0  0  0
    0.8170   25.6100  -24.5140 C   0  0  0  0  0  0  0  0  0  0  0  0
   -0.5120   25.6770  -23.7470 C   0  0  0  0  0  0  0  0  0  0  0  0
   -1.1300   27.0840  -23.8250 C   0  0  0  0  0  0  0  0  0  0  0  0
   -0.7850   27.8140  -25.1360 C   0  0  0  0  0  0  0  0  0  0  0  0
   -0.4970   26.8160  -26.2610 C   0  0  0  0  0  0  0  0  0  0  0  0
   -1.3330   24.8200  -28.8070 C   0  0  0  0  0  0  0  0  0  0  0  0
   -2.6070   24.5520  -29.3140 C   0  0  0  0  0  0  0  0  0  0  0  0
   -6.3110   22.8720  -31.1240 C   0  0  0  0  0  0  0  0  0  0  0  0
   -7.6190   23.3850  -31.0460 C   0  0  0  0  0  0  0  0  0  0  0  0
   -8.6890   22.6820  -31.6050 C   0  0  0  0  0  0  0  0  0  0  0  0
   -8.4710   21.4610  -32.2420 C   0  0  0  0  0  0  0  0  0  0  0  0
   -7.1780   20.9270  -32.3190 C   0  0  0  0  0  0  0  0  0  0  0  0
   -6.9020   19.3730  -33.1060 S   0  0  0  0  0  0  0  0  0  0  0  0
   -6.5530   19.6160  -34.5480 O   0  0  0  0  0  0  0  0  0  0  0  0
   -8.1740   18.5710  -33.0740 O   0  0  0  0  0  0  0  0  0  0  0  0
   -5.6190   18.4520  -32.3490 N   0  0  0  0  0  0  0  0  0  0  0  0
   -4.3560   18.5140  -33.1060 C   0  0  0  0  0  0  0  0  0  0  0  0
   -4.3020   17.5070  -34.2800 C   0  0  0  0  0  0  0  0  0  0  0  0
   -5.3710   16.5810  -34.2730 O   0  0  0  0  0  0  0  0  0  0  0  0
   -5.5070   16.0230  -32.9870 C   0  0  0  0  0  0  0  0  0  0  0  0
   -6.0300   17.0760  -31.9970 C   0  0  0  0  0  0  0  0  0  0  0  0
   -6.1020   21.6370  -31.7640 C   0  0  0  0  0  0  0  0  0  0  0  0
   -5.4980   23.0160  -28.4900 H   0  0  0  0  0  0  0  0  0  0  0  0
   -3.6674   22.3056  -26.9644 H   0  0  0  0  0  0  0  0  0  0  0  0
   -1.4025   22.7981  -26.0513 H   0  0  0  0  0  0  0  0  0  0  0  0
    1.2085   24.5841  -24.4486 H   0  0  0  0  0  0  0  0  0  0  0  0
    1.5001   26.3394  -24.0543 H   0  0  0  0  0  0  0  0  0  0  0  0
   -1.2148   24.9519  -24.1832 H   0  0  0  0  0  0  0  0  0  0  0  0
   -0.3164   25.4409  -22.6906 H   0  0  0  0  0  0  0  0  0  0  0  0
   -2.2237   26.9923  -23.7508 H   0  0  0  0  0  0  0  0  0  0  0  0
   -0.7136   27.6756  -22.9964 H   0  0  0  0  0  0  0  0  0  0  0  0
   -1.6340   28.4497  -25.4278 H   0  0  0  0  0  0  0  0  0  0  0  0
    0.1149   28.4245  -24.9705 H   0  0  0  0  0  0  0  0  0  0  0  0
   -1.3757   26.1688  -26.3990 H   0  0  0  0  0  0  0  0  0  0  0  0
   -0.2812   27.3821  -27.1791 H   0  0  0  0  0  0  0  0  0  0  0  0
   -0.6689   25.5189  -29.3366 H   0  0  0  0  0  0  0  0  0  0  0  0
   -2.9396   25.0404  -30.2418 H   0  0  0  0  0  0  0  0  0  0  0  0
   -7.8001   24.3457  -30.5417 H   0  0  0  0  0  0  0  0  0  0  0  0
   -9.7073   23.0933  -31.5424 H   0  0  0  0  0  0  0  0  0  0  0  0
   -9.3169   20.9153  -32.6855 H   0  0  0  0  0  0  0  0  0  0  0  0
   -4.2399   19.5302  -33.5108 H   0  0  0  0  0  0  0  0  0  0  0  0
   -3.5441   18.2522  -32.4116 H   0  0  0  0  0  0  0  0  0  0  0  0
   -4.3340   18.0700  -35.2245 H   0  0  0  0  0  0  0  0  0  0  0  0
   -3.3713   16.9307  -34.1720 H   0  0  0  0  0  0  0  0  0  0  0  0
   -6.2156   15.1827  -33.0299 H   0  0  0  0  0  0  0  0  0  0  0  0
   -4.5224   15.6710  -32.6455 H   0  0  0  0  0  0  0  0  0  0  0  0
   -7.1290   17.0305  -31.9844 H   0  0  0  0  0  0  0  0  0  0  0  0
   -5.5990   16.8450  -31.0117 H   0  0  0  0  0  0  0  0  0  0  0  0
   -5.0849   21.2234  -31.8302 H   0  0  0  0  0  0  0  0  0  0  0  0
  1  2  2  0
  2  3  1  0
  3  4  1  0
  4  5  2  0
  5  6  1  0
  6  7  2  0
  7  8  1  0
  8  9  2  0
  8 10  2  0
  8 11  1  0
 11 12  1  0
 12 13  1  0
 13 14  1  0
 14 15  1  0
 15 16  1  0
  7 17  1  0
 17 18  2  0
  2 19  1  0
 19 20  2  0
 20 21  1  0
 21 22  2  0
 22 23  1  0
 23 24  1  0
 24 25  2  0
 24 26  2  0
 24 27  1  0
 27 28  1  0
 28 29  1  0
 29 30  1  0
 30 31  1  0
 31 32  1  0
 23 33  2  0
 18  4  1  0
 33 19  1  0
 16 11  1  0
 32 27  1  0
  3 34  1  0
  5 35  1  0
  6 36  1  0
 12 37  1  0
 12 38  1  0
 13 39  1  0
 13 40  1  0
 14 41  1  0
 14 42  1  0
 15 43  1  0
 15 44  1  0
 16 45  1  0
 16 46  1  0
 17 47  1  0
 18 48  1  0
 20 49  1  0
 21 50  1  0
 22 51  1  0
 28 52  1  0
 28 53  1  0
 29 54  1  0
 29 55  1  0
 31 56  1  0
 31 57  1  0
 32 58  1  0
 32 59  1  0
 33 60  1  0
M  END
>  <UniqueID>  (5) 
5

>  <SMILES>  (5) 
O=C(Nc1ccc(S(=O)(=O)N2CCCCC2)cc1)c1cccc(S(=O)(=O)N2CCOCC2)c1

>  <Energy>  (5) 
82.46912331290073

>  <Genealogy>  (5) 
O=C(Nc1ccc(S(=O)(=O)N2CCCCC2)cc1)c1cccc(S(=O)(=O)N2CCOCC2)c1 (3D coordinates assigned)
O=C(Nc1ccc(S(=O)(=O)N2CCCCC2)cc1)c1cccc(S(=O)(=O)N2CCOCC2)c1 (nonaromatic ring conformer: 82.46912331290073 kcal/mol)

>  <smiles>  (5) 
O=C(Nc1ccc(S(=O)(=O)N2CCCCC2)cc1)c1cccc(S(=O)(=O)N2CCOCC2)c1

>  <score_type>  (5) 
oracle

>  <origin>  (5) 
adgpu

>  <m_score__min__energy>  (5) 
-11.41

>  <m_primary>  (5) 
energy

$$$$
5:0
     RDKit          3D

 51 53  0  0  0  0  0  0  0  0999 V2000
   -3.4962   12.0379  -31.0707 H   0  0  0  0  0  0  0  0  0  0  0  0
   -3.4250   12.9380  -31.6990 C   0  0  0  0  0  0  0  0  0  0  0  0
   -4.5810   13.4920  -32.2570 C   0  0  0  0  0  0  0  0  0  0  0  0
   -5.5601   13.0326  -32.0564 H   0  0  0  0  0  0  0  0  0  0  0  0
   -4.4980   14.6290  -33.0700 C   0  0  0  0  0  0  0  0  0  0  0  0
   -5.7050   15.1920  -33.6010 N   0  0  0  0  0  0  0  0  0  0  0  0
   -6.1080   16.5620  -33.5010 C   0  0  0  0  0  0  0  0  0  0  0  0
   -7.2120   16.9060  -34.0010 O   0  0  0  0  0  0  0  0  0  0  0  0
   -5.2620   17.5330  -32.8600 N   0  0  0  0  0  0  0  0  0  0  0  0
   -4.3300   17.2230  -32.5080 H   0  0  0  0  0  0  0  0  0  0  0  0
   -5.6810   18.8670  -32.5350 C   0  0  0  0  0  0  0  0  0  0  0  0
   -4.8200   19.9660  -32.6940 C   0  0  0  0  0  0  0  0  0  0  0  0
   -3.8044   19.8136  -33.0882 H   0  0  0  0  0  0  0  0  0  0  0  0
   -5.2490   21.2530  -32.3530 C   0  0  0  0  0  0  0  0  0  0  0  0
   -4.5730   22.1101  -32.4888 H   0  0  0  0  0  0  0  0  0  0  0  0
   -6.5370   21.4540  -31.8390 C   0  0  0  0  0  0  0  0  0  0  0  0
   -7.0890   23.0730  -31.4200 S   0  0  0  0  0  0  0  0  0  0  0  0
   -7.6120   23.1060  -30.0110 O   0  0  0  0  0  0  0  0  0  0  0  0
   -8.1920   23.4690  -32.3600 O   0  0  0  0  0  0  0  0  0  0  0  0
   -5.7820   24.2050  -31.5660 N   0  0  0  0  0  0  0  0  0  0  0  0
   -4.8470   24.3630  -30.6770 C   0  0  0  0  0  0  0  0  0  0  0  0
   -3.8460   25.2500  -30.8230 N   0  0  0  0  0  0  0  0  0  0  0  0
   -3.0990   25.1390  -29.7620 O   0  0  0  0  0  0  0  0  0  0  0  0
   -3.5740   24.2290  -28.9410 C   0  0  0  0  0  0  0  0  0  0  0  0
   -2.9330   23.8430  -27.6500 C   0  0  0  0  0  0  0  0  0  0  0  0
   -3.5442   24.2110  -26.8127 H   0  0  0  0  0  0  0  0  0  0  0  0
   -2.8545   22.7473  -27.5928 H   0  0  0  0  0  0  0  0  0  0  0  0
   -1.9278   24.2861  -27.5928 H   0  0  0  0  0  0  0  0  0  0  0  0
   -4.7180   23.6790  -29.4820 C   0  0  0  0  0  0  0  0  0  0  0  0
   -5.3656   22.8929  -29.0666 H   0  0  0  0  0  0  0  0  0  0  0  0
   -7.3870   20.3570  -31.6530 C   0  0  0  0  0  0  0  0  0  0  0  0
   -8.3945   20.5079  -31.2381 H   0  0  0  0  0  0  0  0  0  0  0  0
   -6.9590   19.0710  -31.9930 C   0  0  0  0  0  0  0  0  0  0  0  0
   -7.6286   18.2127  -31.8347 H   0  0  0  0  0  0  0  0  0  0  0  0
   -3.2460   15.2340  -33.2830 C   0  0  0  0  0  0  0  0  0  0  0  0
   -3.1778   16.1501  -33.8881 H   0  0  0  0  0  0  0  0  0  0  0  0
   -2.0840   14.6770  -32.7290 C   0  0  0  0  0  0  0  0  0  0  0  0
   -0.5150   15.4310  -33.0210 S   0  0  0  0  0  0  0  0  0  0  0  0
    0.3530   14.4780  -33.7960 O   0  0  0  0  0  0  0  0  0  0  0  0
    0.1550   15.7000  -31.7020 O   0  0  0  0  0  0  0  0  0  0  0  0
   -0.6740   16.9290  -33.9070 N   0  0  0  0  0  0  0  0  0  0  0  0
    0.6500   17.3880  -34.3470 C   0  0  0  0  0  0  0  0  0  0  0  0
    1.2741   17.6044  -33.4674 H   0  0  0  0  0  0  0  0  0  0  0  0
    1.1279   16.6031  -34.9516 H   0  0  0  0  0  0  0  0  0  0  0  0
    0.5396   18.3003  -34.9516 H   0  0  0  0  0  0  0  0  0  0  0  0
   -1.3070   17.9450  -33.0580 C   0  0  0  0  0  0  0  0  0  0  0  0
   -1.1479   17.6896  -32.0000 H   0  0  0  0  0  0  0  0  0  0  0  0
   -0.8615   18.9284  -33.2688 H   0  0  0  0  0  0  0  0  0  0  0  0
   -2.3861   17.9785  -33.2688 H   0  0  0  0  0  0  0  0  0  0  0  0
   -2.1810   13.5240  -31.9370 C   0  0  0  0  0  0  0  0  0  0  0  0
   -1.2736   13.0799  -31.5018 H   0  0  0  0  0  0  0  0  0  0  0  0
  1  2  1  0
  2  3  2  0
  3  4  1  0
  3  5  1  0
  5  6  1  0
  6  7  1  0
  7  8  2  0
  7  9  1  0
  9 10  1  0
  9 11  1  0
 11 12  2  0
 12 13  1  0
 12 14  1  0
 14 15  1  0
 14 16  2  0
 16 17  1  0
 17 18  2  0
 17 19  2  0
 17 20  1  0
 20 21  2  0
 21 22  1  0
 22 23  1  0
 23 24  1  0
 24 25  1  0
 25 26  1  0
 25 27  1  0
 25 28  1  0
 24 29  2  0
 29 30  1  0
 16 31  1  0
 31 32  1  0
 31 33  2  0
 33 34  1  0
  5 35  2  0
 35 36  1  0
 35 37  1  0
 37 38  1  0
 38 39  2  0
 38 40  2  0
 38 41  1  0
 41 42  1  0
 42 43  1  0
 42 44  1  0
 42 45  1  0
 41 46  1  0
 46 47  1  0
 46 48  1  0
 46 49  1  0
 37 50  2  0
 50 51  1  0
 50  2  1  0
 33 11  1  0
 29 21  1  0
M  CHG  2   6  -1  22  -1
M  END
>  <UniqueID>  (6) 
6

>  <SMILES>  (6) 
Cc1c/c(=N\S(=O)(=O)c2ccc(NC(=O)[N-]c3cccc(S(=O)(=O)N(C)C)c3)cc2)[n-]o1

>  <Energy>  (6) 
91.24383582915955

>  <Genealogy>  (6) 
Cc1cc(=NS(=O)(=O)c2ccc(NC(=O)[N-]c3cccc(S(=O)(=O)N(C)C)c3)cc2)[n-]o1 (protonated)
Cc1c/c(=N\S(=O)(=O)c2ccc(NC(=O)[N-]c3cccc(S(=O)(=O)N(C)C)c3)cc2)[n-]o1 (cis-trans isomerization)
Cc1c/c(=N\S(=O)(=O)c2ccc(NC(=O)[N-]c3cccc(S(=O)(=O)N(C)C)c3)cc2)[n-]o1 (3D coordinates assigned)
Cc1c/c(=N\S(=O)(=O)c2ccc(NC(=O)[N-]c3cccc(S(=O)(=O)N(C)C)c3)cc2)[n-]o1 (optimized conformer: 91.24383582915955 kcal/mol)

>  <smiles>  (6) 
Cc1cc(=NS(=O)(=O)c2ccc(NC(=O)Nc3cccc(S(=O)(=O)N(C)C)c3)cc2)[nH]o1

>  <score_type>  (6) 
oracle

>  <origin>  (6) 
adgpu

>  <m_score__min__energy>  (6) 
-10.779999999999999

>  <m_primary>  (6) 
energy

$$$$
6:0
     RDKit          3D

 53 56  0  0  0  0  0  0  0  0999 V2000
   -4.8170   22.1100  -33.0060 O   0  0  0  0  0  0  0  0  0  0  0  0
   -5.3370   21.3940  -31.7910 S   0  0  0  0  0  0  0  0  0  0  0  0
   -4.6480   20.0570  -31.7460 O   0  0  0  0  0  0  0  0  0  0  0  0
   -7.0860   21.1070  -32.0020 C   0  0  0  0  0  0  0  0  0  0  0  0
   -7.9770   22.1160  -31.5940 C   0  0  0  0  0  0  0  0  0  0  0  0
   -9.3550   21.9600  -31.7490 C   0  0  0  0  0  0  0  0  0  0  0  0
   -9.8670   20.7980  -32.3200 C   0  0  0  0  0  0  0  0  0  0  0  0
   -9.0030   19.7880  -32.7400 C   0  0  0  0  0  0  0  0  0  0  0  0
   -7.6130   19.9220  -32.5840 C   0  0  0  0  0  0  0  0  0  0  0  0
   -6.7620   18.8290  -33.0940 C   0  0  0  0  0  0  0  0  0  0  0  0
   -6.0500   18.9780  -34.2940 C   0  0  0  0  0  0  0  0  0  0  0  0
   -5.2110   17.9530  -34.7460 C   0  0  0  0  0  0  0  0  0  0  0  0
   -5.0570   16.7890  -33.9880 C   0  0  0  0  0  0  0  0  0  0  0  0
   -5.7310   16.6520  -32.7710 C   0  0  0  0  0  0  0  0  0  0  0  0
   -6.5760   17.6720  -32.3220 C   0  0  0  0  0  0  0  0  0  0  0  0
   -4.8990   22.2570  -30.3200 N   0  0  2  0  0  0  0  0  0  0  0  0
   -5.6500   23.5320  -30.1760 C   0  0  0  0  0  0  0  0  0  0  0  0
   -4.9580   24.5630  -29.2570 C   0  0  0  0  0  0  0  0  0  0  0  0
   -4.0640   23.8920  -28.2000 C   0  0  2  0  0  0  0  0  0  0  0  0
   -3.4140   24.8820  -27.3280 N   0  0  0  0  0  0  0  0  0  0  0  0
   -2.0030   25.0010  -27.0350 C   0  0  0  0  0  0  0  0  0  0  0  0
   -1.1350   25.8420  -27.7660 C   0  0  0  0  0  0  0  0  0  0  0  0
    0.2240   25.9090  -27.4440 C   0  0  0  0  0  0  0  0  0  0  0  0
    0.7370   25.1430  -26.3970 C   0  0  0  0  0  0  0  0  0  0  0  0
   -0.1070   24.3040  -25.6700 C   0  0  0  0  0  0  0  0  0  0  0  0
   -1.4660   24.2300  -25.9880 C   0  0  0  0  0  0  0  0  0  0  0  0
   -3.0470   22.8930  -28.7970 C   0  0  0  0  0  0  0  0  0  0  0  0
   -3.4380   22.4390  -30.2120 C   0  0  0  0  0  0  0  0  0  0  0  0
   -7.5823   23.0403  -31.1468 H   0  0  0  0  0  0  0  0  0  0  0  0
  -10.0381   22.7567  -31.4194 H   0  0  0  0  0  0  0  0  0  0  0  0
  -10.9537   20.6769  -32.4397 H   0  0  0  0  0  0  0  0  0  0  0  0
   -9.4137   18.8763  -33.1985 H   0  0  0  0  0  0  0  0  0  0  0  0
   -6.1515   19.9028  -34.8809 H   0  0  0  0  0  0  0  0  0  0  0  0
   -4.6723   18.0637  -35.6987 H   0  0  0  0  0  0  0  0  0  0  0  0
   -4.4050   15.9801  -34.3493 H   0  0  0  0  0  0  0  0  0  0  0  0
   -5.5969   15.7426  -32.1669 H   0  0  0  0  0  0  0  0  0  0  0  0
   -7.0973   17.5668  -31.3591 H   0  0  0  0  0  0  0  0  0  0  0  0
   -5.1900   21.6310  -29.5290 H   0  0  0  0  0  0  0  0  0  0  0  0
   -5.7669   23.9802  -31.1737 H   0  0  0  0  0  0  0  0  0  0  0  0
   -6.6151   23.2844  -29.7099 H   0  0  0  0  0  0  0  0  0  0  0  0
   -4.3373   25.2282  -29.8753 H   0  0  0  0  0  0  0  0  0  0  0  0
   -5.7426   25.1242  -28.7284 H   0  0  0  0  0  0  0  0  0  0  0  0
   -4.7393   23.2895  -27.5747 H   0  0  0  0  0  0  0  0  0  0  0  0
   -4.0440   25.6190  -26.9370 H   0  0  0  0  0  0  0  0  0  0  0  0
   -1.5308   26.4483  -28.5941 H   0  0  0  0  0  0  0  0  0  0  0  0
    0.8913   26.5683  -28.0185 H   0  0  0  0  0  0  0  0  0  0  0  0
    1.8062   25.2007  -26.1451 H   0  0  0  0  0  0  0  0  0  0  0  0
    0.2975   23.6994  -24.8449 H   0  0  0  0  0  0  0  0  0  0  0  0
   -2.1233   23.5612  -25.4130 H   0  0  0  0  0  0  0  0  0  0  0  0
   -2.0599   23.3765  -28.8407 H   0  0  0  0  0  0  0  0  0  0  0  0
   -3.0299   22.0032  -28.1506 H   0  0  0  0  0  0  0  0  0  0  0  0
   -3.1150   23.2006  -30.9371 H   0  0  0  0  0  0  0  0  0  0  0  0
   -2.9468   21.4774  -30.4217 H   0  0  0  0  0  0  0  0  0  0  0  0
  1  2  2  0
  2  3  2  0
  2  4  1  0
  4  5  2  0
  5  6  1  0
  6  7  2  0
  7  8  1  0
  8  9  2  0
  9 10  1  0
 10 11  2  0
 11 12  1  0
 12 13  2  0
 13 14  1  0
 14 15  2  0
  2 16  1  0
 16 17  1  0
 17 18  1  0
 18 19  1  0
 19 20  1  0
 20 21  1  0
 21 22  2  0
 22 23  1  0
 23 24  2  0
 24 25  1  0
 25 26  2  0
 19 27  1  0
 27 28  1  0
  9  4  1  0
 15 10  1  0
 28 16  1  0
 26 21  1  0
  5 29  1  0
  6 30  1  0
  7 31  1  0
  8 32  1  0
 11 33  1  0
 12 34  1  0
 13 35  1  0
 14 36  1  0
 15 37  1  0
 16 38  1  1
 17 39  1  0
 17 40  1  0
 18 41  1  0
 18 42  1  0
 19 43  1  1
 20 44  1  0
 22 45  1  0
 23 46  1  0
 24 47  1  0
 25 48  1  0
 26 49  1  0
 27 50  1  0
 27 51  1  0
 28 52  1  0
 28 53  1  0
M  CHG  1  16   1
M  END
>  <UniqueID>  (7) 
7

>  <SMILES>  (7) 
O=S(=O)(c1ccccc1-c1ccccc1)[NH+]1CCC(Nc2ccccc2)CC1

>  <Energy>  (7) 
75.90920287337592

>  <Genealogy>  (7) 
O=S(=O)(c1ccccc1-c1ccccc1)[NH+]1CCC(Nc2ccccc2)CC1 (protonated)
O=S(=O)(c1ccccc1-c1ccccc1)[NH+]1CCC(Nc2ccccc2)CC1 (3D coordinates assigned)
O=S(=O)(c1ccccc1-c1ccccc1)[NH+]1CCC(Nc2ccccc2)CC1 (nonaromatic ring conformer: 75.90920287337592 kcal/mol)

>  <smiles>  (7) 
O=S(=O)(c1ccccc1-c1ccccc1)N1CCC(Nc2ccccc2)CC1

>  <score_type>  (7) 
oracle

>  <origin>  (7) 
adgpu

>  <m_score__min__energy>  (7) 
-9.8100000000000005

>  <m_primary>  (7) 
energy

$$$$
7:0
     RDKit          3D

 40 42  0  0  0  0  0  0  0  0999 V2000
   -1.6170   25.6760  -29.3430 O   0  0  0  0  0  0  0  0  0  0  0  0
   -2.2010   24.5970  -29.0590 C   0  0  0  0  0  0  0  0  0  0  0  0
   -1.5900   23.7130  -28.1770 O   0  0  0  0  0  0  0  0  0  0  0  0
   -3.5160   24.2720  -29.6540 C   0  0  0  0  0  0  0  0  0  0  0  0
   -4.0550   22.9810  -29.5240 C   0  0  0  0  0  0  0  0  0  0  0  0
   -5.2980   22.6710  -30.0850 C   0  0  0  0  0  0  0  0  0  0  0  0
   -6.0270   23.6490  -30.7790 C   0  0  0  0  0  0  0  0  0  0  0  0
   -7.3680   23.3230  -31.3820 C   0  0  0  0  0  0  0  0  0  0  0  0
   -7.2220   22.3710  -32.4830 N   0  0  0  0  0  0  0  0  0  0  0  0
   -7.5890   20.9770  -32.4070 C   0  0  0  0  0  0  0  0  0  0  0  0
   -8.7060   20.5560  -31.6560 C   0  0  0  0  0  0  0  0  0  0  0  0
   -9.0510   19.2040  -31.5940 C   0  0  0  0  0  0  0  0  0  0  0  0
   -8.2930   18.2560  -32.2780 C   0  0  0  0  0  0  0  0  0  0  0  0
   -7.1810   18.6540  -33.0210 C   0  0  0  0  0  0  0  0  0  0  0  0
   -6.8100   20.0110  -33.0790 C   0  0  0  0  0  0  0  0  0  0  0  0
   -5.7080   20.4270  -33.8430 O   0  0  0  0  0  0  0  0  0  0  0  0
   -4.3890   20.5280  -33.3800 C   0  0  0  0  0  0  0  0  0  0  0  0
   -3.9390   21.7620  -32.8930 C   0  0  0  0  0  0  0  0  0  0  0  0
   -2.6340   21.8990  -32.4090 C   0  0  0  0  0  0  0  0  0  0  0  0
   -1.7730   20.7980  -32.3980 C   0  0  0  0  0  0  0  0  0  0  0  0
   -2.2190   19.5580  -32.8630 C   0  0  0  0  0  0  0  0  0  0  0  0
   -3.5230   19.4190  -33.3480 C   0  0  0  0  0  0  0  0  0  0  0  0
   -5.4870   24.9360  -30.9190 C   0  0  0  0  0  0  0  0  0  0  0  0
   -4.2440   25.2470  -30.3590 C   0  0  0  0  0  0  0  0  0  0  0  0
   -3.4951   22.2083  -28.9768 H   0  0  0  0  0  0  0  0  0  0  0  0
   -5.7066   21.6549  -29.9817 H   0  0  0  0  0  0  0  0  0  0  0  0
   -8.0147   22.8838  -30.6082 H   0  0  0  0  0  0  0  0  0  0  0  0
   -7.8150   24.2493  -31.7722 H   0  0  0  0  0  0  0  0  0  0  0  0
   -6.8840   22.7560  -33.3940 H   0  0  0  0  0  0  0  0  0  0  0  0
   -9.3105   21.2986  -31.1146 H   0  0  0  0  0  0  0  0  0  0  0  0
   -9.9233   18.8869  -31.0037 H   0  0  0  0  0  0  0  0  0  0  0  0
   -8.5714   17.1928  -32.2323 H   0  0  0  0  0  0  0  0  0  0  0  0
   -6.5902   17.9024  -33.5651 H   0  0  0  0  0  0  0  0  0  0  0  0
   -4.6163   22.6287  -32.8913 H   0  0  0  0  0  0  0  0  0  0  0  0
   -2.2851   22.8736  -32.0369 H   0  0  0  0  0  0  0  0  0  0  0  0
   -0.7446   20.9076  -32.0234 H   0  0  0  0  0  0  0  0  0  0  0  0
   -1.5433   18.6901  -32.8475 H   0  0  0  0  0  0  0  0  0  0  0  0
   -3.8732   18.4395  -33.7058 H   0  0  0  0  0  0  0  0  0  0  0  0
   -6.0449   25.7055  -31.4728 H   0  0  0  0  0  0  0  0  0  0  0  0
   -3.8329   26.2611  -30.4707 H   0  0  0  0  0  0  0  0  0  0  0  0
  1  2  2  0
  2  3  1  0
  2  4  1  0
  4  5  2  0
  5  6  1  0
  6  7  2  0
  7  8  1  0
  8  9  1  0
  9 10  1  0
 10 11  2  0
 11 12  1  0
 12 13  2  0
 13 14  1  0
 14 15  2  0
 15 16  1  0
 16 17  1  0
 17 18  2  0
 18 19  1  0
 19 20  2  0
 20 21  1  0
 21 22  2  0
  7 23  1  0
 23 24  2  0
 24  4  1  0
 15 10  1  0
 22 17  1  0
  5 25  1  0
  6 26  1  0
  8 27  1  0
  8 28  1  0
  9 29  1  0
 11 30  1  0
 12 31  1  0
 13 32  1  0
 14 33  1  0
 18 34  1  0
 19 35  1  0
 20 36  1  0
 21 37  1  0
 22 38  1  0
 23 39  1  0
 24 40  1  0
M  CHG  1   3  -1
M  END
>  <UniqueID>  (8) 
8

>  <SMILES>  (8) 
O=C([O-])c1ccc(CNc2ccccc2Oc2ccccc2)cc1

>  <Energy>  (8) 
49.77684948567495

>  <Genealogy>  (8) 
O=C([O-])c1ccc(CNc2ccccc2Oc2ccccc2)cc1 (protonated)
O=C([O-])c1ccc(CNc2ccccc2Oc2ccccc2)cc1 (3D coordinates assigned)
O=C([O-])c1ccc(CNc2ccccc2Oc2ccccc2)cc1 (optimized conformer: 49.77684948567495 kcal/mol)

>  <smiles>  (8) 
O=C(O)c1ccc(CNc2ccccc2Oc2ccccc2)cc1

>  <score_type>  (8) 
oracle

>  <origin>  (8) 
adgpu

>  <m_score__min__energy>  (8) 
-9.8000000000000007

>  <m_primary>  (8) 
energy

$$$$
8:0
     RDKit          3D

 28 30  0  0  0  0  0  0  0  0999 V2000
   -8.6490   21.2460  -32.1100 O   0  0  0  0  0  0  0  0  0  0  0  0
   -7.2660   21.2980  -32.2260 C   0  0  0  0  0  0  0  0  0  0  0  0
   -6.5460   22.2370  -31.4770 C   0  0  0  0  0  0  0  0  0  0  0  0
   -5.1460   22.3080  -31.5780 C   0  0  0  0  0  0  0  0  0  0  0  0
   -4.3880   23.3010  -30.7880 C   0  0  0  0  0  0  0  0  0  0  0  0
   -4.4390   24.6310  -31.0020 N   0  0  0  0  0  0  0  0  0  0  0  0
   -3.6450   25.1450  -30.1140 O   0  0  0  0  0  0  0  0  0  0  0  0
   -3.1210   24.1930  -29.3800 C   0  0  0  0  0  0  0  0  0  0  0  0
   -2.1690   24.4290  -28.2710 C   0  0  0  0  0  0  0  0  0  0  0  0
   -2.1610   23.5470  -27.1740 C   0  0  0  0  0  0  0  0  0  0  0  0
   -1.2750   23.7420  -26.1120 C   0  0  0  0  0  0  0  0  0  0  0  0
   -0.3870   24.8180  -26.1290 C   0  0  0  0  0  0  0  0  0  0  0  0
   -0.3820   25.7020  -27.2100 C   0  0  0  0  0  0  0  0  0  0  0  0
   -1.2660   25.5160  -28.2800 C   0  0  0  0  0  0  0  0  0  0  0  0
   -1.2330   26.4150  -29.3390 O   0  0  0  0  0  0  0  0  0  0  0  0
   -3.5640   22.9800  -29.7680 N   0  0  0  0  0  0  0  0  0  0  0  0
   -4.4770   21.4230  -32.4410 C   0  0  0  0  0  0  0  0  0  0  0  0
   -5.1960   20.4840  -33.1870 C   0  0  0  0  0  0  0  0  0  0  0  0
   -6.5890   20.4160  -33.0850 C   0  0  0  0  0  0  0  0  0  0  0  0
   -7.2810   19.4710  -33.8400 O   0  0  0  0  0  0  0  0  0  0  0  0
   -7.0803   22.9242  -30.8045 H   0  0  0  0  0  0  0  0  0  0  0  0
   -2.8586   22.6968  -27.1529 H   0  0  0  0  0  0  0  0  0  0  0  0
   -1.2773   23.0458  -25.2604 H   0  0  0  0  0  0  0  0  0  0  0  0
    0.3091   24.9700  -25.2909 H   0  0  0  0  0  0  0  0  0  0  0  0
    0.3200   26.5488  -27.2211 H   0  0  0  0  0  0  0  0  0  0  0  0
   -3.3816   21.4693  -32.5300 H   0  0  0  0  0  0  0  0  0  0  0  0
   -4.6627   19.7947  -33.8581 H   0  0  0  0  0  0  0  0  0  0  0  0
   -8.2930   19.4590  -33.8920 H   0  0  0  0  0  0  0  0  0  0  0  0
  1  2  1  0
  2  3  2  0
  3  4  1  0
  4  5  1  0
  5  6  2  0
  6  7  1  0
  7  8  1  0
  8  9  1  0
  9 10  2  0
 10 11  1  0
 11 12  2  0
 12 13  1  0
 13 14  2  0
 14 15  1  0
  8 16  2  0
  4 17  2  0
 17 18  1  0
 18 19  2  0
 19 20  1  0
 19  2  1  0
 16  5  1  0
 14  9  1  0
  3 21  1  0
 10 22  1  0
 11 23  1  0
 12 24  1  0
 13 25  1  0
 17 26  1  0
 18 27  1  0
 20 28  1  0
M  CHG  2   1  -1  15  -1
M  END
>  <UniqueID>  (9) 
9

>  <SMILES>  (9) 
[O-]c1cc(-c2noc(-c3ccccc3[O-])n2)ccc1O

>  <Energy>  (9) 
66.4503824285407

>  <Genealogy>  (9) 
[O-]c1cc(-c2noc(-c3ccccc3[O-])n2)ccc1O (protonated)
[O-]c1cc(-c2noc(-c3ccccc3[O-])n2)ccc1O (3D coordinates assigned)
[O-]c1cc(-c2noc(-c3ccccc3[O-])n2)ccc1O (optimized conformer: 66.4503824285407 kcal/mol)

>  <smiles>  (9) 
Oc1ccc(-c2noc(-c3ccccc3O)n2)cc1O

>  <score_type>  (9) 
oracle

>  <origin>  (9) 
adgpu

>  <m_score__min__energy>  (9) 
-10.91

>  <m_primary>  (9) 
energy

$$$$
9:0
     RDKit          3D

 50 53  0  0  0  0  0  0  0  0999 V2000
   -4.9270   14.3310  -32.0760 C   0  0  0  0  0  0  0  0  0  0  0  0
   -4.4060   15.3990  -32.6820 C   0  0  0  0  0  0  0  0  0  0  0  0
   -3.2720   15.3370  -33.4100 N   0  0  0  0  0  0  0  0  0  0  0  0
   -3.0180   16.5490  -33.8840 N   0  0  0  0  0  0  0  0  0  0  0  0
   -1.8620   16.8560  -34.6870 C   0  0  0  0  0  0  0  0  0  0  0  0
   -1.4200   15.9400  -35.6570 C   0  0  0  0  0  0  0  0  0  0  0  0
   -0.3050   16.2290  -36.4500 C   0  0  0  0  0  0  0  0  0  0  0  0
    0.3730   17.4390  -36.2910 C   0  0  0  0  0  0  0  0  0  0  0  0
    1.7710   17.8020  -37.2890 Cl  0  0  0  0  0  0  0  0  0  0  0  0
   -0.0670   18.3650  -35.3410 C   0  0  0  0  0  0  0  0  0  0  0  0
   -1.1800   18.0790  -34.5450 C   0  0  0  0  0  0  0  0  0  0  0  0
   -3.9740   17.3970  -33.4500 C   0  0  0  0  0  0  0  0  0  0  0  0
   -3.9560   18.6420  -33.6460 O   0  0  0  0  0  0  0  0  0  0  0  0
   -4.9040   16.7040  -32.6860 C   0  0  0  0  0  0  0  0  0  0  0  0
   -5.9970   17.1700  -32.0480 C   0  0  0  0  0  0  0  0  0  0  0  0
   -6.4970   18.5540  -32.1630 C   0  0  0  0  0  0  0  0  0  0  0  0
   -7.7790   18.8200  -32.6710 C   0  0  0  0  0  0  0  0  0  0  0  0
   -8.2530   20.1320  -32.7290 C   0  0  0  0  0  0  0  0  0  0  0  0
   -7.4600   21.1860  -32.2700 C   0  0  0  0  0  0  0  0  0  0  0  0
   -6.1820   20.9310  -31.7490 C   0  0  0  0  0  0  0  0  0  0  0  0
   -5.3540   22.0460  -31.2470 C   0  0  0  0  0  0  0  0  0  0  0  0
   -6.0010   23.1450  -30.6590 C   0  0  0  0  0  0  0  0  0  0  0  0
   -5.2680   24.2290  -30.1700 C   0  0  0  0  0  0  0  0  0  0  0  0
   -5.9460   25.2990  -29.5860 O   0  0  0  0  0  0  0  0  0  0  0  0
   -3.8700   24.2260  -30.2750 C   0  0  0  0  0  0  0  0  0  0  0  0
   -3.1250   25.2980  -29.7990 O   0  0  0  0  0  0  0  0  0  0  0  0
   -3.2160   23.1430  -30.8680 C   0  0  0  0  0  0  0  0  0  0  0  0
   -3.9410   22.0390  -31.3510 C   0  0  0  0  0  0  0  0  0  0  0  0
   -3.1890   20.9300  -32.0530 C   0  0  0  0  0  0  0  0  0  0  0  0
   -2.7480   21.3690  -33.4450 C   0  0  0  0  0  0  0  0  0  0  0  0
   -5.7160   19.6110  -31.6730 C   0  0  0  0  0  0  0  0  0  0  0  0
   -5.8542   14.4277  -31.4921 H   0  0  0  0  0  0  0  0  0  0  0  0
   -4.4294   13.3536  -32.1601 H   0  0  0  0  0  0  0  0  0  0  0  0
   -1.9551   14.9887  -35.7934 H   0  0  0  0  0  0  0  0  0  0  0  0
    0.0385   15.5017  -37.2004 H   0  0  0  0  0  0  0  0  0  0  0  0
    0.4636   19.3208  -35.2194 H   0  0  0  0  0  0  0  0  0  0  0  0
   -1.5249   18.8143  -33.8031 H   0  0  0  0  0  0  0  0  0  0  0  0
   -6.5512   16.4744  -31.4007 H   0  0  0  0  0  0  0  0  0  0  0  0
   -8.4115   17.9923  -33.0242 H   0  0  0  0  0  0  0  0  0  0  0  0
   -9.2538   20.3361  -33.1373 H   0  0  0  0  0  0  0  0  0  0  0  0
   -7.8378   22.2180  -32.3169 H   0  0  0  0  0  0  0  0  0  0  0  0
   -7.0983   23.1524  -30.5826 H   0  0  0  0  0  0  0  0  0  0  0  0
   -5.4630   26.0180  -29.0610 H   0  0  0  0  0  0  0  0  0  0  0  0
   -2.1198   23.1541  -30.9582 H   0  0  0  0  0  0  0  0  0  0  0  0
   -2.3008   20.6657  -31.4603 H   0  0  0  0  0  0  0  0  0  0  0  0
   -3.8562   20.0612  -32.1531 H   0  0  0  0  0  0  0  0  0  0  0  0
   -1.9709   22.1425  -33.3565 H   0  0  0  0  0  0  0  0  0  0  0  0
   -2.3438   20.5041  -33.9914 H   0  0  0  0  0  0  0  0  0  0  0  0
   -3.6111   21.7771  -33.9914 H   0  0  0  0  0  0  0  0  0  0  0  0
   -4.7324   19.4031  -31.2266 H   0  0  0  0  0  0  0  0  0  0  0  0
  1  2  2  0
  2  3  1  0
  3  4  1  0
  4  5  1  0
  5  6  2  0
  6  7  1  0
  7  8  2  0
  8  9  1  0
  8 10  1  0
 10 11  2  0
  4 12  1  0
 12 13  2  0
 12 14  1  0
 14 15  2  3
 15 16  1  0
 16 17  2  0
 17 18  1  0
 18 19  2  0
 19 20  1  0
 20 21  1  0
 21 22  2  0
 22 23  1  0
 23 24  1  0
 23 25  2  0
 25 26  1  0
 25 27  1  0
 27 28  2  0
 28 29  1  0
 29 30  1  0
 20 31  2  0
 14  2  1  0
 31 16  1  0
 11  5  1  0
 28 21  1  0
  1 32  1  0
  1 33  1  0
  6 34  1  0
  7 35  1  0
 10 36  1  0
 11 37  1  0
 15 38  1  0
 17 39  1  0
 18 40  1  0
 19 41  1  0
 22 42  1  0
 24 43  1  0
 27 44  1  0
 29 45  1  0
 29 46  1  0
 30 47  1  0
 30 48  1  0
 30 49  1  0
 31 50  1  0
M  CHG  2   3  -1  26  -1
M  END
>  <UniqueID>  (10) 
10

>  <SMILES>  (10) 
C=c1[n-]n(-c2ccc(Cl)cc2)c(=O)c1=Cc1cccc(-c2cc(O)c([O-])cc2CC)c1

>  <Energy>  (10) 
106.04033566308006

>  <Genealogy>  (10) 
C=c1[n-]n(-c2ccc(Cl)cc2)c(=O)c1=Cc1cccc(-c2cc(O)c([O-])cc2CC)c1 (protonated)
C=c1[n-]n(-c2ccc(Cl)cc2)c(=O)c1=Cc1cccc(-c2cc(O)c([O-])cc2CC)c1 (3D coordinates assigned)
C=c1[n-]n(-c2ccc(Cl)cc2)c(=O)c1=Cc1cccc(-c2cc(O)c([O-])cc2CC)c1 (optimized conformer: 106.04033566308006 kcal/mol)

>  <smiles>  (10) 
C=c1[nH]n(-c2ccc(Cl)cc2)c(=O)c1=Cc1cccc(-c2cc(O)c(O)cc2CC)c1

>  <score_type>  (10) 
oracle

>  <origin>  (10) 
adgpu

>  <m_score__min__energy>  (10) 
-11.5

>  <m_primary>  (10) 
energy

$$$$
10:0
     RDKit          3D

 58 61  0  0  0  0  0  0  0  0999 V2000
    4.0200   24.9970  -28.2480 C   0  0  0  0  0  0  0  0  0  0  0  0
    3.6720   25.1630  -26.8340 N   0  0  0  0  0  0  0  0  0  0  0  0
    4.6510   25.7550  -25.9230 C   0  0  0  0  0  0  0  0  0  0  0  0
    2.4110   24.7040  -26.3110 C   0  0  0  0  0  0  0  0  0  0  0  0
    2.3710   24.1970  -25.1570 O   0  0  0  0  0  0  0  0  0  0  0  0
    1.1520   24.8330  -27.0840 C   0  0  0  0  0  0  0  0  0  0  0  0
    0.4240   26.0340  -27.0520 C   0  0  0  0  0  0  0  0  0  0  0  0
   -0.7540   26.1670  -27.7940 C   0  0  0  0  0  0  0  0  0  0  0  0
   -1.2270   25.1060  -28.5720 C   0  0  0  0  0  0  0  0  0  0  0  0
   -2.4230   25.2970  -29.3420 N   0  0  0  0  0  0  0  0  0  0  0  0
   -3.6220   24.5150  -29.2660 C   0  0  0  0  0  0  0  0  0  0  0  0
   -4.2330   24.3780  -28.1720 O   0  0  0  0  0  0  0  0  0  0  0  0
   -4.1720   23.9040  -30.4810 C   0  0  0  0  0  0  0  0  0  0  0  0
   -3.8120   22.6780  -31.0060 C   0  0  0  0  0  0  0  0  0  0  0  0
   -4.5900   22.5340  -32.1330 C   0  0  0  0  0  0  0  0  0  0  0  0
   -4.6070   21.3720  -32.9780 N   0  0  0  0  0  0  0  0  0  0  0  0
   -4.3270   20.0370  -32.5270 C   0  0  0  0  0  0  0  0  0  0  0  0
   -4.3790   19.7610  -31.2980 O   0  0  0  0  0  0  0  0  0  0  0  0
   -3.9880   18.9740  -33.5060 C   0  0  0  0  0  0  0  0  0  0  0  0
   -2.6900   18.4300  -33.5010 C   0  0  0  0  0  0  0  0  0  0  0  0
   -2.3460   17.3990  -34.3770 C   0  0  0  0  0  0  0  0  0  0  0  0
   -3.2900   16.8970  -35.2710 C   0  0  0  0  0  0  0  0  0  0  0  0
   -4.5810   17.4250  -35.2940 C   0  0  0  0  0  0  0  0  0  0  0  0
   -4.9500   18.4560  -34.4110 C   0  0  0  0  0  0  0  0  0  0  0  0
   -6.2620   19.0370  -34.5060 N   0  0  0  0  0  0  0  0  0  0  0  0
   -7.1410   19.2180  -33.3820 C   0  0  0  0  0  0  0  0  0  0  0  0
   -7.5770   18.0960  -32.6580 C   0  0  0  0  0  0  0  0  0  0  0  0
   -8.4470   18.2480  -31.5730 C   0  0  0  0  0  0  0  0  0  0  0  0
   -8.8980   19.5190  -31.2090 C   0  0  0  0  0  0  0  0  0  0  0  0
   -8.4850   20.6410  -31.9330 C   0  0  0  0  0  0  0  0  0  0  0  0
   -7.6150   20.4930  -33.0180 C   0  0  0  0  0  0  0  0  0  0  0  0
   -5.3890   23.6590  -32.2240 C   0  0  0  0  0  0  0  0  0  0  0  0
   -5.1060   24.4620  -31.2230 O   0  0  0  0  0  0  0  0  0  0  0  0
   -0.4810   23.9160  -28.6370 C   0  0  0  0  0  0  0  0  0  0  0  0
    0.6980   23.7820  -27.8960 C   0  0  0  0  0  0  0  0  0  0  0  0
    5.0101   24.5247  -28.3289 H   0  0  0  0  0  0  0  0  0  0  0  0
    3.2688   24.3602  -28.7382 H   0  0  0  0  0  0  0  0  0  0  0  0
    4.0422   25.9815  -28.7382 H   0  0  0  0  0  0  0  0  0  0  0  0
    4.3436   25.5691  -24.8833 H   0  0  0  0  0  0  0  0  0  0  0  0
    5.6376   25.3020  -26.1002 H   0  0  0  0  0  0  0  0  0  0  0  0
    4.7081   26.8391  -26.1002 H   0  0  0  0  0  0  0  0  0  0  0  0
    0.7825   26.8746  -26.4398 H   0  0  0  0  0  0  0  0  0  0  0  0
   -1.3129   27.1140  -27.7653 H   0  0  0  0  0  0  0  0  0  0  0  0
   -3.0672   21.9717  -30.6105 H   0  0  0  0  0  0  0  0  0  0  0  0
   -4.8760   21.5090  -33.9790 H   0  0  0  0  0  0  0  0  0  0  0  0
   -1.9386   18.8214  -32.7994 H   0  0  0  0  0  0  0  0  0  0  0  0
   -1.3282   16.9821  -34.3616 H   0  0  0  0  0  0  0  0  0  0  0  0
   -3.0168   16.0836  -35.9592 H   0  0  0  0  0  0  0  0  0  0  0  0
   -5.3177   17.0312  -36.0097 H   0  0  0  0  0  0  0  0  0  0  0  0
   -6.6110   19.3030  -35.4540 H   0  0  0  0  0  0  0  0  0  0  0  0
   -7.2323   17.0918  -32.9459 H   0  0  0  0  0  0  0  0  0  0  0  0
   -8.7765   17.3651  -31.0056 H   0  0  0  0  0  0  0  0  0  0  0  0
   -9.5782   19.6368  -30.3526 H   0  0  0  0  0  0  0  0  0  0  0  0
   -8.8445   21.6411  -31.6492 H   0  0  0  0  0  0  0  0  0  0  0  0
   -7.2992   21.3777  -33.5903 H   0  0  0  0  0  0  0  0  0  0  0  0
   -6.1385   23.8503  -33.0060 H   0  0  0  0  0  0  0  0  0  0  0  0
   -0.8257   23.0872  -29.2729 H   0  0  0  0  0  0  0  0  0  0  0  0
    1.2735   22.8461  -27.9501 H   0  0  0  0  0  0  0  0  0  0  0  0
  1  2  1  0
  2  3  1  0
  2  4  1  0
  4  5  2  0
  4  6  1  0
  6  7  2  0
  7  8  1  0
  8  9  2  0
  9 10  1  0
 10 11  1  0
 11 12  2  0
 11 13  1  0
 13 14  2  0
 14 15  1  0
 15 16  1  0
 16 17  1  0
 17 18  2  0
 17 19  1  0
 19 20  2  0
 20 21  1  0
 21 22  2  0
 22 23  1  0
 23 24  2  0
 24 25  1  0
 25 26  1  0
 26 27  2  0
 27 28  1  0
 28 29  2  0
 29 30  1  0
 30 31  2  0
 15 32  2  0
 32 33  1  0
  9 34  1  0
 34 35  2  0
 35  6  1  0
 33 13  1  0
 24 19  1  0
 31 26  1  0
  1 36  1  0
  1 37  1  0
  1 38  1  0
  3 39  1  0
  3 40  1  0
  3 41  1  0
  7 42  1  0
  8 43  1  0
 14 44  1  0
 16 45  1  0
 20 46  1  0
 21 47  1  0
 22 48  1  0
 23 49  1  0
 25 50  1  0
 27 51  1  0
 28 52  1  0
 29 53  1  0
 30 54  1  0
 31 55  1  0
 32 56  1  0
 34 57  1  0
 35 58  1  0
M  CHG  1  10  -1
M  END
>  <UniqueID>  (11) 
11

>  <SMILES>  (11) 
CN(C)C(=O)c1ccc([N-]C(=O)c2cc(NC(=O)c3ccccc3Nc3ccccc3)co2)cc1

>  <Energy>  (11) 
106.8018439002057

>  <Genealogy>  (11) 
CN(C)C(=O)c1ccc([N-]C(=O)c2cc(NC(=O)c3ccccc3Nc3ccccc3)co2)cc1 (protonated)
CN(C)C(=O)c1ccc([N-]C(=O)c2cc(NC(=O)c3ccccc3Nc3ccccc3)co2)cc1 (3D coordinates assigned)
CN(C)C(=O)c1ccc([N-]C(=O)c2cc(NC(=O)c3ccccc3Nc3ccccc3)co2)cc1 (optimized conformer: 106.8018439002057 kcal/mol)

>  <smiles>  (11) 
CN(C)C(=O)c1ccc(NC(=O)c2cc(NC(=O)c3ccccc3Nc3ccccc3)co2)cc1

>  <score_type>  (11) 
oracle

>  <origin>  (11) 
adgpu

>  <m_score__min__energy>  (11) 
-11.17

>  <m_primary>  (11) 
energy

$$$$
11:0
     RDKit          3D

 44 45  0  0  0  0  0  0  0  0999 V2000
    1.4420   25.4210  -27.0760 C   0  0  0  0  0  0  0  0  0  0  0  0
    0.9670   24.6570  -28.1780 O   0  0  0  0  0  0  0  0  0  0  0  0
   -0.3750   24.2920  -28.3690 C   0  0  0  0  0  0  0  0  0  0  0  0
   -0.6590   23.2200  -29.2230 C   0  0  0  0  0  0  0  0  0  0  0  0
   -1.9790   22.8200  -29.4460 C   0  0  0  0  0  0  0  0  0  0  0  0
   -3.0380   23.4860  -28.8200 C   0  0  0  0  0  0  0  0  0  0  0  0
   -4.3780   23.0490  -29.0860 N   0  0  0  0  0  0  0  0  0  0  0  0
   -5.3560   23.5860  -30.4130 S   0  0  0  0  0  0  0  0  0  0  0  0
   -6.6510   24.1330  -29.8800 O   0  0  0  0  0  0  0  0  0  0  0  0
   -4.6270   24.6970  -31.1140 O   0  0  0  0  0  0  0  0  0  0  0  0
   -5.7160   22.2240  -31.5080 C   0  0  0  0  0  0  0  0  0  0  0  0
   -4.7330   21.7190  -32.3850 C   0  0  0  0  0  0  0  0  0  0  0  0
   -3.3420   22.2990  -32.4430 C   0  0  0  0  0  0  0  0  0  0  0  0
   -5.0450   20.6960  -33.2290 N   0  0  0  0  0  0  0  0  0  0  0  0
   -6.2710   20.1050  -33.2600 C   0  0  0  0  0  0  0  0  0  0  0  0
   -6.4550   18.9910  -34.1430 N   0  0  0  0  0  0  0  0  0  0  0  0
   -7.3120   20.5920  -32.4230 C   0  0  0  0  0  0  0  0  0  0  0  0
   -8.7520   20.0590  -32.4640 C   0  0  0  0  0  0  0  0  0  0  0  0
   -9.7860   21.1850  -32.3390 C   0  0  0  0  0  0  0  0  0  0  0  0
   -9.0150   18.8980  -31.4910 C   0  0  0  0  0  0  0  0  0  0  0  0
   -6.9950   21.6350  -31.5190 C   0  0  0  0  0  0  0  0  0  0  0  0
   -7.8700   22.0440  -30.7080 O   0  0  0  0  0  0  0  0  0  0  0  0
   -2.7580   24.5610  -27.9570 C   0  0  0  0  0  0  0  0  0  0  0  0
   -1.4380   24.9620  -27.7340 C   0  0  0  0  0  0  0  0  0  0  0  0
    1.1402   24.9356  -26.1361 H   0  0  0  0  0  0  0  0  0  0  0  0
    2.5393   25.4848  -27.1199 H   0  0  0  0  0  0  0  0  0  0  0  0
    1.0138   26.4333  -27.1199 H   0  0  0  0  0  0  0  0  0  0  0  0
    0.1639   22.6880  -29.7228 H   0  0  0  0  0  0  0  0  0  0  0  0
   -2.1871   21.9750  -30.1189 H   0  0  0  0  0  0  0  0  0  0  0  0
   -2.9670   22.4554  -31.4208 H   0  0  0  0  0  0  0  0  0  0  0  0
   -2.6766   21.6034  -32.9753 H   0  0  0  0  0  0  0  0  0  0  0  0
   -3.3679   23.2613  -32.9753 H   0  0  0  0  0  0  0  0  0  0  0  0
   -4.3060   20.3320  -33.8730 H   0  0  0  0  0  0  0  0  0  0  0  0
   -6.8760   19.1390  -35.0860 H   0  0  0  0  0  0  0  0  0  0  0  0
   -6.0050   18.0690  -33.9800 H   0  0  0  0  0  0  0  0  0  0  0  0
   -8.8766   19.6189  -33.4644 H   0  0  0  0  0  0  0  0  0  0  0  0
   -9.9760   21.3919  -31.2755 H   0  0  0  0  0  0  0  0  0  0  0  0
   -9.4002   22.0928  -32.8259 H   0  0  0  0  0  0  0  0  0  0  0  0
  -10.7233   20.8778  -32.8259 H   0  0  0  0  0  0  0  0  0  0  0  0
   -8.9327   19.2612  -30.4560 H   0  0  0  0  0  0  0  0  0  0  0  0
  -10.0262   18.4995  -31.6604 H   0  0  0  0  0  0  0  0  0  0  0  0
   -8.2743   18.1026  -31.6604 H   0  0  0  0  0  0  0  0  0  0  0  0
   -3.5824   25.0887  -27.4551 H   0  0  0  0  0  0  0  0  0  0  0  0
   -1.2286   25.8051  -27.0592 H   0  0  0  0  0  0  0  0  0  0  0  0
  1  2  1  0
  2  3  1  0
  3  4  2  0
  4  5  1  0
  5  6  2  0
  6  7  1  0
  7  8  1  0
  8  9  2  0
  8 10  2  0
  8 11  1  0
 11 12  2  0
 12 13  1  0
 12 14  1  0
 14 15  1  0
 15 16  1  0
 15 17  2  0
 17 18  1  0
 18 19  1  0
 18 20  1  0
 17 21  1  0
 21 22  2  0
  6 23  1  0
 23 24  2  0
 24  3  1  0
 21 11  1  0
  1 25  1  0
  1 26  1  0
  1 27  1  0
  4 28  1  0
  5 29  1  0
 13 30  1  0
 13 31  1  0
 13 32  1  0
 14 33  1  0
 16 34  1  0
 16 35  1  0
 18 36  1  0
 19 37  1  0
 19 38  1  0
 19 39  1  0
 20 40  1  0
 20 41  1  0
 20 42  1  0
 23 43  1  0
 24 44  1  0
M  CHG  1   7  -1
M  END
>  <UniqueID>  (12) 
12

>  <SMILES>  (12) 
COc1ccc([N-]S(=O)(=O)c2c(C)[nH]c(N)c(C(C)C)c2=O)cc1

>  <Energy>  (12) 
55.37991180242581

>  <Genealogy>  (12) 
COc1ccc([N-]S(=O)(=O)c2c(C)[nH]c(N)c(C(C)C)c2=O)cc1 (protonated)
COc1ccc([N-]S(=O)(=O)c2c(C)[nH]c(N)c(C(C)C)c2=O)cc1 (3D coordinates assigned)
COc1ccc([N-]S(=O)(=O)c2c(C)[nH]c(N)c(C(C)C)c2=O)cc1 (optimized conformer: 55.37991180242581 kcal/mol)

>  <smiles>  (12) 
COc1ccc(NS(=O)(=O)c2c(C)[nH]c(N)c(C(C)C)c2=O)cc1

>  <score_type>  (12) 
oracle

>  <origin>  (12) 
adgpu

>  <m_score__min__energy>  (12) 
-8.8699999999999992

>  <m_primary>  (12) 
energy

$$$$
12:0
     RDKit          3D

 72 76  0  0  0  0  0  0  0  0999 V2000
    0.6190   15.1500  -32.5970 C   0  0  0  0  0  0  0  0  0  0  0  0
    1.3170   16.2120  -33.2120 O   0  0  0  0  0  0  0  0  0  0  0  0
    1.9480   15.7670  -34.4000 C   0  0  0  0  0  0  0  0  0  0  0  0
    1.2030   16.2660  -35.6470 C   0  0  0  0  0  0  0  0  0  0  0  0
   -0.0140   17.0220  -35.2960 N   0  0  0  0  0  0  0  0  0  0  0  0
   -1.2860   16.3430  -35.3750 C   0  0  0  0  0  0  0  0  0  0  0  0
   -1.3790   15.3170  -36.1010 O   0  0  0  0  0  0  0  0  0  0  0  0
   -2.4560   16.7160  -34.5320 C   0  0  0  0  0  0  0  0  0  0  0  0
   -3.0310   17.9890  -34.7100 C   0  0  0  0  0  0  0  0  0  0  0  0
   -4.1290   18.3910  -33.9480 C   0  0  0  0  0  0  0  0  0  0  0  0
   -4.6700   17.5360  -32.9820 C   0  0  0  0  0  0  0  0  0  0  0  0
   -6.0580   18.0570  -32.0240 S   0  0  0  0  0  0  0  0  0  0  0  0
   -5.6150   19.1600  -31.1020 O   0  0  0  0  0  0  0  0  0  0  0  0
   -6.5120   16.9060  -31.1690 O   0  0  0  0  0  0  0  0  0  0  0  0
   -7.3970   18.6530  -32.9880 N   0  0  0  0  0  0  0  0  0  0  0  0
   -8.7100   18.5300  -32.3280 C   0  0  0  0  0  0  0  0  0  0  0  0
   -9.0090   19.6250  -31.2790 C   0  0  0  0  0  0  0  0  0  0  0  0
   -8.2230   20.9020  -31.4500 C   0  0  0  0  0  0  0  0  0  0  0  0
   -8.3640   21.9260  -30.4990 C   0  0  0  0  0  0  0  0  0  0  0  0
   -7.6030   23.0950  -30.6020 C   0  0  0  0  0  0  0  0  0  0  0  0
   -6.7050   23.2520  -31.6580 C   0  0  0  0  0  0  0  0  0  0  0  0
   -6.5610   22.2450  -32.6120 C   0  0  0  0  0  0  0  0  0  0  0  0
   -7.3070   21.0610  -32.5050 C   0  0  0  0  0  0  0  0  0  0  0  0
   -7.1660   19.9910  -33.5460 C   0  0  0  0  0  0  0  0  0  0  0  0
   -4.0870   16.2790  -32.7730 C   0  0  0  0  0  0  0  0  0  0  0  0
   -3.0020   15.8610  -33.5530 C   0  0  0  0  0  0  0  0  0  0  0  0
    0.0720   18.4610  -35.2240 C   0  0  0  0  0  0  0  0  0  0  0  0
   -0.1060   19.1400  -34.0000 C   0  0  0  0  0  0  0  0  0  0  0  0
   -0.6740   18.4290  -32.8860 N   0  0  0  0  0  0  0  0  0  0  0  0
    0.2340   20.4750  -33.8980 N   0  0  0  0  0  0  0  0  0  0  0  0
    0.2670   21.1570  -32.5850 C   0  0  0  0  0  0  0  0  0  0  0  0
   -1.1150   21.4030  -32.0300 C   0  0  0  0  0  0  0  0  0  0  0  0
   -1.3100   21.5760  -30.6490 C   0  0  0  0  0  0  0  0  0  0  0  0
   -2.6040   21.6830  -30.1280 C   0  0  0  0  0  0  0  0  0  0  0  0
   -3.7110   21.6160  -30.9770 C   0  0  0  0  0  0  0  0  0  0  0  0
   -3.5280   21.4550  -32.3520 C   0  0  0  0  0  0  0  0  0  0  0  0
   -2.2380   21.3360  -32.8770 C   0  0  0  0  0  0  0  0  0  0  0  0
    0.6080   21.1640  -35.0280 C   0  0  0  0  0  0  0  0  0  0  0  0
    0.8710   22.3960  -34.9810 O   0  0  0  0  0  0  0  0  0  0  0  0
    0.7100   20.5270  -36.2190 N   0  0  0  0  0  0  0  0  0  0  0  0
    0.4740   19.2020  -36.3410 C   0  0  0  0  0  0  0  0  0  0  0  0
    0.6440   18.6450  -37.4590 O   0  0  0  0  0  0  0  0  0  0  0  0
    0.6859   15.2517  -31.5038 H   0  0  0  0  0  0  0  0  0  0  0  0
   -0.4369   15.1787  -32.9040 H   0  0  0  0  0  0  0  0  0  0  0  0
    1.0642   14.1921  -32.9040 H   0  0  0  0  0  0  0  0  0  0  0  0
    2.9797   16.1480  -34.4223 H   0  0  0  0  0  0  0  0  0  0  0  0
    1.9397   14.6671  -34.4070 H   0  0  0  0  0  0  0  0  0  0  0  0
    1.8736   16.9199  -36.2238 H   0  0  0  0  0  0  0  0  0  0  0  0
    0.9003   15.3882  -36.2368 H   0  0  0  0  0  0  0  0  0  0  0  0
   -2.6094   18.6753  -35.4591 H   0  0  0  0  0  0  0  0  0  0  0  0
   -4.5713   19.3854  -34.1079 H   0  0  0  0  0  0  0  0  0  0  0  0
   -9.4891   18.5759  -33.1032 H   0  0  0  0  0  0  0  0  0  0  0  0
   -8.6970   17.5736  -31.7847 H   0  0  0  0  0  0  0  0  0  0  0  0
  -10.0792   19.8721  -31.3389 H   0  0  0  0  0  0  0  0  0  0  0  0
   -8.7115   19.2083  -30.3054 H   0  0  0  0  0  0  0  0  0  0  0  0
   -9.0764   21.8080  -29.6692 H   0  0  0  0  0  0  0  0  0  0  0  0
   -7.7126   23.8906  -29.8503 H   0  0  0  0  0  0  0  0  0  0  0  0
   -6.1087   24.1729  -31.7384 H   0  0  0  0  0  0  0  0  0  0  0  0
   -5.8613   22.3790  -33.4501 H   0  0  0  0  0  0  0  0  0  0  0  0
   -7.8982   20.1742  -34.3462 H   0  0  0  0  0  0  0  0  0  0  0  0
   -6.1377   20.0261  -33.9350 H   0  0  0  0  0  0  0  0  0  0  0  0
   -4.4846   15.6159  -31.9905 H   0  0  0  0  0  0  0  0  0  0  0  0
   -2.5730   14.8595  -33.4010 H   0  0  0  0  0  0  0  0  0  0  0  0
   -1.4550   18.8450  -32.3320 H   0  0  0  0  0  0  0  0  0  0  0  0
   -0.2960   17.5260  -32.5310 H   0  0  0  0  0  0  0  0  0  0  0  0
    0.8264   20.5300  -31.8751 H   0  0  0  0  0  0  0  0  0  0  0  0
    0.7507   22.1347  -32.7268 H   0  0  0  0  0  0  0  0  0  0  0  0
   -0.4420   21.6275  -29.9752 H   0  0  0  0  0  0  0  0  0  0  0  0
   -2.7500   21.8203  -29.0464 H   0  0  0  0  0  0  0  0  0  0  0  0
   -4.7272   21.6901  -30.5625 H   0  0  0  0  0  0  0  0  0  0  0  0
   -4.3995   21.4218  -33.0224 H   0  0  0  0  0  0  0  0  0  0  0  0
   -2.0992   21.1891  -33.9583 H   0  0  0  0  0  0  0  0  0  0  0  0
  1  2  1  0
  2  3  1  0
  3  4  1  0
  4  5  1  0
  5  6  1  0
  6  7  2  0
  6  8  1  0
  8  9  2  0
  9 10  1  0
 10 11  2  0
 11 12  1  0
 12 13  2  0
 12 14  2  0
 12 15  1  0
 15 16  1  0
 16 17  1  0
 17 18  1  0
 18 19  2  0
 19 20  1  0
 20 21  2  0
 21 22  1  0
 22 23  2  0
 23 24  1  0
 11 25  1  0
 25 26  2  0
  5 27  1  0
 27 28  2  0
 28 29  1  0
 28 30  1  0
 30 31  1  0
 31 32  1  0
 32 33  2  0
 33 34  1  0
 34 35  2  0
 35 36  1  0
 36 37  2  0
 30 38  1  0
 38 39  2  0
 38 40  1  0
 40 41  1  0
 41 42  2  0
 26  8  1  0
 41 27  1  0
 24 15  1  0
 37 32  1  0
 23 18  1  0
  1 43  1  0
  1 44  1  0
  1 45  1  0
  3 46  1  0
  3 47  1  0
  4 48  1  0
  4 49  1  0
  9 50  1  0
 10 51  1  0
 16 52  1  0
 16 53  1  0
 17 54  1  0
 17 55  1  0
 19 56  1  0
 20 57  1  0
 21 58  1  0
 22 59  1  0
 24 60  1  0
 24 61  1  0
 25 62  1  0
 26 63  1  0
 29 64  1  0
 29 65  1  0
 31 66  1  0
 31 67  1  0
 33 68  1  0
 34 69  1  0
 35 70  1  0
 36 71  1  0
 37 72  1  0
M  CHG  1  40  -1
M  END
>  <UniqueID>  (13) 
13

>  <SMILES>  (13) 
COCCN(C(=O)c1ccc(S(=O)(=O)N2CCc3ccccc3C2)cc1)c1c(N)n(Cc2ccccc2)c(=O)[n-]c1=O

>  <Energy>  (13) 
103.49444101773342

>  <Genealogy>  (13) 
COCCN(C(=O)c1ccc(S(=O)(=O)N2CCc3ccccc3C2)cc1)c1c(N)n(Cc2ccccc2)c(=O)[n-]c1=O (protonated)
COCCN(C(=O)c1ccc(S(=O)(=O)N2CCc3ccccc3C2)cc1)c1c(N)n(Cc2ccccc2)c(=O)[n-]c1=O (3D coordinates assigned)
COCCN(C(=O)c1ccc(S(=O)(=O)N2CCc3ccccc3C2)cc1)c1c(N)n(Cc2ccccc2)c(=O)[n-]c1=O (nonaromatic ring conformer: 103.49444101773342 kcal/mol)

>  <smiles>  (13) 
COCCN(C(=O)c1ccc(S(=O)(=O)N2CCc3ccccc3C2)cc1)c1c(N)n(Cc2ccccc2)c(=O)[nH]c1=O

>  <score_type>  (13) 
oracle

>  <origin>  (13) 
adgpu

>  <m_score__min__energy>  (13) 
-10.369999999999999

>  <m_primary>  (13) 
energy

$$$$
13:0
     RDKit          3D

 44 46  0  0  0  0  0  0  0  0999 V2000
   -2.1470   23.6580  -29.8190 O   0  0  0  0  0  0  0  0  0  0  0  0
   -3.2440   23.9610  -29.2750 C   0  0  0  0  0  0  0  0  0  0  0  0
   -3.2530   24.7300  -28.0570 N   0  0  0  0  0  0  0  0  0  0  0  0
   -2.0610   25.1200  -27.3520 C   0  0  0  0  0  0  0  0  0  0  0  0
   -1.8850   24.8020  -25.9920 C   0  0  0  0  0  0  0  0  0  0  0  0
   -0.7340   25.2120  -25.3140 C   0  0  0  0  0  0  0  0  0  0  0  0
    0.2440   25.9550  -25.9800 C   0  0  0  0  0  0  0  0  0  0  0  0
    0.0690   26.2950  -27.3240 C   0  0  0  0  0  0  0  0  0  0  0  0
   -1.0800   25.8850  -28.0080 C   0  0  0  0  0  0  0  0  0  0  0  0
   -1.2380   26.2340  -29.3460 O   0  0  0  0  0  0  0  0  0  0  0  0
   -4.5070   23.5200  -29.9140 C   0  0  0  0  0  0  0  0  0  0  0  0
   -5.6260   23.2240  -29.1160 C   0  0  0  0  0  0  0  0  0  0  0  0
   -6.8250   22.8090  -29.6990 C   0  0  0  0  0  0  0  0  0  0  0  0
   -6.9270   22.6760  -31.0890 C   0  0  0  0  0  0  0  0  0  0  0  0
   -8.4490   22.1750  -31.8280 S   0  0  0  0  0  0  0  0  0  0  0  0
   -8.9750   23.2910  -32.6870 O   0  0  0  0  0  0  0  0  0  0  0  0
   -9.4600   21.9060  -30.7470 O   0  0  0  0  0  0  0  0  0  0  0  0
   -8.2470   20.7350  -32.8000 N   0  0  0  0  0  0  0  0  0  0  0  0
   -9.3000   19.7280  -32.5110 C   0  0  0  0  0  0  0  0  0  0  0  0
   -8.7990   18.5700  -31.6360 C   0  0  0  0  0  0  0  0  0  0  0  0
   -7.6150   17.8450  -32.3000 C   0  0  0  0  0  0  0  0  0  0  0  0
   -6.7540   18.7800  -33.1680 C   0  0  0  0  0  0  0  0  0  0  0  0
   -6.8610   20.2300  -32.6890 C   0  0  0  0  0  0  0  0  0  0  0  0
   -5.8090   22.9460  -31.8900 C   0  0  0  0  0  0  0  0  0  0  0  0
   -4.6080   23.3640  -31.3090 C   0  0  0  0  0  0  0  0  0  0  0  0
   -4.1630   25.0620  -27.6700 H   0  0  0  0  0  0  0  0  0  0  0  0
   -2.6578   24.2276  -25.4601 H   0  0  0  0  0  0  0  0  0  0  0  0
   -0.5977   24.9494  -24.2545 H   0  0  0  0  0  0  0  0  0  0  0  0
    1.1519   26.2724  -25.4462 H   0  0  0  0  0  0  0  0  0  0  0  0
    0.8364   26.8863  -27.8451 H   0  0  0  0  0  0  0  0  0  0  0  0
   -5.5563   23.3202  -28.0224 H   0  0  0  0  0  0  0  0  0  0  0  0
   -7.6940   22.5854  -29.0628 H   0  0  0  0  0  0  0  0  0  0  0  0
  -10.1294   20.2280  -31.9894 H   0  0  0  0  0  0  0  0  0  0  0  0
   -9.6184   19.2996  -33.4729 H   0  0  0  0  0  0  0  0  0  0  0  0
   -8.4760   18.9687  -30.6630 H   0  0  0  0  0  0  0  0  0  0  0  0
   -9.6205   17.8501  -31.5057 H   0  0  0  0  0  0  0  0  0  0  0  0
   -6.9803   17.4137  -31.5119 H   0  0  0  0  0  0  0  0  0  0  0  0
   -8.0299   17.0690  -32.9601 H   0  0  0  0  0  0  0  0  0  0  0  0
   -5.7036   18.4588  -33.1092 H   0  0  0  0  0  0  0  0  0  0  0  0
   -7.1170   18.7268  -34.2050 H   0  0  0  0  0  0  0  0  0  0  0  0
   -6.5439   20.2836  -31.6371 H   0  0  0  0  0  0  0  0  0  0  0  0
   -6.2141   20.8528  -33.3243 H   0  0  0  0  0  0  0  0  0  0  0  0
   -5.8768   22.8284  -32.9816 H   0  0  0  0  0  0  0  0  0  0  0  0
   -3.7361   23.5723  -31.9465 H   0  0  0  0  0  0  0  0  0  0  0  0
  1  2  2  0
  2  3  1  0
  3  4  1  0
  4  5  2  0
  5  6  1  0
  6  7  2  0
  7  8  1  0
  8  9  2  0
  9 10  1  0
  2 11  1  0
 11 12  2  0
 12 13  1  0
 13 14  2  0
 14 15  1  0
 15 16  2  0
 15 17  2  0
 15 18  1  0
 18 19  1  0
 19 20  1  0
 20 21  1  0
 21 22  1  0
 22 23  1  0
 14 24  1  0
 24 25  2  0
  9  4  1  0
 25 11  1  0
 23 18  1  0
  3 26  1  0
  5 27  1  0
  6 28  1  0
  7 29  1  0
  8 30  1  0
 12 31  1  0
 13 32  1  0
 19 33  1  0
 19 34  1  0
 20 35  1  0
 20 36  1  0
 21 37  1  0
 21 38  1  0
 22 39  1  0
 22 40  1  0
 23 41  1  0
 23 42  1  0
 24 43  1  0
 25 44  1  0
M  CHG  1  10  -1
M  END
>  <UniqueID>  (14) 
14

>  <SMILES>  (14) 
O=C(Nc1ccccc1[O-])c1ccc(S(=O)(=O)N2CCCCC2)cc1

>  <Energy>  (14) 
57.39517446165188

>  <Genealogy>  (14) 
O=C(Nc1ccccc1[O-])c1ccc(S(=O)(=O)N2CCCCC2)cc1 (protonated)
O=C(Nc1ccccc1[O-])c1ccc(S(=O)(=O)N2CCCCC2)cc1 (3D coordinates assigned)
O=C(Nc1ccccc1[O-])c1ccc(S(=O)(=O)N2CCCCC2)cc1 (nonaromatic ring conformer: 57.39517446165188 kcal/mol)

>  <smiles>  (14) 
O=C(Nc1ccccc1O)c1ccc(S(=O)(=O)N2CCCCC2)cc1

>  <score_type>  (14) 
oracle

>  <origin>  (14) 
adgpu

>  <m_score__min__energy>  (14) 
-12.460000000000001

>  <m_primary>  (14) 
energy

$$$$
14:0
     RDKit          3D

 40 42  0  0  0  0  0  0  0  0999 V2000
   -8.2097   18.0004  -32.9983 H   0  0  0  0  0  0  0  0  0  0  0  0
   -8.0750   19.0520  -32.7050 C   0  0  0  0  0  0  0  0  0  0  0  0
   -9.1000   19.7270  -32.0380 C   0  0  0  0  0  0  0  0  0  0  0  0
  -10.0449   19.2096  -31.8156 H   0  0  0  0  0  0  0  0  0  0  0  0
   -8.9260   21.0590  -31.6530 C   0  0  0  0  0  0  0  0  0  0  0  0
   -9.7353   21.5875  -31.1280 H   0  0  0  0  0  0  0  0  0  0  0  0
   -7.7200   21.7270  -31.9340 C   0  0  0  0  0  0  0  0  0  0  0  0
   -7.5490   23.1790  -31.5610 C   0  0  0  0  0  0  0  0  0  0  0  0
   -8.5379   23.6602  -31.5414 H   0  0  0  0  0  0  0  0  0  0  0  0
   -6.8947   23.6492  -32.3099 H   0  0  0  0  0  0  0  0  0  0  0  0
   -6.8910   23.3410  -30.1850 C   0  0  0  0  0  0  0  0  0  0  0  0
   -7.1197   22.4566  -29.5722 H   0  0  0  0  0  0  0  0  0  0  0  0
   -7.2881   24.2532  -29.7157 H   0  0  0  0  0  0  0  0  0  0  0  0
   -5.4060   23.4800  -30.3050 C   0  0  0  0  0  0  0  0  0  0  0  0
   -4.7830   24.5380  -30.8590 N   0  0  0  0  0  0  0  0  0  0  0  0
   -3.4890   24.2590  -30.8340 N   0  0  0  0  0  0  0  0  0  0  0  0
   -3.3800   23.0380  -30.2780 C   0  0  0  0  0  0  0  0  0  0  0  0
   -2.1180   22.3940  -30.0520 N   0  0  0  0  0  0  0  0  0  0  0  0
   -1.8200   21.4440  -29.2060 C   0  0  0  0  0  0  0  0  0  0  0  0
   -0.4800   21.0480  -29.1110 C   0  0  0  0  0  0  0  0  0  0  0  0
    0.2827   21.5373  -29.7347 H   0  0  0  0  0  0  0  0  0  0  0  0
   -0.1100   20.0320  -28.2250 C   0  0  0  0  0  0  0  0  0  0  0  0
    1.3320   19.6330  -28.0950 C   0  0  0  0  0  0  0  0  0  0  0  0
    1.5975   19.5595  -27.0301 H   0  0  0  0  0  0  0  0  0  0  0  0
    1.4878   18.6580  -28.5799 H   0  0  0  0  0  0  0  0  0  0  0  0
    1.9668   20.3892  -28.5799 H   0  0  0  0  0  0  0  0  0  0  0  0
   -1.0870   19.4390  -27.4190 C   0  0  0  0  0  0  0  0  0  0  0  0
   -0.8083   18.6563  -26.6981 H   0  0  0  0  0  0  0  0  0  0  0  0
   -2.4200   19.8460  -27.5340 C   0  0  0  0  0  0  0  0  0  0  0  0
   -3.4790   19.1650  -26.7170 C   0  0  0  0  0  0  0  0  0  0  0  0
   -3.2629   19.3040  -25.6474 H   0  0  0  0  0  0  0  0  0  0  0  0
   -4.4609   19.6014  -26.9524 H   0  0  0  0  0  0  0  0  0  0  0  0
   -3.4893   18.0905  -26.9524 H   0  0  0  0  0  0  0  0  0  0  0  0
   -2.7630   20.8120  -28.4370 N   0  0  0  0  0  0  0  0  0  0  0  0
   -3.7770   21.0250  -28.5430 H   0  0  0  0  0  0  0  0  0  0  0  0
   -4.5500   22.5580  -29.9410 O   0  0  0  0  0  0  0  0  0  0  0  0
   -6.7010   21.0460  -32.6200 C   0  0  0  0  0  0  0  0  0  0  0  0
   -5.7603   21.5635  -32.8592 H   0  0  0  0  0  0  0  0  0  0  0  0
   -6.8790   19.7110  -33.0000 C   0  0  0  0  0  0  0  0  0  0  0  0
   -6.0760   19.1797  -33.5318 H   0  0  0  0  0  0  0  0  0  0  0  0
  1  2  1  0
  2  3  2  0
  3  4  1  0
  3  5  1  0
  5  6  1  0
  5  7  2  0
  7  8  1  0
  8  9  1  0
  8 10  1  0
  8 11  1  0
 11 12  1  0
 11 13  1  0
 11 14  1  0
 14 15  2  0
 15 16  1  0
 16 17  2  0
 17 18  1  0
 18 19  2  0
 19 20  1  0
 20 21  1  0
 20 22  2  0
 22 23  1  0
 23 24  1  0
 23 25  1  0
 23 26  1  0
 22 27  1  0
 27 28  1  0
 27 29  2  0
 29 30  1  0
 30 31  1  0
 30 32  1  0
 30 33  1  0
 29 34  1  0
 34 35  1  0
 17 36  1  0
  7 37  1  0
 37 38  1  0
 37 39  2  0
 39 40  1  0
 39  2  1  0
 36 14  1  0
 34 19  1  0
M  END
>  <UniqueID>  (15) 
15

>  <SMILES>  (15) 
Cc1cc(C)[nH]/c(=N\c2nnc(CCc3ccccc3)o2)c1

>  <Energy>  (15) 
75.25640976999367

>  <Genealogy>  (15) 
Cc1cc(C)[nH]/c(=N\c2nnc(CCc3ccccc3)o2)c1 (cis-trans isomerization)
Cc1cc(C)[nH]/c(=N\c2nnc(CCc3ccccc3)o2)c1 (3D coordinates assigned)
Cc1cc(C)[nH]/c(=N\c2nnc(CCc3ccccc3)o2)c1 (optimized conformer: 75.25640976999367 kcal/mol)

>  <smiles>  (15) 
Cc1cc(C)[nH]c(=Nc2nnc(CCc3ccccc3)o2)c1

>  <score_type>  (15) 
oracle

>  <origin>  (15) 
adgpu

>  <m_score__min__energy>  (15) 
-8.2699999999999996

>  <m_primary>  (15) 
energy

$$$$
15:0
     RDKit          3D

 41 44  0  0  0  0  0  0  0  0999 V2000
   -4.3910   18.3190  -35.0570 O   0  0  0  0  0  0  0  0  0  0  0  0
   -4.3510   18.1530  -33.8080 C   0  0  0  0  0  0  0  0  0  0  0  0
   -3.9960   16.8220  -33.2730 C   0  0  0  0  0  0  0  0  0  0  0  0
   -2.6540   16.4080  -33.2900 C   0  0  0  0  0  0  0  0  0  0  0  0
   -2.3030   15.1320  -32.8410 C   0  0  0  0  0  0  0  0  0  0  0  0
   -3.2820   14.2620  -32.3550 C   0  0  0  0  0  0  0  0  0  0  0  0
   -2.9190   12.9900  -31.9210 O   0  0  0  0  0  0  0  0  0  0  0  0
   -4.6190   14.6780  -32.3060 C   0  0  0  0  0  0  0  0  0  0  0  0
   -4.9770   15.9550  -32.7520 C   0  0  0  0  0  0  0  0  0  0  0  0
   -6.3070   16.3550  -32.6650 O   0  0  0  0  0  0  0  0  0  0  0  0
   -4.6580   19.3000  -32.9280 C   0  0  0  0  0  0  0  0  0  0  0  0
   -6.1780   19.7100  -32.3900 S   0  0  0  0  0  0  0  0  0  0  0  0
   -5.8430   21.0890  -31.5320 N   0  0  0  0  0  0  0  0  0  0  0  0
   -4.4990   21.2620  -31.6330 C   0  0  0  0  0  0  0  0  0  0  0  0
   -3.8470   22.3980  -30.9450 C   0  0  0  0  0  0  0  0  0  0  0  0
   -2.6670   22.1850  -30.2150 C   0  0  0  0  0  0  0  0  0  0  0  0
   -2.0370   23.2490  -29.5630 C   0  0  0  0  0  0  0  0  0  0  0  0
   -2.5720   24.5380  -29.6460 C   0  0  0  0  0  0  0  0  0  0  0  0
   -1.9430   25.5910  -28.9920 O   0  0  0  0  0  0  0  0  0  0  0  0
   -3.7360   24.7650  -30.3900 C   0  0  0  0  0  0  0  0  0  0  0  0
   -4.2660   26.0470  -30.4850 O   0  0  0  0  0  0  0  0  0  0  0  0
   -4.3670   23.7010  -31.0430 C   0  0  0  0  0  0  0  0  0  0  0  0
   -3.8040   20.2830  -32.4070 C   0  0  0  0  0  0  0  0  0  0  0  0
   -2.3450   20.3090  -32.6500 C   0  0  0  0  0  0  0  0  0  0  0  0
   -1.5010   19.4050  -31.9850 C   0  0  0  0  0  0  0  0  0  0  0  0
   -0.1270   19.4080  -32.2400 C   0  0  0  0  0  0  0  0  0  0  0  0
    0.4150   20.3170  -33.1550 C   0  0  0  0  0  0  0  0  0  0  0  0
    1.7810   20.3120  -33.4090 O   0  0  0  0  0  0  0  0  0  0  0  0
   -0.4190   21.2310  -33.8110 C   0  0  0  0  0  0  0  0  0  0  0  0
    0.1140   22.1380  -34.7180 O   0  0  0  0  0  0  0  0  0  0  0  0
   -1.7960   21.2280  -33.5570 C   0  0  0  0  0  0  0  0  0  0  0  0
   -1.8751   17.0917  -33.6587 H   0  0  0  0  0  0  0  0  0  0  0  0
   -1.2512   14.8113  -32.8704 H   0  0  0  0  0  0  0  0  0  0  0  0
   -2.7360   12.7950  -30.9430 H   0  0  0  0  0  0  0  0  0  0  0  0
   -5.3903   13.9980  -31.9153 H   0  0  0  0  0  0  0  0  0  0  0  0
   -2.2356   21.1749  -30.1557 H   0  0  0  0  0  0  0  0  0  0  0  0
   -1.1188   23.0718  -28.9837 H   0  0  0  0  0  0  0  0  0  0  0  0
   -5.2749   23.8845  -31.6364 H   0  0  0  0  0  0  0  0  0  0  0  0
   -1.9227   18.6922  -31.2610 H   0  0  0  0  0  0  0  0  0  0  0  0
    0.5295   18.6945  -31.7204 H   0  0  0  0  0  0  0  0  0  0  0  0
   -2.4496   21.9486  -34.0703 H   0  0  0  0  0  0  0  0  0  0  0  0
  1  2  2  0
  2  3  1  0
  3  4  2  0
  4  5  1  0
  5  6  2  0
  6  7  1  0
  6  8  1  0
  8  9  2  0
  9 10  1  0
  2 11  1  0
 11 12  1  0
 12 13  1  0
 13 14  2  0
 14 15  1  0
 15 16  2  0
 16 17  1  0
 17 18  2  0
 18 19  1  0
 18 20  1  0
 20 21  1  0
 20 22  2  0
 14 23  1  0
 23 24  1  0
 24 25  2  0
 25 26  1  0
 26 27  2  0
 27 28  1  0
 27 29  1  0
 29 30  1  0
 29 31  2  0
  9  3  1  0
 23 11  2  0
 31 24  1  0
 22 15  1  0
  4 32  1  0
  5 33  1  0
  7 34  1  0
  8 35  1  0
 16 36  1  0
 17 37  1  0
 22 38  1  0
 25 39  1  0
 26 40  1  0
 31 41  1  0
M  CHG  5  10  -1  19  -1  21  -1  28  -1  30  -1
M  END
>  <UniqueID>  (16) 
16

>  <SMILES>  (16) 
O=C(c1ccc(O)cc1[O-])c1snc(-c2ccc([O-])c([O-])c2)c1-c1ccc([O-])c([O-])c1

>  <Energy>  (16) 
93.34828075692998

>  <Genealogy>  (16) 
O=C(c1ccc(O)cc1[O-])c1snc(-c2ccc([O-])c([O-])c2)c1-c1ccc([O-])c([O-])c1 (protonated)
O=C(c1ccc(O)cc1[O-])c1snc(-c2ccc([O-])c([O-])c2)c1-c1ccc([O-])c([O-])c1 (3D coordinates assigned)
O=C(c1ccc(O)cc1[O-])c1snc(-c2ccc([O-])c([O-])c2)c1-c1ccc([O-])c([O-])c1 (optimized conformer: 93.34828075692998 kcal/mol)

>  <smiles>  (16) 
O=C(c1ccc(O)cc1O)c1snc(-c2ccc(O)c(O)c2)c1-c1ccc(O)c(O)c1

>  <score_type>  (16) 
oracle

>  <origin>  (16) 
adgpu

>  <m_score__min__energy>  (16) 
-13.34

>  <m_primary>  (16) 
energy

$$$$
16:0
     RDKit          3D

 58 61  0  0  0  0  0  0  0  0999 V2000
   -1.0970   27.3620  -24.4770 C   0  0  0  0  0  0  0  0  0  0  0  0
   -1.3510   26.4720  -25.6570 C   0  0  0  0  0  0  0  0  0  0  0  0
   -2.4870   25.6470  -25.6770 C   0  0  0  0  0  0  0  0  0  0  0  0
   -2.7290   24.8070  -26.7680 C   0  0  0  0  0  0  0  0  0  0  0  0
   -1.8350   24.7780  -27.8480 C   0  0  0  0  0  0  0  0  0  0  0  0
   -2.1780   23.7560  -29.2430 S   0  0  0  0  0  0  0  0  0  0  0  0
   -0.8840   23.3260  -29.8760 O   0  0  0  0  0  0  0  0  0  0  0  0
   -2.9320   22.5340  -28.8020 O   0  0  0  0  0  0  0  0  0  0  0  0
   -3.1180   24.6260  -30.4070 N   0  0  0  0  0  0  0  0  0  0  0  0
   -4.5360   24.4660  -30.4910 C   0  0  0  0  0  0  0  0  0  0  0  0
   -5.3630   25.2830  -29.7060 C   0  0  0  0  0  0  0  0  0  0  0  0
   -6.7460   25.1020  -29.7110 C   0  0  0  0  0  0  0  0  0  0  0  0
   -7.3160   24.1030  -30.5020 C   0  0  0  0  0  0  0  0  0  0  0  0
   -6.5040   23.2880  -31.2960 C   0  0  0  0  0  0  0  0  0  0  0  0
   -5.1080   23.4670  -31.3130 C   0  0  0  0  0  0  0  0  0  0  0  0
   -4.2720   22.5740  -32.1520 C   0  0  0  0  0  0  0  0  0  0  0  0
   -4.5940   22.3700  -33.3550 O   0  0  0  0  0  0  0  0  0  0  0  0
   -3.0680   21.9910  -31.6300 N   0  0  0  0  0  0  0  0  0  0  0  0
   -2.5090   20.7490  -32.0940 C   0  0  0  0  0  0  0  0  0  0  0  0
   -1.1230   20.5120  -32.0670 C   0  0  0  0  0  0  0  0  0  0  0  0
   -0.6030   19.3130  -32.5620 C   0  0  0  0  0  0  0  0  0  0  0  0
   -1.4570   18.3440  -33.0940 C   0  0  0  0  0  0  0  0  0  0  0  0
   -2.8390   18.5700  -33.1370 C   0  0  0  0  0  0  0  0  0  0  0  0
   -3.9170   17.3590  -33.8420 S   0  0  0  0  0  0  0  0  0  0  0  0
   -3.7220   17.3420  -35.3340 O   0  0  0  0  0  0  0  0  0  0  0  0
   -3.5450   16.0030  -33.3100 O   0  0  0  0  0  0  0  0  0  0  0  0
   -5.6010   17.6640  -33.4950 N   0  0  0  0  0  0  0  0  0  0  0  0
   -5.8870   17.6140  -32.0620 C   0  0  0  0  0  0  0  0  0  0  0  0
   -7.1070   18.4960  -31.8330 C   0  0  0  0  0  0  0  0  0  0  0  0
   -7.2240   19.3590  -33.0810 C   0  0  0  0  0  0  0  0  0  0  0  0
   -6.0200   18.9930  -33.9320 C   0  0  0  0  0  0  0  0  0  0  0  0
   -3.3570   19.7780  -32.6490 C   0  0  0  0  0  0  0  0  0  0  0  0
   -0.7000   25.6000  -27.8310 C   0  0  0  0  0  0  0  0  0  0  0  0
   -0.4560   26.4390  -26.7390 C   0  0  0  0  0  0  0  0  0  0  0  0
   -1.2588   26.7949  -23.5484 H   0  0  0  0  0  0  0  0  0  0  0  0
   -0.0593   27.7255  -24.5085 H   0  0  0  0  0  0  0  0  0  0  0  0
   -1.7866   28.2184  -24.5085 H   0  0  0  0  0  0  0  0  0  0  0  0
   -3.1895   25.6617  -24.8307 H   0  0  0  0  0  0  0  0  0  0  0  0
   -3.6235   24.1668  -26.7793 H   0  0  0  0  0  0  0  0  0  0  0  0
   -4.9177   26.0720  -29.0821 H   0  0  0  0  0  0  0  0  0  0  0  0
   -7.3874   25.7463  -29.0918 H   0  0  0  0  0  0  0  0  0  0  0  0
   -8.4062   23.9568  -30.5005 H   0  0  0  0  0  0  0  0  0  0  0  0
   -6.9601   22.4998  -31.9130 H   0  0  0  0  0  0  0  0  0  0  0  0
   -2.5430   22.5280  -30.9030 H   0  0  0  0  0  0  0  0  0  0  0  0
   -0.4452   21.2738  -31.6544 H   0  0  0  0  0  0  0  0  0  0  0  0
    0.4816   19.1318  -32.5326 H   0  0  0  0  0  0  0  0  0  0  0  0
   -1.0432   17.4008  -33.4803 H   0  0  0  0  0  0  0  0  0  0  0  0
   -6.1022   16.5803  -31.7534 H   0  0  0  0  0  0  0  0  0  0  0  0
   -5.0269   17.9643  -31.4725 H   0  0  0  0  0  0  0  0  0  0  0  0
   -8.0090   17.8793  -31.7060 H   0  0  0  0  0  0  0  0  0  0  0  0
   -7.0052   19.1056  -30.9230 H   0  0  0  0  0  0  0  0  0  0  0  0
   -8.1579   19.1364  -33.6179 H   0  0  0  0  0  0  0  0  0  0  0  0
   -7.2457   20.4318  -32.8387 H   0  0  0  0  0  0  0  0  0  0  0  0
   -6.2968   18.9747  -34.9964 H   0  0  0  0  0  0  0  0  0  0  0  0
   -5.2091   19.7272  -33.8161 H   0  0  0  0  0  0  0  0  0  0  0  0
   -4.4394   19.9667  -32.7016 H   0  0  0  0  0  0  0  0  0  0  0  0
    0.0008   25.5852  -28.6788 H   0  0  0  0  0  0  0  0  0  0  0  0
    0.4408   27.0759  -26.7274 H   0  0  0  0  0  0  0  0  0  0  0  0
  1  2  1  0
  2  3  2  0
  3  4  1  0
  4  5  2  0
  5  6  1  0
  6  7  2  0
  6  8  2  0
  6  9  1  0
  9 10  1  0
 10 11  2  0
 11 12  1  0
 12 13  2  0
 13 14  1  0
 14 15  2  0
 15 16  1  0
 16 17  2  0
 16 18  1  0
 18 19  1  0
 19 20  2  0
 20 21  1  0
 21 22  2  0
 22 23  1  0
 23 24  1  0
 24 25  2  0
 24 26  2  0
 24 27  1  0
 27 28  1  0
 28 29  1  0
 29 30  1  0
 30 31  1  0
 23 32  2  0
  5 33  1  0
 33 34  2  0
 34  2  1  0
 15 10  1  0
 32 19  1  0
 31 27  1  0
  1 35  1  0
  1 36  1  0
  1 37  1  0
  3 38  1  0
  4 39  1  0
 11 40  1  0
 12 41  1  0
 13 42  1  0
 14 43  1  0
 18 44  1  0
 20 45  1  0
 21 46  1  0
 22 47  1  0
 28 48  1  0
 28 49  1  0
 29 50  1  0
 29 51  1  0
 30 52  1  0
 30 53  1  0
 31 54  1  0
 31 55  1  0
 32 56  1  0
 33 57  1  0
 34 58  1  0
M  CHG  1   9  -1
M  END
>  <UniqueID>  (17) 
17

>  <SMILES>  (17) 
Cc1ccc(S(=O)(=O)[N-]c2ccccc2C(=O)Nc2cccc(S(=O)(=O)N3CCCC3)c2)cc1

>  <Energy>  (17) 
76.94653607815451

>  <Genealogy>  (17) 
Cc1ccc(S(=O)(=O)[N-]c2ccccc2C(=O)Nc2cccc(S(=O)(=O)N3CCCC3)c2)cc1 (protonated)
Cc1ccc(S(=O)(=O)[N-]c2ccccc2C(=O)Nc2cccc(S(=O)(=O)N3CCCC3)c2)cc1 (3D coordinates assigned)
Cc1ccc(S(=O)(=O)[N-]c2ccccc2C(=O)Nc2cccc(S(=O)(=O)N3CCCC3)c2)cc1 (nonaromatic ring conformer: 76.94653607815451 kcal/mol)

>  <smiles>  (17) 
Cc1ccc(S(=O)(=O)Nc2ccccc2C(=O)Nc2cccc(S(=O)(=O)N3CCCC3)c2)cc1

>  <score_type>  (17) 
oracle

>  <origin>  (17) 
adgpu

>  <m_score__min__energy>  (17) 
-11.390000000000001

>  <m_primary>  (17) 
energy

$$$$
17:0
     RDKit          3D

 47 50  0  0  0  0  0  0  0  0999 V2000
   -1.7460   22.4530  -30.2700 O   0  0  0  0  0  0  0  0  0  0  0  0
   -2.3060   23.4810  -29.7970 C   0  0  0  0  0  0  0  0  0  0  0  0
   -3.5280   23.9750  -30.4550 C   0  0  0  0  0  0  0  0  0  0  0  0
   -4.4230   23.1670  -31.0600 N   0  0  0  0  0  0  0  0  0  0  0  0
   -5.3540   24.0490  -31.4720 C   0  0  0  0  0  0  0  0  0  0  0  0
   -6.6090   23.6580  -32.1790 C   0  0  0  0  0  0  0  0  0  0  0  0
   -7.3000   22.6910  -31.3960 O   0  0  0  0  0  0  0  0  0  0  0  0
   -7.5640   21.3740  -31.7960 C   0  0  0  0  0  0  0  0  0  0  0  0
   -8.6970   20.6600  -31.3610 C   0  0  0  0  0  0  0  0  0  0  0  0
   -8.9150   19.3500  -31.7960 C   0  0  0  0  0  0  0  0  0  0  0  0
   -8.0040   18.7370  -32.6620 C   0  0  0  0  0  0  0  0  0  0  0  0
   -6.8750   19.4390  -33.0970 C   0  0  0  0  0  0  0  0  0  0  0  0
   -5.7350   18.6760  -34.1900 Cl  0  0  0  0  0  0  0  0  0  0  0  0
   -6.6560   20.7500  -32.6620 C   0  0  0  0  0  0  0  0  0  0  0  0
   -5.0400   25.3190  -31.1600 N   0  0  0  0  0  0  0  0  0  0  0  0
   -3.8850   25.2710  -30.5220 N   0  0  0  0  0  0  0  0  0  0  0  0
   -1.7500   24.1190  -28.6240 N   0  0  0  0  0  0  0  0  0  0  0  0
   -2.6100   24.9160  -27.7340 C   0  0  0  0  0  0  0  0  0  0  0  0
   -2.0540   24.9820  -26.3070 C   0  0  0  0  0  0  0  0  0  0  0  0
   -0.6380   25.3770  -26.3110 N   0  0  0  0  0  0  0  0  0  0  0  0
   -0.0860   26.1090  -25.1940 C   0  0  0  0  0  0  0  0  0  0  0  0
    1.2420   26.5850  -25.2320 C   0  0  0  0  0  0  0  0  0  0  0  0
    1.7720   27.3000  -24.1550 C   0  0  0  0  0  0  0  0  0  0  0  0
    0.9890   27.5500  -23.0260 C   0  0  0  0  0  0  0  0  0  0  0  0
   -0.3290   27.0890  -22.9750 C   0  0  0  0  0  0  0  0  0  0  0  0
   -0.8660   26.3750  -24.0500 C   0  0  0  0  0  0  0  0  0  0  0  0
    0.2460   24.9280  -27.3990 C   0  0  0  0  0  0  0  0  0  0  0  0
   -0.3790   23.7860  -28.2070 C   0  0  0  0  0  0  0  0  0  0  0  0
   -7.2459   24.5442  -32.3170 H   0  0  0  0  0  0  0  0  0  0  0  0
   -6.3639   23.2327  -33.1634 H   0  0  0  0  0  0  0  0  0  0  0  0
   -9.4139   21.1356  -30.6755 H   0  0  0  0  0  0  0  0  0  0  0  0
   -9.8050   18.7999  -31.4565 H   0  0  0  0  0  0  0  0  0  0  0  0
   -8.1750   17.7045  -33.0006 H   0  0  0  0  0  0  0  0  0  0  0  0
   -5.7637   21.2958  -33.0024 H   0  0  0  0  0  0  0  0  0  0  0  0
   -2.6846   25.9381  -28.1338 H   0  0  0  0  0  0  0  0  0  0  0  0
   -3.5971   24.4323  -27.6923 H   0  0  0  0  0  0  0  0  0  0  0  0
   -2.6314   25.7191  -25.7297 H   0  0  0  0  0  0  0  0  0  0  0  0
   -2.1382   23.9842  -25.8516 H   0  0  0  0  0  0  0  0  0  0  0  0
    1.8654   26.3914  -26.1174 H   0  0  0  0  0  0  0  0  0  0  0  0
    2.8082   27.6668  -24.1964 H   0  0  0  0  0  0  0  0  0  0  0  0
    1.4096   28.1095  -22.1774 H   0  0  0  0  0  0  0  0  0  0  0  0
   -0.9458   27.2885  -22.0863 H   0  0  0  0  0  0  0  0  0  0  0  0
   -1.9053   26.0178  -24.0031 H   0  0  0  0  0  0  0  0  0  0  0  0
    0.4401   25.7757  -28.0725 H   0  0  0  0  0  0  0  0  0  0  0  0
    1.1792   24.5574  -26.9497 H   0  0  0  0  0  0  0  0  0  0  0  0
    0.2337   23.6021  -29.1018 H   0  0  0  0  0  0  0  0  0  0  0  0
   -0.4159   22.8887  -27.5717 H   0  0  0  0  0  0  0  0  0  0  0  0
  1  2  2  0
  2  3  1  0
  3  4  2  0
  4  5  1  0
  5  6  1  0
  6  7  1  0
  7  8  1  0
  8  9  2  0
  9 10  1  0
 10 11  2  0
 11 12  1  0
 12 13  1  0
 12 14  2  0
  5 15  2  0
 15 16  1  0
  2 17  1  0
 17 18  1  0
 18 19  1  0
 19 20  1  0
 20 21  1  0
 21 22  2  0
 22 23  1  0
 23 24  2  0
 24 25  1  0
 25 26  2  0
 20 27  1  0
 27 28  1  0
 16  3  1  0
 28 17  1  0
 14  8  1  0
 26 21  1  0
  6 29  1  0
  6 30  1  0
  9 31  1  0
 10 32  1  0
 11 33  1  0
 14 34  1  0
 18 35  1  0
 18 36  1  0
 19 37  1  0
 19 38  1  0
 22 39  1  0
 23 40  1  0
 24 41  1  0
 25 42  1  0
 26 43  1  0
 27 44  1  0
 27 45  1  0
 28 46  1  0
 28 47  1  0
M  CHG  1  16  -1
M  END
>  <UniqueID>  (18) 
18

>  <SMILES>  (18) 
O=C(c1nc(COc2cccc(Cl)c2)n[n-]1)N1CCN(c2ccccc2)CC1

>  <Energy>  (18) 
86.56774680047614

>  <Genealogy>  (18) 
O=C(c1nc(COc2cccc(Cl)c2)n[n-]1)N1CCN(c2ccccc2)CC1 (protonated)
O=C(c1nc(COc2cccc(Cl)c2)n[n-]1)N1CCN(c2ccccc2)CC1 (3D coordinates assigned)
O=C(c1nc(COc2cccc(Cl)c2)n[n-]1)N1CCN(c2ccccc2)CC1 (nonaromatic ring conformer: 86.56774680047614 kcal/mol)

>  <smiles>  (18) 
O=C(c1nc(COc2cccc(Cl)c2)n[nH]1)N1CCN(c2ccccc2)CC1

>  <score_type>  (18) 
oracle

>  <origin>  (18) 
adgpu

>  <m_score__min__energy>  (18) 
-10.75

>  <m_primary>  (18) 
energy

$$$$
18:0
     RDKit          3D

 28 30  0  0  0  0  0  0  0  0999 V2000
   -9.1460   22.6100  -31.5810 O   0  0  0  0  0  0  0  0  0  0  0  0
   -7.9700   22.1890  -31.7600 C   0  0  0  0  0  0  0  0  0  0  0  0
   -7.7580   20.9150  -32.3100 C   0  0  0  0  0  0  0  0  0  0  0  0
   -8.8360   20.1200  -32.7050 O   0  0  0  0  0  0  0  0  0  0  0  0
   -6.4340   20.4640  -32.4870 C   0  0  0  0  0  0  0  0  0  0  0  0
   -6.1270   19.1270  -33.0440 C   0  0  0  0  0  0  0  0  0  0  0  0
   -5.6960   18.9670  -34.3740 C   0  0  0  0  0  0  0  0  0  0  0  0
   -5.4360   17.6920  -34.8850 C   0  0  0  0  0  0  0  0  0  0  0  0
   -5.6180   16.5640  -34.0790 C   0  0  0  0  0  0  0  0  0  0  0  0
   -5.3590   15.2970  -34.5890 O   0  0  0  0  0  0  0  0  0  0  0  0
   -6.0660   16.7100  -32.7630 C   0  0  0  0  0  0  0  0  0  0  0  0
   -6.3270   17.9840  -32.2500 C   0  0  0  0  0  0  0  0  0  0  0  0
   -5.4150   21.2580  -32.1640 O   0  0  0  0  0  0  0  0  0  0  0  0
   -5.5720   22.4720  -31.6490 C   0  0  0  0  0  0  0  0  0  0  0  0
   -4.4450   23.2440  -31.3310 C   0  0  0  0  0  0  0  0  0  0  0  0
   -3.1700   22.7390  -31.5590 O   0  0  0  0  0  0  0  0  0  0  0  0
   -4.6030   24.5230  -30.7830 C   0  0  0  0  0  0  0  0  0  0  0  0
   -3.4870   25.2890  -30.4660 O   0  0  0  0  0  0  0  0  0  0  0  0
   -5.8840   25.0340  -30.5520 C   0  0  0  0  0  0  0  0  0  0  0  0
   -7.0120   24.2730  -30.8680 C   0  0  0  0  0  0  0  0  0  0  0  0
   -6.8670   22.9870  -31.4190 C   0  0  0  0  0  0  0  0  0  0  0  0
   -8.8610   19.6460  -33.6000 H   0  0  0  0  0  0  0  0  0  0  0  0
   -5.5629   19.8506  -35.0155 H   0  0  0  0  0  0  0  0  0  0  0  0
   -5.0879   17.5761  -35.9220 H   0  0  0  0  0  0  0  0  0  0  0  0
   -6.2133   15.8220  -32.1307 H   0  0  0  0  0  0  0  0  0  0  0  0
   -6.6914   18.0930  -31.2179 H   0  0  0  0  0  0  0  0  0  0  0  0
   -6.0038   26.0385  -30.1200 H   0  0  0  0  0  0  0  0  0  0  0  0
   -8.0171   24.6809  -30.6853 H   0  0  0  0  0  0  0  0  0  0  0  0
  1  2  2  0
  2  3  1  0
  3  4  1  0
  3  5  2  0
  5  6  1  0
  6  7  2  0
  7  8  1  0
  8  9  2  0
  9 10  1  0
  9 11  1  0
 11 12  2  0
  5 13  1  0
 13 14  1  0
 14 15  2  0
 15 16  1  0
 15 17  1  0
 17 18  1  0
 17 19  2  0
 19 20  1  0
 20 21  2  0
 21  2  1  0
 12  6  1  0
 21 14  1  0
  4 22  1  0
  7 23  1  0
  8 24  1  0
 11 25  1  0
 12 26  1  0
 19 27  1  0
 20 28  1  0
M  CHG  3  10  -1  16  -1  18  -1
M  END
>  <UniqueID>  (19) 
19

>  <SMILES>  (19) 
O=c1c(O)c(-c2ccc([O-])cc2)oc2c([O-])c([O-])ccc12

>  <Energy>  (19) 
42.748588219687484

>  <Genealogy>  (19) 
O=c1c(O)c(-c2ccc([O-])cc2)oc2c([O-])c([O-])ccc12 (protonated)
O=c1c(O)c(-c2ccc([O-])cc2)oc2c([O-])c([O-])ccc12 (3D coordinates assigned)
O=c1c(O)c(-c2ccc([O-])cc2)oc2c([O-])c([O-])ccc12 (optimized conformer: 42.748588219687484 kcal/mol)

>  <smiles>  (19) 
O=c1c(O)c(-c2ccc(O)cc2)oc2c(O)c(O)ccc12

>  <score_type>  (19) 
oracle

>  <origin>  (19) 
adgpu

>  <m_score__min__energy>  (19) 
-11.119999999999999

>  <m_primary>  (19) 
energy

$$$$
19:0
     RDKit          3D

 54 57  0  0  0  0  0  0  0  0999 V2000
   -1.2310   26.1960  -28.2340 C   0  0  0  0  0  0  0  0  0  0  0  0
   -2.0180   25.1900  -28.8610 O   0  0  0  0  0  0  0  0  0  0  0  0
   -2.1290   23.8680  -28.4020 C   0  0  0  0  0  0  0  0  0  0  0  0
   -1.0380   23.1790  -27.8340 C   0  0  0  0  0  0  0  0  0  0  0  0
   -1.1920   21.8660  -27.3820 C   0  0  0  0  0  0  0  0  0  0  0  0
   -2.4260   21.2260  -27.4980 C   0  0  0  0  0  0  0  0  0  0  0  0
   -3.5140   21.8980  -28.0600 C   0  0  0  0  0  0  0  0  0  0  0  0
   -3.3750   23.2240  -28.5030 C   0  0  0  0  0  0  0  0  0  0  0  0
   -4.4680   23.9180  -29.1120 N   0  0  0  0  0  0  0  0  0  0  0  0
   -4.6970   24.0790  -30.8230 S   0  0  0  0  0  0  0  0  0  0  0  0
   -3.4880   23.6010  -31.5770 O   0  0  0  0  0  0  0  0  0  0  0  0
   -4.9190   25.5280  -31.1570 O   0  0  0  0  0  0  0  0  0  0  0  0
   -6.1180   23.1520  -31.2920 C   0  0  0  0  0  0  0  0  0  0  0  0
   -7.3740   23.7710  -31.2950 C   0  0  0  0  0  0  0  0  0  0  0  0
   -8.5160   23.0370  -31.6200 C   0  0  0  0  0  0  0  0  0  0  0  0
   -8.4130   21.6810  -31.9380 C   0  0  0  0  0  0  0  0  0  0  0  0
   -7.1590   21.0450  -31.9450 C   0  0  0  0  0  0  0  0  0  0  0  0
   -7.0610   19.5970  -32.2400 C   0  0  0  0  0  0  0  0  0  0  0  0
   -7.3610   18.7570  -31.3470 O   0  0  0  0  0  0  0  0  0  0  0  0
   -6.6210   19.1340  -33.5260 N   0  0  0  0  0  0  0  0  0  0  0  0
   -6.0370   17.8350  -33.7080 C   0  0  0  0  0  0  0  0  0  0  0  0
   -6.8680   16.7620  -34.0610 C   0  0  0  0  0  0  0  0  0  0  0  0
   -6.3430   15.4730  -34.1880 C   0  0  0  0  0  0  0  0  0  0  0  0
   -4.9830   15.2460  -33.9710 C   0  0  0  0  0  0  0  0  0  0  0  0
   -4.1380   16.3100  -33.6480 C   0  0  0  0  0  0  0  0  0  0  0  0
   -4.6470   17.6150  -33.5310 C   0  0  0  0  0  0  0  0  0  0  0  0
   -3.7100   18.7380  -33.2890 C   0  0  0  0  0  0  0  0  0  0  0  0
   -3.8410   19.5420  -32.1450 C   0  0  0  0  0  0  0  0  0  0  0  0
   -2.9780   20.6250  -31.9430 C   0  0  0  0  0  0  0  0  0  0  0  0
   -1.9780   20.9090  -32.8780 C   0  0  0  0  0  0  0  0  0  0  0  0
   -1.8330   20.1030  -34.0090 C   0  0  0  0  0  0  0  0  0  0  0  0
   -2.6860   19.0160  -34.2110 C   0  0  0  0  0  0  0  0  0  0  0  0
   -6.0120   21.7920  -31.6160 C   0  0  0  0  0  0  0  0  0  0  0  0
   -1.3098   26.0953  -27.1415 H   0  0  0  0  0  0  0  0  0  0  0  0
   -0.1800   26.0818  -28.5379 H   0  0  0  0  0  0  0  0  0  0  0  0
   -1.5948   27.1886  -28.5379 H   0  0  0  0  0  0  0  0  0  0  0  0
   -0.0613   23.6773  -27.7463 H   0  0  0  0  0  0  0  0  0  0  0  0
   -0.3386   21.3360  -26.9339 H   0  0  0  0  0  0  0  0  0  0  0  0
   -2.5425   20.1903  -27.1463 H   0  0  0  0  0  0  0  0  0  0  0  0
   -4.4834   21.3870  -28.1561 H   0  0  0  0  0  0  0  0  0  0  0  0
   -7.4609   24.8377  -31.0408 H   0  0  0  0  0  0  0  0  0  0  0  0
   -9.5002   23.5282  -31.6257 H   0  0  0  0  0  0  0  0  0  0  0  0
   -9.3184   21.1070  -32.1845 H   0  0  0  0  0  0  0  0  0  0  0  0
   -6.8730   19.6920  -34.3730 H   0  0  0  0  0  0  0  0  0  0  0  0
   -7.9395   16.9359  -34.2390 H   0  0  0  0  0  0  0  0  0  0  0  0
   -7.0028   14.6358  -34.4595 H   0  0  0  0  0  0  0  0  0  0  0  0
   -4.5761   14.2274  -34.0545 H   0  0  0  0  0  0  0  0  0  0  0  0
   -3.0661   16.1254  -33.4839 H   0  0  0  0  0  0  0  0  0  0  0  0
   -4.6244   19.3198  -31.4054 H   0  0  0  0  0  0  0  0  0  0  0  0
   -3.0866   21.2539  -31.0471 H   0  0  0  0  0  0  0  0  0  0  0  0
   -1.3064   21.7662  -32.7228 H   0  0  0  0  0  0  0  0  0  0  0  0
   -1.0444   20.3250  -34.7431 H   0  0  0  0  0  0  0  0  0  0  0  0
   -2.5561   18.3747  -35.0952 H   0  0  0  0  0  0  0  0  0  0  0  0
   -5.0256   21.3052  -31.6131 H   0  0  0  0  0  0  0  0  0  0  0  0
  1  2  1  0
  2  3  1  0
  3  4  2  0
  4  5  1  0
  5  6  2  0
  6  7  1  0
  7  8  2  0
  8  9  1  0
  9 10  1  0
 10 11  2  0
 10 12  2  0
 10 13  1  0
 13 14  2  0
 14 15  1  0
 15 16  2  0
 16 17  1  0
 17 18  1  0
 18 19  2  0
 18 20  1  0
 20 21  1  0
 21 22  2  0
 22 23  1  0
 23 24  2  0
 24 25  1  0
 25 26  2  0
 26 27  1  0
 27 28  2  0
 28 29  1  0
 29 30  2  0
 30 31  1  0
 31 32  2  0
 17 33  2  0
  8  3  1  0
 33 13  1  0
 26 21  1  0
 32 27  1  0
  1 34  1  0
  1 35  1  0
  1 36  1  0
  4 37  1  0
  5 38  1  0
  6 39  1  0
  7 40  1  0
 14 41  1  0
 15 42  1  0
 16 43  1  0
 20 44  1  0
 22 45  1  0
 23 46  1  0
 24 47  1  0
 25 48  1  0
 28 49  1  0
 29 50  1  0
 30 51  1  0
 31 52  1  0
 32 53  1  0
 33 54  1  0
M  CHG  1   9  -1
M  END
>  <UniqueID>  (20) 
20

>  <SMILES>  (20) 
COc1ccccc1[N-]S(=O)(=O)c1cccc(C(=O)Nc2ccccc2-c2ccccc2)c1

>  <Energy>  (20) 
75.96667094542501

>  <Genealogy>  (20) 
COc1ccccc1[N-]S(=O)(=O)c1cccc(C(=O)Nc2ccccc2-c2ccccc2)c1 (protonated)
COc1ccccc1[N-]S(=O)(=O)c1cccc(C(=O)Nc2ccccc2-c2ccccc2)c1 (3D coordinates assigned)
COc1ccccc1[N-]S(=O)(=O)c1cccc(C(=O)Nc2ccccc2-c2ccccc2)c1 (optimized conformer: 75.96667094542501 kcal/mol)

>  <smiles>  (20) 
COc1ccccc1NS(=O)(=O)c1cccc(C(=O)Nc2ccccc2-c2ccccc2)c1

>  <score_type>  (20) 
oracle

>  <origin>  (20) 
adgpu

>  <m_score__min__energy>  (20) 
-11.83

>  <m_primary>  (20) 
energy

$$$$
20:0
     RDKit          3D

 56 59  0  0  0  0  0  0  0  0999 V2000
    1.4110   28.2100  -22.9370 C   0  0  0  0  0  0  0  0  0  0  0  0
    0.9590   28.3520  -24.2790 O   0  0  0  0  0  0  0  0  0  0  0  0
    0.3640   27.3230  -25.0270 C   0  0  0  0  0  0  0  0  0  0  0  0
   -0.7410   26.6600  -24.4820 C   0  0  0  0  0  0  0  0  0  0  0  0
   -1.3650   25.6230  -25.1840 C   0  0  0  0  0  0  0  0  0  0  0  0
   -0.8850   25.2290  -26.4440 C   0  0  0  0  0  0  0  0  0  0  0  0
   -1.5480   24.1280  -27.1830 C   0  0  0  0  0  0  0  0  0  0  0  0
   -1.5120   22.8280  -26.6510 C   0  0  0  0  0  0  0  0  0  0  0  0
   -2.1470   21.7780  -27.3100 C   0  0  0  0  0  0  0  0  0  0  0  0
   -2.8030   22.0010  -28.5180 C   0  0  0  0  0  0  0  0  0  0  0  0
   -2.8290   23.2830  -29.0920 C   0  0  0  0  0  0  0  0  0  0  0  0
   -3.4550   23.4470  -30.4210 C   0  0  0  0  0  0  0  0  0  0  0  0
   -4.0180   24.5360  -30.7140 O   0  0  0  0  0  0  0  0  0  0  0  0
   -3.5210   22.3340  -31.3220 N   0  0  0  0  0  0  0  0  0  0  0  0
   -2.4390   21.7800  -32.0820 C   0  0  0  0  0  0  0  0  0  0  0  0
   -2.7080   21.2810  -33.3640 C   0  0  0  0  0  0  0  0  0  0  0  0
   -1.6920   20.6940  -34.1230 C   0  0  0  0  0  0  0  0  0  0  0  0
   -0.3960   20.5840  -33.6040 C   0  0  0  0  0  0  0  0  0  0  0  0
    0.8620   19.8000  -34.5560 S   0  0  0  0  0  0  0  0  0  0  0  0
    0.3000   19.2470  -35.8350 O   0  0  0  0  0  0  0  0  0  0  0  0
    1.4510   18.6750  -33.7540 O   0  0  0  0  0  0  0  0  0  0  0  0
    2.1070   20.9500  -34.9330 N   0  0  0  0  0  0  0  0  0  0  0  0
    1.8710   22.1720  -35.3020 C   0  0  0  0  0  0  0  0  0  0  0  0
    2.9360   23.0350  -35.5690 C   0  0  0  0  0  0  0  0  0  0  0  0
    2.6710   24.3480  -35.9510 C   0  0  0  0  0  0  0  0  0  0  0  0
    1.3460   24.7730  -36.0590 C   0  0  0  0  0  0  0  0  0  0  0  0
    1.0680   26.0900  -36.4370 O   0  0  0  0  0  0  0  0  0  0  0  0
    1.1690   27.1870  -35.5360 C   0  0  0  0  0  0  0  0  0  0  0  0
    0.3420   23.8920  -35.7930 N   0  0  0  0  0  0  0  0  0  0  0  0
    0.5950   22.6350  -35.4260 N   0  0  0  0  0  0  0  0  0  0  0  0
   -0.1240   21.0680  -32.3170 C   0  0  0  0  0  0  0  0  0  0  0  0
   -1.1400   21.6570  -31.5560 C   0  0  0  0  0  0  0  0  0  0  0  0
   -2.2220   24.3640  -28.4020 C   0  0  0  0  0  0  0  0  0  0  0  0
   -2.2850   25.6720  -28.8930 O   0  0  0  0  0  0  0  0  0  0  0  0
    0.2150   25.9050  -26.9980 C   0  0  0  0  0  0  0  0  0  0  0  0
    0.8390   26.9410  -26.2960 C   0  0  0  0  0  0  0  0  0  0  0  0
    0.5945   28.4665  -22.2460 H   0  0  0  0  0  0  0  0  0  0  0  0
    1.7248   27.1700  -22.7639 H   0  0  0  0  0  0  0  0  0  0  0  0
    2.2631   28.8837  -22.7639 H   0  0  0  0  0  0  0  0  0  0  0  0
   -1.1222   26.9564  -23.4937 H   0  0  0  0  0  0  0  0  0  0  0  0
   -2.2363   25.1134  -24.7468 H   0  0  0  0  0  0  0  0  0  0  0  0
   -0.9788   22.6383  -25.7078 H   0  0  0  0  0  0  0  0  0  0  0  0
   -2.1303   20.7681  -26.8743 H   0  0  0  0  0  0  0  0  0  0  0  0
   -3.3055   21.1656  -29.0275 H   0  0  0  0  0  0  0  0  0  0  0  0
   -3.7257   21.3519  -33.7754 H   0  0  0  0  0  0  0  0  0  0  0  0
   -1.9113   20.3166  -35.1327 H   0  0  0  0  0  0  0  0  0  0  0  0
    3.9737   22.6814  -35.4785 H   0  0  0  0  0  0  0  0  0  0  0  0
    3.4969   25.0423  -36.1652 H   0  0  0  0  0  0  0  0  0  0  0  0
    1.1348   26.8158  -34.5011 H   0  0  0  0  0  0  0  0  0  0  0  0
    2.1195   27.7142  -35.7053 H   0  0  0  0  0  0  0  0  0  0  0  0
    0.3308   27.8789  -35.7053 H   0  0  0  0  0  0  0  0  0  0  0  0
    0.8919   20.9845  -31.9036 H   0  0  0  0  0  0  0  0  0  0  0  0
   -0.9221   22.0252  -30.5426 H   0  0  0  0  0  0  0  0  0  0  0  0
   -3.0940   26.0500  -29.3680 H   0  0  0  0  0  0  0  0  0  0  0  0
    0.5883   25.6171  -27.9918 H   0  0  0  0  0  0  0  0  0  0  0  0
    1.7036   27.4590  -26.7366 H   0  0  0  0  0  0  0  0  0  0  0  0
  1  2  1  0
  2  3  1  0
  3  4  2  0
  4  5  1  0
  5  6  2  0
  6  7  1  0
  7  8  2  0
  8  9  1  0
  9 10  2  0
 10 11  1  0
 11 12  1  0
 12 13  2  0
 12 14  1  0
 14 15  1  0
 15 16  2  0
 16 17  1  0
 17 18  2  0
 18 19  1  0
 19 20  2  0
 19 21  2  0
 19 22  1  0
 22 23  2  3
 23 24  1  0
 24 25  2  0
 25 26  1  0
 26 27  1  0
 27 28  1  0
 26 29  2  0
 29 30  1  0
 18 31  1  0
 31 32  2  0
 11 33  2  0
 33 34  1  0
  6 35  1  0
 35 36  2  0
 36  3  1  0
 33  7  1  0
 32 15  1  0
 30 23  1  0
  1 37  1  0
  1 38  1  0
  1 39  1  0
  4 40  1  0
  5 41  1  0
  8 42  1  0
  9 43  1  0
 10 44  1  0
 16 45  1  0
 17 46  1  0
 24 47  1  0
 25 48  1  0
 28 49  1  0
 28 50  1  0
 28 51  1  0
 31 52  1  0
 32 53  1  0
 34 54  1  0
 35 55  1  0
 36 56  1  0
M  CHG  2  14  -1  30  -1
M  END
>  <UniqueID>  (21) 
21

>  <SMILES>  (21) 
COc1ccc(-c2cccc(C(=O)[N-]c3ccc(S(=O)(=O)N=c4ccc(OC)n[n-]4)cc3)c2O)cc1

>  <Energy>  (21) 
78.4244608210871

>  <Genealogy>  (21) 
COc1ccc(-c2cccc(C(=O)[N-]c3ccc(S(=O)(=O)N=c4ccc(OC)n[n-]4)cc3)c2O)cc1 (protonated)
COc1ccc(-c2cccc(C(=O)[N-]c3ccc(S(=O)(=O)N=c4ccc(OC)n[n-]4)cc3)c2O)cc1 (3D coordinates assigned)
COc1ccc(-c2cccc(C(=O)[N-]c3ccc(S(=O)(=O)N=c4ccc(OC)n[n-]4)cc3)c2O)cc1 (optimized conformer: 78.4244608210871 kcal/mol)

>  <smiles>  (21) 
COc1ccc(-c2cccc(C(=O)Nc3ccc(S(=O)(=O)N=c4ccc(OC)n[nH]4)cc3)c2O)cc1

>  <score_type>  (21) 
oracle

>  <origin>  (21) 
adgpu

>  <m_score__min__energy>  (21) 
-11.140000000000001

>  <m_primary>  (21) 
energy

$$$$
21:0
     RDKit          3D

 55 58  0  0  0  0  0  0  0  0999 V2000
   -8.8070   20.0020  -33.8650 H   0  0  0  0  0  0  0  0  0  0  0  0
   -9.0790   19.9600  -32.8580 N   0  0  0  0  0  0  0  0  0  0  0  0
   -8.1230   21.1370  -32.0290 S   0  0  0  0  0  0  0  0  0  0  0  0
   -8.6800   22.5080  -32.2950 O   0  0  0  0  0  0  0  0  0  0  0  0
   -8.1710   20.8740  -30.5510 O   0  0  0  0  0  0  0  0  0  0  0  0
   -6.4570   21.0400  -32.5890 C   0  0  0  0  0  0  0  0  0  0  0  0
   -5.9440   19.8160  -33.0360 C   0  0  0  0  0  0  0  0  0  0  0  0
   -6.5827   18.9204  -33.0331 H   0  0  0  0  0  0  0  0  0  0  0  0
   -4.6230   19.7280  -33.4860 C   0  0  0  0  0  0  0  0  0  0  0  0
   -4.2319   18.7671  -33.8518 H   0  0  0  0  0  0  0  0  0  0  0  0
   -3.7950   20.8590  -33.4730 C   0  0  0  0  0  0  0  0  0  0  0  0
   -2.4410   20.7460  -33.9420 N   0  0  0  0  0  0  0  0  0  0  0  0
   -2.2800   20.9910  -34.9440 H   0  0  0  0  0  0  0  0  0  0  0  0
   -1.4510   20.2550  -33.2430 C   0  0  0  0  0  0  0  0  0  0  0  0
   -1.7030   19.5210  -31.6120 S   0  0  0  0  0  0  0  0  0  0  0  0
   -1.9590   21.1040  -30.8080 C   0  0  0  0  0  0  0  0  0  0  0  0
   -3.2280   21.4610  -30.3350 C   0  0  0  0  0  0  0  0  0  0  0  0
   -4.0725   20.7656  -30.4499 H   0  0  0  0  0  0  0  0  0  0  0  0
   -3.4230   22.7000  -29.7170 C   0  0  0  0  0  0  0  0  0  0  0  0
   -4.4256   22.9831  -29.3638 H   0  0  0  0  0  0  0  0  0  0  0  0
   -2.3490   23.5830  -29.5450 C   0  0  0  0  0  0  0  0  0  0  0  0
   -2.5900   24.8560  -28.9290 N   0  0  0  0  0  0  0  0  0  0  0  0
   -1.6120   25.6740  -28.2750 C   0  0  0  0  0  0  0  0  0  0  0  0
   -1.0440   26.5840  -28.9330 O   0  0  0  0  0  0  0  0  0  0  0  0
   -1.2930   25.5170  -26.8430 C   0  0  0  0  0  0  0  0  0  0  0  0
   -0.6960   24.1110  -26.1380 S   0  0  0  0  0  0  0  0  0  0  0  0
   -0.5730   24.7220  -24.5760 C   0  0  0  0  0  0  0  0  0  0  0  0
   -0.2220   24.1680  -23.6929 H   0  0  0  0  0  0  0  0  0  0  0  0
   -0.9910   26.0470  -24.5930 C   0  0  0  0  0  0  0  0  0  0  0  0
   -1.0083   26.6837  -23.6961 H   0  0  0  0  0  0  0  0  0  0  0  0
   -1.3880   26.4960  -25.8580 C   0  0  0  0  0  0  0  0  0  0  0  0
   -1.7397   27.5197  -26.0540 H   0  0  0  0  0  0  0  0  0  0  0  0
   -1.0780   23.2240  -30.0270 C   0  0  0  0  0  0  0  0  0  0  0  0
   -0.2345   23.9222  -29.9220 H   0  0  0  0  0  0  0  0  0  0  0  0
   -0.8830   21.9830  -30.6390 C   0  0  0  0  0  0  0  0  0  0  0  0
    0.1195   21.6960  -30.9891 H   0  0  0  0  0  0  0  0  0  0  0  0
   -0.1320   20.1790  -33.8050 N   0  0  0  0  0  0  0  0  0  0  0  0
    0.4470   19.3560  -33.5340 H   0  0  0  0  0  0  0  0  0  0  0  0
    0.4460   21.2130  -34.6240 C   0  0  0  0  0  0  0  0  0  0  0  0
   -0.1760   22.2980  -34.7970 O   0  0  0  0  0  0  0  0  0  0  0  0
    1.7680   21.0340  -35.2740 C   0  0  0  0  0  0  0  0  0  0  0  0
    2.6980   22.0900  -35.3560 C   0  0  0  0  0  0  0  0  0  0  0  0
    2.4482   23.0733  -34.9310 H   0  0  0  0  0  0  0  0  0  0  0  0
    3.9370   21.8940  -35.9750 C   0  0  0  0  0  0  0  0  0  0  0  0
    4.6578   22.7229  -36.0333 H   0  0  0  0  0  0  0  0  0  0  0  0
    4.2620   20.6500  -36.5190 C   0  0  0  0  0  0  0  0  0  0  0  0
    5.2402   20.4972  -36.9983 H   0  0  0  0  0  0  0  0  0  0  0  0
    3.3440   19.6000  -36.4540 C   0  0  0  0  0  0  0  0  0  0  0  0
    3.5986   18.6210  -36.8861 H   0  0  0  0  0  0  0  0  0  0  0  0
    2.1020   19.7900  -35.8410 C   0  0  0  0  0  0  0  0  0  0  0  0
    1.3803   18.9608  -35.8015 H   0  0  0  0  0  0  0  0  0  0  0  0
   -4.3230   22.0950  -33.0650 C   0  0  0  0  0  0  0  0  0  0  0  0
   -3.6947   22.9973  -33.0979 H   0  0  0  0  0  0  0  0  0  0  0  0
   -5.6450   22.1820  -32.6170 C   0  0  0  0  0  0  0  0  0  0  0  0
   -6.0488   23.1500  -32.2855 H   0  0  0  0  0  0  0  0  0  0  0  0
  1  2  1  0
  2  3  1  0
  3  4  2  0
  3  5  2  0
  3  6  1  0
  6  7  2  0
  7  8  1  0
  7  9  1  0
  9 10  1  0
  9 11  2  0
 11 12  1  0
 12 13  1  0
 12 14  2  0
 14 15  1  0
 15 16  1  0
 16 17  2  0
 17 18  1  0
 17 19  1  0
 19 20  1  0
 19 21  2  0
 21 22  1  0
 22 23  1  0
 23 24  2  0
 23 25  1  0
 25 26  1  0
 26 27  1  0
 27 28  1  0
 27 29  2  0
 29 30  1  0
 29 31  1  0
 31 32  1  0
 21 33  1  0
 33 34  1  0
 33 35  2  0
 35 36  1  0
 14 37  1  0
 37 38  1  0
 37 39  1  0
 39 40  2  0
 39 41  1  0
 41 42  2  0
 42 43  1  0
 42 44  1  0
 44 45  1  0
 44 46  2  0
 46 47  1  0
 46 48  1  0
 48 49  1  0
 48 50  2  0
 50 51  1  0
 11 52  1  0
 52 53  1  0
 52 54  2  0
 54 55  1  0
 54  6  1  0
 35 16  1  0
 50 41  1  0
 31 25  2  0
M  CHG  3   2  -1  12   1  22  -1
M  END
>  <UniqueID>  (22) 
22

>  <SMILES>  (22) 
[NH-]S(=O)(=O)c1ccc(/[NH+]=C(/NC(=O)c2ccccc2)Sc2ccc([N-]C(=O)c3cccs3)cc2)cc1

>  <Energy>  (22) 
98.01958525847077

>  <Genealogy>  (22) 
[NH-]S(=O)(=O)c1ccc([NH+]=C(NC(=O)c2ccccc2)Sc2ccc([N-]C(=O)c3cccs3)cc2)cc1 (protonated)
[NH-]S(=O)(=O)c1ccc(/[NH+]=C(/NC(=O)c2ccccc2)Sc2ccc([N-]C(=O)c3cccs3)cc2)cc1 (cis-trans isomerization)
[NH-]S(=O)(=O)c1ccc(/[NH+]=C(/NC(=O)c2ccccc2)Sc2ccc([N-]C(=O)c3cccs3)cc2)cc1 (3D coordinates assigned)
[NH-]S(=O)(=O)c1ccc(/[NH+]=C(/NC(=O)c2ccccc2)Sc2ccc([N-]C(=O)c3cccs3)cc2)cc1 (optimized conformer: 98.01958525847077 kcal/mol)

>  <smiles>  (22) 
NS(=O)(=O)c1ccc(N=C(NC(=O)c2ccccc2)Sc2ccc(NC(=O)c3cccs3)cc2)cc1

>  <score_type>  (22) 
oracle

>  <origin>  (22) 
adgpu

>  <m_score__min__energy>  (22) 
-11.539999999999999

>  <m_primary>  (22) 
energy

$$$$
22:0
     RDKit          3D

 54 57  0  0  0  0  0  0  0  0999 V2000
   -5.6700   26.4450  -30.5980 O   0  0  0  0  0  0  0  0  0  0  0  0
   -5.2080   25.0910  -30.1390 S   0  0  0  0  0  0  0  0  0  0  0  0
   -5.4450   24.9760  -28.6590 O   0  0  0  0  0  0  0  0  0  0  0  0
   -3.5150   24.9200  -30.4610 N   0  0  0  0  0  0  0  0  0  0  0  0
   -2.6070   24.1080  -29.7010 C   0  0  0  0  0  0  0  0  0  0  0  0
   -2.8210   22.7280  -29.5140 C   0  0  0  0  0  0  0  0  0  0  0  0
   -1.9190   21.9690  -28.7620 C   0  0  0  0  0  0  0  0  0  0  0  0
   -0.7950   22.5750  -28.1960 C   0  0  0  0  0  0  0  0  0  0  0  0
   -0.5710   23.9410  -28.3810 C   0  0  0  0  0  0  0  0  0  0  0  0
   -1.4720   24.7060  -29.1310 C   0  0  0  0  0  0  0  0  0  0  0  0
   -1.2370   26.0650  -29.3020 O   0  0  0  0  0  0  0  0  0  0  0  0
   -6.0960   23.8090  -30.9570 C   0  0  0  0  0  0  0  0  0  0  0  0
   -7.4950   23.8160  -30.9340 C   0  0  0  0  0  0  0  0  0  0  0  0
   -8.2130   22.7920  -31.5560 C   0  0  0  0  0  0  0  0  0  0  0  0
   -7.5390   21.7530  -32.2000 C   0  0  0  0  0  0  0  0  0  0  0  0
   -6.1320   21.7280  -32.2320 C   0  0  0  0  0  0  0  0  0  0  0  0
   -5.4120   20.6160  -32.9030 C   0  0  0  0  0  0  0  0  0  0  0  0
   -6.1020   19.7120  -33.7320 C   0  0  0  0  0  0  0  0  0  0  0  0
   -5.4220   18.6670  -34.3640 C   0  0  0  0  0  0  0  0  0  0  0  0
   -4.0390   18.5140  -34.1870 C   0  0  0  0  0  0  0  0  0  0  0  0
   -3.3040   17.3770  -34.8410 C   0  0  0  0  0  0  0  0  0  0  0  0
   -3.3180   16.2070  -33.9520 N   0  0  0  0  0  0  0  0  0  0  0  0
   -4.6850   15.6730  -33.7890 C   0  0  0  0  0  0  0  0  0  0  0  0
   -5.1170   15.7060  -32.3230 C   0  0  0  0  0  0  0  0  0  0  0  0
   -4.5940   14.4190  -31.7030 C   0  0  0  0  0  0  0  0  0  0  0  0
   -4.3740   13.4400  -32.8540 C   0  0  0  0  0  0  0  0  0  0  0  0
   -4.7210   14.1850  -34.1380 C   0  0  0  0  0  0  0  0  0  0  0  0
   -3.3490   19.4030  -33.3510 C   0  0  0  0  0  0  0  0  0  0  0  0
   -4.0280   20.4470  -32.7160 C   0  0  0  0  0  0  0  0  0  0  0  0
   -5.4180   22.7700  -31.6100 C   0  0  0  0  0  0  0  0  0  0  0  0
   -3.7021   22.2453  -29.9619 H   0  0  0  0  0  0  0  0  0  0  0  0
   -2.0949   20.8930  -28.6159 H   0  0  0  0  0  0  0  0  0  0  0  0
   -0.0864   21.9765  -27.6047 H   0  0  0  0  0  0  0  0  0  0  0  0
    0.3155   24.4169  -27.9363 H   0  0  0  0  0  0  0  0  0  0  0  0
   -8.0310   24.6304  -30.4246 H   0  0  0  0  0  0  0  0  0  0  0  0
   -9.3128   22.8044  -31.5383 H   0  0  0  0  0  0  0  0  0  0  0  0
   -8.1111   20.9487  -32.6856 H   0  0  0  0  0  0  0  0  0  0  0  0
   -7.1852   19.8287  -33.8838 H   0  0  0  0  0  0  0  0  0  0  0  0
   -5.9738   17.9617  -35.0028 H   0  0  0  0  0  0  0  0  0  0  0  0
   -3.7957   17.1211  -35.7911 H   0  0  0  0  0  0  0  0  0  0  0  0
   -2.2636   17.6770  -35.0349 H   0  0  0  0  0  0  0  0  0  0  0  0
   -2.9640   16.5380  -33.0220 H   0  0  0  0  0  0  0  0  0  0  0  0
   -5.3299   16.2872  -34.4347 H   0  0  0  0  0  0  0  0  0  0  0  0
   -4.6813   16.5793  -31.8156 H   0  0  0  0  0  0  0  0  0  0  0  0
   -6.2099   15.7847  -32.2266 H   0  0  0  0  0  0  0  0  0  0  0  0
   -3.6457   14.6080  -31.1787 H   0  0  0  0  0  0  0  0  0  0  0  0
   -5.3053   14.0145  -30.9678 H   0  0  0  0  0  0  0  0  0  0  0  0
   -3.3239   13.1132  -32.8777 H   0  0  0  0  0  0  0  0  0  0  0  0
   -5.0012   12.5441  -32.7356 H   0  0  0  0  0  0  0  0  0  0  0  0
   -3.9829   13.9589  -34.9217 H   0  0  0  0  0  0  0  0  0  0  0  0
   -5.7079   13.8863  -34.5212 H   0  0  0  0  0  0  0  0  0  0  0  0
   -2.2674   19.2784  -33.1939 H   0  0  0  0  0  0  0  0  0  0  0  0
   -3.4761   21.1414  -32.0654 H   0  0  0  0  0  0  0  0  0  0  0  0
   -4.3183   22.7689  -31.6366 H   0  0  0  0  0  0  0  0  0  0  0  0
  1  2  2  0
  2  3  2  0
  2  4  1  0
  4  5  1  0
  5  6  2  0
  6  7  1  0
  7  8  2  0
  8  9  1  0
  9 10  2  0
 10 11  1  0
  2 12  1  0
 12 13  2  0
 13 14  1  0
 14 15  2  0
 15 16  1  0
 16 17  1  0
 17 18  2  0
 18 19  1  0
 19 20  2  0
 20 21  1  0
 21 22  1  0
 22 23  1  0
 23 24  1  0
 24 25  1  0
 25 26  1  0
 26 27  1  0
 20 28  1  0
 28 29  2  0
 16 30  2  0
 10  5  1  0
 30 12  1  0
 29 17  1  0
 27 23  1  0
  6 31  1  0
  7 32  1  0
  8 33  1  0
  9 34  1  0
 13 35  1  0
 14 36  1  0
 15 37  1  0
 18 38  1  0
 19 39  1  0
 21 40  1  0
 21 41  1  0
 22 42  1  0
 23 43  1  0
 24 44  1  0
 24 45  1  0
 25 46  1  0
 25 47  1  0
 26 48  1  0
 26 49  1  0
 27 50  1  0
 27 51  1  0
 28 52  1  0
 29 53  1  0
 30 54  1  0
M  CHG  2   4  -1  11  -1
M  END
>  <UniqueID>  (23) 
23

>  <SMILES>  (23) 
O=S(=O)([N-]c1ccccc1[O-])c1cccc(-c2ccc(CNC3CCCC3)cc2)c1

>  <Energy>  (23) 
66.21649941709188

>  <Genealogy>  (23) 
O=S(=O)([N-]c1ccccc1[O-])c1cccc(-c2ccc(CNC3CCCC3)cc2)c1 (protonated)
O=S(=O)([N-]c1ccccc1[O-])c1cccc(-c2ccc(CNC3CCCC3)cc2)c1 (3D coordinates assigned)
O=S(=O)([N-]c1ccccc1[O-])c1cccc(-c2ccc(CNC3CCCC3)cc2)c1 (nonaromatic ring conformer: 66.21649941709188 kcal/mol)

>  <smiles>  (23) 
O=S(=O)(Nc1ccccc1O)c1cccc(-c2ccc(CNC3CCCC3)cc2)c1

>  <score_type>  (23) 
oracle

>  <origin>  (23) 
adgpu

>  <m_score__min__energy>  (23) 
-14.35

>  <m_primary>  (23) 
energy

$$$$
23:0
     RDKit          3D

 55 58  0  0  0  0  0  0  0  0999 V2000
   -8.5400   18.4248  -31.6164 H   0  0  0  0  0  0  0  0  0  0  0  0
   -8.3680   19.5080  -31.7010 C   0  0  0  0  0  0  0  0  0  0  0  0
   -7.4290   19.9970  -32.6130 C   0  0  0  0  0  0  0  0  0  0  0  0
   -6.8639   19.2984  -33.2475 H   0  0  0  0  0  0  0  0  0  0  0  0
   -7.2070   21.3730  -32.7200 C   0  0  0  0  0  0  0  0  0  0  0  0
   -6.4746   21.7550  -33.4464 H   0  0  0  0  0  0  0  0  0  0  0  0
   -7.9160   22.2700  -31.9030 C   0  0  0  0  0  0  0  0  0  0  0  0
   -7.7070   23.7500  -32.0420 C   0  0  0  0  0  0  0  0  0  0  0  0
   -8.6695   24.2695  -31.9249 H   0  0  0  0  0  0  0  0  0  0  0  0
   -7.2914   23.9714  -33.0361 H   0  0  0  0  0  0  0  0  0  0  0  0
   -6.7780   24.2060  -31.0110 N   0  0  0  0  0  0  0  0  0  0  0  0
   -5.5490   23.8010  -30.9090 C   0  0  0  0  0  0  0  0  0  0  0  0
   -4.7680   24.2870  -29.9120 N   0  0  0  0  0  0  0  0  0  0  0  0
   -3.4790   23.8760  -29.7800 C   0  0  0  0  0  0  0  0  0  0  0  0
   -2.6490   24.3930  -28.7170 N   0  0  0  0  0  0  0  0  0  0  0  0
   -1.2430   24.7230  -28.9840 C   0  0  0  0  0  0  0  0  0  0  0  0
   -0.6397   23.8046  -28.9331 H   0  0  0  0  0  0  0  0  0  0  0  0
   -1.1669   25.1718  -29.9854 H   0  0  0  0  0  0  0  0  0  0  0  0
   -0.7220   25.7260  -27.9510 C   0  0  0  0  0  0  0  0  0  0  0  0
    0.3658   25.8358  -28.0722 H   0  0  0  0  0  0  0  0  0  0  0  0
   -1.2255   26.6906  -28.1123 H   0  0  0  0  0  0  0  0  0  0  0  0
   -0.9990   25.2860  -26.6380 O   0  0  0  0  0  0  0  0  0  0  0  0
   -2.3970   25.2770  -26.4290 C   0  0  0  0  0  0  0  0  0  0  0  0
   -2.6022   25.0394  -25.3748 H   0  0  0  0  0  0  0  0  0  0  0  0
   -2.7973   26.2695  -26.6836 H   0  0  0  0  0  0  0  0  0  0  0  0
   -3.0750   24.2320  -27.3200 C   0  0  0  0  0  0  0  0  0  0  0  0
   -2.8000   23.2256  -26.9713 H   0  0  0  0  0  0  0  0  0  0  0  0
   -4.1650   24.3684  -27.2623 H   0  0  0  0  0  0  0  0  0  0  0  0
   -2.9780   22.9710  -30.6620 N   0  0  0  0  0  0  0  0  0  0  0  0
   -3.7470   22.4870  -31.6740 C   0  0  0  0  0  0  0  0  0  0  0  0
   -3.2840   21.6060  -32.5120 N   0  0  0  0  0  0  0  0  0  0  0  0
   -1.9410   21.0930  -32.5690 C   0  0  0  0  0  0  0  0  0  0  0  0
   -1.4190   20.2620  -31.5640 C   0  0  0  0  0  0  0  0  0  0  0  0
   -2.0500   19.9704  -30.7115 H   0  0  0  0  0  0  0  0  0  0  0  0
   -0.1030   19.8050  -31.6430 C   0  0  0  0  0  0  0  0  0  0  0  0
    0.2919   19.1459  -30.8559 H   0  0  0  0  0  0  0  0  0  0  0  0
    0.7230   20.1770  -32.7160 C   0  0  0  0  0  0  0  0  0  0  0  0
    2.1410   19.6710  -32.7480 C   0  0  0  0  0  0  0  0  0  0  0  0
    2.5070   19.5404  -31.7189 H   0  0  0  0  0  0  0  0  0  0  0  0
    2.1740   18.7056  -33.2742 H   0  0  0  0  0  0  0  0  0  0  0  0
    2.7777   20.3974  -33.2742 H   0  0  0  0  0  0  0  0  0  0  0  0
    0.2190   21.0560  -33.7050 C   0  0  0  0  0  0  0  0  0  0  0  0
    1.2160   21.6070  -35.0630 S   0  0  0  0  0  0  0  0  0  0  0  0
    1.2450   20.5620  -36.1440 O   0  0  0  0  0  0  0  0  0  0  0  0
    2.6210   21.8500  -34.5900 O   0  0  0  0  0  0  0  0  0  0  0  0
    0.5600   23.0650  -35.7220 N   0  0  0  0  0  0  0  0  0  0  0  0
    0.7140   23.8160  -35.0130 H   0  0  0  0  0  0  0  0  0  0  0  0
   -0.4730   22.9290  -35.8000 H   0  0  0  0  0  0  0  0  0  0  0  0
   -1.1090   21.5060  -33.6150 C   0  0  0  0  0  0  0  0  0  0  0  0
   -1.5006   22.1938  -34.3790 H   0  0  0  0  0  0  0  0  0  0  0  0
   -5.0330   22.8980  -31.7880 N   0  0  0  0  0  0  0  0  0  0  0  0
   -8.8700   21.7720  -30.9990 C   0  0  0  0  0  0  0  0  0  0  0  0
   -9.4459   22.4675  -30.3708 H   0  0  0  0  0  0  0  0  0  0  0  0
   -9.0890   20.3950  -30.8960 C   0  0  0  0  0  0  0  0  0  0  0  0
   -9.8298   20.0088  -30.1804 H   0  0  0  0  0  0  0  0  0  0  0  0
  1  2  1  0
  2  3  2  0
  3  4  1  0
  3  5  1  0
  5  6  1  0
  5  7  2  0
  7  8  1  0
  8  9  1  0
  8 10  1  0
  8 11  1  0
 11 12  2  0
 12 13  1  0
 13 14  2  0
 14 15  1  0
 15 16  1  0
 16 17  1  0
 16 18  1  0
 16 19  1  0
 19 20  1  0
 19 21  1  0
 19 22  1  0
 22 23  1  0
 23 24  1  0
 23 25  1  0
 23 26  1  0
 26 27  1  0
 26 28  1  0
 14 29  1  0
 29 30  1  0
 30 31  2  3
 31 32  1  0
 32 33  2  0
 33 34  1  0
 33 35  1  0
 35 36  1  0
 35 37  2  0
 37 38  1  0
 38 39  1  0
 38 40  1  0
 38 41  1  0
 37 42  1  0
 42 43  1  0
 43 44  2  0
 43 45  2  0
 43 46  1  0
 46 47  1  0
 46 48  1  0
 42 49  2  0
 49 50  1  0
 30 51  1  0
  7 52  1  0
 52 53  1  0
 52 54  2  0
 54 55  1  0
 54  2  1  0
 51 12  1  0
 26 15  1  0
 49 32  1  0
M  CHG  2  29  -1  51  -1
M  END
>  <UniqueID>  (24) 
24

>  <SMILES>  (24) 
Cc1ccc(N=c2[n-]c(N3CCOCC3)n/c(=N/Cc3ccccc3)[n-]2)cc1S(N)(=O)=O

>  <Energy>  (24) 
65.03086809545962

>  <Genealogy>  (24) 
Cc1ccc(N=c2[n-]c(N3CCOCC3)nc(=NCc3ccccc3)[n-]2)cc1S(N)(=O)=O (protonated)
Cc1ccc(N=c2[n-]c(N3CCOCC3)n/c(=N/Cc3ccccc3)[n-]2)cc1S(N)(=O)=O (cis-trans isomerization)
Cc1ccc(N=c2[n-]c(N3CCOCC3)n/c(=N/Cc3ccccc3)[n-]2)cc1S(N)(=O)=O (3D coordinates assigned)
Cc1ccc(N=c2[n-]c(N3CCOCC3)n/c(=N/Cc3ccccc3)[n-]2)cc1S(N)(=O)=O (nonaromatic ring conformer: 65.03086809545962 kcal/mol)

>  <smiles>  (24) 
Cc1ccc(N=c2[nH]c(N3CCOCC3)nc(=NCc3ccccc3)[nH]2)cc1S(N)(=O)=O

>  <score_type>  (24) 
oracle

>  <origin>  (24) 
adgpu

>  <m_score__min__energy>  (24) 
-10.84

>  <m_primary>  (24) 
energy

$$$$
24:0
     RDKit          3D

 40 42  0  0  0  0  0  0  0  0999 V2000
   -6.6440   24.9430  -30.1950 C   0  0  0  0  0  0  0  0  0  0  0  0
   -5.5890   24.4770  -29.3030 N   0  0  0  0  0  0  0  0  0  0  0  0
   -4.2030   24.6770  -29.6050 C   0  0  0  0  0  0  0  0  0  0  0  0
   -3.8610   25.2400  -30.6800 O   0  0  0  0  0  0  0  0  0  0  0  0
   -3.1500   24.1730  -28.6670 C   0  0  0  0  0  0  0  0  0  0  0  0
   -1.8230   24.3870  -29.2580 N   0  0  0  0  0  0  0  0  0  0  0  0
   -1.0420   23.1410  -29.3120 C   0  0  0  0  0  0  0  0  0  0  0  0
   -1.4040   22.2990  -30.5010 C   0  0  0  0  0  0  0  0  0  0  0  0
   -0.5230   21.5330  -31.2570 C   0  0  0  0  0  0  0  0  0  0  0  0
   -1.0910   20.8880  -32.3100 N   0  0  0  0  0  0  0  0  0  0  0  0
   -2.4150   21.1480  -32.4000 C   0  0  0  0  0  0  0  0  0  0  0  0
   -3.2650   20.5990  -33.3670 O   0  0  0  0  0  0  0  0  0  0  0  0
   -4.6280   20.3260  -33.1810 C   0  0  0  0  0  0  0  0  0  0  0  0
   -5.1990   19.0900  -33.5340 C   0  0  0  0  0  0  0  0  0  0  0  0
   -6.5650   18.8600  -33.3420 C   0  0  0  0  0  0  0  0  0  0  0  0
   -7.3810   19.8660  -32.8050 C   0  0  0  0  0  0  0  0  0  0  0  0
   -8.7530   19.6460  -32.6080 C   0  0  0  0  0  0  0  0  0  0  0  0
   -9.5560   20.6590  -32.0780 C   0  0  0  0  0  0  0  0  0  0  0  0
   -8.9990   21.8970  -31.7430 C   0  0  0  0  0  0  0  0  0  0  0  0
   -7.6340   22.1290  -31.9360 C   0  0  0  0  0  0  0  0  0  0  0  0
   -6.8150   21.1190  -32.4670 C   0  0  0  0  0  0  0  0  0  0  0  0
   -5.4440   21.3390  -32.6640 C   0  0  0  0  0  0  0  0  0  0  0  0
   -2.9420   22.1730  -31.1760 S   0  0  0  0  0  0  0  0  0  0  0  0
   -7.4897   25.3165  -29.5990 H   0  0  0  0  0  0  0  0  0  0  0  0
   -6.2562   25.7536  -30.8295 H   0  0  0  0  0  0  0  0  0  0  0  0
   -6.9820   24.1104  -30.8295 H   0  0  0  0  0  0  0  0  0  0  0  0
   -5.8570   23.9830  -28.4230 H   0  0  0  0  0  0  0  0  0  0  0  0
   -3.2183   24.7167  -27.7132 H   0  0  0  0  0  0  0  0  0  0  0  0
   -3.3024   23.0983  -28.4890 H   0  0  0  0  0  0  0  0  0  0  0  0
   -1.9370   24.7600  -30.2300 H   0  0  0  0  0  0  0  0  0  0  0  0
    0.0269   23.3945  -29.3690 H   0  0  0  0  0  0  0  0  0  0  0  0
   -1.2666   22.5607  -28.4049 H   0  0  0  0  0  0  0  0  0  0  0  0
    0.5487   21.4553  -31.0214 H   0  0  0  0  0  0  0  0  0  0  0  0
   -4.5669   18.2990  -33.9639 H   0  0  0  0  0  0  0  0  0  0  0  0
   -7.0006   17.8870  -33.6130 H   0  0  0  0  0  0  0  0  0  0  0  0
   -9.1968   18.6745  -32.8713 H   0  0  0  0  0  0  0  0  0  0  0  0
  -10.6306   20.4820  -31.9236 H   0  0  0  0  0  0  0  0  0  0  0  0
   -9.6367   22.6906  -31.3264 H   0  0  0  0  0  0  0  0  0  0  0  0
   -7.2004   23.1047  -31.6714 H   0  0  0  0  0  0  0  0  0  0  0  0
   -5.0063   22.3157  -32.4101 H   0  0  0  0  0  0  0  0  0  0  0  0
  1  2  1  0
  2  3  1  0
  3  4  2  0
  3  5  1  0
  5  6  1  0
  6  7  1  0
  7  8  1  0
  8  9  2  0
  9 10  1  0
 10 11  2  0
 11 12  1  0
 12 13  1  0
 13 14  2  0
 14 15  1  0
 15 16  2  0
 16 17  1  0
 17 18  2  0
 18 19  1  0
 19 20  2  0
 20 21  1  0
 21 22  2  0
 11 23  1  0
 23  8  1  0
 22 13  1  0
 21 16  1  0
  1 24  1  0
  1 25  1  0
  1 26  1  0
  2 27  1  0
  5 28  1  0
  5 29  1  0
  6 30  1  0
  7 31  1  0
  7 32  1  0
  9 33  1  0
 14 34  1  0
 15 35  1  0
 17 36  1  0
 18 37  1  0
 19 38  1  0
 20 39  1  0
 22 40  1  0
M  END
>  <UniqueID>  (25) 
25

>  <SMILES>  (25) 
CNC(=O)CNCc1cnc(Oc2ccc3ccccc3c2)s1

>  <Energy>  (25) 
73.96382306958171

>  <Genealogy>  (25) 
CNC(=O)CNCc1cnc(Oc2ccc3ccccc3c2)s1 (3D coordinates assigned)
CNC(=O)CNCc1cnc(Oc2ccc3ccccc3c2)s1 (optimized conformer: 73.96382306958171 kcal/mol)

>  <smiles>  (25) 
CNC(=O)CNCc1cnc(Oc2ccc3ccccc3c2)s1

>  <score_type>  (25) 
oracle

>  <origin>  (25) 
adgpu

>  <m_score__min__energy>  (25) 
-8.5999999999999996

>  <m_primary>  (25) 
energy

$$$$
25:0
     RDKit          3D

 44 46  0  0  0  0  0  0  0  0999 V2000
   -1.3910   25.5140  -29.0470 O   0  0  0  0  0  0  0  0  0  0  0  0
   -2.5040   24.9250  -29.0760 C   0  0  0  0  0  0  0  0  0  0  0  0
   -2.8060   23.8620  -28.0700 C   0  0  0  0  0  0  0  0  0  0  0  0
   -2.2110   22.5550  -28.5150 C   0  0  0  0  0  0  0  0  0  0  0  0
   -2.5000   21.3700  -27.8160 C   0  0  0  0  0  0  0  0  0  0  0  0
   -1.9750   20.1490  -28.2530 C   0  0  0  0  0  0  0  0  0  0  0  0
   -1.1660   20.1010  -29.3930 C   0  0  0  0  0  0  0  0  0  0  0  0
   -0.8850   21.2740  -30.1000 C   0  0  0  0  0  0  0  0  0  0  0  0
   -1.4070   22.4970  -29.6670 C   0  0  0  0  0  0  0  0  0  0  0  0
   -3.4870   25.2580  -30.0650 N   0  0  0  0  0  0  0  0  0  0  0  0
   -4.5680   24.4210  -30.4960 C   0  0  0  0  0  0  0  0  0  0  0  0
   -5.8770   24.9130  -30.4080 C   0  0  0  0  0  0  0  0  0  0  0  0
   -6.9560   24.1300  -30.8260 C   0  0  0  0  0  0  0  0  0  0  0  0
   -6.7340   22.8550  -31.3520 C   0  0  0  0  0  0  0  0  0  0  0  0
   -5.4290   22.3630  -31.4780 C   0  0  0  0  0  0  0  0  0  0  0  0
   -5.1530   20.7550  -32.1430 S   0  0  0  0  0  0  0  0  0  0  0  0
   -4.8350   20.8820  -33.6070 O   0  0  0  0  0  0  0  0  0  0  0  0
   -3.9780   20.1170  -31.4560 O   0  0  0  0  0  0  0  0  0  0  0  0
   -6.5830   19.7740  -31.9380 N   0  0  0  0  0  0  0  0  0  0  0  0
   -6.2980   18.3800  -32.3160 C   0  0  0  0  0  0  0  0  0  0  0  0
   -7.5920   17.5400  -32.3130 C   0  0  0  0  0  0  0  0  0  0  0  0
   -8.6930   18.2850  -31.8260 O   0  0  0  0  0  0  0  0  0  0  0  0
   -8.9210   19.4010  -32.6660 C   0  0  0  0  0  0  0  0  0  0  0  0
   -7.6760   20.3090  -32.7650 C   0  0  0  0  0  0  0  0  0  0  0  0
   -4.3470   23.1480  -31.0510 C   0  0  0  0  0  0  0  0  0  0  0  0
   -2.3765   24.1465  -27.0981 H   0  0  0  0  0  0  0  0  0  0  0  0
   -3.8963   23.7510  -27.9755 H   0  0  0  0  0  0  0  0  0  0  0  0
   -3.1409   21.4029  -26.9226 H   0  0  0  0  0  0  0  0  0  0  0  0
   -2.1988   19.2253  -27.6992 H   0  0  0  0  0  0  0  0  0  0  0  0
   -0.7510   19.1407  -29.7332 H   0  0  0  0  0  0  0  0  0  0  0  0
   -0.2520   21.2348  -30.9987 H   0  0  0  0  0  0  0  0  0  0  0  0
   -1.1879   23.4166  -30.2295 H   0  0  0  0  0  0  0  0  0  0  0  0
   -6.0562   25.9217  -30.0074 H   0  0  0  0  0  0  0  0  0  0  0  0
   -7.9818   24.5180  -30.7408 H   0  0  0  0  0  0  0  0  0  0  0  0
   -7.5865   22.2359  -31.6680 H   0  0  0  0  0  0  0  0  0  0  0  0
   -5.8577   18.3617  -33.3239 H   0  0  0  0  0  0  0  0  0  0  0  0
   -5.5959   17.9515  -31.5856 H   0  0  0  0  0  0  0  0  0  0  0  0
   -7.8083   17.2130  -33.3408 H   0  0  0  0  0  0  0  0  0  0  0  0
   -7.4405   16.6750  -31.6506 H   0  0  0  0  0  0  0  0  0  0  0  0
   -9.1804   19.0416  -33.6728 H   0  0  0  0  0  0  0  0  0  0  0  0
   -9.7415   19.9923  -32.2333 H   0  0  0  0  0  0  0  0  0  0  0  0
   -7.3463   20.3587  -33.8132 H   0  0  0  0  0  0  0  0  0  0  0  0
   -7.9380   21.3140  -32.4027 H   0  0  0  0  0  0  0  0  0  0  0  0
   -3.3205   22.7655  -31.1510 H   0  0  0  0  0  0  0  0  0  0  0  0
  1  2  2  0
  2  3  1  0
  3  4  1  0
  4  5  2  0
  5  6  1  0
  6  7  2  0
  7  8  1  0
  8  9  2  0
  2 10  1  0
 10 11  1  0
 11 12  2  0
 12 13  1  0
 13 14  2  0
 14 15  1  0
 15 16  1  0
 16 17  2  0
 16 18  2  0
 16 19  1  0
 19 20  1  0
 20 21  1  0
 21 22  1  0
 22 23  1  0
 23 24  1  0
 15 25  2  0
  9  4  1  0
 25 11  1  0
 24 19  1  0
  3 26  1  0
  3 27  1  0
  5 28  1  0
  6 29  1  0
  7 30  1  0
  8 31  1  0
  9 32  1  0
 12 33  1  0
 13 34  1  0
 14 35  1  0
 20 36  1  0
 20 37  1  0
 21 38  1  0
 21 39  1  0
 23 40  1  0
 23 41  1  0
 24 42  1  0
 24 43  1  0
 25 44  1  0
M  CHG  1  10  -1
M  END
>  <UniqueID>  (26) 
26

>  <SMILES>  (26) 
O=C(Cc1ccccc1)[N-]c1cccc(S(=O)(=O)N2CCOCC2)c1

>  <Energy>  (26) 
53.560350680357566

>  <Genealogy>  (26) 
O=C(Cc1ccccc1)[N-]c1cccc(S(=O)(=O)N2CCOCC2)c1 (protonated)
O=C(Cc1ccccc1)[N-]c1cccc(S(=O)(=O)N2CCOCC2)c1 (3D coordinates assigned)
O=C(Cc1ccccc1)[N-]c1cccc(S(=O)(=O)N2CCOCC2)c1 (nonaromatic ring conformer: 53.560350680357566 kcal/mol)

>  <smiles>  (26) 
O=C(Cc1ccccc1)Nc1cccc(S(=O)(=O)N2CCOCC2)c1

>  <score_type>  (26) 
oracle

>  <origin>  (26) 
adgpu

>  <m_score__min__energy>  (26) 
-10.19

>  <m_primary>  (26) 
energy

$$$$
26:0
     RDKit          3D

 30 32  0  0  0  0  0  0  0  0999 V2000
   -4.5210   19.8470  -33.5630 N   0  0  0  0  0  0  0  0  0  0  0  0
   -5.5990   20.0130  -33.1810 C   0  0  0  0  0  0  0  0  0  0  0  0
   -6.9410   20.2180  -32.7030 C   0  0  0  0  0  0  0  0  0  0  0  0
   -7.8800   19.1850  -32.5940 C   0  0  0  0  0  0  0  0  0  0  0  0
   -9.1210   19.6100  -32.1300 C   0  0  0  0  0  0  0  0  0  0  0  0
   -9.0520   21.2720  -31.8590 S   0  0  0  0  0  0  0  0  0  0  0  0
   -7.4370   21.4510  -32.3070 C   0  0  0  0  0  0  0  0  0  0  0  0
   -6.7190   22.6880  -32.3890 N   0  0  0  0  0  0  0  0  0  0  0  0
   -6.5720   23.6240  -31.3150 C   0  0  0  0  0  0  0  0  0  0  0  0
   -7.6030   24.1550  -30.8260 O   0  0  0  0  0  0  0  0  0  0  0  0
   -5.2490   24.0310  -30.8080 C   0  0  0  0  0  0  0  0  0  0  0  0
   -4.3740   23.2550  -30.0730 C   0  0  0  0  0  0  0  0  0  0  0  0
   -3.2770   24.0760  -29.8830 C   0  0  0  0  0  0  0  0  0  0  0  0
   -2.0470   23.7660  -29.1130 C   0  0  0  0  0  0  0  0  0  0  0  0
   -1.7290   22.4190  -28.8560 C   0  0  0  0  0  0  0  0  0  0  0  0
   -0.5740   22.0830  -28.1460 C   0  0  0  0  0  0  0  0  0  0  0  0
    0.2750   23.0840  -27.6780 C   0  0  0  0  0  0  0  0  0  0  0  0
   -0.0330   24.4260  -27.9090 C   0  0  0  0  0  0  0  0  0  0  0  0
   -1.1930   24.7780  -28.6160 C   0  0  0  0  0  0  0  0  0  0  0  0
   -1.5010   26.1240  -28.7960 O   0  0  0  0  0  0  0  0  0  0  0  0
   -3.5020   25.2650  -30.4770 N   0  0  0  0  0  0  0  0  0  0  0  0
   -4.6960   25.2340  -31.0490 N   0  0  0  0  0  0  0  0  0  0  0  0
   -7.6580   18.1386  -32.8504 H   0  0  0  0  0  0  0  0  0  0  0  0
   -9.9998   18.9687  -31.9673 H   0  0  0  0  0  0  0  0  0  0  0  0
   -4.5166   22.2229  -29.7203 H   0  0  0  0  0  0  0  0  0  0  0  0
   -2.3967   21.6232  -29.2179 H   0  0  0  0  0  0  0  0  0  0  0  0
   -0.3342   21.0264  -27.9560 H   0  0  0  0  0  0  0  0  0  0  0  0
    1.1883   22.8167  -27.1263 H   0  0  0  0  0  0  0  0  0  0  0  0
    0.6382   25.2128  -27.5343 H   0  0  0  0  0  0  0  0  0  0  0  0
   -2.4510   26.4370  -28.9610 H   0  0  0  0  0  0  0  0  0  0  0  0
  1  2  3  0
  2  3  1  0
  3  4  1  0
  4  5  2  0
  5  6  1  0
  6  7  1  0
  7  8  1  0
  8  9  1  0
  9 10  2  0
  9 11  1  0
 11 12  1  0
 12 13  2  0
 13 14  1  0
 14 15  2  0
 15 16  1  0
 16 17  2  0
 17 18  1  0
 18 19  2  0
 19 20  1  0
 13 21  1  0
 21 22  1  0
  7  3  2  0
 22 11  2  0
 19 14  1  0
  4 23  1  0
  5 24  1  0
 12 25  1  0
 15 26  1  0
 16 27  1  0
 17 28  1  0
 18 29  1  0
 20 30  1  0
M  CHG  2   8  -1  21  -1
M  END
>  <UniqueID>  (27) 
27

>  <SMILES>  (27) 
N#Cc1ccsc1[N-]C(=O)c1cc(-c2ccccc2O)[n-]n1

>  <Energy>  (27) 
95.90398489683467

>  <Genealogy>  (27) 
N#Cc1ccsc1[N-]C(=O)c1cc(-c2ccccc2O)[n-]n1 (protonated)
N#Cc1ccsc1[N-]C(=O)c1cc(-c2ccccc2O)[n-]n1 (3D coordinates assigned)
N#Cc1ccsc1[N-]C(=O)c1cc(-c2ccccc2O)[n-]n1 (optimized conformer: 95.90398489683467 kcal/mol)

>  <smiles>  (27) 
N#Cc1ccsc1NC(=O)c1cc(-c2ccccc2O)[nH]n1

>  <score_type>  (27) 
oracle

>  <origin>  (27) 
adgpu

>  <m_score__min__energy>  (27) 
-11.279999999999999

>  <m_primary>  (27) 
energy

$$$$
27:0
     RDKit          3D

 55 57  0  0  0  0  0  0  0  0999 V2000
   -9.8530   21.5720  -31.9540 C   0  0  0  0  0  0  0  0  0  0  0  0
   -8.7010   22.5730  -31.9730 C   0  0  0  0  0  0  0  0  0  0  0  0
   -7.5700   22.0610  -31.1920 N   0  0  0  0  0  0  0  0  0  0  0  0
   -7.3600   22.5150  -29.8120 C   0  0  0  0  0  0  0  0  0  0  0  0
   -6.0400   23.2270  -29.6860 C   0  0  0  0  0  0  0  0  0  0  0  0
   -5.0030   22.6700  -28.9240 C   0  0  0  0  0  0  0  0  0  0  0  0
   -3.7810   23.3380  -28.8010 C   0  0  0  0  0  0  0  0  0  0  0  0
   -3.5870   24.5860  -29.4200 C   0  0  0  0  0  0  0  0  0  0  0  0
   -2.3680   25.2750  -29.3410 O   0  0  0  0  0  0  0  0  0  0  0  0
   -1.3790   25.0660  -28.3700 C   0  0  0  0  0  0  0  0  0  0  0  0
   -0.4440   24.0440  -28.5680 C   0  0  0  0  0  0  0  0  0  0  0  0
    0.5630   23.8170  -27.6250 C   0  0  0  0  0  0  0  0  0  0  0  0
    0.6470   24.6160  -26.4820 C   0  0  0  0  0  0  0  0  0  0  0  0
   -0.2680   25.6550  -26.2880 C   0  0  0  0  0  0  0  0  0  0  0  0
   -1.2760   25.8840  -27.2290 C   0  0  0  0  0  0  0  0  0  0  0  0
   -4.6240   25.1400  -30.1800 C   0  0  0  0  0  0  0  0  0  0  0  0
   -5.8450   24.4700  -30.3080 C   0  0  0  0  0  0  0  0  0  0  0  0
   -6.5620   21.2660  -31.8400 C   0  0  0  0  0  0  0  0  0  0  0  0
   -5.4380   21.9090  -32.3690 C   0  0  0  0  0  0  0  0  0  0  0  0
   -4.4260   21.1770  -32.9810 C   0  0  0  0  0  0  0  0  0  0  0  0
   -4.5330   19.7930  -33.0900 C   0  0  0  0  0  0  0  0  0  0  0  0
   -5.6620   19.1150  -32.5920 C   0  0  0  0  0  0  0  0  0  0  0  0
   -5.7990   17.6910  -32.7880 N   0  0  0  0  0  0  0  0  0  0  0  0
   -5.7040   16.9130  -34.3360 S   0  0  0  0  0  0  0  0  0  0  0  0
   -4.2140   15.9440  -34.4410 C   0  0  0  0  0  0  0  0  0  0  0  0
   -6.9090   16.0380  -34.5490 O   0  0  0  0  0  0  0  0  0  0  0  0
   -5.6790   17.9660  -35.4080 O   0  0  0  0  0  0  0  0  0  0  0  0
   -6.6830   19.8570  -31.9410 C   0  0  0  0  0  0  0  0  0  0  0  0
   -7.8980   19.1450  -31.3950 C   0  0  0  0  0  0  0  0  0  0  0  0
  -10.1200   21.3400  -30.9124 H   0  0  0  0  0  0  0  0  0  0  0  0
  -10.7237   22.0052  -32.4679 H   0  0  0  0  0  0  0  0  0  0  0  0
   -9.5455   20.6493  -32.4679 H   0  0  0  0  0  0  0  0  0  0  0  0
   -8.3799   22.7372  -33.0122 H   0  0  0  0  0  0  0  0  0  0  0  0
   -9.0423   23.5204  -31.5303 H   0  0  0  0  0  0  0  0  0  0  0  0
   -8.1707   23.2030  -29.5300 H   0  0  0  0  0  0  0  0  0  0  0  0
   -7.3567   21.6394  -29.1462 H   0  0  0  0  0  0  0  0  0  0  0  0
   -5.1516   21.7032  -28.4208 H   0  0  0  0  0  0  0  0  0  0  0  0
   -2.9665   22.8849  -28.2167 H   0  0  0  0  0  0  0  0  0  0  0  0
   -0.5015   23.4164  -29.4696 H   0  0  0  0  0  0  0  0  0  0  0  0
    1.2908   23.0075  -27.7834 H   0  0  0  0  0  0  0  0  0  0  0  0
    1.4325   24.4277  -25.7353 H   0  0  0  0  0  0  0  0  0  0  0  0
   -0.1947   26.2925  -25.3946 H   0  0  0  0  0  0  0  0  0  0  0  0
   -1.9910   26.7060  -27.0774 H   0  0  0  0  0  0  0  0  0  0  0  0
   -4.4775   26.1088  -30.6799 H   0  0  0  0  0  0  0  0  0  0  0  0
   -6.6565   24.9195  -30.8991 H   0  0  0  0  0  0  0  0  0  0  0  0
   -5.3537   23.0036  -32.3004 H   0  0  0  0  0  0  0  0  0  0  0  0
   -3.5396   21.6923  -33.3796 H   0  0  0  0  0  0  0  0  0  0  0  0
   -3.7252   19.2221  -33.5713 H   0  0  0  0  0  0  0  0  0  0  0  0
   -5.9260   17.0620  -31.9650 H   0  0  0  0  0  0  0  0  0  0  0  0
   -3.8559   15.7111  -33.4273 H   0  0  0  0  0  0  0  0  0  0  0  0
   -4.4224   15.0082  -34.9803 H   0  0  0  0  0  0  0  0  0  0  0  0
   -3.4431   16.5140  -34.9803 H   0  0  0  0  0  0  0  0  0  0  0  0
   -7.8695   19.1617  -30.2955 H   0  0  0  0  0  0  0  0  0  0  0  0
   -8.8088   19.6523  -31.7459 H   0  0  0  0  0  0  0  0  0  0  0  0
   -7.9006   18.1025  -31.7459 H   0  0  0  0  0  0  0  0  0  0  0  0
  1  2  1  0
  2  3  1  0
  3  4  1  0
  4  5  1  0
  5  6  2  0
  6  7  1  0
  7  8  2  0
  8  9  1  0
  9 10  1  0
 10 11  2  0
 11 12  1  0
 12 13  2  0
 13 14  1  0
 14 15  2  0
  8 16  1  0
 16 17  2  0
  3 18  1  0
 18 19  2  0
 19 20  1  0
 20 21  2  0
 21 22  1  0
 22 23  1  0
 23 24  1  0
 24 25  1  0
 24 26  2  0
 24 27  2  0
 22 28  2  0
 28 29  1  0
 17  5  1  0
 28 18  1  0
 15 10  1  0
  1 30  1  0
  1 31  1  0
  1 32  1  0
  2 33  1  0
  2 34  1  0
  4 35  1  0
  4 36  1  0
  6 37  1  0
  7 38  1  0
 11 39  1  0
 12 40  1  0
 13 41  1  0
 14 42  1  0
 15 43  1  0
 16 44  1  0
 17 45  1  0
 19 46  1  0
 20 47  1  0
 21 48  1  0
 23 49  1  0
 25 50  1  0
 25 51  1  0
 25 52  1  0
 29 53  1  0
 29 54  1  0
 29 55  1  0
M  END
>  <UniqueID>  (28) 
28

>  <SMILES>  (28) 
CCN(Cc1ccc(Oc2ccccc2)cc1)c1cccc(NS(C)(=O)=O)c1C

>  <Energy>  (28) 
65.61919731809287

>  <Genealogy>  (28) 
CCN(Cc1ccc(Oc2ccccc2)cc1)c1cccc(NS(C)(=O)=O)c1C (3D coordinates assigned)
CCN(Cc1ccc(Oc2ccccc2)cc1)c1cccc(NS(C)(=O)=O)c1C (optimized conformer: 65.61919731809287 kcal/mol)

>  <smiles>  (28) 
CCN(Cc1ccc(Oc2ccccc2)cc1)c1cccc(NS(C)(=O)=O)c1C

>  <score_type>  (28) 
oracle

>  <origin>  (28) 
adgpu

>  <m_score__min__energy>  (28) 
-9.4600000000000009

>  <m_primary>  (28) 
energy

$$$$
28:0
     RDKit          3D

 45 47  0  0  0  0  0  0  0  0999 V2000
   -0.1650   22.7470  -24.1020 C   0  0  0  0  0  0  0  0  0  0  0  0
   -0.8620   21.7110  -24.7790 O   0  0  0  0  0  0  0  0  0  0  0  0
   -0.9030   21.5890  -26.1740 C   0  0  0  0  0  0  0  0  0  0  0  0
   -0.3650   22.5720  -27.0180 C   0  0  0  0  0  0  0  0  0  0  0  0
   -0.4680   22.4440  -28.4030 C   0  0  0  0  0  0  0  0  0  0  0  0
   -1.1380   21.3510  -28.9660 C   0  0  0  0  0  0  0  0  0  0  0  0
   -1.2610   21.2390  -30.4240 C   0  0  0  0  0  0  0  0  0  0  0  0
   -0.2200   21.1110  -31.2670 N   0  0  0  0  0  0  0  0  0  0  0  0
   -0.7310   21.0580  -32.4870 N   0  0  0  0  0  0  0  0  0  0  0  0
   -2.0610   21.1660  -32.3430 C   0  0  0  0  0  0  0  0  0  0  0  0
   -3.0360   21.1880  -33.4710 C   0  0  0  0  0  0  0  0  0  0  0  0
   -4.3850   21.4500  -32.9630 N   0  0  0  0  0  0  0  0  0  0  0  0
   -4.5960   22.6090  -32.3280 N   0  0  0  0  0  0  0  0  0  0  0  0
   -5.8190   22.9630  -31.8450 C   0  0  0  0  0  0  0  0  0  0  0  0
   -5.9530   24.3000  -31.1650 C   0  0  0  0  0  0  0  0  0  0  0  0
   -4.7110   24.6260  -30.3970 C   0  0  0  0  0  0  0  0  0  0  0  0
   -4.3860   23.9370  -29.3940 O   0  0  0  0  0  0  0  0  0  0  0  0
   -3.8850   25.6630  -30.8100 O   0  0  0  0  0  0  0  0  0  0  0  0
   -6.9160   22.0930  -32.0420 C   0  0  0  0  0  0  0  0  0  0  0  0
   -8.2970   22.4150  -31.5310 C   0  0  0  0  0  0  0  0  0  0  0  0
   -6.6950   20.8890  -32.7190 C   0  0  0  0  0  0  0  0  0  0  0  0
   -5.4180   20.5820  -33.1900 C   0  0  0  0  0  0  0  0  0  0  0  0
   -5.2290   19.5170  -33.8350 O   0  0  0  0  0  0  0  0  0  0  0  0
   -2.3940   21.2740  -31.0820 O   0  0  0  0  0  0  0  0  0  0  0  0
   -1.6780   20.3670  -28.1290 C   0  0  0  0  0  0  0  0  0  0  0  0
   -1.5330   20.4650  -26.7310 C   0  0  0  0  0  0  0  0  0  0  0  0
   -2.0290   19.4770  -25.8660 O   0  0  0  0  0  0  0  0  0  0  0  0
   -3.2160   18.7210  -26.0940 C   0  0  0  0  0  0  0  0  0  0  0  0
   -0.2610   22.6043  -23.0155 H   0  0  0  0  0  0  0  0  0  0  0  0
    0.8981   22.7182  -24.3831 H   0  0  0  0  0  0  0  0  0  0  0  0
   -0.5923   23.7209  -24.3831 H   0  0  0  0  0  0  0  0  0  0  0  0
    0.1405   23.4479  -26.5854 H   0  0  0  0  0  0  0  0  0  0  0  0
   -0.0201   23.2065  -29.0572 H   0  0  0  0  0  0  0  0  0  0  0  0
   -2.7540   21.9797  -34.1807 H   0  0  0  0  0  0  0  0  0  0  0  0
   -3.0244   20.2114  -33.9771 H   0  0  0  0  0  0  0  0  0  0  0  0
   -6.1227   25.0769  -31.9250 H   0  0  0  0  0  0  0  0  0  0  0  0
   -6.8019   24.2596  -30.4667 H   0  0  0  0  0  0  0  0  0  0  0  0
   -8.2905   22.4135  -30.4310 H   0  0  0  0  0  0  0  0  0  0  0  0
   -8.6002   23.4079  -31.8945 H   0  0  0  0  0  0  0  0  0  0  0  0
   -9.0081   21.6586  -31.8945 H   0  0  0  0  0  0  0  0  0  0  0  0
   -7.5258   20.1861  -32.8796 H   0  0  0  0  0  0  0  0  0  0  0  0
   -2.2179   19.5135  -28.5649 H   0  0  0  0  0  0  0  0  0  0  0  0
   -3.6612   18.4375  -25.1289 H   0  0  0  0  0  0  0  0  0  0  0  0
   -3.9338   19.3287  -26.6645 H   0  0  0  0  0  0  0  0  0  0  0  0
   -2.9689   17.8136  -26.6645 H   0  0  0  0  0  0  0  0  0  0  0  0
  1  2  1  0
  2  3  1  0
  3  4  2  0
  4  5  1  0
  5  6  2  0
  6  7  1  0
  7  8  2  0
  8  9  1  0
  9 10  2  0
 10 11  1  0
 11 12  1  0
 12 13  1  0
 13 14  2  0
 14 15  1  0
 15 16  1  0
 16 17  2  0
 16 18  1  0
 14 19  1  0
 19 20  1  0
 19 21  2  0
 21 22  1  0
 22 23  2  0
 10 24  1  0
  6 25  1  0
 25 26  2  0
 26 27  1  0
 27 28  1  0
 26  3  1  0
 24  7  1  0
 22 12  1  0
  1 29  1  0
  1 30  1  0
  1 31  1  0
  4 32  1  0
  5 33  1  0
 11 34  1  0
 11 35  1  0
 15 36  1  0
 15 37  1  0
 20 38  1  0
 20 39  1  0
 20 40  1  0
 21 41  1  0
 25 42  1  0
 28 43  1  0
 28 44  1  0
 28 45  1  0
M  CHG  1  18  -1
M  END
>  <UniqueID>  (29) 
29

>  <SMILES>  (29) 
COc1ccc(-c2nnc(Cn3nc(CC(=O)[O-])c(C)cc3=O)o2)cc1OC

>  <Energy>  (29) 
84.21640449215049

>  <Genealogy>  (29) 
COc1ccc(-c2nnc(Cn3nc(CC(=O)[O-])c(C)cc3=O)o2)cc1OC (protonated)
COc1ccc(-c2nnc(Cn3nc(CC(=O)[O-])c(C)cc3=O)o2)cc1OC (3D coordinates assigned)
COc1ccc(-c2nnc(Cn3nc(CC(=O)[O-])c(C)cc3=O)o2)cc1OC (optimized conformer: 84.21640449215049 kcal/mol)

>  <smiles>  (29) 
COc1ccc(-c2nnc(Cn3nc(CC(=O)O)c(C)cc3=O)o2)cc1OC

>  <score_type>  (29) 
oracle

>  <origin>  (29) 
adgpu

>  <m_score__min__energy>  (29) 
-10.279999999999999

>  <m_primary>  (29) 
energy

$$$$
29:0
     RDKit          3D

 64 67  0  0  0  0  0  0  0  0999 V2000
   -9.7975   20.8714  -32.8002 H   0  0  0  0  0  0  0  0  0  0  0  0
   -8.7750   20.6360  -32.4700 C   0  0  0  0  0  0  0  0  0  0  0  0
   -7.9590   21.6470  -31.9570 C   0  0  0  0  0  0  0  0  0  0  0  0
   -8.3414   22.6764  -31.8935 H   0  0  0  0  0  0  0  0  0  0  0  0
   -6.6500   21.3600  -31.5200 C   0  0  0  0  0  0  0  0  0  0  0  0
   -5.7540   22.4190  -30.9780 C   0  0  0  0  0  0  0  0  0  0  0  0
   -4.9030   22.1170  -29.9580 N   0  0  0  0  0  0  0  0  0  0  0  0
   -4.0820   23.0250  -29.4270 N   0  0  0  0  0  0  0  0  0  0  0  0
   -4.0450   24.3070  -29.8820 C   0  0  0  0  0  0  0  0  0  0  0  0
   -3.2620   25.1980  -29.3460 N   0  0  0  0  0  0  0  0  0  0  0  0
   -2.2930   24.9870  -28.3020 C   0  0  0  0  0  0  0  0  0  0  0  0
   -0.9130   24.9750  -28.5730 C   0  0  0  0  0  0  0  0  0  0  0  0
   -0.5590   25.1133  -29.6052 H   0  0  0  0  0  0  0  0  0  0  0  0
    0.0120   24.7890  -27.5430 C   0  0  0  0  0  0  0  0  0  0  0  0
    1.0869   24.7613  -27.7748 H   0  0  0  0  0  0  0  0  0  0  0  0
   -0.4170   24.6370  -26.2140 C   0  0  0  0  0  0  0  0  0  0  0  0
    0.5380   24.4420  -25.1440 N   0  0  0  0  0  0  0  0  0  0  0  0
    1.2810   25.5880  -24.5930 C   0  0  0  0  0  0  0  0  0  0  0  0
    1.7625   26.1346  -25.4172 H   0  0  0  0  0  0  0  0  0  0  0  0
    2.0366   25.2103  -23.8884 H   0  0  0  0  0  0  0  0  0  0  0  0
    0.3470   26.5350  -23.8440 C   0  0  0  0  0  0  0  0  0  0  0  0
    0.4800   26.4002  -22.7604 H   0  0  0  0  0  0  0  0  0  0  0  0
    0.5834   27.5743  -24.1159 H   0  0  0  0  0  0  0  0  0  0  0  0
   -0.6955   26.3129  -24.1159 H   0  0  0  0  0  0  0  0  0  0  0  0
    0.7780   23.1030  -24.5760 C   0  0  0  0  0  0  0  0  0  0  0  0
    0.9261   22.3850  -25.3961 H   0  0  0  0  0  0  0  0  0  0  0  0
    1.6729   23.1469  -23.9379 H   0  0  0  0  0  0  0  0  0  0  0  0
   -0.4080   22.6520  -23.7240 C   0  0  0  0  0  0  0  0  0  0  0  0
   -0.1521   22.7493  -22.6586 H   0  0  0  0  0  0  0  0  0  0  0  0
   -1.2820   23.2806  -23.9501 H   0  0  0  0  0  0  0  0  0  0  0  0
   -0.6435   21.6016  -23.9501 H   0  0  0  0  0  0  0  0  0  0  0  0
   -1.7950   24.6860  -25.9380 C   0  0  0  0  0  0  0  0  0  0  0  0
   -2.1438   24.5795  -24.9002 H   0  0  0  0  0  0  0  0  0  0  0  0
   -2.7330   24.8690  -26.9680 C   0  0  0  0  0  0  0  0  0  0  0  0
   -4.2010   24.9210  -26.6440 C   0  0  0  0  0  0  0  0  0  0  0  0
   -4.3356   24.9258  -25.5523 H   0  0  0  0  0  0  0  0  0  0  0  0
   -4.6387   25.8352  -27.0714 H   0  0  0  0  0  0  0  0  0  0  0  0
   -4.7023   24.0400  -27.0714 H   0  0  0  0  0  0  0  0  0  0  0  0
   -4.9070   24.6820  -30.9120 C   0  0  0  0  0  0  0  0  0  0  0  0
   -4.9069   25.7167  -31.2855 H   0  0  0  0  0  0  0  0  0  0  0  0
   -5.7690   23.7360  -31.4650 C   0  0  0  0  0  0  0  0  0  0  0  0
   -6.4555   24.0191  -32.2765 H   0  0  0  0  0  0  0  0  0  0  0  0
   -6.1780   20.0370  -31.6290 C   0  0  0  0  0  0  0  0  0  0  0  0
   -5.1542   19.7968  -31.3063 H   0  0  0  0  0  0  0  0  0  0  0  0
   -6.9980   19.0230  -32.1440 C   0  0  0  0  0  0  0  0  0  0  0  0
   -6.3700   17.3830  -32.2980 S   0  0  0  0  0  0  0  0  0  0  0  0
   -6.3500   16.7430  -30.9370 O   0  0  0  0  0  0  0  0  0  0  0  0
   -7.2670   16.5740  -33.1950 O   0  0  0  0  0  0  0  0  0  0  0  0
   -4.7510   17.4300  -32.9490 N   0  0  0  0  0  0  0  0  0  0  0  0
   -4.6130   18.5600  -33.8810 C   0  0  0  0  0  0  0  0  0  0  0  0
   -5.3773   18.4763  -34.6676 H   0  0  0  0  0  0  0  0  0  0  0  0
   -4.7445   19.4995  -33.3242 H   0  0  0  0  0  0  0  0  0  0  0  0
   -3.2130   18.5550  -34.5300 C   0  0  0  0  0  0  0  0  0  0  0  0
   -3.3279   18.4964  -35.6224 H   0  0  0  0  0  0  0  0  0  0  0  0
   -2.6974   19.4804  -34.2338 H   0  0  0  0  0  0  0  0  0  0  0  0
   -2.4310   17.4590  -34.0930 O   0  0  0  0  0  0  0  0  0  0  0  0
   -3.1050   16.2500  -34.3840 C   0  0  0  0  0  0  0  0  0  0  0  0
   -3.2940   16.1972  -35.4664 H   0  0  0  0  0  0  0  0  0  0  0  0
   -2.4708   15.4128  -34.0571 H   0  0  0  0  0  0  0  0  0  0  0  0
   -4.4500   16.1610  -33.6350 C   0  0  0  0  0  0  0  0  0  0  0  0
   -5.2509   15.9421  -34.3565 H   0  0  0  0  0  0  0  0  0  0  0  0
   -4.3831   15.3607  -32.8833 H   0  0  0  0  0  0  0  0  0  0  0  0
   -8.2970   19.3280  -32.5650 C   0  0  0  0  0  0  0  0  0  0  0  0
   -8.9427   18.5356  -32.9715 H   0  0  0  0  0  0  0  0  0  0  0  0
  1  2  1  0
  2  3  2  0
  3  4  1  0
  3  5  1  0
  5  6  1  0
  6  7  2  0
  7  8  1  0
  8  9  1  0
  9 10  2  0
 10 11  1  0
 11 12  2  0
 12 13  1  0
 12 14  1  0
 14 15  1  0
 14 16  2  0
 16 17  1  0
 17 18  1  0
 18 19  1  0
 18 20  1  0
 18 21  1  0
 21 22  1  0
 21 23  1  0
 21 24  1  0
 17 25  1  0
 25 26  1  0
 25 27  1  0
 25 28  1  0
 28 29  1  0
 28 30  1  0
 28 31  1  0
 16 32  1  0
 32 33  1  0
 32 34  2  0
 34 35  1  0
 35 36  1  0
 35 37  1  0
 35 38  1  0
  9 39  1  0
 39 40  1  0
 39 41  2  0
 41 42  1  0
  5 43  2  0
 43 44  1  0
 43 45  1  0
 45 46  1  0
 46 47  2  0
 46 48  2  0
 46 49  1  0
 49 50  1  0
 50 51  1  0
 50 52  1  0
 50 53  1  0
 53 54  1  0
 53 55  1  0
 53 56  1  0
 56 57  1  0
 57 58  1  0
 57 59  1  0
 57 60  1  0
 60 61  1  0
 60 62  1  0
 45 63  2  0
 63 64  1  0
 63  2  1  0
 41  6  1  0
 60 49  1  0
 34 11  1  0
M  CHG  1   8  -1
M  END
>  <UniqueID>  (30) 
30

>  <SMILES>  (30) 
CCN(CC)c1ccc(/N=c2/ccc(-c3cccc(S(=O)(=O)N4CCOCC4)c3)n[n-]2)c(C)c1

>  <Energy>  (30) 
83.15344736038983

>  <Genealogy>  (30) 
CCN(CC)c1ccc(N=c2ccc(-c3cccc(S(=O)(=O)N4CCOCC4)c3)n[n-]2)c(C)c1 (protonated)
CCN(CC)c1ccc(/N=c2/ccc(-c3cccc(S(=O)(=O)N4CCOCC4)c3)n[n-]2)c(C)c1 (cis-trans isomerization)
CCN(CC)c1ccc(/N=c2/ccc(-c3cccc(S(=O)(=O)N4CCOCC4)c3)n[n-]2)c(C)c1 (3D coordinates assigned)
CCN(CC)c1ccc(/N=c2/ccc(-c3cccc(S(=O)(=O)N4CCOCC4)c3)n[n-]2)c(C)c1 (nonaromatic ring conformer: 83.15344736038983 kcal/mol)

>  <smiles>  (30) 
CCN(CC)c1ccc(N=c2ccc(-c3cccc(S(=O)(=O)N4CCOCC4)c3)n[nH]2)c(C)c1

>  <score_type>  (30) 
oracle

>  <origin>  (30) 
adgpu

>  <m_score__min__energy>  (30) 
-10.6

>  <m_primary>  (30) 
energy

$$$$
30:0
     RDKit          3D

 38 39  0  0  0  0  0  0  0  0999 V2000
   -9.7880   20.8780  -32.0220 C   0  0  0  0  0  0  0  0  0  0  0  0
   -8.3210   20.8160  -31.9760 N   0  0  0  0  0  0  0  0  0  0  0  0
   -7.6510   19.5740  -32.3880 C   0  0  0  0  0  0  0  0  0  0  0  0
   -7.5450   21.9630  -31.5360 C   0  0  0  0  0  0  0  0  0  0  0  0
   -7.4490   22.2920  -30.1670 C   0  0  0  0  0  0  0  0  0  0  0  0
   -6.7030   23.3980  -29.7460 C   0  0  0  0  0  0  0  0  0  0  0  0
   -6.0260   24.1940  -30.6790 C   0  0  0  0  0  0  0  0  0  0  0  0
   -5.2620   25.4050  -30.2270 C   0  0  0  0  0  0  0  0  0  0  0  0
   -3.8810   25.2970  -30.6850 N   0  0  0  0  0  0  0  0  0  0  0  0
   -3.0310   24.1200  -29.7310 S   0  0  0  0  0  0  0  0  0  0  0  0
   -1.7270   24.7000  -29.2570 O   0  0  0  0  0  0  0  0  0  0  0  0
   -3.8660   23.7510  -28.5380 O   0  0  0  0  0  0  0  0  0  0  0  0
   -2.7270   22.6780  -30.6840 C   0  0  0  0  0  0  0  0  0  0  0  0
   -1.5590   21.9450  -30.7180 C   0  0  0  0  0  0  0  0  0  0  0  0
   -1.7030   20.9530  -31.5670 O   0  0  0  0  0  0  0  0  0  0  0  0
   -2.9120   21.0100  -32.0880 C   0  0  0  0  0  0  0  0  0  0  0  0
   -3.4240   20.0610  -33.0850 C   0  0  0  0  0  0  0  0  0  0  0  0
   -2.5720   19.0490  -33.6260 N   0  0  0  0  0  0  0  0  0  0  0  0
   -4.6220   20.1370  -33.4710 O   0  0  0  0  0  0  0  0  0  0  0  0
   -3.6060   22.0860  -31.5640 C   0  0  0  0  0  0  0  0  0  0  0  0
   -6.1280   23.8870  -32.0420 C   0  0  0  0  0  0  0  0  0  0  0  0
   -6.8720   22.7830  -32.4670 C   0  0  0  0  0  0  0  0  0  0  0  0
  -10.1866   20.8948  -30.9969 H   0  0  0  0  0  0  0  0  0  0  0  0
  -10.1000   21.7901  -32.5518 H   0  0  0  0  0  0  0  0  0  0  0  0
  -10.1759   19.9954  -32.5518 H   0  0  0  0  0  0  0  0  0  0  0  0
   -7.3459   19.0084  -31.4952 H   0  0  0  0  0  0  0  0  0  0  0  0
   -8.3434   18.9657  -32.9885 H   0  0  0  0  0  0  0  0  0  0  0  0
   -6.7624   19.8185  -32.9885 H   0  0  0  0  0  0  0  0  0  0  0  0
   -7.9673   21.6709  -29.4216 H   0  0  0  0  0  0  0  0  0  0  0  0
   -6.6476   23.6442  -28.6753 H   0  0  0  0  0  0  0  0  0  0  0  0
   -5.7212   26.3099  -30.6517 H   0  0  0  0  0  0  0  0  0  0  0  0
   -5.2843   25.4686  -29.1291 H   0  0  0  0  0  0  0  0  0  0  0  0
   -0.6540   22.1568  -30.1297 H   0  0  0  0  0  0  0  0  0  0  0  0
   -2.9400   18.3780  -34.3360 H   0  0  0  0  0  0  0  0  0  0  0  0
   -1.5740   18.9720  -33.3300 H   0  0  0  0  0  0  0  0  0  0  0  0
   -4.6339   22.3998  -31.7985 H   0  0  0  0  0  0  0  0  0  0  0  0
   -5.6185   24.5199  -32.7835 H   0  0  0  0  0  0  0  0  0  0  0  0
   -6.9339   22.5502  -33.5403 H   0  0  0  0  0  0  0  0  0  0  0  0
  1  2  1  0
  2  3  1  0
  2  4  1  0
  4  5  2  0
  5  6  1  0
  6  7  2  0
  7  8  1  0
  8  9  1  0
  9 10  1  0
 10 11  2  0
 10 12  2  0
 10 13  1  0
 13 14  2  0
 14 15  1  0
 15 16  1  0
 16 17  1  0
 17 18  1  0
 17 19  2  0
 16 20  2  0
  7 21  1  0
 21 22  2  0
 22  4  1  0
 20 13  1  0
  1 23  1  0
  1 24  1  0
  1 25  1  0
  3 26  1  0
  3 27  1  0
  3 28  1  0
  5 29  1  0
  6 30  1  0
  8 31  1  0
  8 32  1  0
 14 33  1  0
 18 34  1  0
 18 35  1  0
 20 36  1  0
 21 37  1  0
 22 38  1  0
M  CHG  1   9  -1
M  END
>  <UniqueID>  (31) 
31

>  <SMILES>  (31) 
CN(C)c1ccc(C[N-]S(=O)(=O)c2coc(C(N)=O)c2)cc1

>  <Energy>  (31) 
60.98909622584528

>  <Genealogy>  (31) 
CN(C)c1ccc(C[N-]S(=O)(=O)c2coc(C(N)=O)c2)cc1 (protonated)
CN(C)c1ccc(C[N-]S(=O)(=O)c2coc(C(N)=O)c2)cc1 (3D coordinates assigned)
CN(C)c1ccc(C[N-]S(=O)(=O)c2coc(C(N)=O)c2)cc1 (optimized conformer: 60.98909622584528 kcal/mol)

>  <smiles>  (31) 
CN(C)c1ccc(CNS(=O)(=O)c2coc(C(N)=O)c2)cc1

>  <score_type>  (31) 
oracle

>  <origin>  (31) 
adgpu

>  <m_score__min__energy>  (31) 
-8.7799999999999994

>  <m_primary>  (31) 
energy

$$$$
31:0
     RDKit          3D

 37 39  0  0  0  0  0  0  0  0999 V2000
    0.8130   20.2940  -28.2320 C   0  0  0  0  0  0  0  0  0  0  0  0
   -0.6250   20.3050  -27.9780 N   0  0  0  0  0  0  0  0  0  0  0  0
   -1.3540   19.3940  -27.2860 C   0  0  0  0  0  0  0  0  0  0  0  0
   -0.8660   18.3380  -26.8000 O   0  0  0  0  0  0  0  0  0  0  0  0
   -2.6570   19.7480  -27.1520 N   0  0  0  0  0  0  0  0  0  0  0  0
   -3.7000   19.0580  -26.3970 C   0  0  0  0  0  0  0  0  0  0  0  0
   -2.7340   20.9530  -27.7530 C   0  0  0  0  0  0  0  0  0  0  0  0
   -3.8320   21.8070  -27.8550 C   0  0  0  0  0  0  0  0  0  0  0  0
   -3.6460   23.0580  -28.4920 C   0  0  0  0  0  0  0  0  0  0  0  0
   -4.7210   24.0050  -28.6190 N   0  0  0  0  0  0  0  0  0  0  0  0
   -5.2870   24.6230  -30.1400 S   0  0  0  0  0  0  0  0  0  0  0  0
   -6.3810   25.6230  -29.8950 O   0  0  0  0  0  0  0  0  0  0  0  0
   -4.1480   25.3050  -30.8460 O   0  0  0  0  0  0  0  0  0  0  0  0
   -5.9310   23.3070  -31.1200 C   0  0  0  0  0  0  0  0  0  0  0  0
   -5.0670   22.4320  -31.7930 C   0  0  0  0  0  0  0  0  0  0  0  0
   -5.5880   21.3740  -32.5450 C   0  0  0  0  0  0  0  0  0  0  0  0
   -6.9710   21.1880  -32.6300 C   0  0  0  0  0  0  0  0  0  0  0  0
   -7.4740   20.1610  -33.3590 F   0  0  0  0  0  0  0  0  0  0  0  0
   -7.8350   22.0620  -31.9630 C   0  0  0  0  0  0  0  0  0  0  0  0
   -7.3170   23.1200  -31.2100 C   0  0  0  0  0  0  0  0  0  0  0  0
   -2.3690   23.3940  -29.0110 C   0  0  0  0  0  0  0  0  0  0  0  0
   -1.2820   22.5090  -28.8880 C   0  0  0  0  0  0  0  0  0  0  0  0
   -1.5050   21.2900  -28.2510 C   0  0  0  0  0  0  0  0  0  0  0  0
    1.3544   20.2899  -27.2745 H   0  0  0  0  0  0  0  0  0  0  0  0
    1.0770   19.3938  -28.8064 H   0  0  0  0  0  0  0  0  0  0  0  0
    1.0907   21.1900  -28.8064 H   0  0  0  0  0  0  0  0  0  0  0  0
   -3.5148   19.1805  -25.3197 H   0  0  0  0  0  0  0  0  0  0  0  0
   -4.6809   19.4860  -26.6514 H   0  0  0  0  0  0  0  0  0  0  0  0
   -3.6898   17.9879  -26.6514 H   0  0  0  0  0  0  0  0  0  0  0  0
   -4.8138   21.5172  -27.4524 H   0  0  0  0  0  0  0  0  0  0  0  0
   -5.2580   24.2810  -27.7680 H   0  0  0  0  0  0  0  0  0  0  0  0
   -3.9785   22.5776  -31.7296 H   0  0  0  0  0  0  0  0  0  0  0  0
   -4.9083   20.6870  -33.0705 H   0  0  0  0  0  0  0  0  0  0  0  0
   -8.9233   21.9170  -32.0308 H   0  0  0  0  0  0  0  0  0  0  0  0
   -7.9987   23.8070  -30.6872 H   0  0  0  0  0  0  0  0  0  0  0  0
   -2.2266   24.3603  -29.5169 H   0  0  0  0  0  0  0  0  0  0  0  0
   -0.2888   22.7709  -29.2818 H   0  0  0  0  0  0  0  0  0  0  0  0
  1  2  1  0
  2  3  1  0
  3  4  2  0
  3  5  1  0
  5  6  1  0
  5  7  1  0
  7  8  2  0
  8  9  1  0
  9 10  1  0
 10 11  1  0
 11 12  2  0
 11 13  2  0
 11 14  1  0
 14 15  2  0
 15 16  1  0
 16 17  2  0
 17 18  1  0
 17 19  1  0
 19 20  2  0
  9 21  2  0
 21 22  1  0
 22 23  2  0
 23  2  1  0
 23  7  1  0
 20 14  1  0
  1 24  1  0
  1 25  1  0
  1 26  1  0
  6 27  1  0
  6 28  1  0
  6 29  1  0
  8 30  1  0
 10 31  1  0
 15 32  1  0
 16 33  1  0
 19 34  1  0
 20 35  1  0
 21 36  1  0
 22 37  1  0
M  END
>  <UniqueID>  (32) 
32

>  <SMILES>  (32) 
Cn1c(=O)n(C)c2cc(NS(=O)(=O)c3ccc(F)cc3)ccc21

>  <Energy>  (32) 
81.8059271207893

>  <Genealogy>  (32) 
Cn1c(=O)n(C)c2cc(NS(=O)(=O)c3ccc(F)cc3)ccc21 (3D coordinates assigned)
Cn1c(=O)n(C)c2cc(NS(=O)(=O)c3ccc(F)cc3)ccc21 (optimized conformer: 81.8059271207893 kcal/mol)

>  <smiles>  (32) 
Cn1c(=O)n(C)c2cc(NS(=O)(=O)c3ccc(F)cc3)ccc21

>  <score_type>  (32) 
oracle

>  <origin>  (32) 
adgpu

>  <m_score__min__energy>  (32) 
-8.3599999999999994

>  <m_primary>  (32) 
energy

$$$$
32:0
     RDKit          3D

 43 45  0  0  0  0  0  0  0  0999 V2000
   -0.7020   26.5440  -26.9910 C   0  0  0  0  0  0  0  0  0  0  0  0
   -0.7230   25.9380  -28.2790 O   0  0  0  0  0  0  0  0  0  0  0  0
   -1.2120   24.6630  -28.6210 C   0  0  0  0  0  0  0  0  0  0  0  0
   -2.4230   24.6310  -29.2360 N   0  0  0  0  0  0  0  0  0  0  0  0
   -3.0350   23.4840  -29.6300 C   0  0  0  0  0  0  0  0  0  0  0  0
   -4.3620   23.5580  -30.2820 C   0  0  0  0  0  0  0  0  0  0  0  0
   -5.1000   22.3750  -30.4690 C   0  0  0  0  0  0  0  0  0  0  0  0
   -6.3530   22.4080  -31.0870 C   0  0  0  0  0  0  0  0  0  0  0  0
   -6.8880   23.6230  -31.5170 C   0  0  0  0  0  0  0  0  0  0  0  0
   -6.1770   24.8080  -31.3220 C   0  0  0  0  0  0  0  0  0  0  0  0
   -4.9210   24.7870  -30.6970 C   0  0  0  0  0  0  0  0  0  0  0  0
   -4.2460   25.9870  -30.4660 O   0  0  0  0  0  0  0  0  0  0  0  0
   -2.4190   22.2580  -29.3670 C   0  0  0  0  0  0  0  0  0  0  0  0
   -1.1690   22.2220  -28.7370 C   0  0  0  0  0  0  0  0  0  0  0  0
   -0.5510   20.8970  -28.4750 C   0  0  0  0  0  0  0  0  0  0  0  0
   -1.0440   20.0670  -27.4550 C   0  0  0  0  0  0  0  0  0  0  0  0
   -0.4690   18.8150  -27.2230 C   0  0  0  0  0  0  0  0  0  0  0  0
    0.6040   18.3760  -28.0090 C   0  0  0  0  0  0  0  0  0  0  0  0
    1.3160   16.7900  -27.7280 S   0  0  0  0  0  0  0  0  0  0  0  0
    1.8380   16.0940  -29.2780 C   0  0  0  0  0  0  0  0  0  0  0  0
    0.3050   15.8850  -27.0840 O   0  0  0  0  0  0  0  0  0  0  0  0
    2.5000   16.9200  -26.8120 O   0  0  0  0  0  0  0  0  0  0  0  0
    1.0860   19.1910  -29.0400 C   0  0  0  0  0  0  0  0  0  0  0  0
    0.5120   20.4450  -29.2740 C   0  0  0  0  0  0  0  0  0  0  0  0
   -0.5360   23.4350  -28.3720 C   0  0  0  0  0  0  0  0  0  0  0  0
    0.8010   23.3880  -27.8210 C   0  0  0  0  0  0  0  0  0  0  0  0
    1.8700   23.3360  -27.3820 N   0  0  0  0  0  0  0  0  0  0  0  0
   -0.7291   25.7623  -26.2175 H   0  0  0  0  0  0  0  0  0  0  0  0
    0.2173   27.1379  -26.8801 H   0  0  0  0  0  0  0  0  0  0  0  0
   -1.5779   27.2001  -26.8801 H   0  0  0  0  0  0  0  0  0  0  0  0
   -4.6869   21.4151  -30.1256 H   0  0  0  0  0  0  0  0  0  0  0  0
   -6.9179   21.4757  -31.2346 H   0  0  0  0  0  0  0  0  0  0  0  0
   -7.8710   23.6468  -32.0101 H   0  0  0  0  0  0  0  0  0  0  0  0
   -6.6037   25.7638  -31.6602 H   0  0  0  0  0  0  0  0  0  0  0  0
   -3.5000   26.0550  -29.7840 H   0  0  0  0  0  0  0  0  0  0  0  0
   -2.9164   21.3201  -29.6551 H   0  0  0  0  0  0  0  0  0  0  0  0
   -1.8877   20.4046  -26.8352 H   0  0  0  0  0  0  0  0  0  0  0  0
   -0.8601   18.1721  -26.4207 H   0  0  0  0  0  0  0  0  0  0  0  0
    2.4883   15.2269  -29.0901 H   0  0  0  0  0  0  0  0  0  0  0  0
    0.9559   15.7733  -29.8516 H   0  0  0  0  0  0  0  0  0  0  0  0
    2.3929   16.8511  -29.8516 H   0  0  0  0  0  0  0  0  0  0  0  0
    1.9193   18.8440  -29.6686 H   0  0  0  0  0  0  0  0  0  0  0  0
    0.8946   21.0796  -30.0869 H   0  0  0  0  0  0  0  0  0  0  0  0
  1  2  1  0
  2  3  1  0
  3  4  2  0
  4  5  1  0
  5  6  1  0
  6  7  2  0
  7  8  1  0
  8  9  2  0
  9 10  1  0
 10 11  2  0
 11 12  1  0
  5 13  2  0
 13 14  1  0
 14 15  1  0
 15 16  2  0
 16 17  1  0
 17 18  2  0
 18 19  1  0
 19 20  1  0
 19 21  2  0
 19 22  2  0
 18 23  1  0
 23 24  2  0
 14 25  2  0
 25 26  1  0
 26 27  3  0
 25  3  1  0
 11  6  1  0
 24 15  1  0
  1 28  1  0
  1 29  1  0
  1 30  1  0
  7 31  1  0
  8 32  1  0
  9 33  1  0
 10 34  1  0
 12 35  1  0
 13 36  1  0
 16 37  1  0
 17 38  1  0
 20 39  1  0
 20 40  1  0
 20 41  1  0
 23 42  1  0
 24 43  1  0
M  END
>  <UniqueID>  (33) 
33

>  <SMILES>  (33) 
COc1nc(-c2ccccc2O)cc(-c2ccc(S(C)(=O)=O)cc2)c1C#N

>  <Energy>  (33) 
61.148632796076086

>  <Genealogy>  (33) 
COc1nc(-c2ccccc2O)cc(-c2ccc(S(C)(=O)=O)cc2)c1C#N (3D coordinates assigned)
COc1nc(-c2ccccc2O)cc(-c2ccc(S(C)(=O)=O)cc2)c1C#N (optimized conformer: 61.148632796076086 kcal/mol)

>  <smiles>  (33) 
COc1nc(-c2ccccc2O)cc(-c2ccc(S(C)(=O)=O)cc2)c1C#N

>  <score_type>  (33) 
oracle

>  <origin>  (33) 
adgpu

>  <m_score__min__energy>  (33) 
-9.2899999999999991

>  <m_primary>  (33) 
energy

$$$$
33:0
     RDKit          3D

 56 59  0  0  0  0  0  0  0  0999 V2000
   -5.6350   26.5420  -30.4390 O   0  0  0  0  0  0  0  0  0  0  0  0
   -5.1310   25.3910  -30.5390 C   0  0  0  0  0  0  0  0  0  0  0  0
   -3.7110   25.2550  -30.3910 N   0  0  0  0  0  0  0  0  0  0  0  0
   -3.0050   24.1860  -29.7430 C   0  0  0  0  0  0  0  0  0  0  0  0
   -2.8440   24.2320  -28.3530 C   0  0  0  0  0  0  0  0  0  0  0  0
   -2.1650   23.2080  -27.6860 C   0  0  0  0  0  0  0  0  0  0  0  0
   -1.6470   22.1270  -28.4030 C   0  0  0  0  0  0  0  0  0  0  0  0
   -1.8250   22.0550  -29.7910 C   0  0  0  0  0  0  0  0  0  0  0  0
   -1.1370   20.7230  -30.7130 S   0  0  0  0  0  0  0  0  0  0  0  0
   -0.2100   21.3090  -31.7390 O   0  0  0  0  0  0  0  0  0  0  0  0
   -0.3500   19.8240  -29.8020 O   0  0  0  0  0  0  0  0  0  0  0  0
   -2.4060   19.8170  -31.5140 N   0  0  0  0  0  0  0  0  0  0  0  0
   -3.7370   20.4330  -31.3210 C   0  0  0  0  0  0  0  0  0  0  0  0
   -4.1910   21.2650  -32.5330 C   0  0  0  0  0  0  0  0  0  0  0  0
   -3.0790   21.8470  -33.1710 O   0  0  0  0  0  0  0  0  0  0  0  0
   -2.3010   20.8470  -33.8030 C   0  0  0  0  0  0  0  0  0  0  0  0
   -2.0960   19.5810  -32.9370 C   0  0  0  0  0  0  0  0  0  0  0  0
   -2.5150   23.0780  -30.4560 C   0  0  0  0  0  0  0  0  0  0  0  0
   -6.0140   24.2420  -30.8560 C   0  0  0  0  0  0  0  0  0  0  0  0
   -6.4400   23.3820  -29.8300 C   0  0  0  0  0  0  0  0  0  0  0  0
   -7.2760   22.2990  -30.1150 C   0  0  0  0  0  0  0  0  0  0  0  0
   -7.6970   22.0560  -31.4290 C   0  0  0  0  0  0  0  0  0  0  0  0
   -8.7810   20.7060  -31.7790 S   0  0  0  0  0  0  0  0  0  0  0  0
   -9.1130   20.0010  -30.4940 O   0  0  0  0  0  0  0  0  0  0  0  0
  -10.0610   21.2440  -32.3570 O   0  0  0  0  0  0  0  0  0  0  0  0
   -8.0970   19.5510  -32.8980 N   0  0  0  0  0  0  0  0  0  0  0  0
   -7.7490   18.2870  -32.2500 C   0  0  0  0  0  0  0  0  0  0  0  0
   -6.6310   17.6690  -33.0810 C   0  0  0  0  0  0  0  0  0  0  0  0
   -6.1140   18.7950  -33.9650 C   0  0  0  0  0  0  0  0  0  0  0  0
   -6.8570   20.0340  -33.4980 C   0  0  0  0  0  0  0  0  0  0  0  0
   -7.2910   22.9220  -32.4530 C   0  0  0  0  0  0  0  0  0  0  0  0
   -6.4620   24.0120  -32.1680 C   0  0  0  0  0  0  0  0  0  0  0  0
   -3.2540   25.0785  -27.7826 H   0  0  0  0  0  0  0  0  0  0  0  0
   -2.0384   23.2537  -26.5943 H   0  0  0  0  0  0  0  0  0  0  0  0
   -1.0987   21.3313  -27.8774 H   0  0  0  0  0  0  0  0  0  0  0  0
   -4.4725   19.6335  -31.1483 H   0  0  0  0  0  0  0  0  0  0  0  0
   -3.6647   21.1142  -30.4603 H   0  0  0  0  0  0  0  0  0  0  0  0
   -4.7169   20.6118  -33.2449 H   0  0  0  0  0  0  0  0  0  0  0  0
   -4.8632   22.0639  -32.1867 H   0  0  0  0  0  0  0  0  0  0  0  0
   -2.8045   20.5525  -34.7356 H   0  0  0  0  0  0  0  0  0  0  0  0
   -1.3055   21.2790  -33.9830 H   0  0  0  0  0  0  0  0  0  0  0  0
   -2.7539   18.7844  -33.3145 H   0  0  0  0  0  0  0  0  0  0  0  0
   -1.0361   19.2950  -33.0065 H   0  0  0  0  0  0  0  0  0  0  0  0
   -2.6740   23.0134  -31.5425 H   0  0  0  0  0  0  0  0  0  0  0  0
   -6.1133   23.5623  -28.7952 H   0  0  0  0  0  0  0  0  0  0  0  0
   -7.6053   21.6337  -29.3032 H   0  0  0  0  0  0  0  0  0  0  0  0
   -7.4023   18.4696  -31.2222 H   0  0  0  0  0  0  0  0  0  0  0  0
   -8.6191   17.6166  -32.1921 H   0  0  0  0  0  0  0  0  0  0  0  0
   -5.8292   17.2931  -32.4284 H   0  0  0  0  0  0  0  0  0  0  0  0
   -6.9873   16.8141  -33.6744 H   0  0  0  0  0  0  0  0  0  0  0  0
   -5.0293   18.9224  -33.8340 H   0  0  0  0  0  0  0  0  0  0  0  0
   -6.2805   18.5914  -35.0331 H   0  0  0  0  0  0  0  0  0  0  0  0
   -6.2594   20.5816  -32.7543 H   0  0  0  0  0  0  0  0  0  0  0  0
   -7.0525   20.7267  -34.3298 H   0  0  0  0  0  0  0  0  0  0  0  0
   -7.6257   22.7439  -33.4856 H   0  0  0  0  0  0  0  0  0  0  0  0
   -6.1587   24.6937  -32.9762 H   0  0  0  0  0  0  0  0  0  0  0  0
  1  2  2  0
  2  3  1  0
  3  4  1  0
  4  5  2  0
  5  6  1  0
  6  7  2  0
  7  8  1  0
  8  9  1  0
  9 10  2  0
  9 11  2  0
  9 12  1  0
 12 13  1  0
 13 14  1  0
 14 15  1  0
 15 16  1  0
 16 17  1  0
  8 18  2  0
  2 19  1  0
 19 20  2  0
 20 21  1  0
 21 22  2  0
 22 23  1  0
 23 24  2  0
 23 25  2  0
 23 26  1  0
 26 27  1  0
 27 28  1  0
 28 29  1  0
 29 30  1  0
 22 31  1  0
 31 32  2  0
 18  4  1  0
 32 19  1  0
 17 12  1  0
 30 26  1  0
  5 33  1  0
  6 34  1  0
  7 35  1  0
 13 36  1  0
 13 37  1  0
 14 38  1  0
 14 39  1  0
 16 40  1  0
 16 41  1  0
 17 42  1  0
 17 43  1  0
 18 44  1  0
 20 45  1  0
 21 46  1  0
 27 47  1  0
 27 48  1  0
 28 49  1  0
 28 50  1  0
 29 51  1  0
 29 52  1  0
 30 53  1  0
 30 54  1  0
 31 55  1  0
 32 56  1  0
M  CHG  1   3  -1
M  END
>  <UniqueID>  (34) 
34

>  <SMILES>  (34) 
O=C([N-]c1cccc(S(=O)(=O)N2CCOCC2)c1)c1ccc(S(=O)(=O)N2CCCC2)cc1

>  <Energy>  (34) 
74.18389904521504

>  <Genealogy>  (34) 
O=C([N-]c1cccc(S(=O)(=O)N2CCOCC2)c1)c1ccc(S(=O)(=O)N2CCCC2)cc1 (protonated)
O=C([N-]c1cccc(S(=O)(=O)N2CCOCC2)c1)c1ccc(S(=O)(=O)N2CCCC2)cc1 (3D coordinates assigned)
O=C([N-]c1cccc(S(=O)(=O)N2CCOCC2)c1)c1ccc(S(=O)(=O)N2CCCC2)cc1 (nonaromatic ring conformer: 74.18389904521504 kcal/mol)

>  <smiles>  (34) 
O=C(Nc1cccc(S(=O)(=O)N2CCOCC2)c1)c1ccc(S(=O)(=O)N2CCCC2)cc1

>  <score_type>  (34) 
oracle

>  <origin>  (34) 
adgpu

>  <m_score__min__energy>  (34) 
-12.890000000000001

>  <m_primary>  (34) 
energy

$$$$
34:0
     RDKit          3D

 42 44  0  0  0  0  0  0  0  0999 V2000
   -5.7230   26.0340  -30.0980 C   0  0  0  0  0  0  0  0  0  0  0  0
   -4.8380   25.2170  -30.8590 O   0  0  0  0  0  0  0  0  0  0  0  0
   -5.1110   23.8940  -31.2380 C   0  0  0  0  0  0  0  0  0  0  0  0
   -4.1140   22.9030  -31.2930 C   0  0  0  0  0  0  0  0  0  0  0  0
   -4.4370   21.5990  -31.6790 C   0  0  0  0  0  0  0  0  0  0  0  0
   -5.7600   21.2580  -32.0150 C   0  0  0  0  0  0  0  0  0  0  0  0
   -6.1040   19.8720  -32.4240 C   0  0  0  0  0  0  0  0  0  0  0  0
   -7.4260   19.4000  -32.3070 C   0  0  0  0  0  0  0  0  0  0  0  0
   -7.7530   18.0960  -32.6910 C   0  0  0  0  0  0  0  0  0  0  0  0
   -6.7640   17.2480  -33.1950 C   0  0  0  0  0  0  0  0  0  0  0  0
   -7.0630   15.9790  -33.5680 N   0  0  0  0  0  0  0  0  0  0  0  0
   -6.1190   15.1270  -34.0580 C   0  0  0  0  0  0  0  0  0  0  0  0
   -6.5090   13.7860  -34.4300 N   0  0  0  0  0  0  0  0  0  0  0  0
   -5.8500   12.6050  -33.8610 C   0  0  0  0  0  0  0  0  0  0  0  0
   -7.6690   13.6070  -35.3090 C   0  0  0  0  0  0  0  0  0  0  0  0
   -4.7930   15.5990  -34.1990 C   0  0  0  0  0  0  0  0  0  0  0  0
   -3.7940   14.7850  -34.7430 O   0  0  0  0  0  0  0  0  0  0  0  0
   -2.6920   14.3000  -33.9850 C   0  0  0  0  0  0  0  0  0  0  0  0
   -4.4960   16.8730  -33.8170 N   0  0  0  0  0  0  0  0  0  0  0  0
   -5.4420   17.7060  -33.3160 C   0  0  0  0  0  0  0  0  0  0  0  0
   -5.1120   19.0110  -32.9320 C   0  0  0  0  0  0  0  0  0  0  0  0
   -6.7520   22.2520  -31.9570 C   0  0  0  0  0  0  0  0  0  0  0  0
   -6.4270   23.5570  -31.5720 C   0  0  0  0  0  0  0  0  0  0  0  0
   -5.5437   25.8685  -29.0254 H   0  0  0  0  0  0  0  0  0  0  0  0
   -5.5451   27.0921  -30.3405 H   0  0  0  0  0  0  0  0  0  0  0  0
   -6.7635   25.7722  -30.3405 H   0  0  0  0  0  0  0  0  0  0  0  0
   -3.0759   23.1554  -31.0311 H   0  0  0  0  0  0  0  0  0  0  0  0
   -3.6494   20.8322  -31.7205 H   0  0  0  0  0  0  0  0  0  0  0  0
   -8.2083   20.0635  -31.9098 H   0  0  0  0  0  0  0  0  0  0  0  0
   -8.7888   17.7380  -32.5963 H   0  0  0  0  0  0  0  0  0  0  0  0
   -5.8813   12.6611  -32.7629 H   0  0  0  0  0  0  0  0  0  0  0  0
   -6.3716   11.6966  -34.1968 H   0  0  0  0  0  0  0  0  0  0  0  0
   -4.8030   12.5719  -34.1968 H   0  0  0  0  0  0  0  0  0  0  0  0
   -8.5734   13.4674  -34.6987 H   0  0  0  0  0  0  0  0  0  0  0  0
   -7.7888   14.4973  -35.9438 H   0  0  0  0  0  0  0  0  0  0  0  0
   -7.5149   12.7220  -35.9438 H   0  0  0  0  0  0  0  0  0  0  0  0
   -2.9137   14.3976  -32.9120 H   0  0  0  0  0  0  0  0  0  0  0  0
   -2.5169   13.2417  -34.2285 H   0  0  0  0  0  0  0  0  0  0  0  0
   -1.7933   14.8858  -34.2285 H   0  0  0  0  0  0  0  0  0  0  0  0
   -4.0749   19.3650  -33.0273 H   0  0  0  0  0  0  0  0  0  0  0  0
   -7.7914   22.0020  -32.2162 H   0  0  0  0  0  0  0  0  0  0  0  0
   -7.2133   24.3251  -31.5315 H   0  0  0  0  0  0  0  0  0  0  0  0
  1  2  1  0
  2  3  1  0
  3  4  2  0
  4  5  1  0
  5  6  2  0
  6  7  1  0
  7  8  2  0
  8  9  1  0
  9 10  2  0
 10 11  1  0
 11 12  2  0
 12 13  1  0
 13 14  1  0
 13 15  1  0
 12 16  1  0
 16 17  1  0
 17 18  1  0
 16 19  2  0
 19 20  1  0
 20 21  2  0
  6 22  1  0
 22 23  2  0
 23  3  1  0
 21  7  1  0
 20 10  1  0
  1 24  1  0
  1 25  1  0
  1 26  1  0
  4 27  1  0
  5 28  1  0
  8 29  1  0
  9 30  1  0
 14 31  1  0
 14 32  1  0
 14 33  1  0
 15 34  1  0
 15 35  1  0
 15 36  1  0
 18 37  1  0
 18 38  1  0
 18 39  1  0
 21 40  1  0
 22 41  1  0
 23 42  1  0
M  END
>  <UniqueID>  (35) 
35

>  <SMILES>  (35) 
COc1ccc(-c2ccc3nc(N(C)C)c(OC)nc3c2)cc1

>  <Energy>  (35) 
52.158502659346375

>  <Genealogy>  (35) 
COc1ccc(-c2ccc3nc(N(C)C)c(OC)nc3c2)cc1 (3D coordinates assigned)
COc1ccc(-c2ccc3nc(N(C)C)c(OC)nc3c2)cc1 (optimized conformer: 52.158502659346375 kcal/mol)

>  <smiles>  (35) 
COc1ccc(-c2ccc3nc(N(C)C)c(OC)nc3c2)cc1

>  <score_type>  (35) 
oracle

>  <origin>  (35) 
adgpu

>  <m_score__min__energy>  (35) 
-6.7800000000000002

>  <m_primary>  (35) 
energy

$$$$
35:0
     RDKit          3D

 62 65  0  0  0  0  0  0  0  0999 V2000
   -5.7480   26.4360  -30.4320 O   0  0  0  0  0  0  0  0  0  0  0  0
   -5.1390   25.3410  -30.5670 C   0  0  0  0  0  0  0  0  0  0  0  0
   -3.7200   25.3010  -30.3480 N   0  0  0  0  0  0  0  0  0  0  0  0
   -3.0700   24.3660  -29.4760 C   0  0  0  0  0  0  0  0  0  0  0  0
   -3.7060   23.1600  -29.1650 C   0  0  0  0  0  0  0  0  0  0  0  0
   -3.0350   22.1820  -28.4220 C   0  0  0  0  0  0  0  0  0  0  0  0
   -1.7290   22.4160  -27.9660 C   0  0  0  0  0  0  0  0  0  0  0  0
   -0.8270   21.1410  -27.1450 S   0  0  0  0  0  0  0  0  0  0  0  0
   -1.5760   20.7090  -25.9150 O   0  0  0  0  0  0  0  0  0  0  0  0
    0.5090   21.6820  -26.7130 O   0  0  0  0  0  0  0  0  0  0  0  0
   -0.5760   19.7630  -28.1910 N   0  0  0  0  0  0  0  0  0  0  0  0
    0.1110   18.6830  -27.4690 C   0  0  0  0  0  0  0  0  0  0  0  0
    0.2790   17.4590  -28.3930 C   0  0  0  0  0  0  0  0  0  0  0  0
   -0.0300   17.7550  -29.7450 O   0  0  0  0  0  0  0  0  0  0  0  0
    0.6740   18.9090  -30.1600 C   0  0  0  0  0  0  0  0  0  0  0  0
    0.2070   20.1540  -29.3780 C   0  0  0  0  0  0  0  0  0  0  0  0
   -1.1200   23.6520  -28.2170 C   0  0  0  0  0  0  0  0  0  0  0  0
   -1.7870   24.6240  -28.9630 C   0  0  0  0  0  0  0  0  0  0  0  0
   -5.8950   24.1230  -30.9370 C   0  0  0  0  0  0  0  0  0  0  0  0
   -5.5260   23.3750  -32.0660 C   0  0  0  0  0  0  0  0  0  0  0  0
   -6.1740   22.1710  -32.3550 C   0  0  0  0  0  0  0  0  0  0  0  0
   -7.2090   21.7100  -31.5300 C   0  0  0  0  0  0  0  0  0  0  0  0
   -7.9370   20.1390  -31.8450 S   0  0  0  0  0  0  0  0  0  0  0  0
   -9.0840   19.8960  -30.9000 O   0  0  0  0  0  0  0  0  0  0  0  0
   -8.4590   20.1230  -33.2550 O   0  0  0  0  0  0  0  0  0  0  0  0
   -6.7220   18.9020  -31.6330 N   0  0  0  0  0  0  0  0  0  0  0  0
   -7.2480   17.5940  -32.0780 C   0  0  0  0  0  0  0  0  0  0  0  0
   -6.1140   16.6180  -32.4810 C   0  0  0  0  0  0  0  0  0  0  0  0
   -5.5760   16.8340  -33.9090 C   0  0  0  0  0  0  0  0  0  0  0  0
   -6.0660   18.1350  -34.5880 C   0  0  0  0  0  0  0  0  0  0  0  0
   -5.6860   19.4450  -33.8700 C   0  0  0  0  0  0  0  0  0  0  0  0
   -5.4920   19.2970  -32.3490 C   0  0  0  0  0  0  0  0  0  0  0  0
   -7.6070   22.4740  -30.4270 C   0  0  0  0  0  0  0  0  0  0  0  0
   -6.9610   23.6770  -30.1360 C   0  0  0  0  0  0  0  0  0  0  0  0
   -4.7364   22.9796  -29.5052 H   0  0  0  0  0  0  0  0  0  0  0  0
   -3.5327   21.2277  -28.1950 H   0  0  0  0  0  0  0  0  0  0  0  0
    1.1017   19.0338  -27.1442 H   0  0  0  0  0  0  0  0  0  0  0  0
   -0.4872   18.3956  -26.5917 H   0  0  0  0  0  0  0  0  0  0  0  0
    1.3221   17.1144  -28.3365 H   0  0  0  0  0  0  0  0  0  0  0  0
   -0.4214   16.6827  -28.0514 H   0  0  0  0  0  0  0  0  0  0  0  0
    1.7492   18.7567  -29.9846 H   0  0  0  0  0  0  0  0  0  0  0  0
    0.4769   19.0734  -31.2297 H   0  0  0  0  0  0  0  0  0  0  0  0
    1.0877   20.7289  -29.0558 H   0  0  0  0  0  0  0  0  0  0  0  0
   -0.4295   20.7650  -30.0349 H   0  0  0  0  0  0  0  0  0  0  0  0
   -0.1129   23.8569  -27.8248 H   0  0  0  0  0  0  0  0  0  0  0  0
   -1.3071   25.5959  -29.1505 H   0  0  0  0  0  0  0  0  0  0  0  0
   -4.7239   23.7378  -32.7256 H   0  0  0  0  0  0  0  0  0  0  0  0
   -5.8705   21.5827  -33.2335 H   0  0  0  0  0  0  0  0  0  0  0  0
   -7.8267   17.1461  -31.2567 H   0  0  0  0  0  0  0  0  0  0  0  0
   -7.8789   17.7651  -32.9627 H   0  0  0  0  0  0  0  0  0  0  0  0
   -5.2805   16.7463  -31.7747 H   0  0  0  0  0  0  0  0  0  0  0  0
   -6.5423   15.6052  -32.4531 H   0  0  0  0  0  0  0  0  0  0  0  0
   -4.4774   16.8636  -33.8617 H   0  0  0  0  0  0  0  0  0  0  0  0
   -5.9574   16.0004  -34.5170 H   0  0  0  0  0  0  0  0  0  0  0  0
   -5.6401   18.1688  -35.6016 H   0  0  0  0  0  0  0  0  0  0  0  0
   -7.1649   18.0891  -34.5686 H   0  0  0  0  0  0  0  0  0  0  0  0
   -4.7455   19.8158  -34.3034 H   0  0  0  0  0  0  0  0  0  0  0  0
   -6.5254   20.1408  -34.0158 H   0  0  0  0  0  0  0  0  0  0  0  0
   -4.7234   18.5309  -32.1691 H   0  0  0  0  0  0  0  0  0  0  0  0
   -5.1964   20.2839  -31.9634 H   0  0  0  0  0  0  0  0  0  0  0  0
   -8.4313   22.1256  -29.7874 H   0  0  0  0  0  0  0  0  0  0  0  0
   -7.2878   24.2792  -29.2754 H   0  0  0  0  0  0  0  0  0  0  0  0
  1  2  2  0
  2  3  1  0
  3  4  1  0
  4  5  2  0
  5  6  1  0
  6  7  2  0
  7  8  1  0
  8  9  2  0
  8 10  2  0
  8 11  1  0
 11 12  1  0
 12 13  1  0
 13 14  1  0
 14 15  1  0
 15 16  1  0
  7 17  1  0
 17 18  2  0
  2 19  1  0
 19 20  2  0
 20 21  1  0
 21 22  2  0
 22 23  1  0
 23 24  2  0
 23 25  2  0
 23 26  1  0
 26 27  1  0
 27 28  1  0
 28 29  1  0
 29 30  1  0
 30 31  1  0
 31 32  1  0
 22 33  1  0
 33 34  2  0
 18  4  1  0
 34 19  1  0
 16 11  1  0
 32 26  1  0
  5 35  1  0
  6 36  1  0
 12 37  1  0
 12 38  1  0
 13 39  1  0
 13 40  1  0
 15 41  1  0
 15 42  1  0
 16 43  1  0
 16 44  1  0
 17 45  1  0
 18 46  1  0
 20 47  1  0
 21 48  1  0
 27 49  1  0
 27 50  1  0
 28 51  1  0
 28 52  1  0
 29 53  1  0
 29 54  1  0
 30 55  1  0
 30 56  1  0
 31 57  1  0
 31 58  1  0
 32 59  1  0
 32 60  1  0
 33 61  1  0
 34 62  1  0
M  CHG  1   3  -1
M  END
>  <UniqueID>  (36) 
36

>  <SMILES>  (36) 
O=C([N-]c1ccc(S(=O)(=O)N2CCOCC2)cc1)c1ccc(S(=O)(=O)N2CCCCCC2)cc1

>  <Energy>  (36) 
81.99085429401379

>  <Genealogy>  (36) 
O=C([N-]c1ccc(S(=O)(=O)N2CCOCC2)cc1)c1ccc(S(=O)(=O)N2CCCCCC2)cc1 (protonated)
O=C([N-]c1ccc(S(=O)(=O)N2CCOCC2)cc1)c1ccc(S(=O)(=O)N2CCCCCC2)cc1 (3D coordinates assigned)
O=C([N-]c1ccc(S(=O)(=O)N2CCOCC2)cc1)c1ccc(S(=O)(=O)N2CCCCCC2)cc1 (nonaromatic ring conformer: 81.99085429401379 kcal/mol)

>  <smiles>  (36) 
O=C(Nc1ccc(S(=O)(=O)N2CCOCC2)cc1)c1ccc(S(=O)(=O)N2CCCCCC2)cc1

>  <score_type>  (36) 
oracle

>  <origin>  (36) 
adgpu

>  <m_score__min__energy>  (36) 
-11.01

>  <m_primary>  (36) 
energy

$$$$
36:0
     RDKit          3D

 88 92  0  0  0  0  0  0  0  0999 V2000
   -2.5540   18.2470  -32.8380 C   0  0  0  0  0  0  0  0  0  0  0  0
   -1.2320   18.2030  -33.5600 C   0  0  0  0  0  0  0  0  0  0  0  0
   -1.1920   17.9290  -34.9380 C   0  0  0  0  0  0  0  0  0  0  0  0
    0.0300   17.8970  -35.6170 C   0  0  0  0  0  0  0  0  0  0  0  0
    1.2320   18.1130  -34.9290 C   0  0  0  0  0  0  0  0  0  0  0  0
    2.5240   18.0550  -35.6530 C   0  0  0  0  0  0  0  0  0  0  0  0
    2.9170   16.9620  -36.1410 O   0  0  0  0  0  0  0  0  0  0  0  0
    3.3360   19.2200  -35.8310 N   0  0  0  0  0  0  0  0  0  0  0  0
    2.8280   20.5600  -35.8730 C   0  0  0  0  0  0  0  0  0  0  0  0
    3.5200   21.6970  -36.2520 C   0  0  0  0  0  0  0  0  0  0  0  0
    2.5920   22.7230  -36.2270 C   0  0  0  0  0  0  0  0  0  0  0  0
    2.8880   24.1330  -36.5400 C   0  0  0  0  0  0  0  0  0  0  0  0
    3.8380   24.7090  -35.9500 O   0  0  0  0  0  0  0  0  0  0  0  0
    2.1430   24.8600  -37.5250 N   0  0  0  0  0  0  0  0  0  0  0  0
    2.4460   26.2240  -37.9510 C   0  0  0  0  0  0  0  0  0  0  0  0
    1.2690   27.1540  -37.6250 C   0  0  0  0  0  0  0  0  0  0  0  0
    0.2100   26.4170  -36.8950 N   0  0  0  0  0  0  0  0  0  0  0  0
   -1.1560   26.7990  -37.3170 C   0  0  0  0  0  0  0  0  0  0  0  0
   -1.6070   28.1310  -36.6850 C   0  0  0  0  0  0  0  0  0  0  0  0
   -1.4870   28.1010  -35.2800 O   0  0  0  0  0  0  0  0  0  0  0  0
   -0.1350   27.9030  -34.9240 C   0  0  0  0  0  0  0  0  0  0  0  0
    0.3520   26.5360  -35.4300 C   0  0  0  0  0  0  0  0  0  0  0  0
    1.3850   22.2470  -35.8420 N   0  0  0  0  0  0  0  0  0  0  0  0
    0.1350   22.9990  -35.7330 C   0  0  0  0  0  0  0  0  0  0  0  0
    1.5210   20.9200  -35.6390 C   0  0  0  0  0  0  0  0  0  0  0  0
    1.1920   18.4020  -33.5540 C   0  0  0  0  0  0  0  0  0  0  0  0
   -0.0340   18.4520  -32.8680 C   0  0  0  0  0  0  0  0  0  0  0  0
   -0.0580   18.7630  -31.4690 N   0  0  0  0  0  0  0  0  0  0  0  0
    0.0610   20.0920  -30.9560 C   0  0  0  0  0  0  0  0  0  0  0  0
    0.2770   21.0450  -31.7570 O   0  0  0  0  0  0  0  0  0  0  0  0
    0.0940   20.3100  -29.5380 N   0  0  0  0  0  0  0  0  0  0  0  0
   -0.1910   21.5410  -28.8550 C   0  0  0  0  0  0  0  0  0  0  0  0
   -0.5190   22.7230  -29.4880 C   0  0  0  0  0  0  0  0  0  0  0  0
   -0.7660   23.6290  -28.4770 C   0  0  0  0  0  0  0  0  0  0  0  0
   -1.2280   25.0060  -28.6850 C   0  0  0  0  0  0  0  0  0  0  0  0
   -0.5120   25.9630  -28.2940 O   0  0  0  0  0  0  0  0  0  0  0  0
   -2.4810   25.2820  -29.3210 N   0  0  0  0  0  0  0  0  0  0  0  0
   -3.7060   24.5380  -29.0400 C   0  0  0  0  0  0  0  0  0  0  0  0
   -4.6890   24.6840  -30.2060 C   0  0  0  0  0  0  0  0  0  0  0  0
   -4.3370   23.7740  -31.3220 N   0  0  0  0  0  0  0  0  0  0  0  0
   -3.2460   22.8360  -30.9460 C   0  0  0  0  0  0  0  0  0  0  0  0
   -3.7370   21.3840  -30.8210 C   0  0  0  0  0  0  0  0  0  0  0  0
   -4.3030   20.8960  -32.0270 O   0  0  0  0  0  0  0  0  0  0  0  0
   -5.1100   21.8530  -32.7040 C   0  0  0  0  0  0  0  0  0  0  0  0
   -5.5270   23.0710  -31.8550 C   0  0  0  0  0  0  0  0  0  0  0  0
   -0.5780   23.0500  -27.2680 N   0  0  0  0  0  0  0  0  0  0  0  0
   -0.6470   23.7070  -25.9650 C   0  0  0  0  0  0  0  0  0  0  0  0
   -0.2120   21.7710  -27.4900 C   0  0  0  0  0  0  0  0  0  0  0  0
   -2.3791   18.2412  -31.7520 H   0  0  0  0  0  0  0  0  0  0  0  0
   -3.0941   19.1636  -33.1175 H   0  0  0  0  0  0  0  0  0  0  0  0
   -3.1538   17.3683  -33.1175 H   0  0  0  0  0  0  0  0  0  0  0  0
   -2.1270   17.7387  -35.4853 H   0  0  0  0  0  0  0  0  0  0  0  0
    0.0481   17.7008  -36.6992 H   0  0  0  0  0  0  0  0  0  0  0  0
    4.5850   21.7698  -36.5176 H   0  0  0  0  0  0  0  0  0  0  0  0
    3.3452   26.5777  -37.4253 H   0  0  0  0  0  0  0  0  0  0  0  0
    2.6194   26.2311  -39.0372 H   0  0  0  0  0  0  0  0  0  0  0  0
    1.6273   27.9855  -37.0004 H   0  0  0  0  0  0  0  0  0  0  0  0
    0.8494   27.5392  -38.5661 H   0  0  0  0  0  0  0  0  0  0  0  0
   -1.1731   26.9022  -38.4120 H   0  0  0  0  0  0  0  0  0  0  0  0
   -1.8472   26.0127  -36.9794 H   0  0  0  0  0  0  0  0  0  0  0  0
   -0.9811   28.9447  -37.0803 H   0  0  0  0  0  0  0  0  0  0  0  0
   -2.6649   28.2937  -36.9386 H   0  0  0  0  0  0  0  0  0  0  0  0
    0.4793   28.6969  -35.3739 H   0  0  0  0  0  0  0  0  0  0  0  0
   -0.0441   27.9335  -33.8282 H   0  0  0  0  0  0  0  0  0  0  0  0
    1.4120   26.4133  -35.1629 H   0  0  0  0  0  0  0  0  0  0  0  0
   -0.2642   25.7555  -34.9599 H   0  0  0  0  0  0  0  0  0  0  0  0
   -0.1121   23.1477  -34.6715 H   0  0  0  0  0  0  0  0  0  0  0  0
    0.2516   23.9770  -36.2228 H   0  0  0  0  0  0  0  0  0  0  0  0
   -0.6744   22.4378  -36.2228 H   0  0  0  0  0  0  0  0  0  0  0  0
    0.7155   20.2354  -35.3350 H   0  0  0  0  0  0  0  0  0  0  0  0
    2.1290   18.5908  -33.0096 H   0  0  0  0  0  0  0  0  0  0  0  0
   -0.5723   22.9046  -30.5716 H   0  0  0  0  0  0  0  0  0  0  0  0
   -3.4620   23.4745  -28.9006 H   0  0  0  0  0  0  0  0  0  0  0  0
   -4.1691   24.9383  -28.1260 H   0  0  0  0  0  0  0  0  0  0  0  0
   -5.7026   24.4432  -29.8529 H   0  0  0  0  0  0  0  0  0  0  0  0
   -4.6417   25.7198  -30.5734 H   0  0  0  0  0  0  0  0  0  0  0  0
   -2.4624   22.8786  -31.7168 H   0  0  0  0  0  0  0  0  0  0  0  0
   -2.8621   23.1456  -29.9627 H   0  0  0  0  0  0  0  0  0  0  0  0
   -2.8839   20.7454  -30.5480 H   0  0  0  0  0  0  0  0  0  0  0  0
   -4.5218   21.3618  -30.0505 H   0  0  0  0  0  0  0  0  0  0  0  0
   -4.5461   22.2205  -33.5741 H   0  0  0  0  0  0  0  0  0  0  0  0
   -6.0411   21.3336  -32.9747 H   0  0  0  0  0  0  0  0  0  0  0  0
   -6.1057   23.7659  -32.4813 H   0  0  0  0  0  0  0  0  0  0  0  0
   -6.1362   22.7190  -31.0094 H   0  0  0  0  0  0  0  0  0  0  0  0
   -0.5677   22.9520  -25.1690 H   0  0  0  0  0  0  0  0  0  0  0  0
    0.1806   24.4257  -25.8724 H   0  0  0  0  0  0  0  0  0  0  0  0
   -1.6059   24.2381  -25.8724 H   0  0  0  0  0  0  0  0  0  0  0  0
    0.0304   21.0311  -26.7130 H   0  0  0  0  0  0  0  0  0  0  0  0
  1  2  1  0
  2  3  2  0
  3  4  1  0
  4  5  2  0
  5  6  1  0
  6  7  2  0
  6  8  1  0
  8  9  1  0
  9 10  1  0
 10 11  2  0
 11 12  1  0
 12 13  2  0
 12 14  1  0
 14 15  1  0
 15 16  1  0
 16 17  1  0
 17 18  1  0
 18 19  1  0
 19 20  1  0
 20 21  1  0
 21 22  1  0
 11 23  1  0
 23 24  1  0
 23 25  1  0
  5 26  1  0
 26 27  2  0
 27 28  1  0
 28 29  1  0
 29 30  2  0
 29 31  1  0
 31 32  1  0
 32 33  1  0
 33 34  2  0
 34 35  1  0
 35 36  2  0
 35 37  1  0
 37 38  1  0
 38 39  1  0
 39 40  1  0
 40 41  1  0
 41 42  1  0
 42 43  1  0
 43 44  1  0
 44 45  1  0
 34 46  1  0
 46 47  1  0
 46 48  1  0
 27  2  1  0
 48 32  2  0
 25  9  2  0
 45 40  1  0
 22 17  1  0
  1 49  1  0
  1 50  1  0
  1 51  1  0
  3 52  1  0
  4 53  1  0
 10 54  1  0
 15 55  1  0
 15 56  1  0
 16 57  1  0
 16 58  1  0
 18 59  1  0
 18 60  1  0
 19 61  1  0
 19 62  1  0
 21 63  1  0
 21 64  1  0
 22 65  1  0
 22 66  1  0
 24 67  1  0
 24 68  1  0
 24 69  1  0
 25 70  1  0
 26 71  1  0
 33 72  1  0
 38 73  1  0
 38 74  1  0
 39 75  1  0
 39 76  1  0
 41 77  1  0
 41 78  1  0
 42 79  1  0
 42 80  1  0
 44 81  1  0
 44 82  1  0
 45 83  1  0
 45 84  1  0
 47 85  1  0
 47 86  1  0
 47 87  1  0
 48 88  1  0
M  CHG  5   8  -1  14  -1  28  -1  31  -1  37  -1
M  END
>  <UniqueID>  (37) 
37

>  <SMILES>  (37) 
Cc1ccc(C(=O)[N-]c2cc(C(=O)[N-]CCN3CCOCC3)n(C)c2)cc1[N-]C(=O)[N-]c1cc(C(=O)[N-]CCN2CCOCC2)n(C)c1

>  <Energy>  (37) 
182.72381039932347

>  <Genealogy>  (37) 
Cc1ccc(C(=O)[N-]c2cc(C(=O)[N-]CCN3CCOCC3)n(C)c2)cc1[N-]C(=O)[N-]c1cc(C(=O)[N-]CCN2CCOCC2)n(C)c1 (protonated)
Cc1ccc(C(=O)[N-]c2cc(C(=O)[N-]CCN3CCOCC3)n(C)c2)cc1[N-]C(=O)[N-]c1cc(C(=O)[N-]CCN2CCOCC2)n(C)c1 (3D coordinates assigned)
Cc1ccc(C(=O)[N-]c2cc(C(=O)[N-]CCN3CCOCC3)n(C)c2)cc1[N-]C(=O)[N-]c1cc(C(=O)[N-]CCN2CCOCC2)n(C)c1 (nonaromatic ring conformer: 182.72381039932347 kcal/mol)

>  <smiles>  (37) 
Cc1ccc(C(=O)Nc2cc(C(=O)NCCN3CCOCC3)n(C)c2)cc1NC(=O)Nc1cc(C(=O)NCCN2CCOCC2)n(C)c1

>  <score_type>  (37) 
oracle

>  <origin>  (37) 
adgpu

>  <m_score__min__energy>  (37) 
-13.98

>  <m_primary>  (37) 
energy

$$$$
37:0
     RDKit          3D

 32 34  0  0  0  0  0  0  0  0999 V2000
   -8.8390   19.2310  -32.3120 O   0  0  0  0  0  0  0  0  0  0  0  0
   -8.6560   20.4760  -32.2510 C   0  0  0  0  0  0  0  0  0  0  0  0
   -9.7600   21.3200  -32.2650 O   0  0  0  0  0  0  0  0  0  0  0  0
   -7.2880   21.0340  -32.1650 C   0  0  0  0  0  0  0  0  0  0  0  0
   -6.2790   20.5710  -33.0260 C   0  0  0  0  0  0  0  0  0  0  0  0
   -4.9840   21.0900  -32.9400 C   0  0  0  0  0  0  0  0  0  0  0  0
   -4.6870   22.0850  -32.0060 C   0  0  0  0  0  0  0  0  0  0  0  0
   -5.6830   22.5770  -31.1580 C   0  0  0  0  0  0  0  0  0  0  0  0
   -5.3430   23.6040  -30.2130 N   0  0  0  0  0  0  0  0  0  0  0  0
   -4.0570   24.2220  -30.0550 C   0  0  0  0  0  0  0  0  0  0  0  0
   -3.8390   25.3130  -30.6440 O   0  0  0  0  0  0  0  0  0  0  0  0
   -3.0120   23.6480  -29.1690 C   0  0  0  0  0  0  0  0  0  0  0  0
   -3.1710   22.3530  -28.6450 C   0  0  0  0  0  0  0  0  0  0  0  0
   -2.1820   21.7790  -27.8220 C   0  0  0  0  0  0  0  0  0  0  0  0
   -2.3260   20.4400  -27.3090 N   0  0  0  0  0  0  0  0  0  0  0  0
   -1.3760   19.5100  -27.0980 C   0  0  0  0  0  0  0  0  0  0  0  0
   -1.9360   18.3970  -26.5870 N   0  0  0  0  0  0  0  0  0  0  0  0
   -3.2300   18.6670  -26.4920 N   0  0  0  0  0  0  0  0  0  0  0  0
   -3.4670   19.8960  -26.9240 N   0  0  0  0  0  0  0  0  0  0  0  0
   -1.0450   22.5360  -27.5000 C   0  0  0  0  0  0  0  0  0  0  0  0
   -0.8900   23.8300  -27.9990 C   0  0  0  0  0  0  0  0  0  0  0  0
   -1.8620   24.3880  -28.8330 C   0  0  0  0  0  0  0  0  0  0  0  0
   -1.6650   25.6700  -29.3350 O   0  0  0  0  0  0  0  0  0  0  0  0
   -6.9780   22.0310  -31.2220 C   0  0  0  0  0  0  0  0  0  0  0  0
   -6.5093   19.7959  -33.7718 H   0  0  0  0  0  0  0  0  0  0  0  0
   -4.1967   20.7138  -33.6097 H   0  0  0  0  0  0  0  0  0  0  0  0
   -3.6640   22.4834  -31.9375 H   0  0  0  0  0  0  0  0  0  0  0  0
   -4.0800   21.7802  -28.8808 H   0  0  0  0  0  0  0  0  0  0  0  0
   -0.3046   19.6395  -27.3107 H   0  0  0  0  0  0  0  0  0  0  0  0
   -0.2697   22.1059  -26.8490 H   0  0  0  0  0  0  0  0  0  0  0  0
    0.0034   24.4145  -27.7339 H   0  0  0  0  0  0  0  0  0  0  0  0
   -7.7547   22.3866  -30.5289 H   0  0  0  0  0  0  0  0  0  0  0  0
  1  2  2  0
  2  3  1  0
  2  4  1  0
  4  5  2  0
  5  6  1  0
  6  7  2  0
  7  8  1  0
  8  9  1  0
  9 10  1  0
 10 11  2  0
 10 12  1  0
 12 13  2  0
 13 14  1  0
 14 15  1  0
 15 16  1  0
 16 17  2  0
 17 18  1  0
 18 19  2  0
 14 20  2  0
 20 21  1  0
 21 22  2  0
 22 23  1  0
  8 24  2  0
 24  4  1  0
 22 12  1  0
 19 15  1  0
  5 25  1  0
  6 26  1  0
  7 27  1  0
 13 28  1  0
 16 29  1  0
 20 30  1  0
 21 31  1  0
 24 32  1  0
M  CHG  3   3  -1   9  -1  23  -1
M  END
>  <UniqueID>  (38) 
38

>  <SMILES>  (38) 
O=C([O-])c1cccc([N-]C(=O)c2cc(-n3cnnn3)ccc2[O-])c1

>  <Energy>  (38) 
84.81608912556007

>  <Genealogy>  (38) 
O=C([O-])c1cccc([N-]C(=O)c2cc(-n3cnnn3)ccc2[O-])c1 (protonated)
O=C([O-])c1cccc([N-]C(=O)c2cc(-n3cnnn3)ccc2[O-])c1 (3D coordinates assigned)
O=C([O-])c1cccc([N-]C(=O)c2cc(-n3cnnn3)ccc2[O-])c1 (optimized conformer: 84.81608912556007 kcal/mol)

>  <smiles>  (38) 
O=C(O)c1cccc(NC(=O)c2cc(-n3cnnn3)ccc2O)c1

>  <score_type>  (38) 
oracle

>  <origin>  (38) 
adgpu

>  <m_score__min__energy>  (38) 
-12.460000000000001

>  <m_primary>  (38) 
energy

$$$$
38:0
     RDKit          3D

 45 47  0  0  0  0  0  0  0  0999 V2000
   -6.7580   17.0926  -34.7790 H   0  0  0  0  0  0  0  0  0  0  0  0
   -5.9060   16.6140  -34.2740 C   0  0  0  0  0  0  0  0  0  0  0  0
   -4.7050   16.5200  -34.9060 N   0  0  0  0  0  0  0  0  0  0  0  0
   -3.6270   15.9350  -34.3150 C   0  0  0  0  0  0  0  0  0  0  0  0
   -2.0660   15.8630  -35.1980 S   0  0  0  0  0  0  0  0  0  0  0  0
   -1.0730   16.6580  -33.8800 C   0  0  0  0  0  0  0  0  0  0  0  0
   -0.0364   16.7671  -34.2315 H   0  0  0  0  0  0  0  0  0  0  0  0
   -1.1208   16.0217  -32.9840 H   0  0  0  0  0  0  0  0  0  0  0  0
   -1.6090   18.0110  -33.5210 C   0  0  0  0  0  0  0  0  0  0  0  0
   -1.1080   18.6280  -32.5420 O   0  0  0  0  0  0  0  0  0  0  0  0
   -2.7210   18.5630  -34.2450 N   0  0  0  0  0  0  0  0  0  0  0  0
   -3.1050   18.0050  -35.0410 H   0  0  0  0  0  0  0  0  0  0  0  0
   -3.5330   19.6240  -33.7210 C   0  0  0  0  0  0  0  0  0  0  0  0
   -4.8770   19.3700  -33.4100 C   0  0  0  0  0  0  0  0  0  0  0  0
   -5.3077   18.3782  -33.6119 H   0  0  0  0  0  0  0  0  0  0  0  0
   -5.6710   20.3710  -32.8450 C   0  0  0  0  0  0  0  0  0  0  0  0
   -6.7221   20.1623  -32.5966 H   0  0  0  0  0  0  0  0  0  0  0  0
   -5.1330   21.6390  -32.5940 C   0  0  0  0  0  0  0  0  0  0  0  0
   -6.1170   22.8700  -31.8140 S   0  0  0  0  0  0  0  0  0  0  0  0
   -6.7860   22.2390  -30.6270 O   0  0  0  0  0  0  0  0  0  0  0  0
   -7.1820   23.3930  -32.7350 O   0  0  0  0  0  0  0  0  0  0  0  0
   -5.1370   24.1890  -31.2490 N   0  0  0  0  0  0  0  0  0  0  0  0
   -4.1080   24.1880  -30.4490 C   0  0  0  0  0  0  0  0  0  0  0  0
   -3.4900   25.3020  -30.1350 O   0  0  0  0  0  0  0  0  0  0  0  0
   -2.5040   25.0880  -29.3160 N   0  0  0  0  0  0  0  0  0  0  0  0
   -2.4710   23.7640  -29.0760 C   0  0  0  0  0  0  0  0  0  0  0  0
   -1.4760   23.1200  -28.1640 C   0  0  0  0  0  0  0  0  0  0  0  0
   -1.7630   23.3058  -27.1185 H   0  0  0  0  0  0  0  0  0  0  0  0
   -1.4546   22.0363  -28.3514 H   0  0  0  0  0  0  0  0  0  0  0  0
   -0.4786   23.5443  -28.3514 H   0  0  0  0  0  0  0  0  0  0  0  0
   -3.4750   23.1280  -29.7910 C   0  0  0  0  0  0  0  0  0  0  0  0
   -3.7940   21.6630  -29.7240 C   0  0  0  0  0  0  0  0  0  0  0  0
   -3.8621   21.3503  -28.6716 H   0  0  0  0  0  0  0  0  0  0  0  0
   -4.7544   21.4736  -30.2257 H   0  0  0  0  0  0  0  0  0  0  0  0
   -2.9993   21.0914  -30.2257 H   0  0  0  0  0  0  0  0  0  0  0  0
   -3.8070   21.9130  -32.9520 C   0  0  0  0  0  0  0  0  0  0  0  0
   -3.3913   22.9186  -32.7906 H   0  0  0  0  0  0  0  0  0  0  0  0
   -3.0110   20.9110  -33.5140 C   0  0  0  0  0  0  0  0  0  0  0  0
   -1.9708   21.1316  -33.7955 H   0  0  0  0  0  0  0  0  0  0  0  0
   -3.7420   15.4030  -33.0260 C   0  0  0  0  0  0  0  0  0  0  0  0
   -2.8788   14.9214  -32.5435 H   0  0  0  0  0  0  0  0  0  0  0  0
   -4.9670   15.4910  -32.3590 C   0  0  0  0  0  0  0  0  0  0  0  0
   -5.0728   15.0796  -31.3443 H   0  0  0  0  0  0  0  0  0  0  0  0
   -6.0560   16.1020  -32.9830 C   0  0  0  0  0  0  0  0  0  0  0  0
   -7.0224   16.1795  -32.4634 H   0  0  0  0  0  0  0  0  0  0  0  0
  1  2  1  0
  2  3  2  0
  3  4  1  0
  4  5  1  0
  5  6  1  0
  6  7  1  0
  6  8  1  0
  6  9  1  0
  9 10  2  0
  9 11  1  0
 11 12  1  0
 11 13  1  0
 13 14  2  0
 14 15  1  0
 14 16  1  0
 16 17  1  0
 16 18  2  0
 18 19  1  0
 19 20  2  0
 19 21  2  0
 19 22  1  0
 22 23  2  0
 23 24  1  0
 24 25  1  0
 25 26  1  0
 26 27  1  0
 27 28  1  0
 27 29  1  0
 27 30  1  0
 26 31  2  0
 31 32  1  0
 32 33  1  0
 32 34  1  0
 32 35  1  0
 18 36  1  0
 36 37  1  0
 36 38  2  0
 38 39  1  0
  4 40  2  0
 40 41  1  0
 40 42  1  0
 42 43  1  0
 42 44  2  0
 44 45  1  0
 44  2  1  0
 38 13  1  0
 31 23  1  0
M  CHG  1  25  -1
M  END
>  <UniqueID>  (39) 
39

>  <SMILES>  (39) 
Cc1[n-]o/c(=N/S(=O)(=O)c2ccc(NC(=O)CSc3ccccn3)cc2)c1C

>  <Energy>  (39) 
84.61030789767975

>  <Genealogy>  (39) 
Cc1[n-]oc(=NS(=O)(=O)c2ccc(NC(=O)CSc3ccccn3)cc2)c1C (protonated)
Cc1[n-]o/c(=N/S(=O)(=O)c2ccc(NC(=O)CSc3ccccn3)cc2)c1C (cis-trans isomerization)
Cc1[n-]o/c(=N/S(=O)(=O)c2ccc(NC(=O)CSc3ccccn3)cc2)c1C (3D coordinates assigned)
Cc1[n-]o/c(=N/S(=O)(=O)c2ccc(NC(=O)CSc3ccccn3)cc2)c1C (optimized conformer: 84.61030789767975 kcal/mol)

>  <smiles>  (39) 
Cc1[nH]oc(=NS(=O)(=O)c2ccc(NC(=O)CSc3ccccn3)cc2)c1C

>  <score_type>  (39) 
oracle

>  <origin>  (39) 
adgpu

>  <m_score__min__energy>  (39) 
-10.640000000000001

>  <m_primary>  (39) 
energy

$$$$
39:0
     RDKit          3D

 42 44  0  0  0  0  0  0  0  0999 V2000
   -2.9680   20.5280  -27.4740 C   0  0  0  0  0  0  0  0  0  0  0  0
   -2.6380   21.9150  -27.9420 C   0  0  0  0  0  0  0  0  0  0  0  0
   -1.5090   22.5790  -27.4450 C   0  0  0  0  0  0  0  0  0  0  0  0
   -1.1840   23.8570  -27.9070 C   0  0  0  0  0  0  0  0  0  0  0  0
   -1.9680   24.4730  -28.8860 C   0  0  0  0  0  0  0  0  0  0  0  0
   -1.6090   25.7370  -29.3430 O   0  0  0  0  0  0  0  0  0  0  0  0
   -3.0900   23.8060  -29.4180 C   0  0  0  0  0  0  0  0  0  0  0  0
   -3.9200   24.4390  -30.4720 C   0  0  0  0  0  0  0  0  0  0  0  0
   -4.2430   25.6500  -30.3590 O   0  0  0  0  0  0  0  0  0  0  0  0
   -4.4060   23.7030  -31.6040 N   0  0  0  0  0  0  0  0  0  0  0  0
   -5.6400   22.9700  -31.6700 C   0  0  0  0  0  0  0  0  0  0  0  0
   -6.8120   23.6230  -31.2660 C   0  0  0  0  0  0  0  0  0  0  0  0
   -8.0250   22.9350  -31.2080 C   0  0  0  0  0  0  0  0  0  0  0  0
   -8.0800   21.5860  -31.5620 C   0  0  0  0  0  0  0  0  0  0  0  0
   -6.9290   20.9310  -32.0040 C   0  0  0  0  0  0  0  0  0  0  0  0
   -5.7060   21.6190  -32.0980 C   0  0  0  0  0  0  0  0  0  0  0  0
   -4.5470   20.9120  -32.6890 C   0  0  0  0  0  0  0  0  0  0  0  0
   -3.4080   21.0600  -32.1720 O   0  0  0  0  0  0  0  0  0  0  0  0
   -4.6800   20.0500  -33.8290 N   0  0  0  0  0  0  0  0  0  0  0  0
   -4.9130   18.6350  -33.7820 C   0  0  0  0  0  0  0  0  0  0  0  0
   -6.0970   18.1360  -34.3390 C   0  0  0  0  0  0  0  0  0  0  0  0
   -6.4050   16.7770  -34.2500 C   0  0  0  0  0  0  0  0  0  0  0  0
   -5.5210   15.9010  -33.6180 C   0  0  0  0  0  0  0  0  0  0  0  0
   -4.3140   16.3780  -33.1000 C   0  0  0  0  0  0  0  0  0  0  0  0
   -3.9860   17.7350  -33.2020 C   0  0  0  0  0  0  0  0  0  0  0  0
   -2.7280   18.1460  -32.7610 O   0  0  0  0  0  0  0  0  0  0  0  0
   -3.4190   22.5280  -28.9320 C   0  0  0  0  0  0  0  0  0  0  0  0
   -2.9738   20.5038  -26.3743 H   0  0  0  0  0  0  0  0  0  0  0  0
   -3.9598   20.2396  -27.8523 H   0  0  0  0  0  0  0  0  0  0  0  0
   -2.2123   19.8239  -27.8523 H   0  0  0  0  0  0  0  0  0  0  0  0
   -0.8760   22.0925  -26.6883 H   0  0  0  0  0  0  0  0  0  0  0  0
   -0.3071   24.3805  -27.4982 H   0  0  0  0  0  0  0  0  0  0  0  0
   -6.7758   24.6877  -30.9920 H   0  0  0  0  0  0  0  0  0  0  0  0
   -8.9377   23.4560  -30.8833 H   0  0  0  0  0  0  0  0  0  0  0  0
   -9.0314   21.0382  -31.4927 H   0  0  0  0  0  0  0  0  0  0  0  0
   -6.9791   19.8677  -32.2811 H   0  0  0  0  0  0  0  0  0  0  0  0
   -6.7899   18.8201  -34.8507 H   0  0  0  0  0  0  0  0  0  0  0  0
   -7.3443   16.3967  -34.6779 H   0  0  0  0  0  0  0  0  0  0  0  0
   -5.7746   14.8345  -33.5276 H   0  0  0  0  0  0  0  0  0  0  0  0
   -3.6172   15.6827  -32.6090 H   0  0  0  0  0  0  0  0  0  0  0  0
   -2.5020   19.1140  -32.5780 H   0  0  0  0  0  0  0  0  0  0  0  0
   -4.2988   22.0035  -29.3330 H   0  0  0  0  0  0  0  0  0  0  0  0
  1  2  1  0
  2  3  2  0
  3  4  1  0
  4  5  2  0
  5  6  1  0
  5  7  1  0
  7  8  1  0
  8  9  2  0
  8 10  1  0
 10 11  1  0
 11 12  2  0
 12 13  1  0
 13 14  2  0
 14 15  1  0
 15 16  2  0
 16 17  1  0
 17 18  2  0
 17 19  1  0
 19 20  1  0
 20 21  2  0
 21 22  1  0
 22 23  2  0
 23 24  1  0
 24 25  2  0
 25 26  1  0
  7 27  2  0
 27  2  1  0
 16 11  1  0
 25 20  1  0
  1 28  1  0
  1 29  1  0
  1 30  1  0
  3 31  1  0
  4 32  1  0
 12 33  1  0
 13 34  1  0
 14 35  1  0
 15 36  1  0
 21 37  1  0
 22 38  1  0
 23 39  1  0
 24 40  1  0
 26 41  1  0
 27 42  1  0
M  CHG  3   6  -1  10  -1  19  -1
M  END
>  <UniqueID>  (40) 
40

>  <SMILES>  (40) 
Cc1ccc([O-])c(C(=O)[N-]c2ccccc2C(=O)[N-]c2ccccc2O)c1

>  <Energy>  (40) 
64.36408055628958

>  <Genealogy>  (40) 
Cc1ccc([O-])c(C(=O)[N-]c2ccccc2C(=O)[N-]c2ccccc2O)c1 (protonated)
Cc1ccc([O-])c(C(=O)[N-]c2ccccc2C(=O)[N-]c2ccccc2O)c1 (3D coordinates assigned)
Cc1ccc([O-])c(C(=O)[N-]c2ccccc2C(=O)[N-]c2ccccc2O)c1 (optimized conformer: 64.36408055628958 kcal/mol)

>  <smiles>  (40) 
Cc1ccc(O)c(C(=O)Nc2ccccc2C(=O)Nc2ccccc2O)c1

>  <score_type>  (40) 
oracle

>  <origin>  (40) 
adgpu

>  <m_score__min__energy>  (40) 
-12.26

>  <m_primary>  (40) 
energy

$$$$
40:0
     RDKit          3D

 56 59  0  0  0  0  0  0  0  0999 V2000
   -3.9440   24.8810  -30.8310 O   0  0  0  0  0  0  0  0  0  0  0  0
   -3.3850   24.0980  -30.0170 C   0  0  0  0  0  0  0  0  0  0  0  0
   -2.3730   23.1870  -30.4680 N   0  0  0  0  0  0  0  0  0  0  0  0
   -2.5580   22.1160  -31.4030 C   0  0  0  0  0  0  0  0  0  0  0  0
   -1.4920   21.5970  -32.1570 C   0  0  0  0  0  0  0  0  0  0  0  0
   -1.7120   20.5410  -33.0440 C   0  0  0  0  0  0  0  0  0  0  0  0
   -2.9880   19.9910  -33.1810 C   0  0  0  0  0  0  0  0  0  0  0  0
   -4.0560   20.4930  -32.4260 C   0  0  0  0  0  0  0  0  0  0  0  0
   -5.6800   19.8310  -32.6320 S   0  0  0  0  0  0  0  0  0  0  0  0
   -6.0990   19.9890  -34.0670 O   0  0  0  0  0  0  0  0  0  0  0  0
   -5.6630   18.3610  -32.3120 O   0  0  0  0  0  0  0  0  0  0  0  0
   -6.8370   20.6360  -31.5950 N   0  0  0  0  0  0  0  0  0  0  0  0
   -7.0060   22.0460  -32.0080 C   0  0  0  0  0  0  0  0  0  0  0  0
   -8.2910   22.6490  -31.4300 C   0  0  0  0  0  0  0  0  0  0  0  0
   -9.5330   21.9050  -31.9510 C   0  0  0  0  0  0  0  0  0  0  0  0
   -9.2340   20.4470  -32.3410 C   0  0  0  0  0  0  0  0  0  0  0  0
   -8.1010   19.8650  -31.4840 C   0  0  0  0  0  0  0  0  0  0  0  0
   -3.8310   21.5450  -31.5260 C   0  0  0  0  0  0  0  0  0  0  0  0
   -3.7390   24.1500  -28.5480 C   0  0  1  0  0  0  0  0  0  0  0  0
   -4.2540   22.5100  -27.8820 S   0  0  0  0  0  0  0  0  0  0  0  0
   -2.6190   21.7780  -27.7610 C   0  0  0  0  0  0  0  0  0  0  0  0
   -2.2530   20.7280  -28.6100 C   0  0  0  0  0  0  0  0  0  0  0  0
   -0.9790   20.1670  -28.4940 C   0  0  0  0  0  0  0  0  0  0  0  0
   -0.0840   20.6670  -27.5470 C   0  0  0  0  0  0  0  0  0  0  0  0
   -0.4790   21.7290  -26.7270 C   0  0  0  0  0  0  0  0  0  0  0  0
   -1.7250   22.2590  -26.8540 N   0  0  0  0  0  0  0  0  0  0  0  0
   -2.6680   24.7860  -27.6770 C   0  0  0  0  0  0  0  0  0  0  0  0
   -2.9170   25.1540  -26.3380 C   0  0  0  0  0  0  0  0  0  0  0  0
   -1.9240   25.7820  -25.5790 C   0  0  0  0  0  0  0  0  0  0  0  0
   -0.6770   26.0580  -26.1450 C   0  0  0  0  0  0  0  0  0  0  0  0
   -0.4220   25.7080  -27.4740 C   0  0  0  0  0  0  0  0  0  0  0  0
   -1.4110   25.0820  -28.2390 C   0  0  0  0  0  0  0  0  0  0  0  0
   -0.4835   22.0227  -32.0486 H   0  0  0  0  0  0  0  0  0  0  0  0
   -0.8765   20.1409  -33.6372 H   0  0  0  0  0  0  0  0  0  0  0  0
   -3.1552   19.1613  -33.8836 H   0  0  0  0  0  0  0  0  0  0  0  0
   -6.1447   22.6292  -31.6501 H   0  0  0  0  0  0  0  0  0  0  0  0
   -7.0717   22.0793  -33.1055 H   0  0  0  0  0  0  0  0  0  0  0  0
   -8.2612   22.5747  -30.3329 H   0  0  0  0  0  0  0  0  0  0  0  0
   -8.3560   23.7013  -31.7438 H   0  0  0  0  0  0  0  0  0  0  0  0
  -10.3007   21.9078  -31.1632 H   0  0  0  0  0  0  0  0  0  0  0  0
   -9.8761   22.4266  -32.8566 H   0  0  0  0  0  0  0  0  0  0  0  0
  -10.1415   19.8429  -32.1944 H   0  0  0  0  0  0  0  0  0  0  0  0
   -8.9202   20.4254  -33.3951 H   0  0  0  0  0  0  0  0  0  0  0  0
   -8.4212   19.8659  -30.4316 H   0  0  0  0  0  0  0  0  0  0  0  0
   -7.8998   18.8475  -31.8503 H   0  0  0  0  0  0  0  0  0  0  0  0
   -4.6609   21.9246  -30.9119 H   0  0  0  0  0  0  0  0  0  0  0  0
   -4.6111   24.8186  -28.4987 H   0  0  0  0  0  0  0  0  0  0  0  0
   -2.9612   20.3481  -29.3611 H   0  0  0  0  0  0  0  0  0  0  0  0
   -0.6820   19.3334  -29.1473 H   0  0  0  0  0  0  0  0  0  0  0  0
    0.9208   20.2307  -27.4466 H   0  0  0  0  0  0  0  0  0  0  0  0
    0.2181   22.1355  -25.9795 H   0  0  0  0  0  0  0  0  0  0  0  0
   -3.8988   24.9456  -25.8878 H   0  0  0  0  0  0  0  0  0  0  0  0
   -2.1255   26.0592  -24.5338 H   0  0  0  0  0  0  0  0  0  0  0  0
    0.1031   26.5501  -25.5456 H   0  0  0  0  0  0  0  0  0  0  0  0
    0.5599   25.9257  -27.9195 H   0  0  0  0  0  0  0  0  0  0  0  0
   -1.2058   24.8189  -29.2872 H   0  0  0  0  0  0  0  0  0  0  0  0
  1  2  2  0
  2  3  1  0
  3  4  1  0
  4  5  2  0
  5  6  1  0
  6  7  2  0
  7  8  1  0
  8  9  1  0
  9 10  2  0
  9 11  2  0
  9 12  1  0
 12 13  1  0
 13 14  1  0
 14 15  1  0
 15 16  1  0
 16 17  1  0
  8 18  2  0
  2 19  1  0
 19 20  1  0
 20 21  1  0
 21 22  2  0
 22 23  1  0
 23 24  2  0
 24 25  1  0
 25 26  2  0
 19 27  1  0
 27 28  2  0
 28 29  1  0
 29 30  2  0
 30 31  1  0
 31 32  2  0
 18  4  1  0
 26 21  1  0
 32 27  1  0
 17 12  1  0
  5 33  1  0
  6 34  1  0
  7 35  1  0
 13 36  1  0
 13 37  1  0
 14 38  1  0
 14 39  1  0
 15 40  1  0
 15 41  1  0
 16 42  1  0
 16 43  1  0
 17 44  1  0
 17 45  1  0
 18 46  1  0
 19 47  1  6
 22 48  1  0
 23 49  1  0
 24 50  1  0
 25 51  1  0
 28 52  1  0
 29 53  1  0
 30 54  1  0
 31 55  1  0
 32 56  1  0
M  CHG  1   3  -1
M  END
>  <UniqueID>  (41) 
41

>  <SMILES>  (41) 
O=C([N-]c1cccc(S(=O)(=O)N2CCCCC2)c1)[C@@H](Sc1ccccn1)c1ccccc1

>  <Energy>  (41) 
67.15163684632765

>  <Genealogy>  (41) 
O=C([N-]c1cccc(S(=O)(=O)N2CCCCC2)c1)C(Sc1ccccn1)c1ccccc1 (protonated)
O=C([N-]c1cccc(S(=O)(=O)N2CCCCC2)c1)[C@@H](Sc1ccccn1)c1ccccc1 (chirality)
O=C([N-]c1cccc(S(=O)(=O)N2CCCCC2)c1)[C@@H](Sc1ccccn1)c1ccccc1 (3D coordinates assigned)
O=C([N-]c1cccc(S(=O)(=O)N2CCCCC2)c1)[C@@H](Sc1ccccn1)c1ccccc1 (nonaromatic ring conformer: 67.15163684632765 kcal/mol)

>  <smiles>  (41) 
O=C(Nc1cccc(S(=O)(=O)N2CCCCC2)c1)C(Sc1ccccn1)c1ccccc1

>  <score_type>  (41) 
oracle

>  <origin>  (41) 
adgpu

>  <m_score__min__energy>  (41) 
-12.140000000000001

>  <m_primary>  (41) 
energy

$$$$
41:0
     RDKit          3D

 53 56  0  0  0  0  0  0  0  0999 V2000
   -6.4490   15.6360  -34.1990 C   0  0  0  0  0  0  0  0  0  0  0  0
   -5.3230   16.6380  -33.9450 C   0  0  0  0  0  0  0  0  0  0  0  0
   -5.3740   17.7670  -34.9800 C   0  0  0  0  0  0  0  0  0  0  0  0
   -5.4730   17.1680  -32.6260 O   0  0  0  0  0  0  0  0  0  0  0  0
   -6.3510   18.1970  -32.2510 C   0  0  0  0  0  0  0  0  0  0  0  0
   -7.7370   18.1530  -32.5010 C   0  0  0  0  0  0  0  0  0  0  0  0
   -8.5530   19.2300  -32.1410 C   0  0  0  0  0  0  0  0  0  0  0  0
   -8.0000   20.3700  -31.5430 C   0  0  0  0  0  0  0  0  0  0  0  0
   -8.9980   21.7980  -31.2550 S   0  0  0  0  0  0  0  0  0  0  0  0
  -10.0250   21.9150  -32.3470 O   0  0  0  0  0  0  0  0  0  0  0  0
   -9.7230   21.6440  -29.9470 O   0  0  0  0  0  0  0  0  0  0  0  0
   -8.0220   23.2530  -31.2120 N   0  0  0  0  0  0  0  0  0  0  0  0
   -7.1690   23.2540  -29.9990 C   0  0  0  0  0  0  0  0  0  0  0  0
   -5.9570   24.1900  -30.1320 C   0  0  0  0  0  0  0  0  0  0  0  0
   -5.0580   23.8540  -31.3650 C   0  0  0  0  0  0  0  0  0  0  0  0
   -3.7360   23.3180  -30.9440 N   0  0  0  0  0  0  0  0  0  0  0  0
   -2.8720   24.0060  -30.1440 C   0  0  0  0  0  0  0  0  0  0  0  0
   -3.1150   25.2960  -29.6880 O   0  0  0  0  0  0  0  0  0  0  0  0
   -1.7330   23.3440  -29.8380 N   0  0  0  0  0  0  0  0  0  0  0  0
   -1.8730   22.1910  -30.5050 C   0  0  0  0  0  0  0  0  0  0  0  0
   -0.9470   21.1510  -30.5540 C   0  0  0  0  0  0  0  0  0  0  0  0
   -1.2370   20.0480  -31.3690 C   0  0  0  0  0  0  0  0  0  0  0  0
   -2.4200   20.0230  -32.1320 C   0  0  0  0  0  0  0  0  0  0  0  0
   -3.3340   21.0900  -32.0730 C   0  0  0  0  0  0  0  0  0  0  0  0
   -3.0550   22.1660  -31.2040 C   0  0  0  0  0  0  0  0  0  0  0  0
   -5.8200   22.9700  -32.3660 C   0  0  0  0  0  0  0  0  0  0  0  0
   -7.2760   23.4360  -32.4810 C   0  0  0  0  0  0  0  0  0  0  0  0
   -6.6270   20.4000  -31.2610 C   0  0  0  0  0  0  0  0  0  0  0  0
   -5.8120   19.3210  -31.6140 C   0  0  0  0  0  0  0  0  0  0  0  0
   -6.8478   15.2811  -33.2373 H   0  0  0  0  0  0  0  0  0  0  0  0
   -7.2518   16.1239  -34.7713 H   0  0  0  0  0  0  0  0  0  0  0  0
   -6.0577   14.7820  -34.7713 H   0  0  0  0  0  0  0  0  0  0  0  0
   -4.3490   16.1348  -34.0354 H   0  0  0  0  0  0  0  0  0  0  0  0
   -5.4178   18.7368  -34.4628 H   0  0  0  0  0  0  0  0  0  0  0  0
   -4.4732   17.7278  -35.6101 H   0  0  0  0  0  0  0  0  0  0  0  0
   -6.2676   17.6467  -35.6101 H   0  0  0  0  0  0  0  0  0  0  0  0
   -8.1790   17.2677  -32.9814 H   0  0  0  0  0  0  0  0  0  0  0  0
   -9.6358   19.1819  -32.3285 H   0  0  0  0  0  0  0  0  0  0  0  0
   -7.7753   23.5818  -29.1417 H   0  0  0  0  0  0  0  0  0  0  0  0
   -6.7878   22.2319  -29.8578 H   0  0  0  0  0  0  0  0  0  0  0  0
   -6.3214   25.2228  -30.2350 H   0  0  0  0  0  0  0  0  0  0  0  0
   -5.3405   24.0599  -29.2303 H   0  0  0  0  0  0  0  0  0  0  0  0
   -4.8234   24.7817  -31.9075 H   0  0  0  0  0  0  0  0  0  0  0  0
   -0.0157   21.1943  -29.9702 H   0  0  0  0  0  0  0  0  0  0  0  0
   -0.5383   19.1995  -31.4126 H   0  0  0  0  0  0  0  0  0  0  0  0
   -2.6314   19.1602  -32.7807 H   0  0  0  0  0  0  0  0  0  0  0  0
   -4.2449   21.0859  -32.6897 H   0  0  0  0  0  0  0  0  0  0  0  0
   -5.3375   23.0384  -33.3521 H   0  0  0  0  0  0  0  0  0  0  0  0
   -5.8029   21.9288  -32.0115 H   0  0  0  0  0  0  0  0  0  0  0  0
   -7.2869   24.5030  -32.7482 H   0  0  0  0  0  0  0  0  0  0  0  0
   -7.7670   22.8262  -33.2537 H   0  0  0  0  0  0  0  0  0  0  0  0
   -6.1896   21.2762  -30.7600 H   0  0  0  0  0  0  0  0  0  0  0  0
   -4.7358   19.3553  -31.3890 H   0  0  0  0  0  0  0  0  0  0  0  0
  1  2  1  0
  2  3  1  0
  2  4  1  0
  4  5  1  0
  5  6  2  0
  6  7  1  0
  7  8  2  0
  8  9  1  0
  9 10  2  0
  9 11  2  0
  9 12  1  0
 12 13  1  0
 13 14  1  0
 14 15  1  0
 15 16  1  0
 16 17  1  0
 17 18  1  0
 17 19  2  0
 19 20  1  0
 20 21  2  0
 21 22  1  0
 22 23  2  0
 23 24  1  0
 24 25  2  0
 15 26  1  0
 26 27  1  0
  8 28  1  0
 28 29  2  0
 29  5  1  0
 27 12  1  0
 25 16  1  0
 25 20  1  0
  1 30  1  0
  1 31  1  0
  1 32  1  0
  2 33  1  0
  3 34  1  0
  3 35  1  0
  3 36  1  0
  6 37  1  0
  7 38  1  0
 13 39  1  0
 13 40  1  0
 14 41  1  0
 14 42  1  0
 15 43  1  0
 21 44  1  0
 22 45  1  0
 23 46  1  0
 24 47  1  0
 26 48  1  0
 26 49  1  0
 27 50  1  0
 27 51  1  0
 28 52  1  0
 29 53  1  0
M  CHG  1  18  -1
M  END
>  <UniqueID>  (42) 
42

>  <SMILES>  (42) 
CC(C)Oc1ccc(S(=O)(=O)N2CCC(n3c([O-])nc4ccccc43)CC2)cc1

>  <Energy>  (42) 
105.94624450344816

>  <Genealogy>  (42) 
CC(C)Oc1ccc(S(=O)(=O)N2CCC(n3c([O-])nc4ccccc43)CC2)cc1 (3D coordinates assigned)
CC(C)Oc1ccc(S(=O)(=O)N2CCC(n3c([O-])nc4ccccc43)CC2)cc1 (nonaromatic ring conformer: 105.94624450344816 kcal/mol)

>  <smiles>  (42) 
CC(C)Oc1ccc(S(=O)(=O)N2CCC(n3c([O-])nc4ccccc43)CC2)cc1

>  <score_type>  (42) 
oracle

>  <origin>  (42) 
adgpu

>  <m_score__min__energy>  (42) 
-12.77

>  <m_primary>  (42) 
energy

$$$$
42:0
     RDKit          3D

 47 50  0  0  0  0  0  0  0  0999 V2000
   -4.3100   18.2700  -34.2400 C   0  0  0  0  0  0  0  0  0  0  0  0
   -5.0220   19.4350  -33.8340 O   0  0  0  0  0  0  0  0  0  0  0  0
   -6.2360   19.4270  -33.1290 C   0  0  0  0  0  0  0  0  0  0  0  0
   -6.9990   18.2490  -32.9990 C   0  0  0  0  0  0  0  0  0  0  0  0
   -8.2320   18.2730  -32.3430 C   0  0  0  0  0  0  0  0  0  0  0  0
   -8.7250   19.4680  -31.8250 C   0  0  0  0  0  0  0  0  0  0  0  0
   -7.9770   20.6410  -31.9400 C   0  0  0  0  0  0  0  0  0  0  0  0
   -6.7090   20.6290  -32.5520 C   0  0  0  0  0  0  0  0  0  0  0  0
   -5.9420   21.9330  -32.6730 C   0  0  0  0  0  0  0  0  0  0  0  0
   -5.9630   22.7170  -31.4230 N   0  0  0  0  0  0  0  0  0  0  0  0
   -7.0210   23.6830  -31.1890 C   0  0  0  0  0  0  0  0  0  0  0  0
   -8.0870   23.6380  -31.8620 O   0  0  0  0  0  0  0  0  0  0  0  0
   -6.8940   24.7310  -30.1020 C   0  0  0  0  0  0  0  0  0  0  0  0
   -5.4290   25.1210  -29.8260 C   0  0  0  0  0  0  0  0  0  0  0  0
   -4.5950   23.8810  -29.7410 C   0  0  0  0  0  0  0  0  0  0  0  0
   -3.4090   23.5980  -29.0830 C   0  0  0  0  0  0  0  0  0  0  0  0
   -2.6570   24.4680  -28.1590 C   0  0  0  0  0  0  0  0  0  0  0  0
   -3.1230   24.6540  -26.8470 C   0  0  0  0  0  0  0  0  0  0  0  0
   -2.4300   25.4860  -25.9640 C   0  0  0  0  0  0  0  0  0  0  0  0
   -1.2750   26.1520  -26.3870 C   0  0  0  0  0  0  0  0  0  0  0  0
   -0.4090   27.2000  -25.2790 Cl  0  0  0  0  0  0  0  0  0  0  0  0
   -0.8210   25.9920  -27.7000 C   0  0  0  0  0  0  0  0  0  0  0  0
   -1.5110   25.1590  -28.5850 C   0  0  0  0  0  0  0  0  0  0  0  0
   -3.0020   22.3570  -29.4280 N   0  0  0  0  0  0  0  0  0  0  0  0
   -3.8800   21.8550  -30.2880 N   0  0  0  0  0  0  0  0  0  0  0  0
   -3.8170   20.4730  -30.7470 C   0  0  0  0  0  0  0  0  0  0  0  0
   -4.8360   22.7840  -30.5220 C   0  0  0  0  0  0  0  0  0  0  0  0
   -3.9726   17.7179  -33.3504 H   0  0  0  0  0  0  0  0  0  0  0  0
   -4.9702   17.6279  -34.8415 H   0  0  0  0  0  0  0  0  0  0  0  0
   -3.4374   18.5646  -34.8415 H   0  0  0  0  0  0  0  0  0  0  0  0
   -6.6209   17.3044  -33.4170 H   0  0  0  0  0  0  0  0  0  0  0  0
   -8.8147   17.3462  -32.2354 H   0  0  0  0  0  0  0  0  0  0  0  0
   -9.7045   19.4876  -31.3249 H   0  0  0  0  0  0  0  0  0  0  0  0
   -8.3828   21.5853  -31.5481 H   0  0  0  0  0  0  0  0  0  0  0  0
   -4.8968   21.7054  -32.9295 H   0  0  0  0  0  0  0  0  0  0  0  0
   -6.4273   22.5358  -33.4547 H   0  0  0  0  0  0  0  0  0  0  0  0
   -7.4458   25.6303  -30.4130 H   0  0  0  0  0  0  0  0  0  0  0  0
   -7.3060   24.3035  -29.1760 H   0  0  0  0  0  0  0  0  0  0  0  0
   -5.0582   25.7581  -30.6425 H   0  0  0  0  0  0  0  0  0  0  0  0
   -5.3670   25.6728  -28.8764 H   0  0  0  0  0  0  0  0  0  0  0  0
   -4.0377   24.1423  -26.5132 H   0  0  0  0  0  0  0  0  0  0  0  0
   -2.7934   25.6175  -24.9341 H   0  0  0  0  0  0  0  0  0  0  0  0
    0.0814   26.5231  -28.0370 H   0  0  0  0  0  0  0  0  0  0  0  0
   -1.1550   25.0441  -29.6194 H   0  0  0  0  0  0  0  0  0  0  0  0
   -3.7863   19.7991  -29.8781 H   0  0  0  0  0  0  0  0  0  0  0  0
   -4.7058   20.2476  -31.3546 H   0  0  0  0  0  0  0  0  0  0  0  0
   -2.9114   20.3294  -31.3546 H   0  0  0  0  0  0  0  0  0  0  0  0
  1  2  1  0
  2  3  1  0
  3  4  2  0
  4  5  1  0
  5  6  2  0
  6  7  1  0
  7  8  2  0
  8  9  1  0
  9 10  1  0
 10 11  1  0
 11 12  2  0
 11 13  1  0
 13 14  1  0
 14 15  1  0
 15 16  1  0
 16 17  1  0
 17 18  2  0
 18 19  1  0
 19 20  2  0
 20 21  1  0
 20 22  1  0
 22 23  2  0
 16 24  2  0
 24 25  1  0
 25 26  1  0
 25 27  1  0
  8  3  1  0
 27 10  1  0
 27 15  2  0
 23 17  1  0
  1 28  1  0
  1 29  1  0
  1 30  1  0
  4 31  1  0
  5 32  1  0
  6 33  1  0
  7 34  1  0
  9 35  1  0
  9 36  1  0
 13 37  1  0
 13 38  1  0
 14 39  1  0
 14 40  1  0
 18 41  1  0
 19 42  1  0
 22 43  1  0
 23 44  1  0
 26 45  1  0
 26 46  1  0
 26 47  1  0
M  END
>  <UniqueID>  (43) 
43

>  <SMILES>  (43) 
COc1ccccc1CN1C(=O)CCc2c(-c3ccc(Cl)cc3)nn(C)c21

>  <Energy>  (43) 
94.72686927406656

>  <Genealogy>  (43) 
COc1ccccc1CN1C(=O)CCc2c(-c3ccc(Cl)cc3)nn(C)c21 (3D coordinates assigned)
COc1ccccc1CN1C(=O)CCc2c(-c3ccc(Cl)cc3)nn(C)c21 (nonaromatic ring conformer: 94.72686927406656 kcal/mol)

>  <smiles>  (43) 
COc1ccccc1CN1C(=O)CCc2c(-c3ccc(Cl)cc3)nn(C)c21

>  <score_type>  (43) 
oracle

>  <origin>  (43) 
adgpu

>  <m_score__min__energy>  (43) 
-8.7400000000000002

>  <m_primary>  (43) 
energy

$$$$
43:0
     RDKit          3D

 47 49  0  0  0  0  0  0  0  0999 V2000
   -9.3900   17.9890  -31.5920 C   0  0  0  0  0  0  0  0  0  0  0  0
   -8.2830   18.8840  -31.2320 N   0  0  0  0  0  0  0  0  0  0  0  0
   -7.0020   18.2810  -31.6250 C   0  0  0  0  0  0  0  0  0  0  0  0
   -8.4760   20.4130  -32.0550 S   0  0  0  0  0  0  0  0  0  0  0  0
   -8.9700   20.1760  -33.4560 O   0  0  0  0  0  0  0  0  0  0  0  0
   -9.4830   21.2660  -31.3330 O   0  0  0  0  0  0  0  0  0  0  0  0
   -6.9310   21.2560  -32.1380 C   0  0  0  0  0  0  0  0  0  0  0  0
   -5.9250   20.7930  -32.9970 C   0  0  0  0  0  0  0  0  0  0  0  0
   -4.7110   21.4750  -33.0890 C   0  0  0  0  0  0  0  0  0  0  0  0
   -4.4950   22.6240  -32.3230 C   0  0  0  0  0  0  0  0  0  0  0  0
   -5.4880   23.0870  -31.4500 C   0  0  0  0  0  0  0  0  0  0  0  0
   -5.2400   24.5960  -30.5680 S   0  0  0  0  0  0  0  0  0  0  0  0
   -5.9610   25.7480  -31.2370 O   0  0  0  0  0  0  0  0  0  0  0  0
   -5.7890   24.4190  -29.1700 O   0  0  0  0  0  0  0  0  0  0  0  0
   -3.5390   24.9430  -30.4790 N   0  0  0  0  0  0  0  0  0  0  0  0
   -2.6140   24.1910  -29.6890 C   0  0  0  0  0  0  0  0  0  0  0  0
   -2.6660   22.7920  -29.6450 C   0  0  0  0  0  0  0  0  0  0  0  0
   -1.8340   22.0780  -28.7710 C   0  0  0  0  0  0  0  0  0  0  0  0
   -0.9280   22.7640  -27.9580 C   0  0  0  0  0  0  0  0  0  0  0  0
   -0.8370   24.1570  -28.0380 C   0  0  0  0  0  0  0  0  0  0  0  0
   -1.6720   24.8670  -28.9060 C   0  0  0  0  0  0  0  0  0  0  0  0
   -1.5840   26.2510  -28.9620 O   0  0  0  0  0  0  0  0  0  0  0  0
   -0.1240   21.9840  -26.9580 C   0  0  0  0  0  0  0  0  0  0  0  0
    0.4340   20.6960  -27.5840 C   0  0  0  0  0  0  0  0  0  0  0  0
   -0.5800   19.9200  -28.4650 C   0  0  0  0  0  0  0  0  0  0  0  0
   -1.9610   20.5880  -28.6090 C   0  0  0  0  0  0  0  0  0  0  0  0
   -6.7030   22.3930  -31.3500 C   0  0  0  0  0  0  0  0  0  0  0  0
   -9.8642   17.6057  -30.6765 H   0  0  0  0  0  0  0  0  0  0  0  0
  -10.1322   18.5439  -32.1846 H   0  0  0  0  0  0  0  0  0  0  0  0
   -9.0029   17.1470  -32.1846 H   0  0  0  0  0  0  0  0  0  0  0  0
   -6.4314   18.0124  -30.7238 H   0  0  0  0  0  0  0  0  0  0  0  0
   -7.1903   17.3770  -32.2227 H   0  0  0  0  0  0  0  0  0  0  0  0
   -6.4253   19.0022  -32.2227 H   0  0  0  0  0  0  0  0  0  0  0  0
   -6.0929   19.8889  -33.6007 H   0  0  0  0  0  0  0  0  0  0  0  0
   -3.9240   21.1083  -33.7644 H   0  0  0  0  0  0  0  0  0  0  0  0
   -3.5418   23.1667  -32.4060 H   0  0  0  0  0  0  0  0  0  0  0  0
   -3.3639   22.2501  -30.3002 H   0  0  0  0  0  0  0  0  0  0  0  0
   -0.1066   24.6956  -27.4164 H   0  0  0  0  0  0  0  0  0  0  0  0
    0.7131   22.6050  -26.6065 H   0  0  0  0  0  0  0  0  0  0  0  0
   -0.7797   21.7100  -26.1184 H   0  0  0  0  0  0  0  0  0  0  0  0
    1.2985   20.9639  -28.2092 H   0  0  0  0  0  0  0  0  0  0  0  0
    0.6983   20.0303  -26.7492 H   0  0  0  0  0  0  0  0  0  0  0  0
   -0.1464   19.8122  -29.4702 H   0  0  0  0  0  0  0  0  0  0  0  0
   -0.7543   18.9586  -27.9596 H   0  0  0  0  0  0  0  0  0  0  0  0
   -2.4689   20.1737  -29.4924 H   0  0  0  0  0  0  0  0  0  0  0  0
   -2.5407   20.3865  -27.6961 H   0  0  0  0  0  0  0  0  0  0  0  0
   -7.4784   22.7416  -30.6520 H   0  0  0  0  0  0  0  0  0  0  0  0
  1  2  1  0
  2  3  1  0
  2  4  1  0
  4  5  2  0
  4  6  2  0
  4  7  1  0
  7  8  2  0
  8  9  1  0
  9 10  2  0
 10 11  1  0
 11 12  1  0
 12 13  2  0
 12 14  2  0
 12 15  1  0
 15 16  1  0
 16 17  2  0
 17 18  1  0
 18 19  2  0
 19 20  1  0
 20 21  2  0
 21 22  1  0
 19 23  1  0
 23 24  1  0
 24 25  1  0
 25 26  1  0
 11 27  2  0
 27  7  1  0
 21 16  1  0
 26 18  1  0
  1 28  1  0
  1 29  1  0
  1 30  1  0
  3 31  1  0
  3 32  1  0
  3 33  1  0
  8 34  1  0
  9 35  1  0
 10 36  1  0
 17 37  1  0
 20 38  1  0
 23 39  1  0
 23 40  1  0
 24 41  1  0
 24 42  1  0
 25 43  1  0
 25 44  1  0
 26 45  1  0
 26 46  1  0
 27 47  1  0
M  CHG  2  15  -1  22  -1
M  END
>  <UniqueID>  (44) 
44

>  <SMILES>  (44) 
CN(C)S(=O)(=O)c1cccc(S(=O)(=O)[N-]c2cc3c(cc2[O-])CCCC3)c1

>  <Energy>  (44) 
54.97901703611305

>  <Genealogy>  (44) 
CN(C)S(=O)(=O)c1cccc(S(=O)(=O)[N-]c2cc3c(cc2[O-])CCCC3)c1 (protonated)
CN(C)S(=O)(=O)c1cccc(S(=O)(=O)[N-]c2cc3c(cc2[O-])CCCC3)c1 (3D coordinates assigned)
CN(C)S(=O)(=O)c1cccc(S(=O)(=O)[N-]c2cc3c(cc2[O-])CCCC3)c1 (nonaromatic ring conformer: 54.97901703611305 kcal/mol)

>  <smiles>  (44) 
CN(C)S(=O)(=O)c1cccc(S(=O)(=O)Nc2cc3c(cc2O)CCCC3)c1

>  <score_type>  (44) 
oracle

>  <origin>  (44) 
adgpu

>  <m_score__min__energy>  (44) 
-14.19

>  <m_primary>  (44) 
energy

$$$$
44:0
     RDKit          3D

 57 59  0  0  0  0  0  0  0  0999 V2000
   -7.0090   24.2810  -30.3340 C   0  0  0  0  0  0  0  0  0  0  0  0
   -7.6210   23.7940  -31.5240 O   0  0  0  0  0  0  0  0  0  0  0  0
   -7.9440   22.4480  -31.7600 C   0  0  0  0  0  0  0  0  0  0  0  0
   -9.2720   22.0270  -31.9670 C   0  0  0  0  0  0  0  0  0  0  0  0
   -9.5540   20.6880  -32.2500 C   0  0  0  0  0  0  0  0  0  0  0  0
   -8.5170   19.7580  -32.3380 C   0  0  0  0  0  0  0  0  0  0  0  0
   -7.1980   20.1610  -32.1290 C   0  0  0  0  0  0  0  0  0  0  0  0
   -6.9040   21.4960  -31.8160 C   0  0  0  0  0  0  0  0  0  0  0  0
   -5.5370   21.8750  -31.6060 N   0  0  0  0  0  0  0  0  0  0  0  0
   -4.4470   21.3090  -32.3470 C   0  0  0  0  0  0  0  0  0  0  0  0
   -4.6450   20.3640  -33.1590 O   0  0  0  0  0  0  0  0  0  0  0  0
   -3.0770   21.9080  -32.2420 C   0  0  0  0  0  0  0  0  0  0  0  0
   -2.7290   22.1240  -30.8360 N   0  0  0  0  0  0  0  0  0  0  0  0
   -1.8420   21.2210  -30.1700 C   0  0  0  0  0  0  0  0  0  0  0  0
   -0.6180   20.7720  -30.6250 C   0  0  0  0  0  0  0  0  0  0  0  0
    0.0430   21.1450  -31.9100 C   0  0  0  0  0  0  0  0  0  0  0  0
   -0.0450   20.0100  -29.6710 N   0  0  0  0  0  0  0  0  0  0  0  0
   -0.8800   19.9600  -28.6420 N   0  0  0  0  0  0  0  0  0  0  0  0
   -0.6060   19.2180  -27.4170 C   0  0  0  0  0  0  0  0  0  0  0  0
   -1.9890   20.6820  -28.9110 C   0  0  0  0  0  0  0  0  0  0  0  0
   -3.1210   20.9130  -27.9570 C   0  0  0  0  0  0  0  0  0  0  0  0
   -3.5220   23.3650  -29.9150 S   0  0  0  0  0  0  0  0  0  0  0  0
   -3.9900   24.4530  -30.8400 O   0  0  0  0  0  0  0  0  0  0  0  0
   -4.7220   22.7930  -29.2120 O   0  0  0  0  0  0  0  0  0  0  0  0
   -2.4060   24.0150  -28.7200 C   0  0  0  0  0  0  0  0  0  0  0  0
   -2.8790   24.4050  -27.4600 C   0  0  0  0  0  0  0  0  0  0  0  0
   -1.9860   24.8470  -26.4810 C   0  0  0  0  0  0  0  0  0  0  0  0
   -0.6120   24.9210  -26.7560 C   0  0  0  0  0  0  0  0  0  0  0  0
    0.3500   25.3380  -25.6840 C   0  0  0  0  0  0  0  0  0  0  0  0
   -0.1410   24.5280  -28.0180 C   0  0  0  0  0  0  0  0  0  0  0  0
   -1.0350   24.0830  -28.9970 C   0  0  0  0  0  0  0  0  0  0  0  0
   -7.5296   23.8668  -29.4580 H   0  0  0  0  0  0  0  0  0  0  0  0
   -5.9531   23.9734  -30.3124 H   0  0  0  0  0  0  0  0  0  0  0  0
   -7.0716   25.3790  -30.3124 H   0  0  0  0  0  0  0  0  0  0  0  0
  -10.0925   22.7570  -31.9055 H   0  0  0  0  0  0  0  0  0  0  0  0
  -10.5947   20.3664  -32.4036 H   0  0  0  0  0  0  0  0  0  0  0  0
   -8.7400   18.7066  -32.5723 H   0  0  0  0  0  0  0  0  0  0  0  0
   -6.3830   19.4267  -32.2103 H   0  0  0  0  0  0  0  0  0  0  0  0
   -5.3580   22.7440  -31.0590 H   0  0  0  0  0  0  0  0  0  0  0  0
   -2.3451   21.2245  -32.6972 H   0  0  0  0  0  0  0  0  0  0  0  0
   -3.0648   22.8737  -32.7685 H   0  0  0  0  0  0  0  0  0  0  0  0
    0.9831   21.6755  -31.6983 H   0  0  0  0  0  0  0  0  0  0  0  0
    0.2580   20.2350  -32.4894 H   0  0  0  0  0  0  0  0  0  0  0  0
   -0.6248   21.7994  -32.4894 H   0  0  0  0  0  0  0  0  0  0  0  0
   -0.8389   19.8487  -26.5464 H   0  0  0  0  0  0  0  0  0  0  0  0
   -1.2287   18.3116  -27.3902 H   0  0  0  0  0  0  0  0  0  0  0  0
    0.4563   18.9339  -27.3902 H   0  0  0  0  0  0  0  0  0  0  0  0
   -2.7510   20.8375  -26.9238 H   0  0  0  0  0  0  0  0  0  0  0  0
   -3.5420   21.9156  -28.1234 H   0  0  0  0  0  0  0  0  0  0  0  0
   -3.9011   20.1555  -28.1234 H   0  0  0  0  0  0  0  0  0  0  0  0
   -3.9562   24.3630  -27.2413 H   0  0  0  0  0  0  0  0  0  0  0  0
   -2.3619   25.1386  -25.4892 H   0  0  0  0  0  0  0  0  0  0  0  0
   -0.0950   25.1451  -24.6967 H   0  0  0  0  0  0  0  0  0  0  0  0
    1.2826   24.7633  -25.7844 H   0  0  0  0  0  0  0  0  0  0  0  0
    0.5682   26.4115  -25.7844 H   0  0  0  0  0  0  0  0  0  0  0  0
    0.9359   24.5701  -28.2382 H   0  0  0  0  0  0  0  0  0  0  0  0
   -0.6602   23.7855  -29.9875 H   0  0  0  0  0  0  0  0  0  0  0  0
  1  2  1  0
  2  3  1  0
  3  4  2  0
  4  5  1  0
  5  6  2  0
  6  7  1  0
  7  8  2  0
  8  9  1  0
  9 10  1  0
 10 11  2  0
 10 12  1  0
 12 13  1  0
 13 14  1  0
 14 15  1  0
 15 16  1  0
 15 17  2  0
 17 18  1  0
 18 19  1  0
 18 20  1  0
 20 21  1  0
 13 22  1  0
 22 23  2  0
 22 24  2  0
 22 25  1  0
 25 26  2  0
 26 27  1  0
 27 28  2  0
 28 29  1  0
 28 30  1  0
 30 31  2  0
  8  3  1  0
 20 14  2  0
 31 25  1  0
  1 32  1  0
  1 33  1  0
  1 34  1  0
  4 35  1  0
  5 36  1  0
  6 37  1  0
  7 38  1  0
  9 39  1  0
 12 40  1  0
 12 41  1  0
 16 42  1  0
 16 43  1  0
 16 44  1  0
 19 45  1  0
 19 46  1  0
 19 47  1  0
 21 48  1  0
 21 49  1  0
 21 50  1  0
 26 51  1  0
 27 52  1  0
 29 53  1  0
 29 54  1  0
 29 55  1  0
 30 56  1  0
 31 57  1  0
M  END
>  <UniqueID>  (45) 
45

>  <SMILES>  (45) 
COc1ccccc1NC(=O)CN(c1c(C)nn(C)c1C)S(=O)(=O)c1ccc(C)cc1

>  <Energy>  (45) 
90.84385810795867

>  <Genealogy>  (45) 
COc1ccccc1NC(=O)CN(c1c(C)nn(C)c1C)S(=O)(=O)c1ccc(C)cc1 (3D coordinates assigned)
COc1ccccc1NC(=O)CN(c1c(C)nn(C)c1C)S(=O)(=O)c1ccc(C)cc1 (optimized conformer: 90.84385810795867 kcal/mol)

>  <smiles>  (45) 
COc1ccccc1NC(=O)CN(c1c(C)nn(C)c1C)S(=O)(=O)c1ccc(C)cc1

>  <score_type>  (45) 
oracle

>  <origin>  (45) 
adgpu

>  <m_score__min__energy>  (45) 
-8.9000000000000004

>  <m_primary>  (45) 
energy

$$$$
45:0
     RDKit          3D

 44 46  0  0  0  0  0  0  0  0999 V2000
   -0.1170   21.5290  -34.5790 C   0  0  0  0  0  0  0  0  0  0  0  0
   -0.4300   20.2900  -33.9530 O   0  0  0  0  0  0  0  0  0  0  0  0
   -1.7360   19.8220  -33.7340 C   0  0  0  0  0  0  0  0  0  0  0  0
   -2.8450   20.6840  -33.6720 C   0  0  0  0  0  0  0  0  0  0  0  0
   -4.1260   20.1690  -33.4560 C   0  0  0  0  0  0  0  0  0  0  0  0
   -4.3270   18.7870  -33.3180 C   0  0  0  0  0  0  0  0  0  0  0  0
   -5.7250   18.2430  -33.0820 C   0  0  1  0  0  0  0  0  0  0  0  0
   -6.7390   19.1640  -33.6090 N   0  0  0  0  0  0  0  0  0  0  0  0
   -7.6090   19.9130  -32.7560 C   0  0  0  0  0  0  0  0  0  0  0  0
   -7.6920   21.2260  -32.3190 C   0  0  0  0  0  0  0  0  0  0  0  0
   -6.8950   22.4010  -32.4910 N   0  0  0  0  0  0  0  0  0  0  0  0
   -5.7840   22.7300  -31.6470 C   0  0  0  0  0  0  0  0  0  0  0  0
   -5.0490   21.7000  -31.0460 C   0  0  0  0  0  0  0  0  0  0  0  0
   -3.9360   21.9920  -30.2460 C   0  0  0  0  0  0  0  0  0  0  0  0
   -3.1930   20.9360  -29.6350 N   0  0  0  0  0  0  0  0  0  0  0  0
   -3.5490   23.3260  -30.0590 C   0  0  0  0  0  0  0  0  0  0  0  0
   -4.2630   24.3580  -30.6760 C   0  0  0  0  0  0  0  0  0  0  0  0
   -3.8570   25.6770  -30.5110 O   0  0  0  0  0  0  0  0  0  0  0  0
   -5.3740   24.0620  -31.4700 C   0  0  0  0  0  0  0  0  0  0  0  0
   -8.8390   20.9120  -31.6130 C   0  0  0  0  0  0  0  0  0  0  0  0
   -9.6280   21.5460  -30.8660 O   0  0  0  0  0  0  0  0  0  0  0  0
   -8.7580   19.6100  -32.0560 C   0  0  0  0  0  0  0  0  0  0  0  0
   -9.4520   18.5720  -31.8950 O   0  0  0  0  0  0  0  0  0  0  0  0
   -5.8760   16.8480  -33.7080 C   0  0  0  0  0  0  0  0  0  0  0  0
   -5.2780   16.8230  -34.9570 F   0  0  0  0  0  0  0  0  0  0  0  0
   -7.2120   16.5130  -33.8400 F   0  0  0  0  0  0  0  0  0  0  0  0
   -5.2540   15.9080  -32.9050 F   0  0  0  0  0  0  0  0  0  0  0  0
   -3.2110   17.9300  -33.3560 C   0  0  0  0  0  0  0  0  0  0  0  0
   -1.9320   18.4450  -33.5750 C   0  0  0  0  0  0  0  0  0  0  0  0
    0.0754   22.2906  -33.8089 H   0  0  0  0  0  0  0  0  0  0  0  0
    0.7786   21.4071  -35.2060 H   0  0  0  0  0  0  0  0  0  0  0  0
   -0.9630   21.8471  -35.2060 H   0  0  0  0  0  0  0  0  0  0  0  0
   -2.7038   21.7681  -33.7940 H   0  0  0  0  0  0  0  0  0  0  0  0
   -4.9849   20.8534  -33.3936 H   0  0  0  0  0  0  0  0  0  0  0  0
   -5.8797   18.1514  -31.9968 H   0  0  0  0  0  0  0  0  0  0  0  0
   -6.8180   19.3230  -34.6380 H   0  0  0  0  0  0  0  0  0  0  0  0
   -7.0870   23.0100  -33.3150 H   0  0  0  0  0  0  0  0  0  0  0  0
   -5.3480   20.6532  -31.2033 H   0  0  0  0  0  0  0  0  0  0  0  0
   -3.2010   20.8110  -28.6000 H   0  0  0  0  0  0  0  0  0  0  0  0
   -2.6440   20.2600  -30.2100 H   0  0  0  0  0  0  0  0  0  0  0  0
   -2.6814   23.5618  -29.4253 H   0  0  0  0  0  0  0  0  0  0  0  0
   -5.9301   24.8756  -31.9587 H   0  0  0  0  0  0  0  0  0  0  0  0
   -3.3475   16.8480  -33.2123 H   0  0  0  0  0  0  0  0  0  0  0  0
   -1.0705   17.7627  -33.6231 H   0  0  0  0  0  0  0  0  0  0  0  0
  1  2  1  0
  2  3  1  0
  3  4  2  0
  4  5  1  0
  5  6  2  0
  6  7  1  0
  7  8  1  0
  8  9  1  0
  9 10  2  0
 10 11  1  0
 11 12  1  0
 12 13  2  0
 13 14  1  0
 14 15  1  0
 14 16  2  0
 16 17  1  0
 17 18  1  0
 17 19  2  0
 10 20  1  0
 20 21  2  0
 20 22  1  0
 22 23  2  0
  7 24  1  0
 24 25  1  0
 24 26  1  0
 24 27  1  0
  6 28  1  0
 28 29  2  0
 29  3  1  0
 22  9  1  0
 19 12  1  0
  1 30  1  0
  1 31  1  0
  1 32  1  0
  4 33  1  0
  5 34  1  0
  7 35  1  1
  8 36  1  0
 11 37  1  0
 13 38  1  0
 15 39  1  0
 15 40  1  0
 16 41  1  0
 19 42  1  0
 28 43  1  0
 29 44  1  0
M  CHG  1  18  -1
M  END
>  <UniqueID>  (46) 
46

>  <SMILES>  (46) 
COc1ccc([C@@H](Nc2c(Nc3cc(N)cc([O-])c3)c(=O)c2=O)C(F)(F)F)cc1

>  <Energy>  (46) 
34.38828144319409

>  <Genealogy>  (46) 
COc1ccc(C(Nc2c(Nc3cc(N)cc([O-])c3)c(=O)c2=O)C(F)(F)F)cc1 (protonated)
COc1ccc([C@@H](Nc2c(Nc3cc(N)cc([O-])c3)c(=O)c2=O)C(F)(F)F)cc1 (chirality)
COc1ccc([C@@H](Nc2c(Nc3cc(N)cc([O-])c3)c(=O)c2=O)C(F)(F)F)cc1 (3D coordinates assigned)
COc1ccc([C@@H](Nc2c(Nc3cc(N)cc([O-])c3)c(=O)c2=O)C(F)(F)F)cc1 (optimized conformer: 34.38828144319409 kcal/mol)

>  <smiles>  (46) 
COc1ccc(C(Nc2c(Nc3cc(N)cc(O)c3)c(=O)c2=O)C(F)(F)F)cc1

>  <score_type>  (46) 
oracle

>  <origin>  (46) 
adgpu

>  <m_score__min__energy>  (46) 
-10.32

>  <m_primary>  (46) 
energy

$$$$
46:0
     RDKit          3D

 40 42  0  0  0  0  0  0  0  0999 V2000
   -9.7500   21.1610  -31.9380 C   0  0  0  0  0  0  0  0  0  0  0  0
   -9.2720   19.8210  -31.9870 O   0  0  0  0  0  0  0  0  0  0  0  0
   -7.9590   19.4620  -32.3260 C   0  0  0  0  0  0  0  0  0  0  0  0
   -7.2040   18.5510  -31.5630 C   0  0  0  0  0  0  0  0  0  0  0  0
   -5.8980   18.2290  -31.9400 C   0  0  0  0  0  0  0  0  0  0  0  0
   -5.3190   18.8180  -33.0770 C   0  0  0  0  0  0  0  0  0  0  0  0
   -3.9290   18.4880  -33.4720 C   0  0  0  0  0  0  0  0  0  0  0  0
   -3.7040   17.3400  -34.2530 C   0  0  0  0  0  0  0  0  0  0  0  0
   -2.4060   16.9570  -34.5950 C   0  0  0  0  0  0  0  0  0  0  0  0
   -1.3160   17.7120  -34.1650 C   0  0  0  0  0  0  0  0  0  0  0  0
   -1.5200   18.8610  -33.4000 C   0  0  0  0  0  0  0  0  0  0  0  0
   -2.8200   19.2710  -33.0550 C   0  0  0  0  0  0  0  0  0  0  0  0
   -2.9890   20.5360  -32.2990 C   0  0  0  0  0  0  0  0  0  0  0  0
   -3.9360   21.4910  -32.7080 C   0  0  0  0  0  0  0  0  0  0  0  0
   -4.1020   22.6750  -31.9850 C   0  0  0  0  0  0  0  0  0  0  0  0
   -3.3210   22.9230  -30.8490 C   0  0  0  0  0  0  0  0  0  0  0  0
   -3.5230   24.4200  -29.9430 S   0  0  0  0  0  0  0  0  0  0  0  0
   -1.9890   24.9430  -29.3470 N   0  0  0  0  0  0  0  0  0  0  0  0
   -4.1010   25.4810  -30.8360 O   0  0  0  0  0  0  0  0  0  0  0  0
   -4.4610   24.1960  -28.7910 O   0  0  0  0  0  0  0  0  0  0  0  0
   -2.3610   21.9840  -30.4510 C   0  0  0  0  0  0  0  0  0  0  0  0
   -2.1940   20.7980  -31.1710 C   0  0  0  0  0  0  0  0  0  0  0  0
   -6.0790   19.7150  -33.8440 C   0  0  0  0  0  0  0  0  0  0  0  0
   -7.3860   20.0350  -33.4670 C   0  0  0  0  0  0  0  0  0  0  0  0
   -9.8611   21.4725  -30.8889 H   0  0  0  0  0  0  0  0  0  0  0  0
   -9.0332   21.8247  -32.4436 H   0  0  0  0  0  0  0  0  0  0  0  0
  -10.7251   21.2212  -32.4436 H   0  0  0  0  0  0  0  0  0  0  0  0
   -7.6444   18.0908  -30.6662 H   0  0  0  0  0  0  0  0  0  0  0  0
   -5.3188   17.5094  -31.3427 H   0  0  0  0  0  0  0  0  0  0  0  0
   -4.5584   16.7388  -34.5973 H   0  0  0  0  0  0  0  0  0  0  0  0
   -2.2428   16.0567  -35.2056 H   0  0  0  0  0  0  0  0  0  0  0  0
   -0.2942   17.4018  -34.4290 H   0  0  0  0  0  0  0  0  0  0  0  0
   -0.6553   19.4519  -33.0635 H   0  0  0  0  0  0  0  0  0  0  0  0
   -4.5495   21.3052  -33.6019 H   0  0  0  0  0  0  0  0  0  0  0  0
   -4.8486   23.4150  -32.3090 H   0  0  0  0  0  0  0  0  0  0  0  0
   -1.6090   25.6270  -30.0390 H   0  0  0  0  0  0  0  0  0  0  0  0
   -1.7357   22.1810  -29.5677 H   0  0  0  0  0  0  0  0  0  0  0  0
   -1.4366   20.0664  -30.8530 H   0  0  0  0  0  0  0  0  0  0  0  0
   -5.6434   20.1684  -34.7466 H   0  0  0  0  0  0  0  0  0  0  0  0
   -7.9698   20.7438  -34.0726 H   0  0  0  0  0  0  0  0  0  0  0  0
  1  2  1  0
  2  3  1  0
  3  4  2  0
  4  5  1  0
  5  6  2  0
  6  7  1  0
  7  8  2  0
  8  9  1  0
  9 10  2  0
 10 11  1  0
 11 12  2  0
 12 13  1  0
 13 14  2  0
 14 15  1  0
 15 16  2  0
 16 17  1  0
 17 18  1  0
 17 19  2  0
 17 20  2  0
 16 21  1  0
 21 22  2  0
  6 23  1  0
 23 24  2  0
 24  3  1  0
 12  7  1  0
 22 13  1  0
  1 25  1  0
  1 26  1  0
  1 27  1  0
  4 28  1  0
  5 29  1  0
  8 30  1  0
  9 31  1  0
 10 32  1  0
 11 33  1  0
 14 34  1  0
 15 35  1  0
 18 36  1  0
 21 37  1  0
 22 38  1  0
 23 39  1  0
 24 40  1  0
M  CHG  1  18  -1
M  END
>  <UniqueID>  (47) 
47

>  <SMILES>  (47) 
COc1ccc(-c2ccccc2-c2ccc(S([NH-])(=O)=O)cc2)cc1

>  <Energy>  (47) 
54.25039650644707

>  <Genealogy>  (47) 
COc1ccc(-c2ccccc2-c2ccc(S([NH-])(=O)=O)cc2)cc1 (protonated)
COc1ccc(-c2ccccc2-c2ccc(S([NH-])(=O)=O)cc2)cc1 (3D coordinates assigned)
COc1ccc(-c2ccccc2-c2ccc(S([NH-])(=O)=O)cc2)cc1 (optimized conformer: 54.25039650644707 kcal/mol)

>  <smiles>  (47) 
COc1ccc(-c2ccccc2-c2ccc(S(N)(=O)=O)cc2)cc1

>  <score_type>  (47) 
oracle

>  <origin>  (47) 
adgpu

>  <m_score__min__energy>  (47) 
-10.699999999999999

>  <m_primary>  (47) 
energy

$$$$
47:0
     RDKit          3D

 79 83  0  0  1  0  0  0  0  0999 V2000
   -2.5290   15.4460  -36.5270 C   0  0  0  0  0  0  0  0  0  0  0  0
   -3.0150   16.1720  -35.4320 O   0  0  0  0  0  0  0  0  0  0  0  0
   -2.2750   16.3990  -34.2940 C   0  0  0  0  0  0  0  0  0  0  0  0
   -1.8670   17.6980  -33.9690 C   0  0  0  0  0  0  0  0  0  0  0  0
   -1.1240   17.9690  -32.8350 C   0  0  0  0  0  0  0  0  0  0  0  0
   -0.7550   19.2970  -32.5410 N   0  0  0  0  0  0  0  0  0  0  0  0
   -1.3830   20.3960  -33.2660 C   0  0  0  0  0  0  0  0  0  0  0  0
   -1.6360   21.5620  -32.3190 C   0  0  0  0  0  0  0  0  0  0  0  0
   -0.4790   21.9120  -31.6350 O   0  0  0  0  0  0  0  0  0  0  0  0
   -0.2000   20.8780  -30.7380 C   0  0  0  0  0  0  0  0  0  0  0  0
    0.2370   19.6790  -31.5540 C   0  0  0  0  0  0  0  0  0  0  0  0
   -0.8050   16.8830  -32.0400 C   0  0  0  0  0  0  0  0  0  0  0  0
   -1.2040   15.5860  -32.3510 C   0  0  0  0  0  0  0  0  0  0  0  0
   -1.9440   15.3250  -33.4790 C   0  0  0  0  0  0  0  0  0  0  0  0
   -2.4020   14.0460  -33.8680 N   0  0  0  0  0  0  0  0  0  0  0  0
   -3.6530   13.8580  -34.0760 C   0  0  0  0  0  0  0  0  0  0  0  0
   -4.0060   12.5920  -34.4470 N   0  0  0  0  0  0  0  0  0  0  0  0
   -5.2950   12.2670  -34.6970 C   0  0  0  0  0  0  0  0  0  0  0  0
   -6.2480   13.2380  -34.5700 C   0  0  0  0  0  0  0  0  0  0  0  0
   -7.9420   12.8790  -34.8790 Cl  0  0  0  0  0  0  0  0  0  0  0  0
   -5.8450   14.4990  -34.1930 C   0  0  0  0  0  0  0  0  0  0  0  0
   -6.7450   15.4010  -34.0790 N   0  0  0  0  0  0  0  0  0  0  0  0
   -6.5210   16.7500  -33.7040 C   0  0  0  0  0  0  0  0  0  0  0  0
   -6.7570   17.0880  -32.3780 C   0  0  0  0  0  0  0  0  0  0  0  0
   -6.5840   18.3840  -31.9250 C   0  0  0  0  0  0  0  0  0  0  0  0
   -6.1640   19.3920  -32.7970 C   0  0  0  0  0  0  0  0  0  0  0  0
   -5.9940   20.7610  -32.3130 C   0  0  0  0  0  0  0  0  0  0  0  0
   -6.9850   21.6640  -32.6900 C   0  0  0  0  0  0  0  0  0  0  0  0
   -6.8660   22.9530  -32.2660 C   0  0  0  0  0  0  0  0  0  0  0  0
   -5.7910   23.3340  -31.4840 C   0  0  0  0  0  0  0  0  0  0  0  0
   -4.7950   22.4610  -31.0950 C   0  0  0  0  0  0  0  0  0  0  0  0
   -3.6580   22.8720  -30.2690 C   0  0  0  0  0  0  0  0  0  0  0  0
   -3.2290   24.0510  -30.4560 O   0  0  0  0  0  0  0  0  0  0  0  0
   -3.0410   22.0580  -29.3150 N   0  0  0  0  0  0  0  0  0  0  0  0
   -1.9120   22.4280  -28.4870 C   0  0  0  0  0  0  0  0  0  0  0  0
   -1.6810   21.3420  -27.4840 C   0  0  0  0  0  0  0  0  0  0  0  0
   -2.0430   20.0220  -27.9030 N   0  0  0  0  0  0  0  0  0  0  0  0
   -0.9290   19.1120  -28.0190 C   0  0  0  0  0  0  0  0  0  0  0  0
   -2.8820   19.4750  -26.8250 C   0  0  0  0  0  0  0  0  0  0  0  0
   -4.9260   21.1520  -31.5330 C   0  0  0  0  0  0  0  0  0  0  0  0
   -5.9350   19.0270  -34.1100 C   0  0  0  0  0  0  0  0  0  0  0  0
   -6.1050   17.7340  -34.5730 C   0  0  0  0  0  0  0  0  0  0  0  0
   -4.5690   14.8370  -33.9420 N   0  0  0  0  0  0  0  0  0  0  0  0
   -1.9508   14.5823  -36.1668 H   0  0  0  0  0  0  0  0  0  0  0  0
   -3.3736   15.0932  -37.1370 H   0  0  0  0  0  0  0  0  0  0  0  0
   -1.8809   16.0924  -37.1370 H   0  0  0  0  0  0  0  0  0  0  0  0
   -2.1457   18.5275  -34.6355 H   0  0  0  0  0  0  0  0  0  0  0  0
   -0.7187   20.7237  -34.0792 H   0  0  0  0  0  0  0  0  0  0  0  0
   -2.3410   20.0540  -33.6846 H   0  0  0  0  0  0  0  0  0  0  0  0
   -1.9850   22.4279  -32.9008 H   0  0  0  0  0  0  0  0  0  0  0  0
   -2.3964   21.2568  -31.5851 H   0  0  0  0  0  0  0  0  0  0  0  0
    0.6057   21.1810  -30.0531 H   0  0  0  0  0  0  0  0  0  0  0  0
   -1.0874   20.6359  -30.1348 H   0  0  0  0  0  0  0  0  0  0  0  0
    1.1754   19.9261  -32.0721 H   0  0  0  0  0  0  0  0  0  0  0  0
    0.3712   18.8322  -30.8648 H   0  0  0  0  0  0  0  0  0  0  0  0
   -0.2138   17.0505  -31.1276 H   0  0  0  0  0  0  0  0  0  0  0  0
   -0.9227   14.7579  -31.6839 H   0  0  0  0  0  0  0  0  0  0  0  0
   -3.3010   11.8550  -34.5450 H   0  0  0  0  0  0  0  0  0  0  0  0
   -5.5697   11.2446  -34.9957 H   0  0  0  0  0  0  0  0  0  0  0  0
   -7.0879   16.3103  -31.6739 H   0  0  0  0  0  0  0  0  0  0  0  0
   -6.7788   18.6229  -30.8691 H   0  0  0  0  0  0  0  0  0  0  0  0
   -7.8363   21.3466  -33.3101 H   0  0  0  0  0  0  0  0  0  0  0  0
   -7.6286   23.6943  -32.5470 H   0  0  0  0  0  0  0  0  0  0  0  0
   -5.7265   24.3821  -31.1565 H   0  0  0  0  0  0  0  0  0  0  0  0
   -3.4400   21.0800  -29.1920 H   0  0  0  0  0  0  0  0  0  0  0  0
   -1.0165   22.5502  -29.1141 H   0  0  0  0  0  0  0  0  0  0  0  0
   -2.1181   23.3780  -27.9723 H   0  0  0  0  0  0  0  0  0  0  0  0
   -0.6098   21.3352  -27.2340 H   0  0  0  0  0  0  0  0  0  0  0  0
   -2.3367   21.5763  -26.6324 H   0  0  0  0  0  0  0  0  0  0  0  0
   -0.5814   18.8280  -27.0147 H   0  0  0  0  0  0  0  0  0  0  0  0
   -1.2464   18.2116  -28.5653 H   0  0  0  0  0  0  0  0  0  0  0  0
   -0.1100   19.6027  -28.5653 H   0  0  0  0  0  0  0  0  0  0  0  0
   -2.4546   19.7536  -25.8505 H   0  0  0  0  0  0  0  0  0  0  0  0
   -3.8998   19.8836  -26.9093 H   0  0  0  0  0  0  0  0  0  0  0  0
   -2.9188   18.3789  -26.9093 H   0  0  0  0  0  0  0  0  0  0  0  0
   -4.1630   20.4108  -31.2528 H   0  0  0  0  0  0  0  0  0  0  0  0
   -5.6025   19.7992  -34.8193 H   0  0  0  0  0  0  0  0  0  0  0  0
   -5.9091   17.4938  -35.6284 H   0  0  0  0  0  0  0  0  0  0  0  0
   -4.3110   15.7850  -33.6620 H   0  0  0  0  0  0  0  0  0  0  0  0
  1  2  1  0
  2  3  1  0
  3  4  2  0
  4  5  1  0
  5  6  1  0
  6  7  1  0
  7  8  1  0
  8  9  1  0
  9 10  1  0
 10 11  1  0
  5 12  2  0
 12 13  1  0
 13 14  2  0
 14 15  1  0
 15 16  2  0
 16 17  1  0
 17 18  1  0
 18 19  2  0
 19 20  1  0
 19 21  1  0
 21 22  2  0
 22 23  1  0
 23 24  2  0
 24 25  1  0
 25 26  2  0
 26 27  1  0
 27 28  2  0
 28 29  1  0
 29 30  2  0
 30 31  1  0
 31 32  1  0
 32 33  2  0
 32 34  1  0
 34 35  1  0
 35 36  1  0
 36 37  1  0
 37 38  1  0
 37 39  1  0
 31 40  2  0
 26 41  1  0
 41 42  2  0
 21 43  1  0
 14  3  1  0
 43 16  1  0
 11  6  1  0
 42 23  1  0
 40 27  1  0
  1 44  1  0
  1 45  1  0
  1 46  1  0
  4 47  1  0
  7 48  1  0
  7 49  1  0
  8 50  1  0
  8 51  1  0
 10 52  1  0
 10 53  1  0
 11 54  1  0
 11 55  1  0
 12 56  1  0
 13 57  1  0
 17 58  1  0
 18 59  1  0
 24 60  1  0
 25 61  1  0
 28 62  1  0
 29 63  1  0
 30 64  1  0
 34 65  1  0
 35 66  1  0
 35 67  1  0
 36 68  1  0
 36 69  1  0
 38 70  1  0
 38 71  1  0
 38 72  1  0
 39 73  1  0
 39 74  1  0
 39 75  1  0
 40 76  1  0
 41 77  1  0
 42 78  1  0
 43 79  1  0
M  END
>  <smiles>  (48) 
COc1cc(N2CCOCC2)ccc1N=c1[nH]cc(Cl)c(=Nc2ccc(-c3cccc(C(=O)NCCN(C)C)c3)cc2)[nH]1

>  <score_type>  (48) 
oracle

>  <origin>  (48) 
adgpu

>  <m_score__min__energy>  (48) 
-10.050000000000001

>  <m_primary>  (48) 
energy

$$$$
48:0
     RDKit          3D

 40 42  0  0  0  0  0  0  0  0999 V2000
   -3.9720   25.6370  -30.8340 N   0  0  0  0  0  0  0  0  0  0  0  0
   -5.3020   25.0030  -29.9300 S   0  0  0  0  0  0  0  0  0  0  0  0
   -6.3360   26.0830  -29.7690 O   0  0  0  0  0  0  0  0  0  0  0  0
   -4.8100   24.5760  -28.5770 O   0  0  0  0  0  0  0  0  0  0  0  0
   -6.0200   23.6130  -30.7530 C   0  0  0  0  0  0  0  0  0  0  0  0
   -7.0900   23.8070  -31.6410 C   0  0  0  0  0  0  0  0  0  0  0  0
   -7.6560   22.7200  -32.3100 C   0  0  0  0  0  0  0  0  0  0  0  0
   -7.1600   21.4330  -32.1000 C   0  0  0  0  0  0  0  0  0  0  0  0
   -6.0950   21.2280  -31.2200 C   0  0  0  0  0  0  0  0  0  0  0  0
   -5.5130   22.3140  -30.5390 C   0  0  0  0  0  0  0  0  0  0  0  0
   -4.4160   22.1270  -29.6310 N   0  0  0  0  0  0  0  0  0  0  0  0
   -2.7540   22.4870  -29.9680 S   0  0  0  0  0  0  0  0  0  0  0  0
   -1.9640   21.2090  -29.9680 O   0  0  0  0  0  0  0  0  0  0  0  0
   -2.6500   23.1220  -31.3280 O   0  0  0  0  0  0  0  0  0  0  0  0
   -2.1100   23.5520  -28.7240 C   0  0  0  0  0  0  0  0  0  0  0  0
   -1.2570   24.6010  -29.0840 C   0  0  0  0  0  0  0  0  0  0  0  0
   -0.7390   25.4550  -28.1060 C   0  0  0  0  0  0  0  0  0  0  0  0
   -1.0660   25.2710  -26.7510 C   0  0  0  0  0  0  0  0  0  0  0  0
   -0.5180   26.1780  -25.7110 C   0  0  0  0  0  0  0  0  0  0  0  0
    0.3440   27.2340  -26.0630 C   0  0  0  0  0  0  0  0  0  0  0  0
    0.8580   28.0870  -25.0820 C   0  0  0  0  0  0  0  0  0  0  0  0
    0.5190   27.8960  -23.7400 C   0  0  0  0  0  0  0  0  0  0  0  0
    1.0180   28.7260  -22.7900 F   0  0  0  0  0  0  0  0  0  0  0  0
   -0.3360   26.8520  -23.3770 C   0  0  0  0  0  0  0  0  0  0  0  0
   -0.8520   25.9970  -24.3540 C   0  0  0  0  0  0  0  0  0  0  0  0
   -1.9240   24.2130  -26.3960 C   0  0  0  0  0  0  0  0  0  0  0  0
   -2.4430   23.3620  -27.3770 C   0  0  0  0  0  0  0  0  0  0  0  0
   -3.1170   25.1240  -30.5230 H   0  0  0  0  0  0  0  0  0  0  0  0
   -7.4842   24.8199  -31.8104 H   0  0  0  0  0  0  0  0  0  0  0  0
   -8.4946   22.8787  -33.0040 H   0  0  0  0  0  0  0  0  0  0  0  0
   -7.6083   20.5786  -32.6282 H   0  0  0  0  0  0  0  0  0  0  0  0
   -5.7083   20.2110  -31.0579 H   0  0  0  0  0  0  0  0  0  0  0  0
   -0.9929   24.7543  -30.1408 H   0  0  0  0  0  0  0  0  0  0  0  0
   -0.0701   26.2777  -28.3989 H   0  0  0  0  0  0  0  0  0  0  0  0
    0.6150   27.3890  -27.1178 H   0  0  0  0  0  0  0  0  0  0  0  0
    1.5303   28.9097  -25.3669 H   0  0  0  0  0  0  0  0  0  0  0  0
   -0.6032   26.7032  -22.3204 H   0  0  0  0  0  0  0  0  0  0  0  0
   -1.5239   25.1765  -24.0618 H   0  0  0  0  0  0  0  0  0  0  0  0
   -2.1880   24.0545  -25.3400 H   0  0  0  0  0  0  0  0  0  0  0  0
   -3.1154   22.5402  -27.0895 H   0  0  0  0  0  0  0  0  0  0  0  0
  1  2  1  0
  2  3  2  0
  2  4  2  0
  2  5  1  0
  5  6  2  0
  6  7  1  0
  7  8  2  0
  8  9  1  0
  9 10  2  0
 10 11  1  0
 11 12  1  0
 12 13  2  0
 12 14  2  0
 12 15  1  0
 15 16  2  0
 16 17  1  0
 17 18  2  0
 18 19  1  0
 19 20  2  0
 20 21  1  0
 21 22  2  0
 22 23  1  0
 22 24  1  0
 24 25  2  0
 18 26  1  0
 26 27  2  0
 10  5  1  0
 27 15  1  0
 25 19  1  0
  1 28  1  0
  6 29  1  0
  7 30  1  0
  8 31  1  0
  9 32  1  0
 16 33  1  0
 17 34  1  0
 20 35  1  0
 21 36  1  0
 24 37  1  0
 25 38  1  0
 26 39  1  0
 27 40  1  0
M  CHG  2   1  -1  11  -1
M  END
>  <UniqueID>  (49) 
48

>  <SMILES>  (49) 
[NH-]S(=O)(=O)c1ccccc1[N-]S(=O)(=O)c1ccc(-c2ccc(F)cc2)cc1

>  <Energy>  (49) 
52.04767868370872

>  <Genealogy>  (49) 
[NH-]S(=O)(=O)c1ccccc1[N-]S(=O)(=O)c1ccc(-c2ccc(F)cc2)cc1 (protonated)
[NH-]S(=O)(=O)c1ccccc1[N-]S(=O)(=O)c1ccc(-c2ccc(F)cc2)cc1 (3D coordinates assigned)
[NH-]S(=O)(=O)c1ccccc1[N-]S(=O)(=O)c1ccc(-c2ccc(F)cc2)cc1 (optimized conformer: 52.04767868370872 kcal/mol)

>  <smiles>  (49) 
NS(=O)(=O)c1ccccc1NS(=O)(=O)c1ccc(-c2ccc(F)cc2)cc1

>  <score_type>  (49) 
oracle

>  <origin>  (49) 
adgpu

>  <m_score__min__energy>  (49) 
-13.109999999999999

>  <m_primary>  (49) 
energy

$$$$
49:0
     RDKit          3D

 42 44  0  0  0  0  0  0  0  0999 V2000
   -0.2650   24.4250  -24.4680 N   0  0  0  0  0  0  0  0  0  0  0  0
   -0.2170   23.6420  -25.6640 C   0  0  0  0  0  0  0  0  0  0  0  0
    0.5820   22.6690  -25.7220 O   0  0  0  0  0  0  0  0  0  0  0  0
   -1.0700   23.9630  -26.8350 C   0  0  0  0  0  0  0  0  0  0  0  0
   -0.6780   24.9710  -27.7350 C   0  0  0  0  0  0  0  0  0  0  0  0
   -1.4690   25.2810  -28.8450 C   0  0  0  0  0  0  0  0  0  0  0  0
   -2.6710   24.5900  -29.0730 C   0  0  0  0  0  0  0  0  0  0  0  0
   -3.4840   24.8620  -30.1830 O   0  0  0  0  0  0  0  0  0  0  0  0
   -4.6500   24.1620  -30.5290 C   0  0  0  0  0  0  0  0  0  0  0  0
   -5.8390   24.4660  -29.8580 C   0  0  0  0  0  0  0  0  0  0  0  0
   -7.0250   23.8020  -30.1870 C   0  0  0  0  0  0  0  0  0  0  0  0
   -7.0380   22.8400  -31.2060 C   0  0  0  0  0  0  0  0  0  0  0  0
   -8.5400   22.0180  -31.6340 S   0  0  0  0  0  0  0  0  0  0  0  0
   -9.4710   23.0000  -32.2890 O   0  0  0  0  0  0  0  0  0  0  0  0
   -9.2040   21.5170  -30.3810 O   0  0  0  0  0  0  0  0  0  0  0  0
   -8.2660   20.6700  -32.7200 N   0  0  0  0  0  0  0  0  0  0  0  0
   -7.1150   19.8690  -32.2910 C   0  0  0  0  0  0  0  0  0  0  0  0
   -7.6300   18.6630  -31.5180 C   0  0  0  0  0  0  0  0  0  0  0  0
   -9.1160   18.5920  -31.8070 C   0  0  0  0  0  0  0  0  0  0  0  0
   -9.4160   19.7590  -32.7360 C   0  0  0  0  0  0  0  0  0  0  0  0
   -5.8510   22.5420  -31.8880 C   0  0  0  0  0  0  0  0  0  0  0  0
   -4.6650   23.2050  -31.5590 C   0  0  0  0  0  0  0  0  0  0  0  0
   -3.0480   23.5660  -28.1990 C   0  0  0  0  0  0  0  0  0  0  0  0
   -2.2590   23.2540  -27.0880 C   0  0  0  0  0  0  0  0  0  0  0  0
   -0.7860   25.3270  -24.4210 H   0  0  0  0  0  0  0  0  0  0  0  0
    0.3030   24.1420  -23.6380 H   0  0  0  0  0  0  0  0  0  0  0  0
    0.2596   25.5201  -27.5635 H   0  0  0  0  0  0  0  0  0  0  0  0
   -1.1492   26.0690  -29.5427 H   0  0  0  0  0  0  0  0  0  0  0  0
   -5.8412   25.2311  -29.0677 H   0  0  0  0  0  0  0  0  0  0  0  0
   -7.9522   24.0359  -29.6433 H   0  0  0  0  0  0  0  0  0  0  0  0
   -6.5484   19.5316  -33.1714 H   0  0  0  0  0  0  0  0  0  0  0  0
   -6.4519   20.4717  -31.6530 H   0  0  0  0  0  0  0  0  0  0  0  0
   -7.1288   17.7457  -31.8606 H   0  0  0  0  0  0  0  0  0  0  0  0
   -7.4309   18.7574  -30.4403 H   0  0  0  0  0  0  0  0  0  0  0  0
   -9.3655   17.6391  -32.2967 H   0  0  0  0  0  0  0  0  0  0  0  0
   -9.7104   18.6479  -30.8831 H   0  0  0  0  0  0  0  0  0  0  0  0
   -9.5816   19.3874  -33.7580 H   0  0  0  0  0  0  0  0  0  0  0  0
  -10.3212   20.2865  -32.4007 H   0  0  0  0  0  0  0  0  0  0  0  0
   -5.8522   21.7838  -32.6850 H   0  0  0  0  0  0  0  0  0  0  0  0
   -3.7396   22.9770  -32.1083 H   0  0  0  0  0  0  0  0  0  0  0  0
   -3.9730   23.0012  -28.3871 H   0  0  0  0  0  0  0  0  0  0  0  0
   -2.5698   22.4484  -26.4065 H   0  0  0  0  0  0  0  0  0  0  0  0
  1  2  1  0
  2  3  2  0
  2  4  1  0
  4  5  2  0
  5  6  1  0
  6  7  2  0
  7  8  1  0
  8  9  1  0
  9 10  2  0
 10 11  1  0
 11 12  2  0
 12 13  1  0
 13 14  2  0
 13 15  2  0
 13 16  1  0
 16 17  1  0
 17 18  1  0
 18 19  1  0
 19 20  1  0
 12 21  1  0
 21 22  2  0
  7 23  1  0
 23 24  2  0
 24  4  1  0
 22  9  1  0
 20 16  1  0
  1 25  1  0
  1 26  1  0
  5 27  1  0
  6 28  1  0
 10 29  1  0
 11 30  1  0
 17 31  1  0
 17 32  1  0
 18 33  1  0
 18 34  1  0
 19 35  1  0
 19 36  1  0
 20 37  1  0
 20 38  1  0
 21 39  1  0
 22 40  1  0
 23 41  1  0
 24 42  1  0
M  END
>  <UniqueID>  (50) 
49

>  <SMILES>  (50) 
NC(=O)c1ccc(Oc2ccc(S(=O)(=O)N3CCCC3)cc2)cc1

>  <Energy>  (50) 
51.08643458028395

>  <Genealogy>  (50) 
NC(=O)c1ccc(Oc2ccc(S(=O)(=O)N3CCCC3)cc2)cc1 (3D coordinates assigned)
NC(=O)c1ccc(Oc2ccc(S(=O)(=O)N3CCCC3)cc2)cc1 (nonaromatic ring conformer: 51.08643458028395 kcal/mol)

>  <smiles>  (50) 
NC(=O)c1ccc(Oc2ccc(S(=O)(=O)N3CCCC3)cc2)cc1

>  <score_type>  (50) 
oracle

>  <origin>  (50) 
adgpu

>  <m_score__min__energy>  (50) 
-9.3599999999999994

>  <m_primary>  (50) 
energy

$$$$
