0:0
     RDKit          3D

 34 36  0  0  0  0  0  0  0  0999 V2000
   -4.5470   20.5740  -33.2270 O   0  0  0  0  0  0  0  0  0  0  0  0
   -5.5710   21.0280  -32.6500 C   0  0  0  0  0  0  0  0  0  0  0  0
   -5.6060   22.4240  -32.3130 N   0  0  0  0  0  0  0  0  0  0  0  0
   -4.7920   23.0610  -31.5180 C   0  0  0  0  0  0  0  0  0  0  0  0
   -3.6510   22.4560  -30.9560 C   0  0  0  0  0  0  0  0  0  0  0  0
   -2.8280   23.1940  -30.1050 C   0  0  0  0  0  0  0  0  0  0  0  0
   -3.1420   24.5280  -29.8100 C   0  0  0  0  0  0  0  0  0  0  0  0
   -2.3180   25.3260  -28.9470 N   0  0  0  0  0  0  0  0  0  0  0  0
   -1.1710   24.8670  -28.2210 C   0  0  0  0  0  0  0  0  0  0  0  0
   -0.2090   24.3640  -28.8610 O   0  0  0  0  0  0  0  0  0  0  0  0
   -1.0580   25.0210  -26.7570 C   0  0  0  0  0  0  0  0  0  0  0  0
   -1.7350   25.9050  -25.9370 C   0  0  0  0  0  0  0  0  0  0  0  0
   -1.3040   25.7500  -24.6700 N   0  0  0  0  0  0  0  0  0  0  0  0
   -0.3780   24.8040  -24.6700 N   0  0  0  0  0  0  0  0  0  0  0  0
   -0.1970   24.3440  -25.9190 C   0  0  0  0  0  0  0  0  0  0  0  0
   -4.2520   25.1090  -30.4250 C   0  0  0  0  0  0  0  0  0  0  0  0
   -5.0430   24.3720  -31.2500 N   0  0  0  0  0  0  0  0  0  0  0  0
   -6.7320   20.1350  -32.4080 C   0  0  0  0  0  0  0  0  0  0  0  0
   -8.0370   20.6550  -32.3230 C   0  0  0  0  0  0  0  0  0  0  0  0
   -9.1230   19.8070  -32.0920 C   0  0  0  0  0  0  0  0  0  0  0  0
   -8.9220   18.4310  -31.9520 C   0  0  0  0  0  0  0  0  0  0  0  0
   -7.6320   17.9020  -32.0470 C   0  0  0  0  0  0  0  0  0  0  0  0
   -6.5430   18.7470  -32.2780 C   0  0  0  0  0  0  0  0  0  0  0  0
   -3.4102   21.4078  -31.1867 H   0  0  0  0  0  0  0  0  0  0  0  0
   -1.9330   22.7293  -29.6656 H   0  0  0  0  0  0  0  0  0  0  0  0
   -2.5028   26.6205  -26.2665 H   0  0  0  0  0  0  0  0  0  0  0  0
    0.1310   24.4820  -23.8180 H   0  0  0  0  0  0  0  0  0  0  0  0
    0.5152   23.5621  -26.2213 H   0  0  0  0  0  0  0  0  0  0  0  0
   -4.4881   26.1676  -30.2416 H   0  0  0  0  0  0  0  0  0  0  0  0
   -8.2030   21.7362  -32.4392 H   0  0  0  0  0  0  0  0  0  0  0  0
  -10.1387   20.2233  -32.0201 H   0  0  0  0  0  0  0  0  0  0  0  0
   -9.7780   17.7653  -31.7673 H   0  0  0  0  0  0  0  0  0  0  0  0
   -7.4735   16.8188  -31.9398 H   0  0  0  0  0  0  0  0  0  0  0  0
   -5.5309   18.3238  -32.3587 H   0  0  0  0  0  0  0  0  0  0  0  0
  1  2  2  0
  2  3  1  0
  3  4  2  3
  4  5  1  0
  5  6  2  0
  6  7  1  0
  7  8  1  0
  8  9  1  0
  9 10  2  0
  9 11  1  0
 11 12  1  0
 12 13  2  0
 13 14  1  0
 14 15  1  0
  7 16  2  0
 16 17  1  0
  2 18  1  0
 18 19  2  0
 19 20  1  0
 20 21  2  0
 21 22  1  0
 22 23  2  0
 17  4  1  0
 23 18  1  0
 15 11  2  0
  5 24  1  0
  6 25  1  0
 12 26  1  0
 14 27  1  0
 15 28  1  0
 16 29  1  0
 19 30  1  0
 20 31  1  0
 21 32  1  0
 22 33  1  0
 23 34  1  0
M  CHG  2   8  -1  17  -1
M  END
>  <UniqueID>  (1) 
1

>  <SMILES>  (1) 
O=C(N=c1ccc([N-]C(=O)c2cn[nH]c2)c[n-]1)c1ccccc1

>  <Energy>  (1) 
82.75563428094938

>  <Genealogy>  (1) 
O=C(N=c1ccc([N-]C(=O)c2cn[nH]c2)c[n-]1)c1ccccc1 (protonated)
O=C(N=c1ccc([N-]C(=O)c2cn[nH]c2)c[n-]1)c1ccccc1 (3D coordinates assigned)
O=C(N=c1ccc([N-]C(=O)c2cn[nH]c2)c[n-]1)c1ccccc1 (optimized conformer: 82.75563428094938 kcal/mol)

>  <smiles>  (1) 
O=C(N=c1ccc(NC(=O)c2cn[nH]c2)c[nH]1)c1ccccc1

>  <score_type>  (1) 
oracle

>  <origin>  (1) 
adgpu

>  <m_score__min__energy>  (1) 
-10.539999999999999

>  <m_primary>  (1) 
energy

$$$$
1:0
     RDKit          3D

 25 27  0  0  0  0  0  0  0  0999 V2000
   -7.8640   18.9530  -32.2260 Br  0  0  0  0  0  0  0  0  0  0  0  0
   -7.6270   20.8040  -31.8350 C   0  0  0  0  0  0  0  0  0  0  0  0
   -8.6420   21.7420  -31.9710 C   0  0  0  0  0  0  0  0  0  0  0  0
   -8.0270   23.2450  -31.5310 S   0  0  0  0  0  0  0  0  0  0  0  0
   -6.4750   22.7100  -31.1670 C   0  0  0  0  0  0  0  0  0  0  0  0
   -5.3730   23.5580  -30.6970 C   0  0  0  0  0  0  0  0  0  0  0  0
   -5.0030   24.7020  -31.3010 N   0  0  0  0  0  0  0  0  0  0  0  0
   -3.9910   25.1720  -30.5950 N   0  0  0  0  0  0  0  0  0  0  0  0
   -3.7600   24.3140  -29.5800 C   0  0  0  0  0  0  0  0  0  0  0  0
   -2.7050   24.4710  -28.5480 C   0  0  0  0  0  0  0  0  0  0  0  0
   -2.9920   24.3480  -27.1750 C   0  0  0  0  0  0  0  0  0  0  0  0
   -1.9800   24.4990  -26.2230 C   0  0  0  0  0  0  0  0  0  0  0  0
   -0.6730   24.7730  -26.6250 C   0  0  0  0  0  0  0  0  0  0  0  0
   -0.3730   24.8970  -27.9830 C   0  0  0  0  0  0  0  0  0  0  0  0
   -1.3800   24.7480  -28.9400 C   0  0  0  0  0  0  0  0  0  0  0  0
   -4.6210   23.2750  -29.6120 N   0  0  0  0  0  0  0  0  0  0  0  0
   -6.4130   21.3410  -31.3860 C   0  0  0  0  0  0  0  0  0  0  0  0
   -9.6691   21.5379  -32.3077 H   0  0  0  0  0  0  0  0  0  0  0  0
   -3.4870   26.0560  -30.8200 H   0  0  0  0  0  0  0  0  0  0  0  0
   -4.0201   24.1315  -26.8493 H   0  0  0  0  0  0  0  0  0  0  0  0
   -2.2152   24.4014  -25.1529 H   0  0  0  0  0  0  0  0  0  0  0  0
    0.1209   24.8913  -25.8728 H   0  0  0  0  0  0  0  0  0  0  0  0
    0.6581   25.1124  -28.3000 H   0  0  0  0  0  0  0  0  0  0  0  0
   -1.1366   24.8477  -30.0081 H   0  0  0  0  0  0  0  0  0  0  0  0
   -5.5058   20.7403  -31.2241 H   0  0  0  0  0  0  0  0  0  0  0  0
  1  2  1  0
  2  3  2  0
  3  4  1  0
  4  5  1  0
  5  6  1  0
  6  7  2  0
  7  8  1  0
  8  9  1  0
  9 10  1  0
 10 11  2  0
 11 12  1  0
 12 13  2  0
 13 14  1  0
 14 15  2  0
  9 16  2  0
  5 17  2  0
 17  2  1  0
 16  6  1  0
 15 10  1  0
  3 18  1  0
  8 19  1  0
 11 20  1  0
 12 21  1  0
 13 22  1  0
 14 23  1  0
 15 24  1  0
 17 25  1  0
M  END
>  <UniqueID>  (2) 
2

>  <SMILES>  (2) 
Brc1csc(-c2n[nH]c(-c3ccccc3)n2)c1

>  <Energy>  (2) 
86.64353029804343

>  <Genealogy>  (2) 
Brc1csc(-c2n[nH]c(-c3ccccc3)n2)c1 (3D coordinates assigned)
Brc1csc(-c2n[nH]c(-c3ccccc3)n2)c1 (optimized conformer: 86.64353029804343 kcal/mol)

>  <smiles>  (2) 
Brc1csc(-c2n[nH]c(-c3ccccc3)n2)c1

>  <score_type>  (2) 
oracle

>  <origin>  (2) 
adgpu

>  <m_score__min__energy>  (2) 
-7.79

>  <m_primary>  (2) 
energy

$$$$
2:0
     RDKit          3D

 37 40  0  0  0  0  0  0  0  0999 V2000
   -0.0130   17.7650  -27.4970 Cl  0  0  0  0  0  0  0  0  0  0  0  0
   -0.7540   19.3550  -27.4810 C   0  0  0  0  0  0  0  0  0  0  0  0
   -2.1470   19.4760  -27.4390 C   0  0  0  0  0  0  0  0  0  0  0  0
   -2.7410   20.7420  -27.4510 C   0  0  0  0  0  0  0  0  0  0  0  0
   -1.9450   21.8980  -27.5130 C   0  0  0  0  0  0  0  0  0  0  0  0
   -2.5840   23.2580  -27.6410 C   0  0  0  0  0  0  0  0  0  0  0  0
   -1.8490   24.2090  -29.0230 S   0  0  0  0  0  0  0  0  0  0  0  0
   -3.3410   24.2030  -30.0130 C   0  0  0  0  0  0  0  0  0  0  0  0
   -3.8590   25.2880  -30.6160 N   0  0  0  0  0  0  0  0  0  0  0  0
   -4.9810   24.8840  -31.1950 N   0  0  0  0  0  0  0  0  0  0  0  0
   -5.1000   23.5700  -30.9170 C   0  0  0  0  0  0  0  0  0  0  0  0
   -6.2380   22.7240  -31.3180 C   0  0  0  0  0  0  0  0  0  0  0  0
   -7.5080   23.2850  -31.5380 C   0  0  0  0  0  0  0  0  0  0  0  0
   -8.5900   22.4740  -31.8910 C   0  0  0  0  0  0  0  0  0  0  0  0
   -8.4210   21.0880  -32.0220 C   0  0  0  0  0  0  0  0  0  0  0  0
   -9.5030   20.2630  -32.3690 C   0  0  0  0  0  0  0  0  0  0  0  0
   -9.3220   18.8830  -32.4900 C   0  0  0  0  0  0  0  0  0  0  0  0
   -8.0640   18.3160  -32.2670 C   0  0  0  0  0  0  0  0  0  0  0  0
   -6.9780   19.1250  -31.9240 C   0  0  0  0  0  0  0  0  0  0  0  0
   -7.1460   20.5140  -31.8000 C   0  0  0  0  0  0  0  0  0  0  0  0
   -6.0640   21.3360  -31.4530 C   0  0  0  0  0  0  0  0  0  0  0  0
   -4.0890   23.1460  -30.2010 O   0  0  0  0  0  0  0  0  0  0  0  0
   -0.5460   21.7700  -27.5410 C   0  0  0  0  0  0  0  0  0  0  0  0
    0.0450   20.5020  -27.5250 C   0  0  0  0  0  0  0  0  0  0  0  0
   -2.7758   18.5744  -27.3965 H   0  0  0  0  0  0  0  0  0  0  0  0
   -3.8365   20.8331  -27.4117 H   0  0  0  0  0  0  0  0  0  0  0  0
   -3.6612   23.1322  -27.8251 H   0  0  0  0  0  0  0  0  0  0  0  0
   -2.4119   23.8126  -26.7068 H   0  0  0  0  0  0  0  0  0  0  0  0
   -7.6512   24.3704  -31.4315 H   0  0  0  0  0  0  0  0  0  0  0  0
   -9.5780   22.9245  -32.0668 H   0  0  0  0  0  0  0  0  0  0  0  0
  -10.4950   20.7041  -32.5459 H   0  0  0  0  0  0  0  0  0  0  0  0
  -10.1724   18.2404  -32.7617 H   0  0  0  0  0  0  0  0  0  0  0  0
   -7.9286   17.2285  -32.3620 H   0  0  0  0  0  0  0  0  0  0  0  0
   -5.9899   18.6736  -31.7508 H   0  0  0  0  0  0  0  0  0  0  0  0
   -5.0720   20.8911  -31.2853 H   0  0  0  0  0  0  0  0  0  0  0  0
    0.0864   22.6694  -27.5756 H   0  0  0  0  0  0  0  0  0  0  0  0
    1.1407   20.4070  -27.5471 H   0  0  0  0  0  0  0  0  0  0  0  0
  1  2  1  0
  2  3  2  0
  3  4  1  0
  4  5  2  0
  5  6  1  0
  6  7  1  0
  7  8  1  0
  8  9  2  0
  9 10  1  0
 10 11  2  0
 11 12  1  0
 12 13  2  0
 13 14  1  0
 14 15  2  0
 15 16  1  0
 16 17  2  0
 17 18  1  0
 18 19  2  0
 19 20  1  0
 20 21  2  0
 11 22  1  0
  5 23  1  0
 23 24  2  0
 24  2  1  0
 22  8  1  0
 21 12  1  0
 20 15  1  0
  3 25  1  0
  4 26  1  0
  6 27  1  0
  6 28  1  0
 13 29  1  0
 14 30  1  0
 16 31  1  0
 17 32  1  0
 18 33  1  0
 19 34  1  0
 21 35  1  0
 23 36  1  0
 24 37  1  0
M  END
>  <UniqueID>  (3) 
3

>  <SMILES>  (3) 
Clc1ccc(CSc2nnc(-c3ccc4ccccc4c3)o2)cc1

>  <Energy>  (3) 
73.52961426594352

>  <Genealogy>  (3) 
Clc1ccc(CSc2nnc(-c3ccc4ccccc4c3)o2)cc1 (3D coordinates assigned)
Clc1ccc(CSc2nnc(-c3ccc4ccccc4c3)o2)cc1 (optimized conformer: 73.52961426594352 kcal/mol)

>  <smiles>  (3) 
Clc1ccc(CSc2nnc(-c3ccc4ccccc4c3)o2)cc1

>  <score_type>  (3) 
oracle

>  <origin>  (3) 
adgpu

>  <m_score__min__energy>  (3) 
-9.5700000000000003

>  <m_primary>  (3) 
energy

$$$$
3:0
     RDKit          3D

 30 31  0  0  0  0  0  0  0  0999 V2000
   -4.9900   15.3940  -33.9370 C   0  0  0  0  0  0  0  0  0  0  0  0
   -5.6210   16.7310  -33.6840 C   0  0  0  0  0  0  0  0  0  0  0  0
   -6.4490   16.9220  -32.5680 C   0  0  0  0  0  0  0  0  0  0  0  0
   -7.0670   18.1580  -32.3510 C   0  0  0  0  0  0  0  0  0  0  0  0
   -6.8850   19.2110  -33.2640 C   0  0  0  0  0  0  0  0  0  0  0  0
   -7.4750   20.4690  -33.0740 O   0  0  0  0  0  0  0  0  0  0  0  0
   -6.9380   21.5100  -32.3020 C   0  0  0  0  0  0  0  0  0  0  0  0
   -5.5960   21.8630  -32.4880 C   0  0  0  0  0  0  0  0  0  0  0  0
   -5.0290   22.9040  -31.7490 C   0  0  0  0  0  0  0  0  0  0  0  0
   -5.8010   23.6100  -30.8170 C   0  0  0  0  0  0  0  0  0  0  0  0
   -5.0860   24.9290  -29.8950 S   0  0  0  0  0  0  0  0  0  0  0  0
   -3.5090   25.2860  -30.5070 N   0  0  0  0  0  0  0  0  0  0  0  0
   -4.9650   24.5370  -28.4490 O   0  0  0  0  0  0  0  0  0  0  0  0
   -5.9560   26.1480  -30.0100 O   0  0  0  0  0  0  0  0  0  0  0  0
   -7.1530   23.2790  -30.6460 C   0  0  0  0  0  0  0  0  0  0  0  0
   -7.7200   22.2370  -31.3870 C   0  0  0  0  0  0  0  0  0  0  0  0
   -6.0570   19.0190  -34.3760 C   0  0  0  0  0  0  0  0  0  0  0  0
   -5.4390   17.7840  -34.5940 C   0  0  0  0  0  0  0  0  0  0  0  0
   -4.7611   14.9090  -32.9766 H   0  0  0  0  0  0  0  0  0  0  0  0
   -5.6853   14.7629  -34.5100 H   0  0  0  0  0  0  0  0  0  0  0  0
   -4.0608   15.5296  -34.5100 H   0  0  0  0  0  0  0  0  0  0  0  0
   -6.6131   16.0961  -31.8602 H   0  0  0  0  0  0  0  0  0  0  0  0
   -7.6979   18.3065  -31.4623 H   0  0  0  0  0  0  0  0  0  0  0  0
   -4.9840   21.3169  -33.2210 H   0  0  0  0  0  0  0  0  0  0  0  0
   -3.9724   23.1705  -31.8994 H   0  0  0  0  0  0  0  0  0  0  0  0
   -3.6250   26.0370  -31.2240 H   0  0  0  0  0  0  0  0  0  0  0  0
   -7.7688   23.8400  -29.9276 H   0  0  0  0  0  0  0  0  0  0  0  0
   -8.7824   21.9851  -31.2534 H   0  0  0  0  0  0  0  0  0  0  0  0
   -5.8914   19.8452  -35.0831 H   0  0  0  0  0  0  0  0  0  0  0  0
   -4.8074   17.6369  -35.4825 H   0  0  0  0  0  0  0  0  0  0  0  0
  1  2  1  0
  2  3  2  0
  3  4  1  0
  4  5  2  0
  5  6  1  0
  6  7  1  0
  7  8  2  0
  8  9  1  0
  9 10  2  0
 10 11  1  0
 11 12  1  0
 11 13  2  0
 11 14  2  0
 10 15  1  0
 15 16  2  0
  5 17  1  0
 17 18  2  0
 18  2  1  0
 16  7  1  0
  1 19  1  0
  1 20  1  0
  1 21  1  0
  3 22  1  0
  4 23  1  0
  8 24  1  0
  9 25  1  0
 12 26  1  0
 15 27  1  0
 16 28  1  0
 17 29  1  0
 18 30  1  0
M  CHG  1  12  -1
M  END
>  <UniqueID>  (4) 
4

>  <SMILES>  (4) 
Cc1ccc(Oc2ccc(S([NH-])(=O)=O)cc2)cc1

>  <Energy>  (4) 
35.93153874897847

>  <Genealogy>  (4) 
Cc1ccc(Oc2ccc(S([NH-])(=O)=O)cc2)cc1 (protonated)
Cc1ccc(Oc2ccc(S([NH-])(=O)=O)cc2)cc1 (3D coordinates assigned)
Cc1ccc(Oc2ccc(S([NH-])(=O)=O)cc2)cc1 (optimized conformer: 35.93153874897847 kcal/mol)

>  <smiles>  (4) 
Cc1ccc(Oc2ccc(S(N)(=O)=O)cc2)cc1

>  <score_type>  (4) 
oracle

>  <origin>  (4) 
adgpu

>  <m_score__min__energy>  (4) 
-9.8699999999999992

>  <m_primary>  (4) 
energy

$$$$
4:0
     RDKit          3D

 42 44  0  0  0  0  0  0  0  0999 V2000
   -1.0470   21.1200  -32.8000 C   0  0  0  0  0  0  0  0  0  0  0  0
   -2.2330   20.9080  -31.9740 N   0  0  0  0  0  0  0  0  0  0  0  0
   -3.2980   20.1130  -32.2140 C   0  0  0  0  0  0  0  0  0  0  0  0
   -3.5630   19.3670  -33.4850 C   0  0  0  0  0  0  0  0  0  0  0  0
   -4.8680   19.6860  -33.9590 O   0  0  0  0  0  0  0  0  0  0  0  0
   -6.0570   19.3190  -33.3090 C   0  0  0  0  0  0  0  0  0  0  0  0
   -6.0840   18.1120  -32.5960 C   0  0  0  0  0  0  0  0  0  0  0  0
   -7.2360   17.7170  -31.9110 C   0  0  0  0  0  0  0  0  0  0  0  0
   -8.3850   18.5100  -31.9610 C   0  0  0  0  0  0  0  0  0  0  0  0
   -9.5020   18.1250  -31.2990 F   0  0  0  0  0  0  0  0  0  0  0  0
   -8.3790   19.7050  -32.6860 C   0  0  0  0  0  0  0  0  0  0  0  0
   -7.2190   20.1170  -33.3500 C   0  0  0  0  0  0  0  0  0  0  0  0
   -4.1250   20.0660  -31.1510 N   0  0  0  0  0  0  0  0  0  0  0  0
   -3.5780   20.8090  -30.2000 N   0  0  0  0  0  0  0  0  0  0  0  0
   -2.4320   21.3070  -30.7020 C   0  0  0  0  0  0  0  0  0  0  0  0
   -1.2960   22.3190  -29.7460 S   0  0  0  0  0  0  0  0  0  0  0  0
   -2.6000   23.2290  -28.8460 C   0  0  0  0  0  0  0  0  0  0  0  0
   -2.7210   24.6240  -29.3910 C   0  0  0  0  0  0  0  0  0  0  0  0
   -1.9330   25.5110  -28.9670 O   0  0  0  0  0  0  0  0  0  0  0  0
   -3.6200   24.9580  -30.4560 N   0  0  0  0  0  0  0  0  0  0  0  0
   -4.8860   24.3480  -30.7350 C   0  0  0  0  0  0  0  0  0  0  0  0
   -5.0250   23.3390  -31.7080 C   0  0  0  0  0  0  0  0  0  0  0  0
   -3.9450   22.8750  -32.3880 F   0  0  0  0  0  0  0  0  0  0  0  0
   -6.2750   22.7600  -31.9440 C   0  0  0  0  0  0  0  0  0  0  0  0
   -7.3820   23.1510  -31.1900 C   0  0  0  0  0  0  0  0  0  0  0  0
   -7.2380   24.1070  -30.1810 C   0  0  0  0  0  0  0  0  0  0  0  0
   -5.9910   24.6930  -29.9440 C   0  0  0  0  0  0  0  0  0  0  0  0
   -5.8580   25.5920  -28.9380 F   0  0  0  0  0  0  0  0  0  0  0  0
   -0.1720   21.2764  -32.1520 H   0  0  0  0  0  0  0  0  0  0  0  0
   -0.8799   20.2375  -33.4350 H   0  0  0  0  0  0  0  0  0  0  0  0
   -1.1960   22.0058  -33.4350 H   0  0  0  0  0  0  0  0  0  0  0  0
   -2.8177   19.6545  -34.2412 H   0  0  0  0  0  0  0  0  0  0  0  0
   -3.4953   18.2854  -33.2965 H   0  0  0  0  0  0  0  0  0  0  0  0
   -5.1906   17.4705  -32.5757 H   0  0  0  0  0  0  0  0  0  0  0  0
   -7.2382   16.7815  -31.3323 H   0  0  0  0  0  0  0  0  0  0  0  0
   -9.2881   20.3224  -32.7344 H   0  0  0  0  0  0  0  0  0  0  0  0
   -7.2131   21.0662  -33.9058 H   0  0  0  0  0  0  0  0  0  0  0  0
   -3.5599   22.7056  -28.9676 H   0  0  0  0  0  0  0  0  0  0  0  0
   -2.3356   23.2791  -27.7794 H   0  0  0  0  0  0  0  0  0  0  0  0
   -6.3863   21.9943  -32.7259 H   0  0  0  0  0  0  0  0  0  0  0  0
   -8.3682   22.7067  -31.3899 H   0  0  0  0  0  0  0  0  0  0  0  0
   -8.1067   24.3988  -29.5726 H   0  0  0  0  0  0  0  0  0  0  0  0
  1  2  1  0
  2  3  1  0
  3  4  1  0
  4  5  1  0
  5  6  1  0
  6  7  2  0
  7  8  1  0
  8  9  2  0
  9 10  1  0
  9 11  1  0
 11 12  2  0
  3 13  2  0
 13 14  1  0
 14 15  2  0
 15 16  1  0
 16 17  1  0
 17 18  1  0
 18 19  2  0
 18 20  1  0
 20 21  1  0
 21 22  2  0
 22 23  1  0
 22 24  1  0
 24 25  2  0
 25 26  1  0
 26 27  2  0
 27 28  1  0
 15  2  1  0
 27 21  1  0
 12  6  1  0
  1 29  1  0
  1 30  1  0
  1 31  1  0
  4 32  1  0
  4 33  1  0
  7 34  1  0
  8 35  1  0
 11 36  1  0
 12 37  1  0
 17 38  1  0
 17 39  1  0
 24 40  1  0
 25 41  1  0
 26 42  1  0
M  CHG  1  20  -1
M  END
>  <UniqueID>  (5) 
5

>  <SMILES>  (5) 
Cn1c(COc2ccc(F)cc2)nnc1SCC(=O)[N-]c1c(F)cccc1F

>  <Energy>  (5) 
77.79503216712587

>  <Genealogy>  (5) 
Cn1c(COc2ccc(F)cc2)nnc1SCC(=O)[N-]c1c(F)cccc1F (protonated)
Cn1c(COc2ccc(F)cc2)nnc1SCC(=O)[N-]c1c(F)cccc1F (3D coordinates assigned)
Cn1c(COc2ccc(F)cc2)nnc1SCC(=O)[N-]c1c(F)cccc1F (optimized conformer: 77.79503216712587 kcal/mol)

>  <smiles>  (5) 
Cn1c(COc2ccc(F)cc2)nnc1SCC(=O)Nc1c(F)cccc1F

>  <score_type>  (5) 
oracle

>  <origin>  (5) 
adgpu

>  <m_score__min__energy>  (5) 
-9.8200000000000003

>  <m_primary>  (5) 
energy

$$$$
5:0
     RDKit          3D

 35 37  0  0  0  0  0  0  0  0999 V2000
   -2.4220   24.8750  -28.1780 C   0  0  0  0  0  0  0  0  0  0  0  0
   -3.2130   24.4610  -29.3750 C   0  0  0  0  0  0  0  0  0  0  0  0
   -3.6480   25.2880  -30.2970 O   0  0  0  0  0  0  0  0  0  0  0  0
   -4.3310   24.6590  -31.2110 N   0  0  0  0  0  0  0  0  0  0  0  0
   -4.3410   23.3550  -30.8720 C   0  0  0  0  0  0  0  0  0  0  0  0
   -5.0370   22.3140  -31.6530 C   0  0  0  0  0  0  0  0  0  0  0  0
   -4.3060   21.3390  -32.3660 C   0  0  0  0  0  0  0  0  0  0  0  0
   -2.5450   21.3560  -32.4220 Cl  0  0  0  0  0  0  0  0  0  0  0  0
   -4.9810   20.3520  -33.0920 C   0  0  0  0  0  0  0  0  0  0  0  0
   -6.3770   20.3290  -33.1230 C   0  0  0  0  0  0  0  0  0  0  0  0
   -7.1070   21.2980  -32.4340 C   0  0  0  0  0  0  0  0  0  0  0  0
   -6.4480   22.2930  -31.7040 C   0  0  0  0  0  0  0  0  0  0  0  0
   -7.4240   23.4740  -30.8340 Cl  0  0  0  0  0  0  0  0  0  0  0  0
   -3.6430   23.1860  -29.6870 C   0  0  0  0  0  0  0  0  0  0  0  0
   -3.4230   21.9240  -28.9000 C   0  0  0  0  0  0  0  0  0  0  0  0
   -2.0280   21.6380  -28.7880 O   0  0  0  0  0  0  0  0  0  0  0  0
   -1.4860   20.4520  -28.2650 C   0  0  0  0  0  0  0  0  0  0  0  0
   -0.2490   19.9290  -28.6930 C   0  0  0  0  0  0  0  0  0  0  0  0
    0.2390   18.7390  -28.1460 C   0  0  0  0  0  0  0  0  0  0  0  0
   -0.4960   18.0640  -27.1680 C   0  0  0  0  0  0  0  0  0  0  0  0
   -1.7180   18.5810  -26.7320 C   0  0  0  0  0  0  0  0  0  0  0  0
   -2.2100   19.7710  -27.2780 C   0  0  0  0  0  0  0  0  0  0  0  0
   -2.9643   24.5912  -27.2640 H   0  0  0  0  0  0  0  0  0  0  0  0
   -1.4430   24.3737  -28.1941 H   0  0  0  0  0  0  0  0  0  0  0  0
   -2.2760   25.9651  -28.1941 H   0  0  0  0  0  0  0  0  0  0  0  0
   -4.4091   19.5898  -33.6415 H   0  0  0  0  0  0  0  0  0  0  0  0
   -6.9014   19.5464  -33.6910 H   0  0  0  0  0  0  0  0  0  0  0  0
   -8.2064   21.2795  -32.4649 H   0  0  0  0  0  0  0  0  0  0  0  0
   -3.8488   22.0470  -27.8932 H   0  0  0  0  0  0  0  0  0  0  0  0
   -3.9151   21.0902  -29.4221 H   0  0  0  0  0  0  0  0  0  0  0  0
    0.3343   20.4593  -29.4602 H   0  0  0  0  0  0  0  0  0  0  0  0
    1.2032   18.3332  -28.4860 H   0  0  0  0  0  0  0  0  0  0  0  0
   -0.1122   17.1255  -26.7415 H   0  0  0  0  0  0  0  0  0  0  0  0
   -2.2940   18.0518  -25.9585 H   0  0  0  0  0  0  0  0  0  0  0  0
   -3.1721   20.1749  -26.9299 H   0  0  0  0  0  0  0  0  0  0  0  0
  1  2  1  0
  2  3  1  0
  3  4  1  0
  4  5  2  0
  5  6  1  0
  6  7  2  0
  7  8  1  0
  7  9  1  0
  9 10  2  0
 10 11  1  0
 11 12  2  0
 12 13  1  0
  5 14  1  0
 14 15  1  0
 15 16  1  0
 16 17  1  0
 17 18  2  0
 18 19  1  0
 19 20  2  0
 20 21  1  0
 21 22  2  0
 14  2  2  0
 22 17  1  0
 12  6  1  0
  1 23  1  0
  1 24  1  0
  1 25  1  0
  9 26  1  0
 10 27  1  0
 11 28  1  0
 15 29  1  0
 15 30  1  0
 18 31  1  0
 19 32  1  0
 20 33  1  0
 21 34  1  0
 22 35  1  0
M  END
>  <UniqueID>  (6) 
6

>  <SMILES>  (6) 
Cc1onc(-c2c(Cl)cccc2Cl)c1COc1ccccc1

>  <Energy>  (6) 
73.32141149597796

>  <Genealogy>  (6) 
Cc1onc(-c2c(Cl)cccc2Cl)c1COc1ccccc1 (3D coordinates assigned)
Cc1onc(-c2c(Cl)cccc2Cl)c1COc1ccccc1 (optimized conformer: 73.32141149597796 kcal/mol)

>  <smiles>  (6) 
Cc1onc(-c2c(Cl)cccc2Cl)c1COc1ccccc1

>  <score_type>  (6) 
oracle

>  <origin>  (6) 
adgpu

>  <m_score__min__energy>  (6) 
-8.4199999999999999

>  <m_primary>  (6) 
energy

$$$$
6:0
     RDKit          3D

 36 38  0  0  0  0  0  0  0  0999 V2000
   -6.0890   19.0200  -34.6860 C   0  0  0  0  0  0  0  0  0  0  0  0
   -4.7060   18.8540  -34.1450 C   0  0  0  0  0  0  0  0  0  0  0  0
   -3.9550   17.8080  -34.4050 O   0  0  0  0  0  0  0  0  0  0  0  0
   -2.8180   17.9300  -33.7580 C   0  0  0  0  0  0  0  0  0  0  0  0
   -2.8130   19.1060  -33.0360 C   0  0  0  0  0  0  0  0  0  0  0  0
   -4.0190   19.7170  -33.3040 C   0  0  0  0  0  0  0  0  0  0  0  0
   -4.4730   20.9950  -32.7270 C   0  0  0  0  0  0  0  0  0  0  0  0
   -3.7080   22.1040  -32.7200 N   0  0  0  0  0  0  0  0  0  0  0  0
   -4.4070   23.0560  -32.1210 N   0  0  0  0  0  0  0  0  0  0  0  0
   -5.5920   22.5170  -31.7800 C   0  0  0  0  0  0  0  0  0  0  0  0
   -6.9110   23.4610  -31.0040 S   0  0  0  0  0  0  0  0  0  0  0  0
   -5.9400   24.9980  -30.8230 C   0  0  0  0  0  0  0  0  0  0  0  0
   -4.7560   24.8060  -29.8750 C   0  0  0  0  0  0  0  0  0  0  0  0
   -3.5810   25.2980  -30.4610 O   0  0  0  0  0  0  0  0  0  0  0  0
   -5.6710   21.2190  -32.1410 N   0  0  0  0  0  0  0  0  0  0  0  0
   -6.8110   20.3480  -32.0570 C   0  0  0  0  0  0  0  0  0  0  0  0
   -6.6660   19.0280  -31.5970 C   0  0  0  0  0  0  0  0  0  0  0  0
   -7.7760   18.1820  -31.5170 C   0  0  0  0  0  0  0  0  0  0  0  0
   -9.0390   18.6480  -31.8940 C   0  0  0  0  0  0  0  0  0  0  0  0
   -9.1930   19.9590  -32.3510 C   0  0  0  0  0  0  0  0  0  0  0  0
   -8.0840   20.8070  -32.4340 C   0  0  0  0  0  0  0  0  0  0  0  0
   -6.8011   19.1055  -33.8520 H   0  0  0  0  0  0  0  0  0  0  0  0
   -6.1349   19.9301  -35.3021 H   0  0  0  0  0  0  0  0  0  0  0  0
   -6.3490   18.1466  -35.3021 H   0  0  0  0  0  0  0  0  0  0  0  0
   -1.9930   17.2030  -33.7875 H   0  0  0  0  0  0  0  0  0  0  0  0
   -2.0115   19.4790  -32.3814 H   0  0  0  0  0  0  0  0  0  0  0  0
   -5.5614   25.2997  -31.8107 H   0  0  0  0  0  0  0  0  0  0  0  0
   -6.5970   25.7729  -30.4012 H   0  0  0  0  0  0  0  0  0  0  0  0
   -4.9493   25.3486  -28.9379 H   0  0  0  0  0  0  0  0  0  0  0  0
   -4.6318   23.7326  -29.6691 H   0  0  0  0  0  0  0  0  0  0  0  0
   -3.5370   24.9140  -31.3750 H   0  0  0  0  0  0  0  0  0  0  0  0
   -5.6739   18.6586  -31.2983 H   0  0  0  0  0  0  0  0  0  0  0  0
   -7.6556   17.1494  -31.1573 H   0  0  0  0  0  0  0  0  0  0  0  0
   -9.9121   17.9819  -31.8307 H   0  0  0  0  0  0  0  0  0  0  0  0
  -10.1876   20.3248  -32.6459 H   0  0  0  0  0  0  0  0  0  0  0  0
   -8.2091   21.8381  -32.7961 H   0  0  0  0  0  0  0  0  0  0  0  0
  1  2  1  0
  2  3  1  0
  3  4  1  0
  4  5  2  0
  5  6  1  0
  6  7  1  0
  7  8  2  0
  8  9  1  0
  9 10  2  0
 10 11  1  0
 11 12  1  0
 12 13  1  0
 13 14  1  0
 10 15  1  0
 15 16  1  0
 16 17  2  0
 17 18  1  0
 18 19  2  0
 19 20  1  0
 20 21  2  0
  6  2  2  0
 15  7  1  0
 21 16  1  0
  1 22  1  0
  1 23  1  0
  1 24  1  0
  4 25  1  0
  5 26  1  0
 12 27  1  0
 12 28  1  0
 13 29  1  0
 13 30  1  0
 14 31  1  0
 17 32  1  0
 18 33  1  0
 19 34  1  0
 20 35  1  0
 21 36  1  0
M  END
>  <UniqueID>  (7) 
7

>  <SMILES>  (7) 
Cc1occc1-c1nnc(SCCO)n1-c1ccccc1

>  <Energy>  (7) 
100.95109049224871

>  <Genealogy>  (7) 
Cc1occc1-c1nnc(SCCO)n1-c1ccccc1 (3D coordinates assigned)
Cc1occc1-c1nnc(SCCO)n1-c1ccccc1 (optimized conformer: 100.95109049224871 kcal/mol)

>  <smiles>  (7) 
Cc1occc1-c1nnc(SCCO)n1-c1ccccc1

>  <score_type>  (7) 
oracle

>  <origin>  (7) 
adgpu

>  <m_score__min__energy>  (7) 
-8.4700000000000006

>  <m_primary>  (7) 
energy

$$$$
7:0
     RDKit          3D

 27 28  0  0  0  0  0  0  0  0999 V2000
   -8.4390   22.2540  -31.6020 C   0  0  0  0  0  0  0  0  0  0  0  0
   -7.1570   22.9810  -31.3230 C   0  0  0  0  0  0  0  0  0  0  0  0
   -7.1630   24.1530  -30.5520 C   0  0  0  0  0  0  0  0  0  0  0  0
   -5.9640   24.8120  -30.2610 C   0  0  0  0  0  0  0  0  0  0  0  0
   -4.7440   24.3050  -30.7410 C   0  0  0  0  0  0  0  0  0  0  0  0
   -3.4940   24.9470  -30.4470 N   0  0  0  0  0  0  0  0  0  0  0  0
   -2.6020   24.6130  -29.3740 C   0  0  0  0  0  0  0  0  0  0  0  0
   -1.8230   25.5030  -28.9410 O   0  0  0  0  0  0  0  0  0  0  0  0
   -2.6110   23.2780  -28.7320 C   0  0  0  0  0  0  0  0  0  0  0  0
   -1.4590   22.4740  -28.7490 C   0  0  0  0  0  0  0  0  0  0  0  0
   -1.4700   21.2200  -28.1370 C   0  0  0  0  0  0  0  0  0  0  0  0
   -2.6310   20.7790  -27.5010 C   0  0  0  0  0  0  0  0  0  0  0  0
   -2.6730   19.2090  -26.7250 Cl  0  0  0  0  0  0  0  0  0  0  0  0
   -3.7350   21.5730  -27.4750 N   0  0  0  0  0  0  0  0  0  0  0  0
   -3.7500   22.7980  -28.0650 C   0  0  0  0  0  0  0  0  0  0  0  0
   -4.7370   23.1140  -31.4750 C   0  0  0  0  0  0  0  0  0  0  0  0
   -5.9340   22.4550  -31.7660 C   0  0  0  0  0  0  0  0  0  0  0  0
   -8.9202   21.9811  -30.6512 H   0  0  0  0  0  0  0  0  0  0  0  0
   -9.1115   22.9051  -32.1797 H   0  0  0  0  0  0  0  0  0  0  0  0
   -8.2254   21.3426  -32.1797 H   0  0  0  0  0  0  0  0  0  0  0  0
   -8.1147   24.5554  -30.1747 H   0  0  0  0  0  0  0  0  0  0  0  0
   -5.9759   25.7298  -29.6547 H   0  0  0  0  0  0  0  0  0  0  0  0
   -0.5461   22.8339  -29.2460 H   0  0  0  0  0  0  0  0  0  0  0  0
   -0.5719   20.5851  -28.1558 H   0  0  0  0  0  0  0  0  0  0  0  0
   -4.6588   23.4161  -28.0197 H   0  0  0  0  0  0  0  0  0  0  0  0
   -3.7827   22.6937  -31.8253 H   0  0  0  0  0  0  0  0  0  0  0  0
   -5.9176   21.5198  -32.3449 H   0  0  0  0  0  0  0  0  0  0  0  0
  1  2  1  0
  2  3  2  0
  3  4  1  0
  4  5  2  0
  5  6  1  0
  6  7  1  0
  7  8  2  0
  7  9  1  0
  9 10  2  0
 10 11  1  0
 11 12  2  0
 12 13  1  0
 12 14  1  0
 14 15  2  0
  5 16  1  0
 16 17  2  0
 17  2  1  0
 15  9  1  0
  1 18  1  0
  1 19  1  0
  1 20  1  0
  3 21  1  0
  4 22  1  0
 10 23  1  0
 11 24  1  0
 15 25  1  0
 16 26  1  0
 17 27  1  0
M  CHG  1   6  -1
M  END
>  <UniqueID>  (8) 
8

>  <SMILES>  (8) 
Cc1ccc([N-]C(=O)c2ccc(Cl)nc2)cc1

>  <Energy>  (8) 
34.423919636560704

>  <Genealogy>  (8) 
Cc1ccc([N-]C(=O)c2ccc(Cl)nc2)cc1 (protonated)
Cc1ccc([N-]C(=O)c2ccc(Cl)nc2)cc1 (3D coordinates assigned)
Cc1ccc([N-]C(=O)c2ccc(Cl)nc2)cc1 (optimized conformer: 34.423919636560704 kcal/mol)

>  <smiles>  (8) 
Cc1ccc(NC(=O)c2ccc(Cl)nc2)cc1

>  <score_type>  (8) 
oracle

>  <origin>  (8) 
adgpu

>  <m_score__min__energy>  (8) 
-8.6099999999999994

>  <m_primary>  (8) 
energy

$$$$
8:0
     RDKit          3D

 33 35  0  0  0  0  0  0  0  0999 V2000
    2.0640   26.9780  -24.2610 C   0  0  0  0  0  0  0  0  0  0  0  0
    1.2820   26.4920  -23.1230 N   0  0  0  0  0  0  0  0  0  0  0  0
   -0.1280   26.8850  -23.2550 C   0  0  0  0  0  0  0  0  0  0  0  0
   -0.7910   26.0980  -24.3450 C   0  0  0  0  0  0  0  0  0  0  0  0
   -1.7450   26.5790  -25.2340 C   0  0  0  0  0  0  0  0  0  0  0  0
   -2.1430   25.6870  -26.1800 N   0  0  0  0  0  0  0  0  0  0  0  0
   -1.4950   24.5080  -26.0650 C   0  0  0  0  0  0  0  0  0  0  0  0
   -1.7650   23.4220  -26.9070 O   0  0  0  0  0  0  0  0  0  0  0  0
   -2.5400   23.4810  -28.0710 C   0  0  0  0  0  0  0  0  0  0  0  0
   -2.0840   22.8130  -29.2150 C   0  0  0  0  0  0  0  0  0  0  0  0
   -2.8300   22.8360  -30.3970 C   0  0  0  0  0  0  0  0  0  0  0  0
   -4.0500   23.5170  -30.4430 C   0  0  0  0  0  0  0  0  0  0  0  0
   -4.7790   23.5410  -31.5920 N   0  0  0  0  0  0  0  0  0  0  0  0
   -5.9720   24.1880  -31.6680 C   0  0  0  0  0  0  0  0  0  0  0  0
   -6.4850   24.8500  -30.5490 C   0  0  0  0  0  0  0  0  0  0  0  0
   -5.7610   24.8420  -29.3540 C   0  0  0  0  0  0  0  0  0  0  0  0
   -4.5310   24.1760  -29.2900 C   0  0  0  0  0  0  0  0  0  0  0  0
   -3.7780   24.1490  -28.1060 C   0  0  0  0  0  0  0  0  0  0  0  0
   -0.4110   24.5150  -24.7700 S   0  0  0  0  0  0  0  0  0  0  0  0
    2.9447   27.5253  -23.8937 H   0  0  0  0  0  0  0  0  0  0  0  0
    2.3916   26.1241  -24.8722 H   0  0  0  0  0  0  0  0  0  0  0  0
    1.4434   27.6498  -24.8722 H   0  0  0  0  0  0  0  0  0  0  0  0
    1.6800   26.8960  -22.2430 H   0  0  0  0  0  0  0  0  0  0  0  0
    1.3540   25.4470  -23.0870 H   0  0  0  0  0  0  0  0  0  0  0  0
   -0.6474   26.6955  -22.3041 H   0  0  0  0  0  0  0  0  0  0  0  0
   -0.1778   27.9546  -23.5069 H   0  0  0  0  0  0  0  0  0  0  0  0
   -2.1467   27.6014  -25.1768 H   0  0  0  0  0  0  0  0  0  0  0  0
   -1.1305   22.2655  -29.1828 H   0  0  0  0  0  0  0  0  0  0  0  0
   -2.4565   22.3174  -31.2923 H   0  0  0  0  0  0  0  0  0  0  0  0
   -6.5353   24.1906  -32.6128 H   0  0  0  0  0  0  0  0  0  0  0  0
   -7.4509   25.3730  -30.6086 H   0  0  0  0  0  0  0  0  0  0  0  0
   -6.1561   25.3574  -28.4662 H   0  0  0  0  0  0  0  0  0  0  0  0
   -4.1564   24.6511  -27.2034 H   0  0  0  0  0  0  0  0  0  0  0  0
  1  2  1  0
  2  3  1  0
  3  4  1  0
  4  5  2  0
  5  6  1  0
  6  7  2  0
  7  8  1  0
  8  9  1  0
  9 10  2  0
 10 11  1  0
 11 12  2  0
 12 13  1  0
 13 14  2  0
 14 15  1  0
 15 16  2  0
 16 17  1  0
 17 18  2  0
  7 19  1  0
 19  4  1  0
 18  9  1  0
 17 12  1  0
  1 20  1  0
  1 21  1  0
  1 22  1  0
  2 23  1  0
  2 24  1  0
  3 25  1  0
  3 26  1  0
  5 27  1  0
 10 28  1  0
 11 29  1  0
 14 30  1  0
 15 31  1  0
 16 32  1  0
 18 33  1  0
M  CHG  1   2   1
M  END
>  <UniqueID>  (9) 
9

>  <SMILES>  (9) 
C[NH2+]Cc1cnc(Oc2ccc3ncccc3c2)s1

>  <Energy>  (9) 
71.23124619341925

>  <Genealogy>  (9) 
C[NH2+]Cc1cnc(Oc2ccc3ncccc3c2)s1 (protonated)
C[NH2+]Cc1cnc(Oc2ccc3ncccc3c2)s1 (3D coordinates assigned)
C[NH2+]Cc1cnc(Oc2ccc3ncccc3c2)s1 (optimized conformer: 71.23124619341925 kcal/mol)

>  <smiles>  (9) 
CNCc1cnc(Oc2ccc3ncccc3c2)s1

>  <score_type>  (9) 
oracle

>  <origin>  (9) 
adgpu

>  <m_score__min__energy>  (9) 
-7.5499999999999998

>  <m_primary>  (9) 
energy

$$$$
9:0
     RDKit          3D

 24 24  0  0  0  0  0  0  0  0999 V2000
   -5.8580   17.9760  -34.0130 C   0  0  0  0  0  0  0  0  0  0  0  0
   -6.4850   19.2800  -34.2050 N   0  0  0  0  0  0  0  0  0  0  0  0
   -6.5180   20.3040  -33.1940 C   0  0  0  0  0  0  0  0  0  0  0  0
   -7.7160   20.6730  -32.5530 C   0  0  0  0  0  0  0  0  0  0  0  0
   -7.7150   21.6730  -31.5750 C   0  0  0  0  0  0  0  0  0  0  0  0
   -6.5230   22.3120  -31.2080 C   0  0  0  0  0  0  0  0  0  0  0  0
   -6.5570   23.3510  -30.2150 N   0  0  0  0  0  0  0  0  0  0  0  0
   -5.8630   24.6030  -30.3350 C   0  0  0  0  0  0  0  0  0  0  0  0
   -6.1190   25.6910  -29.3450 C   0  0  0  0  0  0  0  0  0  0  0  0
   -4.9760   24.7660  -31.2160 O   0  0  0  0  0  0  0  0  0  0  0  0
   -5.3310   21.9600  -31.8640 C   0  0  0  0  0  0  0  0  0  0  0  0
   -5.3300   20.9610  -32.8420 C   0  0  0  0  0  0  0  0  0  0  0  0
   -5.7596   17.7714  -32.9367 H   0  0  0  0  0  0  0  0  0  0  0  0
   -6.4804   17.1977  -34.4788 H   0  0  0  0  0  0  0  0  0  0  0  0
   -4.8615   17.9761  -34.4788 H   0  0  0  0  0  0  0  0  0  0  0  0
   -6.9300   19.4700  -35.1310 H   0  0  0  0  0  0  0  0  0  0  0  0
   -8.6576   20.1723  -32.8227 H   0  0  0  0  0  0  0  0  0  0  0  0
   -8.6591   21.9607  -31.0892 H   0  0  0  0  0  0  0  0  0  0  0  0
   -7.0490   23.1550  -29.3150 H   0  0  0  0  0  0  0  0  0  0  0  0
   -6.0244   25.2888  -28.3255 H   0  0  0  0  0  0  0  0  0  0  0  0
   -5.3863   26.4986  -29.4901 H   0  0  0  0  0  0  0  0  0  0  0  0
   -7.1349   26.0872  -29.4901 H   0  0  0  0  0  0  0  0  0  0  0  0
   -4.3930   22.4737  -31.6064 H   0  0  0  0  0  0  0  0  0  0  0  0
   -4.3882   20.6876  -33.3403 H   0  0  0  0  0  0  0  0  0  0  0  0
  1  2  1  0
  2  3  1  0
  3  4  2  0
  4  5  1  0
  5  6  2  0
  6  7  1  0
  7  8  1  0
  8  9  1  0
  8 10  2  0
  6 11  1  0
 11 12  2  0
 12  3  1  0
  1 13  1  0
  1 14  1  0
  1 15  1  0
  2 16  1  0
  4 17  1  0
  5 18  1  0
  7 19  1  0
  9 20  1  0
  9 21  1  0
  9 22  1  0
 11 23  1  0
 12 24  1  0
M  END
>  <UniqueID>  (10) 
10

>  <SMILES>  (10) 
CNc1ccc(NC(C)=O)cc1

>  <Energy>  (10) 
22.169952727964453

>  <Genealogy>  (10) 
CNc1ccc(NC(C)=O)cc1 (3D coordinates assigned)
CNc1ccc(NC(C)=O)cc1 (optimized conformer: 22.169952727964453 kcal/mol)

>  <smiles>  (10) 
CNc1ccc(NC(C)=O)cc1

>  <score_type>  (10) 
oracle

>  <origin>  (10) 
adgpu

>  <m_score__min__energy>  (10) 
-5.5599999999999996

>  <m_primary>  (10) 
energy

$$$$
10:0
     RDKit          3D

 23 24  0  0  0  0  0  0  0  0999 V2000
   -3.4840   25.3000  -30.7010 O   0  0  0  0  0  0  0  0  0  0  0  0
   -4.7280   24.6900  -30.5360 C   0  0  0  0  0  0  0  0  0  0  0  0
   -5.7940   25.4180  -29.9890 C   0  0  0  0  0  0  0  0  0  0  0  0
   -7.0360   24.8110  -29.7950 C   0  0  0  0  0  0  0  0  0  0  0  0
   -7.2240   23.4740  -30.1480 C   0  0  0  0  0  0  0  0  0  0  0  0
   -6.1710   22.7380  -30.6990 C   0  0  0  0  0  0  0  0  0  0  0  0
   -6.3880   21.4470  -31.0590 F   0  0  0  0  0  0  0  0  0  0  0  0
   -4.9120   23.3390  -30.9010 C   0  0  0  0  0  0  0  0  0  0  0  0
   -3.8000   22.5560  -31.4880 C   0  0  0  0  0  0  0  0  0  0  0  0
   -3.9280   21.9840  -32.7670 C   0  0  0  0  0  0  0  0  0  0  0  0
   -2.8780   21.2430  -33.3170 C   0  0  0  0  0  0  0  0  0  0  0  0
   -1.6930   21.0670  -32.5980 C   0  0  0  0  0  0  0  0  0  0  0  0
   -1.5570   21.6290  -31.3260 C   0  0  0  0  0  0  0  0  0  0  0  0
   -2.6050   22.3710  -30.7720 C   0  0  0  0  0  0  0  0  0  0  0  0
   -3.1840   25.6590  -31.5990 H   0  0  0  0  0  0  0  0  0  0  0  0
   -5.6510   26.4727  -29.7113 H   0  0  0  0  0  0  0  0  0  0  0  0
   -7.8676   25.3873  -29.3633 H   0  0  0  0  0  0  0  0  0  0  0  0
   -8.2034   22.9980  -29.9923 H   0  0  0  0  0  0  0  0  0  0  0  0
   -4.8589   22.1205  -33.3370 H   0  0  0  0  0  0  0  0  0  0  0  0
   -2.9848   20.7979  -34.3172 H   0  0  0  0  0  0  0  0  0  0  0  0
   -0.8668   20.4858  -33.0335 H   0  0  0  0  0  0  0  0  0  0  0  0
   -0.6246   21.4877  -30.7597 H   0  0  0  0  0  0  0  0  0  0  0  0
   -2.4934   22.8121  -29.7705 H   0  0  0  0  0  0  0  0  0  0  0  0
  1  2  1  0
  2  3  2  0
  3  4  1  0
  4  5  2  0
  5  6  1  0
  6  7  1  0
  6  8  2  0
  8  9  1  0
  9 10  2  0
 10 11  1  0
 11 12  2  0
 12 13  1  0
 13 14  2  0
  8  2  1  0
 14  9  1  0
  1 15  1  0
  3 16  1  0
  4 17  1  0
  5 18  1  0
 10 19  1  0
 11 20  1  0
 12 21  1  0
 13 22  1  0
 14 23  1  0
M  END
>  <UniqueID>  (11) 
11

>  <SMILES>  (11) 
Oc1cccc(F)c1-c1ccccc1

>  <Energy>  (11) 
30.781972430469903

>  <Genealogy>  (11) 
Oc1cccc(F)c1-c1ccccc1 (3D coordinates assigned)
Oc1cccc(F)c1-c1ccccc1 (optimized conformer: 30.781972430469903 kcal/mol)

>  <smiles>  (11) 
Oc1cccc(F)c1-c1ccccc1

>  <score_type>  (11) 
oracle

>  <origin>  (11) 
adgpu

>  <m_score__min__energy>  (11) 
-6.6200000000000001

>  <m_primary>  (11) 
energy

$$$$
11:0
     RDKit          3D

 43 45  0  0  0  0  0  0  0  0999 V2000
   -0.8820   27.6170  -23.7730 N   0  0  0  0  0  0  0  0  0  0  0  0
   -0.5030   26.3650  -24.3580 C   0  0  0  0  0  0  0  0  0  0  0  0
    0.3300   25.5910  -23.7280 N   0  0  0  0  0  0  0  0  0  0  0  0
   -1.0580   25.9680  -25.6770 C   0  0  0  0  0  0  0  0  0  0  0  0
   -2.2860   25.2910  -25.7520 C   0  0  0  0  0  0  0  0  0  0  0  0
   -2.8120   24.9090  -26.9890 C   0  0  0  0  0  0  0  0  0  0  0  0
   -2.1160   25.1890  -28.1790 C   0  0  0  0  0  0  0  0  0  0  0  0
   -2.6260   24.8020  -29.4700 N   0  0  0  0  0  0  0  0  0  0  0  0
   -4.0250   24.9260  -29.8790 C   0  0  0  0  0  0  0  0  0  0  0  0
   -4.5070   23.6500  -30.5180 C   0  0  0  0  0  0  0  0  0  0  0  0
   -3.6670   22.5290  -30.5990 C   0  0  0  0  0  0  0  0  0  0  0  0
   -4.1190   21.3480  -31.1940 C   0  0  0  0  0  0  0  0  0  0  0  0
   -5.4240   21.2620  -31.7120 C   0  0  0  0  0  0  0  0  0  0  0  0
   -5.9030   20.0080  -32.3480 C   0  0  0  0  0  0  0  0  0  0  0  0
   -5.2770   19.5080  -33.5050 C   0  0  0  0  0  0  0  0  0  0  0  0
   -5.7310   18.3270  -34.1020 C   0  0  0  0  0  0  0  0  0  0  0  0
   -6.8100   17.6340  -33.5510 C   0  0  0  0  0  0  0  0  0  0  0  0
   -7.4400   18.1190  -32.4020 C   0  0  0  0  0  0  0  0  0  0  0  0
   -6.9910   19.2990  -31.8020 C   0  0  0  0  0  0  0  0  0  0  0  0
   -6.2670   22.3830  -31.6170 C   0  0  0  0  0  0  0  0  0  0  0  0
   -5.8140   23.5640  -31.0230 C   0  0  0  0  0  0  0  0  0  0  0  0
   -0.8910   25.8690  -28.1020 C   0  0  0  0  0  0  0  0  0  0  0  0
   -0.3650   26.2520  -26.8660 C   0  0  0  0  0  0  0  0  0  0  0  0
   -1.6150   28.2160  -24.2120 H   0  0  0  0  0  0  0  0  0  0  0  0
   -0.4660   27.9310  -22.8690 H   0  0  0  0  0  0  0  0  0  0  0  0
    0.7180   25.8690  -22.7990 H   0  0  0  0  0  0  0  0  0  0  0  0
    0.6580   24.6880  -24.1370 H   0  0  0  0  0  0  0  0  0  0  0  0
   -2.8384   25.0595  -24.8294 H   0  0  0  0  0  0  0  0  0  0  0  0
   -3.7782   24.3851  -27.0326 H   0  0  0  0  0  0  0  0  0  0  0  0
   -1.9690   24.3570  -30.1520 H   0  0  0  0  0  0  0  0  0  0  0  0
   -4.6421   25.1427  -28.9946 H   0  0  0  0  0  0  0  0  0  0  0  0
   -4.1087   25.7424  -30.6115 H   0  0  0  0  0  0  0  0  0  0  0  0
   -2.6465   22.5801  -30.1917 H   0  0  0  0  0  0  0  0  0  0  0  0
   -3.4486   20.4783  -31.2578 H   0  0  0  0  0  0  0  0  0  0  0  0
   -4.4253   20.0492  -33.9428 H   0  0  0  0  0  0  0  0  0  0  0  0
   -5.2368   17.9440  -35.0070 H   0  0  0  0  0  0  0  0  0  0  0  0
   -7.1647   16.7052  -34.0217 H   0  0  0  0  0  0  0  0  0  0  0  0
   -8.2903   17.5716  -31.9691 H   0  0  0  0  0  0  0  0  0  0  0  0
   -7.4905   19.6764  -30.8976 H   0  0  0  0  0  0  0  0  0  0  0  0
   -7.2917   22.3301  -32.0135 H   0  0  0  0  0  0  0  0  0  0  0  0
   -6.4859   24.4319  -30.9507 H   0  0  0  0  0  0  0  0  0  0  0  0
   -0.3393   26.1028  -29.0244 H   0  0  0  0  0  0  0  0  0  0  0  0
    0.5991   26.7800  -26.8231 H   0  0  0  0  0  0  0  0  0  0  0  0
  1  2  1  0
  2  3  2  0
  2  4  1  0
  4  5  2  0
  5  6  1  0
  6  7  2  0
  7  8  1  0
  8  9  1  0
  9 10  1  0
 10 11  2  0
 11 12  1  0
 12 13  2  0
 13 14  1  0
 14 15  2  0
 15 16  1  0
 16 17  2  0
 17 18  1  0
 18 19  2  0
 13 20  1  0
 20 21  2  0
  7 22  1  0
 22 23  2  0
 23  4  1  0
 21 10  1  0
 19 14  1  0
  1 24  1  0
  1 25  1  0
  3 26  1  0
  3 27  1  0
  5 28  1  0
  6 29  1  0
  8 30  1  0
  9 31  1  0
  9 32  1  0
 11 33  1  0
 12 34  1  0
 15 35  1  0
 16 36  1  0
 17 37  1  0
 18 38  1  0
 19 39  1  0
 20 40  1  0
 21 41  1  0
 22 42  1  0
 23 43  1  0
M  CHG  1   3   1
M  END
>  <UniqueID>  (12) 
12

>  <SMILES>  (12) 
NC(=[NH2+])c1ccc(NCc2ccc(-c3ccccc3)cc2)cc1

>  <Energy>  (12) 
52.13978299656414

>  <Genealogy>  (12) 
NC(=[NH2+])c1ccc(NCc2ccc(-c3ccccc3)cc2)cc1 (protonated)
NC(=[NH2+])c1ccc(NCc2ccc(-c3ccccc3)cc2)cc1 (3D coordinates assigned)
NC(=[NH2+])c1ccc(NCc2ccc(-c3ccccc3)cc2)cc1 (optimized conformer: 52.13978299656414 kcal/mol)

>  <smiles>  (12) 
N=C(N)c1ccc(NCc2ccc(-c3ccccc3)cc2)cc1

>  <score_type>  (12) 
oracle

>  <origin>  (12) 
adgpu

>  <m_score__min__energy>  (12) 
-9.7400000000000002

>  <m_primary>  (12) 
energy

$$$$
12:0
     RDKit          3D

 39 42  0  0  0  0  0  0  0  0999 V2000
   -9.2774   17.5939  -31.5927 H   0  0  0  0  0  0  0  0  0  0  0  0
   -8.4890   18.2700  -31.9550 C   0  0  0  0  0  0  0  0  0  0  0  0
   -7.6180   17.8480  -32.9630 C   0  0  0  0  0  0  0  0  0  0  0  0
   -7.7275   16.8447  -33.4004 H   0  0  0  0  0  0  0  0  0  0  0  0
   -6.6080   18.7010  -33.4150 C   0  0  0  0  0  0  0  0  0  0  0  0
   -5.5010   18.1650  -34.6660 Cl  0  0  0  0  0  0  0  0  0  0  0  0
   -6.4760   19.9830  -32.8670 C   0  0  0  0  0  0  0  0  0  0  0  0
   -5.6692   20.6456  -33.2134 H   0  0  0  0  0  0  0  0  0  0  0  0
   -7.3660   20.4260  -31.8800 C   0  0  0  0  0  0  0  0  0  0  0  0
   -7.1790   21.7400  -31.3240 N   0  0  0  0  0  0  0  0  0  0  0  0
   -6.0590   22.3980  -31.2420 C   0  0  0  0  0  0  0  0  0  0  0  0
   -4.8690   21.8460  -31.6170 N   0  0  0  0  0  0  0  0  0  0  0  0
   -3.6880   22.5310  -31.5060 C   0  0  0  0  0  0  0  0  0  0  0  0
   -2.4150   21.9030  -31.9360 C   0  0  0  0  0  0  0  0  0  0  0  0
   -1.3380   21.7790  -31.0390 C   0  0  0  0  0  0  0  0  0  0  0  0
   -1.4410   22.1502  -30.0087 H   0  0  0  0  0  0  0  0  0  0  0  0
   -0.1380   21.1880  -31.4460 C   0  0  0  0  0  0  0  0  0  0  0  0
    0.6963   21.0980  -30.7348 H   0  0  0  0  0  0  0  0  0  0  0  0
    0.0080   20.7080  -32.7600 C   0  0  0  0  0  0  0  0  0  0  0  0
    1.1910   20.1070  -33.2150 O   0  0  0  0  0  0  0  0  0  0  0  0
    1.9830   19.2080  -32.4470 C   0  0  0  0  0  0  0  0  0  0  0  0
    1.8171   19.3963  -31.3760 H   0  0  0  0  0  0  0  0  0  0  0  0
    1.6981   18.1727  -32.6857 H   0  0  0  0  0  0  0  0  0  0  0  0
    3.0460   19.3601  -32.6857 H   0  0  0  0  0  0  0  0  0  0  0  0
   -1.0620   20.8300  -33.6530 C   0  0  0  0  0  0  0  0  0  0  0  0
   -0.9577   20.4572  -34.6826 H   0  0  0  0  0  0  0  0  0  0  0  0
   -2.2620   21.4210  -33.2490 C   0  0  0  0  0  0  0  0  0  0  0  0
   -3.0938   21.5101  -33.9633 H   0  0  0  0  0  0  0  0  0  0  0  0
   -3.7010   23.7980  -30.9960 N   0  0  0  0  0  0  0  0  0  0  0  0
   -4.8610   24.3300  -30.6200 N   0  0  0  0  0  0  0  0  0  0  0  0
   -5.0790   25.5440  -30.0950 C   0  0  0  0  0  0  0  0  0  0  0  0
   -4.3117   26.3057  -29.8923 H   0  0  0  0  0  0  0  0  0  0  0  0
   -6.4390   25.6750  -29.8510 C   0  0  0  0  0  0  0  0  0  0  0  0
   -6.9413   26.5546  -29.4220 H   0  0  0  0  0  0  0  0  0  0  0  0
   -7.0520   24.4880  -30.2490 C   0  0  0  0  0  0  0  0  0  0  0  0
   -8.1228   24.2414  -30.1994 H   0  0  0  0  0  0  0  0  0  0  0  0
   -6.0290   23.6870  -30.7190 C   0  0  0  0  0  0  0  0  0  0  0  0
   -8.3610   19.5490  -31.4060 C   0  0  0  0  0  0  0  0  0  0  0  0
   -9.0389   19.8714  -30.6019 H   0  0  0  0  0  0  0  0  0  0  0  0
  1  2  1  0
  2  3  2  0
  3  4  1  0
  3  5  1  0
  5  6  1  0
  5  7  2  0
  7  8  1  0
  7  9  1  0
  9 10  1  0
 10 11  2  0
 11 12  1  0
 12 13  2  0
 13 14  1  0
 14 15  2  0
 15 16  1  0
 15 17  1  0
 17 18  1  0
 17 19  2  0
 19 20  1  0
 20 21  1  0
 21 22  1  0
 21 23  1  0
 21 24  1  0
 19 25  1  0
 25 26  1  0
 25 27  2  0
 27 28  1  0
 13 29  1  0
 29 30  1  0
 30 31  1  0
 31 32  1  0
 31 33  2  0
 33 34  1  0
 33 35  1  0
 35 36  1  0
 35 37  2  0
  9 38  2  0
 38 39  1  0
 38  2  1  0
 37 11  1  0
 27 14  1  0
 37 30  1  0
M  CHG  1  29  -1
M  END
>  <UniqueID>  (13) 
13

>  <SMILES>  (13) 
COc1ccc(-c2n/c(=N\c3cccc(Cl)c3)c3cccn3[n-]2)cc1

>  <Energy>  (13) 
83.80619941162261

>  <Genealogy>  (13) 
COc1ccc(-c2nc(=Nc3cccc(Cl)c3)c3cccn3[n-]2)cc1 (protonated)
COc1ccc(-c2n/c(=N\c3cccc(Cl)c3)c3cccn3[n-]2)cc1 (cis-trans isomerization)
COc1ccc(-c2n/c(=N\c3cccc(Cl)c3)c3cccn3[n-]2)cc1 (3D coordinates assigned)
COc1ccc(-c2n/c(=N\c3cccc(Cl)c3)c3cccn3[n-]2)cc1 (optimized conformer: 83.80619941162261 kcal/mol)

>  <smiles>  (13) 
COc1ccc(-c2nc(=Nc3cccc(Cl)c3)c3cccn3[nH]2)cc1

>  <score_type>  (13) 
oracle

>  <origin>  (13) 
adgpu

>  <m_score__min__energy>  (13) 
-8.8599999999999994

>  <m_primary>  (13) 
energy

$$$$
13:0
     RDKit          3D

 36 38  0  0  0  0  0  0  0  0999 V2000
   -2.0240   22.2890  -30.8790 C   0  0  0  0  0  0  0  0  0  0  0  0
   -3.0080   23.0490  -31.5730 O   0  0  0  0  0  0  0  0  0  0  0  0
   -4.3560   22.6780  -31.6960 C   0  0  0  0  0  0  0  0  0  0  0  0
   -4.7380   21.4020  -32.1790 C   0  0  0  0  0  0  0  0  0  0  0  0
   -6.0990   21.1090  -32.2560 C   0  0  0  0  0  0  0  0  0  0  0  0
   -6.8050   20.0020  -32.7070 C   0  0  0  0  0  0  0  0  0  0  0  0
   -6.2690   18.7160  -33.1980 C   0  0  0  0  0  0  0  0  0  0  0  0
   -5.7430   18.6320  -34.4970 C   0  0  0  0  0  0  0  0  0  0  0  0
   -5.2440   17.4170  -34.9800 C   0  0  0  0  0  0  0  0  0  0  0  0
   -5.2800   16.2760  -34.1760 C   0  0  0  0  0  0  0  0  0  0  0  0
   -4.7980   15.0990  -34.6450 F   0  0  0  0  0  0  0  0  0  0  0  0
   -5.8220   16.3440  -32.8890 C   0  0  0  0  0  0  0  0  0  0  0  0
   -6.3210   17.5570  -32.4020 C   0  0  0  0  0  0  0  0  0  0  0  0
   -8.1300   20.2840  -32.6480 N   0  0  0  0  0  0  0  0  0  0  0  0
   -8.2700   21.5110  -32.1600 N   0  0  0  0  0  0  0  0  0  0  0  0
   -9.5570   22.1710  -31.9720 C   0  0  0  0  0  0  0  0  0  0  0  0
   -7.0510   22.0280  -31.9190 C   0  0  0  0  0  0  0  0  0  0  0  0
   -6.7200   23.2960  -31.4470 C   0  0  0  0  0  0  0  0  0  0  0  0
   -5.3480   23.6230  -31.3250 C   0  0  0  0  0  0  0  0  0  0  0  0
   -4.9250   24.8760  -30.8500 O   0  0  0  0  0  0  0  0  0  0  0  0
   -5.7380   25.7620  -30.0890 C   0  0  0  0  0  0  0  0  0  0  0  0
   -2.1707   22.4023  -29.7947 H   0  0  0  0  0  0  0  0  0  0  0  0
   -2.1196   21.2280  -31.1531 H   0  0  0  0  0  0  0  0  0  0  0  0
   -1.0216   22.6496  -31.1531 H   0  0  0  0  0  0  0  0  0  0  0  0
   -3.9823   20.6634  -32.4846 H   0  0  0  0  0  0  0  0  0  0  0  0
   -5.7230   19.5255  -35.1382 H   0  0  0  0  0  0  0  0  0  0  0  0
   -4.8228   17.3608  -35.9946 H   0  0  0  0  0  0  0  0  0  0  0  0
   -5.8561   15.4431  -32.2588 H   0  0  0  0  0  0  0  0  0  0  0  0
   -6.7557   17.6047  -31.3927 H   0  0  0  0  0  0  0  0  0  0  0  0
   -9.7616   22.2759  -30.8963 H   0  0  0  0  0  0  0  0  0  0  0  0
   -9.5302   23.1666  -32.4390 H   0  0  0  0  0  0  0  0  0  0  0  0
  -10.3499   21.5682  -32.4390 H   0  0  0  0  0  0  0  0  0  0  0  0
   -7.5014   24.0217  -31.1771 H   0  0  0  0  0  0  0  0  0  0  0  0
   -5.5725   25.5817  -29.0166 H   0  0  0  0  0  0  0  0  0  0  0  0
   -5.4732   26.8018  -30.3311 H   0  0  0  0  0  0  0  0  0  0  0  0
   -6.7967   25.5874  -30.3311 H   0  0  0  0  0  0  0  0  0  0  0  0
  1  2  1  0
  2  3  1  0
  3  4  2  0
  4  5  1  0
  5  6  1  0
  6  7  1  0
  7  8  2  0
  8  9  1  0
  9 10  2  0
 10 11  1  0
 10 12  1  0
 12 13  2  0
  6 14  2  0
 14 15  1  0
 15 16  1  0
 15 17  1  0
 17 18  1  0
 18 19  2  0
 19 20  1  0
 20 21  1  0
 19  3  1  0
 17  5  2  0
 13  7  1  0
  1 22  1  0
  1 23  1  0
  1 24  1  0
  4 25  1  0
  8 26  1  0
  9 27  1  0
 12 28  1  0
 13 29  1  0
 16 30  1  0
 16 31  1  0
 16 32  1  0
 18 33  1  0
 21 34  1  0
 21 35  1  0
 21 36  1  0
M  END
>  <UniqueID>  (14) 
14

>  <SMILES>  (14) 
COc1cc2c(-c3ccc(F)cc3)nn(C)c2cc1OC

>  <Energy>  (14) 
79.31017281195851

>  <Genealogy>  (14) 
COc1cc2c(-c3ccc(F)cc3)nn(C)c2cc1OC (3D coordinates assigned)
COc1cc2c(-c3ccc(F)cc3)nn(C)c2cc1OC (optimized conformer: 79.31017281195851 kcal/mol)

>  <smiles>  (14) 
COc1cc2c(-c3ccc(F)cc3)nn(C)c2cc1OC

>  <score_type>  (14) 
oracle

>  <origin>  (14) 
adgpu

>  <m_score__min__energy>  (14) 
-7.5300000000000002

>  <m_primary>  (14) 
energy

$$$$
14:0
     RDKit          3D

 35 38  0  0  1  0  0  0  0  0999 V2000
   -1.0990   26.9910  -25.1130 Cl  0  0  0  0  0  0  0  0  0  0  0  0
   -1.8400   25.9020  -26.2820 C   0  0  0  0  0  0  0  0  0  0  0  0
   -3.0580   25.3020  -25.9960 C   0  0  0  0  0  0  0  0  0  0  0  0
   -3.5970   24.4620  -26.9360 C   0  0  0  0  0  0  0  0  0  0  0  0
   -2.9710   24.1940  -28.1510 C   0  0  0  0  0  0  0  0  0  0  0  0
   -3.6530   23.3020  -29.0220 N   0  0  0  0  0  0  0  0  0  0  0  0
   -4.7600   23.6870  -29.5960 C   0  0  0  0  0  0  0  0  0  0  0  0
   -5.2870   24.9080  -29.3940 N   0  0  0  0  0  0  0  0  0  0  0  0
   -6.4190   25.3350  -29.9660 C   0  0  0  0  0  0  0  0  0  0  0  0
   -7.0480   24.4660  -30.7900 N   0  0  0  0  0  0  0  0  0  0  0  0
   -6.5700   23.2280  -31.0310 C   0  0  0  0  0  0  0  0  0  0  0  0
   -7.0630   22.2140  -31.8300 C   0  0  0  0  0  0  0  0  0  0  0  0
   -6.1810   21.1880  -31.7010 N   0  0  0  0  0  0  0  0  0  0  0  0
   -6.3580   19.9540  -32.3860 C   0  0  0  0  0  0  0  0  0  0  0  0
   -5.7310   19.6490  -33.5750 C   0  0  0  0  0  0  0  0  0  0  0  0
   -5.9780   18.4090  -34.1600 C   0  0  0  0  0  0  0  0  0  0  0  0
   -6.8390   17.5030  -33.5540 C   0  0  0  0  0  0  0  0  0  0  0  0
   -7.4790   17.8060  -32.3490 C   0  0  0  0  0  0  0  0  0  0  0  0
   -7.2240   19.0410  -31.7790 C   0  0  0  0  0  0  0  0  0  0  0  0
   -5.2070   21.5550  -30.8740 N   0  0  0  0  0  0  0  0  0  0  0  0
   -5.4020   22.7960  -30.4370 C   0  0  0  0  0  0  0  0  0  0  0  0
   -1.7700   24.7830  -28.4360 C   0  0  0  0  0  0  0  0  0  0  0  0
   -1.2170   25.6400  -27.4830 C   0  0  0  0  0  0  0  0  0  0  0  0
   -3.5752   25.4944  -25.0444 H   0  0  0  0  0  0  0  0  0  0  0  0
   -4.5625   23.9804  -26.7220 H   0  0  0  0  0  0  0  0  0  0  0  0
   -4.8050   25.5970  -28.7520 H   0  0  0  0  0  0  0  0  0  0  0  0
   -6.8180   26.3422  -29.7756 H   0  0  0  0  0  0  0  0  0  0  0  0
   -7.9770   22.2332  -32.4417 H   0  0  0  0  0  0  0  0  0  0  0  0
   -5.0501   20.3694  -34.0518 H   0  0  0  0  0  0  0  0  0  0  0  0
   -5.4876   18.1455  -35.1087 H   0  0  0  0  0  0  0  0  0  0  0  0
   -7.0205   16.5288  -34.0314 H   0  0  0  0  0  0  0  0  0  0  0  0
   -8.1614   17.0881  -31.8705 H   0  0  0  0  0  0  0  0  0  0  0  0
   -7.7122   19.3088  -30.8304 H   0  0  0  0  0  0  0  0  0  0  0  0
   -1.2551   24.5872  -29.3881 H   0  0  0  0  0  0  0  0  0  0  0  0
   -0.2519   26.1222  -27.6978 H   0  0  0  0  0  0  0  0  0  0  0  0
  1  2  1  0
  2  3  2  0
  3  4  1  0
  4  5  2  0
  5  6  1  0
  6  7  2  0
  7  8  1  0
  8  9  1  0
  9 10  2  0
 10 11  1  0
 11 12  2  0
 12 13  1  0
 13 14  1  0
 14 15  2  0
 15 16  1  0
 16 17  2  0
 17 18  1  0
 18 19  2  0
 13 20  1  0
 20 21  2  0
  5 22  1  0
 22 23  2  0
 23  2  1  0
 21  7  1  0
 21 11  1  0
 19 14  1  0
  3 24  1  0
  4 25  1  0
  8 26  1  0
  9 27  1  0
 12 28  1  0
 15 29  1  0
 16 30  1  0
 17 31  1  0
 18 32  1  0
 19 33  1  0
 22 34  1  0
 23 35  1  0
M  END
>  <smiles>  (15) 
Clc1ccc(N=c2[nH]cnc3cn(-c4ccccc4)nc23)cc1

>  <score_type>  (15) 
oracle

>  <origin>  (15) 
adgpu

>  <m_score__min__energy>  (15) 
-8.4600000000000009

>  <m_primary>  (15) 
energy

$$$$
15:0
     RDKit          3D

 33 34  0  0  0  0  0  0  0  0999 V2000
   -6.8240   17.3740  -33.8160 C   0  0  0  0  0  0  0  0  0  0  0  0
   -6.2170   18.5780  -33.1720 C   0  0  0  0  0  0  0  0  0  0  0  0
   -5.1930   18.4440  -32.4490 O   0  0  0  0  0  0  0  0  0  0  0  0
   -6.8020   19.8730  -33.3830 N   0  0  0  0  0  0  0  0  0  0  0  0
   -6.4340   21.0540  -32.6500 C   0  0  0  0  0  0  0  0  0  0  0  0
   -5.0990   21.4850  -32.6650 C   0  0  0  0  0  0  0  0  0  0  0  0
   -4.7200   22.6440  -31.9800 C   0  0  0  0  0  0  0  0  0  0  0  0
   -5.6770   23.3970  -31.2870 C   0  0  0  0  0  0  0  0  0  0  0  0
   -5.2090   24.8670  -30.4380 S   0  0  0  0  0  0  0  0  0  0  0  0
   -5.7890   24.8860  -29.0510 O   0  0  0  0  0  0  0  0  0  0  0  0
   -5.7250   26.0540  -31.2000 O   0  0  0  0  0  0  0  0  0  0  0  0
   -3.4820   24.9680  -30.3300 N   0  0  0  0  0  0  0  0  0  0  0  0
   -2.6940   24.4990  -29.2270 C   0  0  0  0  0  0  0  0  0  0  0  0
   -3.0250   23.2690  -28.6420 C   0  0  0  0  0  0  0  0  0  0  0  0
   -2.2910   22.7800  -27.5580 C   0  0  0  0  0  0  0  0  0  0  0  0
   -1.2160   23.5160  -27.0500 C   0  0  0  0  0  0  0  0  0  0  0  0
   -0.2940   22.9020  -25.6890 Cl  0  0  0  0  0  0  0  0  0  0  0  0
   -0.8760   24.7420  -27.6290 C   0  0  0  0  0  0  0  0  0  0  0  0
   -1.6090   25.2350  -28.7140 C   0  0  0  0  0  0  0  0  0  0  0  0
   -7.0140   22.9820  -31.2840 C   0  0  0  0  0  0  0  0  0  0  0  0
   -7.3940   21.8230  -31.9670 C   0  0  0  0  0  0  0  0  0  0  0  0
   -7.1742   16.6794  -33.0382 H   0  0  0  0  0  0  0  0  0  0  0  0
   -7.6743   17.6824  -34.4419 H   0  0  0  0  0  0  0  0  0  0  0  0
   -6.0704   16.8738  -34.4419 H   0  0  0  0  0  0  0  0  0  0  0  0
   -7.4750   19.9790  -34.1760 H   0  0  0  0  0  0  0  0  0  0  0  0
   -4.3449   20.9072  -33.2195 H   0  0  0  0  0  0  0  0  0  0  0  0
   -3.6679   22.9652  -31.9853 H   0  0  0  0  0  0  0  0  0  0  0  0
   -3.8682   22.6847  -29.0389 H   0  0  0  0  0  0  0  0  0  0  0  0
   -2.5593   21.8148  -27.1037 H   0  0  0  0  0  0  0  0  0  0  0  0
   -0.0298   25.3208  -27.2305 H   0  0  0  0  0  0  0  0  0  0  0  0
   -1.3370   26.1997  -29.1672 H   0  0  0  0  0  0  0  0  0  0  0  0
   -7.7688   23.5705  -30.7418 H   0  0  0  0  0  0  0  0  0  0  0  0
   -8.4487   21.5107  -31.9705 H   0  0  0  0  0  0  0  0  0  0  0  0
  1  2  1  0
  2  3  2  0
  2  4  1  0
  4  5  1  0
  5  6  2  0
  6  7  1  0
  7  8  2  0
  8  9  1  0
  9 10  2  0
  9 11  2  0
  9 12  1  0
 12 13  1  0
 13 14  2  0
 14 15  1  0
 15 16  2  0
 16 17  1  0
 16 18  1  0
 18 19  2  0
  8 20  1  0
 20 21  2  0
 21  5  1  0
 19 13  1  0
  1 22  1  0
  1 23  1  0
  1 24  1  0
  4 25  1  0
  6 26  1  0
  7 27  1  0
 14 28  1  0
 15 29  1  0
 18 30  1  0
 19 31  1  0
 20 32  1  0
 21 33  1  0
M  CHG  1  12  -1
M  END
>  <UniqueID>  (16) 
15

>  <SMILES>  (16) 
CC(=O)Nc1ccc(S(=O)(=O)[N-]c2ccc(Cl)cc2)cc1

>  <Energy>  (16) 
38.106794289576015

>  <Genealogy>  (16) 
CC(=O)Nc1ccc(S(=O)(=O)[N-]c2ccc(Cl)cc2)cc1 (protonated)
CC(=O)Nc1ccc(S(=O)(=O)[N-]c2ccc(Cl)cc2)cc1 (3D coordinates assigned)
CC(=O)Nc1ccc(S(=O)(=O)[N-]c2ccc(Cl)cc2)cc1 (optimized conformer: 38.106794289576015 kcal/mol)

>  <smiles>  (16) 
CC(=O)Nc1ccc(S(=O)(=O)Nc2ccc(Cl)cc2)cc1

>  <score_type>  (16) 
oracle

>  <origin>  (16) 
adgpu

>  <m_score__min__energy>  (16) 
-9.3000000000000007

>  <m_primary>  (16) 
energy

$$$$
16:0
     RDKit          3D

 19 20  0  0  0  0  0  0  0  0999 V2000
   -5.3780   17.5040  -34.9730 S   0  0  0  0  0  0  0  0  0  0  0  0
   -6.1210   18.3650  -33.7980 C   0  0  0  0  0  0  0  0  0  0  0  0
   -5.7640   19.6170  -33.4440 N   0  0  0  0  0  0  0  0  0  0  0  0
   -6.5390   20.1230  -32.4350 C   0  0  0  0  0  0  0  0  0  0  0  0
   -6.3450   21.4960  -31.8610 C   0  0  0  0  0  0  0  0  0  0  0  0
   -7.4450   22.2660  -31.4180 C   0  0  0  0  0  0  0  0  0  0  0  0
   -7.2570   23.5450  -30.8850 C   0  0  0  0  0  0  0  0  0  0  0  0
   -5.9740   24.0840  -30.7810 C   0  0  0  0  0  0  0  0  0  0  0  0
   -5.7450   25.6880  -30.1120 Cl  0  0  0  0  0  0  0  0  0  0  0  0
   -4.8750   23.3410  -31.2130 C   0  0  0  0  0  0  0  0  0  0  0  0
   -5.0550   22.0610  -31.7470 C   0  0  0  0  0  0  0  0  0  0  0  0
   -7.5290   19.2270  -31.9970 C   0  0  0  0  0  0  0  0  0  0  0  0
   -7.4100   17.8060  -32.8920 S   0  0  0  0  0  0  0  0  0  0  0  0
   -4.9770   20.1140  -33.9120 H   0  0  0  0  0  0  0  0  0  0  0  0
   -8.4619   21.8535  -31.4936 H   0  0  0  0  0  0  0  0  0  0  0  0
   -8.1250   24.1294  -30.5459 H   0  0  0  0  0  0  0  0  0  0  0  0
   -3.8626   23.7637  -31.1333 H   0  0  0  0  0  0  0  0  0  0  0  0
   -4.1797   21.4858  -32.0831 H   0  0  0  0  0  0  0  0  0  0  0  0
   -8.2616   19.4221  -31.2000 H   0  0  0  0  0  0  0  0  0  0  0  0
  1  2  2  0
  2  3  1  0
  3  4  1  0
  4  5  1  0
  5  6  2  0
  6  7  1  0
  7  8  2  0
  8  9  1  0
  8 10  1  0
 10 11  2  0
  4 12  2  0
 12 13  1  0
 13  2  1  0
 11  5  1  0
  3 14  1  0
  6 15  1  0
  7 16  1  0
 10 17  1  0
 11 18  1  0
 12 19  1  0
M  END
>  <UniqueID>  (17) 
16

>  <SMILES>  (17) 
S=c1[nH]c(-c2ccc(Cl)cc2)cs1

>  <Energy>  (17) 
54.11134462341168

>  <Genealogy>  (17) 
S=c1[nH]c(-c2ccc(Cl)cc2)cs1 (3D coordinates assigned)
S=c1[nH]c(-c2ccc(Cl)cc2)cs1 (optimized conformer: 54.11134462341168 kcal/mol)

>  <smiles>  (17) 
S=c1[nH]c(-c2ccc(Cl)cc2)cs1

>  <score_type>  (17) 
oracle

>  <origin>  (17) 
adgpu

>  <m_score__min__energy>  (17) 
-5.9900000000000002

>  <m_primary>  (17) 
energy

$$$$
17:0
     RDKit          3D

 28 29  0  0  0  0  0  0  0  0999 V2000
   -5.4190   24.8710  -29.0060 N   0  0  0  0  0  0  0  0  0  0  0  0
   -4.5220   24.6900  -30.1030 C   0  0  0  0  0  0  0  0  0  0  0  0
   -4.2430   25.6760  -30.8370 O   0  0  0  0  0  0  0  0  0  0  0  0
   -3.9160   23.3670  -30.3790 C   0  0  0  0  0  0  0  0  0  0  0  0
   -2.8790   22.9000  -29.5490 C   0  0  0  0  0  0  0  0  0  0  0  0
   -2.2340   21.6940  -29.8280 C   0  0  0  0  0  0  0  0  0  0  0  0
   -2.6050   20.9420  -30.9430 C   0  0  0  0  0  0  0  0  0  0  0  0
   -3.6360   21.3850  -31.7730 C   0  0  0  0  0  0  0  0  0  0  0  0
   -4.3130   22.5800  -31.4910 C   0  0  0  0  0  0  0  0  0  0  0  0
   -5.4010   22.9690  -32.3440 N   0  0  0  0  0  0  0  0  0  0  0  0
   -6.7490   22.4860  -32.1990 C   0  0  0  0  0  0  0  0  0  0  0  0
   -7.8040   23.4060  -32.1010 C   0  0  0  0  0  0  0  0  0  0  0  0
   -9.1220   22.9620  -31.9600 C   0  0  0  0  0  0  0  0  0  0  0  0
   -9.3990   21.5930  -31.9220 C   0  0  0  0  0  0  0  0  0  0  0  0
   -8.3590   20.6650  -32.0320 C   0  0  0  0  0  0  0  0  0  0  0  0
   -8.7400   18.7940  -31.9910 Br  0  0  0  0  0  0  0  0  0  0  0  0
   -7.0400   21.1070  -32.1770 C   0  0  0  0  0  0  0  0  0  0  0  0
   -5.7450   24.0610  -28.4340 H   0  0  0  0  0  0  0  0  0  0  0  0
   -5.8110   25.8180  -28.8000 H   0  0  0  0  0  0  0  0  0  0  0  0
   -2.5743   23.4910  -28.6727 H   0  0  0  0  0  0  0  0  0  0  0  0
   -1.4311   21.3356  -29.1670 H   0  0  0  0  0  0  0  0  0  0  0  0
   -2.0847   19.9994  -31.1681 H   0  0  0  0  0  0  0  0  0  0  0  0
   -3.9196   20.7921  -32.6551 H   0  0  0  0  0  0  0  0  0  0  0  0
   -5.1690   23.5420  -33.1890 H   0  0  0  0  0  0  0  0  0  0  0  0
   -7.5923   24.4849  -32.1354 H   0  0  0  0  0  0  0  0  0  0  0  0
   -9.9417   23.6910  -31.8789 H   0  0  0  0  0  0  0  0  0  0  0  0
  -10.4360   21.2451  -31.8055 H   0  0  0  0  0  0  0  0  0  0  0  0
   -6.2252   20.3744  -32.2744 H   0  0  0  0  0  0  0  0  0  0  0  0
  1  2  1  0
  2  3  2  0
  2  4  1  0
  4  5  2  0
  5  6  1  0
  6  7  2  0
  7  8  1  0
  8  9  2  0
  9 10  1  0
 10 11  1  0
 11 12  2  0
 12 13  1  0
 13 14  2  0
 14 15  1  0
 15 16  1  0
 15 17  2  0
  9  4  1  0
 17 11  1  0
  1 18  1  0
  1 19  1  0
  5 20  1  0
  6 21  1  0
  7 22  1  0
  8 23  1  0
 10 24  1  0
 12 25  1  0
 13 26  1  0
 14 27  1  0
 17 28  1  0
M  END
>  <UniqueID>  (18) 
17

>  <SMILES>  (18) 
NC(=O)c1ccccc1Nc1cccc(Br)c1

>  <Energy>  (18) 
37.95113184015015

>  <Genealogy>  (18) 
NC(=O)c1ccccc1Nc1cccc(Br)c1 (3D coordinates assigned)
NC(=O)c1ccccc1Nc1cccc(Br)c1 (optimized conformer: 37.95113184015015 kcal/mol)

>  <smiles>  (18) 
NC(=O)c1ccccc1Nc1cccc(Br)c1

>  <score_type>  (18) 
oracle

>  <origin>  (18) 
adgpu

>  <m_score__min__energy>  (18) 
-8.3300000000000001

>  <m_primary>  (18) 
energy

$$$$
18:0
     RDKit          3D

 21 22  0  0  0  0  0  0  0  0999 V2000
   -3.1620   23.6900  -30.8200 O   0  0  0  0  0  0  0  0  0  0  0  0
   -4.2440   24.3100  -30.8460 N   0  0  0  0  0  0  0  0  0  0  0  0
   -4.2440   25.6790  -30.7090 O   0  0  0  0  0  0  0  0  0  0  0  0
   -5.4720   23.6000  -31.0180 C   0  0  0  0  0  0  0  0  0  0  0  0
   -6.7340   24.1410  -30.8950 C   0  0  0  0  0  0  0  0  0  0  0  0
   -7.6030   23.1000  -31.1440 C   0  0  0  0  0  0  0  0  0  0  0  0
   -6.8110   21.9870  -31.4040 C   0  0  0  0  0  0  0  0  0  0  0  0
   -7.2780   20.6150  -31.7300 C   0  0  0  0  0  0  0  0  0  0  0  0
   -6.3600   19.5800  -31.9950 C   0  0  0  0  0  0  0  0  0  0  0  0
   -6.8080   18.2920  -32.3000 C   0  0  0  0  0  0  0  0  0  0  0  0
   -8.1750   18.0180  -32.3460 C   0  0  0  0  0  0  0  0  0  0  0  0
   -9.0980   19.0310  -32.0860 C   0  0  0  0  0  0  0  0  0  0  0  0
   -8.6590   20.3240  -31.7790 C   0  0  0  0  0  0  0  0  0  0  0  0
   -9.5870   21.2840  -31.5330 F   0  0  0  0  0  0  0  0  0  0  0  0
   -5.5430   22.3250  -31.3190 O   0  0  0  0  0  0  0  0  0  0  0  0
   -6.9926   25.1818  -30.6503 H   0  0  0  0  0  0  0  0  0  0  0  0
   -8.7022   23.1415  -31.1382 H   0  0  0  0  0  0  0  0  0  0  0  0
   -5.2803   19.7876  -31.9615 H   0  0  0  0  0  0  0  0  0  0  0  0
   -6.0809   17.4922  -32.5043 H   0  0  0  0  0  0  0  0  0  0  0  0
   -8.5250   17.0034  -32.5872 H   0  0  0  0  0  0  0  0  0  0  0  0
  -10.1755   18.8127  -32.1224 H   0  0  0  0  0  0  0  0  0  0  0  0
  1  2  2  0
  2  3  1  0
  2  4  1  0
  4  5  2  0
  5  6  1  0
  6  7  2  0
  7  8  1  0
  8  9  2  0
  9 10  1  0
 10 11  2  0
 11 12  1  0
 12 13  2  0
 13 14  1  0
  7 15  1  0
 15  4  1  0
 13  8  1  0
  5 16  1  0
  6 17  1  0
  9 18  1  0
 10 19  1  0
 11 20  1  0
 12 21  1  0
M  CHG  2   2   1   3  -1
M  END
>  <UniqueID>  (19) 
18

>  <SMILES>  (19) 
O=[N+]([O-])c1ccc(-c2ccccc2F)o1

>  <Energy>  (19) 
49.64807914473618

>  <Genealogy>  (19) 
O=[N+]([O-])c1ccc(-c2ccccc2F)o1 (3D coordinates assigned)
O=[N+]([O-])c1ccc(-c2ccccc2F)o1 (optimized conformer: 49.64807914473618 kcal/mol)

>  <smiles>  (19) 
O=[N+]([O-])c1ccc(-c2ccccc2F)o1

>  <score_type>  (19) 
oracle

>  <origin>  (19) 
adgpu

>  <m_score__min__energy>  (19) 
-6.6600000000000001

>  <m_primary>  (19) 
energy

$$$$
19:0
     RDKit          3D

 28 28  0  0  0  0  0  0  0  0999 V2000
   -2.2960   24.8660  -28.6430 C   0  0  0  0  0  0  0  0  0  0  0  0
   -3.1280   25.2940  -29.7160 O   0  0  0  0  0  0  0  0  0  0  0  0
   -4.2390   24.5800  -30.1900 C   0  0  0  0  0  0  0  0  0  0  0  0
   -4.1180   23.3450  -30.8470 C   0  0  0  0  0  0  0  0  0  0  0  0
   -5.2560   22.6730  -31.3000 C   0  0  0  0  0  0  0  0  0  0  0  0
   -6.5480   23.2100  -31.1110 C   0  0  0  0  0  0  0  0  0  0  0  0
   -7.7790   22.4350  -31.6280 C   0  0  0  0  0  0  0  0  0  0  0  0
   -8.5640   21.7230  -30.5000 C   0  0  0  0  0  0  0  0  0  0  0  0
   -7.3220   21.3560  -32.6340 C   0  0  0  0  0  0  0  0  0  0  0  0
   -8.7460   23.4130  -32.3280 C   0  0  0  0  0  0  0  0  0  0  0  0
   -6.6510   24.4550  -30.4480 C   0  0  0  0  0  0  0  0  0  0  0  0
   -5.5100   25.1250  -29.9960 C   0  0  0  0  0  0  0  0  0  0  0  0
   -2.7768   25.1133  -27.6851 H   0  0  0  0  0  0  0  0  0  0  0  0
   -2.1450   23.7783  -28.7074 H   0  0  0  0  0  0  0  0  0  0  0  0
   -1.3233   25.3756  -28.7074 H   0  0  0  0  0  0  0  0  0  0  0  0
   -3.1226   22.9046  -31.0058 H   0  0  0  0  0  0  0  0  0  0  0  0
   -5.1432   21.7069  -31.8138 H   0  0  0  0  0  0  0  0  0  0  0  0
   -8.1901   22.0621  -29.5226 H   0  0  0  0  0  0  0  0  0  0  0  0
   -9.6333   21.9657  -30.5878 H   0  0  0  0  0  0  0  0  0  0  0  0
   -8.4265   20.6352  -30.5878 H   0  0  0  0  0  0  0  0  0  0  0  0
   -6.9500   20.4778  -32.0860 H   0  0  0  0  0  0  0  0  0  0  0  0
   -8.1723   21.0606  -33.2663 H   0  0  0  0  0  0  0  0  0  0  0  0
   -6.5182   21.7611  -33.2663 H   0  0  0  0  0  0  0  0  0  0  0  0
   -9.3065   23.9799  -31.5700 H   0  0  0  0  0  0  0  0  0  0  0  0
   -8.1717   24.1096  -32.9564 H   0  0  0  0  0  0  0  0  0  0  0  0
   -9.4490   22.8466  -32.9564 H   0  0  0  0  0  0  0  0  0  0  0  0
   -7.6426   24.9025  -30.2856 H   0  0  0  0  0  0  0  0  0  0  0  0
   -5.6147   26.0919  -29.4820 H   0  0  0  0  0  0  0  0  0  0  0  0
  1  2  1  0
  2  3  1  0
  3  4  2  0
  4  5  1  0
  5  6  2  0
  6  7  1  0
  7  8  1  0
  7  9  1  0
  7 10  1  0
  6 11  1  0
 11 12  2  0
 12  3  1  0
  1 13  1  0
  1 14  1  0
  1 15  1  0
  4 16  1  0
  5 17  1  0
  8 18  1  0
  8 19  1  0
  8 20  1  0
  9 21  1  0
  9 22  1  0
  9 23  1  0
 10 24  1  0
 10 25  1  0
 10 26  1  0
 11 27  1  0
 12 28  1  0
M  END
>  <UniqueID>  (20) 
19

>  <SMILES>  (20) 
COc1ccc(C(C)(C)C)cc1

>  <Energy>  (20) 
26.428880046806

>  <Genealogy>  (20) 
COc1ccc(C(C)(C)C)cc1 (3D coordinates assigned)
COc1ccc(C(C)(C)C)cc1 (optimized conformer: 26.428880046806 kcal/mol)

>  <smiles>  (20) 
COc1ccc(C(C)(C)C)cc1

>  <score_type>  (20) 
oracle

>  <origin>  (20) 
adgpu

>  <m_score__min__energy>  (20) 
-5.8200000000000003

>  <m_primary>  (20) 
energy

$$$$
20:0
     RDKit          3D

 21 22  0  0  0  0  0  0  0  0999 V2000
   -2.1770   25.1260  -29.0860 O   0  0  0  0  0  0  0  0  0  0  0  0
   -3.1520   24.5920  -29.6780 C   0  0  0  0  0  0  0  0  0  0  0  0
   -3.5150   23.2750  -29.3960 C   0  0  0  0  0  0  0  0  0  0  0  0
   -4.5990   22.7130  -30.0680 C   0  0  0  0  0  0  0  0  0  0  0  0
   -5.2880   23.4750  -31.0110 C   0  0  0  0  0  0  0  0  0  0  0  0
   -6.3890   22.9230  -31.6740 O   0  0  0  0  0  0  0  0  0  0  0  0
   -6.4060   21.6510  -32.2640 C   0  0  0  0  0  0  0  0  0  0  0  0
   -5.2700   21.1180  -32.9060 C   0  0  0  0  0  0  0  0  0  0  0  0
   -4.1000   21.8050  -32.9310 F   0  0  0  0  0  0  0  0  0  0  0  0
   -5.3200   19.8430  -33.4770 C   0  0  0  0  0  0  0  0  0  0  0  0
   -6.4920   19.0860  -33.4050 C   0  0  0  0  0  0  0  0  0  0  0  0
   -7.6140   19.5980  -32.7490 C   0  0  0  0  0  0  0  0  0  0  0  0
   -7.5720   20.8720  -32.1730 C   0  0  0  0  0  0  0  0  0  0  0  0
   -9.1260   21.5470  -31.2820 Br  0  0  0  0  0  0  0  0  0  0  0  0
   -4.8960   24.7600  -31.2410 N   0  0  0  0  0  0  0  0  0  0  0  0
   -3.8590   25.2990  -30.5970 N   0  0  0  0  0  0  0  0  0  0  0  0
   -2.9537   22.6884  -28.6538 H   0  0  0  0  0  0  0  0  0  0  0  0
   -4.9080   21.6787  -29.8566 H   0  0  0  0  0  0  0  0  0  0  0  0
   -4.4338   19.4345  -33.9846 H   0  0  0  0  0  0  0  0  0  0  0  0
   -6.5312   18.0874  -33.8646 H   0  0  0  0  0  0  0  0  0  0  0  0
   -8.5334   18.9975  -32.6852 H   0  0  0  0  0  0  0  0  0  0  0  0
  1  2  2  0
  2  3  1  0
  3  4  2  0
  4  5  1  0
  5  6  1  0
  6  7  1  0
  7  8  2  0
  8  9  1  0
  8 10  1  0
 10 11  2  0
 11 12  1  0
 12 13  2  0
 13 14  1  0
  5 15  2  0
 15 16  1  0
 16  2  1  0
 13  7  1  0
  3 17  1  0
  4 18  1  0
 10 19  1  0
 11 20  1  0
 12 21  1  0
M  CHG  1  16  -1
M  END
>  <UniqueID>  (21) 
20

>  <SMILES>  (21) 
O=c1ccc(Oc2c(F)cccc2Br)n[n-]1

>  <Energy>  (21) 
29.706283647201694

>  <Genealogy>  (21) 
O=c1ccc(Oc2c(F)cccc2Br)n[n-]1 (protonated)
O=c1ccc(Oc2c(F)cccc2Br)n[n-]1 (3D coordinates assigned)
O=c1ccc(Oc2c(F)cccc2Br)n[n-]1 (optimized conformer: 29.706283647201694 kcal/mol)

>  <smiles>  (21) 
O=c1ccc(Oc2c(F)cccc2Br)n[nH]1

>  <score_type>  (21) 
oracle

>  <origin>  (21) 
adgpu

>  <m_score__min__energy>  (21) 
-9.0800000000000001

>  <m_primary>  (21) 
energy

$$$$
21:0
     RDKit          3D

 21 21  0  0  0  0  0  0  0  0999 V2000
   -8.4360   19.0300  -32.5700 C   0  0  0  0  0  0  0  0  0  0  0  0
   -7.7870   20.2070  -31.9180 C   0  0  0  0  0  0  0  0  0  0  0  0
   -8.2230   20.6200  -30.8090 O   0  0  0  0  0  0  0  0  0  0  0  0
   -6.7240   20.9000  -32.5870 N   0  0  0  0  0  0  0  0  0  0  0  0
   -6.0410   22.0170  -32.0000 C   0  0  0  0  0  0  0  0  0  0  0  0
   -4.6850   21.8860  -31.6690 C   0  0  0  0  0  0  0  0  0  0  0  0
   -3.9890   22.9550  -31.0980 C   0  0  0  0  0  0  0  0  0  0  0  0
   -4.6460   24.1620  -30.8330 C   0  0  0  0  0  0  0  0  0  0  0  0
   -3.9350   25.2550  -30.2460 N   0  0  0  0  0  0  0  0  0  0  0  0
   -6.0090   24.2890  -31.1350 C   0  0  0  0  0  0  0  0  0  0  0  0
   -6.7110   23.2230  -31.7090 C   0  0  0  0  0  0  0  0  0  0  0  0
   -8.4410   23.4040  -31.9740 Cl  0  0  0  0  0  0  0  0  0  0  0  0
   -8.8139   18.3447  -31.7969 H   0  0  0  0  0  0  0  0  0  0  0  0
   -9.2725   19.3730  -33.1966 H   0  0  0  0  0  0  0  0  0  0  0  0
   -7.6995   18.5056  -33.1966 H   0  0  0  0  0  0  0  0  0  0  0  0
   -6.5730   20.7080  -33.6020 H   0  0  0  0  0  0  0  0  0  0  0  0
   -4.1654   20.9355  -31.8600 H   0  0  0  0  0  0  0  0  0  0  0  0
   -2.9213   22.8474  -30.8561 H   0  0  0  0  0  0  0  0  0  0  0  0
   -4.2300   25.6560  -29.3280 H   0  0  0  0  0  0  0  0  0  0  0  0
   -3.1060   25.6730  -30.7260 H   0  0  0  0  0  0  0  0  0  0  0  0
   -6.5305   25.2332  -30.9193 H   0  0  0  0  0  0  0  0  0  0  0  0
  1  2  1  0
  2  3  2  0
  2  4  1  0
  4  5  1  0
  5  6  2  0
  6  7  1  0
  7  8  2  0
  8  9  1  0
  8 10  1  0
 10 11  2  0
 11 12  1  0
 11  5  1  0
  1 13  1  0
  1 14  1  0
  1 15  1  0
  4 16  1  0
  6 17  1  0
  7 18  1  0
  9 19  1  0
  9 20  1  0
 10 21  1  0
M  END
>  <UniqueID>  (22) 
21

>  <SMILES>  (22) 
CC(=O)Nc1ccc(N)cc1Cl

>  <Energy>  (22) 
22.576847343040747

>  <Genealogy>  (22) 
CC(=O)Nc1ccc(N)cc1Cl (3D coordinates assigned)
CC(=O)Nc1ccc(N)cc1Cl (optimized conformer: 22.576847343040747 kcal/mol)

>  <smiles>  (22) 
CC(=O)Nc1ccc(N)cc1Cl

>  <score_type>  (22) 
oracle

>  <origin>  (22) 
adgpu

>  <m_score__min__energy>  (22) 
-5.8700000000000001

>  <m_primary>  (22) 
energy

$$$$
22:0
     RDKit          3D

 31 33  0  0  0  0  0  0  0  0999 V2000
   -7.6460   24.1840  -30.8780 O   0  0  0  0  0  0  0  0  0  0  0  0
   -6.5670   23.6810  -31.2910 C   0  0  0  0  0  0  0  0  0  0  0  0
   -6.6120   22.7480  -32.3790 N   0  0  0  0  0  0  0  0  0  0  0  0
   -7.1920   21.4350  -32.3420 C   0  0  0  0  0  0  0  0  0  0  0  0
   -8.5550   21.2500  -32.0450 C   0  0  0  0  0  0  0  0  0  0  0  0
   -9.1040   19.9650  -32.0280 C   0  0  0  0  0  0  0  0  0  0  0  0
   -8.3060   18.8590  -32.3230 C   0  0  0  0  0  0  0  0  0  0  0  0
   -6.9570   19.0360  -32.6440 C   0  0  0  0  0  0  0  0  0  0  0  0
   -6.4000   20.3200  -32.6620 C   0  0  0  0  0  0  0  0  0  0  0  0
   -4.5470   20.5210  -33.1030 Br  0  0  0  0  0  0  0  0  0  0  0  0
   -5.2970   24.1150  -30.6830 C   0  0  0  0  0  0  0  0  0  0  0  0
   -4.6080   23.4830  -29.6670 C   0  0  0  0  0  0  0  0  0  0  0  0
   -3.4780   24.2600  -29.4880 C   0  0  0  0  0  0  0  0  0  0  0  0
   -2.3890   24.0340  -28.5020 C   0  0  0  0  0  0  0  0  0  0  0  0
   -2.3310   22.8350  -27.7640 C   0  0  0  0  0  0  0  0  0  0  0  0
   -1.3100   22.6230  -26.8330 C   0  0  0  0  0  0  0  0  0  0  0  0
   -0.3370   23.6010  -26.6240 C   0  0  0  0  0  0  0  0  0  0  0  0
   -0.3820   24.7950  -27.3460 C   0  0  0  0  0  0  0  0  0  0  0  0
   -1.4000   25.0160  -28.2790 C   0  0  0  0  0  0  0  0  0  0  0  0
   -1.4050   26.1860  -28.9670 F   0  0  0  0  0  0  0  0  0  0  0  0
   -3.5030   25.2840  -30.3670 N   0  0  0  0  0  0  0  0  0  0  0  0
   -4.6040   25.1930  -31.0960 N   0  0  0  0  0  0  0  0  0  0  0  0
   -9.1908   22.1203  -31.8253 H   0  0  0  0  0  0  0  0  0  0  0  0
  -10.1669   19.8252  -31.7817 H   0  0  0  0  0  0  0  0  0  0  0  0
   -8.7385   17.8478  -32.3030 H   0  0  0  0  0  0  0  0  0  0  0  0
   -6.3313   18.1635  -32.8832 H   0  0  0  0  0  0  0  0  0  0  0  0
   -4.8929   22.5698  -29.1239 H   0  0  0  0  0  0  0  0  0  0  0  0
   -3.0952   22.0597  -27.9217 H   0  0  0  0  0  0  0  0  0  0  0  0
   -1.2736   21.6826  -26.2636 H   0  0  0  0  0  0  0  0  0  0  0  0
    0.4652   23.4313  -25.8907 H   0  0  0  0  0  0  0  0  0  0  0  0
    0.3861   25.5648  -27.1804 H   0  0  0  0  0  0  0  0  0  0  0  0
  1  2  2  0
  2  3  1  0
  3  4  1  0
  4  5  2  0
  5  6  1  0
  6  7  2  0
  7  8  1  0
  8  9  2  0
  9 10  1  0
  2 11  1  0
 11 12  1  0
 12 13  2  0
 13 14  1  0
 14 15  2  0
 15 16  1  0
 16 17  2  0
 17 18  1  0
 18 19  2  0
 19 20  1  0
 13 21  1  0
 21 22  1  0
  9  4  1  0
 22 11  2  0
 19 14  1  0
  5 23  1  0
  6 24  1  0
  7 25  1  0
  8 26  1  0
 12 27  1  0
 15 28  1  0
 16 29  1  0
 17 30  1  0
 18 31  1  0
M  CHG  2   3  -1  21  -1
M  END
>  <UniqueID>  (23) 
22

>  <SMILES>  (23) 
O=C([N-]c1ccccc1Br)c1cc(-c2ccccc2F)[n-]n1

>  <Energy>  (23) 
71.04621314551223

>  <Genealogy>  (23) 
O=C([N-]c1ccccc1Br)c1cc(-c2ccccc2F)[n-]n1 (protonated)
O=C([N-]c1ccccc1Br)c1cc(-c2ccccc2F)[n-]n1 (3D coordinates assigned)
O=C([N-]c1ccccc1Br)c1cc(-c2ccccc2F)[n-]n1 (optimized conformer: 71.04621314551223 kcal/mol)

>  <smiles>  (23) 
O=C(Nc1ccccc1Br)c1cc(-c2ccccc2F)[nH]n1

>  <score_type>  (23) 
oracle

>  <origin>  (23) 
adgpu

>  <m_score__min__energy>  (23) 
-10.960000000000001

>  <m_primary>  (23) 
energy

$$$$
23:0
     RDKit          3D

 32 35  0  0  0  0  0  0  0  0999 V2000
   -1.0348   19.5585  -29.1078 H   0  0  0  0  0  0  0  0  0  0  0  0
   -1.3750   20.1300  -29.9840 C   0  0  0  0  0  0  0  0  0  0  0  0
   -1.3420   19.5630  -31.2210 N   0  0  0  0  0  0  0  0  0  0  0  0
   -1.7510   20.2400  -32.3270 C   0  0  0  0  0  0  0  0  0  0  0  0
   -1.7079   19.7567  -33.3142 H   0  0  0  0  0  0  0  0  0  0  0  0
   -2.2260   21.5490  -32.2110 C   0  0  0  0  0  0  0  0  0  0  0  0
   -2.5382   22.1072  -33.1060 H   0  0  0  0  0  0  0  0  0  0  0  0
   -2.3010   22.1430  -30.9480 C   0  0  0  0  0  0  0  0  0  0  0  0
   -2.7370   23.5010  -30.8280 N   0  0  0  0  0  0  0  0  0  0  0  0
   -3.9600   23.9580  -30.8420 C   0  0  0  0  0  0  0  0  0  0  0  0
   -4.2300   25.2380  -30.4940 N   0  0  0  0  0  0  0  0  0  0  0  0
   -5.5740   25.3380  -30.5620 C   0  0  0  0  0  0  0  0  0  0  0  0
   -6.1622   26.2388  -30.3326 H   0  0  0  0  0  0  0  0  0  0  0  0
   -6.0860   24.1290  -30.9650 C   0  0  0  0  0  0  0  0  0  0  0  0
   -7.4120   23.7860  -31.2110 C   0  0  0  0  0  0  0  0  0  0  0  0
   -8.2274   24.5021  -31.0312 H   0  0  0  0  0  0  0  0  0  0  0  0
   -7.6730   22.4990  -31.6950 C   0  0  0  0  0  0  0  0  0  0  0  0
   -8.7119   22.1844  -31.8733 H   0  0  0  0  0  0  0  0  0  0  0  0
   -6.6140   21.5990  -31.9570 C   0  0  0  0  0  0  0  0  0  0  0  0
   -6.8820   20.2460  -32.5070 C   0  0  0  0  0  0  0  0  0  0  0  0
   -7.6910   19.2560  -31.9710 C   0  0  0  0  0  0  0  0  0  0  0  0
   -8.2676   19.3410  -31.0381 H   0  0  0  0  0  0  0  0  0  0  0  0
   -7.6600   18.1740  -32.7720 N   0  0  0  0  0  0  0  0  0  0  0  0
   -6.8600   18.4440  -33.7900 N   0  0  0  0  0  0  0  0  0  0  0  0
   -6.6490   17.7760  -34.5640 H   0  0  0  0  0  0  0  0  0  0  0  0
   -6.3690   19.6880  -33.6650 C   0  0  0  0  0  0  0  0  0  0  0  0
   -5.6767   20.1797  -34.3643 H   0  0  0  0  0  0  0  0  0  0  0  0
   -5.2920   22.0210  -31.7000 C   0  0  0  0  0  0  0  0  0  0  0  0
   -4.4417   21.3621  -31.9301 H   0  0  0  0  0  0  0  0  0  0  0  0
   -5.0830   23.2580  -31.1620 N   0  0  0  0  0  0  0  0  0  0  0  0
   -1.8410   21.4380  -29.8270 C   0  0  0  0  0  0  0  0  0  0  0  0
   -1.8468   21.9099  -28.8334 H   0  0  0  0  0  0  0  0  0  0  0  0
  1  2  1  0
  2  3  2  0
  3  4  1  0
  4  5  1  0
  4  6  2  0
  6  7  1  0
  6  8  1  0
  8  9  1  0
  9 10  2  0
 10 11  1  0
 11 12  1  0
 12 13  1  0
 12 14  2  0
 14 15  1  0
 15 16  1  0
 15 17  2  0
 17 18  1  0
 17 19  1  0
 19 20  1  0
 20 21  1  0
 21 22  1  0
 21 23  2  0
 23 24  1  0
 24 25  1  0
 24 26  1  0
 26 27  1  0
 19 28  2  0
 28 29  1  0
 28 30  1  0
  8 31  2  0
 31 32  1  0
 31  2  1  0
 30 10  1  0
 30 14  1  0
 26 20  2  0
M  CHG  1  11  -1
M  END
>  <UniqueID>  (24) 
23

>  <SMILES>  (24) 
c1cc(/N=c2/[n-]cc3ccc(-c4cn[nH]c4)cn23)ccn1

>  <Energy>  (24) 
118.72385426123226

>  <Genealogy>  (24) 
c1cc(N=c2[n-]cc3ccc(-c4cn[nH]c4)cn23)ccn1 (protonated)
c1cc(/N=c2/[n-]cc3ccc(-c4cn[nH]c4)cn23)ccn1 (cis-trans isomerization)
c1cc(/N=c2/[n-]cc3ccc(-c4cn[nH]c4)cn23)ccn1 (3D coordinates assigned)
c1cc(/N=c2/[n-]cc3ccc(-c4cn[nH]c4)cn23)ccn1 (optimized conformer: 118.72385426123226 kcal/mol)

>  <smiles>  (24) 
c1cc(N=c2[nH]cc3ccc(-c4cn[nH]c4)cn23)ccn1

>  <score_type>  (24) 
oracle

>  <origin>  (24) 
adgpu

>  <m_score__min__energy>  (24) 
-8.1400000000000006

>  <m_primary>  (24) 
energy

$$$$
24:0
     RDKit          3D

 26 28  0  0  0  0  0  0  0  0999 V2000
   -9.1060   18.5530  -31.9630 C   0  0  0  0  0  0  0  0  0  0  0  0
   -8.0860   19.5600  -32.2410 N   0  0  0  0  0  0  0  0  0  0  0  0
   -6.8080   19.4030  -32.7030 C   0  0  0  0  0  0  0  0  0  0  0  0
   -6.1520   18.1140  -33.0130 C   0  0  0  0  0  0  0  0  0  0  0  0
   -5.9810   17.1330  -32.0210 C   0  0  0  0  0  0  0  0  0  0  0  0
   -5.3450   15.9250  -32.3250 C   0  0  0  0  0  0  0  0  0  0  0  0
   -4.8660   15.6900  -33.6170 C   0  0  0  0  0  0  0  0  0  0  0  0
   -5.0170   16.6650  -34.6050 C   0  0  0  0  0  0  0  0  0  0  0  0
   -5.6510   17.8750  -34.3050 C   0  0  0  0  0  0  0  0  0  0  0  0
   -6.2110   20.6620  -32.8550 C   0  0  0  0  0  0  0  0  0  0  0  0
   -7.1270   21.5570  -32.4610 N   0  0  0  0  0  0  0  0  0  0  0  0
   -7.2210   22.8980  -32.3480 C   0  0  0  0  0  0  0  0  0  0  0  0
   -8.4800   23.2870  -31.8670 C   0  0  0  0  0  0  0  0  0  0  0  0
   -9.4490   21.8950  -31.5970 S   0  0  0  0  0  0  0  0  0  0  0  0
   -8.2050   20.8920  -32.1050 C   0  0  0  0  0  0  0  0  0  0  0  0
   -9.2216   18.4388  -30.8751 H   0  0  0  0  0  0  0  0  0  0  0  0
  -10.0634   18.8699  -32.4022 H   0  0  0  0  0  0  0  0  0  0  0  0
   -8.8014   17.5916  -32.4022 H   0  0  0  0  0  0  0  0  0  0  0  0
   -6.3491   17.3162  -31.0007 H   0  0  0  0  0  0  0  0  0  0  0  0
   -5.2215   15.1584  -31.5459 H   0  0  0  0  0  0  0  0  0  0  0  0
   -4.3703   14.7374  -33.8553 H   0  0  0  0  0  0  0  0  0  0  0  0
   -4.6368   16.4812  -35.6207 H   0  0  0  0  0  0  0  0  0  0  0  0
   -5.7583   18.6441  -35.0841 H   0  0  0  0  0  0  0  0  0  0  0  0
   -5.1961   20.8726  -33.2232 H   0  0  0  0  0  0  0  0  0  0  0  0
   -6.4117   23.5987  -32.6013 H   0  0  0  0  0  0  0  0  0  0  0  0
   -8.7980   24.3250  -31.6898 H   0  0  0  0  0  0  0  0  0  0  0  0
  1  2  1  0
  2  3  1  0
  3  4  1  0
  4  5  2  0
  5  6  1  0
  6  7  2  0
  7  8  1  0
  8  9  2  0
  3 10  2  0
 10 11  1  0
 11 12  1  0
 12 13  2  0
 13 14  1  0
 14 15  1  0
 15  2  2  0
  9  4  1  0
 15 11  1  0
  1 16  1  0
  1 17  1  0
  1 18  1  0
  5 19  1  0
  6 20  1  0
  7 21  1  0
  8 22  1  0
  9 23  1  0
 10 24  1  0
 12 25  1  0
 13 26  1  0
M  CHG  1   2   1
M  END
>  <UniqueID>  (25) 
24

>  <SMILES>  (25) 
C[n+]1c(-c2ccccc2)cn2ccsc21

>  <Energy>  (25) 
113.33199596842773

>  <Genealogy>  (25) 
C[n+]1c(-c2ccccc2)cn2ccsc21 (3D coordinates assigned)
C[n+]1c(-c2ccccc2)cn2ccsc21 (optimized conformer: 113.33199596842773 kcal/mol)

>  <smiles>  (25) 
C[n+]1c(-c2ccccc2)cn2ccsc21

>  <score_type>  (25) 
oracle

>  <origin>  (25) 
adgpu

>  <m_score__min__energy>  (25) 
-5.8499999999999996

>  <m_primary>  (25) 
energy

$$$$
25:0
     RDKit          3D

 34 34  0  0  0  0  0  0  0  0999 V2000
   -9.1110   21.2990  -30.8440 C   0  0  0  0  0  0  0  0  0  0  0  0
   -9.5220   21.0220  -32.2910 C   0  0  0  0  0  0  0  0  0  0  0  0
   -9.3590   19.5460  -32.6810 C   0  0  0  0  0  0  0  0  0  0  0  0
   -8.7230   18.7090  -31.5610 C   0  0  0  0  0  0  0  0  0  0  0  0
   -7.6040   17.8030  -32.0930 C   0  0  0  0  0  0  0  0  0  0  0  0
   -6.8770   18.4330  -33.1490 O   0  0  0  0  0  0  0  0  0  0  0  0
   -5.9300   19.4580  -32.9930 C   0  0  0  0  0  0  0  0  0  0  0  0
   -4.5750   19.1260  -33.1060 C   0  0  0  0  0  0  0  0  0  0  0  0
   -3.5900   20.1060  -32.9610 C   0  0  0  0  0  0  0  0  0  0  0  0
   -3.9520   21.4320  -32.7110 C   0  0  0  0  0  0  0  0  0  0  0  0
   -5.3030   21.7900  -32.6120 C   0  0  0  0  0  0  0  0  0  0  0  0
   -5.6540   23.1570  -32.3440 N   0  0  0  0  0  0  0  0  0  0  0  0
   -5.8520   23.6870  -31.0240 C   0  0  0  0  0  0  0  0  0  0  0  0
   -6.3060   22.8500  -29.9560 N   0  0  0  0  0  0  0  0  0  0  0  0
   -5.7170   25.2990  -30.7780 S   0  0  0  0  0  0  0  0  0  0  0  0
   -6.2890   20.7940  -32.7240 C   0  0  0  0  0  0  0  0  0  0  0  0
   -9.8261   20.8171  -30.1611 H   0  0  0  0  0  0  0  0  0  0  0  0
   -8.1037   20.8948  -30.6651 H   0  0  0  0  0  0  0  0  0  0  0  0
   -9.1076   22.3844  -30.6651 H   0  0  0  0  0  0  0  0  0  0  0  0
  -10.5775   21.3049  -32.4174 H   0  0  0  0  0  0  0  0  0  0  0  0
   -8.8617   21.6128  -32.9429 H   0  0  0  0  0  0  0  0  0  0  0  0
  -10.3509   19.1305  -32.9122 H   0  0  0  0  0  0  0  0  0  0  0  0
   -8.6894   19.5023  -33.5526 H   0  0  0  0  0  0  0  0  0  0  0  0
   -8.3025   19.3875  -30.8042 H   0  0  0  0  0  0  0  0  0  0  0  0
   -9.5046   18.0684  -31.1264 H   0  0  0  0  0  0  0  0  0  0  0  0
   -6.9109   17.5710  -31.2709 H   0  0  0  0  0  0  0  0  0  0  0  0
   -8.0627   16.8853  -32.4898 H   0  0  0  0  0  0  0  0  0  0  0  0
   -4.2834   18.0853  -33.3106 H   0  0  0  0  0  0  0  0  0  0  0  0
   -2.5276   19.8331  -33.0438 H   0  0  0  0  0  0  0  0  0  0  0  0
   -3.1725   22.1988  -32.5913 H   0  0  0  0  0  0  0  0  0  0  0  0
   -5.7910   23.7990  -33.1580 H   0  0  0  0  0  0  0  0  0  0  0  0
   -6.5750   21.8570  -30.1280 H   0  0  0  0  0  0  0  0  0  0  0  0
   -6.4370   23.2390  -28.9960 H   0  0  0  0  0  0  0  0  0  0  0  0
   -7.3493   21.0597  -32.6007 H   0  0  0  0  0  0  0  0  0  0  0  0
  1  2  1  0
  2  3  1  0
  3  4  1  0
  4  5  1  0
  5  6  1  0
  6  7  1  0
  7  8  2  0
  8  9  1  0
  9 10  2  0
 10 11  1  0
 11 12  1  0
 12 13  1  0
 13 14  1  0
 13 15  2  0
 11 16  2  0
 16  7  1  0
  1 17  1  0
  1 18  1  0
  1 19  1  0
  2 20  1  0
  2 21  1  0
  3 22  1  0
  3 23  1  0
  4 24  1  0
  4 25  1  0
  5 26  1  0
  5 27  1  0
  8 28  1  0
  9 29  1  0
 10 30  1  0
 12 31  1  0
 14 32  1  0
 14 33  1  0
 16 34  1  0
M  END
>  <UniqueID>  (26) 
25

>  <SMILES>  (26) 
CCCCCOc1cccc(NC(N)=S)c1

>  <Energy>  (26) 
25.919294657280314

>  <Genealogy>  (26) 
CCCCCOc1cccc(NC(N)=S)c1 (3D coordinates assigned)
CCCCCOc1cccc(NC(N)=S)c1 (optimized conformer: 25.919294657280314 kcal/mol)

>  <smiles>  (26) 
CCCCCOc1cccc(NC(N)=S)c1

>  <score_type>  (26) 
oracle

>  <origin>  (26) 
adgpu

>  <m_score__min__energy>  (26) 
-6.0999999999999996

>  <m_primary>  (26) 
energy

$$$$
26:0
     RDKit          3D

 35 38  0  0  0  0  0  0  0  0999 V2000
   -2.7950   16.2860  -35.2270 O   0  0  0  0  0  0  0  0  0  0  0  0
   -3.8400   15.6560  -34.9180 C   0  0  0  0  0  0  0  0  0  0  0  0
   -3.9410   14.3180  -35.1700 N   0  0  0  0  0  0  0  0  0  0  0  0
   -5.0650   13.6030  -34.8470 C   0  0  0  0  0  0  0  0  0  0  0  0
   -6.1620   14.2380  -34.2360 C   0  0  0  0  0  0  0  0  0  0  0  0
   -6.0470   15.6020  -33.9820 C   0  0  0  0  0  0  0  0  0  0  0  0
   -6.9580   16.4080  -33.4130 N   0  0  0  0  0  0  0  0  0  0  0  0
   -6.3950   17.6430  -33.3850 C   0  0  0  0  0  0  0  0  0  0  0  0
   -7.0640   18.8490  -32.8360 C   0  0  0  0  0  0  0  0  0  0  0  0
   -8.4610   18.8830  -32.6800 C   0  0  0  0  0  0  0  0  0  0  0  0
   -9.0880   20.0180  -32.1640 C   0  0  0  0  0  0  0  0  0  0  0  0
   -8.3340   21.1340  -31.7980 C   0  0  0  0  0  0  0  0  0  0  0  0
   -6.9370   21.1270  -31.9460 C   0  0  0  0  0  0  0  0  0  0  0  0
   -6.1330   22.3150  -31.5610 C   0  0  0  0  0  0  0  0  0  0  0  0
   -4.7510   22.1980  -31.3220 C   0  0  0  0  0  0  0  0  0  0  0  0
   -3.9970   23.3180  -30.9590 C   0  0  0  0  0  0  0  0  0  0  0  0
   -4.6120   24.5660  -30.8300 C   0  0  0  0  0  0  0  0  0  0  0  0
   -3.8620   25.6780  -30.4680 O   0  0  0  0  0  0  0  0  0  0  0  0
   -5.9840   24.6950  -31.0630 C   0  0  0  0  0  0  0  0  0  0  0  0
   -6.7420   23.5780  -31.4270 C   0  0  0  0  0  0  0  0  0  0  0  0
   -6.3110   19.9790  -32.4670 C   0  0  0  0  0  0  0  0  0  0  0  0
   -5.1140   17.6100  -33.9440 C   0  0  0  0  0  0  0  0  0  0  0  0
   -4.9190   16.2970  -34.3140 C   0  0  0  0  0  0  0  0  0  0  0  0
   -5.1097   12.5261  -35.0668 H   0  0  0  0  0  0  0  0  0  0  0  0
   -7.0721   13.6802  -33.9702 H   0  0  0  0  0  0  0  0  0  0  0  0
   -7.9100   16.1300  -33.0890 H   0  0  0  0  0  0  0  0  0  0  0  0
   -9.0640   18.0088  -32.9667 H   0  0  0  0  0  0  0  0  0  0  0  0
  -10.1815   20.0331  -32.0452 H   0  0  0  0  0  0  0  0  0  0  0  0
   -8.8364   22.0241  -31.3914 H   0  0  0  0  0  0  0  0  0  0  0  0
   -4.2606   21.2184  -31.4215 H   0  0  0  0  0  0  0  0  0  0  0  0
   -2.9173   23.2165  -30.7746 H   0  0  0  0  0  0  0  0  0  0  0  0
   -6.4684   25.6772  -30.9598 H   0  0  0  0  0  0  0  0  0  0  0  0
   -7.8213   23.6862  -31.6100 H   0  0  0  0  0  0  0  0  0  0  0  0
   -5.2177   19.9650  -32.5874 H   0  0  0  0  0  0  0  0  0  0  0  0
   -4.4137   18.4499  -34.0627 H   0  0  0  0  0  0  0  0  0  0  0  0
  1  2  2  0
  2  3  1  0
  3  4  1  0
  4  5  2  0
  5  6  1  0
  6  7  1  0
  7  8  1  0
  8  9  1  0
  9 10  2  0
 10 11  1  0
 11 12  2  0
 12 13  1  0
 13 14  1  0
 14 15  2  0
 15 16  1  0
 16 17  2  0
 17 18  1  0
 17 19  1  0
 19 20  2  0
 13 21  2  0
  8 22  2  0
 22 23  1  0
 23  2  1  0
 23  6  2  0
 21  9  1  0
 20 14  1  0
  4 24  1  0
  5 25  1  0
  7 26  1  0
 10 27  1  0
 11 28  1  0
 12 29  1  0
 15 30  1  0
 16 31  1  0
 19 32  1  0
 20 33  1  0
 21 34  1  0
 22 35  1  0
M  CHG  2   3  -1  18  -1
M  END
>  <UniqueID>  (27) 
26

>  <SMILES>  (27) 
O=c1[n-]ccc2[nH]c(-c3cccc(-c4ccc([O-])cc4)c3)cc12

>  <Energy>  (27) 
82.57629564587289

>  <Genealogy>  (27) 
O=c1[n-]ccc2[nH]c(-c3cccc(-c4ccc([O-])cc4)c3)cc12 (protonated)
O=c1[n-]ccc2[nH]c(-c3cccc(-c4ccc([O-])cc4)c3)cc12 (3D coordinates assigned)
O=c1[n-]ccc2[nH]c(-c3cccc(-c4ccc([O-])cc4)c3)cc12 (optimized conformer: 82.57629564587289 kcal/mol)

>  <smiles>  (27) 
O=c1[nH]ccc2[nH]c(-c3cccc(-c4ccc(O)cc4)c3)cc12

>  <score_type>  (27) 
oracle

>  <origin>  (27) 
adgpu

>  <m_score__min__energy>  (27) 
-11.65

>  <m_primary>  (27) 
energy

$$$$
27:0
     RDKit          3D

 29 30  0  0  0  0  0  0  0  0999 V2000
   -2.7760   23.6910  -28.2940 C   0  0  0  0  0  0  0  0  0  0  0  0
   -2.6140   24.9220  -29.1320 C   0  0  0  0  0  0  0  0  0  0  0  0
   -1.6080   25.6560  -28.9490 O   0  0  0  0  0  0  0  0  0  0  0  0
   -3.5460   25.2710  -30.1640 N   0  0  0  0  0  0  0  0  0  0  0  0
   -4.6730   24.4970  -30.5980 C   0  0  0  0  0  0  0  0  0  0  0  0
   -4.4470   23.2980  -31.2850 C   0  0  0  0  0  0  0  0  0  0  0  0
   -5.5210   22.5320  -31.7460 C   0  0  0  0  0  0  0  0  0  0  0  0
   -6.8370   22.9690  -31.5560 C   0  0  0  0  0  0  0  0  0  0  0  0
   -7.8880   22.1650  -32.0180 O   0  0  0  0  0  0  0  0  0  0  0  0
   -7.8430   20.7700  -32.1650 C   0  0  0  0  0  0  0  0  0  0  0  0
   -6.8920   20.1390  -32.9900 C   0  0  0  0  0  0  0  0  0  0  0  0
   -6.8690   18.7450  -33.0950 C   0  0  0  0  0  0  0  0  0  0  0  0
   -7.7820   17.9720  -32.3730 C   0  0  0  0  0  0  0  0  0  0  0  0
   -8.7150   18.5920  -31.5390 C   0  0  0  0  0  0  0  0  0  0  0  0
   -8.7410   19.9870  -31.4300 C   0  0  0  0  0  0  0  0  0  0  0  0
   -7.0670   24.1770  -30.8740 C   0  0  0  0  0  0  0  0  0  0  0  0
   -5.9920   24.9420  -30.4120 C   0  0  0  0  0  0  0  0  0  0  0  0
   -2.7400   23.9649  -27.2293 H   0  0  0  0  0  0  0  0  0  0  0  0
   -3.7440   23.2192  -28.5187 H   0  0  0  0  0  0  0  0  0  0  0  0
   -1.9630   22.9849  -28.5187 H   0  0  0  0  0  0  0  0  0  0  0  0
   -3.4166   22.9566  -31.4631 H   0  0  0  0  0  0  0  0  0  0  0  0
   -5.3309   21.5792  -32.2617 H   0  0  0  0  0  0  0  0  0  0  0  0
   -6.1659   20.7440  -33.5528 H   0  0  0  0  0  0  0  0  0  0  0  0
   -6.1307   18.2558  -33.7473 H   0  0  0  0  0  0  0  0  0  0  0  0
   -7.7659   16.8757  -32.4615 H   0  0  0  0  0  0  0  0  0  0  0  0
   -9.4305   17.9830  -30.9670 H   0  0  0  0  0  0  0  0  0  0  0  0
   -9.4705   20.4705  -30.7636 H   0  0  0  0  0  0  0  0  0  0  0  0
   -8.0976   24.5216  -30.7032 H   0  0  0  0  0  0  0  0  0  0  0  0
   -6.1802   25.8973  -29.9002 H   0  0  0  0  0  0  0  0  0  0  0  0
  1  2  1  0
  2  3  2  0
  2  4  1  0
  4  5  1  0
  5  6  2  0
  6  7  1  0
  7  8  2  0
  8  9  1  0
  9 10  1  0
 10 11  2  0
 11 12  1  0
 12 13  2  0
 13 14  1  0
 14 15  2  0
  8 16  1  0
 16 17  2  0
 17  5  1  0
 15 10  1  0
  1 18  1  0
  1 19  1  0
  1 20  1  0
  6 21  1  0
  7 22  1  0
 11 23  1  0
 12 24  1  0
 13 25  1  0
 14 26  1  0
 15 27  1  0
 16 28  1  0
 17 29  1  0
M  CHG  1   4  -1
M  END
>  <UniqueID>  (28) 
27

>  <SMILES>  (28) 
CC(=O)[N-]c1ccc(Oc2ccccc2)cc1

>  <Energy>  (28) 
39.361196394275375

>  <Genealogy>  (28) 
CC(=O)[N-]c1ccc(Oc2ccccc2)cc1 (protonated)
CC(=O)[N-]c1ccc(Oc2ccccc2)cc1 (3D coordinates assigned)
CC(=O)[N-]c1ccc(Oc2ccccc2)cc1 (optimized conformer: 39.361196394275375 kcal/mol)

>  <smiles>  (28) 
CC(=O)Nc1ccc(Oc2ccccc2)cc1

>  <score_type>  (28) 
oracle

>  <origin>  (28) 
adgpu

>  <m_score__min__energy>  (28) 
-9.0899999999999999

>  <m_primary>  (28) 
energy

$$$$
28:0
     RDKit          3D

 24 25  0  0  0  0  0  0  0  0999 V2000
   -3.8120   25.2740  -30.1010 N   0  0  0  0  0  0  0  0  0  0  0  0
   -4.7450   24.2750  -30.5230 C   0  0  0  0  0  0  0  0  0  0  0  0
   -4.2880   23.0740  -31.0790 C   0  0  0  0  0  0  0  0  0  0  0  0
   -5.1990   22.0960  -31.4920 C   0  0  0  0  0  0  0  0  0  0  0  0
   -6.5830   22.3050  -31.3530 C   0  0  0  0  0  0  0  0  0  0  0  0
   -7.5510   21.2680  -31.7910 C   0  0  0  0  0  0  0  0  0  0  0  0
   -8.9210   21.5700  -31.9050 C   0  0  0  0  0  0  0  0  0  0  0  0
   -9.8310   20.5920  -32.3170 C   0  0  0  0  0  0  0  0  0  0  0  0
   -9.3850   19.3020  -32.6190 C   0  0  0  0  0  0  0  0  0  0  0  0
   -8.0290   18.9900  -32.5090 C   0  0  0  0  0  0  0  0  0  0  0  0
   -7.1150   19.9650  -32.0970 C   0  0  0  0  0  0  0  0  0  0  0  0
   -7.0340   23.5140  -30.7920 C   0  0  0  0  0  0  0  0  0  0  0  0
   -6.1220   24.4910  -30.3810 C   0  0  0  0  0  0  0  0  0  0  0  0
   -3.1140   25.6700  -30.7690 H   0  0  0  0  0  0  0  0  0  0  0  0
   -3.8140   25.6240  -29.1170 H   0  0  0  0  0  0  0  0  0  0  0  0
   -3.2079   22.8987  -31.1916 H   0  0  0  0  0  0  0  0  0  0  0  0
   -4.8301   21.1563  -31.9288 H   0  0  0  0  0  0  0  0  0  0  0  0
   -9.2783   22.5830  -31.6682 H   0  0  0  0  0  0  0  0  0  0  0  0
  -10.8997   20.8379  -32.4037 H   0  0  0  0  0  0  0  0  0  0  0  0
  -10.1021   18.5334  -32.9431 H   0  0  0  0  0  0  0  0  0  0  0  0
   -7.6785   17.9749  -32.7469 H   0  0  0  0  0  0  0  0  0  0  0  0
   -6.0479   19.7119  -32.0115 H   0  0  0  0  0  0  0  0  0  0  0  0
   -8.1132   23.6921  -30.6758 H   0  0  0  0  0  0  0  0  0  0  0  0
   -6.4870   25.4325  -29.9446 H   0  0  0  0  0  0  0  0  0  0  0  0
  1  2  1  0
  2  3  2  0
  3  4  1  0
  4  5  2  0
  5  6  1  0
  6  7  2  0
  7  8  1  0
  8  9  2  0
  9 10  1  0
 10 11  2  0
  5 12  1  0
 12 13  2  0
 13  2  1  0
 11  6  1  0
  1 14  1  0
  1 15  1  0
  3 16  1  0
  4 17  1  0
  7 18  1  0
  8 19  1  0
  9 20  1  0
 10 21  1  0
 11 22  1  0
 12 23  1  0
 13 24  1  0
M  END
>  <UniqueID>  (29) 
28

>  <SMILES>  (29) 
Nc1ccc(-c2ccccc2)cc1

>  <Energy>  (29) 
29.03651292182873

>  <Genealogy>  (29) 
Nc1ccc(-c2ccccc2)cc1 (3D coordinates assigned)
Nc1ccc(-c2ccccc2)cc1 (optimized conformer: 29.03651292182873 kcal/mol)

>  <smiles>  (29) 
Nc1ccc(-c2ccccc2)cc1

>  <score_type>  (29) 
oracle

>  <origin>  (29) 
adgpu

>  <m_score__min__energy>  (29) 
-7.1699999999999999

>  <m_primary>  (29) 
energy

$$$$
29:0
     RDKit          3D

 25 26  0  0  0  0  0  0  0  0999 V2000
   -9.0257   22.2969  -32.5841 H   0  0  0  0  0  0  0  0  0  0  0  0
   -8.1520   22.6490  -32.0160 C   0  0  0  0  0  0  0  0  0  0  0  0
   -7.1860   23.4400  -32.6400 C   0  0  0  0  0  0  0  0  0  0  0  0
   -7.2989   23.7089  -33.7006 H   0  0  0  0  0  0  0  0  0  0  0  0
   -6.0740   23.8920  -31.9200 C   0  0  0  0  0  0  0  0  0  0  0  0
   -5.3165   24.5149  -32.4182 H   0  0  0  0  0  0  0  0  0  0  0  0
   -5.9190   23.5540  -30.5610 C   0  0  0  0  0  0  0  0  0  0  0  0
   -4.7490   24.0210  -29.7740 C   0  0  0  0  0  0  0  0  0  0  0  0
   -3.6190   24.4990  -30.3350 N   0  0  0  0  0  0  0  0  0  0  0  0
   -2.8700   24.7850  -29.2520 C   0  0  0  0  0  0  0  0  0  0  0  0
   -1.6740   25.2860  -29.3390 N   0  0  0  0  0  0  0  0  0  0  0  0
   -0.8270   25.6020  -28.1900 C   0  0  0  0  0  0  0  0  0  0  0  0
   -1.4329   26.1073  -27.4235 H   0  0  0  0  0  0  0  0  0  0  0  0
   -0.0089   26.2567  -28.5247 H   0  0  0  0  0  0  0  0  0  0  0  0
   -0.2250   24.3330  -27.5950 C   0  0  0  0  0  0  0  0  0  0  0  0
   -0.2537   24.3935  -26.4970 H   0  0  0  0  0  0  0  0  0  0  0  0
   -0.8051   23.4603  -27.9294 H   0  0  0  0  0  0  0  0  0  0  0  0
    0.8179   24.2302  -27.9294 H   0  0  0  0  0  0  0  0  0  0  0  0
   -3.4890   24.5070  -28.0880 N   0  0  0  0  0  0  0  0  0  0  0  0
   -4.6710   24.0260  -28.4270 N   0  0  0  0  0  0  0  0  0  0  0  0
   -5.3880   23.7160  -27.7370 H   0  0  0  0  0  0  0  0  0  0  0  0
   -6.9010   22.7540  -29.9460 C   0  0  0  0  0  0  0  0  0  0  0  0
   -6.7955   22.4799  -28.8859 H   0  0  0  0  0  0  0  0  0  0  0  0
   -8.0090   22.3050  -30.6710 C   0  0  0  0  0  0  0  0  0  0  0  0
   -8.7693   21.6795  -30.1804 H   0  0  0  0  0  0  0  0  0  0  0  0
  1  2  1  0
  2  3  2  0
  3  4  1  0
  3  5  1  0
  5  6  1  0
  5  7  2  0
  7  8  1  0
  8  9  2  0
  9 10  1  0
 10 11  2  0
 11 12  1  0
 12 13  1  0
 12 14  1  0
 12 15  1  0
 15 16  1  0
 15 17  1  0
 15 18  1  0
 10 19  1  0
 19 20  1  0
 20 21  1  0
  7 22  1  0
 22 23  1  0
 22 24  2  0
 24 25  1  0
 24  2  1  0
 20  8  1  0
M  CHG  1  19  -1
M  END
>  <UniqueID>  (30) 
29

>  <SMILES>  (30) 
CC/N=c1/nc(-c2ccccc2)[nH][n-]1

>  <Energy>  (30) 
56.67858017915807

>  <Genealogy>  (30) 
CCN=c1nc(-c2ccccc2)[nH][n-]1 (protonated)
CC/N=c1/nc(-c2ccccc2)[nH][n-]1 (cis-trans isomerization)
CC/N=c1/nc(-c2ccccc2)[nH][n-]1 (3D coordinates assigned)
CC/N=c1/nc(-c2ccccc2)[nH][n-]1 (optimized conformer: 56.67858017915807 kcal/mol)

>  <smiles>  (30) 
CCN=c1nc(-c2ccccc2)[nH][nH]1

>  <score_type>  (30) 
oracle

>  <origin>  (30) 
adgpu

>  <m_score__min__energy>  (30) 
-6.7599999999999998

>  <m_primary>  (30) 
energy

$$$$
30:0
     RDKit          3D

 25 25  0  0  0  0  0  0  0  0999 V2000
   -5.7260   17.8100  -34.9550 C   0  0  0  0  0  0  0  0  0  0  0  0
   -5.9790   19.1180  -34.2120 C   0  0  0  0  0  0  0  0  0  0  0  0
   -6.9890   18.9290  -33.1590 N   0  0  0  0  0  0  0  0  0  0  0  0
   -7.1850   17.5790  -32.6010 C   0  0  0  0  0  0  0  0  0  0  0  0
   -6.4820   17.4330  -31.2530 C   0  0  0  0  0  0  0  0  0  0  0  0
   -7.7190   20.0770  -32.6610 C   0  0  0  0  0  0  0  0  0  0  0  0
   -9.1110   20.0340  -32.4460 C   0  0  0  0  0  0  0  0  0  0  0  0
   -9.7710   21.1680  -31.9690 C   0  0  0  0  0  0  0  0  0  0  0  0
   -9.0530   22.3350  -31.7130 C   0  0  0  0  0  0  0  0  0  0  0  0
   -7.6790   22.3530  -31.9430 C   0  0  0  0  0  0  0  0  0  0  0  0
   -7.0520   21.2400  -32.4070 N   0  0  0  0  0  0  0  0  0  0  0  0
   -5.5693   16.9996  -34.2278 H   0  0  0  0  0  0  0  0  0  0  0  0
   -6.5950   17.5730  -35.5865 H   0  0  0  0  0  0  0  0  0  0  0  0
   -4.8313   17.9141  -35.5865 H   0  0  0  0  0  0  0  0  0  0  0  0
   -5.0395   19.4612  -33.7542 H   0  0  0  0  0  0  0  0  0  0  0  0
   -6.3493   19.8664  -34.9280 H   0  0  0  0  0  0  0  0  0  0  0  0
   -8.2617   17.3991  -32.4658 H   0  0  0  0  0  0  0  0  0  0  0  0
   -6.7550   16.8466  -33.3000 H   0  0  0  0  0  0  0  0  0  0  0  0
   -7.2094   17.5841  -30.4418 H   0  0  0  0  0  0  0  0  0  0  0  0
   -6.0477   16.4255  -31.1732 H   0  0  0  0  0  0  0  0  0  0  0  0
   -5.6825   18.1843  -31.1732 H   0  0  0  0  0  0  0  0  0  0  0  0
   -9.6744   19.1122  -32.6528 H   0  0  0  0  0  0  0  0  0  0  0  0
  -10.8569   21.1406  -31.7953 H   0  0  0  0  0  0  0  0  0  0  0  0
   -9.5653   23.2315  -31.3337 H   0  0  0  0  0  0  0  0  0  0  0  0
   -7.1012   23.2687  -31.7489 H   0  0  0  0  0  0  0  0  0  0  0  0
  1  2  1  0
  2  3  1  0
  3  4  1  0
  4  5  1  0
  3  6  1  0
  6  7  2  0
  7  8  1  0
  8  9  2  0
  9 10  1  0
 10 11  2  0
 11  6  1  0
  1 12  1  0
  1 13  1  0
  1 14  1  0
  2 15  1  0
  2 16  1  0
  4 17  1  0
  4 18  1  0
  5 19  1  0
  5 20  1  0
  5 21  1  0
  7 22  1  0
  8 23  1  0
  9 24  1  0
 10 25  1  0
M  END
>  <UniqueID>  (31) 
30

>  <SMILES>  (31) 
CCN(CC)c1ccccn1

>  <Energy>  (31) 
19.42538936096612

>  <Genealogy>  (31) 
CCN(CC)c1ccccn1 (3D coordinates assigned)
CCN(CC)c1ccccn1 (optimized conformer: 19.42538936096612 kcal/mol)

>  <smiles>  (31) 
CCN(CC)c1ccccn1

>  <score_type>  (31) 
oracle

>  <origin>  (31) 
adgpu

>  <m_score__min__energy>  (31) 
-4.2999999999999998

>  <m_primary>  (31) 
energy

$$$$
31:0
     RDKit          3D

 31 31  0  0  0  0  0  0  0  0999 V2000
   -5.6440   18.4620  -34.5990 C   0  0  0  0  0  0  0  0  0  0  0  0
   -6.2110   19.4150  -33.7080 O   0  0  0  0  0  0  0  0  0  0  0  0
   -7.1670   19.0710  -32.7490 C   0  0  0  0  0  0  0  0  0  0  0  0
   -6.9350   18.1650  -31.9030 O   0  0  0  0  0  0  0  0  0  0  0  0
   -8.4600   19.8200  -32.6990 C   0  0  0  0  0  0  0  0  0  0  0  0
   -8.2440   21.1690  -32.0890 C   0  0  0  0  0  0  0  0  0  0  0  0
   -9.2330   21.8090  -31.6400 O   0  0  0  0  0  0  0  0  0  0  0  0
   -6.9330   21.7580  -32.0980 N   0  0  0  0  0  0  0  0  0  0  0  0
   -6.5900   22.9710  -31.4070 C   0  0  0  0  0  0  0  0  0  0  0  0
   -7.5720   23.7620  -30.7850 C   0  0  0  0  0  0  0  0  0  0  0  0
   -7.2070   24.9130  -30.0810 C   0  0  0  0  0  0  0  0  0  0  0  0
   -5.8630   25.2840  -29.9910 C   0  0  0  0  0  0  0  0  0  0  0  0
   -4.8740   24.5130  -30.6120 C   0  0  0  0  0  0  0  0  0  0  0  0
   -3.5010   24.9040  -30.4690 N   0  0  0  0  0  0  0  0  0  0  0  0
   -2.6660   24.6890  -29.3230 C   0  0  0  0  0  0  0  0  0  0  0  0
   -2.6090   23.3710  -28.6140 C   0  0  0  0  0  0  0  0  0  0  0  0
   -1.9300   25.6280  -28.9230 O   0  0  0  0  0  0  0  0  0  0  0  0
   -5.2400   23.3390  -31.2920 C   0  0  0  0  0  0  0  0  0  0  0  0
   -5.1657   17.6581  -34.0202 H   0  0  0  0  0  0  0  0  0  0  0  0
   -6.4358   18.0363  -35.2329 H   0  0  0  0  0  0  0  0  0  0  0  0
   -4.8921   18.9547  -35.2329 H   0  0  0  0  0  0  0  0  0  0  0  0
   -8.8518   19.9399  -33.7199 H   0  0  0  0  0  0  0  0  0  0  0  0
   -9.1809   19.2574  -32.0876 H   0  0  0  0  0  0  0  0  0  0  0  0
   -6.2130   21.3260  -32.7200 H   0  0  0  0  0  0  0  0  0  0  0  0
   -8.6315   23.4739  -30.8527 H   0  0  0  0  0  0  0  0  0  0  0  0
   -7.9797   25.5282  -29.5967 H   0  0  0  0  0  0  0  0  0  0  0  0
   -5.5809   26.1867  -29.4292 H   0  0  0  0  0  0  0  0  0  0  0  0
   -2.6163   23.5388  -27.5269 H   0  0  0  0  0  0  0  0  0  0  0  0
   -3.4817   22.7643  -28.8972 H   0  0  0  0  0  0  0  0  0  0  0  0
   -1.6871   22.8419  -28.8972 H   0  0  0  0  0  0  0  0  0  0  0  0
   -4.4617   22.7025  -31.7383 H   0  0  0  0  0  0  0  0  0  0  0  0
  1  2  1  0
  2  3  1  0
  3  4  2  0
  3  5  1  0
  5  6  1  0
  6  7  2  0
  6  8  1  0
  8  9  1  0
  9 10  2  0
 10 11  1  0
 11 12  2  0
 12 13  1  0
 13 14  1  0
 14 15  1  0
 15 16  1  0
 15 17  2  0
 13 18  2  0
 18  9  1  0
  1 19  1  0
  1 20  1  0
  1 21  1  0
  5 22  1  0
  5 23  1  0
  8 24  1  0
 10 25  1  0
 11 26  1  0
 12 27  1  0
 16 28  1  0
 16 29  1  0
 16 30  1  0
 18 31  1  0
M  CHG  1  14  -1
M  END
>  <UniqueID>  (32) 
31

>  <SMILES>  (32) 
COC(=O)CC(=O)Nc1cccc([N-]C(C)=O)c1

>  <Energy>  (32) 
30.389171809033563

>  <Genealogy>  (32) 
COC(=O)CC(=O)Nc1cccc([N-]C(C)=O)c1 (protonated)
COC(=O)CC(=O)Nc1cccc([N-]C(C)=O)c1 (3D coordinates assigned)
COC(=O)CC(=O)Nc1cccc([N-]C(C)=O)c1 (optimized conformer: 30.389171809033563 kcal/mol)

>  <smiles>  (32) 
COC(=O)CC(=O)Nc1cccc(NC(C)=O)c1

>  <score_type>  (32) 
oracle

>  <origin>  (32) 
adgpu

>  <m_score__min__energy>  (32) 
-7.9699999999999998

>  <m_primary>  (32) 
energy

$$$$
32:0
     RDKit          3D

 32 34  0  0  1  0  0  0  0  0999 V2000
    0.1400   20.8200  -27.8390 Cl  0  0  0  0  0  0  0  0  0  0  0  0
   -1.3420   21.6210  -28.3110 C   0  0  0  0  0  0  0  0  0  0  0  0
   -1.4200   22.2330  -29.5410 C   0  0  0  0  0  0  0  0  0  0  0  0
   -2.5870   22.8860  -29.9580 C   0  0  0  0  0  0  0  0  0  0  0  0
   -3.7090   22.9460  -29.1600 C   0  0  0  0  0  0  0  0  0  0  0  0
   -4.9160   23.6250  -29.6010 C   0  0  0  0  0  0  0  0  0  0  0  0
   -5.8900   22.9820  -30.3510 C   0  0  0  0  0  0  0  0  0  0  0  0
   -7.0430   23.6210  -30.7750 C   0  0  0  0  0  0  0  0  0  0  0  0
   -7.9320   23.0200  -31.4660 N   0  0  0  0  0  0  0  0  0  0  0  0
   -7.7220   21.6500  -31.8030 C   0  0  0  0  0  0  0  0  0  0  0  0
   -8.6370   20.7360  -31.3230 C   0  0  0  0  0  0  0  0  0  0  0  0
   -8.4710   19.3960  -31.6270 C   0  0  0  0  0  0  0  0  0  0  0  0
   -7.4210   18.9330  -32.3960 C   0  0  0  0  0  0  0  0  0  0  0  0
   -7.2270   17.2250  -32.7710 Cl  0  0  0  0  0  0  0  0  0  0  0  0
   -6.5190   19.8840  -32.8620 C   0  0  0  0  0  0  0  0  0  0  0  0
   -5.1680   19.3780  -33.8370 Cl  0  0  0  0  0  0  0  0  0  0  0  0
   -6.6570   21.2270  -32.5750 C   0  0  0  0  0  0  0  0  0  0  0  0
   -7.2260   24.9120  -30.4480 N   0  0  0  0  0  0  0  0  0  0  0  0
   -6.2900   25.5530  -29.7200 C   0  0  0  0  0  0  0  0  0  0  0  0
   -5.1550   24.9130  -29.3050 N   0  0  0  0  0  0  0  0  0  0  0  0
   -3.6270   22.3310  -27.9290 C   0  0  0  0  0  0  0  0  0  0  0  0
   -2.4600   21.6770  -27.5090 C   0  0  0  0  0  0  0  0  0  0  0  0
   -0.5477   22.2089  -30.2108 H   0  0  0  0  0  0  0  0  0  0  0  0
   -2.6084   23.3636  -30.9487 H   0  0  0  0  0  0  0  0  0  0  0  0
   -5.7409   21.9256  -30.6187 H   0  0  0  0  0  0  0  0  0  0  0  0
   -9.4863   21.0674  -30.7075 H   0  0  0  0  0  0  0  0  0  0  0  0
   -9.2035   18.6717  -31.2413 H   0  0  0  0  0  0  0  0  0  0  0  0
   -5.9256   21.9541  -32.9575 H   0  0  0  0  0  0  0  0  0  0  0  0
   -6.4419   26.6097  -29.4550 H   0  0  0  0  0  0  0  0  0  0  0  0
   -4.5050   25.4980  -28.7530 H   0  0  0  0  0  0  0  0  0  0  0  0
   -4.4993   22.3539  -27.2592 H   0  0  0  0  0  0  0  0  0  0  0  0
   -2.4371   21.1989  -26.5186 H   0  0  0  0  0  0  0  0  0  0  0  0
  1  2  1  0
  2  3  2  0
  3  4  1  0
  4  5  2  0
  5  6  1  0
  6  7  2  0
  7  8  1  0
  8  9  2  0
  9 10  1  0
 10 11  2  0
 11 12  1  0
 12 13  2  0
 13 14  1  0
 13 15  1  0
 15 16  1  0
 15 17  2  0
  8 18  1  0
 18 19  2  0
 19 20  1  0
  5 21  1  0
 21 22  2  0
 22  2  1  0
 20  6  1  0
 17 10  1  0
  3 23  1  0
  4 24  1  0
  7 25  1  0
 11 26  1  0
 12 27  1  0
 17 28  1  0
 19 29  1  0
 20 30  1  0
 21 31  1  0
 22 32  1  0
M  END
>  <smiles>  (33) 
Clc1ccc(-c2cc(=Nc3ccc(Cl)c(Cl)c3)nc[nH]2)cc1

>  <score_type>  (33) 
oracle

>  <origin>  (33) 
adgpu

>  <m_score__min__energy>  (33) 
-8.5199999999999996

>  <m_primary>  (33) 
energy

$$$$
33:0
     RDKit          3D

 30 31  0  0  0  0  0  0  0  0999 V2000
   -0.8750   26.7350  -27.9110 C   0  0  0  0  0  0  0  0  0  0  0  0
   -1.5890   26.0470  -28.9330 O   0  0  0  0  0  0  0  0  0  0  0  0
   -1.8640   24.6700  -28.9200 C   0  0  0  0  0  0  0  0  0  0  0  0
   -1.1110   23.7640  -28.1480 C   0  0  0  0  0  0  0  0  0  0  0  0
   -1.4160   22.4020  -28.1650 C   0  0  0  0  0  0  0  0  0  0  0  0
   -2.4710   21.9300  -28.9460 C   0  0  0  0  0  0  0  0  0  0  0  0
   -3.2250   22.8180  -29.7140 C   0  0  0  0  0  0  0  0  0  0  0  0
   -2.9250   24.1950  -29.7100 C   0  0  0  0  0  0  0  0  0  0  0  0
   -3.6540   25.1250  -30.4720 O   0  0  0  0  0  0  0  0  0  0  0  0
   -5.0630   25.3410  -30.3880 C   0  0  0  0  0  0  0  0  0  0  0  0
   -5.8190   24.1070  -30.8040 C   0  0  0  0  0  0  0  0  0  0  0  0
   -5.4550   23.4180  -31.9720 C   0  0  0  0  0  0  0  0  0  0  0  0
   -6.1610   22.2780  -32.3670 C   0  0  0  0  0  0  0  0  0  0  0  0
   -7.2400   21.8230  -31.6040 C   0  0  0  0  0  0  0  0  0  0  0  0
   -7.6170   22.5090  -30.4470 C   0  0  0  0  0  0  0  0  0  0  0  0
   -8.6670   22.0690  -29.7110 F   0  0  0  0  0  0  0  0  0  0  0  0
   -6.9140   23.6510  -30.0480 C   0  0  0  0  0  0  0  0  0  0  0  0
   -1.2271   26.3957  -26.9257 H   0  0  0  0  0  0  0  0  0  0  0  0
    0.2001   26.5237  -28.0089 H   0  0  0  0  0  0  0  0  0  0  0  0
   -1.0463   27.8172  -28.0089 H   0  0  0  0  0  0  0  0  0  0  0  0
   -0.2791   24.1313  -27.5291 H   0  0  0  0  0  0  0  0  0  0  0  0
   -0.8231   21.6993  -27.5612 H   0  0  0  0  0  0  0  0  0  0  0  0
   -2.7089   20.8561  -28.9564 H   0  0  0  0  0  0  0  0  0  0  0  0
   -4.0579   22.4413  -30.3258 H   0  0  0  0  0  0  0  0  0  0  0  0
   -5.3279   25.5936  -29.3507 H   0  0  0  0  0  0  0  0  0  0  0  0
   -5.3342   26.1652  -31.0641 H   0  0  0  0  0  0  0  0  0  0  0  0
   -4.6106   23.7768  -32.5788 H   0  0  0  0  0  0  0  0  0  0  0  0
   -5.8670   21.7384  -33.2794 H   0  0  0  0  0  0  0  0  0  0  0  0
   -7.7927   20.9241  -31.9148 H   0  0  0  0  0  0  0  0  0  0  0  0
   -7.2184   24.1936  -29.1408 H   0  0  0  0  0  0  0  0  0  0  0  0
  1  2  1  0
  2  3  1  0
  3  4  2  0
  4  5  1  0
  5  6  2  0
  6  7  1  0
  7  8  2  0
  8  9  1  0
  9 10  1  0
 10 11  1  0
 11 12  2  0
 12 13  1  0
 13 14  2  0
 14 15  1  0
 15 16  1  0
 15 17  2  0
  8  3  1  0
 17 11  1  0
  1 18  1  0
  1 19  1  0
  1 20  1  0
  4 21  1  0
  5 22  1  0
  6 23  1  0
  7 24  1  0
 10 25  1  0
 10 26  1  0
 12 27  1  0
 13 28  1  0
 14 29  1  0
 17 30  1  0
M  END
>  <UniqueID>  (34) 
32

>  <SMILES>  (34) 
COc1ccccc1OCc1cccc(F)c1

>  <Energy>  (34) 
29.880413783567636

>  <Genealogy>  (34) 
COc1ccccc1OCc1cccc(F)c1 (3D coordinates assigned)
COc1ccccc1OCc1cccc(F)c1 (optimized conformer: 29.880413783567636 kcal/mol)

>  <smiles>  (34) 
COc1ccccc1OCc1cccc(F)c1

>  <score_type>  (34) 
oracle

>  <origin>  (34) 
adgpu

>  <m_score__min__energy>  (34) 
-6.9400000000000004

>  <m_primary>  (34) 
energy

$$$$
34:0
     RDKit          3D

 33 34  0  0  0  0  0  0  0  0999 V2000
   -7.2100   20.4340  -33.0340 C   0  0  0  0  0  0  0  0  0  0  0  0
   -6.6000   21.4670  -32.1410 C   0  0  0  0  0  0  0  0  0  0  0  0
   -5.0420   21.3730  -31.5180 S   0  0  0  0  0  0  0  0  0  0  0  0
   -5.1090   22.8120  -30.6470 C   0  0  0  0  0  0  0  0  0  0  0  0
   -4.0790   23.3100  -29.7780 N   0  0  0  0  0  0  0  0  0  0  0  0
   -3.3660   24.5370  -30.0050 C   0  0  0  0  0  0  0  0  0  0  0  0
   -3.8660   25.4370  -30.7300 O   0  0  0  0  0  0  0  0  0  0  0  0
   -2.1240   24.7960  -29.3400 N   0  0  0  0  0  0  0  0  0  0  0  0
   -1.9740   25.2940  -28.0030 C   0  0  0  0  0  0  0  0  0  0  0  0
   -2.8370   24.8970  -26.9650 C   0  0  0  0  0  0  0  0  0  0  0  0
   -2.6430   25.3800  -25.6670 C   0  0  0  0  0  0  0  0  0  0  0  0
   -1.5830   26.2480  -25.3930 C   0  0  0  0  0  0  0  0  0  0  0  0
   -1.3960   26.7150  -24.1330 F   0  0  0  0  0  0  0  0  0  0  0  0
   -0.7070   26.6260  -26.4150 C   0  0  0  0  0  0  0  0  0  0  0  0
   -0.8980   26.1430  -27.7140 C   0  0  0  0  0  0  0  0  0  0  0  0
   -6.3680   23.3930  -30.8230 C   0  0  0  0  0  0  0  0  0  0  0  0
   -6.7800   24.6730  -30.1500 C   0  0  0  0  0  0  0  0  0  0  0  0
   -7.2180   22.6210  -31.6490 C   0  0  0  0  0  0  0  0  0  0  0  0
   -8.6320   23.0130  -31.9820 C   0  0  0  0  0  0  0  0  0  0  0  0
   -7.6744   19.6475  -32.4210 H   0  0  0  0  0  0  0  0  0  0  0  0
   -7.9755   20.9040  -33.6689 H   0  0  0  0  0  0  0  0  0  0  0  0
   -6.4287   19.9907  -33.6689 H   0  0  0  0  0  0  0  0  0  0  0  0
   -3.8280   22.7540  -28.9310 H   0  0  0  0  0  0  0  0  0  0  0  0
   -3.6661   24.2052  -27.1749 H   0  0  0  0  0  0  0  0  0  0  0  0
   -3.3262   25.0760  -24.8603 H   0  0  0  0  0  0  0  0  0  0  0  0
    0.1323   27.3031  -26.1977 H   0  0  0  0  0  0  0  0  0  0  0  0
   -0.1992   26.4316  -28.5130 H   0  0  0  0  0  0  0  0  0  0  0  0
   -6.7382   24.5433  -29.0585 H   0  0  0  0  0  0  0  0  0  0  0  0
   -6.0966   25.4812  -30.4496 H   0  0  0  0  0  0  0  0  0  0  0  0
   -7.8065   24.9309  -30.4496 H   0  0  0  0  0  0  0  0  0  0  0  0
   -9.1978   23.1698  -31.0518 H   0  0  0  0  0  0  0  0  0  0  0  0
   -8.6260   23.9434  -32.5688 H   0  0  0  0  0  0  0  0  0  0  0  0
   -9.1059   22.2124  -32.5688 H   0  0  0  0  0  0  0  0  0  0  0  0
  1  2  1  0
  2  3  1  0
  3  4  1  0
  4  5  1  0
  5  6  1  0
  6  7  2  0
  6  8  1  0
  8  9  1  0
  9 10  2  0
 10 11  1  0
 11 12  2  0
 12 13  1  0
 12 14  1  0
 14 15  2  0
  4 16  2  0
 16 17  1  0
 16 18  1  0
 18 19  1  0
 18  2  2  0
 15  9  1  0
  1 20  1  0
  1 21  1  0
  1 22  1  0
  5 23  1  0
 10 24  1  0
 11 25  1  0
 14 26  1  0
 15 27  1  0
 17 28  1  0
 17 29  1  0
 17 30  1  0
 19 31  1  0
 19 32  1  0
 19 33  1  0
M  CHG  1   8  -1
M  END
>  <UniqueID>  (35) 
33

>  <SMILES>  (35) 
Cc1sc(NC(=O)[N-]c2ccc(F)cc2)c(C)c1C

>  <Energy>  (35) 
63.22245255177568

>  <Genealogy>  (35) 
Cc1sc(NC(=O)[N-]c2ccc(F)cc2)c(C)c1C (protonated)
Cc1sc(NC(=O)[N-]c2ccc(F)cc2)c(C)c1C (3D coordinates assigned)
Cc1sc(NC(=O)[N-]c2ccc(F)cc2)c(C)c1C (optimized conformer: 63.22245255177568 kcal/mol)

>  <smiles>  (35) 
Cc1sc(NC(=O)Nc2ccc(F)cc2)c(C)c1C

>  <score_type>  (35) 
oracle

>  <origin>  (35) 
adgpu

>  <m_score__min__energy>  (35) 
-8.3300000000000001

>  <m_primary>  (35) 
energy

$$$$
35:0
     RDKit          3D

 43 46  0  0  0  0  0  0  0  0999 V2000
   -9.2810   19.2090  -33.0920 O   0  0  0  0  0  0  0  0  0  0  0  0
   -8.0210   18.6720  -32.4670 S   0  0  0  0  0  0  0  0  0  0  0  0
   -8.3990   17.8030  -31.3010 O   0  0  0  0  0  0  0  0  0  0  0  0
   -7.0260   20.0080  -31.8980 C   0  0  0  0  0  0  0  0  0  0  0  0
   -5.6700   19.8020  -31.6150 C   0  0  0  0  0  0  0  0  0  0  0  0
   -4.8680   20.8690  -31.1980 C   0  0  0  0  0  0  0  0  0  0  0  0
   -5.4080   22.1590  -31.0780 C   0  0  0  0  0  0  0  0  0  0  0  0
   -4.5450   23.2790  -30.6460 C   0  0  0  0  0  0  0  0  0  0  0  0
   -4.7900   24.5630  -30.9760 N   0  0  0  0  0  0  0  0  0  0  0  0
   -3.8220   25.2960  -30.4470 N   0  0  0  0  0  0  0  0  0  0  0  0
   -2.9980   24.4500  -29.8050 C   0  0  0  0  0  0  0  0  0  0  0  0
   -1.7160   24.9550  -28.9170 S   0  0  0  0  0  0  0  0  0  0  0  0
   -3.4180   23.1700  -29.9020 N   0  0  0  0  0  0  0  0  0  0  0  0
   -2.8910   22.0120  -29.2320 C   0  0  0  0  0  0  0  0  0  0  0  0
   -3.3980   21.6270  -27.9790 C   0  0  0  0  0  0  0  0  0  0  0  0
   -2.8740   20.5100  -27.3210 C   0  0  0  0  0  0  0  0  0  0  0  0
   -1.8430   19.7710  -27.9080 C   0  0  0  0  0  0  0  0  0  0  0  0
   -1.3340   20.1470  -29.1540 C   0  0  0  0  0  0  0  0  0  0  0  0
   -1.8560   21.2630  -29.8150 C   0  0  0  0  0  0  0  0  0  0  0  0
   -6.7730   22.3570  -31.3440 C   0  0  0  0  0  0  0  0  0  0  0  0
   -7.5740   21.2900  -31.7600 C   0  0  0  0  0  0  0  0  0  0  0  0
   -7.1130   17.7320  -33.6250 N   0  0  0  0  0  0  0  0  0  0  0  0
   -6.3470   16.6750  -32.9670 C   0  0  0  0  0  0  0  0  0  0  0  0
   -5.1510   16.3890  -33.8610 C   0  0  0  0  0  0  0  0  0  0  0  0
   -5.0010   17.6220  -34.7390 C   0  0  0  0  0  0  0  0  0  0  0  0
   -6.1260   18.5560  -34.3200 C   0  0  0  0  0  0  0  0  0  0  0  0
   -5.2343   18.7975  -31.7211 H   0  0  0  0  0  0  0  0  0  0  0  0
   -3.8075   20.6963  -30.9626 H   0  0  0  0  0  0  0  0  0  0  0  0
   -4.2096   22.2062  -27.5145 H   0  0  0  0  0  0  0  0  0  0  0  0
   -3.2736   20.2125  -26.3403 H   0  0  0  0  0  0  0  0  0  0  0  0
   -1.4319   18.8927  -27.3888 H   0  0  0  0  0  0  0  0  0  0  0  0
   -0.5224   19.5648  -29.6149 H   0  0  0  0  0  0  0  0  0  0  0  0
   -1.4541   21.5557  -30.7962 H   0  0  0  0  0  0  0  0  0  0  0  0
   -7.2140   23.3576  -31.2242 H   0  0  0  0  0  0  0  0  0  0  0  0
   -8.6387   21.4574  -31.9799 H   0  0  0  0  0  0  0  0  0  0  0  0
   -6.0088   17.0114  -31.9758 H   0  0  0  0  0  0  0  0  0  0  0  0
   -6.9588   15.7727  -32.8199 H   0  0  0  0  0  0  0  0  0  0  0  0
   -4.2457   16.2349  -33.2555 H   0  0  0  0  0  0  0  0  0  0  0  0
   -5.2945   15.4761  -34.4577 H   0  0  0  0  0  0  0  0  0  0  0  0
   -4.0234   18.0975  -34.5709 H   0  0  0  0  0  0  0  0  0  0  0  0
   -5.0547   17.3713  -35.8087 H   0  0  0  0  0  0  0  0  0  0  0  0
   -5.7411   19.3364  -33.6471 H   0  0  0  0  0  0  0  0  0  0  0  0
   -6.5707   19.0588  -35.1915 H   0  0  0  0  0  0  0  0  0  0  0  0
  1  2  2  0
  2  3  2  0
  2  4  1  0
  4  5  2  0
  5  6  1  0
  6  7  2  0
  7  8  1  0
  8  9  2  0
  9 10  1  0
 10 11  1  0
 11 12  2  0
 11 13  1  0
 13 14  1  0
 14 15  2  0
 15 16  1  0
 16 17  2  0
 17 18  1  0
 18 19  2  0
  7 20  1  0
 20 21  2  0
  2 22  1  0
 22 23  1  0
 23 24  1  0
 24 25  1  0
 25 26  1  0
 21  4  1  0
 26 22  1  0
 13  8  1  0
 19 14  1  0
  5 27  1  0
  6 28  1  0
 15 29  1  0
 16 30  1  0
 17 31  1  0
 18 32  1  0
 19 33  1  0
 20 34  1  0
 21 35  1  0
 23 36  1  0
 23 37  1  0
 24 38  1  0
 24 39  1  0
 25 40  1  0
 25 41  1  0
 26 42  1  0
 26 43  1  0
M  CHG  1  10  -1
M  END
>  <UniqueID>  (36) 
34

>  <SMILES>  (36) 
O=S(=O)(c1ccc(-c2n[n-]c(=S)n2-c2ccccc2)cc1)N1CCCC1

>  <Energy>  (36) 
92.14326572978952

>  <Genealogy>  (36) 
O=S(=O)(c1ccc(-c2n[n-]c(=S)n2-c2ccccc2)cc1)N1CCCC1 (protonated)
O=S(=O)(c1ccc(-c2n[n-]c(=S)n2-c2ccccc2)cc1)N1CCCC1 (3D coordinates assigned)
O=S(=O)(c1ccc(-c2n[n-]c(=S)n2-c2ccccc2)cc1)N1CCCC1 (nonaromatic ring conformer: 92.14326572978952 kcal/mol)

>  <smiles>  (36) 
O=S(=O)(c1ccc(-c2n[nH]c(=S)n2-c2ccccc2)cc1)N1CCCC1

>  <score_type>  (36) 
oracle

>  <origin>  (36) 
adgpu

>  <m_score__min__energy>  (36) 
-10.779999999999999

>  <m_primary>  (36) 
energy

$$$$
36:0
     RDKit          3D

 23 24  0  0  0  0  0  0  0  0999 V2000
   -6.4770   19.2850  -34.2470 N   0  0  0  0  0  0  0  0  0  0  0  0
   -7.1240   20.0360  -33.2170 C   0  0  0  0  0  0  0  0  0  0  0  0
   -8.3660   19.6200  -32.7160 C   0  0  0  0  0  0  0  0  0  0  0  0
   -8.9950   20.3510  -31.7070 C   0  0  0  0  0  0  0  0  0  0  0  0
   -8.3930   21.4990  -31.1900 C   0  0  0  0  0  0  0  0  0  0  0  0
   -7.1460   21.9330  -31.6800 C   0  0  0  0  0  0  0  0  0  0  0  0
   -6.5040   23.1550  -31.1320 C   0  0  0  0  0  0  0  0  0  0  0  0
   -7.2390   24.0750  -30.3640 C   0  0  0  0  0  0  0  0  0  0  0  0
   -6.6220   25.2180  -29.8540 C   0  0  0  0  0  0  0  0  0  0  0  0
   -5.2690   25.4380  -30.1160 C   0  0  0  0  0  0  0  0  0  0  0  0
   -4.5660   24.5450  -30.8600 N   0  0  0  0  0  0  0  0  0  0  0  0
   -5.1430   23.4230  -31.3670 C   0  0  0  0  0  0  0  0  0  0  0  0
   -6.5180   21.1890  -32.6980 C   0  0  0  0  0  0  0  0  0  0  0  0
   -5.6140   18.7330  -34.0450 H   0  0  0  0  0  0  0  0  0  0  0  0
   -6.8570   19.2740  -35.2200 H   0  0  0  0  0  0  0  0  0  0  0  0
   -8.8455   18.7157  -33.1190 H   0  0  0  0  0  0  0  0  0  0  0  0
   -9.9694   20.0208  -31.3176 H   0  0  0  0  0  0  0  0  0  0  0  0
   -8.8958   22.0686  -30.3946 H   0  0  0  0  0  0  0  0  0  0  0  0
   -8.3053   23.8930  -30.1642 H   0  0  0  0  0  0  0  0  0  0  0  0
   -7.1959   25.9379  -29.2519 H   0  0  0  0  0  0  0  0  0  0  0  0
   -4.7714   26.3354  -29.7197 H   0  0  0  0  0  0  0  0  0  0  0  0
   -4.5424   22.7211  -31.9641 H   0  0  0  0  0  0  0  0  0  0  0  0
   -5.5432   21.5156  -33.0894 H   0  0  0  0  0  0  0  0  0  0  0  0
  1  2  1  0
  2  3  2  0
  3  4  1  0
  4  5  2  0
  5  6  1  0
  6  7  1  0
  7  8  2  0
  8  9  1  0
  9 10  2  0
 10 11  1  0
 11 12  2  0
  6 13  2  0
 13  2  1  0
 12  7  1  0
  1 14  1  0
  1 15  1  0
  3 16  1  0
  4 17  1  0
  5 18  1  0
  8 19  1  0
  9 20  1  0
 10 21  1  0
 12 22  1  0
 13 23  1  0
M  END
>  <UniqueID>  (37) 
35

>  <SMILES>  (37) 
Nc1cccc(-c2cccnc2)c1

>  <Energy>  (37) 
28.870949902458047

>  <Genealogy>  (37) 
Nc1cccc(-c2cccnc2)c1 (3D coordinates assigned)
Nc1cccc(-c2cccnc2)c1 (optimized conformer: 28.870949902458047 kcal/mol)

>  <smiles>  (37) 
Nc1cccc(-c2cccnc2)c1

>  <score_type>  (37) 
oracle

>  <origin>  (37) 
adgpu

>  <m_score__min__energy>  (37) 
-6.46

>  <m_primary>  (37) 
energy

$$$$
37:0
     RDKit          3D

 29 30  0  0  0  0  0  0  0  0999 V2000
   -4.8780   19.6940  -33.3230 C   0  0  0  0  0  0  0  0  0  0  0  0
   -5.8700   20.7090  -33.4400 O   0  0  0  0  0  0  0  0  0  0  0  0
   -6.4160   21.4120  -32.3560 C   0  0  0  0  0  0  0  0  0  0  0  0
   -7.7200   21.1020  -31.9510 C   0  0  0  0  0  0  0  0  0  0  0  0
   -8.3050   21.7740  -30.8770 C   0  0  0  0  0  0  0  0  0  0  0  0
   -7.5970   22.7740  -30.2050 C   0  0  0  0  0  0  0  0  0  0  0  0
   -6.3010   23.1140  -30.6080 C   0  0  0  0  0  0  0  0  0  0  0  0
   -5.6020   24.1450  -29.8940 N   0  0  0  0  0  0  0  0  0  0  0  0
   -4.2080   24.4660  -30.0100 C   0  0  0  0  0  0  0  0  0  0  0  0
   -3.8610   25.3430  -30.8440 O   0  0  0  0  0  0  0  0  0  0  0  0
   -3.1690   23.7530  -29.2270 C   0  0  0  0  0  0  0  0  0  0  0  0
   -3.4020   22.4380  -28.7830 C   0  0  0  0  0  0  0  0  0  0  0  0
   -2.4380   21.7620  -28.0300 C   0  0  0  0  0  0  0  0  0  0  0  0
   -2.7490   20.1290  -27.4680 Cl  0  0  0  0  0  0  0  0  0  0  0  0
   -1.2260   22.3870  -27.7250 C   0  0  0  0  0  0  0  0  0  0  0  0
   -0.9770   23.6850  -28.1730 C   0  0  0  0  0  0  0  0  0  0  0  0
   -1.9400   24.3710  -28.9210 C   0  0  0  0  0  0  0  0  0  0  0  0
   -1.6720   25.6710  -29.3370 O   0  0  0  0  0  0  0  0  0  0  0  0
   -5.7010   22.4100  -31.6670 C   0  0  0  0  0  0  0  0  0  0  0  0
   -4.6821   19.4936  -32.2593 H   0  0  0  0  0  0  0  0  0  0  0  0
   -5.2351   18.7744  -33.8097 H   0  0  0  0  0  0  0  0  0  0  0  0
   -3.9505   20.0300  -33.8097 H   0  0  0  0  0  0  0  0  0  0  0  0
   -8.2869   20.3237  -32.4829 H   0  0  0  0  0  0  0  0  0  0  0  0
   -9.3258   21.5160  -30.5586 H   0  0  0  0  0  0  0  0  0  0  0  0
   -8.0608   23.2963  -29.3552 H   0  0  0  0  0  0  0  0  0  0  0  0
   -4.3502   21.9384  -29.0305 H   0  0  0  0  0  0  0  0  0  0  0  0
   -0.4676   21.8555  -27.1314 H   0  0  0  0  0  0  0  0  0  0  0  0
   -0.0189   24.1711  -27.9369 H   0  0  0  0  0  0  0  0  0  0  0  0
   -4.6659   22.6406  -31.9591 H   0  0  0  0  0  0  0  0  0  0  0  0
  1  2  1  0
  2  3  1  0
  3  4  2  0
  4  5  1  0
  5  6  2  0
  6  7  1  0
  7  8  1  0
  8  9  1  0
  9 10  2  0
  9 11  1  0
 11 12  2  0
 12 13  1  0
 13 14  1  0
 13 15  2  0
 15 16  1  0
 16 17  2  0
 17 18  1  0
  7 19  2  0
 19  3  1  0
 17 11  1  0
  1 20  1  0
  1 21  1  0
  1 22  1  0
  4 23  1  0
  5 24  1  0
  6 25  1  0
 12 26  1  0
 15 27  1  0
 16 28  1  0
 19 29  1  0
M  CHG  2   8  -1  18  -1
M  END
>  <UniqueID>  (38) 
36

>  <SMILES>  (38) 
COc1cccc([N-]C(=O)c2cc(Cl)ccc2[O-])c1

>  <Energy>  (38) 
36.312791295579245

>  <Genealogy>  (38) 
COc1cccc([N-]C(=O)c2cc(Cl)ccc2[O-])c1 (protonated)
COc1cccc([N-]C(=O)c2cc(Cl)ccc2[O-])c1 (3D coordinates assigned)
COc1cccc([N-]C(=O)c2cc(Cl)ccc2[O-])c1 (optimized conformer: 36.312791295579245 kcal/mol)

>  <smiles>  (38) 
COc1cccc(NC(=O)c2cc(Cl)ccc2O)c1

>  <score_type>  (38) 
oracle

>  <origin>  (38) 
adgpu

>  <m_score__min__energy>  (38) 
-11.16

>  <m_primary>  (38) 
energy

$$$$
38:0
     RDKit          3D

 30 31  0  0  0  0  0  0  0  0999 V2000
   -7.4490   20.0610  -33.0730 C   0  0  0  0  0  0  0  0  0  0  0  0
   -6.8810   21.2300  -32.3260 C   0  0  0  0  0  0  0  0  0  0  0  0
   -7.7320   22.1270  -31.6610 C   0  0  0  0  0  0  0  0  0  0  0  0
   -7.2040   23.2380  -30.9980 C   0  0  0  0  0  0  0  0  0  0  0  0
   -5.8230   23.4740  -31.0040 C   0  0  0  0  0  0  0  0  0  0  0  0
   -5.1690   24.8850  -30.1800 S   0  0  0  0  0  0  0  0  0  0  0  0
   -6.1140   26.0490  -30.2820 O   0  0  0  0  0  0  0  0  0  0  0  0
   -3.8640   25.2580  -30.8250 O   0  0  0  0  0  0  0  0  0  0  0  0
   -4.8950   24.5220  -28.5040 N   0  0  0  0  0  0  0  0  0  0  0  0
   -3.7260   23.8450  -28.0080 C   0  0  0  0  0  0  0  0  0  0  0  0
   -2.7180   24.5220  -27.2920 C   0  0  0  0  0  0  0  0  0  0  0  0
   -1.6000   23.8280  -26.8200 C   0  0  0  0  0  0  0  0  0  0  0  0
   -1.4720   22.4570  -27.0600 C   0  0  0  0  0  0  0  0  0  0  0  0
   -2.4610   21.7790  -27.7740 C   0  0  0  0  0  0  0  0  0  0  0  0
   -3.5820   22.4690  -28.2470 C   0  0  0  0  0  0  0  0  0  0  0  0
   -4.9730   22.5870  -31.6770 C   0  0  0  0  0  0  0  0  0  0  0  0
   -5.4980   21.4750  -32.3410 C   0  0  0  0  0  0  0  0  0  0  0  0
   -7.8138   19.3102  -32.3566 H   0  0  0  0  0  0  0  0  0  0  0  0
   -8.2828   20.4000  -33.7053 H   0  0  0  0  0  0  0  0  0  0  0  0
   -6.6672   19.6150  -33.7053 H   0  0  0  0  0  0  0  0  0  0  0  0
   -8.8184   21.9546  -31.6619 H   0  0  0  0  0  0  0  0  0  0  0  0
   -7.8756   23.9303  -30.4691 H   0  0  0  0  0  0  0  0  0  0  0  0
   -5.5990   24.8820  -27.8220 H   0  0  0  0  0  0  0  0  0  0  0  0
   -2.8116   25.6017  -27.1037 H   0  0  0  0  0  0  0  0  0  0  0  0
   -0.8193   24.3621  -26.2585 H   0  0  0  0  0  0  0  0  0  0  0  0
   -0.5922   21.9127  -26.6863 H   0  0  0  0  0  0  0  0  0  0  0  0
   -2.3588   20.7005  -27.9651 H   0  0  0  0  0  0  0  0  0  0  0  0
   -4.3571   21.9292  -28.8108 H   0  0  0  0  0  0  0  0  0  0  0  0
   -3.8878   22.7665  -31.6829 H   0  0  0  0  0  0  0  0  0  0  0  0
   -4.8257   20.7891  -32.8773 H   0  0  0  0  0  0  0  0  0  0  0  0
  1  2  1  0
  2  3  2  0
  3  4  1  0
  4  5  2  0
  5  6  1  0
  6  7  2  0
  6  8  2  0
  6  9  1  0
  9 10  1  0
 10 11  2  0
 11 12  1  0
 12 13  2  0
 13 14  1  0
 14 15  2  0
  5 16  1  0
 16 17  2  0
 17  2  1  0
 15 10  1  0
  1 18  1  0
  1 19  1  0
  1 20  1  0
  3 21  1  0
  4 22  1  0
  9 23  1  0
 11 24  1  0
 12 25  1  0
 13 26  1  0
 14 27  1  0
 15 28  1  0
 16 29  1  0
 17 30  1  0
M  END
>  <UniqueID>  (39) 
37

>  <SMILES>  (39) 
Cc1ccc(S(=O)(=O)Nc2ccccc2)cc1

>  <Energy>  (39) 
32.30210270380014

>  <Genealogy>  (39) 
Cc1ccc(S(=O)(=O)Nc2ccccc2)cc1 (3D coordinates assigned)
Cc1ccc(S(=O)(=O)Nc2ccccc2)cc1 (optimized conformer: 32.30210270380014 kcal/mol)

>  <smiles>  (39) 
Cc1ccc(S(=O)(=O)Nc2ccccc2)cc1

>  <score_type>  (39) 
oracle

>  <origin>  (39) 
adgpu

>  <m_score__min__energy>  (39) 
-7.6200000000000001

>  <m_primary>  (39) 
energy

$$$$
39:0
     RDKit          3D

 34 36  0  0  0  0  0  0  0  0999 V2000
   -6.8460   23.7960  -32.7120 C   0  0  0  0  0  0  0  0  0  0  0  0
   -6.4680   22.3650  -32.3130 C   0  0  1  0  0  0  0  0  0  0  0  0
   -5.3720   22.3960  -31.2570 C   0  0  0  0  0  0  0  0  0  0  0  0
   -5.6320   22.9840  -30.0010 C   0  0  0  0  0  0  0  0  0  0  0  0
   -4.6510   23.0080  -29.0080 C   0  0  0  0  0  0  0  0  0  0  0  0
   -3.3920   22.4630  -29.2550 C   0  0  0  0  0  0  0  0  0  0  0  0
   -3.1060   21.9050  -30.5020 C   0  0  0  0  0  0  0  0  0  0  0  0
   -4.0790   21.8760  -31.5080 C   0  0  0  0  0  0  0  0  0  0  0  0
   -3.6220   21.1880  -33.0640 Cl  0  0  0  0  0  0  0  0  0  0  0  0
   -7.6690   21.5690  -31.8390 C   0  0  0  0  0  0  0  0  0  0  0  0
   -8.6840   22.0890  -31.1180 N   0  0  0  0  0  0  0  0  0  0  0  0
   -9.4960   21.0900  -30.8060 N   0  0  0  0  0  0  0  0  0  0  0  0
   -8.9690   19.9690  -31.3340 C   0  0  0  0  0  0  0  0  0  0  0  0
   -7.8310   20.2360  -31.9990 N   0  0  0  0  0  0  0  0  0  0  0  0
   -6.9620   19.2860  -32.6340 C   0  0  0  0  0  0  0  0  0  0  0  0
   -6.5030   19.5180  -33.9400 C   0  0  0  0  0  0  0  0  0  0  0  0
   -5.6870   18.5780  -34.5760 C   0  0  0  0  0  0  0  0  0  0  0  0
   -5.3170   17.4070  -33.9090 C   0  0  0  0  0  0  0  0  0  0  0  0
   -5.7550   17.1790  -32.6010 C   0  0  0  0  0  0  0  0  0  0  0  0
   -5.3890   16.0460  -31.9520 F   0  0  0  0  0  0  0  0  0  0  0  0
   -6.5720   18.1170  -31.9630 C   0  0  0  0  0  0  0  0  0  0  0  0
   -7.0054   24.3993  -31.8061 H   0  0  0  0  0  0  0  0  0  0  0  0
   -6.0336   24.2372  -33.3081 H   0  0  0  0  0  0  0  0  0  0  0  0
   -7.7703   23.7784  -33.3081 H   0  0  0  0  0  0  0  0  0  0  0  0
   -6.0863   21.8506  -33.2072 H   0  0  0  0  0  0  0  0  0  0  0  0
   -6.6184   23.4283  -29.8021 H   0  0  0  0  0  0  0  0  0  0  0  0
   -4.8720   23.4578  -28.0288 H   0  0  0  0  0  0  0  0  0  0  0  0
   -2.6241   22.4727  -28.4674 H   0  0  0  0  0  0  0  0  0  0  0  0
   -2.1081   21.4847  -30.6958 H   0  0  0  0  0  0  0  0  0  0  0  0
   -9.4111   18.9667  -31.2345 H   0  0  0  0  0  0  0  0  0  0  0  0
   -6.7863   20.4424  -34.4646 H   0  0  0  0  0  0  0  0  0  0  0  0
   -5.3358   18.7602  -35.6024 H   0  0  0  0  0  0  0  0  0  0  0  0
   -4.6810   16.6645  -34.4132 H   0  0  0  0  0  0  0  0  0  0  0  0
   -6.9102   17.9381  -30.9317 H   0  0  0  0  0  0  0  0  0  0  0  0
  1  2  1  0
  2  3  1  0
  3  4  2  0
  4  5  1  0
  5  6  2  0
  6  7  1  0
  7  8  2  0
  8  9  1  0
  2 10  1  0
 10 11  2  0
 11 12  1  0
 12 13  2  0
 13 14  1  0
 14 15  1  0
 15 16  2  0
 16 17  1  0
 17 18  2  0
 18 19  1  0
 19 20  1  0
 19 21  2  0
  8  3  1  0
 14 10  1  0
 21 15  1  0
  1 22  1  0
  1 23  1  0
  1 24  1  0
  2 25  1  6
  4 26  1  0
  5 27  1  0
  6 28  1  0
  7 29  1  0
 13 30  1  0
 16 31  1  0
 17 32  1  0
 18 33  1  0
 21 34  1  0
M  END
>  <UniqueID>  (40) 
38

>  <SMILES>  (40) 
C[C@@H](c1ccccc1Cl)c1nncn1-c1cccc(F)c1

>  <Energy>  (40) 
75.41654026663151

>  <Genealogy>  (40) 
C[C@@H](c1ccccc1Cl)c1nncn1-c1cccc(F)c1 (chirality)
C[C@@H](c1ccccc1Cl)c1nncn1-c1cccc(F)c1 (3D coordinates assigned)
C[C@@H](c1ccccc1Cl)c1nncn1-c1cccc(F)c1 (optimized conformer: 75.41654026663151 kcal/mol)

>  <smiles>  (40) 
CC(c1ccccc1Cl)c1nncn1-c1cccc(F)c1

>  <score_type>  (40) 
oracle

>  <origin>  (40) 
adgpu

>  <m_score__min__energy>  (40) 
-7.7999999999999998

>  <m_primary>  (40) 
energy

$$$$
40:0
     RDKit          3D

 26 27  0  0  0  0  0  0  0  0999 V2000
  -10.1740   20.0190  -32.2093 H   0  0  0  0  0  0  0  0  0  0  0  0
   -9.2130   20.5470  -32.1220 C   0  0  0  0  0  0  0  0  0  0  0  0
   -9.1710   21.8380  -31.5870 C   0  0  0  0  0  0  0  0  0  0  0  0
  -10.0994   22.3248  -31.2537 H   0  0  0  0  0  0  0  0  0  0  0  0
   -7.9510   22.5110  -31.4750 C   0  0  0  0  0  0  0  0  0  0  0  0
   -7.9215   23.5280  -31.0567 H   0  0  0  0  0  0  0  0  0  0  0  0
   -6.7640   21.8920  -31.8950 C   0  0  0  0  0  0  0  0  0  0  0  0
   -5.2220   22.7310  -31.7530 S   0  0  0  0  0  0  0  0  0  0  0  0
   -5.3590   24.1650  -32.1820 O   0  0  0  0  0  0  0  0  0  0  0  0
   -4.2150   22.0500  -32.6350 O   0  0  0  0  0  0  0  0  0  0  0  0
   -4.6650   22.6810  -30.1110 N   0  0  0  0  0  0  0  0  0  0  0  0
   -3.8660   23.5590  -29.5860 C   0  0  0  0  0  0  0  0  0  0  0  0
   -3.4240   23.5340  -28.2810 C   0  0  0  0  0  0  0  0  0  0  0  0
   -3.6545   22.8008  -27.4940 H   0  0  0  0  0  0  0  0  0  0  0  0
   -2.6200   24.6560  -28.2030 C   0  0  0  0  0  0  0  0  0  0  0  0
   -1.8740   25.1190  -26.9970 C   0  0  0  0  0  0  0  0  0  0  0  0
   -2.4030   24.7907  -26.0902 H   0  0  0  0  0  0  0  0  0  0  0  0
   -0.8608   24.6908  -27.0058 H   0  0  0  0  0  0  0  0  0  0  0  0
   -1.8081   26.2170  -27.0058 H   0  0  0  0  0  0  0  0  0  0  0  0
   -2.6080   25.2670  -29.3680 O   0  0  0  0  0  0  0  0  0  0  0  0
   -3.3500   24.6290  -30.2230 N   0  0  0  0  0  0  0  0  0  0  0  0
   -3.4950   24.9230  -31.2140 H   0  0  0  0  0  0  0  0  0  0  0  0
   -6.8120   20.5990  -32.4370 C   0  0  0  0  0  0  0  0  0  0  0  0
   -5.8861   20.1122  -32.7772 H   0  0  0  0  0  0  0  0  0  0  0  0
   -8.0340   19.9270  -32.5460 C   0  0  0  0  0  0  0  0  0  0  0  0
   -8.0672   18.9106  -32.9654 H   0  0  0  0  0  0  0  0  0  0  0  0
  1  2  1  0
  2  3  2  0
  3  4  1  0
  3  5  1  0
  5  6  1  0
  5  7  2  0
  7  8  1  0
  8  9  2  0
  8 10  2  0
  8 11  1  0
 11 12  2  0
 12 13  1  0
 13 14  1  0
 13 15  2  0
 15 16  1  0
 16 17  1  0
 16 18  1  0
 16 19  1  0
 15 20  1  0
 20 21  1  0
 21 22  1  0
  7 23  1  0
 23 24  1  0
 23 25  2  0
 25 26  1  0
 25  2  1  0
 21 12  1  0
M  END
>  <UniqueID>  (41) 
39

>  <SMILES>  (41) 
Cc1c/c(=N/S(=O)(=O)c2ccccc2)[nH]o1

>  <Energy>  (41) 
60.09885418286674

>  <Genealogy>  (41) 
Cc1c/c(=N/S(=O)(=O)c2ccccc2)[nH]o1 (cis-trans isomerization)
Cc1c/c(=N/S(=O)(=O)c2ccccc2)[nH]o1 (3D coordinates assigned)
Cc1c/c(=N/S(=O)(=O)c2ccccc2)[nH]o1 (optimized conformer: 60.09885418286674 kcal/mol)

>  <smiles>  (41) 
Cc1cc(=NS(=O)(=O)c2ccccc2)[nH]o1

>  <score_type>  (41) 
oracle

>  <origin>  (41) 
adgpu

>  <m_score__min__energy>  (41) 
-7.8600000000000003

>  <m_primary>  (41) 
energy

$$$$
41:0
     RDKit          3D

 29 30  0  0  0  0  0  0  0  0999 V2000
   -2.3970   25.2850  -29.2420 N   0  0  0  0  0  0  0  0  0  0  0  0
   -2.8940   24.3260  -28.2590 C   0  0  0  0  0  0  0  0  0  0  0  0
   -4.1060   23.5650  -28.8020 C   0  0  0  0  0  0  0  0  0  0  0  0
   -4.3120   23.8050  -30.5610 S   0  0  0  0  0  0  0  0  0  0  0  0
   -4.4040   25.2720  -30.8760 O   0  0  0  0  0  0  0  0  0  0  0  0
   -3.1380   23.2270  -31.3000 O   0  0  0  0  0  0  0  0  0  0  0  0
   -5.7890   22.9980  -31.0760 C   0  0  0  0  0  0  0  0  0  0  0  0
   -6.9770   23.7280  -31.2160 C   0  0  0  0  0  0  0  0  0  0  0  0
   -8.1560   23.0910  -31.6100 C   0  0  0  0  0  0  0  0  0  0  0  0
   -8.1610   21.7110  -31.8640 C   0  0  0  0  0  0  0  0  0  0  0  0
   -9.3410   21.0600  -32.2590 C   0  0  0  0  0  0  0  0  0  0  0  0
   -9.3330   19.6840  -32.5040 C   0  0  0  0  0  0  0  0  0  0  0  0
   -8.1540   18.9490  -32.3570 C   0  0  0  0  0  0  0  0  0  0  0  0
   -6.9730   19.5860  -31.9640 C   0  0  0  0  0  0  0  0  0  0  0  0
   -6.9660   20.9670  -31.7150 C   0  0  0  0  0  0  0  0  0  0  0  0
   -5.7880   21.6170  -31.3190 C   0  0  0  0  0  0  0  0  0  0  0  0
   -2.3470   24.8060  -30.1700 H   0  0  0  0  0  0  0  0  0  0  0  0
   -3.1110   26.0430  -29.3360 H   0  0  0  0  0  0  0  0  0  0  0  0
   -2.0954   23.6081  -28.0206 H   0  0  0  0  0  0  0  0  0  0  0  0
   -3.1996   24.8750  -27.3561 H   0  0  0  0  0  0  0  0  0  0  0  0
   -3.9700   22.4917  -28.6033 H   0  0  0  0  0  0  0  0  0  0  0  0
   -5.0043   23.9515  -28.2982 H   0  0  0  0  0  0  0  0  0  0  0  0
   -6.9811   24.8094  -31.0144 H   0  0  0  0  0  0  0  0  0  0  0  0
   -9.0829   23.6727  -31.7215 H   0  0  0  0  0  0  0  0  0  0  0  0
  -10.2724   21.6335  -32.3757 H   0  0  0  0  0  0  0  0  0  0  0  0
  -10.2590   19.1776  -32.8139 H   0  0  0  0  0  0  0  0  0  0  0  0
   -8.1548   17.8662  -32.5510 H   0  0  0  0  0  0  0  0  0  0  0  0
   -6.0471   19.0032  -31.8497 H   0  0  0  0  0  0  0  0  0  0  0  0
   -4.8588   21.0407  -31.1985 H   0  0  0  0  0  0  0  0  0  0  0  0
  1  2  1  0
  2  3  1  0
  3  4  1  0
  4  5  2  0
  4  6  2  0
  4  7  1  0
  7  8  2  0
  8  9  1  0
  9 10  2  0
 10 11  1  0
 11 12  2  0
 12 13  1  0
 13 14  2  0
 14 15  1  0
 15 16  2  0
 16  7  1  0
 15 10  1  0
  1 17  1  0
  1 18  1  0
  2 19  1  0
  2 20  1  0
  3 21  1  0
  3 22  1  0
  8 23  1  0
  9 24  1  0
 11 25  1  0
 12 26  1  0
 13 27  1  0
 14 28  1  0
 16 29  1  0
M  END
>  <UniqueID>  (42) 
40

>  <SMILES>  (42) 
NCCS(=O)(=O)c1ccc2ccccc2c1

>  <Energy>  (42) 
26.690012677482947

>  <Genealogy>  (42) 
NCCS(=O)(=O)c1ccc2ccccc2c1 (3D coordinates assigned)
NCCS(=O)(=O)c1ccc2ccccc2c1 (optimized conformer: 26.690012677482947 kcal/mol)

>  <smiles>  (42) 
NCCS(=O)(=O)c1ccc2ccccc2c1

>  <score_type>  (42) 
oracle

>  <origin>  (42) 
adgpu

>  <m_score__min__energy>  (42) 
-8.2200000000000006

>  <m_primary>  (42) 
energy

$$$$
42:0
     RDKit          3D

 40 43  0  0  0  0  0  0  0  0999 V2000
   -0.8530   26.5700  -27.8540 C   0  0  0  0  0  0  0  0  0  0  0  0
   -1.5580   25.9470  -28.9650 N   0  0  0  0  0  0  0  0  0  0  0  0
   -1.4920   24.5430  -29.2340 C   0  0  0  0  0  0  0  0  0  0  0  0
   -0.4280   23.9090  -28.9930 O   0  0  0  0  0  0  0  0  0  0  0  0
   -2.6680   23.8330  -29.7910 C   0  0  0  0  0  0  0  0  0  0  0  0
   -3.9550   24.4200  -29.7330 C   0  0  0  0  0  0  0  0  0  0  0  0
   -5.0590   23.7390  -30.2650 C   0  0  0  0  0  0  0  0  0  0  0  0
   -4.8610   22.5120  -30.8140 N   0  0  0  0  0  0  0  0  0  0  0  0
   -5.7180   21.6650  -31.4150 C   0  0  0  0  0  0  0  0  0  0  0  0
   -7.1520   21.9300  -31.6490 C   0  0  0  0  0  0  0  0  0  0  0  0
   -7.5750   23.1790  -32.1250 C   0  0  0  0  0  0  0  0  0  0  0  0
   -8.9370   23.4130  -32.3290 C   0  0  0  0  0  0  0  0  0  0  0  0
   -9.8440   22.4340  -32.0630 N   0  0  0  0  0  0  0  0  0  0  0  0
   -9.4620   21.2150  -31.5990 C   0  0  0  0  0  0  0  0  0  0  0  0
   -8.1100   20.9400  -31.3820 C   0  0  0  0  0  0  0  0  0  0  0  0
   -4.9700   20.5720  -31.8600 C   0  0  0  0  0  0  0  0  0  0  0  0
   -5.4640   19.3650  -32.5580 C   0  0  0  0  0  0  0  0  0  0  0  0
   -6.0540   18.3030  -31.8490 C   0  0  0  0  0  0  0  0  0  0  0  0
   -6.5050   17.1670  -32.5280 C   0  0  0  0  0  0  0  0  0  0  0  0
   -6.3610   17.0730  -33.9150 C   0  0  0  0  0  0  0  0  0  0  0  0
   -6.7980   15.9710  -34.5700 F   0  0  0  0  0  0  0  0  0  0  0  0
   -5.7580   18.1150  -34.6240 C   0  0  0  0  0  0  0  0  0  0  0  0
   -5.3050   19.2530  -33.9500 C   0  0  0  0  0  0  0  0  0  0  0  0
   -3.6650   20.7480  -31.5390 N   0  0  0  0  0  0  0  0  0  0  0  0
   -3.6500   21.9370  -30.9030 C   0  0  0  0  0  0  0  0  0  0  0  0
   -2.5150   22.5660  -30.3940 C   0  0  0  0  0  0  0  0  0  0  0  0
   -1.2685   26.2028  -26.9040 H   0  0  0  0  0  0  0  0  0  0  0  0
    0.2158   26.3159  -27.9093 H   0  0  0  0  0  0  0  0  0  0  0  0
   -0.9736   27.6620  -27.9093 H   0  0  0  0  0  0  0  0  0  0  0  0
   -4.0886   25.4093  -29.2710 H   0  0  0  0  0  0  0  0  0  0  0  0
   -6.0629   24.1879  -30.2385 H   0  0  0  0  0  0  0  0  0  0  0  0
   -6.8395   23.9692  -32.3364 H   0  0  0  0  0  0  0  0  0  0  0  0
   -9.2766   24.3894  -32.7049 H   0  0  0  0  0  0  0  0  0  0  0  0
  -10.2190   20.4437  -31.3940 H   0  0  0  0  0  0  0  0  0  0  0  0
   -7.7985   19.9548  -31.0047 H   0  0  0  0  0  0  0  0  0  0  0  0
   -6.1610   18.3665  -30.7561 H   0  0  0  0  0  0  0  0  0  0  0  0
   -6.9747   16.3445  -31.9687 H   0  0  0  0  0  0  0  0  0  0  0  0
   -5.6394   18.0398  -35.7150 H   0  0  0  0  0  0  0  0  0  0  0  0
   -4.8214   20.0654  -34.5123 H   0  0  0  0  0  0  0  0  0  0  0  0
   -1.5266   22.0878  -30.4605 H   0  0  0  0  0  0  0  0  0  0  0  0
  1  2  1  0
  2  3  1  0
  3  4  2  0
  3  5  1  0
  5  6  1  0
  6  7  2  0
  7  8  1  0
  8  9  1  0
  9 10  1  0
 10 11  2  0
 11 12  1  0
 12 13  2  0
 13 14  1  0
 14 15  2  0
  9 16  2  0
 16 17  1  0
 17 18  2  0
 18 19  1  0
 19 20  2  0
 20 21  1  0
 20 22  1  0
 22 23  2  0
 16 24  1  0
 24 25  2  0
 25 26  1  0
 26  5  2  0
 25  8  1  0
 15 10  1  0
 23 17  1  0
  1 27  1  0
  1 28  1  0
  1 29  1  0
  6 30  1  0
  7 31  1  0
 11 32  1  0
 12 33  1  0
 14 34  1  0
 15 35  1  0
 18 36  1  0
 19 37  1  0
 22 38  1  0
 23 39  1  0
 26 40  1  0
M  CHG  1   2  -1
M  END
>  <UniqueID>  (43) 
41

>  <SMILES>  (43) 
C[N-]C(=O)c1ccn2c(-c3ccncc3)c(-c3ccc(F)cc3)nc2c1

>  <Energy>  (43) 
87.86454479367592

>  <Genealogy>  (43) 
C[N-]C(=O)c1ccn2c(-c3ccncc3)c(-c3ccc(F)cc3)nc2c1 (protonated)
C[N-]C(=O)c1ccn2c(-c3ccncc3)c(-c3ccc(F)cc3)nc2c1 (3D coordinates assigned)
C[N-]C(=O)c1ccn2c(-c3ccncc3)c(-c3ccc(F)cc3)nc2c1 (optimized conformer: 87.86454479367592 kcal/mol)

>  <smiles>  (43) 
CNC(=O)c1ccn2c(-c3ccncc3)c(-c3ccc(F)cc3)nc2c1

>  <score_type>  (43) 
oracle

>  <origin>  (43) 
adgpu

>  <m_score__min__energy>  (43) 
-10.01

>  <m_primary>  (43) 
energy

$$$$
43:0
     RDKit          3D

 29 31  0  0  1  0  0  0  0  0999 V2000
   -6.8480   15.7270  -33.9270 C   0  0  0  0  0  0  0  0  0  0  0  0
   -6.3440   17.0970  -33.9580 N   0  0  0  0  0  0  0  0  0  0  0  0
   -5.4690   17.6380  -34.8490 C   0  0  0  0  0  0  0  0  0  0  0  0
   -5.2550   18.9390  -34.5350 N   0  0  0  0  0  0  0  0  0  0  0  0
   -5.9750   19.2480  -33.4550 C   0  0  0  0  0  0  0  0  0  0  0  0
   -6.1700   20.3750  -32.6860 C   0  0  0  0  0  0  0  0  0  0  0  0
   -5.5570   21.4720  -32.9820 N   0  0  0  0  0  0  0  0  0  0  0  0
   -5.7990   22.6070  -32.1490 C   0  0  0  0  0  0  0  0  0  0  0  0
   -7.0640   23.0200  -31.7920 C   0  0  0  0  0  0  0  0  0  0  0  0
   -7.1660   24.1310  -30.9820 C   0  0  0  0  0  0  0  0  0  0  0  0
   -6.0600   24.8230  -30.5310 C   0  0  0  0  0  0  0  0  0  0  0  0
   -4.7870   24.4060  -30.8910 C   0  0  0  0  0  0  0  0  0  0  0  0
   -3.6450   25.0880  -30.4490 O   0  0  0  0  0  0  0  0  0  0  0  0
   -4.6530   23.2800  -31.7120 C   0  0  0  0  0  0  0  0  0  0  0  0
   -6.9970   20.3010  -31.6420 N   0  0  0  0  0  0  0  0  0  0  0  0
   -7.6570   19.1570  -31.3050 C   0  0  0  0  0  0  0  0  0  0  0  0
   -7.4660   18.0730  -32.0510 N   0  0  0  0  0  0  0  0  0  0  0  0
   -6.6460   18.1020  -33.1040 C   0  0  0  0  0  0  0  0  0  0  0  0
   -6.9670   15.4036  -32.8824 H   0  0  0  0  0  0  0  0  0  0  0  0
   -7.8213   15.6827  -34.4376 H   0  0  0  0  0  0  0  0  0  0  0  0
   -6.1355   15.0625  -34.4376 H   0  0  0  0  0  0  0  0  0  0  0  0
   -5.0076   17.1030  -35.6922 H   0  0  0  0  0  0  0  0  0  0  0  0
   -7.9590   22.4835  -32.1402 H   0  0  0  0  0  0  0  0  0  0  0  0
   -8.1661   24.4790  -30.6840 H   0  0  0  0  0  0  0  0  0  0  0  0
   -6.1882   25.7050  -29.8862 H   0  0  0  0  0  0  0  0  0  0  0  0
   -3.4830   26.0450  -30.7430 H   0  0  0  0  0  0  0  0  0  0  0  0
   -3.6549   22.9273  -32.0110 H   0  0  0  0  0  0  0  0  0  0  0  0
   -7.1900   21.1160  -31.0190 H   0  0  0  0  0  0  0  0  0  0  0  0
   -8.3316   19.1311  -30.4365 H   0  0  0  0  0  0  0  0  0  0  0  0
  1  2  1  0
  2  3  1  0
  3  4  2  0
  4  5  1  0
  5  6  1  0
  6  7  2  0
  7  8  1  0
  8  9  2  0
  9 10  1  0
 10 11  2  0
 11 12  1  0
 12 13  1  0
 12 14  2  0
  6 15  1  0
 15 16  1  0
 16 17  2  0
 17 18  1  0
 18  2  1  0
 18  5  2  0
 14  8  1  0
  1 19  1  0
  1 20  1  0
  1 21  1  0
  3 22  1  0
  9 23  1  0
 10 24  1  0
 11 25  1  0
 13 26  1  0
 14 27  1  0
 15 28  1  0
 16 29  1  0
M  END
>  <smiles>  (44) 
Cn1cnc2c(=Nc3cccc(O)c3)[nH]cnc21

>  <score_type>  (44) 
oracle

>  <origin>  (44) 
adgpu

>  <m_score__min__energy>  (44) 
-7.3799999999999999

>  <m_primary>  (44) 
energy

$$$$
44:0
     RDKit          3D

 30 32  0  0  0  0  0  0  0  0999 V2000
   -2.8980   25.5350  -30.5190 H   0  0  0  0  0  0  0  0  0  0  0  0
   -3.8700   25.3120  -30.8310 N   0  0  0  0  0  0  0  0  0  0  0  0
   -4.3040   24.0950  -30.8470 C   0  0  0  0  0  0  0  0  0  0  0  0
   -5.5490   23.7690  -31.2450 N   0  0  0  0  0  0  0  0  0  0  0  0
   -5.7650   22.4250  -31.1650 C   0  0  0  0  0  0  0  0  0  0  0  0
   -7.0560   21.8240  -31.5820 C   0  0  0  0  0  0  0  0  0  0  0  0
   -8.2430   22.5110  -31.2820 C   0  0  0  0  0  0  0  0  0  0  0  0
   -8.1988   23.4661  -30.7381 H   0  0  0  0  0  0  0  0  0  0  0  0
   -9.4750   21.9920  -31.6680 C   0  0  0  0  0  0  0  0  0  0  0  0
  -10.4027   22.5398  -31.4458 H   0  0  0  0  0  0  0  0  0  0  0  0
   -9.5220   20.7730  -32.3380 C   0  0  0  0  0  0  0  0  0  0  0  0
  -10.4918   20.3557  -32.6468 H   0  0  0  0  0  0  0  0  0  0  0  0
   -8.3760   20.0950  -32.6130 N   0  0  0  0  0  0  0  0  0  0  0  0
   -8.4810   19.1600  -33.0620 H   0  0  0  0  0  0  0  0  0  0  0  0
   -7.1430   20.5850  -32.2650 C   0  0  0  0  0  0  0  0  0  0  0  0
   -6.0530   19.9000  -32.4870 N   0  0  0  0  0  0  0  0  0  0  0  0
   -5.9230   18.6840  -33.2370 C   0  0  0  0  0  0  0  0  0  0  0  0
   -5.0000   18.5750  -34.2920 C   0  0  0  0  0  0  0  0  0  0  0  0
   -4.3982   19.4473  -34.5866 H   0  0  0  0  0  0  0  0  0  0  0  0
   -4.8450   17.3600  -34.9680 C   0  0  0  0  0  0  0  0  0  0  0  0
   -4.1369   17.2839  -35.8064 H   0  0  0  0  0  0  0  0  0  0  0  0
   -5.5890   16.2430  -34.5790 C   0  0  0  0  0  0  0  0  0  0  0  0
   -5.4726   15.2904  -35.1165 H   0  0  0  0  0  0  0  0  0  0  0  0
   -6.4810   16.3360  -33.5070 C   0  0  0  0  0  0  0  0  0  0  0  0
   -7.0601   15.4541  -33.1957 H   0  0  0  0  0  0  0  0  0  0  0  0
   -6.6380   17.5510  -32.8290 C   0  0  0  0  0  0  0  0  0  0  0  0
   -7.3255   17.6158  -31.9727 H   0  0  0  0  0  0  0  0  0  0  0  0
   -4.6660   21.6860  -30.7140 C   0  0  0  0  0  0  0  0  0  0  0  0
   -4.6322   20.5935  -30.5907 H   0  0  0  0  0  0  0  0  0  0  0  0
   -3.4040   22.7530  -30.3920 S   0  0  0  0  0  0  0  0  0  0  0  0
  1  2  1  0
  2  3  2  0
  3  4  1  0
  4  5  1  0
  5  6  1  0
  6  7  2  0
  7  8  1  0
  7  9  1  0
  9 10  1  0
  9 11  2  0
 11 12  1  0
 11 13  1  0
 13 14  1  0
 13 15  1  0
 15 16  2  0
 16 17  1  0
 17 18  2  0
 18 19  1  0
 18 20  1  0
 20 21  1  0
 20 22  2  0
 22 23  1  0
 22 24  1  0
 24 25  1  0
 24 26  2  0
 26 27  1  0
  5 28  2  0
 28 29  1  0
 28 30  1  0
 30  3  1  0
 15  6  1  0
 26 17  1  0
M  CHG  1   4  -1
M  END
>  <UniqueID>  (45) 
42

>  <SMILES>  (45) 
[H]/N=c1/[n-]c(-c2ccc[nH]/c2=N\c2ccccc2)cs1

>  <Energy>  (45) 
77.3236961054716

>  <Genealogy>  (45) 
N=c1[n-]c(-c2ccc[nH]c2=Nc2ccccc2)cs1 (protonated)
[H]/N=c1/[n-]c(-c2ccc[nH]/c2=N\c2ccccc2)cs1 (cis-trans isomerization)
[H]/N=c1/[n-]c(-c2ccc[nH]/c2=N\c2ccccc2)cs1 (3D coordinates assigned)
[H]/N=c1/[n-]c(-c2ccc[nH]/c2=N\c2ccccc2)cs1 (optimized conformer: 77.3236961054716 kcal/mol)

>  <smiles>  (45) 
N=c1[nH]c(-c2ccc[nH]c2=Nc2ccccc2)cs1

>  <score_type>  (45) 
oracle

>  <origin>  (45) 
adgpu

>  <m_score__min__energy>  (45) 
-9.1400000000000006

>  <m_primary>  (45) 
energy

$$$$
45:0
     RDKit          3D

 25 26  0  0  0  0  0  0  0  0999 V2000
   -6.8490   16.0390  -33.7950 C   0  0  0  0  0  0  0  0  0  0  0  0
   -6.4550   17.4770  -33.8010 C   0  0  0  0  0  0  0  0  0  0  0  0
   -6.4540   18.3260  -32.7160 C   0  0  0  0  0  0  0  0  0  0  0  0
   -5.9900   19.5220  -33.2400 C   0  0  0  0  0  0  0  0  0  0  0  0
   -5.7870   20.7990  -32.5110 C   0  0  0  0  0  0  0  0  0  0  0  0
   -6.8780   21.5620  -32.0560 C   0  0  0  0  0  0  0  0  0  0  0  0
   -6.6670   22.7630  -31.3720 C   0  0  0  0  0  0  0  0  0  0  0  0
   -5.3660   23.2220  -31.1340 C   0  0  0  0  0  0  0  0  0  0  0  0
   -5.1050   24.7270  -30.2580 S   0  0  0  0  0  0  0  0  0  0  0  0
   -3.4900   25.2790  -30.5280 N   0  0  0  0  0  0  0  0  0  0  0  0
   -5.3210   24.5050  -28.7880 O   0  0  0  0  0  0  0  0  0  0  0  0
   -6.0750   25.7700  -30.7350 O   0  0  0  0  0  0  0  0  0  0  0  0
   -4.2760   22.4640  -31.5760 C   0  0  0  0  0  0  0  0  0  0  0  0
   -4.4830   21.2630  -32.2610 C   0  0  0  0  0  0  0  0  0  0  0  0
   -5.7360   19.3610  -34.5560 N   0  0  0  0  0  0  0  0  0  0  0  0
   -6.0230   18.1280  -34.8550 O   0  0  0  0  0  0  0  0  0  0  0  0
   -6.9448   15.6894  -32.7564 H   0  0  0  0  0  0  0  0  0  0  0  0
   -7.8127   15.9207  -34.3121 H   0  0  0  0  0  0  0  0  0  0  0  0
   -6.0802   15.4460  -34.3121 H   0  0  0  0  0  0  0  0  0  0  0  0
   -6.7510   18.1066  -31.6798 H   0  0  0  0  0  0  0  0  0  0  0  0
   -7.9042   21.2112  -32.2397 H   0  0  0  0  0  0  0  0  0  0  0  0
   -7.5276   23.3502  -31.0191 H   0  0  0  0  0  0  0  0  0  0  0  0
   -3.5450   26.0460  -31.2350 H   0  0  0  0  0  0  0  0  0  0  0  0
   -3.2513   22.8148  -31.3836 H   0  0  0  0  0  0  0  0  0  0  0  0
   -3.6193   20.6763  -32.6072 H   0  0  0  0  0  0  0  0  0  0  0  0
  1  2  1  0
  2  3  2  0
  3  4  1  0
  4  5  1  0
  5  6  2  0
  6  7  1  0
  7  8  2  0
  8  9  1  0
  9 10  1  0
  9 11  2  0
  9 12  2  0
  8 13  1  0
 13 14  2  0
  4 15  2  0
 15 16  1  0
 16  2  1  0
 14  5  1  0
  1 17  1  0
  1 18  1  0
  1 19  1  0
  3 20  1  0
  6 21  1  0
  7 22  1  0
 10 23  1  0
 13 24  1  0
 14 25  1  0
M  CHG  1  10  -1
M  END
>  <UniqueID>  (46) 
43

>  <SMILES>  (46) 
Cc1cc(-c2ccc(S([NH-])(=O)=O)cc2)no1

>  <Energy>  (46) 
55.38715347945784

>  <Genealogy>  (46) 
Cc1cc(-c2ccc(S([NH-])(=O)=O)cc2)no1 (protonated)
Cc1cc(-c2ccc(S([NH-])(=O)=O)cc2)no1 (3D coordinates assigned)
Cc1cc(-c2ccc(S([NH-])(=O)=O)cc2)no1 (optimized conformer: 55.38715347945784 kcal/mol)

>  <smiles>  (46) 
Cc1cc(-c2ccc(S(N)(=O)=O)cc2)no1

>  <score_type>  (46) 
oracle

>  <origin>  (46) 
adgpu

>  <m_score__min__energy>  (46) 
-9.2400000000000002

>  <m_primary>  (46) 
energy

$$$$
46:0
     RDKit          3D

 35 36  0  0  0  0  0  0  0  0999 V2000
   -9.8590   21.6180  -31.9640 C   0  0  0  0  0  0  0  0  0  0  0  0
   -8.7530   20.3550  -31.2600 S   0  0  0  0  0  0  0  0  0  0  0  0
   -7.2820   21.3790  -31.4170 C   0  0  0  0  0  0  0  0  0  0  0  0
   -6.8910   22.3570  -30.5230 C   0  0  0  0  0  0  0  0  0  0  0  0
   -7.6010   22.7500  -29.3470 N   0  0  0  0  0  0  0  0  0  0  0  0
   -5.7190   22.9160  -31.0060 C   0  0  0  0  0  0  0  0  0  0  0  0
   -4.9350   24.0000  -30.3850 C   0  0  0  0  0  0  0  0  0  0  0  0
   -5.3360   24.5730  -29.1410 N   0  0  0  0  0  0  0  0  0  0  0  0
   -3.8840   24.4120  -30.9450 O   0  0  0  0  0  0  0  0  0  0  0  0
   -5.4430   22.2390  -32.1890 C   0  0  0  0  0  0  0  0  0  0  0  0
   -4.2590   22.4150  -32.9780 N   0  0  0  0  0  0  0  0  0  0  0  0
   -6.4040   21.3130  -32.4440 N   0  0  0  0  0  0  0  0  0  0  0  0
   -6.4940   20.4060  -33.5960 C   0  0  0  0  0  0  0  0  0  0  0  0
   -5.9480   19.0440  -33.2510 C   0  0  0  0  0  0  0  0  0  0  0  0
   -4.8470   18.5210  -33.9510 C   0  0  0  0  0  0  0  0  0  0  0  0
   -4.3490   17.2540  -33.6370 C   0  0  0  0  0  0  0  0  0  0  0  0
   -4.9400   16.5010  -32.6180 C   0  0  0  0  0  0  0  0  0  0  0  0
   -6.0290   17.0170  -31.9110 C   0  0  0  0  0  0  0  0  0  0  0  0
   -6.5310   18.2840  -32.2220 C   0  0  0  0  0  0  0  0  0  0  0  0
  -10.3460   22.1741  -31.1494 H   0  0  0  0  0  0  0  0  0  0  0  0
   -9.2740   22.3132  -32.5840 H   0  0  0  0  0  0  0  0  0  0  0  0
  -10.6253   21.1298  -32.5840 H   0  0  0  0  0  0  0  0  0  0  0  0
   -7.3820   23.6450  -28.8570 H   0  0  0  0  0  0  0  0  0  0  0  0
   -8.3780   22.1610  -28.9730 H   0  0  0  0  0  0  0  0  0  0  0  0
   -4.7970   25.3680  -28.7310 H   0  0  0  0  0  0  0  0  0  0  0  0
   -6.1220   24.1630  -28.5890 H   0  0  0  0  0  0  0  0  0  0  0  0
   -3.3990   22.8560  -32.5900 H   0  0  0  0  0  0  0  0  0  0  0  0
   -4.2550   22.1820  -33.9940 H   0  0  0  0  0  0  0  0  0  0  0  0
   -7.5479   20.3066  -33.8948 H   0  0  0  0  0  0  0  0  0  0  0  0
   -5.8991   20.8249  -34.4210 H   0  0  0  0  0  0  0  0  0  0  0  0
   -4.3752   19.1121  -34.7498 H   0  0  0  0  0  0  0  0  0  0  0  0
   -3.4906   16.8482  -34.1924 H   0  0  0  0  0  0  0  0  0  0  0  0
   -4.5478   15.5029  -32.3730 H   0  0  0  0  0  0  0  0  0  0  0  0
   -6.4923   16.4250  -31.1080 H   0  0  0  0  0  0  0  0  0  0  0  0
   -7.3856   18.6879  -31.6594 H   0  0  0  0  0  0  0  0  0  0  0  0
  1  2  1  0
  2  3  1  0
  3  4  2  0
  4  5  1  0
  4  6  1  0
  6  7  1  0
  7  8  1  0
  7  9  2  0
  6 10  2  0
 10 11  1  0
 10 12  1  0
 12 13  1  0
 13 14  1  0
 14 15  2  0
 15 16  1  0
 16 17  2  0
 17 18  1  0
 18 19  2  0
 12  3  1  0
 19 14  1  0
  1 20  1  0
  1 21  1  0
  1 22  1  0
  5 23  1  0
  5 24  1  0
  8 25  1  0
  8 26  1  0
 11 27  1  0
 11 28  1  0
 13 29  1  0
 13 30  1  0
 15 31  1  0
 16 32  1  0
 17 33  1  0
 18 34  1  0
 19 35  1  0
M  END
>  <UniqueID>  (47) 
44

>  <SMILES>  (47) 
CSc1c(N)c(C(N)=O)c(N)n1Cc1ccccc1

>  <Energy>  (47) 
60.10749514487006

>  <Genealogy>  (47) 
CSc1c(N)c(C(N)=O)c(N)n1Cc1ccccc1 (3D coordinates assigned)
CSc1c(N)c(C(N)=O)c(N)n1Cc1ccccc1 (optimized conformer: 60.10749514487006 kcal/mol)

>  <smiles>  (47) 
CSc1c(N)c(C(N)=O)c(N)n1Cc1ccccc1

>  <score_type>  (47) 
oracle

>  <origin>  (47) 
adgpu

>  <m_score__min__energy>  (47) 
-7.0899999999999999

>  <m_primary>  (47) 
energy

$$$$
47:0
     RDKit          3D

 27 28  0  0  0  0  0  0  0  0999 V2000
   -6.4810   25.6750  -29.3540 C   0  0  0  0  0  0  0  0  0  0  0  0
   -5.0900   25.3420  -30.4790 S   0  0  0  0  0  0  0  0  0  0  0  0
   -5.8630   23.8930  -31.2010 C   0  0  0  0  0  0  0  0  0  0  0  0
   -7.2570   23.7660  -31.1950 C   0  0  0  0  0  0  0  0  0  0  0  0
   -7.8600   22.6350  -31.7560 C   0  0  0  0  0  0  0  0  0  0  0  0
   -7.0690   21.6140  -32.3140 C   0  0  0  0  0  0  0  0  0  0  0  0
   -7.6360   20.4740  -32.9020 O   0  0  0  0  0  0  0  0  0  0  0  0
   -6.9510   19.2850  -33.1970 C   0  0  0  0  0  0  0  0  0  0  0  0
   -6.1160   19.1670  -34.3240 C   0  0  0  0  0  0  0  0  0  0  0  0
   -5.4650   17.9590  -34.5930 C   0  0  0  0  0  0  0  0  0  0  0  0
   -5.6490   16.8610  -33.7490 C   0  0  0  0  0  0  0  0  0  0  0  0
   -6.4930   16.9670  -32.6390 C   0  0  0  0  0  0  0  0  0  0  0  0
   -7.1460   18.1730  -32.3680 C   0  0  0  0  0  0  0  0  0  0  0  0
   -5.6760   21.7580  -32.3310 C   0  0  0  0  0  0  0  0  0  0  0  0
   -5.0740   22.8880  -31.7700 C   0  0  0  0  0  0  0  0  0  0  0  0
   -6.1377   25.5928  -28.3122 H   0  0  0  0  0  0  0  0  0  0  0  0
   -6.8639   26.6902  -29.5349 H   0  0  0  0  0  0  0  0  0  0  0  0
   -7.2822   24.9433  -29.5349 H   0  0  0  0  0  0  0  0  0  0  0  0
   -7.8789   24.5561  -30.7488 H   0  0  0  0  0  0  0  0  0  0  0  0
   -8.9562   22.5437  -31.7608 H   0  0  0  0  0  0  0  0  0  0  0  0
   -5.9752   20.0273  -34.9949 H   0  0  0  0  0  0  0  0  0  0  0  0
   -4.8071   17.8732  -35.4704 H   0  0  0  0  0  0  0  0  0  0  0  0
   -5.1303   15.9136  -33.9575 H   0  0  0  0  0  0  0  0  0  0  0  0
   -6.6432   16.1004  -31.9784 H   0  0  0  0  0  0  0  0  0  0  0  0
   -7.8164   18.2490  -31.4992 H   0  0  0  0  0  0  0  0  0  0  0  0
   -5.0515   20.9767  -32.7888 H   0  0  0  0  0  0  0  0  0  0  0  0
   -3.9785   22.9869  -31.7760 H   0  0  0  0  0  0  0  0  0  0  0  0
  1  2  1  0
  2  3  1  0
  3  4  2  0
  4  5  1  0
  5  6  2  0
  6  7  1  0
  7  8  1  0
  8  9  2  0
  9 10  1  0
 10 11  2  0
 11 12  1  0
 12 13  2  0
  6 14  1  0
 14 15  2  0
 15  3  1  0
 13  8  1  0
  1 16  1  0
  1 17  1  0
  1 18  1  0
  4 19  1  0
  5 20  1  0
  9 21  1  0
 10 22  1  0
 11 23  1  0
 12 24  1  0
 13 25  1  0
 14 26  1  0
 15 27  1  0
M  END
>  <UniqueID>  (48) 
45

>  <SMILES>  (48) 
CSc1ccc(Oc2ccccc2)cc1

>  <Energy>  (48) 
29.793967315927873

>  <Genealogy>  (48) 
CSc1ccc(Oc2ccccc2)cc1 (3D coordinates assigned)
CSc1ccc(Oc2ccccc2)cc1 (optimized conformer: 29.793967315927873 kcal/mol)

>  <smiles>  (48) 
CSc1ccc(Oc2ccccc2)cc1

>  <score_type>  (48) 
oracle

>  <origin>  (48) 
adgpu

>  <m_score__min__energy>  (48) 
-6.3700000000000001

>  <m_primary>  (48) 
energy

$$$$
48:0
     RDKit          3D

 34 36  0  0  1  0  0  0  0  0999 V2000
   -9.1260   19.9990  -32.5050 Cl  0  0  0  0  0  0  0  0  0  0  0  0
   -7.9040   21.2100  -32.1350 C   0  0  0  0  0  0  0  0  0  0  0  0
   -6.6070   21.0310  -32.5480 C   0  0  0  0  0  0  0  0  0  0  0  0
   -5.6570   21.9990  -32.2460 C   0  0  0  0  0  0  0  0  0  0  0  0
   -5.9670   23.1430  -31.5400 C   0  0  0  0  0  0  0  0  0  0  0  0
   -4.9360   24.0750  -31.2780 N   0  0  0  0  0  0  0  0  0  0  0  0
   -4.2320   23.9990  -30.2040 C   0  0  0  0  0  0  0  0  0  0  0  0
   -4.4590   23.0050  -29.2700 C   0  0  0  0  0  0  0  0  0  0  0  0
   -3.6690   22.9750  -28.1360 C   0  0  0  0  0  0  0  0  0  0  0  0
   -2.7080   23.8970  -27.9580 N   0  0  0  0  0  0  0  0  0  0  0  0
   -2.5270   24.8440  -28.8960 C   0  0  0  0  0  0  0  0  0  0  0  0
   -1.6130   25.7200  -28.7270 N   0  0  0  0  0  0  0  0  0  0  0  0
   -0.7490   25.7760  -27.5970 C   0  0  0  0  0  0  0  0  0  0  0  0
   -1.1400   26.6100  -26.5630 C   0  0  0  0  0  0  0  0  0  0  0  0
   -0.3230   26.6990  -25.4310 C   0  0  0  0  0  0  0  0  0  0  0  0
    0.8430   25.9570  -25.3720 C   0  0  0  0  0  0  0  0  0  0  0  0
    1.8680   26.0640  -23.9560 Cl  0  0  0  0  0  0  0  0  0  0  0  0
    1.2480   25.1180  -26.3950 C   0  0  0  0  0  0  0  0  0  0  0  0
    0.4260   25.0360  -27.5230 C   0  0  0  0  0  0  0  0  0  0  0  0
   -3.2690   24.9190  -30.0210 N   0  0  0  0  0  0  0  0  0  0  0  0
   -7.2750   23.3250  -31.1210 C   0  0  0  0  0  0  0  0  0  0  0  0
   -8.2140   22.3640  -31.4230 C   0  0  0  0  0  0  0  0  0  0  0  0
   -6.3228   20.1305  -33.1122 H   0  0  0  0  0  0  0  0  0  0  0  0
   -4.6205   21.8477  -32.5819 H   0  0  0  0  0  0  0  0  0  0  0  0
   -5.2494   22.2560  -29.4256 H   0  0  0  0  0  0  0  0  0  0  0  0
   -3.8275   22.1943  -27.3774 H   0  0  0  0  0  0  0  0  0  0  0  0
   -2.1160   23.8780  -27.1130 H   0  0  0  0  0  0  0  0  0  0  0  0
   -2.0724   27.1897  -26.6303 H   0  0  0  0  0  0  0  0  0  0  0  0
   -0.6057   27.3542  -24.5939 H   0  0  0  0  0  0  0  0  0  0  0  0
    2.1801   24.5383  -26.3236 H   0  0  0  0  0  0  0  0  0  0  0  0
    0.7112   24.3805  -28.3591 H   0  0  0  0  0  0  0  0  0  0  0  0
   -3.0930   25.6730  -30.7230 H   0  0  0  0  0  0  0  0  0  0  0  0
   -7.5594   24.2244  -30.5551 H   0  0  0  0  0  0  0  0  0  0  0  0
   -9.2507   22.5150  -31.0877 H   0  0  0  0  0  0  0  0  0  0  0  0
  1  2  1  0
  2  3  2  0
  3  4  1  0
  4  5  2  0
  5  6  1  0
  6  7  2  0
  7  8  1  0
  8  9  2  0
  9 10  1  0
 10 11  1  0
 11 12  2  0
 12 13  1  0
 13 14  2  0
 14 15  1  0
 15 16  2  0
 16 17  1  0
 16 18  1  0
 18 19  2  0
 11 20  1  0
  5 21  1  0
 21 22  2  0
 22  2  1  0
 20  7  1  0
 19 13  1  0
  3 23  1  0
  4 24  1  0
  8 25  1  0
  9 26  1  0
 10 27  1  0
 14 28  1  0
 15 29  1  0
 18 30  1  0
 19 31  1  0
 20 32  1  0
 21 33  1  0
 22 34  1  0
M  END
>  <smiles>  (49) 
Clc1ccc(N=c2cc[nH]c(=Nc3ccc(Cl)cc3)[nH]2)cc1

>  <score_type>  (49) 
oracle

>  <origin>  (49) 
adgpu

>  <m_score__min__energy>  (49) 
-8.6300000000000008

>  <m_primary>  (49) 
energy

$$$$
49:0
     RDKit          3D

 28 30  0  0  0  0  0  0  0  0999 V2000
   -5.9360   16.2830  -34.4930 C   0  0  0  0  0  0  0  0  0  0  0  0
   -5.3530   17.4670  -34.9490 C   0  0  0  0  0  0  0  0  0  0  0  0
   -5.6960   18.6890  -34.3650 C   0  0  0  0  0  0  0  0  0  0  0  0
   -6.6350   18.7440  -33.3170 C   0  0  0  0  0  0  0  0  0  0  0  0
   -6.9800   20.0140  -32.7230 N   0  0  0  0  0  0  0  0  0  0  0  0
   -6.1320   20.9710  -32.2920 C   0  0  0  0  0  0  0  0  0  0  0  0
   -6.8760   22.0220  -31.7850 C   0  0  0  0  0  0  0  0  0  0  0  0
   -6.3750   23.2900  -31.1950 C   0  0  0  0  0  0  0  0  0  0  0  0
   -7.2030   24.0900  -30.3880 C   0  0  0  0  0  0  0  0  0  0  0  0
   -6.7180   25.2790  -29.8400 C   0  0  0  0  0  0  0  0  0  0  0  0
   -5.4030   25.6660  -30.0990 C   0  0  0  0  0  0  0  0  0  0  0  0
   -4.6090   24.8880  -30.8790 N   0  0  0  0  0  0  0  0  0  0  0  0
   -5.0570   23.7250  -31.4260 C   0  0  0  0  0  0  0  0  0  0  0  0
   -8.1940   21.6230  -31.9410 C   0  0  0  0  0  0  0  0  0  0  0  0
   -8.2270   20.4040  -32.5080 N   0  0  0  0  0  0  0  0  0  0  0  0
   -7.2130   17.5400  -32.8620 C   0  0  0  0  0  0  0  0  0  0  0  0
   -6.8640   16.3200  -33.4500 C   0  0  0  0  0  0  0  0  0  0  0  0
   -5.6647   15.3222  -34.9548 H   0  0  0  0  0  0  0  0  0  0  0  0
   -4.6217   17.4376  -35.7702 H   0  0  0  0  0  0  0  0  0  0  0  0
   -5.2284   19.6165  -34.7271 H   0  0  0  0  0  0  0  0  0  0  0  0
   -5.0339   20.9237  -32.3362 H   0  0  0  0  0  0  0  0  0  0  0  0
   -8.2384   23.7774  -30.1873 H   0  0  0  0  0  0  0  0  0  0  0  0
   -7.3669   25.9049  -29.2098 H   0  0  0  0  0  0  0  0  0  0  0  0
   -5.0097   26.6003  -29.6719 H   0  0  0  0  0  0  0  0  0  0  0  0
   -4.3843   23.1212  -32.0528 H   0  0  0  0  0  0  0  0  0  0  0  0
   -9.0756   22.2115  -31.6469 H   0  0  0  0  0  0  0  0  0  0  0  0
   -7.9429   17.5610  -32.0394 H   0  0  0  0  0  0  0  0  0  0  0  0
   -7.3218   15.3868  -33.0899 H   0  0  0  0  0  0  0  0  0  0  0  0
  1  2  2  0
  2  3  1  0
  3  4  2  0
  4  5  1  0
  5  6  1  0
  6  7  2  0
  7  8  1  0
  8  9  2  0
  9 10  1  0
 10 11  2  0
 11 12  1  0
 12 13  2  0
  7 14  1  0
 14 15  2  0
  4 16  1  0
 16 17  2  0
 17  1  1  0
 15  5  1  0
 13  8  1  0
  1 18  1  0
  2 19  1  0
  3 20  1  0
  6 21  1  0
  9 22  1  0
 10 23  1  0
 11 24  1  0
 13 25  1  0
 14 26  1  0
 16 27  1  0
 17 28  1  0
M  END
>  <UniqueID>  (50) 
46

>  <SMILES>  (50) 
c1ccc(-n2cc(-c3cccnc3)cn2)cc1

>  <Energy>  (50) 
66.494870623094

>  <Genealogy>  (50) 
c1ccc(-n2cc(-c3cccnc3)cn2)cc1 (3D coordinates assigned)
c1ccc(-n2cc(-c3cccnc3)cn2)cc1 (optimized conformer: 66.494870623094 kcal/mol)

>  <smiles>  (50) 
c1ccc(-n2cc(-c3cccnc3)cn2)cc1

>  <score_type>  (50) 
oracle

>  <origin>  (50) 
adgpu

>  <m_score__min__energy>  (50) 
-7.29

>  <m_primary>  (50) 
energy

$$$$
