0:0
     RDKit          3D

 43 45  0  0  0  0  0  0  0  0999 V2000
   -0.1950   20.6950  -35.0240 C   0  0  0  0  0  0  0  0  0  0  0  0
   -0.0540   21.5600  -33.9020 O   0  0  0  0  0  0  0  0  0  0  0  0
   -0.8670   21.5100  -32.7590 C   0  0  0  0  0  0  0  0  0  0  0  0
   -2.2540   21.4500  -32.9300 C   0  0  0  0  0  0  0  0  0  0  0  0
   -3.1060   21.4170  -31.8210 C   0  0  0  0  0  0  0  0  0  0  0  0
   -2.5840   21.4530  -30.5210 C   0  0  0  0  0  0  0  0  0  0  0  0
   -3.4820   21.4610  -29.3960 N   0  0  0  0  0  0  0  0  0  0  0  0
   -3.9750   22.6890  -28.7720 C   0  0  0  0  0  0  0  0  0  0  0  0
   -4.3670   23.6990  -29.8100 C   0  0  0  0  0  0  0  0  0  0  0  0
   -3.4980   24.5200  -30.4290 N   0  0  0  0  0  0  0  0  0  0  0  0
   -4.2430   25.2840  -31.2170 N   0  0  0  0  0  0  0  0  0  0  0  0
   -5.5210   24.9610  -31.0860 N   0  0  0  0  0  0  0  0  0  0  0  0
   -5.6250   23.9860  -30.2020 N   0  0  0  0  0  0  0  0  0  0  0  0
   -6.8830   23.3390  -29.8300 C   0  0  0  0  0  0  0  0  0  0  0  0
   -7.2230   22.2580  -30.8220 C   0  0  0  0  0  0  0  0  0  0  0  0
   -8.5490   21.8240  -30.9540 C   0  0  0  0  0  0  0  0  0  0  0  0
   -8.8860   20.8660  -31.9140 C   0  0  0  0  0  0  0  0  0  0  0  0
   -7.9030   20.3460  -32.7600 C   0  0  0  0  0  0  0  0  0  0  0  0
   -6.5750   20.7740  -32.6520 C   0  0  0  0  0  0  0  0  0  0  0  0
   -5.6320   20.2520  -33.5500 O   0  0  0  0  0  0  0  0  0  0  0  0
   -5.7400   18.9770  -34.1760 C   0  0  0  0  0  0  0  0  0  0  0  0
   -6.2330   21.7190  -31.6630 C   0  0  0  0  0  0  0  0  0  0  0  0
   -1.1890   21.4840  -30.3490 C   0  0  0  0  0  0  0  0  0  0  0  0
   -0.3380   21.5180  -31.4560 C   0  0  0  0  0  0  0  0  0  0  0  0
   -0.3628   19.6656  -34.6745 H   0  0  0  0  0  0  0  0  0  0  0  0
   -1.0520   21.0201  -35.6322 H   0  0  0  0  0  0  0  0  0  0  0  0
    0.7209   20.7311  -35.6322 H   0  0  0  0  0  0  0  0  0  0  0  0
   -2.6782   21.4286  -33.9447 H   0  0  0  0  0  0  0  0  0  0  0  0
   -4.1944   21.3624  -31.9706 H   0  0  0  0  0  0  0  0  0  0  0  0
   -3.9560   20.5680  -29.1320 H   0  0  0  0  0  0  0  0  0  0  0  0
   -4.8522   22.4507  -28.1525 H   0  0  0  0  0  0  0  0  0  0  0  0
   -3.1712   23.1153  -28.1538 H   0  0  0  0  0  0  0  0  0  0  0  0
   -6.7814   22.8949  -28.8288 H   0  0  0  0  0  0  0  0  0  0  0  0
   -7.6866   24.0901  -29.8269 H   0  0  0  0  0  0  0  0  0  0  0  0
   -9.3286   22.2396  -30.2986 H   0  0  0  0  0  0  0  0  0  0  0  0
   -9.9266   20.5208  -32.0038 H   0  0  0  0  0  0  0  0  0  0  0  0
   -8.1749   19.5949  -33.5162 H   0  0  0  0  0  0  0  0  0  0  0  0
   -5.8063   18.1947  -33.4055 H   0  0  0  0  0  0  0  0  0  0  0  0
   -6.6435   18.9517  -34.8029 H   0  0  0  0  0  0  0  0  0  0  0  0
   -4.8536   18.8001  -34.8029 H   0  0  0  0  0  0  0  0  0  0  0  0
   -5.1860   22.0364  -31.5486 H   0  0  0  0  0  0  0  0  0  0  0  0
   -0.7643   21.4815  -29.3343 H   0  0  0  0  0  0  0  0  0  0  0  0
    0.7515   21.5512  -31.3079 H   0  0  0  0  0  0  0  0  0  0  0  0
  1  2  1  0
  2  3  1  0
  3  4  2  0
  4  5  1  0
  5  6  2  0
  6  7  1  0
  7  8  1  0
  8  9  1  0
  9 10  2  0
 10 11  1  0
 11 12  2  0
 12 13  1  0
 13 14  1  0
 14 15  1  0
 15 16  2  0
 16 17  1  0
 17 18  2  0
 18 19  1  0
 19 20  1  0
 20 21  1  0
 19 22  2  0
  6 23  1  0
 23 24  2  0
 24  3  1  0
 13  9  1  0
 22 15  1  0
  1 25  1  0
  1 26  1  0
  1 27  1  0
  4 28  1  0
  5 29  1  0
  7 30  1  0
  8 31  1  0
  8 32  1  0
 14 33  1  0
 14 34  1  0
 16 35  1  0
 17 36  1  0
 18 37  1  0
 21 38  1  0
 21 39  1  0
 21 40  1  0
 22 41  1  0
 23 42  1  0
 24 43  1  0
M  END
>  <UniqueID>  (1) 
1

>  <SMILES>  (1) 
COc1ccc(NCc2nnnn2Cc2cccc(OC)c2)cc1

>  <Energy>  (1) 
78.98533419937597

>  <Genealogy>  (1) 
COc1ccc(NCc2nnnn2Cc2cccc(OC)c2)cc1 (3D coordinates assigned)
COc1ccc(NCc2nnnn2Cc2cccc(OC)c2)cc1 (optimized conformer: 78.98533419937597 kcal/mol)

>  <smiles>  (1) 
COc1ccc(NCc2nnnn2Cc2cccc(OC)c2)cc1

>  <score_type>  (1) 
oracle

>  <origin>  (1) 
adgpu

>  <m_score__min__energy>  (1) 
-8.3900000000000006

>  <m_primary>  (1) 
energy

$$$$
1:0
     RDKit          3D

 72 76  0  0  0  0  0  0  0  0999 V2000
   -2.2990   25.4520  -28.5670 O   0  0  0  0  0  0  0  0  0  0  0  0
   -2.5470   24.5380  -29.4000 C   0  0  0  0  0  0  0  0  0  0  0  0
   -3.4850   24.7640  -30.4610 N   0  0  0  0  0  0  0  0  0  0  0  0
   -4.7320   24.0830  -30.6620 C   0  0  0  0  0  0  0  0  0  0  0  0
   -5.0440   23.6240  -31.9470 C   0  0  0  0  0  0  0  0  0  0  0  0
   -6.2510   22.9610  -32.1900 C   0  0  0  0  0  0  0  0  0  0  0  0
   -7.1490   22.7200  -31.1410 C   0  0  0  0  0  0  0  0  0  0  0  0
   -8.6700   21.8760  -31.4430 S   0  0  0  0  0  0  0  0  0  0  0  0
   -9.5580   22.7430  -32.2910 O   0  0  0  0  0  0  0  0  0  0  0  0
   -9.3710   21.6320  -30.1350 O   0  0  0  0  0  0  0  0  0  0  0  0
   -8.4100   20.3480  -32.2540 N   0  0  0  0  0  0  0  0  0  0  0  0
   -8.9600   19.2380  -31.4450 C   0  0  0  0  0  0  0  0  0  0  0  0
   -8.4670   17.8820  -31.9610 C   0  0  0  0  0  0  0  0  0  0  0  0
   -6.9320   17.7720  -31.8900 C   0  0  0  0  0  0  0  0  0  0  0  0
   -6.2400   19.1450  -31.8160 C   0  0  0  0  0  0  0  0  0  0  0  0
   -6.9930   20.1770  -32.6660 C   0  0  0  0  0  0  0  0  0  0  0  0
   -6.8270   23.1520  -29.8470 C   0  0  0  0  0  0  0  0  0  0  0  0
   -5.6230   23.8270  -29.6060 C   0  0  0  0  0  0  0  0  0  0  0  0
   -1.8130   23.2520  -29.3260 C   0  0  0  0  0  0  0  0  0  0  0  0
   -1.4500   22.7090  -28.0820 C   0  0  0  0  0  0  0  0  0  0  0  0
   -0.7830   21.4870  -28.0140 C   0  0  0  0  0  0  0  0  0  0  0  0
   -0.4630   20.7820  -29.1810 C   0  0  0  0  0  0  0  0  0  0  0  0
    0.2150   19.5220  -29.0650 N   0  0  0  0  0  0  0  0  0  0  0  0
    1.6610   19.4220  -29.2680 C   0  0  0  0  0  0  0  0  0  0  0  0
    2.2920   18.7220  -28.0600 C   0  0  0  0  0  0  0  0  0  0  0  0
    1.6400   17.4910  -27.7920 O   0  0  0  0  0  0  0  0  0  0  0  0
    0.2960   17.7300  -27.4140 C   0  0  0  0  0  0  0  0  0  0  0  0
   -0.4940   18.3390  -28.5770 C   0  0  0  0  0  0  0  0  0  0  0  0
   -0.8180   21.3140  -30.4380 C   0  0  0  0  0  0  0  0  0  0  0  0
   -0.4520   20.4510  -31.9400 S   0  0  0  0  0  0  0  0  0  0  0  0
    1.0000   20.6600  -32.2730 O   0  0  0  0  0  0  0  0  0  0  0  0
   -0.6880   18.9790  -31.7520 O   0  0  0  0  0  0  0  0  0  0  0  0
   -1.4590   21.0680  -33.2320 N   0  0  0  0  0  0  0  0  0  0  0  0
   -2.8930   21.0780  -32.8690 C   0  0  0  0  0  0  0  0  0  0  0  0
   -3.6710   19.9060  -33.4920 C   0  0  0  0  0  0  0  0  0  0  0  0
   -2.8490   18.7630  -33.5650 O   0  0  0  0  0  0  0  0  0  0  0  0
   -1.8290   18.9540  -34.5300 C   0  0  0  0  0  0  0  0  0  0  0  0
   -1.1990   20.3680  -34.5020 C   0  0  0  0  0  0  0  0  0  0  0  0
   -1.4850   22.5480  -30.4990 C   0  0  0  0  0  0  0  0  0  0  0  0
   -4.3345   23.7860  -32.7718 H   0  0  0  0  0  0  0  0  0  0  0  0
   -6.4969   22.6271  -33.2089 H   0  0  0  0  0  0  0  0  0  0  0  0
   -8.6403   19.3625  -30.3999 H   0  0  0  0  0  0  0  0  0  0  0  0
  -10.0572   19.2620  -31.5192 H   0  0  0  0  0  0  0  0  0  0  0  0
   -8.9108   17.0839  -31.3477 H   0  0  0  0  0  0  0  0  0  0  0  0
   -8.7706   17.7835  -33.0137 H   0  0  0  0  0  0  0  0  0  0  0  0
   -6.6619   17.1932  -30.9944 H   0  0  0  0  0  0  0  0  0  0  0  0
   -6.5916   17.2781  -32.8121 H   0  0  0  0  0  0  0  0  0  0  0  0
   -6.2205   19.4838  -30.7697 H   0  0  0  0  0  0  0  0  0  0  0  0
   -5.2154   19.0466  -32.2038 H   0  0  0  0  0  0  0  0  0  0  0  0
   -6.4820   21.1467  -32.5736 H   0  0  0  0  0  0  0  0  0  0  0  0
   -6.9946   19.8098  -33.7029 H   0  0  0  0  0  0  0  0  0  0  0  0
   -7.5227   22.9602  -29.0168 H   0  0  0  0  0  0  0  0  0  0  0  0
   -5.3745   24.1576  -28.5867 H   0  0  0  0  0  0  0  0  0  0  0  0
   -1.6936   23.2513  -27.1565 H   0  0  0  0  0  0  0  0  0  0  0  0
   -0.5052   21.0722  -27.0338 H   0  0  0  0  0  0  0  0  0  0  0  0
    1.8653   18.8399  -30.1787 H   0  0  0  0  0  0  0  0  0  0  0  0
    2.0895   20.4293  -29.3769 H   0  0  0  0  0  0  0  0  0  0  0  0
    3.3544   18.5289  -28.2698 H   0  0  0  0  0  0  0  0  0  0  0  0
    2.1870   19.3745  -27.1807 H   0  0  0  0  0  0  0  0  0  0  0  0
   -0.1709   16.7785  -27.1195 H   0  0  0  0  0  0  0  0  0  0  0  0
    0.2862   18.4371  -26.5714 H   0  0  0  0  0  0  0  0  0  0  0  0
   -0.5837   17.6017  -29.3884 H   0  0  0  0  0  0  0  0  0  0  0  0
   -1.5003   18.6228  -28.2351 H   0  0  0  0  0  0  0  0  0  0  0  0
   -2.9794   21.0154  -31.7742 H   0  0  0  0  0  0  0  0  0  0  0  0
   -3.3280   22.0102  -33.2586 H   0  0  0  0  0  0  0  0  0  0  0  0
   -4.5508   19.6823  -32.8708 H   0  0  0  0  0  0  0  0  0  0  0  0
   -3.9905   20.1850  -34.5069 H   0  0  0  0  0  0  0  0  0  0  0  0
   -1.0341   18.2165  -34.3450 H   0  0  0  0  0  0  0  0  0  0  0  0
   -2.2960   18.8309  -35.5183 H   0  0  0  0  0  0  0  0  0  0  0  0
   -0.1116   20.2741  -34.6386 H   0  0  0  0  0  0  0  0  0  0  0  0
   -1.6548   20.9569  -35.3116 H   0  0  0  0  0  0  0  0  0  0  0  0
   -1.7550   22.9704  -31.4781 H   0  0  0  0  0  0  0  0  0  0  0  0
  1  2  2  0
  2  3  1  0
  3  4  1  0
  4  5  2  0
  5  6  1  0
  6  7  2  0
  7  8  1  0
  8  9  2  0
  8 10  2  0
  8 11  1  0
 11 12  1  0
 12 13  1  0
 13 14  1  0
 14 15  1  0
 15 16  1  0
  7 17  1  0
 17 18  2  0
  2 19  1  0
 19 20  2  0
 20 21  1  0
 21 22  2  0
 22 23  1  0
 23 24  1  0
 24 25  1  0
 25 26  1  0
 26 27  1  0
 27 28  1  0
 22 29  1  0
 29 30  1  0
 30 31  2  0
 30 32  2  0
 30 33  1  0
 33 34  1  0
 34 35  1  0
 35 36  1  0
 36 37  1  0
 37 38  1  0
 29 39  2  0
 18  4  1  0
 39 19  1  0
 16 11  1  0
 28 23  1  0
 38 33  1  0
  5 40  1  0
  6 41  1  0
 12 42  1  0
 12 43  1  0
 13 44  1  0
 13 45  1  0
 14 46  1  0
 14 47  1  0
 15 48  1  0
 15 49  1  0
 16 50  1  0
 16 51  1  0
 17 52  1  0
 18 53  1  0
 20 54  1  0
 21 55  1  0
 24 56  1  0
 24 57  1  0
 25 58  1  0
 25 59  1  0
 27 60  1  0
 27 61  1  0
 28 62  1  0
 28 63  1  0
 34 64  1  0
 34 65  1  0
 35 66  1  0
 35 67  1  0
 37 68  1  0
 37 69  1  0
 38 70  1  0
 38 71  1  0
 39 72  1  0
M  CHG  1   3  -1
M  END
>  <UniqueID>  (2) 
2

>  <SMILES>  (2) 
O=C([N-]c1ccc(S(=O)(=O)N2CCCCC2)cc1)c1ccc(N2CCOCC2)c(S(=O)(=O)N2CCOCC2)c1

>  <Energy>  (2) 
102.16954539082182

>  <Genealogy>  (2) 
O=C([N-]c1ccc(S(=O)(=O)N2CCCCC2)cc1)c1ccc(N2CCOCC2)c(S(=O)(=O)N2CCOCC2)c1 (protonated)
O=C([N-]c1ccc(S(=O)(=O)N2CCCCC2)cc1)c1ccc(N2CCOCC2)c(S(=O)(=O)N2CCOCC2)c1 (3D coordinates assigned)
O=C([N-]c1ccc(S(=O)(=O)N2CCCCC2)cc1)c1ccc(N2CCOCC2)c(S(=O)(=O)N2CCOCC2)c1 (nonaromatic ring conformer: 102.16954539082182 kcal/mol)

>  <smiles>  (2) 
O=C(Nc1ccc(S(=O)(=O)N2CCCCC2)cc1)c1ccc(N2CCOCC2)c(S(=O)(=O)N2CCOCC2)c1

>  <score_type>  (2) 
oracle

>  <origin>  (2) 
adgpu

>  <m_score__min__energy>  (2) 
-12.44

>  <m_primary>  (2) 
energy

$$$$
2:0
     RDKit          3D

 59 63  0  0  0  0  0  0  0  0999 V2000
   -3.8610   25.1880  -30.7130 O   0  0  0  0  0  0  0  0  0  0  0  0
   -4.0610   23.9800  -30.4130 C   0  0  0  0  0  0  0  0  0  0  0  0
   -3.0390   23.2250  -29.7400 N   0  0  0  0  0  0  0  0  0  0  0  0
   -1.9440   23.8260  -29.0290 C   0  0  0  0  0  0  0  0  0  0  0  0
   -2.0390   25.1250  -28.4970 C   0  0  0  0  0  0  0  0  0  0  0  0
   -0.9700   25.6790  -27.7880 C   0  0  0  0  0  0  0  0  0  0  0  0
    0.2000   24.9360  -27.5780 C   0  0  0  0  0  0  0  0  0  0  0  0
    1.5440   25.6330  -26.6720 S   0  0  0  0  0  0  0  0  0  0  0  0
    1.7200   27.0670  -27.0850 O   0  0  0  0  0  0  0  0  0  0  0  0
    2.8080   24.8950  -27.0200 O   0  0  0  0  0  0  0  0  0  0  0  0
    1.2950   25.5500  -24.9420 N   0  0  0  0  0  0  0  0  0  0  0  0
    1.3320   26.8810  -24.2910 C   0  0  0  0  0  0  0  0  0  0  0  0
    0.1680   27.1240  -23.3220 C   0  0  0  0  0  0  0  0  0  0  0  0
   -1.1520   26.8170  -24.0190 C   0  0  0  0  0  0  0  0  0  0  0  0
   -1.2030   25.3730  -24.5430 C   0  0  0  0  0  0  0  0  0  0  0  0
    0.1700   24.6660  -24.5670 C   0  0  0  0  0  0  0  0  0  0  0  0
    0.2930   23.6370  -28.0990 C   0  0  0  0  0  0  0  0  0  0  0  0
   -0.7760   23.0830  -28.8080 C   0  0  0  0  0  0  0  0  0  0  0  0
   -5.3470   23.3450  -30.7760 C   0  0  0  0  0  0  0  0  0  0  0  0
   -6.5460   23.9550  -30.3790 C   0  0  0  0  0  0  0  0  0  0  0  0
   -7.7390   23.3770  -30.6580 N   0  0  0  0  0  0  0  0  0  0  0  0
   -7.8320   22.2050  -31.3350 C   0  0  0  0  0  0  0  0  0  0  0  0
   -9.0940   21.6620  -31.6030 C   0  0  0  0  0  0  0  0  0  0  0  0
   -9.2080   20.4680  -32.3170 C   0  0  0  0  0  0  0  0  0  0  0  0
   -8.0640   19.8120  -32.7710 C   0  0  0  0  0  0  0  0  0  0  0  0
   -6.7960   20.3420  -32.5100 C   0  0  0  0  0  0  0  0  0  0  0  0
   -6.6600   21.5420  -31.7760 C   0  0  0  0  0  0  0  0  0  0  0  0
   -5.3990   22.1190  -31.4850 C   0  0  0  0  0  0  0  0  0  0  0  0
   -4.1410   21.4810  -31.9470 C   0  0  0  0  0  0  0  0  0  0  0  0
   -3.6020   21.8020  -33.2030 C   0  0  0  0  0  0  0  0  0  0  0  0
   -2.4360   21.1730  -33.6500 C   0  0  0  0  0  0  0  0  0  0  0  0
   -1.8070   20.2140  -32.8490 C   0  0  0  0  0  0  0  0  0  0  0  0
   -2.3420   19.8860  -31.6000 C   0  0  0  0  0  0  0  0  0  0  0  0
   -3.5060   20.5160  -31.1490 C   0  0  0  0  0  0  0  0  0  0  0  0
   -3.0790   22.1820  -29.7840 H   0  0  0  0  0  0  0  0  0  0  0  0
   -2.9607   25.7082  -28.6401 H   0  0  0  0  0  0  0  0  0  0  0  0
   -1.0469   26.7027  -27.3929 H   0  0  0  0  0  0  0  0  0  0  0  0
    2.2746   26.9679  -23.7307 H   0  0  0  0  0  0  0  0  0  0  0  0
    1.2488   27.6328  -25.0897 H   0  0  0  0  0  0  0  0  0  0  0  0
    0.2794   26.4695  -22.4449 H   0  0  0  0  0  0  0  0  0  0  0  0
    0.1746   28.1760  -23.0006 H   0  0  0  0  0  0  0  0  0  0  0  0
   -1.9744   26.9646  -23.3035 H   0  0  0  0  0  0  0  0  0  0  0  0
   -1.2479   27.4949  -24.8799 H   0  0  0  0  0  0  0  0  0  0  0  0
   -1.8792   24.7940  -23.8969 H   0  0  0  0  0  0  0  0  0  0  0  0
   -1.5537   25.4239  -25.5844 H   0  0  0  0  0  0  0  0  0  0  0  0
    0.3680   24.2607  -23.5637 H   0  0  0  0  0  0  0  0  0  0  0  0
    0.1110   23.8820  -25.3363 H   0  0  0  0  0  0  0  0  0  0  0  0
    1.2120   23.0515  -27.9487 H   0  0  0  0  0  0  0  0  0  0  0  0
   -0.7005   22.0563  -29.1956 H   0  0  0  0  0  0  0  0  0  0  0  0
   -6.5174   24.9113  -29.8362 H   0  0  0  0  0  0  0  0  0  0  0  0
   -9.9990   22.1780  -31.2497 H   0  0  0  0  0  0  0  0  0  0  0  0
  -10.2020   20.0437  -32.5220 H   0  0  0  0  0  0  0  0  0  0  0  0
   -8.1593   18.8736  -33.3369 H   0  0  0  0  0  0  0  0  0  0  0  0
   -5.8995   19.8217  -32.8782 H   0  0  0  0  0  0  0  0  0  0  0  0
   -4.0986   22.5508  -33.8375 H   0  0  0  0  0  0  0  0  0  0  0  0
   -2.0132   21.4323  -34.6318 H   0  0  0  0  0  0  0  0  0  0  0  0
   -0.8910   19.7178  -33.2022 H   0  0  0  0  0  0  0  0  0  0  0  0
   -1.8468   19.1314  -30.9712 H   0  0  0  0  0  0  0  0  0  0  0  0
   -3.9254   20.2548  -30.1662 H   0  0  0  0  0  0  0  0  0  0  0  0
  1  2  2  0
  2  3  1  0
  3  4  1  0
  4  5  2  0
  5  6  1  0
  6  7  2  0
  7  8  1  0
  8  9  2  0
  8 10  2  0
  8 11  1  0
 11 12  1  0
 12 13  1  0
 13 14  1  0
 14 15  1  0
 15 16  1  0
  7 17  1  0
 17 18  2  0
  2 19  1  0
 19 20  2  0
 20 21  1  0
 21 22  2  0
 22 23  1  0
 23 24  2  0
 24 25  1  0
 25 26  2  0
 26 27  1  0
 27 28  2  0
 28 29  1  0
 29 30  2  0
 30 31  1  0
 31 32  2  0
 32 33  1  0
 33 34  2  0
 18  4  1  0
 28 19  1  0
 34 29  1  0
 16 11  1  0
 27 22  1  0
  3 35  1  0
  5 36  1  0
  6 37  1  0
 12 38  1  0
 12 39  1  0
 13 40  1  0
 13 41  1  0
 14 42  1  0
 14 43  1  0
 15 44  1  0
 15 45  1  0
 16 46  1  0
 16 47  1  0
 17 48  1  0
 18 49  1  0
 20 50  1  0
 23 51  1  0
 24 52  1  0
 25 53  1  0
 26 54  1  0
 30 55  1  0
 31 56  1  0
 32 57  1  0
 33 58  1  0
 34 59  1  0
M  END
>  <UniqueID>  (3) 
3

>  <SMILES>  (3) 
O=C(Nc1ccc(S(=O)(=O)N2CCCCC2)cc1)c1cnc2ccccc2c1-c1ccccc1

>  <Energy>  (3) 
92.61102794921959

>  <Genealogy>  (3) 
O=C(Nc1ccc(S(=O)(=O)N2CCCCC2)cc1)c1cnc2ccccc2c1-c1ccccc1 (3D coordinates assigned)
O=C(Nc1ccc(S(=O)(=O)N2CCCCC2)cc1)c1cnc2ccccc2c1-c1ccccc1 (nonaromatic ring conformer: 92.61102794921959 kcal/mol)

>  <smiles>  (3) 
O=C(Nc1ccc(S(=O)(=O)N2CCCCC2)cc1)c1cnc2ccccc2c1-c1ccccc1

>  <score_type>  (3) 
oracle

>  <origin>  (3) 
adgpu

>  <m_score__min__energy>  (3) 
-10.960000000000001

>  <m_primary>  (3) 
energy

$$$$
3:0
     RDKit          3D

 49 51  0  0  0  0  0  0  0  0999 V2000
   -6.5190   17.9240  -31.2040 C   0  0  0  0  0  0  0  0  0  0  0  0
   -6.2660   18.2550  -32.6120 N   0  0  0  0  0  0  0  0  0  0  0  0
   -6.6260   17.1210  -33.4710 C   0  0  0  0  0  0  0  0  0  0  0  0
   -7.1940   19.6620  -33.0650 S   0  0  0  0  0  0  0  0  0  0  0  0
   -8.6600   19.3310  -33.0160 O   0  0  0  0  0  0  0  0  0  0  0  0
   -6.8540   20.0520  -34.4770 O   0  0  0  0  0  0  0  0  0  0  0  0
   -6.8720   21.0270  -31.9930 C   0  0  0  0  0  0  0  0  0  0  0  0
   -7.8010   21.3830  -31.0060 C   0  0  0  0  0  0  0  0  0  0  0  0
   -7.5430   22.4610  -30.1550 C   0  0  0  0  0  0  0  0  0  0  0  0
   -6.3620   23.1970  -30.2920 C   0  0  0  0  0  0  0  0  0  0  0  0
   -5.4350   22.8640  -31.2950 C   0  0  0  0  0  0  0  0  0  0  0  0
   -4.2010   23.5790  -31.4620 N   0  0  0  0  0  0  0  0  0  0  0  0
   -3.5430   24.3990  -30.4870 C   0  0  0  0  0  0  0  0  0  0  0  0
   -3.9310   25.5760  -30.2720 O   0  0  0  0  0  0  0  0  0  0  0  0
   -2.4360   23.8880  -29.7370 N   0  0  0  0  0  0  0  0  0  0  0  0
   -2.3740   22.6170  -29.0710 C   0  0  0  0  0  0  0  0  0  0  0  0
   -3.1740   22.3400  -27.9460 C   0  0  0  0  0  0  0  0  0  0  0  0
   -3.1100   21.0900  -27.3250 C   0  0  0  0  0  0  0  0  0  0  0  0
   -2.2620   20.1010  -27.8260 C   0  0  0  0  0  0  0  0  0  0  0  0
   -1.4840   20.3560  -28.9570 C   0  0  0  0  0  0  0  0  0  0  0  0
   -1.5470   21.6040  -29.5910 C   0  0  0  0  0  0  0  0  0  0  0  0
   -0.5400   21.8920  -31.0520 S   0  0  0  0  0  0  0  0  0  0  0  0
   -1.6190   20.9220  -32.1080 C   0  0  0  0  0  0  0  0  0  0  0  0
   -2.4710   21.5600  -33.0170 C   0  0  0  0  0  0  0  0  0  0  0  0
   -3.3140   20.8040  -33.8370 C   0  0  0  0  0  0  0  0  0  0  0  0
   -3.3060   19.4060  -33.7550 C   0  0  0  0  0  0  0  0  0  0  0  0
   -4.1510   18.6640  -34.5770 O   0  0  0  0  0  0  0  0  0  0  0  0
   -2.4470   18.7680  -32.8500 C   0  0  0  0  0  0  0  0  0  0  0  0
   -1.6030   19.5250  -32.0300 C   0  0  0  0  0  0  0  0  0  0  0  0
   -5.6870   21.7650  -32.1260 C   0  0  0  0  0  0  0  0  0  0  0  0
   -5.9783   18.6314  -30.5581 H   0  0  0  0  0  0  0  0  0  0  0  0
   -7.5977   17.9917  -30.9995 H   0  0  0  0  0  0  0  0  0  0  0  0
   -6.1706   16.9009  -30.9995 H   0  0  0  0  0  0  0  0  0  0  0  0
   -6.8996   16.2590  -32.8448 H   0  0  0  0  0  0  0  0  0  0  0  0
   -7.4802   17.3987  -34.1061 H   0  0  0  0  0  0  0  0  0  0  0  0
   -5.7681   16.8552  -34.1061 H   0  0  0  0  0  0  0  0  0  0  0  0
   -8.7356   20.8125  -30.9009 H   0  0  0  0  0  0  0  0  0  0  0  0
   -8.2707   22.7312  -29.3756 H   0  0  0  0  0  0  0  0  0  0  0  0
   -6.1579   24.0384  -29.6135 H   0  0  0  0  0  0  0  0  0  0  0  0
   -3.8529   23.1116  -27.5540 H   0  0  0  0  0  0  0  0  0  0  0  0
   -3.7293   20.8849  -26.4393 H   0  0  0  0  0  0  0  0  0  0  0  0
   -2.2066   19.1208  -27.3299 H   0  0  0  0  0  0  0  0  0  0  0  0
   -0.8189   19.5740  -29.3520 H   0  0  0  0  0  0  0  0  0  0  0  0
   -2.4773   22.6578  -33.0863 H   0  0  0  0  0  0  0  0  0  0  0  0
   -3.9849   21.3083  -34.5480 H   0  0  0  0  0  0  0  0  0  0  0  0
   -5.1580   18.6790  -34.4530 H   0  0  0  0  0  0  0  0  0  0  0  0
   -2.4362   17.6700  -32.7842 H   0  0  0  0  0  0  0  0  0  0  0  0
   -0.9265   19.0216  -31.3236 H   0  0  0  0  0  0  0  0  0  0  0  0
   -4.9490   21.4783  -32.8896 H   0  0  0  0  0  0  0  0  0  0  0  0
  1  2  1  0
  2  3  1  0
  2  4  1  0
  4  5  2  0
  4  6  2  0
  4  7  1  0
  7  8  2  0
  8  9  1  0
  9 10  2  0
 10 11  1  0
 11 12  1  0
 12 13  1  0
 13 14  2  0
 13 15  1  0
 15 16  1  0
 16 17  2  0
 17 18  1  0
 18 19  2  0
 19 20  1  0
 20 21  2  0
 21 22  1  0
 22 23  1  0
 23 24  2  0
 24 25  1  0
 25 26  2  0
 26 27  1  0
 26 28  1  0
 28 29  2  0
 11 30  2  0
 30  7  1  0
 21 16  1  0
 29 23  1  0
  1 31  1  0
  1 32  1  0
  1 33  1  0
  3 34  1  0
  3 35  1  0
  3 36  1  0
  8 37  1  0
  9 38  1  0
 10 39  1  0
 17 40  1  0
 18 41  1  0
 19 42  1  0
 20 43  1  0
 24 44  1  0
 25 45  1  0
 27 46  1  0
 28 47  1  0
 29 48  1  0
 30 49  1  0
M  CHG  2  12  -1  15  -1
M  END
>  <UniqueID>  (4) 
4

>  <SMILES>  (4) 
CN(C)S(=O)(=O)c1cccc([N-]C(=O)[N-]c2ccccc2Sc2ccc(O)cc2)c1

>  <Energy>  (4) 
51.158010088962314

>  <Genealogy>  (4) 
CN(C)S(=O)(=O)c1cccc([N-]C(=O)[N-]c2ccccc2Sc2ccc(O)cc2)c1 (protonated)
CN(C)S(=O)(=O)c1cccc([N-]C(=O)[N-]c2ccccc2Sc2ccc(O)cc2)c1 (3D coordinates assigned)
CN(C)S(=O)(=O)c1cccc([N-]C(=O)[N-]c2ccccc2Sc2ccc(O)cc2)c1 (optimized conformer: 51.158010088962314 kcal/mol)

>  <smiles>  (4) 
CN(C)S(=O)(=O)c1cccc(NC(=O)Nc2ccccc2Sc2ccc(O)cc2)c1

>  <score_type>  (4) 
oracle

>  <origin>  (4) 
adgpu

>  <m_score__min__energy>  (4) 
-12.199999999999999

>  <m_primary>  (4) 
energy

$$$$
4:0
     RDKit          3D

 53 56  0  0  0  0  0  0  0  0999 V2000
   -9.0290   19.0320  -32.0020 C   0  0  0  0  0  0  0  0  0  0  0  0
   -8.8110   20.3710  -32.4380 O   0  0  0  0  0  0  0  0  0  0  0  0
   -7.8920   21.2640  -31.8580 C   0  0  0  0  0  0  0  0  0  0  0  0
   -8.2770   22.1470  -30.8390 C   0  0  0  0  0  0  0  0  0  0  0  0
   -7.3570   23.0160  -30.2690 C   0  0  0  0  0  0  0  0  0  0  0  0
   -6.0280   23.0460  -30.7080 C   0  0  0  0  0  0  0  0  0  0  0  0
   -4.9010   24.1360  -29.8770 S   0  0  0  0  0  0  0  0  0  0  0  0
   -5.6720   24.9990  -28.9180 O   0  0  0  0  0  0  0  0  0  0  0  0
   -4.1850   25.0130  -30.8670 O   0  0  0  0  0  0  0  0  0  0  0  0
   -3.7110   23.2250  -29.0030 N   0  0  0  0  0  0  0  0  0  0  0  0
   -3.3890   21.9300  -29.2160 C   0  0  0  0  0  0  0  0  0  0  0  0
   -2.3860   21.5440  -28.3320 C   0  0  0  0  0  0  0  0  0  0  0  0
   -1.7760   20.2420  -28.2700 N   0  0  0  0  0  0  0  0  0  0  0  0
   -0.5930   19.9650  -29.0900 C   0  0  0  0  0  0  0  0  0  0  0  0
   -0.1570   18.5050  -28.9370 C   0  0  0  0  0  0  0  0  0  0  0  0
   -0.0200   18.1490  -27.5180 N   0  0  0  0  0  0  0  0  0  0  0  0
   -1.2330   18.4070  -26.7080 C   0  0  0  0  0  0  0  0  0  0  0  0
   -2.3470   19.1760  -27.4420 C   0  0  0  0  0  0  0  0  0  0  0  0
   -2.1070   22.6520  -27.5470 C   0  0  0  0  0  0  0  0  0  0  0  0
   -1.2390   22.8400  -26.4690 C   0  0  0  0  0  0  0  0  0  0  0  0
   -1.2040   24.1090  -25.8630 C   0  0  0  0  0  0  0  0  0  0  0  0
   -0.1260   24.4000  -24.5090 Cl  0  0  0  0  0  0  0  0  0  0  0  0
   -2.0360   25.1490  -26.3330 C   0  0  0  0  0  0  0  0  0  0  0  0
   -2.9170   24.9270  -27.4040 C   0  0  0  0  0  0  0  0  0  0  0  0
   -2.9350   23.6580  -27.9880 C   0  0  0  0  0  0  0  0  0  0  0  0
   -5.6310   22.2160  -31.7880 C   0  0  0  0  0  0  0  0  0  0  0  0
   -4.2250   22.3030  -32.3440 C   0  0  0  0  0  0  0  0  0  0  0  0
   -6.5550   21.2700  -32.3160 C   0  0  0  0  0  0  0  0  0  0  0  0
   -6.1400   20.2950  -33.3950 C   0  0  0  0  0  0  0  0  0  0  0  0
   -9.0341   19.0007  -30.9025 H   0  0  0  0  0  0  0  0  0  0  0  0
   -9.9971   18.6752  -32.3835 H   0  0  0  0  0  0  0  0  0  0  0  0
   -8.2241   18.3865  -32.3835 H   0  0  0  0  0  0  0  0  0  0  0  0
   -9.3194   22.1510  -30.4876 H   0  0  0  0  0  0  0  0  0  0  0  0
   -7.6766   23.6906  -29.4610 H   0  0  0  0  0  0  0  0  0  0  0  0
   -3.8501   21.2793  -29.9737 H   0  0  0  0  0  0  0  0  0  0  0  0
   -0.8315   20.1617  -30.1457 H   0  0  0  0  0  0  0  0  0  0  0  0
    0.2285   20.6159  -28.7561 H   0  0  0  0  0  0  0  0  0  0  0  0
   -0.9110   17.8526  -29.4016 H   0  0  0  0  0  0  0  0  0  0  0  0
    0.8176   18.3738  -29.4298 H   0  0  0  0  0  0  0  0  0  0  0  0
    0.7760   18.7010  -27.1210 H   0  0  0  0  0  0  0  0  0  0  0  0
   -1.6415   17.4381  -26.3850 H   0  0  0  0  0  0  0  0  0  0  0  0
   -0.9162   19.0451  -25.8698 H   0  0  0  0  0  0  0  0  0  0  0  0
   -2.9054   18.4789  -28.0841 H   0  0  0  0  0  0  0  0  0  0  0  0
   -3.0188   19.6263  -26.6964 H   0  0  0  0  0  0  0  0  0  0  0  0
   -0.6020   22.0205  -26.1049 H   0  0  0  0  0  0  0  0  0  0  0  0
   -1.9937   26.1397  -25.8569 H   0  0  0  0  0  0  0  0  0  0  0  0
   -3.5737   25.7289  -27.7723 H   0  0  0  0  0  0  0  0  0  0  0  0
   -3.5046   22.3476  -31.5139 H   0  0  0  0  0  0  0  0  0  0  0  0
   -4.0191   21.4159  -32.9610 H   0  0  0  0  0  0  0  0  0  0  0  0
   -4.1301   23.2087  -32.9610 H   0  0  0  0  0  0  0  0  0  0  0  0
   -5.7496   19.3778  -32.9299 H   0  0  0  0  0  0  0  0  0  0  0  0
   -7.0107   20.0473  -34.0199 H   0  0  0  0  0  0  0  0  0  0  0  0
   -5.3579   20.7508  -34.0199 H   0  0  0  0  0  0  0  0  0  0  0  0
  1  2  1  0
  2  3  1  0
  3  4  2  0
  4  5  1  0
  5  6  2  0
  6  7  1  0
  7  8  2  0
  7  9  2  0
  7 10  1  0
 10 11  1  0
 11 12  2  0
 12 13  1  0
 13 14  1  0
 14 15  1  0
 15 16  1  0
 16 17  1  0
 17 18  1  0
 12 19  1  0
 19 20  2  0
 20 21  1  0
 21 22  1  0
 21 23  2  0
 23 24  1  0
 24 25  2  0
  6 26  1  0
 26 27  1  0
 26 28  2  0
 28 29  1  0
 28  3  1  0
 25 10  1  0
 18 13  1  0
 25 19  1  0
  1 30  1  0
  1 31  1  0
  1 32  1  0
  4 33  1  0
  5 34  1  0
 11 35  1  0
 14 36  1  0
 14 37  1  0
 15 38  1  0
 15 39  1  0
 16 40  1  0
 17 41  1  0
 17 42  1  0
 18 43  1  0
 18 44  1  0
 20 45  1  0
 23 46  1  0
 24 47  1  0
 27 48  1  0
 27 49  1  0
 27 50  1  0
 29 51  1  0
 29 52  1  0
 29 53  1  0
M  END
>  <UniqueID>  (5) 
5

>  <SMILES>  (5) 
COc1ccc(S(=O)(=O)n2cc(N3CCNCC3)c3cc(Cl)ccc32)c(C)c1C

>  <Energy>  (5) 
104.15187147547947

>  <Genealogy>  (5) 
COc1ccc(S(=O)(=O)n2cc(N3CCNCC3)c3cc(Cl)ccc32)c(C)c1C (3D coordinates assigned)
COc1ccc(S(=O)(=O)n2cc(N3CCNCC3)c3cc(Cl)ccc32)c(C)c1C (nonaromatic ring conformer: 104.15187147547947 kcal/mol)

>  <smiles>  (5) 
COc1ccc(S(=O)(=O)n2cc(N3CCNCC3)c3cc(Cl)ccc32)c(C)c1C

>  <score_type>  (5) 
oracle

>  <origin>  (5) 
adgpu

>  <m_score__min__energy>  (5) 
-9.3499999999999996

>  <m_primary>  (5) 
energy

$$$$
5:0
     RDKit          3D

 46 48  0  0  0  0  0  0  0  0999 V2000
   -8.1140   19.3310  -31.6300 C   0  0  0  0  0  0  0  0  0  0  0  0
   -6.9750   18.4890  -32.2090 C   0  0  0  0  0  0  0  0  0  0  0  0
   -6.2280   17.7480  -31.0980 C   0  0  0  0  0  0  0  0  0  0  0  0
   -5.8440   19.5160  -33.1520 S   0  0  0  0  0  0  0  0  0  0  0  0
   -4.5640   18.7610  -33.3790 O   0  0  0  0  0  0  0  0  0  0  0  0
   -6.4450   19.8340  -34.4920 O   0  0  0  0  0  0  0  0  0  0  0  0
   -5.4940   21.0160  -32.2960 C   0  0  0  0  0  0  0  0  0  0  0  0
   -6.5070   21.9610  -32.0860 C   0  0  0  0  0  0  0  0  0  0  0  0
   -6.2340   23.1410  -31.3880 C   0  0  0  0  0  0  0  0  0  0  0  0
   -4.9430   23.3910  -30.8890 C   0  0  0  0  0  0  0  0  0  0  0  0
   -4.6380   24.6780  -30.1570 C   0  0  2  0  0  0  0  0  0  0  0  0
   -4.0640   25.6130  -31.0350 O   0  0  0  0  0  0  0  0  0  0  0  0
   -3.7100   24.3970  -29.0090 C   0  0  0  0  0  0  0  0  0  0  0  0
   -2.3680   24.5080  -29.1120 N   0  0  0  0  0  0  0  0  0  0  0  0
   -1.9130   24.2000  -27.8790 C   0  0  0  0  0  0  0  0  0  0  0  0
   -0.4770   24.2020  -27.5100 C   0  0  0  0  0  0  0  0  0  0  0  0
    0.2490   22.9970  -27.5160 C   0  0  0  0  0  0  0  0  0  0  0  0
    1.6030   22.9820  -27.1670 C   0  0  0  0  0  0  0  0  0  0  0  0
    2.2480   24.1680  -26.8020 C   0  0  0  0  0  0  0  0  0  0  0  0
    3.6390   24.1470  -26.4280 C   0  0  0  0  0  0  0  0  0  0  0  0
    4.7570   24.1260  -26.1250 N   0  0  0  0  0  0  0  0  0  0  0  0
    1.5350   25.3720  -26.7880 C   0  0  0  0  0  0  0  0  0  0  0  0
    0.1810   25.3920  -27.1430 C   0  0  0  0  0  0  0  0  0  0  0  0
   -2.9860   23.9120  -27.0530 C   0  0  0  0  0  0  0  0  0  0  0  0
   -4.1130   24.0440  -27.7690 N   0  0  0  0  0  0  0  0  0  0  0  0
   -3.9300   22.4420  -31.1080 C   0  0  0  0  0  0  0  0  0  0  0  0
   -4.2050   21.2610  -31.8020 C   0  0  0  0  0  0  0  0  0  0  0  0
   -8.0714   19.2995  -30.5313 H   0  0  0  0  0  0  0  0  0  0  0  0
   -8.0108   20.3716  -31.9713 H   0  0  0  0  0  0  0  0  0  0  0  0
   -9.0786   18.9272  -31.9713 H   0  0  0  0  0  0  0  0  0  0  0  0
   -7.4128   17.7418  -32.8873 H   0  0  0  0  0  0  0  0  0  0  0  0
   -6.5836   18.1007  -30.1186 H   0  0  0  0  0  0  0  0  0  0  0  0
   -6.4142   16.6676  -31.1883 H   0  0  0  0  0  0  0  0  0  0  0  0
   -5.1492   17.9429  -31.1883 H   0  0  0  0  0  0  0  0  0  0  0  0
   -7.5201   21.7738  -32.4715 H   0  0  0  0  0  0  0  0  0  0  0  0
   -7.0340   23.8788  -31.2280 H   0  0  0  0  0  0  0  0  0  0  0  0
   -5.5744   25.1017  -29.7650 H   0  0  0  0  0  0  0  0  0  0  0  0
   -3.0990   25.6710  -30.8020 H   0  0  0  0  0  0  0  0  0  0  0  0
   -0.2524   22.0592  -27.7974 H   0  0  0  0  0  0  0  0  0  0  0  0
    2.1623   22.0349  -27.1796 H   0  0  0  0  0  0  0  0  0  0  0  0
    2.0398   26.3051  -26.4973 H   0  0  0  0  0  0  0  0  0  0  0  0
   -0.3723   26.3427  -27.1353 H   0  0  0  0  0  0  0  0  0  0  0  0
   -2.9251   23.6246  -25.9929 H   0  0  0  0  0  0  0  0  0  0  0  0
   -5.0900   23.9000  -27.4260 H   0  0  0  0  0  0  0  0  0  0  0  0
   -2.9140   22.6302  -30.7306 H   0  0  0  0  0  0  0  0  0  0  0  0
   -3.4072   20.5207  -31.9614 H   0  0  0  0  0  0  0  0  0  0  0  0
  1  2  1  0
  2  3  1  0
  2  4  1  0
  4  5  2  0
  4  6  2  0
  4  7  1  0
  7  8  2  0
  8  9  1  0
  9 10  2  0
 10 11  1  0
 11 12  1  0
 11 13  1  0
 13 14  2  0
 14 15  1  0
 15 16  1  0
 16 17  2  0
 17 18  1  0
 18 19  2  0
 19 20  1  0
 20 21  3  0
 19 22  1  0
 22 23  2  0
 15 24  2  0
 24 25  1  0
 10 26  1  0
 26 27  2  0
 27  7  1  0
 25 13  1  0
 23 16  1  0
  1 28  1  0
  1 29  1  0
  1 30  1  0
  2 31  1  0
  3 32  1  0
  3 33  1  0
  3 34  1  0
  8 35  1  0
  9 36  1  0
 11 37  1  1
 12 38  1  0
 17 39  1  0
 18 40  1  0
 22 41  1  0
 23 42  1  0
 24 43  1  0
 25 44  1  0
 26 45  1  0
 27 46  1  0
M  END
>  <UniqueID>  (6) 
6

>  <SMILES>  (6) 
CC(C)S(=O)(=O)c1ccc([C@H](O)c2nc(-c3ccc(C#N)cc3)c[nH]2)cc1

>  <Energy>  (6) 
69.60349959959485

>  <Genealogy>  (6) 
CC(C)S(=O)(=O)c1ccc([C@H](O)c2nc(-c3ccc(C#N)cc3)c[nH]2)cc1 (chirality)
CC(C)S(=O)(=O)c1ccc([C@H](O)c2nc(-c3ccc(C#N)cc3)c[nH]2)cc1 (3D coordinates assigned)
CC(C)S(=O)(=O)c1ccc([C@H](O)c2nc(-c3ccc(C#N)cc3)c[nH]2)cc1 (optimized conformer: 69.60349959959485 kcal/mol)

>  <smiles>  (6) 
CC(C)S(=O)(=O)c1ccc(C(O)c2nc(-c3ccc(C#N)cc3)c[nH]2)cc1

>  <score_type>  (6) 
oracle

>  <origin>  (6) 
adgpu

>  <m_score__min__energy>  (6) 
-10.15

>  <m_primary>  (6) 
energy

$$$$
6:0
     RDKit          3D

 70 74  0  0  0  0  0  0  0  0999 V2000
   -4.4180   23.2580  -28.9350 C   0  0  0  0  0  0  0  0  0  0  0  0
   -4.6920   23.7790  -30.3120 C   0  0  0  0  0  0  0  0  0  0  0  0
   -3.9280   24.6600  -30.7910 O   0  0  0  0  0  0  0  0  0  0  0  0
   -5.7630   23.2380  -31.1140 N   0  0  0  0  0  0  0  0  0  0  0  0
   -6.9360   24.1020  -31.3610 C   0  0  0  0  0  0  0  0  0  0  0  0
   -7.9950   23.4250  -32.2400 C   0  0  0  0  0  0  0  0  0  0  0  0
   -8.2920   22.0160  -31.7320 C   0  0  0  0  0  0  0  0  0  0  0  0
   -7.0290   21.2030  -31.7390 C   0  0  0  0  0  0  0  0  0  0  0  0
   -7.0760   19.8320  -32.0290 C   0  0  0  0  0  0  0  0  0  0  0  0
   -5.8980   19.0790  -32.0890 C   0  0  0  0  0  0  0  0  0  0  0  0
   -5.9580   17.3680  -32.5180 S   0  0  0  0  0  0  0  0  0  0  0  0
   -7.3180   17.0430  -33.0700 O   0  0  0  0  0  0  0  0  0  0  0  0
   -5.7480   16.5380  -31.2810 O   0  0  0  0  0  0  0  0  0  0  0  0
   -4.7420   16.9630  -33.7080 N   0  0  0  0  0  0  0  0  0  0  0  0
   -4.2470   18.1650  -34.4230 C   0  0  0  0  0  0  0  0  0  0  0  0
   -2.8970   18.6920  -33.9000 C   0  0  0  0  0  0  0  0  0  0  0  0
   -1.8110   17.5930  -33.7870 C   0  0  0  0  0  0  0  0  0  0  0  0
   -0.6260   17.8220  -34.7040 C   0  0  0  0  0  0  0  0  0  0  0  0
   -0.1270   16.8230  -35.2910 O   0  0  0  0  0  0  0  0  0  0  0  0
   -0.0720   19.1300  -34.9630 N   0  0  0  0  0  0  0  0  0  0  0  0
    0.4190   19.4220  -36.3150 C   0  0  0  0  0  0  0  0  0  0  0  0
    0.3220   20.9220  -36.6060 C   0  0  0  0  0  0  0  0  0  0  0  0
    0.9360   21.7230  -35.5350 N   0  0  0  0  0  0  0  0  0  0  0  0
    1.2890   23.1030  -35.7880 C   0  0  0  0  0  0  0  0  0  0  0  0
    0.2970   24.0440  -36.1250 C   0  0  0  0  0  0  0  0  0  0  0  0
    0.6380   25.3770  -36.3720 C   0  0  0  0  0  0  0  0  0  0  0  0
    1.9700   25.7870  -36.2880 C   0  0  0  0  0  0  0  0  0  0  0  0
    2.9650   24.8650  -35.9560 C   0  0  0  0  0  0  0  0  0  0  0  0
    2.6290   23.5300  -35.7100 C   0  0  0  0  0  0  0  0  0  0  0  0
    1.3040   21.0820  -34.2630 C   0  0  0  0  0  0  0  0  0  0  0  0
    0.2540   20.0430  -33.8560 C   0  0  0  0  0  0  0  0  0  0  0  0
   -2.3830   16.1690  -33.8990 C   0  0  0  0  0  0  0  0  0  0  0  0
   -3.6980   16.0940  -33.1200 C   0  0  0  0  0  0  0  0  0  0  0  0
   -4.6690   19.7010  -31.8390 C   0  0  0  0  0  0  0  0  0  0  0  0
   -4.6170   21.0610  -31.5270 C   0  0  0  0  0  0  0  0  0  0  0  0
   -5.7990   21.8240  -31.4420 C   0  0  0  0  0  0  0  0  0  0  0  0
   -4.7948   23.9744  -28.1902 H   0  0  0  0  0  0  0  0  0  0  0  0
   -4.9239   22.2904  -28.8017 H   0  0  0  0  0  0  0  0  0  0  0  0
   -3.3341   23.1265  -28.8017 H   0  0  0  0  0  0  0  0  0  0  0  0
   -7.3933   24.3594  -30.3942 H   0  0  0  0  0  0  0  0  0  0  0  0
   -6.5832   24.9966  -31.8951 H   0  0  0  0  0  0  0  0  0  0  0  0
   -8.9195   24.0206  -32.2161 H   0  0  0  0  0  0  0  0  0  0  0  0
   -7.6127   23.3584  -33.2693 H   0  0  0  0  0  0  0  0  0  0  0  0
   -8.6862   22.0717  -30.7066 H   0  0  0  0  0  0  0  0  0  0  0  0
   -9.0371   21.5404  -32.3867 H   0  0  0  0  0  0  0  0  0  0  0  0
   -8.0455   19.3450  -32.2106 H   0  0  0  0  0  0  0  0  0  0  0  0
   -4.1308   17.9115  -35.4871 H   0  0  0  0  0  0  0  0  0  0  0  0
   -4.9865   18.9621  -34.2565 H   0  0  0  0  0  0  0  0  0  0  0  0
   -2.5357   19.4700  -34.5886 H   0  0  0  0  0  0  0  0  0  0  0  0
   -3.0710   19.0828  -32.8866 H   0  0  0  0  0  0  0  0  0  0  0  0
   -1.4147   17.6815  -32.7647 H   0  0  0  0  0  0  0  0  0  0  0  0
    1.4690   19.1044  -36.3957 H   0  0  0  0  0  0  0  0  0  0  0  0
   -0.1981   18.8766  -37.0441 H   0  0  0  0  0  0  0  0  0  0  0  0
    0.8392   21.1360  -37.5529 H   0  0  0  0  0  0  0  0  0  0  0  0
   -0.7425   21.1917  -36.6698 H   0  0  0  0  0  0  0  0  0  0  0  0
   -0.7543   23.7277  -36.1944 H   0  0  0  0  0  0  0  0  0  0  0  0
   -0.1447   26.1044  -36.6331 H   0  0  0  0  0  0  0  0  0  0  0  0
    2.2357   26.8364  -36.4833 H   0  0  0  0  0  0  0  0  0  0  0  0
    4.0139   25.1892  -35.8879 H   0  0  0  0  0  0  0  0  0  0  0  0
    3.4177   22.8074  -35.4535 H   0  0  0  0  0  0  0  0  0  0  0  0
    2.2784   20.5847  -34.3780 H   0  0  0  0  0  0  0  0  0  0  0  0
    1.3591   21.8538  -33.4812 H   0  0  0  0  0  0  0  0  0  0  0  0
    0.6443   19.4544  -33.0127 H   0  0  0  0  0  0  0  0  0  0  0  0
   -0.6644   20.5787  -33.5741 H   0  0  0  0  0  0  0  0  0  0  0  0
   -2.5672   15.9283  -34.9564 H   0  0  0  0  0  0  0  0  0  0  0  0
   -1.6644   15.4476  -33.4828 H   0  0  0  0  0  0  0  0  0  0  0  0
   -4.0562   15.0540  -33.1274 H   0  0  0  0  0  0  0  0  0  0  0  0
   -3.5052   16.4415  -32.0943 H   0  0  0  0  0  0  0  0  0  0  0  0
   -3.7393   19.1152  -31.8886 H   0  0  0  0  0  0  0  0  0  0  0  0
   -3.6442   21.5415  -31.3458 H   0  0  0  0  0  0  0  0  0  0  0  0
  1  2  1  0
  2  3  2  0
  2  4  1  0
  4  5  1  0
  5  6  1  0
  6  7  1  0
  7  8  1  0
  8  9  2  0
  9 10  1  0
 10 11  1  0
 11 12  2  0
 11 13  2  0
 11 14  1  0
 14 15  1  0
 15 16  1  0
 16 17  1  0
 17 18  1  0
 18 19  2  0
 18 20  1  0
 20 21  1  0
 21 22  1  0
 22 23  1  0
 23 24  1  0
 24 25  2  0
 25 26  1  0
 26 27  2  0
 27 28  1  0
 28 29  2  0
 23 30  1  0
 30 31  1  0
 17 32  1  0
 32 33  1  0
 10 34  2  0
 34 35  1  0
 35 36  2  0
 36  4  1  0
 36  8  1  0
 33 14  1  0
 31 20  1  0
 29 24  1  0
  1 37  1  0
  1 38  1  0
  1 39  1  0
  5 40  1  0
  5 41  1  0
  6 42  1  0
  6 43  1  0
  7 44  1  0
  7 45  1  0
  9 46  1  0
 15 47  1  0
 15 48  1  0
 16 49  1  0
 16 50  1  0
 17 51  1  0
 21 52  1  0
 21 53  1  0
 22 54  1  0
 22 55  1  0
 25 56  1  0
 26 57  1  0
 27 58  1  0
 28 59  1  0
 29 60  1  0
 30 61  1  0
 30 62  1  0
 31 63  1  0
 31 64  1  0
 32 65  1  0
 32 66  1  0
 33 67  1  0
 33 68  1  0
 34 69  1  0
 35 70  1  0
M  END
>  <UniqueID>  (7) 
7

>  <SMILES>  (7) 
CC(=O)N1CCCc2cc(S(=O)(=O)N3CCC(C(=O)N4CCN(c5ccccc5)CC4)CC3)ccc21

>  <Energy>  (7) 
92.04400458737831

>  <Genealogy>  (7) 
CC(=O)N1CCCc2cc(S(=O)(=O)N3CCC(C(=O)N4CCN(c5ccccc5)CC4)CC3)ccc21 (3D coordinates assigned)
CC(=O)N1CCCc2cc(S(=O)(=O)N3CCC(C(=O)N4CCN(c5ccccc5)CC4)CC3)ccc21 (nonaromatic ring conformer: 92.04400458737831 kcal/mol)

>  <smiles>  (7) 
CC(=O)N1CCCc2cc(S(=O)(=O)N3CCC(C(=O)N4CCN(c5ccccc5)CC4)CC3)ccc21

>  <score_type>  (7) 
oracle

>  <origin>  (7) 
adgpu

>  <m_score__min__energy>  (7) 
-10.9

>  <m_primary>  (7) 
energy

$$$$
7:0
     RDKit          3D

 53 56  0  0  0  0  0  0  0  0999 V2000
   -2.2250   25.4400  -28.4970 O   0  0  0  0  0  0  0  0  0  0  0  0
   -2.5300   24.5940  -29.3780 C   0  0  0  0  0  0  0  0  0  0  0  0
   -3.4600   24.9490  -30.4090 N   0  0  0  0  0  0  0  0  0  0  0  0
   -4.6770   24.2270  -30.6430 C   0  0  0  0  0  0  0  0  0  0  0  0
   -5.8910   24.9060  -30.8380 C   0  0  0  0  0  0  0  0  0  0  0  0
   -7.0580   24.1950  -31.1220 C   0  0  0  0  0  0  0  0  0  0  0  0
   -7.0280   22.7980  -31.2100 C   0  0  0  0  0  0  0  0  0  0  0  0
   -8.4800   21.9060  -31.6570 S   0  0  0  0  0  0  0  0  0  0  0  0
   -9.4880   22.8460  -32.2600 O   0  0  0  0  0  0  0  0  0  0  0  0
   -9.0750   21.3050  -30.4130 O   0  0  0  0  0  0  0  0  0  0  0  0
   -8.0700   20.6380  -32.7920 N   0  0  0  0  0  0  0  0  0  0  0  0
   -9.2160   19.7500  -33.0170 C   0  0  0  0  0  0  0  0  0  0  0  0
   -9.1160   18.5920  -32.0360 C   0  0  0  0  0  0  0  0  0  0  0  0
   -7.6830   18.6030  -31.5400 C   0  0  0  0  0  0  0  0  0  0  0  0
   -7.0170   19.7790  -32.2400 C   0  0  0  0  0  0  0  0  0  0  0  0
   -5.8240   22.1170  -30.9820 C   0  0  0  0  0  0  0  0  0  0  0  0
   -4.6560   22.8280  -30.6840 C   0  0  0  0  0  0  0  0  0  0  0  0
   -1.9460   23.2440  -29.3360 C   0  0  0  0  0  0  0  0  0  0  0  0
   -2.0610   22.4680  -28.1800 C   0  0  0  0  0  0  0  0  0  0  0  0
   -1.6170   21.1490  -28.1840 C   0  0  0  0  0  0  0  0  0  0  0  0
   -1.1070   20.5960  -29.3610 C   0  0  0  0  0  0  0  0  0  0  0  0
   -0.7480   19.3870  -29.3610 O   0  0  0  0  0  0  0  0  0  0  0  0
   -1.0160   21.3560  -30.5020 N   0  0  0  0  0  0  0  0  0  0  0  0
   -0.6600   20.7400  -31.7900 C   0  0  0  0  0  0  0  0  0  0  0  0
   -1.9030   20.1920  -32.4460 C   0  0  0  0  0  0  0  0  0  0  0  0
   -1.9600   18.8420  -32.8330 C   0  0  0  0  0  0  0  0  0  0  0  0
   -3.0740   18.3520  -33.5200 C   0  0  0  0  0  0  0  0  0  0  0  0
   -4.1350   19.2060  -33.8360 C   0  0  0  0  0  0  0  0  0  0  0  0
   -5.2100   18.7300  -34.5110 F   0  0  0  0  0  0  0  0  0  0  0  0
   -4.0830   20.5520  -33.4630 C   0  0  0  0  0  0  0  0  0  0  0  0
   -2.9710   21.0470  -32.7720 C   0  0  0  0  0  0  0  0  0  0  0  0
   -1.3920   22.6730  -30.4870 C   0  0  0  0  0  0  0  0  0  0  0  0
   -5.9222   26.0032  -30.7666 H   0  0  0  0  0  0  0  0  0  0  0  0
   -8.0043   24.7339  -31.2772 H   0  0  0  0  0  0  0  0  0  0  0  0
  -10.1532   20.3009  -32.8493 H   0  0  0  0  0  0  0  0  0  0  0  0
   -9.2104   19.3751  -34.0511 H   0  0  0  0  0  0  0  0  0  0  0  0
   -9.8138   18.7368  -31.1981 H   0  0  0  0  0  0  0  0  0  0  0  0
   -9.3767   17.6335  -32.5085 H   0  0  0  0  0  0  0  0  0  0  0  0
   -7.6553   18.7398  -30.4489 H   0  0  0  0  0  0  0  0  0  0  0  0
   -7.1693   17.6551  -31.7583 H   0  0  0  0  0  0  0  0  0  0  0  0
   -6.4119   20.3479  -31.5187 H   0  0  0  0  0  0  0  0  0  0  0  0
   -6.3583   19.4197  -33.0444 H   0  0  0  0  0  0  0  0  0  0  0  0
   -5.7972   21.0187  -31.0376 H   0  0  0  0  0  0  0  0  0  0  0  0
   -3.7201   22.2866  -30.4817 H   0  0  0  0  0  0  0  0  0  0  0  0
   -2.5015   22.8986  -27.2686 H   0  0  0  0  0  0  0  0  0  0  0  0
   -1.6674   20.5455  -27.2657 H   0  0  0  0  0  0  0  0  0  0  0  0
   -0.2032   21.4969  -32.4446 H   0  0  0  0  0  0  0  0  0  0  0  0
    0.0557   19.9222  -31.6199 H   0  0  0  0  0  0  0  0  0  0  0  0
   -1.1240   18.1681  -32.5941 H   0  0  0  0  0  0  0  0  0  0  0  0
   -3.1162   17.2925  -33.8127 H   0  0  0  0  0  0  0  0  0  0  0  0
   -4.9176   21.2236  -33.7130 H   0  0  0  0  0  0  0  0  0  0  0  0
   -2.9323   22.1077  -32.4831 H   0  0  0  0  0  0  0  0  0  0  0  0
   -1.2571   23.2880  -31.3890 H   0  0  0  0  0  0  0  0  0  0  0  0
  1  2  2  0
  2  3  1  0
  3  4  1  0
  4  5  2  0
  5  6  1  0
  6  7  2  0
  7  8  1  0
  8  9  2  0
  8 10  2  0
  8 11  1  0
 11 12  1  0
 12 13  1  0
 13 14  1  0
 14 15  1  0
  7 16  1  0
 16 17  2  0
  2 18  1  0
 18 19  1  0
 19 20  2  0
 20 21  1  0
 21 22  2  0
 21 23  1  0
 23 24  1  0
 24 25  1  0
 25 26  2  0
 26 27  1  0
 27 28  2  0
 28 29  1  0
 28 30  1  0
 30 31  2  0
 23 32  1  0
 17  4  1  0
 32 18  2  0
 15 11  1  0
 31 25  1  0
  5 33  1  0
  6 34  1  0
 12 35  1  0
 12 36  1  0
 13 37  1  0
 13 38  1  0
 14 39  1  0
 14 40  1  0
 15 41  1  0
 15 42  1  0
 16 43  1  0
 17 44  1  0
 19 45  1  0
 20 46  1  0
 24 47  1  0
 24 48  1  0
 26 49  1  0
 27 50  1  0
 30 51  1  0
 31 52  1  0
 32 53  1  0
M  CHG  1   3  -1
M  END
>  <UniqueID>  (8) 
8

>  <SMILES>  (8) 
O=C([N-]c1ccc(S(=O)(=O)N2CCCC2)cc1)c1ccc(=O)n(Cc2ccc(F)cc2)c1

>  <Energy>  (8) 
65.52479137550603

>  <Genealogy>  (8) 
O=C([N-]c1ccc(S(=O)(=O)N2CCCC2)cc1)c1ccc(=O)n(Cc2ccc(F)cc2)c1 (protonated)
O=C([N-]c1ccc(S(=O)(=O)N2CCCC2)cc1)c1ccc(=O)n(Cc2ccc(F)cc2)c1 (3D coordinates assigned)
O=C([N-]c1ccc(S(=O)(=O)N2CCCC2)cc1)c1ccc(=O)n(Cc2ccc(F)cc2)c1 (nonaromatic ring conformer: 65.52479137550603 kcal/mol)

>  <smiles>  (8) 
O=C(Nc1ccc(S(=O)(=O)N2CCCC2)cc1)c1ccc(=O)n(Cc2ccc(F)cc2)c1

>  <score_type>  (8) 
oracle

>  <origin>  (8) 
adgpu

>  <m_score__min__energy>  (8) 
-11.789999999999999

>  <m_primary>  (8) 
energy

$$$$
8:0
     RDKit          3D

 74 78  0  0  0  0  0  0  0  0999 V2000
   -1.4042   21.4746  -28.3797 H   0  0  0  0  0  0  0  0  0  0  0  0
   -1.6400   22.5490  -28.3770 C   0  0  0  0  0  0  0  0  0  0  0  0
   -1.1890   23.3540  -27.3280 C   0  0  0  0  0  0  0  0  0  0  0  0
   -0.5904   22.9121  -26.5178 H   0  0  0  0  0  0  0  0  0  0  0  0
   -1.4960   24.7260  -27.3020 C   0  0  0  0  0  0  0  0  0  0  0  0
   -1.0960   25.5550  -26.1880 N   0  0  0  0  0  0  0  0  0  0  0  0
   -0.8980   24.9620  -24.8600 C   0  0  0  0  0  0  0  0  0  0  0  0
   -1.8407   25.0097  -24.2951 H   0  0  0  0  0  0  0  0  0  0  0  0
   -0.5857   23.9135  -24.9747 H   0  0  0  0  0  0  0  0  0  0  0  0
    0.1860   25.7300  -24.1030 C   0  0  0  0  0  0  0  0  0  0  0  0
    0.3136   25.2771  -23.1087 H   0  0  0  0  0  0  0  0  0  0  0  0
    1.1154   25.6722  -24.6885 H   0  0  0  0  0  0  0  0  0  0  0  0
   -0.1620   27.1610  -23.9360 N   0  0  0  0  0  0  0  0  0  0  0  0
    1.0330   27.9530  -23.6020 C   0  0  0  0  0  0  0  0  0  0  0  0
    1.1345   28.0203  -22.5088 H   0  0  0  0  0  0  0  0  0  0  0  0
    1.9249   27.4666  -24.0238 H   0  0  0  0  0  0  0  0  0  0  0  0
    0.9326   28.9639  -24.0238 H   0  0  0  0  0  0  0  0  0  0  0  0
   -0.9120   27.7530  -25.0790 C   0  0  0  0  0  0  0  0  0  0  0  0
   -1.9803   27.7796  -24.8181 H   0  0  0  0  0  0  0  0  0  0  0  0
   -0.4996   28.7582  -25.2509 H   0  0  0  0  0  0  0  0  0  0  0  0
   -0.7510   26.9690  -26.3880 C   0  0  0  0  0  0  0  0  0  0  0  0
   -1.4159   27.3991  -27.1514 H   0  0  0  0  0  0  0  0  0  0  0  0
    0.2969   27.0361  -26.7157 H   0  0  0  0  0  0  0  0  0  0  0  0
   -2.2410   25.2750  -28.3610 C   0  0  0  0  0  0  0  0  0  0  0  0
   -2.4661   26.3517  -28.3643 H   0  0  0  0  0  0  0  0  0  0  0  0
   -2.7020   24.4680  -29.4150 C   0  0  0  0  0  0  0  0  0  0  0  0
   -3.4870   24.9910  -30.4570 O   0  0  0  0  0  0  0  0  0  0  0  0
   -4.8990   24.8820  -30.5370 C   0  0  0  0  0  0  0  0  0  0  0  0
   -5.3223   24.8493  -29.5222 H   0  0  0  0  0  0  0  0  0  0  0  0
   -5.3040   25.7516  -31.0754 H   0  0  0  0  0  0  0  0  0  0  0  0
   -5.1657   23.9606  -31.0754 H   0  0  0  0  0  0  0  0  0  0  0  0
   -2.3930   23.1000  -29.4300 C   0  0  0  0  0  0  0  0  0  0  0  0
   -2.9570   22.2810  -30.4700 N   0  0  0  0  0  0  0  0  0  0  0  0
   -2.4450   21.2340  -31.0380 C   0  0  0  0  0  0  0  0  0  0  0  0
   -3.1610   20.6060  -32.0070 N   0  0  0  0  0  0  0  0  0  0  0  0
   -2.6340   19.5850  -32.7360 C   0  0  0  0  0  0  0  0  0  0  0  0
   -3.3690   18.9690  -33.7640 C   0  0  0  0  0  0  0  0  0  0  0  0
   -4.7620   19.2680  -34.0070 N   0  0  0  0  0  0  0  0  0  0  0  0
   -5.6300   18.2690  -34.6350 C   0  0  0  0  0  0  0  0  0  0  0  0
   -6.1896   18.7401  -35.4565 H   0  0  0  0  0  0  0  0  0  0  0  0
   -5.0080   17.4490  -35.0232 H   0  0  0  0  0  0  0  0  0  0  0  0
   -6.6230   17.6990  -33.6060 C   0  0  0  0  0  0  0  0  0  0  0  0
   -7.5471   17.4137  -34.1301 H   0  0  0  0  0  0  0  0  0  0  0  0
   -6.1423   16.8338  -33.1260 H   0  0  0  0  0  0  0  0  0  0  0  0
   -6.9800   18.7140  -32.4890 C   0  0  0  0  0  0  0  0  0  0  0  0
   -6.2589   18.5775  -31.6697 H   0  0  0  0  0  0  0  0  0  0  0  0
   -8.3350   18.4600  -31.9760 C   0  0  0  0  0  0  0  0  0  0  0  0
   -9.4030   18.2640  -31.5740 N   0  0  0  0  0  0  0  0  0  0  0  0
   -6.8580   20.1630  -32.9860 C   0  0  0  0  0  0  0  0  0  0  0  0
   -7.5162   20.3076  -33.8554 H   0  0  0  0  0  0  0  0  0  0  0  0
   -7.1536   20.8499  -32.1793 H   0  0  0  0  0  0  0  0  0  0  0  0
   -5.3990   20.4540  -33.3940 C   0  0  0  0  0  0  0  0  0  0  0  0
   -5.3886   21.2807  -34.1196 H   0  0  0  0  0  0  0  0  0  0  0  0
   -4.8337   20.7210  -32.4890 H   0  0  0  0  0  0  0  0  0  0  0  0
   -2.7300   18.0870  -34.5800 N   0  0  0  0  0  0  0  0  0  0  0  0
   -1.4350   17.7060  -34.3980 C   0  0  0  0  0  0  0  0  0  0  0  0
   -0.7720   16.8670  -35.4190 C   0  0  0  0  0  0  0  0  0  0  0  0
    0.1050   17.3730  -36.1730 O   0  0  0  0  0  0  0  0  0  0  0  0
   -1.1050   15.4670  -35.5310 N   0  0  0  0  0  0  0  0  0  0  0  0
   -0.4250   14.9980  -36.1700 H   0  0  0  0  0  0  0  0  0  0  0  0
   -0.9980   14.8020  -34.2160 C   0  0  0  0  0  0  0  0  0  0  0  0
   -1.1181   15.5483  -33.4169 H   0  0  0  0  0  0  0  0  0  0  0  0
   -1.7849   14.0386  -34.1260 H   0  0  0  0  0  0  0  0  0  0  0  0
   -0.0114   14.3240  -34.1260 H   0  0  0  0  0  0  0  0  0  0  0  0
   -2.4510   15.2970  -36.1000 C   0  0  0  0  0  0  0  0  0  0  0  0
   -3.1844   15.2044  -35.2854 H   0  0  0  0  0  0  0  0  0  0  0  0
   -2.7000   16.1708  -36.7200 H   0  0  0  0  0  0  0  0  0  0  0  0
   -2.4750   14.3887  -36.7200 H   0  0  0  0  0  0  0  0  0  0  0  0
   -0.7190   18.2080  -33.2980 C   0  0  0  0  0  0  0  0  0  0  0  0
    0.2928   17.8383  -33.0754 H   0  0  0  0  0  0  0  0  0  0  0  0
   -1.3090   19.1810  -32.4930 C   0  0  0  0  0  0  0  0  0  0  0  0
   -0.5910   19.8240  -31.4760 C   0  0  0  0  0  0  0  0  0  0  0  0
    0.4355   19.5068  -31.2400 H   0  0  0  0  0  0  0  0  0  0  0  0
   -1.1670   20.8410  -30.7820 N   0  0  0  0  0  0  0  0  0  0  0  0
  1  2  1  0
  2  3  2  0
  3  4  1  0
  3  5  1  0
  5  6  1  0
  6  7  1  0
  7  8  1  0
  7  9  1  0
  7 10  1  0
 10 11  1  0
 10 12  1  0
 10 13  1  0
 13 14  1  0
 14 15  1  0
 14 16  1  0
 14 17  1  0
 13 18  1  0
 18 19  1  0
 18 20  1  0
 18 21  1  0
 21 22  1  0
 21 23  1  0
  5 24  2  0
 24 25  1  0
 24 26  1  0
 26 27  1  0
 27 28  1  0
 28 29  1  0
 28 30  1  0
 28 31  1  0
 26 32  2  0
 32 33  1  0
 33 34  2  0
 34 35  1  0
 35 36  2  0
 36 37  1  0
 37 38  1  0
 38 39  1  0
 39 40  1  0
 39 41  1  0
 39 42  1  0
 42 43  1  0
 42 44  1  0
 42 45  1  0
 45 46  1  0
 45 47  1  0
 47 48  3  0
 45 49  1  0
 49 50  1  0
 49 51  1  0
 49 52  1  0
 52 53  1  0
 52 54  1  0
 37 55  2  0
 55 56  1  0
 56 57  1  0
 57 58  2  0
 57 59  1  0
 59 60  1  0
 59 61  1  0
 61 62  1  0
 61 63  1  0
 61 64  1  0
 59 65  1  0
 65 66  1  0
 65 67  1  0
 65 68  1  0
 56 69  2  0
 69 70  1  0
 69 71  1  0
 71 72  2  0
 72 73  1  0
 72 74  1  0
 32  2  1  0
 74 34  1  0
 21  6  1  0
 71 36  1  0
 52 38  1  0
M  CHG  2  59   1  74  -1
M  END
>  <UniqueID>  (9) 
9

>  <SMILES>  (9) 
COc1cc(N2CCN(C)CC2)ccc1/N=c1/nc2c(N3CCC(C#N)CC3)nc(C(=O)[NH+](C)C)cc2c[n-]1

>  <Energy>  (9) 
109.82303925302396

>  <Genealogy>  (9) 
COc1cc(N2CCN(C)CC2)ccc1N=c1nc2c(N3CCC(C#N)CC3)nc(C(=O)[NH+](C)C)cc2c[n-]1 (protonated)
COc1cc(N2CCN(C)CC2)ccc1/N=c1/nc2c(N3CCC(C#N)CC3)nc(C(=O)[NH+](C)C)cc2c[n-]1 (cis-trans isomerization)
COc1cc(N2CCN(C)CC2)ccc1/N=c1/nc2c(N3CCC(C#N)CC3)nc(C(=O)[NH+](C)C)cc2c[n-]1 (3D coordinates assigned)
COc1cc(N2CCN(C)CC2)ccc1/N=c1/nc2c(N3CCC(C#N)CC3)nc(C(=O)[NH+](C)C)cc2c[n-]1 (nonaromatic ring conformer: 109.82303925302396 kcal/mol)

>  <smiles>  (9) 
COc1cc(N2CCN(C)CC2)ccc1N=c1nc2c(N3CCC(C#N)CC3)nc(C(=O)N(C)C)cc2c[nH]1

>  <score_type>  (9) 
oracle

>  <origin>  (9) 
adgpu

>  <m_score__min__energy>  (9) 
-9.7400000000000002

>  <m_primary>  (9) 
energy

$$$$
9:0
     RDKit          3D

 43 45  0  0  0  0  0  0  0  0999 V2000
   -6.4940   26.0180  -29.7020 O   0  0  0  0  0  0  0  0  0  0  0  0
   -5.4590   25.0310  -30.1630 S   0  0  0  0  0  0  0  0  0  0  0  0
   -4.6090   25.6730  -31.2230 O   0  0  0  0  0  0  0  0  0  0  0  0
   -4.4610   24.5690  -28.8210 N   0  0  0  0  0  0  0  0  0  0  0  0
   -3.3120   23.7180  -28.9770 C   0  0  0  0  0  0  0  0  0  0  0  0
   -3.4290   22.3190  -28.8850 C   0  0  0  0  0  0  0  0  0  0  0  0
   -2.3030   21.5030  -29.0200 C   0  0  0  0  0  0  0  0  0  0  0  0
   -1.0500   22.0730  -29.2510 C   0  0  0  0  0  0  0  0  0  0  0  0
   -0.9220   23.4590  -29.3580 C   0  0  0  0  0  0  0  0  0  0  0  0
   -2.0460   24.2820  -29.2270 C   0  0  0  0  0  0  0  0  0  0  0  0
   -1.8960   25.6600  -29.3300 O   0  0  0  0  0  0  0  0  0  0  0  0
   -6.2750   23.6000  -30.7840 C   0  0  0  0  0  0  0  0  0  0  0  0
   -5.8410   22.9830  -31.9660 C   0  0  0  0  0  0  0  0  0  0  0  0
   -6.4190   21.7800  -32.3810 C   0  0  0  0  0  0  0  0  0  0  0  0
   -7.4300   21.1820  -31.6160 C   0  0  0  0  0  0  0  0  0  0  0  0
   -8.0760   19.6060  -32.0710 S   0  0  0  0  0  0  0  0  0  0  0  0
   -8.7700   19.7200  -33.3990 O   0  0  0  0  0  0  0  0  0  0  0  0
   -9.1000   19.1890  -31.0520 O   0  0  0  0  0  0  0  0  0  0  0  0
   -6.8260   18.3810  -32.1720 N   0  0  0  0  0  0  0  0  0  0  0  0
   -5.4930   18.8870  -31.7790 C   0  0  0  0  0  0  0  0  0  0  0  0
   -4.5880   19.1960  -32.9840 C   0  0  0  0  0  0  0  0  0  0  0  0
   -5.3630   19.5630  -34.1010 O   0  0  0  0  0  0  0  0  0  0  0  0
   -6.0710   18.4360  -34.5790 C   0  0  0  0  0  0  0  0  0  0  0  0
   -6.8290   17.6740  -33.4660 C   0  0  0  0  0  0  0  0  0  0  0  0
   -7.8900   21.8220  -30.4570 C   0  0  0  0  0  0  0  0  0  0  0  0
   -7.3100   23.0220  -30.0410 C   0  0  0  0  0  0  0  0  0  0  0  0
   -4.8340   24.7590  -27.8650 H   0  0  0  0  0  0  0  0  0  0  0  0
   -4.4144   21.8642  -28.7054 H   0  0  0  0  0  0  0  0  0  0  0  0
   -2.4040   20.4103  -28.9442 H   0  0  0  0  0  0  0  0  0  0  0  0
   -0.1630   21.4298  -29.3488 H   0  0  0  0  0  0  0  0  0  0  0  0
    0.0656   23.9055  -29.5459 H   0  0  0  0  0  0  0  0  0  0  0  0
   -5.0448   23.4462  -32.5673 H   0  0  0  0  0  0  0  0  0  0  0  0
   -6.0794   21.3009  -33.3111 H   0  0  0  0  0  0  0  0  0  0  0  0
   -5.6265   19.8097  -31.1952 H   0  0  0  0  0  0  0  0  0  0  0  0
   -5.0012   18.0972  -31.1922 H   0  0  0  0  0  0  0  0  0  0  0  0
   -3.9108   20.0234  -32.7255 H   0  0  0  0  0  0  0  0  0  0  0  0
   -4.0079   18.2954  -33.2337 H   0  0  0  0  0  0  0  0  0  0  0  0
   -6.8003   18.7742  -35.3299 H   0  0  0  0  0  0  0  0  0  0  0  0
   -5.3311   17.7419  -35.0041 H   0  0  0  0  0  0  0  0  0  0  0  0
   -7.8722   17.5348  -33.7859 H   0  0  0  0  0  0  0  0  0  0  0  0
   -6.3113   16.7152  -33.3157 H   0  0  0  0  0  0  0  0  0  0  0  0
   -8.7100   21.3778  -29.8737 H   0  0  0  0  0  0  0  0  0  0  0  0
   -7.6683   23.5150  -29.1253 H   0  0  0  0  0  0  0  0  0  0  0  0
  1  2  2  0
  2  3  2  0
  2  4  1  0
  4  5  1  0
  5  6  2  0
  6  7  1  0
  7  8  2  0
  8  9  1  0
  9 10  2  0
 10 11  1  0
  2 12  1  0
 12 13  2  0
 13 14  1  0
 14 15  2  0
 15 16  1  0
 16 17  2  0
 16 18  2  0
 16 19  1  0
 19 20  1  0
 20 21  1  0
 21 22  1  0
 22 23  1  0
 23 24  1  0
 15 25  1  0
 25 26  2  0
 10  5  1  0
 26 12  1  0
 24 19  1  0
  4 27  1  0
  6 28  1  0
  7 29  1  0
  8 30  1  0
  9 31  1  0
 13 32  1  0
 14 33  1  0
 20 34  1  0
 20 35  1  0
 21 36  1  0
 21 37  1  0
 23 38  1  0
 23 39  1  0
 24 40  1  0
 24 41  1  0
 25 42  1  0
 26 43  1  0
M  CHG  1  11  -1
M  END
>  <UniqueID>  (10) 
10

>  <SMILES>  (10) 
O=S(=O)(Nc1ccccc1[O-])c1ccc(S(=O)(=O)N2CCOCC2)cc1

>  <Energy>  (10) 
56.49200664190381

>  <Genealogy>  (10) 
O=S(=O)(Nc1ccccc1[O-])c1ccc(S(=O)(=O)N2CCOCC2)cc1 (protonated)
O=S(=O)(Nc1ccccc1[O-])c1ccc(S(=O)(=O)N2CCOCC2)cc1 (3D coordinates assigned)
O=S(=O)(Nc1ccccc1[O-])c1ccc(S(=O)(=O)N2CCOCC2)cc1 (nonaromatic ring conformer: 56.49200664190381 kcal/mol)

>  <smiles>  (10) 
O=S(=O)(Nc1ccccc1O)c1ccc(S(=O)(=O)N2CCOCC2)cc1

>  <score_type>  (10) 
oracle

>  <origin>  (10) 
adgpu

>  <m_score__min__energy>  (10) 
-13.210000000000001

>  <m_primary>  (10) 
energy

$$$$
10:0
     RDKit          3D

 52 54  0  0  0  0  0  0  0  0999 V2000
   -6.5160   15.9110  -33.8380 C   0  0  0  0  0  0  0  0  0  0  0  0
   -5.6860   17.0820  -34.3320 C   0  0  0  0  0  0  0  0  0  0  0  0
   -6.4880   18.2610  -34.3420 O   0  0  0  0  0  0  0  0  0  0  0  0
   -6.8150   18.9580  -33.1730 C   0  0  0  0  0  0  0  0  0  0  0  0
   -7.7770   18.5730  -32.4570 O   0  0  0  0  0  0  0  0  0  0  0  0
   -6.0280   20.1490  -32.7970 C   0  0  0  0  0  0  0  0  0  0  0  0
   -6.7020   21.6790  -32.5850 S   0  0  0  0  0  0  0  0  0  0  0  0
   -5.2690   22.4620  -32.1830 C   0  0  0  0  0  0  0  0  0  0  0  0
   -5.1350   23.8220  -31.7360 N   0  0  0  0  0  0  0  0  0  0  0  0
   -4.6090   24.2830  -30.4850 C   0  0  0  0  0  0  0  0  0  0  0  0
   -3.8590   25.2950  -30.4840 O   0  0  0  0  0  0  0  0  0  0  0  0
   -5.0550   23.7160  -29.1660 C   0  0  0  0  0  0  0  0  0  0  0  0
   -4.3170   24.4090  -28.0140 C   0  0  0  0  0  0  0  0  0  0  0  0
   -2.9140   23.9010  -27.9110 C   0  0  0  0  0  0  0  0  0  0  0  0
   -1.8660   24.7520  -28.0690 N   0  0  0  0  0  0  0  0  0  0  0  0
   -0.5870   24.2980  -28.0360 C   0  0  0  0  0  0  0  0  0  0  0  0
    0.3700   25.1050  -28.1930 O   0  0  0  0  0  0  0  0  0  0  0  0
   -0.3340   22.9390  -27.8410 C   0  0  0  0  0  0  0  0  0  0  0  0
   -1.4230   22.0660  -27.6860 C   0  0  0  0  0  0  0  0  0  0  0  0
   -1.2320   20.6520  -27.4740 N   0  0  0  0  0  0  0  0  0  0  0  0
   -1.9730   19.9850  -26.3970 C   0  0  0  0  0  0  0  0  0  0  0  0
   -2.1380   18.4970  -26.7120 C   0  0  0  0  0  0  0  0  0  0  0  0
   -0.8890   17.9130  -27.0230 O   0  0  0  0  0  0  0  0  0  0  0  0
   -0.4000   18.4590  -28.2310 C   0  0  0  0  0  0  0  0  0  0  0  0
   -0.0890   19.9510  -28.0710 C   0  0  0  0  0  0  0  0  0  0  0  0
   -2.6850   22.5740  -27.7310 N   0  0  0  0  0  0  0  0  0  0  0  0
   -4.2370   21.5300  -32.1690 C   0  0  0  0  0  0  0  0  0  0  0  0
   -2.8810   21.8860  -31.8200 C   0  0  0  0  0  0  0  0  0  0  0  0
   -1.7930   22.1710  -31.5420 N   0  0  0  0  0  0  0  0  0  0  0  0
   -4.6490   20.2270  -32.5280 C   0  0  0  0  0  0  0  0  0  0  0  0
   -3.7160   19.0460  -32.5970 C   0  0  0  0  0  0  0  0  0  0  0  0
   -6.5213   15.9035  -32.7380 H   0  0  0  0  0  0  0  0  0  0  0  0
   -7.5468   16.0098  -34.2090 H   0  0  0  0  0  0  0  0  0  0  0  0
   -6.0813   14.9711  -34.2090 H   0  0  0  0  0  0  0  0  0  0  0  0
   -4.8252   17.2295  -33.6633 H   0  0  0  0  0  0  0  0  0  0  0  0
   -5.3268   16.8736  -35.3506 H   0  0  0  0  0  0  0  0  0  0  0  0
   -6.1376   23.8731  -29.0505 H   0  0  0  0  0  0  0  0  0  0  0  0
   -4.8267   22.6402  -29.1425 H   0  0  0  0  0  0  0  0  0  0  0  0
   -4.2970   25.4935  -28.1971 H   0  0  0  0  0  0  0  0  0  0  0  0
   -4.8438   24.1934  -27.0727 H   0  0  0  0  0  0  0  0  0  0  0  0
    0.6980   22.5595  -27.8094 H   0  0  0  0  0  0  0  0  0  0  0  0
   -1.4207   20.0974  -25.4523 H   0  0  0  0  0  0  0  0  0  0  0  0
   -2.9680   20.4454  -26.3074 H   0  0  0  0  0  0  0  0  0  0  0  0
   -2.5674   17.9876  -25.8367 H   0  0  0  0  0  0  0  0  0  0  0  0
   -2.8055   18.3900  -27.5798 H   0  0  0  0  0  0  0  0  0  0  0  0
    0.5194   17.9285  -28.5198 H   0  0  0  0  0  0  0  0  0  0  0  0
   -1.1711   18.3422  -29.0068 H   0  0  0  0  0  0  0  0  0  0  0  0
    0.7894   20.0701  -27.4196 H   0  0  0  0  0  0  0  0  0  0  0  0
    0.1141   20.3810  -29.0629 H   0  0  0  0  0  0  0  0  0  0  0  0
   -3.4595   18.7213  -31.5778 H   0  0  0  0  0  0  0  0  0  0  0  0
   -4.2084   18.2205  -33.1318 H   0  0  0  0  0  0  0  0  0  0  0  0
   -2.7989   19.3340  -33.1318 H   0  0  0  0  0  0  0  0  0  0  0  0
  1  2  1  0
  2  3  1  0
  3  4  1  0
  4  5  2  0
  4  6  1  0
  6  7  1  0
  7  8  1  0
  8  9  1  0
  9 10  1  0
 10 11  2  0
 10 12  1  0
 12 13  1  0
 13 14  1  0
 14 15  2  0
 15 16  1  0
 16 17  2  0
 16 18  1  0
 18 19  2  0
 19 20  1  0
 20 21  1  0
 21 22  1  0
 22 23  1  0
 23 24  1  0
 24 25  1  0
 19 26  1  0
  8 27  2  0
 27 28  1  0
 28 29  3  0
 27 30  1  0
 30 31  1  0
 30  6  2  0
 26 14  1  0
 25 20  1  0
  1 32  1  0
  1 33  1  0
  1 34  1  0
  2 35  1  0
  2 36  1  0
 12 37  1  0
 12 38  1  0
 13 39  1  0
 13 40  1  0
 18 41  1  0
 21 42  1  0
 21 43  1  0
 22 44  1  0
 22 45  1  0
 24 46  1  0
 24 47  1  0
 25 48  1  0
 25 49  1  0
 31 50  1  0
 31 51  1  0
 31 52  1  0
M  CHG  2   9  -1  26  -1
M  END
>  <UniqueID>  (11) 
11

>  <SMILES>  (11) 
CCOC(=O)c1sc([N-]C(=O)CCc2nc(=O)cc(N3CCOCC3)[n-]2)c(C#N)c1C

>  <Energy>  (11) 
79.03704609304049

>  <Genealogy>  (11) 
CCOC(=O)c1sc([N-]C(=O)CCc2nc(=O)cc(N3CCOCC3)[n-]2)c(C#N)c1C (protonated)
CCOC(=O)c1sc([N-]C(=O)CCc2nc(=O)cc(N3CCOCC3)[n-]2)c(C#N)c1C (3D coordinates assigned)
CCOC(=O)c1sc([N-]C(=O)CCc2nc(=O)cc(N3CCOCC3)[n-]2)c(C#N)c1C (nonaromatic ring conformer: 79.03704609304049 kcal/mol)

>  <smiles>  (11) 
CCOC(=O)c1sc(NC(=O)CCc2nc(=O)cc(N3CCOCC3)[nH]2)c(C#N)c1C

>  <score_type>  (11) 
oracle

>  <origin>  (11) 
adgpu

>  <m_score__min__energy>  (11) 
-11.09

>  <m_primary>  (11) 
energy

$$$$
11:0
     RDKit          3D

 50 52  0  0  0  0  0  0  0  0999 V2000
   -0.1030   23.5540  -24.4680 C   0  0  0  0  0  0  0  0  0  0  0  0
    0.2200   22.8450  -25.6610 O   0  0  0  0  0  0  0  0  0  0  0  0
   -0.5960   22.8050  -26.8020 C   0  0  0  0  0  0  0  0  0  0  0  0
   -1.5900   21.8230  -26.8740 C   0  0  0  0  0  0  0  0  0  0  0  0
   -2.4270   21.7390  -27.9900 C   0  0  0  0  0  0  0  0  0  0  0  0
   -2.2690   22.6310  -29.0640 C   0  0  0  0  0  0  0  0  0  0  0  0
   -3.1300   22.5840  -30.2130 N   0  0  0  0  0  0  0  0  0  0  0  0
   -3.7600   23.7400  -30.7960 C   0  0  0  0  0  0  0  0  0  0  0  0
   -3.5380   24.8910  -30.3350 O   0  0  0  0  0  0  0  0  0  0  0  0
   -4.6360   23.6090  -31.9220 N   0  0  0  0  0  0  0  0  0  0  0  0
   -5.8930   22.9180  -31.9230 C   0  0  0  0  0  0  0  0  0  0  0  0
   -7.0640   23.6680  -31.8550 C   0  0  0  0  0  0  0  0  0  0  0  0
   -8.3050   23.0390  -31.8570 C   0  0  0  0  0  0  0  0  0  0  0  0
   -8.4040   21.6380  -31.8910 C   0  0  0  0  0  0  0  0  0  0  0  0
   -9.7850   21.0350  -31.9470 C   0  0  0  0  0  0  0  0  0  0  0  0
   -7.2160   20.8540  -31.9170 C   0  0  0  0  0  0  0  0  0  0  0  0
   -7.2480   19.0640  -31.9280 S   0  0  0  0  0  0  0  0  0  0  0  0
   -6.3160   18.5080  -30.8900 O   0  0  0  0  0  0  0  0  0  0  0  0
   -8.6300   18.5990  -31.5600 O   0  0  0  0  0  0  0  0  0  0  0  0
   -6.8030   18.3960  -33.4870 N   0  0  0  0  0  0  0  0  0  0  0  0
   -6.3960   16.9850  -33.3630 C   0  0  0  0  0  0  0  0  0  0  0  0
   -5.6060   16.5420  -34.6050 C   0  0  0  0  0  0  0  0  0  0  0  0
   -4.4120   17.2860  -34.8290 O   0  0  0  0  0  0  0  0  0  0  0  0
   -4.4170   18.5730  -34.2250 C   0  0  0  0  0  0  0  0  0  0  0  0
   -5.8110   19.2250  -34.2060 C   0  0  0  0  0  0  0  0  0  0  0  0
   -5.9650   21.5130  -31.9230 C   0  0  0  0  0  0  0  0  0  0  0  0
   -4.7860   20.7750  -31.9090 O   0  0  0  0  0  0  0  0  0  0  0  0
   -1.2890   23.6310  -28.9830 C   0  0  0  0  0  0  0  0  0  0  0  0
   -0.4510   23.7140  -27.8660 C   0  0  0  0  0  0  0  0  0  0  0  0
    0.1739   22.9463  -23.5939 H   0  0  0  0  0  0  0  0  0  0  0  0
    0.4512   24.5039  -24.4445 H   0  0  0  0  0  0  0  0  0  0  0  0
   -1.1834   23.7592  -24.4445 H   0  0  0  0  0  0  0  0  0  0  0  0
   -1.7138   21.1108  -26.0449 H   0  0  0  0  0  0  0  0  0  0  0  0
   -3.2134   20.9708  -28.0278 H   0  0  0  0  0  0  0  0  0  0  0  0
   -3.3810   21.6410  -30.5840 H   0  0  0  0  0  0  0  0  0  0  0  0
   -7.0077   24.7651  -31.7993 H   0  0  0  0  0  0  0  0  0  0  0  0
   -9.2213   23.6470  -31.8316 H   0  0  0  0  0  0  0  0  0  0  0  0
  -10.1561   20.8730  -30.9242 H   0  0  0  0  0  0  0  0  0  0  0  0
  -10.4626   21.7192  -32.4788 H   0  0  0  0  0  0  0  0  0  0  0  0
   -9.7438   20.0730  -32.4788 H   0  0  0  0  0  0  0  0  0  0  0  0
   -5.7635   16.8677  -32.4707 H   0  0  0  0  0  0  0  0  0  0  0  0
   -7.2975   16.3610  -33.2732 H   0  0  0  0  0  0  0  0  0  0  0  0
   -5.3356   15.4828  -34.4831 H   0  0  0  0  0  0  0  0  0  0  0  0
   -6.2569   16.7161  -35.4745 H   0  0  0  0  0  0  0  0  0  0  0  0
   -4.0622   18.4747  -33.1884 H   0  0  0  0  0  0  0  0  0  0  0  0
   -3.7603   19.2198  -34.8252 H   0  0  0  0  0  0  0  0  0  0  0  0
   -5.7384   20.2031  -33.7080 H   0  0  0  0  0  0  0  0  0  0  0  0
   -6.1494   19.3316  -35.2472 H   0  0  0  0  0  0  0  0  0  0  0  0
   -1.1785   24.3552  -29.8036 H   0  0  0  0  0  0  0  0  0  0  0  0
    0.3243   24.4929  -27.8194 H   0  0  0  0  0  0  0  0  0  0  0  0
  1  2  1  0
  2  3  1  0
  3  4  2  0
  4  5  1  0
  5  6  2  0
  6  7  1  0
  7  8  1  0
  8  9  2  0
  8 10  1  0
 10 11  1  0
 11 12  2  0
 12 13  1  0
 13 14  2  0
 14 15  1  0
 14 16  1  0
 16 17  1  0
 17 18  2  0
 17 19  2  0
 17 20  1  0
 20 21  1  0
 21 22  1  0
 22 23  1  0
 23 24  1  0
 24 25  1  0
 16 26  2  0
 26 27  1  0
  6 28  1  0
 28 29  2  0
 29  3  1  0
 26 11  1  0
 25 20  1  0
  1 30  1  0
  1 31  1  0
  1 32  1  0
  4 33  1  0
  5 34  1  0
  7 35  1  0
 12 36  1  0
 13 37  1  0
 15 38  1  0
 15 39  1  0
 15 40  1  0
 21 41  1  0
 21 42  1  0
 22 43  1  0
 22 44  1  0
 24 45  1  0
 24 46  1  0
 25 47  1  0
 25 48  1  0
 28 49  1  0
 29 50  1  0
M  CHG  2  10  -1  27  -1
M  END
>  <UniqueID>  (12) 
12

>  <SMILES>  (12) 
COc1ccc(NC(=O)[N-]c2ccc(C)c(S(=O)(=O)N3CCOCC3)c2[O-])cc1

>  <Energy>  (12) 
77.80338237672639

>  <Genealogy>  (12) 
COc1ccc(NC(=O)[N-]c2ccc(C)c(S(=O)(=O)N3CCOCC3)c2[O-])cc1 (protonated)
COc1ccc(NC(=O)[N-]c2ccc(C)c(S(=O)(=O)N3CCOCC3)c2[O-])cc1 (3D coordinates assigned)
COc1ccc(NC(=O)[N-]c2ccc(C)c(S(=O)(=O)N3CCOCC3)c2[O-])cc1 (nonaromatic ring conformer: 77.80338237672639 kcal/mol)

>  <smiles>  (12) 
COc1ccc(NC(=O)Nc2ccc(C)c(S(=O)(=O)N3CCOCC3)c2O)cc1

>  <score_type>  (12) 
oracle

>  <origin>  (12) 
adgpu

>  <m_score__min__energy>  (12) 
-12.529999999999999

>  <m_primary>  (12) 
energy

$$$$
12:0
     RDKit          3D

 44 46  0  0  0  0  0  0  0  0999 V2000
   -5.7160   26.3570  -30.8610 O   0  0  0  0  0  0  0  0  0  0  0  0
   -5.2250   25.1310  -30.1470 S   0  0  0  0  0  0  0  0  0  0  0  0
   -5.4410   25.3100  -28.6700 O   0  0  0  0  0  0  0  0  0  0  0  0
   -3.5300   24.9320  -30.4550 N   0  0  0  0  0  0  0  0  0  0  0  0
   -2.7590   23.7720  -30.1110 C   0  0  0  0  0  0  0  0  0  0  0  0
   -3.0070   22.5720  -30.7860 C   0  0  0  0  0  0  0  0  0  0  0  0
   -2.2750   21.4260  -30.4710 C   0  0  0  0  0  0  0  0  0  0  0  0
   -1.2990   21.4910  -29.4760 C   0  0  0  0  0  0  0  0  0  0  0  0
   -1.0650   22.6630  -28.8280 N   0  0  0  0  0  0  0  0  0  0  0  0
   -1.7630   23.7940  -29.1190 C   0  0  0  0  0  0  0  0  0  0  0  0
   -6.1060   23.7310  -30.7480 C   0  0  0  0  0  0  0  0  0  0  0  0
   -6.1690   23.4910  -32.1260 C   0  0  0  0  0  0  0  0  0  0  0  0
   -6.8360   22.3630  -32.6140 C   0  0  0  0  0  0  0  0  0  0  0  0
   -7.4480   21.4690  -31.7270 C   0  0  0  0  0  0  0  0  0  0  0  0
   -8.2400   20.0230  -32.3520 S   0  0  0  0  0  0  0  0  0  0  0  0
   -9.4820   20.4370  -33.0930 O   0  0  0  0  0  0  0  0  0  0  0  0
   -8.6380   19.1250  -31.2120 O   0  0  0  0  0  0  0  0  0  0  0  0
   -7.1620   19.1720  -33.4340 N   0  0  0  0  0  0  0  0  0  0  0  0
   -5.7910   19.7290  -33.3150 C   0  0  0  0  0  0  0  0  0  0  0  0
   -4.7330   18.7430  -33.8200 C   0  0  0  0  0  0  0  0  0  0  0  0
   -4.7350   17.4530  -32.9810 C   0  0  0  0  0  0  0  0  0  0  0  0
   -6.1050   17.1630  -32.3430 C   0  0  0  0  0  0  0  0  0  0  0  0
   -7.2480   17.7020  -33.2150 C   0  0  0  0  0  0  0  0  0  0  0  0
   -7.3880   21.7080  -30.3470 C   0  0  0  0  0  0  0  0  0  0  0  0
   -6.7230   22.8380  -29.8600 C   0  0  0  0  0  0  0  0  0  0  0  0
   -3.7807   22.5315  -31.5669 H   0  0  0  0  0  0  0  0  0  0  0  0
   -2.4656   20.4815  -31.0017 H   0  0  0  0  0  0  0  0  0  0  0  0
   -0.7186   20.5935  -29.2158 H   0  0  0  0  0  0  0  0  0  0  0  0
   -1.5478   24.7269  -28.5774 H   0  0  0  0  0  0  0  0  0  0  0  0
   -5.6923   24.1920  -32.8269 H   0  0  0  0  0  0  0  0  0  0  0  0
   -6.8800   22.1776  -33.6974 H   0  0  0  0  0  0  0  0  0  0  0  0
   -7.5040   19.3700  -34.4040 H   0  0  0  0  0  0  0  0  0  0  0  0
   -5.7290   20.6532  -33.9083 H   0  0  0  0  0  0  0  0  0  0  0  0
   -5.5933   19.9292  -32.2516 H   0  0  0  0  0  0  0  0  0  0  0  0
   -4.9485   18.4902  -34.8686 H   0  0  0  0  0  0  0  0  0  0  0  0
   -3.7437   19.2159  -33.7326 H   0  0  0  0  0  0  0  0  0  0  0  0
   -4.4641   16.6089  -33.6323 H   0  0  0  0  0  0  0  0  0  0  0  0
   -4.0093   17.5856  -32.1650 H   0  0  0  0  0  0  0  0  0  0  0  0
   -6.2240   16.0756  -32.2271 H   0  0  0  0  0  0  0  0  0  0  0  0
   -6.1470   17.6639  -31.3645 H   0  0  0  0  0  0  0  0  0  0  0  0
   -7.2122   17.1983  -34.1922 H   0  0  0  0  0  0  0  0  0  0  0  0
   -8.1914   17.5003  -32.6866 H   0  0  0  0  0  0  0  0  0  0  0  0
   -7.8643   21.0062  -29.6465 H   0  0  0  0  0  0  0  0  0  0  0  0
   -6.6838   23.0268  -28.7770 H   0  0  0  0  0  0  0  0  0  0  0  0
  1  2  2  0
  2  3  2  0
  2  4  1  0
  4  5  1  0
  5  6  2  0
  6  7  1  0
  7  8  2  0
  8  9  1  0
  9 10  2  0
  2 11  1  0
 11 12  2  0
 12 13  1  0
 13 14  2  0
 14 15  1  0
 15 16  2  0
 15 17  2  0
 15 18  1  0
 18 19  1  0
 19 20  1  0
 20 21  1  0
 21 22  1  0
 22 23  1  0
 14 24  1  0
 24 25  2  0
 10  5  1  0
 25 11  1  0
 23 18  1  0
  6 26  1  0
  7 27  1  0
  8 28  1  0
 10 29  1  0
 12 30  1  0
 13 31  1  0
 18 32  1  0
 19 33  1  0
 19 34  1  0
 20 35  1  0
 20 36  1  0
 21 37  1  0
 21 38  1  0
 22 39  1  0
 22 40  1  0
 23 41  1  0
 23 42  1  0
 24 43  1  0
 25 44  1  0
M  CHG  2   4  -1  18   1
M  END
>  <UniqueID>  (13) 
13

>  <SMILES>  (13) 
O=S(=O)([N-]c1cccnc1)c1ccc(S(=O)(=O)[NH+]2CCCCC2)cc1

>  <Energy>  (13) 
53.849637201454684

>  <Genealogy>  (13) 
O=S(=O)([N-]c1cccnc1)c1ccc(S(=O)(=O)[NH+]2CCCCC2)cc1 (protonated)
O=S(=O)([N-]c1cccnc1)c1ccc(S(=O)(=O)[NH+]2CCCCC2)cc1 (3D coordinates assigned)
O=S(=O)([N-]c1cccnc1)c1ccc(S(=O)(=O)[NH+]2CCCCC2)cc1 (nonaromatic ring conformer: 53.849637201454684 kcal/mol)

>  <smiles>  (13) 
O=S(=O)(Nc1cccnc1)c1ccc(S(=O)(=O)N2CCCCC2)cc1

>  <score_type>  (13) 
oracle

>  <origin>  (13) 
adgpu

>  <m_score__min__energy>  (13) 
-10.27

>  <m_primary>  (13) 
energy

$$$$
13:0
     RDKit          3D

 57 60  0  0  0  0  0  0  0  0999 V2000
   -1.5850   25.6710  -28.9190 O   0  0  0  0  0  0  0  0  0  0  0  0
   -2.6590   24.6210  -28.9560 S   0  0  0  0  0  0  0  0  0  0  0  0
   -3.6330   24.8930  -27.8450 O   0  0  0  0  0  0  0  0  0  0  0  0
   -3.4910   24.6890  -30.4750 N   0  0  0  0  0  0  0  0  0  0  0  0
   -4.6770   23.9500  -30.7950 C   0  0  0  0  0  0  0  0  0  0  0  0
   -5.8370   24.6550  -31.1360 C   0  0  0  0  0  0  0  0  0  0  0  0
   -7.0250   23.9730  -31.4220 C   0  0  0  0  0  0  0  0  0  0  0  0
   -7.0580   22.5700  -31.3780 C   0  0  0  0  0  0  0  0  0  0  0  0
   -8.5520   21.7070  -31.7450 S   0  0  0  0  0  0  0  0  0  0  0  0
   -9.5770   22.6880  -32.2460 O   0  0  0  0  0  0  0  0  0  0  0  0
   -9.0860   21.0980  -30.4790 O   0  0  0  0  0  0  0  0  0  0  0  0
   -8.3220   20.4430  -32.9330 N   0  0  0  0  0  0  0  0  0  0  0  0
   -6.8990   20.2000  -33.2520 C   0  0  0  0  0  0  0  0  0  0  0  0
   -6.3450   18.9300  -32.5840 C   0  0  0  0  0  0  0  0  0  0  0  0
   -7.0010   18.6910  -31.3610 O   0  0  0  0  0  0  0  0  0  0  0  0
   -8.3350   18.2940  -31.6060 C   0  0  0  0  0  0  0  0  0  0  0  0
   -9.0760   19.2170  -32.6050 C   0  0  0  0  0  0  0  0  0  0  0  0
   -5.8980   21.8640  -31.0480 C   0  0  0  0  0  0  0  0  0  0  0  0
   -4.7130   22.5460  -30.7610 C   0  0  0  0  0  0  0  0  0  0  0  0
   -1.9830   23.0100  -28.7350 C   0  0  0  0  0  0  0  0  0  0  0  0
   -1.4420   22.2970  -29.8180 C   0  0  0  0  0  0  0  0  0  0  0  0
   -0.9580   20.9990  -29.6320 C   0  0  0  0  0  0  0  0  0  0  0  0
   -0.9940   20.4070  -28.3630 C   0  0  0  0  0  0  0  0  0  0  0  0
   -0.3540   18.7790  -28.1210 S   0  0  0  0  0  0  0  0  0  0  0  0
   -1.2080   18.0570  -27.1150 O   0  0  0  0  0  0  0  0  0  0  0  0
   -0.4290   18.0210  -29.4190 O   0  0  0  0  0  0  0  0  0  0  0  0
    1.3010   18.8050  -27.5490 N   0  0  0  0  0  0  0  0  0  0  0  0
    1.9240   17.4800  -27.6600 C   0  0  0  0  0  0  0  0  0  0  0  0
    2.8450   17.4730  -28.8750 C   0  0  0  0  0  0  0  0  0  0  0  0
    2.8480   18.8910  -29.4030 C   0  0  0  0  0  0  0  0  0  0  0  0
    2.1220   19.7160  -28.3520 C   0  0  0  0  0  0  0  0  0  0  0  0
   -1.5260   21.1230  -27.2810 C   0  0  0  0  0  0  0  0  0  0  0  0
   -2.0220   22.4170  -27.4670 C   0  0  0  0  0  0  0  0  0  0  0  0
   -5.8147   25.7539  -31.1795 H   0  0  0  0  0  0  0  0  0  0  0  0
   -7.9335   24.5364  -31.6814 H   0  0  0  0  0  0  0  0  0  0  0  0
   -6.7963   20.0966  -34.3423 H   0  0  0  0  0  0  0  0  0  0  0  0
   -6.3233   21.0543  -32.8662 H   0  0  0  0  0  0  0  0  0  0  0  0
   -6.5018   18.0710  -33.2530 H   0  0  0  0  0  0  0  0  0  0  0  0
   -5.2710   19.0686  -32.3910 H   0  0  0  0  0  0  0  0  0  0  0  0
   -8.3257   17.2730  -32.0151 H   0  0  0  0  0  0  0  0  0  0  0  0
   -8.8731   18.3523  -30.6484 H   0  0  0  0  0  0  0  0  0  0  0  0
   -9.2525   18.6559  -33.5345 H   0  0  0  0  0  0  0  0  0  0  0  0
  -10.0158   19.5294  -32.1262 H   0  0  0  0  0  0  0  0  0  0  0  0
   -5.9181   20.7647  -31.0140 H   0  0  0  0  0  0  0  0  0  0  0  0
   -3.8039   21.9811  -30.5072 H   0  0  0  0  0  0  0  0  0  0  0  0
   -1.3992   22.7612  -30.8143 H   0  0  0  0  0  0  0  0  0  0  0  0
   -0.5471   20.4401  -30.4857 H   0  0  0  0  0  0  0  0  0  0  0  0
    2.5076   17.2681  -26.7520 H   0  0  0  0  0  0  0  0  0  0  0  0
    1.1476   16.7092  -27.7739 H   0  0  0  0  0  0  0  0  0  0  0  0
    3.8617   17.1718  -28.5824 H   0  0  0  0  0  0  0  0  0  0  0  0
    2.5007   16.7593  -29.6379 H   0  0  0  0  0  0  0  0  0  0  0  0
    3.8793   19.2518  -29.5304 H   0  0  0  0  0  0  0  0  0  0  0  0
    2.3605   18.9618  -30.3865 H   0  0  0  0  0  0  0  0  0  0  0  0
    2.8529   20.2262  -27.7074 H   0  0  0  0  0  0  0  0  0  0  0  0
    1.4898   20.4769  -28.8330 H   0  0  0  0  0  0  0  0  0  0  0  0
   -1.5532   20.6646  -26.2814 H   0  0  0  0  0  0  0  0  0  0  0  0
   -2.4439   22.9706  -26.6152 H   0  0  0  0  0  0  0  0  0  0  0  0
  1  2  2  0
  2  3  2  0
  2  4  1  0
  4  5  1  0
  5  6  2  0
  6  7  1  0
  7  8  2  0
  8  9  1  0
  9 10  2  0
  9 11  2  0
  9 12  1  0
 12 13  1  0
 13 14  1  0
 14 15  1  0
 15 16  1  0
 16 17  1  0
  8 18  1  0
 18 19  2  0
  2 20  1  0
 20 21  2  0
 21 22  1  0
 22 23  2  0
 23 24  1  0
 24 25  2  0
 24 26  2  0
 24 27  1  0
 27 28  1  0
 28 29  1  0
 29 30  1  0
 30 31  1  0
 23 32  1  0
 32 33  2  0
 19  5  1  0
 33 20  1  0
 17 12  1  0
 31 27  1  0
  6 34  1  0
  7 35  1  0
 13 36  1  0
 13 37  1  0
 14 38  1  0
 14 39  1  0
 16 40  1  0
 16 41  1  0
 17 42  1  0
 17 43  1  0
 18 44  1  0
 19 45  1  0
 21 46  1  0
 22 47  1  0
 28 48  1  0
 28 49  1  0
 29 50  1  0
 29 51  1  0
 30 52  1  0
 30 53  1  0
 31 54  1  0
 31 55  1  0
 32 56  1  0
 33 57  1  0
M  CHG  1   4  -1
M  END
>  <UniqueID>  (14) 
14

>  <SMILES>  (14) 
O=S(=O)([N-]c1ccc(S(=O)(=O)N2CCOCC2)cc1)c1ccc(S(=O)(=O)N2CCCC2)cc1

>  <Energy>  (14) 
73.35093676714102

>  <Genealogy>  (14) 
O=S(=O)([N-]c1ccc(S(=O)(=O)N2CCOCC2)cc1)c1ccc(S(=O)(=O)N2CCCC2)cc1 (protonated)
O=S(=O)([N-]c1ccc(S(=O)(=O)N2CCOCC2)cc1)c1ccc(S(=O)(=O)N2CCCC2)cc1 (3D coordinates assigned)
O=S(=O)([N-]c1ccc(S(=O)(=O)N2CCOCC2)cc1)c1ccc(S(=O)(=O)N2CCCC2)cc1 (nonaromatic ring conformer: 73.35093676714102 kcal/mol)

>  <smiles>  (14) 
O=S(=O)(Nc1ccc(S(=O)(=O)N2CCOCC2)cc1)c1ccc(S(=O)(=O)N2CCCC2)cc1

>  <score_type>  (14) 
oracle

>  <origin>  (14) 
adgpu

>  <m_score__min__energy>  (14) 
-11.83

>  <m_primary>  (14) 
energy

$$$$
14:0
     RDKit          3D

 40 42  0  0  1  0  0  0  0  0999 V2000
   -1.5970   25.9940  -25.1180 C   0  0  0  0  0  0  0  0  0  0  0  0
   -0.4130   25.2540  -24.6690 N   0  0  0  0  0  0  0  0  0  0  0  0
    0.5560   24.9590  -25.6720 C   0  0  0  0  0  0  0  0  0  0  0  0
    0.6170   24.9640  -27.0680 C   0  0  0  0  0  0  0  0  0  0  0  0
   -0.2910   25.2750  -28.1170 N   0  0  0  0  0  0  0  0  0  0  0  0
   -1.2950   24.5060  -28.3350 C   0  0  0  0  0  0  0  0  0  0  0  0
   -1.5540   23.3680  -27.5930 C   0  0  0  0  0  0  0  0  0  0  0  0
   -2.6570   22.5630  -27.8660 C   0  0  0  0  0  0  0  0  0  0  0  0
   -3.4840   22.9050  -28.8720 N   0  0  0  0  0  0  0  0  0  0  0  0
   -3.2270   24.0140  -29.5890 C   0  0  0  0  0  0  0  0  0  0  0  0
   -4.0600   24.2870  -30.5420 N   0  0  0  0  0  0  0  0  0  0  0  0
   -5.1920   23.4720  -30.8310 C   0  0  0  0  0  0  0  0  0  0  0  0
   -4.9800   22.3810  -31.6640 C   0  0  0  0  0  0  0  0  0  0  0  0
   -5.9970   21.5130  -32.0190 C   0  0  0  0  0  0  0  0  0  0  0  0
   -7.2570   21.7410  -31.5320 C   0  0  0  0  0  0  0  0  0  0  0  0
   -8.5300   20.6400  -31.9880 S   0  0  0  0  0  0  0  0  0  0  0  0
   -8.0550   19.8290  -33.4350 N   0  0  0  0  0  0  0  0  0  0  0  0
   -8.8650   19.6790  -30.9030 O   0  0  0  0  0  0  0  0  0  0  0  0
   -9.7500   21.4590  -32.3230 O   0  0  0  0  0  0  0  0  0  0  0  0
   -7.4470   22.8270  -30.7090 C   0  0  0  0  0  0  0  0  0  0  0  0
   -6.4410   23.6980  -30.3490 C   0  0  0  0  0  0  0  0  0  0  0  0
   -2.1490   24.8080  -29.3300 N   0  0  0  0  0  0  0  0  0  0  0  0
    1.9340   24.5400  -27.0100 C   0  0  0  0  0  0  0  0  0  0  0  0
    2.8670   24.2530  -27.7930 O   0  0  0  0  0  0  0  0  0  0  0  0
    1.8860   24.5300  -25.6160 C   0  0  0  0  0  0  0  0  0  0  0  0
    2.7020   24.2520  -24.6900 O   0  0  0  0  0  0  0  0  0  0  0  0
   -2.1622   26.3473  -24.2430 H   0  0  0  0  0  0  0  0  0  0  0  0
   -1.2824   26.8565  -25.7239 H   0  0  0  0  0  0  0  0  0  0  0  0
   -2.2344   25.3332  -25.7239 H   0  0  0  0  0  0  0  0  0  0  0  0
   -0.3030   24.9650  -23.6640 H   0  0  0  0  0  0  0  0  0  0  0  0
   -0.8758   23.0935  -26.7716 H   0  0  0  0  0  0  0  0  0  0  0  0
   -2.8500   21.6601  -27.2680 H   0  0  0  0  0  0  0  0  0  0  0  0
   -4.3220   22.2900  -29.0760 H   0  0  0  0  0  0  0  0  0  0  0  0
   -3.9678   22.2008  -32.0552 H   0  0  0  0  0  0  0  0  0  0  0  0
   -5.7978   20.6563  -32.6796 H   0  0  0  0  0  0  0  0  0  0  0  0
   -8.4250   18.8520  -33.4730 H   0  0  0  0  0  0  0  0  0  0  0  0
   -8.4370   20.3790  -34.2510 H   0  0  0  0  0  0  0  0  0  0  0  0
   -8.4580   23.0105  -30.3164 H   0  0  0  0  0  0  0  0  0  0  0  0
   -6.6448   24.5537  -29.6885 H   0  0  0  0  0  0  0  0  0  0  0  0
   -1.9930   25.6700  -29.9230 H   0  0  0  0  0  0  0  0  0  0  0  0
  1  2  1  0
  2  3  1  0
  3  4  2  0
  4  5  1  0
  5  6  2  0
  6  7  1  0
  7  8  2  0
  8  9  1  0
  9 10  1  0
 10 11  2  0
 11 12  1  0
 12 13  2  0
 13 14  1  0
 14 15  2  0
 15 16  1  0
 16 17  1  0
 16 18  2  0
 16 19  2  0
 15 20  1  0
 20 21  2  0
 10 22  1  0
  4 23  1  0
 23 24  2  0
 23 25  1  0
 25 26  2  0
 25  3  1  0
 22  6  1  0
 21 12  1  0
  1 27  1  0
  1 28  1  0
  1 29  1  0
  2 30  1  0
  7 31  1  0
  8 32  1  0
  9 33  1  0
 13 34  1  0
 14 35  1  0
 17 36  1  0
 17 37  1  0
 20 38  1  0
 21 39  1  0
 22 40  1  0
M  END
>  <smiles>  (15) 
CNc1c(N=c2cc[nH]c(=Nc3ccc(S(N)(=O)=O)cc3)[nH]2)c(=O)c1=O

>  <score_type>  (15) 
oracle

>  <origin>  (15) 
adgpu

>  <m_score__min__energy>  (15) 
-9.0399999999999991

>  <m_primary>  (15) 
energy

$$$$
15:0
     RDKit          3D

 54 57  0  0  0  0  0  0  0  0999 V2000
   -9.2350   18.9310  -32.4140 C   0  0  0  0  0  0  0  0  0  0  0  0
   -9.3600   20.3450  -32.2940 O   0  0  0  0  0  0  0  0  0  0  0  0
   -8.3460   21.1920  -31.8210 C   0  0  0  0  0  0  0  0  0  0  0  0
   -7.2090   21.3750  -32.6140 C   0  0  0  0  0  0  0  0  0  0  0  0
   -6.1700   22.2050  -32.1860 C   0  0  0  0  0  0  0  0  0  0  0  0
   -6.2520   22.8700  -30.9520 C   0  0  0  0  0  0  0  0  0  0  0  0
   -5.1480   23.7390  -30.4920 C   0  0  0  0  0  0  0  0  0  0  0  0
   -4.6550   24.7690  -31.2080 N   0  0  0  0  0  0  0  0  0  0  0  0
   -3.6790   25.2990  -30.4910 N   0  0  0  0  0  0  0  0  0  0  0  0
   -3.6080   24.5850  -29.3530 C   0  0  0  0  0  0  0  0  0  0  0  0
   -2.5970   24.8300  -28.2830 C   0  0  0  0  0  0  0  0  0  0  0  0
   -2.2020   23.5560  -27.6860 N   0  0  0  0  0  0  0  0  0  0  0  0
   -0.7930   22.9400  -28.4940 S   0  0  0  0  0  0  0  0  0  0  0  0
    0.0410   24.0830  -29.0030 O   0  0  0  0  0  0  0  0  0  0  0  0
    0.0290   22.1510  -27.5140 O   0  0  0  0  0  0  0  0  0  0  0  0
   -1.2640   21.8910  -29.8290 C   0  0  0  0  0  0  0  0  0  0  0  0
   -2.0130   22.4090  -30.8940 C   0  0  0  0  0  0  0  0  0  0  0  0
   -2.3720   21.5880  -31.9660 C   0  0  0  0  0  0  0  0  0  0  0  0
   -1.9840   20.2420  -31.9860 C   0  0  0  0  0  0  0  0  0  0  0  0
   -2.4380   19.2020  -33.3400 S   0  0  0  0  0  0  0  0  0  0  0  0
   -1.3790   18.1520  -33.5290 O   0  0  0  0  0  0  0  0  0  0  0  0
   -2.5060   20.0270  -34.5950 O   0  0  0  0  0  0  0  0  0  0  0  0
   -3.9790   18.4240  -33.0750 N   0  0  0  0  0  0  0  0  0  0  0  0
   -4.7520   18.3680  -34.3280 C   0  0  0  0  0  0  0  0  0  0  0  0
   -6.2010   17.9140  -34.0560 C   0  0  0  0  0  0  0  0  0  0  0  0
   -6.3340   17.3920  -32.7480 O   0  0  0  0  0  0  0  0  0  0  0  0
   -6.0880   18.4120  -31.7930 C   0  0  0  0  0  0  0  0  0  0  0  0
   -4.7430   19.1320  -32.0380 C   0  0  0  0  0  0  0  0  0  0  0  0
   -1.2290   19.7250  -30.9240 C   0  0  0  0  0  0  0  0  0  0  0  0
   -0.8700   20.5460  -29.8510 C   0  0  0  0  0  0  0  0  0  0  0  0
   -4.5100   23.5840  -29.3130 N   0  0  0  0  0  0  0  0  0  0  0  0
   -7.3960   22.6900  -30.1550 C   0  0  0  0  0  0  0  0  0  0  0  0
   -8.4370   21.8610  -30.5850 C   0  0  0  0  0  0  0  0  0  0  0  0
   -9.1951   18.4800  -31.4115 H   0  0  0  0  0  0  0  0  0  0  0  0
  -10.1013   18.5315  -32.9616 H   0  0  0  0  0  0  0  0  0  0  0  0
   -8.3120   18.6897  -32.9616 H   0  0  0  0  0  0  0  0  0  0  0  0
   -7.1320   20.8609  -33.5834 H   0  0  0  0  0  0  0  0  0  0  0  0
   -5.2812   22.3386  -32.8203 H   0  0  0  0  0  0  0  0  0  0  0  0
   -1.7139   25.3206  -28.7182 H   0  0  0  0  0  0  0  0  0  0  0  0
   -3.0322   25.4788  -27.5086 H   0  0  0  0  0  0  0  0  0  0  0  0
   -2.3193   23.4655  -30.8860 H   0  0  0  0  0  0  0  0  0  0  0  0
   -2.9619   22.0003  -32.7979 H   0  0  0  0  0  0  0  0  0  0  0  0
   -4.7671   19.3672  -34.7877 H   0  0  0  0  0  0  0  0  0  0  0  0
   -4.2759   17.6432  -35.0047 H   0  0  0  0  0  0  0  0  0  0  0  0
   -6.8748   18.7761  -34.1690 H   0  0  0  0  0  0  0  0  0  0  0  0
   -6.4604   17.1236  -34.7757 H   0  0  0  0  0  0  0  0  0  0  0  0
   -6.9004   19.1516  -31.8480 H   0  0  0  0  0  0  0  0  0  0  0  0
   -6.0413   17.9399  -30.8006 H   0  0  0  0  0  0  0  0  0  0  0  0
   -4.9361   20.1636  -32.3674 H   0  0  0  0  0  0  0  0  0  0  0  0
   -4.1623   19.1429  -31.1038 H   0  0  0  0  0  0  0  0  0  0  0  0
   -0.9181   18.6699  -30.9350 H   0  0  0  0  0  0  0  0  0  0  0  0
   -0.2763   20.1351  -29.0211 H   0  0  0  0  0  0  0  0  0  0  0  0
   -7.4729   23.2050  -29.1860 H   0  0  0  0  0  0  0  0  0  0  0  0
   -9.3298   21.7310  -29.9558 H   0  0  0  0  0  0  0  0  0  0  0  0
  1  2  1  0
  2  3  1  0
  3  4  2  0
  4  5  1  0
  5  6  2  0
  6  7  1  0
  7  8  2  0
  8  9  1  0
  9 10  1  0
 10 11  1  0
 11 12  1  0
 12 13  1  0
 13 14  2  0
 13 15  2  0
 13 16  1  0
 16 17  2  0
 17 18  1  0
 18 19  2  0
 19 20  1  0
 20 21  2  0
 20 22  2  0
 20 23  1  0
 23 24  1  0
 24 25  1  0
 25 26  1  0
 26 27  1  0
 27 28  1  0
 19 29  1  0
 29 30  2  0
 10 31  2  0
  6 32  1  0
 32 33  2  0
 33  3  1  0
 31  7  1  0
 30 16  1  0
 28 23  1  0
  1 34  1  0
  1 35  1  0
  1 36  1  0
  4 37  1  0
  5 38  1  0
 11 39  1  0
 11 40  1  0
 17 41  1  0
 18 42  1  0
 24 43  1  0
 24 44  1  0
 25 45  1  0
 25 46  1  0
 27 47  1  0
 27 48  1  0
 28 49  1  0
 28 50  1  0
 29 51  1  0
 30 52  1  0
 32 53  1  0
 33 54  1  0
M  CHG  2   9  -1  12  -1
M  END
>  <UniqueID>  (16) 
15

>  <SMILES>  (16) 
COc1ccc(-c2n[n-]c(C[N-]S(=O)(=O)c3ccc(S(=O)(=O)N4CCOCC4)cc3)n2)cc1

>  <Energy>  (16) 
93.19318092542471

>  <Genealogy>  (16) 
COc1ccc(-c2n[n-]c(C[N-]S(=O)(=O)c3ccc(S(=O)(=O)N4CCOCC4)cc3)n2)cc1 (protonated)
COc1ccc(-c2n[n-]c(C[N-]S(=O)(=O)c3ccc(S(=O)(=O)N4CCOCC4)cc3)n2)cc1 (3D coordinates assigned)
COc1ccc(-c2n[n-]c(C[N-]S(=O)(=O)c3ccc(S(=O)(=O)N4CCOCC4)cc3)n2)cc1 (nonaromatic ring conformer: 93.19318092542471 kcal/mol)

>  <smiles>  (16) 
COc1ccc(-c2n[nH]c(CNS(=O)(=O)c3ccc(S(=O)(=O)N4CCOCC4)cc3)n2)cc1

>  <score_type>  (16) 
oracle

>  <origin>  (16) 
adgpu

>  <m_score__min__energy>  (16) 
-11.970000000000001

>  <m_primary>  (16) 
energy

$$$$
16:0
     RDKit          3D

 74 77  0  0  0  0  0  0  0  0999 V2000
   -9.5470   21.8920  -31.9970 C   0  0  0  0  0  0  0  0  0  0  0  0
   -8.2320   22.4330  -31.5200 C   0  0  0  0  0  0  0  0  0  0  0  0
   -7.8050   22.1820  -30.2070 C   0  0  0  0  0  0  0  0  0  0  0  0
   -6.5830   22.6870  -29.7550 C   0  0  0  0  0  0  0  0  0  0  0  0
   -5.7780   23.4570  -30.6080 C   0  0  0  0  0  0  0  0  0  0  0  0
   -4.2170   24.0600  -30.0620 S   0  0  0  0  0  0  0  0  0  0  0  0
   -4.2680   24.3930  -28.5960 O   0  0  0  0  0  0  0  0  0  0  0  0
   -3.8780   25.3080  -30.8300 O   0  0  0  0  0  0  0  0  0  0  0  0
   -2.9760   22.8840  -30.3440 N   0  0  0  0  0  0  0  0  0  0  0  0
   -2.8840   22.0490  -31.5010 C   0  0  0  0  0  0  0  0  0  0  0  0
   -3.9500   21.7180  -32.0850 O   0  0  0  0  0  0  0  0  0  0  0  0
   -1.6130   21.4100  -31.9130 C   0  0  0  0  0  0  0  0  0  0  0  0
   -0.9690   20.5470  -31.0170 C   0  0  0  0  0  0  0  0  0  0  0  0
    0.2190   19.9100  -31.3730 C   0  0  0  0  0  0  0  0  0  0  0  0
    0.7920   20.1060  -32.6430 C   0  0  0  0  0  0  0  0  0  0  0  0
    2.0090   19.4160  -32.9960 N   0  0  0  0  0  0  0  0  0  0  0  0
    2.6040   18.3930  -32.1300 C   0  0  0  0  0  0  0  0  0  0  0  0
    2.7450   17.0510  -32.8560 C   0  0  0  0  0  0  0  0  0  0  0  0
    1.8110   16.0530  -32.3440 N   0  0  0  0  0  0  0  0  0  0  0  0
    0.3960   16.1500  -32.5030 C   0  0  0  0  0  0  0  0  0  0  0  0
   -0.3580   15.6660  -31.6180 O   0  0  0  0  0  0  0  0  0  0  0  0
   -0.1500   16.8770  -33.6130 N   0  0  0  0  0  0  0  0  0  0  0  0
   -1.5410   17.1950  -33.7470 C   0  0  0  0  0  0  0  0  0  0  0  0
   -2.5250   16.1940  -33.7030 C   0  0  0  0  0  0  0  0  0  0  0  0
   -3.8740   16.5250  -33.8710 C   0  0  0  0  0  0  0  0  0  0  0  0
   -4.2520   17.8580  -34.0740 C   0  0  0  0  0  0  0  0  0  0  0  0
   -5.9500   18.2730  -34.3150 S   0  0  0  0  0  0  0  0  0  0  0  0
   -6.0990   18.8880  -35.6790 O   0  0  0  0  0  0  0  0  0  0  0  0
   -6.7820   17.0210  -34.2710 O   0  0  0  0  0  0  0  0  0  0  0  0
   -6.4920   19.4210  -33.1080 N   0  0  0  0  0  0  0  0  0  0  0  0
   -5.7160   19.3260  -31.8590 C   0  0  0  0  0  0  0  0  0  0  0  0
   -6.0830   18.0700  -31.0320 C   0  0  0  0  0  0  0  0  0  0  0  0
   -7.3210   17.4900  -31.4040 O   0  0  0  0  0  0  0  0  0  0  0  0
   -8.2880   18.4960  -31.6090 C   0  0  0  0  0  0  0  0  0  0  0  0
   -7.9490   19.3140  -32.8700 C   0  0  0  0  0  0  0  0  0  0  0  0
   -3.2710   18.8570  -34.1240 C   0  0  0  0  0  0  0  0  0  0  0  0
   -1.9220   18.5240  -33.9770 C   0  0  0  0  0  0  0  0  0  0  0  0
    0.1440   20.9710  -33.5600 C   0  0  0  0  0  0  0  0  0  0  0  0
    0.7840   21.2640  -35.1870 S   0  0  0  0  0  0  0  0  0  0  0  0
    0.5060   22.9030  -35.6610 N   0  0  0  0  0  0  0  0  0  0  0  0
    0.0980   20.3510  -36.1630 O   0  0  0  0  0  0  0  0  0  0  0  0
    2.2650   21.0110  -35.2150 O   0  0  0  0  0  0  0  0  0  0  0  0
   -1.0520   21.6090  -33.1840 C   0  0  0  0  0  0  0  0  0  0  0  0
   -6.2100   23.7200  -31.9150 C   0  0  0  0  0  0  0  0  0  0  0  0
   -7.4340   23.2190  -32.3670 C   0  0  0  0  0  0  0  0  0  0  0  0
  -10.1735   21.6342  -31.1304 H   0  0  0  0  0  0  0  0  0  0  0  0
  -10.0577   22.6531  -32.6052 H   0  0  0  0  0  0  0  0  0  0  0  0
   -9.3743   20.9919  -32.6052 H   0  0  0  0  0  0  0  0  0  0  0  0
   -8.4348   21.5853  -29.5308 H   0  0  0  0  0  0  0  0  0  0  0  0
   -6.2510   22.4801  -28.7269 H   0  0  0  0  0  0  0  0  0  0  0  0
   -1.4049   20.3702  -30.0227 H   0  0  0  0  0  0  0  0  0  0  0  0
    0.7152   19.2449  -30.6509 H   0  0  0  0  0  0  0  0  0  0  0  0
    2.4990   19.6630  -33.8830 H   0  0  0  0  0  0  0  0  0  0  0  0
    3.6003   18.7319  -31.8098 H   0  0  0  0  0  0  0  0  0  0  0  0
    1.9412   18.2475  -31.2642 H   0  0  0  0  0  0  0  0  0  0  0  0
    2.5492   17.2043  -33.9275 H   0  0  0  0  0  0  0  0  0  0  0  0
    3.7665   16.6789  -32.6881 H   0  0  0  0  0  0  0  0  0  0  0  0
    0.5170   17.3660  -34.2500 H   0  0  0  0  0  0  0  0  0  0  0  0
   -2.2342   15.1464  -33.5359 H   0  0  0  0  0  0  0  0  0  0  0  0
   -4.6399   15.7359  -33.8435 H   0  0  0  0  0  0  0  0  0  0  0  0
   -4.6459   19.2837  -32.1100 H   0  0  0  0  0  0  0  0  0  0  0  0
   -5.9515   20.2106  -31.2490 H   0  0  0  0  0  0  0  0  0  0  0  0
   -5.2913   17.3189  -31.1698 H   0  0  0  0  0  0  0  0  0  0  0  0
   -6.1774   18.3893  -29.9836 H   0  0  0  0  0  0  0  0  0  0  0  0
   -9.2763   18.0294  -31.7339 H   0  0  0  0  0  0  0  0  0  0  0  0
   -8.2960   19.1677  -30.7380 H   0  0  0  0  0  0  0  0  0  0  0  0
   -8.4127   18.8269  -33.7404 H   0  0  0  0  0  0  0  0  0  0  0  0
   -8.3362   20.3324  -32.7189 H   0  0  0  0  0  0  0  0  0  0  0  0
   -3.5635   19.9060  -34.2793 H   0  0  0  0  0  0  0  0  0  0  0  0
   -1.1546   19.3094  -34.0422 H   0  0  0  0  0  0  0  0  0  0  0  0
   -0.4920   22.9700  -35.9620 H   0  0  0  0  0  0  0  0  0  0  0  0
   -1.5565   22.2757  -33.8988 H   0  0  0  0  0  0  0  0  0  0  0  0
   -5.5831   24.3233  -32.5880 H   0  0  0  0  0  0  0  0  0  0  0  0
   -7.7733   23.4411  -33.3895 H   0  0  0  0  0  0  0  0  0  0  0  0
  1  2  1  0
  2  3  2  0
  3  4  1  0
  4  5  2  0
  5  6  1  0
  6  7  2  0
  6  8  2  0
  6  9  1  0
  9 10  1  0
 10 11  2  0
 10 12  1  0
 12 13  2  0
 13 14  1  0
 14 15  2  0
 15 16  1  0
 16 17  1  0
 17 18  1  0
 18 19  1  0
 19 20  1  0
 20 21  2  0
 20 22  1  0
 22 23  1  0
 23 24  2  0
 24 25  1  0
 25 26  2  0
 26 27  1  0
 27 28  2  0
 27 29  2  0
 27 30  1  0
 30 31  1  0
 31 32  1  0
 32 33  1  0
 33 34  1  0
 34 35  1  0
 26 36  1  0
 36 37  2  0
 15 38  1  0
 38 39  1  0
 39 40  1  0
 39 41  2  0
 39 42  2  0
 38 43  2  0
  5 44  1  0
 44 45  2  0
 45  2  1  0
 43 12  1  0
 37 23  1  0
 35 30  1  0
  1 46  1  0
  1 47  1  0
  1 48  1  0
  3 49  1  0
  4 50  1  0
 13 51  1  0
 14 52  1  0
 16 53  1  0
 17 54  1  0
 17 55  1  0
 18 56  1  0
 18 57  1  0
 22 58  1  0
 24 59  1  0
 25 60  1  0
 31 61  1  0
 31 62  1  0
 32 63  1  0
 32 64  1  0
 34 65  1  0
 34 66  1  0
 35 67  1  0
 35 68  1  0
 36 69  1  0
 37 70  1  0
 40 71  1  0
 43 72  1  0
 44 73  1  0
 45 74  1  0
M  CHG  3   9  -1  19  -1  40  -1
M  END
>  <UniqueID>  (17) 
16

>  <SMILES>  (17) 
Cc1ccc(S(=O)(=O)[N-]C(=O)c2ccc(NCC[N-]C(=O)Nc3ccc(S(=O)(=O)N4CCOCC4)cc3)c(S([NH-])(=O)=O)c2)cc1

>  <Energy>  (17) 
105.96206304740234

>  <Genealogy>  (17) 
Cc1ccc(S(=O)(=O)[N-]C(=O)c2ccc(NCC[N-]C(=O)Nc3ccc(S(=O)(=O)N4CCOCC4)cc3)c(S([NH-])(=O)=O)c2)cc1 (protonated)
Cc1ccc(S(=O)(=O)[N-]C(=O)c2ccc(NCC[N-]C(=O)Nc3ccc(S(=O)(=O)N4CCOCC4)cc3)c(S([NH-])(=O)=O)c2)cc1 (3D coordinates assigned)
Cc1ccc(S(=O)(=O)[N-]C(=O)c2ccc(NCC[N-]C(=O)Nc3ccc(S(=O)(=O)N4CCOCC4)cc3)c(S([NH-])(=O)=O)c2)cc1 (nonaromatic ring conformer: 105.96206304740234 kcal/mol)

>  <smiles>  (17) 
Cc1ccc(S(=O)(=O)NC(=O)c2ccc(NCCNC(=O)Nc3ccc(S(=O)(=O)N4CCOCC4)cc3)c(S(N)(=O)=O)c2)cc1

>  <score_type>  (17) 
oracle

>  <origin>  (17) 
adgpu

>  <m_score__min__energy>  (17) 
-13.460000000000001

>  <m_primary>  (17) 
energy

$$$$
17:0
     RDKit          3D

 45 47  0  0  0  0  0  0  0  0999 V2000
   -4.0240   25.6280  -30.8290 O   0  0  0  0  0  0  0  0  0  0  0  0
   -4.1430   24.5380  -30.2060 C   0  0  0  0  0  0  0  0  0  0  0  0
   -5.2280   23.6120  -30.5880 C   0  0  0  0  0  0  0  0  0  0  0  0
   -6.4650   24.1190  -31.0160 C   0  0  0  0  0  0  0  0  0  0  0  0
   -7.4900   23.2480  -31.3990 C   0  0  0  0  0  0  0  0  0  0  0  0
   -7.2860   21.8640  -31.3700 C   0  0  0  0  0  0  0  0  0  0  0  0
   -8.5830   20.7800  -31.8730 S   0  0  0  0  0  0  0  0  0  0  0  0
   -9.0770   19.9870  -30.6950 O   0  0  0  0  0  0  0  0  0  0  0  0
   -9.7200   21.6090  -32.4040 O   0  0  0  0  0  0  0  0  0  0  0  0
   -8.0030   19.6990  -33.1180 N   0  0  0  0  0  0  0  0  0  0  0  0
   -7.8090   18.3440  -32.5470 C   0  0  0  0  0  0  0  0  0  0  0  0
   -6.8790   17.4920  -33.4170 C   0  0  0  0  0  0  0  0  0  0  0  0
   -5.4750   18.1160  -33.5000 C   0  0  0  0  0  0  0  0  0  0  0  0
   -5.4880   19.6390  -33.2800 C   0  0  0  0  0  0  0  0  0  0  0  0
   -6.7970   20.2600  -33.7900 C   0  0  0  0  0  0  0  0  0  0  0  0
   -6.0440   21.3550  -30.9680 C   0  0  0  0  0  0  0  0  0  0  0  0
   -5.0180   22.2240  -30.5850 C   0  0  0  0  0  0  0  0  0  0  0  0
   -3.2290   24.2290  -29.1360 N   0  0  0  0  0  0  0  0  0  0  0  0
   -3.5760   23.4050  -27.9890 C   0  0  0  0  0  0  0  0  0  0  0  0
   -2.3540   23.4260  -27.0820 C   0  0  0  0  0  0  0  0  0  0  0  0
   -1.5070   24.6090  -27.5450 C   0  0  0  0  0  0  0  0  0  0  0  0
   -1.9660   24.9250  -28.9620 C   0  0  0  0  0  0  0  0  0  0  0  0
   -6.6289   25.2062  -31.0503 H   0  0  0  0  0  0  0  0  0  0  0  0
   -8.4599   23.6523  -31.7242 H   0  0  0  0  0  0  0  0  0  0  0  0
   -8.7650   19.6370  -33.8330 H   0  0  0  0  0  0  0  0  0  0  0  0
   -7.3700   18.4395  -31.5429 H   0  0  0  0  0  0  0  0  0  0  0  0
   -8.7890   17.8465  -32.5022 H   0  0  0  0  0  0  0  0  0  0  0  0
   -6.7999   16.4856  -32.9801 H   0  0  0  0  0  0  0  0  0  0  0  0
   -7.2995   17.4400  -34.4321 H   0  0  0  0  0  0  0  0  0  0  0  0
   -4.8388   17.6547  -32.7303 H   0  0  0  0  0  0  0  0  0  0  0  0
   -5.0881   17.9299  -34.5127 H   0  0  0  0  0  0  0  0  0  0  0  0
   -5.3864   19.8476  -32.2047 H   0  0  0  0  0  0  0  0  0  0  0  0
   -4.6504   20.0802  -33.8402 H   0  0  0  0  0  0  0  0  0  0  0  0
   -6.7658   21.3444  -33.6080 H   0  0  0  0  0  0  0  0  0  0  0  0
   -6.8776   20.0282  -34.8623 H   0  0  0  0  0  0  0  0  0  0  0  0
   -5.8757   20.2681  -30.9537 H   0  0  0  0  0  0  0  0  0  0  0  0
   -4.0421   21.8184  -30.2800 H   0  0  0  0  0  0  0  0  0  0  0  0
   -4.4488   23.8233  -27.4663 H   0  0  0  0  0  0  0  0  0  0  0  0
   -3.8405   22.3806  -28.2902 H   0  0  0  0  0  0  0  0  0  0  0  0
   -2.6584   23.5609  -26.0336 H   0  0  0  0  0  0  0  0  0  0  0  0
   -1.7930   22.4816  -27.1396 H   0  0  0  0  0  0  0  0  0  0  0  0
   -1.6701   25.4761  -26.8881 H   0  0  0  0  0  0  0  0  0  0  0  0
   -0.4332   24.3727  -27.5127 H   0  0  0  0  0  0  0  0  0  0  0  0
   -2.1062   26.0090  -29.0860 H   0  0  0  0  0  0  0  0  0  0  0  0
   -1.2230   24.6059  -29.7077 H   0  0  0  0  0  0  0  0  0  0  0  0
  1  2  2  0
  2  3  1  0
  3  4  2  0
  4  5  1  0
  5  6  2  0
  6  7  1  0
  7  8  2  0
  7  9  2  0
  7 10  1  0
 10 11  1  0
 11 12  1  0
 12 13  1  0
 13 14  1  0
 14 15  1  0
  6 16  1  0
 16 17  2  0
  2 18  1  0
 18 19  1  0
 19 20  1  0
 20 21  1  0
 21 22  1  0
 17  3  1  0
 22 18  1  0
 15 10  1  0
  4 23  1  0
  5 24  1  0
 10 25  1  0
 11 26  1  0
 11 27  1  0
 12 28  1  0
 12 29  1  0
 13 30  1  0
 13 31  1  0
 14 32  1  0
 14 33  1  0
 15 34  1  0
 15 35  1  0
 16 36  1  0
 17 37  1  0
 19 38  1  0
 19 39  1  0
 20 40  1  0
 20 41  1  0
 21 42  1  0
 21 43  1  0
 22 44  1  0
 22 45  1  0
M  CHG  1  10   1
M  END
>  <UniqueID>  (18) 
17

>  <SMILES>  (18) 
O=C(c1ccc(S(=O)(=O)[NH+]2CCCCC2)cc1)N1CCCC1

>  <Energy>  (18) 
54.32739084943219

>  <Genealogy>  (18) 
O=C(c1ccc(S(=O)(=O)[NH+]2CCCCC2)cc1)N1CCCC1 (protonated)
O=C(c1ccc(S(=O)(=O)[NH+]2CCCCC2)cc1)N1CCCC1 (3D coordinates assigned)
O=C(c1ccc(S(=O)(=O)[NH+]2CCCCC2)cc1)N1CCCC1 (nonaromatic ring conformer: 54.32739084943219 kcal/mol)

>  <smiles>  (18) 
O=C(c1ccc(S(=O)(=O)N2CCCCC2)cc1)N1CCCC1

>  <score_type>  (18) 
oracle

>  <origin>  (18) 
adgpu

>  <m_score__min__energy>  (18) 
-8.8800000000000008

>  <m_primary>  (18) 
energy

$$$$
18:0
     RDKit          3D

 52 54  0  0  0  0  0  0  0  0999 V2000
    0.6430   17.1550  -27.8390 C   0  0  0  0  0  0  0  0  0  0  0  0
   -0.5220   17.6850  -27.2460 O   0  0  0  0  0  0  0  0  0  0  0  0
   -0.8550   19.0360  -27.3290 C   0  0  0  0  0  0  0  0  0  0  0  0
   -2.1460   19.3890  -27.0090 C   0  0  0  0  0  0  0  0  0  0  0  0
   -2.4580   20.7360  -27.0980 C   0  0  0  0  0  0  0  0  0  0  0  0
   -1.4980   21.6700  -27.4940 C   0  0  0  0  0  0  0  0  0  0  0  0
   -1.9530   23.0830  -27.5500 C   0  0  0  0  0  0  0  0  0  0  0  0
   -1.6770   23.7610  -29.1680 S   0  0  0  0  0  0  0  0  0  0  0  0
   -2.5370   24.9850  -29.2790 O   0  0  0  0  0  0  0  0  0  0  0  0
   -0.2430   24.1630  -29.3280 O   0  0  0  0  0  0  0  0  0  0  0  0
   -2.1340   22.6400  -30.4210 C   0  0  0  0  0  0  0  0  0  0  0  0
   -3.4370   22.3550  -30.5980 N   0  0  0  0  0  0  0  0  0  0  0  0
   -3.8640   21.4890  -31.5580 C   0  0  0  0  0  0  0  0  0  0  0  0
   -5.2870   21.2080  -31.7160 C   0  0  0  0  0  0  0  0  0  0  0  0
   -6.2470   22.2030  -31.7770 C   0  0  0  0  0  0  0  0  0  0  0  0
   -7.5970   21.9250  -31.9270 C   0  0  0  0  0  0  0  0  0  0  0  0
   -8.5730   23.0470  -31.9850 C   0  0  0  0  0  0  0  0  0  0  0  0
   -8.0350   20.6210  -32.0220 C   0  0  0  0  0  0  0  0  0  0  0  0
   -9.4910   20.3730  -32.1830 C   0  0  0  0  0  0  0  0  0  0  0  0
   -7.0980   19.6090  -31.9640 C   0  0  0  0  0  0  0  0  0  0  0  0
   -7.5820   18.2210  -32.0670 C   0  0  0  0  0  0  0  0  0  0  0  0
   -5.7500   19.8920  -31.8140 C   0  0  0  0  0  0  0  0  0  0  0  0
   -2.9060   20.9010  -32.3570 C   0  0  0  0  0  0  0  0  0  0  0  0
   -3.2870   19.9770  -33.3890 C   0  0  0  0  0  0  0  0  0  0  0  0
   -3.5760   19.2340  -34.2270 N   0  0  0  0  0  0  0  0  0  0  0  0
   -1.5600   21.1950  -32.1740 C   0  0  0  0  0  0  0  0  0  0  0  0
   -0.6510   20.6350  -32.9340 N   0  0  0  0  0  0  0  0  0  0  0  0
   -1.2000   22.0580  -31.2100 N   0  0  0  0  0  0  0  0  0  0  0  0
   -0.2120   21.2840  -27.8080 C   0  0  0  0  0  0  0  0  0  0  0  0
    0.1070   19.9260  -27.7200 C   0  0  0  0  0  0  0  0  0  0  0  0
    1.3427   16.8367  -27.0521 H   0  0  0  0  0  0  0  0  0  0  0  0
    0.3755   16.2900  -28.4636 H   0  0  0  0  0  0  0  0  0  0  0  0
    1.1193   17.9250  -28.4636 H   0  0  0  0  0  0  0  0  0  0  0  0
   -2.8909   18.6413  -26.6989 H   0  0  0  0  0  0  0  0  0  0  0  0
   -3.4757   21.0744  -26.8534 H   0  0  0  0  0  0  0  0  0  0  0  0
   -3.0272   23.1270  -27.3174 H   0  0  0  0  0  0  0  0  0  0  0  0
   -1.3819   23.6702  -26.8158 H   0  0  0  0  0  0  0  0  0  0  0  0
   -5.9272   23.2529  -31.7038 H   0  0  0  0  0  0  0  0  0  0  0  0
   -8.8400   23.3539  -30.9630 H   0  0  0  0  0  0  0  0  0  0  0  0
   -8.1226   23.8977  -32.5174 H   0  0  0  0  0  0  0  0  0  0  0  0
   -9.4778   22.7187  -32.5174 H   0  0  0  0  0  0  0  0  0  0  0  0
   -9.9611   20.2929  -31.1917 H   0  0  0  0  0  0  0  0  0  0  0  0
   -9.9457   21.2066  -32.7382 H   0  0  0  0  0  0  0  0  0  0  0  0
   -9.6441   19.4358  -32.7382 H   0  0  0  0  0  0  0  0  0  0  0  0
   -7.7263   17.8072  -31.0581 H   0  0  0  0  0  0  0  0  0  0  0  0
   -8.5386   18.2056  -32.6099 H   0  0  0  0  0  0  0  0  0  0  0  0
   -6.8424   17.6141  -32.6099 H   0  0  0  0  0  0  0  0  0  0  0  0
   -5.0280   19.0632  -31.7710 H   0  0  0  0  0  0  0  0  0  0  0  0
   -1.0300   19.9770  -33.6560 H   0  0  0  0  0  0  0  0  0  0  0  0
   -0.1890   22.3000  -31.0490 H   0  0  0  0  0  0  0  0  0  0  0  0
    0.5409   22.0233  -28.1187 H   0  0  0  0  0  0  0  0  0  0  0  0
    1.1214   19.5767  -27.9627 H   0  0  0  0  0  0  0  0  0  0  0  0
  1  2  1  0
  2  3  1  0
  3  4  2  0
  4  5  1  0
  5  6  2  0
  6  7  1  0
  7  8  1  0
  8  9  2  0
  8 10  2  0
  8 11  1  0
 11 12  2  0
 12 13  1  0
 13 14  1  0
 14 15  2  0
 15 16  1  0
 16 17  1  0
 16 18  2  0
 18 19  1  0
 18 20  1  0
 20 21  1  0
 20 22  2  0
 13 23  2  0
 23 24  1  0
 24 25  3  0
 23 26  1  0
 26 27  2  3
 26 28  1  0
  6 29  1  0
 29 30  2  0
 30  3  1  0
 28 11  1  0
 22 14  1  0
  1 31  1  0
  1 32  1  0
  1 33  1  0
  4 34  1  0
  5 35  1  0
  7 36  1  0
  7 37  1  0
 15 38  1  0
 17 39  1  0
 17 40  1  0
 17 41  1  0
 19 42  1  0
 19 43  1  0
 19 44  1  0
 21 45  1  0
 21 46  1  0
 21 47  1  0
 22 48  1  0
 27 49  1  0
 28 50  1  0
 29 51  1  0
 30 52  1  0
M  END
>  <smiles>  (19) 
COc1ccc(CS(=O)(=O)c2nc(-c3cc(C)c(C)c(C)c3)c(C#N)c(=N)[nH]2)cc1

>  <score_type>  (19) 
oracle

>  <origin>  (19) 
adgpu

>  <m_score__min__energy>  (19) 
-10.029999999999999

>  <m_primary>  (19) 
energy

$$$$
19:0
     RDKit          3D

 48 51  0  0  0  0  0  0  0  0999 V2000
   -2.3730   25.7280  -25.6100 C   0  0  0  0  0  0  0  0  0  0  0  0
   -1.0710   25.0140  -25.9540 C   0  0  0  0  0  0  0  0  0  0  0  0
   -1.3030   23.9570  -26.8860 O   0  0  0  0  0  0  0  0  0  0  0  0
   -2.3890   23.8740  -27.7730 C   0  0  0  0  0  0  0  0  0  0  0  0
   -3.5650   23.1550  -27.4770 C   0  0  0  0  0  0  0  0  0  0  0  0
   -4.6140   23.1100  -28.4000 C   0  0  0  0  0  0  0  0  0  0  0  0
   -4.5020   23.7700  -29.6310 C   0  0  0  0  0  0  0  0  0  0  0  0
   -5.8320   23.7420  -30.7860 S   0  0  0  0  0  0  0  0  0  0  0  0
   -6.6940   24.9450  -30.5200 O   0  0  0  0  0  0  0  0  0  0  0  0
   -5.2870   23.8370  -32.1830 O   0  0  0  0  0  0  0  0  0  0  0  0
   -6.7720   22.2800  -30.6270 N   0  0  0  0  0  0  0  0  0  0  0  0
   -8.1320   22.2950  -30.0770 C   0  0  0  0  0  0  0  0  0  0  0  0
   -8.9840   21.3950  -30.9940 C   0  0  0  0  0  0  0  0  0  0  0  0
   -7.9630   20.7150  -31.8290 C   0  0  0  0  0  0  0  0  0  0  0  0
   -8.1710   19.7070  -32.7700 C   0  0  0  0  0  0  0  0  0  0  0  0
   -7.0630   19.1800  -33.4430 C   0  0  0  0  0  0  0  0  0  0  0  0
   -5.7690   19.6420  -33.1450 C   0  0  0  0  0  0  0  0  0  0  0  0
   -5.5700   20.6530  -32.1810 C   0  0  0  0  0  0  0  0  0  0  0  0
   -4.1930   20.9980  -31.7620 C   0  0  0  0  0  0  0  0  0  0  0  0
   -3.7510   20.6960  -30.4630 C   0  0  0  0  0  0  0  0  0  0  0  0
   -2.4430   21.0030  -30.0750 C   0  0  0  0  0  0  0  0  0  0  0  0
   -1.5660   21.6010  -30.9820 C   0  0  0  0  0  0  0  0  0  0  0  0
   -1.9920   21.8880  -32.2820 C   0  0  0  0  0  0  0  0  0  0  0  0
   -3.2980   21.5820  -32.6750 C   0  0  0  0  0  0  0  0  0  0  0  0
   -6.7130   21.2150  -31.5720 C   0  0  0  0  0  0  0  0  0  0  0  0
   -3.3360   24.4860  -29.9270 C   0  0  0  0  0  0  0  0  0  0  0  0
   -2.2870   24.5340  -29.0040 C   0  0  0  0  0  0  0  0  0  0  0  0
   -2.4810   25.7872  -24.5169 H   0  0  0  0  0  0  0  0  0  0  0  0
   -2.3570   26.7435  -26.0324 H   0  0  0  0  0  0  0  0  0  0  0  0
   -3.2207   25.1685  -26.0324 H   0  0  0  0  0  0  0  0  0  0  0  0
   -0.3692   25.7367  -26.3958 H   0  0  0  0  0  0  0  0  0  0  0  0
   -0.6499   24.5854  -25.0326 H   0  0  0  0  0  0  0  0  0  0  0  0
   -3.6575   22.6274  -26.5162 H   0  0  0  0  0  0  0  0  0  0  0  0
   -5.5318   22.5538  -28.1587 H   0  0  0  0  0  0  0  0  0  0  0  0
   -8.1313   21.8997  -29.0505 H   0  0  0  0  0  0  0  0  0  0  0  0
   -8.5344   23.3180  -30.0378 H   0  0  0  0  0  0  0  0  0  0  0  0
   -9.5641   20.6677  -30.4071 H   0  0  0  0  0  0  0  0  0  0  0  0
   -9.7268   21.9528  -31.5831 H   0  0  0  0  0  0  0  0  0  0  0  0
   -9.1846   19.3341  -32.9788 H   0  0  0  0  0  0  0  0  0  0  0  0
   -7.2049   18.4019  -34.2075 H   0  0  0  0  0  0  0  0  0  0  0  0
   -4.9030   19.2110  -33.6686 H   0  0  0  0  0  0  0  0  0  0  0  0
   -4.4363   20.2164  -29.7486 H   0  0  0  0  0  0  0  0  0  0  0  0
   -2.1047   20.7731  -29.0539 H   0  0  0  0  0  0  0  0  0  0  0  0
   -0.5391   21.8464  -30.6733 H   0  0  0  0  0  0  0  0  0  0  0  0
   -1.2985   22.3553  -32.9967 H   0  0  0  0  0  0  0  0  0  0  0  0
   -3.6264   21.7989  -33.7022 H   0  0  0  0  0  0  0  0  0  0  0  0
   -3.2449   25.0124  -30.8886 H   0  0  0  0  0  0  0  0  0  0  0  0
   -1.3728   25.0955  -29.2470 H   0  0  0  0  0  0  0  0  0  0  0  0
  1  2  1  0
  2  3  1  0
  3  4  1  0
  4  5  2  0
  5  6  1  0
  6  7  2  0
  7  8  1  0
  8  9  2  0
  8 10  2  0
  8 11  1  0
 11 12  1  0
 12 13  1  0
 13 14  1  0
 14 15  2  0
 15 16  1  0
 16 17  2  0
 17 18  1  0
 18 19  1  0
 19 20  2  0
 20 21  1  0
 21 22  2  0
 22 23  1  0
 23 24  2  0
 18 25  2  0
  7 26  1  0
 26 27  2  0
 27  4  1  0
 25 11  1  0
 25 14  1  0
 24 19  1  0
  1 28  1  0
  1 29  1  0
  1 30  1  0
  2 31  1  0
  2 32  1  0
  5 33  1  0
  6 34  1  0
 12 35  1  0
 12 36  1  0
 13 37  1  0
 13 38  1  0
 15 39  1  0
 16 40  1  0
 17 41  1  0
 20 42  1  0
 21 43  1  0
 22 44  1  0
 23 45  1  0
 24 46  1  0
 26 47  1  0
 27 48  1  0
M  END
>  <UniqueID>  (20) 
18

>  <SMILES>  (20) 
CCOc1ccc(S(=O)(=O)N2CCc3cccc(-c4ccccc4)c32)cc1

>  <Energy>  (20) 
75.98194075648357

>  <Genealogy>  (20) 
CCOc1ccc(S(=O)(=O)N2CCc3cccc(-c4ccccc4)c32)cc1 (3D coordinates assigned)
CCOc1ccc(S(=O)(=O)N2CCc3cccc(-c4ccccc4)c32)cc1 (nonaromatic ring conformer: 75.98194075648357 kcal/mol)

>  <smiles>  (20) 
CCOc1ccc(S(=O)(=O)N2CCc3cccc(-c4ccccc4)c32)cc1

>  <score_type>  (20) 
oracle

>  <origin>  (20) 
adgpu

>  <m_score__min__energy>  (20) 
-8.6400000000000006

>  <m_primary>  (20) 
energy

$$$$
20:0
     RDKit          3D

 47 50  0  0  0  0  0  0  0  0999 V2000
   -4.2870   25.6680  -30.8760 O   0  0  0  0  0  0  0  0  0  0  0  0
   -5.1070   24.8360  -29.9130 S   0  0  0  0  0  0  0  0  0  0  0  0
   -6.2760   25.6530  -29.4300 O   0  0  0  0  0  0  0  0  0  0  0  0
   -4.1680   24.2990  -28.5670 N   0  0  0  0  0  0  0  0  0  0  0  0
   -2.9460   23.5870  -28.7610 C   0  0  0  0  0  0  0  0  0  0  0  0
   -2.8810   22.2030  -28.5000 C   0  0  0  0  0  0  0  0  0  0  0  0
   -1.6620   21.5200  -28.5970 C   0  0  0  0  0  0  0  0  0  0  0  0
   -0.4970   22.2180  -28.9710 C   0  0  0  0  0  0  0  0  0  0  0  0
   -0.5530   23.5880  -29.2570 C   0  0  0  0  0  0  0  0  0  0  0  0
   -1.7690   24.2790  -29.1370 C   0  0  0  0  0  0  0  0  0  0  0  0
   -1.7950   25.6500  -29.3420 O   0  0  0  0  0  0  0  0  0  0  0  0
   -5.7180   23.4240  -30.7690 C   0  0  0  0  0  0  0  0  0  0  0  0
   -4.8410   22.6310  -31.5120 C   0  0  0  0  0  0  0  0  0  0  0  0
   -5.3160   21.5080  -32.1970 C   0  0  0  0  0  0  0  0  0  0  0  0
   -6.6910   21.1980  -32.1670 C   0  0  0  0  0  0  0  0  0  0  0  0
   -7.2600   19.7980  -33.1000 S   0  0  0  0  0  0  0  0  0  0  0  0
   -6.8650   20.0440  -34.5290 O   0  0  0  0  0  0  0  0  0  0  0  0
   -8.7660   19.7040  -33.0610 O   0  0  0  0  0  0  0  0  0  0  0  0
   -6.5540   18.2710  -32.6240 N   0  0  0  0  0  0  0  0  0  0  0  0
   -5.7270   17.2820  -33.2530 C   0  0  0  0  0  0  0  0  0  0  0  0
   -6.1430   15.9530  -33.4760 C   0  0  0  0  0  0  0  0  0  0  0  0
   -5.2800   14.9870  -33.9870 C   0  0  0  0  0  0  0  0  0  0  0  0
   -3.9290   15.2820  -34.2510 C   0  0  0  0  0  0  0  0  0  0  0  0
   -3.1130   14.2340  -34.6890 O   0  0  0  0  0  0  0  0  0  0  0  0
   -3.4700   16.6130  -34.0640 C   0  0  0  0  0  0  0  0  0  0  0  0
   -2.1600   16.9940  -34.3850 C   0  0  0  0  0  0  0  0  0  0  0  0
   -1.7410   18.3210  -34.2130 C   0  0  0  0  0  0  0  0  0  0  0  0
   -2.6160   19.2800  -33.7000 C   0  0  0  0  0  0  0  0  0  0  0  0
   -3.9080   18.9230  -33.3440 C   0  0  0  0  0  0  0  0  0  0  0  0
   -4.3710   17.6020  -33.5570 C   0  0  0  0  0  0  0  0  0  0  0  0
   -7.5690   21.9670  -31.3940 C   0  0  0  0  0  0  0  0  0  0  0  0
   -7.0840   23.0880  -30.7070 C   0  0  0  0  0  0  0  0  0  0  0  0
   -3.7931   21.6563  -28.2185 H   0  0  0  0  0  0  0  0  0  0  0  0
   -1.6146   20.4423  -28.3819 H   0  0  0  0  0  0  0  0  0  0  0  0
    0.4623   21.6840  -29.0388 H   0  0  0  0  0  0  0  0  0  0  0  0
    0.3547   24.1217  -29.5752 H   0  0  0  0  0  0  0  0  0  0  0  0
   -3.7731   22.8905  -31.5587 H   0  0  0  0  0  0  0  0  0  0  0  0
   -4.6186   20.8683  -32.7577 H   0  0  0  0  0  0  0  0  0  0  0  0
   -7.1796   15.6713  -33.2393 H   0  0  0  0  0  0  0  0  0  0  0  0
   -5.6609   13.9748  -34.1881 H   0  0  0  0  0  0  0  0  0  0  0  0
   -2.6210   14.2150  -35.5740 H   0  0  0  0  0  0  0  0  0  0  0  0
   -1.4545   16.2456  -34.7752 H   0  0  0  0  0  0  0  0  0  0  0  0
   -0.7146   18.6086  -34.4845 H   0  0  0  0  0  0  0  0  0  0  0  0
   -2.2803   20.3204  -33.5779 H   0  0  0  0  0  0  0  0  0  0  0  0
   -4.5772   19.6707  -32.8934 H   0  0  0  0  0  0  0  0  0  0  0  0
   -8.6322   21.6932  -31.3263 H   0  0  0  0  0  0  0  0  0  0  0  0
   -7.7739   23.7086  -30.1163 H   0  0  0  0  0  0  0  0  0  0  0  0
  1  2  2  0
  2  3  2  0
  2  4  1  0
  4  5  1  0
  5  6  2  0
  6  7  1  0
  7  8  2  0
  8  9  1  0
  9 10  2  0
 10 11  1  0
  2 12  1  0
 12 13  2  0
 13 14  1  0
 14 15  2  0
 15 16  1  0
 16 17  2  0
 16 18  2  0
 16 19  1  0
 19 20  1  0
 20 21  2  0
 21 22  1  0
 22 23  2  0
 23 24  1  0
 23 25  1  0
 25 26  2  0
 26 27  1  0
 27 28  2  0
 28 29  1  0
 29 30  2  0
 15 31  1  0
 31 32  2  0
 10  5  1  0
 32 12  1  0
 30 20  1  0
 30 25  1  0
  6 33  1  0
  7 34  1  0
  8 35  1  0
  9 36  1  0
 13 37  1  0
 14 38  1  0
 21 39  1  0
 22 40  1  0
 24 41  1  0
 26 42  1  0
 27 43  1  0
 28 44  1  0
 29 45  1  0
 31 46  1  0
 32 47  1  0
M  CHG  3   4  -1  11  -1  19  -1
M  END
>  <UniqueID>  (21) 
19

>  <SMILES>  (21) 
O=S(=O)([N-]c1ccccc1[O-])c1ccc(S(=O)(=O)[N-]c2ccc(O)c3ccccc23)cc1

>  <Energy>  (21) 
85.62486418077285

>  <Genealogy>  (21) 
O=S(=O)([N-]c1ccccc1[O-])c1ccc(S(=O)(=O)[N-]c2ccc(O)c3ccccc23)cc1 (protonated)
O=S(=O)([N-]c1ccccc1[O-])c1ccc(S(=O)(=O)[N-]c2ccc(O)c3ccccc23)cc1 (3D coordinates assigned)
O=S(=O)([N-]c1ccccc1[O-])c1ccc(S(=O)(=O)[N-]c2ccc(O)c3ccccc23)cc1 (optimized conformer: 85.62486418077285 kcal/mol)

>  <smiles>  (21) 
O=S(=O)(Nc1ccccc1O)c1ccc(S(=O)(=O)Nc2ccc(O)c3ccccc23)cc1

>  <score_type>  (21) 
oracle

>  <origin>  (21) 
adgpu

>  <m_score__min__energy>  (21) 
-14.67

>  <m_primary>  (21) 
energy

$$$$
21:0
     RDKit          3D

 45 47  0  0  0  0  0  0  0  0999 V2000
   -0.8340   25.7540  -27.8160 C   0  0  0  0  0  0  0  0  0  0  0  0
   -1.7090   24.5830  -28.1270 C   0  0  0  0  0  0  0  0  0  0  0  0
   -2.8480   24.5520  -29.3660 S   0  0  0  0  0  0  0  0  0  0  0  0
   -3.3660   22.9790  -29.0850 C   0  0  0  0  0  0  0  0  0  0  0  0
   -4.3450   22.3090  -29.8900 N   0  0  0  0  0  0  0  0  0  0  0  0
   -5.2330   22.9980  -30.7820 C   0  0  0  0  0  0  0  0  0  0  0  0
   -4.9090   24.1350  -31.2250 O   0  0  0  0  0  0  0  0  0  0  0  0
   -6.5080   22.3800  -31.2160 C   0  0  0  0  0  0  0  0  0  0  0  0
   -7.6260   23.1740  -31.5320 C   0  0  0  0  0  0  0  0  0  0  0  0
   -8.8150   22.5830  -31.9630 C   0  0  0  0  0  0  0  0  0  0  0  0
   -8.9040   21.1960  -32.0940 C   0  0  0  0  0  0  0  0  0  0  0  0
   -7.7970   20.3900  -31.7980 C   0  0  0  0  0  0  0  0  0  0  0  0
   -7.8940   18.6400  -32.0040 S   0  0  0  0  0  0  0  0  0  0  0  0
   -9.3370   18.2170  -31.9740 O   0  0  0  0  0  0  0  0  0  0  0  0
   -7.1930   17.9680  -30.8550 O   0  0  0  0  0  0  0  0  0  0  0  0
   -7.1740   18.1150  -33.5120 N   0  0  0  0  0  0  0  0  0  0  0  0
   -6.3040   19.1550  -34.0710 C   0  0  0  0  0  0  0  0  0  0  0  0
   -4.8690   18.8390  -33.6780 C   0  0  0  0  0  0  0  0  0  0  0  0
   -4.8740   17.3880  -33.2410 C   0  0  0  0  0  0  0  0  0  0  0  0
   -6.3260   16.9340  -33.3160 C   0  0  0  0  0  0  0  0  0  0  0  0
   -6.6080   20.9820  -31.3530 C   0  0  0  0  0  0  0  0  0  0  0  0
   -2.6240   22.4310  -28.0360 C   0  0  0  0  0  0  0  0  0  0  0  0
   -2.7470   21.0610  -27.6000 C   0  0  0  0  0  0  0  0  0  0  0  0
   -2.8450   19.9620  -27.2520 N   0  0  0  0  0  0  0  0  0  0  0  0
   -1.6810   23.3320  -27.5000 C   0  0  0  0  0  0  0  0  0  0  0  0
   -0.7780   23.0060  -26.3430 C   0  0  0  0  0  0  0  0  0  0  0  0
   -0.7485   25.8684  -26.7253 H   0  0  0  0  0  0  0  0  0  0  0  0
    0.1647   25.5901  -28.2469 H   0  0  0  0  0  0  0  0  0  0  0  0
   -1.2742   26.6653  -28.2469 H   0  0  0  0  0  0  0  0  0  0  0  0
   -4.2930   21.2670  -29.9480 H   0  0  0  0  0  0  0  0  0  0  0  0
   -7.5626   24.2682  -31.4387 H   0  0  0  0  0  0  0  0  0  0  0  0
   -9.6852   23.2127  -32.2003 H   0  0  0  0  0  0  0  0  0  0  0  0
   -9.8446   20.7353  -32.4301 H   0  0  0  0  0  0  0  0  0  0  0  0
   -6.3955   19.1669  -35.1671 H   0  0  0  0  0  0  0  0  0  0  0  0
   -6.5950   20.1420  -33.6821 H   0  0  0  0  0  0  0  0  0  0  0  0
   -4.1964   18.9786  -34.5371 H   0  0  0  0  0  0  0  0  0  0  0  0
   -4.5115   19.5031  -32.8773 H   0  0  0  0  0  0  0  0  0  0  0  0
   -4.2489   16.7835  -33.9146 H   0  0  0  0  0  0  0  0  0  0  0  0
   -4.4662   17.2706  -32.2261 H   0  0  0  0  0  0  0  0  0  0  0  0
   -6.4547   16.2406  -34.1602 H   0  0  0  0  0  0  0  0  0  0  0  0
   -6.6078   16.4180  -32.3863 H   0  0  0  0  0  0  0  0  0  0  0  0
   -5.7431   20.3481  -31.1079 H   0  0  0  0  0  0  0  0  0  0  0  0
   -1.3085   23.1975  -25.3986 H   0  0  0  0  0  0  0  0  0  0  0  0
   -0.4874   21.9462  -26.3919 H   0  0  0  0  0  0  0  0  0  0  0  0
    0.1226   23.6358  -26.3919 H   0  0  0  0  0  0  0  0  0  0  0  0
  1  2  1  0
  2  3  1  0
  3  4  1  0
  4  5  1  0
  5  6  1  0
  6  7  2  0
  6  8  1  0
  8  9  2  0
  9 10  1  0
 10 11  2  0
 11 12  1  0
 12 13  1  0
 13 14  2  0
 13 15  2  0
 13 16  1  0
 16 17  1  0
 17 18  1  0
 18 19  1  0
 19 20  1  0
 12 21  2  0
  4 22  2  0
 22 23  1  0
 23 24  3  0
 22 25  1  0
 25 26  1  0
 25  2  2  0
 21  8  1  0
 20 16  1  0
  1 27  1  0
  1 28  1  0
  1 29  1  0
  5 30  1  0
  9 31  1  0
 10 32  1  0
 11 33  1  0
 17 34  1  0
 17 35  1  0
 18 36  1  0
 18 37  1  0
 19 38  1  0
 19 39  1  0
 20 40  1  0
 20 41  1  0
 21 42  1  0
 26 43  1  0
 26 44  1  0
 26 45  1  0
M  END
>  <UniqueID>  (22) 
20

>  <SMILES>  (22) 
Cc1sc(NC(=O)c2cccc(S(=O)(=O)N3CCCC3)c2)c(C#N)c1C

>  <Energy>  (22) 
76.52680252508767

>  <Genealogy>  (22) 
Cc1sc(NC(=O)c2cccc(S(=O)(=O)N3CCCC3)c2)c(C#N)c1C (3D coordinates assigned)
Cc1sc(NC(=O)c2cccc(S(=O)(=O)N3CCCC3)c2)c(C#N)c1C (nonaromatic ring conformer: 76.52680252508767 kcal/mol)

>  <smiles>  (22) 
Cc1sc(NC(=O)c2cccc(S(=O)(=O)N3CCCC3)c2)c(C#N)c1C

>  <score_type>  (22) 
oracle

>  <origin>  (22) 
adgpu

>  <m_score__min__energy>  (22) 
-9.6300000000000008

>  <m_primary>  (22) 
energy

$$$$
22:0
     RDKit          3D

 41 43  0  0  0  0  0  0  0  0999 V2000
   -1.9440   25.5320  -28.9750 N   0  0  0  0  0  0  0  0  0  0  0  0
   -0.9980   24.5520  -28.5420 C   0  0  0  0  0  0  0  0  0  0  0  0
    0.2230   24.8580  -28.4870 O   0  0  0  0  0  0  0  0  0  0  0  0
   -1.4350   23.2040  -28.1160 C   0  0  0  0  0  0  0  0  0  0  0  0
   -0.5020   22.3720  -27.4710 C   0  0  0  0  0  0  0  0  0  0  0  0
   -0.8890   21.1320  -26.9580 C   0  0  0  0  0  0  0  0  0  0  0  0
   -2.2120   20.7080  -27.0780 C   0  0  0  0  0  0  0  0  0  0  0  0
   -3.1460   21.5090  -27.7360 C   0  0  0  0  0  0  0  0  0  0  0  0
   -2.7670   22.7400  -28.2890 C   0  0  0  0  0  0  0  0  0  0  0  0
   -3.7500   23.4700  -29.0390 N   0  0  0  0  0  0  0  0  0  0  0  0
   -3.6800   23.7710  -30.4390 C   0  0  0  0  0  0  0  0  0  0  0  0
   -3.9270   24.9460  -30.8180 O   0  0  0  0  0  0  0  0  0  0  0  0
   -3.3540   22.7350  -31.4460 C   0  0  0  0  0  0  0  0  0  0  0  0
   -2.0770   22.1590  -31.4950 C   0  0  0  0  0  0  0  0  0  0  0  0
   -1.7900   21.2120  -32.4240 N   0  0  0  0  0  0  0  0  0  0  0  0
   -2.7260   20.8060  -33.3180 C   0  0  0  0  0  0  0  0  0  0  0  0
   -3.9710   21.3460  -33.2910 N   0  0  0  0  0  0  0  0  0  0  0  0
   -4.3130   22.2920  -32.3740 C   0  0  0  0  0  0  0  0  0  0  0  0
   -5.5890   22.8730  -32.3890 O   0  0  0  0  0  0  0  0  0  0  0  0
   -6.7980   22.1830  -32.2210 C   0  0  0  0  0  0  0  0  0  0  0  0
   -7.9590   22.9230  -31.9750 C   0  0  0  0  0  0  0  0  0  0  0  0
   -9.1810   22.2780  -31.7810 C   0  0  0  0  0  0  0  0  0  0  0  0
   -9.2530   20.8830  -31.8280 C   0  0  0  0  0  0  0  0  0  0  0  0
   -8.1000   20.1200  -32.0780 C   0  0  0  0  0  0  0  0  0  0  0  0
   -8.1620   18.6130  -32.0620 C   0  0  0  0  0  0  0  0  0  0  0  0
   -7.6480   18.0880  -33.2350 F   0  0  0  0  0  0  0  0  0  0  0  0
   -9.4770   18.2130  -31.9270 F   0  0  0  0  0  0  0  0  0  0  0  0
   -7.4250   18.1070  -31.0040 F   0  0  0  0  0  0  0  0  0  0  0  0
   -6.8680   20.7780  -32.2460 C   0  0  0  0  0  0  0  0  0  0  0  0
   -1.6150   26.4630  -29.3150 H   0  0  0  0  0  0  0  0  0  0  0  0
   -2.9700   25.3560  -28.9090 H   0  0  0  0  0  0  0  0  0  0  0  0
    0.5427   22.7013  -27.3697 H   0  0  0  0  0  0  0  0  0  0  0  0
   -0.1492   20.4890  -26.4587 H   0  0  0  0  0  0  0  0  0  0  0  0
   -2.5197   19.7410  -26.6535 H   0  0  0  0  0  0  0  0  0  0  0  0
   -4.1894   21.1713  -27.8216 H   0  0  0  0  0  0  0  0  0  0  0  0
   -1.3050   22.4755  -30.7782 H   0  0  0  0  0  0  0  0  0  0  0  0
   -2.4759   20.0386  -34.0654 H   0  0  0  0  0  0  0  0  0  0  0  0
   -7.9084   24.0211  -31.9342 H   0  0  0  0  0  0  0  0  0  0  0  0
  -10.0893   22.8685  -31.5907 H   0  0  0  0  0  0  0  0  0  0  0  0
  -10.2179   20.3795  -31.6683 H   0  0  0  0  0  0  0  0  0  0  0  0
   -5.9515   20.1890  -32.3982 H   0  0  0  0  0  0  0  0  0  0  0  0
  1  2  1  0
  2  3  2  0
  2  4  1  0
  4  5  2  0
  5  6  1  0
  6  7  2  0
  7  8  1  0
  8  9  2  0
  9 10  1  0
 10 11  1  0
 11 12  2  0
 11 13  1  0
 13 14  2  0
 14 15  1  0
 15 16  2  0
 16 17  1  0
 17 18  2  0
 18 19  1  0
 19 20  1  0
 20 21  2  0
 21 22  1  0
 22 23  2  0
 23 24  1  0
 24 25  1  0
 25 26  1  0
 25 27  1  0
 25 28  1  0
 24 29  2  0
  9  4  1  0
 18 13  1  0
 29 20  1  0
  1 30  1  0
  1 31  1  0
  5 32  1  0
  6 33  1  0
  7 34  1  0
  8 35  1  0
 14 36  1  0
 16 37  1  0
 21 38  1  0
 22 39  1  0
 23 40  1  0
 29 41  1  0
M  CHG  1  10  -1
M  END
>  <UniqueID>  (23) 
21

>  <SMILES>  (23) 
NC(=O)c1ccccc1[N-]C(=O)c1cncnc1Oc1cccc(C(F)(F)F)c1

>  <Energy>  (23) 
62.88245006428326

>  <Genealogy>  (23) 
NC(=O)c1ccccc1[N-]C(=O)c1cncnc1Oc1cccc(C(F)(F)F)c1 (protonated)
NC(=O)c1ccccc1[N-]C(=O)c1cncnc1Oc1cccc(C(F)(F)F)c1 (3D coordinates assigned)
NC(=O)c1ccccc1[N-]C(=O)c1cncnc1Oc1cccc(C(F)(F)F)c1 (optimized conformer: 62.88245006428326 kcal/mol)

>  <smiles>  (23) 
NC(=O)c1ccccc1NC(=O)c1cncnc1Oc1cccc(C(F)(F)F)c1

>  <score_type>  (23) 
oracle

>  <origin>  (23) 
adgpu

>  <m_score__min__energy>  (23) 
-9.6400000000000006

>  <m_primary>  (23) 
energy

$$$$
23:0
     RDKit          3D

 59 63  0  0  0  0  0  0  0  0999 V2000
  -10.0190   22.1294  -31.3379 H   0  0  0  0  0  0  0  0  0  0  0  0
   -9.1020   21.5940  -31.6250 C   0  0  0  0  0  0  0  0  0  0  0  0
   -9.0910   20.2050  -31.6680 C   0  0  0  0  0  0  0  0  0  0  0  0
  -10.0031   19.6411  -31.4229 H   0  0  0  0  0  0  0  0  0  0  0  0
   -7.9270   19.5250  -32.0210 C   0  0  0  0  0  0  0  0  0  0  0  0
   -7.9308   18.4252  -32.0437 H   0  0  0  0  0  0  0  0  0  0  0  0
   -6.7430   20.2200  -32.3500 C   0  0  0  0  0  0  0  0  0  0  0  0
   -5.5520   19.4100  -32.7350 C   0  0  0  0  0  0  0  0  0  0  0  0
   -5.4610   18.2160  -32.3310 O   0  0  0  0  0  0  0  0  0  0  0  0
   -4.4620   19.9670  -33.4820 N   0  0  0  0  0  0  0  0  0  0  0  0
   -3.3280   20.3930  -32.9930 C   0  0  0  0  0  0  0  0  0  0  0  0
   -2.9550   20.1630  -31.6490 C   0  0  0  0  0  0  0  0  0  0  0  0
   -3.6486   19.6528  -30.9645 H   0  0  0  0  0  0  0  0  0  0  0  0
   -1.7030   20.5850  -31.1910 C   0  0  0  0  0  0  0  0  0  0  0  0
   -1.2790   20.2810  -29.7860 C   0  0  0  0  0  0  0  0  0  0  0  0
   -1.9654   20.7731  -29.0813 H   0  0  0  0  0  0  0  0  0  0  0  0
   -1.3035   19.1935  -29.6228 H   0  0  0  0  0  0  0  0  0  0  0  0
   -0.2569   20.6533  -29.6228 H   0  0  0  0  0  0  0  0  0  0  0  0
   -0.8260   21.2150  -32.0800 C   0  0  0  0  0  0  0  0  0  0  0  0
    0.1679   21.5411  -31.7396 H   0  0  0  0  0  0  0  0  0  0  0  0
   -1.2200   21.4270  -33.4010 C   0  0  0  0  0  0  0  0  0  0  0  0
   -0.5387   21.9326  -34.1011 H   0  0  0  0  0  0  0  0  0  0  0  0
   -2.4440   21.0110  -33.8280 N   0  0  0  0  0  0  0  0  0  0  0  0
   -2.7020   21.1680  -34.8280 H   0  0  0  0  0  0  0  0  0  0  0  0
   -6.7710   21.6450  -32.3240 C   0  0  0  0  0  0  0  0  0  0  0  0
   -5.3720   22.7210  -32.7200 S   0  0  0  0  0  0  0  0  0  0  0  0
   -5.1720   23.4270  -31.0730 C   0  0  0  0  0  0  0  0  0  0  0  0
   -5.7780   24.6560  -30.7890 C   0  0  0  0  0  0  0  0  0  0  0  0
   -6.3396   25.1825  -31.5748 H   0  0  0  0  0  0  0  0  0  0  0  0
   -5.6750   25.2180  -29.5170 C   0  0  0  0  0  0  0  0  0  0  0  0
   -6.1473   26.1886  -29.3052 H   0  0  0  0  0  0  0  0  0  0  0  0
   -4.9730   24.5500  -28.5120 C   0  0  0  0  0  0  0  0  0  0  0  0
   -4.9068   24.9886  -27.5054 H   0  0  0  0  0  0  0  0  0  0  0  0
   -4.3500   23.3180  -28.7820 C   0  0  0  0  0  0  0  0  0  0  0  0
   -3.7440   22.5420  -27.7310 N   0  0  0  0  0  0  0  0  0  0  0  0
   -4.3590   22.1450  -26.9850 H   0  0  0  0  0  0  0  0  0  0  0  0
   -2.2950   22.4940  -27.5070 C   0  0  0  0  0  0  0  0  0  0  0  0
   -2.0885   21.8946  -26.6081 H   0  0  0  0  0  0  0  0  0  0  0  0
   -1.8165   22.0402  -28.3874 H   0  0  0  0  0  0  0  0  0  0  0  0
   -1.7380   23.8810  -27.3150 C   0  0  0  0  0  0  0  0  0  0  0  0
   -1.6440   24.4020  -26.0590 N   0  0  0  0  0  0  0  0  0  0  0  0
   -1.2350   25.6780  -25.8370 C   0  0  0  0  0  0  0  0  0  0  0  0
   -1.1850   26.1830  -24.5340 C   0  0  0  0  0  0  0  0  0  0  0  0
   -1.4525   25.5385  -23.6837 H   0  0  0  0  0  0  0  0  0  0  0  0
   -0.7950   27.5070  -24.3120 C   0  0  0  0  0  0  0  0  0  0  0  0
   -0.7592   27.9032  -23.2865 H   0  0  0  0  0  0  0  0  0  0  0  0
   -0.4500   28.3300  -25.3900 C   0  0  0  0  0  0  0  0  0  0  0  0
   -0.1465   29.3718  -25.2095 H   0  0  0  0  0  0  0  0  0  0  0  0
   -0.4900   27.8320  -26.6950 C   0  0  0  0  0  0  0  0  0  0  0  0
   -0.2136   28.4798  -27.5399 H   0  0  0  0  0  0  0  0  0  0  0  0
   -0.8830   26.5050  -26.9270 C   0  0  0  0  0  0  0  0  0  0  0  0
   -0.9400   25.9770  -28.2220 C   0  0  0  0  0  0  0  0  0  0  0  0
   -0.6501   26.5967  -29.0833 H   0  0  0  0  0  0  0  0  0  0  0  0
   -1.3660   24.6610  -28.4180 C   0  0  0  0  0  0  0  0  0  0  0  0
   -1.4092   24.2393  -29.4330 H   0  0  0  0  0  0  0  0  0  0  0  0
   -4.4060   22.7920  -30.0820 C   0  0  0  0  0  0  0  0  0  0  0  0
   -3.8465   21.8769  -30.3261 H   0  0  0  0  0  0  0  0  0  0  0  0
   -7.9500   22.3060  -31.9460 C   0  0  0  0  0  0  0  0  0  0  0  0
   -7.9638   23.4051  -31.9027 H   0  0  0  0  0  0  0  0  0  0  0  0
  1  2  1  0
  2  3  2  0
  3  4  1  0
  3  5  1  0
  5  6  1  0
  5  7  2  0
  7  8  1  0
  8  9  2  0
  8 10  1  0
 10 11  2  0
 11 12  1  0
 12 13  1  0
 12 14  2  0
 14 15  1  0
 15 16  1  0
 15 17  1  0
 15 18  1  0
 14 19  1  0
 19 20  1  0
 19 21  2  0
 21 22  1  0
 21 23  1  0
 23 24  1  0
  7 25  1  0
 25 26  1  0
 26 27  1  0
 27 28  2  0
 28 29  1  0
 28 30  1  0
 30 31  1  0
 30 32  2  0
 32 33  1  0
 32 34  1  0
 34 35  1  0
 35 36  1  0
 35 37  1  0
 37 38  1  0
 37 39  1  0
 37 40  1  0
 40 41  2  0
 41 42  1  0
 42 43  2  0
 43 44  1  0
 43 45  1  0
 45 46  1  0
 45 47  2  0
 47 48  1  0
 47 49  1  0
 49 50  1  0
 49 51  2  0
 51 52  1  0
 52 53  1  0
 52 54  2  0
 54 55  1  0
 34 56  2  0
 56 57  1  0
 25 58  2  0
 58 59  1  0
 58  2  1  0
 23 11  1  0
 56 27  1  0
 54 40  1  0
 51 42  1  0
M  END
>  <UniqueID>  (24) 
22

>  <SMILES>  (24) 
Cc1cc[nH]/c(=N/C(=O)c2ccccc2Sc2cccc(NCc3ccc4ccccc4n3)c2)c1

>  <Energy>  (24) 
76.19871800088762

>  <Genealogy>  (24) 
Cc1cc[nH]/c(=N/C(=O)c2ccccc2Sc2cccc(NCc3ccc4ccccc4n3)c2)c1 (cis-trans isomerization)
Cc1cc[nH]/c(=N/C(=O)c2ccccc2Sc2cccc(NCc3ccc4ccccc4n3)c2)c1 (3D coordinates assigned)
Cc1cc[nH]/c(=N/C(=O)c2ccccc2Sc2cccc(NCc3ccc4ccccc4n3)c2)c1 (optimized conformer: 76.19871800088762 kcal/mol)

>  <smiles>  (24) 
Cc1cc[nH]c(=NC(=O)c2ccccc2Sc2cccc(NCc3ccc4ccccc4n3)c2)c1

>  <score_type>  (24) 
oracle

>  <origin>  (24) 
adgpu

>  <m_score__min__energy>  (24) 
-11.52

>  <m_primary>  (24) 
energy

$$$$
24:0
     RDKit          3D

 69 72  0  0  0  0  0  0  0  0999 V2000
   -1.1650   19.9510  -26.7340 C   0  0  0  0  0  0  0  0  0  0  0  0
   -0.8450   21.3330  -26.8780 O   0  0  0  0  0  0  0  0  0  0  0  0
   -1.5030   22.2190  -27.7460 C   0  0  0  0  0  0  0  0  0  0  0  0
   -2.6370   21.8180  -28.4830 C   0  0  0  0  0  0  0  0  0  0  0  0
   -3.2730   22.7110  -29.3450 C   0  0  0  0  0  0  0  0  0  0  0  0
   -2.7850   24.0100  -29.4920 C   0  0  0  0  0  0  0  0  0  0  0  0
   -3.4610   24.9470  -30.3290 N   0  0  0  0  0  0  0  0  0  0  0  0
   -5.1880   24.9440  -30.4530 S   0  0  0  0  0  0  0  0  0  0  0  0
   -5.7960   24.9810  -29.0770 O   0  0  0  0  0  0  0  0  0  0  0  0
   -5.6220   26.1820  -31.1890 O   0  0  0  0  0  0  0  0  0  0  0  0
   -5.7430   23.5100  -31.3150 C   0  0  0  0  0  0  0  0  0  0  0  0
   -4.8210   22.6980  -31.9880 C   0  0  0  0  0  0  0  0  0  0  0  0
   -5.2590   21.5720  -32.6890 C   0  0  0  0  0  0  0  0  0  0  0  0
   -6.6170   21.2410  -32.7080 C   0  0  0  0  0  0  0  0  0  0  0  0
   -7.5520   22.0420  -32.0340 C   0  0  0  0  0  0  0  0  0  0  0  0
   -8.9850   21.6620  -32.0200 C   0  0  0  0  0  0  0  0  0  0  0  0
   -9.8580   22.5130  -32.3370 O   0  0  0  0  0  0  0  0  0  0  0  0
   -9.4090   20.3380  -31.6750 N   0  0  0  0  0  0  0  0  0  0  0  0
   -9.1060   19.1580  -32.4800 C   0  0  0  0  0  0  0  0  0  0  0  0
   -8.2070   18.2110  -31.6810 C   0  0  0  0  0  0  0  0  0  0  0  0
   -6.8250   18.2340  -32.2010 N   0  0  0  0  0  0  0  0  0  0  0  0
   -6.0210   17.1270  -31.6600 C   0  0  0  0  0  0  0  0  0  0  0  0
   -5.0700   16.6620  -32.7610 C   0  0  0  0  0  0  0  0  0  0  0  0
   -5.3940   17.5230  -33.9670 C   0  0  0  0  0  0  0  0  0  0  0  0
   -6.7620   18.0960  -33.6610 C   0  0  0  0  0  0  0  0  0  0  0  0
   -7.1040   23.1720  -31.3280 C   0  0  0  0  0  0  0  0  0  0  0  0
   -1.6410   24.4060  -28.7990 C   0  0  0  0  0  0  0  0  0  0  0  0
   -1.0140   23.5370  -27.8890 C   0  0  0  0  0  0  0  0  0  0  0  0
    0.4060   24.0780  -26.9600 S   0  0  0  0  0  0  0  0  0  0  0  0
    1.2620   24.9400  -27.8490 O   0  0  0  0  0  0  0  0  0  0  0  0
    1.2130   22.8750  -26.5490 O   0  0  0  0  0  0  0  0  0  0  0  0
    0.0130   24.9480  -25.4930 N   0  0  0  0  0  0  0  0  0  0  0  0
    1.2220   25.3300  -24.7250 C   0  0  0  0  0  0  0  0  0  0  0  0
    1.0570   26.6450  -23.9380 C   0  0  0  0  0  0  0  0  0  0  0  0
   -0.3570   26.7570  -23.3530 C   0  0  0  0  0  0  0  0  0  0  0  0
   -1.4540   26.6160  -24.4280 C   0  0  0  0  0  0  0  0  0  0  0  0
   -0.9220   26.0570  -25.7540 C   0  0  0  0  0  0  0  0  0  0  0  0
   -1.2237   19.6977  -25.6652 H   0  0  0  0  0  0  0  0  0  0  0  0
   -2.1341   19.7472  -27.2129 H   0  0  0  0  0  0  0  0  0  0  0  0
   -0.3841   19.3420  -27.2129 H   0  0  0  0  0  0  0  0  0  0  0  0
   -3.0225   20.7932  -28.3770 H   0  0  0  0  0  0  0  0  0  0  0  0
   -4.1608   22.3908  -29.9100 H   0  0  0  0  0  0  0  0  0  0  0  0
   -3.7500   22.9476  -31.9644 H   0  0  0  0  0  0  0  0  0  0  0  0
   -4.5336   20.9443  -33.2273 H   0  0  0  0  0  0  0  0  0  0  0  0
   -6.9547   20.3479  -33.2542 H   0  0  0  0  0  0  0  0  0  0  0  0
  -10.0419   18.6420  -32.7407 H   0  0  0  0  0  0  0  0  0  0  0  0
   -8.5877   19.4656  -33.4002 H   0  0  0  0  0  0  0  0  0  0  0  0
   -8.2005   18.5243  -30.6266 H   0  0  0  0  0  0  0  0  0  0  0  0
   -8.6014   17.1884  -31.7750 H   0  0  0  0  0  0  0  0  0  0  0  0
   -5.4451   17.4731  -30.7891 H   0  0  0  0  0  0  0  0  0  0  0  0
   -6.6712   16.3002  -31.3382 H   0  0  0  0  0  0  0  0  0  0  0  0
   -4.0243   16.8094  -32.4532 H   0  0  0  0  0  0  0  0  0  0  0  0
   -5.1918   15.5909  -32.9798 H   0  0  0  0  0  0  0  0  0  0  0  0
   -4.6519   18.3267  -34.0827 H   0  0  0  0  0  0  0  0  0  0  0  0
   -5.3781   16.9523  -34.9073 H   0  0  0  0  0  0  0  0  0  0  0  0
   -6.8820   19.0773  -34.1433 H   0  0  0  0  0  0  0  0  0  0  0  0
   -7.5650   17.4464  -34.0395 H   0  0  0  0  0  0  0  0  0  0  0  0
   -7.8265   23.7959  -30.7815 H   0  0  0  0  0  0  0  0  0  0  0  0
   -1.2245   25.4102  -28.9665 H   0  0  0  0  0  0  0  0  0  0  0  0
    1.4518   24.5238  -24.0128 H   0  0  0  0  0  0  0  0  0  0  0  0
    2.0327   25.4861  -25.4519 H   0  0  0  0  0  0  0  0  0  0  0  0
    1.7894   26.6685  -23.1176 H   0  0  0  0  0  0  0  0  0  0  0  0
    1.2224   27.4890  -24.6237 H   0  0  0  0  0  0  0  0  0  0  0  0
   -0.4928   25.9628  -22.6041 H   0  0  0  0  0  0  0  0  0  0  0  0
   -0.4550   27.7567  -22.9047 H   0  0  0  0  0  0  0  0  0  0  0  0
   -2.2324   25.9379  -24.0483 H   0  0  0  0  0  0  0  0  0  0  0  0
   -1.8503   27.6222  -24.6292 H   0  0  0  0  0  0  0  0  0  0  0  0
   -1.7641   25.6892  -26.3586 H   0  0  0  0  0  0  0  0  0  0  0  0
   -0.3942   26.8548  -26.2971 H   0  0  0  0  0  0  0  0  0  0  0  0
  1  2  1  0
  2  3  1  0
  3  4  2  0
  4  5  1  0
  5  6  2  0
  6  7  1  0
  7  8  1  0
  8  9  2  0
  8 10  2  0
  8 11  1  0
 11 12  2  0
 12 13  1  0
 13 14  2  0
 14 15  1  0
 15 16  1  0
 16 17  2  0
 16 18  1  0
 18 19  1  0
 19 20  1  0
 20 21  1  0
 21 22  1  0
 22 23  1  0
 23 24  1  0
 24 25  1  0
 15 26  2  0
  6 27  1  0
 27 28  2  0
 28 29  1  0
 29 30  2  0
 29 31  2  0
 29 32  1  0
 32 33  1  0
 33 34  1  0
 34 35  1  0
 35 36  1  0
 36 37  1  0
 28  3  1  0
 37 32  1  0
 26 11  1  0
 25 21  1  0
  1 38  1  0
  1 39  1  0
  1 40  1  0
  4 41  1  0
  5 42  1  0
 12 43  1  0
 13 44  1  0
 14 45  1  0
 19 46  1  0
 19 47  1  0
 20 48  1  0
 20 49  1  0
 22 50  1  0
 22 51  1  0
 23 52  1  0
 23 53  1  0
 24 54  1  0
 24 55  1  0
 25 56  1  0
 25 57  1  0
 26 58  1  0
 27 59  1  0
 33 60  1  0
 33 61  1  0
 34 62  1  0
 34 63  1  0
 35 64  1  0
 35 65  1  0
 36 66  1  0
 36 67  1  0
 37 68  1  0
 37 69  1  0
M  CHG  2   7  -1  18  -1
M  END
>  <UniqueID>  (25) 
23

>  <SMILES>  (25) 
COc1ccc([N-]S(=O)(=O)c2cccc(C(=O)[N-]CCN3CCCC3)c2)cc1S(=O)(=O)N1CCCCC1

>  <Energy>  (25) 
93.06703526792094

>  <Genealogy>  (25) 
COc1ccc([N-]S(=O)(=O)c2cccc(C(=O)[N-]CCN3CCCC3)c2)cc1S(=O)(=O)N1CCCCC1 (protonated)
COc1ccc([N-]S(=O)(=O)c2cccc(C(=O)[N-]CCN3CCCC3)c2)cc1S(=O)(=O)N1CCCCC1 (3D coordinates assigned)
COc1ccc([N-]S(=O)(=O)c2cccc(C(=O)[N-]CCN3CCCC3)c2)cc1S(=O)(=O)N1CCCCC1 (nonaromatic ring conformer: 93.06703526792094 kcal/mol)

>  <smiles>  (25) 
COc1ccc(NS(=O)(=O)c2cccc(C(=O)NCCN3CCCC3)c2)cc1S(=O)(=O)N1CCCCC1

>  <score_type>  (25) 
oracle

>  <origin>  (25) 
adgpu

>  <m_score__min__energy>  (25) 
-12.550000000000001

>  <m_primary>  (25) 
energy

$$$$
25:0
     RDKit          3D

 44 46  0  0  0  0  0  0  0  0999 V2000
   -2.3750   20.1830  -29.2320 O   0  0  0  0  0  0  0  0  0  0  0  0
   -2.4170   21.0300  -30.1650 C   0  0  0  0  0  0  0  0  0  0  0  0
   -2.6580   22.4120  -29.8700 N   0  0  0  0  0  0  0  0  0  0  0  0
   -3.8490   23.1380  -30.1990 C   0  0  0  0  0  0  0  0  0  0  0  0
   -5.0040   22.4170  -30.5300 C   0  0  0  0  0  0  0  0  0  0  0  0
   -6.1950   23.0840  -30.8470 C   0  0  0  0  0  0  0  0  0  0  0  0
   -7.6410   22.1780  -31.2840 S   0  0  0  0  0  0  0  0  0  0  0  0
   -8.4080   22.9160  -32.3470 O   0  0  0  0  0  0  0  0  0  0  0  0
   -8.5050   22.0360  -30.0620 O   0  0  0  0  0  0  0  0  0  0  0  0
   -7.1870   20.6000  -31.8760 N   0  0  0  0  0  0  0  0  0  0  0  0
   -6.9570   20.6550  -33.3300 C   0  0  0  0  0  0  0  0  0  0  0  0
   -6.3380   19.3350  -33.8240 C   0  0  0  0  0  0  0  0  0  0  0  0
   -6.6660   18.1490  -32.9010 C   0  0  0  0  0  0  0  0  0  0  0  0
   -8.0730   18.2870  -32.3110 C   0  0  0  0  0  0  0  0  0  0  0  0
   -8.2450   19.6200  -31.5480 C   0  0  0  0  0  0  0  0  0  0  0  0
   -6.2310   24.4830  -30.8260 C   0  0  0  0  0  0  0  0  0  0  0  0
   -5.0940   25.2090  -30.4650 C   0  0  0  0  0  0  0  0  0  0  0  0
   -3.9090   24.5450  -30.1360 C   0  0  0  0  0  0  0  0  0  0  0  0
   -2.8110   25.2890  -29.7150 O   0  0  0  0  0  0  0  0  0  0  0  0
   -2.2270   20.6060  -31.5690 C   0  0  0  0  0  0  0  0  0  0  0  0
   -1.0140   20.9240  -32.2070 C   0  0  0  0  0  0  0  0  0  0  0  0
   -0.8120   20.6090  -33.5520 C   0  0  0  0  0  0  0  0  0  0  0  0
   -1.8170   19.9730  -34.2800 C   0  0  0  0  0  0  0  0  0  0  0  0
   -3.0200   19.6330  -33.6590 C   0  0  0  0  0  0  0  0  0  0  0  0
   -3.2310   19.9240  -32.3050 C   0  0  0  0  0  0  0  0  0  0  0  0
   -4.4260   19.4910  -31.7260 O   0  0  0  0  0  0  0  0  0  0  0  0
   -4.9756   21.3174  -30.5411 H   0  0  0  0  0  0  0  0  0  0  0  0
   -7.9159   20.8203  -33.8429 H   0  0  0  0  0  0  0  0  0  0  0  0
   -6.2637   21.4799  -33.5513 H   0  0  0  0  0  0  0  0  0  0  0  0
   -6.7270   19.1175  -34.8297 H   0  0  0  0  0  0  0  0  0  0  0  0
   -5.2452   19.4604  -33.8316 H   0  0  0  0  0  0  0  0  0  0  0  0
   -6.6085   17.2155  -33.4801 H   0  0  0  0  0  0  0  0  0  0  0  0
   -5.9390   18.1351  -32.0756 H   0  0  0  0  0  0  0  0  0  0  0  0
   -8.8078   18.2469  -33.1286 H   0  0  0  0  0  0  0  0  0  0  0  0
   -8.2289   17.4624  -31.5999 H   0  0  0  0  0  0  0  0  0  0  0  0
   -9.2213   20.0535  -31.8106 H   0  0  0  0  0  0  0  0  0  0  0  0
   -8.1764   19.4010  -30.4722 H   0  0  0  0  0  0  0  0  0  0  0  0
   -7.1573   25.0120  -31.0945 H   0  0  0  0  0  0  0  0  0  0  0  0
   -5.1312   26.3081  -30.4395 H   0  0  0  0  0  0  0  0  0  0  0  0
   -0.2163   21.4262  -31.6400 H   0  0  0  0  0  0  0  0  0  0  0  0
    0.1415   20.8629  -34.0382 H   0  0  0  0  0  0  0  0  0  0  0  0
   -1.6618   19.7392  -35.3436 H   0  0  0  0  0  0  0  0  0  0  0  0
   -3.8096   19.1319  -34.2382 H   0  0  0  0  0  0  0  0  0  0  0  0
   -5.1430   20.1190  -31.3900 H   0  0  0  0  0  0  0  0  0  0  0  0
  1  2  2  0
  2  3  1  0
  3  4  1  0
  4  5  2  0
  5  6  1  0
  6  7  1  0
  7  8  2  0
  7  9  2  0
  7 10  1  0
 10 11  1  0
 11 12  1  0
 12 13  1  0
 13 14  1  0
 14 15  1  0
  6 16  2  0
 16 17  1  0
 17 18  2  0
 18 19  1  0
  2 20  1  0
 20 21  2  0
 21 22  1  0
 22 23  2  0
 23 24  1  0
 24 25  2  0
 25 26  1  0
 18  4  1  0
 25 20  1  0
 15 10  1  0
  5 27  1  0
 11 28  1  0
 11 29  1  0
 12 30  1  0
 12 31  1  0
 13 32  1  0
 13 33  1  0
 14 34  1  0
 14 35  1  0
 15 36  1  0
 15 37  1  0
 16 38  1  0
 17 39  1  0
 21 40  1  0
 22 41  1  0
 23 42  1  0
 24 43  1  0
 26 44  1  0
M  CHG  2   3  -1  19  -1
M  END
>  <UniqueID>  (26) 
24

>  <SMILES>  (26) 
O=C([N-]c1cc(S(=O)(=O)N2CCCCC2)ccc1[O-])c1ccccc1O

>  <Energy>  (26) 
59.29982145104121

>  <Genealogy>  (26) 
O=C([N-]c1cc(S(=O)(=O)N2CCCCC2)ccc1[O-])c1ccccc1O (protonated)
O=C([N-]c1cc(S(=O)(=O)N2CCCCC2)ccc1[O-])c1ccccc1O (3D coordinates assigned)
O=C([N-]c1cc(S(=O)(=O)N2CCCCC2)ccc1[O-])c1ccccc1O (nonaromatic ring conformer: 59.29982145104121 kcal/mol)

>  <smiles>  (26) 
O=C(Nc1cc(S(=O)(=O)N2CCCCC2)ccc1O)c1ccccc1O

>  <score_type>  (26) 
oracle

>  <origin>  (26) 
adgpu

>  <m_score__min__energy>  (26) 
-13.25

>  <m_primary>  (26) 
energy

$$$$
26:0
     RDKit          3D

 45 47  0  0  0  0  0  0  0  0999 V2000
   -2.9270   20.1470  -27.0610 O   0  0  0  0  0  0  0  0  0  0  0  0
   -1.7700   20.8870  -27.6720 S   0  0  0  0  0  0  0  0  0  0  0  0
   -0.8130   21.2860  -26.5850 O   0  0  0  0  0  0  0  0  0  0  0  0
   -0.9550   19.8380  -28.7870 N   0  0  0  0  0  0  0  0  0  0  0  0
   -0.9060   20.0210  -30.2090 C   0  0  0  0  0  0  0  0  0  0  0  0
    0.3090   20.1290  -30.9090 C   0  0  0  0  0  0  0  0  0  0  0  0
    0.3080   20.3200  -32.2940 C   0  0  0  0  0  0  0  0  0  0  0  0
   -0.9000   20.4050  -32.9900 C   0  0  0  0  0  0  0  0  0  0  0  0
   -2.1160   20.2990  -32.3030 C   0  0  0  0  0  0  0  0  0  0  0  0
   -3.6440   20.4060  -33.1720 S   0  0  0  0  0  0  0  0  0  0  0  0
   -3.6250   19.4140  -34.3010 O   0  0  0  0  0  0  0  0  0  0  0  0
   -3.8170   21.7910  -33.7320 O   0  0  0  0  0  0  0  0  0  0  0  0
   -4.9680   20.0500  -32.0870 N   0  0  0  0  0  0  0  0  0  0  0  0
   -6.0720   21.0310  -32.2500 C   0  0  0  0  0  0  0  0  0  0  0  0
   -7.2580   20.4740  -33.0510 C   0  0  0  0  0  0  0  0  0  0  0  0
   -7.8330   19.2110  -32.3900 C   0  0  0  0  0  0  0  0  0  0  0  0
   -6.7640   18.3870  -31.6500 C   0  0  0  0  0  0  0  0  0  0  0  0
   -5.3720   18.6360  -32.2390 C   0  0  0  0  0  0  0  0  0  0  0  0
   -2.1130   20.1010  -30.9150 C   0  0  0  0  0  0  0  0  0  0  0  0
   -2.3820   22.3060  -28.5150 C   0  0  0  0  0  0  0  0  0  0  0  0
   -3.6490   22.2730  -29.1130 C   0  0  0  0  0  0  0  0  0  0  0  0
   -4.1340   23.3940  -29.7920 C   0  0  0  0  0  0  0  0  0  0  0  0
   -3.3590   24.5550  -29.8760 C   0  0  0  0  0  0  0  0  0  0  0  0
   -3.8540   25.6620  -30.5570 O   0  0  0  0  0  0  0  0  0  0  0  0
   -2.0900   24.5970  -29.2740 C   0  0  0  0  0  0  0  0  0  0  0  0
   -1.2970   25.7410  -29.3410 O   0  0  0  0  0  0  0  0  0  0  0  0
   -1.6080   23.4720  -28.5940 C   0  0  0  0  0  0  0  0  0  0  0  0
    1.2629   20.0630  -30.3652 H   0  0  0  0  0  0  0  0  0  0  0  0
    1.2610   20.4035  -32.8369 H   0  0  0  0  0  0  0  0  0  0  0  0
   -0.8964   20.5555  -34.0797 H   0  0  0  0  0  0  0  0  0  0  0  0
   -6.4301   21.3243  -31.2521 H   0  0  0  0  0  0  0  0  0  0  0  0
   -5.6701   21.8876  -32.8110 H   0  0  0  0  0  0  0  0  0  0  0  0
   -8.0453   21.2403  -33.1055 H   0  0  0  0  0  0  0  0  0  0  0  0
   -6.9035   20.2087  -34.0580 H   0  0  0  0  0  0  0  0  0  0  0  0
   -8.6063   19.5128  -31.6683 H   0  0  0  0  0  0  0  0  0  0  0  0
   -8.2461   18.5774  -33.1887 H   0  0  0  0  0  0  0  0  0  0  0  0
   -6.7613   18.6729  -30.5878 H   0  0  0  0  0  0  0  0  0  0  0  0
   -7.0055   17.3197  -31.7619 H   0  0  0  0  0  0  0  0  0  0  0  0
   -4.6433   17.9974  -31.7181 H   0  0  0  0  0  0  0  0  0  0  0  0
   -5.4021   18.3976  -33.3124 H   0  0  0  0  0  0  0  0  0  0  0  0
   -3.0672   20.0076  -30.3757 H   0  0  0  0  0  0  0  0  0  0  0  0
   -4.2631   21.3627  -29.0478 H   0  0  0  0  0  0  0  0  0  0  0  0
   -5.1282   23.3631  -30.2617 H   0  0  0  0  0  0  0  0  0  0  0  0
   -1.3310   26.3740  -30.1310 H   0  0  0  0  0  0  0  0  0  0  0  0
   -0.6163   23.5033  -28.1191 H   0  0  0  0  0  0  0  0  0  0  0  0
  1  2  2  0
  2  3  2  0
  2  4  1  0
  4  5  1  0
  5  6  2  0
  6  7  1  0
  7  8  2  0
  8  9  1  0
  9 10  1  0
 10 11  2  0
 10 12  2  0
 10 13  1  0
 13 14  1  0
 14 15  1  0
 15 16  1  0
 16 17  1  0
 17 18  1  0
  9 19  2  0
  2 20  1  0
 20 21  2  0
 21 22  1  0
 22 23  2  0
 23 24  1  0
 23 25  1  0
 25 26  1  0
 25 27  2  0
 19  5  1  0
 27 20  1  0
 18 13  1  0
  6 28  1  0
  7 29  1  0
  8 30  1  0
 14 31  1  0
 14 32  1  0
 15 33  1  0
 15 34  1  0
 16 35  1  0
 16 36  1  0
 17 37  1  0
 17 38  1  0
 18 39  1  0
 18 40  1  0
 19 41  1  0
 21 42  1  0
 22 43  1  0
 26 44  1  0
 27 45  1  0
M  CHG  2   4  -1  24  -1
M  END
>  <UniqueID>  (27) 
25

>  <SMILES>  (27) 
O=S(=O)([N-]c1cccc(S(=O)(=O)N2CCCCC2)c1)c1ccc([O-])c(O)c1

>  <Energy>  (27) 
54.54118597191501

>  <Genealogy>  (27) 
O=S(=O)([N-]c1cccc(S(=O)(=O)N2CCCCC2)c1)c1ccc([O-])c(O)c1 (protonated)
O=S(=O)([N-]c1cccc(S(=O)(=O)N2CCCCC2)c1)c1ccc([O-])c(O)c1 (3D coordinates assigned)
O=S(=O)([N-]c1cccc(S(=O)(=O)N2CCCCC2)c1)c1ccc([O-])c(O)c1 (nonaromatic ring conformer: 54.54118597191501 kcal/mol)

>  <smiles>  (27) 
O=S(=O)(Nc1cccc(S(=O)(=O)N2CCCCC2)c1)c1ccc(O)c(O)c1

>  <score_type>  (27) 
oracle

>  <origin>  (27) 
adgpu

>  <m_score__min__energy>  (27) 
-12.279999999999999

>  <m_primary>  (27) 
energy

$$$$
27:0
     RDKit          3D

 47 49  0  0  0  0  0  0  0  0999 V2000
   -7.5620   18.1930  -31.6050 C   0  0  0  0  0  0  0  0  0  0  0  0
   -7.9350   19.0960  -32.7720 C   0  0  0  0  0  0  0  0  0  0  0  0
   -8.0520   20.4940  -32.3340 N   0  0  0  0  0  0  0  0  0  0  0  0
   -9.3840   21.1170  -32.2760 C   0  0  0  0  0  0  0  0  0  0  0  0
   -9.6960   21.5800  -30.8550 C   0  0  0  0  0  0  0  0  0  0  0  0
   -6.8750   21.2560  -31.9840 C   0  0  0  0  0  0  0  0  0  0  0  0
   -5.6370   20.8160  -32.3360 N   0  0  0  0  0  0  0  0  0  0  0  0
   -4.5040   21.4810  -31.9810 C   0  0  0  0  0  0  0  0  0  0  0  0
   -3.1760   20.8980  -32.3760 C   0  0  0  0  0  0  0  0  0  0  0  0
   -4.6110   22.6720  -31.2270 C   0  0  0  0  0  0  0  0  0  0  0  0
   -3.4930   23.4080  -30.7890 C   0  0  0  0  0  0  0  0  0  0  0  0
   -3.6610   24.5200  -29.9430 C   0  0  0  0  0  0  0  0  0  0  0  0
   -2.5550   25.2000  -29.3450 N   0  0  0  0  0  0  0  0  0  0  0  0
   -1.4660   24.5430  -28.1520 S   0  0  0  0  0  0  0  0  0  0  0  0
   -1.7920   25.1450  -26.8140 O   0  0  0  0  0  0  0  0  0  0  0  0
   -0.0440   24.9050  -28.5240 O   0  0  0  0  0  0  0  0  0  0  0  0
   -1.6720   22.7920  -28.0320 C   0  0  0  0  0  0  0  0  0  0  0  0
   -0.5850   21.9410  -28.2840 C   0  0  0  0  0  0  0  0  0  0  0  0
   -0.7280   20.5510  -28.1460 C   0  0  0  0  0  0  0  0  0  0  0  0
   -1.9540   20.0070  -27.7480 C   0  0  0  0  0  0  0  0  0  0  0  0
   -3.0430   20.8510  -27.5040 C   0  0  0  0  0  0  0  0  0  0  0  0
   -2.9060   22.2410  -27.6460 C   0  0  0  0  0  0  0  0  0  0  0  0
   -4.9530   24.9570  -29.6330 C   0  0  0  0  0  0  0  0  0  0  0  0
   -6.0690   24.2690  -30.1100 C   0  0  0  0  0  0  0  0  0  0  0  0
   -5.9040   23.1140  -30.8790 C   0  0  0  0  0  0  0  0  0  0  0  0
   -6.9940   22.4030  -31.2650 N   0  0  0  0  0  0  0  0  0  0  0  0
   -7.7757   18.7104  -30.6581 H   0  0  0  0  0  0  0  0  0  0  0  0
   -8.1505   17.2651  -31.6567 H   0  0  0  0  0  0  0  0  0  0  0  0
   -6.4902   17.9509  -31.6567 H   0  0  0  0  0  0  0  0  0  0  0  0
   -7.1568   19.0246  -33.5462 H   0  0  0  0  0  0  0  0  0  0  0  0
   -8.9059   18.7701  -33.1735 H   0  0  0  0  0  0  0  0  0  0  0  0
   -9.4080   21.9839  -32.9527 H   0  0  0  0  0  0  0  0  0  0  0  0
  -10.1371   20.3760  -32.5823 H   0  0  0  0  0  0  0  0  0  0  0  0
   -9.2315   20.8907  -30.1345 H   0  0  0  0  0  0  0  0  0  0  0  0
   -9.2958   22.5933  -30.7034 H   0  0  0  0  0  0  0  0  0  0  0  0
  -10.7855   21.5895  -30.7034 H   0  0  0  0  0  0  0  0  0  0  0  0
   -2.6025   20.6462  -31.4717 H   0  0  0  0  0  0  0  0  0  0  0  0
   -3.3379   19.9882  -32.9727 H   0  0  0  0  0  0  0  0  0  0  0  0
   -2.6158   21.6329  -32.9727 H   0  0  0  0  0  0  0  0  0  0  0  0
   -2.4833   23.1121  -31.1098 H   0  0  0  0  0  0  0  0  0  0  0  0
    0.3828   22.3645  -28.5908 H   0  0  0  0  0  0  0  0  0  0  0  0
    0.1257   19.8884  -28.3512 H   0  0  0  0  0  0  0  0  0  0  0  0
   -2.0615   18.9189  -27.6273 H   0  0  0  0  0  0  0  0  0  0  0  0
   -4.0100   20.4239  -27.1998 H   0  0  0  0  0  0  0  0  0  0  0  0
   -3.7658   22.8999  -27.4548 H   0  0  0  0  0  0  0  0  0  0  0  0
   -5.0904   25.8513  -29.0074 H   0  0  0  0  0  0  0  0  0  0  0  0
   -7.0802   24.6362  -29.8804 H   0  0  0  0  0  0  0  0  0  0  0  0
  1  2  1  0
  2  3  1  0
  3  4  1  0
  4  5  1  0
  3  6  1  0
  6  7  2  0
  7  8  1  0
  8  9  1  0
  8 10  2  0
 10 11  1  0
 11 12  2  0
 12 13  1  0
 13 14  1  0
 14 15  2  0
 14 16  2  0
 14 17  1  0
 17 18  2  0
 18 19  1  0
 19 20  2  0
 20 21  1  0
 21 22  2  0
 12 23  1  0
 23 24  2  0
 24 25  1  0
 25 26  2  0
 26  6  1  0
 25 10  1  0
 22 17  1  0
  1 27  1  0
  1 28  1  0
  1 29  1  0
  2 30  1  0
  2 31  1  0
  4 32  1  0
  4 33  1  0
  5 34  1  0
  5 35  1  0
  5 36  1  0
  9 37  1  0
  9 38  1  0
  9 39  1  0
 11 40  1  0
 18 41  1  0
 19 42  1  0
 20 43  1  0
 21 44  1  0
 22 45  1  0
 23 46  1  0
 24 47  1  0
M  CHG  1  13  -1
M  END
>  <UniqueID>  (28) 
26

>  <SMILES>  (28) 
CCN(CC)c1nc(C)c2cc([N-]S(=O)(=O)c3ccccc3)ccc2n1

>  <Energy>  (28) 
49.252666667692104

>  <Genealogy>  (28) 
CCN(CC)c1nc(C)c2cc([N-]S(=O)(=O)c3ccccc3)ccc2n1 (protonated)
CCN(CC)c1nc(C)c2cc([N-]S(=O)(=O)c3ccccc3)ccc2n1 (3D coordinates assigned)
CCN(CC)c1nc(C)c2cc([N-]S(=O)(=O)c3ccccc3)ccc2n1 (optimized conformer: 49.252666667692104 kcal/mol)

>  <smiles>  (28) 
CCN(CC)c1nc(C)c2cc(NS(=O)(=O)c3ccccc3)ccc2n1

>  <score_type>  (28) 
oracle

>  <origin>  (28) 
adgpu

>  <m_score__min__energy>  (28) 
-10.029999999999999

>  <m_primary>  (28) 
energy

$$$$
28:0
     RDKit          3D

 43 45  0  0  0  0  0  0  0  0999 V2000
   -4.5900   24.5550  -31.0630 O   0  0  0  0  0  0  0  0  0  0  0  0
   -4.6570   24.0370  -29.9150 C   0  0  0  0  0  0  0  0  0  0  0  0
   -5.7860   23.2130  -29.5660 N   0  0  0  0  0  0  0  0  0  0  0  0
   -6.8070   22.8180  -30.4980 C   0  0  0  0  0  0  0  0  0  0  0  0
   -7.6080   23.8000  -31.0950 C   0  0  0  0  0  0  0  0  0  0  0  0
   -8.6230   23.4390  -31.9860 C   0  0  0  0  0  0  0  0  0  0  0  0
   -8.8580   22.0930  -32.2730 C   0  0  0  0  0  0  0  0  0  0  0  0
   -8.0870   21.0960  -31.6570 C   0  0  0  0  0  0  0  0  0  0  0  0
   -8.4170   19.3920  -31.9820 S   0  0  0  0  0  0  0  0  0  0  0  0
   -9.0930   18.7820  -30.7870 O   0  0  0  0  0  0  0  0  0  0  0  0
   -9.3550   19.2840  -33.1530 O   0  0  0  0  0  0  0  0  0  0  0  0
   -6.9480   18.5080  -32.3270 N   0  0  0  0  0  0  0  0  0  0  0  0
   -5.9800   19.3330  -33.0930 C   0  0  0  0  0  0  0  0  0  0  0  0
   -5.9240   18.9630  -34.5830 C   0  0  0  0  0  0  0  0  0  0  0  0
   -5.5460   17.4840  -34.7740 C   0  0  0  0  0  0  0  0  0  0  0  0
   -6.0400   16.5890  -33.6230 C   0  0  0  0  0  0  0  0  0  0  0  0
   -7.2660   17.1990  -32.9390 C   0  0  0  0  0  0  0  0  0  0  0  0
   -7.0640   21.4610  -30.7710 C   0  0  0  0  0  0  0  0  0  0  0  0
   -3.5630   24.2970  -28.9480 C   0  0  0  0  0  0  0  0  0  0  0  0
   -3.8640   24.5410  -27.5970 C   0  0  0  0  0  0  0  0  0  0  0  0
   -2.8410   24.7840  -26.6800 C   0  0  0  0  0  0  0  0  0  0  0  0
   -1.5160   24.7740  -27.1150 C   0  0  0  0  0  0  0  0  0  0  0  0
   -1.2320   24.5200  -28.4200 N   0  0  0  0  0  0  0  0  0  0  0  0
   -2.2100   24.2830  -29.3350 C   0  0  0  0  0  0  0  0  0  0  0  0
   -5.9130   22.9150  -28.5740 H   0  0  0  0  0  0  0  0  0  0  0  0
   -7.4374   24.8613  -30.8614 H   0  0  0  0  0  0  0  0  0  0  0  0
   -9.2378   24.2171  -32.4620 H   0  0  0  0  0  0  0  0  0  0  0  0
   -9.6496   21.8136  -32.9838 H   0  0  0  0  0  0  0  0  0  0  0  0
   -6.2729   20.3896  -33.0049 H   0  0  0  0  0  0  0  0  0  0  0  0
   -4.9818   19.1473  -32.6698 H   0  0  0  0  0  0  0  0  0  0  0  0
   -6.9107   19.1426  -35.0348 H   0  0  0  0  0  0  0  0  0  0  0  0
   -5.1569   19.5845  -35.0681 H   0  0  0  0  0  0  0  0  0  0  0  0
   -5.9915   17.1259  -35.7138 H   0  0  0  0  0  0  0  0  0  0  0  0
   -4.4479   17.4225  -34.7937 H   0  0  0  0  0  0  0  0  0  0  0  0
   -6.3075   15.6008  -34.0255 H   0  0  0  0  0  0  0  0  0  0  0  0
   -5.2340   16.4981  -32.8800 H   0  0  0  0  0  0  0  0  0  0  0  0
   -8.0610   17.3372  -33.6866 H   0  0  0  0  0  0  0  0  0  0  0  0
   -7.5937   16.5151  -32.1422 H   0  0  0  0  0  0  0  0  0  0  0  0
   -6.4579   20.6819  -30.2857 H   0  0  0  0  0  0  0  0  0  0  0  0
   -4.9114   24.5404  -27.2609 H   0  0  0  0  0  0  0  0  0  0  0  0
   -3.0773   24.9816  -25.6240 H   0  0  0  0  0  0  0  0  0  0  0  0
   -0.7013   24.9715  -26.4027 H   0  0  0  0  0  0  0  0  0  0  0  0
   -1.9422   24.0794  -30.3823 H   0  0  0  0  0  0  0  0  0  0  0  0
  1  2  2  0
  2  3  1  0
  3  4  1  0
  4  5  2  0
  5  6  1  0
  6  7  2  0
  7  8  1  0
  8  9  1  0
  9 10  2  0
  9 11  2  0
  9 12  1  0
 12 13  1  0
 13 14  1  0
 14 15  1  0
 15 16  1  0
 16 17  1  0
  8 18  2  0
  2 19  1  0
 19 20  2  0
 20 21  1  0
 21 22  2  0
 22 23  1  0
 23 24  2  0
 18  4  1  0
 24 19  1  0
 17 12  1  0
  3 25  1  0
  5 26  1  0
  6 27  1  0
  7 28  1  0
 13 29  1  0
 13 30  1  0
 14 31  1  0
 14 32  1  0
 15 33  1  0
 15 34  1  0
 16 35  1  0
 16 36  1  0
 17 37  1  0
 17 38  1  0
 18 39  1  0
 20 40  1  0
 21 41  1  0
 22 42  1  0
 24 43  1  0
M  END
>  <UniqueID>  (29) 
27

>  <SMILES>  (29) 
O=C(Nc1cccc(S(=O)(=O)N2CCCCC2)c1)c1cccnc1

>  <Energy>  (29) 
56.399019499015985

>  <Genealogy>  (29) 
O=C(Nc1cccc(S(=O)(=O)N2CCCCC2)c1)c1cccnc1 (3D coordinates assigned)
O=C(Nc1cccc(S(=O)(=O)N2CCCCC2)c1)c1cccnc1 (nonaromatic ring conformer: 56.399019499015985 kcal/mol)

>  <smiles>  (29) 
O=C(Nc1cccc(S(=O)(=O)N2CCCCC2)c1)c1cccnc1

>  <score_type>  (29) 
oracle

>  <origin>  (29) 
adgpu

>  <m_score__min__energy>  (29) 
-9.1300000000000008

>  <m_primary>  (29) 
energy

$$$$
29:0
     RDKit          3D

 60 63  0  0  0  0  0  0  0  0999 V2000
   -3.9740   24.7490  -27.4180 N   0  0  0  0  0  0  0  0  0  0  0  0
   -3.2600   23.7360  -28.1370 C   0  0  0  0  0  0  0  0  0  0  0  0
   -2.7690   22.6180  -27.4460 C   0  0  0  0  0  0  0  0  0  0  0  0
   -2.0780   21.6120  -28.1240 C   0  0  0  0  0  0  0  0  0  0  0  0
   -1.8870   21.6990  -29.5060 C   0  0  0  0  0  0  0  0  0  0  0  0
   -1.0530   20.4060  -30.3740 S   0  0  0  0  0  0  0  0  0  0  0  0
    0.3150   20.8910  -30.7780 O   0  0  0  0  0  0  0  0  0  0  0  0
   -0.8770   19.2290  -29.4520 O   0  0  0  0  0  0  0  0  0  0  0  0
   -1.9280   19.9120  -31.8080 N   0  0  0  0  0  0  0  0  0  0  0  0
   -1.8330   20.9440  -32.8590 C   0  0  0  0  0  0  0  0  0  0  0  0
   -2.3270   20.4070  -34.2210 C   0  0  0  0  0  0  0  0  0  0  0  0
   -3.0590   19.2100  -34.0640 O   0  0  0  0  0  0  0  0  0  0  0  0
   -2.2070   18.1860  -33.5730 C   0  0  0  0  0  0  0  0  0  0  0  0
   -1.4310   18.6150  -32.3050 C   0  0  0  0  0  0  0  0  0  0  0  0
   -2.3700   22.8150  -30.2030 C   0  0  0  0  0  0  0  0  0  0  0  0
   -3.0380   23.8500  -29.5240 C   0  0  0  0  0  0  0  0  0  0  0  0
   -3.5590   24.9880  -30.2300 N   0  0  0  0  0  0  0  0  0  0  0  0
   -4.9360   25.2390  -30.5500 C   0  0  0  0  0  0  0  0  0  0  0  0
   -5.3880   26.4150  -30.5210 O   0  0  0  0  0  0  0  0  0  0  0  0
   -5.8370   24.1080  -30.8750 C   0  0  0  0  0  0  0  0  0  0  0  0
   -6.2450   23.8790  -32.2030 C   0  0  0  0  0  0  0  0  0  0  0  0
   -7.0920   22.8110  -32.5100 C   0  0  0  0  0  0  0  0  0  0  0  0
   -7.5450   21.9560  -31.4970 C   0  0  0  0  0  0  0  0  0  0  0  0
   -8.6190   20.6180  -31.9030 S   0  0  0  0  0  0  0  0  0  0  0  0
   -9.1130   20.0080  -30.6210 O   0  0  0  0  0  0  0  0  0  0  0  0
   -9.8040   21.1310  -32.6720 O   0  0  0  0  0  0  0  0  0  0  0  0
   -7.7440   19.4160  -32.8290 N   0  0  0  0  0  0  0  0  0  0  0  0
   -7.2930   18.2810  -32.0010 C   0  0  0  0  0  0  0  0  0  0  0  0
   -5.9820   18.5860  -31.2590 C   0  0  0  0  0  0  0  0  0  0  0  0
   -4.9780   19.0010  -32.1640 O   0  0  0  0  0  0  0  0  0  0  0  0
   -5.3710   20.2090  -32.7790 C   0  0  0  0  0  0  0  0  0  0  0  0
   -6.6440   20.0080  -33.6160 C   0  0  0  0  0  0  0  0  0  0  0  0
   -7.1520   22.1830  -30.1690 C   0  0  0  0  0  0  0  0  0  0  0  0
   -6.3000   23.2470  -29.8620 C   0  0  0  0  0  0  0  0  0  0  0  0
   -3.9450   24.8100  -26.3800 H   0  0  0  0  0  0  0  0  0  0  0  0
   -4.5290   25.4710  -27.9330 H   0  0  0  0  0  0  0  0  0  0  0  0
   -2.9298   22.5334  -26.3611 H   0  0  0  0  0  0  0  0  0  0  0  0
   -1.6827   20.7484  -27.5690 H   0  0  0  0  0  0  0  0  0  0  0  0
   -2.9310   19.8010  -31.5280 H   0  0  0  0  0  0  0  0  0  0  0  0
   -2.4497   21.8077  -32.5696 H   0  0  0  0  0  0  0  0  0  0  0  0
   -0.7777   21.2362  -32.9636 H   0  0  0  0  0  0  0  0  0  0  0  0
   -2.9726   21.1630  -34.6917 H   0  0  0  0  0  0  0  0  0  0  0  0
   -1.4500   20.1983  -34.8514 H   0  0  0  0  0  0  0  0  0  0  0  0
   -2.8189   17.3047  -33.3303 H   0  0  0  0  0  0  0  0  0  0  0  0
   -1.4679   17.9632  -34.3566 H   0  0  0  0  0  0  0  0  0  0  0  0
   -1.5651   17.8526  -31.5235 H   0  0  0  0  0  0  0  0  0  0  0  0
   -0.3652   18.7161  -32.5579 H   0  0  0  0  0  0  0  0  0  0  0  0
   -2.2253   22.8821  -31.2914 H   0  0  0  0  0  0  0  0  0  0  0  0
   -5.8944   24.5457  -33.0046 H   0  0  0  0  0  0  0  0  0  0  0  0
   -7.4043   22.6410  -33.5510 H   0  0  0  0  0  0  0  0  0  0  0  0
   -8.0734   18.0509  -31.2607 H   0  0  0  0  0  0  0  0  0  0  0  0
   -7.1105   17.4273  -32.6703 H   0  0  0  0  0  0  0  0  0  0  0  0
   -6.1602   19.3866  -30.5261 H   0  0  0  0  0  0  0  0  0  0  0  0
   -5.6429   17.6709  -30.7514 H   0  0  0  0  0  0  0  0  0  0  0  0
   -5.5661   20.9624  -32.0016 H   0  0  0  0  0  0  0  0  0  0  0  0
   -4.5618   20.5448  -33.4442 H   0  0  0  0  0  0  0  0  0  0  0  0
   -6.9712   20.9845  -34.0025 H   0  0  0  0  0  0  0  0  0  0  0  0
   -6.4030   19.3128  -34.4337 H   0  0  0  0  0  0  0  0  0  0  0  0
   -7.5154   21.5220  -29.3683 H   0  0  0  0  0  0  0  0  0  0  0  0
   -5.9885   23.4133  -28.8202 H   0  0  0  0  0  0  0  0  0  0  0  0
  1  2  1  0
  2  3  2  0
  3  4  1  0
  4  5  2  0
  5  6  1  0
  6  7  2  0
  6  8  2  0
  6  9  1  0
  9 10  1  0
 10 11  1  0
 11 12  1  0
 12 13  1  0
 13 14  1  0
  5 15  1  0
 15 16  2  0
 16 17  1  0
 17 18  1  0
 18 19  2  0
 18 20  1  0
 20 21  2  0
 21 22  1  0
 22 23  2  0
 23 24  1  0
 24 25  2  0
 24 26  2  0
 24 27  1  0
 27 28  1  0
 28 29  1  0
 29 30  1  0
 30 31  1  0
 31 32  1  0
 23 33  1  0
 33 34  2  0
 16  2  1  0
 34 20  1  0
 14  9  1  0
 32 27  1  0
  1 35  1  0
  1 36  1  0
  3 37  1  0
  4 38  1  0
  9 39  1  0
 10 40  1  0
 10 41  1  0
 11 42  1  0
 11 43  1  0
 13 44  1  0
 13 45  1  0
 14 46  1  0
 14 47  1  0
 15 48  1  0
 21 49  1  0
 22 50  1  0
 28 51  1  0
 28 52  1  0
 29 53  1  0
 29 54  1  0
 31 55  1  0
 31 56  1  0
 32 57  1  0
 32 58  1  0
 33 59  1  0
 34 60  1  0
M  CHG  2   9   1  17  -1
M  END
>  <UniqueID>  (30) 
28

>  <SMILES>  (30) 
Nc1ccc(S(=O)(=O)[NH+]2CCOCC2)cc1[N-]C(=O)c1ccc(S(=O)(=O)N2CCOCC2)cc1

>  <Energy>  (30) 
78.5557788921256

>  <Genealogy>  (30) 
Nc1ccc(S(=O)(=O)[NH+]2CCOCC2)cc1[N-]C(=O)c1ccc(S(=O)(=O)N2CCOCC2)cc1 (protonated)
Nc1ccc(S(=O)(=O)[NH+]2CCOCC2)cc1[N-]C(=O)c1ccc(S(=O)(=O)N2CCOCC2)cc1 (3D coordinates assigned)
Nc1ccc(S(=O)(=O)[NH+]2CCOCC2)cc1[N-]C(=O)c1ccc(S(=O)(=O)N2CCOCC2)cc1 (nonaromatic ring conformer: 78.5557788921256 kcal/mol)

>  <smiles>  (30) 
Nc1ccc(S(=O)(=O)N2CCOCC2)cc1NC(=O)c1ccc(S(=O)(=O)N2CCOCC2)cc1

>  <score_type>  (30) 
oracle

>  <origin>  (30) 
adgpu

>  <m_score__min__energy>  (30) 
-11.699999999999999

>  <m_primary>  (30) 
energy

$$$$
30:0
     RDKit          3D

 61 64  0  0  0  0  0  0  0  0999 V2000
    1.7120   17.7270  -35.0410 C   0  0  0  0  0  0  0  0  0  0  0  0
    0.4990   18.5690  -34.7470 C   0  0  0  0  0  0  0  0  0  0  0  0
   -0.7030   17.9290  -34.4020 C   0  0  0  0  0  0  0  0  0  0  0  0
   -1.8480   18.6720  -34.1110 C   0  0  0  0  0  0  0  0  0  0  0  0
   -1.8190   20.0730  -34.1730 C   0  0  0  0  0  0  0  0  0  0  0  0
   -2.9730   20.8620  -33.8410 N   0  0  0  0  0  0  0  0  0  0  0  0
   -4.0990   20.3680  -33.0950 C   0  0  0  0  0  0  0  0  0  0  0  0
   -4.3320   19.1290  -33.0570 O   0  0  0  0  0  0  0  0  0  0  0  0
   -5.0150   21.3080  -32.4090 C   0  0  0  0  0  0  0  0  0  0  0  0
   -6.4010   21.2330  -32.6220 C   0  0  0  0  0  0  0  0  0  0  0  0
   -7.2640   22.1220  -31.9780 C   0  0  0  0  0  0  0  0  0  0  0  0
   -6.7550   23.0960  -31.1150 C   0  0  0  0  0  0  0  0  0  0  0  0
   -7.6130   23.9410  -30.4900 F   0  0  0  0  0  0  0  0  0  0  0  0
   -5.3740   23.1830  -30.8880 C   0  0  0  0  0  0  0  0  0  0  0  0
   -4.7280   24.3920  -29.7770 S   0  0  0  0  0  0  0  0  0  0  0  0
   -3.8650   25.3550  -30.5440 O   0  0  0  0  0  0  0  0  0  0  0  0
   -5.8900   25.1380  -29.1800 O   0  0  0  0  0  0  0  0  0  0  0  0
   -3.7940   23.6110  -28.5130 N   0  0  0  0  0  0  0  0  0  0  0  0
   -2.6040   22.9260  -29.0510 C   0  0  0  0  0  0  0  0  0  0  0  0
   -1.4090   23.8810  -29.2750 C   0  0  0  0  0  0  0  0  0  0  0  0
   -1.7120   25.2160  -28.9280 O   0  0  0  0  0  0  0  0  0  0  0  0
   -2.1400   25.2670  -27.5850 C   0  0  0  0  0  0  0  0  0  0  0  0
   -3.4700   24.5140  -27.3910 C   0  0  0  0  0  0  0  0  0  0  0  0
   -4.5120   22.2780  -31.5230 C   0  0  0  0  0  0  0  0  0  0  0  0
   -0.6200   20.7180  -34.4970 C   0  0  0  0  0  0  0  0  0  0  0  0
    0.5480   19.9850  -34.7700 C   0  0  0  0  0  0  0  0  0  0  0  0
    2.0340   20.8660  -35.1680 S   0  0  0  0  0  0  0  0  0  0  0  0
    2.4780   20.4540  -36.5450 O   0  0  0  0  0  0  0  0  0  0  0  0
    3.1130   20.5300  -34.1740 O   0  0  0  0  0  0  0  0  0  0  0  0
    1.7540   22.5940  -35.1400 N   0  0  0  0  0  0  0  0  0  0  0  0
    3.0090   23.3470  -35.3780 C   0  0  0  0  0  0  0  0  0  0  0  0
    3.0390   24.0150  -36.7640 C   0  0  0  0  0  0  0  0  0  0  0  0
    1.9510   24.9030  -36.9710 O   0  0  0  0  0  0  0  0  0  0  0  0
    0.7210   24.4440  -36.4190 C   0  0  0  0  0  0  0  0  0  0  0  0
    0.6860   22.9410  -36.0950 C   0  0  0  0  0  0  0  0  0  0  0  0
    2.1738   17.4065  -34.0955 H   0  0  0  0  0  0  0  0  0  0  0  0
    1.4121   16.8419  -35.6212 H   0  0  0  0  0  0  0  0  0  0  0  0
    2.4364   18.3175  -35.6212 H   0  0  0  0  0  0  0  0  0  0  0  0
   -0.7422   16.8305  -34.3608 H   0  0  0  0  0  0  0  0  0  0  0  0
   -2.7784   18.1560  -33.8315 H   0  0  0  0  0  0  0  0  0  0  0  0
   -3.0380   21.8260  -34.2400 H   0  0  0  0  0  0  0  0  0  0  0  0
   -6.8093   20.4693  -33.3003 H   0  0  0  0  0  0  0  0  0  0  0  0
   -8.3483   22.0553  -32.1507 H   0  0  0  0  0  0  0  0  0  0  0  0
   -2.2991   22.1430  -28.3412 H   0  0  0  0  0  0  0  0  0  0  0  0
   -2.8792   22.5069  -30.0301 H   0  0  0  0  0  0  0  0  0  0  0  0
   -0.5640   23.5394  -28.6591 H   0  0  0  0  0  0  0  0  0  0  0  0
   -1.1617   23.8618  -30.3467 H   0  0  0  0  0  0  0  0  0  0  0  0
   -1.3715   24.8068  -26.9465 H   0  0  0  0  0  0  0  0  0  0  0  0
   -2.2950   26.3208  -27.3104 H   0  0  0  0  0  0  0  0  0  0  0  0
   -3.4030   23.9171  -26.4695 H   0  0  0  0  0  0  0  0  0  0  0  0
   -4.2687   25.2684  -27.3363 H   0  0  0  0  0  0  0  0  0  0  0  0
   -3.4308   22.3269  -31.3264 H   0  0  0  0  0  0  0  0  0  0  0  0
   -0.5911   21.8168  -34.5387 H   0  0  0  0  0  0  0  0  0  0  0  0
    3.1045   24.1267  -34.6080 H   0  0  0  0  0  0  0  0  0  0  0  0
    3.8431   22.6313  -35.3327 H   0  0  0  0  0  0  0  0  0  0  0  0
    3.9775   24.5805  -36.8612 H   0  0  0  0  0  0  0  0  0  0  0  0
    2.9630   23.2172  -37.5175 H   0  0  0  0  0  0  0  0  0  0  0  0
    0.5338   25.0000  -35.4885 H   0  0  0  0  0  0  0  0  0  0  0  0
   -0.0483   24.6155  -37.1863 H   0  0  0  0  0  0  0  0  0  0  0  0
   -0.2897   22.6882  -35.6545 H   0  0  0  0  0  0  0  0  0  0  0  0
    0.8411   22.3730  -37.0241 H   0  0  0  0  0  0  0  0  0  0  0  0
  1  2  1  0
  2  3  2  0
  3  4  1  0
  4  5  2  0
  5  6  1  0
  6  7  1  0
  7  8  2  0
  7  9  1  0
  9 10  2  0
 10 11  1  0
 11 12  2  0
 12 13  1  0
 12 14  1  0
 14 15  1  0
 15 16  2  0
 15 17  2  0
 15 18  1  0
 18 19  1  0
 19 20  1  0
 20 21  1  0
 21 22  1  0
 22 23  1  0
 14 24  2  0
  5 25  1  0
 25 26  2  0
 26 27  1  0
 27 28  2  0
 27 29  2  0
 27 30  1  0
 30 31  1  0
 31 32  1  0
 32 33  1  0
 33 34  1  0
 34 35  1  0
 26  2  1  0
 35 30  1  0
 24  9  1  0
 23 18  1  0
  1 36  1  0
  1 37  1  0
  1 38  1  0
  3 39  1  0
  4 40  1  0
  6 41  1  0
 10 42  1  0
 11 43  1  0
 19 44  1  0
 19 45  1  0
 20 46  1  0
 20 47  1  0
 22 48  1  0
 22 49  1  0
 23 50  1  0
 23 51  1  0
 24 52  1  0
 25 53  1  0
 31 54  1  0
 31 55  1  0
 32 56  1  0
 32 57  1  0
 34 58  1  0
 34 59  1  0
 35 60  1  0
 35 61  1  0
M  END
>  <UniqueID>  (31) 
29

>  <SMILES>  (31) 
Cc1ccc(NC(=O)c2ccc(F)c(S(=O)(=O)N3CCOCC3)c2)cc1S(=O)(=O)N1CCOCC1

>  <Energy>  (31) 
94.98640823680685

>  <Genealogy>  (31) 
Cc1ccc(NC(=O)c2ccc(F)c(S(=O)(=O)N3CCOCC3)c2)cc1S(=O)(=O)N1CCOCC1 (3D coordinates assigned)
Cc1ccc(NC(=O)c2ccc(F)c(S(=O)(=O)N3CCOCC3)c2)cc1S(=O)(=O)N1CCOCC1 (nonaromatic ring conformer: 94.98640823680685 kcal/mol)

>  <smiles>  (31) 
Cc1ccc(NC(=O)c2ccc(F)c(S(=O)(=O)N3CCOCC3)c2)cc1S(=O)(=O)N1CCOCC1

>  <score_type>  (31) 
oracle

>  <origin>  (31) 
adgpu

>  <m_score__min__energy>  (31) 
-11.23

>  <m_primary>  (31) 
energy

$$$$
31:0
     RDKit          3D

 47 50  0  0  0  0  0  0  0  0999 V2000
   -1.7140   25.2370  -28.7240 C   0  0  0  0  0  0  0  0  0  0  0  0
   -2.7530   24.9250  -29.7000 N   0  0  0  0  0  0  0  0  0  0  0  0
   -3.7710   23.6580  -29.0860 S   0  0  0  0  0  0  0  0  0  0  0  0
   -2.9740   22.3890  -28.9760 O   0  0  0  0  0  0  0  0  0  0  0  0
   -4.2460   24.0380  -27.7100 O   0  0  0  0  0  0  0  0  0  0  0  0
   -5.1550   23.3870  -30.1620 C   0  0  0  0  0  0  0  0  0  0  0  0
   -5.4090   22.0870  -30.6270 C   0  0  0  0  0  0  0  0  0  0  0  0
   -6.4990   21.8170  -31.4700 C   0  0  0  0  0  0  0  0  0  0  0  0
   -6.7600   20.4370  -31.9500 C   0  0  0  0  0  0  0  0  0  0  0  0
   -8.0690   19.8910  -31.9130 C   0  0  0  0  0  0  0  0  0  0  0  0
   -8.3150   18.5840  -32.3670 C   0  0  0  0  0  0  0  0  0  0  0  0
   -7.2320   17.8580  -32.8490 C   0  0  0  0  0  0  0  0  0  0  0  0
   -7.2530   16.6010  -33.3240 N   0  0  0  0  0  0  0  0  0  0  0  0
   -5.9440   16.4110  -33.6420 C   0  0  0  0  0  0  0  0  0  0  0  0
   -5.4160   15.1550  -34.2200 C   0  0  0  0  0  0  0  0  0  0  0  0
   -6.2130   13.9980  -34.2510 C   0  0  0  0  0  0  0  0  0  0  0  0
   -5.7180   12.8130  -34.8040 C   0  0  0  0  0  0  0  0  0  0  0  0
   -4.4230   12.7700  -35.3250 C   0  0  0  0  0  0  0  0  0  0  0  0
   -3.6080   13.9090  -35.2860 C   0  0  0  0  0  0  0  0  0  0  0  0
   -2.2310   13.8730  -35.8820 C   0  0  0  0  0  0  0  0  0  0  0  0
   -4.1130   15.1030  -34.7460 C   0  0  0  0  0  0  0  0  0  0  0  0
   -5.1700   17.4930  -33.3750 N   0  0  0  0  0  0  0  0  0  0  0  0
   -6.0050   18.3840  -32.8800 N   0  0  0  0  0  0  0  0  0  0  0  0
   -5.7110   19.6380  -32.4560 C   0  0  0  0  0  0  0  0  0  0  0  0
   -7.3410   22.8730  -31.8500 C   0  0  0  0  0  0  0  0  0  0  0  0
   -7.1000   24.1700  -31.3970 C   0  0  0  0  0  0  0  0  0  0  0  0
   -6.0090   24.4460  -30.5580 C   0  0  0  0  0  0  0  0  0  0  0  0
   -5.8000   25.8580  -30.0750 C   0  0  0  0  0  0  0  0  0  0  0  0
   -2.1173   25.1159  -27.7078 H   0  0  0  0  0  0  0  0  0  0  0  0
   -0.8625   24.5549  -28.8643 H   0  0  0  0  0  0  0  0  0  0  0  0
   -1.3791   26.2753  -28.8643 H   0  0  0  0  0  0  0  0  0  0  0  0
   -4.7424   21.2655  -30.3257 H   0  0  0  0  0  0  0  0  0  0  0  0
   -8.9005   20.4974  -31.5247 H   0  0  0  0  0  0  0  0  0  0  0  0
   -9.3262   18.1518  -32.3419 H   0  0  0  0  0  0  0  0  0  0  0  0
   -7.2321   14.0247  -33.8378 H   0  0  0  0  0  0  0  0  0  0  0  0
   -6.3498   11.9129  -34.8287 H   0  0  0  0  0  0  0  0  0  0  0  0
   -4.0413   11.8382  -35.7678 H   0  0  0  0  0  0  0  0  0  0  0  0
   -1.4829   13.8534  -35.0758 H   0  0  0  0  0  0  0  0  0  0  0  0
   -2.1239   12.9717  -36.5035 H   0  0  0  0  0  0  0  0  0  0  0  0
   -2.0770   14.7674  -36.5035 H   0  0  0  0  0  0  0  0  0  0  0  0
   -3.4839   16.0052  -34.7344 H   0  0  0  0  0  0  0  0  0  0  0  0
   -4.6818   20.0231  -32.5049 H   0  0  0  0  0  0  0  0  0  0  0  0
   -8.1983   22.6764  -32.5106 H   0  0  0  0  0  0  0  0  0  0  0  0
   -7.7725   24.9858  -31.7007 H   0  0  0  0  0  0  0  0  0  0  0  0
   -5.7978   25.8727  -28.9751 H   0  0  0  0  0  0  0  0  0  0  0  0
   -4.8363   26.2345  -30.4487 H   0  0  0  0  0  0  0  0  0  0  0  0
   -6.6133   26.4975  -30.4487 H   0  0  0  0  0  0  0  0  0  0  0  0
  1  2  1  0
  2  3  1  0
  3  4  2  0
  3  5  2  0
  3  6  1  0
  6  7  2  0
  7  8  1  0
  8  9  1  0
  9 10  1  0
 10 11  2  0
 11 12  1  0
 12 13  2  0
 13 14  1  0
 14 15  1  0
 15 16  2  0
 16 17  1  0
 17 18  2  0
 18 19  1  0
 19 20  1  0
 19 21  2  0
 14 22  2  0
 22 23  1  0
 23 24  1  0
  8 25  2  0
 25 26  1  0
 26 27  2  0
 27 28  1  0
 27  6  1  0
 24  9  2  0
 23 12  1  0
 21 15  1  0
  1 29  1  0
  1 30  1  0
  1 31  1  0
  7 32  1  0
 10 33  1  0
 11 34  1  0
 16 35  1  0
 17 36  1  0
 18 37  1  0
 20 38  1  0
 20 39  1  0
 20 40  1  0
 21 41  1  0
 24 42  1  0
 25 43  1  0
 26 44  1  0
 28 45  1  0
 28 46  1  0
 28 47  1  0
M  CHG  1   2  -1
M  END
>  <UniqueID>  (32) 
30

>  <SMILES>  (32) 
C[N-]S(=O)(=O)c1cc(-c2ccc3nc(-c4cccc(C)c4)nn3c2)ccc1C

>  <Energy>  (32) 
93.62330995289675

>  <Genealogy>  (32) 
C[N-]S(=O)(=O)c1cc(-c2ccc3nc(-c4cccc(C)c4)nn3c2)ccc1C (protonated)
C[N-]S(=O)(=O)c1cc(-c2ccc3nc(-c4cccc(C)c4)nn3c2)ccc1C (3D coordinates assigned)
C[N-]S(=O)(=O)c1cc(-c2ccc3nc(-c4cccc(C)c4)nn3c2)ccc1C (optimized conformer: 93.62330995289675 kcal/mol)

>  <smiles>  (32) 
CNS(=O)(=O)c1cc(-c2ccc3nc(-c4cccc(C)c4)nn3c2)ccc1C

>  <score_type>  (32) 
oracle

>  <origin>  (32) 
adgpu

>  <m_score__min__energy>  (32) 
-10.029999999999999

>  <m_primary>  (32) 
energy

$$$$
32:0
     RDKit          3D

 58 62  0  0  0  0  0  0  0  0999 V2000
   -1.8940   25.5780  -28.9690 O   0  0  0  0  0  0  0  0  0  0  0  0
   -2.2790   24.4090  -29.2350 C   0  0  0  0  0  0  0  0  0  0  0  0
   -1.3210   23.3430  -29.1840 N   0  0  0  0  0  0  0  0  0  0  0  0
   -1.4290   22.1460  -28.3970 C   0  0  0  0  0  0  0  0  0  0  0  0
   -1.0940   22.1470  -27.0300 C   0  0  0  0  0  0  0  0  0  0  0  0
   -1.2200   20.9820  -26.2720 C   0  0  0  0  0  0  0  0  0  0  0  0
   -1.6690   19.8030  -26.8700 C   0  0  0  0  0  0  0  0  0  0  0  0
   -1.9870   19.7860  -28.2300 C   0  0  0  0  0  0  0  0  0  0  0  0
   -1.8570   20.9490  -29.0040 C   0  0  0  0  0  0  0  0  0  0  0  0
   -2.1920   20.9080  -30.4020 N   0  0  0  0  0  0  0  0  0  0  0  0
   -1.2640   21.4400  -31.4040 C   0  0  0  0  0  0  0  0  0  0  0  0
   -1.2290   20.5430  -32.6600 C   0  0  0  0  0  0  0  0  0  0  0  0
   -2.4820   19.8040  -32.9180 N   0  0  0  0  0  0  0  0  0  0  0  0
   -3.6600   20.4530  -32.3290 C   0  0  0  0  0  0  0  0  0  0  0  0
   -3.5380   20.4860  -30.8020 C   0  0  0  0  0  0  0  0  0  0  0  0
   -3.6850   24.1800  -29.6450 C   0  0  0  0  0  0  0  0  0  0  0  0
   -3.9760   23.5140  -30.8420 C   0  0  0  0  0  0  0  0  0  0  0  0
   -5.3010   23.2940  -31.2230 C   0  0  0  0  0  0  0  0  0  0  0  0
   -6.3480   23.7470  -30.3940 C   0  0  0  0  0  0  0  0  0  0  0  0
   -7.6100   23.5750  -30.6780 N   0  0  0  0  0  0  0  0  0  0  0  0
   -8.2100   23.0450  -31.8720 C   0  0  0  0  0  0  0  0  0  0  0  0
   -8.7840   23.7980  -32.7040 O   0  0  0  0  0  0  0  0  0  0  0  0
   -8.2380   21.5940  -32.0860 C   0  0  0  0  0  0  0  0  0  0  0  0
   -9.3430   20.7750  -31.9600 C   0  0  0  0  0  0  0  0  0  0  0  0
   -8.9010   19.5020  -32.2510 C   0  0  0  0  0  0  0  0  0  0  0  0
   -7.5490   19.6230  -32.5370 C   0  0  0  0  0  0  0  0  0  0  0  0
   -6.6140   18.5370  -32.9120 C   0  0  0  0  0  0  0  0  0  0  0  0
   -6.2790   17.5090  -32.0090 C   0  0  0  0  0  0  0  0  0  0  0  0
   -5.3930   16.4950  -32.3870 C   0  0  0  0  0  0  0  0  0  0  0  0
   -4.8330   16.4950  -33.6660 C   0  0  0  0  0  0  0  0  0  0  0  0
   -5.1570   17.5090  -34.5700 C   0  0  0  0  0  0  0  0  0  0  0  0
   -4.6120   17.5080  -35.8120 F   0  0  0  0  0  0  0  0  0  0  0  0
   -6.0430   18.5250  -34.1970 C   0  0  0  0  0  0  0  0  0  0  0  0
   -7.1900   20.8840  -32.4290 O   0  0  0  0  0  0  0  0  0  0  0  0
   -6.0340   24.3600  -29.2210 N   0  0  0  0  0  0  0  0  0  0  0  0
   -4.7530   24.5840  -28.8310 C   0  0  0  0  0  0  0  0  0  0  0  0
   -0.7309   23.0711  -26.5565 H   0  0  0  0  0  0  0  0  0  0  0  0
   -0.9652   20.9927  -25.2020 H   0  0  0  0  0  0  0  0  0  0  0  0
   -1.7724   18.8870  -26.2698 H   0  0  0  0  0  0  0  0  0  0  0  0
   -2.3415   18.8553  -28.6970 H   0  0  0  0  0  0  0  0  0  0  0  0
   -1.5880   22.4507  -31.6931 H   0  0  0  0  0  0  0  0  0  0  0  0
   -0.2553   21.4681  -30.9662 H   0  0  0  0  0  0  0  0  0  0  0  0
   -1.0197   21.1801  -33.5319 H   0  0  0  0  0  0  0  0  0  0  0  0
   -0.4496   19.7870  -32.4839 H   0  0  0  0  0  0  0  0  0  0  0  0
   -2.3970   18.8420  -32.5130 H   0  0  0  0  0  0  0  0  0  0  0  0
   -3.7362   21.4822  -32.7097 H   0  0  0  0  0  0  0  0  0  0  0  0
   -4.5594   19.8829  -32.6049 H   0  0  0  0  0  0  0  0  0  0  0  0
   -4.2749   21.1943  -30.3955 H   0  0  0  0  0  0  0  0  0  0  0  0
   -3.7250   19.4758  -30.4089 H   0  0  0  0  0  0  0  0  0  0  0  0
   -3.1562   23.1623  -31.4856 H   0  0  0  0  0  0  0  0  0  0  0  0
   -5.5268   22.7707  -32.1638 H   0  0  0  0  0  0  0  0  0  0  0  0
  -10.3645   21.0762  -31.6845 H   0  0  0  0  0  0  0  0  0  0  0  0
   -9.4986   18.5785  -32.2555 H   0  0  0  0  0  0  0  0  0  0  0  0
   -6.7171   17.5037  -31.0000 H   0  0  0  0  0  0  0  0  0  0  0  0
   -5.1369   15.6962  -31.6755 H   0  0  0  0  0  0  0  0  0  0  0  0
   -4.1367   15.6964  -33.9616 H   0  0  0  0  0  0  0  0  0  0  0  0
   -6.2949   19.3203  -34.9140 H   0  0  0  0  0  0  0  0  0  0  0  0
   -4.5520   25.0846  -27.8723 H   0  0  0  0  0  0  0  0  0  0  0  0
  1  2  2  0
  2  3  1  0
  3  4  1  0
  4  5  2  0
  5  6  1  0
  6  7  2  0
  7  8  1  0
  8  9  2  0
  9 10  1  0
 10 11  1  0
 11 12  1  0
 12 13  1  0
 13 14  1  0
 14 15  1  0
  2 16  1  0
 16 17  1  0
 17 18  2  0
 18 19  1  0
 19 20  2  3
 20 21  1  0
 21 22  2  0
 21 23  1  0
 23 24  2  0
 24 25  1  0
 25 26  2  0
 26 27  1  0
 27 28  2  0
 28 29  1  0
 29 30  2  0
 30 31  1  0
 31 32  1  0
 31 33  2  0
 26 34  1  0
 19 35  1  0
 35 36  1  0
  9  4  1  0
 15 10  1  0
 36 16  2  0
 34 23  1  0
 33 27  1  0
  5 37  1  0
  6 38  1  0
  7 39  1  0
  8 40  1  0
 11 41  1  0
 11 42  1  0
 12 43  1  0
 12 44  1  0
 13 45  1  0
 14 46  1  0
 14 47  1  0
 15 48  1  0
 15 49  1  0
 17 50  1  0
 18 51  1  0
 24 52  1  0
 25 53  1  0
 28 54  1  0
 29 55  1  0
 30 56  1  0
 33 57  1  0
 36 58  1  0
M  CHG  2   3  -1  35  -1
M  END
>  <UniqueID>  (33) 
31

>  <SMILES>  (33) 
O=C([N-]c1ccccc1N1CCNCC1)c1ccc(=NC(=O)c2ccc(-c3cccc(F)c3)o2)[n-]c1

>  <Energy>  (33) 
114.19946556241375

>  <Genealogy>  (33) 
O=C([N-]c1ccccc1N1CCNCC1)c1ccc(=NC(=O)c2ccc(-c3cccc(F)c3)o2)[n-]c1 (protonated)
O=C([N-]c1ccccc1N1CCNCC1)c1ccc(=NC(=O)c2ccc(-c3cccc(F)c3)o2)[n-]c1 (3D coordinates assigned)
O=C([N-]c1ccccc1N1CCNCC1)c1ccc(=NC(=O)c2ccc(-c3cccc(F)c3)o2)[n-]c1 (nonaromatic ring conformer: 114.19946556241375 kcal/mol)

>  <smiles>  (33) 
O=C(Nc1ccccc1N1CCNCC1)c1ccc(=NC(=O)c2ccc(-c3cccc(F)c3)o2)[nH]c1

>  <score_type>  (33) 
oracle

>  <origin>  (33) 
adgpu

>  <m_score__min__energy>  (33) 
-11.43

>  <m_primary>  (33) 
energy

$$$$
33:0
     RDKit          3D

 41 43  0  0  0  0  0  0  0  0999 V2000
   -8.1120   20.0450  -32.5390 C   0  0  0  0  0  0  0  0  0  0  0  0
   -7.3800   21.2450  -32.0010 C   0  0  0  0  0  0  0  0  0  0  0  0
   -8.1280   22.3500  -31.5600 C   0  0  0  0  0  0  0  0  0  0  0  0
   -7.4930   23.4850  -31.0530 C   0  0  0  0  0  0  0  0  0  0  0  0
   -6.0990   23.5290  -30.9630 C   0  0  0  0  0  0  0  0  0  0  0  0
   -5.3080   24.9790  -30.3490 S   0  0  0  0  0  0  0  0  0  0  0  0
   -5.7020   25.2450  -28.9220 O   0  0  0  0  0  0  0  0  0  0  0  0
   -5.7390   26.1510  -31.1850 O   0  0  0  0  0  0  0  0  0  0  0  0
   -3.5890   24.7980  -30.4740 N   0  0  0  0  0  0  0  0  0  0  0  0
   -2.7630   24.1660  -29.4850 C   0  0  0  0  0  0  0  0  0  0  0  0
   -3.0890   22.8700  -29.0700 C   0  0  0  0  0  0  0  0  0  0  0  0
   -2.3230   22.2320  -28.0930 C   0  0  0  0  0  0  0  0  0  0  0  0
   -1.2220   22.8940  -27.5490 C   0  0  0  0  0  0  0  0  0  0  0  0
   -0.8920   24.1370  -27.9870 N   0  0  0  0  0  0  0  0  0  0  0  0
   -1.6200   24.7820  -28.9380 C   0  0  0  0  0  0  0  0  0  0  0  0
   -1.2370   25.9120  -29.3380 O   0  0  0  0  0  0  0  0  0  0  0  0
   -5.3430   22.4400  -31.4060 C   0  0  0  0  0  0  0  0  0  0  0  0
   -5.9640   21.3080  -31.9600 C   0  0  0  0  0  0  0  0  0  0  0  0
   -4.9420   19.9990  -32.5830 S   0  0  0  0  0  0  0  0  0  0  0  0
   -5.2090   18.7460  -31.7960 O   0  0  0  0  0  0  0  0  0  0  0  0
   -5.2400   19.7380  -34.0330 O   0  0  0  0  0  0  0  0  0  0  0  0
   -3.2390   20.4360  -32.4620 C   0  0  0  0  0  0  0  0  0  0  0  0
   -2.5370   20.8200  -33.6140 C   0  0  0  0  0  0  0  0  0  0  0  0
   -1.1950   21.2030  -33.5260 C   0  0  0  0  0  0  0  0  0  0  0  0
   -0.5500   21.2110  -32.2850 C   0  0  0  0  0  0  0  0  0  0  0  0
   -1.2470   20.8350  -31.1330 C   0  0  0  0  0  0  0  0  0  0  0  0
   -2.5880   20.4500  -31.2190 C   0  0  0  0  0  0  0  0  0  0  0  0
   -8.4834   19.4362  -31.7015 H   0  0  0  0  0  0  0  0  0  0  0  0
   -8.9606   20.3786  -33.1544 H   0  0  0  0  0  0  0  0  0  0  0  0
   -7.4271   19.4432  -33.1544 H   0  0  0  0  0  0  0  0  0  0  0  0
   -9.2262   22.3202  -31.6150 H   0  0  0  0  0  0  0  0  0  0  0  0
   -8.0914   24.3471  -30.7234 H   0  0  0  0  0  0  0  0  0  0  0  0
   -3.9516   22.3524  -29.5151 H   0  0  0  0  0  0  0  0  0  0  0  0
   -2.5846   21.2182  -27.7556 H   0  0  0  0  0  0  0  0  0  0  0  0
   -0.6210   22.4095  -26.7654 H   0  0  0  0  0  0  0  0  0  0  0  0
   -4.2468   22.4697  -31.3197 H   0  0  0  0  0  0  0  0  0  0  0  0
   -3.0440   20.8199  -34.5902 H   0  0  0  0  0  0  0  0  0  0  0  0
   -0.6466   21.4980  -34.4328 H   0  0  0  0  0  0  0  0  0  0  0  0
    0.5054   21.5131  -32.2155 H   0  0  0  0  0  0  0  0  0  0  0  0
   -0.7393   20.8421  -30.1572 H   0  0  0  0  0  0  0  0  0  0  0  0
   -3.1342   20.1573  -30.3102 H   0  0  0  0  0  0  0  0  0  0  0  0
  1  2  1  0
  2  3  2  0
  3  4  1  0
  4  5  2  0
  5  6  1  0
  6  7  2  0
  6  8  2  0
  6  9  1  0
  9 10  1  0
 10 11  2  0
 11 12  1  0
 12 13  2  0
 13 14  1  0
 14 15  1  0
 15 16  2  0
  5 17  1  0
 17 18  2  0
 18 19  1  0
 19 20  2  0
 19 21  2  0
 19 22  1  0
 22 23  2  0
 23 24  1  0
 24 25  2  0
 25 26  1  0
 26 27  2  0
 18  2  1  0
 27 22  1  0
 15 10  1  0
  1 28  1  0
  1 29  1  0
  1 30  1  0
  3 31  1  0
  4 32  1  0
 11 33  1  0
 12 34  1  0
 13 35  1  0
 17 36  1  0
 23 37  1  0
 24 38  1  0
 25 39  1  0
 26 40  1  0
 27 41  1  0
M  CHG  2   9  -1  14  -1
M  END
>  <UniqueID>  (34) 
32

>  <SMILES>  (34) 
Cc1ccc(S(=O)(=O)[N-]c2ccc[n-]c2=O)cc1S(=O)(=O)c1ccccc1

>  <Energy>  (34) 
54.323936863903555

>  <Genealogy>  (34) 
Cc1ccc(S(=O)(=O)[N-]c2ccc[n-]c2=O)cc1S(=O)(=O)c1ccccc1 (protonated)
Cc1ccc(S(=O)(=O)[N-]c2ccc[n-]c2=O)cc1S(=O)(=O)c1ccccc1 (3D coordinates assigned)
Cc1ccc(S(=O)(=O)[N-]c2ccc[n-]c2=O)cc1S(=O)(=O)c1ccccc1 (optimized conformer: 54.323936863903555 kcal/mol)

>  <smiles>  (34) 
Cc1ccc(S(=O)(=O)Nc2ccc[nH]c2=O)cc1S(=O)(=O)c1ccccc1

>  <score_type>  (34) 
oracle

>  <origin>  (34) 
adgpu

>  <m_score__min__energy>  (34) 
-12.15

>  <m_primary>  (34) 
energy

$$$$
34:0
     RDKit          3D

 51 54  0  0  0  0  0  0  0  0999 V2000
    0.6250   29.4770  -23.3350 H   0  0  0  0  0  0  0  0  0  0  0  0
    1.4670   30.0520  -23.5610 N   0  0  0  0  0  0  0  0  0  0  0  0
    2.4800   29.0850  -24.5720 S   0  0  0  0  0  0  0  0  0  0  0  0
    3.4170   29.9760  -25.3390 O   0  0  0  0  0  0  0  0  0  0  0  0
    3.2930   28.1480  -23.7230 O   0  0  0  0  0  0  0  0  0  0  0  0
    1.4850   28.1610  -25.6940 C   0  0  0  0  0  0  0  0  0  0  0  0
    0.2830   28.7000  -26.1740 C   0  0  0  0  0  0  0  0  0  0  0  0
   -0.0437   29.6962  -25.8409 H   0  0  0  0  0  0  0  0  0  0  0  0
   -0.5010   27.9740  -27.0750 C   0  0  0  0  0  0  0  0  0  0  0  0
   -1.4358   28.4086  -27.4587 H   0  0  0  0  0  0  0  0  0  0  0  0
   -0.1050   26.6970  -27.4930 C   0  0  0  0  0  0  0  0  0  0  0  0
   -0.9150   25.9980  -28.4490 N   0  0  0  0  0  0  0  0  0  0  0  0
   -1.9980   25.3220  -28.2010 C   0  0  0  0  0  0  0  0  0  0  0  0
   -2.6690   24.6640  -29.1690 N   0  0  0  0  0  0  0  0  0  0  0  0
   -3.8010   24.0660  -28.7000 C   0  0  0  0  0  0  0  0  0  0  0  0
   -4.6850   23.2760  -29.5970 C   0  0  0  0  0  0  0  0  0  0  0  0
   -6.0450   23.6190  -29.7180 C   0  0  0  0  0  0  0  0  0  0  0  0
   -6.4438   24.4723  -29.1498 H   0  0  0  0  0  0  0  0  0  0  0  0
   -6.8930   22.8870  -30.5520 C   0  0  0  0  0  0  0  0  0  0  0  0
   -7.9536   23.1664  -30.6354 H   0  0  0  0  0  0  0  0  0  0  0  0
   -6.4000   21.8000  -31.2820 C   0  0  0  0  0  0  0  0  0  0  0  0
   -7.4870   20.8660  -32.3070 S   0  0  0  0  0  0  0  0  0  0  0  0
   -6.9200   20.7560  -33.6960 O   0  0  0  0  0  0  0  0  0  0  0  0
   -8.8110   21.5730  -32.3900 O   0  0  0  0  0  0  0  0  0  0  0  0
   -7.7270   19.2780  -31.6460 N   0  0  0  0  0  0  0  0  0  0  0  0
   -6.8340   19.0120  -31.1680 H   0  0  0  0  0  0  0  0  0  0  0  0
   -7.9670   18.3210  -32.7270 C   0  0  0  0  0  0  0  0  0  0  0  0
   -8.6276   17.5191  -32.3657 H   0  0  0  0  0  0  0  0  0  0  0  0
   -8.4432   18.8384  -33.5729 H   0  0  0  0  0  0  0  0  0  0  0  0
   -6.6610   17.7280  -33.1770 C   0  0  0  0  0  0  0  0  0  0  0  0
   -5.9520   16.8550  -32.3340 C   0  0  0  0  0  0  0  0  0  0  0  0
   -6.3679   16.5823  -31.3529 H   0  0  0  0  0  0  0  0  0  0  0  0
   -4.7200   16.3320  -32.7380 C   0  0  0  0  0  0  0  0  0  0  0  0
   -4.1728   15.6426  -32.0782 H   0  0  0  0  0  0  0  0  0  0  0  0
   -4.1830   16.6840  -33.9790 C   0  0  0  0  0  0  0  0  0  0  0  0
   -3.2155   16.2685  -34.2974 H   0  0  0  0  0  0  0  0  0  0  0  0
   -4.8750   17.5640  -34.8160 C   0  0  0  0  0  0  0  0  0  0  0  0
   -4.4494   17.8432  -35.7912 H   0  0  0  0  0  0  0  0  0  0  0  0
   -6.1070   18.0900  -34.4160 C   0  0  0  0  0  0  0  0  0  0  0  0
   -6.6441   18.7894  -35.0735 H   0  0  0  0  0  0  0  0  0  0  0  0
   -5.0530   21.4420  -31.1600 C   0  0  0  0  0  0  0  0  0  0  0  0
   -4.6626   20.5815  -31.7232 H   0  0  0  0  0  0  0  0  0  0  0  0
   -4.2000   22.1720  -30.3260 C   0  0  0  0  0  0  0  0  0  0  0  0
   -3.1425   21.8821  -30.2385 H   0  0  0  0  0  0  0  0  0  0  0  0
   -4.0330   24.2630  -27.3330 C   0  0  0  0  0  0  0  0  0  0  0  0
   -4.8837   23.8651  -26.7603 H   0  0  0  0  0  0  0  0  0  0  0  0
   -2.7900   25.2110  -26.7170 S   0  0  0  0  0  0  0  0  0  0  0  0
    1.1210   26.1770  -27.0410 C   0  0  0  0  0  0  0  0  0  0  0  0
    1.4637   25.1944  -27.3974 H   0  0  0  0  0  0  0  0  0  0  0  0
    1.9060   26.9030  -26.1410 C   0  0  0  0  0  0  0  0  0  0  0  0
    2.8580   26.4844  -25.7826 H   0  0  0  0  0  0  0  0  0  0  0  0
  1  2  1  0
  2  3  1  0
  3  4  2  0
  3  5  2  0
  3  6  1  0
  6  7  2  0
  7  8  1  0
  7  9  1  0
  9 10  1  0
  9 11  2  0
 11 12  1  0
 12 13  2  0
 13 14  1  0
 14 15  1  0
 15 16  1  0
 16 17  2  0
 17 18  1  0
 17 19  1  0
 19 20  1  0
 19 21  2  0
 21 22  1  0
 22 23  2  0
 22 24  2  0
 22 25  1  0
 25 26  1  0
 25 27  1  0
 27 28  1  0
 27 29  1  0
 27 30  1  0
 30 31  2  0
 31 32  1  0
 31 33  1  0
 33 34  1  0
 33 35  2  0
 35 36  1  0
 35 37  1  0
 37 38  1  0
 37 39  2  0
 39 40  1  0
 21 41  1  0
 41 42  1  0
 41 43  2  0
 43 44  1  0
 15 45  2  0
 45 46  1  0
 45 47  1  0
 11 48  1  0
 48 49  1  0
 48 50  2  0
 50 51  1  0
 50  6  1  0
 47 13  1  0
 43 16  1  0
 39 30  1  0
M  CHG  2   2  -1  14  -1
M  END
>  <UniqueID>  (35) 
33

>  <SMILES>  (35) 
[NH-]S(=O)(=O)c1ccc(/N=c2/[n-]c(-c3ccc(S(=O)(=O)NCc4ccccc4)cc3)cs2)cc1

>  <Energy>  (35) 
91.99634495154642

>  <Genealogy>  (35) 
[NH-]S(=O)(=O)c1ccc(N=c2[n-]c(-c3ccc(S(=O)(=O)NCc4ccccc4)cc3)cs2)cc1 (protonated)
[NH-]S(=O)(=O)c1ccc(/N=c2/[n-]c(-c3ccc(S(=O)(=O)NCc4ccccc4)cc3)cs2)cc1 (cis-trans isomerization)
[NH-]S(=O)(=O)c1ccc(/N=c2/[n-]c(-c3ccc(S(=O)(=O)NCc4ccccc4)cc3)cs2)cc1 (3D coordinates assigned)
[NH-]S(=O)(=O)c1ccc(/N=c2/[n-]c(-c3ccc(S(=O)(=O)NCc4ccccc4)cc3)cs2)cc1 (optimized conformer: 91.99634495154642 kcal/mol)

>  <smiles>  (35) 
NS(=O)(=O)c1ccc(N=c2[nH]c(-c3ccc(S(=O)(=O)NCc4ccccc4)cc3)cs2)cc1

>  <score_type>  (35) 
oracle

>  <origin>  (35) 
adgpu

>  <m_score__min__energy>  (35) 
-9.5700000000000003

>  <m_primary>  (35) 
energy

$$$$
35:0
     RDKit          3D

 46 48  0  0  0  0  0  0  0  0999 V2000
   -1.5670   26.5075  -28.4082 H   0  0  0  0  0  0  0  0  0  0  0  0
   -1.6110   25.4240  -28.5930 C   0  0  0  0  0  0  0  0  0  0  0  0
   -2.6260   24.9010  -29.3320 N   0  0  0  0  0  0  0  0  0  0  0  0
   -2.7220   23.5640  -29.5850 C   0  0  0  0  0  0  0  0  0  0  0  0
   -3.6910   23.0790  -30.3060 N   0  0  0  0  0  0  0  0  0  0  0  0
   -4.7630   23.8100  -30.9280 C   0  0  0  0  0  0  0  0  0  0  0  0
   -4.6400   25.0420  -31.1750 O   0  0  0  0  0  0  0  0  0  0  0  0
   -6.0200   23.1120  -31.2850 C   0  0  0  0  0  0  0  0  0  0  0  0
   -7.2420   23.8110  -31.3110 C   0  0  0  0  0  0  0  0  0  0  0  0
   -7.2648   24.8810  -31.0570 H   0  0  0  0  0  0  0  0  0  0  0  0
   -8.4250   23.1550  -31.6570 C   0  0  0  0  0  0  0  0  0  0  0  0
   -9.3746   23.7099  -31.6736 H   0  0  0  0  0  0  0  0  0  0  0  0
   -8.4070   21.7970  -31.9820 C   0  0  0  0  0  0  0  0  0  0  0  0
   -9.3414   21.2856  -32.2565 H   0  0  0  0  0  0  0  0  0  0  0  0
   -7.2010   21.0850  -31.9590 C   0  0  0  0  0  0  0  0  0  0  0  0
   -7.1700   19.3630  -32.3340 S   0  0  0  0  0  0  0  0  0  0  0  0
   -6.5240   18.6050  -31.2050 O   0  0  0  0  0  0  0  0  0  0  0  0
   -8.5860   18.8790  -32.4850 O   0  0  0  0  0  0  0  0  0  0  0  0
   -6.2870   19.0910  -33.8180 N   0  0  0  0  0  0  0  0  0  0  0  0
   -6.8940   19.4550  -34.5910 H   0  0  0  0  0  0  0  0  0  0  0  0
   -5.0180   19.8710  -33.8340 C   0  0  0  0  0  0  0  0  0  0  0  0
   -4.8787   20.2946  -34.8396 H   0  0  0  0  0  0  0  0  0  0  0  0
   -5.1026   20.6560  -33.0681 H   0  0  0  0  0  0  0  0  0  0  0  0
   -3.7900   19.0180  -33.4870 C   0  0  0  0  0  0  0  0  0  0  0  0
   -2.8910   19.6511  -33.5188 H   0  0  0  0  0  0  0  0  0  0  0  0
   -3.9278   18.5968  -32.4802 H   0  0  0  0  0  0  0  0  0  0  0  0
   -3.6260   17.8600  -34.4860 C   0  0  0  0  0  0  0  0  0  0  0  0
   -3.0254   18.2122  -35.3377 H   0  0  0  0  0  0  0  0  0  0  0  0
   -3.1334   17.0312  -33.9564 H   0  0  0  0  0  0  0  0  0  0  0  0
   -4.9740   17.3380  -35.0160 C   0  0  0  0  0  0  0  0  0  0  0  0
   -5.1952   17.8268  -35.9763 H   0  0  0  0  0  0  0  0  0  0  0  0
   -4.8990   16.2479  -35.1430 H   0  0  0  0  0  0  0  0  0  0  0  0
   -6.1110   17.6340  -34.0310 C   0  0  0  0  0  0  0  0  0  0  0  0
   -7.0468   17.2166  -34.4310 H   0  0  0  0  0  0  0  0  0  0  0  0
   -5.8557   17.1746  -33.0647 H   0  0  0  0  0  0  0  0  0  0  0  0
   -6.0130   21.7420  -31.6110 C   0  0  0  0  0  0  0  0  0  0  0  0
   -5.0662   21.1823  -31.5923 H   0  0  0  0  0  0  0  0  0  0  0  0
   -1.7540   22.6940  -29.0690 C   0  0  0  0  0  0  0  0  0  0  0  0
   -1.8204   21.6139  -29.2665 H   0  0  0  0  0  0  0  0  0  0  0  0
   -0.6990   23.2060  -28.2990 C   0  0  0  0  0  0  0  0  0  0  0  0
    0.3710   22.3020  -27.7660 C   0  0  0  0  0  0  0  0  0  0  0  0
    0.3510   22.3189  -26.6663 H   0  0  0  0  0  0  0  0  0  0  0  0
    0.1940   21.2758  -28.1202 H   0  0  0  0  0  0  0  0  0  0  0  0
    1.3533   22.6479  -28.1202 H   0  0  0  0  0  0  0  0  0  0  0  0
   -0.6250   24.5860  -28.0690 C   0  0  0  0  0  0  0  0  0  0  0  0
    0.2037   25.0060  -27.4800 H   0  0  0  0  0  0  0  0  0  0  0  0
  1  2  1  0
  2  3  1  0
  3  4  1  0
  4  5  2  0
  5  6  1  0
  6  7  2  0
  6  8  1  0
  8  9  2  0
  9 10  1  0
  9 11  1  0
 11 12  1  0
 11 13  2  0
 13 14  1  0
 13 15  1  0
 15 16  1  0
 16 17  2  0
 16 18  2  0
 16 19  1  0
 19 20  1  0
 19 21  1  0
 21 22  1  0
 21 23  1  0
 21 24  1  0
 24 25  1  0
 24 26  1  0
 24 27  1  0
 27 28  1  0
 27 29  1  0
 27 30  1  0
 30 31  1  0
 30 32  1  0
 30 33  1  0
 33 34  1  0
 33 35  1  0
 15 36  2  0
 36 37  1  0
  4 38  1  0
 38 39  1  0
 38 40  2  0
 40 41  1  0
 41 42  1  0
 41 43  1  0
 41 44  1  0
 40 45  1  0
 45 46  1  0
 45  2  2  0
 36  8  1  0
 33 19  1  0
M  CHG  2   3  -1  19   1
M  END
>  <UniqueID>  (36) 
34

>  <SMILES>  (36) 
Cc1cc[n-]/c(=N\C(=O)c2cccc(S(=O)(=O)[NH+]3CCCCC3)c2)c1

>  <Energy>  (36) 
55.59857503358354

>  <Genealogy>  (36) 
Cc1cc[n-]c(=NC(=O)c2cccc(S(=O)(=O)[NH+]3CCCCC3)c2)c1 (protonated)
Cc1cc[n-]/c(=N\C(=O)c2cccc(S(=O)(=O)[NH+]3CCCCC3)c2)c1 (cis-trans isomerization)
Cc1cc[n-]/c(=N\C(=O)c2cccc(S(=O)(=O)[NH+]3CCCCC3)c2)c1 (3D coordinates assigned)
Cc1cc[n-]/c(=N\C(=O)c2cccc(S(=O)(=O)[NH+]3CCCCC3)c2)c1 (nonaromatic ring conformer: 55.59857503358354 kcal/mol)

>  <smiles>  (36) 
Cc1cc[nH]c(=NC(=O)c2cccc(S(=O)(=O)N3CCCCC3)c2)c1

>  <score_type>  (36) 
oracle

>  <origin>  (36) 
adgpu

>  <m_score__min__energy>  (36) 
-10.5

>  <m_primary>  (36) 
energy

$$$$
36:0
     RDKit          3D

 62 65  0  0  0  0  0  0  0  0999 V2000
   -7.6670   17.9590  -31.5990 C   0  0  0  0  0  0  0  0  0  0  0  0
   -6.4270   18.4550  -32.0110 C   0  0  0  0  0  0  0  0  0  0  0  0
   -6.2900   19.8040  -32.3520 C   0  0  0  0  0  0  0  0  0  0  0  0
   -7.3950   20.6680  -32.2880 C   0  0  0  0  0  0  0  0  0  0  0  0
   -7.2450   22.1240  -32.6660 C   0  0  0  0  0  0  0  0  0  0  0  0
   -7.1470   23.0060  -31.4760 N   0  0  2  0  0  0  0  0  0  0  0  0
   -6.4060   24.2460  -31.8330 C   0  0  0  0  0  0  0  0  0  0  0  0
   -5.8370   24.9510  -30.5960 C   0  0  0  0  0  0  0  0  0  0  0  0
   -4.7980   24.0610  -29.8760 C   0  0  2  0  0  0  0  0  0  0  0  0
   -3.4390   24.4460  -30.3020 N   0  0  0  0  0  0  0  0  0  0  0  0
   -2.5460   23.2870  -30.4290 C   0  0  0  0  0  0  0  0  0  0  0  0
   -1.4920   23.3230  -29.3150 C   0  0  0  0  0  0  0  0  0  0  0  0
   -2.0600   22.8340  -27.9610 C   0  0  0  0  0  0  0  0  0  0  0  0
   -1.7320   21.3790  -27.6650 C   0  0  0  0  0  0  0  0  0  0  0  0
   -2.6700   20.5020  -27.0790 C   0  0  0  0  0  0  0  0  0  0  0  0
   -2.3450   19.1600  -26.8570 C   0  0  0  0  0  0  0  0  0  0  0  0
   -1.0910   18.6710  -27.2280 C   0  0  0  0  0  0  0  0  0  0  0  0
   -0.1590   19.5240  -27.8260 C   0  0  0  0  0  0  0  0  0  0  0  0
   -0.4780   20.8670  -28.0500 C   0  0  0  0  0  0  0  0  0  0  0  0
   -1.6290   23.7140  -26.8010 C   0  0  0  0  0  0  0  0  0  0  0  0
   -2.2170   24.9810  -26.6260 C   0  0  0  0  0  0  0  0  0  0  0  0
   -1.8300   25.8000  -25.5610 C   0  0  0  0  0  0  0  0  0  0  0  0
   -0.8570   25.3650  -24.6580 C   0  0  0  0  0  0  0  0  0  0  0  0
   -0.2680   24.1080  -24.8180 C   0  0  0  0  0  0  0  0  0  0  0  0
   -0.6510   23.2850  -25.8810 C   0  0  0  0  0  0  0  0  0  0  0  0
   -5.0700   22.5540  -30.1170 C   0  0  0  0  0  0  0  0  0  0  0  0
   -6.5720   22.2880  -30.2990 C   0  0  0  0  0  0  0  0  0  0  0  0
   -8.6390   20.1620  -31.8690 C   0  0  0  0  0  0  0  0  0  0  0  0
   -8.7720   18.8120  -31.5280 C   0  0  0  0  0  0  0  0  0  0  0  0
   -7.7733   16.8975  -31.3307 H   0  0  0  0  0  0  0  0  0  0  0  0
   -5.5578   17.7832  -32.0671 H   0  0  0  0  0  0  0  0  0  0  0  0
   -5.3112   20.1906  -32.6722 H   0  0  0  0  0  0  0  0  0  0  0  0
   -6.3328   22.2410  -33.2695 H   0  0  0  0  0  0  0  0  0  0  0  0
   -8.1407   22.4195  -33.2320 H   0  0  0  0  0  0  0  0  0  0  0  0
   -8.1170   23.3040  -31.2130 H   0  0  0  0  0  0  0  0  0  0  0  0
   -5.5759   23.9827  -32.5050 H   0  0  0  0  0  0  0  0  0  0  0  0
   -7.1109   24.9342  -32.3223 H   0  0  0  0  0  0  0  0  0  0  0  0
   -5.3526   25.8881  -30.9077 H   0  0  0  0  0  0  0  0  0  0  0  0
   -6.6636   25.1557  -29.8997 H   0  0  0  0  0  0  0  0  0  0  0  0
   -4.8857   24.2225  -28.7915 H   0  0  0  0  0  0  0  0  0  0  0  0
   -3.4890   24.9400  -31.2250 H   0  0  0  0  0  0  0  0  0  0  0  0
   -3.1342   22.3612  -30.3463 H   0  0  0  0  0  0  0  0  0  0  0  0
   -2.0439   23.3190  -31.4072 H   0  0  0  0  0  0  0  0  0  0  0  0
   -0.6506   22.6750  -29.6016 H   0  0  0  0  0  0  0  0  0  0  0  0
   -1.1671   24.3664  -29.1893 H   0  0  0  0  0  0  0  0  0  0  0  0
   -3.1522   22.9113  -28.0665 H   0  0  0  0  0  0  0  0  0  0  0  0
   -3.6643   20.8770  -26.7947 H   0  0  0  0  0  0  0  0  0  0  0  0
   -3.0793   18.4880  -26.3889 H   0  0  0  0  0  0  0  0  0  0  0  0
   -0.8367   17.6157  -27.0499 H   0  0  0  0  0  0  0  0  0  0  0  0
    0.8278   19.1379  -28.1211 H   0  0  0  0  0  0  0  0  0  0  0  0
    0.2570   21.5291  -28.5311 H   0  0  0  0  0  0  0  0  0  0  0  0
   -2.9858   25.3289  -27.3316 H   0  0  0  0  0  0  0  0  0  0  0  0
   -2.2930   26.7897  -25.4338 H   0  0  0  0  0  0  0  0  0  0  0  0
   -0.5546   26.0118  -23.8212 H   0  0  0  0  0  0  0  0  0  0  0  0
    0.4980   23.7657  -24.1066 H   0  0  0  0  0  0  0  0  0  0  0  0
   -0.1858   22.2954  -26.0004 H   0  0  0  0  0  0  0  0  0  0  0  0
   -4.5353   22.2323  -31.0229 H   0  0  0  0  0  0  0  0  0  0  0  0
   -4.7178   21.9898  -29.2409 H   0  0  0  0  0  0  0  0  0  0  0  0
   -6.7236   21.2074  -30.4377 H   0  0  0  0  0  0  0  0  0  0  0  0
   -7.0861   22.6592  -29.4002 H   0  0  0  0  0  0  0  0  0  0  0  0
   -9.5104   20.8306  -31.8093 H   0  0  0  0  0  0  0  0  0  0  0  0
   -9.7476   18.4211  -31.2035 H   0  0  0  0  0  0  0  0  0  0  0  0
  1  2  2  0
  2  3  1  0
  3  4  2  0
  4  5  1  0
  5  6  1  0
  6  7  1  0
  7  8  1  0
  8  9  1  0
  9 10  1  0
 10 11  1  0
 11 12  1  0
 12 13  1  0
 13 14  1  0
 14 15  2  0
 15 16  1  0
 16 17  2  0
 17 18  1  0
 18 19  2  0
 13 20  1  0
 20 21  2  0
 21 22  1  0
 22 23  2  0
 23 24  1  0
 24 25  2  0
  9 26  1  0
 26 27  1  0
  4 28  1  0
 28 29  2  0
 29  1  1  0
 27  6  1  0
 19 14  1  0
 25 20  1  0
  1 30  1  0
  2 31  1  0
  3 32  1  0
  5 33  1  0
  5 34  1  0
  6 35  1  1
  7 36  1  0
  7 37  1  0
  8 38  1  0
  8 39  1  0
  9 40  1  1
 10 41  1  0
 11 42  1  0
 11 43  1  0
 12 44  1  0
 12 45  1  0
 13 46  1  0
 15 47  1  0
 16 48  1  0
 17 49  1  0
 18 50  1  0
 19 51  1  0
 21 52  1  0
 22 53  1  0
 23 54  1  0
 24 55  1  0
 25 56  1  0
 26 57  1  0
 26 58  1  0
 27 59  1  0
 27 60  1  0
 28 61  1  0
 29 62  1  0
M  CHG  1   6   1
M  END
>  <UniqueID>  (37) 
35

>  <SMILES>  (37) 
c1ccc(C[NH+]2CCC(NCCC(c3ccccc3)c3ccccc3)CC2)cc1

>  <Energy>  (37) 
73.90152593832504

>  <Genealogy>  (37) 
c1ccc(C[NH+]2CCC(NCCC(c3ccccc3)c3ccccc3)CC2)cc1 (protonated)
c1ccc(C[NH+]2CCC(NCCC(c3ccccc3)c3ccccc3)CC2)cc1 (3D coordinates assigned)
c1ccc(C[NH+]2CCC(NCCC(c3ccccc3)c3ccccc3)CC2)cc1 (nonaromatic ring conformer: 73.90152593832504 kcal/mol)

>  <smiles>  (37) 
c1ccc(CN2CCC(NCCC(c3ccccc3)c3ccccc3)CC2)cc1

>  <score_type>  (37) 
oracle

>  <origin>  (37) 
adgpu

>  <m_score__min__energy>  (37) 
-9

>  <m_primary>  (37) 
energy

$$$$
37:0
     RDKit          3D

 57 61  0  0  0  0  0  0  0  0999 V2000
   -6.0520   25.2800  -30.5980 O   0  0  0  0  0  0  0  0  0  0  0  0
   -6.0940   24.1260  -31.1090 C   0  0  0  0  0  0  0  0  0  0  0  0
   -7.1830   23.7960  -32.0870 C   0  0  0  0  0  0  0  0  0  0  0  0
   -7.5180   22.3640  -32.0080 N   0  0  0  0  0  0  0  0  0  0  0  0
   -8.7000   21.9910  -31.4160 C   0  0  0  0  0  0  0  0  0  0  0  0
   -9.0800   20.6470  -31.3470 C   0  0  0  0  0  0  0  0  0  0  0  0
   -8.2320   19.7070  -31.9080 C   0  0  0  0  0  0  0  0  0  0  0  0
   -8.4480   18.0430  -31.9670 S   0  0  0  0  0  0  0  0  0  0  0  0
   -6.9980   17.7450  -32.7750 C   0  0  0  0  0  0  0  0  0  0  0  0
   -6.3460   18.9510  -33.0460 C   0  0  0  0  0  0  0  0  0  0  0  0
   -7.0400   20.0630  -32.5220 C   0  0  0  0  0  0  0  0  0  0  0  0
   -6.6750   21.4210  -32.5580 C   0  0  0  0  0  0  0  0  0  0  0  0
   -5.5870   21.7730  -33.0890 O   0  0  0  0  0  0  0  0  0  0  0  0
   -5.0070   18.9850  -33.7440 C   0  0  0  0  0  0  0  0  0  0  0  0
   -4.7140   17.6680  -34.4870 C   0  0  0  0  0  0  0  0  0  0  0  0
   -5.0400   16.4440  -33.6160 C   0  0  0  0  0  0  0  0  0  0  0  0
   -6.5330   16.4060  -33.2570 C   0  0  0  0  0  0  0  0  0  0  0  0
   -5.1650   23.1110  -30.7000 N   0  0  0  0  0  0  0  0  0  0  0  0
   -4.0520   23.3490  -29.8230 C   0  0  0  0  0  0  0  0  0  0  0  0
   -2.7520   23.0720  -30.2690 C   0  0  0  0  0  0  0  0  0  0  0  0
   -1.6520   23.2980  -29.4360 C   0  0  0  0  0  0  0  0  0  0  0  0
   -1.8390   23.8310  -28.1520 C   0  0  0  0  0  0  0  0  0  0  0  0
   -0.4670   24.0900  -27.0790 S   0  0  0  0  0  0  0  0  0  0  0  0
    0.1440   22.7700  -26.6940 O   0  0  0  0  0  0  0  0  0  0  0  0
    0.5690   24.9090  -27.8000 O   0  0  0  0  0  0  0  0  0  0  0  0
   -1.0090   24.9510  -25.6600 N   0  0  0  0  0  0  0  0  0  0  0  0
    0.0390   25.0050  -24.6430 C   0  0  0  0  0  0  0  0  0  0  0  0
   -0.2410   26.2420  -23.8070 C   0  0  0  0  0  0  0  0  0  0  0  0
   -1.0850   27.1430  -24.6960 C   0  0  0  0  0  0  0  0  0  0  0  0
   -1.3270   26.3450  -25.9700 C   0  0  0  0  0  0  0  0  0  0  0  0
   -3.1340   24.1300  -27.7110 C   0  0  0  0  0  0  0  0  0  0  0  0
   -4.2350   23.8980  -28.5400 C   0  0  0  0  0  0  0  0  0  0  0  0
   -8.0768   24.3922  -31.8510 H   0  0  0  0  0  0  0  0  0  0  0  0
   -6.8355   24.0286  -33.1044 H   0  0  0  0  0  0  0  0  0  0  0  0
   -9.3583   22.7620  -30.9893 H   0  0  0  0  0  0  0  0  0  0  0  0
  -10.0211   20.3465  -30.8632 H   0  0  0  0  0  0  0  0  0  0  0  0
   -5.0052   19.8112  -34.4702 H   0  0  0  0  0  0  0  0  0  0  0  0
   -4.2277   19.1269  -32.9807 H   0  0  0  0  0  0  0  0  0  0  0  0
   -5.3256   17.6295  -35.4005 H   0  0  0  0  0  0  0  0  0  0  0  0
   -3.6418   17.6413  -34.7315 H   0  0  0  0  0  0  0  0  0  0  0  0
   -4.7795   15.5294  -34.1689 H   0  0  0  0  0  0  0  0  0  0  0  0
   -4.4573   16.5108  -32.6854 H   0  0  0  0  0  0  0  0  0  0  0  0
   -7.1113   16.1230  -34.1489 H   0  0  0  0  0  0  0  0  0  0  0  0
   -6.6839   15.6701  -32.4535 H   0  0  0  0  0  0  0  0  0  0  0  0
   -5.3720   22.1210  -30.9690 H   0  0  0  0  0  0  0  0  0  0  0  0
   -2.5962   22.6737  -31.2824 H   0  0  0  0  0  0  0  0  0  0  0  0
   -0.6381   23.0574  -29.7882 H   0  0  0  0  0  0  0  0  0  0  0  0
    0.0051   24.1039  -24.0130 H   0  0  0  0  0  0  0  0  0  0  0  0
    1.0382   25.0498  -25.1008 H   0  0  0  0  0  0  0  0  0  0  0  0
   -0.7936   25.9737  -22.8945 H   0  0  0  0  0  0  0  0  0  0  0  0
    0.6862   26.7371  -23.4828 H   0  0  0  0  0  0  0  0  0  0  0  0
   -2.0398   27.3824  -24.2050 H   0  0  0  0  0  0  0  0  0  0  0  0
   -0.5825   28.0995  -24.9025 H   0  0  0  0  0  0  0  0  0  0  0  0
   -2.3789   26.4341  -26.2790 H   0  0  0  0  0  0  0  0  0  0  0  0
   -0.7034   26.7189  -26.7954 H   0  0  0  0  0  0  0  0  0  0  0  0
   -3.2857   24.5501  -26.7058 H   0  0  0  0  0  0  0  0  0  0  0  0
   -5.2477   24.1452  -28.1887 H   0  0  0  0  0  0  0  0  0  0  0  0
  1  2  2  0
  2  3  1  0
  3  4  1  0
  4  5  1  0
  5  6  2  0
  6  7  1  0
  7  8  1  0
  8  9  1  0
  9 10  2  0
 10 11  1  0
 11 12  1  0
 12 13  2  0
 10 14  1  0
 14 15  1  0
 15 16  1  0
 16 17  1  0
  2 18  1  0
 18 19  1  0
 19 20  2  0
 20 21  1  0
 21 22  2  0
 22 23  1  0
 23 24  2  0
 23 25  2  0
 23 26  1  0
 26 27  1  0
 27 28  1  0
 28 29  1  0
 29 30  1  0
 22 31  1  0
 31 32  2  0
 12  4  1  0
 32 19  1  0
 11  7  2  0
 30 26  1  0
 17  9  1  0
  3 33  1  0
  3 34  1  0
  5 35  1  0
  6 36  1  0
 14 37  1  0
 14 38  1  0
 15 39  1  0
 15 40  1  0
 16 41  1  0
 16 42  1  0
 17 43  1  0
 17 44  1  0
 18 45  1  0
 20 46  1  0
 21 47  1  0
 27 48  1  0
 27 49  1  0
 28 50  1  0
 28 51  1  0
 29 52  1  0
 29 53  1  0
 30 54  1  0
 30 55  1  0
 31 56  1  0
 32 57  1  0
M  END
>  <UniqueID>  (38) 
36

>  <SMILES>  (38) 
O=C(Cn1ccc2sc3c(c2c1=O)CCCC3)Nc1ccc(S(=O)(=O)N2CCCC2)cc1

>  <Energy>  (38) 
97.36715211125019

>  <Genealogy>  (38) 
O=C(Cn1ccc2sc3c(c2c1=O)CCCC3)Nc1ccc(S(=O)(=O)N2CCCC2)cc1 (3D coordinates assigned)
O=C(Cn1ccc2sc3c(c2c1=O)CCCC3)Nc1ccc(S(=O)(=O)N2CCCC2)cc1 (nonaromatic ring conformer: 97.36715211125019 kcal/mol)

>  <smiles>  (38) 
O=C(Cn1ccc2sc3c(c2c1=O)CCCC3)Nc1ccc(S(=O)(=O)N2CCCC2)cc1

>  <score_type>  (38) 
oracle

>  <origin>  (38) 
adgpu

>  <m_score__min__energy>  (38) 
-12.300000000000001

>  <m_primary>  (38) 
energy

$$$$
38:0
     RDKit          3D

 40 41  0  0  0  0  0  0  0  0999 V2000
   -7.6070   18.8500  -32.6640 C   0  0  0  0  0  0  0  0  0  0  0  0
   -6.8630   20.0640  -33.2110 C   0  0  0  0  0  0  0  0  0  0  0  0
   -6.9940   21.2290  -32.2780 C   0  0  0  0  0  0  0  0  0  0  0  0
   -7.7620   21.1890  -31.1160 C   0  0  0  0  0  0  0  0  0  0  0  0
   -7.6020   22.6750  -30.3440 S   0  0  0  0  0  0  0  0  0  0  0  0
   -6.5490   23.2880  -31.5020 C   0  0  0  0  0  0  0  0  0  0  0  0
   -5.9940   24.6760  -31.5030 C   0  0  0  0  0  0  0  0  0  0  0  0
   -5.2600   24.9600  -30.1910 C   0  0  0  0  0  0  0  0  0  0  0  0
   -3.8610   25.2910  -30.4620 N   0  0  0  0  0  0  0  0  0  0  0  0
   -2.7850   24.2690  -29.5520 S   0  0  0  0  0  0  0  0  0  0  0  0
   -1.5020   25.0160  -29.3160 O   0  0  0  0  0  0  0  0  0  0  0  0
   -3.3830   23.9060  -28.2220 O   0  0  0  0  0  0  0  0  0  0  0  0
   -2.4700   22.7910  -30.4730 C   0  0  0  0  0  0  0  0  0  0  0  0
   -3.2870   22.4870  -31.5740 C   0  0  0  0  0  0  0  0  0  0  0  0
   -3.0760   21.3280  -32.3210 C   0  0  0  0  0  0  0  0  0  0  0  0
   -2.0510   20.4400  -31.9720 C   0  0  0  0  0  0  0  0  0  0  0  0
   -1.8040   19.2120  -32.7970 C   0  0  0  0  0  0  0  0  0  0  0  0
   -1.2160   20.7430  -30.8890 C   0  0  0  0  0  0  0  0  0  0  0  0
   -1.4110   21.9130  -30.1330 C   0  0  0  0  0  0  0  0  0  0  0  0
   -0.5000   22.1850  -28.9630 C   0  0  0  0  0  0  0  0  0  0  0  0
   -6.3230   22.3930  -32.4890 N   0  0  0  0  0  0  0  0  0  0  0  0
   -7.5915   18.8753  -31.5644 H   0  0  0  0  0  0  0  0  0  0  0  0
   -8.6488   18.8689  -33.0166 H   0  0  0  0  0  0  0  0  0  0  0  0
   -7.1172   17.9303  -33.0166 H   0  0  0  0  0  0  0  0  0  0  0  0
   -5.7985   19.8128  -33.3280 H   0  0  0  0  0  0  0  0  0  0  0  0
   -7.2991   20.3381  -34.1830 H   0  0  0  0  0  0  0  0  0  0  0  0
   -8.3649   20.3381  -30.7662 H   0  0  0  0  0  0  0  0  0  0  0  0
   -5.2909   24.7842  -32.3420 H   0  0  0  0  0  0  0  0  0  0  0  0
   -6.8233   25.3909  -31.6089 H   0  0  0  0  0  0  0  0  0  0  0  0
   -5.7421   25.8062  -29.6796 H   0  0  0  0  0  0  0  0  0  0  0  0
   -5.3023   24.0652  -29.5525 H   0  0  0  0  0  0  0  0  0  0  0  0
   -4.1030   23.1709  -31.8506 H   0  0  0  0  0  0  0  0  0  0  0  0
   -3.7174   21.1107  -33.1878 H   0  0  0  0  0  0  0  0  0  0  0  0
   -1.6311   18.3526  -32.1326 H   0  0  0  0  0  0  0  0  0  0  0  0
   -2.6804   19.0143  -33.4317 H   0  0  0  0  0  0  0  0  0  0  0  0
   -0.9194   19.3685  -33.4317 H   0  0  0  0  0  0  0  0  0  0  0  0
   -0.3971   20.0571  -30.6263 H   0  0  0  0  0  0  0  0  0  0  0  0
   -1.0497   22.0209  -28.0244 H   0  0  0  0  0  0  0  0  0  0  0  0
    0.3641   21.5057  -29.0055 H   0  0  0  0  0  0  0  0  0  0  0  0
   -0.1498   23.2269  -29.0055 H   0  0  0  0  0  0  0  0  0  0  0  0
  1  2  1  0
  2  3  1  0
  3  4  2  0
  4  5  1  0
  5  6  1  0
  6  7  1  0
  7  8  1  0
  8  9  1  0
  9 10  1  0
 10 11  2  0
 10 12  2  0
 10 13  1  0
 13 14  2  0
 14 15  1  0
 15 16  2  0
 16 17  1  0
 16 18  1  0
 18 19  2  0
 19 20  1  0
  6 21  2  0
 21  3  1  0
 19 13  1  0
  1 22  1  0
  1 23  1  0
  1 24  1  0
  2 25  1  0
  2 26  1  0
  4 27  1  0
  7 28  1  0
  7 29  1  0
  8 30  1  0
  8 31  1  0
 14 32  1  0
 15 33  1  0
 17 34  1  0
 17 35  1  0
 17 36  1  0
 18 37  1  0
 20 38  1  0
 20 39  1  0
 20 40  1  0
M  CHG  1   9  -1
M  END
>  <UniqueID>  (39) 
37

>  <SMILES>  (39) 
CCc1csc(CC[N-]S(=O)(=O)c2ccc(C)cc2C)n1

>  <Energy>  (39) 
61.941298796974976

>  <Genealogy>  (39) 
CCc1csc(CC[N-]S(=O)(=O)c2ccc(C)cc2C)n1 (protonated)
CCc1csc(CC[N-]S(=O)(=O)c2ccc(C)cc2C)n1 (3D coordinates assigned)
CCc1csc(CC[N-]S(=O)(=O)c2ccc(C)cc2C)n1 (optimized conformer: 61.941298796974976 kcal/mol)

>  <smiles>  (39) 
CCc1csc(CCNS(=O)(=O)c2ccc(C)cc2C)n1

>  <score_type>  (39) 
oracle

>  <origin>  (39) 
adgpu

>  <m_score__min__energy>  (39) 
-8.9600000000000009

>  <m_primary>  (39) 
energy

$$$$
39:0
     RDKit          3D

 42 44  0  0  0  0  0  0  0  0999 V2000
   -8.7860   20.0520  -33.1410 N   0  0  0  0  0  0  0  0  0  0  0  0
   -7.6120   19.5610  -31.9730 S   0  0  0  0  0  0  0  0  0  0  0  0
   -7.3220   20.7170  -31.0550 O   0  0  0  0  0  0  0  0  0  0  0  0
   -8.1560   18.4200  -31.1600 O   0  0  0  0  0  0  0  0  0  0  0  0
   -6.1400   19.0440  -32.7970 C   0  0  0  0  0  0  0  0  0  0  0  0
   -4.9980   19.8600  -32.7840 C   0  0  0  0  0  0  0  0  0  0  0  0
   -3.8280   19.4530  -33.4380 C   0  0  0  0  0  0  0  0  0  0  0  0
   -2.3940   20.4720  -33.3860 S   0  0  0  0  0  0  0  0  0  0  0  0
   -1.5760   20.2770  -34.6310 O   0  0  0  0  0  0  0  0  0  0  0  0
   -2.7990   21.9180  -33.3160 O   0  0  0  0  0  0  0  0  0  0  0  0
   -1.4440   20.0470  -31.9680 C   0  0  0  0  0  0  0  0  0  0  0  0
   -0.1720   19.4830  -32.1140 C   0  0  0  0  0  0  0  0  0  0  0  0
    0.5510   19.1240  -30.9740 C   0  0  0  0  0  0  0  0  0  0  0  0
    1.8130   18.5590  -31.0990 O   0  0  0  0  0  0  0  0  0  0  0  0
    0.0190   19.3230  -29.7400 N   0  0  0  0  0  0  0  0  0  0  0  0
   -1.2110   19.8820  -29.5640 C   0  0  0  0  0  0  0  0  0  0  0  0
   -1.7830   20.0460  -28.2090 C   0  0  0  0  0  0  0  0  0  0  0  0
   -2.4090   21.1440  -27.7580 C   0  0  0  0  0  0  0  0  0  0  0  0
   -2.8070   22.3020  -28.5860 C   0  0  0  0  0  0  0  0  0  0  0  0
   -4.0170   22.3070  -29.3020 C   0  0  0  0  0  0  0  0  0  0  0  0
   -4.3900   23.4290  -30.0490 C   0  0  0  0  0  0  0  0  0  0  0  0
   -3.5700   24.5620  -30.0690 C   0  0  0  0  0  0  0  0  0  0  0  0
   -3.9460   25.6730  -30.8150 O   0  0  0  0  0  0  0  0  0  0  0  0
   -2.3790   24.5760  -29.3340 C   0  0  0  0  0  0  0  0  0  0  0  0
   -1.5660   25.7040  -29.3420 O   0  0  0  0  0  0  0  0  0  0  0  0
   -2.0040   23.4540  -28.5860 C   0  0  0  0  0  0  0  0  0  0  0  0
   -1.9730   20.2340  -30.6860 C   0  0  0  0  0  0  0  0  0  0  0  0
   -3.7960   18.2190  -34.0990 C   0  0  0  0  0  0  0  0  0  0  0  0
   -4.9290   17.4050  -34.1180 C   0  0  0  0  0  0  0  0  0  0  0  0
   -6.1000   17.8110  -33.4710 C   0  0  0  0  0  0  0  0  0  0  0  0
   -7.2180   16.9850  -33.5010 O   0  0  0  0  0  0  0  0  0  0  0  0
   -8.8870   19.2650  -33.8200 H   0  0  0  0  0  0  0  0  0  0  0  0
   -5.0219   20.8252  -32.2569 H   0  0  0  0  0  0  0  0  0  0  0  0
    0.2541   19.3240  -33.1156 H   0  0  0  0  0  0  0  0  0  0  0  0
   -1.6872   19.1983  -27.5145 H   0  0  0  0  0  0  0  0  0  0  0  0
   -2.6452   21.1857  -26.6845 H   0  0  0  0  0  0  0  0  0  0  0  0
   -4.6732   21.4246  -29.2745 H   0  0  0  0  0  0  0  0  0  0  0  0
   -5.3293   23.4204  -30.6214 H   0  0  0  0  0  0  0  0  0  0  0  0
   -1.0762   23.4747  -27.9955 H   0  0  0  0  0  0  0  0  0  0  0  0
   -2.9814   20.6550  -30.5598 H   0  0  0  0  0  0  0  0  0  0  0  0
   -2.8757   17.8907  -34.6043 H   0  0  0  0  0  0  0  0  0  0  0  0
   -4.9008   16.4395  -34.6444 H   0  0  0  0  0  0  0  0  0  0  0  0
  1  2  1  0
  2  3  2  0
  2  4  2  0
  2  5  1  0
  5  6  2  0
  6  7  1  0
  7  8  1  0
  8  9  2  0
  8 10  2  0
  8 11  1  0
 11 12  2  0
 12 13  1  0
 13 14  1  0
 13 15  2  0
 15 16  1  0
 16 17  1  0
 17 18  2  3
 18 19  1  0
 19 20  2  0
 20 21  1  0
 21 22  2  0
 22 23  1  0
 22 24  1  0
 24 25  1  0
 24 26  2  0
 16 27  2  0
  7 28  2  0
 28 29  1  0
 29 30  2  0
 30 31  1  0
 30  5  1  0
 27 11  1  0
 26 19  1  0
  1 32  1  0
  6 33  1  0
 12 34  1  0
 17 35  1  0
 18 36  1  0
 20 37  1  0
 21 38  1  0
 26 39  1  0
 27 40  1  0
 28 41  1  0
 29 42  1  0
M  CHG  5   1  -1  14  -1  23  -1  25  -1  31  -1
M  END
>  <UniqueID>  (40) 
38

>  <SMILES>  (40) 
[NH-]S(=O)(=O)c1cc(S(=O)(=O)c2cc([O-])nc(C=Cc3ccc([O-])c([O-])c3)c2)ccc1[O-]

>  <Energy>  (40) 
56.127230686724985

>  <Genealogy>  (40) 
[NH-]S(=O)(=O)c1cc(S(=O)(=O)c2cc([O-])nc(C=Cc3ccc([O-])c([O-])c3)c2)ccc1[O-] (protonated)
[NH-]S(=O)(=O)c1cc(S(=O)(=O)c2cc([O-])nc(C=Cc3ccc([O-])c([O-])c3)c2)ccc1[O-] (3D coordinates assigned)
[NH-]S(=O)(=O)c1cc(S(=O)(=O)c2cc([O-])nc(C=Cc3ccc([O-])c([O-])c3)c2)ccc1[O-] (optimized conformer: 56.127230686724985 kcal/mol)

>  <smiles>  (40) 
NS(=O)(=O)c1cc(S(=O)(=O)c2cc(O)nc(C=Cc3ccc(O)c(O)c3)c2)ccc1O

>  <score_type>  (40) 
oracle

>  <origin>  (40) 
adgpu

>  <m_score__min__energy>  (40) 
-16.23

>  <m_primary>  (40) 
energy

$$$$
40:0
     RDKit          3D

 47 49  0  0  0  0  0  0  0  0999 V2000
    1.6190   17.6510  -34.7130 C   0  0  0  0  0  0  0  0  0  0  0  0
    2.0790   19.0260  -34.4780 N   0  0  0  0  0  0  0  0  0  0  0  0
    2.0470   19.3280  -33.0420 C   0  0  0  0  0  0  0  0  0  0  0  0
    1.0380   20.1420  -35.3270 S   0  0  0  0  0  0  0  0  0  0  0  0
    0.7640   19.6270  -36.7130 O   0  0  0  0  0  0  0  0  0  0  0  0
    1.7010   21.4880  -35.4380 O   0  0  0  0  0  0  0  0  0  0  0  0
   -0.4950   20.2970  -34.4730 C   0  0  0  0  0  0  0  0  0  0  0  0
   -1.4600   19.2900  -34.5850 C   0  0  0  0  0  0  0  0  0  0  0  0
   -2.6720   19.3940  -33.8970 C   0  0  0  0  0  0  0  0  0  0  0  0
   -2.9410   20.5160  -33.0980 C   0  0  0  0  0  0  0  0  0  0  0  0
   -4.1860   20.5870  -32.3810 N   0  0  0  0  0  0  0  0  0  0  0  0
   -5.4770   20.4530  -33.0010 C   0  0  0  0  0  0  0  0  0  0  0  0
   -5.5670   20.0920  -34.2060 O   0  0  0  0  0  0  0  0  0  0  0  0
   -6.7150   20.6960  -32.2250 C   0  0  0  0  0  0  0  0  0  0  0  0
   -7.5370   19.6090  -31.8750 C   0  0  0  0  0  0  0  0  0  0  0  0
   -8.7300   19.8160  -31.1800 C   0  0  0  0  0  0  0  0  0  0  0  0
   -9.1180   21.1080  -30.8250 C   0  0  0  0  0  0  0  0  0  0  0  0
   -8.3160   22.1970  -31.1650 C   0  0  0  0  0  0  0  0  0  0  0  0
   -7.1160   22.0090  -31.8740 C   0  0  0  0  0  0  0  0  0  0  0  0
   -6.2650   23.1350  -32.1550 N   0  0  0  0  0  0  0  0  0  0  0  0
   -5.2810   23.6480  -31.2390 C   0  0  0  0  0  0  0  0  0  0  0  0
   -5.0000   25.0190  -31.2200 C   0  0  0  0  0  0  0  0  0  0  0  0
   -4.0820   25.5160  -30.3530 N   0  0  0  0  0  0  0  0  0  0  0  0
   -3.4340   24.7030  -29.4800 C   0  0  0  0  0  0  0  0  0  0  0  0
   -2.5840   25.1820  -28.6870 O   0  0  0  0  0  0  0  0  0  0  0  0
   -3.7090   23.3730  -29.4580 N   0  0  0  0  0  0  0  0  0  0  0  0
   -4.6180   22.8290  -30.3060 C   0  0  0  0  0  0  0  0  0  0  0  0
   -4.8730   21.5990  -30.2300 O   0  0  0  0  0  0  0  0  0  0  0  0
   -1.9580   21.5120  -32.9630 C   0  0  0  0  0  0  0  0  0  0  0  0
   -0.7460   21.4050  -33.6510 C   0  0  0  0  0  0  0  0  0  0  0  0
    1.4515   17.1504  -33.7479 H   0  0  0  0  0  0  0  0  0  0  0  0
    0.6787   17.6714  -35.2835 H   0  0  0  0  0  0  0  0  0  0  0  0
    2.3822   17.1015  -35.2835 H   0  0  0  0  0  0  0  0  0  0  0  0
    2.1459   18.3944  -32.4687 H   0  0  0  0  0  0  0  0  0  0  0  0
    2.8787   20.0026  -32.7906 H   0  0  0  0  0  0  0  0  0  0  0  0
    1.0924   19.8133  -32.7906 H   0  0  0  0  0  0  0  0  0  0  0  0
   -1.2637   18.4120  -35.2178 H   0  0  0  0  0  0  0  0  0  0  0  0
   -3.4196   18.5916  -33.9822 H   0  0  0  0  0  0  0  0  0  0  0  0
   -4.1360   20.6980  -31.3440 H   0  0  0  0  0  0  0  0  0  0  0  0
   -7.2371   18.5874  -32.1513 H   0  0  0  0  0  0  0  0  0  0  0  0
   -9.3651   18.9588  -30.9119 H   0  0  0  0  0  0  0  0  0  0  0  0
  -10.0578   21.2680  -30.2762 H   0  0  0  0  0  0  0  0  0  0  0  0
   -8.6248   23.2124  -30.8760 H   0  0  0  0  0  0  0  0  0  0  0  0
   -6.2900   23.5380  -33.1200 H   0  0  0  0  0  0  0  0  0  0  0  0
   -5.5250   25.6958  -31.9101 H   0  0  0  0  0  0  0  0  0  0  0  0
   -2.1436   22.3797  -32.3128 H   0  0  0  0  0  0  0  0  0  0  0  0
    0.0141   22.1933  -33.5472 H   0  0  0  0  0  0  0  0  0  0  0  0
  1  2  1  0
  2  3  1  0
  2  4  1  0
  4  5  2  0
  4  6  2  0
  4  7  1  0
  7  8  2  0
  8  9  1  0
  9 10  2  0
 10 11  1  0
 11 12  1  0
 12 13  2  0
 12 14  1  0
 14 15  2  0
 15 16  1  0
 16 17  2  0
 17 18  1  0
 18 19  2  0
 19 20  1  0
 20 21  1  0
 21 22  2  0
 22 23  1  0
 23 24  1  0
 24 25  2  0
 24 26  1  0
 26 27  1  0
 27 28  2  0
 10 29  1  0
 29 30  2  0
 30  7  1  0
 19 14  1  0
 27 21  1  0
  1 31  1  0
  1 32  1  0
  1 33  1  0
  3 34  1  0
  3 35  1  0
  3 36  1  0
  8 37  1  0
  9 38  1  0
 11 39  1  0
 15 40  1  0
 16 41  1  0
 17 42  1  0
 18 43  1  0
 20 44  1  0
 22 45  1  0
 29 46  1  0
 30 47  1  0
M  CHG  2  23  -1  26  -1
M  END
>  <UniqueID>  (41) 
39

>  <SMILES>  (41) 
CN(C)S(=O)(=O)c1ccc(NC(=O)c2ccccc2Nc2c[n-]c(=O)[n-]c2=O)cc1

>  <Energy>  (41) 
64.41311833506902

>  <Genealogy>  (41) 
CN(C)S(=O)(=O)c1ccc(NC(=O)c2ccccc2Nc2c[n-]c(=O)[n-]c2=O)cc1 (protonated)
CN(C)S(=O)(=O)c1ccc(NC(=O)c2ccccc2Nc2c[n-]c(=O)[n-]c2=O)cc1 (3D coordinates assigned)
CN(C)S(=O)(=O)c1ccc(NC(=O)c2ccccc2Nc2c[n-]c(=O)[n-]c2=O)cc1 (optimized conformer: 64.41311833506902 kcal/mol)

>  <smiles>  (41) 
CN(C)S(=O)(=O)c1ccc(NC(=O)c2ccccc2Nc2c[nH]c(=O)[nH]c2=O)cc1

>  <score_type>  (41) 
oracle

>  <origin>  (41) 
adgpu

>  <m_score__min__energy>  (41) 
-10.73

>  <m_primary>  (41) 
energy

$$$$
41:0
     RDKit          3D

 47 49  0  0  1  0  0  0  0  0999 V2000
   -5.2260   17.9990  -34.9460 C   0  0  0  0  0  0  0  0  0  0  0  0
   -5.0030   19.0450  -33.9240 C   0  0  0  0  0  0  0  0  0  0  0  0
   -5.8980   20.0750  -33.6940 C   0  0  0  0  0  0  0  0  0  0  0  0
   -5.6230   21.0040  -32.7340 C   0  0  0  0  0  0  0  0  0  0  0  0
   -6.4820   21.9490  -32.5490 N   0  0  0  0  0  0  0  0  0  0  0  0
   -6.2480   22.9470  -31.5610 C   0  0  0  0  0  0  0  0  0  0  0  0
   -7.1620   23.2400  -30.5670 C   0  0  0  0  0  0  0  0  0  0  0  0
   -6.8080   24.2320  -29.6740 C   0  0  0  0  0  0  0  0  0  0  0  0
   -5.6090   24.9080  -29.7510 C   0  0  0  0  0  0  0  0  0  0  0  0
   -4.7090   24.6050  -30.7470 C   0  0  0  0  0  0  0  0  0  0  0  0
   -3.4950   25.2750  -30.8420 O   0  0  0  0  0  0  0  0  0  0  0  0
   -5.0350   23.6230  -31.6480 C   0  0  0  0  0  0  0  0  0  0  0  0
   -4.4920   20.9290  -32.0090 N   0  0  0  0  0  0  0  0  0  0  0  0
   -3.6230   19.9420  -32.2200 C   0  0  0  0  0  0  0  0  0  0  0  0
   -2.5210   19.8060  -31.5670 N   0  0  0  0  0  0  0  0  0  0  0  0
   -2.2020   20.7570  -30.5580 C   0  0  0  0  0  0  0  0  0  0  0  0
   -2.5910   20.4120  -29.2580 C   0  0  0  0  0  0  0  0  0  0  0  0
   -2.3330   21.2580  -28.1980 C   0  0  0  0  0  0  0  0  0  0  0  0
   -1.6770   22.4630  -28.4550 C   0  0  0  0  0  0  0  0  0  0  0  0
   -1.3720   23.4140  -27.3510 C   0  0  0  0  0  0  0  0  0  0  0  0
   -2.3380   24.8810  -27.6740 S   0  0  0  0  0  0  0  0  0  0  0  0
   -2.1640   26.0520  -26.3500 C   0  0  0  0  0  0  0  0  0  0  0  0
   -1.9180   25.5250  -28.9440 O   0  0  0  0  0  0  0  0  0  0  0  0
   -3.7780   24.4800  -27.8230 O   0  0  0  0  0  0  0  0  0  0  0  0
   -1.3020   22.7760  -29.7630 C   0  0  0  0  0  0  0  0  0  0  0  0
   -1.5520   21.9460  -30.8200 C   0  0  0  0  0  0  0  0  0  0  0  0
   -3.8870   19.0170  -33.1700 N   0  0  0  0  0  0  0  0  0  0  0  0
   -5.4307   17.0390  -34.4495 H   0  0  0  0  0  0  0  0  0  0  0  0
   -6.0850   18.2774  -35.5742 H   0  0  0  0  0  0  0  0  0  0  0  0
   -4.3282   17.9028  -35.5742 H   0  0  0  0  0  0  0  0  0  0  0  0
   -6.8253   20.1441  -34.2816 H   0  0  0  0  0  0  0  0  0  0  0  0
   -8.1229   22.7099  -30.4909 H   0  0  0  0  0  0  0  0  0  0  0  0
   -7.5108   24.4933  -28.8691 H   0  0  0  0  0  0  0  0  0  0  0  0
   -5.3714   25.6906  -29.0154 H   0  0  0  0  0  0  0  0  0  0  0  0
   -2.6310   24.7280  -30.8150 H   0  0  0  0  0  0  0  0  0  0  0  0
   -4.3275   23.3666  -32.4503 H   0  0  0  0  0  0  0  0  0  0  0  0
   -4.2760   21.6390  -31.2700 H   0  0  0  0  0  0  0  0  0  0  0  0
   -3.1074   19.4573  -29.0795 H   0  0  0  0  0  0  0  0  0  0  0  0
   -2.6370   20.9890  -27.1756 H   0  0  0  0  0  0  0  0  0  0  0  0
   -1.6553   22.9768  -26.3822 H   0  0  0  0  0  0  0  0  0  0  0  0
   -0.2973   23.6441  -27.3063 H   0  0  0  0  0  0  0  0  0  0  0  0
   -2.2417   25.5290  -25.3854 H   0  0  0  0  0  0  0  0  0  0  0  0
   -1.1829   26.5441  -26.4223 H   0  0  0  0  0  0  0  0  0  0  0  0
   -2.9597   26.8081  -26.4223 H   0  0  0  0  0  0  0  0  0  0  0  0
   -0.7847   23.7285  -29.9504 H   0  0  0  0  0  0  0  0  0  0  0  0
   -1.2464   22.2158  -31.8417 H   0  0  0  0  0  0  0  0  0  0  0  0
   -3.2200   18.2470  -33.3440 H   0  0  0  0  0  0  0  0  0  0  0  0
  1  2  1  0
  2  3  2  0
  3  4  1  0
  4  5  2  0
  5  6  1  0
  6  7  2  0
  7  8  1  0
  8  9  2  0
  9 10  1  0
 10 11  1  0
 10 12  2  0
  4 13  1  0
 13 14  1  0
 14 15  2  0
 15 16  1  0
 16 17  2  0
 17 18  1  0
 18 19  2  0
 19 20  1  0
 20 21  1  0
 21 22  1  0
 21 23  2  0
 21 24  2  0
 19 25  1  0
 25 26  2  0
 14 27  1  0
 27  2  1  0
 12  6  1  0
 26 16  1  0
  1 28  1  0
  1 29  1  0
  1 30  1  0
  3 31  1  0
  7 32  1  0
  8 33  1  0
  9 34  1  0
 11 35  1  0
 12 36  1  0
 13 37  1  0
 17 38  1  0
 18 39  1  0
 20 40  1  0
 20 41  1  0
 22 42  1  0
 22 43  1  0
 22 44  1  0
 25 45  1  0
 26 46  1  0
 27 47  1  0
M  END
>  <smiles>  (42) 
Cc1cc(=Nc2cccc(O)c2)[nH]c(=Nc2ccc(CS(C)(=O)=O)cc2)[nH]1

>  <score_type>  (42) 
oracle

>  <origin>  (42) 
adgpu

>  <m_score__min__energy>  (42) 
-10.17

>  <m_primary>  (42) 
energy

$$$$
42:0
     RDKit          3D

 39 41  0  0  0  0  0  0  0  0999 V2000
   -8.1310   19.7000  -33.7540 H   0  0  0  0  0  0  0  0  0  0  0  0
   -7.7420   20.4310  -33.1150 N   0  0  0  0  0  0  0  0  0  0  0  0
   -6.4670   20.5250  -32.9060 C   0  0  0  0  0  0  0  0  0  0  0  0
   -5.6000   19.6640  -33.5810 O   0  0  0  0  0  0  0  0  0  0  0  0
   -4.2230   19.6620  -33.3530 C   0  0  0  0  0  0  0  0  0  0  0  0
   -3.4020   18.8930  -34.1850 C   0  0  0  0  0  0  0  0  0  0  0  0
   -3.8499   18.3366  -35.0215 H   0  0  0  0  0  0  0  0  0  0  0  0
   -2.0120   18.8190  -33.9700 C   0  0  0  0  0  0  0  0  0  0  0  0
   -1.1640   18.0260  -34.8410 N   0  0  0  0  0  0  0  0  0  0  0  0
   -1.5680   16.6740  -35.2460 C   0  0  0  0  0  0  0  0  0  0  0  0
   -1.7508   16.0622  -34.3503 H   0  0  0  0  0  0  0  0  0  0  0  0
   -2.4885   16.7305  -35.8456 H   0  0  0  0  0  0  0  0  0  0  0  0
   -0.7674   16.2162  -35.8456 H   0  0  0  0  0  0  0  0  0  0  0  0
    0.1090   18.5640  -35.3360 C   0  0  0  0  0  0  0  0  0  0  0  0
    0.7491   18.8345  -34.4833 H   0  0  0  0  0  0  0  0  0  0  0  0
    0.6155   17.8030  -35.9478 H   0  0  0  0  0  0  0  0  0  0  0  0
   -0.0837   19.4576  -35.9478 H   0  0  0  0  0  0  0  0  0  0  0  0
   -1.4700   19.5240  -32.8770 C   0  0  0  0  0  0  0  0  0  0  0  0
   -0.3889   19.4730  -32.6802 H   0  0  0  0  0  0  0  0  0  0  0  0
   -2.2870   20.2860  -32.0410 C   0  0  0  0  0  0  0  0  0  0  0  0
   -1.8471   20.8024  -31.1751 H   0  0  0  0  0  0  0  0  0  0  0  0
   -3.6670   20.4020  -32.2920 C   0  0  0  0  0  0  0  0  0  0  0  0
   -4.5880   21.1540  -31.3380 C   0  0  1  0  0  0  0  0  0  0  0  0
   -4.8437   20.4335  -30.5471 H   0  0  0  0  0  0  0  0  0  0  0  0
   -3.8980   22.3530  -30.6960 C   0  0  0  0  0  0  0  0  0  0  0  0
   -2.7550   22.1810  -29.8920 C   0  0  0  0  0  0  0  0  0  0  0  0
   -2.3585   21.1703  -29.7154 H   0  0  0  0  0  0  0  0  0  0  0  0
   -2.1210   23.2850  -29.3170 C   0  0  0  0  0  0  0  0  0  0  0  0
   -0.9970   23.0980  -28.5200 O   0  0  0  0  0  0  0  0  0  0  0  0
   -2.6170   24.5740  -29.5410 C   0  0  0  0  0  0  0  0  0  0  0  0
   -1.9860   25.6730  -28.9680 O   0  0  0  0  0  0  0  0  0  0  0  0
   -3.7500   24.7560  -30.3450 C   0  0  0  0  0  0  0  0  0  0  0  0
   -4.2450   26.0340  -30.5730 O   0  0  0  0  0  0  0  0  0  0  0  0
   -4.3850   23.6510  -30.9200 C   0  0  0  0  0  0  0  0  0  0  0  0
   -5.2726   23.7995  -31.5525 H   0  0  0  0  0  0  0  0  0  0  0  0
   -5.9050   21.6120  -32.0220 C   0  0  2  0  0  0  0  0  0  0  0  0
   -5.6819   22.4755  -32.6659 H   0  0  0  0  0  0  0  0  0  0  0  0
   -6.8870   22.0290  -31.0010 C   0  0  0  0  0  0  0  0  0  0  0  0
   -7.6550   22.3570  -30.1990 N   0  0  0  0  0  0  0  0  0  0  0  0
  1  2  1  0
  2  3  2  0
  3  4  1  0
  4  5  1  0
  5  6  2  0
  6  7  1  0
  6  8  1  0
  8  9  1  0
  9 10  1  0
 10 11  1  0
 10 12  1  0
 10 13  1  0
  9 14  1  0
 14 15  1  0
 14 16  1  0
 14 17  1  0
  8 18  2  0
 18 19  1  0
 18 20  1  0
 20 21  1  0
 20 22  2  0
 22 23  1  0
 23 24  1  1
 23 25  1  0
 25 26  2  0
 26 27  1  0
 26 28  1  0
 28 29  1  0
 28 30  2  0
 30 31  1  0
 30 32  1  0
 32 33  1  0
 32 34  2  0
 34 35  1  0
 23 36  1  0
 36 37  1  6
 36 38  1  0
 38 39  3  0
 36  3  1  0
 22  5  1  0
 34 25  1  0
M  CHG  3  29  -1  31  -1  33  -1
M  END
>  <UniqueID>  (43) 
40

>  <SMILES>  (43) 
[H]/N=C1\Oc2cc(N(C)C)ccc2[C@@H](c2cc([O-])c([O-])c([O-])c2)[C@@H]1C#N

>  <Energy>  (43) 
47.3453023866465

>  <Genealogy>  (43) 
CN(C)c1ccc2c(c1)OC(=N)C(C#N)C2c1cc([O-])c([O-])c([O-])c1 (protonated)
CN(C)c1ccc2c(c1)OC(=N)[C@@H](C#N)[C@@H]2c1cc([O-])c([O-])c([O-])c1 (chirality)
[H]/N=C1\Oc2cc(N(C)C)ccc2[C@@H](c2cc([O-])c([O-])c([O-])c2)[C@@H]1C#N (cis-trans isomerization)
[H]/N=C1\Oc2cc(N(C)C)ccc2[C@@H](c2cc([O-])c([O-])c([O-])c2)[C@@H]1C#N (3D coordinates assigned)
[H]/N=C1\Oc2cc(N(C)C)ccc2[C@@H](c2cc([O-])c([O-])c([O-])c2)[C@@H]1C#N (nonaromatic ring conformer: 47.3453023866465 kcal/mol)

>  <smiles>  (43) 
CN(C)c1ccc2c(c1)OC(=N)C(C#N)C2c1cc(O)c(O)c(O)c1

>  <score_type>  (43) 
oracle

>  <origin>  (43) 
adgpu

>  <m_score__min__energy>  (43) 
-13

>  <m_primary>  (43) 
energy

$$$$
43:0
     RDKit          3D

 56 59  0  0  0  0  0  0  0  0999 V2000
   -8.3650   20.4960  -32.6850 C   0  0  0  0  0  0  0  0  0  0  0  0
   -7.5500   21.6020  -32.0710 C   0  0  0  0  0  0  0  0  0  0  0  0
   -8.1920   22.5160  -31.2200 C   0  0  0  0  0  0  0  0  0  0  0  0
   -7.4910   23.5920  -30.6730 C   0  0  0  0  0  0  0  0  0  0  0  0
   -6.1390   23.7810  -30.9790 C   0  0  0  0  0  0  0  0  0  0  0  0
   -5.2570   25.1550  -30.3160 S   0  0  0  0  0  0  0  0  0  0  0  0
   -5.7150   26.4220  -30.9830 O   0  0  0  0  0  0  0  0  0  0  0  0
   -5.5400   25.2650  -28.8450 O   0  0  0  0  0  0  0  0  0  0  0  0
   -3.5490   24.9700  -30.5440 N   0  0  0  0  0  0  0  0  0  0  0  0
   -2.7580   24.1870  -29.6490 C   0  0  0  0  0  0  0  0  0  0  0  0
   -3.1300   22.8720  -29.3450 C   0  0  0  0  0  0  0  0  0  0  0  0
   -2.3420   22.0860  -28.4920 C   0  0  0  0  0  0  0  0  0  0  0  0
   -1.1510   22.6260  -27.9510 C   0  0  0  0  0  0  0  0  0  0  0  0
   -0.8120   23.9600  -28.2250 C   0  0  0  0  0  0  0  0  0  0  0  0
   -1.6080   24.7350  -29.0710 C   0  0  0  0  0  0  0  0  0  0  0  0
   -1.2440   26.0470  -29.3460 O   0  0  0  0  0  0  0  0  0  0  0  0
   -0.2840   21.8330  -27.0010 C   0  0  0  0  0  0  0  0  0  0  0  0
   -0.5290   20.3240  -27.1010 C   0  0  0  0  0  0  0  0  0  0  0  0
   -2.0270   20.0250  -27.0610 C   0  0  0  0  0  0  0  0  0  0  0  0
   -2.7210   20.6430  -28.2770 C   0  0  0  0  0  0  0  0  0  0  0  0
   -5.4840   22.8610  -31.8050 C   0  0  0  0  0  0  0  0  0  0  0  0
   -6.1640   21.7500  -32.3240 C   0  0  0  0  0  0  0  0  0  0  0  0
   -5.4310   20.8130  -33.1290 N   0  0  0  0  0  0  0  0  0  0  0  0
   -5.0950   19.4930  -32.6700 C   0  0  0  0  0  0  0  0  0  0  0  0
   -5.4850   19.1010  -31.5360 O   0  0  0  0  0  0  0  0  0  0  0  0
   -4.2020   18.6210  -33.4660 C   0  0  0  0  0  0  0  0  0  0  0  0
   -2.8200   18.8880  -33.4410 C   0  0  0  0  0  0  0  0  0  0  0  0
   -1.9360   18.1390  -34.2180 C   0  0  0  0  0  0  0  0  0  0  0  0
   -2.4140   17.1090  -35.0240 C   0  0  0  0  0  0  0  0  0  0  0  0
   -3.7790   16.8120  -35.0440 C   0  0  0  0  0  0  0  0  0  0  0  0
   -4.6840   17.5430  -34.2540 C   0  0  0  0  0  0  0  0  0  0  0  0
   -6.1400   17.1540  -34.2850 C   0  0  0  0  0  0  0  0  0  0  0  0
   -8.8146   19.8859  -31.8878 H   0  0  0  0  0  0  0  0  0  0  0  0
   -9.1611   20.9296  -33.3080 H   0  0  0  0  0  0  0  0  0  0  0  0
   -7.7150   19.8640  -33.3080 H   0  0  0  0  0  0  0  0  0  0  0  0
   -9.2577   22.3828  -30.9821 H   0  0  0  0  0  0  0  0  0  0  0  0
   -8.0035   24.2940  -29.9988 H   0  0  0  0  0  0  0  0  0  0  0  0
   -4.0490   22.4515  -29.7793 H   0  0  0  0  0  0  0  0  0  0  0  0
    0.0881   24.3987  -27.7696 H   0  0  0  0  0  0  0  0  0  0  0  0
    0.7716   22.0349  -27.2353 H   0  0  0  0  0  0  0  0  0  0  0  0
   -0.5390   22.1451  -25.9775 H   0  0  0  0  0  0  0  0  0  0  0  0
   -0.1097   19.9504  -28.0469 H   0  0  0  0  0  0  0  0  0  0  0  0
   -0.0423   19.8258  -26.2496 H   0  0  0  0  0  0  0  0  0  0  0  0
   -2.1806   18.9358  -27.0693 H   0  0  0  0  0  0  0  0  0  0  0  0
   -2.4553   20.4572  -26.1446 H   0  0  0  0  0  0  0  0  0  0  0  0
   -2.4405   20.0684  -29.1720 H   0  0  0  0  0  0  0  0  0  0  0  0
   -3.8052   20.6079  -28.0943 H   0  0  0  0  0  0  0  0  0  0  0  0
   -4.4223   23.0112  -32.0503 H   0  0  0  0  0  0  0  0  0  0  0  0
   -4.8760   21.2010  -33.9250 H   0  0  0  0  0  0  0  0  0  0  0  0
   -2.4332   19.6956  -32.8022 H   0  0  0  0  0  0  0  0  0  0  0  0
   -0.8592   18.3625  -34.1939 H   0  0  0  0  0  0  0  0  0  0  0  0
   -1.7162   16.5287  -35.6455 H   0  0  0  0  0  0  0  0  0  0  0  0
   -4.1496   15.9980  -35.6843 H   0  0  0  0  0  0  0  0  0  0  0  0
   -6.5148   17.0539  -33.2557 H   0  0  0  0  0  0  0  0  0  0  0  0
   -6.7157   17.9298  -34.8110 H   0  0  0  0  0  0  0  0  0  0  0  0
   -6.2520   16.1944  -34.8110 H   0  0  0  0  0  0  0  0  0  0  0  0
  1  2  1  0
  2  3  2  0
  3  4  1  0
  4  5  2  0
  5  6  1  0
  6  7  2  0
  6  8  2  0
  6  9  1  0
  9 10  1  0
 10 11  2  0
 11 12  1  0
 12 13  2  0
 13 14  1  0
 14 15  2  0
 15 16  1  0
 13 17  1  0
 17 18  1  0
 18 19  1  0
 19 20  1  0
  5 21  1  0
 21 22  2  0
 22 23  1  0
 23 24  1  0
 24 25  2  0
 24 26  1  0
 26 27  2  0
 27 28  1  0
 28 29  2  0
 29 30  1  0
 30 31  2  0
 31 32  1  0
 22  2  1  0
 31 26  1  0
 15 10  1  0
 20 12  1  0
  1 33  1  0
  1 34  1  0
  1 35  1  0
  3 36  1  0
  4 37  1  0
 11 38  1  0
 14 39  1  0
 17 40  1  0
 17 41  1  0
 18 42  1  0
 18 43  1  0
 19 44  1  0
 19 45  1  0
 20 46  1  0
 20 47  1  0
 21 48  1  0
 23 49  1  0
 27 50  1  0
 28 51  1  0
 29 52  1  0
 30 53  1  0
 32 54  1  0
 32 55  1  0
 32 56  1  0
M  CHG  2   9  -1  16  -1
M  END
>  <UniqueID>  (44) 
41

>  <SMILES>  (44) 
Cc1ccc(S(=O)(=O)[N-]c2cc3c(cc2[O-])CCCC3)cc1NC(=O)c1ccccc1C

>  <Energy>  (44) 
75.98838856279315

>  <Genealogy>  (44) 
Cc1ccc(S(=O)(=O)[N-]c2cc3c(cc2[O-])CCCC3)cc1NC(=O)c1ccccc1C (protonated)
Cc1ccc(S(=O)(=O)[N-]c2cc3c(cc2[O-])CCCC3)cc1NC(=O)c1ccccc1C (3D coordinates assigned)
Cc1ccc(S(=O)(=O)[N-]c2cc3c(cc2[O-])CCCC3)cc1NC(=O)c1ccccc1C (nonaromatic ring conformer: 75.98838856279315 kcal/mol)

>  <smiles>  (44) 
Cc1ccc(S(=O)(=O)Nc2cc3c(cc2O)CCCC3)cc1NC(=O)c1ccccc1C

>  <score_type>  (44) 
oracle

>  <origin>  (44) 
adgpu

>  <m_score__min__energy>  (44) 
-15.59

>  <m_primary>  (44) 
energy

$$$$
44:0
     RDKit          3D

 27 29  0  0  0  0  0  0  0  0999 V2000
   -3.5950   20.4520  -30.7480 O   0  0  0  0  0  0  0  0  0  0  0  0
   -2.5920   20.8400  -30.0890 C   0  0  0  0  0  0  0  0  0  0  0  0
   -1.7060   19.9210  -29.6250 N   0  0  0  0  0  0  0  0  0  0  0  0
   -0.6070   20.2860  -28.9080 C   0  0  0  0  0  0  0  0  0  0  0  0
    0.3420   19.2570  -28.4160 C   0  0  0  0  0  0  0  0  0  0  0  0
   -0.0850   17.9330  -28.1980 C   0  0  0  0  0  0  0  0  0  0  0  0
    0.8100   16.9650  -27.7350 C   0  0  0  0  0  0  0  0  0  0  0  0
    2.1430   17.2980  -27.4810 C   0  0  0  0  0  0  0  0  0  0  0  0
    3.0140   16.3120  -27.0200 O   0  0  0  0  0  0  0  0  0  0  0  0
    2.5810   18.6150  -27.6950 C   0  0  0  0  0  0  0  0  0  0  0  0
    3.9040   18.9650  -27.4480 O   0  0  0  0  0  0  0  0  0  0  0  0
    1.6870   19.5850  -28.1580 C   0  0  0  0  0  0  0  0  0  0  0  0
   -0.3870   21.6040  -28.6460 N   0  0  0  0  0  0  0  0  0  0  0  0
   -1.2400   22.5640  -29.0860 C   0  0  0  0  0  0  0  0  0  0  0  0
   -0.9860   23.9110  -28.8000 C   0  0  0  0  0  0  0  0  0  0  0  0
   -1.8640   24.9020  -29.2530 C   0  0  0  0  0  0  0  0  0  0  0  0
   -1.6060   26.2360  -28.9660 O   0  0  0  0  0  0  0  0  0  0  0  0
   -3.0010   24.5480  -29.9920 C   0  0  0  0  0  0  0  0  0  0  0  0
   -3.8740   25.5320  -30.4410 O   0  0  0  0  0  0  0  0  0  0  0  0
   -3.2610   23.2040  -30.2810 C   0  0  0  0  0  0  0  0  0  0  0  0
   -2.3830   22.2030  -29.8300 C   0  0  0  0  0  0  0  0  0  0  0  0
   -1.1320   17.6584  -28.3939 H   0  0  0  0  0  0  0  0  0  0  0  0
    0.4630   15.9344  -27.5694 H   0  0  0  0  0  0  0  0  0  0  0  0
    3.9970   16.4960  -26.8600 H   0  0  0  0  0  0  0  0  0  0  0  0
    2.0376   20.6146  -28.3224 H   0  0  0  0  0  0  0  0  0  0  0  0
   -0.0951   24.1905  -28.2185 H   0  0  0  0  0  0  0  0  0  0  0  0
   -4.1539   22.9301  -30.8621 H   0  0  0  0  0  0  0  0  0  0  0  0
  1  2  2  0
  2  3  1  0
  3  4  1  0
  4  5  1  0
  5  6  2  0
  6  7  1  0
  7  8  2  0
  8  9  1  0
  8 10  1  0
 10 11  1  0
 10 12  2  0
  4 13  2  0
 13 14  1  0
 14 15  2  0
 15 16  1  0
 16 17  1  0
 16 18  2  0
 18 19  1  0
 18 20  1  0
 20 21  2  0
 21  2  1  0
 12  5  1  0
 21 14  1  0
  6 22  1  0
  7 23  1  0
  9 24  1  0
 12 25  1  0
 15 26  1  0
 20 27  1  0
M  CHG  4   3  -1  11  -1  17  -1  19  -1
M  END
>  <UniqueID>  (45) 
42

>  <SMILES>  (45) 
O=c1[n-]c(-c2ccc(O)c([O-])c2)nc2cc([O-])c([O-])cc12

>  <Energy>  (45) 
36.9338301520048

>  <Genealogy>  (45) 
O=c1[n-]c(-c2ccc(O)c([O-])c2)nc2cc([O-])c([O-])cc12 (protonated)
O=c1[n-]c(-c2ccc(O)c([O-])c2)nc2cc([O-])c([O-])cc12 (3D coordinates assigned)
O=c1[n-]c(-c2ccc(O)c([O-])c2)nc2cc([O-])c([O-])cc12 (optimized conformer: 36.9338301520048 kcal/mol)

>  <smiles>  (45) 
O=c1[nH]c(-c2ccc(O)c(O)c2)nc2cc(O)c(O)cc12

>  <score_type>  (45) 
oracle

>  <origin>  (45) 
adgpu

>  <m_score__min__energy>  (45) 
-11.460000000000001

>  <m_primary>  (45) 
energy

$$$$
45:0
     RDKit          3D

 44 46  0  0  0  0  0  0  0  0999 V2000
   -0.1890   19.8190  -30.9970 C   0  0  0  0  0  0  0  0  0  0  0  0
   -1.3710   20.6940  -30.9670 N   0  0  0  0  0  0  0  0  0  0  0  0
   -1.0000   22.0480  -30.5240 C   0  0  0  0  0  0  0  0  0  0  0  0
   -2.2760   22.8250  -30.2030 C   0  0  0  0  0  0  0  0  0  0  0  0
   -3.3180   22.5620  -31.2050 N   0  0  0  0  0  0  0  0  0  0  0  0
   -4.5900   23.2160  -31.0650 C   0  0  0  0  0  0  0  0  0  0  0  0
   -5.7760   22.4960  -31.2840 C   0  0  0  0  0  0  0  0  0  0  0  0
   -7.0210   23.1290  -31.1730 C   0  0  0  0  0  0  0  0  0  0  0  0
   -8.5030   22.2380  -31.5060 S   0  0  0  0  0  0  0  0  0  0  0  0
   -8.9620   21.5630  -30.2410 O   0  0  0  0  0  0  0  0  0  0  0  0
   -9.5750   23.1960  -31.9510 O   0  0  0  0  0  0  0  0  0  0  0  0
   -8.2690   21.0340  -32.7330 N   0  0  0  0  0  0  0  0  0  0  0  0
   -7.3420   19.9510  -32.6050 C   0  0  0  0  0  0  0  0  0  0  0  0
   -6.1120   19.9840  -33.2830 C   0  0  0  0  0  0  0  0  0  0  0  0
   -5.2030   18.9310  -33.1450 C   0  0  0  0  0  0  0  0  0  0  0  0
   -5.5060   17.8490  -32.3140 C   0  0  0  0  0  0  0  0  0  0  0  0
   -6.7160   17.8230  -31.6110 C   0  0  0  0  0  0  0  0  0  0  0  0
   -7.6340   18.8720  -31.7460 C   0  0  0  0  0  0  0  0  0  0  0  0
   -8.8310   18.8160  -31.0280 O   0  0  0  0  0  0  0  0  0  0  0  0
   -7.0800   24.4880  -30.8380 C   0  0  0  0  0  0  0  0  0  0  0  0
   -5.9040   25.2060  -30.6080 C   0  0  0  0  0  0  0  0  0  0  0  0
   -4.6610   24.5760  -30.7160 C   0  0  0  0  0  0  0  0  0  0  0  0
   -3.5030   25.3010  -30.4600 O   0  0  0  0  0  0  0  0  0  0  0  0
   -2.9670   21.9350  -32.4850 C   0  0  0  0  0  0  0  0  0  0  0  0
   -2.0250   20.7230  -32.2950 C   0  0  0  0  0  0  0  0  0  0  0  0
    0.1226   19.5883  -29.9676 H   0  0  0  0  0  0  0  0  0  0  0  0
   -0.4372   18.8853  -31.5229 H   0  0  0  0  0  0  0  0  0  0  0  0
    0.6315   20.3290  -31.5229 H   0  0  0  0  0  0  0  0  0  0  0  0
   -0.3697   21.9836  -29.6248 H   0  0  0  0  0  0  0  0  0  0  0  0
   -0.4382   22.5615  -31.3181 H   0  0  0  0  0  0  0  0  0  0  0  0
   -2.6439   22.5193  -29.2125 H   0  0  0  0  0  0  0  0  0  0  0  0
   -2.0437   23.9002  -30.2124 H   0  0  0  0  0  0  0  0  0  0  0  0
   -5.7270   21.4284  -31.5443 H   0  0  0  0  0  0  0  0  0  0  0  0
   -5.8632   20.8419  -33.9250 H   0  0  0  0  0  0  0  0  0  0  0  0
   -4.2483   18.9541  -33.6910 H   0  0  0  0  0  0  0  0  0  0  0  0
   -4.7932   17.0174  -32.2124 H   0  0  0  0  0  0  0  0  0  0  0  0
   -6.9469   16.9749  -30.9496 H   0  0  0  0  0  0  0  0  0  0  0  0
   -9.4620   19.6070  -30.9660 H   0  0  0  0  0  0  0  0  0  0  0  0
   -8.0548   24.9910  -30.7559 H   0  0  0  0  0  0  0  0  0  0  0  0
   -5.9564   26.2718  -30.3407 H   0  0  0  0  0  0  0  0  0  0  0  0
   -3.8891   21.5946  -32.9789 H   0  0  0  0  0  0  0  0  0  0  0  0
   -2.4414   22.6823  -33.0976 H   0  0  0  0  0  0  0  0  0  0  0  0
   -2.6131   19.8012  -32.4151 H   0  0  0  0  0  0  0  0  0  0  0  0
   -1.2288   20.8070  -33.0493 H   0  0  0  0  0  0  0  0  0  0  0  0
  1  2  1  0
  2  3  1  0
  3  4  1  0
  4  5  1  0
  5  6  1  0
  6  7  2  0
  7  8  1  0
  8  9  1  0
  9 10  2  0
  9 11  2  0
  9 12  1  0
 12 13  1  0
 13 14  2  0
 14 15  1  0
 15 16  2  0
 16 17  1  0
 17 18  2  0
 18 19  1  0
  8 20  2  0
 20 21  1  0
 21 22  2  0
 22 23  1  0
  5 24  1  0
 24 25  1  0
 25  2  1  0
 22  6  1  0
 18 13  1  0
  1 26  1  0
  1 27  1  0
  1 28  1  0
  3 29  1  0
  3 30  1  0
  4 31  1  0
  4 32  1  0
  7 33  1  0
 14 34  1  0
 15 35  1  0
 16 36  1  0
 17 37  1  0
 19 38  1  0
 20 39  1  0
 21 40  1  0
 24 41  1  0
 24 42  1  0
 25 43  1  0
 25 44  1  0
M  CHG  2  12  -1  23  -1
M  END
>  <UniqueID>  (46) 
43

>  <SMILES>  (46) 
CN1CCN(c2cc(S(=O)(=O)[N-]c3ccccc3O)ccc2[O-])CC1

>  <Energy>  (46) 
64.05397140793886

>  <Genealogy>  (46) 
CN1CCN(c2cc(S(=O)(=O)[N-]c3ccccc3O)ccc2[O-])CC1 (protonated)
CN1CCN(c2cc(S(=O)(=O)[N-]c3ccccc3O)ccc2[O-])CC1 (3D coordinates assigned)
CN1CCN(c2cc(S(=O)(=O)[N-]c3ccccc3O)ccc2[O-])CC1 (nonaromatic ring conformer: 64.05397140793886 kcal/mol)

>  <smiles>  (46) 
CN1CCN(c2cc(S(=O)(=O)Nc3ccccc3O)ccc2O)CC1

>  <score_type>  (46) 
oracle

>  <origin>  (46) 
adgpu

>  <m_score__min__energy>  (46) 
-10.699999999999999

>  <m_primary>  (46) 
energy

$$$$
46:0
     RDKit          3D

 46 49  0  0  0  0  0  0  0  0999 V2000
   -0.4580   19.4260  -34.9860 C   0  0  0  0  0  0  0  0  0  0  0  0
   -0.3520   19.6530  -33.5080 C   0  0  0  0  0  0  0  0  0  0  0  0
   -0.1720   20.9480  -33.0010 C   0  0  0  0  0  0  0  0  0  0  0  0
   -0.1300   21.1650  -31.6210 C   0  0  0  0  0  0  0  0  0  0  0  0
   -0.2550   20.0870  -30.7300 C   0  0  0  0  0  0  0  0  0  0  0  0
   -0.2470   20.3170  -29.2390 C   0  0  0  0  0  0  0  0  0  0  0  0
   -1.3970   21.1300  -28.8090 N   0  0  0  0  0  0  0  0  0  0  0  0
   -1.5020   22.3900  -29.2470 N   0  0  0  0  0  0  0  0  0  0  0  0
   -2.5090   23.2190  -28.8680 C   0  0  0  0  0  0  0  0  0  0  0  0
   -2.5810   24.5880  -29.4220 C   0  0  0  0  0  0  0  0  0  0  0  0
   -1.8700   25.5010  -28.9230 O   0  0  0  0  0  0  0  0  0  0  0  0
   -3.5020   24.9290  -30.4670 N   0  0  0  0  0  0  0  0  0  0  0  0
   -4.7450   24.2690  -30.7610 C   0  0  0  0  0  0  0  0  0  0  0  0
   -5.9640   24.8120  -30.3180 C   0  0  0  0  0  0  0  0  0  0  0  0
   -7.1680   24.1520  -30.5680 C   0  0  0  0  0  0  0  0  0  0  0  0
   -7.1740   22.9310  -31.2410 C   0  0  0  0  0  0  0  0  0  0  0  0
   -5.9720   22.3550  -31.6700 C   0  0  0  0  0  0  0  0  0  0  0  0
   -5.9770   21.1200  -32.3360 C   0  0  0  0  0  0  0  0  0  0  0  0
   -4.7800   20.5540  -32.7760 C   0  0  0  0  0  0  0  0  0  0  0  0
   -3.5690   21.2090  -32.5510 C   0  0  0  0  0  0  0  0  0  0  0  0
   -3.5470   22.4370  -31.8850 C   0  0  0  0  0  0  0  0  0  0  0  0
   -4.7430   23.0260  -31.4330 C   0  0  0  0  0  0  0  0  0  0  0  0
   -3.4780   22.7390  -27.9810 C   0  0  0  0  0  0  0  0  0  0  0  0
   -3.3720   21.4390  -27.4980 C   0  0  0  0  0  0  0  0  0  0  0  0
   -2.3100   20.6370  -27.9140 C   0  0  0  0  0  0  0  0  0  0  0  0
   -2.2040   19.4650  -27.4590 O   0  0  0  0  0  0  0  0  0  0  0  0
   -0.4390   18.7940  -31.2380 C   0  0  0  0  0  0  0  0  0  0  0  0
   -0.4990   18.5790  -32.6180 C   0  0  0  0  0  0  0  0  0  0  0  0
   -0.9166   18.4440  -35.1742 H   0  0  0  0  0  0  0  0  0  0  0  0
   -1.0814   20.2137  -35.4342 H   0  0  0  0  0  0  0  0  0  0  0  0
    0.5462   19.4537  -35.4342 H   0  0  0  0  0  0  0  0  0  0  0  0
   -0.0634   21.7966  -33.6924 H   0  0  0  0  0  0  0  0  0  0  0  0
    0.0016   22.1851  -31.2310 H   0  0  0  0  0  0  0  0  0  0  0  0
   -0.2868   19.3439  -28.7276 H   0  0  0  0  0  0  0  0  0  0  0  0
    0.6739   20.8600  -28.9799 H   0  0  0  0  0  0  0  0  0  0  0  0
   -5.9687   25.7655  -29.7695 H   0  0  0  0  0  0  0  0  0  0  0  0
   -8.1164   24.5971  -30.2326 H   0  0  0  0  0  0  0  0  0  0  0  0
   -8.1273   22.4179  -31.4358 H   0  0  0  0  0  0  0  0  0  0  0  0
   -6.9281   20.5961  -32.5119 H   0  0  0  0  0  0  0  0  0  0  0  0
   -4.7912   19.5880  -33.3021 H   0  0  0  0  0  0  0  0  0  0  0  0
   -2.6284   20.7572  -32.8991 H   0  0  0  0  0  0  0  0  0  0  0  0
   -2.5880   22.9474  -31.7126 H   0  0  0  0  0  0  0  0  0  0  0  0
   -4.3141   23.3821  -27.6690 H   0  0  0  0  0  0  0  0  0  0  0  0
   -4.1201   21.0467  -26.7934 H   0  0  0  0  0  0  0  0  0  0  0  0
   -0.5367   17.9436  -30.5471 H   0  0  0  0  0  0  0  0  0  0  0  0
   -0.6622   17.5633  -33.0075 H   0  0  0  0  0  0  0  0  0  0  0  0
  1  2  1  0
  2  3  2  0
  3  4  1  0
  4  5  2  0
  5  6  1  0
  6  7  1  0
  7  8  1  0
  8  9  2  0
  9 10  1  0
 10 11  2  0
 10 12  1  0
 12 13  1  0
 13 14  2  0
 14 15  1  0
 15 16  2  0
 16 17  1  0
 17 18  2  0
 18 19  1  0
 19 20  2  0
 20 21  1  0
 21 22  2  0
  9 23  1  0
 23 24  2  0
 24 25  1  0
 25 26  2  0
  5 27  1  0
 27 28  2  0
 28  2  1  0
 25  7  1  0
 22 13  1  0
 22 17  1  0
  1 29  1  0
  1 30  1  0
  1 31  1  0
  3 32  1  0
  4 33  1  0
  6 34  1  0
  6 35  1  0
 14 36  1  0
 15 37  1  0
 16 38  1  0
 18 39  1  0
 19 40  1  0
 20 41  1  0
 21 42  1  0
 23 43  1  0
 24 44  1  0
 27 45  1  0
 28 46  1  0
M  CHG  1  12  -1
M  END
>  <UniqueID>  (47) 
44

>  <SMILES>  (47) 
Cc1ccc(Cn2nc(C(=O)[N-]c3cccc4ccccc34)ccc2=O)cc1

>  <Energy>  (47) 
56.34785022469523

>  <Genealogy>  (47) 
Cc1ccc(Cn2nc(C(=O)[N-]c3cccc4ccccc34)ccc2=O)cc1 (protonated)
Cc1ccc(Cn2nc(C(=O)[N-]c3cccc4ccccc34)ccc2=O)cc1 (3D coordinates assigned)
Cc1ccc(Cn2nc(C(=O)[N-]c3cccc4ccccc34)ccc2=O)cc1 (optimized conformer: 56.34785022469523 kcal/mol)

>  <smiles>  (47) 
Cc1ccc(Cn2nc(C(=O)Nc3cccc4ccccc34)ccc2=O)cc1

>  <score_type>  (47) 
oracle

>  <origin>  (47) 
adgpu

>  <m_score__min__energy>  (47) 
-10.300000000000001

>  <m_primary>  (47) 
energy

$$$$
47:0
     RDKit          3D

 52 55  0  0  0  0  0  0  0  0999 V2000
   -9.4820   21.0110  -31.9330 C   0  0  0  0  0  0  0  0  0  0  0  0
   -8.7330   22.6270  -31.5600 S   0  0  0  0  0  0  0  0  0  0  0  0
   -7.0590   22.1550  -32.0160 C   0  0  0  0  0  0  0  0  0  0  0  0
   -6.8820   21.1120  -32.8680 N   0  0  0  0  0  0  0  0  0  0  0  0
   -5.6820   20.7760  -33.3500 N   0  0  0  0  0  0  0  0  0  0  0  0
   -5.5760   19.5580  -34.1590 C   0  0  0  0  0  0  0  0  0  0  0  0
   -5.4800   18.3580  -33.2570 C   0  0  0  0  0  0  0  0  0  0  0  0
   -6.1650   18.3300  -32.0310 C   0  0  0  0  0  0  0  0  0  0  0  0
   -6.1090   17.1940  -31.2200 C   0  0  0  0  0  0  0  0  0  0  0  0
   -5.3770   16.0770  -31.6280 C   0  0  0  0  0  0  0  0  0  0  0  0
   -4.7030   16.0910  -32.8530 C   0  0  0  0  0  0  0  0  0  0  0  0
   -4.7600   17.2240  -33.6700 C   0  0  0  0  0  0  0  0  0  0  0  0
   -4.5760   21.5220  -33.0390 C   0  0  0  0  0  0  0  0  0  0  0  0
   -3.4400   21.2250  -33.4980 O   0  0  0  0  0  0  0  0  0  0  0  0
   -4.7060   22.6210  -32.1930 C   0  0  0  0  0  0  0  0  0  0  0  0
   -5.9440   22.9090  -31.6230 C   0  0  0  0  0  0  0  0  0  0  0  0
   -6.0490   23.9900  -30.6900 N   0  0  0  0  0  0  0  0  0  0  0  0
   -5.1610   25.1160  -30.6520 C   0  0  0  0  0  0  0  0  0  0  0  0
   -5.6400   26.2730  -30.7750 O   0  0  0  0  0  0  0  0  0  0  0  0
   -3.7460   24.9680  -30.4580 N   0  0  0  0  0  0  0  0  0  0  0  0
   -3.1090   24.2520  -29.3910 C   0  0  0  0  0  0  0  0  0  0  0  0
   -3.6220   23.0050  -29.0150 C   0  0  0  0  0  0  0  0  0  0  0  0
   -3.0110   22.2670  -28.0010 C   0  0  0  0  0  0  0  0  0  0  0  0
   -1.8900   22.7740  -27.3440 C   0  0  0  0  0  0  0  0  0  0  0  0
   -1.3860   24.0380  -27.6780 C   0  0  0  0  0  0  0  0  0  0  0  0
    0.0130   24.6770  -26.8060 S   0  0  0  0  0  0  0  0  0  0  0  0
    1.0970   25.0090  -27.7910 O   0  0  0  0  0  0  0  0  0  0  0  0
    0.5390   23.6210  -25.8750 O   0  0  0  0  0  0  0  0  0  0  0  0
   -0.3650   26.1470  -25.8490 C   0  0  0  0  0  0  0  0  0  0  0  0
   -0.7830   25.8450  -24.4180 C   0  0  0  0  0  0  0  0  0  0  0  0
   -1.8110   26.3460  -25.4180 C   0  0  0  0  0  0  0  0  0  0  0  0
   -2.0190   24.7940  -28.6830 C   0  0  0  0  0  0  0  0  0  0  0  0
   -1.5820   26.0850  -28.9640 O   0  0  0  0  0  0  0  0  0  0  0  0
   -9.7223   20.4925  -30.9931 H   0  0  0  0  0  0  0  0  0  0  0  0
  -10.4031   21.1595  -32.5157 H   0  0  0  0  0  0  0  0  0  0  0  0
   -8.7733   20.4041  -32.5157 H   0  0  0  0  0  0  0  0  0  0  0  0
   -6.4663   19.4648  -34.7983 H   0  0  0  0  0  0  0  0  0  0  0  0
   -4.6749   19.6149  -34.7873 H   0  0  0  0  0  0  0  0  0  0  0  0
   -6.7475   19.2056  -31.7084 H   0  0  0  0  0  0  0  0  0  0  0  0
   -6.6425   17.1793  -30.2582 H   0  0  0  0  0  0  0  0  0  0  0  0
   -5.3306   15.1855  -30.9853 H   0  0  0  0  0  0  0  0  0  0  0  0
   -4.1277   15.2101  -33.1740 H   0  0  0  0  0  0  0  0  0  0  0  0
   -4.2397   17.2279  -34.6391 H   0  0  0  0  0  0  0  0  0  0  0  0
   -3.8358   23.2580  -31.9762 H   0  0  0  0  0  0  0  0  0  0  0  0
   -4.5122   22.6046  -29.5221 H   0  0  0  0  0  0  0  0  0  0  0  0
   -3.4142   21.2832  -27.7190 H   0  0  0  0  0  0  0  0  0  0  0  0
   -1.3992   22.1787  -26.5599 H   0  0  0  0  0  0  0  0  0  0  0  0
    0.3719   26.7914  -26.3507 H   0  0  0  0  0  0  0  0  0  0  0  0
   -0.8217   24.8040  -24.0646 H   0  0  0  0  0  0  0  0  0  0  0  0
   -0.4429   26.1703  -23.4237 H   0  0  0  0  0  0  0  0  0  0  0  0
   -2.5936   25.6677  -25.7887 H   0  0  0  0  0  0  0  0  0  0  0  0
   -2.5230   27.1839  -25.4476 H   0  0  0  0  0  0  0  0  0  0  0  0
  1  2  1  0
  2  3  1  0
  3  4  2  0
  4  5  1  0
  5  6  1  0
  6  7  1  0
  7  8  2  0
  8  9  1  0
  9 10  2  0
 10 11  1  0
 11 12  2  0
  5 13  1  0
 13 14  2  0
 13 15  1  0
 15 16  2  0
 16 17  1  0
 17 18  1  0
 18 19  2  0
 18 20  1  0
 20 21  1  0
 21 22  2  0
 22 23  1  0
 23 24  2  0
 24 25  1  0
 25 26  1  0
 26 27  2  0
 26 28  2  0
 26 29  1  0
 29 30  1  0
 30 31  1  0
 25 32  2  0
 32 33  1  0
 16  3  1  0
 32 21  1  0
 12  7  1  0
 31 29  1  0
  1 34  1  0
  1 35  1  0
  1 36  1  0
  6 37  1  0
  6 38  1  0
  8 39  1  0
  9 40  1  0
 10 41  1  0
 11 42  1  0
 12 43  1  0
 15 44  1  0
 22 45  1  0
 23 46  1  0
 24 47  1  0
 29 48  1  0
 30 49  1  0
 30 50  1  0
 31 51  1  0
 31 52  1  0
M  CHG  3  17  -1  20  -1  33  -1
M  END
>  <UniqueID>  (48) 
45

>  <SMILES>  (48) 
CSc1nn(Cc2ccccc2)c(=O)cc1[N-]C(=O)[N-]c1cccc(S(=O)(=O)C2CC2)c1[O-]

>  <Energy>  (48) 
325.3189799541276

>  <Genealogy>  (48) 
CSc1nn(Cc2ccccc2)c(=O)cc1[N-]C(=O)[N-]c1cccc(S(=O)(=O)C2CC2)c1[O-] (protonated)
CSc1nn(Cc2ccccc2)c(=O)cc1[N-]C(=O)[N-]c1cccc(S(=O)(=O)C2CC2)c1[O-] (3D coordinates assigned)
CSc1nn(Cc2ccccc2)c(=O)cc1[N-]C(=O)[N-]c1cccc(S(=O)(=O)C2CC2)c1[O-] (nonaromatic ring conformer: 325.3189799541276 kcal/mol)

>  <smiles>  (48) 
CSc1nn(Cc2ccccc2)c(=O)cc1NC(=O)Nc1cccc(S(=O)(=O)C2CC2)c1O

>  <score_type>  (48) 
oracle

>  <origin>  (48) 
adgpu

>  <m_score__min__energy>  (48) 
-16.739999999999998

>  <m_primary>  (48) 
energy

$$$$
48:0
     RDKit          3D

 60 63  0  0  0  0  0  0  0  0999 V2000
   -0.4240   23.3430  -25.5800 C   0  0  0  0  0  0  0  0  0  0  0  0
   -0.3280   23.6330  -26.9710 O   0  0  0  0  0  0  0  0  0  0  0  0
   -0.4890   22.6890  -27.9970 C   0  0  0  0  0  0  0  0  0  0  0  0
    0.3470   21.5620  -28.1010 C   0  0  0  0  0  0  0  0  0  0  0  0
    0.1530   20.6240  -29.1170 C   0  0  0  0  0  0  0  0  0  0  0  0
   -0.8930   20.7840  -30.0410 C   0  0  0  0  0  0  0  0  0  0  0  0
   -1.1060   19.8380  -31.1020 N   0  0  0  0  0  0  0  0  0  0  0  0
   -1.8460   20.1300  -32.2980 C   0  0  0  0  0  0  0  0  0  0  0  0
   -1.9880   21.3250  -32.6750 O   0  0  0  0  0  0  0  0  0  0  0  0
   -2.3540   19.0450  -33.1610 C   0  0  0  0  0  0  0  0  0  0  0  0
   -3.6090   18.5750  -32.9300 N   0  0  0  0  0  0  0  0  0  0  0  0
   -4.1480   17.5830  -33.6840 C   0  0  0  0  0  0  0  0  0  0  0  0
   -5.7660   17.0090  -33.3380 S   0  0  0  0  0  0  0  0  0  0  0  0
   -5.7120   15.9720  -32.2510 O   0  0  0  0  0  0  0  0  0  0  0  0
   -6.3520   16.3780  -34.5690 O   0  0  0  0  0  0  0  0  0  0  0  0
   -6.7620   18.3650  -32.8220 C   0  0  0  0  0  0  0  0  0  0  0  0
   -6.4760   19.6640  -33.2610 C   0  0  0  0  0  0  0  0  0  0  0  0
   -7.2830   20.7350  -32.8650 C   0  0  0  0  0  0  0  0  0  0  0  0
   -8.3830   20.5170  -32.0200 C   0  0  0  0  0  0  0  0  0  0  0  0
   -9.2730   21.6590  -31.6310 C   0  0  0  0  0  0  0  0  0  0  0  0
   -8.6830   19.2110  -31.6030 C   0  0  0  0  0  0  0  0  0  0  0  0
   -7.8740   18.1410  -31.9990 C   0  0  0  0  0  0  0  0  0  0  0  0
   -3.4260   17.0280  -34.6900 N   0  0  0  0  0  0  0  0  0  0  0  0
   -2.1630   17.4490  -34.9560 C   0  0  0  0  0  0  0  0  0  0  0  0
   -1.5860   18.4670  -34.1930 C   0  0  0  0  0  0  0  0  0  0  0  0
    0.0950   18.8970  -34.4980 Cl  0  0  0  0  0  0  0  0  0  0  0  0
   -1.7100   21.9190  -29.9540 C   0  0  0  0  0  0  0  0  0  0  0  0
   -1.5170   22.8720  -28.9440 C   0  0  0  0  0  0  0  0  0  0  0  0
   -2.6050   24.2650  -28.8670 S   0  0  0  0  0  0  0  0  0  0  0  0
   -3.3260   24.2910  -27.5470 O   0  0  0  0  0  0  0  0  0  0  0  0
   -1.7880   25.5230  -28.9780 O   0  0  0  0  0  0  0  0  0  0  0  0
   -3.7490   24.1990  -30.1840 N   0  0  0  0  0  0  0  0  0  0  0  0
   -4.4480   22.9030  -30.1860 C   0  0  0  0  0  0  0  0  0  0  0  0
   -5.6310   22.9180  -31.1750 C   0  0  0  0  0  0  0  0  0  0  0  0
   -5.5970   24.0680  -31.9960 O   0  0  0  0  0  0  0  0  0  0  0  0
   -5.7550   25.2280  -31.2000 C   0  0  0  0  0  0  0  0  0  0  0  0
   -4.7190   25.2980  -30.0580 C   0  0  0  0  0  0  0  0  0  0  0  0
   -0.1304   24.2300  -24.9994 H   0  0  0  0  0  0  0  0  0  0  0  0
   -1.4605   23.0698  -25.3331 H   0  0  0  0  0  0  0  0  0  0  0  0
    0.2448   22.5053  -25.3331 H   0  0  0  0  0  0  0  0  0  0  0  0
    1.1610   21.4185  -27.3751 H   0  0  0  0  0  0  0  0  0  0  0  0
    0.8229   19.7550  -29.1943 H   0  0  0  0  0  0  0  0  0  0  0  0
   -0.6090   18.9200  -31.0520 H   0  0  0  0  0  0  0  0  0  0  0  0
   -5.6133   19.8423  -33.9198 H   0  0  0  0  0  0  0  0  0  0  0  0
   -7.0553   21.7521  -33.2167 H   0  0  0  0  0  0  0  0  0  0  0  0
   -9.3253   21.7261  -30.5343 H   0  0  0  0  0  0  0  0  0  0  0  0
   -8.8650   22.5965  -32.0366 H   0  0  0  0  0  0  0  0  0  0  0  0
  -10.2818   21.4923  -32.0366 H   0  0  0  0  0  0  0  0  0  0  0  0
   -9.5581   19.0281  -30.9620 H   0  0  0  0  0  0  0  0  0  0  0  0
   -8.1113   17.1206  -31.6635 H   0  0  0  0  0  0  0  0  0  0  0  0
   -1.5922   16.9870  -35.7750 H   0  0  0  0  0  0  0  0  0  0  0  0
   -2.5151   22.0645  -30.6893 H   0  0  0  0  0  0  0  0  0  0  0  0
   -3.7416   22.1132  -30.4813 H   0  0  0  0  0  0  0  0  0  0  0  0
   -4.8372   22.7118  -29.1751 H   0  0  0  0  0  0  0  0  0  0  0  0
   -5.5785   22.0218  -31.8107 H   0  0  0  0  0  0  0  0  0  0  0  0
   -6.5672   22.9301  -30.5976 H   0  0  0  0  0  0  0  0  0  0  0  0
   -5.6374   26.1151  -31.8397 H   0  0  0  0  0  0  0  0  0  0  0  0
   -6.7561   25.1915  -30.7456 H   0  0  0  0  0  0  0  0  0  0  0  0
   -4.1872   26.2596  -30.1083 H   0  0  0  0  0  0  0  0  0  0  0  0
   -5.2408   25.2074  -29.0939 H   0  0  0  0  0  0  0  0  0  0  0  0
  1  2  1  0
  2  3  1  0
  3  4  2  0
  4  5  1  0
  5  6  2  0
  6  7  1  0
  7  8  1  0
  8  9  2  0
  8 10  1  0
 10 11  2  0
 11 12  1  0
 12 13  1  0
 13 14  2  0
 13 15  2  0
 13 16  1  0
 16 17  2  0
 17 18  1  0
 18 19  2  0
 19 20  1  0
 19 21  1  0
 21 22  2  0
 12 23  2  0
 23 24  1  0
 24 25  2  0
 25 26  1  0
  6 27  1  0
 27 28  2  0
 28 29  1  0
 29 30  2  0
 29 31  2  0
 29 32  1  0
 32 33  1  0
 33 34  1  0
 34 35  1  0
 35 36  1  0
 36 37  1  0
 28  3  1  0
 37 32  1  0
 25 10  1  0
 22 16  1  0
  1 38  1  0
  1 39  1  0
  1 40  1  0
  4 41  1  0
  5 42  1  0
  7 43  1  0
 17 44  1  0
 18 45  1  0
 20 46  1  0
 20 47  1  0
 20 48  1  0
 21 49  1  0
 22 50  1  0
 24 51  1  0
 27 52  1  0
 33 53  1  0
 33 54  1  0
 34 55  1  0
 34 56  1  0
 36 57  1  0
 36 58  1  0
 37 59  1  0
 37 60  1  0
M  END
>  <UniqueID>  (49) 
46

>  <SMILES>  (49) 
COc1ccc(NC(=O)c2nc(S(=O)(=O)c3ccc(C)cc3)ncc2Cl)cc1S(=O)(=O)N1CCOCC1

>  <Energy>  (49) 
80.49110107276954

>  <Genealogy>  (49) 
COc1ccc(NC(=O)c2nc(S(=O)(=O)c3ccc(C)cc3)ncc2Cl)cc1S(=O)(=O)N1CCOCC1 (3D coordinates assigned)
COc1ccc(NC(=O)c2nc(S(=O)(=O)c3ccc(C)cc3)ncc2Cl)cc1S(=O)(=O)N1CCOCC1 (nonaromatic ring conformer: 80.49110107276954 kcal/mol)

>  <smiles>  (49) 
COc1ccc(NC(=O)c2nc(S(=O)(=O)c3ccc(C)cc3)ncc2Cl)cc1S(=O)(=O)N1CCOCC1

>  <score_type>  (49) 
oracle

>  <origin>  (49) 
adgpu

>  <m_score__min__energy>  (49) 
-10.960000000000001

>  <m_primary>  (49) 
energy

$$$$
49:0
     RDKit          3D

 41 43  0  0  0  0  0  0  0  0999 V2000
   -3.1940   20.4280  -31.7770 O   0  0  0  0  0  0  0  0  0  0  0  0
   -2.1800   21.4700  -31.3970 S   0  0  0  0  0  0  0  0  0  0  0  0
   -1.0690   21.4520  -32.4090 O   0  0  0  0  0  0  0  0  0  0  0  0
   -2.9420   23.0290  -31.4270 N   0  0  0  0  0  0  0  0  0  0  0  0
   -4.3120   23.3290  -31.1190 C   0  0  0  0  0  0  0  0  0  0  0  0
   -5.2390   22.2810  -31.1970 C   0  0  0  0  0  0  0  0  0  0  0  0
   -6.5940   22.5060  -30.9400 C   0  0  0  0  0  0  0  0  0  0  0  0
   -7.0340   23.7830  -30.5890 C   0  0  0  0  0  0  0  0  0  0  0  0
   -6.1180   24.8310  -30.4780 C   0  0  0  0  0  0  0  0  0  0  0  0
   -4.7570   24.6100  -30.7240 C   0  0  0  0  0  0  0  0  0  0  0  0
   -3.8720   25.6640  -30.5400 O   0  0  0  0  0  0  0  0  0  0  0  0
   -1.4840   21.1230  -29.8040 C   0  0  0  0  0  0  0  0  0  0  0  0
   -0.9030   19.8610  -29.5910 C   0  0  0  0  0  0  0  0  0  0  0  0
   -0.3700   19.5230  -28.3480 C   0  0  0  0  0  0  0  0  0  0  0  0
   -0.4010   20.4420  -27.3020 C   0  0  0  0  0  0  0  0  0  0  0  0
   -0.9620   21.7050  -27.4970 C   0  0  0  0  0  0  0  0  0  0  0  0
   -1.5080   22.0680  -28.7450 C   0  0  0  0  0  0  0  0  0  0  0  0
   -2.0600   23.3880  -28.9400 N   0  0  0  0  0  0  0  0  0  0  0  0
   -2.8530   24.0780  -27.9200 C   0  0  0  0  0  0  0  0  0  0  0  0
   -2.0290   25.1320  -27.2240 C   0  0  0  0  0  0  0  0  0  0  0  0
   -2.0500   25.2310  -25.8230 C   0  0  0  0  0  0  0  0  0  0  0  0
   -1.3170   26.2280  -25.1730 C   0  0  0  0  0  0  0  0  0  0  0  0
   -0.5550   27.1330  -25.9140 C   0  0  0  0  0  0  0  0  0  0  0  0
   -0.5260   27.0440  -27.3080 C   0  0  0  0  0  0  0  0  0  0  0  0
   -1.2600   26.0500  -27.9660 C   0  0  0  0  0  0  0  0  0  0  0  0
   -1.2240   25.9830  -29.3550 O   0  0  0  0  0  0  0  0  0  0  0  0
   -4.8963   21.2703  -31.4634 H   0  0  0  0  0  0  0  0  0  0  0  0
   -7.3133   21.6771  -31.0143 H   0  0  0  0  0  0  0  0  0  0  0  0
   -8.1024   23.9640  -30.3998 H   0  0  0  0  0  0  0  0  0  0  0  0
   -6.4671   25.8353  -30.1959 H   0  0  0  0  0  0  0  0  0  0  0  0
   -0.8685   19.1321  -30.4141 H   0  0  0  0  0  0  0  0  0  0  0  0
    0.0756   18.5293  -28.1932 H   0  0  0  0  0  0  0  0  0  0  0  0
    0.0171   20.1721  -26.3210 H   0  0  0  0  0  0  0  0  0  0  0  0
   -0.9783   22.4262  -26.6666 H   0  0  0  0  0  0  0  0  0  0  0  0
   -1.8490   23.9000  -29.8250 H   0  0  0  0  0  0  0  0  0  0  0  0
   -3.7199   24.5562  -28.3995 H   0  0  0  0  0  0  0  0  0  0  0  0
   -3.1863   23.3413  -27.1742 H   0  0  0  0  0  0  0  0  0  0  0  0
   -2.6470   24.5195  -25.2337 H   0  0  0  0  0  0  0  0  0  0  0  0
   -1.3406   26.2996  -24.0756 H   0  0  0  0  0  0  0  0  0  0  0  0
    0.0224   27.9159  -25.4005 H   0  0  0  0  0  0  0  0  0  0  0  0
    0.0756   27.7574  -27.8904 H   0  0  0  0  0  0  0  0  0  0  0  0
  1  2  2  0
  2  3  2  0
  2  4  1  0
  4  5  1  0
  5  6  2  0
  6  7  1  0
  7  8  2  0
  8  9  1  0
  9 10  2  0
 10 11  1  0
  2 12  1  0
 12 13  2  0
 13 14  1  0
 14 15  2  0
 15 16  1  0
 16 17  2  0
 17 18  1  0
 18 19  1  0
 19 20  1  0
 20 21  2  0
 21 22  1  0
 22 23  2  0
 23 24  1  0
 24 25  2  0
 25 26  1  0
 10  5  1  0
 17 12  1  0
 25 20  1  0
  6 27  1  0
  7 28  1  0
  8 29  1  0
  9 30  1  0
 13 31  1  0
 14 32  1  0
 15 33  1  0
 16 34  1  0
 18 35  1  0
 19 36  1  0
 19 37  1  0
 21 38  1  0
 22 39  1  0
 23 40  1  0
 24 41  1  0
M  CHG  3   4  -1  11  -1  26  -1
M  END
>  <UniqueID>  (50) 
47

>  <SMILES>  (50) 
O=S(=O)([N-]c1ccccc1[O-])c1ccccc1NCc1ccccc1[O-]

>  <Energy>  (50) 
51.029949422028146

>  <Genealogy>  (50) 
O=S(=O)([N-]c1ccccc1[O-])c1ccccc1NCc1ccccc1[O-] (protonated)
O=S(=O)([N-]c1ccccc1[O-])c1ccccc1NCc1ccccc1[O-] (3D coordinates assigned)
O=S(=O)([N-]c1ccccc1[O-])c1ccccc1NCc1ccccc1[O-] (optimized conformer: 51.029949422028146 kcal/mol)

>  <smiles>  (50) 
O=S(=O)(Nc1ccccc1O)c1ccccc1NCc1ccccc1O

>  <score_type>  (50) 
oracle

>  <origin>  (50) 
adgpu

>  <m_score__min__energy>  (50) 
-14

>  <m_primary>  (50) 
energy

$$$$
