0:0
     RDKit          3D

 37 39  0  0  0  0  0  0  0  0999 V2000
   -8.5760   19.7630  -31.7400 C   0  0  0  0  0  0  0  0  0  0  0  0
   -7.7750   19.4600  -32.9380 N   0  0  0  0  0  0  0  0  0  0  0  0
   -7.3020   18.0680  -32.9040 C   0  0  0  0  0  0  0  0  0  0  0  0
   -6.6460   20.3630  -33.0410 C   0  0  0  0  0  0  0  0  0  0  0  0
   -5.7040   20.0940  -33.8400 O   0  0  0  0  0  0  0  0  0  0  0  0
   -6.5760   21.6230  -32.2550 C   0  0  0  0  0  0  0  0  0  0  0  0
   -7.5740   22.6100  -32.3600 C   0  0  0  0  0  0  0  0  0  0  0  0
   -7.4790   23.7920  -31.6230 C   0  0  0  0  0  0  0  0  0  0  0  0
   -6.3950   24.0070  -30.7710 C   0  0  0  0  0  0  0  0  0  0  0  0
   -5.3910   23.0330  -30.6440 C   0  0  0  0  0  0  0  0  0  0  0  0
   -4.2190   23.2530  -29.7640 C   0  0  0  0  0  0  0  0  0  0  0  0
   -3.8590   22.2670  -28.8960 N   0  0  0  0  0  0  0  0  0  0  0  0
   -2.7970   22.3860  -28.0580 C   0  0  0  0  0  0  0  0  0  0  0  0
   -2.4920   21.3850  -27.2370 O   0  0  0  0  0  0  0  0  0  0  0  0
   -1.4630   21.4390  -26.3940 C   0  0  0  0  0  0  0  0  0  0  0  0
   -1.2240   20.4590  -25.6420 O   0  0  0  0  0  0  0  0  0  0  0  0
   -0.6490   22.5740  -26.3440 C   0  0  0  0  0  0  0  0  0  0  0  0
   -0.9340   23.6480  -27.1870 C   0  0  0  0  0  0  0  0  0  0  0  0
   -2.0250   23.5650  -28.0640 C   0  0  0  0  0  0  0  0  0  0  0  0
   -2.3780   24.6080  -28.9370 C   0  0  0  0  0  0  0  0  0  0  0  0
   -1.7150   25.6800  -28.9600 O   0  0  0  0  0  0  0  0  0  0  0  0
   -3.4840   24.4570  -29.7850 C   0  0  0  0  0  0  0  0  0  0  0  0
   -3.8600   25.5100  -30.6140 O   0  0  0  0  0  0  0  0  0  0  0  0
   -5.4800   21.8530  -31.4030 C   0  0  0  0  0  0  0  0  0  0  0  0
   -7.9863   19.5399  -30.8386 H   0  0  0  0  0  0  0  0  0  0  0  0
   -8.8522   20.8277  -31.7433 H   0  0  0  0  0  0  0  0  0  0  0  0
   -9.4878   19.1476  -31.7433 H   0  0  0  0  0  0  0  0  0  0  0  0
   -8.4100   19.5800  -33.7620 H   0  0  0  0  0  0  0  0  0  0  0  0
   -7.1918   17.7436  -31.8587 H   0  0  0  0  0  0  0  0  0  0  0  0
   -8.0306   17.4206  -33.4139 H   0  0  0  0  0  0  0  0  0  0  0  0
   -6.3298   17.9985  -33.4139 H   0  0  0  0  0  0  0  0  0  0  0  0
   -8.4340   22.4491  -33.0267 H   0  0  0  0  0  0  0  0  0  0  0  0
   -8.2631   24.5581  -31.7145 H   0  0  0  0  0  0  0  0  0  0  0  0
   -6.3265   24.9427  -30.1967 H   0  0  0  0  0  0  0  0  0  0  0  0
    0.2035   22.6196  -25.6503 H   0  0  0  0  0  0  0  0  0  0  0  0
   -0.3083   24.5524  -27.1641 H   0  0  0  0  0  0  0  0  0  0  0  0
   -4.6821   21.0993  -31.3299 H   0  0  0  0  0  0  0  0  0  0  0  0
  1  2  1  0
  2  3  1  0
  2  4  1  0
  4  5  2  0
  4  6  1  0
  6  7  2  0
  7  8  1  0
  8  9  2  0
  9 10  1  0
 10 11  1  0
 11 12  1  0
 12 13  1  0
 13 14  1  0
 14 15  1  0
 15 16  2  0
 15 17  1  0
 17 18  2  0
 18 19  1  0
 19 20  1  0
 20 21  2  0
 20 22  1  0
 22 23  1  0
 10 24  2  0
 24  6  1  0
 22 11  2  0
 19 13  2  0
  1 25  1  0
  1 26  1  0
  1 27  1  0
  2 28  1  0
  3 29  1  0
  3 30  1  0
  3 31  1  0
  7 32  1  0
  8 33  1  0
  9 34  1  0
 17 35  1  0
 18 36  1  0
 24 37  1  0
M  CHG  3   2   1  12  -1  23  -1
M  END
>  <UniqueID>  (1) 
1

>  <SMILES>  (1) 
C[NH+](C)C(=O)c1cccc(-c2[n-]c3oc(=O)ccc3c(=O)c2[O-])c1

>  <Energy>  (1) 
55.710541172691286

>  <Genealogy>  (1) 
C[NH+](C)C(=O)c1cccc(-c2[n-]c3oc(=O)ccc3c(=O)c2[O-])c1 (protonated)
C[NH+](C)C(=O)c1cccc(-c2[n-]c3oc(=O)ccc3c(=O)c2[O-])c1 (3D coordinates assigned)
C[NH+](C)C(=O)c1cccc(-c2[n-]c3oc(=O)ccc3c(=O)c2[O-])c1 (optimized conformer: 55.710541172691286 kcal/mol)

>  <smiles>  (1) 
CN(C)C(=O)c1cccc(-c2[nH]c3oc(=O)ccc3c(=O)c2O)c1

>  <score_type>  (1) 
oracle

>  <origin>  (1) 
adgpu

>  <m_score__min__energy>  (1) 
-11.130000000000001

>  <m_primary>  (1) 
energy

$$$$
1:0
     RDKit          3D

 36 38  0  0  0  0  0  0  0  0999 V2000
   -5.6990   18.9820  -34.4520 O   0  0  0  0  0  0  0  0  0  0  0  0
   -6.0580   19.6060  -33.4160 C   0  0  0  0  0  0  0  0  0  0  0  0
   -5.1710   20.6530  -32.8590 C   0  0  0  0  0  0  0  0  0  0  0  0
   -3.7850   20.5940  -33.0910 C   0  0  0  0  0  0  0  0  0  0  0  0
   -2.9400   21.5810  -32.5790 C   0  0  0  0  0  0  0  0  0  0  0  0
   -3.4650   22.6340  -31.8280 C   0  0  0  0  0  0  0  0  0  0  0  0
   -4.8410   22.7000  -31.5760 C   0  0  0  0  0  0  0  0  0  0  0  0
   -5.5040   24.0320  -30.6350 S   0  0  0  0  0  0  0  0  0  0  0  0
   -4.9920   25.3250  -31.2040 O   0  0  0  0  0  0  0  0  0  0  0  0
   -7.0060   24.0260  -30.7030 O   0  0  0  0  0  0  0  0  0  0  0  0
   -5.0140   23.9070  -28.9740 N   0  0  0  0  0  0  0  0  0  0  0  0
   -3.7250   23.4210  -28.5480 C   0  0  0  0  0  0  0  0  0  0  0  0
   -3.5990   22.2480  -27.7760 C   0  0  0  0  0  0  0  0  0  0  0  0
   -2.3380   21.7880  -27.3860 C   0  0  0  0  0  0  0  0  0  0  0  0
   -1.1910   22.4940  -27.7490 C   0  0  0  0  0  0  0  0  0  0  0  0
   -1.3020   23.6630  -28.5030 C   0  0  0  0  0  0  0  0  0  0  0  0
   -2.5590   24.1270  -28.9050 C   0  0  0  0  0  0  0  0  0  0  0  0
   -2.6390   25.2880  -29.6670 O   0  0  0  0  0  0  0  0  0  0  0  0
   -5.6870   21.7010  -32.0770 C   0  0  0  0  0  0  0  0  0  0  0  0
   -7.3670   19.2900  -32.8120 C   0  0  0  0  0  0  0  0  0  0  0  0
   -8.5300   20.0130  -32.9880 C   0  0  0  0  0  0  0  0  0  0  0  0
   -9.4860   19.3720  -32.2310 C   0  0  0  0  0  0  0  0  0  0  0  0
   -8.8490   18.3030  -31.6360 C   0  0  0  0  0  0  0  0  0  0  0  0
   -7.5880   18.2810  -31.9990 O   0  0  0  0  0  0  0  0  0  0  0  0
   -3.3640   19.7654  -33.6793 H   0  0  0  0  0  0  0  0  0  0  0  0
   -1.8576   21.5285  -32.7681 H   0  0  0  0  0  0  0  0  0  0  0  0
   -2.7966   23.4135  -31.4334 H   0  0  0  0  0  0  0  0  0  0  0  0
   -5.6840   24.2780  -28.2640 H   0  0  0  0  0  0  0  0  0  0  0  0
   -4.4995   21.6908  -27.4784 H   0  0  0  0  0  0  0  0  0  0  0  0
   -2.2499   20.8668  -26.7913 H   0  0  0  0  0  0  0  0  0  0  0  0
   -0.1998   22.1296  -27.4412 H   0  0  0  0  0  0  0  0  0  0  0  0
   -0.3969   24.2222  -28.7825 H   0  0  0  0  0  0  0  0  0  0  0  0
   -6.7640   21.7374  -31.8563 H   0  0  0  0  0  0  0  0  0  0  0  0
   -8.6652   20.9138  -33.6046 H   0  0  0  0  0  0  0  0  0  0  0  0
  -10.5434   19.6554  -32.1229 H   0  0  0  0  0  0  0  0  0  0  0  0
   -9.3258   17.5784  -30.9595 H   0  0  0  0  0  0  0  0  0  0  0  0
  1  2  2  0
  2  3  1  0
  3  4  2  0
  4  5  1  0
  5  6  2  0
  6  7  1  0
  7  8  1  0
  8  9  2  0
  8 10  2  0
  8 11  1  0
 11 12  1  0
 12 13  2  0
 13 14  1  0
 14 15  2  0
 15 16  1  0
 16 17  2  0
 17 18  1  0
  7 19  2  0
  2 20  1  0
 20 21  2  0
 21 22  1  0
 22 23  2  0
 23 24  1  0
 19  3  1  0
 24 20  1  0
 17 12  1  0
  4 25  1  0
  5 26  1  0
  6 27  1  0
 11 28  1  0
 13 29  1  0
 14 30  1  0
 15 31  1  0
 16 32  1  0
 19 33  1  0
 21 34  1  0
 22 35  1  0
 23 36  1  0
M  CHG  1  18  -1
M  END
>  <UniqueID>  (2) 
2

>  <SMILES>  (2) 
O=C(c1cccc(S(=O)(=O)Nc2ccccc2[O-])c1)c1ccco1

>  <Energy>  (2) 
69.14812836130245

>  <Genealogy>  (2) 
O=C(c1cccc(S(=O)(=O)Nc2ccccc2[O-])c1)c1ccco1 (protonated)
O=C(c1cccc(S(=O)(=O)Nc2ccccc2[O-])c1)c1ccco1 (3D coordinates assigned)
O=C(c1cccc(S(=O)(=O)Nc2ccccc2[O-])c1)c1ccco1 (optimized conformer: 69.14812836130245 kcal/mol)

>  <smiles>  (2) 
O=C(c1cccc(S(=O)(=O)Nc2ccccc2O)c1)c1ccco1

>  <score_type>  (2) 
oracle

>  <origin>  (2) 
adgpu

>  <m_score__min__energy>  (2) 
-12.26

>  <m_primary>  (2) 
energy

$$$$
2:0
     RDKit          3D

 46 49  0  0  0  0  0  0  0  0999 V2000
   -7.7120   18.0350  -32.7070 C   0  0  0  0  0  0  0  0  0  0  0  0
   -8.0520   19.4420  -32.3140 C   0  0  0  0  0  0  0  0  0  0  0  0
   -9.3840   19.8770  -32.3340 C   0  0  0  0  0  0  0  0  0  0  0  0
   -9.6950   21.1970  -32.0030 C   0  0  0  0  0  0  0  0  0  0  0  0
   -8.6820   22.0940  -31.6610 C   0  0  0  0  0  0  0  0  0  0  0  0
   -7.3370   21.6840  -31.6520 C   0  0  0  0  0  0  0  0  0  0  0  0
   -6.2710   22.6530  -31.2960 C   0  0  0  0  0  0  0  0  0  0  0  0
   -6.1010   23.9320  -31.7900 C   0  0  0  0  0  0  0  0  0  0  0  0
   -5.0410   24.4420  -31.2140 O   0  0  0  0  0  0  0  0  0  0  0  0
   -4.5640   23.5310  -30.3940 C   0  0  0  0  0  0  0  0  0  0  0  0
   -3.3640   23.7300  -29.5560 C   0  0  0  0  0  0  0  0  0  0  0  0
   -2.0860   23.4160  -30.0490 C   0  0  0  0  0  0  0  0  0  0  0  0
   -0.9550   23.6050  -29.2500 C   0  0  0  0  0  0  0  0  0  0  0  0
   -1.0840   24.1010  -27.9460 C   0  0  0  0  0  0  0  0  0  0  0  0
    0.3480   24.3460  -26.9390 S   0  0  0  0  0  0  0  0  0  0  0  0
    0.6280   23.0840  -26.1730 O   0  0  0  0  0  0  0  0  0  0  0  0
    1.5300   24.6190  -27.8290 O   0  0  0  0  0  0  0  0  0  0  0  0
    0.1690   25.6680  -25.8120 N   0  0  0  0  0  0  0  0  0  0  0  0
   -0.5260   26.8080  -26.4070 C   0  0  0  0  0  0  0  0  0  0  0  0
   -1.1630   27.5700  -25.2540 C   0  0  0  0  0  0  0  0  0  0  0  0
   -1.2280   26.5790  -24.1020 C   0  0  0  0  0  0  0  0  0  0  0  0
   -0.6260   25.2920  -24.6450 C   0  0  0  0  0  0  0  0  0  0  0  0
   -2.3560   24.4250  -27.4550 C   0  0  0  0  0  0  0  0  0  0  0  0
   -3.4890   24.2370  -28.2530 C   0  0  0  0  0  0  0  0  0  0  0  0
   -5.2930   22.3940  -30.4050 N   0  0  0  0  0  0  0  0  0  0  0  0
   -7.0310   20.3490  -31.9880 C   0  0  0  0  0  0  0  0  0  0  0  0
   -7.5651   17.4269  -31.8022 H   0  0  0  0  0  0  0  0  0  0  0  0
   -8.5338   17.6121  -33.3035 H   0  0  0  0  0  0  0  0  0  0  0  0
   -6.7878   18.0341  -33.3035 H   0  0  0  0  0  0  0  0  0  0  0  0
  -10.1860   19.1770  -32.6111 H   0  0  0  0  0  0  0  0  0  0  0  0
  -10.7429   21.5315  -32.0118 H   0  0  0  0  0  0  0  0  0  0  0  0
   -8.9379   23.1305  -31.3962 H   0  0  0  0  0  0  0  0  0  0  0  0
   -6.7403   24.4316  -32.5328 H   0  0  0  0  0  0  0  0  0  0  0  0
   -1.9753   23.0194  -31.0690 H   0  0  0  0  0  0  0  0  0  0  0  0
    0.0419   23.3630  -29.6471 H   0  0  0  0  0  0  0  0  0  0  0  0
    0.1876   27.4525  -26.9412 H   0  0  0  0  0  0  0  0  0  0  0  0
   -1.2824   26.4792  -27.1349 H   0  0  0  0  0  0  0  0  0  0  0  0
   -0.5468   28.4390  -24.9799 H   0  0  0  0  0  0  0  0  0  0  0  0
   -2.1587   27.9554  -25.5188 H   0  0  0  0  0  0  0  0  0  0  0  0
   -0.6442   26.9458  -23.2449 H   0  0  0  0  0  0  0  0  0  0  0  0
   -2.2582   26.4314  -23.7457 H   0  0  0  0  0  0  0  0  0  0  0  0
    0.0141   24.8210  -23.8844 H   0  0  0  0  0  0  0  0  0  0  0  0
   -1.4093   24.5676  -24.9129 H   0  0  0  0  0  0  0  0  0  0  0  0
   -2.4637   24.8289  -26.4375 H   0  0  0  0  0  0  0  0  0  0  0  0
   -4.4842   24.4880  -27.8572 H   0  0  0  0  0  0  0  0  0  0  0  0
   -5.9829   20.0152  -31.9947 H   0  0  0  0  0  0  0  0  0  0  0  0
  1  2  1  0
  2  3  2  0
  3  4  1  0
  4  5  2  0
  5  6  1  0
  6  7  1  0
  7  8  2  0
  8  9  1  0
  9 10  1  0
 10 11  1  0
 11 12  2  0
 12 13  1  0
 13 14  2  0
 14 15  1  0
 15 16  2  0
 15 17  2  0
 15 18  1  0
 18 19  1  0
 19 20  1  0
 20 21  1  0
 21 22  1  0
 14 23  1  0
 23 24  2  0
 10 25  2  0
  6 26  2  0
 26  2  1  0
 25  7  1  0
 24 11  1  0
 22 18  1  0
  1 27  1  0
  1 28  1  0
  1 29  1  0
  3 30  1  0
  4 31  1  0
  5 32  1  0
  8 33  1  0
 12 34  1  0
 13 35  1  0
 19 36  1  0
 19 37  1  0
 20 38  1  0
 20 39  1  0
 21 40  1  0
 21 41  1  0
 22 42  1  0
 22 43  1  0
 23 44  1  0
 24 45  1  0
 26 46  1  0
M  END
>  <UniqueID>  (3) 
3

>  <SMILES>  (3) 
Cc1cccc(-c2coc(-c3ccc(S(=O)(=O)N4CCCC4)cc3)n2)c1

>  <Energy>  (3) 
80.62831096050509

>  <Genealogy>  (3) 
Cc1cccc(-c2coc(-c3ccc(S(=O)(=O)N4CCCC4)cc3)n2)c1 (3D coordinates assigned)
Cc1cccc(-c2coc(-c3ccc(S(=O)(=O)N4CCCC4)cc3)n2)c1 (nonaromatic ring conformer: 80.62831096050509 kcal/mol)

>  <smiles>  (3) 
Cc1cccc(-c2coc(-c3ccc(S(=O)(=O)N4CCCC4)cc3)n2)c1

>  <score_type>  (3) 
oracle

>  <origin>  (3) 
adgpu

>  <m_score__min__energy>  (3) 
-9.4600000000000009

>  <m_primary>  (3) 
energy

$$$$
3:0
     RDKit          3D

 52 55  0  0  0  0  0  0  0  0999 V2000
   -4.5990   25.2850  -26.2010 N   0  0  0  0  0  0  0  0  0  0  0  0
   -3.2020   25.0200  -26.5410 C   0  0  0  0  0  0  0  0  0  0  0  0
   -3.0930   24.1610  -27.7830 C   0  0  0  0  0  0  0  0  0  0  0  0
   -1.9010   23.4510  -28.0020 C   0  0  0  0  0  0  0  0  0  0  0  0
   -1.7410   22.6540  -29.1360 C   0  0  0  0  0  0  0  0  0  0  0  0
   -2.7650   22.5600  -30.0930 C   0  0  0  0  0  0  0  0  0  0  0  0
   -2.6200   21.7080  -31.3020 C   0  0  0  0  0  0  0  0  0  0  0  0
   -1.4480   21.7090  -32.0740 C   0  0  0  0  0  0  0  0  0  0  0  0
   -1.3790   20.8820  -33.2060 C   0  0  0  0  0  0  0  0  0  0  0  0
   -0.2010   20.8360  -34.0330 N   0  0  0  0  0  0  0  0  0  0  0  0
    1.0100   20.0990  -33.7090 C   0  0  0  0  0  0  0  0  0  0  0  0
    2.0220   20.4760  -34.7850 C   0  0  0  0  0  0  0  0  0  0  0  0
    1.2060   21.0770  -35.9270 C   0  0  0  0  0  0  0  0  0  0  0  0
    0.9520   20.1060  -36.8830 F   0  0  0  0  0  0  0  0  0  0  0  0
    1.8790   22.1350  -36.5150 F   0  0  0  0  0  0  0  0  0  0  0  0
   -0.1030   21.5430  -35.2990 C   0  0  0  0  0  0  0  0  0  0  0  0
   -2.4510   20.1080  -33.5250 N   0  0  0  0  0  0  0  0  0  0  0  0
   -3.5890   20.1160  -32.7810 C   0  0  0  0  0  0  0  0  0  0  0  0
   -4.7110   19.2880  -33.1530 N   0  0  0  0  0  0  0  0  0  0  0  0
   -5.8900   19.2200  -32.2800 C   0  0  0  0  0  0  0  0  0  0  0  0
   -7.1220   18.7810  -33.0760 C   0  0  0  0  0  0  0  0  0  0  0  0
   -6.8510   17.6050  -33.8120 O   0  0  0  0  0  0  0  0  0  0  0  0
   -5.8860   17.8840  -34.8050 C   0  0  0  0  0  0  0  0  0  0  0  0
   -4.5390   18.2420  -34.1700 C   0  0  0  0  0  0  0  0  0  0  0  0
   -3.6590   20.9150  -31.6830 N   0  0  0  0  0  0  0  0  0  0  0  0
   -3.9570   23.2710  -29.8790 C   0  0  0  0  0  0  0  0  0  0  0  0
   -4.1310   24.0790  -28.7440 C   0  0  0  0  0  0  0  0  0  0  0  0
   -5.3600   24.8050  -28.5990 N   0  0  0  0  0  0  0  0  0  0  0  0
   -4.9660   26.0430  -26.8210 H   0  0  0  0  0  0  0  0  0  0  0  0
   -4.6430   25.6360  -25.2170 H   0  0  0  0  0  0  0  0  0  0  0  0
   -2.6890   25.9764  -26.7203 H   0  0  0  0  0  0  0  0  0  0  0  0
   -2.7364   24.4805  -25.7030 H   0  0  0  0  0  0  0  0  0  0  0  0
   -1.0831   23.5243  -27.2701 H   0  0  0  0  0  0  0  0  0  0  0  0
   -0.8052   22.0946  -29.2818 H   0  0  0  0  0  0  0  0  0  0  0  0
   -0.5967   22.3479  -31.7963 H   0  0  0  0  0  0  0  0  0  0  0  0
    1.3811   20.3889  -32.7149 H   0  0  0  0  0  0  0  0  0  0  0  0
    0.8304   19.0141  -33.6825 H   0  0  0  0  0  0  0  0  0  0  0  0
    2.7387   21.2142  -34.3958 H   0  0  0  0  0  0  0  0  0  0  0  0
    2.6050   19.6044  -35.1174 H   0  0  0  0  0  0  0  0  0  0  0  0
   -0.0832   22.6300  -35.1315 H   0  0  0  0  0  0  0  0  0  0  0  0
   -0.9646   21.3342  -35.9502 H   0  0  0  0  0  0  0  0  0  0  0  0
   -5.7024   18.4951  -31.4742 H   0  0  0  0  0  0  0  0  0  0  0  0
   -6.0771   20.2178  -31.8564 H   0  0  0  0  0  0  0  0  0  0  0  0
   -7.9512   18.5876  -32.3796 H   0  0  0  0  0  0  0  0  0  0  0  0
   -7.3917   19.5828  -33.7791 H   0  0  0  0  0  0  0  0  0  0  0  0
   -5.7592   16.9974  -35.4437 H   0  0  0  0  0  0  0  0  0  0  0  0
   -6.2325   18.7402  -35.4023 H   0  0  0  0  0  0  0  0  0  0  0  0
   -4.1116   17.3450  -33.6980 H   0  0  0  0  0  0  0  0  0  0  0  0
   -3.8644   18.6160  -34.9542 H   0  0  0  0  0  0  0  0  0  0  0  0
   -4.7706   23.1933  -30.6153 H   0  0  0  0  0  0  0  0  0  0  0  0
   -5.3630   25.7630  -28.1820 H   0  0  0  0  0  0  0  0  0  0  0  0
   -6.2860   24.4070  -28.8680 H   0  0  0  0  0  0  0  0  0  0  0  0
  1  2  1  0
  2  3  1  0
  3  4  2  0
  4  5  1  0
  5  6  2  0
  6  7  1  0
  7  8  2  0
  8  9  1  0
  9 10  1  0
 10 11  1  0
 11 12  1  0
 12 13  1  0
 13 14  1  0
 13 15  1  0
 13 16  1  0
  9 17  2  0
 17 18  1  0
 18 19  1  0
 19 20  1  0
 20 21  1  0
 21 22  1  0
 22 23  1  0
 23 24  1  0
 18 25  2  0
  6 26  1  0
 26 27  2  0
 27 28  1  0
 27  3  1  0
 25  7  1  0
 16 10  1  0
 24 19  1  0
  1 29  1  0
  1 30  1  0
  2 31  1  0
  2 32  1  0
  4 33  1  0
  5 34  1  0
  8 35  1  0
 11 36  1  0
 11 37  1  0
 12 38  1  0
 12 39  1  0
 16 40  1  0
 16 41  1  0
 20 42  1  0
 20 43  1  0
 21 44  1  0
 21 45  1  0
 23 46  1  0
 23 47  1  0
 24 48  1  0
 24 49  1  0
 26 50  1  0
 28 51  1  0
 28 52  1  0
M  END
>  <UniqueID>  (4) 
4

>  <SMILES>  (4) 
NCc1ccc(-c2cc(N3CCC(F)(F)C3)nc(N3CCOCC3)n2)cc1N

>  <Energy>  (4) 
60.75921326657086

>  <Genealogy>  (4) 
NCc1ccc(-c2cc(N3CCC(F)(F)C3)nc(N3CCOCC3)n2)cc1N (3D coordinates assigned)
NCc1ccc(-c2cc(N3CCC(F)(F)C3)nc(N3CCOCC3)n2)cc1N (nonaromatic ring conformer: 60.75921326657086 kcal/mol)

>  <smiles>  (4) 
NCc1ccc(-c2cc(N3CCC(F)(F)C3)nc(N3CCOCC3)n2)cc1N

>  <score_type>  (4) 
oracle

>  <origin>  (4) 
adgpu

>  <m_score__min__energy>  (4) 
-8.6999999999999993

>  <m_primary>  (4) 
energy

$$$$
4:0
     RDKit          3D

 63 66  0  0  0  0  0  0  0  0999 V2000
   -1.5610   19.6860  -29.9960 O   0  0  0  0  0  0  0  0  0  0  0  0
   -1.3290   20.6740  -29.2460 C   0  0  0  0  0  0  0  0  0  0  0  0
   -0.4020   20.5420  -28.1510 N   0  0  0  0  0  0  0  0  0  0  0  0
    0.4230   19.3840  -27.9470 C   0  0  0  0  0  0  0  0  0  0  0  0
   -0.1420   18.1060  -28.0770 C   0  0  0  0  0  0  0  0  0  0  0  0
    0.6410   16.9640  -27.8900 C   0  0  0  0  0  0  0  0  0  0  0  0
    2.0040   17.0860  -27.5890 C   0  0  0  0  0  0  0  0  0  0  0  0
    2.9980   15.6460  -27.3620 S   0  0  0  0  0  0  0  0  0  0  0  0
    2.7960   15.1120  -25.9700 O   0  0  0  0  0  0  0  0  0  0  0  0
    4.4470   16.0170  -27.5050 O   0  0  0  0  0  0  0  0  0  0  0  0
    2.5890   14.4110  -28.5330 N   0  0  0  0  0  0  0  0  0  0  0  0
    1.7550   13.3450  -27.9120 C   0  0  0  0  0  0  0  0  0  0  0  0
    1.9270   11.9290  -28.5070 C   0  0  0  0  0  0  0  0  0  0  0  0
    1.9120   11.8410  -30.0560 C   0  0  0  0  0  0  0  0  0  0  0  0
    2.8510   12.8120  -30.7920 C   0  0  0  0  0  0  0  0  0  0  0  0
    2.2710   14.2210  -31.0150 C   0  0  0  0  0  0  0  0  0  0  0  0
    2.0330   15.0480  -29.7460 C   0  0  0  0  0  0  0  0  0  0  0  0
    2.5800   18.3600  -27.4890 C   0  0  0  0  0  0  0  0  0  0  0  0
    1.7960   19.5030  -27.6720 C   0  0  0  0  0  0  0  0  0  0  0  0
   -2.0080   21.9640  -29.5320 C   0  0  0  0  0  0  0  0  0  0  0  0
   -1.3770   23.1730  -29.1970 C   0  0  0  0  0  0  0  0  0  0  0  0
   -2.0060   24.3940  -29.4480 C   0  0  0  0  0  0  0  0  0  0  0  0
   -3.2790   24.4290  -30.0180 C   0  0  0  0  0  0  0  0  0  0  0  0
   -3.8590   25.6650  -30.2820 O   0  0  0  0  0  0  0  0  0  0  0  0
   -3.9520   23.2270  -30.3260 C   0  0  0  0  0  0  0  0  0  0  0  0
   -5.5740   23.2510  -31.0650 S   0  0  0  0  0  0  0  0  0  0  0  0
   -5.5110   24.0910  -32.3140 O   0  0  0  0  0  0  0  0  0  0  0  0
   -6.5440   23.8970  -30.1130 O   0  0  0  0  0  0  0  0  0  0  0  0
   -6.2220   21.6700  -31.4480 N   0  0  0  0  0  0  0  0  0  0  0  0
   -7.6990   21.6540  -31.4480 C   0  0  0  0  0  0  0  0  0  0  0  0
   -8.2470   20.4700  -32.2620 C   0  0  0  0  0  0  0  0  0  0  0  0
   -7.3460   19.3820  -32.1930 O   0  0  0  0  0  0  0  0  0  0  0  0
   -6.1570   19.6810  -32.9120 C   0  0  0  0  0  0  0  0  0  0  0  0
   -5.6400   21.1200  -32.6810 C   0  0  0  0  0  0  0  0  0  0  0  0
   -3.2950   22.0060  -30.0990 C   0  0  0  0  0  0  0  0  0  0  0  0
   -0.2160   21.3630  -27.5330 H   0  0  0  0  0  0  0  0  0  0  0  0
   -1.2081   18.0027  -28.3277 H   0  0  0  0  0  0  0  0  0  0  0  0
    0.1862   15.9664  -27.9793 H   0  0  0  0  0  0  0  0  0  0  0  0
    2.0099   13.2959  -26.8431 H   0  0  0  0  0  0  0  0  0  0  0  0
    0.7104   13.6284  -28.1084 H   0  0  0  0  0  0  0  0  0  0  0  0
    2.8900   11.5300  -28.1556 H   0  0  0  0  0  0  0  0  0  0  0  0
    1.0533   11.3538  -28.1666 H   0  0  0  0  0  0  0  0  0  0  0  0
    2.1972   10.8168  -30.3384 H   0  0  0  0  0  0  0  0  0  0  0  0
    0.8933   12.1226  -30.3608 H   0  0  0  0  0  0  0  0  0  0  0  0
    3.7738   12.9105  -30.2014 H   0  0  0  0  0  0  0  0  0  0  0  0
    3.0210   12.3837  -31.7908 H   0  0  0  0  0  0  0  0  0  0  0  0
    2.9710   14.7777  -31.6554 H   0  0  0  0  0  0  0  0  0  0  0  0
    1.2792   14.0702  -31.4662 H   0  0  0  0  0  0  0  0  0  0  0  0
    2.5067   16.0324  -29.8743 H   0  0  0  0  0  0  0  0  0  0  0  0
    0.9453   15.1331  -29.6059 H   0  0  0  0  0  0  0  0  0  0  0  0
    3.6524   18.4608  -27.2658 H   0  0  0  0  0  0  0  0  0  0  0  0
    2.2558   20.4997  -27.6004 H   0  0  0  0  0  0  0  0  0  0  0  0
   -0.3796   23.1580  -28.7333 H   0  0  0  0  0  0  0  0  0  0  0  0
   -1.4946   25.3344  -29.1947 H   0  0  0  0  0  0  0  0  0  0  0  0
   -8.0561   21.5711  -30.4109 H   0  0  0  0  0  0  0  0  0  0  0  0
   -8.0554   22.5864  -31.9101 H   0  0  0  0  0  0  0  0  0  0  0  0
   -9.2206   20.1642  -31.8513 H   0  0  0  0  0  0  0  0  0  0  0  0
   -8.3665   20.7760  -33.3118 H   0  0  0  0  0  0  0  0  0  0  0  0
   -5.3738   18.9753  -32.5980 H   0  0  0  0  0  0  0  0  0  0  0  0
   -6.3956   19.5915  -33.9821 H   0  0  0  0  0  0  0  0  0  0  0  0
   -4.5438   21.1035  -32.5909 H   0  0  0  0  0  0  0  0  0  0  0  0
   -5.9341   21.7511  -33.5326 H   0  0  0  0  0  0  0  0  0  0  0  0
   -3.7963   21.0650  -30.3697 H   0  0  0  0  0  0  0  0  0  0  0  0
  1  2  2  0
  2  3  1  0
  3  4  1  0
  4  5  2  0
  5  6  1  0
  6  7  2  0
  7  8  1  0
  8  9  2  0
  8 10  2  0
  8 11  1  0
 11 12  1  0
 12 13  1  0
 13 14  1  0
 14 15  1  0
 15 16  1  0
 16 17  1  0
  7 18  1  0
 18 19  2  0
  2 20  1  0
 20 21  2  0
 21 22  1  0
 22 23  2  0
 23 24  1  0
 23 25  1  0
 25 26  1  0
 26 27  2  0
 26 28  2  0
 26 29  1  0
 29 30  1  0
 30 31  1  0
 31 32  1  0
 32 33  1  0
 33 34  1  0
 25 35  2  0
 19  4  1  0
 35 20  1  0
 17 11  1  0
 34 29  1  0
  3 36  1  0
  5 37  1  0
  6 38  1  0
 12 39  1  0
 12 40  1  0
 13 41  1  0
 13 42  1  0
 14 43  1  0
 14 44  1  0
 15 45  1  0
 15 46  1  0
 16 47  1  0
 16 48  1  0
 17 49  1  0
 17 50  1  0
 18 51  1  0
 19 52  1  0
 21 53  1  0
 22 54  1  0
 30 55  1  0
 30 56  1  0
 31 57  1  0
 31 58  1  0
 33 59  1  0
 33 60  1  0
 34 61  1  0
 34 62  1  0
 35 63  1  0
M  CHG  1  24  -1
M  END
>  <UniqueID>  (5) 
5

>  <SMILES>  (5) 
O=C(Nc1ccc(S(=O)(=O)N2CCCCCC2)cc1)c1ccc([O-])c(S(=O)(=O)N2CCOCC2)c1

>  <Energy>  (5) 
96.67670400590546

>  <Genealogy>  (5) 
O=C(Nc1ccc(S(=O)(=O)N2CCCCCC2)cc1)c1ccc([O-])c(S(=O)(=O)N2CCOCC2)c1 (protonated)
O=C(Nc1ccc(S(=O)(=O)N2CCCCCC2)cc1)c1ccc([O-])c(S(=O)(=O)N2CCOCC2)c1 (3D coordinates assigned)
O=C(Nc1ccc(S(=O)(=O)N2CCCCCC2)cc1)c1ccc([O-])c(S(=O)(=O)N2CCOCC2)c1 (nonaromatic ring conformer: 96.67670400590546 kcal/mol)

>  <smiles>  (5) 
O=C(Nc1ccc(S(=O)(=O)N2CCCCCC2)cc1)c1ccc(O)c(S(=O)(=O)N2CCOCC2)c1

>  <score_type>  (5) 
oracle

>  <origin>  (5) 
adgpu

>  <m_score__min__energy>  (5) 
-8.4199999999999999

>  <m_primary>  (5) 
energy

$$$$
5:0
     RDKit          3D

 59 62  0  0  0  0  0  0  0  0999 V2000
   -5.5700   19.0710  -33.9310 C   0  0  0  0  0  0  0  0  0  0  0  0
   -5.4170   20.3950  -33.2500 C   0  0  0  0  0  0  0  0  0  0  0  0
   -4.4260   21.1160  -33.5420 O   0  0  0  0  0  0  0  0  0  0  0  0
   -6.4200   20.8800  -32.3310 N   0  0  0  0  0  0  0  0  0  0  0  0
   -7.7320   20.2010  -32.3360 C   0  0  0  0  0  0  0  0  0  0  0  0
   -8.7020   20.7800  -31.3020 C   0  0  0  0  0  0  0  0  0  0  0  0
   -8.7420   22.3030  -31.3980 C   0  0  0  0  0  0  0  0  0  0  0  0
   -7.3650   22.8590  -31.1760 C   0  0  0  0  0  0  0  0  0  0  0  0
   -7.2020   24.1020  -30.5480 C   0  0  0  0  0  0  0  0  0  0  0  0
   -5.9210   24.6220  -30.3310 C   0  0  0  0  0  0  0  0  0  0  0  0
   -5.7580   25.8650  -29.7200 O   0  0  0  0  0  0  0  0  0  0  0  0
   -4.7980   23.8910  -30.7330 C   0  0  0  0  0  0  0  0  0  0  0  0
   -3.4900   24.4390  -30.5710 N   0  0  0  0  0  0  0  0  0  0  0  0
   -2.6560   24.2880  -29.0610 S   0  0  0  0  0  0  0  0  0  0  0  0
   -1.3420   25.0110  -29.1330 O   0  0  0  0  0  0  0  0  0  0  0  0
   -3.4940   24.9050  -27.9780 O   0  0  0  0  0  0  0  0  0  0  0  0
   -2.3780   22.5840  -28.6990 C   0  0  0  0  0  0  0  0  0  0  0  0
   -3.1140   21.9310  -27.7010 C   0  0  0  0  0  0  0  0  0  0  0  0
   -2.9130   20.5690  -27.4590 C   0  0  0  0  0  0  0  0  0  0  0  0
   -1.9900   19.8490  -28.2220 C   0  0  0  0  0  0  0  0  0  0  0  0
   -1.2580   20.4920  -29.2310 C   0  0  0  0  0  0  0  0  0  0  0  0
   -0.1320   19.5810  -30.2400 S   0  0  0  0  0  0  0  0  0  0  0  0
    1.2700   20.0480  -29.9670 O   0  0  0  0  0  0  0  0  0  0  0  0
   -0.2160   18.1240  -29.8750 O   0  0  0  0  0  0  0  0  0  0  0  0
   -0.4940   19.7710  -31.9380 N   0  0  0  0  0  0  0  0  0  0  0  0
   -0.2700   21.1710  -32.3520 C   0  0  0  0  0  0  0  0  0  0  0  0
   -0.8280   21.4640  -33.7630 C   0  0  0  0  0  0  0  0  0  0  0  0
   -1.1490   20.1760  -34.5270 C   0  0  0  0  0  0  0  0  0  0  0  0
   -2.1240   19.2900  -33.7340 C   0  0  0  0  0  0  0  0  0  0  0  0
   -1.8780   19.3570  -32.2150 C   0  0  0  0  0  0  0  0  0  0  0  0
   -1.4430   21.8620  -29.4530 C   0  0  0  0  0  0  0  0  0  0  0  0
   -4.9550   22.6520  -31.3620 C   0  0  0  0  0  0  0  0  0  0  0  0
   -6.2400   22.1410  -31.6340 C   0  0  0  0  0  0  0  0  0  0  0  0
   -5.6617   18.2779  -33.1743 H   0  0  0  0  0  0  0  0  0  0  0  0
   -6.4726   19.0841  -34.5596 H   0  0  0  0  0  0  0  0  0  0  0  0
   -4.6882   18.8779  -34.5596 H   0  0  0  0  0  0  0  0  0  0  0  0
   -8.1790   20.3067  -33.3355 H   0  0  0  0  0  0  0  0  0  0  0  0
   -7.5607   19.1460  -32.0761 H   0  0  0  0  0  0  0  0  0  0  0  0
   -9.7096   20.3793  -31.4872 H   0  0  0  0  0  0  0  0  0  0  0  0
   -8.3593   20.4966  -30.2959 H   0  0  0  0  0  0  0  0  0  0  0  0
   -9.0990   22.5975  -32.3959 H   0  0  0  0  0  0  0  0  0  0  0  0
   -9.4235   22.6992  -30.6308 H   0  0  0  0  0  0  0  0  0  0  0  0
   -8.0857   24.6714  -30.2242 H   0  0  0  0  0  0  0  0  0  0  0  0
   -5.0500   26.0170  -29.0110 H   0  0  0  0  0  0  0  0  0  0  0  0
   -3.8511   22.4912  -27.1071 H   0  0  0  0  0  0  0  0  0  0  0  0
   -3.4829   20.0627  -26.6659 H   0  0  0  0  0  0  0  0  0  0  0  0
   -1.8373   18.7765  -28.0311 H   0  0  0  0  0  0  0  0  0  0  0  0
   -0.7664   21.8366  -31.6305 H   0  0  0  0  0  0  0  0  0  0  0  0
    0.8161   21.3436  -32.3781 H   0  0  0  0  0  0  0  0  0  0  0  0
   -1.7482   22.0587  -33.6655 H   0  0  0  0  0  0  0  0  0  0  0  0
   -0.0598   22.0134  -34.3270 H   0  0  0  0  0  0  0  0  0  0  0  0
   -1.6050   20.4359  -35.4937 H   0  0  0  0  0  0  0  0  0  0  0  0
   -0.2136   19.6173  -34.6783 H   0  0  0  0  0  0  0  0  0  0  0  0
   -3.1517   19.6238  -33.9402 H   0  0  0  0  0  0  0  0  0  0  0  0
   -1.9657   18.2493  -34.0531 H   0  0  0  0  0  0  0  0  0  0  0  0
   -2.5706   20.0849  -31.7673 H   0  0  0  0  0  0  0  0  0  0  0  0
   -2.0459   18.3599  -31.7818 H   0  0  0  0  0  0  0  0  0  0  0  0
   -0.8503   22.3752  -30.2246 H   0  0  0  0  0  0  0  0  0  0  0  0
   -4.0663   22.0701  -31.6475 H   0  0  0  0  0  0  0  0  0  0  0  0
  1  2  1  0
  2  3  2  0
  2  4  1  0
  4  5  1  0
  5  6  1  0
  6  7  1  0
  7  8  1  0
  8  9  2  0
  9 10  1  0
 10 11  1  0
 10 12  2  0
 12 13  1  0
 13 14  1  0
 14 15  2  0
 14 16  2  0
 14 17  1  0
 17 18  2  0
 18 19  1  0
 19 20  2  0
 20 21  1  0
 21 22  1  0
 22 23  2  0
 22 24  2  0
 22 25  1  0
 25 26  1  0
 26 27  1  0
 27 28  1  0
 28 29  1  0
 29 30  1  0
 21 31  2  0
 12 32  1  0
 32 33  2  0
 33  4  1  0
 33  8  1  0
 31 17  1  0
 30 25  1  0
  1 34  1  0
  1 35  1  0
  1 36  1  0
  5 37  1  0
  5 38  1  0
  6 39  1  0
  6 40  1  0
  7 41  1  0
  7 42  1  0
  9 43  1  0
 11 44  1  0
 18 45  1  0
 19 46  1  0
 20 47  1  0
 26 48  1  0
 26 49  1  0
 27 50  1  0
 27 51  1  0
 28 52  1  0
 28 53  1  0
 29 54  1  0
 29 55  1  0
 30 56  1  0
 30 57  1  0
 31 58  1  0
 32 59  1  0
M  CHG  1  13  -1
M  END
>  <UniqueID>  (6) 
6

>  <SMILES>  (6) 
CC(=O)N1CCCc2cc(O)c([N-]S(=O)(=O)c3cccc(S(=O)(=O)N4CCCCC4)c3)cc21

>  <Energy>  (6) 
74.13304707328938

>  <Genealogy>  (6) 
CC(=O)N1CCCc2cc(O)c([N-]S(=O)(=O)c3cccc(S(=O)(=O)N4CCCCC4)c3)cc21 (protonated)
CC(=O)N1CCCc2cc(O)c([N-]S(=O)(=O)c3cccc(S(=O)(=O)N4CCCCC4)c3)cc21 (3D coordinates assigned)
CC(=O)N1CCCc2cc(O)c([N-]S(=O)(=O)c3cccc(S(=O)(=O)N4CCCCC4)c3)cc21 (nonaromatic ring conformer: 74.13304707328938 kcal/mol)

>  <smiles>  (6) 
CC(=O)N1CCCc2cc(O)c(NS(=O)(=O)c3cccc(S(=O)(=O)N4CCCCC4)c3)cc21

>  <score_type>  (6) 
oracle

>  <origin>  (6) 
adgpu

>  <m_score__min__energy>  (6) 
-11.73

>  <m_primary>  (6) 
energy

$$$$
6:0
     RDKit          3D

 47 49  0  0  0  0  0  0  0  0999 V2000
   -6.5040   17.6880  -32.8360 C   0  0  0  0  0  0  0  0  0  0  0  0
   -6.6270   19.0570  -33.4280 C   0  0  0  0  0  0  0  0  0  0  0  0
   -6.0440   19.3070  -34.5170 O   0  0  0  0  0  0  0  0  0  0  0  0
   -7.4460   20.0670  -32.8100 N   0  0  0  0  0  0  0  0  0  0  0  0
   -8.8830   19.7670  -32.6900 C   0  0  0  0  0  0  0  0  0  0  0  0
   -9.6870   20.9700  -32.1880 C   0  0  0  0  0  0  0  0  0  0  0  0
   -9.0500   21.5470  -30.9260 C   0  0  0  0  0  0  0  0  0  0  0  0
   -7.6280   21.9450  -31.2040 C   0  0  0  0  0  0  0  0  0  0  0  0
   -7.0560   23.0280  -30.5200 C   0  0  0  0  0  0  0  0  0  0  0  0
   -5.7410   23.4240  -30.7900 C   0  0  0  0  0  0  0  0  0  0  0  0
   -5.0340   24.7740  -29.9060 S   0  0  0  0  0  0  0  0  0  0  0  0
   -6.1450   25.6160  -29.3420 O   0  0  0  0  0  0  0  0  0  0  0  0
   -4.2150   25.6240  -30.8370 O   0  0  0  0  0  0  0  0  0  0  0  0
   -4.0330   24.1740  -28.6070 N   0  0  0  0  0  0  0  0  0  0  0  0
   -4.2770   22.7280  -28.4080 C   0  0  0  0  0  0  0  0  0  0  0  0
   -3.1300   22.0650  -27.6390 C   0  0  0  0  0  0  0  0  0  0  0  0
   -1.8150   22.1370  -28.4510 C   0  0  0  0  0  0  0  0  0  0  0  0
   -0.6020   22.1020  -27.5120 C   0  0  0  0  0  0  0  0  0  0  0  0
   -1.7730   23.3730  -29.3830 C   0  0  0  0  0  0  0  0  0  0  0  0
   -2.6090   24.5340  -28.8210 C   0  0  0  0  0  0  0  0  0  0  0  0
   -4.9940   22.7290  -31.7470 C   0  0  0  0  0  0  0  0  0  0  0  0
   -5.5490   21.6380  -32.4190 C   0  0  0  0  0  0  0  0  0  0  0  0
   -6.8590   21.2080  -32.1310 C   0  0  0  0  0  0  0  0  0  0  0  0
   -6.5106   17.7612  -31.7385 H   0  0  0  0  0  0  0  0  0  0  0  0
   -7.3501   17.0679  -33.1672 H   0  0  0  0  0  0  0  0  0  0  0  0
   -5.5610   17.2287  -33.1672 H   0  0  0  0  0  0  0  0  0  0  0  0
   -9.2667   19.4722  -33.6779 H   0  0  0  0  0  0  0  0  0  0  0  0
   -8.9976   18.9553  -31.9565 H   0  0  0  0  0  0  0  0  0  0  0  0
   -9.7078   21.7437  -32.9697 H   0  0  0  0  0  0  0  0  0  0  0  0
  -10.7104   20.6422  -31.9531 H   0  0  0  0  0  0  0  0  0  0  0  0
   -9.6190   22.4309  -30.6022 H   0  0  0  0  0  0  0  0  0  0  0  0
   -9.0631   20.7841  -30.1337 H   0  0  0  0  0  0  0  0  0  0  0  0
   -7.6454   23.5700  -29.7658 H   0  0  0  0  0  0  0  0  0  0  0  0
   -5.2101   22.5979  -27.8402 H   0  0  0  0  0  0  0  0  0  0  0  0
   -4.3502   22.2514  -29.3967 H   0  0  0  0  0  0  0  0  0  0  0  0
   -2.9909   22.5842  -26.6793 H   0  0  0  0  0  0  0  0  0  0  0  0
   -3.3829   21.0083  -27.4675 H   0  0  0  0  0  0  0  0  0  0  0  0
   -1.7758   21.2508  -29.1015 H   0  0  0  0  0  0  0  0  0  0  0  0
   -0.9465   22.1119  -26.4674 H   0  0  0  0  0  0  0  0  0  0  0  0
   -0.0208   21.1867  -27.6977 H   0  0  0  0  0  0  0  0  0  0  0  0
    0.0310   22.9823  -27.6977 H   0  0  0  0  0  0  0  0  0  0  0  0
   -0.7294   23.7038  -29.4904 H   0  0  0  0  0  0  0  0  0  0  0  0
   -2.1958   23.0843  -30.3566 H   0  0  0  0  0  0  0  0  0  0  0  0
   -2.1770   24.8426  -27.8576 H   0  0  0  0  0  0  0  0  0  0  0  0
   -2.5832   25.3464  -29.5621 H   0  0  0  0  0  0  0  0  0  0  0  0
   -3.9641   23.0436  -31.9713 H   0  0  0  0  0  0  0  0  0  0  0  0
   -4.9573   21.1092  -33.1808 H   0  0  0  0  0  0  0  0  0  0  0  0
  1  2  1  0
  2  3  2  0
  2  4  1  0
  4  5  1  0
  5  6  1  0
  6  7  1  0
  7  8  1  0
  8  9  2  0
  9 10  1  0
 10 11  1  0
 11 12  2  0
 11 13  2  0
 11 14  1  0
 14 15  1  0
 15 16  1  0
 16 17  1  0
 17 18  1  0
 17 19  1  0
 19 20  1  0
 10 21  2  0
 21 22  1  0
 22 23  2  0
 23  4  1  0
 23  8  1  0
 20 14  1  0
  1 24  1  0
  1 25  1  0
  1 26  1  0
  5 27  1  0
  5 28  1  0
  6 29  1  0
  6 30  1  0
  7 31  1  0
  7 32  1  0
  9 33  1  0
 15 34  1  0
 15 35  1  0
 16 36  1  0
 16 37  1  0
 17 38  1  0
 18 39  1  0
 18 40  1  0
 18 41  1  0
 19 42  1  0
 19 43  1  0
 20 44  1  0
 20 45  1  0
 21 46  1  0
 22 47  1  0
M  END
>  <UniqueID>  (7) 
7

>  <SMILES>  (7) 
CC(=O)N1CCCc2cc(S(=O)(=O)N3CCC(C)CC3)ccc21

>  <Energy>  (7) 
56.66590984085535

>  <Genealogy>  (7) 
CC(=O)N1CCCc2cc(S(=O)(=O)N3CCC(C)CC3)ccc21 (3D coordinates assigned)
CC(=O)N1CCCc2cc(S(=O)(=O)N3CCC(C)CC3)ccc21 (nonaromatic ring conformer: 56.66590984085535 kcal/mol)

>  <smiles>  (7) 
CC(=O)N1CCCc2cc(S(=O)(=O)N3CCC(C)CC3)ccc21

>  <score_type>  (7) 
oracle

>  <origin>  (7) 
adgpu

>  <m_score__min__energy>  (7) 
-9.7799999999999994

>  <m_primary>  (7) 
energy

$$$$
7:0
     RDKit          3D

 58 60  0  0  0  0  0  0  0  0999 V2000
   -7.1490   17.2900  -32.8300 C   0  0  0  0  0  0  0  0  0  0  0  0
   -6.0120   16.5770  -33.4260 N   0  0  0  0  0  0  0  0  0  0  0  0
   -5.1730   16.0010  -32.3670 C   0  0  0  0  0  0  0  0  0  0  0  0
   -5.0580   17.6870  -34.3780 S   0  0  0  0  0  0  0  0  0  0  0  0
   -5.7500   17.9640  -35.6820 O   0  0  0  0  0  0  0  0  0  0  0  0
   -3.7070   17.0900  -34.6690 O   0  0  0  0  0  0  0  0  0  0  0  0
   -4.8670   19.2090  -33.5100 C   0  0  0  0  0  0  0  0  0  0  0  0
   -5.9490   20.0930  -33.4110 C   0  0  0  0  0  0  0  0  0  0  0  0
   -5.8150   21.2980  -32.7140 C   0  0  0  0  0  0  0  0  0  0  0  0
   -4.5910   21.6390  -32.1080 C   0  0  0  0  0  0  0  0  0  0  0  0
   -4.4360   22.9100  -31.3590 C   0  0  0  0  0  0  0  0  0  0  0  0
   -5.0240   23.9440  -31.7770 O   0  0  0  0  0  0  0  0  0  0  0  0
   -3.6410   22.9690  -30.1600 N   0  0  0  0  0  0  0  0  0  0  0  0
   -3.2520   24.1990  -29.5190 C   0  0  0  0  0  0  0  0  0  0  0  0
   -3.7540   25.2930  -29.8990 O   0  0  0  0  0  0  0  0  0  0  0  0
   -2.2690   24.2070  -28.4070 C   0  0  0  0  0  0  0  0  0  0  0  0
   -1.2790   25.2060  -28.3510 C   0  0  0  0  0  0  0  0  0  0  0  0
   -0.3330   25.2120  -27.3220 C   0  0  0  0  0  0  0  0  0  0  0  0
   -0.3560   24.2210  -26.3340 C   0  0  0  0  0  0  0  0  0  0  0  0
    0.8340   24.2210  -25.0340 S   0  0  0  0  0  0  0  0  0  0  0  0
    2.2220   24.2380  -25.6140 O   0  0  0  0  0  0  0  0  0  0  0  0
    0.6690   22.9580  -24.2330 O   0  0  0  0  0  0  0  0  0  0  0  0
    0.5970   25.6130  -24.0010 N   0  0  0  0  0  0  0  0  0  0  0  0
    1.4660   26.7250  -24.4600 C   0  0  0  0  0  0  0  0  0  0  0  0
    0.9600   28.0840  -23.9600 C   0  0  0  0  0  0  0  0  0  0  0  0
   -0.4400   28.3900  -24.5210 C   0  0  0  0  0  0  0  0  0  0  0  0
   -1.2440   27.1180  -24.8380 C   0  0  0  0  0  0  0  0  0  0  0  0
   -0.8470   25.9640  -23.9040 C   0  0  0  0  0  0  0  0  0  0  0  0
   -1.3370   23.2240  -26.3820 C   0  0  0  0  0  0  0  0  0  0  0  0
   -2.2820   23.2100  -27.4130 C   0  0  0  0  0  0  0  0  0  0  0  0
   -3.5160   20.7360  -32.1930 C   0  0  0  0  0  0  0  0  0  0  0  0
   -3.6520   19.5330  -32.8910 C   0  0  0  0  0  0  0  0  0  0  0  0
   -7.0763   17.2444  -31.7334 H   0  0  0  0  0  0  0  0  0  0  0  0
   -7.1340   18.3408  -33.1551 H   0  0  0  0  0  0  0  0  0  0  0  0
   -8.0884   16.8189  -33.1551 H   0  0  0  0  0  0  0  0  0  0  0  0
   -5.5800   16.2804  -31.3840 H   0  0  0  0  0  0  0  0  0  0  0  0
   -5.1636   14.9051  -32.4619 H   0  0  0  0  0  0  0  0  0  0  0  0
   -4.1470   16.3860  -32.4619 H   0  0  0  0  0  0  0  0  0  0  0  0
   -6.9089   19.8381  -33.8839 H   0  0  0  0  0  0  0  0  0  0  0  0
   -6.6717   21.9839  -32.6388 H   0  0  0  0  0  0  0  0  0  0  0  0
   -3.3910   22.0680  -29.6940 H   0  0  0  0  0  0  0  0  0  0  0  0
   -1.2495   25.9885  -29.1235 H   0  0  0  0  0  0  0  0  0  0  0  0
    0.4338   26.0000  -27.2886 H   0  0  0  0  0  0  0  0  0  0  0  0
    0.9200   25.3290  -23.0460 H   0  0  0  0  0  0  0  0  0  0  0  0
    2.4849   26.5618  -24.0789 H   0  0  0  0  0  0  0  0  0  0  0  0
    1.4539   26.7381  -25.5599 H   0  0  0  0  0  0  0  0  0  0  0  0
    0.9119   28.0681  -22.8612 H   0  0  0  0  0  0  0  0  0  0  0  0
    1.6542   28.8651  -24.3034 H   0  0  0  0  0  0  0  0  0  0  0  0
   -0.9953   28.9811  -23.7779 H   0  0  0  0  0  0  0  0  0  0  0  0
   -0.3068   28.9420  -25.4631 H   0  0  0  0  0  0  0  0  0  0  0  0
   -2.3159   27.3299  -24.7113 H   0  0  0  0  0  0  0  0  0  0  0  0
   -1.0284   26.8182  -25.8741 H   0  0  0  0  0  0  0  0  0  0  0  0
   -1.0680   26.2589  -22.8676 H   0  0  0  0  0  0  0  0  0  0  0  0
   -1.4240   25.0784  -24.2085 H   0  0  0  0  0  0  0  0  0  0  0  0
   -1.3650   22.4467  -25.6042 H   0  0  0  0  0  0  0  0  0  0  0  0
   -3.0408   22.4144  -27.4475 H   0  0  0  0  0  0  0  0  0  0  0  0
   -2.5601   20.9788  -31.7059 H   0  0  0  0  0  0  0  0  0  0  0  0
   -2.8021   18.8376  -32.9549 H   0  0  0  0  0  0  0  0  0  0  0  0
  1  2  1  0
  2  3  1  0
  2  4  1  0
  4  5  2  0
  4  6  2  0
  4  7  1  0
  7  8  2  0
  8  9  1  0
  9 10  2  0
 10 11  1  0
 11 12  2  0
 11 13  1  0
 13 14  1  0
 14 15  2  0
 14 16  1  0
 16 17  2  0
 17 18  1  0
 18 19  2  0
 19 20  1  0
 20 21  2  0
 20 22  2  0
 20 23  1  0
 23 24  1  0
 24 25  1  0
 25 26  1  0
 26 27  1  0
 27 28  1  0
 19 29  1  0
 29 30  2  0
 10 31  1  0
 31 32  2  0
 32  7  1  0
 30 16  1  0
 28 23  1  0
  1 33  1  0
  1 34  1  0
  1 35  1  0
  3 36  1  0
  3 37  1  0
  3 38  1  0
  8 39  1  0
  9 40  1  0
 13 41  1  0
 17 42  1  0
 18 43  1  0
 23 44  1  0
 24 45  1  0
 24 46  1  0
 25 47  1  0
 25 48  1  0
 26 49  1  0
 26 50  1  0
 27 51  1  0
 27 52  1  0
 28 53  1  0
 28 54  1  0
 29 55  1  0
 30 56  1  0
 31 57  1  0
 32 58  1  0
M  CHG  1  23   1
M  END
>  <UniqueID>  (8) 
8

>  <SMILES>  (8) 
CN(C)S(=O)(=O)c1ccc(C(=O)NC(=O)c2ccc(S(=O)(=O)[NH+]3CCCCC3)cc2)cc1

>  <Energy>  (8) 
67.51956170817586

>  <Genealogy>  (8) 
CN(C)S(=O)(=O)c1ccc(C(=O)NC(=O)c2ccc(S(=O)(=O)[NH+]3CCCCC3)cc2)cc1 (protonated)
CN(C)S(=O)(=O)c1ccc(C(=O)NC(=O)c2ccc(S(=O)(=O)[NH+]3CCCCC3)cc2)cc1 (3D coordinates assigned)
CN(C)S(=O)(=O)c1ccc(C(=O)NC(=O)c2ccc(S(=O)(=O)[NH+]3CCCCC3)cc2)cc1 (nonaromatic ring conformer: 67.51956170817586 kcal/mol)

>  <smiles>  (8) 
CN(C)S(=O)(=O)c1ccc(C(=O)NC(=O)c2ccc(S(=O)(=O)N3CCCCC3)cc2)cc1

>  <score_type>  (8) 
oracle

>  <origin>  (8) 
adgpu

>  <m_score__min__energy>  (8) 
-10.460000000000001

>  <m_primary>  (8) 
energy

$$$$
8:0
     RDKit          3D

 29 30  0  0  0  0  0  0  0  0999 V2000
   -5.1570   15.8700  -35.1700 H   0  0  0  0  0  0  0  0  0  0  0  0
   -4.8810   16.8310  -35.0040 O   0  0  0  0  0  0  0  0  0  0  0  0
   -5.6120   17.6630  -34.1580 C   0  0  0  0  0  0  0  0  0  0  0  0
   -5.1720   18.9670  -33.8880 C   0  0  0  0  0  0  0  0  0  0  0  0
   -4.2411   19.3342  -34.3448 H   0  0  0  0  0  0  0  0  0  0  0  0
   -5.9130   19.8110  -33.0360 C   0  0  0  0  0  0  0  0  0  0  0  0
   -5.4870   21.1940  -32.7080 C   0  0  0  0  0  0  0  0  0  0  0  0
   -5.6274   21.9737  -33.4711 H   0  0  0  0  0  0  0  0  0  0  0  0
   -4.9410   21.5490  -31.5360 C   0  0  0  0  0  0  0  0  0  0  0  0
   -4.7940   20.7755  -30.7678 H   0  0  0  0  0  0  0  0  0  0  0  0
   -4.5280   22.9360  -31.2320 C   0  0  0  0  0  0  0  0  0  0  0  0
   -5.2720   23.8760  -31.6230 O   0  0  0  0  0  0  0  0  0  0  0  0
   -3.2990   23.2640  -30.4690 C   0  0  0  0  0  0  0  0  0  0  0  0
   -2.4170   22.2390  -30.0790 C   0  0  0  0  0  0  0  0  0  0  0  0
   -2.6319   21.1972  -30.3593 H   0  0  0  0  0  0  0  0  0  0  0  0
   -1.2700   22.5360  -29.3380 C   0  0  0  0  0  0  0  0  0  0  0  0
   -0.5821   21.7293  -29.0447 H   0  0  0  0  0  0  0  0  0  0  0  0
   -0.9950   23.8540  -28.9690 C   0  0  0  0  0  0  0  0  0  0  0  0
    0.1470   24.1410  -28.2310 O   0  0  0  0  0  0  0  0  0  0  0  0
   -1.8700   24.8820  -29.3390 C   0  0  0  0  0  0  0  0  0  0  0  0
   -1.5960   26.1940  -28.9680 O   0  0  0  0  0  0  0  0  0  0  0  0
   -3.0210   24.5910  -30.0850 C   0  0  0  0  0  0  0  0  0  0  0  0
   -3.8760   25.6270  -30.4510 O   0  0  0  0  0  0  0  0  0  0  0  0
   -7.0860   19.3130  -32.4420 C   0  0  0  0  0  0  0  0  0  0  0  0
   -7.6635   19.9513  -31.7571 H   0  0  0  0  0  0  0  0  0  0  0  0
   -7.5250   18.0140  -32.7140 C   0  0  0  0  0  0  0  0  0  0  0  0
   -8.4498   17.6391  -32.2512 H   0  0  0  0  0  0  0  0  0  0  0  0
   -6.7920   17.1910  -33.5720 C   0  0  0  0  0  0  0  0  0  0  0  0
   -7.2360   15.9010  -33.8380 O   0  0  0  0  0  0  0  0  0  0  0  0
  1  2  1  0
  2  3  1  0
  3  4  2  0
  4  5  1  0
  4  6  1  0
  6  7  1  0
  7  8  1  0
  7  9  2  0
  9 10  1  0
  9 11  1  0
 11 12  2  0
 11 13  1  0
 13 14  2  0
 14 15  1  0
 14 16  1  0
 16 17  1  0
 16 18  2  0
 18 19  1  0
 18 20  1  0
 20 21  1  0
 20 22  2  0
 22 23  1  0
  6 24  2  0
 24 25  1  0
 24 26  1  0
 26 27  1  0
 26 28  2  0
 28 29  1  0
 28  3  1  0
 22 13  1  0
M  CHG  4  19  -1  21  -1  23  -1  29  -1
M  END
>  <UniqueID>  (9) 
9

>  <SMILES>  (9) 
O=C(/C=C/c1ccc([O-])c(O)c1)c1ccc([O-])c([O-])c1[O-]

>  <Energy>  (9) 
38.78256871710177

>  <Genealogy>  (9) 
O=C(C=Cc1ccc([O-])c(O)c1)c1ccc([O-])c([O-])c1[O-] (protonated)
O=C(/C=C/c1ccc([O-])c(O)c1)c1ccc([O-])c([O-])c1[O-] (cis-trans isomerization)
O=C(/C=C/c1ccc([O-])c(O)c1)c1ccc([O-])c([O-])c1[O-] (3D coordinates assigned)
O=C(/C=C/c1ccc([O-])c(O)c1)c1ccc([O-])c([O-])c1[O-] (optimized conformer: 38.78256871710177 kcal/mol)

>  <smiles>  (9) 
O=C(C=Cc1ccc(O)c(O)c1)c1ccc(O)c(O)c1O

>  <score_type>  (9) 
oracle

>  <origin>  (9) 
adgpu

>  <m_score__min__energy>  (9) 
-13.58

>  <m_primary>  (9) 
energy

$$$$
9:0
     RDKit          3D

 54 57  0  0  0  0  0  0  0  0999 V2000
   -2.4570   21.9460  -29.7850 O   0  0  0  0  0  0  0  0  0  0  0  0
   -3.0650   22.3450  -30.8150 C   0  0  0  0  0  0  0  0  0  0  0  0
   -2.5390   22.0660  -32.1190 N   0  0  0  0  0  0  0  0  0  0  0  0
   -2.5580   20.8050  -32.8020 C   0  0  0  0  0  0  0  0  0  0  0  0
   -1.3760   20.1180  -33.1340 C   0  0  0  0  0  0  0  0  0  0  0  0
   -1.4420   18.8940  -33.8070 C   0  0  0  0  0  0  0  0  0  0  0  0
   -2.6800   18.3560  -34.1670 C   0  0  0  0  0  0  0  0  0  0  0  0
   -3.8610   19.0470  -33.8700 C   0  0  0  0  0  0  0  0  0  0  0  0
   -5.4180   18.3650  -34.3250 S   0  0  0  0  0  0  0  0  0  0  0  0
   -5.3470   17.8400  -35.7320 O   0  0  0  0  0  0  0  0  0  0  0  0
   -6.4840   19.4220  -34.2560 O   0  0  0  0  0  0  0  0  0  0  0  0
   -5.8050   17.1180  -33.2790 F   0  0  0  0  0  0  0  0  0  0  0  0
   -3.7930   20.2730  -33.1920 C   0  0  0  0  0  0  0  0  0  0  0  0
   -4.3380   23.0900  -30.6680 C   0  0  0  0  0  0  0  0  0  0  0  0
   -5.5380   22.4650  -31.0550 C   0  0  0  0  0  0  0  0  0  0  0  0
   -6.7740   23.0940  -30.8530 C   0  0  0  0  0  0  0  0  0  0  0  0
   -8.2720   22.2890  -31.3330 S   0  0  0  0  0  0  0  0  0  0  0  0
   -9.0200   23.1770  -32.2870 O   0  0  0  0  0  0  0  0  0  0  0  0
   -9.1310   22.0880  -30.1160 O   0  0  0  0  0  0  0  0  0  0  0  0
   -7.9980   20.7410  -32.0960 N   0  0  0  0  0  0  0  0  0  0  0  0
   -7.1990   19.8490  -31.2600 C   0  0  0  0  0  0  0  0  0  0  0  0
   -7.5470   18.4320  -31.6910 C   0  0  0  0  0  0  0  0  0  0  0  0
   -8.8920   18.5460  -32.3960 C   0  0  0  0  0  0  0  0  0  0  0  0
   -9.2450   20.0240  -32.3520 C   0  0  0  0  0  0  0  0  0  0  0  0
   -6.8120   24.3670  -30.2740 C   0  0  0  0  0  0  0  0  0  0  0  0
   -5.6300   25.0080  -29.9040 C   0  0  0  0  0  0  0  0  0  0  0  0
   -4.3910   24.3950  -30.1180 C   0  0  0  0  0  0  0  0  0  0  0  0
   -3.2370   25.1120  -29.7740 O   0  0  0  0  0  0  0  0  0  0  0  0
   -2.3820   24.7890  -28.7090 C   0  0  0  0  0  0  0  0  0  0  0  0
   -1.0210   24.5980  -28.9790 C   0  0  0  0  0  0  0  0  0  0  0  0
   -0.1290   24.2980  -27.9450 C   0  0  0  0  0  0  0  0  0  0  0  0
   -0.5950   24.1720  -26.6330 C   0  0  0  0  0  0  0  0  0  0  0  0
   -1.9540   24.3430  -26.3560 C   0  0  0  0  0  0  0  0  0  0  0  0
   -2.8480   24.6450  -27.3870 C   0  0  0  0  0  0  0  0  0  0  0  0
   -0.3986   20.5443  -32.8638 H   0  0  0  0  0  0  0  0  0  0  0  0
   -0.5164   18.3532  -34.0537 H   0  0  0  0  0  0  0  0  0  0  0  0
   -2.7271   17.3869  -34.6852 H   0  0  0  0  0  0  0  0  0  0  0  0
   -4.7188   20.8218  -32.9645 H   0  0  0  0  0  0  0  0  0  0  0  0
   -5.5054   21.4697  -31.5222 H   0  0  0  0  0  0  0  0  0  0  0  0
   -6.1270   20.0414  -31.4143 H   0  0  0  0  0  0  0  0  0  0  0  0
   -7.4121   20.0052  -30.1922 H   0  0  0  0  0  0  0  0  0  0  0  0
   -6.7834   18.0398  -32.3788 H   0  0  0  0  0  0  0  0  0  0  0  0
   -7.5892   17.7416  -30.8357 H   0  0  0  0  0  0  0  0  0  0  0  0
   -8.8117   18.2000  -33.4371 H   0  0  0  0  0  0  0  0  0  0  0  0
   -9.6617   17.9263  -31.9128 H   0  0  0  0  0  0  0  0  0  0  0  0
   -9.6749   20.3408  -33.3137 H   0  0  0  0  0  0  0  0  0  0  0  0
   -9.9908   20.2317  -31.5706 H   0  0  0  0  0  0  0  0  0  0  0  0
   -7.7791   24.8648  -30.1098 H   0  0  0  0  0  0  0  0  0  0  0  0
   -5.6724   26.0044  -29.4398 H   0  0  0  0  0  0  0  0  0  0  0  0
   -0.6514   24.6846  -30.0114 H   0  0  0  0  0  0  0  0  0  0  0  0
    0.9402   24.1610  -28.1640 H   0  0  0  0  0  0  0  0  0  0  0  0
    0.1075   23.9385  -25.8194 H   0  0  0  0  0  0  0  0  0  0  0  0
   -2.3210   24.2397  -25.3242 H   0  0  0  0  0  0  0  0  0  0  0  0
   -3.9182   24.7706  -27.1659 H   0  0  0  0  0  0  0  0  0  0  0  0
  1  2  2  0
  2  3  1  0
  3  4  1  0
  4  5  2  0
  5  6  1  0
  6  7  2  0
  7  8  1  0
  8  9  1  0
  9 10  2  0
  9 11  2  0
  9 12  1  0
  8 13  2  0
  2 14  1  0
 14 15  2  0
 15 16  1  0
 16 17  1  0
 17 18  2  0
 17 19  2  0
 17 20  1  0
 20 21  1  0
 21 22  1  0
 22 23  1  0
 23 24  1  0
 16 25  2  0
 25 26  1  0
 26 27  2  0
 27 28  1  0
 28 29  1  0
 29 30  2  0
 30 31  1  0
 31 32  2  0
 32 33  1  0
 33 34  2  0
 13  4  1  0
 27 14  1  0
 34 29  1  0
 24 20  1  0
  5 35  1  0
  6 36  1  0
  7 37  1  0
 13 38  1  0
 15 39  1  0
 21 40  1  0
 21 41  1  0
 22 42  1  0
 22 43  1  0
 23 44  1  0
 23 45  1  0
 24 46  1  0
 24 47  1  0
 25 48  1  0
 26 49  1  0
 30 50  1  0
 31 51  1  0
 32 52  1  0
 33 53  1  0
 34 54  1  0
M  CHG  1   3  -1
M  END
>  <UniqueID>  (10) 
10

>  <SMILES>  (10) 
O=C([N-]c1cccc(S(=O)(=O)F)c1)c1cc(S(=O)(=O)N2CCCC2)ccc1Oc1ccccc1

>  <Energy>  (10) 
72.78480929035331

>  <Genealogy>  (10) 
O=C([N-]c1cccc(S(=O)(=O)F)c1)c1cc(S(=O)(=O)N2CCCC2)ccc1Oc1ccccc1 (protonated)
O=C([N-]c1cccc(S(=O)(=O)F)c1)c1cc(S(=O)(=O)N2CCCC2)ccc1Oc1ccccc1 (3D coordinates assigned)
O=C([N-]c1cccc(S(=O)(=O)F)c1)c1cc(S(=O)(=O)N2CCCC2)ccc1Oc1ccccc1 (nonaromatic ring conformer: 72.78480929035331 kcal/mol)

>  <smiles>  (10) 
O=C(Nc1cccc(S(=O)(=O)F)c1)c1cc(S(=O)(=O)N2CCCC2)ccc1Oc1ccccc1

>  <score_type>  (10) 
oracle

>  <origin>  (10) 
adgpu

>  <m_score__min__energy>  (10) 
-11.33

>  <m_primary>  (10) 
energy

$$$$
10:0
     RDKit          3D

 65 68  0  0  0  0  0  0  0  0999 V2000
   -3.8600   25.3240  -30.8180 N   0  0  0  0  0  0  0  0  0  0  0  0
   -5.2890   25.1330  -29.8650 S   0  0  0  0  0  0  0  0  0  0  0  0
   -6.0520   26.4280  -29.8240 O   0  0  0  0  0  0  0  0  0  0  0  0
   -4.8950   24.7530  -28.4640 O   0  0  0  0  0  0  0  0  0  0  0  0
   -6.2990   23.8780  -30.5750 C   0  0  0  0  0  0  0  0  0  0  0  0
   -7.0160   22.9930  -29.7590 C   0  0  0  0  0  0  0  0  0  0  0  0
   -7.8160   22.0020  -30.3320 C   0  0  0  0  0  0  0  0  0  0  0  0
   -7.8950   21.8690  -31.7210 C   0  0  0  0  0  0  0  0  0  0  0  0
   -8.7640   20.8670  -32.2660 N   0  0  0  0  0  0  0  0  0  0  0  0
   -8.5130   19.4570  -32.3220 C   0  0  0  0  0  0  0  0  0  0  0  0
   -9.3850   18.6790  -31.8500 O   0  0  0  0  0  0  0  0  0  0  0  0
   -7.2280   18.9000  -32.8190 C   0  0  0  0  0  0  0  0  0  0  0  0
   -6.5700   19.5150  -33.9000 C   0  0  0  0  0  0  0  0  0  0  0  0
   -5.4100   18.9560  -34.4410 C   0  0  0  0  0  0  0  0  0  0  0  0
   -4.8700   17.7750  -33.9020 C   0  0  0  0  0  0  0  0  0  0  0  0
   -3.7170   17.1700  -34.4300 O   0  0  0  0  0  0  0  0  0  0  0  0
   -3.2860   15.8300  -34.1860 C   0  0  0  0  0  0  0  0  0  0  0  0
   -2.1760   15.7600  -33.1690 C   0  0  0  0  0  0  0  0  0  0  0  0
   -2.1730   14.8090  -32.3450 O   0  0  0  0  0  0  0  0  0  0  0  0
   -1.1130   16.7220  -33.1110 N   0  0  0  0  0  0  0  0  0  0  0  0
   -1.2240   18.1200  -33.3990 C   0  0  0  0  0  0  0  0  0  0  0  0
   -0.3970   18.7390  -34.3510 C   0  0  0  0  0  0  0  0  0  0  0  0
   -0.5060   20.1130  -34.5840 C   0  0  0  0  0  0  0  0  0  0  0  0
   -1.4430   20.8710  -33.8790 C   0  0  0  0  0  0  0  0  0  0  0  0
   -2.2870   20.2560  -32.9450 C   0  0  0  0  0  0  0  0  0  0  0  0
   -3.4610   21.2220  -32.0620 S   0  0  0  0  0  0  0  0  0  0  0  0
   -4.4200   20.2910  -31.3720 O   0  0  0  0  0  0  0  0  0  0  0  0
   -4.2320   22.0850  -33.0220 O   0  0  0  0  0  0  0  0  0  0  0  0
   -2.6160   22.2150  -30.8930 N   0  0  0  0  0  0  0  0  0  0  0  0
   -3.4160   22.4200  -29.6580 C   0  0  0  0  0  0  0  0  0  0  0  0
   -2.7900   21.8030  -28.3940 C   0  0  0  0  0  0  0  0  0  0  0  0
   -2.2290   20.4120  -28.6890 C   0  0  0  0  0  0  0  0  0  0  0  0
   -1.2050   20.4320  -29.8360 C   0  0  0  0  0  0  0  0  0  0  0  0
   -1.2420   21.7350  -30.6550 C   0  0  0  0  0  0  0  0  0  0  0  0
   -2.1870   18.8760  -32.7220 C   0  0  0  0  0  0  0  0  0  0  0  0
   -5.5100   17.1680  -32.8070 C   0  0  0  0  0  0  0  0  0  0  0  0
   -4.9970   16.0070  -32.2270 O   0  0  0  0  0  0  0  0  0  0  0  0
   -6.6870   17.7180  -32.2840 C   0  0  0  0  0  0  0  0  0  0  0  0
   -7.1750   22.7550  -32.5400 C   0  0  0  0  0  0  0  0  0  0  0  0
   -6.3820   23.7530  -31.9660 C   0  0  0  0  0  0  0  0  0  0  0  0
   -3.8840   26.2890  -31.2170 H   0  0  0  0  0  0  0  0  0  0  0  0
   -6.9486   23.0790  -28.6644 H   0  0  0  0  0  0  0  0  0  0  0  0
   -8.3883   21.3209  -29.6851 H   0  0  0  0  0  0  0  0  0  0  0  0
   -6.9737   20.4464  -34.3237 H   0  0  0  0  0  0  0  0  0  0  0  0
   -4.9156   19.4430  -35.2945 H   0  0  0  0  0  0  0  0  0  0  0  0
   -4.1414   15.2455  -33.8162 H   0  0  0  0  0  0  0  0  0  0  0  0
   -2.8998   15.4242  -35.1326 H   0  0  0  0  0  0  0  0  0  0  0  0
    0.3365   18.1424  -34.9132 H   0  0  0  0  0  0  0  0  0  0  0  0
    0.1476   20.5979  -35.3241 H   0  0  0  0  0  0  0  0  0  0  0  0
   -1.5187   21.9538  -34.0574 H   0  0  0  0  0  0  0  0  0  0  0  0
   -3.5285   23.5020  -29.4949 H   0  0  0  0  0  0  0  0  0  0  0  0
   -4.3787   21.9118  -29.8157 H   0  0  0  0  0  0  0  0  0  0  0  0
   -1.9756   22.4528  -28.0410 H   0  0  0  0  0  0  0  0  0  0  0  0
   -3.5694   21.7124  -27.6231 H   0  0  0  0  0  0  0  0  0  0  0  0
   -1.7385   20.0279  -27.7824 H   0  0  0  0  0  0  0  0  0  0  0  0
   -3.0663   19.7670  -28.9939 H   0  0  0  0  0  0  0  0  0  0  0  0
   -0.1981   20.3154  -29.4086 H   0  0  0  0  0  0  0  0  0  0  0  0
   -1.4603   19.6079  -30.5184 H   0  0  0  0  0  0  0  0  0  0  0  0
   -0.6872   22.5113  -30.1077 H   0  0  0  0  0  0  0  0  0  0  0  0
   -0.7870   21.5265  -31.6345 H   0  0  0  0  0  0  0  0  0  0  0  0
   -2.8686   18.3852  -32.0117 H   0  0  0  0  0  0  0  0  0  0  0  0
   -4.0130   15.8980  -32.0200 H   0  0  0  0  0  0  0  0  0  0  0  0
   -7.1940   17.2193  -31.4448 H   0  0  0  0  0  0  0  0  0  0  0  0
   -7.2354   22.6632  -33.6345 H   0  0  0  0  0  0  0  0  0  0  0  0
   -5.8201   24.4439  -32.6117 H   0  0  0  0  0  0  0  0  0  0  0  0
  1  2  1  0
  2  3  2  0
  2  4  2  0
  2  5  1  0
  5  6  2  0
  6  7  1  0
  7  8  2  0
  8  9  1  0
  9 10  1  0
 10 11  2  0
 10 12  1  0
 12 13  2  0
 13 14  1  0
 14 15  2  0
 15 16  1  0
 16 17  1  0
 17 18  1  0
 18 19  2  0
 18 20  1  0
 20 21  1  0
 21 22  2  0
 22 23  1  0
 23 24  2  0
 24 25  1  0
 25 26  1  0
 26 27  2  0
 26 28  2  0
 26 29  1  0
 29 30  1  0
 30 31  1  0
 31 32  1  0
 32 33  1  0
 33 34  1  0
 25 35  2  0
 15 36  1  0
 36 37  1  0
 36 38  2  0
  8 39  1  0
 39 40  2  0
 40  5  1  0
 38 12  1  0
 35 21  1  0
 34 29  1  0
  1 41  1  0
  6 42  1  0
  7 43  1  0
 13 44  1  0
 14 45  1  0
 17 46  1  0
 17 47  1  0
 22 48  1  0
 23 49  1  0
 24 50  1  0
 30 51  1  0
 30 52  1  0
 31 53  1  0
 31 54  1  0
 32 55  1  0
 32 56  1  0
 33 57  1  0
 33 58  1  0
 34 59  1  0
 34 60  1  0
 35 61  1  0
 37 62  1  0
 38 63  1  0
 39 64  1  0
 40 65  1  0
M  CHG  3   1  -1   9  -1  20  -1
M  END
>  <UniqueID>  (11) 
11

>  <SMILES>  (11) 
[NH-]S(=O)(=O)c1ccc([N-]C(=O)c2ccc(OCC(=O)[N-]c3cccc(S(=O)(=O)N4CCCCC4)c3)c(O)c2)cc1

>  <Energy>  (11) 
82.36526257013716

>  <Genealogy>  (11) 
[NH-]S(=O)(=O)c1ccc([N-]C(=O)c2ccc(OCC(=O)[N-]c3cccc(S(=O)(=O)N4CCCCC4)c3)c(O)c2)cc1 (protonated)
[NH-]S(=O)(=O)c1ccc([N-]C(=O)c2ccc(OCC(=O)[N-]c3cccc(S(=O)(=O)N4CCCCC4)c3)c(O)c2)cc1 (3D coordinates assigned)
[NH-]S(=O)(=O)c1ccc([N-]C(=O)c2ccc(OCC(=O)[N-]c3cccc(S(=O)(=O)N4CCCCC4)c3)c(O)c2)cc1 (nonaromatic ring conformer: 82.36526257013716 kcal/mol)

>  <smiles>  (11) 
NS(=O)(=O)c1ccc(NC(=O)c2ccc(OCC(=O)Nc3cccc(S(=O)(=O)N4CCCCC4)c3)c(O)c2)cc1

>  <score_type>  (11) 
oracle

>  <origin>  (11) 
adgpu

>  <m_score__min__energy>  (11) 
-13.06

>  <m_primary>  (11) 
energy

$$$$
11:0
     RDKit          3D

 57 60  0  0  0  0  0  0  0  0999 V2000
    0.5020   20.8970  -33.9010 O   0  0  0  0  0  0  0  0  0  0  0  0
   -0.3440   20.8580  -32.9670 C   0  0  0  0  0  0  0  0  0  0  0  0
    0.0630   21.1510  -31.6250 N   0  0  0  0  0  0  0  0  0  0  0  0
   -0.8230   21.3170  -30.5100 C   0  0  0  0  0  0  0  0  0  0  0  0
   -1.5260   22.5230  -30.3850 C   0  0  0  0  0  0  0  0  0  0  0  0
   -2.3870   22.7390  -29.3010 C   0  0  0  0  0  0  0  0  0  0  0  0
   -3.3050   24.2420  -29.1910 S   0  0  0  0  0  0  0  0  0  0  0  0
   -2.3420   25.3750  -28.9580 O   0  0  0  0  0  0  0  0  0  0  0  0
   -4.2550   24.1740  -28.0260 O   0  0  0  0  0  0  0  0  0  0  0  0
   -4.1840   24.5120  -30.6810 N   0  0  0  0  0  0  0  0  0  0  0  0
   -4.7760   23.2640  -31.1680 C   0  0  0  0  0  0  0  0  0  0  0  0
   -6.1960   23.1710  -30.6330 C   0  0  0  0  0  0  0  0  0  0  0  0
   -6.5520   24.5750  -30.1830 C   0  0  0  0  0  0  0  0  0  0  0  0
   -5.3140   25.4180  -30.4510 C   0  0  0  0  0  0  0  0  0  0  0  0
   -2.5300   21.7470  -28.3230 C   0  0  0  0  0  0  0  0  0  0  0  0
   -1.8150   20.5510  -28.4260 C   0  0  0  0  0  0  0  0  0  0  0  0
   -0.9510   20.3320  -29.5100 C   0  0  0  0  0  0  0  0  0  0  0  0
   -0.2060   19.1580  -29.5730 O   0  0  0  0  0  0  0  0  0  0  0  0
   -1.7390   20.4410  -33.2470 C   0  0  0  0  0  0  0  0  0  0  0  0
   -2.7910   21.3720  -33.1800 C   0  0  0  0  0  0  0  0  0  0  0  0
   -4.1040   20.9810  -33.4590 C   0  0  0  0  0  0  0  0  0  0  0  0
   -4.3900   19.6530  -33.8110 C   0  0  0  0  0  0  0  0  0  0  0  0
   -6.0490   19.1680  -34.1730 S   0  0  0  0  0  0  0  0  0  0  0  0
   -6.1020   18.6570  -35.5880 O   0  0  0  0  0  0  0  0  0  0  0  0
   -6.9580   20.3600  -34.0640 O   0  0  0  0  0  0  0  0  0  0  0  0
   -6.5520   17.8970  -33.0730 N   0  0  0  0  0  0  0  0  0  0  0  0
   -6.1580   16.5520  -33.5530 C   0  0  0  0  0  0  0  0  0  0  0  0
   -5.0160   15.9440  -32.7200 C   0  0  0  0  0  0  0  0  0  0  0  0
   -5.3340   15.8320  -31.3400 O   0  0  0  0  0  0  0  0  0  0  0  0
   -6.1240   16.9090  -30.8460 C   0  0  0  0  0  0  0  0  0  0  0  0
   -6.0690   18.1790  -31.7080 C   0  0  0  0  0  0  0  0  0  0  0  0
   -3.3470   18.7180  -33.8700 C   0  0  0  0  0  0  0  0  0  0  0  0
   -2.0330   19.1070  -33.5890 C   0  0  0  0  0  0  0  0  0  0  0  0
   -1.4005   23.3078  -31.1455 H   0  0  0  0  0  0  0  0  0  0  0  0
   -4.7918   23.2637  -32.2679 H   0  0  0  0  0  0  0  0  0  0  0  0
   -4.1836   22.4032  -30.8245 H   0  0  0  0  0  0  0  0  0  0  0  0
   -6.8833   22.8347  -31.4232 H   0  0  0  0  0  0  0  0  0  0  0  0
   -6.2753   22.4460  -29.8095 H   0  0  0  0  0  0  0  0  0  0  0  0
   -7.4083   24.9569  -30.7583 H   0  0  0  0  0  0  0  0  0  0  0  0
   -6.8397   24.6011  -29.1216 H   0  0  0  0  0  0  0  0  0  0  0  0
   -5.4757   26.0449  -31.3403 H   0  0  0  0  0  0  0  0  0  0  0  0
   -5.1071   26.0732  -29.5920 H   0  0  0  0  0  0  0  0  0  0  0  0
   -3.2070   21.9098  -27.4714 H   0  0  0  0  0  0  0  0  0  0  0  0
   -1.9300   19.7768  -27.6531 H   0  0  0  0  0  0  0  0  0  0  0  0
    0.4200   18.9670  -30.3460 H   0  0  0  0  0  0  0  0  0  0  0  0
   -2.5791   22.4160  -32.9059 H   0  0  0  0  0  0  0  0  0  0  0  0
   -4.9178   21.7189  -33.4022 H   0  0  0  0  0  0  0  0  0  0  0  0
   -7.0315   15.8860  -33.4944 H   0  0  0  0  0  0  0  0  0  0  0  0
   -5.7999   16.6564  -34.5878 H   0  0  0  0  0  0  0  0  0  0  0  0
   -4.7930   14.9403  -33.1109 H   0  0  0  0  0  0  0  0  0  0  0  0
   -4.1517   16.6191  -32.8046 H   0  0  0  0  0  0  0  0  0  0  0  0
   -7.1702   16.5732  -30.7933 H   0  0  0  0  0  0  0  0  0  0  0  0
   -5.7116   17.1774  -29.8622 H   0  0  0  0  0  0  0  0  0  0  0  0
   -6.7031   18.9538  -31.2523 H   0  0  0  0  0  0  0  0  0  0  0  0
   -5.0269   18.5269  -31.7636 H   0  0  0  0  0  0  0  0  0  0  0  0
   -3.5630   17.6734  -34.1386 H   0  0  0  0  0  0  0  0  0  0  0  0
   -1.2226   18.3646  -33.6356 H   0  0  0  0  0  0  0  0  0  0  0  0
  1  2  2  0
  2  3  1  0
  3  4  1  0
  4  5  2  0
  5  6  1  0
  6  7  1  0
  7  8  2  0
  7  9  2  0
  7 10  1  0
 10 11  1  0
 11 12  1  0
 12 13  1  0
 13 14  1  0
  6 15  2  0
 15 16  1  0
 16 17  2  0
 17 18  1  0
  2 19  1  0
 19 20  2  0
 20 21  1  0
 21 22  2  0
 22 23  1  0
 23 24  2  0
 23 25  2  0
 23 26  1  0
 26 27  1  0
 27 28  1  0
 28 29  1  0
 29 30  1  0
 30 31  1  0
 22 32  1  0
 32 33  2  0
 17  4  1  0
 33 19  1  0
 14 10  1  0
 31 26  1  0
  5 34  1  0
 11 35  1  0
 11 36  1  0
 12 37  1  0
 12 38  1  0
 13 39  1  0
 13 40  1  0
 14 41  1  0
 14 42  1  0
 15 43  1  0
 16 44  1  0
 18 45  1  0
 20 46  1  0
 21 47  1  0
 27 48  1  0
 27 49  1  0
 28 50  1  0
 28 51  1  0
 30 52  1  0
 30 53  1  0
 31 54  1  0
 31 55  1  0
 32 56  1  0
 33 57  1  0
M  CHG  1   3  -1
M  END
>  <UniqueID>  (12) 
12

>  <SMILES>  (12) 
O=C([N-]c1cc(S(=O)(=O)N2CCCC2)ccc1O)c1ccc(S(=O)(=O)N2CCOCC2)cc1

>  <Energy>  (12) 
81.27241509782894

>  <Genealogy>  (12) 
O=C([N-]c1cc(S(=O)(=O)N2CCCC2)ccc1O)c1ccc(S(=O)(=O)N2CCOCC2)cc1 (protonated)
O=C([N-]c1cc(S(=O)(=O)N2CCCC2)ccc1O)c1ccc(S(=O)(=O)N2CCOCC2)cc1 (3D coordinates assigned)
O=C([N-]c1cc(S(=O)(=O)N2CCCC2)ccc1O)c1ccc(S(=O)(=O)N2CCOCC2)cc1 (nonaromatic ring conformer: 81.27241509782894 kcal/mol)

>  <smiles>  (12) 
O=C(Nc1cc(S(=O)(=O)N2CCCC2)ccc1O)c1ccc(S(=O)(=O)N2CCOCC2)cc1

>  <score_type>  (12) 
oracle

>  <origin>  (12) 
adgpu

>  <m_score__min__energy>  (12) 
-12.390000000000001

>  <m_primary>  (12) 
energy

$$$$
12:0
     RDKit          3D

 41 43  0  0  0  0  0  0  0  0999 V2000
   -1.0690   25.5610  -28.5840 C   0  0  0  0  0  0  0  0  0  0  0  0
   -2.0690   24.4530  -28.6480 C   0  0  0  0  0  0  0  0  0  0  0  0
   -2.0620   23.2960  -27.8890 C   0  0  0  0  0  0  0  0  0  0  0  0
   -3.1260   22.5430  -28.3470 C   0  0  0  0  0  0  0  0  0  0  0  0
   -3.4650   21.2850  -27.8640 O   0  0  0  0  0  0  0  0  0  0  0  0
   -3.7770   23.1730  -29.3500 N   0  0  0  0  0  0  0  0  0  0  0  0
   -4.9220   22.6930  -30.0770 C   0  0  0  0  0  0  0  0  0  0  0  0
   -6.2220   22.9860  -29.6330 C   0  0  0  0  0  0  0  0  0  0  0  0
   -7.3340   22.5190  -30.3400 C   0  0  0  0  0  0  0  0  0  0  0  0
   -7.1640   21.7610  -31.5080 C   0  0  0  0  0  0  0  0  0  0  0  0
   -8.3600   21.2270  -32.2440 C   0  0  0  0  0  0  0  0  0  0  0  0
   -7.9460   20.1230  -33.1190 N   0  0  0  0  0  0  0  0  0  0  0  0
   -7.8280   18.8540  -32.3830 C   0  0  0  0  0  0  0  0  0  0  0  0
   -6.6520   18.0310  -32.8540 C   0  0  0  0  0  0  0  0  0  0  0  0
   -6.1190   17.0180  -32.0390 C   0  0  0  0  0  0  0  0  0  0  0  0
   -5.0480   16.2410  -32.4890 C   0  0  0  0  0  0  0  0  0  0  0  0
   -4.5020   16.4680  -33.7550 C   0  0  0  0  0  0  0  0  0  0  0  0
   -5.0300   17.4700  -34.5750 C   0  0  0  0  0  0  0  0  0  0  0  0
   -6.1020   18.2480  -34.1290 C   0  0  0  0  0  0  0  0  0  0  0  0
   -5.8670   21.4530  -31.9440 C   0  0  0  0  0  0  0  0  0  0  0  0
   -4.7550   21.9200  -31.2380 C   0  0  0  0  0  0  0  0  0  0  0  0
   -3.1210   24.3380  -29.5360 C   0  0  0  0  0  0  0  0  0  0  0  0
   -3.4740   25.2950  -30.4810 O   0  0  0  0  0  0  0  0  0  0  0  0
   -0.8533   25.8000  -27.5322 H   0  0  0  0  0  0  0  0  0  0  0  0
   -0.1419   25.2477  -29.0864 H   0  0  0  0  0  0  0  0  0  0  0  0
   -1.4754   26.4512  -29.0864 H   0  0  0  0  0  0  0  0  0  0  0  0
   -1.3563   23.0310  -27.0879 H   0  0  0  0  0  0  0  0  0  0  0  0
   -6.3661   23.5869  -28.7230 H   0  0  0  0  0  0  0  0  0  0  0  0
   -8.3475   22.7471  -29.9785 H   0  0  0  0  0  0  0  0  0  0  0  0
   -9.1027   20.8615  -31.5196 H   0  0  0  0  0  0  0  0  0  0  0  0
   -8.8034   22.0292  -32.8522 H   0  0  0  0  0  0  0  0  0  0  0  0
   -8.6520   20.0110  -33.8850 H   0  0  0  0  0  0  0  0  0  0  0  0
   -7.7003   19.0751  -31.3130 H   0  0  0  0  0  0  0  0  0  0  0  0
   -8.7433   18.2713  -32.5638 H   0  0  0  0  0  0  0  0  0  0  0  0
   -6.5467   16.8357  -31.0421 H   0  0  0  0  0  0  0  0  0  0  0  0
   -4.6345   15.4501  -31.8460 H   0  0  0  0  0  0  0  0  0  0  0  0
   -3.6566   15.8583  -34.1066 H   0  0  0  0  0  0  0  0  0  0  0  0
   -4.6011   17.6462  -35.5725 H   0  0  0  0  0  0  0  0  0  0  0  0
   -6.5168   19.0331  -34.7783 H   0  0  0  0  0  0  0  0  0  0  0  0
   -5.7243   20.8406  -32.8465 H   0  0  0  0  0  0  0  0  0  0  0  0
   -3.7420   21.6806  -31.5939 H   0  0  0  0  0  0  0  0  0  0  0  0
  1  2  1  0
  2  3  1  0
  3  4  2  0
  4  5  1  0
  4  6  1  0
  6  7  1  0
  7  8  2  0
  8  9  1  0
  9 10  2  0
 10 11  1  0
 11 12  1  0
 12 13  1  0
 13 14  1  0
 14 15  2  0
 15 16  1  0
 16 17  2  0
 17 18  1  0
 18 19  2  0
 10 20  1  0
 20 21  2  0
  6 22  1  0
 22 23  1  0
 22  2  2  0
 21  7  1  0
 19 14  1  0
  1 24  1  0
  1 25  1  0
  1 26  1  0
  3 27  1  0
  8 28  1  0
  9 29  1  0
 11 30  1  0
 11 31  1  0
 12 32  1  0
 13 33  1  0
 13 34  1  0
 15 35  1  0
 16 36  1  0
 17 37  1  0
 18 38  1  0
 19 39  1  0
 20 40  1  0
 21 41  1  0
M  CHG  2   5  -1  23  -1
M  END
>  <UniqueID>  (13) 
13

>  <SMILES>  (13) 
Cc1cc([O-])n(-c2ccc(CNCc3ccccc3)cc2)c1[O-]

>  <Energy>  (13) 
74.98579136297828

>  <Genealogy>  (13) 
Cc1cc([O-])n(-c2ccc(CNCc3ccccc3)cc2)c1[O-] (protonated)
Cc1cc([O-])n(-c2ccc(CNCc3ccccc3)cc2)c1[O-] (3D coordinates assigned)
Cc1cc([O-])n(-c2ccc(CNCc3ccccc3)cc2)c1[O-] (optimized conformer: 74.98579136297828 kcal/mol)

>  <smiles>  (13) 
Cc1cc(O)n(-c2ccc(CNCc3ccccc3)cc2)c1O

>  <score_type>  (13) 
oracle

>  <origin>  (13) 
adgpu

>  <m_score__min__energy>  (13) 
-10.99

>  <m_primary>  (13) 
energy

$$$$
13:0
     RDKit          3D

 46 48  0  0  0  0  0  0  0  0999 V2000
   -1.9160   21.1910  -30.8360 O   0  0  0  0  0  0  0  0  0  0  0  0
   -2.2370   22.3920  -29.9890 S   0  0  0  0  0  0  0  0  0  0  0  0
   -1.2020   23.4580  -30.2210 O   0  0  0  0  0  0  0  0  0  0  0  0
   -3.8190   23.0080  -30.4750 C   0  0  0  0  0  0  0  0  0  0  0  0
   -4.8060   22.1200  -30.9360 C   0  0  0  0  0  0  0  0  0  0  0  0
   -6.0740   22.5940  -31.3220 C   0  0  0  0  0  0  0  0  0  0  0  0
   -7.1280   21.6430  -31.7660 C   0  0  0  0  0  0  0  0  0  0  0  0
   -8.4900   21.9650  -31.6130 C   0  0  0  0  0  0  0  0  0  0  0  0
   -9.4800   21.0770  -32.0440 C   0  0  0  0  0  0  0  0  0  0  0  0
   -9.1250   19.8600  -32.6290 C   0  0  0  0  0  0  0  0  0  0  0  0
  -10.1110   18.9790  -33.0580 O   0  0  0  0  0  0  0  0  0  0  0  0
   -7.7760   19.5280  -32.7820 C   0  0  0  0  0  0  0  0  0  0  0  0
   -6.7810   20.4130  -32.3540 C   0  0  0  0  0  0  0  0  0  0  0  0
   -6.3340   23.9750  -31.2640 C   0  0  0  0  0  0  0  0  0  0  0  0
   -5.3500   24.8640  -30.8180 C   0  0  0  0  0  0  0  0  0  0  0  0
   -4.0970   24.3870  -30.4230 C   0  0  0  0  0  0  0  0  0  0  0  0
   -3.1350   25.2890  -29.9830 O   0  0  0  0  0  0  0  0  0  0  0  0
   -2.2700   21.9440  -28.2920 N   0  0  0  0  0  0  0  0  0  0  0  0
   -0.9210   21.6980  -27.7500 C   0  0  0  0  0  0  0  0  0  0  0  0
   -0.1080   22.9980  -27.5460 C   0  0  0  0  0  0  0  0  0  0  0  0
   -0.9680   24.1970  -27.5070 N   0  0  0  0  0  0  0  0  0  0  0  0
   -0.2370   25.3700  -26.9820 C   0  0  0  0  0  0  0  0  0  0  0  0
   -0.7200   26.6440  -27.6830 C   0  0  0  0  0  0  0  0  0  0  0  0
   -1.1550   26.3610  -28.9890 O   0  0  0  0  0  0  0  0  0  0  0  0
   -2.1920   23.9300  -26.7370 C   0  0  0  0  0  0  0  0  0  0  0  0
   -3.0590   22.8970  -27.4780 C   0  0  0  0  0  0  0  0  0  0  0  0
   -4.5855   21.0440  -30.9958 H   0  0  0  0  0  0  0  0  0  0  0  0
   -8.7770   22.9213  -31.1514 H   0  0  0  0  0  0  0  0  0  0  0  0
  -10.5416   21.3378  -31.9219 H   0  0  0  0  0  0  0  0  0  0  0  0
   -7.4960   18.5680  -33.2403 H   0  0  0  0  0  0  0  0  0  0  0  0
   -5.7212   20.1457  -32.4779 H   0  0  0  0  0  0  0  0  0  0  0  0
   -7.3179   24.3589  -31.5715 H   0  0  0  0  0  0  0  0  0  0  0  0
   -5.5633   25.9424  -30.7781 H   0  0  0  0  0  0  0  0  0  0  0  0
   -1.0200   21.1900  -26.7794 H   0  0  0  0  0  0  0  0  0  0  0  0
   -0.3788   21.0809  -28.4816 H   0  0  0  0  0  0  0  0  0  0  0  0
    0.4416   22.9260  -26.5959 H   0  0  0  0  0  0  0  0  0  0  0  0
    0.5774   23.1034  -28.3999 H   0  0  0  0  0  0  0  0  0  0  0  0
   -0.4179   25.4581  -25.9006 H   0  0  0  0  0  0  0  0  0  0  0  0
    0.8389   25.2395  -27.1703 H   0  0  0  0  0  0  0  0  0  0  0  0
   -1.5541   27.0763  -27.1108 H   0  0  0  0  0  0  0  0  0  0  0  0
    0.1170   27.3557  -27.7368 H   0  0  0  0  0  0  0  0  0  0  0  0
   -1.1860   25.3690  -29.0680 H   0  0  0  0  0  0  0  0  0  0  0  0
   -1.9215   23.5362  -25.7462 H   0  0  0  0  0  0  0  0  0  0  0  0
   -2.7599   24.8650  -26.6218 H   0  0  0  0  0  0  0  0  0  0  0  0
   -3.6348   22.3270  -26.7340 H   0  0  0  0  0  0  0  0  0  0  0  0
   -3.7093   23.4539  -28.1687 H   0  0  0  0  0  0  0  0  0  0  0  0
  1  2  2  0
  2  3  2  0
  2  4  1  0
  4  5  2  0
  5  6  1  0
  6  7  1  0
  7  8  2  0
  8  9  1  0
  9 10  2  0
 10 11  1  0
 10 12  1  0
 12 13  2  0
  6 14  2  0
 14 15  1  0
 15 16  2  0
 16 17  1  0
  2 18  1  0
 18 19  1  0
 19 20  1  0
 20 21  1  0
 21 22  1  0
 22 23  1  0
 23 24  1  0
 21 25  1  0
 25 26  1  0
 16  4  1  0
 26 18  1  0
 13  7  1  0
  5 27  1  0
  8 28  1  0
  9 29  1  0
 12 30  1  0
 13 31  1  0
 14 32  1  0
 15 33  1  0
 19 34  1  0
 19 35  1  0
 20 36  1  0
 20 37  1  0
 22 38  1  0
 22 39  1  0
 23 40  1  0
 23 41  1  0
 24 42  1  0
 25 43  1  0
 25 44  1  0
 26 45  1  0
 26 46  1  0
M  CHG  2  11  -1  17  -1
M  END
>  <UniqueID>  (14) 
14

>  <SMILES>  (14) 
O=S(=O)(c1cc(-c2ccc([O-])cc2)ccc1[O-])N1CCN(CCO)CC1

>  <Energy>  (14) 
62.79473506168014

>  <Genealogy>  (14) 
O=S(=O)(c1cc(-c2ccc([O-])cc2)ccc1[O-])N1CCN(CCO)CC1 (protonated)
O=S(=O)(c1cc(-c2ccc([O-])cc2)ccc1[O-])N1CCN(CCO)CC1 (3D coordinates assigned)
O=S(=O)(c1cc(-c2ccc([O-])cc2)ccc1[O-])N1CCN(CCO)CC1 (nonaromatic ring conformer: 62.79473506168014 kcal/mol)

>  <smiles>  (14) 
O=S(=O)(c1cc(-c2ccc(O)cc2)ccc1O)N1CCN(CCO)CC1

>  <score_type>  (14) 
oracle

>  <origin>  (14) 
adgpu

>  <m_score__min__energy>  (14) 
-11.050000000000001

>  <m_primary>  (14) 
energy

$$$$
14:0
     RDKit          3D

 61 63  0  0  0  0  0  0  0  0999 V2000
   -2.3600   13.6110  -31.9490 C   0  0  0  0  0  0  0  0  0  0  0  0
   -3.7610   13.9880  -32.2030 N   0  0  0  0  0  0  0  0  0  0  0  0
   -4.6250   13.3890  -31.1710 C   0  0  0  0  0  0  0  0  0  0  0  0
   -4.1740   13.5560  -33.5580 C   0  0  0  0  0  0  0  0  0  0  0  0
   -3.8440   14.6270  -34.6060 C   0  0  0  0  0  0  0  0  0  0  0  0
   -3.5750   15.9150  -33.9680 N   0  0  0  0  0  0  0  0  0  0  0  0
   -3.9130   17.1730  -34.5730 C   0  0  0  0  0  0  0  0  0  0  0  0
   -4.5750   17.1950  -35.6480 O   0  0  0  0  0  0  0  0  0  0  0  0
   -3.5040   18.4510  -33.9480 C   0  0  0  0  0  0  0  0  0  0  0  0
   -4.4220   19.5100  -33.8340 C   0  0  0  0  0  0  0  0  0  0  0  0
   -4.0420   20.7170  -33.2420 C   0  0  0  0  0  0  0  0  0  0  0  0
   -2.7380   20.8850  -32.7470 C   0  0  0  0  0  0  0  0  0  0  0  0
   -2.3150   22.1090  -32.1300 N   0  0  0  0  0  0  0  0  0  0  0  0
   -2.7670   22.6280  -30.8710 C   0  0  0  0  0  0  0  0  0  0  0  0
   -2.0340   22.4670  -29.8580 O   0  0  0  0  0  0  0  0  0  0  0  0
   -4.0930   23.2770  -30.7170 C   0  0  0  0  0  0  0  0  0  0  0  0
   -5.2610   22.5850  -31.0840 C   0  0  0  0  0  0  0  0  0  0  0  0
   -6.5200   23.1830  -30.9520 C   0  0  0  0  0  0  0  0  0  0  0  0
   -7.9750   22.3050  -31.4320 S   0  0  0  0  0  0  0  0  0  0  0  0
   -8.7760   21.9620  -30.2070 O   0  0  0  0  0  0  0  0  0  0  0  0
   -8.8190   23.1900  -32.3070 O   0  0  0  0  0  0  0  0  0  0  0  0
   -7.5820   20.8360  -32.2950 N   0  0  0  0  0  0  0  0  0  0  0  0
   -8.7990   20.1680  -32.8220 C   0  0  0  0  0  0  0  0  0  0  0  0
   -9.2110   18.9350  -32.0050 C   0  0  0  0  0  0  0  0  0  0  0  0
   -8.0740   17.8980  -31.9460 C   0  0  0  0  0  0  0  0  0  0  0  0
   -6.6770   18.5390  -32.0070 C   0  0  0  0  0  0  0  0  0  0  0  0
   -6.7090   19.9720  -31.4700 C   0  0  0  0  0  0  0  0  0  0  0  0
   -6.6190   24.4810  -30.4380 C   0  0  0  0  0  0  0  0  0  0  0  0
   -5.4690   25.1700  -30.0520 C   0  0  0  0  0  0  0  0  0  0  0  0
   -4.2090   24.5780  -30.1880 C   0  0  0  0  0  0  0  0  0  0  0  0
   -3.0800   25.2970  -29.8090 O   0  0  0  0  0  0  0  0  0  0  0  0
   -1.8110   19.8490  -32.8980 C   0  0  0  0  0  0  0  0  0  0  0  0
   -2.1900   18.6390  -33.4850 C   0  0  0  0  0  0  0  0  0  0  0  0
   -2.1839   13.5636  -30.8642 H   0  0  0  0  0  0  0  0  0  0  0  0
   -2.1583   12.6266  -32.3965 H   0  0  0  0  0  0  0  0  0  0  0  0
   -1.6915   14.3612  -32.3965 H   0  0  0  0  0  0  0  0  0  0  0  0
   -4.2430   13.6538  -30.1740 H   0  0  0  0  0  0  0  0  0  0  0  0
   -5.6503   13.7711  -31.2842 H   0  0  0  0  0  0  0  0  0  0  0  0
   -4.6268   12.2948  -31.2842 H   0  0  0  0  0  0  0  0  0  0  0  0
   -3.6445   12.6268  -33.8154 H   0  0  0  0  0  0  0  0  0  0  0  0
   -5.2620   13.3942  -33.5557 H   0  0  0  0  0  0  0  0  0  0  0  0
   -2.9555   14.3137  -35.1739 H   0  0  0  0  0  0  0  0  0  0  0  0
   -4.7082   14.7405  -35.2771 H   0  0  0  0  0  0  0  0  0  0  0  0
   -3.1760   15.9000  -33.0030 H   0  0  0  0  0  0  0  0  0  0  0  0
   -5.4470   19.3872  -34.2138 H   0  0  0  0  0  0  0  0  0  0  0  0
   -4.7675   21.5400  -33.1630 H   0  0  0  0  0  0  0  0  0  0  0  0
   -5.1845   21.5614  -31.4796 H   0  0  0  0  0  0  0  0  0  0  0  0
   -9.6286   20.8903  -32.8082 H   0  0  0  0  0  0  0  0  0  0  0  0
   -8.5691   19.8242  -33.8413 H   0  0  0  0  0  0  0  0  0  0  0  0
   -9.4617   19.2506  -30.9815 H   0  0  0  0  0  0  0  0  0  0  0  0
  -10.0805   18.4699  -32.4925 H   0  0  0  0  0  0  0  0  0  0  0  0
   -8.1611   17.3345  -31.0053 H   0  0  0  0  0  0  0  0  0  0  0  0
   -8.1766   17.2446  -32.8249 H   0  0  0  0  0  0  0  0  0  0  0  0
   -5.9803   17.9424  -31.3998 H   0  0  0  0  0  0  0  0  0  0  0  0
   -6.3478   18.5644  -33.0563 H   0  0  0  0  0  0  0  0  0  0  0  0
   -7.0894   19.9595  -30.4380 H   0  0  0  0  0  0  0  0  0  0  0  0
   -5.6872   20.3781  -31.5033 H   0  0  0  0  0  0  0  0  0  0  0  0
   -7.6049   24.9585  -30.3382 H   0  0  0  0  0  0  0  0  0  0  0  0
   -5.5537   26.1856  -29.6379 H   0  0  0  0  0  0  0  0  0  0  0  0
   -0.7760   19.9876  -32.5522 H   0  0  0  0  0  0  0  0  0  0  0  0
   -1.4545   17.8272  -33.5856 H   0  0  0  0  0  0  0  0  0  0  0  0
  1  2  1  0
  2  3  1  0
  2  4  1  0
  4  5  1  0
  5  6  1  0
  6  7  1  0
  7  8  2  0
  7  9  1  0
  9 10  2  0
 10 11  1  0
 11 12  2  0
 12 13  1  0
 13 14  1  0
 14 15  2  0
 14 16  1  0
 16 17  2  0
 17 18  1  0
 18 19  1  0
 19 20  2  0
 19 21  2  0
 19 22  1  0
 22 23  1  0
 23 24  1  0
 24 25  1  0
 25 26  1  0
 26 27  1  0
 18 28  2  0
 28 29  1  0
 29 30  2  0
 30 31  1  0
 12 32  1  0
 32 33  2  0
 33  9  1  0
 30 16  1  0
 27 22  1  0
  1 34  1  0
  1 35  1  0
  1 36  1  0
  3 37  1  0
  3 38  1  0
  3 39  1  0
  4 40  1  0
  4 41  1  0
  5 42  1  0
  5 43  1  0
  6 44  1  0
 10 45  1  0
 11 46  1  0
 17 47  1  0
 23 48  1  0
 23 49  1  0
 24 50  1  0
 24 51  1  0
 25 52  1  0
 25 53  1  0
 26 54  1  0
 26 55  1  0
 27 56  1  0
 27 57  1  0
 28 58  1  0
 29 59  1  0
 32 60  1  0
 33 61  1  0
M  CHG  2  13  -1  31  -1
M  END
>  <UniqueID>  (15) 
15

>  <SMILES>  (15) 
CN(C)CCNC(=O)c1ccc([N-]C(=O)c2cc(S(=O)(=O)N3CCCCC3)ccc2[O-])cc1

>  <Energy>  (15) 
73.25187660489884

>  <Genealogy>  (15) 
CN(C)CCNC(=O)c1ccc([N-]C(=O)c2cc(S(=O)(=O)N3CCCCC3)ccc2[O-])cc1 (protonated)
CN(C)CCNC(=O)c1ccc([N-]C(=O)c2cc(S(=O)(=O)N3CCCCC3)ccc2[O-])cc1 (3D coordinates assigned)
CN(C)CCNC(=O)c1ccc([N-]C(=O)c2cc(S(=O)(=O)N3CCCCC3)ccc2[O-])cc1 (nonaromatic ring conformer: 73.25187660489884 kcal/mol)

>  <smiles>  (15) 
CN(C)CCNC(=O)c1ccc(NC(=O)c2cc(S(=O)(=O)N3CCCCC3)ccc2O)cc1

>  <score_type>  (15) 
oracle

>  <origin>  (15) 
adgpu

>  <m_score__min__energy>  (15) 
-12.66

>  <m_primary>  (15) 
energy

$$$$
15:0
     RDKit          3D

 65 68  0  0  0  0  0  0  0  0999 V2000
   -7.0030   15.6090  -34.5830 C   0  0  0  0  0  0  0  0  0  0  0  0
   -6.7430   17.0080  -34.0070 C   0  0  2  0  0  0  0  0  0  0  0  0
   -5.2880   17.1480  -33.5040 C   0  0  0  0  0  0  0  0  0  0  0  0
   -5.1530   17.1220  -31.9760 C   0  0  2  0  0  0  0  0  0  0  0  0
   -5.3350   15.7120  -31.3900 C   0  0  0  0  0  0  0  0  0  0  0  0
   -6.0730   18.1700  -31.3050 C   0  0  0  0  0  0  0  0  0  0  0  0
   -7.3720   18.3910  -31.9820 N   0  0  0  0  0  0  0  0  0  0  0  0
   -7.5960   20.0290  -32.5630 S   0  0  0  0  0  0  0  0  0  0  0  0
   -9.0160   20.4510  -32.3050 O   0  0  0  0  0  0  0  0  0  0  0  0
   -7.3710   20.0650  -34.0490 O   0  0  0  0  0  0  0  0  0  0  0  0
   -6.5150   21.1860  -31.7850 C   0  0  0  0  0  0  0  0  0  0  0  0
   -6.9160   21.8600  -30.6250 C   0  0  0  0  0  0  0  0  0  0  0  0
   -6.0590   22.7760  -30.0080 C   0  0  0  0  0  0  0  0  0  0  0  0
   -4.7920   23.0500  -30.5550 C   0  0  0  0  0  0  0  0  0  0  0  0
   -3.8880   24.0220  -29.8940 C   0  0  0  0  0  0  0  0  0  0  0  0
   -3.9550   25.2430  -30.2080 O   0  0  0  0  0  0  0  0  0  0  0  0
   -2.9020   23.5820  -28.9450 N   0  0  0  0  0  0  0  0  0  0  0  0
   -2.2700   24.4510  -27.9890 C   0  0  0  0  0  0  0  0  0  0  0  0
   -0.9110   24.7630  -28.1350 C   0  0  0  0  0  0  0  0  0  0  0  0
   -0.2680   25.5860  -27.2070 C   0  0  0  0  0  0  0  0  0  0  0  0
   -0.9750   26.1070  -26.1140 C   0  0  0  0  0  0  0  0  0  0  0  0
   -0.1580   27.1380  -24.9340 S   0  0  0  0  0  0  0  0  0  0  0  0
    1.1980   26.5630  -24.6370 O   0  0  0  0  0  0  0  0  0  0  0  0
   -0.9510   27.1430  -23.6570 O   0  0  0  0  0  0  0  0  0  0  0  0
    0.0330   28.7850  -25.4890 N   0  0  0  0  0  0  0  0  0  0  0  0
   -1.0370   29.6530  -25.0060 C   0  0  0  0  0  0  0  0  0  0  0  0
   -1.1290   30.8070  -25.9920 C   0  0  0  0  0  0  0  0  0  0  0  0
   -0.4710   30.2980  -27.2670 C   0  0  0  0  0  0  0  0  0  0  0  0
   -0.0140   28.8830  -26.9470 C   0  0  0  0  0  0  0  0  0  0  0  0
   -2.3250   25.7720  -25.9460 C   0  0  0  0  0  0  0  0  0  0  0  0
   -2.9700   24.9480  -26.8750 C   0  0  0  0  0  0  0  0  0  0  0  0
   -4.3990   22.3770  -31.7250 C   0  0  0  0  0  0  0  0  0  0  0  0
   -5.2570   21.4600  -32.3400 C   0  0  0  0  0  0  0  0  0  0  0  0
   -7.8060   17.3580  -32.9400 C   0  0  0  0  0  0  0  0  0  0  0  0
   -7.1362   14.8923  -33.7593 H   0  0  0  0  0  0  0  0  0  0  0  0
   -7.9126   15.6302  -35.2012 H   0  0  0  0  0  0  0  0  0  0  0  0
   -6.1465   15.3020  -35.2012 H   0  0  0  0  0  0  0  0  0  0  0  0
   -6.8488   17.7530  -34.8094 H   0  0  0  0  0  0  0  0  0  0  0  0
   -4.6971   16.3177  -33.9180 H   0  0  0  0  0  0  0  0  0  0  0  0
   -4.9275   18.1316  -33.8396 H   0  0  0  0  0  0  0  0  0  0  0  0
   -4.1176   17.4101  -31.7416 H   0  0  0  0  0  0  0  0  0  0  0  0
   -5.3278   15.7678  -30.2914 H   0  0  0  0  0  0  0  0  0  0  0  0
   -6.2944   15.2948  -31.7297 H   0  0  0  0  0  0  0  0  0  0  0  0
   -4.5129   15.0648  -31.7297 H   0  0  0  0  0  0  0  0  0  0  0  0
   -6.2770   17.8360  -30.2770 H   0  0  0  0  0  0  0  0  0  0  0  0
   -5.5343   19.1277  -31.3556 H   0  0  0  0  0  0  0  0  0  0  0  0
   -7.9108   21.6676  -30.1969 H   0  0  0  0  0  0  0  0  0  0  0  0
   -6.3778   23.2867  -29.0874 H   0  0  0  0  0  0  0  0  0  0  0  0
   -2.5350   22.6090  -29.0370 H   0  0  0  0  0  0  0  0  0  0  0  0
   -0.3464   24.3565  -28.9871 H   0  0  0  0  0  0  0  0  0  0  0  0
    0.7978   25.8263  -27.3344 H   0  0  0  0  0  0  0  0  0  0  0  0
   -1.9888   29.1025  -24.9742 H   0  0  0  0  0  0  0  0  0  0  0  0
   -0.8302   30.0132  -23.9874 H   0  0  0  0  0  0  0  0  0  0  0  0
   -2.1803   31.0709  -26.1796 H   0  0  0  0  0  0  0  0  0  0  0  0
   -0.6371   31.7137  -25.6099 H   0  0  0  0  0  0  0  0  0  0  0  0
   -1.1932   30.2911  -28.0967 H   0  0  0  0  0  0  0  0  0  0  0  0
    0.3671   30.9384  -27.5792 H   0  0  0  0  0  0  0  0  0  0  0  0
   -0.7271   28.1514  -27.3548 H   0  0  0  0  0  0  0  0  0  0  0  0
    0.9687   28.6705  -27.3932 H   0  0  0  0  0  0  0  0  0  0  0  0
   -2.8809   26.1588  -25.0792 H   0  0  0  0  0  0  0  0  0  0  0  0
   -4.0294   24.6878  -26.7334 H   0  0  0  0  0  0  0  0  0  0  0  0
   -3.4081   22.5734  -32.1604 H   0  0  0  0  0  0  0  0  0  0  0  0
   -4.9435   20.9512  -33.2635 H   0  0  0  0  0  0  0  0  0  0  0  0
   -8.0470   16.4436  -32.3780 H   0  0  0  0  0  0  0  0  0  0  0  0
   -8.6757   17.7649  -33.4767 H   0  0  0  0  0  0  0  0  0  0  0  0
  1  2  1  0
  2  3  1  0
  3  4  1  0
  4  5  1  0
  4  6  1  0
  6  7  1  0
  7  8  1  0
  8  9  2  0
  8 10  2  0
  8 11  1  0
 11 12  2  0
 12 13  1  0
 13 14  2  0
 14 15  1  0
 15 16  2  0
 15 17  1  0
 17 18  1  0
 18 19  2  0
 19 20  1  0
 20 21  2  0
 21 22  1  0
 22 23  2  0
 22 24  2  0
 22 25  1  0
 25 26  1  0
 26 27  1  0
 27 28  1  0
 28 29  1  0
 21 30  1  0
 30 31  2  0
 14 32  1  0
 32 33  2  0
  7 34  1  0
 34  2  1  0
 33 11  1  0
 31 18  1  0
 29 25  1  0
  1 35  1  0
  1 36  1  0
  1 37  1  0
  2 38  1  6
  3 39  1  0
  3 40  1  0
  4 41  1  6
  5 42  1  0
  5 43  1  0
  5 44  1  0
  6 45  1  0
  6 46  1  0
 12 47  1  0
 13 48  1  0
 17 49  1  0
 19 50  1  0
 20 51  1  0
 26 52  1  0
 26 53  1  0
 27 54  1  0
 27 55  1  0
 28 56  1  0
 28 57  1  0
 29 58  1  0
 29 59  1  0
 30 60  1  0
 31 61  1  0
 32 62  1  0
 33 63  1  0
 34 64  1  0
 34 65  1  0
M  END
>  <UniqueID>  (16) 
16

>  <SMILES>  (16) 
C[C@@H]1C[C@H](C)CN(S(=O)(=O)c2ccc(C(=O)Nc3ccc(S(=O)(=O)N4CCCC4)cc3)cc2)C1

>  <Energy>  (16) 
81.84036057339272

>  <Genealogy>  (16) 
C[C@@H]1C[C@H](C)CN(S(=O)(=O)c2ccc(C(=O)Nc3ccc(S(=O)(=O)N4CCCC4)cc3)cc2)C1 (chirality)
C[C@@H]1C[C@H](C)CN(S(=O)(=O)c2ccc(C(=O)Nc3ccc(S(=O)(=O)N4CCCC4)cc3)cc2)C1 (3D coordinates assigned)
C[C@@H]1C[C@H](C)CN(S(=O)(=O)c2ccc(C(=O)Nc3ccc(S(=O)(=O)N4CCCC4)cc3)cc2)C1 (nonaromatic ring conformer: 81.84036057339272 kcal/mol)

>  <smiles>  (16) 
CC1CC(C)CN(S(=O)(=O)c2ccc(C(=O)Nc3ccc(S(=O)(=O)N4CCCC4)cc3)cc2)C1

>  <score_type>  (16) 
oracle

>  <origin>  (16) 
adgpu

>  <m_score__min__energy>  (16) 
-10.81

>  <m_primary>  (16) 
energy

$$$$
16:0
     RDKit          3D

 47 49  0  0  0  0  0  0  0  0999 V2000
   -5.7800   16.6520  -34.6000 C   0  0  0  0  0  0  0  0  0  0  0  0
   -6.1890   17.9010  -33.8770 C   0  0  0  0  0  0  0  0  0  0  0  0
   -5.5460   19.1190  -34.1320 C   0  0  0  0  0  0  0  0  0  0  0  0
   -5.9360   20.2750  -33.4550 C   0  0  0  0  0  0  0  0  0  0  0  0
   -6.9860   20.2400  -32.5200 C   0  0  0  0  0  0  0  0  0  0  0  0
   -7.3600   21.4330  -31.8050 N   0  0  0  0  0  0  0  0  0  0  0  0
   -6.4370   22.4800  -31.4570 C   0  0  0  0  0  0  0  0  0  0  0  0
   -6.8110   23.8070  -31.6840 C   0  0  0  0  0  0  0  0  0  0  0  0
   -5.9440   24.8460  -31.3690 C   0  0  0  0  0  0  0  0  0  0  0  0
   -4.6870   24.5780  -30.8260 C   0  0  0  0  0  0  0  0  0  0  0  0
   -3.8670   25.6550  -30.5090 O   0  0  0  0  0  0  0  0  0  0  0  0
   -4.2650   23.2480  -30.6100 C   0  0  0  0  0  0  0  0  0  0  0  0
   -2.6570   22.9630  -29.8850 S   0  0  0  0  0  0  0  0  0  0  0  0
   -2.1840   24.2450  -29.2550 O   0  0  0  0  0  0  0  0  0  0  0  0
   -2.7500   21.9600  -28.7700 O   0  0  0  0  0  0  0  0  0  0  0  0
   -1.4450   22.4410  -31.0430 N   0  0  0  0  0  0  0  0  0  0  0  0
   -2.0250   21.9100  -32.2910 C   0  0  0  0  0  0  0  0  0  0  0  0
   -2.1520   20.3750  -32.2880 C   0  0  0  0  0  0  0  0  0  0  0  0
   -2.1380   19.8650  -30.9750 O   0  0  0  0  0  0  0  0  0  0  0  0
   -0.8660   20.0790  -30.3970 C   0  0  0  0  0  0  0  0  0  0  0  0
   -0.4180   21.5580  -30.4650 C   0  0  0  0  0  0  0  0  0  0  0  0
   -5.1490   22.1870  -30.9580 C   0  0  0  0  0  0  0  0  0  0  0  0
   -4.7880   20.8410  -30.8590 O   0  0  0  0  0  0  0  0  0  0  0  0
   -7.6430   19.0140  -32.2640 C   0  0  0  0  0  0  0  0  0  0  0  0
   -8.7660   18.9300  -31.2680 C   0  0  0  0  0  0  0  0  0  0  0  0
   -7.2330   17.8540  -32.9430 C   0  0  0  0  0  0  0  0  0  0  0  0
   -5.5245   15.8716  -33.8681 H   0  0  0  0  0  0  0  0  0  0  0  0
   -6.6113   16.3047  -35.2311 H   0  0  0  0  0  0  0  0  0  0  0  0
   -4.9043   16.8637  -35.2311 H   0  0  0  0  0  0  0  0  0  0  0  0
   -4.7305   19.1643  -34.8688 H   0  0  0  0  0  0  0  0  0  0  0  0
   -5.4167   21.2239  -33.6547 H   0  0  0  0  0  0  0  0  0  0  0  0
   -8.3280   21.4940  -31.4170 H   0  0  0  0  0  0  0  0  0  0  0  0
   -7.7981   24.0305  -32.1148 H   0  0  0  0  0  0  0  0  0  0  0  0
   -6.2507   25.8869  -31.5489 H   0  0  0  0  0  0  0  0  0  0  0  0
   -3.0265   22.3447  -32.4252 H   0  0  0  0  0  0  0  0  0  0  0  0
   -1.3464   22.1832  -33.1125 H   0  0  0  0  0  0  0  0  0  0  0  0
   -3.0982   20.0924  -32.7726 H   0  0  0  0  0  0  0  0  0  0  0  0
   -1.2953   19.9537  -32.8343 H   0  0  0  0  0  0  0  0  0  0  0  0
   -0.9032   19.7712  -29.3416 H   0  0  0  0  0  0  0  0  0  0  0  0
   -0.1379   19.4857  -30.9696 H   0  0  0  0  0  0  0  0  0  0  0  0
   -0.1912   21.9034  -29.4456 H   0  0  0  0  0  0  0  0  0  0  0  0
    0.4652   21.6060  -31.1190 H   0  0  0  0  0  0  0  0  0  0  0  0
   -4.0150   20.4930  -30.3150 H   0  0  0  0  0  0  0  0  0  0  0  0
   -8.3547   18.9608  -30.2482 H   0  0  0  0  0  0  0  0  0  0  0  0
   -9.4495   19.7795  -31.4135 H   0  0  0  0  0  0  0  0  0  0  0  0
   -9.3155   17.9882  -31.4135 H   0  0  0  0  0  0  0  0  0  0  0  0
   -7.7373   16.8979  -32.7391 H   0  0  0  0  0  0  0  0  0  0  0  0
  1  2  1  0
  2  3  2  0
  3  4  1  0
  4  5  2  0
  5  6  1  0
  6  7  1  0
  7  8  2  0
  8  9  1  0
  9 10  2  0
 10 11  1  0
 10 12  1  0
 12 13  1  0
 13 14  2  0
 13 15  2  0
 13 16  1  0
 16 17  1  0
 17 18  1  0
 18 19  1  0
 19 20  1  0
 20 21  1  0
 12 22  2  0
 22 23  1  0
  5 24  1  0
 24 25  1  0
 24 26  2  0
 26  2  1  0
 22  7  1  0
 21 16  1  0
  1 27  1  0
  1 28  1  0
  1 29  1  0
  3 30  1  0
  4 31  1  0
  6 32  1  0
  8 33  1  0
  9 34  1  0
 17 35  1  0
 17 36  1  0
 18 37  1  0
 18 38  1  0
 20 39  1  0
 20 40  1  0
 21 41  1  0
 21 42  1  0
 23 43  1  0
 25 44  1  0
 25 45  1  0
 25 46  1  0
 26 47  1  0
M  CHG  1  11  -1
M  END
>  <UniqueID>  (17) 
17

>  <SMILES>  (17) 
Cc1ccc(Nc2ccc([O-])c(S(=O)(=O)N3CCOCC3)c2O)c(C)c1

>  <Energy>  (17) 
71.74886237373505

>  <Genealogy>  (17) 
Cc1ccc(Nc2ccc([O-])c(S(=O)(=O)N3CCOCC3)c2O)c(C)c1 (protonated)
Cc1ccc(Nc2ccc([O-])c(S(=O)(=O)N3CCOCC3)c2O)c(C)c1 (3D coordinates assigned)
Cc1ccc(Nc2ccc([O-])c(S(=O)(=O)N3CCOCC3)c2O)c(C)c1 (nonaromatic ring conformer: 71.74886237373505 kcal/mol)

>  <smiles>  (17) 
Cc1ccc(Nc2ccc(O)c(S(=O)(=O)N3CCOCC3)c2O)c(C)c1

>  <score_type>  (17) 
oracle

>  <origin>  (17) 
adgpu

>  <m_score__min__energy>  (17) 
-11.15

>  <m_primary>  (17) 
energy

$$$$
17:0
     RDKit          3D

 54 56  0  0  0  0  0  0  0  0999 V2000
   -8.3000   23.1750  -31.7440 C   0  0  0  0  0  0  0  0  0  0  0  0
   -6.9300   23.8250  -31.5600 C   0  0  0  0  0  0  0  0  0  0  0  0
   -6.6840   24.2910  -30.1160 C   0  0  0  0  0  0  0  0  0  0  0  0
   -5.3490   23.7850  -29.5270 C   0  0  0  0  0  0  0  0  0  0  0  0
   -4.1750   24.1140  -30.4180 C   0  0  0  0  0  0  0  0  0  0  0  0
   -3.7520   25.2990  -30.4630 O   0  0  0  0  0  0  0  0  0  0  0  0
   -3.5710   23.1350  -31.2730 N   0  0  0  0  0  0  0  0  0  0  0  0
   -2.7020   22.0840  -30.8390 C   0  0  0  0  0  0  0  0  0  0  0  0
   -2.3890   21.9860  -29.4790 C   0  0  0  0  0  0  0  0  0  0  0  0
   -1.5390   20.9720  -29.0150 C   0  0  0  0  0  0  0  0  0  0  0  0
   -1.1000   20.8830  -27.3120 S   0  0  0  0  0  0  0  0  0  0  0  0
   -0.1020   19.7740  -27.1260 O   0  0  0  0  0  0  0  0  0  0  0  0
   -2.3190   20.5750  -26.4840 O   0  0  0  0  0  0  0  0  0  0  0  0
   -0.3960   22.3980  -26.7990 N   0  0  0  0  0  0  0  0  0  0  0  0
    0.8570   22.6470  -27.5390 C   0  0  0  0  0  0  0  0  0  0  0  0
    1.2150   24.1420  -27.5080 C   0  0  0  0  0  0  0  0  0  0  0  0
    0.2290   24.9900  -28.0870 O   0  0  0  0  0  0  0  0  0  0  0  0
   -1.0690   24.4130  -28.1280 C   0  0  0  0  0  0  0  0  0  0  0  0
   -1.3700   23.5070  -26.9220 C   0  0  0  0  0  0  0  0  0  0  0  0
   -1.0040   20.0500  -29.9220 C   0  0  0  0  0  0  0  0  0  0  0  0
   -1.3350   20.1240  -31.2770 C   0  0  0  0  0  0  0  0  0  0  0  0
   -2.1910   21.1290  -31.7420 C   0  0  0  0  0  0  0  0  0  0  0  0
   -2.6500   21.1390  -33.4800 S   0  0  0  0  0  0  0  0  0  0  0  0
   -4.2590   20.4160  -33.1630 C   0  0  0  0  0  0  0  0  0  0  0  0
   -5.3270   21.2300  -32.7630 C   0  0  0  0  0  0  0  0  0  0  0  0
   -6.5810   20.6660  -32.5100 C   0  0  0  0  0  0  0  0  0  0  0  0
   -6.7730   19.2880  -32.6620 C   0  0  0  0  0  0  0  0  0  0  0  0
   -8.3450   18.5810  -32.3440 Cl  0  0  0  0  0  0  0  0  0  0  0  0
   -5.7090   18.4750  -33.0690 C   0  0  0  0  0  0  0  0  0  0  0  0
   -4.4540   19.0390  -33.3220 C   0  0  0  0  0  0  0  0  0  0  0  0
   -8.7417   22.9654  -30.7586 H   0  0  0  0  0  0  0  0  0  0  0  0
   -8.9574   23.8572  -32.3029 H   0  0  0  0  0  0  0  0  0  0  0  0
   -8.1874   22.2343  -32.3029 H   0  0  0  0  0  0  0  0  0  0  0  0
   -6.1542   23.0937  -31.8308 H   0  0  0  0  0  0  0  0  0  0  0  0
   -6.8943   24.7140  -32.2068 H   0  0  0  0  0  0  0  0  0  0  0  0
   -6.6771   25.3909  -30.1010 H   0  0  0  0  0  0  0  0  0  0  0  0
   -7.4913   23.8717  -29.4976 H   0  0  0  0  0  0  0  0  0  0  0  0
   -5.1927   24.2566  -28.5456 H   0  0  0  0  0  0  0  0  0  0  0  0
   -5.4109   22.6904  -29.4380 H   0  0  0  0  0  0  0  0  0  0  0  0
   -2.8131   22.7103  -28.7680 H   0  0  0  0  0  0  0  0  0  0  0  0
    1.6713   22.0705  -27.0758 H   0  0  0  0  0  0  0  0  0  0  0  0
    0.7190   22.3367  -28.5853 H   0  0  0  0  0  0  0  0  0  0  0  0
    1.3547   24.4416  -26.4589 H   0  0  0  0  0  0  0  0  0  0  0  0
    2.1277   24.2612  -28.1103 H   0  0  0  0  0  0  0  0  0  0  0  0
   -1.8114   25.2244  -28.1491 H   0  0  0  0  0  0  0  0  0  0  0  0
   -1.1176   23.7835  -29.0288 H   0  0  0  0  0  0  0  0  0  0  0  0
   -1.3337   24.1138  -26.0052 H   0  0  0  0  0  0  0  0  0  0  0  0
   -2.3668   23.0663  -27.0709 H   0  0  0  0  0  0  0  0  0  0  0  0
   -0.3207   19.2646  -29.5666 H   0  0  0  0  0  0  0  0  0  0  0  0
   -0.9207   19.3886  -31.9823 H   0  0  0  0  0  0  0  0  0  0  0  0
   -5.1787   22.3139  -32.6479 H   0  0  0  0  0  0  0  0  0  0  0  0
   -7.4172   21.3057  -32.1913 H   0  0  0  0  0  0  0  0  0  0  0  0
   -5.8596   17.3921  -33.1900 H   0  0  0  0  0  0  0  0  0  0  0  0
   -3.6196   18.3997  -33.6462 H   0  0  0  0  0  0  0  0  0  0  0  0
  1  2  1  0
  2  3  1  0
  3  4  1  0
  4  5  1  0
  5  6  2  0
  5  7  1  0
  7  8  1  0
  8  9  2  0
  9 10  1  0
 10 11  1  0
 11 12  2  0
 11 13  2  0
 11 14  1  0
 14 15  1  0
 15 16  1  0
 16 17  1  0
 17 18  1  0
 18 19  1  0
 10 20  2  0
 20 21  1  0
 21 22  2  0
 22 23  1  0
 23 24  1  0
 24 25  2  0
 25 26  1  0
 26 27  2  0
 27 28  1  0
 27 29  1  0
 29 30  2  0
 22  8  1  0
 30 24  1  0
 19 14  1  0
  1 31  1  0
  1 32  1  0
  1 33  1  0
  2 34  1  0
  2 35  1  0
  3 36  1  0
  3 37  1  0
  4 38  1  0
  4 39  1  0
  9 40  1  0
 15 41  1  0
 15 42  1  0
 16 43  1  0
 16 44  1  0
 18 45  1  0
 18 46  1  0
 19 47  1  0
 19 48  1  0
 20 49  1  0
 21 50  1  0
 25 51  1  0
 26 52  1  0
 29 53  1  0
 30 54  1  0
M  CHG  1   7  -1
M  END
>  <UniqueID>  (18) 
18

>  <SMILES>  (18) 
CCCCC(=O)[N-]c1cc(S(=O)(=O)N2CCOCC2)ccc1Sc1ccc(Cl)cc1

>  <Energy>  (18) 
65.80094270829599

>  <Genealogy>  (18) 
CCCCC(=O)[N-]c1cc(S(=O)(=O)N2CCOCC2)ccc1Sc1ccc(Cl)cc1 (protonated)
CCCCC(=O)[N-]c1cc(S(=O)(=O)N2CCOCC2)ccc1Sc1ccc(Cl)cc1 (3D coordinates assigned)
CCCCC(=O)[N-]c1cc(S(=O)(=O)N2CCOCC2)ccc1Sc1ccc(Cl)cc1 (nonaromatic ring conformer: 65.80094270829599 kcal/mol)

>  <smiles>  (18) 
CCCCC(=O)Nc1cc(S(=O)(=O)N2CCOCC2)ccc1Sc1ccc(Cl)cc1

>  <score_type>  (18) 
oracle

>  <origin>  (18) 
adgpu

>  <m_score__min__energy>  (18) 
-10.56

>  <m_primary>  (18) 
energy

$$$$
18:0
     RDKit          3D

 70 73  0  0  0  0  0  0  0  0999 V2000
    2.5200   20.4180  -34.2050 C   0  0  0  0  0  0  0  0  0  0  0  0
    1.0700   20.3620  -33.8080 C   0  0  0  0  0  0  0  0  0  0  0  0
    0.1120   21.0480  -34.5670 C   0  0  0  0  0  0  0  0  0  0  0  0
   -1.2300   21.0330  -34.1940 C   0  0  0  0  0  0  0  0  0  0  0  0
   -1.6400   20.3190  -33.0600 C   0  0  0  0  0  0  0  0  0  0  0  0
   -3.0170   20.3180  -32.6470 N   0  0  0  0  0  0  0  0  0  0  0  0
   -4.0280   19.5420  -33.3170 C   0  0  0  0  0  0  0  0  0  0  0  0
   -3.7370   18.8940  -34.3580 O   0  0  0  0  0  0  0  0  0  0  0  0
   -5.4330   19.5550  -32.8500 C   0  0  0  0  0  0  0  0  0  0  0  0
   -6.1580   18.3540  -32.8050 C   0  0  0  0  0  0  0  0  0  0  0  0
   -7.4910   18.3530  -32.4040 C   0  0  0  0  0  0  0  0  0  0  0  0
   -8.1120   19.5430  -32.0260 C   0  0  0  0  0  0  0  0  0  0  0  0
   -7.4050   20.7660  -32.0190 C   0  0  0  0  0  0  0  0  0  0  0  0
   -8.1350   22.0590  -31.6020 C   0  0  0  0  0  0  0  0  0  0  0  0
   -9.6270   21.9260  -31.9690 C   0  0  0  0  0  0  0  0  0  0  0  0
   -7.9980   22.2800  -30.0770 C   0  0  0  0  0  0  0  0  0  0  0  0
   -7.5790   23.3230  -32.3020 C   0  0  0  0  0  0  0  0  0  0  0  0
   -6.0550   20.7520  -32.4530 C   0  0  0  0  0  0  0  0  0  0  0  0
   -0.6920   19.5930  -32.3230 C   0  0  0  0  0  0  0  0  0  0  0  0
    0.6770   19.6520  -32.6560 C   0  0  0  0  0  0  0  0  0  0  0  0
    1.6850   19.0200  -31.9030 O   0  0  0  0  0  0  0  0  0  0  0  0
    2.0380   19.2290  -30.5620 C   0  0  0  0  0  0  0  0  0  0  0  0
    3.3200   18.8590  -30.1490 C   0  0  0  0  0  0  0  0  0  0  0  0
    3.6930   19.0930  -28.8280 C   0  0  0  0  0  0  0  0  0  0  0  0
    2.8060   19.6480  -27.9640 N   0  0  0  0  0  0  0  0  0  0  0  0
    1.5570   19.9970  -28.3670 C   0  0  0  0  0  0  0  0  0  0  0  0
    0.7120   20.4510  -27.4880 N   0  0  0  0  0  0  0  0  0  0  0  0
   -0.6420   20.8410  -27.7460 C   0  0  0  0  0  0  0  0  0  0  0  0
   -1.7170   19.9590  -27.5390 C   0  0  0  0  0  0  0  0  0  0  0  0
   -3.0230   20.3700  -27.8170 C   0  0  0  0  0  0  0  0  0  0  0  0
   -3.2710   21.6660  -28.2820 C   0  0  0  0  0  0  0  0  0  0  0  0
   -2.2030   22.5470  -28.5150 C   0  0  0  0  0  0  0  0  0  0  0  0
   -2.4580   23.9540  -28.9840 C   0  0  0  0  0  0  0  0  0  0  0  0
   -3.7880   23.9800  -30.1770 S   0  0  0  0  0  0  0  0  0  0  0  0
   -5.3340   23.6420  -29.3640 C   0  0  0  0  0  0  0  0  0  0  0  0
   -3.5500   22.9280  -31.2210 O   0  0  0  0  0  0  0  0  0  0  0  0
   -3.8550   25.3280  -30.8370 O   0  0  0  0  0  0  0  0  0  0  0  0
   -0.8900   22.1190  -28.2640 C   0  0  0  0  0  0  0  0  0  0  0  0
    1.1880   19.7940  -29.6630 N   0  0  0  0  0  0  0  0  0  0  0  0
    3.1469   20.4422  -33.3014 H   0  0  0  0  0  0  0  0  0  0  0  0
    2.7713   19.5289  -34.8019 H   0  0  0  0  0  0  0  0  0  0  0  0
    2.7020   21.3238  -34.8019 H   0  0  0  0  0  0  0  0  0  0  0  0
    0.4225   21.6028  -35.4647 H   0  0  0  0  0  0  0  0  0  0  0  0
   -1.9709   21.5838  -34.7920 H   0  0  0  0  0  0  0  0  0  0  0  0
   -3.3260   21.0720  -31.9910 H   0  0  0  0  0  0  0  0  0  0  0  0
   -5.6706   17.4093  -33.0879 H   0  0  0  0  0  0  0  0  0  0  0  0
   -8.0567   17.4098  -32.3852 H   0  0  0  0  0  0  0  0  0  0  0  0
   -9.1708   19.5291  -31.7281 H   0  0  0  0  0  0  0  0  0  0  0  0
  -10.2275   21.8725  -31.0490 H   0  0  0  0  0  0  0  0  0  0  0  0
   -9.9386   22.7999  -32.5599 H   0  0  0  0  0  0  0  0  0  0  0  0
   -9.7791   21.0107  -32.5599 H   0  0  0  0  0  0  0  0  0  0  0  0
   -8.5042   21.4635  -29.5412 H   0  0  0  0  0  0  0  0  0  0  0  0
   -6.9328   22.2936  -29.8027 H   0  0  0  0  0  0  0  0  0  0  0  0
   -8.4596   23.2401  -29.8027 H   0  0  0  0  0  0  0  0  0  0  0  0
   -7.2585   24.0516  -31.5428 H   0  0  0  0  0  0  0  0  0  0  0  0
   -6.7196   23.0461  -32.9303 H   0  0  0  0  0  0  0  0  0  0  0  0
   -8.3638   23.7694  -32.9303 H   0  0  0  0  0  0  0  0  0  0  0  0
   -5.4853   21.6926  -32.4795 H   0  0  0  0  0  0  0  0  0  0  0  0
   -1.0201   18.9715  -31.4768 H   0  0  0  0  0  0  0  0  0  0  0  0
    4.0223   18.3912  -30.8546 H   0  0  0  0  0  0  0  0  0  0  0  0
    4.7044   18.8286  -28.4856 H   0  0  0  0  0  0  0  0  0  0  0  0
   -1.5297   18.9443  -27.1578 H   0  0  0  0  0  0  0  0  0  0  0  0
   -3.8600   19.6716  -27.6696 H   0  0  0  0  0  0  0  0  0  0  0  0
   -4.3044   21.9952  -28.4653 H   0  0  0  0  0  0  0  0  0  0  0  0
   -2.7320   24.5797  -28.1217 H   0  0  0  0  0  0  0  0  0  0  0  0
   -1.5451   24.3436  -29.4581 H   0  0  0  0  0  0  0  0  0  0  0  0
   -5.1896   23.6736  -28.2740 H   0  0  0  0  0  0  0  0  0  0  0  0
   -6.0759   24.3992  -29.6577 H   0  0  0  0  0  0  0  0  0  0  0  0
   -5.6923   22.6443  -29.6577 H   0  0  0  0  0  0  0  0  0  0  0  0
   -0.0474   22.7936  -28.4761 H   0  0  0  0  0  0  0  0  0  0  0  0
  1  2  1  0
  2  3  2  0
  3  4  1  0
  4  5  2  0
  5  6  1  0
  6  7  1  0
  7  8  2  0
  7  9  1  0
  9 10  2  0
 10 11  1  0
 11 12  2  0
 12 13  1  0
 13 14  1  0
 14 15  1  0
 14 16  1  0
 14 17  1  0
 13 18  2  0
  5 19  1  0
 19 20  2  0
 20 21  1  0
 21 22  1  0
 22 23  1  0
 23 24  2  0
 24 25  1  0
 25 26  1  0
 26 27  2  3
 27 28  1  0
 28 29  2  0
 29 30  1  0
 30 31  2  0
 31 32  1  0
 32 33  1  0
 33 34  1  0
 34 35  1  0
 34 36  2  0
 34 37  2  0
 32 38  2  0
 26 39  1  0
 20  2  1  0
 39 22  2  0
 18  9  1  0
 38 28  1  0
  1 40  1  0
  1 41  1  0
  1 42  1  0
  3 43  1  0
  4 44  1  0
  6 45  1  0
 10 46  1  0
 11 47  1  0
 12 48  1  0
 15 49  1  0
 15 50  1  0
 15 51  1  0
 16 52  1  0
 16 53  1  0
 16 54  1  0
 17 55  1  0
 17 56  1  0
 17 57  1  0
 18 58  1  0
 19 59  1  0
 23 60  1  0
 24 61  1  0
 29 62  1  0
 30 63  1  0
 31 64  1  0
 33 65  1  0
 33 66  1  0
 35 67  1  0
 35 68  1  0
 35 69  1  0
 38 70  1  0
M  CHG  1  25  -1
M  END
>  <UniqueID>  (19) 
19

>  <SMILES>  (19) 
Cc1ccc(NC(=O)c2cccc(C(C)(C)C)c2)cc1Oc1cc[n-]c(=Nc2cccc(CS(C)(=O)=O)c2)n1

>  <Energy>  (19) 
79.94096620971597

>  <Genealogy>  (19) 
Cc1ccc(NC(=O)c2cccc(C(C)(C)C)c2)cc1Oc1cc[n-]c(=Nc2cccc(CS(C)(=O)=O)c2)n1 (protonated)
Cc1ccc(NC(=O)c2cccc(C(C)(C)C)c2)cc1Oc1cc[n-]c(=Nc2cccc(CS(C)(=O)=O)c2)n1 (3D coordinates assigned)
Cc1ccc(NC(=O)c2cccc(C(C)(C)C)c2)cc1Oc1cc[n-]c(=Nc2cccc(CS(C)(=O)=O)c2)n1 (optimized conformer: 79.94096620971597 kcal/mol)

>  <smiles>  (19) 
Cc1ccc(NC(=O)c2cccc(C(C)(C)C)c2)cc1Oc1cc[nH]c(=Nc2cccc(CS(C)(=O)=O)c2)n1

>  <score_type>  (19) 
oracle

>  <origin>  (19) 
adgpu

>  <m_score__min__energy>  (19) 
-11.99

>  <m_primary>  (19) 
energy

$$$$
19:0
     RDKit          3D

 65 69  0  0  0  0  0  0  0  0999 V2000
   -3.4610   18.7220  -25.9790 C   0  0  0  0  0  0  0  0  0  0  0  0
   -2.4130   19.2390  -26.9180 C   0  0  0  0  0  0  0  0  0  0  0  0
   -1.2490   18.4920  -27.1560 C   0  0  0  0  0  0  0  0  0  0  0  0
   -0.2560   18.9890  -28.0030 C   0  0  0  0  0  0  0  0  0  0  0  0
   -0.4100   20.2380  -28.6090 C   0  0  0  0  0  0  0  0  0  0  0  0
   -1.5610   21.0090  -28.3600 C   0  0  0  0  0  0  0  0  0  0  0  0
   -1.7570   22.2690  -28.9430 O   0  0  0  0  0  0  0  0  0  0  0  0
   -1.2550   23.4620  -28.4140 C   0  0  0  0  0  0  0  0  0  0  0  0
    0.1080   23.5430  -28.1100 C   0  0  0  0  0  0  0  0  0  0  0  0
    0.6450   24.7120  -27.5720 C   0  0  0  0  0  0  0  0  0  0  0  0
   -0.1780   25.8200  -27.3350 C   0  0  0  0  0  0  0  0  0  0  0  0
    0.5020   27.3180  -26.7010 S   0  0  0  0  0  0  0  0  0  0  0  0
    1.9870   27.3020  -26.9350 O   0  0  0  0  0  0  0  0  0  0  0  0
   -0.0790   28.4900  -27.4430 O   0  0  0  0  0  0  0  0  0  0  0  0
    0.1920   27.4600  -24.9810 N   0  0  0  0  0  0  0  0  0  0  0  0
    1.3610   27.0660  -24.1740 C   0  0  0  0  0  0  0  0  0  0  0  0
    1.5800   25.5360  -24.1680 C   0  0  0  0  0  0  0  0  0  0  0  0
    0.4360   24.7960  -24.5580 O   0  0  0  0  0  0  0  0  0  0  0  0
   -0.7240   25.3440  -23.9740 C   0  0  0  0  0  0  0  0  0  0  0  0
   -1.0290   26.7250  -24.5840 C   0  0  0  0  0  0  0  0  0  0  0  0
   -1.5410   25.7520  -27.6510 C   0  0  0  0  0  0  0  0  0  0  0  0
   -2.0910   24.5830  -28.2050 C   0  0  0  0  0  0  0  0  0  0  0  0
   -3.5570   24.5430  -28.5650 C   0  0  0  0  0  0  0  0  0  0  0  0
   -3.7450   24.7280  -30.0010 N   0  0  0  0  0  0  0  0  0  0  0  0
   -4.4680   23.8410  -30.8640 C   0  0  0  0  0  0  0  0  0  0  0  0
   -5.3610   24.3220  -31.6110 O   0  0  0  0  0  0  0  0  0  0  0  0
   -4.1900   22.4320  -30.8920 N   0  0  0  0  0  0  0  0  0  0  0  0
   -4.9630   21.5200  -31.6850 C   0  0  0  0  0  0  0  0  0  0  0  0
   -6.3610   21.5640  -31.5840 C   0  0  0  0  0  0  0  0  0  0  0  0
   -7.1560   20.7050  -32.3440 C   0  0  0  0  0  0  0  0  0  0  0  0
   -6.5670   19.7830  -33.2090 C   0  0  0  0  0  0  0  0  0  0  0  0
   -5.1700   19.7030  -33.3080 C   0  0  0  0  0  0  0  0  0  0  0  0
   -4.5660   18.7650  -34.1560 C   0  0  0  0  0  0  0  0  0  0  0  0
   -3.2110   18.6810  -34.2260 N   0  0  0  0  0  0  0  0  0  0  0  0
   -2.4040   19.4850  -33.4860 C   0  0  0  0  0  0  0  0  0  0  0  0
   -2.9550   20.4350  -32.6250 C   0  0  0  0  0  0  0  0  0  0  0  0
   -4.3540   20.5690  -32.5370 C   0  0  0  0  0  0  0  0  0  0  0  0
   -2.5550   20.5030  -27.5140 C   0  0  0  0  0  0  0  0  0  0  0  0
   -3.1348   18.8829  -24.9409 H   0  0  0  0  0  0  0  0  0  0  0  0
   -4.4060   19.2573  -26.1535 H   0  0  0  0  0  0  0  0  0  0  0  0
   -3.6113   17.6464  -26.1535 H   0  0  0  0  0  0  0  0  0  0  0  0
   -1.1184   17.5119  -26.6739 H   0  0  0  0  0  0  0  0  0  0  0  0
    0.6501   18.3951  -28.1934 H   0  0  0  0  0  0  0  0  0  0  0  0
    0.3707   20.6203  -29.2830 H   0  0  0  0  0  0  0  0  0  0  0  0
    0.7612   22.6779  -28.2968 H   0  0  0  0  0  0  0  0  0  0  0  0
    1.7175   24.7640  -27.3332 H   0  0  0  0  0  0  0  0  0  0  0  0
    2.2572   27.5501  -24.5894 H   0  0  0  0  0  0  0  0  0  0  0  0
    1.1771   27.3840  -23.1371 H   0  0  0  0  0  0  0  0  0  0  0  0
    2.3999   25.2997  -24.8622 H   0  0  0  0  0  0  0  0  0  0  0  0
    1.8117   25.2481  -23.1319 H   0  0  0  0  0  0  0  0  0  0  0  0
   -1.5747   24.6709  -24.1565 H   0  0  0  0  0  0  0  0  0  0  0  0
   -0.5596   25.4592  -22.8925 H   0  0  0  0  0  0  0  0  0  0  0  0
   -1.6593   26.5842  -25.4744 H   0  0  0  0  0  0  0  0  0  0  0  0
   -1.5382   27.3219  -23.8130 H   0  0  0  0  0  0  0  0  0  0  0  0
   -2.1874   26.6221  -27.4637 H   0  0  0  0  0  0  0  0  0  0  0  0
   -3.9742   23.5690  -28.2695 H   0  0  0  0  0  0  0  0  0  0  0  0
   -4.0719   25.3577  -28.0348 H   0  0  0  0  0  0  0  0  0  0  0  0
   -3.5550   22.0180  -30.1760 H   0  0  0  0  0  0  0  0  0  0  0  0
   -6.8354   22.2824  -30.8993 H   0  0  0  0  0  0  0  0  0  0  0  0
   -8.2517   20.7553  -32.2605 H   0  0  0  0  0  0  0  0  0  0  0  0
   -7.1992   19.1172  -33.8148 H   0  0  0  0  0  0  0  0  0  0  0  0
   -5.1897   18.0952  -34.7663 H   0  0  0  0  0  0  0  0  0  0  0  0
   -1.3113   19.3868  -33.5658 H   0  0  0  0  0  0  0  0  0  0  0  0
   -2.2993   21.0763  -32.0177 H   0  0  0  0  0  0  0  0  0  0  0  0
   -3.4562   21.1012  -27.3140 H   0  0  0  0  0  0  0  0  0  0  0  0
  1  2  1  0
  2  3  2  0
  3  4  1  0
  4  5  2  0
  5  6  1  0
  6  7  1  0
  7  8  1  0
  8  9  2  0
  9 10  1  0
 10 11  2  0
 11 12  1  0
 12 13  2  0
 12 14  2  0
 12 15  1  0
 15 16  1  0
 16 17  1  0
 17 18  1  0
 18 19  1  0
 19 20  1  0
 11 21  1  0
 21 22  2  0
 22 23  1  0
 23 24  1  0
 24 25  1  0
 25 26  2  0
 25 27  1  0
 27 28  1  0
 28 29  2  0
 29 30  1  0
 30 31  2  0
 31 32  1  0
 32 33  2  0
 33 34  1  0
 34 35  2  0
 35 36  1  0
 36 37  2  0
  6 38  2  0
 38  2  1  0
 22  8  1  0
 37 28  1  0
 20 15  1  0
 37 32  1  0
  1 39  1  0
  1 40  1  0
  1 41  1  0
  3 42  1  0
  4 43  1  0
  5 44  1  0
  9 45  1  0
 10 46  1  0
 16 47  1  0
 16 48  1  0
 17 49  1  0
 17 50  1  0
 19 51  1  0
 19 52  1  0
 20 53  1  0
 20 54  1  0
 21 55  1  0
 23 56  1  0
 23 57  1  0
 27 58  1  0
 29 59  1  0
 30 60  1  0
 31 61  1  0
 33 62  1  0
 35 63  1  0
 36 64  1  0
 38 65  1  0
M  CHG  1  24  -1
M  END
>  <UniqueID>  (20) 
20

>  <SMILES>  (20) 
Cc1cccc(Oc2ccc(S(=O)(=O)N3CCOCC3)cc2C[N-]C(=O)Nc2cccc3cnccc23)c1

>  <Energy>  (20) 
96.5349109176363

>  <Genealogy>  (20) 
Cc1cccc(Oc2ccc(S(=O)(=O)N3CCOCC3)cc2C[N-]C(=O)Nc2cccc3cnccc23)c1 (protonated)
Cc1cccc(Oc2ccc(S(=O)(=O)N3CCOCC3)cc2C[N-]C(=O)Nc2cccc3cnccc23)c1 (3D coordinates assigned)
Cc1cccc(Oc2ccc(S(=O)(=O)N3CCOCC3)cc2C[N-]C(=O)Nc2cccc3cnccc23)c1 (nonaromatic ring conformer: 96.5349109176363 kcal/mol)

>  <smiles>  (20) 
Cc1cccc(Oc2ccc(S(=O)(=O)N3CCOCC3)cc2CNC(=O)Nc2cccc3cnccc23)c1

>  <score_type>  (20) 
oracle

>  <origin>  (20) 
adgpu

>  <m_score__min__energy>  (20) 
-11.720000000000001

>  <m_primary>  (20) 
energy

$$$$
20:0
     RDKit          3D

 37 39  0  0  0  0  0  0  0  0999 V2000
    0.1280   25.4900  -26.6320 C   0  0  0  0  0  0  0  0  0  0  0  0
   -0.1950   24.2630  -27.2760 O   0  0  0  0  0  0  0  0  0  0  0  0
   -1.3620   23.9890  -28.0160 C   0  0  0  0  0  0  0  0  0  0  0  0
   -2.0410   22.7830  -27.7430 C   0  0  0  0  0  0  0  0  0  0  0  0
   -1.5540   21.8900  -26.6690 C   0  0  0  0  0  0  0  0  0  0  0  0
   -0.5370   21.0200  -26.7850 C   0  0  0  0  0  0  0  0  0  0  0  0
    0.3790   20.9080  -27.9470 C   0  0  0  0  0  0  0  0  0  0  0  0
    1.5810   21.2780  -27.8570 O   0  0  0  0  0  0  0  0  0  0  0  0
   -0.0980   20.3610  -29.2370 C   0  0  0  0  0  0  0  0  0  0  0  0
   -0.7230   21.2220  -30.1520 C   0  0  0  0  0  0  0  0  0  0  0  0
   -1.1890   20.7310  -31.3780 C   0  0  0  0  0  0  0  0  0  0  0  0
   -1.8320   21.5700  -32.3020 C   0  0  0  0  0  0  0  0  0  0  0  0
   -2.2900   21.0480  -33.5170 C   0  0  0  0  0  0  0  0  0  0  0  0
   -2.1080   19.6940  -33.8140 C   0  0  0  0  0  0  0  0  0  0  0  0
   -1.4670   18.8520  -32.8990 C   0  0  0  0  0  0  0  0  0  0  0  0
   -1.0070   19.3650  -31.6810 C   0  0  0  0  0  0  0  0  0  0  0  0
   -0.3780   18.5530  -30.7920 N   0  0  0  0  0  0  0  0  0  0  0  0
    0.0830   19.0080  -29.5960 C   0  0  0  0  0  0  0  0  0  0  0  0
    0.6930   18.2120  -28.8340 O   0  0  0  0  0  0  0  0  0  0  0  0
   -3.2290   22.4750  -28.4230 C   0  0  0  0  0  0  0  0  0  0  0  0
   -3.7220   23.3330  -29.4040 C   0  0  0  0  0  0  0  0  0  0  0  0
   -3.0480   24.5160  -29.7030 C   0  0  0  0  0  0  0  0  0  0  0  0
   -3.5500   25.3630  -30.6840 O   0  0  0  0  0  0  0  0  0  0  0  0
   -1.8750   24.8550  -29.0160 C   0  0  0  0  0  0  0  0  0  0  0  0
   -1.2410   26.0480  -29.3410 O   0  0  0  0  0  0  0  0  0  0  0  0
    0.0917   25.3523  -25.5413 H   0  0  0  0  0  0  0  0  0  0  0  0
    1.1395   25.8045  -26.9284 H   0  0  0  0  0  0  0  0  0  0  0  0
   -0.5976   26.2618  -26.9284 H   0  0  0  0  0  0  0  0  0  0  0  0
   -2.0660   21.9426  -25.6968 H   0  0  0  0  0  0  0  0  0  0  0  0
   -0.3685   20.3302  -25.9449 H   0  0  0  0  0  0  0  0  0  0  0  0
   -0.8474   22.2867  -29.9053 H   0  0  0  0  0  0  0  0  0  0  0  0
   -1.9756   22.6359  -32.0713 H   0  0  0  0  0  0  0  0  0  0  0  0
   -2.7947   21.7050  -34.2406 H   0  0  0  0  0  0  0  0  0  0  0  0
   -2.4701   19.2893  -34.7706 H   0  0  0  0  0  0  0  0  0  0  0  0
   -1.3247   17.7875  -33.1368 H   0  0  0  0  0  0  0  0  0  0  0  0
   -3.7743   21.5510  -28.1803 H   0  0  0  0  0  0  0  0  0  0  0  0
   -4.6454   23.0762  -29.9438 H   0  0  0  0  0  0  0  0  0  0  0  0
  1  2  1  0
  2  3  1  0
  3  4  2  0
  4  5  1  0
  5  6  2  3
  6  7  1  0
  7  8  2  0
  7  9  1  0
  9 10  2  0
 10 11  1  0
 11 12  2  0
 12 13  1  0
 13 14  2  0
 14 15  1  0
 15 16  2  0
 16 17  1  0
 17 18  1  0
 18 19  2  0
  4 20  1  0
 20 21  2  0
 21 22  1  0
 22 23  1  0
 22 24  2  0
 24 25  1  0
 24  3  1  0
 18  9  1  0
 16 11  1  0
  1 26  1  0
  1 27  1  0
  1 28  1  0
  5 29  1  0
  6 30  1  0
 10 31  1  0
 12 32  1  0
 13 33  1  0
 14 34  1  0
 15 35  1  0
 20 36  1  0
 21 37  1  0
M  CHG  3  17  -1  23  -1  25  -1
M  END
>  <UniqueID>  (21) 
21

>  <SMILES>  (21) 
COc1c(C=CC(=O)c2cc3ccccc3[n-]c2=O)ccc([O-])c1[O-]

>  <Energy>  (21) 
60.45517146321178

>  <Genealogy>  (21) 
COc1c(C=CC(=O)c2cc3ccccc3[n-]c2=O)ccc([O-])c1[O-] (protonated)
COc1c(C=CC(=O)c2cc3ccccc3[n-]c2=O)ccc([O-])c1[O-] (3D coordinates assigned)
COc1c(C=CC(=O)c2cc3ccccc3[n-]c2=O)ccc([O-])c1[O-] (optimized conformer: 60.45517146321178 kcal/mol)

>  <smiles>  (21) 
COc1c(C=CC(=O)c2cc3ccccc3[nH]c2=O)ccc(O)c1O

>  <score_type>  (21) 
oracle

>  <origin>  (21) 
adgpu

>  <m_score__min__energy>  (21) 
-12.92

>  <m_primary>  (21) 
energy

$$$$
21:0
     RDKit          3D

 51 53  0  0  0  0  0  0  0  0999 V2000
   -8.8320   19.9340  -31.5780 C   0  0  0  0  0  0  0  0  0  0  0  0
   -8.3740   21.0850  -32.2800 O   0  0  0  0  0  0  0  0  0  0  0  0
   -7.6200   22.1170  -31.7030 C   0  0  0  0  0  0  0  0  0  0  0  0
   -7.5940   22.3480  -30.3130 C   0  0  0  0  0  0  0  0  0  0  0  0
   -6.8280   23.3910  -29.7860 C   0  0  0  0  0  0  0  0  0  0  0  0
   -6.0800   24.2210  -30.6350 C   0  0  0  0  0  0  0  0  0  0  0  0
   -5.2710   25.3600  -30.0730 C   0  0  0  0  0  0  0  0  0  0  0  0
   -3.8790   25.2970  -30.5290 N   0  0  0  0  0  0  0  0  0  0  0  0
   -2.8500   24.5420  -29.3440 S   0  0  0  0  0  0  0  0  0  0  0  0
   -3.5190   24.5890  -27.9980 O   0  0  0  0  0  0  0  0  0  0  0  0
   -1.5590   25.3060  -29.2590 O   0  0  0  0  0  0  0  0  0  0  0  0
   -2.4860   22.8760  -29.7890 C   0  0  0  0  0  0  0  0  0  0  0  0
   -1.6320   22.0920  -29.0000 C   0  0  0  0  0  0  0  0  0  0  0  0
   -1.3710   20.7660  -29.3540 C   0  0  0  0  0  0  0  0  0  0  0  0
   -1.9550   20.2180  -30.4990 C   0  0  0  0  0  0  0  0  0  0  0  0
   -2.7950   21.0000  -31.3060 C   0  0  0  0  0  0  0  0  0  0  0  0
   -3.5560   20.3040  -32.7350 S   0  0  0  0  0  0  0  0  0  0  0  0
   -3.2960   21.2040  -33.9110 O   0  0  0  0  0  0  0  0  0  0  0  0
   -2.9050   18.9790  -33.0270 O   0  0  0  0  0  0  0  0  0  0  0  0
   -5.2820   20.0570  -32.5650 N   0  0  0  0  0  0  0  0  0  0  0  0
   -5.6580   19.0450  -31.5570 C   0  0  0  0  0  0  0  0  0  0  0  0
   -5.7190   17.6210  -32.1210 C   0  0  0  0  0  0  0  0  0  0  0  0
   -6.6060   17.5670  -33.3590 C   0  0  0  0  0  0  0  0  0  0  0  0
   -6.0930   18.5430  -34.4100 C   0  0  0  0  0  0  0  0  0  0  0  0
   -6.0120   19.9700  -33.8460 C   0  0  0  0  0  0  0  0  0  0  0  0
   -3.0720   22.3230  -30.9340 C   0  0  0  0  0  0  0  0  0  0  0  0
   -6.1040   23.9890  -32.0190 C   0  0  0  0  0  0  0  0  0  0  0  0
   -6.8680   22.9440  -32.5450 C   0  0  0  0  0  0  0  0  0  0  0  0
   -8.7609   20.1127  -30.4949 H   0  0  0  0  0  0  0  0  0  0  0  0
   -9.8790   19.7321  -31.8484 H   0  0  0  0  0  0  0  0  0  0  0  0
   -8.2100   19.0680  -31.8484 H   0  0  0  0  0  0  0  0  0  0  0  0
   -8.1794   21.7043  -29.6399 H   0  0  0  0  0  0  0  0  0  0  0  0
   -6.8112   23.5624  -28.6996 H   0  0  0  0  0  0  0  0  0  0  0  0
   -5.7138   26.3115  -30.4025 H   0  0  0  0  0  0  0  0  0  0  0  0
   -5.2818   25.2867  -28.9755 H   0  0  0  0  0  0  0  0  0  0  0  0
   -1.1668   22.5219  -28.1007 H   0  0  0  0  0  0  0  0  0  0  0  0
   -0.7045   20.1522  -28.7302 H   0  0  0  0  0  0  0  0  0  0  0  0
   -1.7556   19.1703  -30.7685 H   0  0  0  0  0  0  0  0  0  0  0  0
   -4.9155   19.0677  -30.7457 H   0  0  0  0  0  0  0  0  0  0  0  0
   -6.6678   19.2983  -31.2019 H   0  0  0  0  0  0  0  0  0  0  0  0
   -4.7033   17.2960  -32.3906 H   0  0  0  0  0  0  0  0  0  0  0  0
   -6.1428   16.9559  -31.3542 H   0  0  0  0  0  0  0  0  0  0  0  0
   -6.5938   16.5475  -33.7718 H   0  0  0  0  0  0  0  0  0  0  0  0
   -7.6333   17.8439  -33.0797 H   0  0  0  0  0  0  0  0  0  0  0  0
   -5.0905   18.2274  -34.7346 H   0  0  0  0  0  0  0  0  0  0  0  0
   -6.7922   18.5418  -35.2592 H   0  0  0  0  0  0  0  0  0  0  0  0
   -5.5000   20.6068  -34.5824 H   0  0  0  0  0  0  0  0  0  0  0  0
   -7.0433   20.3007  -33.6536 H   0  0  0  0  0  0  0  0  0  0  0  0
   -3.7546   22.9309  -31.5460 H   0  0  0  0  0  0  0  0  0  0  0  0
   -5.5189   24.6325  -32.6924 H   0  0  0  0  0  0  0  0  0  0  0  0
   -6.8785   22.7698  -33.6311 H   0  0  0  0  0  0  0  0  0  0  0  0
  1  2  1  0
  2  3  1  0
  3  4  2  0
  4  5  1  0
  5  6  2  0
  6  7  1  0
  7  8  1  0
  8  9  1  0
  9 10  2  0
  9 11  2  0
  9 12  1  0
 12 13  2  0
 13 14  1  0
 14 15  2  0
 15 16  1  0
 16 17  1  0
 17 18  2  0
 17 19  2  0
 17 20  1  0
 20 21  1  0
 21 22  1  0
 22 23  1  0
 23 24  1  0
 24 25  1  0
 16 26  2  0
  6 27  1  0
 27 28  2  0
 28  3  1  0
 26 12  1  0
 25 20  1  0
  1 29  1  0
  1 30  1  0
  1 31  1  0
  4 32  1  0
  5 33  1  0
  7 34  1  0
  7 35  1  0
 13 36  1  0
 14 37  1  0
 15 38  1  0
 21 39  1  0
 21 40  1  0
 22 41  1  0
 22 42  1  0
 23 43  1  0
 23 44  1  0
 24 45  1  0
 24 46  1  0
 25 47  1  0
 25 48  1  0
 26 49  1  0
 27 50  1  0
 28 51  1  0
M  CHG  1   8  -1
M  END
>  <UniqueID>  (22) 
22

>  <SMILES>  (22) 
COc1ccc(C[N-]S(=O)(=O)c2cccc(S(=O)(=O)N3CCCCC3)c2)cc1

>  <Energy>  (22) 
50.30301518095652

>  <Genealogy>  (22) 
COc1ccc(C[N-]S(=O)(=O)c2cccc(S(=O)(=O)N3CCCCC3)c2)cc1 (protonated)
COc1ccc(C[N-]S(=O)(=O)c2cccc(S(=O)(=O)N3CCCCC3)c2)cc1 (3D coordinates assigned)
COc1ccc(C[N-]S(=O)(=O)c2cccc(S(=O)(=O)N3CCCCC3)c2)cc1 (nonaromatic ring conformer: 50.30301518095652 kcal/mol)

>  <smiles>  (22) 
COc1ccc(CNS(=O)(=O)c2cccc(S(=O)(=O)N3CCCCC3)c2)cc1

>  <score_type>  (22) 
oracle

>  <origin>  (22) 
adgpu

>  <m_score__min__energy>  (22) 
-11.1

>  <m_primary>  (22) 
energy

$$$$
22:0
     RDKit          3D

 39 41  0  0  0  0  0  0  0  0999 V2000
   -9.2890   21.9810  -31.6460 C   0  0  0  0  0  0  0  0  0  0  0  0
   -7.7940   22.1040  -31.6450 C   0  0  0  0  0  0  0  0  0  0  0  0
   -7.0050   21.1270  -32.2580 C   0  0  0  0  0  0  0  0  0  0  0  0
   -5.6150   21.2440  -32.2590 C   0  0  0  0  0  0  0  0  0  0  0  0
   -4.9840   22.3420  -31.6480 C   0  0  0  0  0  0  0  0  0  0  0  0
   -3.4800   22.3890  -31.6430 C   0  0  0  0  0  0  0  0  0  0  0  0
   -5.7810   23.3520  -31.0470 C   0  0  0  0  0  0  0  0  0  0  0  0
   -5.1230   24.7620  -30.1880 S   0  0  0  0  0  0  0  0  0  0  0  0
   -6.1590   25.8500  -30.2230 O   0  0  0  0  0  0  0  0  0  0  0  0
   -3.8690   25.2980  -30.8180 O   0  0  0  0  0  0  0  0  0  0  0  0
   -4.8020   24.3550  -28.5230 N   0  0  0  0  0  0  0  0  0  0  0  0
   -3.5870   23.5430  -28.3950 C   0  0  0  0  0  0  0  0  0  0  0  0
   -2.7040   24.0790  -27.3100 C   0  0  0  0  0  0  0  0  0  0  0  0
   -1.4870   23.5420  -26.9200 C   0  0  0  0  0  0  0  0  0  0  0  0
   -0.9810   24.3680  -25.9960 N   0  0  0  0  0  0  0  0  0  0  0  0
    0.2090   24.3240  -25.3460 C   0  0  0  0  0  0  0  0  0  0  0  0
    0.5130   25.3630  -24.4540 C   0  0  0  0  0  0  0  0  0  0  0  0
   -0.4150   26.4060  -24.2630 C   0  0  0  0  0  0  0  0  0  0  0  0
   -1.6340   26.4090  -24.9610 C   0  0  0  0  0  0  0  0  0  0  0  0
   -1.8810   25.3530  -25.8350 C   0  0  0  0  0  0  0  0  0  0  0  0
   -2.9660   25.2180  -26.6230 N   0  0  0  0  0  0  0  0  0  0  0  0
   -7.1790   23.2230  -31.0680 C   0  0  0  0  0  0  0  0  0  0  0  0
   -9.6551   21.9509  -30.6092 H   0  0  0  0  0  0  0  0  0  0  0  0
   -9.7277   22.8461  -32.1648 H   0  0  0  0  0  0  0  0  0  0  0  0
   -9.5804   21.0558  -32.1648 H   0  0  0  0  0  0  0  0  0  0  0  0
   -7.4821   20.2620  -32.7418 H   0  0  0  0  0  0  0  0  0  0  0  0
   -5.0049   20.4676  -32.7438 H   0  0  0  0  0  0  0  0  0  0  0  0
   -3.1170   22.4003  -30.6047 H   0  0  0  0  0  0  0  0  0  0  0  0
   -3.0837   21.5028  -32.1603 H   0  0  0  0  0  0  0  0  0  0  0  0
   -3.1398   23.2982  -32.1603 H   0  0  0  0  0  0  0  0  0  0  0  0
   -4.6360   25.2580  -28.0240 H   0  0  0  0  0  0  0  0  0  0  0  0
   -3.8685   22.5075  -28.1530 H   0  0  0  0  0  0  0  0  0  0  0  0
   -3.0373   23.5763  -29.3472 H   0  0  0  0  0  0  0  0  0  0  0  0
   -1.0265   22.6168  -27.2966 H   0  0  0  0  0  0  0  0  0  0  0  0
    0.9151   23.4974  -25.5136 H   0  0  0  0  0  0  0  0  0  0  0  0
    1.4680   25.3636  -23.9081 H   0  0  0  0  0  0  0  0  0  0  0  0
   -0.1835   27.2226  -23.5633 H   0  0  0  0  0  0  0  0  0  0  0  0
   -2.3676   27.2168  -24.8223 H   0  0  0  0  0  0  0  0  0  0  0  0
   -7.8018   24.0136  -30.6241 H   0  0  0  0  0  0  0  0  0  0  0  0
  1  2  1  0
  2  3  2  0
  3  4  1  0
  4  5  2  0
  5  6  1  0
  5  7  1  0
  7  8  1  0
  8  9  2  0
  8 10  2  0
  8 11  1  0
 11 12  1  0
 12 13  1  0
 13 14  2  0
 14 15  1  0
 15 16  1  0
 16 17  2  0
 17 18  1  0
 18 19  2  0
 19 20  1  0
 20 21  2  0
  7 22  2  0
 22  2  1  0
 21 13  1  0
 20 15  1  0
  1 23  1  0
  1 24  1  0
  1 25  1  0
  3 26  1  0
  4 27  1  0
  6 28  1  0
  6 29  1  0
  6 30  1  0
 11 31  1  0
 12 32  1  0
 12 33  1  0
 14 34  1  0
 16 35  1  0
 17 36  1  0
 18 37  1  0
 19 38  1  0
 22 39  1  0
M  END
>  <UniqueID>  (23) 
23

>  <SMILES>  (23) 
Cc1ccc(C)c(S(=O)(=O)NCc2cn3ccccc3n2)c1

>  <Energy>  (23) 
70.39283957264283

>  <Genealogy>  (23) 
Cc1ccc(C)c(S(=O)(=O)NCc2cn3ccccc3n2)c1 (3D coordinates assigned)
Cc1ccc(C)c(S(=O)(=O)NCc2cn3ccccc3n2)c1 (optimized conformer: 70.39283957264283 kcal/mol)

>  <smiles>  (23) 
Cc1ccc(C)c(S(=O)(=O)NCc2cn3ccccc3n2)c1

>  <score_type>  (23) 
oracle

>  <origin>  (23) 
adgpu

>  <m_score__min__energy>  (23) 
-8.6699999999999999

>  <m_primary>  (23) 
energy

$$$$
23:0
     RDKit          3D

 51 54  0  0  0  0  0  0  0  0999 V2000
   -9.4740   19.9240  -32.6510 C   0  0  0  0  0  0  0  0  0  0  0  0
   -8.2410   20.6490  -32.1990 C   0  0  0  0  0  0  0  0  0  0  0  0
   -6.9770   20.2350  -32.6430 C   0  0  0  0  0  0  0  0  0  0  0  0
   -5.8310   20.9330  -32.2540 C   0  0  0  0  0  0  0  0  0  0  0  0
   -5.9310   22.0690  -31.4420 C   0  0  0  0  0  0  0  0  0  0  0  0
   -4.7240   22.7390  -31.0480 N   0  0  0  0  0  0  0  0  0  0  0  0
   -3.7470   22.2700  -30.1110 C   0  0  0  0  0  0  0  0  0  0  0  0
   -3.7160   21.0550  -29.7800 O   0  0  0  0  0  0  0  0  0  0  0  0
   -2.8270   23.2240  -29.4600 C   0  0  0  0  0  0  0  0  0  0  0  0
   -2.7510   24.5790  -29.7250 C   0  0  0  0  0  0  0  0  0  0  0  0
   -3.5520   25.2990  -30.6040 O   0  0  0  0  0  0  0  0  0  0  0  0
   -1.7260   25.0900  -28.9690 C   0  0  0  0  0  0  0  0  0  0  0  0
   -1.3440   26.4260  -28.9370 O   0  0  0  0  0  0  0  0  0  0  0  0
   -1.1510   24.1150  -28.2370 N   0  0  0  0  0  0  0  0  0  0  0  0
   -0.1020   24.3090  -27.2720 C   0  0  0  0  0  0  0  0  0  0  0  0
    1.1100   23.6170  -27.3950 C   0  0  0  0  0  0  0  0  0  0  0  0
    2.1240   23.8060  -26.4560 C   0  0  0  0  0  0  0  0  0  0  0  0
    1.9340   24.6780  -25.3820 C   0  0  0  0  0  0  0  0  0  0  0  0
    0.7180   25.3780  -25.2270 C   0  0  0  0  0  0  0  0  0  0  0  0
    0.5160   26.2810  -24.1060 N   0  0  0  0  0  0  0  0  0  0  0  0
   -0.8080   26.4140  -23.4850 C   0  0  0  0  0  0  0  0  0  0  0  0
    1.6300   27.0780  -23.5780 C   0  0  0  0  0  0  0  0  0  0  0  0
   -0.2950   25.1780  -26.1880 C   0  0  0  0  0  0  0  0  0  0  0  0
   -1.8170   22.9660  -28.5260 C   0  0  0  0  0  0  0  0  0  0  0  0
   -1.5080   21.6500  -27.9300 C   0  0  0  0  0  0  0  0  0  0  0  0
   -2.3330   20.9240  -27.0930 C   0  0  0  0  0  0  0  0  0  0  0  0
   -1.6360   19.7750  -26.7890 C   0  0  0  0  0  0  0  0  0  0  0  0
   -0.4320   19.8690  -27.4580 C   0  0  0  0  0  0  0  0  0  0  0  0
   -0.3870   20.9960  -28.1290 O   0  0  0  0  0  0  0  0  0  0  0  0
   -7.1970   22.4790  -30.9880 C   0  0  0  0  0  0  0  0  0  0  0  0
   -8.3440   21.7810  -31.3770 C   0  0  0  0  0  0  0  0  0  0  0  0
  -10.0448   19.5884  -31.7726 H   0  0  0  0  0  0  0  0  0  0  0  0
  -10.0959   20.6002  -33.2559 H   0  0  0  0  0  0  0  0  0  0  0  0
   -9.1855   19.0518  -33.2559 H   0  0  0  0  0  0  0  0  0  0  0  0
   -6.8874   19.3574  -33.3001 H   0  0  0  0  0  0  0  0  0  0  0  0
   -4.8418   20.5871  -32.5885 H   0  0  0  0  0  0  0  0  0  0  0  0
    1.2624   22.9227  -28.2345 H   0  0  0  0  0  0  0  0  0  0  0  0
    3.0766   23.2663  -26.5619 H   0  0  0  0  0  0  0  0  0  0  0  0
    2.7411   24.8211  -24.6484 H   0  0  0  0  0  0  0  0  0  0  0  0
   -0.7022   26.4034  -22.3902 H   0  0  0  0  0  0  0  0  0  0  0  0
   -1.2670   27.3628  -23.7998 H   0  0  0  0  0  0  0  0  0  0  0  0
   -1.4466   25.5755  -23.7998 H   0  0  0  0  0  0  0  0  0  0  0  0
    1.6049   27.0600  -22.4784 H   0  0  0  0  0  0  0  0  0  0  0  0
    2.5825   26.6551  -23.9300 H   0  0  0  0  0  0  0  0  0  0  0  0
    1.5373   28.1160  -23.9300 H   0  0  0  0  0  0  0  0  0  0  0  0
   -1.2513   25.7119  -26.0857 H   0  0  0  0  0  0  0  0  0  0  0  0
   -3.3371   21.2047  -26.7423 H   0  0  0  0  0  0  0  0  0  0  0  0
   -1.9711   18.9496  -26.1437 H   0  0  0  0  0  0  0  0  0  0  0  0
    0.3678   19.1142  -27.4325 H   0  0  0  0  0  0  0  0  0  0  0  0
   -7.2852   23.3519  -30.3245 H   0  0  0  0  0  0  0  0  0  0  0  0
   -9.3330   22.1214  -31.0365 H   0  0  0  0  0  0  0  0  0  0  0  0
  1  2  1  0
  2  3  2  0
  3  4  1  0
  4  5  2  0
  5  6  1  0
  6  7  1  0
  7  8  2  0
  7  9  1  0
  9 10  1  0
 10 11  1  0
 10 12  2  0
 12 13  1  0
 12 14  1  0
 14 15  1  0
 15 16  2  0
 16 17  1  0
 17 18  2  0
 18 19  1  0
 19 20  1  0
 20 21  1  0
 20 22  1  0
 19 23  2  0
 14 24  1  0
 24 25  1  0
 25 26  2  0
 26 27  1  0
 27 28  2  0
 28 29  1  0
  5 30  1  0
 30 31  2  0
 31  2  1  0
 24  9  2  0
 29 25  1  0
 23 15  1  0
  1 32  1  0
  1 33  1  0
  1 34  1  0
  3 35  1  0
  4 36  1  0
 16 37  1  0
 17 38  1  0
 18 39  1  0
 21 40  1  0
 21 41  1  0
 21 42  1  0
 22 43  1  0
 22 44  1  0
 22 45  1  0
 23 46  1  0
 26 47  1  0
 27 48  1  0
 28 49  1  0
 30 50  1  0
 31 51  1  0
M  CHG  3   6  -1  11  -1  13  -1
M  END
>  <UniqueID>  (24) 
24

>  <SMILES>  (24) 
Cc1ccc([N-]C(=O)c2c([O-])c([O-])n(-c3cccc(N(C)C)c3)c2-c2ccco2)cc1

>  <Energy>  (24) 
124.67233374702299

>  <Genealogy>  (24) 
Cc1ccc([N-]C(=O)c2c([O-])c([O-])n(-c3cccc(N(C)C)c3)c2-c2ccco2)cc1 (protonated)
Cc1ccc([N-]C(=O)c2c([O-])c([O-])n(-c3cccc(N(C)C)c3)c2-c2ccco2)cc1 (3D coordinates assigned)
Cc1ccc([N-]C(=O)c2c([O-])c([O-])n(-c3cccc(N(C)C)c3)c2-c2ccco2)cc1 (optimized conformer: 124.67233374702299 kcal/mol)

>  <smiles>  (24) 
Cc1ccc(NC(=O)c2c(O)c(O)n(-c3cccc(N(C)C)c3)c2-c2ccco2)cc1

>  <score_type>  (24) 
oracle

>  <origin>  (24) 
adgpu

>  <m_score__min__energy>  (24) 
-13.970000000000001

>  <m_primary>  (24) 
energy

$$$$
24:0
     RDKit          3D

 41 44  0  0  0  0  0  0  0  0999 V2000
   -3.3490   21.8610  -33.3940 O   0  0  0  0  0  0  0  0  0  0  0  0
   -2.1990   21.3550  -33.3350 C   0  0  0  0  0  0  0  0  0  0  0  0
   -1.5910   20.6980  -34.4220 N   0  0  0  0  0  0  0  0  0  0  0  0
   -0.2450   20.3150  -34.0230 C   0  0  0  0  0  0  0  0  0  0  0  0
   -0.0650   20.8450  -32.5790 C   0  0  0  0  0  0  0  0  0  0  0  0
   -1.3470   21.4410  -32.2050 N   0  0  0  0  0  0  0  0  0  0  0  0
   -1.6860   21.9280  -30.8910 C   0  0  0  0  0  0  0  0  0  0  0  0
   -0.9700   21.4710  -29.7570 C   0  0  0  0  0  0  0  0  0  0  0  0
   -1.3020   21.9210  -28.4700 C   0  0  0  0  0  0  0  0  0  0  0  0
   -2.3570   22.8210  -28.3300 C   0  0  0  0  0  0  0  0  0  0  0  0
   -3.0590   23.2610  -29.4140 C   0  0  0  0  0  0  0  0  0  0  0  0
   -2.7540   22.8340  -30.7090 C   0  0  0  0  0  0  0  0  0  0  0  0
   -4.1000   24.1360  -29.0250 N   0  0  0  0  0  0  0  0  0  0  0  0
   -5.3350   24.7690  -30.0640 S   0  0  0  0  0  0  0  0  0  0  0  0
   -6.2460   25.6710  -29.2810 O   0  0  0  0  0  0  0  0  0  0  0  0
   -4.6850   25.5580  -31.1640 O   0  0  0  0  0  0  0  0  0  0  0  0
   -6.2770   23.4390  -30.7290 C   0  0  0  0  0  0  0  0  0  0  0  0
   -5.8920   22.8240  -31.9300 C   0  0  0  0  0  0  0  0  0  0  0  0
   -6.6320   21.7520  -32.4380 C   0  0  0  0  0  0  0  0  0  0  0  0
   -7.7600   21.2910  -31.7530 C   0  0  0  0  0  0  0  0  0  0  0  0
   -8.6850   19.9430  -32.3890 Cl  0  0  0  0  0  0  0  0  0  0  0  0
   -8.1500   21.9050  -30.5570 C   0  0  0  0  0  0  0  0  0  0  0  0
   -7.4110   22.9770  -30.0480 C   0  0  0  0  0  0  0  0  0  0  0  0
   -4.0990   24.2630  -27.5700 C   0  0  0  0  0  0  0  0  0  0  0  0
   -2.9040   23.4100  -27.0740 C   0  0  0  0  0  0  0  0  0  0  0  0
   -2.0300   20.5180  -35.3510 H   0  0  0  0  0  0  0  0  0  0  0  0
   -0.1358   19.2207  -34.0456 H   0  0  0  0  0  0  0  0  0  0  0  0
    0.5124   20.7308  -34.7038 H   0  0  0  0  0  0  0  0  0  0  0  0
    0.1857   20.0189  -31.8973 H   0  0  0  0  0  0  0  0  0  0  0  0
    0.7529   21.5781  -32.5182 H   0  0  0  0  0  0  0  0  0  0  0  0
   -0.1447   20.7555  -29.8869 H   0  0  0  0  0  0  0  0  0  0  0  0
   -0.7417   21.5710  -27.5905 H   0  0  0  0  0  0  0  0  0  0  0  0
   -3.3345   23.1965  -31.5701 H   0  0  0  0  0  0  0  0  0  0  0  0
   -5.0064   23.1859  -32.4728 H   0  0  0  0  0  0  0  0  0  0  0  0
   -6.3260   21.2705  -33.3785 H   0  0  0  0  0  0  0  0  0  0  0  0
   -9.0381   21.5439  -30.0176 H   0  0  0  0  0  0  0  0  0  0  0  0
   -7.7210   23.4596  -29.1094 H   0  0  0  0  0  0  0  0  0  0  0  0
   -3.9667   25.3150  -27.2772 H   0  0  0  0  0  0  0  0  0  0  0  0
   -5.0492   23.9227  -27.1327 H   0  0  0  0  0  0  0  0  0  0  0  0
   -2.1524   24.0383  -26.5737 H   0  0  0  0  0  0  0  0  0  0  0  0
   -3.1958   22.6501  -26.3341 H   0  0  0  0  0  0  0  0  0  0  0  0
  1  2  2  0
  2  3  1  0
  3  4  1  0
  4  5  1  0
  5  6  1  0
  6  7  1  0
  7  8  2  0
  8  9  1  0
  9 10  2  0
 10 11  1  0
 11 12  2  0
 11 13  1  0
 13 14  1  0
 14 15  2  0
 14 16  2  0
 14 17  1  0
 17 18  2  0
 18 19  1  0
 19 20  2  0
 20 21  1  0
 20 22  1  0
 22 23  2  0
 13 24  1  0
 24 25  1  0
  6  2  1  0
 12  7  1  0
 23 17  1  0
 25 10  1  0
  3 26  1  0
  4 27  1  0
  4 28  1  0
  5 29  1  0
  5 30  1  0
  8 31  1  0
  9 32  1  0
 12 33  1  0
 18 34  1  0
 19 35  1  0
 22 36  1  0
 23 37  1  0
 24 38  1  0
 24 39  1  0
 25 40  1  0
 25 41  1  0
M  END
>  <UniqueID>  (25) 
25

>  <SMILES>  (25) 
O=C1NCCN1c1ccc2c(c1)N(S(=O)(=O)c1ccc(Cl)cc1)CC2

>  <Energy>  (25) 
75.16381934479247

>  <Genealogy>  (25) 
O=C1NCCN1c1ccc2c(c1)N(S(=O)(=O)c1ccc(Cl)cc1)CC2 (3D coordinates assigned)
O=C1NCCN1c1ccc2c(c1)N(S(=O)(=O)c1ccc(Cl)cc1)CC2 (nonaromatic ring conformer: 75.16381934479247 kcal/mol)

>  <smiles>  (25) 
O=C1NCCN1c1ccc2c(c1)N(S(=O)(=O)c1ccc(Cl)cc1)CC2

>  <score_type>  (25) 
oracle

>  <origin>  (25) 
adgpu

>  <m_score__min__energy>  (25) 
-9.2100000000000009

>  <m_primary>  (25) 
energy

$$$$
25:0
     RDKit          3D

 40 43  0  0  0  0  0  0  0  0999 V2000
   -7.3210   21.7050  -32.2860 O   0  0  0  0  0  0  0  0  0  0  0  0
   -6.1010   21.6800  -31.9680 C   0  0  0  0  0  0  0  0  0  0  0  0
   -5.3380   20.4670  -32.1040 N   0  0  0  0  0  0  0  0  0  0  0  0
   -5.8270   19.2690  -32.7290 C   0  0  0  0  0  0  0  0  0  0  0  0
   -6.7750   18.4430  -32.1000 C   0  0  0  0  0  0  0  0  0  0  0  0
   -7.2100   17.2680  -32.7230 C   0  0  0  0  0  0  0  0  0  0  0  0
   -6.6930   16.9020  -33.9690 C   0  0  0  0  0  0  0  0  0  0  0  0
   -7.1140   15.7620  -34.5700 F   0  0  0  0  0  0  0  0  0  0  0  0
   -5.7320   17.7040  -34.5890 C   0  0  0  0  0  0  0  0  0  0  0  0
   -5.2940   18.8780  -33.9680 C   0  0  0  0  0  0  0  0  0  0  0  0
   -5.4700   22.9170  -31.4570 C   0  0  0  0  0  0  0  0  0  0  0  0
   -6.1240   24.1650  -31.5630 C   0  0  0  0  0  0  0  0  0  0  0  0
   -5.5050   25.3350  -31.0580 C   0  0  0  0  0  0  0  0  0  0  0  0
   -4.2690   25.2730  -30.4780 N   0  0  0  0  0  0  0  0  0  0  0  0
   -3.6480   24.0720  -30.4010 C   0  0  0  0  0  0  0  0  0  0  0  0
   -2.4650   23.8210  -29.9110 O   0  0  0  0  0  0  0  0  0  0  0  0
   -2.2890   22.5200  -30.0860 C   0  0  0  0  0  0  0  0  0  0  0  0
   -1.0530   21.7910  -29.6680 C   0  0  0  0  0  0  0  0  0  0  0  0
   -1.3980   20.7080  -28.6820 C   0  0  0  0  0  0  0  0  0  0  0  0
   -2.6030   20.7660  -27.9590 C   0  0  0  0  0  0  0  0  0  0  0  0
   -2.8980   19.7890  -27.0040 C   0  0  0  0  0  0  0  0  0  0  0  0
   -1.9920   18.7530  -26.7580 C   0  0  0  0  0  0  0  0  0  0  0  0
   -0.7870   18.6960  -27.4640 C   0  0  0  0  0  0  0  0  0  0  0  0
   -0.4860   19.6720  -28.4190 C   0  0  0  0  0  0  0  0  0  0  0  0
   -3.3420   21.9070  -30.6930 N   0  0  0  0  0  0  0  0  0  0  0  0
   -4.2020   22.9250  -30.8670 C   0  0  0  0  0  0  0  0  0  0  0  0
   -4.3360   20.4700  -31.8070 H   0  0  0  0  0  0  0  0  0  0  0  0
   -7.1763   18.7215  -31.1144 H   0  0  0  0  0  0  0  0  0  0  0  0
   -7.9602   16.6312  -32.2313 H   0  0  0  0  0  0  0  0  0  0  0  0
   -5.3196   17.4120  -35.5661 H   0  0  0  0  0  0  0  0  0  0  0  0
   -4.5269   19.4993  -34.4533 H   0  0  0  0  0  0  0  0  0  0  0  0
   -7.1142   24.2282  -32.0378 H   0  0  0  0  0  0  0  0  0  0  0  0
   -6.0238   26.3020  -31.1334 H   0  0  0  0  0  0  0  0  0  0  0  0
   -0.5802   21.3399  -30.5529 H   0  0  0  0  0  0  0  0  0  0  0  0
   -0.3599   22.5014  -29.1936 H   0  0  0  0  0  0  0  0  0  0  0  0
   -3.3156   21.5829  -28.1457 H   0  0  0  0  0  0  0  0  0  0  0  0
   -3.8443   19.8353  -26.4452 H   0  0  0  0  0  0  0  0  0  0  0  0
   -2.2275   17.9827  -26.0088 H   0  0  0  0  0  0  0  0  0  0  0  0
   -0.0740   17.8816  -27.2679 H   0  0  0  0  0  0  0  0  0  0  0  0
    0.4674   19.6286  -28.9659 H   0  0  0  0  0  0  0  0  0  0  0  0
  1  2  2  0
  2  3  1  0
  3  4  1  0
  4  5  2  0
  5  6  1  0
  6  7  2  0
  7  8  1  0
  7  9  1  0
  9 10  2  0
  2 11  1  0
 11 12  2  0
 12 13  1  0
 13 14  2  0
 14 15  1  0
 15 16  1  0
 16 17  1  0
 17 18  1  0
 18 19  1  0
 19 20  2  0
 20 21  1  0
 21 22  2  0
 22 23  1  0
 23 24  2  0
 17 25  2  0
 25 26  1  0
 10  4  1  0
 26 11  1  0
 26 15  2  0
 24 19  1  0
  3 27  1  0
  5 28  1  0
  6 29  1  0
  9 30  1  0
 10 31  1  0
 12 32  1  0
 13 33  1  0
 18 34  1  0
 18 35  1  0
 20 36  1  0
 21 37  1  0
 22 38  1  0
 23 39  1  0
 24 40  1  0
M  END
>  <UniqueID>  (26) 
26

>  <SMILES>  (26) 
O=C(Nc1ccc(F)cc1)c1ccnc2oc(Cc3ccccc3)nc12

>  <Energy>  (26) 
89.70400198640239

>  <Genealogy>  (26) 
O=C(Nc1ccc(F)cc1)c1ccnc2oc(Cc3ccccc3)nc12 (3D coordinates assigned)
O=C(Nc1ccc(F)cc1)c1ccnc2oc(Cc3ccccc3)nc12 (optimized conformer: 89.70400198640239 kcal/mol)

>  <smiles>  (26) 
O=C(Nc1ccc(F)cc1)c1ccnc2oc(Cc3ccccc3)nc12

>  <score_type>  (26) 
oracle

>  <origin>  (26) 
adgpu

>  <m_score__min__energy>  (26) 
-8.2400000000000002

>  <m_primary>  (26) 
energy

$$$$
26:0
     RDKit          3D

 48 50  0  0  0  0  0  0  0  0999 V2000
   -0.7390   21.9220  -25.9440 C   0  0  0  0  0  0  0  0  0  0  0  0
   -1.6140   21.8400  -27.1150 N   0  0  0  0  0  0  0  0  0  0  0  0
   -2.3660   20.7780  -27.4830 C   0  0  0  0  0  0  0  0  0  0  0  0
   -2.4600   19.2480  -26.6160 S   0  0  0  0  0  0  0  0  0  0  0  0
   -1.1540   18.2210  -27.0990 N   0  0  0  0  0  0  0  0  0  0  0  0
   -3.7620   18.5700  -26.9340 O   0  0  0  0  0  0  0  0  0  0  0  0
   -2.3650   19.4990  -25.1370 O   0  0  0  0  0  0  0  0  0  0  0  0
   -3.0420   21.0470  -28.6550 C   0  0  0  0  0  0  0  0  0  0  0  0
   -2.6930   22.3320  -29.0180 C   0  0  0  0  0  0  0  0  0  0  0  0
   -3.2740   23.1560  -30.4690 S   0  0  0  0  0  0  0  0  0  0  0  0
   -2.4010   22.6930  -31.5990 O   0  0  0  0  0  0  0  0  0  0  0  0
   -3.1530   24.6450  -30.3090 O   0  0  0  0  0  0  0  0  0  0  0  0
   -4.9890   22.7930  -30.7710 C   0  0  0  0  0  0  0  0  0  0  0  0
   -5.9420   23.7040  -30.2810 C   0  0  0  0  0  0  0  0  0  0  0  0
   -7.3080   23.4710  -30.4400 C   0  0  0  0  0  0  0  0  0  0  0  0
   -7.7460   22.3310  -31.1060 C   0  0  0  0  0  0  0  0  0  0  0  0
   -6.8200   21.4380  -31.6450 C   0  0  0  0  0  0  0  0  0  0  0  0
   -5.4370   21.6660  -31.5170 C   0  0  0  0  0  0  0  0  0  0  0  0
   -4.3310   20.5450  -32.3360 S   0  0  0  0  0  0  0  0  0  0  0  0
   -3.2240   20.1560  -31.3950 O   0  0  0  0  0  0  0  0  0  0  0  0
   -3.7380   21.1960  -33.5560 O   0  0  0  0  0  0  0  0  0  0  0  0
   -5.1750   19.0940  -32.8740 C   0  0  0  0  0  0  0  0  0  0  0  0
   -5.9590   18.3500  -31.9780 C   0  0  0  0  0  0  0  0  0  0  0  0
   -6.6410   17.2100  -32.4190 C   0  0  0  0  0  0  0  0  0  0  0  0
   -6.5440   16.8110  -33.7560 C   0  0  0  0  0  0  0  0  0  0  0  0
   -5.7700   17.5520  -34.6540 C   0  0  0  0  0  0  0  0  0  0  0  0
   -5.0880   18.6910  -34.2150 C   0  0  0  0  0  0  0  0  0  0  0  0
   -1.7760   22.7840  -28.0740 C   0  0  0  0  0  0  0  0  0  0  0  0
   -0.8870   24.3140  -28.1310 S   0  0  0  0  0  0  0  0  0  0  0  0
   -1.9990   25.6240  -28.3090 N   0  0  0  0  0  0  0  0  0  0  0  0
   -0.0980   24.5040  -26.8670 O   0  0  0  0  0  0  0  0  0  0  0  0
    0.0800   24.3120  -29.2810 O   0  0  0  0  0  0  0  0  0  0  0  0
   -1.3457   21.8651  -25.0282 H   0  0  0  0  0  0  0  0  0  0  0  0
   -0.0231   21.0870  -25.9620 H   0  0  0  0  0  0  0  0  0  0  0  0
   -0.1907   22.8755  -25.9620 H   0  0  0  0  0  0  0  0  0  0  0  0
   -1.1900   17.3730  -26.4890 H   0  0  0  0  0  0  0  0  0  0  0  0
   -1.3590   17.9010  -28.0710 H   0  0  0  0  0  0  0  0  0  0  0  0
   -3.7235   20.3718  -29.1931 H   0  0  0  0  0  0  0  0  0  0  0  0
   -5.6047   24.6146  -29.7642 H   0  0  0  0  0  0  0  0  0  0  0  0
   -8.0388   24.1886  -30.0388 H   0  0  0  0  0  0  0  0  0  0  0  0
   -8.8234   22.1336  -31.2076 H   0  0  0  0  0  0  0  0  0  0  0  0
   -7.1754   20.5434  -32.1773 H   0  0  0  0  0  0  0  0  0  0  0  0
   -6.0375   18.6638  -30.9266 H   0  0  0  0  0  0  0  0  0  0  0  0
   -7.2531   16.6281  -31.7142 H   0  0  0  0  0  0  0  0  0  0  0  0
   -7.0773   15.9131  -34.1014 H   0  0  0  0  0  0  0  0  0  0  0  0
   -5.6975   17.2390  -35.7060 H   0  0  0  0  0  0  0  0  0  0  0  0
   -4.4809   19.2733  -34.9238 H   0  0  0  0  0  0  0  0  0  0  0  0
   -2.2900   25.6500  -29.3120 H   0  0  0  0  0  0  0  0  0  0  0  0
  1  2  1  0
  2  3  1  0
  3  4  1  0
  4  5  1  0
  4  6  2  0
  4  7  2  0
  3  8  2  0
  8  9  1  0
  9 10  1  0
 10 11  2  0
 10 12  2  0
 10 13  1  0
 13 14  2  0
 14 15  1  0
 15 16  2  0
 16 17  1  0
 17 18  2  0
 18 19  1  0
 19 20  2  0
 19 21  2  0
 19 22  1  0
 22 23  2  0
 23 24  1  0
 24 25  2  0
 25 26  1  0
 26 27  2  0
  9 28  2  0
 28 29  1  0
 29 30  1  0
 29 31  2  0
 29 32  2  0
 28  2  1  0
 18 13  1  0
 27 22  1  0
  1 33  1  0
  1 34  1  0
  1 35  1  0
  5 36  1  0
  5 37  1  0
  8 38  1  0
 14 39  1  0
 15 40  1  0
 16 41  1  0
 17 42  1  0
 23 43  1  0
 24 44  1  0
 25 45  1  0
 26 46  1  0
 27 47  1  0
 30 48  1  0
M  CHG  1  30  -1
M  END
>  <UniqueID>  (27) 
27

>  <SMILES>  (27) 
Cn1c(S(N)(=O)=O)cc(S(=O)(=O)c2ccccc2S(=O)(=O)c2ccccc2)c1S([NH-])(=O)=O

>  <Energy>  (27) 
87.45971182292247

>  <Genealogy>  (27) 
Cn1c(S(N)(=O)=O)cc(S(=O)(=O)c2ccccc2S(=O)(=O)c2ccccc2)c1S([NH-])(=O)=O (protonated)
Cn1c(S(N)(=O)=O)cc(S(=O)(=O)c2ccccc2S(=O)(=O)c2ccccc2)c1S([NH-])(=O)=O (3D coordinates assigned)
Cn1c(S(N)(=O)=O)cc(S(=O)(=O)c2ccccc2S(=O)(=O)c2ccccc2)c1S([NH-])(=O)=O (optimized conformer: 87.45971182292247 kcal/mol)

>  <smiles>  (27) 
Cn1c(S(N)(=O)=O)cc(S(=O)(=O)c2ccccc2S(=O)(=O)c2ccccc2)c1S(N)(=O)=O

>  <score_type>  (27) 
oracle

>  <origin>  (27) 
adgpu

>  <m_score__min__energy>  (27) 
-12.98

>  <m_primary>  (27) 
energy

$$$$
27:0
     RDKit          3D

 39 41  0  0  0  0  0  0  0  0999 V2000
    0.8170   22.5720  -26.4130 C   0  0  0  0  0  0  0  0  0  0  0  0
    0.7420   21.5490  -27.5010 C   0  0  0  0  0  0  0  0  0  0  0  0
    1.5160   20.4470  -27.5390 N   0  0  0  0  0  0  0  0  0  0  0  0
    1.1880   19.7860  -28.6110 O   0  0  0  0  0  0  0  0  0  0  0  0
    0.2330   20.3950  -29.2750 C   0  0  0  0  0  0  0  0  0  0  0  0
   -0.3570   19.8770  -30.5470 C   0  0  0  0  0  0  0  0  0  0  0  0
   -0.1030   21.5560  -28.6000 C   0  0  0  0  0  0  0  0  0  0  0  0
   -1.1240   22.5620  -28.9660 C   0  0  0  0  0  0  0  0  0  0  0  0
   -0.8670   23.9280  -28.7860 C   0  0  0  0  0  0  0  0  0  0  0  0
   -1.8280   24.8800  -29.1340 C   0  0  0  0  0  0  0  0  0  0  0  0
   -1.5490   26.2310  -28.9560 O   0  0  0  0  0  0  0  0  0  0  0  0
   -3.0620   24.4830  -29.6640 C   0  0  0  0  0  0  0  0  0  0  0  0
   -3.9720   25.4730  -30.0420 O   0  0  0  0  0  0  0  0  0  0  0  0
   -3.3420   23.1060  -29.8270 C   0  0  0  0  0  0  0  0  0  0  0  0
   -4.6490   22.6300  -30.3290 C   0  0  0  0  0  0  0  0  0  0  0  0
   -5.8290   23.3090  -29.9830 C   0  0  0  0  0  0  0  0  0  0  0  0
   -7.0630   22.8750  -30.4780 C   0  0  0  0  0  0  0  0  0  0  0  0
   -7.1300   21.7680  -31.3340 C   0  0  0  0  0  0  0  0  0  0  0  0
   -8.6860   21.2160  -31.9460 S   0  0  0  0  0  0  0  0  0  0  0  0
   -8.4280   20.0800  -33.2210 N   0  0  0  0  0  0  0  0  0  0  0  0
   -9.4730   22.3870  -32.4660 O   0  0  0  0  0  0  0  0  0  0  0  0
   -9.4650   20.5630  -30.8390 O   0  0  0  0  0  0  0  0  0  0  0  0
   -5.9540   21.0930  -31.6860 C   0  0  0  0  0  0  0  0  0  0  0  0
   -4.7200   21.5250  -31.1920 C   0  0  0  0  0  0  0  0  0  0  0  0
   -2.3620   22.1600  -29.4880 C   0  0  0  0  0  0  0  0  0  0  0  0
    0.7802   22.0703  -25.4348 H   0  0  0  0  0  0  0  0  0  0  0  0
    1.7587   23.1335  -26.5019 H   0  0  0  0  0  0  0  0  0  0  0  0
   -0.0328   23.2648  -26.5019 H   0  0  0  0  0  0  0  0  0  0  0  0
   -1.1649   19.1677  -30.3143 H   0  0  0  0  0  0  0  0  0  0  0  0
   -0.7627   20.7160  -31.1314 H   0  0  0  0  0  0  0  0  0  0  0  0
    0.4224   19.3661  -31.1314 H   0  0  0  0  0  0  0  0  0  0  0  0
    0.0975   24.2523  -28.3681 H   0  0  0  0  0  0  0  0  0  0  0  0
   -3.8550   26.4500  -29.8090 H   0  0  0  0  0  0  0  0  0  0  0  0
   -5.7823   24.1856  -29.3201 H   0  0  0  0  0  0  0  0  0  0  0  0
   -7.9843   23.4048  -30.1942 H   0  0  0  0  0  0  0  0  0  0  0  0
   -8.9740   20.4180  -34.0460 H   0  0  0  0  0  0  0  0  0  0  0  0
   -6.0020   20.2200  -32.3535 H   0  0  0  0  0  0  0  0  0  0  0  0
   -3.7996   20.9964  -31.4809 H   0  0  0  0  0  0  0  0  0  0  0  0
   -2.5678   21.0893  -29.6337 H   0  0  0  0  0  0  0  0  0  0  0  0
  1  2  1  0
  2  3  2  0
  3  4  1  0
  4  5  1  0
  5  6  1  0
  5  7  2  0
  7  8  1  0
  8  9  2  0
  9 10  1  0
 10 11  1  0
 10 12  2  0
 12 13  1  0
 12 14  1  0
 14 15  1  0
 15 16  2  0
 16 17  1  0
 17 18  2  0
 18 19  1  0
 19 20  1  0
 19 21  2  0
 19 22  2  0
 18 23  1  0
 23 24  2  0
 14 25  2  0
  7  2  1  0
 25  8  1  0
 24 15  1  0
  1 26  1  0
  1 27  1  0
  1 28  1  0
  6 29  1  0
  6 30  1  0
  6 31  1  0
  9 32  1  0
 13 33  1  0
 16 34  1  0
 17 35  1  0
 20 36  1  0
 23 37  1  0
 24 38  1  0
 25 39  1  0
M  CHG  2  11  -1  20  -1
M  END
>  <UniqueID>  (28) 
28

>  <SMILES>  (28) 
Cc1noc(C)c1-c1cc([O-])c(O)c(-c2ccc(S([NH-])(=O)=O)cc2)c1

>  <Energy>  (28) 
82.63058875495832

>  <Genealogy>  (28) 
Cc1noc(C)c1-c1cc([O-])c(O)c(-c2ccc(S([NH-])(=O)=O)cc2)c1 (protonated)
Cc1noc(C)c1-c1cc([O-])c(O)c(-c2ccc(S([NH-])(=O)=O)cc2)c1 (3D coordinates assigned)
Cc1noc(C)c1-c1cc([O-])c(O)c(-c2ccc(S([NH-])(=O)=O)cc2)c1 (optimized conformer: 82.63058875495832 kcal/mol)

>  <smiles>  (28) 
Cc1noc(C)c1-c1cc(O)c(O)c(-c2ccc(S(N)(=O)=O)cc2)c1

>  <score_type>  (28) 
oracle

>  <origin>  (28) 
adgpu

>  <m_score__min__energy>  (28) 
-11.08

>  <m_primary>  (28) 
energy

$$$$
28:0
     RDKit          3D

 46 48  0  0  0  0  0  0  0  0999 V2000
    1.8000   21.9150  -34.7560 C   0  0  0  0  0  0  0  0  0  0  0  0
    0.5960   21.2090  -34.2070 C   0  0  0  0  0  0  0  0  0  0  0  0
   -0.4270   20.7870  -35.0670 C   0  0  0  0  0  0  0  0  0  0  0  0
   -1.5250   20.0860  -34.5630 C   0  0  0  0  0  0  0  0  0  0  0  0
   -1.6150   19.7980  -33.1970 C   0  0  0  0  0  0  0  0  0  0  0  0
   -2.7270   19.0980  -32.7290 O   0  0  0  0  0  0  0  0  0  0  0  0
   -0.5970   20.2240  -32.3230 C   0  0  0  0  0  0  0  0  0  0  0  0
   -0.6750   19.9070  -30.9280 N   0  0  0  0  0  0  0  0  0  0  0  0
   -1.9840   20.4100  -29.9060 S   0  0  0  0  0  0  0  0  0  0  0  0
   -1.9100   19.6490  -28.6130 O   0  0  0  0  0  0  0  0  0  0  0  0
   -3.2870   20.0770  -30.5750 O   0  0  0  0  0  0  0  0  0  0  0  0
   -1.9030   22.1330  -29.5570 C   0  0  0  0  0  0  0  0  0  0  0  0
   -0.8140   22.6580  -28.8510 C   0  0  0  0  0  0  0  0  0  0  0  0
   -0.7240   24.0330  -28.6230 C   0  0  0  0  0  0  0  0  0  0  0  0
   -1.7030   24.8960  -29.1300 C   0  0  0  0  0  0  0  0  0  0  0  0
   -1.5890   26.2640  -28.9110 O   0  0  0  0  0  0  0  0  0  0  0  0
   -2.7800   24.3850  -29.8670 C   0  0  0  0  0  0  0  0  0  0  0  0
   -3.7480   25.2950  -30.4110 N   0  0  0  0  0  0  0  0  0  0  0  0
   -5.0990   24.9770  -30.7700 C   0  0  0  0  0  0  0  0  0  0  0  0
   -6.0430   25.5060  -30.1270 O   0  0  0  0  0  0  0  0  0  0  0  0
   -5.3750   24.0750  -31.8500 N   0  0  0  0  0  0  0  0  0  0  0  0
   -6.2370   22.9280  -31.8070 C   0  0  0  0  0  0  0  0  0  0  0  0
   -7.5300   23.0150  -31.2590 C   0  0  0  0  0  0  0  0  0  0  0  0
   -8.3810   21.9070  -31.2800 C   0  0  0  0  0  0  0  0  0  0  0  0
   -7.9580   20.7100  -31.8580 C   0  0  0  0  0  0  0  0  0  0  0  0
   -6.6830   20.6170  -32.4190 C   0  0  0  0  0  0  0  0  0  0  0  0
   -5.8170   21.7210  -32.4030 C   0  0  0  0  0  0  0  0  0  0  0  0
   -4.5150   21.6010  -32.9900 N   0  0  0  0  0  0  0  0  0  0  0  0
   -2.8970   22.9950  -30.0390 C   0  0  0  0  0  0  0  0  0  0  0  0
    0.5180   20.9030  -32.8410 C   0  0  0  0  0  0  0  0  0  0  0  0
    2.4218   22.2796  -33.9251 H   0  0  0  0  0  0  0  0  0  0  0  0
    2.3849   21.2168  -35.3728 H   0  0  0  0  0  0  0  0  0  0  0  0
    1.4763   22.7664  -35.3728 H   0  0  0  0  0  0  0  0  0  0  0  0
   -0.3650   21.0086  -36.1427 H   0  0  0  0  0  0  0  0  0  0  0  0
   -2.3239   19.7584  -35.2445 H   0  0  0  0  0  0  0  0  0  0  0  0
   -2.9140   18.9740  -31.7410 H   0  0  0  0  0  0  0  0  0  0  0  0
   -0.0280   21.9865  -28.4752 H   0  0  0  0  0  0  0  0  0  0  0  0
    0.1183   24.4390  -28.0436 H   0  0  0  0  0  0  0  0  0  0  0  0
   -7.8725   23.9599  -30.8119 H   0  0  0  0  0  0  0  0  0  0  0  0
   -9.3865   21.9788  -30.8399 H   0  0  0  0  0  0  0  0  0  0  0  0
   -8.6295   19.8388  -31.8718 H   0  0  0  0  0  0  0  0  0  0  0  0
   -6.3551   19.6720  -32.8766 H   0  0  0  0  0  0  0  0  0  0  0  0
   -3.7970   20.9720  -32.5670 H   0  0  0  0  0  0  0  0  0  0  0  0
   -4.2540   22.1220  -33.8550 H   0  0  0  0  0  0  0  0  0  0  0  0
   -3.7753   22.5808  -30.5558 H   0  0  0  0  0  0  0  0  0  0  0  0
    1.3375   21.1974  -32.1689 H   0  0  0  0  0  0  0  0  0  0  0  0
  1  2  1  0
  2  3  2  0
  3  4  1  0
  4  5  2  0
  5  6  1  0
  5  7  1  0
  7  8  1  0
  8  9  1  0
  9 10  2  0
  9 11  2  0
  9 12  1  0
 12 13  2  0
 13 14  1  0
 14 15  2  0
 15 16  1  0
 15 17  1  0
 17 18  1  0
 18 19  1  0
 19 20  2  0
 19 21  1  0
 21 22  1  0
 22 23  2  0
 23 24  1  0
 24 25  2  0
 25 26  1  0
 26 27  2  0
 27 28  1  0
 17 29  2  0
  7 30  2  0
 30  2  1  0
 29 12  1  0
 27 22  1  0
  1 31  1  0
  1 32  1  0
  1 33  1  0
  3 34  1  0
  4 35  1  0
  6 36  1  0
 13 37  1  0
 14 38  1  0
 23 39  1  0
 24 40  1  0
 25 41  1  0
 26 42  1  0
 28 43  1  0
 28 44  1  0
 29 45  1  0
 30 46  1  0
M  CHG  4   8  -1  16  -1  18  -1  21  -1
M  END
>  <UniqueID>  (29) 
29

>  <SMILES>  (29) 
Cc1ccc(O)c([N-]S(=O)(=O)c2ccc([O-])c([N-]C(=O)[N-]c3ccccc3N)c2)c1

>  <Energy>  (29) 
57.45704773745687

>  <Genealogy>  (29) 
Cc1ccc(O)c([N-]S(=O)(=O)c2ccc([O-])c([N-]C(=O)[N-]c3ccccc3N)c2)c1 (protonated)
Cc1ccc(O)c([N-]S(=O)(=O)c2ccc([O-])c([N-]C(=O)[N-]c3ccccc3N)c2)c1 (3D coordinates assigned)
Cc1ccc(O)c([N-]S(=O)(=O)c2ccc([O-])c([N-]C(=O)[N-]c3ccccc3N)c2)c1 (optimized conformer: 57.45704773745687 kcal/mol)

>  <smiles>  (29) 
Cc1ccc(O)c(NS(=O)(=O)c2ccc(O)c(NC(=O)Nc3ccccc3N)c2)c1

>  <score_type>  (29) 
oracle

>  <origin>  (29) 
adgpu

>  <m_score__min__energy>  (29) 
-12.58

>  <m_primary>  (29) 
energy

$$$$
29:0
     RDKit          3D

 61 64  0  0  0  0  0  0  0  0999 V2000
   -1.0720   20.7530  -26.7600 C   0  0  0  0  0  0  0  0  0  0  0  0
   -1.9730   21.7990  -27.3800 C   0  0  0  0  0  0  0  0  0  0  0  0
   -3.3330   21.4840  -27.5330 C   0  0  0  0  0  0  0  0  0  0  0  0
   -4.2190   22.3990  -28.1030 C   0  0  0  0  0  0  0  0  0  0  0  0
   -3.7490   23.6220  -28.6080 C   0  0  0  0  0  0  0  0  0  0  0  0
   -4.6400   24.6170  -29.1310 N   0  0  0  0  0  0  0  0  0  0  0  0
   -4.7960   25.0500  -30.4890 C   0  0  0  0  0  0  0  0  0  0  0  0
   -3.8600   25.6460  -31.0880 O   0  0  0  0  0  0  0  0  0  0  0  0
   -6.0530   24.8720  -31.1530 N   0  0  0  0  0  0  0  0  0  0  0  0
   -6.6270   23.5860  -31.4350 C   0  0  0  0  0  0  0  0  0  0  0  0
   -8.0170   23.4190  -31.5950 C   0  0  0  0  0  0  0  0  0  0  0  0
   -8.5410   22.1620  -31.9030 C   0  0  0  0  0  0  0  0  0  0  0  0
   -7.6910   21.0590  -32.0380 C   0  0  0  0  0  0  0  0  0  0  0  0
   -6.3100   21.2070  -31.8410 C   0  0  0  0  0  0  0  0  0  0  0  0
   -5.2240   19.8310  -32.0470 S   0  0  0  0  0  0  0  0  0  0  0  0
   -3.9110   20.1530  -31.3790 O   0  0  0  0  0  0  0  0  0  0  0  0
   -5.8130   18.6160  -31.3900 O   0  0  0  0  0  0  0  0  0  0  0  0
   -4.9580   19.5200  -33.7510 N   0  0  0  0  0  0  0  0  0  0  0  0
   -6.0830   18.7650  -34.3190 C   0  0  0  0  0  0  0  0  0  0  0  0
   -5.7520   17.2870  -34.2120 C   0  0  0  0  0  0  0  0  0  0  0  0
   -4.2450   17.2230  -34.0410 C   0  0  0  0  0  0  0  0  0  0  0  0
   -3.7740   18.6710  -33.9400 C   0  0  0  0  0  0  0  0  0  0  0  0
   -5.7850   22.4700  -31.5300 C   0  0  0  0  0  0  0  0  0  0  0  0
   -2.3820   23.9370  -28.4980 C   0  0  0  0  0  0  0  0  0  0  0  0
   -1.8970   25.1300  -29.0500 O   0  0  0  0  0  0  0  0  0  0  0  0
   -1.4960   23.0700  -27.8180 C   0  0  0  0  0  0  0  0  0  0  0  0
    0.1430   23.6710  -27.4260 S   0  0  0  0  0  0  0  0  0  0  0  0
    1.1210   22.5370  -27.2810 O   0  0  0  0  0  0  0  0  0  0  0  0
    0.6330   24.5190  -28.5720 O   0  0  0  0  0  0  0  0  0  0  0  0
    0.1810   24.6240  -25.9450 N   0  0  0  0  0  0  0  0  0  0  0  0
    0.7470   25.9790  -26.1170 C   0  0  0  0  0  0  0  0  0  0  0  0
   -0.3300   27.0660  -26.2880 C   0  0  0  0  0  0  0  0  0  0  0  0
   -1.5380   26.5150  -26.7540 O   0  0  0  0  0  0  0  0  0  0  0  0
   -2.1030   25.6610  -25.7740 C   0  0  0  0  0  0  0  0  0  0  0  0
   -1.1070   24.6220  -25.2200 C   0  0  0  0  0  0  0  0  0  0  0  0
   -1.1310   20.8215  -25.6637 H   0  0  0  0  0  0  0  0  0  0  0  0
   -1.3956   19.7524  -27.0828 H   0  0  0  0  0  0  0  0  0  0  0  0
   -0.0346   20.9248  -27.0828 H   0  0  0  0  0  0  0  0  0  0  0  0
   -3.7044   20.5038  -27.1994 H   0  0  0  0  0  0  0  0  0  0  0  0
   -5.2916   22.1609  -28.1570 H   0  0  0  0  0  0  0  0  0  0  0  0
   -8.6906   24.2806  -31.4770 H   0  0  0  0  0  0  0  0  0  0  0  0
   -9.6254   22.0386  -32.0399 H   0  0  0  0  0  0  0  0  0  0  0  0
   -8.1062   20.0744  -32.2990 H   0  0  0  0  0  0  0  0  0  0  0  0
   -7.0026   18.9841  -33.7565 H   0  0  0  0  0  0  0  0  0  0  0  0
   -6.2434   19.0475  -35.3699 H   0  0  0  0  0  0  0  0  0  0  0  0
   -6.2573   16.8414  -33.3425 H   0  0  0  0  0  0  0  0  0  0  0  0
   -6.0874   16.7274  -35.0976 H   0  0  0  0  0  0  0  0  0  0  0  0
   -3.9869   16.6718  -33.1247 H   0  0  0  0  0  0  0  0  0  0  0  0
   -3.7650   16.6997  -34.8811 H   0  0  0  0  0  0  0  0  0  0  0  0
   -3.0931   18.7834  -33.0834 H   0  0  0  0  0  0  0  0  0  0  0  0
   -3.2357   18.9629  -34.8538 H   0  0  0  0  0  0  0  0  0  0  0  0
   -4.7044   22.5852  -31.3594 H   0  0  0  0  0  0  0  0  0  0  0  0
   -2.4030   25.6740  -29.7370 H   0  0  0  0  0  0  0  0  0  0  0  0
    1.3512   26.2212  -25.2303 H   0  0  0  0  0  0  0  0  0  0  0  0
    1.3509   25.9680  -27.0363 H   0  0  0  0  0  0  0  0  0  0  0  0
   -0.5077   27.5512  -25.3169 H   0  0  0  0  0  0  0  0  0  0  0  0
    0.0275   27.7981  -27.0271 H   0  0  0  0  0  0  0  0  0  0  0  0
   -2.4629   26.2792  -24.9384 H   0  0  0  0  0  0  0  0  0  0  0  0
   -2.9176   25.1035  -26.2595 H   0  0  0  0  0  0  0  0  0  0  0  0
   -0.9150   24.8483  -24.1608 H   0  0  0  0  0  0  0  0  0  0  0  0
   -1.5589   23.6273  -25.3478 H   0  0  0  0  0  0  0  0  0  0  0  0
  1  2  1  0
  2  3  2  0
  3  4  1  0
  4  5  2  0
  5  6  1  0
  6  7  1  0
  7  8  2  0
  7  9  1  0
  9 10  1  0
 10 11  2  0
 11 12  1  0
 12 13  2  0
 13 14  1  0
 14 15  1  0
 15 16  2  0
 15 17  2  0
 15 18  1  0
 18 19  1  0
 19 20  1  0
 20 21  1  0
 21 22  1  0
 14 23  2  0
  5 24  1  0
 24 25  1  0
 24 26  2  0
 26 27  1  0
 27 28  2  0
 27 29  2  0
 27 30  1  0
 30 31  1  0
 31 32  1  0
 32 33  1  0
 33 34  1  0
 34 35  1  0
 26  2  1  0
 35 30  1  0
 23 10  1  0
 22 18  1  0
  1 36  1  0
  1 37  1  0
  1 38  1  0
  3 39  1  0
  4 40  1  0
 11 41  1  0
 12 42  1  0
 13 43  1  0
 19 44  1  0
 19 45  1  0
 20 46  1  0
 20 47  1  0
 21 48  1  0
 21 49  1  0
 22 50  1  0
 22 51  1  0
 23 52  1  0
 25 53  1  0
 31 54  1  0
 31 55  1  0
 32 56  1  0
 32 57  1  0
 34 58  1  0
 34 59  1  0
 35 60  1  0
 35 61  1  0
M  CHG  2   6  -1   9  -1
M  END
>  <UniqueID>  (30) 
30

>  <SMILES>  (30) 
Cc1ccc([N-]C(=O)[N-]c2cccc(S(=O)(=O)N3CCCC3)c2)c(O)c1S(=O)(=O)N1CCOCC1

>  <Energy>  (30) 
88.92119200803204

>  <Genealogy>  (30) 
Cc1ccc([N-]C(=O)[N-]c2cccc(S(=O)(=O)N3CCCC3)c2)c(O)c1S(=O)(=O)N1CCOCC1 (protonated)
Cc1ccc([N-]C(=O)[N-]c2cccc(S(=O)(=O)N3CCCC3)c2)c(O)c1S(=O)(=O)N1CCOCC1 (3D coordinates assigned)
Cc1ccc([N-]C(=O)[N-]c2cccc(S(=O)(=O)N3CCCC3)c2)c(O)c1S(=O)(=O)N1CCOCC1 (nonaromatic ring conformer: 88.92119200803204 kcal/mol)

>  <smiles>  (30) 
Cc1ccc(NC(=O)Nc2cccc(S(=O)(=O)N3CCCC3)c2)c(O)c1S(=O)(=O)N1CCOCC1

>  <score_type>  (30) 
oracle

>  <origin>  (30) 
adgpu

>  <m_score__min__energy>  (30) 
-13.84

>  <m_primary>  (30) 
energy

$$$$
30:0
     RDKit          3D

 42 45  0  0  0  0  0  0  0  0999 V2000
   -2.1160   23.3090  -29.3610 O   0  0  0  0  0  0  0  0  0  0  0  0
   -3.2360   23.8180  -29.0810 C   0  0  0  0  0  0  0  0  0  0  0  0
   -3.3210   24.8470  -28.0790 N   0  0  0  0  0  0  0  0  0  0  0  0
   -2.1850   25.3040  -27.3310 C   0  0  0  0  0  0  0  0  0  0  0  0
   -2.0480   24.9180  -25.9890 C   0  0  0  0  0  0  0  0  0  0  0  0
   -0.9460   25.3410  -25.2410 C   0  0  0  0  0  0  0  0  0  0  0  0
    0.0360   26.1400  -25.8320 C   0  0  0  0  0  0  0  0  0  0  0  0
   -0.0760   26.5070  -27.1750 C   0  0  0  0  0  0  0  0  0  0  0  0
   -1.1750   26.0820  -27.9320 C   0  0  0  0  0  0  0  0  0  0  0  0
   -1.2380   26.4120  -29.2810 O   0  0  0  0  0  0  0  0  0  0  0  0
   -4.4420   23.3400  -29.8000 C   0  0  0  0  0  0  0  0  0  0  0  0
   -5.6360   24.1080  -29.8310 C   0  0  0  0  0  0  0  0  0  0  0  0
   -6.7730   23.6460  -30.5170 C   0  0  0  0  0  0  0  0  0  0  0  0
   -6.6910   22.4210  -31.1720 C   0  0  0  0  0  0  0  0  0  0  0  0
   -5.5360   21.6740  -31.1610 C   0  0  0  0  0  0  0  0  0  0  0  0
   -4.3950   22.1040  -30.4880 C   0  0  0  0  0  0  0  0  0  0  0  0
   -5.7880   20.4570  -31.9240 C   0  0  0  0  0  0  0  0  0  0  0  0
   -4.9680   19.5170  -32.0980 O   0  0  0  0  0  0  0  0  0  0  0  0
   -7.1210   20.4670  -32.4390 N   0  0  0  0  0  0  0  0  0  0  0  0
   -7.8620   19.3150  -32.9460 C   0  0  0  0  0  0  0  0  0  0  0  0
   -6.9100   18.2640  -33.4450 C   0  0  0  0  0  0  0  0  0  0  0  0
   -6.0900   18.5110  -34.5550 C   0  0  0  0  0  0  0  0  0  0  0  0
   -5.1820   17.5410  -34.9820 C   0  0  0  0  0  0  0  0  0  0  0  0
   -5.0950   16.3330  -34.2880 C   0  0  0  0  0  0  0  0  0  0  0  0
   -5.8870   16.1110  -33.2060 N   0  0  0  0  0  0  0  0  0  0  0  0
   -6.7800   17.0400  -32.7700 C   0  0  0  0  0  0  0  0  0  0  0  0
   -7.6870   21.6860  -31.9450 C   0  0  0  0  0  0  0  0  0  0  0  0
   -8.8770   22.0470  -32.1410 O   0  0  0  0  0  0  0  0  0  0  0  0
   -4.2190   25.3610  -27.9370 H   0  0  0  0  0  0  0  0  0  0  0  0
   -2.8124   24.2788  -25.5231 H   0  0  0  0  0  0  0  0  0  0  0  0
   -0.8516   25.0446  -24.1859 H   0  0  0  0  0  0  0  0  0  0  0  0
    0.8979   26.4803  -25.2393 H   0  0  0  0  0  0  0  0  0  0  0  0
    0.7012   27.1316  -27.6395 H   0  0  0  0  0  0  0  0  0  0  0  0
   -5.6718   25.0770  -29.3116 H   0  0  0  0  0  0  0  0  0  0  0  0
   -7.7011   24.2362  -30.5354 H   0  0  0  0  0  0  0  0  0  0  0  0
   -3.4779   21.4966  -30.4911 H   0  0  0  0  0  0  0  0  0  0  0  0
   -8.4768   18.8937  -32.1369 H   0  0  0  0  0  0  0  0  0  0  0  0
   -8.5058   19.6397  -33.7768 H   0  0  0  0  0  0  0  0  0  0  0  0
   -6.1623   19.4697  -35.0895 H   0  0  0  0  0  0  0  0  0  0  0  0
   -4.5413   17.7265  -35.8567 H   0  0  0  0  0  0  0  0  0  0  0  0
   -4.3849   15.5601  -34.6171 H   0  0  0  0  0  0  0  0  0  0  0  0
   -7.4015   16.8317  -31.8867 H   0  0  0  0  0  0  0  0  0  0  0  0
  1  2  2  0
  2  3  1  0
  3  4  1  0
  4  5  2  0
  5  6  1  0
  6  7  2  0
  7  8  1  0
  8  9  2  0
  9 10  1  0
  2 11  1  0
 11 12  2  0
 12 13  1  0
 13 14  2  0
 14 15  1  0
 15 16  2  0
 15 17  1  0
 17 18  2  0
 17 19  1  0
 19 20  1  0
 20 21  1  0
 21 22  2  0
 22 23  1  0
 23 24  2  0
 24 25  1  0
 25 26  2  0
 19 27  1  0
 27 28  2  0
  9  4  1  0
 16 11  1  0
 26 21  1  0
 27 14  1  0
  3 29  1  0
  5 30  1  0
  6 31  1  0
  7 32  1  0
  8 33  1  0
 12 34  1  0
 13 35  1  0
 16 36  1  0
 20 37  1  0
 20 38  1  0
 22 39  1  0
 23 40  1  0
 24 41  1  0
 26 42  1  0
M  CHG  1  10  -1
M  END
>  <UniqueID>  (31) 
31

>  <SMILES>  (31) 
O=C(Nc1ccccc1[O-])c1ccc2c(c1)C(=O)N(Cc1cccnc1)C2=O

>  <Energy>  (31) 
86.43329580348676

>  <Genealogy>  (31) 
O=C(Nc1ccccc1[O-])c1ccc2c(c1)C(=O)N(Cc1cccnc1)C2=O (protonated)
O=C(Nc1ccccc1[O-])c1ccc2c(c1)C(=O)N(Cc1cccnc1)C2=O (3D coordinates assigned)
O=C(Nc1ccccc1[O-])c1ccc2c(c1)C(=O)N(Cc1cccnc1)C2=O (nonaromatic ring conformer: 86.43329580348676 kcal/mol)

>  <smiles>  (31) 
O=C(Nc1ccccc1O)c1ccc2c(c1)C(=O)N(Cc1cccnc1)C2=O

>  <score_type>  (31) 
oracle

>  <origin>  (31) 
adgpu

>  <m_score__min__energy>  (31) 
-12.26

>  <m_primary>  (31) 
energy

$$$$
31:0
     RDKit          3D

 41 43  0  0  0  0  0  0  0  0999 V2000
   -6.0100   19.0370  -34.7830 N   0  0  0  0  0  0  0  0  0  0  0  0
   -4.9950   17.6460  -34.9240 S   0  0  0  0  0  0  0  0  0  0  0  0
   -4.6100   17.4430  -36.3630 O   0  0  0  0  0  0  0  0  0  0  0  0
   -5.7520   16.4410  -34.4370 O   0  0  0  0  0  0  0  0  0  0  0  0
   -3.5430   17.8800  -33.9560 C   0  0  0  0  0  0  0  0  0  0  0  0
   -2.7870   16.7800  -33.5300 C   0  0  0  0  0  0  0  0  0  0  0  0
   -1.6310   16.9740  -32.7670 C   0  0  0  0  0  0  0  0  0  0  0  0
   -1.2220   18.2680  -32.4140 C   0  0  0  0  0  0  0  0  0  0  0  0
   -0.0200   18.4420  -31.6410 N   0  0  0  0  0  0  0  0  0  0  0  0
    0.0410   19.1560  -30.3960 C   0  0  0  0  0  0  0  0  0  0  0  0
   -1.1210   19.7610  -29.8980 C   0  0  0  0  0  0  0  0  0  0  0  0
   -1.0930   20.4600  -28.6910 C   0  0  0  0  0  0  0  0  0  0  0  0
    0.1020   20.5600  -27.9550 C   0  0  0  0  0  0  0  0  0  0  0  0
    0.1580   21.2820  -26.7140 N   0  0  0  0  0  0  0  0  0  0  0  0
   -0.3260   22.4670  -26.4680 C   0  0  0  0  0  0  0  0  0  0  0  0
   -1.1700   23.2290  -27.4140 C   0  0  0  0  0  0  0  0  0  0  0  0
   -2.3900   22.6770  -27.8280 C   0  0  0  0  0  0  0  0  0  0  0  0
   -3.2150   23.3710  -28.7180 C   0  0  0  0  0  0  0  0  0  0  0  0
   -2.8200   24.6170  -29.2130 C   0  0  0  0  0  0  0  0  0  0  0  0
   -3.6490   25.3070  -30.0900 O   0  0  0  0  0  0  0  0  0  0  0  0
   -1.5900   25.1650  -28.8300 C   0  0  0  0  0  0  0  0  0  0  0  0
   -1.1910   26.3970  -29.3360 O   0  0  0  0  0  0  0  0  0  0  0  0
   -0.7550   24.4680  -27.9460 C   0  0  0  0  0  0  0  0  0  0  0  0
    0.4880   25.0000  -27.6200 O   0  0  0  0  0  0  0  0  0  0  0  0
    1.2800   20.0140  -28.4850 C   0  0  0  0  0  0  0  0  0  0  0  0
    2.4820   20.1620  -27.8010 O   0  0  0  0  0  0  0  0  0  0  0  0
    1.2540   19.3170  -29.7000 C   0  0  0  0  0  0  0  0  0  0  0  0
    2.4390   18.8050  -30.2200 O   0  0  0  0  0  0  0  0  0  0  0  0
   -1.9680   19.3710  -32.8700 C   0  0  0  0  0  0  0  0  0  0  0  0
   -3.1240   19.1750  -33.6310 C   0  0  0  0  0  0  0  0  0  0  0  0
   -6.5940   19.0770  -35.6500 H   0  0  0  0  0  0  0  0  0  0  0  0
   -3.1036   15.7608  -33.7964 H   0  0  0  0  0  0  0  0  0  0  0  0
   -1.0389   16.1059  -32.4417 H   0  0  0  0  0  0  0  0  0  0  0  0
    0.8790   18.0930  -32.0450 H   0  0  0  0  0  0  0  0  0  0  0  0
   -2.0618   19.6841  -30.4629 H   0  0  0  0  0  0  0  0  0  0  0  0
   -2.0100   20.9355  -28.3127 H   0  0  0  0  0  0  0  0  0  0  0  0
   -0.0925   22.9287  -25.4973 H   0  0  0  0  0  0  0  0  0  0  0  0
   -2.7003   21.6916  -27.4503 H   0  0  0  0  0  0  0  0  0  0  0  0
   -4.1762   22.9359  -29.0291 H   0  0  0  0  0  0  0  0  0  0  0  0
   -1.6397   20.3922  -32.6263 H   0  0  0  0  0  0  0  0  0  0  0  0
   -3.7066   20.0420  -33.9757 H   0  0  0  0  0  0  0  0  0  0  0  0
  1  2  1  0
  2  3  2  0
  2  4  2  0
  2  5  1  0
  5  6  2  0
  6  7  1  0
  7  8  2  0
  8  9  1  0
  9 10  1  0
 10 11  2  0
 11 12  1  0
 12 13  2  0
 13 14  1  0
 14 15  2  3
 15 16  1  0
 16 17  2  0
 17 18  1  0
 18 19  2  0
 19 20  1  0
 19 21  1  0
 21 22  1  0
 21 23  2  0
 23 24  1  0
 13 25  1  0
 25 26  1  0
 25 27  2  0
 27 28  1  0
  8 29  1  0
 29 30  2  0
 30  5  1  0
 27 10  1  0
 23 16  1  0
  1 31  1  0
  6 32  1  0
  7 33  1  0
  9 34  1  0
 11 35  1  0
 12 36  1  0
 15 37  1  0
 17 38  1  0
 18 39  1  0
 29 40  1  0
 30 41  1  0
M  CHG  6   1  -1  20  -1  22  -1  24  -1  26  -1  28  -1
M  END
>  <UniqueID>  (32) 
32

>  <SMILES>  (32) 
[NH-]S(=O)(=O)c1ccc(Nc2ccc(N=Cc3ccc([O-])c([O-])c3[O-])c([O-])c2[O-])cc1

>  <Energy>  (32) 
64.17801810048161

>  <Genealogy>  (32) 
[NH-]S(=O)(=O)c1ccc(Nc2ccc(N=Cc3ccc([O-])c([O-])c3[O-])c([O-])c2[O-])cc1 (protonated)
[NH-]S(=O)(=O)c1ccc(Nc2ccc(N=Cc3ccc([O-])c([O-])c3[O-])c([O-])c2[O-])cc1 (3D coordinates assigned)
[NH-]S(=O)(=O)c1ccc(Nc2ccc(N=Cc3ccc([O-])c([O-])c3[O-])c([O-])c2[O-])cc1 (optimized conformer: 64.17801810048161 kcal/mol)

>  <smiles>  (32) 
NS(=O)(=O)c1ccc(Nc2ccc(N=Cc3ccc(O)c(O)c3O)c(O)c2O)cc1

>  <score_type>  (32) 
oracle

>  <origin>  (32) 
adgpu

>  <m_score__min__energy>  (32) 
-14.609999999999999

>  <m_primary>  (32) 
energy

$$$$
32:0
     RDKit          3D

 42 44  0  0  0  0  0  0  0  0999 V2000
   -1.8650   21.0450  -27.1820 C   0  0  0  0  0  0  0  0  0  0  0  0
   -2.3950   22.1410  -28.0580 C   0  0  0  0  0  0  0  0  0  0  0  0
   -2.1290   23.4800  -27.7400 C   0  0  0  0  0  0  0  0  0  0  0  0
   -2.6010   24.5060  -28.5620 C   0  0  0  0  0  0  0  0  0  0  0  0
   -3.3470   24.2090  -29.7090 C   0  0  0  0  0  0  0  0  0  0  0  0
   -3.8390   25.2670  -30.4800 O   0  0  0  0  0  0  0  0  0  0  0  0
   -5.2100   25.6570  -30.4670 C   0  0  0  0  0  0  0  0  0  0  0  0
   -6.0560   24.5460  -30.9940 C   0  0  0  0  0  0  0  0  0  0  0  0
   -6.1760   24.2360  -32.3000 N   0  0  0  0  0  0  0  0  0  0  0  0
   -7.0320   23.2270  -32.3640 N   0  0  0  0  0  0  0  0  0  0  0  0
   -7.3990   22.9700  -31.0950 C   0  0  0  0  0  0  0  0  0  0  0  0
   -8.5520   21.6850  -30.6270 S   0  0  0  0  0  0  0  0  0  0  0  0
   -8.8270   21.0940  -32.3330 C   0  0  0  0  0  0  0  0  0  0  0  0
   -7.8200   20.0280  -32.7080 C   0  0  0  0  0  0  0  0  0  0  0  0
   -6.6760   20.4220  -33.4250 C   0  0  0  0  0  0  0  0  0  0  0  0
   -5.7230   19.4840  -33.8220 C   0  0  0  0  0  0  0  0  0  0  0  0
   -5.8920   18.1380  -33.5020 C   0  0  0  0  0  0  0  0  0  0  0  0
   -7.0150   17.7270  -32.7830 C   0  0  0  0  0  0  0  0  0  0  0  0
   -7.9910   18.6560  -32.3780 C   0  0  0  0  0  0  0  0  0  0  0  0
   -9.1720   18.1680  -31.5790 C   0  0  0  0  0  0  0  0  0  0  0  0
   -6.8060   23.7740  -30.2490 O   0  0  0  0  0  0  0  0  0  0  0  0
   -3.5720   22.8610  -30.0640 C   0  0  0  0  0  0  0  0  0  0  0  0
   -4.2250   22.5140  -31.2460 O   0  0  0  0  0  0  0  0  0  0  0  0
   -3.1040   21.8380  -29.2310 C   0  0  0  0  0  0  0  0  0  0  0  0
   -1.9991   21.3224  -26.1260 H   0  0  0  0  0  0  0  0  0  0  0  0
   -2.4121   20.1134  -27.3887 H   0  0  0  0  0  0  0  0  0  0  0  0
   -0.7950   20.8954  -27.3887 H   0  0  0  0  0  0  0  0  0  0  0  0
   -1.5462   23.7238  -26.8395 H   0  0  0  0  0  0  0  0  0  0  0  0
   -2.3852   25.5540  -28.3066 H   0  0  0  0  0  0  0  0  0  0  0  0
   -5.5138   25.8899  -29.4358 H   0  0  0  0  0  0  0  0  0  0  0  0
   -5.3410   26.5460  -31.1014 H   0  0  0  0  0  0  0  0  0  0  0  0
   -9.8407   20.6736  -32.4088 H   0  0  0  0  0  0  0  0  0  0  0  0
   -8.7093   21.9441  -33.0211 H   0  0  0  0  0  0  0  0  0  0  0  0
   -6.5310   21.4832  -33.6758 H   0  0  0  0  0  0  0  0  0  0  0  0
   -4.8370   19.8070  -34.3883 H   0  0  0  0  0  0  0  0  0  0  0  0
   -5.1398   17.3995  -33.8164 H   0  0  0  0  0  0  0  0  0  0  0  0
   -7.1388   16.6637  -32.5297 H   0  0  0  0  0  0  0  0  0  0  0  0
   -8.9512   18.2592  -30.5053 H   0  0  0  0  0  0  0  0  0  0  0  0
  -10.0564   18.7744  -31.8243 H   0  0  0  0  0  0  0  0  0  0  0  0
   -9.3704   17.1142  -31.8243 H   0  0  0  0  0  0  0  0  0  0  0  0
   -5.2260   22.5940  -31.3580 H   0  0  0  0  0  0  0  0  0  0  0  0
   -3.2934   20.7878  -29.4979 H   0  0  0  0  0  0  0  0  0  0  0  0
  1  2  1  0
  2  3  2  0
  3  4  1  0
  4  5  2  0
  5  6  1  0
  6  7  1  0
  7  8  1  0
  8  9  2  0
  9 10  1  0
 10 11  2  0
 11 12  1  0
 12 13  1  0
 13 14  1  0
 14 15  2  0
 15 16  1  0
 16 17  2  0
 17 18  1  0
 18 19  2  0
 19 20  1  0
 11 21  1  0
  5 22  1  0
 22 23  1  0
 22 24  2  0
 24  2  1  0
 21  8  1  0
 19 14  1  0
  1 25  1  0
  1 26  1  0
  1 27  1  0
  3 28  1  0
  4 29  1  0
  7 30  1  0
  7 31  1  0
 13 32  1  0
 13 33  1  0
 15 34  1  0
 16 35  1  0
 17 36  1  0
 18 37  1  0
 20 38  1  0
 20 39  1  0
 20 40  1  0
 23 41  1  0
 24 42  1  0
M  END
>  <UniqueID>  (33) 
33

>  <SMILES>  (33) 
Cc1ccc(OCc2nnc(SCc3ccccc3C)o2)c(O)c1

>  <Energy>  (33) 
81.75641578385115

>  <Genealogy>  (33) 
Cc1ccc(OCc2nnc(SCc3ccccc3C)o2)c(O)c1 (3D coordinates assigned)
Cc1ccc(OCc2nnc(SCc3ccccc3C)o2)c(O)c1 (optimized conformer: 81.75641578385115 kcal/mol)

>  <smiles>  (33) 
Cc1ccc(OCc2nnc(SCc3ccccc3C)o2)c(O)c1

>  <score_type>  (33) 
oracle

>  <origin>  (33) 
adgpu

>  <m_score__min__energy>  (33) 
-9.6400000000000006

>  <m_primary>  (33) 
energy

$$$$
33:0
     RDKit          3D

 41 43  0  0  0  0  0  0  0  0999 V2000
   -1.7960   23.3340  -27.6870 O   0  0  0  0  0  0  0  0  0  0  0  0
   -1.3640   24.6790  -28.2010 S   0  0  0  0  0  0  0  0  0  0  0  0
   -0.0330   24.5400  -28.8830 O   0  0  0  0  0  0  0  0  0  0  0  0
   -2.5310   25.2590  -29.3430 N   0  0  0  0  0  0  0  0  0  0  0  0
   -3.6870   24.5320  -29.7860 C   0  0  0  0  0  0  0  0  0  0  0  0
   -3.5020   23.4350  -30.6370 C   0  0  0  0  0  0  0  0  0  0  0  0
   -4.6010   22.7040  -31.0980 C   0  0  0  0  0  0  0  0  0  0  0  0
   -5.8980   23.0580  -30.7070 C   0  0  0  0  0  0  0  0  0  0  0  0
   -7.2740   22.1290  -31.2940 S   0  0  0  0  0  0  0  0  0  0  0  0
   -8.4780   22.3940  -30.4320 O   0  0  0  0  0  0  0  0  0  0  0  0
   -7.5750   22.5550  -32.7050 O   0  0  0  0  0  0  0  0  0  0  0  0
   -6.8940   20.4250  -31.2540 N   0  0  0  0  0  0  0  0  0  0  0  0
   -8.1280   19.6000  -31.2170 C   0  0  0  0  0  0  0  0  0  0  0  0
   -8.4720   18.9720  -32.5740 C   0  0  0  0  0  0  0  0  0  0  0  0
   -7.3240   18.0850  -33.0850 C   0  0  0  0  0  0  0  0  0  0  0  0
   -5.9400   18.5870  -32.6350 C   0  0  0  0  0  0  0  0  0  0  0  0
   -5.9650   20.0930  -32.3580 C   0  0  0  0  0  0  0  0  0  0  0  0
   -6.0880   24.1550  -29.8570 C   0  0  0  0  0  0  0  0  0  0  0  0
   -4.9910   24.8870  -29.3960 C   0  0  0  0  0  0  0  0  0  0  0  0
   -1.2080   25.8170  -26.8760 C   0  0  0  0  0  0  0  0  0  0  0  0
   -1.8080   25.7020  -25.6320 C   0  0  0  0  0  0  0  0  0  0  0  0
   -1.5120   26.7750  -24.7830 C   0  0  0  0  0  0  0  0  0  0  0  0
   -0.6820   27.7280  -25.3600 C   0  0  0  0  0  0  0  0  0  0  0  0
   -0.3160   27.2390  -26.9280 S   0  0  0  0  0  0  0  0  0  0  0  0
   -2.4859   23.1469  -30.9445 H   0  0  0  0  0  0  0  0  0  0  0  0
   -4.4461   21.8474  -31.7705 H   0  0  0  0  0  0  0  0  0  0  0  0
   -7.9878   18.7928  -30.4830 H   0  0  0  0  0  0  0  0  0  0  0  0
   -8.9598   20.2655  -30.9428 H   0  0  0  0  0  0  0  0  0  0  0  0
   -9.3784   18.3582  -32.4656 H   0  0  0  0  0  0  0  0  0  0  0  0
   -8.6356   19.7817  -33.3004 H   0  0  0  0  0  0  0  0  0  0  0  0
   -7.4701   17.0645  -32.7012 H   0  0  0  0  0  0  0  0  0  0  0  0
   -7.3464   18.1132  -34.1844 H   0  0  0  0  0  0  0  0  0  0  0  0
   -5.6465   18.0573  -31.7167 H   0  0  0  0  0  0  0  0  0  0  0  0
   -5.2175   18.3912  -33.4410 H   0  0  0  0  0  0  0  0  0  0  0  0
   -4.9520   20.4233  -32.0846 H   0  0  0  0  0  0  0  0  0  0  0  0
   -6.3113   20.6060  -33.2673 H   0  0  0  0  0  0  0  0  0  0  0  0
   -7.1051   24.4413  -29.5512 H   0  0  0  0  0  0  0  0  0  0  0  0
   -5.1477   25.7446  -28.7252 H   0  0  0  0  0  0  0  0  0  0  0  0
   -2.4493   24.8566  -25.3422 H   0  0  0  0  0  0  0  0  0  0  0  0
   -1.8997   26.8559  -23.7568 H   0  0  0  0  0  0  0  0  0  0  0  0
   -0.3243   28.6475  -24.8737 H   0  0  0  0  0  0  0  0  0  0  0  0
  1  2  2  0
  2  3  2  0
  2  4  1  0
  4  5  1  0
  5  6  2  0
  6  7  1  0
  7  8  2  0
  8  9  1  0
  9 10  2  0
  9 11  2  0
  9 12  1  0
 12 13  1  0
 13 14  1  0
 14 15  1  0
 15 16  1  0
 16 17  1  0
  8 18  1  0
 18 19  2  0
  2 20  1  0
 20 21  2  0
 21 22  1  0
 22 23  2  0
 23 24  1  0
 19  5  1  0
 24 20  1  0
 17 12  1  0
  6 25  1  0
  7 26  1  0
 13 27  1  0
 13 28  1  0
 14 29  1  0
 14 30  1  0
 15 31  1  0
 15 32  1  0
 16 33  1  0
 16 34  1  0
 17 35  1  0
 17 36  1  0
 18 37  1  0
 19 38  1  0
 21 39  1  0
 22 40  1  0
 23 41  1  0
M  CHG  1   4  -1
M  END
>  <UniqueID>  (34) 
34

>  <SMILES>  (34) 
O=S(=O)([N-]c1ccc(S(=O)(=O)N2CCCCC2)cc1)c1cccs1

>  <Energy>  (34) 
76.2555197754173

>  <Genealogy>  (34) 
O=S(=O)([N-]c1ccc(S(=O)(=O)N2CCCCC2)cc1)c1cccs1 (protonated)
O=S(=O)([N-]c1ccc(S(=O)(=O)N2CCCCC2)cc1)c1cccs1 (3D coordinates assigned)
O=S(=O)([N-]c1ccc(S(=O)(=O)N2CCCCC2)cc1)c1cccs1 (nonaromatic ring conformer: 76.2555197754173 kcal/mol)

>  <smiles>  (34) 
O=S(=O)(Nc1ccc(S(=O)(=O)N2CCCCC2)cc1)c1cccs1

>  <score_type>  (34) 
oracle

>  <origin>  (34) 
adgpu

>  <m_score__min__energy>  (34) 
-10.75

>  <m_primary>  (34) 
energy

$$$$
34:0
     RDKit          3D

 40 42  0  0  0  0  0  0  0  0999 V2000
   -4.4370   22.6150  -32.6360 C   0  0  0  0  0  0  0  0  0  0  0  0
   -5.7950   22.3880  -32.0270 C   0  0  0  0  0  0  0  0  0  0  0  0
   -6.5610   21.2950  -32.4740 C   0  0  0  0  0  0  0  0  0  0  0  0
   -7.8360   21.0590  -31.9550 C   0  0  0  0  0  0  0  0  0  0  0  0
   -8.7940   19.6620  -32.5300 S   0  0  0  0  0  0  0  0  0  0  0  0
   -8.3650   21.9150  -30.9870 C   0  0  0  0  0  0  0  0  0  0  0  0
   -7.6260   23.0130  -30.5460 C   0  0  0  0  0  0  0  0  0  0  0  0
   -6.3460   23.2700  -31.0630 C   0  0  0  0  0  0  0  0  0  0  0  0
   -5.4730   24.7070  -30.4990 S   0  0  0  0  0  0  0  0  0  0  0  0
   -5.8250   24.9570  -29.0590 O   0  0  0  0  0  0  0  0  0  0  0  0
   -5.8610   25.9170  -31.3040 O   0  0  0  0  0  0  0  0  0  0  0  0
   -3.7610   24.4680  -30.6390 N   0  0  0  0  0  0  0  0  0  0  0  0
   -2.9550   23.7070  -29.7280 C   0  0  0  0  0  0  0  0  0  0  0  0
   -3.2140   22.3500  -29.4640 C   0  0  0  0  0  0  0  0  0  0  0  0
   -2.4260   21.6460  -28.5420 C   0  0  0  0  0  0  0  0  0  0  0  0
   -1.3610   22.2880  -27.8930 C   0  0  0  0  0  0  0  0  0  0  0  0
   -1.0850   23.6330  -28.1780 C   0  0  0  0  0  0  0  0  0  0  0  0
   -1.8830   24.3410  -29.0810 C   0  0  0  0  0  0  0  0  0  0  0  0
   -1.6050   25.6780  -29.3390 O   0  0  0  0  0  0  0  0  0  0  0  0
   -0.4670   21.4870  -26.9830 C   0  0  0  0  0  0  0  0  0  0  0  0
   -1.2470   20.4720  -26.1190 C   0  0  0  0  0  0  0  0  0  0  0  0
   -2.5720   19.9560  -26.7340 C   0  0  0  0  0  0  0  0  0  0  0  0
   -2.6820   20.1960  -28.2440 C   0  0  0  0  0  0  0  0  0  0  0  0
   -3.6925   22.7395  -31.8359 H   0  0  0  0  0  0  0  0  0  0  0  0
   -4.1651   21.7498  -33.2586 H   0  0  0  0  0  0  0  0  0  0  0  0
   -4.4612   23.5216  -33.2586 H   0  0  0  0  0  0  0  0  0  0  0  0
   -6.1513   20.6199  -33.2398 H   0  0  0  0  0  0  0  0  0  0  0  0
   -8.6120   20.0240  -33.8780 H   0  0  0  0  0  0  0  0  0  0  0  0
   -9.3654   21.7234  -30.5717 H   0  0  0  0  0  0  0  0  0  0  0  0
   -8.0505   23.6846  -29.7852 H   0  0  0  0  0  0  0  0  0  0  0  0
   -4.0382   21.8387  -29.9830 H   0  0  0  0  0  0  0  0  0  0  0  0
   -0.2364   24.1332  -27.6885 H   0  0  0  0  0  0  0  0  0  0  0  0
    0.2605   20.9382  -27.5991 H   0  0  0  0  0  0  0  0  0  0  0  0
    0.0273   22.1929  -26.2993 H   0  0  0  0  0  0  0  0  0  0  0  0
   -0.5943   19.6044  -25.9423 H   0  0  0  0  0  0  0  0  0  0  0  0
   -1.5277   21.0082  -25.2005 H   0  0  0  0  0  0  0  0  0  0  0  0
   -2.6439   18.8743  -26.5476 H   0  0  0  0  0  0  0  0  0  0  0  0
   -3.3891   20.5177  -26.2577 H   0  0  0  0  0  0  0  0  0  0  0  0
   -1.9388   19.5774  -28.7684 H   0  0  0  0  0  0  0  0  0  0  0  0
   -3.6920   19.9250  -28.5851 H   0  0  0  0  0  0  0  0  0  0  0  0
  1  2  1  0
  2  3  2  0
  3  4  1  0
  4  5  1  0
  4  6  2  0
  6  7  1  0
  7  8  2  0
  8  9  1  0
  9 10  2  0
  9 11  2  0
  9 12  1  0
 12 13  1  0
 13 14  2  0
 14 15  1  0
 15 16  2  0
 16 17  1  0
 17 18  2  0
 18 19  1  0
 16 20  1  0
 20 21  1  0
 21 22  1  0
 22 23  1  0
  8  2  1  0
 18 13  1  0
 23 15  1  0
  1 24  1  0
  1 25  1  0
  1 26  1  0
  3 27  1  0
  5 28  1  0
  6 29  1  0
  7 30  1  0
 14 31  1  0
 17 32  1  0
 20 33  1  0
 20 34  1  0
 21 35  1  0
 21 36  1  0
 22 37  1  0
 22 38  1  0
 23 39  1  0
 23 40  1  0
M  CHG  2  12  -1  19  -1
M  END
>  <UniqueID>  (35) 
35

>  <SMILES>  (35) 
Cc1cc(S)ccc1S(=O)(=O)[N-]c1cc2c(cc1[O-])CCCC2

>  <Energy>  (35) 
48.46190751569053

>  <Genealogy>  (35) 
Cc1cc(S)ccc1S(=O)(=O)[N-]c1cc2c(cc1[O-])CCCC2 (protonated)
Cc1cc(S)ccc1S(=O)(=O)[N-]c1cc2c(cc1[O-])CCCC2 (3D coordinates assigned)
Cc1cc(S)ccc1S(=O)(=O)[N-]c1cc2c(cc1[O-])CCCC2 (nonaromatic ring conformer: 48.46190751569053 kcal/mol)

>  <smiles>  (35) 
Cc1cc(S)ccc1S(=O)(=O)Nc1cc2c(cc1O)CCCC2

>  <score_type>  (35) 
oracle

>  <origin>  (35) 
adgpu

>  <m_score__min__energy>  (35) 
-13.460000000000001

>  <m_primary>  (35) 
energy

$$$$
35:0
     RDKit          3D

 50 52  0  0  0  0  0  0  0  0999 V2000
   -4.4840   18.9400  -34.1090 C   0  0  0  0  0  0  0  0  0  0  0  0
   -4.1060   20.2170  -33.6080 O   0  0  0  0  0  0  0  0  0  0  0  0
   -3.5740   20.4490  -32.3290 C   0  0  0  0  0  0  0  0  0  0  0  0
   -2.2830   20.0090  -31.9770 C   0  0  0  0  0  0  0  0  0  0  0  0
   -1.7760   20.2480  -30.6990 C   0  0  0  0  0  0  0  0  0  0  0  0
   -2.5420   20.9390  -29.7540 C   0  0  0  0  0  0  0  0  0  0  0  0
   -2.0070   21.1750  -28.3990 C   0  0  0  0  0  0  0  0  0  0  0  0
   -2.1760   20.1730  -27.4310 C   0  0  0  0  0  0  0  0  0  0  0  0
   -1.7070   20.3590  -26.1300 C   0  0  0  0  0  0  0  0  0  0  0  0
   -1.0620   21.5450  -25.7820 C   0  0  0  0  0  0  0  0  0  0  0  0
   -0.8760   22.5470  -26.7370 C   0  0  0  0  0  0  0  0  0  0  0  0
   -1.3360   22.3740  -28.0530 C   0  0  0  0  0  0  0  0  0  0  0  0
   -1.0340   23.6580  -29.2370 S   0  0  0  0  0  0  0  0  0  0  0  0
    0.2940   24.3130  -28.9730 O   0  0  0  0  0  0  0  0  0  0  0  0
   -0.9990   23.0690  -30.6190 O   0  0  0  0  0  0  0  0  0  0  0  0
   -2.2810   24.8540  -29.1560 N   0  0  0  0  0  0  0  0  0  0  0  0
   -3.6060   24.6180  -29.6410 C   0  0  0  0  0  0  0  0  0  0  0  0
   -4.6420   24.0520  -28.7310 C   0  0  0  0  0  0  0  0  0  0  0  0
   -3.9070   24.8900  -30.8330 O   0  0  0  0  0  0  0  0  0  0  0  0
   -3.8310   21.3690  -30.0910 C   0  0  0  0  0  0  0  0  0  0  0  0
   -4.3530   21.1310  -31.3720 C   0  0  0  0  0  0  0  0  0  0  0  0
   -5.9880   21.7040  -31.7530 S   0  0  0  0  0  0  0  0  0  0  0  0
   -6.6300   22.2090  -30.4920 O   0  0  0  0  0  0  0  0  0  0  0  0
   -5.9080   22.8570  -32.7160 O   0  0  0  0  0  0  0  0  0  0  0  0
   -7.0020   20.4590  -32.4420 N   0  0  0  0  0  0  0  0  0  0  0  0
   -6.8420   19.1740  -31.7630 C   0  0  0  0  0  0  0  0  0  0  0  0
   -8.1310   18.4040  -32.0020 C   0  0  0  0  0  0  0  0  0  0  0  0
   -9.1680   19.4590  -32.3590 C   0  0  0  0  0  0  0  0  0  0  0  0
   -8.4220   20.7830  -32.3280 C   0  0  0  0  0  0  0  0  0  0  0  0
   -4.6851   18.2608  -33.2674 H   0  0  0  0  0  0  0  0  0  0  0  0
   -5.3908   19.0409  -34.7234 H   0  0  0  0  0  0  0  0  0  0  0  0
   -3.6684   18.5311  -34.7234 H   0  0  0  0  0  0  0  0  0  0  0  0
   -1.6694   19.4725  -32.7157 H   0  0  0  0  0  0  0  0  0  0  0  0
   -0.7698   19.8916  -30.4335 H   0  0  0  0  0  0  0  0  0  0  0  0
   -2.6820   19.2340  -27.6999 H   0  0  0  0  0  0  0  0  0  0  0  0
   -1.8464   19.5686  -25.3778 H   0  0  0  0  0  0  0  0  0  0  0  0
   -0.6991   21.6918  -24.7540 H   0  0  0  0  0  0  0  0  0  0  0  0
   -0.3649   23.4797  -26.4562 H   0  0  0  0  0  0  0  0  0  0  0  0
   -4.3412   24.2163  -27.6858 H   0  0  0  0  0  0  0  0  0  0  0  0
   -5.6053   24.5492  -28.9178 H   0  0  0  0  0  0  0  0  0  0  0  0
   -4.7441   22.9728  -28.9178 H   0  0  0  0  0  0  0  0  0  0  0  0
   -4.4408   21.8987  -29.3443 H   0  0  0  0  0  0  0  0  0  0  0  0
   -5.9864   18.6248  -32.1830 H   0  0  0  0  0  0  0  0  0  0  0  0
   -6.6498   19.3099  -30.6885 H   0  0  0  0  0  0  0  0  0  0  0  0
   -8.0060   17.6908  -32.8301 H   0  0  0  0  0  0  0  0  0  0  0  0
   -8.4286   17.8181  -31.1198 H   0  0  0  0  0  0  0  0  0  0  0  0
   -9.5784   19.2716  -33.3622 H   0  0  0  0  0  0  0  0  0  0  0  0
  -10.0177   19.4511  -31.6604 H   0  0  0  0  0  0  0  0  0  0  0  0
   -8.7365   21.4167  -33.1703 H   0  0  0  0  0  0  0  0  0  0  0  0
   -8.6315   21.3372  -31.4012 H   0  0  0  0  0  0  0  0  0  0  0  0
  1  2  1  0
  2  3  1  0
  3  4  2  0
  4  5  1  0
  5  6  2  0
  6  7  1  0
  7  8  2  0
  8  9  1  0
  9 10  2  0
 10 11  1  0
 11 12  2  0
 12 13  1  0
 13 14  2  0
 13 15  2  0
 13 16  1  0
 16 17  1  0
 17 18  1  0
 17 19  2  0
  6 20  1  0
 20 21  2  0
 21 22  1  0
 22 23  2  0
 22 24  2  0
 22 25  1  0
 25 26  1  0
 26 27  1  0
 27 28  1  0
 28 29  1  0
 21  3  1  0
 29 25  1  0
 12  7  1  0
  1 30  1  0
  1 31  1  0
  1 32  1  0
  4 33  1  0
  5 34  1  0
  8 35  1  0
  9 36  1  0
 10 37  1  0
 11 38  1  0
 18 39  1  0
 18 40  1  0
 18 41  1  0
 20 42  1  0
 26 43  1  0
 26 44  1  0
 27 45  1  0
 27 46  1  0
 28 47  1  0
 28 48  1  0
 29 49  1  0
 29 50  1  0
M  CHG  1  16  -1
M  END
>  <UniqueID>  (36) 
36

>  <SMILES>  (36) 
COc1ccc(-c2ccccc2S(=O)(=O)[N-]C(C)=O)cc1S(=O)(=O)N1CCCC1

>  <Energy>  (36) 
59.274359588048625

>  <Genealogy>  (36) 
COc1ccc(-c2ccccc2S(=O)(=O)[N-]C(C)=O)cc1S(=O)(=O)N1CCCC1 (protonated)
COc1ccc(-c2ccccc2S(=O)(=O)[N-]C(C)=O)cc1S(=O)(=O)N1CCCC1 (3D coordinates assigned)
COc1ccc(-c2ccccc2S(=O)(=O)[N-]C(C)=O)cc1S(=O)(=O)N1CCCC1 (nonaromatic ring conformer: 59.274359588048625 kcal/mol)

>  <smiles>  (36) 
COc1ccc(-c2ccccc2S(=O)(=O)NC(C)=O)cc1S(=O)(=O)N1CCCC1

>  <score_type>  (36) 
oracle

>  <origin>  (36) 
adgpu

>  <m_score__min__energy>  (36) 
-11.039999999999999

>  <m_primary>  (36) 
energy

$$$$
36:0
     RDKit          3D

 47 49  0  0  0  0  0  0  0  0999 V2000
   -1.2310   26.0830  -29.0160 N   0  0  0  0  0  0  0  0  0  0  0  0
   -1.0670   24.4950  -28.3510 S   0  0  0  0  0  0  0  0  0  0  0  0
   -1.7260   24.4830  -27.0010 O   0  0  0  0  0  0  0  0  0  0  0  0
    0.3920   24.1720  -28.2060 O   0  0  0  0  0  0  0  0  0  0  0  0
   -1.8320   23.3280  -29.4380 C   0  0  0  0  0  0  0  0  0  0  0  0
   -1.3360   22.0140  -29.4420 C   0  0  0  0  0  0  0  0  0  0  0  0
   -1.8240   21.0710  -30.3490 C   0  0  0  0  0  0  0  0  0  0  0  0
   -2.8060   21.4320  -31.2700 C   0  0  0  0  0  0  0  0  0  0  0  0
   -3.3220   22.7280  -31.2690 C   0  0  0  0  0  0  0  0  0  0  0  0
   -2.8720   23.6740  -30.3380 C   0  0  0  0  0  0  0  0  0  0  0  0
   -3.4910   24.9680  -30.3450 N   0  0  0  0  0  0  0  0  0  0  0  0
   -4.8900   25.2330  -30.5310 C   0  0  0  0  0  0  0  0  0  0  0  0
   -5.2980   26.4190  -30.4110 O   0  0  0  0  0  0  0  0  0  0  0  0
   -5.8650   24.1650  -30.8520 C   0  0  0  0  0  0  0  0  0  0  0  0
   -6.2780   23.9290  -32.1740 C   0  0  0  0  0  0  0  0  0  0  0  0
   -7.1400   22.8690  -32.4680 C   0  0  0  0  0  0  0  0  0  0  0  0
   -7.6160   22.0430  -31.4430 C   0  0  0  0  0  0  0  0  0  0  0  0
   -8.6160   20.6420  -31.8300 S   0  0  0  0  0  0  0  0  0  0  0  0
   -9.8370   21.1000  -32.5790 O   0  0  0  0  0  0  0  0  0  0  0  0
   -9.0690   19.9830  -30.5560 O   0  0  0  0  0  0  0  0  0  0  0  0
   -7.7380   19.4890  -32.8040 N   0  0  0  0  0  0  0  0  0  0  0  0
   -6.3230   19.8810  -32.9110 C   0  0  0  0  0  0  0  0  0  0  0  0
   -5.6050   19.0170  -33.9630 C   0  0  0  0  0  0  0  0  0  0  0  0
   -6.2900   17.6550  -34.1710 C   0  0  0  0  0  0  0  0  0  0  0  0
   -6.8750   17.1270  -32.8570 C   0  0  0  0  0  0  0  0  0  0  0  0
   -7.8670   18.1330  -32.2290 C   0  0  0  0  0  0  0  0  0  0  0  0
   -7.2560   22.3110  -30.1160 C   0  0  0  0  0  0  0  0  0  0  0  0
   -6.3950   23.3710  -29.8210 C   0  0  0  0  0  0  0  0  0  0  0  0
   -1.2400   25.9790  -30.0550 H   0  0  0  0  0  0  0  0  0  0  0  0
   -0.5551   21.7247  -28.7233 H   0  0  0  0  0  0  0  0  0  0  0  0
   -1.4333   20.0428  -30.3366 H   0  0  0  0  0  0  0  0  0  0  0  0
   -3.1743   20.6944  -31.9982 H   0  0  0  0  0  0  0  0  0  0  0  0
   -4.0889   23.0100  -32.0055 H   0  0  0  0  0  0  0  0  0  0  0  0
   -5.9205   24.5829  -32.9830 H   0  0  0  0  0  0  0  0  0  0  0  0
   -7.4454   22.6831  -33.5083 H   0  0  0  0  0  0  0  0  0  0  0  0
   -6.2613   20.9386  -33.2072 H   0  0  0  0  0  0  0  0  0  0  0  0
   -5.8369   19.7327  -31.9354 H   0  0  0  0  0  0  0  0  0  0  0  0
   -5.5985   19.5589  -34.9203 H   0  0  0  0  0  0  0  0  0  0  0  0
   -4.5841   18.8267  -33.6002 H   0  0  0  0  0  0  0  0  0  0  0  0
   -7.1009   17.7688  -34.9055 H   0  0  0  0  0  0  0  0  0  0  0  0
   -5.5392   16.9373  -34.5332 H   0  0  0  0  0  0  0  0  0  0  0  0
   -7.4026   16.1824  -33.0555 H   0  0  0  0  0  0  0  0  0  0  0  0
   -6.0469   16.9741  -32.1493 H   0  0  0  0  0  0  0  0  0  0  0  0
   -8.8918   17.7725  -32.4018 H   0  0  0  0  0  0  0  0  0  0  0  0
   -7.6383   18.2020  -31.1552 H   0  0  0  0  0  0  0  0  0  0  0  0
   -7.6526   21.6847  -29.3034 H   0  0  0  0  0  0  0  0  0  0  0  0
   -6.1304   23.5853  -28.7750 H   0  0  0  0  0  0  0  0  0  0  0  0
  1  2  1  0
  2  3  2  0
  2  4  2  0
  2  5  1  0
  5  6  2  0
  6  7  1  0
  7  8  2  0
  8  9  1  0
  9 10  2  0
 10 11  1  0
 11 12  1  0
 12 13  2  0
 12 14  1  0
 14 15  2  0
 15 16  1  0
 16 17  2  0
 17 18  1  0
 18 19  2  0
 18 20  2  0
 18 21  1  0
 21 22  1  0
 22 23  1  0
 23 24  1  0
 24 25  1  0
 25 26  1  0
 17 27  1  0
 27 28  2  0
 10  5  1  0
 28 14  1  0
 26 21  1  0
  1 29  1  0
  6 30  1  0
  7 31  1  0
  8 32  1  0
  9 33  1  0
 15 34  1  0
 16 35  1  0
 22 36  1  0
 22 37  1  0
 23 38  1  0
 23 39  1  0
 24 40  1  0
 24 41  1  0
 25 42  1  0
 25 43  1  0
 26 44  1  0
 26 45  1  0
 27 46  1  0
 28 47  1  0
M  CHG  2   1  -1  11  -1
M  END
>  <UniqueID>  (37) 
37

>  <SMILES>  (37) 
[NH-]S(=O)(=O)c1ccccc1[N-]C(=O)c1ccc(S(=O)(=O)N2CCCCC2)cc1

>  <Energy>  (37) 
61.20933974560649

>  <Genealogy>  (37) 
[NH-]S(=O)(=O)c1ccccc1[N-]C(=O)c1ccc(S(=O)(=O)N2CCCCC2)cc1 (protonated)
[NH-]S(=O)(=O)c1ccccc1[N-]C(=O)c1ccc(S(=O)(=O)N2CCCCC2)cc1 (3D coordinates assigned)
[NH-]S(=O)(=O)c1ccccc1[N-]C(=O)c1ccc(S(=O)(=O)N2CCCCC2)cc1 (nonaromatic ring conformer: 61.20933974560649 kcal/mol)

>  <smiles>  (37) 
NS(=O)(=O)c1ccccc1NC(=O)c1ccc(S(=O)(=O)N2CCCCC2)cc1

>  <score_type>  (37) 
oracle

>  <origin>  (37) 
adgpu

>  <m_score__min__energy>  (37) 
-15.01

>  <m_primary>  (37) 
energy

$$$$
37:0
     RDKit          3D

 41 43  0  0  0  0  0  0  0  0999 V2000
   -3.4660   21.4280  -33.4690 C   0  0  0  0  0  0  0  0  0  0  0  0
   -4.3560   20.5030  -32.7000 C   0  0  0  0  0  0  0  0  0  0  0  0
   -3.9790   19.3160  -32.4990 O   0  0  0  0  0  0  0  0  0  0  0  0
   -5.6010   20.9700  -32.1430 N   0  0  0  0  0  0  0  0  0  0  0  0
   -6.8050   20.1680  -32.4210 C   0  0  0  0  0  0  0  0  0  0  0  0
   -7.9910   20.5920  -31.5520 C   0  0  0  0  0  0  0  0  0  0  0  0
   -8.2210   22.0960  -31.6720 C   0  0  0  0  0  0  0  0  0  0  0  0
   -6.9750   22.8450  -31.2870 C   0  0  0  0  0  0  0  0  0  0  0  0
   -7.0810   24.1130  -30.6970 C   0  0  0  0  0  0  0  0  0  0  0  0
   -5.9370   24.8270  -30.3300 C   0  0  0  0  0  0  0  0  0  0  0  0
   -6.0910   26.0740  -29.7270 O   0  0  0  0  0  0  0  0  0  0  0  0
   -4.6640   24.2800  -30.5640 C   0  0  0  0  0  0  0  0  0  0  0  0
   -3.5000   25.0240  -30.1740 N   0  0  0  0  0  0  0  0  0  0  0  0
   -2.3860   24.5680  -28.9250 S   0  0  0  0  0  0  0  0  0  0  0  0
   -3.0280   24.7840  -27.5860 O   0  0  0  0  0  0  0  0  0  0  0  0
   -1.1600   25.4320  -29.0180 O   0  0  0  0  0  0  0  0  0  0  0  0
   -1.9670   22.8670  -29.0910 C   0  0  0  0  0  0  0  0  0  0  0  0
   -1.3710   22.3860  -30.2670 C   0  0  0  0  0  0  0  0  0  0  0  0
   -1.0850   21.0260  -30.4040 C   0  0  0  0  0  0  0  0  0  0  0  0
   -1.3870   20.1390  -29.3650 C   0  0  0  0  0  0  0  0  0  0  0  0
   -1.9760   20.6130  -28.1880 C   0  0  0  0  0  0  0  0  0  0  0  0
   -2.3850   19.4000  -26.7700 Br  0  0  0  0  0  0  0  0  0  0  0  0
   -2.2670   21.9740  -28.0510 C   0  0  0  0  0  0  0  0  0  0  0  0
   -4.5590   23.0150  -31.1670 C   0  0  0  0  0  0  0  0  0  0  0  0
   -5.7070   22.2920  -31.5510 C   0  0  0  0  0  0  0  0  0  0  0  0
   -2.8784   22.0387  -32.7678 H   0  0  0  0  0  0  0  0  0  0  0  0
   -2.7855   20.8399  -34.1023 H   0  0  0  0  0  0  0  0  0  0  0  0
   -4.0799   22.0854  -34.1023 H   0  0  0  0  0  0  0  0  0  0  0  0
   -7.0779   20.2927  -33.4793 H   0  0  0  0  0  0  0  0  0  0  0  0
   -6.5737   19.1177  -32.1902 H   0  0  0  0  0  0  0  0  0  0  0  0
   -8.8939   20.0587  -31.8842 H   0  0  0  0  0  0  0  0  0  0  0  0
   -7.7736   20.3447  -30.5024 H   0  0  0  0  0  0  0  0  0  0  0  0
   -8.4857   22.3412  -32.7111 H   0  0  0  0  0  0  0  0  0  0  0  0
   -9.0385   22.3888  -30.9967 H   0  0  0  0  0  0  0  0  0  0  0  0
   -8.0750   24.5501  -30.5213 H   0  0  0  0  0  0  0  0  0  0  0  0
   -5.3940   26.4700  -29.1090 H   0  0  0  0  0  0  0  0  0  0  0  0
   -1.1284   23.0823  -31.0833 H   0  0  0  0  0  0  0  0  0  0  0  0
   -0.6221   20.6520  -31.3291 H   0  0  0  0  0  0  0  0  0  0  0  0
   -1.1611   19.0680  -29.4737 H   0  0  0  0  0  0  0  0  0  0  0  0
   -2.7321   22.3453  -27.1259 H   0  0  0  0  0  0  0  0  0  0  0  0
   -3.5635   22.5812  -31.3425 H   0  0  0  0  0  0  0  0  0  0  0  0
  1  2  1  0
  2  3  2  0
  2  4  1  0
  4  5  1  0
  5  6  1  0
  6  7  1  0
  7  8  1  0
  8  9  2  0
  9 10  1  0
 10 11  1  0
 10 12  2  0
 12 13  1  0
 13 14  1  0
 14 15  2  0
 14 16  2  0
 14 17  1  0
 17 18  2  0
 18 19  1  0
 19 20  2  0
 20 21  1  0
 21 22  1  0
 21 23  2  0
 12 24  1  0
 24 25  2  0
 25  4  1  0
 25  8  1  0
 23 17  1  0
  1 26  1  0
  1 27  1  0
  1 28  1  0
  5 29  1  0
  5 30  1  0
  6 31  1  0
  6 32  1  0
  7 33  1  0
  7 34  1  0
  9 35  1  0
 11 36  1  0
 18 37  1  0
 19 38  1  0
 20 39  1  0
 23 40  1  0
 24 41  1  0
M  CHG  1  13  -1
M  END
>  <UniqueID>  (38) 
38

>  <SMILES>  (38) 
CC(=O)N1CCCc2cc(O)c([N-]S(=O)(=O)c3cccc(Br)c3)cc21

>  <Energy>  (38) 
50.15866345822479

>  <Genealogy>  (38) 
CC(=O)N1CCCc2cc(O)c([N-]S(=O)(=O)c3cccc(Br)c3)cc21 (protonated)
CC(=O)N1CCCc2cc(O)c([N-]S(=O)(=O)c3cccc(Br)c3)cc21 (3D coordinates assigned)
CC(=O)N1CCCc2cc(O)c([N-]S(=O)(=O)c3cccc(Br)c3)cc21 (nonaromatic ring conformer: 50.15866345822479 kcal/mol)

>  <smiles>  (38) 
CC(=O)N1CCCc2cc(O)c(NS(=O)(=O)c3cccc(Br)c3)cc21

>  <score_type>  (38) 
oracle

>  <origin>  (38) 
adgpu

>  <m_score__min__energy>  (38) 
-11.199999999999999

>  <m_primary>  (38) 
energy

$$$$
38:0
     RDKit          3D

 48 50  0  0  0  0  0  0  0  0999 V2000
   -8.9460   20.8180  -32.3080 C   0  0  0  0  0  0  0  0  0  0  0  0
   -8.0440   21.8410  -31.6860 C   0  0  0  0  0  0  0  0  0  0  0  0
   -8.0020   21.9950  -30.2920 C   0  0  0  0  0  0  0  0  0  0  0  0
   -7.1890   22.9730  -29.7150 C   0  0  0  0  0  0  0  0  0  0  0  0
   -6.4230   23.8210  -30.5240 C   0  0  0  0  0  0  0  0  0  0  0  0
   -5.4290   25.0680  -29.7770 S   0  0  0  0  0  0  0  0  0  0  0  0
   -6.0420   26.4100  -30.0580 O   0  0  0  0  0  0  0  0  0  0  0  0
   -5.3440   24.8750  -28.2890 O   0  0  0  0  0  0  0  0  0  0  0  0
   -3.8350   25.0150  -30.4570 N   0  0  0  0  0  0  0  0  0  0  0  0
   -2.7900   24.1300  -30.0380 C   0  0  0  0  0  0  0  0  0  0  0  0
   -2.0120   24.3780  -28.8970 C   0  0  0  0  0  0  0  0  0  0  0  0
   -1.0080   23.4670  -28.5630 C   0  0  0  0  0  0  0  0  0  0  0  0
   -0.2860   23.6620  -27.5500 O   0  0  0  0  0  0  0  0  0  0  0  0
   -0.8080   22.3640  -29.3310 N   0  0  0  0  0  0  0  0  0  0  0  0
   -1.5770   22.1330  -30.4260 C   0  0  0  0  0  0  0  0  0  0  0  0
   -1.3200   20.6590  -31.4110 S   0  0  0  0  0  0  0  0  0  0  0  0
   -2.1870   21.3030  -32.8830 C   0  0  0  0  0  0  0  0  0  0  0  0
   -3.5460   20.6890  -33.0310 C   0  0  0  0  0  0  0  0  0  0  0  0
   -4.5180   21.4140  -33.3790 O   0  0  0  0  0  0  0  0  0  0  0  0
   -3.7430   19.2960  -32.7510 N   0  0  0  0  0  0  0  0  0  0  0  0
   -5.0490   18.7050  -32.7120 C   0  0  0  0  0  0  0  0  0  0  0  0
   -5.8430   18.8970  -31.5720 C   0  0  0  0  0  0  0  0  0  0  0  0
   -7.1310   18.3620  -31.5080 C   0  0  0  0  0  0  0  0  0  0  0  0
   -7.6350   17.6220  -32.5790 C   0  0  0  0  0  0  0  0  0  0  0  0
   -6.8450   17.4030  -33.7110 C   0  0  0  0  0  0  0  0  0  0  0  0
   -5.5400   17.9200  -33.7810 C   0  0  0  0  0  0  0  0  0  0  0  0
   -4.6990   17.6320  -34.9920 C   0  0  0  0  0  0  0  0  0  0  0  0
   -2.5480   23.0150  -30.7730 N   0  0  0  0  0  0  0  0  0  0  0  0
   -6.4740   23.6820  -31.9180 C   0  0  0  0  0  0  0  0  0  0  0  0
   -7.2850   22.7000  -32.4960 C   0  0  0  0  0  0  0  0  0  0  0  0
   -9.4512   20.2450  -31.5165 H   0  0  0  0  0  0  0  0  0  0  0  0
   -9.6980   21.3231  -32.9319 H   0  0  0  0  0  0  0  0  0  0  0  0
   -8.3507   20.1352  -32.9319 H   0  0  0  0  0  0  0  0  0  0  0  0
   -8.6123   21.3423  -29.6506 H   0  0  0  0  0  0  0  0  0  0  0  0
   -7.1503   23.0775  -28.6207 H   0  0  0  0  0  0  0  0  0  0  0  0
   -2.1892   25.2706  -28.2791 H   0  0  0  0  0  0  0  0  0  0  0  0
   -2.2958   22.3933  -32.7855 H   0  0  0  0  0  0  0  0  0  0  0  0
   -1.5934   21.0473  -33.7731 H   0  0  0  0  0  0  0  0  0  0  0  0
   -2.9460   18.7530  -32.3470 H   0  0  0  0  0  0  0  0  0  0  0  0
   -5.4482   19.4732  -30.7222 H   0  0  0  0  0  0  0  0  0  0  0  0
   -7.7493   18.5238  -30.6127 H   0  0  0  0  0  0  0  0  0  0  0  0
   -8.6543   17.2111  -32.5320 H   0  0  0  0  0  0  0  0  0  0  0  0
   -7.2477   16.8216  -34.5535 H   0  0  0  0  0  0  0  0  0  0  0  0
   -3.7028   17.2909  -34.6739 H   0  0  0  0  0  0  0  0  0  0  0  0
   -5.1802   16.8474  -35.5944 H   0  0  0  0  0  0  0  0  0  0  0  0
   -4.5982   18.5468  -35.5944 H   0  0  0  0  0  0  0  0  0  0  0  0
   -5.8752   24.3464  -32.5583 H   0  0  0  0  0  0  0  0  0  0  0  0
   -7.3282   22.6004  -33.5906 H   0  0  0  0  0  0  0  0  0  0  0  0
  1  2  1  0
  2  3  2  0
  3  4  1  0
  4  5  2  0
  5  6  1  0
  6  7  2  0
  6  8  2  0
  6  9  1  0
  9 10  1  0
 10 11  2  0
 11 12  1  0
 12 13  2  0
 12 14  1  0
 14 15  2  0
 15 16  1  0
 16 17  1  0
 17 18  1  0
 18 19  2  0
 18 20  1  0
 20 21  1  0
 21 22  2  0
 22 23  1  0
 23 24  2  0
 24 25  1  0
 25 26  2  0
 26 27  1  0
 15 28  1  0
  5 29  1  0
 29 30  2  0
 30  2  1  0
 28 10  1  0
 26 21  1  0
  1 31  1  0
  1 32  1  0
  1 33  1  0
  3 34  1  0
  4 35  1  0
 11 36  1  0
 17 37  1  0
 17 38  1  0
 20 39  1  0
 22 40  1  0
 23 41  1  0
 24 42  1  0
 25 43  1  0
 27 44  1  0
 27 45  1  0
 27 46  1  0
 29 47  1  0
 30 48  1  0
M  CHG  2   9  -1  28  -1
M  END
>  <UniqueID>  (39) 
39

>  <SMILES>  (39) 
Cc1ccc(S(=O)(=O)[N-]c2cc(=O)nc(SCC(=O)Nc3ccccc3C)[n-]2)cc1

>  <Energy>  (39) 
52.40145801563232

>  <Genealogy>  (39) 
Cc1ccc(S(=O)(=O)[N-]c2cc(=O)nc(SCC(=O)Nc3ccccc3C)[n-]2)cc1 (protonated)
Cc1ccc(S(=O)(=O)[N-]c2cc(=O)nc(SCC(=O)Nc3ccccc3C)[n-]2)cc1 (3D coordinates assigned)
Cc1ccc(S(=O)(=O)[N-]c2cc(=O)nc(SCC(=O)Nc3ccccc3C)[n-]2)cc1 (optimized conformer: 52.40145801563232 kcal/mol)

>  <smiles>  (39) 
Cc1ccc(S(=O)(=O)Nc2cc(=O)nc(SCC(=O)Nc3ccccc3C)[nH]2)cc1

>  <score_type>  (39) 
oracle

>  <origin>  (39) 
adgpu

>  <m_score__min__energy>  (39) 
-12.44

>  <m_primary>  (39) 
energy

$$$$
39:0
     RDKit          3D

 45 47  0  0  0  0  0  0  0  0999 V2000
   -9.8370   20.4860  -31.9950 C   0  0  0  0  0  0  0  0  0  0  0  0
   -8.5610   21.2820  -32.0800 C   0  0  0  0  0  0  0  0  0  0  0  0
   -8.6650   22.6820  -32.0720 C   0  0  0  0  0  0  0  0  0  0  0  0
   -7.5290   23.4860  -32.0620 C   0  0  0  0  0  0  0  0  0  0  0  0
   -6.2620   22.9110  -32.0260 C   0  0  0  0  0  0  0  0  0  0  0  0
   -5.1200   23.7760  -31.9190 N   0  0  0  0  0  0  0  0  0  0  0  0
   -4.9970   24.8950  -31.0290 C   0  0  0  0  0  0  0  0  0  0  0  0
   -6.0180   25.5790  -30.7650 O   0  0  0  0  0  0  0  0  0  0  0  0
   -3.7400   25.2670  -30.4420 N   0  0  0  0  0  0  0  0  0  0  0  0
   -3.0640   24.5590  -29.3950 C   0  0  0  0  0  0  0  0  0  0  0  0
   -3.6260   23.3680  -28.9120 C   0  0  0  0  0  0  0  0  0  0  0  0
   -3.0240   22.6820  -27.8540 C   0  0  0  0  0  0  0  0  0  0  0  0
   -1.8460   23.1700  -27.2820 C   0  0  0  0  0  0  0  0  0  0  0  0
   -1.2560   24.3350  -27.7820 C   0  0  0  0  0  0  0  0  0  0  0  0
   -1.8530   25.0260  -28.8440 C   0  0  0  0  0  0  0  0  0  0  0  0
   -1.2310   26.1620  -29.3490 O   0  0  0  0  0  0  0  0  0  0  0  0
   -6.1280   21.5120  -32.0870 C   0  0  0  0  0  0  0  0  0  0  0  0
   -4.8540   20.9570  -32.1350 O   0  0  0  0  0  0  0  0  0  0  0  0
   -7.2710   20.6770  -32.1070 C   0  0  0  0  0  0  0  0  0  0  0  0
   -7.0340   18.9030  -32.1360 S   0  0  0  0  0  0  0  0  0  0  0  0
   -8.2000   18.2010  -31.4980 O   0  0  0  0  0  0  0  0  0  0  0  0
   -5.8280   18.5730  -31.2990 O   0  0  0  0  0  0  0  0  0  0  0  0
   -6.7980   18.2430  -33.7470 N   0  0  0  0  0  0  0  0  0  0  0  0
   -6.6420   16.7750  -33.7700 C   0  0  0  0  0  0  0  0  0  0  0  0
   -5.1670   16.3320  -33.8180 C   0  0  0  0  0  0  0  0  0  0  0  0
   -4.3230   17.3340  -33.2940 O   0  0  0  0  0  0  0  0  0  0  0  0
   -4.3260   18.4600  -34.1500 C   0  0  0  0  0  0  0  0  0  0  0  0
   -5.7510   18.9390  -34.5140 C   0  0  0  0  0  0  0  0  0  0  0  0
  -10.0979   20.3232  -30.9389 H   0  0  0  0  0  0  0  0  0  0  0  0
  -10.6478   21.0388  -32.4920 H   0  0  0  0  0  0  0  0  0  0  0  0
   -9.6971   19.5147  -32.4920 H   0  0  0  0  0  0  0  0  0  0  0  0
   -9.6600   23.1509  -32.0737 H   0  0  0  0  0  0  0  0  0  0  0  0
   -7.6330   24.5809  -32.0826 H   0  0  0  0  0  0  0  0  0  0  0  0
   -4.5452   22.9721  -29.3684 H   0  0  0  0  0  0  0  0  0  0  0  0
   -3.4781   21.7563  -27.4707 H   0  0  0  0  0  0  0  0  0  0  0  0
   -1.3828   22.6375  -26.4382 H   0  0  0  0  0  0  0  0  0  0  0  0
   -0.3208   24.7096  -27.3402 H   0  0  0  0  0  0  0  0  0  0  0  0
   -7.1048   16.3581  -32.8634 H   0  0  0  0  0  0  0  0  0  0  0  0
   -7.1290   16.4045  -34.6841 H   0  0  0  0  0  0  0  0  0  0  0  0
   -5.0473   15.4136  -33.2245 H   0  0  0  0  0  0  0  0  0  0  0  0
   -4.8884   16.1508  -34.8666 H   0  0  0  0  0  0  0  0  0  0  0  0
   -3.7971   19.2834  -33.6478 H   0  0  0  0  0  0  0  0  0  0  0  0
   -3.8297   18.1631  -35.0857 H   0  0  0  0  0  0  0  0  0  0  0  0
   -5.8228   20.0174  -34.3091 H   0  0  0  0  0  0  0  0  0  0  0  0
   -5.9149   18.7153  -35.5785 H   0  0  0  0  0  0  0  0  0  0  0  0
  1  2  1  0
  2  3  2  0
  3  4  1  0
  4  5  2  0
  5  6  1  0
  6  7  1  0
  7  8  2  0
  7  9  1  0
  9 10  1  0
 10 11  2  0
 11 12  1  0
 12 13  2  0
 13 14  1  0
 14 15  2  0
 15 16  1  0
  5 17  1  0
 17 18  1  0
 17 19  2  0
 19 20  1  0
 20 21  2  0
 20 22  2  0
 20 23  1  0
 23 24  1  0
 24 25  1  0
 25 26  1  0
 26 27  1  0
 27 28  1  0
 19  2  1  0
 28 23  1  0
 15 10  1  0
  1 29  1  0
  1 30  1  0
  1 31  1  0
  3 32  1  0
  4 33  1  0
 11 34  1  0
 12 35  1  0
 13 36  1  0
 14 37  1  0
 24 38  1  0
 24 39  1  0
 25 40  1  0
 25 41  1  0
 27 42  1  0
 27 43  1  0
 28 44  1  0
 28 45  1  0
M  CHG  4   6  -1   9  -1  16  -1  18  -1
M  END
>  <UniqueID>  (40) 
40

>  <SMILES>  (40) 
Cc1ccc([N-]C(=O)[N-]c2ccccc2[O-])c([O-])c1S(=O)(=O)N1CCOCC1

>  <Energy>  (40) 
72.07696211174645

>  <Genealogy>  (40) 
Cc1ccc([N-]C(=O)[N-]c2ccccc2[O-])c([O-])c1S(=O)(=O)N1CCOCC1 (protonated)
Cc1ccc([N-]C(=O)[N-]c2ccccc2[O-])c([O-])c1S(=O)(=O)N1CCOCC1 (3D coordinates assigned)
Cc1ccc([N-]C(=O)[N-]c2ccccc2[O-])c([O-])c1S(=O)(=O)N1CCOCC1 (nonaromatic ring conformer: 72.07696211174645 kcal/mol)

>  <smiles>  (40) 
Cc1ccc(NC(=O)Nc2ccccc2O)c(O)c1S(=O)(=O)N1CCOCC1

>  <score_type>  (40) 
oracle

>  <origin>  (40) 
adgpu

>  <m_score__min__energy>  (40) 
-14.800000000000001

>  <m_primary>  (40) 
energy

$$$$
40:0
     RDKit          3D

 60 63  0  0  0  0  0  0  0  0999 V2000
    1.1700   23.6400  -35.7490 C   0  0  0  0  0  0  0  0  0  0  0  0
    1.1880   22.4440  -34.9760 O   0  0  0  0  0  0  0  0  0  0  0  0
    1.5980   21.1850  -35.4470 C   0  0  0  0  0  0  0  0  0  0  0  0
    2.3130   21.0620  -36.6580 C   0  0  0  0  0  0  0  0  0  0  0  0
    2.7220   19.8110  -37.1180 C   0  0  0  0  0  0  0  0  0  0  0  0
    2.4260   18.6640  -36.3850 C   0  0  0  0  0  0  0  0  0  0  0  0
    1.7200   18.7630  -35.1870 C   0  0  0  0  0  0  0  0  0  0  0  0
    1.2960   20.0170  -34.6970 C   0  0  0  0  0  0  0  0  0  0  0  0
    0.5440   20.0700  -33.4110 C   0  0  0  0  0  0  0  0  0  0  0  0
    1.1420   20.4140  -32.3540 O   0  0  0  0  0  0  0  0  0  0  0  0
   -0.8600   19.7820  -33.3670 N   0  0  0  0  0  0  0  0  0  0  0  0
   -1.8800   20.5650  -32.7300 C   0  0  0  0  0  0  0  0  0  0  0  0
   -3.0070   21.0350  -33.4300 C   0  0  0  0  0  0  0  0  0  0  0  0
   -3.9620   21.8200  -32.7780 C   0  0  0  0  0  0  0  0  0  0  0  0
   -3.8010   22.1520  -31.4270 C   0  0  0  0  0  0  0  0  0  0  0  0
   -4.9960   23.1640  -30.6250 S   0  0  0  0  0  0  0  0  0  0  0  0
   -4.7170   24.6160  -30.9030 O   0  0  0  0  0  0  0  0  0  0  0  0
   -4.9240   22.9510  -29.1380 O   0  0  0  0  0  0  0  0  0  0  0  0
   -6.5970   22.7410  -31.2200 C   0  0  0  0  0  0  0  0  0  0  0  0
   -7.5350   23.7450  -31.4950 C   0  0  0  0  0  0  0  0  0  0  0  0
   -8.8020   23.4070  -31.9770 C   0  0  0  0  0  0  0  0  0  0  0  0
   -9.1360   22.0660  -32.1930 C   0  0  0  0  0  0  0  0  0  0  0  0
   -8.1980   21.0570  -31.9380 C   0  0  0  0  0  0  0  0  0  0  0  0
   -8.6300   19.3680  -32.1920 S   0  0  0  0  0  0  0  0  0  0  0  0
   -9.8620   19.2830  -33.0510 O   0  0  0  0  0  0  0  0  0  0  0  0
   -8.9330   18.7390  -30.8600 O   0  0  0  0  0  0  0  0  0  0  0  0
   -7.3060   18.5220  -32.9520 N   0  0  0  0  0  0  0  0  0  0  0  0
   -6.4380   17.9160  -31.9180 C   0  0  0  0  0  0  0  0  0  0  0  0
   -5.0770   17.4520  -32.4820 C   0  0  0  0  0  0  0  0  0  0  0  0
   -5.1070   17.3430  -34.0080 C   0  0  0  0  0  0  0  0  0  0  0  0
   -5.5100   18.6830  -34.6470 C   0  0  0  0  0  0  0  0  0  0  0  0
   -6.5430   19.4510  -33.8020 C   0  0  0  0  0  0  0  0  0  0  0  0
   -6.9280   21.3990  -31.4480 C   0  0  0  0  0  0  0  0  0  0  0  0
   -2.6640   21.7110  -30.7370 C   0  0  0  0  0  0  0  0  0  0  0  0
   -1.7080   20.9260  -31.3880 C   0  0  0  0  0  0  0  0  0  0  0  0
    1.1569   24.5108  -35.0770 H   0  0  0  0  0  0  0  0  0  0  0  0
    2.0676   23.6800  -36.3835 H   0  0  0  0  0  0  0  0  0  0  0  0
    0.2716   23.6530  -36.3835 H   0  0  0  0  0  0  0  0  0  0  0  0
    2.5498   21.9620  -37.2445 H   0  0  0  0  0  0  0  0  0  0  0  0
    3.2800   19.7295  -38.0624 H   0  0  0  0  0  0  0  0  0  0  0  0
    2.7498   17.6789  -36.7520 H   0  0  0  0  0  0  0  0  0  0  0  0
    1.4902   17.8515  -34.6158 H   0  0  0  0  0  0  0  0  0  0  0  0
   -3.1365   20.7838  -34.4931 H   0  0  0  0  0  0  0  0  0  0  0  0
   -4.8442   22.1787  -33.3285 H   0  0  0  0  0  0  0  0  0  0  0  0
   -7.2734   24.8008  -31.3311 H   0  0  0  0  0  0  0  0  0  0  0  0
   -9.5382   24.1969  -32.1870 H   0  0  0  0  0  0  0  0  0  0  0  0
  -10.1376   21.8030  -32.5640 H   0  0  0  0  0  0  0  0  0  0  0  0
   -6.2569   18.6610  -31.1293 H   0  0  0  0  0  0  0  0  0  0  0  0
   -6.9564   17.0283  -31.5265 H   0  0  0  0  0  0  0  0  0  0  0  0
   -4.3038   18.1783  -32.1912 H   0  0  0  0  0  0  0  0  0  0  0  0
   -4.8555   16.4563  -32.0703 H   0  0  0  0  0  0  0  0  0  0  0  0
   -4.1074   17.0585  -34.3683 H   0  0  0  0  0  0  0  0  0  0  0  0
   -5.8489   16.5818  -34.2911 H   0  0  0  0  0  0  0  0  0  0  0  0
   -4.6104   19.3063  -34.7569 H   0  0  0  0  0  0  0  0  0  0  0  0
   -5.9711   18.4639  -35.6214 H   0  0  0  0  0  0  0  0  0  0  0  0
   -6.0200   20.1788  -33.1643 H   0  0  0  0  0  0  0  0  0  0  0  0
   -7.2396   19.9701  -34.4767 H   0  0  0  0  0  0  0  0  0  0  0  0
   -6.1896   20.6101  -31.2422 H   0  0  0  0  0  0  0  0  0  0  0  0
   -2.5234   21.9832  -29.6805 H   0  0  0  0  0  0  0  0  0  0  0  0
   -0.8142   20.5894  -30.8422 H   0  0  0  0  0  0  0  0  0  0  0  0
  1  2  1  0
  2  3  1  0
  3  4  2  0
  4  5  1  0
  5  6  2  0
  6  7  1  0
  7  8  2  0
  8  9  1  0
  9 10  2  0
  9 11  1  0
 11 12  1  0
 12 13  2  0
 13 14  1  0
 14 15  2  0
 15 16  1  0
 16 17  2  0
 16 18  2  0
 16 19  1  0
 19 20  2  0
 20 21  1  0
 21 22  2  0
 22 23  1  0
 23 24  1  0
 24 25  2  0
 24 26  2  0
 24 27  1  0
 27 28  1  0
 28 29  1  0
 29 30  1  0
 30 31  1  0
 31 32  1  0
 23 33  2  0
 15 34  1  0
 34 35  2  0
  8  3  1  0
 35 12  1  0
 33 19  1  0
 32 27  1  0
  1 36  1  0
  1 37  1  0
  1 38  1  0
  4 39  1  0
  5 40  1  0
  6 41  1  0
  7 42  1  0
 13 43  1  0
 14 44  1  0
 20 45  1  0
 21 46  1  0
 22 47  1  0
 28 48  1  0
 28 49  1  0
 29 50  1  0
 29 51  1  0
 30 52  1  0
 30 53  1  0
 31 54  1  0
 31 55  1  0
 32 56  1  0
 32 57  1  0
 33 58  1  0
 34 59  1  0
 35 60  1  0
M  CHG  1  11  -1
M  END
>  <UniqueID>  (41) 
41

>  <SMILES>  (41) 
COc1ccccc1C(=O)[N-]c1ccc(S(=O)(=O)c2cccc(S(=O)(=O)N3CCCCC3)c2)cc1

>  <Energy>  (41) 
73.49464551946424

>  <Genealogy>  (41) 
COc1ccccc1C(=O)[N-]c1ccc(S(=O)(=O)c2cccc(S(=O)(=O)N3CCCCC3)c2)cc1 (protonated)
COc1ccccc1C(=O)[N-]c1ccc(S(=O)(=O)c2cccc(S(=O)(=O)N3CCCCC3)c2)cc1 (3D coordinates assigned)
COc1ccccc1C(=O)[N-]c1ccc(S(=O)(=O)c2cccc(S(=O)(=O)N3CCCCC3)c2)cc1 (nonaromatic ring conformer: 73.49464551946424 kcal/mol)

>  <smiles>  (41) 
COc1ccccc1C(=O)Nc1ccc(S(=O)(=O)c2cccc(S(=O)(=O)N3CCCCC3)c2)cc1

>  <score_type>  (41) 
oracle

>  <origin>  (41) 
adgpu

>  <m_score__min__energy>  (41) 
-13.17

>  <m_primary>  (41) 
energy

$$$$
41:0
     RDKit          3D

 52 55  0  0  0  0  0  0  0  0999 V2000
   -6.6990   17.7290  -32.5470 C   0  0  0  0  0  0  0  0  0  0  0  0
   -7.2110   19.0720  -32.2860 N   0  0  0  0  0  0  0  0  0  0  0  0
   -8.4970   19.4520  -32.0780 C   0  0  0  0  0  0  0  0  0  0  0  0
   -9.4650   18.6440  -32.0450 O   0  0  0  0  0  0  0  0  0  0  0  0
   -8.6320   20.7900  -31.9030 N   0  0  0  0  0  0  0  0  0  0  0  0
   -9.8470   21.5370  -31.5890 C   0  0  0  0  0  0  0  0  0  0  0  0
   -7.3710   21.2630  -31.9930 C   0  0  0  0  0  0  0  0  0  0  0  0
   -6.9200   22.5780  -31.8760 C   0  0  0  0  0  0  0  0  0  0  0  0
   -5.5380   22.8210  -32.0080 C   0  0  0  0  0  0  0  0  0  0  0  0
   -5.0740   24.1740  -31.9150 N   0  0  0  0  0  0  0  0  0  0  0  0
   -4.8790   24.9400  -30.7200 C   0  0  0  0  0  0  0  0  0  0  0  0
   -5.8640   25.3150  -30.0300 O   0  0  0  0  0  0  0  0  0  0  0  0
   -3.5590   25.2880  -30.2880 N   0  0  0  0  0  0  0  0  0  0  0  0
   -2.7040   24.4840  -29.4640 C   0  0  0  0  0  0  0  0  0  0  0  0
   -2.1160   23.2980  -29.9410 C   0  0  0  0  0  0  0  0  0  0  0  0
   -1.2690   22.5510  -29.1180 C   0  0  0  0  0  0  0  0  0  0  0  0
   -0.9860   22.9870  -27.8160 C   0  0  0  0  0  0  0  0  0  0  0  0
    0.0560   22.0320  -26.7640 S   0  0  0  0  0  0  0  0  0  0  0  0
    1.4710   22.0770  -27.2750 O   0  0  0  0  0  0  0  0  0  0  0  0
    0.0290   22.6250  -25.3820 O   0  0  0  0  0  0  0  0  0  0  0  0
   -0.5160   20.3830  -26.7060 N   0  0  0  0  0  0  0  0  0  0  0  0
   -1.9890   20.3600  -26.6650 C   0  0  0  0  0  0  0  0  0  0  0  0
   -2.5290   18.9390  -26.9260 C   0  0  0  0  0  0  0  0  0  0  0  0
   -1.4960   17.9780  -26.8150 O   0  0  0  0  0  0  0  0  0  0  0  0
   -0.5380   18.1870  -27.8380 C   0  0  0  0  0  0  0  0  0  0  0  0
   -0.0260   19.6430  -27.8780 C   0  0  0  0  0  0  0  0  0  0  0  0
   -1.5560   24.1760  -27.3450 C   0  0  0  0  0  0  0  0  0  0  0  0
   -2.4000   24.9260  -28.1720 C   0  0  0  0  0  0  0  0  0  0  0  0
   -4.6560   21.7410  -32.2880 C   0  0  0  0  0  0  0  0  0  0  0  0
   -5.1420   20.4250  -32.3930 C   0  0  0  0  0  0  0  0  0  0  0  0
   -6.5130   20.2240  -32.2340 C   0  0  0  0  0  0  0  0  0  0  0  0
   -6.5045   17.2188  -31.5921 H   0  0  0  0  0  0  0  0  0  0  0  0
   -7.4427   17.1585  -33.1227 H   0  0  0  0  0  0  0  0  0  0  0  0
   -5.7643   17.7984  -33.1227 H   0  0  0  0  0  0  0  0  0  0  0  0
   -9.9621   21.6078  -30.4973 H   0  0  0  0  0  0  0  0  0  0  0  0
   -9.7766   22.5481  -32.0166 H   0  0  0  0  0  0  0  0  0  0  0  0
  -10.7174   21.0178  -32.0166 H   0  0  0  0  0  0  0  0  0  0  0  0
   -7.6234   23.4021  -31.6860 H   0  0  0  0  0  0  0  0  0  0  0  0
   -2.3239   22.9574  -30.9661 H   0  0  0  0  0  0  0  0  0  0  0  0
   -0.8229   21.6180  -29.4929 H   0  0  0  0  0  0  0  0  0  0  0  0
   -2.3262   20.6961  -25.6734 H   0  0  0  0  0  0  0  0  0  0  0  0
   -2.3711   21.0289  -27.4502 H   0  0  0  0  0  0  0  0  0  0  0  0
   -3.3137   18.7110  -26.1896 H   0  0  0  0  0  0  0  0  0  0  0  0
   -2.9371   18.9001  -27.9468 H   0  0  0  0  0  0  0  0  0  0  0  0
    0.3167   17.5169  -27.6635 H   0  0  0  0  0  0  0  0  0  0  0  0
   -1.0256   17.9769  -28.8014 H   0  0  0  0  0  0  0  0  0  0  0  0
    1.0740   19.6421  -27.8740 H   0  0  0  0  0  0  0  0  0  0  0  0
   -0.3965   20.1300  -28.7921 H   0  0  0  0  0  0  0  0  0  0  0  0
   -1.3401   24.5213  -26.3232 H   0  0  0  0  0  0  0  0  0  0  0  0
   -2.8275   25.8701  -27.8033 H   0  0  0  0  0  0  0  0  0  0  0  0
   -3.5821   21.9368  -32.4239 H   0  0  0  0  0  0  0  0  0  0  0  0
   -4.4635   19.5828  -32.5938 H   0  0  0  0  0  0  0  0  0  0  0  0
  1  2  1  0
  2  3  1  0
  3  4  2  0
  3  5  1  0
  5  6  1  0
  5  7  1  0
  7  8  2  0
  8  9  1  0
  9 10  1  0
 10 11  1  0
 11 12  2  0
 11 13  1  0
 13 14  1  0
 14 15  2  0
 15 16  1  0
 16 17  2  0
 17 18  1  0
 18 19  2  0
 18 20  2  0
 18 21  1  0
 21 22  1  0
 22 23  1  0
 23 24  1  0
 24 25  1  0
 25 26  1  0
 17 27  1  0
 27 28  2  0
  9 29  2  0
 29 30  1  0
 30 31  2  0
 31  2  1  0
 31  7  1  0
 28 14  1  0
 26 21  1  0
  1 32  1  0
  1 33  1  0
  1 34  1  0
  6 35  1  0
  6 36  1  0
  6 37  1  0
  8 38  1  0
 15 39  1  0
 16 40  1  0
 22 41  1  0
 22 42  1  0
 23 43  1  0
 23 44  1  0
 25 45  1  0
 25 46  1  0
 26 47  1  0
 26 48  1  0
 27 49  1  0
 28 50  1  0
 29 51  1  0
 30 52  1  0
M  CHG  2  10  -1  13  -1
M  END
>  <UniqueID>  (42) 
42

>  <SMILES>  (42) 
Cn1c(=O)n(C)c2cc([N-]C(=O)[N-]c3ccc(S(=O)(=O)N4CCOCC4)cc3)ccc21

>  <Energy>  (42) 
109.64825472967884

>  <Genealogy>  (42) 
Cn1c(=O)n(C)c2cc([N-]C(=O)[N-]c3ccc(S(=O)(=O)N4CCOCC4)cc3)ccc21 (protonated)
Cn1c(=O)n(C)c2cc([N-]C(=O)[N-]c3ccc(S(=O)(=O)N4CCOCC4)cc3)ccc21 (3D coordinates assigned)
Cn1c(=O)n(C)c2cc([N-]C(=O)[N-]c3ccc(S(=O)(=O)N4CCOCC4)cc3)ccc21 (nonaromatic ring conformer: 109.64825472967884 kcal/mol)

>  <smiles>  (42) 
Cn1c(=O)n(C)c2cc(NC(=O)Nc3ccc(S(=O)(=O)N4CCOCC4)cc3)ccc21

>  <score_type>  (42) 
oracle

>  <origin>  (42) 
adgpu

>  <m_score__min__energy>  (42) 
-12.41

>  <m_primary>  (42) 
energy

$$$$
42:0
     RDKit          3D

 57 60  0  0  0  0  0  0  0  0999 V2000
   -3.1060   18.8480  -25.5780 C   0  0  0  0  0  0  0  0  0  0  0  0
   -2.9320   19.3490  -26.9770 C   0  0  0  0  0  0  0  0  0  0  0  0
   -3.7870   19.0440  -27.8500 O   0  0  0  0  0  0  0  0  0  0  0  0
   -1.8430   20.2230  -27.3210 N   0  0  0  0  0  0  0  0  0  0  0  0
   -0.4870   19.6650  -27.2080 C   0  0  0  0  0  0  0  0  0  0  0  0
    0.5830   20.7570  -27.2440 C   0  0  0  0  0  0  0  0  0  0  0  0
    0.3970   21.6400  -28.4770 C   0  0  0  0  0  0  0  0  0  0  0  0
   -0.9860   22.2290  -28.4970 C   0  0  0  0  0  0  0  0  0  0  0  0
   -1.2030   23.4740  -29.1060 C   0  0  0  0  0  0  0  0  0  0  0  0
   -2.4760   24.0490  -29.1130 C   0  0  0  0  0  0  0  0  0  0  0  0
   -2.6540   25.2970  -29.6990 O   0  0  0  0  0  0  0  0  0  0  0  0
   -3.5580   23.3790  -28.5180 C   0  0  0  0  0  0  0  0  0  0  0  0
   -4.8560   24.0010  -28.4820 N   0  0  0  0  0  0  0  0  0  0  0  0
   -5.7830   24.3360  -29.9130 S   0  0  0  0  0  0  0  0  0  0  0  0
   -7.0330   25.0800  -29.5380 O   0  0  0  0  0  0  0  0  0  0  0  0
   -4.9650   25.1880  -30.8420 O   0  0  0  0  0  0  0  0  0  0  0  0
   -6.2360   22.8200  -30.6870 C   0  0  0  0  0  0  0  0  0  0  0  0
   -5.2670   21.8490  -30.9820 C   0  0  0  0  0  0  0  0  0  0  0  0
   -5.6540   20.5990  -31.4730 C   0  0  0  0  0  0  0  0  0  0  0  0
   -7.0100   20.3130  -31.6820 C   0  0  0  0  0  0  0  0  0  0  0  0
   -7.5250   18.7140  -32.2130 S   0  0  0  0  0  0  0  0  0  0  0  0
   -7.0160   17.7030  -31.2230 O   0  0  0  0  0  0  0  0  0  0  0  0
   -9.0270   18.6410  -32.2410 O   0  0  0  0  0  0  0  0  0  0  0  0
   -6.8650   18.3590  -33.7960 N   0  0  0  0  0  0  0  0  0  0  0  0
   -6.4250   16.9560  -33.9100 C   0  0  0  0  0  0  0  0  0  0  0  0
   -5.1090   16.6890  -33.1430 C   0  0  0  0  0  0  0  0  0  0  0  0
   -4.3800   17.8660  -32.8380 O   0  0  0  0  0  0  0  0  0  0  0  0
   -4.3830   18.7410  -33.9430 C   0  0  0  0  0  0  0  0  0  0  0  0
   -5.7960   19.3100  -34.1710 C   0  0  0  0  0  0  0  0  0  0  0  0
   -7.9740   21.2930  -31.4130 C   0  0  0  0  0  0  0  0  0  0  0  0
   -7.5890   22.5400  -30.9150 C   0  0  0  0  0  0  0  0  0  0  0  0
   -3.3480   22.1060  -27.9590 C   0  0  0  0  0  0  0  0  0  0  0  0
   -2.0700   21.5140  -27.9470 C   0  0  0  0  0  0  0  0  0  0  0  0
   -2.8305   19.6413  -24.8675 H   0  0  0  0  0  0  0  0  0  0  0  0
   -4.1562   18.5618  -25.4190 H   0  0  0  0  0  0  0  0  0  0  0  0
   -2.4593   17.9725  -25.4190 H   0  0  0  0  0  0  0  0  0  0  0  0
   -0.4054   19.1182  -26.2570 H   0  0  0  0  0  0  0  0  0  0  0  0
   -0.3208   18.9960  -28.0652 H   0  0  0  0  0  0  0  0  0  0  0  0
    0.5006   21.3760  -26.3384 H   0  0  0  0  0  0  0  0  0  0  0  0
    1.5755   20.2847  -27.2881 H   0  0  0  0  0  0  0  0  0  0  0  0
    1.1370   22.4536  -28.4549 H   0  0  0  0  0  0  0  0  0  0  0  0
    0.5362   21.0263  -29.3792 H   0  0  0  0  0  0  0  0  0  0  0  0
   -0.3636   24.0019  -29.5821 H   0  0  0  0  0  0  0  0  0  0  0  0
   -5.3430   24.1220  -27.5670 H   0  0  0  0  0  0  0  0  0  0  0  0
   -4.2011   22.0719  -30.8266 H   0  0  0  0  0  0  0  0  0  0  0  0
   -4.8922   19.8375  -31.6960 H   0  0  0  0  0  0  0  0  0  0  0  0
   -7.2112   16.3044  -33.5009 H   0  0  0  0  0  0  0  0  0  0  0  0
   -6.2425   16.7462  -34.9743 H   0  0  0  0  0  0  0  0  0  0  0  0
   -5.3537   16.1777  -32.2003 H   0  0  0  0  0  0  0  0  0  0  0  0
   -4.4725   16.0767  -33.7987 H   0  0  0  0  0  0  0  0  0  0  0  0
   -3.6849   19.5693  -33.7518 H   0  0  0  0  0  0  0  0  0  0  0  0
   -4.0722   18.1853  -34.8400 H   0  0  0  0  0  0  0  0  0  0  0  0
   -5.9092   20.2220  -33.5665 H   0  0  0  0  0  0  0  0  0  0  0  0
   -5.8997   19.5172  -35.2463 H   0  0  0  0  0  0  0  0  0  0  0  0
   -9.0378   21.0799  -31.5945 H   0  0  0  0  0  0  0  0  0  0  0  0
   -8.3508   23.3042  -30.7013 H   0  0  0  0  0  0  0  0  0  0  0  0
   -4.1985   21.5618  -27.5225 H   0  0  0  0  0  0  0  0  0  0  0  0
  1  2  1  0
  2  3  2  0
  2  4  1  0
  4  5  1  0
  5  6  1  0
  6  7  1  0
  7  8  1  0
  8  9  2  0
  9 10  1  0
 10 11  1  0
 10 12  2  0
 12 13  1  0
 13 14  1  0
 14 15  2  0
 14 16  2  0
 14 17  1  0
 17 18  2  0
 18 19  1  0
 19 20  2  0
 20 21  1  0
 21 22  2  0
 21 23  2  0
 21 24  1  0
 24 25  1  0
 25 26  1  0
 26 27  1  0
 27 28  1  0
 28 29  1  0
 20 30  1  0
 30 31  2  0
 12 32  1  0
 32 33  2  0
 33  4  1  0
 33  8  1  0
 31 17  1  0
 29 24  1  0
  1 34  1  0
  1 35  1  0
  1 36  1  0
  5 37  1  0
  5 38  1  0
  6 39  1  0
  6 40  1  0
  7 41  1  0
  7 42  1  0
  9 43  1  0
 13 44  1  0
 18 45  1  0
 19 46  1  0
 25 47  1  0
 25 48  1  0
 26 49  1  0
 26 50  1  0
 28 51  1  0
 28 52  1  0
 29 53  1  0
 29 54  1  0
 30 55  1  0
 31 56  1  0
 32 57  1  0
M  CHG  1  11  -1
M  END
>  <UniqueID>  (43) 
43

>  <SMILES>  (43) 
CC(=O)N1CCCc2cc([O-])c(NS(=O)(=O)c3ccc(S(=O)(=O)N4CCOCC4)cc3)cc21

>  <Energy>  (43) 
75.27321912012437

>  <Genealogy>  (43) 
CC(=O)N1CCCc2cc([O-])c(NS(=O)(=O)c3ccc(S(=O)(=O)N4CCOCC4)cc3)cc21 (protonated)
CC(=O)N1CCCc2cc([O-])c(NS(=O)(=O)c3ccc(S(=O)(=O)N4CCOCC4)cc3)cc21 (3D coordinates assigned)
CC(=O)N1CCCc2cc([O-])c(NS(=O)(=O)c3ccc(S(=O)(=O)N4CCOCC4)cc3)cc21 (nonaromatic ring conformer: 75.27321912012437 kcal/mol)

>  <smiles>  (43) 
CC(=O)N1CCCc2cc(O)c(NS(=O)(=O)c3ccc(S(=O)(=O)N4CCOCC4)cc3)cc21

>  <score_type>  (43) 
oracle

>  <origin>  (43) 
adgpu

>  <m_score__min__energy>  (43) 
-13.42

>  <m_primary>  (43) 
energy

$$$$
43:0
     RDKit          3D

 45 47  0  0  0  0  0  0  0  0999 V2000
   -1.7490   25.2920  -29.2420 O   0  0  0  0  0  0  0  0  0  0  0  0
   -2.2780   24.0360  -28.6080 S   0  0  0  0  0  0  0  0  0  0  0  0
   -1.6280   23.8560  -27.2650 O   0  0  0  0  0  0  0  0  0  0  0  0
   -3.9950   24.1830  -28.4000 N   0  0  0  0  0  0  0  0  0  0  0  0
   -4.9510   23.9660  -29.4550 C   0  0  0  0  0  0  0  0  0  0  0  0
   -5.9740   23.0040  -29.3350 C   0  0  0  0  0  0  0  0  0  0  0  0
   -6.8930   22.8120  -30.3700 C   0  0  0  0  0  0  0  0  0  0  0  0
   -6.8010   23.5690  -31.5380 C   0  0  0  0  0  0  0  0  0  0  0  0
   -5.7870   24.5200  -31.6760 C   0  0  0  0  0  0  0  0  0  0  0  0
   -4.8640   24.7200  -30.6430 C   0  0  0  0  0  0  0  0  0  0  0  0
   -3.8660   25.6750  -30.8040 O   0  0  0  0  0  0  0  0  0  0  0  0
   -1.9150   22.6290  -29.6020 C   0  0  0  0  0  0  0  0  0  0  0  0
   -0.8590   21.7790  -29.2470 C   0  0  0  0  0  0  0  0  0  0  0  0
   -0.5680   20.6580  -30.0270 C   0  0  0  0  0  0  0  0  0  0  0  0
   -1.3290   20.3780  -31.1650 C   0  0  0  0  0  0  0  0  0  0  0  0
   -2.3900   21.2190  -31.5260 C   0  0  0  0  0  0  0  0  0  0  0  0
   -3.3280   20.8750  -32.9780 S   0  0  0  0  0  0  0  0  0  0  0  0
   -4.1680   22.0780  -33.3050 O   0  0  0  0  0  0  0  0  0  0  0  0
   -2.4010   20.6090  -34.1320 O   0  0  0  0  0  0  0  0  0  0  0  0
   -4.3600   19.4920  -32.7090 N   0  0  0  0  0  0  0  0  0  0  0  0
   -4.9680   19.0610  -33.9880 C   0  0  0  0  0  0  0  0  0  0  0  0
   -6.1980   18.1780  -33.7570 C   0  0  0  0  0  0  0  0  0  0  0  0
   -7.2990   18.9500  -33.0080 C   0  0  0  0  0  0  0  0  0  0  0  0
   -6.7410   20.0940  -32.1440 C   0  0  0  0  0  0  0  0  0  0  0  0
   -5.3360   19.7590  -31.6220 C   0  0  0  0  0  0  0  0  0  0  0  0
   -2.6760   22.3500  -30.7460 C   0  0  0  0  0  0  0  0  0  0  0  0
   -4.3320   24.3570  -27.4270 H   0  0  0  0  0  0  0  0  0  0  0  0
   -6.0496   22.3994  -28.4192 H   0  0  0  0  0  0  0  0  0  0  0  0
   -7.6908   22.0622  -30.2634 H   0  0  0  0  0  0  0  0  0  0  0  0
   -7.5269   23.4171  -32.3504 H   0  0  0  0  0  0  0  0  0  0  0  0
   -5.7138   25.1134  -32.5993 H   0  0  0  0  0  0  0  0  0  0  0  0
   -0.2578   21.9954  -28.3516 H   0  0  0  0  0  0  0  0  0  0  0  0
    0.2622   19.9938  -29.7450 H   0  0  0  0  0  0  0  0  0  0  0  0
   -1.0947   19.4956  -31.7786 H   0  0  0  0  0  0  0  0  0  0  0  0
   -5.2699   19.9520  -34.5581 H   0  0  0  0  0  0  0  0  0  0  0  0
   -4.2219   18.4740  -34.5436 H   0  0  0  0  0  0  0  0  0  0  0  0
   -6.5899   17.8457  -34.7296 H   0  0  0  0  0  0  0  0  0  0  0  0
   -5.8988   17.3136  -33.1461 H   0  0  0  0  0  0  0  0  0  0  0  0
   -7.9953   19.3743  -33.7463 H   0  0  0  0  0  0  0  0  0  0  0  0
   -7.8018   18.2405  -32.3344 H   0  0  0  0  0  0  0  0  0  0  0  0
   -6.6897   21.0101  -32.7507 H   0  0  0  0  0  0  0  0  0  0  0  0
   -7.4086   20.2378  -31.2817 H   0  0  0  0  0  0  0  0  0  0  0  0
   -4.9722   20.6086  -31.0255 H   0  0  0  0  0  0  0  0  0  0  0  0
   -5.4188   18.8407  -31.0221 H   0  0  0  0  0  0  0  0  0  0  0  0
   -3.5000   23.0198  -31.0331 H   0  0  0  0  0  0  0  0  0  0  0  0
  1  2  2  0
  2  3  2  0
  2  4  1  0
  4  5  1  0
  5  6  2  0
  6  7  1  0
  7  8  2  0
  8  9  1  0
  9 10  2  0
 10 11  1  0
  2 12  1  0
 12 13  2  0
 13 14  1  0
 14 15  2  0
 15 16  1  0
 16 17  1  0
 17 18  2  0
 17 19  2  0
 17 20  1  0
 20 21  1  0
 21 22  1  0
 22 23  1  0
 23 24  1  0
 24 25  1  0
 16 26  2  0
 10  5  1  0
 26 12  1  0
 25 20  1  0
  4 27  1  0
  6 28  1  0
  7 29  1  0
  8 30  1  0
  9 31  1  0
 13 32  1  0
 14 33  1  0
 15 34  1  0
 21 35  1  0
 21 36  1  0
 22 37  1  0
 22 38  1  0
 23 39  1  0
 23 40  1  0
 24 41  1  0
 24 42  1  0
 25 43  1  0
 25 44  1  0
 26 45  1  0
M  CHG  1  11  -1
M  END
>  <UniqueID>  (44) 
44

>  <SMILES>  (44) 
O=S(=O)(Nc1ccccc1[O-])c1cccc(S(=O)(=O)N2CCCCC2)c1

>  <Energy>  (44) 
54.57222299701888

>  <Genealogy>  (44) 
O=S(=O)(Nc1ccccc1[O-])c1cccc(S(=O)(=O)N2CCCCC2)c1 (protonated)
O=S(=O)(Nc1ccccc1[O-])c1cccc(S(=O)(=O)N2CCCCC2)c1 (3D coordinates assigned)
O=S(=O)(Nc1ccccc1[O-])c1cccc(S(=O)(=O)N2CCCCC2)c1 (nonaromatic ring conformer: 54.57222299701888 kcal/mol)

>  <smiles>  (44) 
O=S(=O)(Nc1ccccc1O)c1cccc(S(=O)(=O)N2CCCCC2)c1

>  <score_type>  (44) 
oracle

>  <origin>  (44) 
adgpu

>  <m_score__min__energy>  (44) 
-13.199999999999999

>  <m_primary>  (44) 
energy

$$$$
44:0
     RDKit          3D

 71 74  0  0  0  0  0  0  0  0999 V2000
   -9.8060   21.7220  -30.8890 C   0  0  0  0  0  0  0  0  0  0  0  0
   -8.8280   20.8020  -31.5720 C   0  0  0  0  0  0  0  0  0  0  0  0
   -9.0740   19.4200  -31.5800 C   0  0  0  0  0  0  0  0  0  0  0  0
   -8.1870   18.5410  -32.2020 C   0  0  0  0  0  0  0  0  0  0  0  0
   -7.0300   19.0240  -32.8320 C   0  0  0  0  0  0  0  0  0  0  0  0
   -6.1110   18.1130  -33.4720 N   0  0  0  0  0  0  0  0  0  0  0  0
   -6.0470   16.7050  -33.0550 C   0  0  0  0  0  0  0  0  0  0  0  0
   -4.6050   16.1660  -33.1330 C   0  0  0  0  0  0  0  0  0  0  0  0
   -3.8190   16.6900  -34.2890 N   0  0  0  0  0  0  0  0  0  0  0  0
   -2.9240   15.6610  -34.8740 C   0  0  0  0  0  0  0  0  0  0  0  0
   -1.4930   15.6530  -34.2820 C   0  0  0  0  0  0  0  0  0  0  0  0
   -0.8000   17.0260  -34.3650 C   0  0  0  0  0  0  0  0  0  0  0  0
   -0.0710   17.4310  -33.0700 C   0  0  0  0  0  0  0  0  0  0  0  0
   -0.8570   18.4170  -32.2440 C   0  0  0  0  0  0  0  0  0  0  0  0
   -0.3720   18.8380  -31.1610 O   0  0  0  0  0  0  0  0  0  0  0  0
   -2.1660   18.8580  -32.6310 N   0  0  0  0  0  0  0  0  0  0  0  0
   -2.7310   20.1520  -32.3810 C   0  0  0  0  0  0  0  0  0  0  0  0
   -3.5500   20.7320  -33.3540 C   0  0  0  0  0  0  0  0  0  0  0  0
   -4.1330   21.9800  -33.1280 C   0  0  0  0  0  0  0  0  0  0  0  0
   -3.9160   22.6490  -31.9220 C   0  0  0  0  0  0  0  0  0  0  0  0
   -3.1150   22.0730  -30.9180 C   0  0  0  0  0  0  0  0  0  0  0  0
   -2.9050   22.7780  -29.6290 C   0  0  0  0  0  0  0  0  0  0  0  0
   -3.8790   23.4180  -28.8590 C   0  0  0  0  0  0  0  0  0  0  0  0
   -3.3750   24.0090  -27.6890 C   0  0  0  0  0  0  0  0  0  0  0  0
   -4.2380   24.7380  -26.7050 C   0  0  0  0  0  0  0  0  0  0  0  0
   -2.0050   23.8180  -27.5220 C   0  0  0  0  0  0  0  0  0  0  0  0
   -1.1650   24.3340  -26.3990 C   0  0  0  0  0  0  0  0  0  0  0  0
   -1.4250   22.9440  -28.8340 S   0  0  0  0  0  0  0  0  0  0  0  0
   -2.5370   20.8110  -31.1550 C   0  0  0  0  0  0  0  0  0  0  0  0
   -4.6450   17.3640  -35.3160 C   0  0  0  0  0  0  0  0  0  0  0  0
   -5.4050   18.5380  -34.6890 C   0  0  0  0  0  0  0  0  0  0  0  0
   -6.7750   20.4060  -32.8200 C   0  0  0  0  0  0  0  0  0  0  0  0
   -7.6570   21.3000  -32.1880 C   0  0  0  0  0  0  0  0  0  0  0  0
   -7.3500   22.7750  -32.2060 C   0  0  0  0  0  0  0  0  0  0  0  0
   -9.7016   21.6238  -29.7984 H   0  0  0  0  0  0  0  0  0  0  0  0
   -9.5999   22.7612  -31.1849 H   0  0  0  0  0  0  0  0  0  0  0  0
  -10.8307   21.4528  -31.1849 H   0  0  0  0  0  0  0  0  0  0  0  0
   -9.9765   19.0256  -31.0902 H   0  0  0  0  0  0  0  0  0  0  0  0
   -8.3962   17.4611  -32.1985 H   0  0  0  0  0  0  0  0  0  0  0  0
   -6.4060   16.6210  -32.0186 H   0  0  0  0  0  0  0  0  0  0  0  0
   -6.6780   16.1117  -33.7331 H   0  0  0  0  0  0  0  0  0  0  0  0
   -4.0821   16.4435  -32.2059 H   0  0  0  0  0  0  0  0  0  0  0  0
   -4.6808   15.0771  -33.2691 H   0  0  0  0  0  0  0  0  0  0  0  0
   -3.1780   17.4260  -33.9050 H   0  0  0  0  0  0  0  0  0  0  0  0
   -3.3747   14.6728  -34.7001 H   0  0  0  0  0  0  0  0  0  0  0  0
   -2.8224   15.9013  -35.9426 H   0  0  0  0  0  0  0  0  0  0  0  0
   -1.5525   15.3536  -33.2252 H   0  0  0  0  0  0  0  0  0  0  0  0
   -0.8951   14.9461  -34.8759 H   0  0  0  0  0  0  0  0  0  0  0  0
   -0.0645   16.9949  -35.1824 H   0  0  0  0  0  0  0  0  0  0  0  0
   -1.5880   17.7739  -34.5376 H   0  0  0  0  0  0  0  0  0  0  0  0
    0.1039   16.5276  -32.4673 H   0  0  0  0  0  0  0  0  0  0  0  0
    0.8729   17.9168  -33.3581 H   0  0  0  0  0  0  0  0  0  0  0  0
   -3.7356   20.2034  -34.3006 H   0  0  0  0  0  0  0  0  0  0  0  0
   -4.7655   22.4379  -33.9027 H   0  0  0  0  0  0  0  0  0  0  0  0
   -4.3749   23.6347  -31.7549 H   0  0  0  0  0  0  0  0  0  0  0  0
   -4.9412   23.4556  -29.1425 H   0  0  0  0  0  0  0  0  0  0  0  0
   -3.9289   24.4769  -25.6821 H   0  0  0  0  0  0  0  0  0  0  0  0
   -4.1298   25.8223  -26.8552 H   0  0  0  0  0  0  0  0  0  0  0  0
   -5.2890   24.4501  -26.8552 H   0  0  0  0  0  0  0  0  0  0  0  0
   -1.6230   24.0527  -25.4393 H   0  0  0  0  0  0  0  0  0  0  0  0
   -0.1567   23.8993  -26.4655 H   0  0  0  0  0  0  0  0  0  0  0  0
   -1.0969   25.4299  -26.4655 H   0  0  0  0  0  0  0  0  0  0  0  0
   -1.9273   20.3360  -30.3723 H   0  0  0  0  0  0  0  0  0  0  0  0
   -3.9935   17.7390  -36.1191 H   0  0  0  0  0  0  0  0  0  0  0  0
   -5.3678   16.6443  -35.7278 H   0  0  0  0  0  0  0  0  0  0  0  0
   -4.6905   19.3339  -34.4320 H   0  0  0  0  0  0  0  0  0  0  0  0
   -6.1447   18.9068  -35.4148 H   0  0  0  0  0  0  0  0  0  0  0  0
   -5.8714   20.7942  -33.3127 H   0  0  0  0  0  0  0  0  0  0  0  0
   -7.2728   23.1461  -31.1734 H   0  0  0  0  0  0  0  0  0  0  0  0
   -6.3973   22.9449  -32.7289 H   0  0  0  0  0  0  0  0  0  0  0  0
   -8.1559   23.3109  -32.7289 H   0  0  0  0  0  0  0  0  0  0  0  0
  1  2  1  0
  2  3  2  0
  3  4  1  0
  4  5  2  0
  5  6  1  0
  6  7  1  0
  7  8  1  0
  8  9  1  0
  9 10  1  0
 10 11  1  0
 11 12  1  0
 12 13  1  0
 13 14  1  0
 14 15  2  0
 14 16  1  0
 16 17  1  0
 17 18  2  0
 18 19  1  0
 19 20  2  0
 20 21  1  0
 21 22  1  0
 22 23  2  0
 23 24  1  0
 24 25  1  0
 24 26  2  0
 26 27  1  0
 26 28  1  0
 21 29  2  0
  9 30  1  0
 30 31  1  0
  5 32  1  0
 32 33  2  0
 33 34  1  0
 33  2  1  0
 31  6  1  0
 29 17  1  0
 28 22  1  0
  1 35  1  0
  1 36  1  0
  1 37  1  0
  3 38  1  0
  4 39  1  0
  7 40  1  0
  7 41  1  0
  8 42  1  0
  8 43  1  0
  9 44  1  0
 10 45  1  0
 10 46  1  0
 11 47  1  0
 11 48  1  0
 12 49  1  0
 12 50  1  0
 13 51  1  0
 13 52  1  0
 18 53  1  0
 19 54  1  0
 20 55  1  0
 23 56  1  0
 25 57  1  0
 25 58  1  0
 25 59  1  0
 27 60  1  0
 27 61  1  0
 27 62  1  0
 29 63  1  0
 30 64  1  0
 30 65  1  0
 31 66  1  0
 31 67  1  0
 32 68  1  0
 34 69  1  0
 34 70  1  0
 34 71  1  0
M  CHG  2   9   1  16  -1
M  END
>  <UniqueID>  (45) 
45

>  <SMILES>  (45) 
Cc1ccc(N2CC[NH+](CCCCC(=O)[N-]c3cccc(-c4cc(C)c(C)s4)c3)CC2)cc1C

>  <Energy>  (45) 
113.77024753998826

>  <Genealogy>  (45) 
Cc1ccc(N2CC[NH+](CCCCC(=O)[N-]c3cccc(-c4cc(C)c(C)s4)c3)CC2)cc1C (protonated)
Cc1ccc(N2CC[NH+](CCCCC(=O)[N-]c3cccc(-c4cc(C)c(C)s4)c3)CC2)cc1C (3D coordinates assigned)
Cc1ccc(N2CC[NH+](CCCCC(=O)[N-]c3cccc(-c4cc(C)c(C)s4)c3)CC2)cc1C (nonaromatic ring conformer: 113.77024753998826 kcal/mol)

>  <smiles>  (45) 
Cc1ccc(N2CCN(CCCCC(=O)Nc3cccc(-c4cc(C)c(C)s4)c3)CC2)cc1C

>  <score_type>  (45) 
oracle

>  <origin>  (45) 
adgpu

>  <m_score__min__energy>  (45) 
-11.75

>  <m_primary>  (45) 
energy

$$$$
45:0
     RDKit          3D

 60 63  0  0  0  0  0  0  0  0999 V2000
   -7.5670   23.8120  -32.6360 C   0  0  0  0  0  0  0  0  0  0  0  0
   -6.4330   23.7720  -31.6450 C   0  0  0  0  0  0  0  0  0  0  0  0
   -6.0080   24.9820  -31.0750 C   0  0  0  0  0  0  0  0  0  0  0  0
   -4.9440   25.0110  -30.1780 C   0  0  0  0  0  0  0  0  0  0  0  0
   -4.2670   23.8380  -29.8430 C   0  0  0  0  0  0  0  0  0  0  0  0
   -3.1650   23.9240  -28.9300 N   0  0  0  0  0  0  0  0  0  0  0  0
   -1.9060   24.5510  -29.2050 C   0  0  0  0  0  0  0  0  0  0  0  0
   -1.7190   25.7600  -28.9070 O   0  0  0  0  0  0  0  0  0  0  0  0
   -0.8160   23.7850  -29.7280 N   0  0  0  0  0  0  0  0  0  0  0  0
   -0.9030   22.4200  -30.1570 C   0  0  0  0  0  0  0  0  0  0  0  0
   -1.5490   22.1370  -31.3670 C   0  0  0  0  0  0  0  0  0  0  0  0
   -1.6670   20.8160  -31.8210 C   0  0  0  0  0  0  0  0  0  0  0  0
   -2.4890   20.4670  -33.3410 S   0  0  0  0  0  0  0  0  0  0  0  0
   -1.5320   20.6810  -34.4820 O   0  0  0  0  0  0  0  0  0  0  0  0
   -3.6370   21.4230  -33.5200 O   0  0  0  0  0  0  0  0  0  0  0  0
   -3.0900   18.8220  -33.3700 N   0  0  0  0  0  0  0  0  0  0  0  0
   -4.4850   18.8100  -33.8540 C   0  0  0  0  0  0  0  0  0  0  0  0
   -5.1400   17.4230  -33.7560 C   0  0  0  0  0  0  0  0  0  0  0  0
   -4.5020   16.3220  -34.6210 C   0  0  0  0  0  0  0  0  0  0  0  0
   -3.3320   15.5840  -33.9510 C   0  0  0  0  0  0  0  0  0  0  0  0
   -2.1070   16.4610  -33.5820 C   0  0  0  0  0  0  0  0  0  0  0  0
   -2.1450   17.9240  -34.0830 C   0  0  0  0  0  0  0  0  0  0  0  0
   -1.1460   19.7700  -31.0480 C   0  0  0  0  0  0  0  0  0  0  0  0
   -0.5310   20.0400  -29.8250 C   0  0  0  0  0  0  0  0  0  0  0  0
   -0.4210   21.3580  -29.3650 C   0  0  0  0  0  0  0  0  0  0  0  0
    0.1350   21.5930  -28.1130 O   0  0  0  0  0  0  0  0  0  0  0  0
   -4.7190   22.6050  -30.3530 C   0  0  0  0  0  0  0  0  0  0  0  0
   -4.0960   21.4290  -29.9490 O   0  0  0  0  0  0  0  0  0  0  0  0
   -5.8120   22.5570  -31.2490 C   0  0  0  0  0  0  0  0  0  0  0  0
   -6.3440   20.9840  -31.8940 S   0  0  0  0  0  0  0  0  0  0  0  0
   -6.2910   20.9910  -33.3970 O   0  0  0  0  0  0  0  0  0  0  0  0
   -5.4390   19.8830  -31.4160 O   0  0  0  0  0  0  0  0  0  0  0  0
   -8.0090   20.6700  -31.3110 C   0  0  0  0  0  0  0  0  0  0  0  0
   -9.0470   20.5180  -32.4110 C   0  0  0  0  0  0  0  0  0  0  0  0
   -8.5600   19.2950  -31.6470 C   0  0  0  0  0  0  0  0  0  0  0  0
   -8.5248   23.8458  -32.0961 H   0  0  0  0  0  0  0  0  0  0  0  0
   -7.4704   24.7073  -33.2678 H   0  0  0  0  0  0  0  0  0  0  0  0
   -7.5338   22.9121  -33.2678 H   0  0  0  0  0  0  0  0  0  0  0  0
   -6.5215   25.9180  -31.3401 H   0  0  0  0  0  0  0  0  0  0  0  0
   -4.6344   25.9666  -29.7296 H   0  0  0  0  0  0  0  0  0  0  0  0
   -1.9676   22.9588  -31.9665 H   0  0  0  0  0  0  0  0  0  0  0  0
   -5.0718   19.5187  -33.2512 H   0  0  0  0  0  0  0  0  0  0  0  0
   -4.4682   19.0928  -34.9169 H   0  0  0  0  0  0  0  0  0  0  0  0
   -5.0905   17.0992  -32.7059 H   0  0  0  0  0  0  0  0  0  0  0  0
   -6.1647   17.5474  -34.1362 H   0  0  0  0  0  0  0  0  0  0  0  0
   -5.2795   15.5833  -34.8656 H   0  0  0  0  0  0  0  0  0  0  0  0
   -4.0893   16.8217  -35.5098 H   0  0  0  0  0  0  0  0  0  0  0  0
   -3.7085   15.1228  -33.0260 H   0  0  0  0  0  0  0  0  0  0  0  0
   -2.9690   14.8594  -34.6948 H   0  0  0  0  0  0  0  0  0  0  0  0
   -2.0269   16.4828  -32.4851 H   0  0  0  0  0  0  0  0  0  0  0  0
   -1.2470   15.9968  -34.0869 H   0  0  0  0  0  0  0  0  0  0  0  0
   -1.1339   18.3443  -33.9777 H   0  0  0  0  0  0  0  0  0  0  0  0
   -2.5007   17.8770  -35.1228 H   0  0  0  0  0  0  0  0  0  0  0  0
   -1.2220   18.7328  -31.4064 H   0  0  0  0  0  0  0  0  0  0  0  0
   -0.1307   19.2136  -29.2193 H   0  0  0  0  0  0  0  0  0  0  0  0
   -7.9248   21.2699  -30.3929 H   0  0  0  0  0  0  0  0  0  0  0  0
  -10.0703   20.8913  -32.2574 H   0  0  0  0  0  0  0  0  0  0  0  0
   -9.1035   20.8011  -33.4724 H   0  0  0  0  0  0  0  0  0  0  0  0
   -9.2314   18.7840  -30.9413 H   0  0  0  0  0  0  0  0  0  0  0  0
   -8.1186   18.3273  -31.9276 H   0  0  0  0  0  0  0  0  0  0  0  0
  1  2  1  0
  2  3  2  0
  3  4  1  0
  4  5  2  0
  5  6  1  0
  6  7  1  0
  7  8  2  0
  7  9  1  0
  9 10  1  0
 10 11  2  0
 11 12  1  0
 12 13  1  0
 13 14  2  0
 13 15  2  0
 13 16  1  0
 16 17  1  0
 17 18  1  0
 18 19  1  0
 19 20  1  0
 20 21  1  0
 21 22  1  0
 12 23  2  0
 23 24  1  0
 24 25  2  0
 25 26  1  0
  5 27  1  0
 27 28  1  0
 27 29  2  0
 29 30  1  0
 30 31  2  0
 30 32  2  0
 30 33  1  0
 33 34  1  0
 34 35  1  0
 29  2  1  0
 35 33  1  0
 25 10  1  0
 22 16  1  0
  1 36  1  0
  1 37  1  0
  1 38  1  0
  3 39  1  0
  4 40  1  0
 11 41  1  0
 17 42  1  0
 17 43  1  0
 18 44  1  0
 18 45  1  0
 19 46  1  0
 19 47  1  0
 20 48  1  0
 20 49  1  0
 21 50  1  0
 21 51  1  0
 22 52  1  0
 22 53  1  0
 23 54  1  0
 24 55  1  0
 33 56  1  0
 34 57  1  0
 34 58  1  0
 35 59  1  0
 35 60  1  0
M  CHG  4   6  -1   9  -1  26  -1  28  -1
M  END
>  <UniqueID>  (46) 
46

>  <SMILES>  (46) 
Cc1ccc([N-]C(=O)[N-]c2cc(S(=O)(=O)N3CCCCCC3)ccc2[O-])c([O-])c1S(=O)(=O)C1CC1

>  <Energy>  (46) 
350.53031241749034

>  <Genealogy>  (46) 
Cc1ccc([N-]C(=O)[N-]c2cc(S(=O)(=O)N3CCCCCC3)ccc2[O-])c([O-])c1S(=O)(=O)C1CC1 (protonated)
Cc1ccc([N-]C(=O)[N-]c2cc(S(=O)(=O)N3CCCCCC3)ccc2[O-])c([O-])c1S(=O)(=O)C1CC1 (3D coordinates assigned)
Cc1ccc([N-]C(=O)[N-]c2cc(S(=O)(=O)N3CCCCCC3)ccc2[O-])c([O-])c1S(=O)(=O)C1CC1 (nonaromatic ring conformer: 350.53031241749034 kcal/mol)

>  <smiles>  (46) 
Cc1ccc(NC(=O)Nc2cc(S(=O)(=O)N3CCCCCC3)ccc2O)c(O)c1S(=O)(=O)C1CC1

>  <score_type>  (46) 
oracle

>  <origin>  (46) 
adgpu

>  <m_score__min__energy>  (46) 
-13.35

>  <m_primary>  (46) 
energy

$$$$
46:0
     RDKit          3D

 39 41  0  0  0  0  0  0  0  0999 V2000
   -2.4700   22.1820  -31.5080 C   0  0  0  0  0  0  0  0  0  0  0  0
   -3.5520   23.1000  -31.6180 O   0  0  0  0  0  0  0  0  0  0  0  0
   -4.9050   22.7320  -31.6980 C   0  0  0  0  0  0  0  0  0  0  0  0
   -5.3240   21.5970  -32.4170 C   0  0  0  0  0  0  0  0  0  0  0  0
   -6.6780   21.2600  -32.4820 C   0  0  0  0  0  0  0  0  0  0  0  0
   -7.6280   22.0510  -31.8330 C   0  0  0  0  0  0  0  0  0  0  0  0
   -9.4790   21.5870  -31.9220 Br  0  0  0  0  0  0  0  0  0  0  0  0
   -7.2250   23.1790  -31.1150 C   0  0  0  0  0  0  0  0  0  0  0  0
   -5.8660   23.5220  -31.0360 C   0  0  0  0  0  0  0  0  0  0  0  0
   -5.3710   24.9280  -30.0880 S   0  0  0  0  0  0  0  0  0  0  0  0
   -4.3040   25.6630  -30.8500 O   0  0  0  0  0  0  0  0  0  0  0  0
   -6.5330   25.8550  -29.8580 O   0  0  0  0  0  0  0  0  0  0  0  0
   -4.7310   24.4290  -28.5550 N   0  0  0  0  0  0  0  0  0  0  0  0
   -3.5470   23.6410  -28.3680 C   0  0  0  0  0  0  0  0  0  0  0  0
   -3.6910   22.3630  -27.8130 C   0  0  0  0  0  0  0  0  0  0  0  0
   -2.5710   21.5680  -27.5530 C   0  0  0  0  0  0  0  0  0  0  0  0
   -1.2860   22.0320  -27.8860 C   0  0  0  0  0  0  0  0  0  0  0  0
   -1.1370   23.3040  -28.4570 C   0  0  0  0  0  0  0  0  0  0  0  0
   -2.2600   24.1040  -28.7170 C   0  0  0  0  0  0  0  0  0  0  0  0
   -2.0920   25.3380  -29.3410 O   0  0  0  0  0  0  0  0  0  0  0  0
   -0.0740   21.1890  -27.5780 C   0  0  0  0  0  0  0  0  0  0  0  0
   -0.4340   19.7030  -27.4550 C   0  0  0  0  0  0  0  0  0  0  0  0
   -1.6320   19.5260  -26.5200 C   0  0  0  0  0  0  0  0  0  0  0  0
   -2.7380   20.3030  -26.9780 O   0  0  0  0  0  0  0  0  0  0  0  0
   -2.2524   21.9974  -30.4457 H   0  0  0  0  0  0  0  0  0  0  0  0
   -2.7417   21.2347  -31.9967 H   0  0  0  0  0  0  0  0  0  0  0  0
   -1.5796   22.6044  -31.9967 H   0  0  0  0  0  0  0  0  0  0  0  0
   -4.5800   20.9709  -32.9314 H   0  0  0  0  0  0  0  0  0  0  0  0
   -6.9962   20.3703  -33.0452 H   0  0  0  0  0  0  0  0  0  0  0  0
   -7.9767   23.8022  -30.6085 H   0  0  0  0  0  0  0  0  0  0  0  0
   -4.6958   21.9811  -27.5794 H   0  0  0  0  0  0  0  0  0  0  0  0
   -0.1320   23.6775  -28.7030 H   0  0  0  0  0  0  0  0  0  0  0  0
   -2.8170   26.0450  -29.3280 H   0  0  0  0  0  0  0  0  0  0  0  0
    0.6610   21.3121  -28.3871 H   0  0  0  0  0  0  0  0  0  0  0  0
    0.3406   21.5226  -26.6153 H   0  0  0  0  0  0  0  0  0  0  0  0
   -0.6874   19.3069  -28.4494 H   0  0  0  0  0  0  0  0  0  0  0  0
    0.4275   19.1576  -27.0422 H   0  0  0  0  0  0  0  0  0  0  0  0
   -1.9196   18.4645  -26.4960 H   0  0  0  0  0  0  0  0  0  0  0  0
   -1.3512   19.8637  -25.5115 H   0  0  0  0  0  0  0  0  0  0  0  0
  1  2  1  0
  2  3  1  0
  3  4  2  0
  4  5  1  0
  5  6  2  0
  6  7  1  0
  6  8  1  0
  8  9  2  0
  9 10  1  0
 10 11  2  0
 10 12  2  0
 10 13  1  0
 13 14  1  0
 14 15  2  0
 15 16  1  0
 16 17  2  0
 17 18  1  0
 18 19  2  0
 19 20  1  0
 17 21  1  0
 21 22  1  0
 22 23  1  0
 23 24  1  0
  9  3  1  0
 19 14  1  0
 24 16  1  0
  1 25  1  0
  1 26  1  0
  1 27  1  0
  4 28  1  0
  5 29  1  0
  8 30  1  0
 15 31  1  0
 18 32  1  0
 20 33  1  0
 21 34  1  0
 21 35  1  0
 22 36  1  0
 22 37  1  0
 23 38  1  0
 23 39  1  0
M  CHG  1  13  -1
M  END
>  <UniqueID>  (47) 
47

>  <SMILES>  (47) 
COc1ccc(Br)cc1S(=O)(=O)[N-]c1cc2c(cc1O)CCCO2

>  <Energy>  (47) 
44.90105990537034

>  <Genealogy>  (47) 
COc1ccc(Br)cc1S(=O)(=O)[N-]c1cc2c(cc1O)CCCO2 (protonated)
COc1ccc(Br)cc1S(=O)(=O)[N-]c1cc2c(cc1O)CCCO2 (3D coordinates assigned)
COc1ccc(Br)cc1S(=O)(=O)[N-]c1cc2c(cc1O)CCCO2 (nonaromatic ring conformer: 44.90105990537034 kcal/mol)

>  <smiles>  (47) 
COc1ccc(Br)cc1S(=O)(=O)Nc1cc2c(cc1O)CCCO2

>  <score_type>  (47) 
oracle

>  <origin>  (47) 
adgpu

>  <m_score__min__energy>  (47) 
-10.99

>  <m_primary>  (47) 
energy

$$$$
47:0
     RDKit          3D

 57 60  0  0  0  0  0  0  0  0999 V2000
   -5.3440   26.4140  -30.4600 O   0  0  0  0  0  0  0  0  0  0  0  0
   -4.9130   25.2420  -30.6200 C   0  0  0  0  0  0  0  0  0  0  0  0
   -3.5060   24.9980  -30.4780 N   0  0  0  0  0  0  0  0  0  0  0  0
   -2.9400   23.9060  -29.7410 C   0  0  0  0  0  0  0  0  0  0  0  0
   -2.8290   22.6260  -30.3080 C   0  0  0  0  0  0  0  0  0  0  0  0
   -2.3720   21.5550  -29.5390 C   0  0  0  0  0  0  0  0  0  0  0  0
   -2.0310   21.7480  -28.1940 C   0  0  0  0  0  0  0  0  0  0  0  0
   -1.5720   20.3730  -27.1950 S   0  0  0  0  0  0  0  0  0  0  0  0
   -2.5810   19.2740  -27.3850 O   0  0  0  0  0  0  0  0  0  0  0  0
   -1.6160   20.7860  -25.7490 O   0  0  0  0  0  0  0  0  0  0  0  0
    0.0250   19.7620  -27.5700 N   0  0  0  0  0  0  0  0  0  0  0  0
    0.0570   18.3050  -27.8120 C   0  0  0  0  0  0  0  0  0  0  0  0
   -0.1190   17.9450  -29.2940 C   0  0  0  0  0  0  0  0  0  0  0  0
    0.8040   18.6500  -30.0930 O   0  0  0  0  0  0  0  0  0  0  0  0
    0.5190   20.0290  -30.0180 C   0  0  0  0  0  0  0  0  0  0  0  0
    0.7380   20.5550  -28.5910 C   0  0  0  0  0  0  0  0  0  0  0  0
   -2.0690   23.0400  -27.6510 C   0  0  0  0  0  0  0  0  0  0  0  0
   -2.5150   24.1160  -28.4250 C   0  0  0  0  0  0  0  0  0  0  0  0
   -5.8680   24.1450  -30.9070 C   0  0  0  0  0  0  0  0  0  0  0  0
   -6.3500   23.9510  -32.2110 C   0  0  0  0  0  0  0  0  0  0  0  0
   -7.2230   22.8940  -32.4920 C   0  0  0  0  0  0  0  0  0  0  0  0
   -7.6310   22.0250  -31.4710 C   0  0  0  0  0  0  0  0  0  0  0  0
   -8.7320   20.6920  -31.8050 S   0  0  0  0  0  0  0  0  0  0  0  0
   -9.0290   19.9430  -30.5350 O   0  0  0  0  0  0  0  0  0  0  0  0
  -10.0180   21.2610  -32.3400 O   0  0  0  0  0  0  0  0  0  0  0  0
   -8.0020   19.6290  -32.9890 N   0  0  0  0  0  0  0  0  0  0  0  0
   -6.6750   20.1200  -33.4280 C   0  0  0  0  0  0  0  0  0  0  0  0
   -5.5100   19.4110  -32.7140 C   0  0  0  0  0  0  0  0  0  0  0  0
   -5.8870   19.0480  -31.4050 O   0  0  0  0  0  0  0  0  0  0  0  0
   -6.8590   18.0170  -31.4420 C   0  0  0  0  0  0  0  0  0  0  0  0
   -7.9540   18.2360  -32.5140 C   0  0  0  0  0  0  0  0  0  0  0  0
   -7.1760   22.2320  -30.1650 C   0  0  0  0  0  0  0  0  0  0  0  0
   -6.3060   23.2860  -29.8810 C   0  0  0  0  0  0  0  0  0  0  0  0
   -3.1031   22.4672  -31.3614 H   0  0  0  0  0  0  0  0  0  0  0  0
   -2.2792   20.5561  -29.9903 H   0  0  0  0  0  0  0  0  0  0  0  0
    1.0251   17.9125  -27.4674 H   0  0  0  0  0  0  0  0  0  0  0  0
   -0.7835   17.8587  -27.2603 H   0  0  0  0  0  0  0  0  0  0  0  0
    0.0423   16.8647  -29.4244 H   0  0  0  0  0  0  0  0  0  0  0  0
   -1.1375   18.2202  -29.6053 H   0  0  0  0  0  0  0  0  0  0  0  0
    1.1814   20.5721  -30.7081 H   0  0  0  0  0  0  0  0  0  0  0  0
   -0.5341   20.1867  -30.2940 H   0  0  0  0  0  0  0  0  0  0  0  0
    1.8148   20.5270  -28.3681 H   0  0  0  0  0  0  0  0  0  0  0  0
    0.3380   21.5790  -28.5519 H   0  0  0  0  0  0  0  0  0  0  0  0
   -1.7469   23.2079  -26.6127 H   0  0  0  0  0  0  0  0  0  0  0  0
   -2.5316   25.1296  -27.9980 H   0  0  0  0  0  0  0  0  0  0  0  0
   -6.0399   24.6333  -33.0161 H   0  0  0  0  0  0  0  0  0  0  0  0
   -7.5903   22.7447  -33.5180 H   0  0  0  0  0  0  0  0  0  0  0  0
   -6.5785   19.9512  -34.5107 H   0  0  0  0  0  0  0  0  0  0  0  0
   -6.6171   21.1889  -33.1746 H   0  0  0  0  0  0  0  0  0  0  0  0
   -5.2360   18.5065  -33.2768 H   0  0  0  0  0  0  0  0  0  0  0  0
   -4.6515   20.0968  -32.6620 H   0  0  0  0  0  0  0  0  0  0  0  0
   -6.3491   17.0658  -31.6549 H   0  0  0  0  0  0  0  0  0  0  0  0
   -7.3617   18.0123  -30.4636 H   0  0  0  0  0  0  0  0  0  0  0  0
   -7.7471   17.5774  -33.3704 H   0  0  0  0  0  0  0  0  0  0  0  0
   -8.9259   18.0042  -32.0538 H   0  0  0  0  0  0  0  0  0  0  0  0
   -7.5052   21.5612  -29.3578 H   0  0  0  0  0  0  0  0  0  0  0  0
   -5.9604   23.4465  -28.8491 H   0  0  0  0  0  0  0  0  0  0  0  0
  1  2  2  0
  2  3  1  0
  3  4  1  0
  4  5  2  0
  5  6  1  0
  6  7  2  0
  7  8  1  0
  8  9  2  0
  8 10  2  0
  8 11  1  0
 11 12  1  0
 12 13  1  0
 13 14  1  0
 14 15  1  0
 15 16  1  0
  7 17  1  0
 17 18  2  0
  2 19  1  0
 19 20  2  0
 20 21  1  0
 21 22  2  0
 22 23  1  0
 23 24  2  0
 23 25  2  0
 23 26  1  0
 26 27  1  0
 27 28  1  0
 28 29  1  0
 29 30  1  0
 30 31  1  0
 22 32  1  0
 32 33  2  0
 18  4  1  0
 33 19  1  0
 16 11  1  0
 31 26  1  0
  5 34  1  0
  6 35  1  0
 12 36  1  0
 12 37  1  0
 13 38  1  0
 13 39  1  0
 15 40  1  0
 15 41  1  0
 16 42  1  0
 16 43  1  0
 17 44  1  0
 18 45  1  0
 20 46  1  0
 21 47  1  0
 27 48  1  0
 27 49  1  0
 28 50  1  0
 28 51  1  0
 30 52  1  0
 30 53  1  0
 31 54  1  0
 31 55  1  0
 32 56  1  0
 33 57  1  0
M  CHG  1   3  -1
M  END
>  <UniqueID>  (48) 
48

>  <SMILES>  (48) 
O=C([N-]c1ccc(S(=O)(=O)N2CCOCC2)cc1)c1ccc(S(=O)(=O)N2CCOCC2)cc1

>  <Energy>  (48) 
80.98580391135424

>  <Genealogy>  (48) 
O=C([N-]c1ccc(S(=O)(=O)N2CCOCC2)cc1)c1ccc(S(=O)(=O)N2CCOCC2)cc1 (protonated)
O=C([N-]c1ccc(S(=O)(=O)N2CCOCC2)cc1)c1ccc(S(=O)(=O)N2CCOCC2)cc1 (3D coordinates assigned)
O=C([N-]c1ccc(S(=O)(=O)N2CCOCC2)cc1)c1ccc(S(=O)(=O)N2CCOCC2)cc1 (nonaromatic ring conformer: 80.98580391135424 kcal/mol)

>  <smiles>  (48) 
O=C(Nc1ccc(S(=O)(=O)N2CCOCC2)cc1)c1ccc(S(=O)(=O)N2CCOCC2)cc1

>  <score_type>  (48) 
oracle

>  <origin>  (48) 
adgpu

>  <m_score__min__energy>  (48) 
-11.84

>  <m_primary>  (48) 
energy

$$$$
48:0
     RDKit          3D

 43 46  0  0  0  0  0  0  0  0999 V2000
   -5.4540   25.1970  -31.2330 O   0  0  0  0  0  0  0  0  0  0  0  0
   -4.6210   24.3670  -30.7760 C   0  0  0  0  0  0  0  0  0  0  0  0
   -3.2980   24.7930  -30.4290 N   0  0  0  0  0  0  0  0  0  0  0  0
   -2.5840   24.4010  -29.2480 C   0  0  0  0  0  0  0  0  0  0  0  0
   -2.8450   23.1430  -28.7020 C   0  0  0  0  0  0  0  0  0  0  0  0
   -2.1640   22.7110  -27.5660 C   0  0  0  0  0  0  0  0  0  0  0  0
   -1.2060   23.5290  -26.9590 C   0  0  0  0  0  0  0  0  0  0  0  0
   -0.3580   22.8860  -25.5570 Cl  0  0  0  0  0  0  0  0  0  0  0  0
   -0.9160   24.8010  -27.5020 C   0  0  0  0  0  0  0  0  0  0  0  0
    0.3160   25.8440  -26.7520 S   0  0  0  0  0  0  0  0  0  0  0  0
    1.6200   25.6600  -27.4770 O   0  0  0  0  0  0  0  0  0  0  0  0
    0.5390   25.4440  -25.3200 O   0  0  0  0  0  0  0  0  0  0  0  0
   -0.1170   27.5860  -26.7910 C   0  0  0  0  0  0  0  0  0  0  0  0
   -0.9400   28.1240  -25.6280 C   0  0  0  0  0  0  0  0  0  0  0  0
    0.5520   28.4020  -25.6960 C   0  0  0  0  0  0  0  0  0  0  0  0
   -1.5870   25.2160  -28.6740 C   0  0  0  0  0  0  0  0  0  0  0  0
   -1.2380   26.4120  -29.2940 O   0  0  0  0  0  0  0  0  0  0  0  0
   -5.0120   23.0130  -30.5160 N   0  0  0  0  0  0  0  0  0  0  0  0
   -6.2260   22.4140  -31.0010 C   0  0  0  0  0  0  0  0  0  0  0  0
   -7.4010   23.1840  -31.0520 C   0  0  0  0  0  0  0  0  0  0  0  0
   -8.5990   22.6220  -31.5050 C   0  0  0  0  0  0  0  0  0  0  0  0
   -8.6340   21.2820  -31.8990 C   0  0  0  0  0  0  0  0  0  0  0  0
   -7.4810   20.4930  -31.8040 C   0  0  0  0  0  0  0  0  0  0  0  0
   -6.2780   21.0550  -31.3660 C   0  0  0  0  0  0  0  0  0  0  0  0
   -7.5550   19.1390  -32.1480 O   0  0  0  0  0  0  0  0  0  0  0  0
   -8.8170   18.4910  -32.3300 C   0  0  0  0  0  0  0  0  0  0  0  0
   -9.8020   19.4340  -33.0320 C   0  0  0  0  0  0  0  0  0  0  0  0
   -9.8130   20.7100  -32.3840 O   0  0  0  0  0  0  0  0  0  0  0  0
   -3.5936   22.4883  -29.1720 H   0  0  0  0  0  0  0  0  0  0  0  0
   -2.3815   21.7190  -27.1434 H   0  0  0  0  0  0  0  0  0  0  0  0
   -0.2192   27.6444  -27.8847 H   0  0  0  0  0  0  0  0  0  0  0  0
   -1.6596   28.9393  -25.7941 H   0  0  0  0  0  0  0  0  0  0  0  0
   -1.6154   27.6800  -24.8818 H   0  0  0  0  0  0  0  0  0  0  0  0
    0.9124   29.4189  -25.9107 H   0  0  0  0  0  0  0  0  0  0  0  0
    1.4038   28.2426  -25.0185 H   0  0  0  0  0  0  0  0  0  0  0  0
   -4.4060   22.4520  -29.8740 H   0  0  0  0  0  0  0  0  0  0  0  0
   -7.3781   24.2365  -30.7332 H   0  0  0  0  0  0  0  0  0  0  0  0
   -9.5120   23.2339  -31.5510 H   0  0  0  0  0  0  0  0  0  0  0  0
   -5.3714   20.4350  -31.3065 H   0  0  0  0  0  0  0  0  0  0  0  0
   -8.6769   17.5894  -32.9444 H   0  0  0  0  0  0  0  0  0  0  0  0
   -9.2238   18.2161  -31.3457 H   0  0  0  0  0  0  0  0  0  0  0  0
   -9.4972   19.5621  -34.0811 H   0  0  0  0  0  0  0  0  0  0  0  0
  -10.8111   18.9988  -32.9841 H   0  0  0  0  0  0  0  0  0  0  0  0
  1  2  2  0
  2  3  1  0
  3  4  1  0
  4  5  2  0
  5  6  1  0
  6  7  2  0
  7  8  1  0
  7  9  1  0
  9 10  1  0
 10 11  2  0
 10 12  2  0
 10 13  1  0
 13 14  1  0
 14 15  1  0
  9 16  2  0
 16 17  1  0
  2 18  1  0
 18 19  1  0
 19 20  2  0
 20 21  1  0
 21 22  2  0
 22 23  1  0
 23 24  2  0
 23 25  1  0
 25 26  1  0
 26 27  1  0
 27 28  1  0
 16  4  1  0
 24 19  1  0
 15 13  1  0
 28 22  1  0
  5 29  1  0
  6 30  1  0
 13 31  1  0
 14 32  1  0
 14 33  1  0
 15 34  1  0
 15 35  1  0
 18 36  1  0
 20 37  1  0
 21 38  1  0
 24 39  1  0
 26 40  1  0
 26 41  1  0
 27 42  1  0
 27 43  1  0
M  CHG  2   3  -1  17  -1
M  END
>  <UniqueID>  (49) 
49

>  <SMILES>  (49) 
O=C([N-]c1ccc(Cl)c(S(=O)(=O)C2CC2)c1[O-])Nc1ccc2c(c1)OCCO2

>  <Energy>  (49) 
322.12351496351437

>  <Genealogy>  (49) 
O=C([N-]c1ccc(Cl)c(S(=O)(=O)C2CC2)c1[O-])Nc1ccc2c(c1)OCCO2 (protonated)
O=C([N-]c1ccc(Cl)c(S(=O)(=O)C2CC2)c1[O-])Nc1ccc2c(c1)OCCO2 (3D coordinates assigned)
O=C([N-]c1ccc(Cl)c(S(=O)(=O)C2CC2)c1[O-])Nc1ccc2c(c1)OCCO2 (nonaromatic ring conformer: 322.12351496351437 kcal/mol)

>  <smiles>  (49) 
O=C(Nc1ccc2c(c1)OCCO2)Nc1ccc(Cl)c(S(=O)(=O)C2CC2)c1O

>  <score_type>  (49) 
oracle

>  <origin>  (49) 
adgpu

>  <m_score__min__energy>  (49) 
-12.9

>  <m_primary>  (49) 
energy

$$$$
