0:0
     RDKit          3D

 45 49  0  0  0  0  0  0  0  0999 V2000
   -0.1050   16.8820  -27.1020 O   0  0  0  0  0  0  0  0  0  0  0  0
   -0.5730   18.1730  -27.3370 C   0  0  0  0  0  0  0  0  0  0  0  0
    0.1770   19.0750  -28.1040 C   0  0  0  0  0  0  0  0  0  0  0  0
   -0.3030   20.3680  -28.3350 C   0  0  0  0  0  0  0  0  0  0  0  0
   -1.5390   20.7740  -27.8040 C   0  0  0  0  0  0  0  0  0  0  0  0
   -2.0480   22.1460  -28.0450 C   0  0  0  0  0  0  0  0  0  0  0  0
   -1.5190   23.2490  -27.3460 C   0  0  0  0  0  0  0  0  0  0  0  0
   -2.0290   24.5470  -27.6050 C   0  0  0  0  0  0  0  0  0  0  0  0
   -1.5040   25.7420  -26.8980 C   0  0  0  0  0  0  0  0  0  0  0  0
   -1.7080   25.8810  -25.5120 C   0  0  0  0  0  0  0  0  0  0  0  0
   -1.2250   27.0030  -24.8320 C   0  0  0  0  0  0  0  0  0  0  0  0
   -0.5400   28.0030  -25.5260 C   0  0  0  0  0  0  0  0  0  0  0  0
   -0.3410   27.8830  -26.9030 C   0  0  0  0  0  0  0  0  0  0  0  0
   -0.8210   26.7630  -27.5890 C   0  0  0  0  0  0  0  0  0  0  0  0
   -3.0400   24.7020  -28.5120 N   0  0  0  0  0  0  0  0  0  0  0  0
   -3.5240   23.6170  -29.1600 C   0  0  0  0  0  0  0  0  0  0  0  0
   -4.5440   23.5690  -30.0780 C   0  0  0  0  0  0  0  0  0  0  0  0
   -4.6360   22.2060  -30.3760 C   0  0  0  0  0  0  0  0  0  0  0  0
   -5.5870   21.5670  -31.3190 C   0  0  0  0  0  0  0  0  0  0  0  0
   -6.9650   21.8340  -31.2130 C   0  0  0  0  0  0  0  0  0  0  0  0
   -7.8730   21.2390  -32.0940 C   0  0  0  0  0  0  0  0  0  0  0  0
   -7.4180   20.3720  -33.0900 C   0  0  0  0  0  0  0  0  0  0  0  0
   -6.0540   20.0980  -33.2060 C   0  0  0  0  0  0  0  0  0  0  0  0
   -5.1400   20.6910  -32.3270 C   0  0  0  0  0  0  0  0  0  0  0  0
   -3.7150   21.5110  -29.6620 N   0  0  0  0  0  0  0  0  0  0  0  0
   -3.0450   22.3910  -28.9380 N   0  0  0  0  0  0  0  0  0  0  0  0
   -2.2810   19.8640  -27.0300 C   0  0  0  0  0  0  0  0  0  0  0  0
   -1.8000   18.5720  -26.8010 C   0  0  0  0  0  0  0  0  0  0  0  0
   -0.5060   16.2970  -26.3780 H   0  0  0  0  0  0  0  0  0  0  0  0
    1.1449   18.7653  -28.5250 H   0  0  0  0  0  0  0  0  0  0  0  0
    0.2910   21.0719  -28.9364 H   0  0  0  0  0  0  0  0  0  0  0  0
   -0.7178   23.1049  -26.6062 H   0  0  0  0  0  0  0  0  0  0  0  0
   -2.2518   25.1005  -24.9596 H   0  0  0  0  0  0  0  0  0  0  0  0
   -1.3848   27.0985  -23.7479 H   0  0  0  0  0  0  0  0  0  0  0  0
   -0.1579   28.8836  -24.9888 H   0  0  0  0  0  0  0  0  0  0  0  0
    0.1953   28.6724  -27.4500 H   0  0  0  0  0  0  0  0  0  0  0  0
   -0.6646   26.6783  -28.6745 H   0  0  0  0  0  0  0  0  0  0  0  0
   -5.1424   24.3996  -30.4805 H   0  0  0  0  0  0  0  0  0  0  0  0
   -7.3302   22.5160  -30.4310 H   0  0  0  0  0  0  0  0  0  0  0  0
   -8.9479   21.4541  -32.0026 H   0  0  0  0  0  0  0  0  0  0  0  0
   -8.1339   19.9054  -33.7826 H   0  0  0  0  0  0  0  0  0  0  0  0
   -5.6965   19.4144  -33.9901 H   0  0  0  0  0  0  0  0  0  0  0  0
   -4.0665   20.4715  -32.4242 H   0  0  0  0  0  0  0  0  0  0  0  0
   -3.2466   20.1713  -26.6019 H   0  0  0  0  0  0  0  0  0  0  0  0
   -2.3895   17.8668  -26.1967 H   0  0  0  0  0  0  0  0  0  0  0  0
  1  2  1  0
  2  3  2  0
  3  4  1  0
  4  5  2  0
  5  6  1  0
  6  7  2  0
  7  8  1  0
  8  9  1  0
  9 10  2  0
 10 11  1  0
 11 12  2  0
 12 13  1  0
 13 14  2  0
  8 15  2  0
 15 16  1  0
 16 17  2  0
 17 18  1  0
 18 19  1  0
 19 20  2  0
 20 21  1  0
 21 22  2  0
 22 23  1  0
 23 24  2  0
 18 25  2  0
 25 26  1  0
  5 27  1  0
 27 28  2  0
 28  2  1  0
 26  6  1  0
 14  9  1  0
 26 16  1  0
 24 19  1  0
  1 29  1  0
  3 30  1  0
  4 31  1  0
  7 32  1  0
 10 33  1  0
 11 34  1  0
 12 35  1  0
 13 36  1  0
 14 37  1  0
 17 38  1  0
 20 39  1  0
 21 40  1  0
 22 41  1  0
 23 42  1  0
 24 43  1  0
 27 44  1  0
 28 45  1  0
M  END
>  <UniqueID>  (1) 
1

>  <SMILES>  (1) 
Oc1ccc(-c2cc(-c3ccccc3)nc3cc(-c4ccccc4)nn23)cc1

>  <Energy>  (1) 
99.01757399865309

>  <Genealogy>  (1) 
Oc1ccc(-c2cc(-c3ccccc3)nc3cc(-c4ccccc4)nn23)cc1 (3D coordinates assigned)
Oc1ccc(-c2cc(-c3ccccc3)nc3cc(-c4ccccc4)nn23)cc1 (optimized conformer: 99.01757399865309 kcal/mol)

>  <smiles>  (1) 
Oc1ccc(-c2cc(-c3ccccc3)nc3cc(-c4ccccc4)nn23)cc1

>  <score_type>  (1) 
oracle

>  <origin>  (1) 
adgpu

>  <m_score__min__energy>  (1) 
-8.5199999999999996

>  <m_primary>  (1) 
energy

$$$$
1:0
     RDKit          3D

 31 32  0  0  0  0  0  0  0  0999 V2000
   -7.9850   23.7760  -32.6850 O   0  0  0  0  0  0  0  0  0  0  0  0
   -7.0310   22.9090  -31.9130 S   0  0  0  0  0  0  0  0  0  0  0  0
   -7.0550   23.3200  -30.4680 O   0  0  0  0  0  0  0  0  0  0  0  0
   -5.4270   23.1200  -32.5380 N   0  0  0  0  0  0  0  0  0  0  0  0
   -4.2570   22.6140  -31.8690 C   0  0  0  0  0  0  0  0  0  0  0  0
   -3.5940   21.4760  -32.3660 C   0  0  0  0  0  0  0  0  0  0  0  0
   -2.4690   20.9660  -31.7150 C   0  0  0  0  0  0  0  0  0  0  0  0
   -1.9960   21.5760  -30.5550 C   0  0  0  0  0  0  0  0  0  0  0  0
   -2.6410   22.7020  -30.0450 C   0  0  0  0  0  0  0  0  0  0  0  0
   -3.7660   23.2400  -30.6960 C   0  0  0  0  0  0  0  0  0  0  0  0
   -4.4240   24.4680  -30.1160 C   0  0  0  0  0  0  0  0  0  0  0  0
   -3.8700   25.6260  -30.6790 O   0  0  0  0  0  0  0  0  0  0  0  0
   -7.5250   21.2280  -32.0940 C   0  0  0  0  0  0  0  0  0  0  0  0
   -8.7410   20.7780  -31.5570 C   0  0  0  0  0  0  0  0  0  0  0  0
   -9.1140   19.4370  -31.6940 C   0  0  0  0  0  0  0  0  0  0  0  0
   -8.2760   18.5420  -32.3660 C   0  0  0  0  0  0  0  0  0  0  0  0
   -7.0660   18.9870  -32.9060 C   0  0  0  0  0  0  0  0  0  0  0  0
   -6.6910   20.3280  -32.7730 C   0  0  0  0  0  0  0  0  0  0  0  0
   -5.3460   23.5450  -33.4880 H   0  0  0  0  0  0  0  0  0  0  0  0
   -3.9660   20.9835  -33.2765 H   0  0  0  0  0  0  0  0  0  0  0  0
   -1.9552   20.0811  -32.1186 H   0  0  0  0  0  0  0  0  0  0  0  0
   -1.1128   21.1688  -30.0410 H   0  0  0  0  0  0  0  0  0  0  0  0
   -2.2666   23.1742  -29.1248 H   0  0  0  0  0  0  0  0  0  0  0  0
   -5.5021   24.4389  -30.3323 H   0  0  0  0  0  0  0  0  0  0  0  0
   -4.2592   24.4836  -29.0285 H   0  0  0  0  0  0  0  0  0  0  0  0
   -4.2080   25.6780  -31.6100 H   0  0  0  0  0  0  0  0  0  0  0  0
   -9.4014   21.4807  -31.0278 H   0  0  0  0  0  0  0  0  0  0  0  0
  -10.0676   19.0861  -31.2726 H   0  0  0  0  0  0  0  0  0  0  0  0
   -8.5692   17.4869  -32.4698 H   0  0  0  0  0  0  0  0  0  0  0  0
   -6.4083   18.2822  -33.4359 H   0  0  0  0  0  0  0  0  0  0  0  0
   -5.7401   20.6773  -33.2018 H   0  0  0  0  0  0  0  0  0  0  0  0
  1  2  2  0
  2  3  2  0
  2  4  1  0
  4  5  1  0
  5  6  2  0
  6  7  1  0
  7  8  2  0
  8  9  1  0
  9 10  2  0
 10 11  1  0
 11 12  1  0
  2 13  1  0
 13 14  2  0
 14 15  1  0
 15 16  2  0
 16 17  1  0
 17 18  2  0
 10  5  1  0
 18 13  1  0
  4 19  1  0
  6 20  1  0
  7 21  1  0
  8 22  1  0
  9 23  1  0
 11 24  1  0
 11 25  1  0
 12 26  1  0
 14 27  1  0
 15 28  1  0
 16 29  1  0
 17 30  1  0
 18 31  1  0
M  END
>  <UniqueID>  (2) 
2

>  <SMILES>  (2) 
O=S(=O)(Nc1ccccc1CO)c1ccccc1

>  <Energy>  (2) 
35.635872888642304

>  <Genealogy>  (2) 
O=S(=O)(Nc1ccccc1CO)c1ccccc1 (3D coordinates assigned)
O=S(=O)(Nc1ccccc1CO)c1ccccc1 (optimized conformer: 35.635872888642304 kcal/mol)

>  <smiles>  (2) 
O=S(=O)(Nc1ccccc1CO)c1ccccc1

>  <score_type>  (2) 
oracle

>  <origin>  (2) 
adgpu

>  <m_score__min__energy>  (2) 
-8.5999999999999996

>  <m_primary>  (2) 
energy

$$$$
2:0
     RDKit          3D

 46 48  0  0  0  0  0  0  0  0999 V2000
   -6.1110   17.1280  -34.4450 C   0  0  0  0  0  0  0  0  0  0  0  0
   -6.7540   17.1160  -33.0540 C   0  0  0  0  0  0  0  0  0  0  0  0
   -5.7330   16.7290  -31.9770 C   0  0  0  0  0  0  0  0  0  0  0  0
   -7.4030   18.4500  -32.7380 C   0  0  0  0  0  0  0  0  0  0  0  0
   -8.7480   18.5250  -32.3290 C   0  0  0  0  0  0  0  0  0  0  0  0
   -9.3350   19.7610  -32.0510 C   0  0  0  0  0  0  0  0  0  0  0  0
   -8.5890   20.9350  -32.1710 C   0  0  0  0  0  0  0  0  0  0  0  0
   -7.2380   20.8810  -32.5560 C   0  0  0  0  0  0  0  0  0  0  0  0
   -6.4590   22.0790  -32.7130 N   0  0  0  0  0  0  0  0  0  0  0  0
   -5.3150   22.4180  -31.9100 C   0  0  0  0  0  0  0  0  0  0  0  0
   -4.3860   21.4480  -31.5270 C   0  0  0  0  0  0  0  0  0  0  0  0
   -3.2780   21.8310  -30.7740 C   0  0  0  0  0  0  0  0  0  0  0  0
   -2.4470   20.9480  -30.4260 O   0  0  0  0  0  0  0  0  0  0  0  0
   -3.0970   23.1460  -30.4230 N   0  0  0  0  0  0  0  0  0  0  0  0
   -1.9050   23.5550  -29.6500 C   0  0  0  0  0  0  0  0  0  0  0  0
   -2.3140   24.1860  -28.3430 C   0  0  0  0  0  0  0  0  0  0  0  0
   -1.4280   25.0300  -27.6530 C   0  0  0  0  0  0  0  0  0  0  0  0
   -1.8210   25.6390  -26.4570 C   0  0  0  0  0  0  0  0  0  0  0  0
   -3.1010   25.4140  -25.9440 C   0  0  0  0  0  0  0  0  0  0  0  0
   -3.9900   24.5790  -26.6260 C   0  0  0  0  0  0  0  0  0  0  0  0
   -3.6020   23.9680  -27.8210 C   0  0  0  0  0  0  0  0  0  0  0  0
   -4.0110   24.0860  -30.8360 C   0  0  0  0  0  0  0  0  0  0  0  0
   -3.8610   25.3020  -30.5370 O   0  0  0  0  0  0  0  0  0  0  0  0
   -5.0940   23.7160  -31.5710 N   0  0  0  0  0  0  0  0  0  0  0  0
   -6.6600   19.6380  -32.8570 C   0  0  0  0  0  0  0  0  0  0  0  0
   -5.0160   17.1484  -34.3426 H   0  0  0  0  0  0  0  0  0  0  0  0
   -6.4110   16.2241  -34.9954 H   0  0  0  0  0  0  0  0  0  0  0  0
   -6.4445   18.0201  -34.9954 H   0  0  0  0  0  0  0  0  0  0  0  0
   -7.5452   16.3518  -33.0575 H   0  0  0  0  0  0  0  0  0  0  0  0
   -6.1699   16.8946  -30.9812 H   0  0  0  0  0  0  0  0  0  0  0  0
   -5.4667   15.6676  -32.0887 H   0  0  0  0  0  0  0  0  0  0  0  0
   -4.8301   17.3473  -32.0887 H   0  0  0  0  0  0  0  0  0  0  0  0
   -9.3404   17.6037  -32.2278 H   0  0  0  0  0  0  0  0  0  0  0  0
  -10.3880   19.8099  -31.7366 H   0  0  0  0  0  0  0  0  0  0  0  0
   -9.0606   21.9068  -31.9633 H   0  0  0  0  0  0  0  0  0  0  0  0
   -6.7420   22.7530  -33.4600 H   0  0  0  0  0  0  0  0  0  0  0  0
   -4.5271   20.3960  -31.8159 H   0  0  0  0  0  0  0  0  0  0  0  0
   -1.2846   22.6699  -29.4461 H   0  0  0  0  0  0  0  0  0  0  0  0
   -1.3354   24.2904  -30.2372 H   0  0  0  0  0  0  0  0  0  0  0  0
   -0.4206   25.2127  -28.0552 H   0  0  0  0  0  0  0  0  0  0  0  0
   -1.1215   26.2960  -25.9194 H   0  0  0  0  0  0  0  0  0  0  0  0
   -3.4089   25.8941  -25.0034 H   0  0  0  0  0  0  0  0  0  0  0  0
   -4.9974   24.4024  -26.2211 H   0  0  0  0  0  0  0  0  0  0  0  0
   -4.3064   23.3139  -28.3558 H   0  0  0  0  0  0  0  0  0  0  0  0
   -5.7780   24.4470  -31.8760 H   0  0  0  0  0  0  0  0  0  0  0  0
   -5.6127   19.5925  -33.1902 H   0  0  0  0  0  0  0  0  0  0  0  0
  1  2  1  0
  2  3  1  0
  2  4  1  0
  4  5  2  0
  5  6  1  0
  6  7  2  0
  7  8  1  0
  8  9  1  0
  9 10  1  0
 10 11  2  0
 11 12  1  0
 12 13  2  0
 12 14  1  0
 14 15  1  0
 15 16  1  0
 16 17  2  0
 17 18  1  0
 18 19  2  0
 19 20  1  0
 20 21  2  0
 14 22  1  0
 22 23  2  0
 22 24  1  0
  8 25  2  0
 25  4  1  0
 24 10  1  0
 21 16  1  0
  1 26  1  0
  1 27  1  0
  1 28  1  0
  2 29  1  0
  3 30  1  0
  3 31  1  0
  3 32  1  0
  5 33  1  0
  6 34  1  0
  7 35  1  0
  9 36  1  0
 11 37  1  0
 15 38  1  0
 15 39  1  0
 17 40  1  0
 18 41  1  0
 19 42  1  0
 20 43  1  0
 21 44  1  0
 24 45  1  0
 25 46  1  0
M  END
>  <UniqueID>  (3) 
3

>  <SMILES>  (3) 
CC(C)c1cccc(Nc2cc(=O)n(Cc3ccccc3)c(=O)[nH]2)c1

>  <Energy>  (3) 
53.54174036498376

>  <Genealogy>  (3) 
CC(C)c1cccc(Nc2cc(=O)n(Cc3ccccc3)c(=O)[nH]2)c1 (3D coordinates assigned)
CC(C)c1cccc(Nc2cc(=O)n(Cc3ccccc3)c(=O)[nH]2)c1 (optimized conformer: 53.54174036498376 kcal/mol)

>  <smiles>  (3) 
CC(C)c1cccc(Nc2cc(=O)n(Cc3ccccc3)c(=O)[nH]2)c1

>  <score_type>  (3) 
oracle

>  <origin>  (3) 
adgpu

>  <m_score__min__energy>  (3) 
-8.8699999999999992

>  <m_primary>  (3) 
energy

$$$$
3:0
     RDKit          3D

 37 39  0  0  0  0  0  0  0  0999 V2000
   -6.8450   19.9660  -33.2640 C   0  0  0  0  0  0  0  0  0  0  0  0
   -5.3660   19.7560  -33.4850 C   0  0  0  0  0  0  0  0  0  0  0  0
   -4.8780   18.5210  -33.9750 C   0  0  0  0  0  0  0  0  0  0  0  0
   -5.9430   17.1610  -34.3220 Cl  0  0  0  0  0  0  0  0  0  0  0  0
   -3.5090   18.3470  -34.2000 C   0  0  0  0  0  0  0  0  0  0  0  0
   -2.6120   19.3760  -33.9250 C   0  0  0  0  0  0  0  0  0  0  0  0
   -3.0730   20.5880  -33.4140 C   0  0  0  0  0  0  0  0  0  0  0  0
   -4.4450   20.7940  -33.1920 C   0  0  0  0  0  0  0  0  0  0  0  0
   -4.8960   22.0470  -32.6460 N   0  0  0  0  0  0  0  0  0  0  0  0
   -5.2490   22.2100  -31.2380 C   0  0  0  0  0  0  0  0  0  0  0  0
   -4.4820   23.3560  -30.6440 C   0  0  0  0  0  0  0  0  0  0  0  0
   -4.8130   24.6470  -30.8620 N   0  0  0  0  0  0  0  0  0  0  0  0
   -3.8800   25.3770  -30.2710 N   0  0  0  0  0  0  0  0  0  0  0  0
   -2.9880   24.5400  -29.7180 C   0  0  0  0  0  0  0  0  0  0  0  0
   -1.6900   25.0410  -28.8490 S   0  0  0  0  0  0  0  0  0  0  0  0
   -3.3340   23.2520  -29.9280 N   0  0  0  0  0  0  0  0  0  0  0  0
   -2.6230   22.0640  -29.5390 C   0  0  0  0  0  0  0  0  0  0  0  0
   -1.5610   21.5900  -30.3250 C   0  0  0  0  0  0  0  0  0  0  0  0
   -0.8960   20.4130  -29.9740 C   0  0  0  0  0  0  0  0  0  0  0  0
   -1.2800   19.7030  -28.8320 C   0  0  0  0  0  0  0  0  0  0  0  0
   -0.6380   18.5540  -28.5080 F   0  0  0  0  0  0  0  0  0  0  0  0
   -2.3260   20.1800  -28.0330 C   0  0  0  0  0  0  0  0  0  0  0  0
   -2.8210   19.2970  -26.6000 Cl  0  0  0  0  0  0  0  0  0  0  0  0
   -2.9890   21.3620  -28.3810 C   0  0  0  0  0  0  0  0  0  0  0  0
   -7.0538   19.9957  -32.1844 H   0  0  0  0  0  0  0  0  0  0  0  0
   -7.1530   20.9169  -33.7233 H   0  0  0  0  0  0  0  0  0  0  0  0
   -7.4055   19.1384  -33.7233 H   0  0  0  0  0  0  0  0  0  0  0  0
   -3.1380   17.3906  -34.5970 H   0  0  0  0  0  0  0  0  0  0  0  0
   -1.5375   19.2320  -34.1114 H   0  0  0  0  0  0  0  0  0  0  0  0
   -2.3566   21.3900  -33.1826 H   0  0  0  0  0  0  0  0  0  0  0  0
   -4.7790   22.9180  -33.2130 H   0  0  0  0  0  0  0  0  0  0  0  0
   -6.3272   22.4112  -31.1540 H   0  0  0  0  0  0  0  0  0  0  0  0
   -4.9973   21.2875  -30.6942 H   0  0  0  0  0  0  0  0  0  0  0  0
   -3.8630   26.4200  -30.2550 H   0  0  0  0  0  0  0  0  0  0  0  0
   -1.2512   22.1478  -31.2210 H   0  0  0  0  0  0  0  0  0  0  0  0
   -0.0683   20.0436  -30.5973 H   0  0  0  0  0  0  0  0  0  0  0  0
   -3.8008   21.7424  -27.7437 H   0  0  0  0  0  0  0  0  0  0  0  0
  1  2  1  0
  2  3  2  0
  3  4  1  0
  3  5  1  0
  5  6  2  0
  6  7  1  0
  7  8  2  0
  8  9  1  0
  9 10  1  0
 10 11  1  0
 11 12  2  0
 12 13  1  0
 13 14  1  0
 14 15  2  0
 14 16  1  0
 16 17  1  0
 17 18  2  0
 18 19  1  0
 19 20  2  0
 20 21  1  0
 20 22  1  0
 22 23  1  0
 22 24  2  0
  8  2  1  0
 16 11  1  0
 24 17  1  0
  1 25  1  0
  1 26  1  0
  1 27  1  0
  5 28  1  0
  6 29  1  0
  7 30  1  0
  9 31  1  0
 10 32  1  0
 10 33  1  0
 13 34  1  0
 18 35  1  0
 19 36  1  0
 24 37  1  0
M  END
>  <UniqueID>  (4) 
4

>  <SMILES>  (4) 
Cc1c(Cl)cccc1NCc1n[nH]c(=S)n1-c1ccc(F)c(Cl)c1

>  <Energy>  (4) 
80.93557844684655

>  <Genealogy>  (4) 
Cc1c(Cl)cccc1NCc1n[nH]c(=S)n1-c1ccc(F)c(Cl)c1 (3D coordinates assigned)
Cc1c(Cl)cccc1NCc1n[nH]c(=S)n1-c1ccc(F)c(Cl)c1 (optimized conformer: 80.93557844684655 kcal/mol)

>  <smiles>  (4) 
Cc1c(Cl)cccc1NCc1n[nH]c(=S)n1-c1ccc(F)c(Cl)c1

>  <score_type>  (4) 
oracle

>  <origin>  (4) 
adgpu

>  <m_score__min__energy>  (4) 
-9.8200000000000003

>  <m_primary>  (4) 
energy

$$$$
4:0
     RDKit          3D

 32 34  0  0  0  0  0  0  0  0999 V2000
    0.2250   20.2810  -32.7500 H   0  0  0  0  0  0  0  0  0  0  0  0
   -0.6500   20.4940  -33.2800 N   0  0  0  0  0  0  0  0  0  0  0  0
   -1.6090   21.1850  -32.7530 C   0  0  0  0  0  0  0  0  0  0  0  0
   -1.4930   21.6510  -31.4830 N   0  0  0  0  0  0  0  0  0  0  0  0
   -2.4780   22.3810  -30.8950 C   0  0  0  0  0  0  0  0  0  0  0  0
   -2.2510   22.8840  -29.5210 C   0  0  0  0  0  0  0  0  0  0  0  0
   -3.0790   22.4860  -28.4560 C   0  0  0  0  0  0  0  0  0  0  0  0
   -3.9064   21.7845  -28.6383 H   0  0  0  0  0  0  0  0  0  0  0  0
   -2.8550   22.9780  -27.1670 C   0  0  0  0  0  0  0  0  0  0  0  0
   -3.4996   22.6545  -26.3365 H   0  0  0  0  0  0  0  0  0  0  0  0
   -1.8140   23.8800  -26.9310 C   0  0  0  0  0  0  0  0  0  0  0  0
   -1.6351   24.2604  -25.9145 H   0  0  0  0  0  0  0  0  0  0  0  0
   -1.0010   24.2980  -27.9870 C   0  0  0  0  0  0  0  0  0  0  0  0
   -0.1867   25.0142  -27.8026 H   0  0  0  0  0  0  0  0  0  0  0  0
   -1.2200   23.8080  -29.2780 C   0  0  0  0  0  0  0  0  0  0  0  0
   -0.5823   24.1472  -30.1076 H   0  0  0  0  0  0  0  0  0  0  0  0
   -3.6660   22.6430  -31.6170 C   0  0  0  0  0  0  0  0  0  0  0  0
   -4.8330   23.3320  -31.0170 C   0  0  0  0  0  0  0  0  0  0  0  0
   -6.0830   22.6890  -30.9780 C   0  0  0  0  0  0  0  0  0  0  0  0
   -6.1896   21.6761  -31.3936 H   0  0  0  0  0  0  0  0  0  0  0  0
   -7.1900   23.3280  -30.4150 C   0  0  0  0  0  0  0  0  0  0  0  0
   -8.1629   22.8156  -30.3834 H   0  0  0  0  0  0  0  0  0  0  0  0
   -7.0630   24.6170  -29.8920 C   0  0  0  0  0  0  0  0  0  0  0  0
   -7.9358   25.1183  -29.4482 H   0  0  0  0  0  0  0  0  0  0  0  0
   -5.8290   25.2700  -29.9320 C   0  0  0  0  0  0  0  0  0  0  0  0
   -5.7336   26.2869  -29.5236 H   0  0  0  0  0  0  0  0  0  0  0  0
   -4.7130   24.6350  -30.4900 C   0  0  0  0  0  0  0  0  0  0  0  0
   -3.4890   25.2940  -30.5020 O   0  0  0  0  0  0  0  0  0  0  0  0
   -3.7560   22.1570  -32.9290 C   0  0  0  0  0  0  0  0  0  0  0  0
   -4.6607   22.3526  -33.5234 H   0  0  0  0  0  0  0  0  0  0  0  0
   -2.7330   21.4460  -33.4710 N   0  0  0  0  0  0  0  0  0  0  0  0
   -2.8270   21.0880  -34.4490 H   0  0  0  0  0  0  0  0  0  0  0  0
  1  2  1  0
  2  3  2  0
  3  4  1  0
  4  5  2  0
  5  6  1  0
  6  7  2  0
  7  8  1  0
  7  9  1  0
  9 10  1  0
  9 11  2  0
 11 12  1  0
 11 13  1  0
 13 14  1  0
 13 15  2  0
 15 16  1  0
  5 17  1  0
 17 18  1  0
 18 19  2  0
 19 20  1  0
 19 21  1  0
 21 22  1  0
 21 23  2  0
 23 24  1  0
 23 25  1  0
 25 26  1  0
 25 27  2  0
 27 28  1  0
 17 29  2  0
 29 30  1  0
 29 31  1  0
 31 32  1  0
 31  3  1  0
 15  6  1  0
 27 18  1  0
M  CHG  1  28  -1
M  END
>  <UniqueID>  (5) 
5

>  <SMILES>  (5) 
[H]/N=c1\nc(-c2ccccc2)c(-c2ccccc2[O-])c[nH]1

>  <Energy>  (5) 
48.00797383375419

>  <Genealogy>  (5) 
N=c1nc(-c2ccccc2)c(-c2ccccc2[O-])c[nH]1 (protonated)
[H]/N=c1\nc(-c2ccccc2)c(-c2ccccc2[O-])c[nH]1 (cis-trans isomerization)
[H]/N=c1\nc(-c2ccccc2)c(-c2ccccc2[O-])c[nH]1 (3D coordinates assigned)
[H]/N=c1\nc(-c2ccccc2)c(-c2ccccc2[O-])c[nH]1 (optimized conformer: 48.00797383375419 kcal/mol)

>  <smiles>  (5) 
N=c1nc(-c2ccccc2)c(-c2ccccc2O)c[nH]1

>  <score_type>  (5) 
oracle

>  <origin>  (5) 
adgpu

>  <m_score__min__energy>  (5) 
-10.039999999999999

>  <m_primary>  (5) 
energy

$$$$
5:0
     RDKit          3D

 34 36  0  0  0  0  0  0  0  0999 V2000
   -6.2270   24.8340  -29.7470 C   0  0  0  0  0  0  0  0  0  0  0  0
   -5.2790   25.7850  -30.4680 C   0  0  0  0  0  0  0  0  0  0  0  0
   -3.9750   25.2150  -30.5670 O   0  0  0  0  0  0  0  0  0  0  0  0
   -3.7340   23.8560  -30.8040 C   0  0  0  0  0  0  0  0  0  0  0  0
   -4.3890   23.2060  -31.8090 N   0  0  0  0  0  0  0  0  0  0  0  0
   -4.2040   21.8840  -32.0560 C   0  0  0  0  0  0  0  0  0  0  0  0
   -3.3250   21.1440  -31.2670 C   0  0  0  0  0  0  0  0  0  0  0  0
   -2.6360   21.7780  -30.2330 C   0  0  0  0  0  0  0  0  0  0  0  0
   -2.8230   23.1480  -29.9930 C   0  0  0  0  0  0  0  0  0  0  0  0
   -2.0780   23.8110  -28.8960 C   0  0  0  0  0  0  0  0  0  0  0  0
   -1.7100   23.0890  -27.7510 C   0  0  0  0  0  0  0  0  0  0  0  0
   -1.0170   23.7320  -26.7200 C   0  0  0  0  0  0  0  0  0  0  0  0
   -0.6360   23.0230  -25.5680 C   0  0  0  0  0  0  0  0  0  0  0  0
    0.0550   23.6720  -24.5420 C   0  0  0  0  0  0  0  0  0  0  0  0
    0.3690   25.0280  -24.6540 C   0  0  0  0  0  0  0  0  0  0  0  0
   -0.0050   25.7440  -25.7940 C   0  0  0  0  0  0  0  0  0  0  0  0
   -0.7020   25.1050  -26.8360 C   0  0  0  0  0  0  0  0  0  0  0  0
   -1.1000   25.7950  -27.9970 C   0  0  0  0  0  0  0  0  0  0  0  0
   -0.8370   27.0210  -28.1360 O   0  0  0  0  0  0  0  0  0  0  0  0
   -1.7740   25.1390  -28.9840 N   0  0  0  0  0  0  0  0  0  0  0  0
   -6.1087   24.9527  -28.6598 H   0  0  0  0  0  0  0  0  0  0  0  0
   -7.2643   25.0656  -30.0304 H   0  0  0  0  0  0  0  0  0  0  0  0
   -5.9922   23.7974  -30.0304 H   0  0  0  0  0  0  0  0  0  0  0  0
   -5.6649   25.9825  -31.4790 H   0  0  0  0  0  0  0  0  0  0  0  0
   -5.2138   26.7221  -29.8957 H   0  0  0  0  0  0  0  0  0  0  0  0
   -4.7478   21.3968  -32.8788 H   0  0  0  0  0  0  0  0  0  0  0  0
   -3.1761   20.0709  -31.4578 H   0  0  0  0  0  0  0  0  0  0  0  0
   -1.9429   21.2014  -29.6028 H   0  0  0  0  0  0  0  0  0  0  0  0
   -1.9651   22.0225  -27.6643 H   0  0  0  0  0  0  0  0  0  0  0  0
   -0.8823   21.9551  -25.4740 H   0  0  0  0  0  0  0  0  0  0  0  0
    0.3528   23.1129  -23.6427 H   0  0  0  0  0  0  0  0  0  0  0  0
    0.9124   25.5340  -23.8424 H   0  0  0  0  0  0  0  0  0  0  0  0
    0.2465   26.8116  -25.8773 H   0  0  0  0  0  0  0  0  0  0  0  0
   -2.0460   25.6730  -29.8420 H   0  0  0  0  0  0  0  0  0  0  0  0
  1  2  1  0
  2  3  1  0
  3  4  1  0
  4  5  2  0
  5  6  1  0
  6  7  2  0
  7  8  1  0
  8  9  2  0
  9 10  1  0
 10 11  2  0
 11 12  1  0
 12 13  2  0
 13 14  1  0
 14 15  2  0
 15 16  1  0
 16 17  2  0
 17 18  1  0
 18 19  2  0
 18 20  1  0
  9  4  1  0
 20 10  1  0
 17 12  1  0
  1 21  1  0
  1 22  1  0
  1 23  1  0
  2 24  1  0
  2 25  1  0
  6 26  1  0
  7 27  1  0
  8 28  1  0
 11 29  1  0
 13 30  1  0
 14 31  1  0
 15 32  1  0
 16 33  1  0
 20 34  1  0
M  END
>  <UniqueID>  (6) 
6

>  <SMILES>  (6) 
CCOc1ncccc1-c1cc2ccccc2c(=O)[nH]1

>  <Energy>  (6) 
43.95841076821731

>  <Genealogy>  (6) 
CCOc1ncccc1-c1cc2ccccc2c(=O)[nH]1 (3D coordinates assigned)
CCOc1ncccc1-c1cc2ccccc2c(=O)[nH]1 (optimized conformer: 43.95841076821731 kcal/mol)

>  <smiles>  (6) 
CCOc1ncccc1-c1cc2ccccc2c(=O)[nH]1

>  <score_type>  (6) 
oracle

>  <origin>  (6) 
adgpu

>  <m_score__min__energy>  (6) 
-7.7199999999999998

>  <m_primary>  (6) 
energy

$$$$
6:0
     RDKit          3D

 35 36  0  0  0  0  0  0  0  0999 V2000
   -2.9200   21.1490  -30.6560 H   0  0  0  0  0  0  0  0  0  0  0  0
   -2.0740   21.6670  -30.6380 O   0  0  0  0  0  0  0  0  0  0  0  0
   -1.4680   21.4880  -31.8900 C   0  0  0  0  0  0  0  0  0  0  0  0
   -0.9668   20.5090  -31.9104 H   0  0  0  0  0  0  0  0  0  0  0  0
   -0.7393   22.2972  -32.0456 H   0  0  0  0  0  0  0  0  0  0  0  0
   -2.5070   21.5430  -33.0160 C   0  0  0  0  0  0  0  0  0  0  0  0
   -1.9801   21.6152  -33.9789 H   0  0  0  0  0  0  0  0  0  0  0  0
   -3.1465   22.4201  -32.8380 H   0  0  0  0  0  0  0  0  0  0  0  0
   -3.4120   20.3040  -33.0420 C   0  0  0  0  0  0  0  0  0  0  0  0
   -2.7890   19.4034  -32.9382 H   0  0  0  0  0  0  0  0  0  0  0  0
   -3.9572   20.2932  -33.9973 H   0  0  0  0  0  0  0  0  0  0  0  0
   -4.3670   20.3340  -31.9790 O   0  0  0  0  0  0  0  0  0  0  0  0
   -5.3220   21.3410  -31.7660 C   0  0  0  0  0  0  0  0  0  0  0  0
   -6.7040   21.1270  -31.9290 C   0  0  0  0  0  0  0  0  0  0  0  0
   -7.0726   20.1370  -32.2355 H   0  0  0  0  0  0  0  0  0  0  0  0
   -7.6090   22.1670  -31.7030 C   0  0  0  0  0  0  0  0  0  0  0  0
   -9.3280   21.8940  -31.9110 Cl  0  0  0  0  0  0  0  0  0  0  0  0
   -7.1470   23.4270  -31.3120 C   0  0  0  0  0  0  0  0  0  0  0  0
   -7.8643   24.2427  -31.1386 H   0  0  0  0  0  0  0  0  0  0  0  0
   -5.7710   23.6580  -31.1390 C   0  0  0  0  0  0  0  0  0  0  0  0
   -5.2730   24.9930  -30.7230 C   0  0  0  0  0  0  0  0  0  0  0  0
   -6.0930   25.9270  -30.5210 O   0  0  0  0  0  0  0  0  0  0  0  0
   -3.8800   25.2340  -30.4670 N   0  0  0  0  0  0  0  0  0  0  0  0
   -3.1930   24.8480  -29.4280 C   0  0  0  0  0  0  0  0  0  0  0  0
   -1.8950   25.2460  -29.3260 N   0  0  0  0  0  0  0  0  0  0  0  0
   -1.1040   24.8840  -28.2810 C   0  0  0  0  0  0  0  0  0  0  0  0
   -0.0611   25.2309  -28.2351 H   0  0  0  0  0  0  0  0  0  0  0  0
   -1.6140   24.0730  -27.2670 C   0  0  0  0  0  0  0  0  0  0  0  0
   -0.9814   23.7838  -26.4148 H   0  0  0  0  0  0  0  0  0  0  0  0
   -2.9350   23.6330  -27.3460 C   0  0  0  0  0  0  0  0  0  0  0  0
   -3.3486   22.9886  -26.5563 H   0  0  0  0  0  0  0  0  0  0  0  0
   -3.7320   24.0110  -28.4280 C   0  0  0  0  0  0  0  0  0  0  0  0
   -4.7717   23.6592  -28.5004 H   0  0  0  0  0  0  0  0  0  0  0  0
   -4.8690   22.6080  -31.3800 C   0  0  0  0  0  0  0  0  0  0  0  0
   -3.7895   22.7844  -31.2635 H   0  0  0  0  0  0  0  0  0  0  0  0
  1  2  1  0
  2  3  1  0
  3  4  1  0
  3  5  1  0
  3  6  1  0
  6  7  1  0
  6  8  1  0
  6  9  1  0
  9 10  1  0
  9 11  1  0
  9 12  1  0
 12 13  1  0
 13 14  2  0
 14 15  1  0
 14 16  1  0
 16 17  1  0
 16 18  2  0
 18 19  1  0
 18 20  1  0
 20 21  1  0
 21 22  2  0
 21 23  1  0
 23 24  2  0
 24 25  1  0
 25 26  1  0
 26 27  1  0
 26 28  2  0
 28 29  1  0
 28 30  1  0
 30 31  1  0
 30 32  2  0
 32 33  1  0
 20 34  2  0
 34 35  1  0
 34 13  1  0
 32 24  1  0
M  CHG  1  25  -1
M  END
>  <UniqueID>  (7) 
7

>  <SMILES>  (7) 
O=C(/N=c1\cccc[n-]1)c1cc(Cl)cc(OCCCO)c1

>  <Energy>  (7) 
43.0457839763164

>  <Genealogy>  (7) 
O=C(N=c1cccc[n-]1)c1cc(Cl)cc(OCCCO)c1 (protonated)
O=C(/N=c1\cccc[n-]1)c1cc(Cl)cc(OCCCO)c1 (cis-trans isomerization)
O=C(/N=c1\cccc[n-]1)c1cc(Cl)cc(OCCCO)c1 (3D coordinates assigned)
O=C(/N=c1\cccc[n-]1)c1cc(Cl)cc(OCCCO)c1 (optimized conformer: 43.0457839763164 kcal/mol)

>  <smiles>  (7) 
O=C(N=c1cccc[nH]1)c1cc(Cl)cc(OCCCO)c1

>  <score_type>  (7) 
oracle

>  <origin>  (7) 
adgpu

>  <m_score__min__energy>  (7) 
-9.3699999999999992

>  <m_primary>  (7) 
energy

$$$$
7:0
     RDKit          3D

 59 62  0  0  0  0  0  0  0  0999 V2000
   -0.1640   18.7160  -27.8010 C   0  0  0  0  0  0  0  0  0  0  0  0
   -0.2090   18.9700  -29.2460 N   0  0  0  0  0  0  0  0  0  0  0  0
    0.2680   17.9420  -30.1720 C   0  0  0  0  0  0  0  0  0  0  0  0
   -0.4590   20.3020  -29.7420 C   0  0  0  0  0  0  0  0  0  0  0  0
    0.2100   20.7330  -30.7200 O   0  0  0  0  0  0  0  0  0  0  0  0
   -1.4770   21.1840  -29.1300 C   0  0  0  0  0  0  0  0  0  0  0  0
   -2.4490   20.6690  -28.2560 C   0  0  0  0  0  0  0  0  0  0  0  0
   -3.4300   21.5080  -27.7180 C   0  0  0  0  0  0  0  0  0  0  0  0
   -3.4590   22.8670  -28.0550 C   0  0  0  0  0  0  0  0  0  0  0  0
   -2.5030   23.4030  -28.9410 C   0  0  0  0  0  0  0  0  0  0  0  0
   -2.5710   24.8270  -29.3590 C   0  0  0  0  0  0  0  0  0  0  0  0
   -1.7630   25.6650  -28.8630 O   0  0  0  0  0  0  0  0  0  0  0  0
   -3.5650   25.2860  -30.2840 N   0  0  0  0  0  0  0  0  0  0  0  0
   -4.8340   24.6370  -30.4300 C   0  0  0  0  0  0  0  0  0  0  0  0
   -5.9680   25.2050  -29.8330 C   0  0  0  0  0  0  0  0  0  0  0  0
   -7.1940   24.5430  -29.8830 C   0  0  0  0  0  0  0  0  0  0  0  0
   -7.3030   23.3210  -30.5530 C   0  0  0  0  0  0  0  0  0  0  0  0
   -6.1870   22.7650  -31.1820 C   0  0  0  0  0  0  0  0  0  0  0  0
   -4.9510   23.4210  -31.1400 C   0  0  0  0  0  0  0  0  0  0  0  0
   -3.8470   22.8770  -31.8740 N   0  0  0  0  0  0  0  0  0  0  0  0
   -3.5610   21.4670  -31.8620 C   0  0  0  0  0  0  0  0  0  0  0  0
   -4.1850   20.7120  -31.0630 O   0  0  0  0  0  0  0  0  0  0  0  0
   -2.5420   20.8770  -32.7640 C   0  0  0  0  0  0  0  0  0  0  0  0
   -1.3410   21.5510  -33.0420 C   0  0  0  0  0  0  0  0  0  0  0  0
   -0.3900   20.9800  -33.8880 C   0  0  0  0  0  0  0  0  0  0  0  0
   -0.6150   19.7300  -34.4780 C   0  0  0  0  0  0  0  0  0  0  0  0
    0.4050   19.1950  -35.3370 N   0  0  0  0  0  0  0  0  0  0  0  0
    1.1310   19.8590  -36.3830 C   0  0  0  0  0  0  0  0  0  0  0  0
    1.3520   19.2930  -37.4880 O   0  0  0  0  0  0  0  0  0  0  0  0
    1.6840   21.1940  -36.1260 C   0  0  0  0  0  0  0  0  0  0  0  0
    2.8770   21.4730  -35.4800 C   0  0  0  0  0  0  0  0  0  0  0  0
    2.9460   22.8520  -35.4190 C   0  0  0  0  0  0  0  0  0  0  0  0
    1.8090   23.3230  -36.0470 C   0  0  0  0  0  0  0  0  0  0  0  0
    1.0770   22.3120  -36.4590 O   0  0  0  0  0  0  0  0  0  0  0  0
   -1.8360   19.0710  -34.2400 C   0  0  0  0  0  0  0  0  0  0  0  0
   -2.7840   19.6380  -33.3860 C   0  0  0  0  0  0  0  0  0  0  0  0
   -1.5280   22.5440  -29.4860 C   0  0  0  0  0  0  0  0  0  0  0  0
   -0.3309   19.6578  -27.2578 H   0  0  0  0  0  0  0  0  0  0  0  0
   -0.9481   17.9932  -27.5312 H   0  0  0  0  0  0  0  0  0  0  0  0
    0.8207   18.3066  -27.5312 H   0  0  0  0  0  0  0  0  0  0  0  0
    0.6637   17.0892  -29.6009 H   0  0  0  0  0  0  0  0  0  0  0  0
   -0.5653   17.6040  -30.8056 H   0  0  0  0  0  0  0  0  0  0  0  0
    1.0641   18.3601  -30.8056 H   0  0  0  0  0  0  0  0  0  0  0  0
   -2.4383   19.6008  -27.9936 H   0  0  0  0  0  0  0  0  0  0  0  0
   -4.1820   21.0988  -27.0273 H   0  0  0  0  0  0  0  0  0  0  0  0
   -4.2328   23.5202  -27.6255 H   0  0  0  0  0  0  0  0  0  0  0  0
   -5.8903   26.1766  -29.3232 H   0  0  0  0  0  0  0  0  0  0  0  0
   -8.0763   24.9827  -29.3948 H   0  0  0  0  0  0  0  0  0  0  0  0
   -8.2694   22.7965  -30.5848 H   0  0  0  0  0  0  0  0  0  0  0  0
   -6.2797   21.8063  -31.7134 H   0  0  0  0  0  0  0  0  0  0  0  0
   -3.1010   23.5400  -32.1880 H   0  0  0  0  0  0  0  0  0  0  0  0
   -1.1493   22.5352  -32.5897 H   0  0  0  0  0  0  0  0  0  0  0  0
    0.5472   21.5177  -34.0940 H   0  0  0  0  0  0  0  0  0  0  0  0
    3.6129   20.7507  -35.0970 H   0  0  0  0  0  0  0  0  0  0  0  0
    3.7455   23.4537  -34.9622 H   0  0  0  0  0  0  0  0  0  0  0  0
    1.5546   24.3846  -36.1819 H   0  0  0  0  0  0  0  0  0  0  0  0
   -2.0437   18.1072  -34.7279 H   0  0  0  0  0  0  0  0  0  0  0  0
   -3.7306   19.1104  -33.1973 H   0  0  0  0  0  0  0  0  0  0  0  0
   -0.7945   22.9435  -30.2018 H   0  0  0  0  0  0  0  0  0  0  0  0
  1  2  1  0
  2  3  1  0
  2  4  1  0
  4  5  2  0
  4  6  1  0
  6  7  2  0
  7  8  1  0
  8  9  2  0
  9 10  1  0
 10 11  1  0
 11 12  2  0
 11 13  1  0
 13 14  1  0
 14 15  2  0
 15 16  1  0
 16 17  2  0
 17 18  1  0
 18 19  2  0
 19 20  1  0
 20 21  1  0
 21 22  2  0
 21 23  1  0
 23 24  2  0
 24 25  1  0
 25 26  2  0
 26 27  1  0
 27 28  1  0
 28 29  2  0
 28 30  1  0
 30 31  2  0
 31 32  1  0
 32 33  2  0
 33 34  1  0
 26 35  1  0
 35 36  2  0
 10 37  2  0
 37  6  1  0
 19 14  1  0
 36 23  1  0
 34 30  1  0
  1 38  1  0
  1 39  1  0
  1 40  1  0
  3 41  1  0
  3 42  1  0
  3 43  1  0
  7 44  1  0
  8 45  1  0
  9 46  1  0
 15 47  1  0
 16 48  1  0
 17 49  1  0
 18 50  1  0
 20 51  1  0
 24 52  1  0
 25 53  1  0
 31 54  1  0
 32 55  1  0
 33 56  1  0
 35 57  1  0
 36 58  1  0
 37 59  1  0
M  CHG  2  13  -1  27  -1
M  END
>  <UniqueID>  (8) 
8

>  <SMILES>  (8) 
CN(C)C(=O)c1cccc(C(=O)[N-]c2ccccc2NC(=O)c2ccc([N-]C(=O)c3ccco3)cc2)c1

>  <Energy>  (8) 
115.03699657583546

>  <Genealogy>  (8) 
CN(C)C(=O)c1cccc(C(=O)[N-]c2ccccc2NC(=O)c2ccc([N-]C(=O)c3ccco3)cc2)c1 (protonated)
CN(C)C(=O)c1cccc(C(=O)[N-]c2ccccc2NC(=O)c2ccc([N-]C(=O)c3ccco3)cc2)c1 (3D coordinates assigned)
CN(C)C(=O)c1cccc(C(=O)[N-]c2ccccc2NC(=O)c2ccc([N-]C(=O)c3ccco3)cc2)c1 (optimized conformer: 115.03699657583546 kcal/mol)

>  <smiles>  (8) 
CN(C)C(=O)c1cccc(C(=O)Nc2ccccc2NC(=O)c2ccc(NC(=O)c3ccco3)cc2)c1

>  <score_type>  (8) 
oracle

>  <origin>  (8) 
adgpu

>  <m_score__min__energy>  (8) 
-11.18

>  <m_primary>  (8) 
energy

$$$$
8:0
     RDKit          3D

 36 38  0  0  0  0  0  0  0  0999 V2000
    0.4020   17.7180  -27.5050 C   0  0  0  0  0  0  0  0  0  0  0  0
   -0.8400   18.5340  -27.4000 C   0  0  0  0  0  0  0  0  0  0  0  0
   -1.7200   18.4220  -26.3840 N   0  0  0  0  0  0  0  0  0  0  0  0
   -2.6810   19.3100  -26.7030 C   0  0  0  0  0  0  0  0  0  0  0  0
   -2.3510   19.9200  -27.8980 C   0  0  0  0  0  0  0  0  0  0  0  0
   -3.1090   20.9560  -28.6330 C   0  0  0  0  0  0  0  0  0  0  0  0
   -3.6860   22.0260  -27.9260 C   0  0  0  0  0  0  0  0  0  0  0  0
   -4.4100   23.0140  -28.5990 C   0  0  0  0  0  0  0  0  0  0  0  0
   -4.5700   22.9470  -29.9890 C   0  0  0  0  0  0  0  0  0  0  0  0
   -5.4940   24.1800  -30.8420 S   0  0  0  0  0  0  0  0  0  0  0  0
   -6.5930   24.7200  -29.9700 O   0  0  0  0  0  0  0  0  0  0  0  0
   -4.5690   25.3030  -31.2160 O   0  0  0  0  0  0  0  0  0  0  0  0
   -6.1910   23.5090  -32.2830 N   0  0  0  0  0  0  0  0  0  0  0  0
   -7.0740   22.3720  -32.2940 C   0  0  0  0  0  0  0  0  0  0  0  0
   -8.4360   22.4820  -31.9500 C   0  0  0  0  0  0  0  0  0  0  0  0
   -9.2610   21.3550  -31.9660 C   0  0  0  0  0  0  0  0  0  0  0  0
   -8.7450   20.1090  -32.3280 C   0  0  0  0  0  0  0  0  0  0  0  0
   -9.5570   19.0220  -32.3400 F   0  0  0  0  0  0  0  0  0  0  0  0
   -7.3960   19.9880  -32.6800 C   0  0  0  0  0  0  0  0  0  0  0  0
   -6.7360   18.4280  -33.1390 Cl  0  0  0  0  0  0  0  0  0  0  0  0
   -6.5670   21.1160  -32.6640 C   0  0  0  0  0  0  0  0  0  0  0  0
   -3.9920   21.8890  -30.7000 C   0  0  0  0  0  0  0  0  0  0  0  0
   -3.2700   20.8990  -30.0300 C   0  0  0  0  0  0  0  0  0  0  0  0
   -1.2100   19.4150  -28.3010 O   0  0  0  0  0  0  0  0  0  0  0  0
    0.7688   17.4770  -26.4963 H   0  0  0  0  0  0  0  0  0  0  0  0
    0.1840   16.7866  -28.0481 H   0  0  0  0  0  0  0  0  0  0  0  0
    1.1703   18.2879  -28.0481 H   0  0  0  0  0  0  0  0  0  0  0  0
   -3.5830   19.5163  -26.1082 H   0  0  0  0  0  0  0  0  0  0  0  0
   -3.5665   22.0858  -26.8341 H   0  0  0  0  0  0  0  0  0  0  0  0
   -4.8556   23.8469  -28.0354 H   0  0  0  0  0  0  0  0  0  0  0  0
   -5.8830   23.9200  -33.1920 H   0  0  0  0  0  0  0  0  0  0  0  0
   -8.8517   23.4604  -31.6674 H   0  0  0  0  0  0  0  0  0  0  0  0
  -10.3222   21.4495  -31.6921 H   0  0  0  0  0  0  0  0  0  0  0  0
   -5.5078   21.0173  -32.9441 H   0  0  0  0  0  0  0  0  0  0  0  0
   -4.1071   21.8370  -31.7927 H   0  0  0  0  0  0  0  0  0  0  0  0
   -2.8242   20.0691  -30.5979 H   0  0  0  0  0  0  0  0  0  0  0  0
  1  2  1  0
  2  3  2  0
  3  4  1  0
  4  5  2  0
  5  6  1  0
  6  7  2  0
  7  8  1  0
  8  9  2  0
  9 10  1  0
 10 11  2  0
 10 12  2  0
 10 13  1  0
 13 14  1  0
 14 15  2  0
 15 16  1  0
 16 17  2  0
 17 18  1  0
 17 19  1  0
 19 20  1  0
 19 21  2  0
  9 22  1  0
 22 23  2  0
  5 24  1  0
 24  2  1  0
 23  6  1  0
 21 14  1  0
  1 25  1  0
  1 26  1  0
  1 27  1  0
  4 28  1  0
  7 29  1  0
  8 30  1  0
 13 31  1  0
 15 32  1  0
 16 33  1  0
 21 34  1  0
 22 35  1  0
 23 36  1  0
M  END
>  <UniqueID>  (9) 
9

>  <SMILES>  (9) 
Cc1ncc(-c2ccc(S(=O)(=O)Nc3ccc(F)c(Cl)c3)cc2)o1

>  <Energy>  (9) 
70.2960949182504

>  <Genealogy>  (9) 
Cc1ncc(-c2ccc(S(=O)(=O)Nc3ccc(F)c(Cl)c3)cc2)o1 (3D coordinates assigned)
Cc1ncc(-c2ccc(S(=O)(=O)Nc3ccc(F)c(Cl)c3)cc2)o1 (optimized conformer: 70.2960949182504 kcal/mol)

>  <smiles>  (9) 
Cc1ncc(-c2ccc(S(=O)(=O)Nc3ccc(F)c(Cl)c3)cc2)o1

>  <score_type>  (9) 
oracle

>  <origin>  (9) 
adgpu

>  <m_score__min__energy>  (9) 
-8.9299999999999997

>  <m_primary>  (9) 
energy

$$$$
9:0
     RDKit          3D

 40 42  0  0  0  0  0  0  0  0999 V2000
   -4.5980   25.6750  -30.8600 O   0  0  0  0  0  0  0  0  0  0  0  0
   -4.0770   24.7930  -30.1250 C   0  0  0  0  0  0  0  0  0  0  0  0
   -4.8820   23.6030  -29.7050 C   0  0  0  0  0  0  0  0  0  0  0  0
   -5.0310   22.6330  -30.8570 C   0  0  0  0  0  0  0  0  0  0  0  0
   -3.8740   22.2680  -31.5700 C   0  0  0  0  0  0  0  0  0  0  0  0
   -3.9370   21.3550  -32.6200 C   0  0  0  0  0  0  0  0  0  0  0  0
   -5.1530   20.7770  -32.9780 C   0  0  0  0  0  0  0  0  0  0  0  0
   -6.3230   21.1060  -32.2820 C   0  0  0  0  0  0  0  0  0  0  0  0
   -7.5400   20.5080  -32.6420 C   0  0  0  0  0  0  0  0  0  0  0  0
   -8.7110   20.8220  -31.9510 C   0  0  0  0  0  0  0  0  0  0  0  0
   -8.6790   21.7360  -30.8990 C   0  0  0  0  0  0  0  0  0  0  0  0
   -7.4760   22.3440  -30.5300 C   0  0  0  0  0  0  0  0  0  0  0  0
   -6.2770   22.0410  -31.2110 C   0  0  0  0  0  0  0  0  0  0  0  0
   -2.7160   24.9150  -29.7010 N   0  0  0  0  0  0  0  0  0  0  0  0
   -2.1640   24.2060  -28.5520 C   0  0  0  0  0  0  0  0  0  0  0  0
   -1.4560   22.9290  -29.0110 C   0  0  0  0  0  0  0  0  0  0  0  0
   -1.7050   21.8080  -28.0390 C   0  0  0  0  0  0  0  0  0  0  0  0
   -2.5910   20.7680  -28.3680 C   0  0  0  0  0  0  0  0  0  0  0  0
   -2.7990   19.7110  -27.4760 C   0  0  0  0  0  0  0  0  0  0  0  0
   -2.1170   19.6790  -26.2570 C   0  0  0  0  0  0  0  0  0  0  0  0
   -1.2230   20.7030  -25.9280 C   0  0  0  0  0  0  0  0  0  0  0  0
   -1.0140   21.7620  -26.8170 C   0  0  0  0  0  0  0  0  0  0  0  0
   -4.3742   23.0984  -28.8698 H   0  0  0  0  0  0  0  0  0  0  0  0
   -5.8809   23.9407  -29.3917 H   0  0  0  0  0  0  0  0  0  0  0  0
   -2.9054   22.7103  -31.2940 H   0  0  0  0  0  0  0  0  0  0  0  0
   -3.0219   21.0890  -33.1694 H   0  0  0  0  0  0  0  0  0  0  0  0
   -5.1944   20.0594  -33.8106 H   0  0  0  0  0  0  0  0  0  0  0  0
   -7.5713   19.7880  -33.4731 H   0  0  0  0  0  0  0  0  0  0  0  0
   -9.6612   20.3473  -32.2370 H   0  0  0  0  0  0  0  0  0  0  0  0
   -9.6046   21.9797  -30.3570 H   0  0  0  0  0  0  0  0  0  0  0  0
   -7.4632   23.0661  -29.7003 H   0  0  0  0  0  0  0  0  0  0  0  0
   -1.4425   24.8563  -28.0358 H   0  0  0  0  0  0  0  0  0  0  0  0
   -2.9826   23.9373  -27.8681 H   0  0  0  0  0  0  0  0  0  0  0  0
   -1.8372   22.6402  -30.0016 H   0  0  0  0  0  0  0  0  0  0  0  0
   -0.3741   23.1214  -29.0614 H   0  0  0  0  0  0  0  0  0  0  0  0
   -3.1229   20.7853  -29.3307 H   0  0  0  0  0  0  0  0  0  0  0  0
   -3.5003   18.9040  -27.7345 H   0  0  0  0  0  0  0  0  0  0  0  0
   -2.2833   18.8480  -25.5557 H   0  0  0  0  0  0  0  0  0  0  0  0
   -0.6840   20.6753  -24.9695 H   0  0  0  0  0  0  0  0  0  0  0  0
   -0.3053   22.5625  -26.5582 H   0  0  0  0  0  0  0  0  0  0  0  0
  1  2  2  0
  2  3  1  0
  3  4  1  0
  4  5  2  0
  5  6  1  0
  6  7  2  0
  7  8  1  0
  8  9  2  0
  9 10  1  0
 10 11  2  0
 11 12  1  0
 12 13  2  0
  2 14  1  0
 14 15  1  0
 15 16  1  0
 16 17  1  0
 17 18  2  0
 18 19  1  0
 19 20  2  0
 20 21  1  0
 21 22  2  0
 13  4  1  0
 22 17  1  0
 13  8  1  0
  3 23  1  0
  3 24  1  0
  5 25  1  0
  6 26  1  0
  7 27  1  0
  9 28  1  0
 10 29  1  0
 11 30  1  0
 12 31  1  0
 15 32  1  0
 15 33  1  0
 16 34  1  0
 16 35  1  0
 18 36  1  0
 19 37  1  0
 20 38  1  0
 21 39  1  0
 22 40  1  0
M  CHG  1  14  -1
M  END
>  <UniqueID>  (10) 
10

>  <SMILES>  (10) 
O=C(Cc1cccc2ccccc12)[N-]CCc1ccccc1

>  <Energy>  (10) 
41.41471814911979

>  <Genealogy>  (10) 
O=C(Cc1cccc2ccccc12)[N-]CCc1ccccc1 (protonated)
O=C(Cc1cccc2ccccc12)[N-]CCc1ccccc1 (3D coordinates assigned)
O=C(Cc1cccc2ccccc12)[N-]CCc1ccccc1 (optimized conformer: 41.41471814911979 kcal/mol)

>  <smiles>  (10) 
O=C(Cc1cccc2ccccc12)NCCc1ccccc1

>  <score_type>  (10) 
oracle

>  <origin>  (10) 
adgpu

>  <m_score__min__energy>  (10) 
-10.369999999999999

>  <m_primary>  (10) 
energy

$$$$
10:0
     RDKit          3D

 45 47  0  0  0  0  0  0  0  0999 V2000
   -0.9950   22.9540  -29.7400 C   0  0  0  0  0  0  0  0  0  0  0  0
   -1.3250   24.3250  -29.5480 O   0  0  0  0  0  0  0  0  0  0  0  0
   -1.5330   24.9260  -28.2960 C   0  0  0  0  0  0  0  0  0  0  0  0
   -0.5620   25.7550  -27.6980 C   0  0  0  0  0  0  0  0  0  0  0  0
   -0.8010   26.3370  -26.4520 C   0  0  0  0  0  0  0  0  0  0  0  0
   -2.0090   26.1090  -25.7930 C   0  0  0  0  0  0  0  0  0  0  0  0
   -2.9790   25.2900  -26.3740 C   0  0  0  0  0  0  0  0  0  0  0  0
   -2.7450   24.6810  -27.6200 C   0  0  0  0  0  0  0  0  0  0  0  0
   -3.7510   23.8610  -28.2380 N   0  0  0  0  0  0  0  0  0  0  0  0
   -4.2830   24.1090  -29.5540 C   0  0  0  0  0  0  0  0  0  0  0  0
   -3.9010   25.1200  -30.2050 O   0  0  0  0  0  0  0  0  0  0  0  0
   -5.2840   23.2000  -30.1620 C   0  0  0  0  0  0  0  0  0  0  0  0
   -6.6470   23.5450  -30.1340 C   0  0  0  0  0  0  0  0  0  0  0  0
   -7.6060   22.6970  -30.6970 C   0  0  0  0  0  0  0  0  0  0  0  0
   -7.2190   21.4910  -31.2910 C   0  0  0  0  0  0  0  0  0  0  0  0
   -8.4350   20.4160  -31.9740 S   0  0  0  0  0  0  0  0  0  0  0  0
   -9.1040   19.6590  -30.8620 O   0  0  0  0  0  0  0  0  0  0  0  0
   -9.4780   21.2230  -32.6990 O   0  0  0  0  0  0  0  0  0  0  0  0
   -7.6620   19.2910  -33.0630 N   0  0  0  0  0  0  0  0  0  0  0  0
   -6.9720   18.2300  -32.3290 C   0  0  0  0  0  0  0  0  0  0  0  0
   -5.8400   17.7520  -33.2230 C   0  0  0  0  0  0  0  0  0  0  0  0
   -5.6110   18.8780  -34.2210 C   0  0  0  0  0  0  0  0  0  0  0  0
   -6.6280   19.9500  -33.8600 C   0  0  0  0  0  0  0  0  0  0  0  0
   -5.8660   21.1290  -31.3030 C   0  0  0  0  0  0  0  0  0  0  0  0
   -4.9050   21.9760  -30.7420 C   0  0  0  0  0  0  0  0  0  0  0  0
   -0.8772   22.4647  -28.7619 H   0  0  0  0  0  0  0  0  0  0  0  0
   -1.7996   22.4586  -30.3033 H   0  0  0  0  0  0  0  0  0  0  0  0
   -0.0531   22.8790  -30.3033 H   0  0  0  0  0  0  0  0  0  0  0  0
    0.3895   25.9443  -28.2164 H   0  0  0  0  0  0  0  0  0  0  0  0
   -0.0352   26.9767  -25.9889 H   0  0  0  0  0  0  0  0  0  0  0  0
   -2.1976   26.5749  -24.8146 H   0  0  0  0  0  0  0  0  0  0  0  0
   -3.9330   25.1198  -25.8536 H   0  0  0  0  0  0  0  0  0  0  0  0
   -4.1330   23.0690  -27.6750 H   0  0  0  0  0  0  0  0  0  0  0  0
   -6.9613   24.4893  -29.6656 H   0  0  0  0  0  0  0  0  0  0  0  0
   -8.6689   22.9794  -30.6727 H   0  0  0  0  0  0  0  0  0  0  0  0
   -6.5696   18.6221  -31.3833 H   0  0  0  0  0  0  0  0  0  0  0  0
   -7.6582   17.4066  -32.0818 H   0  0  0  0  0  0  0  0  0  0  0  0
   -4.9310   17.5722  -32.6302 H   0  0  0  0  0  0  0  0  0  0  0  0
   -6.0866   16.8045  -33.7244 H   0  0  0  0  0  0  0  0  0  0  0  0
   -4.5879   19.2715  -34.1293 H   0  0  0  0  0  0  0  0  0  0  0  0
   -5.7291   18.5349  -35.2594 H   0  0  0  0  0  0  0  0  0  0  0  0
   -6.1476   20.7475  -33.2743 H   0  0  0  0  0  0  0  0  0  0  0  0
   -7.0556   20.4120  -34.7620 H   0  0  0  0  0  0  0  0  0  0  0  0
   -5.5581   20.1748  -31.7554 H   0  0  0  0  0  0  0  0  0  0  0  0
   -3.8449   21.6828  -30.7544 H   0  0  0  0  0  0  0  0  0  0  0  0
  1  2  1  0
  2  3  1  0
  3  4  2  0
  4  5  1  0
  5  6  2  0
  6  7  1  0
  7  8  2  0
  8  9  1  0
  9 10  1  0
 10 11  2  0
 10 12  1  0
 12 13  2  0
 13 14  1  0
 14 15  2  0
 15 16  1  0
 16 17  2  0
 16 18  2  0
 16 19  1  0
 19 20  1  0
 20 21  1  0
 21 22  1  0
 22 23  1  0
 15 24  1  0
 24 25  2  0
  8  3  1  0
 25 12  1  0
 23 19  1  0
  1 26  1  0
  1 27  1  0
  1 28  1  0
  4 29  1  0
  5 30  1  0
  6 31  1  0
  7 32  1  0
  9 33  1  0
 13 34  1  0
 14 35  1  0
 20 36  1  0
 20 37  1  0
 21 38  1  0
 21 39  1  0
 22 40  1  0
 22 41  1  0
 23 42  1  0
 23 43  1  0
 24 44  1  0
 25 45  1  0
M  END
>  <UniqueID>  (11) 
11

>  <SMILES>  (11) 
COc1ccccc1NC(=O)c1ccc(S(=O)(=O)N2CCCC2)cc1

>  <Energy>  (11) 
53.48649764132476

>  <Genealogy>  (11) 
COc1ccccc1NC(=O)c1ccc(S(=O)(=O)N2CCCC2)cc1 (3D coordinates assigned)
COc1ccccc1NC(=O)c1ccc(S(=O)(=O)N2CCCC2)cc1 (nonaromatic ring conformer: 53.48649764132476 kcal/mol)

>  <smiles>  (11) 
COc1ccccc1NC(=O)c1ccc(S(=O)(=O)N2CCCC2)cc1

>  <score_type>  (11) 
oracle

>  <origin>  (11) 
adgpu

>  <m_score__min__energy>  (11) 
-9.0099999999999998

>  <m_primary>  (11) 
energy

$$$$
11:0
     RDKit          3D

 44 47  0  0  0  0  0  0  0  0999 V2000
   -6.3010   19.0650  -33.3470 C   0  0  0  0  0  0  0  0  0  0  0  0
   -4.9230   19.6040  -33.1360 C   0  0  0  0  0  0  0  0  0  0  0  0
   -3.8270   19.0240  -33.7800 C   0  0  0  0  0  0  0  0  0  0  0  0
   -2.5540   19.5520  -33.5410 C   0  0  0  0  0  0  0  0  0  0  0  0
   -1.3510   18.9610  -34.2040 C   0  0  0  0  0  0  0  0  0  0  0  0
   -2.4120   20.6010  -32.6880 N   0  0  0  0  0  0  0  0  0  0  0  0
   -3.4840   21.1480  -32.0560 C   0  0  0  0  0  0  0  0  0  0  0  0
   -3.3120   22.2720  -31.1770 N   0  0  0  0  0  0  0  0  0  0  0  0
   -4.2910   23.0610  -30.6690 C   0  0  0  0  0  0  0  0  0  0  0  0
   -5.7280   22.9860  -31.0200 C   0  0  0  0  0  0  0  0  0  0  0  0
   -6.1810   23.5060  -32.2440 C   0  0  0  0  0  0  0  0  0  0  0  0
   -7.5360   23.4310  -32.5840 C   0  0  0  0  0  0  0  0  0  0  0  0
   -8.4450   22.8290  -31.7120 C   0  0  0  0  0  0  0  0  0  0  0  0
   -8.0000   22.2920  -30.5010 C   0  0  0  0  0  0  0  0  0  0  0  0
   -6.6460   22.3630  -30.1570 C   0  0  0  0  0  0  0  0  0  0  0  0
   -3.7520   23.9930  -29.8020 C   0  0  0  0  0  0  0  0  0  0  0  0
   -2.3870   23.7770  -29.7810 C   0  0  0  0  0  0  0  0  0  0  0  0
   -1.4380   24.5530  -28.9650 C   0  0  0  0  0  0  0  0  0  0  0  0
   -0.1930   24.1590  -28.6330 N   0  0  0  0  0  0  0  0  0  0  0  0
    0.3270   25.1320  -27.9020 N   0  0  0  0  0  0  0  0  0  0  0  0
   -0.6220   26.0820  -27.8130 C   0  0  0  0  0  0  0  0  0  0  0  0
   -0.4460   27.3740  -27.0920 C   0  0  0  0  0  0  0  0  0  0  0  0
   -1.7050   25.7360  -28.4650 O   0  0  0  0  0  0  0  0  0  0  0  0
   -2.1490   22.7060  -30.6360 C   0  0  0  0  0  0  0  0  0  0  0  0
   -0.8810   22.0710  -30.8520 N   0  0  0  0  0  0  0  0  0  0  0  0
   -4.7270   20.6440  -32.2840 N   0  0  0  0  0  0  0  0  0  0  0  0
   -6.7754   18.8794  -32.3721 H   0  0  0  0  0  0  0  0  0  0  0  0
   -6.8981   19.7959  -33.9121 H   0  0  0  0  0  0  0  0  0  0  0  0
   -6.2437   18.1230  -33.9121 H   0  0  0  0  0  0  0  0  0  0  0  0
   -3.9624   18.1704  -34.4604 H   0  0  0  0  0  0  0  0  0  0  0  0
   -0.6433   18.6133  -33.4370 H   0  0  0  0  0  0  0  0  0  0  0  0
   -1.6584   18.1113  -34.8314 H   0  0  0  0  0  0  0  0  0  0  0  0
   -0.8663   19.7236  -34.8314 H   0  0  0  0  0  0  0  0  0  0  0  0
   -5.4673   23.9741  -32.9379 H   0  0  0  0  0  0  0  0  0  0  0  0
   -7.8859   23.8472  -33.5402 H   0  0  0  0  0  0  0  0  0  0  0  0
   -9.5111   22.7774  -31.9781 H   0  0  0  0  0  0  0  0  0  0  0  0
   -8.7158   21.8126  -29.8170 H   0  0  0  0  0  0  0  0  0  0  0  0
   -6.2984   21.9297  -29.2076 H   0  0  0  0  0  0  0  0  0  0  0  0
   -4.3034   24.7592  -29.2374 H   0  0  0  0  0  0  0  0  0  0  0  0
   -0.4704   27.1947  -26.0070 H   0  0  0  0  0  0  0  0  0  0  0  0
    0.5211   27.8193  -27.3684 H   0  0  0  0  0  0  0  0  0  0  0  0
   -1.2587   28.0618  -27.3684 H   0  0  0  0  0  0  0  0  0  0  0  0
   -0.7490   21.3390  -31.5800 H   0  0  0  0  0  0  0  0  0  0  0  0
   -0.0370   22.3540  -30.3110 H   0  0  0  0  0  0  0  0  0  0  0  0
  1  2  1  0
  2  3  2  0
  3  4  1  0
  4  5  1  0
  4  6  2  0
  6  7  1  0
  7  8  1  0
  8  9  1  0
  9 10  1  0
 10 11  2  0
 11 12  1  0
 12 13  2  0
 13 14  1  0
 14 15  2  0
  9 16  2  0
 16 17  1  0
 17 18  1  0
 18 19  2  0
 19 20  1  0
 20 21  2  0
 21 22  1  0
 21 23  1  0
 17 24  2  0
 24 25  1  0
  7 26  2  0
 26  2  1  0
 24  8  1  0
 15 10  1  0
 23 18  1  0
  1 27  1  0
  1 28  1  0
  1 29  1  0
  3 30  1  0
  5 31  1  0
  5 32  1  0
  5 33  1  0
 11 34  1  0
 12 35  1  0
 13 36  1  0
 14 37  1  0
 15 38  1  0
 16 39  1  0
 22 40  1  0
 22 41  1  0
 22 42  1  0
 25 43  1  0
 25 44  1  0
M  END
>  <UniqueID>  (12) 
12

>  <SMILES>  (12) 
Cc1cc(C)nc(-n2c(-c3ccccc3)cc(-c3nnc(C)o3)c2N)n1

>  <Energy>  (12) 
116.03790807025608

>  <Genealogy>  (12) 
Cc1cc(C)nc(-n2c(-c3ccccc3)cc(-c3nnc(C)o3)c2N)n1 (3D coordinates assigned)
Cc1cc(C)nc(-n2c(-c3ccccc3)cc(-c3nnc(C)o3)c2N)n1 (optimized conformer: 116.03790807025608 kcal/mol)

>  <smiles>  (12) 
Cc1cc(C)nc(-n2c(-c3ccccc3)cc(-c3nnc(C)o3)c2N)n1

>  <score_type>  (12) 
oracle

>  <origin>  (12) 
adgpu

>  <m_score__min__energy>  (12) 
-8.0099999999999998

>  <m_primary>  (12) 
energy

$$$$
12:0
     RDKit          3D

 44 46  0  0  0  0  0  0  0  0999 V2000
    0.5230   20.7150  -31.6230 H   0  0  0  0  0  0  0  0  0  0  0  0
    0.4540   20.4180  -30.6230 N   0  0  0  0  0  0  0  0  0  0  0  0
   -0.4890   20.8520  -29.8530 C   0  0  0  0  0  0  0  0  0  0  0  0
   -1.4220   21.7150  -30.3320 N   0  0  0  0  0  0  0  0  0  0  0  0
   -2.4210   22.1550  -29.5250 C   0  0  0  0  0  0  0  0  0  0  0  0
   -3.4070   23.1160  -30.0350 C   0  0  0  0  0  0  0  0  0  0  0  0
   -4.5390   22.5800  -30.6630 C   0  0  0  0  0  0  0  0  0  0  0  0
   -4.6364   21.4892  -30.7667 H   0  0  0  0  0  0  0  0  0  0  0  0
   -5.5470   23.4130  -31.1600 C   0  0  0  0  0  0  0  0  0  0  0  0
   -6.7820   22.8360  -31.8170 C   0  0  0  0  0  0  0  0  0  0  0  0
   -7.5469   23.6253  -31.8597 H   0  0  0  0  0  0  0  0  0  0  0  0
   -6.4669   22.4816  -32.8095 H   0  0  0  0  0  0  0  0  0  0  0  0
   -7.3700   21.6590  -31.1200 N   0  0  0  0  0  0  0  0  0  0  0  0
   -7.0890   21.8060  -30.1200 H   0  0  0  0  0  0  0  0  0  0  0  0
   -8.8590   21.6410  -31.1060 C   0  0  0  0  0  0  0  0  0  0  0  0
   -9.1926   21.3955  -30.0870 H   0  0  0  0  0  0  0  0  0  0  0  0
   -9.1930   22.6371  -31.4318 H   0  0  0  0  0  0  0  0  0  0  0  0
   -9.4800   20.6230  -32.0770 C   0  0  0  0  0  0  0  0  0  0  0  0
   -9.6541   19.6757  -31.5456 H   0  0  0  0  0  0  0  0  0  0  0  0
  -10.4310   21.0266  -32.4549 H   0  0  0  0  0  0  0  0  0  0  0  0
   -8.5880   20.3830  -33.2060 N   0  0  0  0  0  0  0  0  0  0  0  0
   -9.0790   19.7530  -33.8830 H   0  0  0  0  0  0  0  0  0  0  0  0
   -7.3730   19.7020  -32.7510 C   0  0  0  0  0  0  0  0  0  0  0  0
   -7.6235   18.6580  -32.5115 H   0  0  0  0  0  0  0  0  0  0  0  0
   -6.6324   19.7672  -33.5617 H   0  0  0  0  0  0  0  0  0  0  0  0
   -6.7520   20.3620  -31.4970 C   0  0  0  0  0  0  0  0  0  0  0  0
   -6.8642   19.6680  -30.6510 H   0  0  0  0  0  0  0  0  0  0  0  0
   -5.7001   20.5729  -31.7400 H   0  0  0  0  0  0  0  0  0  0  0  0
   -5.3750   24.7960  -31.0610 C   0  0  0  0  0  0  0  0  0  0  0  0
   -6.1355   25.4734  -31.4766 H   0  0  0  0  0  0  0  0  0  0  0  0
   -4.2750   25.3070  -30.4550 N   0  0  0  0  0  0  0  0  0  0  0  0
   -3.2870   24.5330  -29.9290 C   0  0  0  0  0  0  0  0  0  0  0  0
   -2.2920   25.1560  -29.3540 N   0  0  0  0  0  0  0  0  0  0  0  0
   -1.1030   24.6220  -28.6990 C   0  0  0  0  0  0  0  0  0  0  0  0
   -1.2289   24.6786  -27.6077 H   0  0  0  0  0  0  0  0  0  0  0  0
   -0.9597   23.5731  -28.9977 H   0  0  0  0  0  0  0  0  0  0  0  0
   -0.2238   25.2117  -28.9977 H   0  0  0  0  0  0  0  0  0  0  0  0
   -2.4660   21.7590  -28.2270 N   0  0  0  0  0  0  0  0  0  0  0  0
   -1.5270   20.9060  -27.7420 C   0  0  0  0  0  0  0  0  0  0  0  0
   -1.6090   20.4300  -26.3310 C   0  0  0  0  0  0  0  0  0  0  0  0
   -1.4626   21.2799  -25.6482 H   0  0  0  0  0  0  0  0  0  0  0  0
   -2.5976   19.9820  -26.1520 H   0  0  0  0  0  0  0  0  0  0  0  0
   -0.8273   19.6770  -26.1520 H   0  0  0  0  0  0  0  0  0  0  0  0
   -0.5470   20.4430  -28.5610 N   0  0  0  0  0  0  0  0  0  0  0  0
  1  2  1  0
  2  3  2  0
  3  4  1  0
  4  5  2  0
  5  6  1  0
  6  7  2  0
  7  8  1  0
  7  9  1  0
  9 10  1  0
 10 11  1  0
 10 12  1  0
 10 13  1  0
 13 14  1  0
 13 15  1  0
 15 16  1  0
 15 17  1  0
 15 18  1  0
 18 19  1  0
 18 20  1  0
 18 21  1  0
 21 22  1  0
 21 23  1  0
 23 24  1  0
 23 25  1  0
 23 26  1  0
 26 27  1  0
 26 28  1  0
  9 29  2  0
 29 30  1  0
 29 31  1  0
 31 32  1  0
 32 33  2  0
 33 34  1  0
 34 35  1  0
 34 36  1  0
 34 37  1  0
  5 38  1  0
 38 39  1  0
 39 40  1  0
 40 41  1  0
 40 42  1  0
 40 43  1  0
 39 44  2  0
 44  3  1  0
 32  6  1  0
 26 13  1  0
M  CHG  3  13   1  31  -1  38  -1
M  END
>  <UniqueID>  (13) 
13

>  <SMILES>  (13) 
[H]/N=c1/nc(C)[n-]c(-c2cc(C[NH+]3CCNCC3)c[n-]/c2=N/C)n1

>  <Energy>  (13) 
72.73101927905084

>  <Genealogy>  (13) 
CN=c1[n-]cc(C[NH+]2CCNCC2)cc1-c1nc(=N)nc(C)[n-]1 (protonated)
[H]/N=c1/nc(C)[n-]c(-c2cc(C[NH+]3CCNCC3)c[n-]/c2=N/C)n1 (cis-trans isomerization)
[H]/N=c1/nc(C)[n-]c(-c2cc(C[NH+]3CCNCC3)c[n-]/c2=N/C)n1 (3D coordinates assigned)
[H]/N=c1/nc(C)[n-]c(-c2cc(C[NH+]3CCNCC3)c[n-]/c2=N/C)n1 (nonaromatic ring conformer: 72.73101927905084 kcal/mol)

>  <smiles>  (13) 
CN=c1[nH]cc(CN2CCNCC2)cc1-c1nc(=N)nc(C)[nH]1

>  <score_type>  (13) 
oracle

>  <origin>  (13) 
adgpu

>  <m_score__min__energy>  (13) 
-9.1999999999999993

>  <m_primary>  (13) 
energy

$$$$
13:0
     RDKit          3D

 30 31  0  0  0  0  0  0  0  0999 V2000
   -3.9367   20.8802  -33.1289 H   0  0  0  0  0  0  0  0  0  0  0  0
   -4.7270   21.4330  -32.6000 C   0  0  0  0  0  0  0  0  0  0  0  0
   -5.9600   20.8840  -32.4630 N   0  0  0  0  0  0  0  0  0  0  0  0
   -6.9770   21.5230  -31.8170 C   0  0  0  0  0  0  0  0  0  0  0  0
   -8.2680   20.8750  -31.7100 N   0  0  0  0  0  0  0  0  0  0  0  0
   -8.4340   19.4470  -32.0130 C   0  0  0  0  0  0  0  0  0  0  0  0
   -8.5001   18.8782  -31.0738 H   0  0  0  0  0  0  0  0  0  0  0  0
   -9.3552   19.3005  -32.5960 H   0  0  0  0  0  0  0  0  0  0  0  0
   -7.5709   19.0931  -32.5960 H   0  0  0  0  0  0  0  0  0  0  0  0
   -9.4300   21.6670  -31.2910 C   0  0  0  0  0  0  0  0  0  0  0  0
   -9.4757   21.6981  -30.1924 H   0  0  0  0  0  0  0  0  0  0  0  0
   -9.3369   22.6905  -31.6833 H   0  0  0  0  0  0  0  0  0  0  0  0
  -10.3486   21.2062  -31.6833 H   0  0  0  0  0  0  0  0  0  0  0  0
   -6.7380   22.8010  -31.2720 C   0  0  0  0  0  0  0  0  0  0  0  0
   -7.5444   23.3338  -30.7468 H   0  0  0  0  0  0  0  0  0  0  0  0
   -5.4690   23.3960  -31.3990 C   0  0  0  0  0  0  0  0  0  0  0  0
   -5.2050   24.7390  -30.8280 C   0  0  0  0  0  0  0  0  0  0  0  0
   -6.1590   25.5480  -30.6710 O   0  0  0  0  0  0  0  0  0  0  0  0
   -3.8630   25.1080  -30.4650 N   0  0  0  0  0  0  0  0  0  0  0  0
   -3.0890   24.5360  -29.5890 C   0  0  0  0  0  0  0  0  0  0  0  0
   -1.8430   24.9890  -29.3330 N   0  0  0  0  0  0  0  0  0  0  0  0
   -1.2010   24.2740  -28.4100 N   0  0  0  0  0  0  0  0  0  0  0  0
   -1.9270   23.2370  -27.9350 C   0  0  0  0  0  0  0  0  0  0  0  0
   -1.4580   22.3310  -26.8500 C   0  0  0  0  0  0  0  0  0  0  0  0
   -1.6899   22.7789  -25.8725 H   0  0  0  0  0  0  0  0  0  0  0  0
   -1.9665   21.3596  -26.9381 H   0  0  0  0  0  0  0  0  0  0  0  0
   -0.3712   22.1853  -26.9381 H   0  0  0  0  0  0  0  0  0  0  0  0
   -3.4550   23.1830  -28.6430 S   0  0  0  0  0  0  0  0  0  0  0  0
   -4.4580   22.6950  -32.0730 C   0  0  0  0  0  0  0  0  0  0  0  0
   -3.4579   23.1391  -32.1851 H   0  0  0  0  0  0  0  0  0  0  0  0
  1  2  1  0
  2  3  2  0
  3  4  1  0
  4  5  1  0
  5  6  1  0
  6  7  1  0
  6  8  1  0
  6  9  1  0
  5 10  1  0
 10 11  1  0
 10 12  1  0
 10 13  1  0
  4 14  2  0
 14 15  1  0
 14 16  1  0
 16 17  1  0
 17 18  2  0
 17 19  1  0
 19 20  2  0
 20 21  1  0
 21 22  1  0
 22 23  2  0
 23 24  1  0
 24 25  1  0
 24 26  1  0
 24 27  1  0
 23 28  1  0
 16 29  2  0
 29 30  1  0
 29  2  1  0
 28 20  1  0
M  CHG  1  21  -1
M  END
>  <UniqueID>  (14) 
14

>  <SMILES>  (14) 
Cc1n[n-]/c(=N/C(=O)c2ccnc(N(C)C)c2)s1

>  <Energy>  (14) 
66.98733461402189

>  <Genealogy>  (14) 
Cc1n[n-]c(=NC(=O)c2ccnc(N(C)C)c2)s1 (protonated)
Cc1n[n-]/c(=N/C(=O)c2ccnc(N(C)C)c2)s1 (cis-trans isomerization)
Cc1n[n-]/c(=N/C(=O)c2ccnc(N(C)C)c2)s1 (3D coordinates assigned)
Cc1n[n-]/c(=N/C(=O)c2ccnc(N(C)C)c2)s1 (optimized conformer: 66.98733461402189 kcal/mol)

>  <smiles>  (14) 
Cc1n[nH]c(=NC(=O)c2ccnc(N(C)C)c2)s1

>  <score_type>  (14) 
oracle

>  <origin>  (14) 
adgpu

>  <m_score__min__energy>  (14) 
-8.1999999999999993

>  <m_primary>  (14) 
energy

$$$$
14:0
     RDKit          3D

 38 39  0  0  0  0  0  0  0  0999 V2000
   -5.9550   18.9640  -34.2080 C   0  0  0  0  0  0  0  0  0  0  0  0
   -5.7440   19.9710  -33.2260 O   0  0  0  0  0  0  0  0  0  0  0  0
   -6.7860   20.7370  -32.6870 C   0  0  0  0  0  0  0  0  0  0  0  0
   -8.0460   20.2230  -32.6050 N   0  0  0  0  0  0  0  0  0  0  0  0
   -9.0790   20.9310  -32.0770 C   0  0  0  0  0  0  0  0  0  0  0  0
   -8.8660   22.2220  -31.5940 C   0  0  0  0  0  0  0  0  0  0  0  0
   -7.5870   22.7760  -31.6630 C   0  0  0  0  0  0  0  0  0  0  0  0
   -6.5320   22.0420  -32.2250 C   0  0  0  0  0  0  0  0  0  0  0  0
   -5.1470   22.6240  -32.2740 C   0  0  0  0  0  0  0  0  0  0  0  0
   -5.1130   23.8590  -31.5030 N   0  0  0  0  0  0  0  0  0  0  0  0
   -4.1000   24.1390  -30.5340 C   0  0  0  0  0  0  0  0  0  0  0  0
   -3.5900   25.2900  -30.4690 O   0  0  0  0  0  0  0  0  0  0  0  0
   -3.6830   23.1010  -29.6330 N   0  0  0  0  0  0  0  0  0  0  0  0
   -2.6130   23.2540  -28.6300 C   0  0  0  0  0  0  0  0  0  0  0  0
   -3.0130   24.3530  -27.6230 C   0  0  0  0  0  0  0  0  0  0  0  0
   -1.3110   23.6790  -29.3310 C   0  0  0  0  0  0  0  0  0  0  0  0
   -2.3640   21.9350  -27.9280 C   0  0  0  0  0  0  0  0  0  0  0  0
   -3.1060   20.8210  -28.1260 N   0  0  0  0  0  0  0  0  0  0  0  0
   -2.7260   19.8000  -27.3120 C   0  0  0  0  0  0  0  0  0  0  0  0
   -1.6880   20.0960  -26.4390 C   0  0  0  0  0  0  0  0  0  0  0  0
   -1.2370   21.6930  -26.6990 S   0  0  0  0  0  0  0  0  0  0  0  0
   -6.1562   18.0036  -33.7109 H   0  0  0  0  0  0  0  0  0  0  0  0
   -6.8150   19.2390  -34.8363 H   0  0  0  0  0  0  0  0  0  0  0  0
   -5.0569   18.8706  -34.8363 H   0  0  0  0  0  0  0  0  0  0  0  0
  -10.0837   20.4856  -32.0306 H   0  0  0  0  0  0  0  0  0  0  0  0
   -9.6981   22.7979  -31.1629 H   0  0  0  0  0  0  0  0  0  0  0  0
   -7.4059   23.7897  -31.2761 H   0  0  0  0  0  0  0  0  0  0  0  0
   -4.4318   21.9054  -31.8474 H   0  0  0  0  0  0  0  0  0  0  0  0
   -4.8744   22.8356  -33.3185 H   0  0  0  0  0  0  0  0  0  0  0  0
   -4.1740   22.1800  -29.7170 H   0  0  0  0  0  0  0  0  0  0  0  0
   -2.8766   23.9782  -26.5978 H   0  0  0  0  0  0  0  0  0  0  0  0
   -2.3798   25.2392  -27.7767 H   0  0  0  0  0  0  0  0  0  0  0  0
   -4.0677   24.6249  -27.7767 H   0  0  0  0  0  0  0  0  0  0  0  0
   -0.5515   23.9269  -28.5749 H   0  0  0  0  0  0  0  0  0  0  0  0
   -0.9466   22.8532  -29.9597 H   0  0  0  0  0  0  0  0  0  0  0  0
   -1.5040   24.5608  -29.9597 H   0  0  0  0  0  0  0  0  0  0  0  0
   -3.2065   18.8110  -27.3431 H   0  0  0  0  0  0  0  0  0  0  0  0
   -1.2405   19.4073  -25.7072 H   0  0  0  0  0  0  0  0  0  0  0  0
  1  2  1  0
  2  3  1  0
  3  4  2  0
  4  5  1  0
  5  6  2  0
  6  7  1  0
  7  8  2  0
  8  9  1  0
  9 10  1  0
 10 11  1  0
 11 12  2  0
 11 13  1  0
 13 14  1  0
 14 15  1  0
 14 16  1  0
 14 17  1  0
 17 18  2  0
 18 19  1  0
 19 20  2  0
 20 21  1  0
  8  3  1  0
 21 17  1  0
  1 22  1  0
  1 23  1  0
  1 24  1  0
  5 25  1  0
  6 26  1  0
  7 27  1  0
  9 28  1  0
  9 29  1  0
 13 30  1  0
 15 31  1  0
 15 32  1  0
 15 33  1  0
 16 34  1  0
 16 35  1  0
 16 36  1  0
 19 37  1  0
 20 38  1  0
M  CHG  1  10  -1
M  END
>  <UniqueID>  (15) 
15

>  <SMILES>  (15) 
COc1ncccc1C[N-]C(=O)NC(C)(C)c1nccs1

>  <Energy>  (15) 
60.19484426443485

>  <Genealogy>  (15) 
COc1ncccc1C[N-]C(=O)NC(C)(C)c1nccs1 (protonated)
COc1ncccc1C[N-]C(=O)NC(C)(C)c1nccs1 (3D coordinates assigned)
COc1ncccc1C[N-]C(=O)NC(C)(C)c1nccs1 (optimized conformer: 60.19484426443485 kcal/mol)

>  <smiles>  (15) 
COc1ncccc1CNC(=O)NC(C)(C)c1nccs1

>  <score_type>  (15) 
oracle

>  <origin>  (15) 
adgpu

>  <m_score__min__energy>  (15) 
-8.0800000000000001

>  <m_primary>  (15) 
energy

$$$$
15:0
     RDKit          3D

 47 49  0  0  0  0  0  0  0  0999 V2000
   -2.7510   16.4360  -35.3540 C   0  0  0  0  0  0  0  0  0  0  0  0
   -2.7820   17.1580  -34.0770 N   0  0  0  0  0  0  0  0  0  0  0  0
   -3.3530   16.4960  -32.9000 C   0  0  0  0  0  0  0  0  0  0  0  0
   -2.2750   18.5140  -33.9870 C   0  0  0  0  0  0  0  0  0  0  0  0
   -0.9970   18.8400  -34.4840 C   0  0  0  0  0  0  0  0  0  0  0  0
   -0.5080   20.1440  -34.3910 C   0  0  0  0  0  0  0  0  0  0  0  0
   -1.2830   21.1440  -33.8030 C   0  0  0  0  0  0  0  0  0  0  0  0
   -2.5500   20.8490  -33.2950 C   0  0  0  0  0  0  0  0  0  0  0  0
   -3.2760   21.8850  -32.6900 O   0  0  0  0  0  0  0  0  0  0  0  0
   -3.3840   22.0910  -31.2830 C   0  0  0  0  0  0  0  0  0  0  0  0
   -4.5150   23.0480  -31.0080 C   0  0  0  0  0  0  0  0  0  0  0  0
   -4.3350   24.1030  -30.0960 C   0  0  0  0  0  0  0  0  0  0  0  0
   -5.3830   24.9820  -29.8150 C   0  0  0  0  0  0  0  0  0  0  0  0
   -6.6200   24.8190  -30.4410 C   0  0  0  0  0  0  0  0  0  0  0  0
   -6.8140   23.7790  -31.3510 C   0  0  0  0  0  0  0  0  0  0  0  0
   -5.7700   22.8870  -31.6420 C   0  0  0  0  0  0  0  0  0  0  0  0
   -5.9720   21.8280  -32.5900 N   0  0  0  0  0  0  0  0  0  0  0  0
   -6.8120   20.6980  -32.3050 C   0  0  0  0  0  0  0  0  0  0  0  0
   -7.6780   20.7730  -31.3910 O   0  0  0  0  0  0  0  0  0  0  0  0
   -6.6320   19.4280  -33.0420 C   0  0  0  0  0  0  0  0  0  0  0  0
   -7.0980   18.2120  -32.5170 C   0  0  0  0  0  0  0  0  0  0  0  0
   -6.8780   17.0280  -33.2260 C   0  0  0  0  0  0  0  0  0  0  0  0
   -6.1970   17.0630  -34.4420 C   0  0  0  0  0  0  0  0  0  0  0  0
   -5.7470   18.2870  -34.9380 C   0  0  0  0  0  0  0  0  0  0  0  0
   -5.9710   19.4290  -34.2330 N   0  0  0  0  0  0  0  0  0  0  0  0
   -3.0470   19.5350  -33.3950 C   0  0  0  0  0  0  0  0  0  0  0  0
   -2.7045   15.3538  -35.1623 H   0  0  0  0  0  0  0  0  0  0  0  0
   -3.6599   16.6679  -35.9285 H   0  0  0  0  0  0  0  0  0  0  0  0
   -1.8653   16.7450  -35.9285 H   0  0  0  0  0  0  0  0  0  0  0  0
   -2.9520   16.9609  -31.9873 H   0  0  0  0  0  0  0  0  0  0  0  0
   -4.4478   16.6018  -32.9148 H   0  0  0  0  0  0  0  0  0  0  0  0
   -3.0876   15.4286  -32.9148 H   0  0  0  0  0  0  0  0  0  0  0  0
   -0.3786   18.0587  -34.9500 H   0  0  0  0  0  0  0  0  0  0  0  0
    0.4916   20.3840  -34.7825 H   0  0  0  0  0  0  0  0  0  0  0  0
   -0.8938   22.1709  -33.7391 H   0  0  0  0  0  0  0  0  0  0  0  0
   -3.5849   21.1310  -30.7849 H   0  0  0  0  0  0  0  0  0  0  0  0
   -2.4430   22.5103  -30.8975 H   0  0  0  0  0  0  0  0  0  0  0  0
   -3.3621   24.2368  -29.6006 H   0  0  0  0  0  0  0  0  0  0  0  0
   -5.2336   25.8040  -29.0994 H   0  0  0  0  0  0  0  0  0  0  0  0
   -7.4440   25.5122  -30.2164 H   0  0  0  0  0  0  0  0  0  0  0  0
   -7.7903   23.6576  -31.8429 H   0  0  0  0  0  0  0  0  0  0  0  0
   -5.3180   21.7720  -33.4020 H   0  0  0  0  0  0  0  0  0  0  0  0
   -7.6319   18.1915  -31.5555 H   0  0  0  0  0  0  0  0  0  0  0  0
   -7.2415   16.0702  -32.8254 H   0  0  0  0  0  0  0  0  0  0  0  0
   -6.0163   16.1352  -35.0046 H   0  0  0  0  0  0  0  0  0  0  0  0
   -5.2117   18.3287  -35.8980 H   0  0  0  0  0  0  0  0  0  0  0  0
   -4.0495   19.3023  -33.0066 H   0  0  0  0  0  0  0  0  0  0  0  0
  1  2  1  0
  2  3  1  0
  2  4  1  0
  4  5  2  0
  5  6  1  0
  6  7  2  0
  7  8  1  0
  8  9  1  0
  9 10  1  0
 10 11  1  0
 11 12  2  0
 12 13  1  0
 13 14  2  0
 14 15  1  0
 15 16  2  0
 16 17  1  0
 17 18  1  0
 18 19  2  0
 18 20  1  0
 20 21  2  0
 21 22  1  0
 22 23  2  0
 23 24  1  0
 24 25  2  0
  8 26  2  0
 26  4  1  0
 16 11  1  0
 25 20  1  0
  1 27  1  0
  1 28  1  0
  1 29  1  0
  3 30  1  0
  3 31  1  0
  3 32  1  0
  5 33  1  0
  6 34  1  0
  7 35  1  0
 10 36  1  0
 10 37  1  0
 12 38  1  0
 13 39  1  0
 14 40  1  0
 15 41  1  0
 17 42  1  0
 21 43  1  0
 22 44  1  0
 23 45  1  0
 24 46  1  0
 26 47  1  0
M  END
>  <UniqueID>  (16) 
16

>  <SMILES>  (16) 
CN(C)c1cccc(OCc2ccccc2NC(=O)c2ccccn2)c1

>  <Energy>  (16) 
54.94694825060785

>  <Genealogy>  (16) 
CN(C)c1cccc(OCc2ccccc2NC(=O)c2ccccn2)c1 (3D coordinates assigned)
CN(C)c1cccc(OCc2ccccc2NC(=O)c2ccccn2)c1 (optimized conformer: 54.94694825060785 kcal/mol)

>  <smiles>  (16) 
CN(C)c1cccc(OCc2ccccc2NC(=O)c2ccccn2)c1

>  <score_type>  (16) 
oracle

>  <origin>  (16) 
adgpu

>  <m_score__min__energy>  (16) 
-7.3300000000000001

>  <m_primary>  (16) 
energy

$$$$
16:0
     RDKit          3D

 26 27  0  0  0  0  0  0  0  0999 V2000
   -5.7820   24.9570  -29.0580 O   0  0  0  0  0  0  0  0  0  0  0  0
   -5.2560   24.9240  -30.4650 S   0  0  0  0  0  0  0  0  0  0  0  0
   -5.7090   26.1630  -31.1860 O   0  0  0  0  0  0  0  0  0  0  0  0
   -3.5230   24.8950  -30.4230 N   0  0  0  0  0  0  0  0  0  0  0  0
   -2.7290   24.1890  -29.4590 C   0  0  0  0  0  0  0  0  0  0  0  0
   -3.0600   22.8890  -29.0290 C   0  0  0  0  0  0  0  0  0  0  0  0
   -2.2660   22.2360  -28.0810 C   0  0  0  0  0  0  0  0  0  0  0  0
   -1.1370   22.8700  -27.5570 C   0  0  0  0  0  0  0  0  0  0  0  0
   -0.7990   24.1580  -27.9810 C   0  0  0  0  0  0  0  0  0  0  0  0
   -1.5910   24.8160  -28.9280 C   0  0  0  0  0  0  0  0  0  0  0  0
   -1.2440   26.0980  -29.3390 O   0  0  0  0  0  0  0  0  0  0  0  0
   -5.8670   23.4810  -31.2670 C   0  0  0  0  0  0  0  0  0  0  0  0
   -4.9960   22.6720  -32.0110 C   0  0  0  0  0  0  0  0  0  0  0  0
   -5.4780   21.5300  -32.6580 C   0  0  0  0  0  0  0  0  0  0  0  0
   -6.8300   21.1900  -32.5630 C   0  0  0  0  0  0  0  0  0  0  0  0
   -7.7030   21.9910  -31.8180 C   0  0  0  0  0  0  0  0  0  0  0  0
   -9.4000   21.5620  -31.6980 Cl  0  0  0  0  0  0  0  0  0  0  0  0
   -7.2210   23.1340  -31.1700 C   0  0  0  0  0  0  0  0  0  0  0  0
   -3.9470   22.3853  -29.4408 H   0  0  0  0  0  0  0  0  0  0  0  0
   -2.5308   21.2218  -27.7475 H   0  0  0  0  0  0  0  0  0  0  0  0
   -0.5140   22.3555  -26.8106 H   0  0  0  0  0  0  0  0  0  0  0  0
    0.0916   24.6554  -27.5693 H   0  0  0  0  0  0  0  0  0  0  0  0
   -3.9309   22.9365  -32.0858 H   0  0  0  0  0  0  0  0  0  0  0  0
   -4.7923   20.8987  -33.2423 H   0  0  0  0  0  0  0  0  0  0  0  0
   -7.2083   20.2924  -33.0740 H   0  0  0  0  0  0  0  0  0  0  0  0
   -7.9072   23.7619  -30.5828 H   0  0  0  0  0  0  0  0  0  0  0  0
  1  2  2  0
  2  3  2  0
  2  4  1  0
  4  5  1  0
  5  6  2  0
  6  7  1  0
  7  8  2  0
  8  9  1  0
  9 10  2  0
 10 11  1  0
  2 12  1  0
 12 13  2  0
 13 14  1  0
 14 15  2  0
 15 16  1  0
 16 17  1  0
 16 18  2  0
 10  5  1  0
 18 12  1  0
  6 19  1  0
  7 20  1  0
  8 21  1  0
  9 22  1  0
 13 23  1  0
 14 24  1  0
 15 25  1  0
 18 26  1  0
M  CHG  2   4  -1  11  -1
M  END
>  <UniqueID>  (17) 
17

>  <SMILES>  (17) 
O=S(=O)([N-]c1ccccc1[O-])c1cccc(Cl)c1

>  <Energy>  (17) 
30.097080805339736

>  <Genealogy>  (17) 
O=S(=O)([N-]c1ccccc1[O-])c1cccc(Cl)c1 (protonated)
O=S(=O)([N-]c1ccccc1[O-])c1cccc(Cl)c1 (3D coordinates assigned)
O=S(=O)([N-]c1ccccc1[O-])c1cccc(Cl)c1 (optimized conformer: 30.097080805339736 kcal/mol)

>  <smiles>  (17) 
O=S(=O)(Nc1ccccc1O)c1cccc(Cl)c1

>  <score_type>  (17) 
oracle

>  <origin>  (17) 
adgpu

>  <m_score__min__energy>  (17) 
-12.289999999999999

>  <m_primary>  (17) 
energy

$$$$
17:0
     RDKit          3D

 38 40  0  0  0  0  0  0  0  0999 V2000
   -9.1590   18.2530  -31.6580 C   0  0  0  0  0  0  0  0  0  0  0  0
   -9.3850   19.6570  -31.7370 O   0  0  0  0  0  0  0  0  0  0  0  0
   -8.3690   20.6190  -31.8270 C   0  0  0  0  0  0  0  0  0  0  0  0
   -8.5470   21.8320  -31.1630 C   0  0  0  0  0  0  0  0  0  0  0  0
   -7.5660   22.8220  -31.2150 C   0  0  0  0  0  0  0  0  0  0  0  0
   -6.3660   22.6190  -31.9270 C   0  0  0  0  0  0  0  0  0  0  0  0
   -5.3170   23.7260  -31.9660 C   0  0  2  0  0  0  0  0  0  0  0  0
   -4.0110   23.2030  -32.0680 O   0  0  0  0  0  0  0  0  0  0  0  0
   -5.4640   24.6910  -30.7710 C   0  0  0  0  0  0  0  0  0  0  0  0
   -4.1750   25.2840  -30.4200 N   0  0  0  0  0  0  0  0  0  0  0  0
   -3.3090   24.7100  -29.6400 C   0  0  0  0  0  0  0  0  0  0  0  0
   -3.5150   23.4930  -29.0670 N   0  0  0  0  0  0  0  0  0  0  0  0
   -2.3840   23.3150  -28.3690 C   0  0  0  0  0  0  0  0  0  0  0  0
   -2.0370   22.2240  -27.5750 C   0  0  0  0  0  0  0  0  0  0  0  0
   -0.7840   22.2580  -26.9320 C   0  0  0  0  0  0  0  0  0  0  0  0
    0.0760   23.3670  -27.0990 C   0  0  0  0  0  0  0  0  0  0  0  0
   -0.3100   24.4510  -27.9100 C   0  0  0  0  0  0  0  0  0  0  0  0
   -1.5560   24.3840  -28.5300 C   0  0  0  0  0  0  0  0  0  0  0  0
   -2.1210   25.2930  -29.3380 N   0  0  0  0  0  0  0  0  0  0  0  0
   -6.1950   21.3970  -32.6350 C   0  0  0  0  0  0  0  0  0  0  0  0
   -5.0350   21.1340  -33.4390 N   0  0  0  0  0  0  0  0  0  0  0  0
   -7.1910   20.4090  -32.5620 C   0  0  0  0  0  0  0  0  0  0  0  0
   -9.1100   17.9483  -30.6022 H   0  0  0  0  0  0  0  0  0  0  0  0
   -9.9830   17.7204  -32.1554 H   0  0  0  0  0  0  0  0  0  0  0  0
   -8.2095   18.0059  -32.1554 H   0  0  0  0  0  0  0  0  0  0  0  0
   -9.4704   22.0100  -30.5924 H   0  0  0  0  0  0  0  0  0  0  0  0
   -7.7310   23.7758  -30.6925 H   0  0  0  0  0  0  0  0  0  0  0  0
   -5.4961   24.3157  -32.8771 H   0  0  0  0  0  0  0  0  0  0  0  0
   -3.5290   23.3690  -31.2170 H   0  0  0  0  0  0  0  0  0  0  0  0
   -6.1683   25.4922  -31.0392 H   0  0  0  0  0  0  0  0  0  0  0  0
   -5.8387   24.1251  -29.9054 H   0  0  0  0  0  0  0  0  0  0  0  0
   -2.7165   21.3674  -27.4546 H   0  0  0  0  0  0  0  0  0  0  0  0
   -0.4730   21.4161  -26.2960 H   0  0  0  0  0  0  0  0  0  0  0  0
    1.0523   23.3832  -26.5925 H   0  0  0  0  0  0  0  0  0  0  0  0
    0.3491   25.3206  -28.0494 H   0  0  0  0  0  0  0  0  0  0  0  0
   -4.8160   20.1600  -33.7450 H   0  0  0  0  0  0  0  0  0  0  0  0
   -4.4100   21.8840  -33.8010 H   0  0  0  0  0  0  0  0  0  0  0  0
   -7.0457   19.4547  -33.0895 H   0  0  0  0  0  0  0  0  0  0  0  0
  1  2  1  0
  2  3  1  0
  3  4  2  0
  4  5  1  0
  5  6  2  0
  6  7  1  0
  7  8  1  0
  7  9  1  0
  9 10  1  0
 10 11  2  3
 11 12  1  0
 12 13  1  0
 13 14  2  0
 14 15  1  0
 15 16  2  0
 16 17  1  0
 17 18  2  0
 18 19  1  0
  6 20  1  0
 20 21  1  0
 20 22  2  0
 22  3  1  0
 19 11  1  0
 18 13  1  0
  1 23  1  0
  1 24  1  0
  1 25  1  0
  4 26  1  0
  5 27  1  0
  7 28  1  6
  8 29  1  0
  9 30  1  0
  9 31  1  0
 14 32  1  0
 15 33  1  0
 16 34  1  0
 17 35  1  0
 21 36  1  0
 21 37  1  0
 22 38  1  0
M  CHG  2  12  -1  19  -1
M  END
>  <UniqueID>  (18) 
18

>  <SMILES>  (18) 
COc1ccc([C@H](O)CN=c2[n-]c3ccccc3[n-]2)c(N)c1

>  <Energy>  (18) 
77.44248452109258

>  <Genealogy>  (18) 
COc1ccc(C(O)CN=c2[n-]c3ccccc3[n-]2)c(N)c1 (protonated)
COc1ccc([C@H](O)CN=c2[n-]c3ccccc3[n-]2)c(N)c1 (chirality)
COc1ccc([C@H](O)CN=c2[n-]c3ccccc3[n-]2)c(N)c1 (3D coordinates assigned)
COc1ccc([C@H](O)CN=c2[n-]c3ccccc3[n-]2)c(N)c1 (optimized conformer: 77.44248452109258 kcal/mol)

>  <smiles>  (18) 
COc1ccc(C(O)CN=c2[nH]c3ccccc3[nH]2)c(N)c1

>  <score_type>  (18) 
oracle

>  <origin>  (18) 
adgpu

>  <m_score__min__energy>  (18) 
-10.1

>  <m_primary>  (18) 
energy

$$$$
18:0
     RDKit          3D

 34 35  0  0  0  0  0  0  0  0999 V2000
   -8.5310   19.3670  -31.6710 C   0  0  0  0  0  0  0  0  0  0  0  0
   -8.1500   20.0700  -32.7430 C   0  0  0  0  0  0  0  0  0  0  0  0
   -6.7370   20.5550  -32.9070 C   0  0  0  0  0  0  0  0  0  0  0  0
   -6.4880   21.7710  -32.0560 C   0  0  0  0  0  0  0  0  0  0  0  0
   -7.4170   22.8210  -32.0360 C   0  0  0  0  0  0  0  0  0  0  0  0
   -7.2070   23.9330  -31.2190 C   0  0  0  0  0  0  0  0  0  0  0  0
   -6.0690   24.0100  -30.4050 C   0  0  0  0  0  0  0  0  0  0  0  0
   -5.8850   25.1110  -29.5680 O   0  0  0  0  0  0  0  0  0  0  0  0
   -5.1250   22.9640  -30.4210 C   0  0  0  0  0  0  0  0  0  0  0  0
   -3.9150   23.0150  -29.5680 C   0  0  0  0  0  0  0  0  0  0  0  0
   -3.5370   21.8780  -28.8370 C   0  0  0  0  0  0  0  0  0  0  0  0
   -2.4010   21.9020  -28.0230 C   0  0  0  0  0  0  0  0  0  0  0  0
   -1.9520   20.4540  -27.1350 Cl  0  0  0  0  0  0  0  0  0  0  0  0
   -1.6270   23.0690  -27.9330 C   0  0  0  0  0  0  0  0  0  0  0  0
   -0.4940   23.0990  -27.1180 O   0  0  0  0  0  0  0  0  0  0  0  0
   -0.5930   23.3530  -25.7220 C   0  0  0  0  0  0  0  0  0  0  0  0
   -1.9840   24.2030  -28.6770 C   0  0  0  0  0  0  0  0  0  0  0  0
   -0.9980   25.6590  -28.5920 Cl  0  0  0  0  0  0  0  0  0  0  0  0
   -3.1220   24.1760  -29.4980 C   0  0  0  0  0  0  0  0  0  0  0  0
   -3.4520   25.2980  -30.2540 O   0  0  0  0  0  0  0  0  0  0  0  0
   -5.3490   21.8440  -31.2390 C   0  0  0  0  0  0  0  0  0  0  0  0
   -9.5726   19.0255  -31.5790 H   0  0  0  0  0  0  0  0  0  0  0  0
   -7.8028   19.1302  -30.8813 H   0  0  0  0  0  0  0  0  0  0  0  0
   -8.8895   20.2990  -33.5244 H   0  0  0  0  0  0  0  0  0  0  0  0
   -6.0439   19.7557  -32.6057 H   0  0  0  0  0  0  0  0  0  0  0  0
   -6.5761   20.8233  -33.9616 H   0  0  0  0  0  0  0  0  0  0  0  0
   -8.3161   22.7681  -32.6675 H   0  0  0  0  0  0  0  0  0  0  0  0
   -7.9392   24.7539  -31.2141 H   0  0  0  0  0  0  0  0  0  0  0  0
   -4.9740   25.5360  -29.4430 H   0  0  0  0  0  0  0  0  0  0  0  0
   -4.1398   20.9604  -28.9053 H   0  0  0  0  0  0  0  0  0  0  0  0
   -0.2489   22.4701  -25.1634 H   0  0  0  0  0  0  0  0  0  0  0  0
    0.0335   24.2188  -25.4615 H   0  0  0  0  0  0  0  0  0  0  0  0
   -1.6402   23.5665  -25.4615 H   0  0  0  0  0  0  0  0  0  0  0  0
   -4.6247   21.0162  -31.2392 H   0  0  0  0  0  0  0  0  0  0  0  0
  1  2  2  0
  2  3  1  0
  3  4  1  0
  4  5  2  0
  5  6  1  0
  6  7  2  0
  7  8  1  0
  7  9  1  0
  9 10  1  0
 10 11  2  0
 11 12  1  0
 12 13  1  0
 12 14  2  0
 14 15  1  0
 15 16  1  0
 14 17  1  0
 17 18  1  0
 17 19  2  0
 19 20  1  0
  9 21  2  0
 21  4  1  0
 19 10  1  0
  1 22  1  0
  1 23  1  0
  2 24  1  0
  3 25  1  0
  3 26  1  0
  5 27  1  0
  6 28  1  0
  8 29  1  0
 11 30  1  0
 16 31  1  0
 16 32  1  0
 16 33  1  0
 21 34  1  0
M  CHG  1  20  -1
M  END
>  <UniqueID>  (19) 
19

>  <SMILES>  (19) 
C=CCc1ccc(O)c(-c2cc(Cl)c(OC)c(Cl)c2[O-])c1

>  <Energy>  (19) 
45.23871001062105

>  <Genealogy>  (19) 
C=CCc1ccc(O)c(-c2cc(Cl)c(OC)c(Cl)c2[O-])c1 (protonated)
C=CCc1ccc(O)c(-c2cc(Cl)c(OC)c(Cl)c2[O-])c1 (3D coordinates assigned)
C=CCc1ccc(O)c(-c2cc(Cl)c(OC)c(Cl)c2[O-])c1 (optimized conformer: 45.23871001062105 kcal/mol)

>  <smiles>  (19) 
C=CCc1ccc(O)c(-c2cc(Cl)c(OC)c(Cl)c2O)c1

>  <score_type>  (19) 
oracle

>  <origin>  (19) 
adgpu

>  <m_score__min__energy>  (19) 
-10.16

>  <m_primary>  (19) 
energy

$$$$
19:0
     RDKit          3D

 29 31  0  0  0  0  0  0  0  0999 V2000
   -7.4980   25.7400  -29.2460 H   0  0  0  0  0  0  0  0  0  0  0  0
   -6.4980   26.0250  -29.3460 N   0  0  0  0  0  0  0  0  0  0  0  0
   -5.6400   25.2950  -29.9850 C   0  0  0  0  0  0  0  0  0  0  0  0
   -5.8780   24.0910  -30.6080 C   0  0  0  0  0  0  0  0  0  0  0  0
   -7.0110   23.3000  -30.7630 C   0  0  0  0  0  0  0  0  0  0  0  0
   -7.9794   23.6009  -30.3367 H   0  0  0  0  0  0  0  0  0  0  0  0
   -6.8730   22.1010  -31.4850 C   0  0  0  0  0  0  0  0  0  0  0  0
   -7.7485   21.4506  -31.6284 H   0  0  0  0  0  0  0  0  0  0  0  0
   -5.6160   21.7170  -32.0330 C   0  0  0  0  0  0  0  0  0  0  0  0
   -5.4850   20.4480  -32.7930 C   0  0  0  0  0  0  0  0  0  0  0  0
   -4.2330   20.0100  -33.2580 C   0  0  0  0  0  0  0  0  0  0  0  0
   -3.3348   20.6133  -33.0597 H   0  0  0  0  0  0  0  0  0  0  0  0
   -4.1250   18.8460  -33.9510 N   0  0  0  0  0  0  0  0  0  0  0  0
   -5.2090   18.0660  -34.2220 C   0  0  0  0  0  0  0  0  0  0  0  0
   -5.0720   16.8740  -34.9390 O   0  0  0  0  0  0  0  0  0  0  0  0
   -4.2270   15.8120  -34.5130 C   0  0  0  0  0  0  0  0  0  0  0  0
   -4.2026   15.7813  -33.4137 H   0  0  0  0  0  0  0  0  0  0  0  0
   -4.6153   14.8575  -34.8979 H   0  0  0  0  0  0  0  0  0  0  0  0
   -3.2097   15.9759  -34.8979 H   0  0  0  0  0  0  0  0  0  0  0  0
   -6.4730   18.4600  -33.7800 C   0  0  0  0  0  0  0  0  0  0  0  0
   -7.3539   17.8370  -33.9941 H   0  0  0  0  0  0  0  0  0  0  0  0
   -6.6110   19.6510  -33.0640 C   0  0  0  0  0  0  0  0  0  0  0  0
   -7.6039   19.9665  -32.7109 H   0  0  0  0  0  0  0  0  0  0  0  0
   -4.4900   22.5560  -31.8460 C   0  0  0  0  0  0  0  0  0  0  0  0
   -3.5070   22.2829  -32.2574 H   0  0  0  0  0  0  0  0  0  0  0  0
   -4.6620   23.7360  -31.1270 C   0  0  0  0  0  0  0  0  0  0  0  0
   -3.7300   24.6690  -30.8430 N   0  0  0  0  0  0  0  0  0  0  0  0
   -4.3390   25.6190  -30.1420 N   0  0  0  0  0  0  0  0  0  0  0  0
   -3.8660   26.4760  -29.7790 H   0  0  0  0  0  0  0  0  0  0  0  0
  1  2  1  0
  2  3  2  0
  3  4  1  0
  4  5  2  0
  5  6  1  0
  5  7  1  0
  7  8  1  0
  7  9  2  0
  9 10  1  0
 10 11  2  0
 11 12  1  0
 11 13  1  0
 13 14  2  0
 14 15  1  0
 15 16  1  0
 16 17  1  0
 16 18  1  0
 16 19  1  0
 14 20  1  0
 20 21  1  0
 20 22  2  0
 22 23  1  0
  9 24  1  0
 24 25  1  0
 24 26  2  0
 26 27  1  0
 27 28  1  0
 28 29  1  0
 28  3  1  0
 26  4  1  0
 22 10  1  0
M  CHG  1  27  -1
M  END
>  <UniqueID>  (20) 
20

>  <SMILES>  (20) 
[H]/N=c1/[nH][n-]c2cc(-c3ccc(OC)nc3)ccc12

>  <Energy>  (20) 
75.66311022898786

>  <Genealogy>  (20) 
COc1ccc(-c2ccc3c(=N)[nH][n-]c3c2)cn1 (protonated)
[H]/N=c1/[nH][n-]c2cc(-c3ccc(OC)nc3)ccc12 (cis-trans isomerization)
[H]/N=c1/[nH][n-]c2cc(-c3ccc(OC)nc3)ccc12 (3D coordinates assigned)
[H]/N=c1/[nH][n-]c2cc(-c3ccc(OC)nc3)ccc12 (optimized conformer: 75.66311022898786 kcal/mol)

>  <smiles>  (20) 
COc1ccc(-c2ccc3c(=N)[nH][nH]c3c2)cn1

>  <score_type>  (20) 
oracle

>  <origin>  (20) 
adgpu

>  <m_score__min__energy>  (20) 
-8.8000000000000007

>  <m_primary>  (20) 
energy

$$$$
20:0
     RDKit          3D

 51 53  0  0  1  0  0  0  0  0999 V2000
   -2.8470   21.6390  -32.0680 C   0  0  0  0  0  0  0  0  0  0  0  0
   -3.5170   20.6190  -32.7910 O   0  0  0  0  0  0  0  0  0  0  0  0
   -4.8960   20.5070  -32.8200 C   0  0  0  0  0  0  0  0  0  0  0  0
   -5.7260   21.3510  -32.0600 C   0  0  0  0  0  0  0  0  0  0  0  0
   -7.0720   21.1730  -32.1480 C   0  0  0  0  0  0  0  0  0  0  0  0
   -7.9250   21.9710  -31.4250 C   0  0  0  0  0  0  0  0  0  0  0  0
   -7.4950   22.8800  -30.7120 N   0  0  0  0  0  0  0  0  0  0  0  0
   -6.2670   23.3870  -30.3930 C   0  0  0  0  0  0  0  0  0  0  0  0
   -5.8700   24.6040  -30.9900 C   0  0  0  0  0  0  0  0  0  0  0  0
   -4.6860   25.2150  -30.6170 C   0  0  0  0  0  0  0  0  0  0  0  0
   -3.8880   24.6300  -29.6540 C   0  0  0  0  0  0  0  0  0  0  0  0
   -2.7380   25.2920  -29.3390 F   0  0  0  0  0  0  0  0  0  0  0  0
   -4.2450   23.4400  -29.0480 C   0  0  0  0  0  0  0  0  0  0  0  0
   -3.2000   22.7290  -27.8250 Cl  0  0  0  0  0  0  0  0  0  0  0  0
   -5.4250   22.8110  -29.4050 C   0  0  0  0  0  0  0  0  0  0  0  0
   -9.2500   21.7710  -31.5280 N   0  0  0  0  0  0  0  0  0  0  0  0
   -9.7940   20.8270  -32.3060 C   0  0  0  0  0  0  0  0  0  0  0  0
   -8.9940   20.0320  -33.0240 N   0  0  0  0  0  0  0  0  0  0  0  0
   -7.6670   20.2190  -32.9330 C   0  0  0  0  0  0  0  0  0  0  0  0
   -6.8590   19.3990  -33.6700 C   0  0  0  0  0  0  0  0  0  0  0  0
   -5.5050   19.5800  -33.5810 C   0  0  0  0  0  0  0  0  0  0  0  0
   -4.6440   18.7230  -34.3590 N   0  0  0  0  0  0  0  0  0  0  0  0
   -5.2720   17.6950  -35.1160 C   0  0  0  0  0  0  0  0  0  0  0  0
   -5.0100   16.3850  -34.4110 C   0  0  0  0  0  0  0  0  0  0  0  0
   -3.8200   16.4200  -33.5050 C   0  0  0  0  0  0  0  0  0  0  0  0
   -2.6330   16.9350  -34.1360 N   0  0  0  0  0  0  0  0  0  0  0  0
   -1.7030   17.5550  -33.2470 C   0  0  0  0  0  0  0  0  0  0  0  0
   -1.9630   15.8450  -34.8190 C   0  0  0  0  0  0  0  0  0  0  0  0
   -2.9640   21.4608  -30.9889 H   0  0  0  0  0  0  0  0  0  0  0  0
   -1.7780   21.6305  -32.3272 H   0  0  0  0  0  0  0  0  0  0  0  0
   -3.2794   22.6167  -32.3272 H   0  0  0  0  0  0  0  0  0  0  0  0
   -5.2993   22.1320  -31.4135 H   0  0  0  0  0  0  0  0  0  0  0  0
   -6.5067   25.0693  -31.7569 H   0  0  0  0  0  0  0  0  0  0  0  0
   -4.3818   26.1626  -31.0856 H   0  0  0  0  0  0  0  0  0  0  0  0
   -5.7109   21.8644  -28.9232 H   0  0  0  0  0  0  0  0  0  0  0  0
  -10.8864   20.7069  -32.3539 H   0  0  0  0  0  0  0  0  0  0  0  0
   -9.3980   19.2890  -33.6380 H   0  0  0  0  0  0  0  0  0  0  0  0
   -7.2843   18.6166  -34.3157 H   0  0  0  0  0  0  0  0  0  0  0  0
   -3.5940   18.8660  -34.3630 H   0  0  0  0  0  0  0  0  0  0  0  0
   -6.3548   17.8799  -35.1741 H   0  0  0  0  0  0  0  0  0  0  0  0
   -4.8719   17.6697  -36.1403 H   0  0  0  0  0  0  0  0  0  0  0  0
   -5.8961   16.1294  -33.8115 H   0  0  0  0  0  0  0  0  0  0  0  0
   -4.8011   15.6361  -35.1891 H   0  0  0  0  0  0  0  0  0  0  0  0
   -4.0591   17.0569  -32.6406 H   0  0  0  0  0  0  0  0  0  0  0  0
   -3.6060   15.3817  -33.2116 H   0  0  0  0  0  0  0  0  0  0  0  0
   -2.0014   17.3561  -32.2071 H   0  0  0  0  0  0  0  0  0  0  0  0
   -0.6975   17.1459  -33.4246 H   0  0  0  0  0  0  0  0  0  0  0  0
   -1.6939   18.6405  -33.4246 H   0  0  0  0  0  0  0  0  0  0  0  0
   -1.5379   15.1534  -34.0768 H   0  0  0  0  0  0  0  0  0  0  0  0
   -2.6866   15.3071  -35.4491 H   0  0  0  0  0  0  0  0  0  0  0  0
   -1.1563   16.2478  -35.4491 H   0  0  0  0  0  0  0  0  0  0  0  0
  1  2  1  0
  2  3  1  0
  3  4  2  0
  4  5  1  0
  5  6  1  0
  6  7  2  0
  7  8  1  0
  8  9  2  0
  9 10  1  0
 10 11  2  0
 11 12  1  0
 11 13  1  0
 13 14  1  0
 13 15  2  0
  6 16  1  0
 16 17  2  0
 17 18  1  0
 18 19  1  0
 19 20  1  0
 20 21  2  0
 21 22  1  0
 22 23  1  0
 23 24  1  0
 24 25  1  0
 25 26  1  0
 26 27  1  0
 26 28  1  0
 21  3  1  0
 19  5  2  0
 15  8  1  0
  1 29  1  0
  1 30  1  0
  1 31  1  0
  4 32  1  0
  9 33  1  0
 10 34  1  0
 15 35  1  0
 17 36  1  0
 18 37  1  0
 20 38  1  0
 22 39  1  0
 23 40  1  0
 23 41  1  0
 24 42  1  0
 24 43  1  0
 25 44  1  0
 25 45  1  0
 27 46  1  0
 27 47  1  0
 27 48  1  0
 28 49  1  0
 28 50  1  0
 28 51  1  0
M  END
>  <smiles>  (21) 
COc1cc2c(=Nc3ccc(F)c(Cl)c3)nc[nH]c2cc1NCCCN(C)C

>  <score_type>  (21) 
oracle

>  <origin>  (21) 
adgpu

>  <m_score__min__energy>  (21) 
-7.8899999999999997

>  <m_primary>  (21) 
energy

$$$$
21:0
     RDKit          3D

 38 40  0  0  0  0  0  0  0  0999 V2000
    0.3450   23.5400  -24.8710 C   0  0  0  0  0  0  0  0  0  0  0  0
    0.3980   23.5420  -26.2930 O   0  0  0  0  0  0  0  0  0  0  0  0
   -0.7280   23.4970  -27.1280 C   0  0  0  0  0  0  0  0  0  0  0  0
   -1.6700   22.4530  -27.0700 C   0  0  0  0  0  0  0  0  0  0  0  0
   -2.7770   22.4530  -27.9230 C   0  0  0  0  0  0  0  0  0  0  0  0
   -2.9610   23.4900  -28.8550 C   0  0  0  0  0  0  0  0  0  0  0  0
   -4.1390   23.4860  -29.7520 C   0  0  0  0  0  0  0  0  0  0  0  0
   -5.0380   22.4460  -29.9240 C   0  0  0  0  0  0  0  0  0  0  0  0
   -5.9540   22.8170  -30.8500 N   0  0  0  0  0  0  0  0  0  0  0  0
   -7.0630   22.0350  -31.3360 C   0  0  0  0  0  0  0  0  0  0  0  0
   -8.3410   22.6090  -31.4630 C   0  0  0  0  0  0  0  0  0  0  0  0
   -9.4150   21.8530  -31.9360 C   0  0  0  0  0  0  0  0  0  0  0  0
   -9.2290   20.5150  -32.2860 C   0  0  0  0  0  0  0  0  0  0  0  0
   -7.9700   19.9180  -32.1690 C   0  0  0  0  0  0  0  0  0  0  0  0
   -7.8380   18.5700  -32.5320 O   0  0  0  0  0  0  0  0  0  0  0  0
   -6.6110   17.8460  -32.5080 C   0  0  0  0  0  0  0  0  0  0  0  0
   -6.8880   20.6840  -31.6930 C   0  0  0  0  0  0  0  0  0  0  0  0
   -5.6030   24.0650  -31.2320 C   0  0  0  0  0  0  0  0  0  0  0  0
   -4.5130   24.4890  -30.5710 N   0  0  0  0  0  0  0  0  0  0  0  0
   -3.8450   25.6690  -30.8020 O   0  0  0  0  0  0  0  0  0  0  0  0
   -2.0220   24.5340  -28.9030 C   0  0  0  0  0  0  0  0  0  0  0  0
   -0.9170   24.5330  -28.0480 C   0  0  0  0  0  0  0  0  0  0  0  0
    1.3670   23.5785  -24.4659 H   0  0  0  0  0  0  0  0  0  0  0  0
   -0.2203   24.4175  -24.5239 H   0  0  0  0  0  0  0  0  0  0  0  0
   -0.1526   22.6224  -24.5239 H   0  0  0  0  0  0  0  0  0  0  0  0
   -1.5343   21.6329  -26.3496 H   0  0  0  0  0  0  0  0  0  0  0  0
   -3.5104   21.6352  -27.8650 H   0  0  0  0  0  0  0  0  0  0  0  0
   -5.0121   21.4809  -29.3969 H   0  0  0  0  0  0  0  0  0  0  0  0
   -8.4954   23.6626  -31.1872 H   0  0  0  0  0  0  0  0  0  0  0  0
  -10.4096   22.3128  -32.0330 H   0  0  0  0  0  0  0  0  0  0  0  0
  -10.0800   19.9250  -32.6571 H   0  0  0  0  0  0  0  0  0  0  0  0
   -6.3103   17.6686  -31.4649 H   0  0  0  0  0  0  0  0  0  0  0  0
   -6.7442   16.8817  -33.0203 H   0  0  0  0  0  0  0  0  0  0  0  0
   -5.8313   18.4288  -33.0203 H   0  0  0  0  0  0  0  0  0  0  0  0
   -5.8944   20.2214  -31.5990 H   0  0  0  0  0  0  0  0  0  0  0  0
   -6.1407   24.6574  -31.9870 H   0  0  0  0  0  0  0  0  0  0  0  0
   -2.1578   25.3581  -29.6189 H   0  0  0  0  0  0  0  0  0  0  0  0
   -0.1883   25.3555  -28.0991 H   0  0  0  0  0  0  0  0  0  0  0  0
  1  2  1  0
  2  3  1  0
  3  4  2  0
  4  5  1  0
  5  6  2  0
  6  7  1  0
  7  8  2  0
  8  9  1  0
  9 10  1  0
 10 11  2  0
 11 12  1  0
 12 13  2  0
 13 14  1  0
 14 15  1  0
 15 16  1  0
 14 17  2  0
  9 18  1  0
 18 19  2  0
 19 20  1  0
  6 21  1  0
 21 22  2  0
 22  3  1  0
 19  7  1  0
 17 10  1  0
  1 23  1  0
  1 24  1  0
  1 25  1  0
  4 26  1  0
  5 27  1  0
  8 28  1  0
 11 29  1  0
 12 30  1  0
 13 31  1  0
 16 32  1  0
 16 33  1  0
 16 34  1  0
 17 35  1  0
 18 36  1  0
 21 37  1  0
 22 38  1  0
M  CHG  2  19   1  20  -1
M  END
>  <UniqueID>  (22) 
21

>  <SMILES>  (22) 
COc1ccc(-c2cn(-c3cccc(OC)c3)c[n+]2[O-])cc1

>  <Energy>  (22) 
79.08779136518939

>  <Genealogy>  (22) 
COc1ccc(-c2cn(-c3cccc(OC)c3)c[n+]2[O-])cc1 (3D coordinates assigned)
COc1ccc(-c2cn(-c3cccc(OC)c3)c[n+]2[O-])cc1 (optimized conformer: 79.08779136518939 kcal/mol)

>  <smiles>  (22) 
COc1ccc(-c2cn(-c3cccc(OC)c3)c[n+]2[O-])cc1

>  <score_type>  (22) 
oracle

>  <origin>  (22) 
adgpu

>  <m_score__min__energy>  (22) 
-8.7699999999999996

>  <m_primary>  (22) 
energy

$$$$
22:0
     RDKit          3D

 28 29  0  0  0  0  0  0  0  0999 V2000
   -2.7460   25.2730  -26.3640 C   0  0  0  0  0  0  0  0  0  0  0  0
   -3.9990   24.2600  -27.2070 S   0  0  0  0  0  0  0  0  0  0  0  0
   -2.7950   23.4200  -28.2510 C   0  0  0  0  0  0  0  0  0  0  0  0
   -1.7310   22.7510  -27.6310 C   0  0  0  0  0  0  0  0  0  0  0  0
   -0.8030   22.0390  -28.3950 C   0  0  0  0  0  0  0  0  0  0  0  0
   -0.9350   21.9840  -29.7820 C   0  0  0  0  0  0  0  0  0  0  0  0
   -1.9890   22.6500  -30.4130 C   0  0  0  0  0  0  0  0  0  0  0  0
   -2.9170   23.3880  -29.6600 C   0  0  0  0  0  0  0  0  0  0  0  0
   -4.0150   24.0820  -30.3680 C   0  0  0  0  0  0  0  0  0  0  0  0
   -3.8780   25.3070  -30.6350 O   0  0  0  0  0  0  0  0  0  0  0  0
   -5.2750   23.3900  -30.7390 C   0  0  0  0  0  0  0  0  0  0  0  0
   -5.3890   22.7540  -31.9880 C   0  0  0  0  0  0  0  0  0  0  0  0
   -6.5720   22.1020  -32.3470 C   0  0  0  0  0  0  0  0  0  0  0  0
   -7.6570   22.0830  -31.4660 C   0  0  0  0  0  0  0  0  0  0  0  0
   -9.1410   21.2630  -31.9170 Cl  0  0  0  0  0  0  0  0  0  0  0  0
   -7.5600   22.7200  -30.2260 C   0  0  0  0  0  0  0  0  0  0  0  0
   -6.3790   23.3740  -29.8640 C   0  0  0  0  0  0  0  0  0  0  0  0
   -2.8672   25.1750  -25.2751 H   0  0  0  0  0  0  0  0  0  0  0  0
   -1.7418   24.9299  -26.6535 H   0  0  0  0  0  0  0  0  0  0  0  0
   -2.8711   26.3268  -26.6535 H   0  0  0  0  0  0  0  0  0  0  0  0
   -1.6259   22.7867  -26.5366 H   0  0  0  0  0  0  0  0  0  0  0  0
    0.0328   21.5212  -27.9018 H   0  0  0  0  0  0  0  0  0  0  0  0
   -0.2081   21.4153  -30.3806 H   0  0  0  0  0  0  0  0  0  0  0  0
   -2.0926   22.5959  -31.5068 H   0  0  0  0  0  0  0  0  0  0  0  0
   -4.5405   22.7698  -32.6879 H   0  0  0  0  0  0  0  0  0  0  0  0
   -6.6493   21.6031  -33.3243 H   0  0  0  0  0  0  0  0  0  0  0  0
   -8.4146   22.7067  -29.5336 H   0  0  0  0  0  0  0  0  0  0  0  0
   -6.3111   23.8796  -28.8894 H   0  0  0  0  0  0  0  0  0  0  0  0
  1  2  1  0
  2  3  1  0
  3  4  2  0
  4  5  1  0
  5  6  2  0
  6  7  1  0
  7  8  2  0
  8  9  1  0
  9 10  2  0
  9 11  1  0
 11 12  2  0
 12 13  1  0
 13 14  2  0
 14 15  1  0
 14 16  1  0
 16 17  2  0
  8  3  1  0
 17 11  1  0
  1 18  1  0
  1 19  1  0
  1 20  1  0
  4 21  1  0
  5 22  1  0
  6 23  1  0
  7 24  1  0
 12 25  1  0
 13 26  1  0
 16 27  1  0
 17 28  1  0
M  END
>  <UniqueID>  (23) 
22

>  <SMILES>  (23) 
CSc1ccccc1C(=O)c1ccc(Cl)cc1

>  <Energy>  (23) 
32.64377615176261

>  <Genealogy>  (23) 
CSc1ccccc1C(=O)c1ccc(Cl)cc1 (3D coordinates assigned)
CSc1ccccc1C(=O)c1ccc(Cl)cc1 (optimized conformer: 32.64377615176261 kcal/mol)

>  <smiles>  (23) 
CSc1ccccc1C(=O)c1ccc(Cl)cc1

>  <score_type>  (23) 
oracle

>  <origin>  (23) 
adgpu

>  <m_score__min__energy>  (23) 
-7.2800000000000002

>  <m_primary>  (23) 
energy

$$$$
23:0
     RDKit          3D

 38 40  0  0  0  0  0  0  0  0999 V2000
    1.4100   24.5290  -27.4450 C   0  0  0  0  0  0  0  0  0  0  0  0
    0.2660   24.9490  -28.1860 O   0  0  0  0  0  0  0  0  0  0  0  0
   -1.0610   24.8370  -27.7320 C   0  0  0  0  0  0  0  0  0  0  0  0
   -1.5600   25.6540  -26.6980 C   0  0  0  0  0  0  0  0  0  0  0  0
   -2.8720   25.4930  -26.2390 C   0  0  0  0  0  0  0  0  0  0  0  0
   -3.6960   24.5160  -26.7970 C   0  0  0  0  0  0  0  0  0  0  0  0
   -3.2180   23.7050  -27.8310 C   0  0  0  0  0  0  0  0  0  0  0  0
   -1.9130   23.8760  -28.3250 C   0  0  0  0  0  0  0  0  0  0  0  0
   -1.4460   22.9760  -29.4030 C   0  0  0  0  0  0  0  0  0  0  0  0
   -2.1310   22.6780  -30.5210 C   0  0  0  0  0  0  0  0  0  0  0  0
   -3.4950   23.1430  -30.8320 C   0  0  0  0  0  0  0  0  0  0  0  0
   -3.8550   24.4430  -30.8430 N   0  0  0  0  0  0  0  0  0  0  0  0
   -5.1470   24.4740  -31.1370 N   0  0  0  0  0  0  0  0  0  0  0  0
   -5.5190   23.1900  -31.2990 C   0  0  0  0  0  0  0  0  0  0  0  0
   -7.1500   22.6720  -31.6520 S   0  0  0  0  0  0  0  0  0  0  0  0
   -7.9810   22.7380  -30.3980 O   0  0  0  0  0  0  0  0  0  0  0  0
   -7.7590   23.5680  -32.6950 O   0  0  0  0  0  0  0  0  0  0  0  0
   -7.0930   21.0170  -32.2560 C   0  0  0  0  0  0  0  0  0  0  0  0
   -8.0730   20.0860  -31.8790 C   0  0  0  0  0  0  0  0  0  0  0  0
   -7.9950   18.7630  -32.3250 C   0  0  0  0  0  0  0  0  0  0  0  0
   -6.9290   18.3570  -33.1370 C   0  0  0  0  0  0  0  0  0  0  0  0
   -6.8180   16.6880  -33.6680 Cl  0  0  0  0  0  0  0  0  0  0  0  0
   -5.9490   19.2840  -33.5150 C   0  0  0  0  0  0  0  0  0  0  0  0
   -6.0290   20.6100  -33.0750 C   0  0  0  0  0  0  0  0  0  0  0  0
   -4.5120   22.3700  -31.1230 O   0  0  0  0  0  0  0  0  0  0  0  0
    1.1983   24.6067  -26.3684 H   0  0  0  0  0  0  0  0  0  0  0  0
    1.6475   23.4851  -27.6976 H   0  0  0  0  0  0  0  0  0  0  0  0
    2.2665   25.1713  -27.6976 H   0  0  0  0  0  0  0  0  0  0  0  0
   -0.9142   26.4230  -26.2490 H   0  0  0  0  0  0  0  0  0  0  0  0
   -3.2547   26.1392  -25.4353 H   0  0  0  0  0  0  0  0  0  0  0  0
   -4.7222   24.3833  -26.4237 H   0  0  0  0  0  0  0  0  0  0  0  0
   -3.8674   22.9281  -28.2607 H   0  0  0  0  0  0  0  0  0  0  0  0
   -0.4562   22.5123  -29.2794 H   0  0  0  0  0  0  0  0  0  0  0  0
   -1.6339   22.0359  -31.2630 H   0  0  0  0  0  0  0  0  0  0  0  0
   -8.9051   20.3979  -31.2307 H   0  0  0  0  0  0  0  0  0  0  0  0
   -8.7725   18.0399  -32.0374 H   0  0  0  0  0  0  0  0  0  0  0  0
   -5.1148   18.9689  -34.1591 H   0  0  0  0  0  0  0  0  0  0  0  0
   -5.2563   21.3345  -33.3718 H   0  0  0  0  0  0  0  0  0  0  0  0
  1  2  1  0
  2  3  1  0
  3  4  2  0
  4  5  1  0
  5  6  2  0
  6  7  1  0
  7  8  2  0
  8  9  1  0
  9 10  2  3
 10 11  1  0
 11 12  2  0
 12 13  1  0
 13 14  2  0
 14 15  1  0
 15 16  2  0
 15 17  2  0
 15 18  1  0
 18 19  2  0
 19 20  1  0
 20 21  2  0
 21 22  1  0
 21 23  1  0
 23 24  2  0
 14 25  1  0
  8  3  1  0
 25 11  1  0
 24 18  1  0
  1 26  1  0
  1 27  1  0
  1 28  1  0
  4 29  1  0
  5 30  1  0
  6 31  1  0
  7 32  1  0
  9 33  1  0
 10 34  1  0
 19 35  1  0
 20 36  1  0
 23 37  1  0
 24 38  1  0
M  END
>  <UniqueID>  (24) 
23

>  <SMILES>  (24) 
COc1ccccc1C=Cc1nnc(S(=O)(=O)c2ccc(Cl)cc2)o1

>  <Energy>  (24) 
79.24009763567179

>  <Genealogy>  (24) 
COc1ccccc1C=Cc1nnc(S(=O)(=O)c2ccc(Cl)cc2)o1 (3D coordinates assigned)
COc1ccccc1C=Cc1nnc(S(=O)(=O)c2ccc(Cl)cc2)o1 (optimized conformer: 79.24009763567179 kcal/mol)

>  <smiles>  (24) 
COc1ccccc1C=Cc1nnc(S(=O)(=O)c2ccc(Cl)cc2)o1

>  <score_type>  (24) 
oracle

>  <origin>  (24) 
adgpu

>  <m_score__min__energy>  (24) 
-9.5199999999999996

>  <m_primary>  (24) 
energy

$$$$
24:0
     RDKit          3D

 52 55  0  0  0  0  0  0  0  0999 V2000
    0.6780   18.9030  -36.0990 C   0  0  0  0  0  0  0  0  0  0  0  0
    0.2990   19.0500  -34.7340 O   0  0  0  0  0  0  0  0  0  0  0  0
   -0.9810   19.4280  -34.3050 C   0  0  0  0  0  0  0  0  0  0  0  0
   -1.2000   20.7680  -33.9660 C   0  0  0  0  0  0  0  0  0  0  0  0
   -2.4550   21.1940  -33.5250 C   0  0  0  0  0  0  0  0  0  0  0  0
   -3.5200   20.2840  -33.4300 C   0  0  0  0  0  0  0  0  0  0  0  0
   -4.8400   20.7120  -32.9180 C   0  0  0  0  0  0  0  0  0  0  0  0
   -6.0020   20.2210  -33.3810 N   0  0  0  0  0  0  0  0  0  0  0  0
   -6.9440   20.7000  -32.5480 C   0  0  0  0  0  0  0  0  0  0  0  0
   -8.6720   20.2440  -32.6540 S   0  0  0  0  0  0  0  0  0  0  0  0
   -8.4820   18.7440  -31.6280 C   0  0  0  0  0  0  0  0  0  0  0  0
   -7.3410   17.8960  -32.1200 C   0  0  0  0  0  0  0  0  0  0  0  0
   -7.2510   17.5220  -33.4700 C   0  0  0  0  0  0  0  0  0  0  0  0
   -6.2080   16.6990  -33.8980 C   0  0  0  0  0  0  0  0  0  0  0  0
   -5.2620   16.2560  -32.9720 C   0  0  0  0  0  0  0  0  0  0  0  0
   -5.3620   16.6220  -31.6660 N   0  0  0  0  0  0  0  0  0  0  0  0
   -6.3690   17.4220  -31.2240 C   0  0  0  0  0  0  0  0  0  0  0  0
   -6.4480   21.4970  -31.5790 N   0  0  0  0  0  0  0  0  0  0  0  0
   -5.1190   21.5100  -31.8150 C   0  0  0  0  0  0  0  0  0  0  0  0
   -4.1730   22.3130  -31.0110 C   0  0  0  0  0  0  0  0  0  0  0  0
   -3.0100   21.7170  -30.5010 C   0  0  0  0  0  0  0  0  0  0  0  0
   -2.1140   22.4610  -29.7250 C   0  0  0  0  0  0  0  0  0  0  0  0
   -2.3790   23.8080  -29.4390 C   0  0  0  0  0  0  0  0  0  0  0  0
   -1.2510   24.7610  -28.4820 S   0  0  0  0  0  0  0  0  0  0  0  0
   -1.7570   24.7280  -26.7760 C   0  0  0  0  0  0  0  0  0  0  0  0
   -1.2350   26.1870  -28.9590 O   0  0  0  0  0  0  0  0  0  0  0  0
    0.1320   24.1900  -28.6130 O   0  0  0  0  0  0  0  0  0  0  0  0
   -3.5470   24.4020  -29.9330 C   0  0  0  0  0  0  0  0  0  0  0  0
   -4.4440   23.6580  -30.7070 C   0  0  0  0  0  0  0  0  0  0  0  0
   -3.3010   18.9370  -33.7560 C   0  0  0  0  0  0  0  0  0  0  0  0
   -2.0440   18.5110  -34.1970 C   0  0  0  0  0  0  0  0  0  0  0  0
    1.7023   18.5057  -36.1544 H   0  0  0  0  0  0  0  0  0  0  0  0
   -0.0126   18.2075  -36.5984 H   0  0  0  0  0  0  0  0  0  0  0  0
    0.6370   19.8822  -36.5984 H   0  0  0  0  0  0  0  0  0  0  0  0
   -0.3762   21.4924  -34.0476 H   0  0  0  0  0  0  0  0  0  0  0  0
   -2.6098   22.2479  -33.2507 H   0  0  0  0  0  0  0  0  0  0  0  0
   -6.1420   19.5470  -34.1650 H   0  0  0  0  0  0  0  0  0  0  0  0
   -8.2861   19.0422  -30.5875 H   0  0  0  0  0  0  0  0  0  0  0  0
   -9.4092   18.1556  -31.6919 H   0  0  0  0  0  0  0  0  0  0  0  0
   -8.0023   17.8775  -34.1905 H   0  0  0  0  0  0  0  0  0  0  0  0
   -6.1323   16.4024  -34.9546 H   0  0  0  0  0  0  0  0  0  0  0  0
   -4.4342   15.6097  -33.2992 H   0  0  0  0  0  0  0  0  0  0  0  0
   -6.4224   17.6988  -30.1607 H   0  0  0  0  0  0  0  0  0  0  0  0
   -2.8009   20.6579  -30.7124 H   0  0  0  0  0  0  0  0  0  0  0  0
   -1.1993   21.9879  -29.3383 H   0  0  0  0  0  0  0  0  0  0  0  0
   -0.8692   24.7859  -26.1291 H   0  0  0  0  0  0  0  0  0  0  0  0
   -2.4157   25.5851  -26.5723 H   0  0  0  0  0  0  0  0  0  0  0  0
   -2.2988   23.7926  -26.5723 H   0  0  0  0  0  0  0  0  0  0  0  0
   -3.7601   25.4582  -29.7115 H   0  0  0  0  0  0  0  0  0  0  0  0
   -5.3661   24.1282  -31.0795 H   0  0  0  0  0  0  0  0  0  0  0  0
   -4.1229   18.2117  -33.6642 H   0  0  0  0  0  0  0  0  0  0  0  0
   -1.8851   17.4549  -34.4606 H   0  0  0  0  0  0  0  0  0  0  0  0
  1  2  1  0
  2  3  1  0
  3  4  2  0
  4  5  1  0
  5  6  2  0
  6  7  1  0
  7  8  1  0
  8  9  1  0
  9 10  1  0
 10 11  1  0
 11 12  1  0
 12 13  2  0
 13 14  1  0
 14 15  2  0
 15 16  1  0
 16 17  2  0
  9 18  2  0
 18 19  1  0
 19 20  1  0
 20 21  2  0
 21 22  1  0
 22 23  2  0
 23 24  1  0
 24 25  1  0
 24 26  2  0
 24 27  2  0
 23 28  1  0
 28 29  2  0
  6 30  1  0
 30 31  2  0
 31  3  1  0
 19  7  2  0
 29 20  1  0
 17 12  1  0
  1 32  1  0
  1 33  1  0
  1 34  1  0
  4 35  1  0
  5 36  1  0
  8 37  1  0
 11 38  1  0
 11 39  1  0
 13 40  1  0
 14 41  1  0
 15 42  1  0
 17 43  1  0
 21 44  1  0
 22 45  1  0
 25 46  1  0
 25 47  1  0
 25 48  1  0
 28 49  1  0
 29 50  1  0
 30 51  1  0
 31 52  1  0
M  END
>  <UniqueID>  (25) 
24

>  <SMILES>  (25) 
COc1ccc(-c2[nH]c(SCc3cccnc3)nc2-c2ccc(S(C)(=O)=O)cc2)cc1

>  <Energy>  (25) 
84.63044824854212

>  <Genealogy>  (25) 
COc1ccc(-c2[nH]c(SCc3cccnc3)nc2-c2ccc(S(C)(=O)=O)cc2)cc1 (3D coordinates assigned)
COc1ccc(-c2[nH]c(SCc3cccnc3)nc2-c2ccc(S(C)(=O)=O)cc2)cc1 (optimized conformer: 84.63044824854212 kcal/mol)

>  <smiles>  (25) 
COc1ccc(-c2[nH]c(SCc3cccnc3)nc2-c2ccc(S(C)(=O)=O)cc2)cc1

>  <score_type>  (25) 
oracle

>  <origin>  (25) 
adgpu

>  <m_score__min__energy>  (25) 
-9.3599999999999994

>  <m_primary>  (25) 
energy

$$$$
25:0
     RDKit          3D

 36 38  0  0  0  0  0  0  0  0999 V2000
   -0.7040   27.5802  -22.4096 H   0  0  0  0  0  0  0  0  0  0  0  0
   -0.5280   27.1580  -23.4100 C   0  0  0  0  0  0  0  0  0  0  0  0
   -0.0260   27.9690  -24.4330 C   0  0  0  0  0  0  0  0  0  0  0  0
    0.1953   29.0282  -24.2353 H   0  0  0  0  0  0  0  0  0  0  0  0
    0.1950   27.4360  -25.7060 C   0  0  0  0  0  0  0  0  0  0  0  0
    0.5980   28.0751  -26.5055 H   0  0  0  0  0  0  0  0  0  0  0  0
   -0.0960   26.0860  -25.9680 C   0  0  0  0  0  0  0  0  0  0  0  0
    0.1750   25.5020  -27.3270 C   0  0  0  0  0  0  0  0  0  0  0  0
    0.5103   24.4603  -27.2157 H   0  0  0  0  0  0  0  0  0  0  0  0
    0.9568   26.0939  -27.8254 H   0  0  0  0  0  0  0  0  0  0  0  0
   -1.0700   25.5360  -28.1550 C   0  0  0  0  0  0  0  0  0  0  0  0
   -1.2460   26.4810  -28.9720 O   0  0  0  0  0  0  0  0  0  0  0  0
   -2.0190   24.4640  -28.0410 N   0  0  0  0  0  0  0  0  0  0  0  0
   -2.9820   24.2030  -28.8740 C   0  0  0  0  0  0  0  0  0  0  0  0
   -3.2410   24.9140  -29.9930 N   0  0  0  0  0  0  0  0  0  0  0  0
   -4.2820   24.4420  -30.6770 N   0  0  0  0  0  0  0  0  0  0  0  0
   -4.8580   23.3550  -30.1110 C   0  0  0  0  0  0  0  0  0  0  0  0
   -6.0290   22.6560  -30.6900 C   0  0  0  0  0  0  0  0  0  0  0  0
   -5.9240   21.9450  -31.8990 C   0  0  0  0  0  0  0  0  0  0  0  0
   -4.9594   21.9050  -32.4262 H   0  0  0  0  0  0  0  0  0  0  0  0
   -7.0350   21.2890  -32.4360 C   0  0  0  0  0  0  0  0  0  0  0  0
   -6.9419   20.7446  -33.3873 H   0  0  0  0  0  0  0  0  0  0  0  0
   -8.2670   21.3210  -31.7690 C   0  0  0  0  0  0  0  0  0  0  0  0
   -9.4660   20.6470  -32.3690 C   0  0  0  0  0  0  0  0  0  0  0  0
  -10.1204   20.2791  -31.5650 H   0  0  0  0  0  0  0  0  0  0  0  0
  -10.0183   21.3668  -32.9909 H   0  0  0  0  0  0  0  0  0  0  0  0
   -9.1381   19.8010  -32.9909 H   0  0  0  0  0  0  0  0  0  0  0  0
   -8.3830   22.0430  -30.5730 C   0  0  0  0  0  0  0  0  0  0  0  0
   -9.3527   22.0934  -30.0561 H   0  0  0  0  0  0  0  0  0  0  0  0
   -7.2730   22.6990  -30.0340 C   0  0  0  0  0  0  0  0  0  0  0  0
   -7.3726   23.2535  -29.0892 H   0  0  0  0  0  0  0  0  0  0  0  0
   -4.0590   22.9290  -28.6820 S   0  0  0  0  0  0  0  0  0  0  0  0
   -0.5880   25.2730  -24.9320 C   0  0  0  0  0  0  0  0  0  0  0  0
   -0.8021   24.2110  -25.1227 H   0  0  0  0  0  0  0  0  0  0  0  0
   -0.8060   25.8110  -23.6590 C   0  0  0  0  0  0  0  0  0  0  0  0
   -1.1968   25.1729  -22.8528 H   0  0  0  0  0  0  0  0  0  0  0  0
  1  2  1  0
  2  3  2  0
  3  4  1  0
  3  5  1  0
  5  6  1  0
  5  7  2  0
  7  8  1  0
  8  9  1  0
  8 10  1  0
  8 11  1  0
 11 12  2  0
 11 13  1  0
 13 14  2  0
 14 15  1  0
 15 16  1  0
 16 17  2  0
 17 18  1  0
 18 19  2  0
 19 20  1  0
 19 21  1  0
 21 22  1  0
 21 23  2  0
 23 24  1  0
 24 25  1  0
 24 26  1  0
 24 27  1  0
 23 28  1  0
 28 29  1  0
 28 30  2  0
 30 31  1  0
 17 32  1  0
  7 33  1  0
 33 34  1  0
 33 35  2  0
 35 36  1  0
 35  2  1  0
 32 14  1  0
 30 18  1  0
M  CHG  1  15  -1
M  END
>  <UniqueID>  (26) 
25

>  <SMILES>  (26) 
Cc1ccc(-c2n[n-]/c(=N\C(=O)Cc3ccccc3)s2)cc1

>  <Energy>  (26) 
72.97494541911195

>  <Genealogy>  (26) 
Cc1ccc(-c2n[n-]c(=NC(=O)Cc3ccccc3)s2)cc1 (protonated)
Cc1ccc(-c2n[n-]/c(=N\C(=O)Cc3ccccc3)s2)cc1 (cis-trans isomerization)
Cc1ccc(-c2n[n-]/c(=N\C(=O)Cc3ccccc3)s2)cc1 (3D coordinates assigned)
Cc1ccc(-c2n[n-]/c(=N\C(=O)Cc3ccccc3)s2)cc1 (optimized conformer: 72.97494541911195 kcal/mol)

>  <smiles>  (26) 
Cc1ccc(-c2n[nH]c(=NC(=O)Cc3ccccc3)s2)cc1

>  <score_type>  (26) 
oracle

>  <origin>  (26) 
adgpu

>  <m_score__min__energy>  (26) 
-9.8000000000000007

>  <m_primary>  (26) 
energy

$$$$
26:0
     RDKit          3D

 48 50  0  0  0  0  0  0  0  0999 V2000
   -1.4330   25.4870  -27.8180 C   0  0  0  0  0  0  0  0  0  0  0  0
   -1.9670   25.3100  -29.1270 O   0  0  0  0  0  0  0  0  0  0  0  0
   -2.3950   24.0800  -29.6500 C   0  0  0  0  0  0  0  0  0  0  0  0
   -1.7180   22.8760  -29.3810 C   0  0  0  0  0  0  0  0  0  0  0  0
   -2.1770   21.6720  -29.9170 C   0  0  0  0  0  0  0  0  0  0  0  0
   -3.3300   21.6400  -30.7140 C   0  0  0  0  0  0  0  0  0  0  0  0
   -3.8270   20.3340  -31.3030 C   0  0  0  0  0  0  0  0  0  0  0  0
   -4.3020   20.4330  -32.7030 N   0  0  0  0  0  0  0  0  0  0  0  0
   -3.3090   19.9570  -33.6830 C   0  0  0  0  0  0  0  0  0  0  0  0
   -1.9230   20.1650  -33.1610 C   0  0  0  0  0  0  0  0  0  0  0  0
   -1.0850   19.1820  -32.6740 C   0  0  0  0  0  0  0  0  0  0  0  0
    0.0730   19.8330  -32.3060 C   0  0  0  0  0  0  0  0  0  0  0  0
   -0.1320   21.1680  -32.5840 C   0  0  0  0  0  0  0  0  0  0  0  0
   -1.3320   21.3360  -33.0920 O   0  0  0  0  0  0  0  0  0  0  0  0
   -5.8630   19.6720  -32.9490 S   0  0  0  0  0  0  0  0  0  0  0  0
   -5.9500   18.4110  -32.1320 O   0  0  0  0  0  0  0  0  0  0  0  0
   -6.0310   19.3150  -34.3990 O   0  0  0  0  0  0  0  0  0  0  0  0
   -7.1720   20.7700  -32.5110 C   0  0  0  0  0  0  0  0  0  0  0  0
   -6.9130   22.1360  -32.3180 C   0  0  0  0  0  0  0  0  0  0  0  0
   -7.9510   23.0070  -31.9760 C   0  0  0  0  0  0  0  0  0  0  0  0
   -9.2490   22.5190  -31.8100 C   0  0  0  0  0  0  0  0  0  0  0  0
   -9.5110   21.1560  -31.9810 C   0  0  0  0  0  0  0  0  0  0  0  0
   -8.4750   20.2800  -32.3240 C   0  0  0  0  0  0  0  0  0  0  0  0
   -8.7450   18.9590  -32.4760 F   0  0  0  0  0  0  0  0  0  0  0  0
   -3.9930   22.8440  -31.0030 C   0  0  0  0  0  0  0  0  0  0  0  0
   -3.5340   24.0660  -30.4710 C   0  0  0  0  0  0  0  0  0  0  0  0
   -4.1760   25.2850  -30.7390 O   0  0  0  0  0  0  0  0  0  0  0  0
   -5.5550   25.5430  -30.4930 C   0  0  0  0  0  0  0  0  0  0  0  0
   -2.2000   25.2328  -27.0716 H   0  0  0  0  0  0  0  0  0  0  0  0
   -0.5608   24.8299  -27.6859 H   0  0  0  0  0  0  0  0  0  0  0  0
   -1.1259   26.5350  -27.6859 H   0  0  0  0  0  0  0  0  0  0  0  0
   -0.8212   22.8839  -28.7441 H   0  0  0  0  0  0  0  0  0  0  0  0
   -1.6295   20.7401  -29.7124 H   0  0  0  0  0  0  0  0  0  0  0  0
   -3.0025   19.6066  -31.2705 H   0  0  0  0  0  0  0  0  0  0  0  0
   -4.6942   20.0283  -30.6992 H   0  0  0  0  0  0  0  0  0  0  0  0
   -3.4691   18.8849  -33.8702 H   0  0  0  0  0  0  0  0  0  0  0  0
   -3.4282   20.5249  -34.6175 H   0  0  0  0  0  0  0  0  0  0  0  0
   -1.2968   18.1054  -32.5960 H   0  0  0  0  0  0  0  0  0  0  0  0
    0.9784   19.3789  -31.8769 H   0  0  0  0  0  0  0  0  0  0  0  0
    0.5987   21.9710  -32.4072 H   0  0  0  0  0  0  0  0  0  0  0  0
   -5.8898   22.5221  -32.4363 H   0  0  0  0  0  0  0  0  0  0  0  0
   -7.7454   24.0787  -31.8373 H   0  0  0  0  0  0  0  0  0  0  0  0
  -10.0654   23.2069  -31.5447 H   0  0  0  0  0  0  0  0  0  0  0  0
  -10.5329   20.7719  -31.8457 H   0  0  0  0  0  0  0  0  0  0  0  0
   -4.8809   22.8332  -31.6522 H   0  0  0  0  0  0  0  0  0  0  0  0
   -5.7339   25.5765  -29.4082 H   0  0  0  0  0  0  0  0  0  0  0  0
   -5.8329   26.5087  -30.9404 H   0  0  0  0  0  0  0  0  0  0  0  0
   -6.1632   24.7431  -30.9404 H   0  0  0  0  0  0  0  0  0  0  0  0
  1  2  1  0
  2  3  1  0
  3  4  2  0
  4  5  1  0
  5  6  2  0
  6  7  1  0
  7  8  1  0
  8  9  1  0
  9 10  1  0
 10 11  2  0
 11 12  1  0
 12 13  2  0
 13 14  1  0
  8 15  1  0
 15 16  2  0
 15 17  2  0
 15 18  1  0
 18 19  2  0
 19 20  1  0
 20 21  2  0
 21 22  1  0
 22 23  2  0
 23 24  1  0
  6 25  1  0
 25 26  2  0
 26 27  1  0
 27 28  1  0
 26  3  1  0
 14 10  1  0
 23 18  1  0
  1 29  1  0
  1 30  1  0
  1 31  1  0
  4 32  1  0
  5 33  1  0
  7 34  1  0
  7 35  1  0
  9 36  1  0
  9 37  1  0
 11 38  1  0
 12 39  1  0
 13 40  1  0
 19 41  1  0
 20 42  1  0
 21 43  1  0
 22 44  1  0
 25 45  1  0
 28 46  1  0
 28 47  1  0
 28 48  1  0
M  END
>  <UniqueID>  (27) 
26

>  <SMILES>  (27) 
COc1ccc(CN(Cc2ccco2)S(=O)(=O)c2ccccc2F)cc1OC

>  <Energy>  (27) 
75.76644866094414

>  <Genealogy>  (27) 
COc1ccc(CN(Cc2ccco2)S(=O)(=O)c2ccccc2F)cc1OC (3D coordinates assigned)
COc1ccc(CN(Cc2ccco2)S(=O)(=O)c2ccccc2F)cc1OC (optimized conformer: 75.76644866094414 kcal/mol)

>  <smiles>  (27) 
COc1ccc(CN(Cc2ccco2)S(=O)(=O)c2ccccc2F)cc1OC

>  <score_type>  (27) 
oracle

>  <origin>  (27) 
adgpu

>  <m_score__min__energy>  (27) 
-9.0099999999999998

>  <m_primary>  (27) 
energy

$$$$
27:0
     RDKit          3D

 42 44  0  0  0  0  0  0  0  0999 V2000
   -1.2060   25.2010  -29.3320 N   0  0  0  0  0  0  0  0  0  0  0  0
   -1.3740   24.0500  -28.4940 C   0  0  0  0  0  0  0  0  0  0  0  0
   -0.6530   23.9760  -27.2920 C   0  0  0  0  0  0  0  0  0  0  0  0
   -0.8130   22.8870  -26.4340 C   0  0  0  0  0  0  0  0  0  0  0  0
   -1.6900   21.8580  -26.7700 C   0  0  0  0  0  0  0  0  0  0  0  0
   -2.4070   21.9110  -27.9660 C   0  0  0  0  0  0  0  0  0  0  0  0
   -2.2590   23.0020  -28.8450 C   0  0  0  0  0  0  0  0  0  0  0  0
   -2.9100   22.9900  -30.1310 N   0  0  0  0  0  0  0  0  0  0  0  0
   -3.9220   23.9340  -30.5070 C   0  0  0  0  0  0  0  0  0  0  0  0
   -3.6910   25.1690  -30.4060 O   0  0  0  0  0  0  0  0  0  0  0  0
   -5.2290   23.4630  -31.0180 C   0  0  0  0  0  0  0  0  0  0  0  0
   -6.3910   24.2150  -30.7740 C   0  0  0  0  0  0  0  0  0  0  0  0
   -7.6270   23.7820  -31.2590 C   0  0  0  0  0  0  0  0  0  0  0  0
   -7.7180   22.5940  -31.9870 C   0  0  0  0  0  0  0  0  0  0  0  0
   -6.5750   21.8250  -32.2200 C   0  0  0  0  0  0  0  0  0  0  0  0
   -5.3260   22.2450  -31.7270 C   0  0  0  0  0  0  0  0  0  0  0  0
   -4.1660   21.4760  -31.8960 O   0  0  0  0  0  0  0  0  0  0  0  0
   -3.8580   20.6600  -33.0170 C   0  0  0  0  0  0  0  0  0  0  0  0
   -4.7640   19.4670  -32.9770 C   0  0  0  0  0  0  0  0  0  0  0  0
   -5.2720   19.0100  -31.7490 C   0  0  0  0  0  0  0  0  0  0  0  0
   -6.2040   17.9670  -31.7150 C   0  0  0  0  0  0  0  0  0  0  0  0
   -6.6450   17.3850  -32.9060 C   0  0  0  0  0  0  0  0  0  0  0  0
   -6.1590   17.8450  -34.1320 C   0  0  0  0  0  0  0  0  0  0  0  0
   -5.2280   18.8880  -34.1700 C   0  0  0  0  0  0  0  0  0  0  0  0
   -2.0380   25.6770  -29.7490 H   0  0  0  0  0  0  0  0  0  0  0  0
   -0.2660   25.5460  -29.6210 H   0  0  0  0  0  0  0  0  0  0  0  0
    0.0443   24.7834  -27.0239 H   0  0  0  0  0  0  0  0  0  0  0  0
   -0.2465   22.8411  -25.4922 H   0  0  0  0  0  0  0  0  0  0  0  0
   -1.8175   21.0019  -26.0911 H   0  0  0  0  0  0  0  0  0  0  0  0
   -3.0948   21.0926  -28.2251 H   0  0  0  0  0  0  0  0  0  0  0  0
   -2.8100   22.1410  -30.7320 H   0  0  0  0  0  0  0  0  0  0  0  0
   -6.3266   25.1498  -30.1978 H   0  0  0  0  0  0  0  0  0  0  0  0
   -8.5311   24.3784  -31.0670 H   0  0  0  0  0  0  0  0  0  0  0  0
   -8.6915   22.2629  -32.3778 H   0  0  0  0  0  0  0  0  0  0  0  0
   -6.6519   20.8879  -32.7909 H   0  0  0  0  0  0  0  0  0  0  0  0
   -4.0225   21.2240  -33.9470 H   0  0  0  0  0  0  0  0  0  0  0  0
   -2.8048   20.3442  -32.9850 H   0  0  0  0  0  0  0  0  0  0  0  0
   -4.9354   19.4744  -30.8103 H   0  0  0  0  0  0  0  0  0  0  0  0
   -6.5895   17.6052  -30.7504 H   0  0  0  0  0  0  0  0  0  0  0  0
   -7.3759   16.5634  -32.8782 H   0  0  0  0  0  0  0  0  0  0  0  0
   -6.5089   17.3865  -35.0687 H   0  0  0  0  0  0  0  0  0  0  0  0
   -4.8575   19.2565  -35.1380 H   0  0  0  0  0  0  0  0  0  0  0  0
  1  2  1  0
  2  3  2  0
  3  4  1  0
  4  5  2  0
  5  6  1  0
  6  7  2  0
  7  8  1  0
  8  9  1  0
  9 10  2  0
  9 11  1  0
 11 12  2  0
 12 13  1  0
 13 14  2  0
 14 15  1  0
 15 16  2  0
 16 17  1  0
 17 18  1  0
 18 19  1  0
 19 20  2  0
 20 21  1  0
 21 22  2  0
 22 23  1  0
 23 24  2  0
  7  2  1  0
 16 11  1  0
 24 19  1  0
  1 25  1  0
  1 26  1  0
  3 27  1  0
  4 28  1  0
  5 29  1  0
  6 30  1  0
  8 31  1  0
 12 32  1  0
 13 33  1  0
 14 34  1  0
 15 35  1  0
 18 36  1  0
 18 37  1  0
 20 38  1  0
 21 39  1  0
 22 40  1  0
 23 41  1  0
 24 42  1  0
M  END
>  <UniqueID>  (28) 
27

>  <SMILES>  (28) 
Nc1ccccc1NC(=O)c1ccccc1OCc1ccccc1

>  <Energy>  (28) 
49.773784521275225

>  <Genealogy>  (28) 
Nc1ccccc1NC(=O)c1ccccc1OCc1ccccc1 (3D coordinates assigned)
Nc1ccccc1NC(=O)c1ccccc1OCc1ccccc1 (optimized conformer: 49.773784521275225 kcal/mol)

>  <smiles>  (28) 
Nc1ccccc1NC(=O)c1ccccc1OCc1ccccc1

>  <score_type>  (28) 
oracle

>  <origin>  (28) 
adgpu

>  <m_score__min__energy>  (28) 
-8.6199999999999992

>  <m_primary>  (28) 
energy

$$$$
28:0
     RDKit          3D

 32 34  0  0  0  0  0  0  0  0999 V2000
   -9.4810   22.2870  -31.9530 C   0  0  0  0  0  0  0  0  0  0  0  0
   -9.0760   20.8860  -30.8660 S   0  0  0  0  0  0  0  0  0  0  0  0
   -7.7240   20.3250  -31.9040 C   0  0  0  0  0  0  0  0  0  0  0  0
   -7.7610   18.8570  -32.7230 S   0  0  0  0  0  0  0  0  0  0  0  0
   -6.2350   18.9970  -33.4070 C   0  0  0  0  0  0  0  0  0  0  0  0
   -5.6300   18.0260  -34.3640 C   0  0  0  0  0  0  0  0  0  0  0  0
   -5.6800   20.2110  -33.0260 C   0  0  0  0  0  0  0  0  0  0  0  0
   -6.5060   20.9680  -32.1740 C   0  0  0  0  0  0  0  0  0  0  0  0
   -6.0730   22.2890  -31.6590 C   0  0  0  0  0  0  0  0  0  0  0  0
   -5.2380   22.4220  -30.6050 N   0  0  0  0  0  0  0  0  0  0  0  0
   -4.9580   23.7220  -30.3040 C   0  0  0  0  0  0  0  0  0  0  0  0
   -4.0530   24.0780  -29.1800 C   0  0  0  0  0  0  0  0  0  0  0  0
   -2.6680   24.2480  -29.3720 C   0  0  0  0  0  0  0  0  0  0  0  0
   -1.8380   24.5850  -28.2980 C   0  0  0  0  0  0  0  0  0  0  0  0
   -2.3770   24.7600  -27.0200 C   0  0  0  0  0  0  0  0  0  0  0  0
   -1.3330   25.1840  -25.6760 Cl  0  0  0  0  0  0  0  0  0  0  0  0
   -3.7500   24.5990  -26.8180 C   0  0  0  0  0  0  0  0  0  0  0  0
   -4.5830   24.2630  -27.8880 C   0  0  0  0  0  0  0  0  0  0  0  0
   -5.5780   24.6520  -31.1450 C   0  0  0  0  0  0  0  0  0  0  0  0
   -6.4880   23.8000  -32.2700 S   0  0  0  0  0  0  0  0  0  0  0  0
   -9.7348   23.1648  -31.3406 H   0  0  0  0  0  0  0  0  0  0  0  0
   -8.6138   22.5211  -32.5879 H   0  0  0  0  0  0  0  0  0  0  0  0
  -10.3394   22.0223  -32.5879 H   0  0  0  0  0  0  0  0  0  0  0  0
   -5.1294   17.2225  -33.8038 H   0  0  0  0  0  0  0  0  0  0  0  0
   -6.4195   17.5947  -34.9970 H   0  0  0  0  0  0  0  0  0  0  0  0
   -4.8949   18.5446  -34.9970 H   0  0  0  0  0  0  0  0  0  0  0  0
   -4.6877   20.5497  -33.3587 H   0  0  0  0  0  0  0  0  0  0  0  0
   -2.2358   24.1146  -30.3747 H   0  0  0  0  0  0  0  0  0  0  0  0
   -0.7574   24.7128  -28.4594 H   0  0  0  0  0  0  0  0  0  0  0  0
   -4.1764   24.7372  -25.8135 H   0  0  0  0  0  0  0  0  0  0  0  0
   -5.6633   24.1417  -27.7200 H   0  0  0  0  0  0  0  0  0  0  0  0
   -5.4859   25.7463  -31.0808 H   0  0  0  0  0  0  0  0  0  0  0  0
  1  2  1  0
  2  3  1  0
  3  4  1  0
  4  5  1  0
  5  6  1  0
  5  7  2  0
  7  8  1  0
  8  9  1  0
  9 10  2  0
 10 11  1  0
 11 12  1  0
 12 13  2  0
 13 14  1  0
 14 15  2  0
 15 16  1  0
 15 17  1  0
 17 18  2  0
 11 19  2  0
 19 20  1  0
  8  3  2  0
 20  9  1  0
 18 12  1  0
  1 21  1  0
  1 22  1  0
  1 23  1  0
  6 24  1  0
  6 25  1  0
  6 26  1  0
  7 27  1  0
 13 28  1  0
 14 29  1  0
 17 30  1  0
 18 31  1  0
 19 32  1  0
M  END
>  <UniqueID>  (29) 
28

>  <SMILES>  (29) 
CSc1sc(C)cc1-c1nc(-c2ccc(Cl)cc2)cs1

>  <Energy>  (29) 
89.07829026532262

>  <Genealogy>  (29) 
CSc1sc(C)cc1-c1nc(-c2ccc(Cl)cc2)cs1 (3D coordinates assigned)
CSc1sc(C)cc1-c1nc(-c2ccc(Cl)cc2)cs1 (optimized conformer: 89.07829026532262 kcal/mol)

>  <smiles>  (29) 
CSc1sc(C)cc1-c1nc(-c2ccc(Cl)cc2)cs1

>  <score_type>  (29) 
oracle

>  <origin>  (29) 
adgpu

>  <m_score__min__energy>  (29) 
-7.7800000000000002

>  <m_primary>  (29) 
energy

$$$$
29:0
     RDKit          3D

 59 63  0  0  0  0  0  0  0  0999 V2000
   -3.2270   20.7520  -33.5650 C   0  0  0  0  0  0  0  0  0  0  0  0
   -4.6470   20.7190  -33.6470 O   0  0  0  0  0  0  0  0  0  0  0  0
   -5.4430   19.6320  -33.2490 C   0  0  0  0  0  0  0  0  0  0  0  0
   -5.2470   18.3330  -33.7570 C   0  0  0  0  0  0  0  0  0  0  0  0
   -6.0590   17.2650  -33.3320 C   0  0  0  0  0  0  0  0  0  0  0  0
   -5.8520   15.8980  -33.8750 C   0  0  0  0  0  0  0  0  0  0  0  0
   -4.5530   15.3890  -34.0490 C   0  0  0  0  0  0  0  0  0  0  0  0
   -4.3520   14.0950  -34.5530 C   0  0  0  0  0  0  0  0  0  0  0  0
   -2.9620   13.5440  -34.6800 C   0  0  0  0  0  0  0  0  0  0  0  0
   -5.4600   13.2940  -34.8630 C   0  0  0  0  0  0  0  0  0  0  0  0
   -6.7620   13.7940  -34.7170 C   0  0  0  0  0  0  0  0  0  0  0  0
   -7.9450   12.9250  -35.0270 C   0  0  0  0  0  0  0  0  0  0  0  0
   -6.9530   15.0880  -34.2110 C   0  0  0  0  0  0  0  0  0  0  0  0
   -7.0740   17.5110  -32.3920 C   0  0  0  0  0  0  0  0  0  0  0  0
   -7.2750   18.7970  -31.8890 C   0  0  0  0  0  0  0  0  0  0  0  0
   -6.4680   19.8580  -32.3150 C   0  0  0  0  0  0  0  0  0  0  0  0
   -6.6920   21.1820  -31.7890 N   0  0  0  0  0  0  0  0  0  0  0  0
   -7.8990   21.7890  -32.0360 C   0  0  0  0  0  0  0  0  0  0  0  0
   -8.7860   21.2020  -32.7170 O   0  0  0  0  0  0  0  0  0  0  0  0
   -8.1690   23.0640  -31.5380 C   0  0  0  0  0  0  0  0  0  0  0  0
   -7.2120   23.7290  -30.7820 C   0  0  0  0  0  0  0  0  0  0  0  0
   -5.9800   23.1210  -30.5280 C   0  0  0  0  0  0  0  0  0  0  0  0
   -5.0050   23.7890  -29.7730 C   0  0  0  0  0  0  0  0  0  0  0  0
   -3.7680   23.1860  -29.5230 C   0  0  0  0  0  0  0  0  0  0  0  0
   -2.5520   24.0500  -28.5850 S   0  0  0  0  0  0  0  0  0  0  0  0
   -3.1040   24.4720  -27.2520 O   0  0  0  0  0  0  0  0  0  0  0  0
   -2.1330   25.2750  -29.3460 O   0  0  0  0  0  0  0  0  0  0  0  0
   -1.1670   23.0350  -28.3320 N   0  0  0  0  0  0  0  0  0  0  0  0
   -1.2030   21.8840  -27.7300 C   0  0  0  0  0  0  0  0  0  0  0  0
   -2.3100   21.2590  -27.1830 C   0  0  0  0  0  0  0  0  0  0  0  0
   -1.7930   20.0800  -26.6740 C   0  0  0  0  0  0  0  0  0  0  0  0
   -0.4990   20.0450  -26.9140 O   0  0  0  0  0  0  0  0  0  0  0  0
   -0.1190   21.1150  -27.5450 N   0  0  0  0  0  0  0  0  0  0  0  0
   -3.5030   21.9100  -30.0300 C   0  0  0  0  0  0  0  0  0  0  0  0
   -4.4650   21.2360  -30.7850 C   0  0  0  0  0  0  0  0  0  0  0  0
   -5.7230   21.8260  -31.0460 C   0  0  0  0  0  0  0  0  0  0  0  0
   -2.9208   20.7591  -32.5085 H   0  0  0  0  0  0  0  0  0  0  0  0
   -2.8103   19.8633  -34.0615 H   0  0  0  0  0  0  0  0  0  0  0  0
   -2.8520   21.6591  -34.0615 H   0  0  0  0  0  0  0  0  0  0  0  0
   -4.4507   18.1513  -34.4938 H   0  0  0  0  0  0  0  0  0  0  0  0
   -3.6850   16.0119  -33.7872 H   0  0  0  0  0  0  0  0  0  0  0  0
   -2.5408   13.3770  -33.6777 H   0  0  0  0  0  0  0  0  0  0  0  0
   -2.9941   12.5906  -35.2277 H   0  0  0  0  0  0  0  0  0  0  0  0
   -2.3322   14.2605  -35.2277 H   0  0  0  0  0  0  0  0  0  0  0  0
   -5.3070   12.2660  -35.2233 H   0  0  0  0  0  0  0  0  0  0  0  0
   -8.4068   12.5857  -34.0881 H   0  0  0  0  0  0  0  0  0  0  0  0
   -8.6795   13.4999  -35.6101 H   0  0  0  0  0  0  0  0  0  0  0  0
   -7.6161   12.0522  -35.6101 H   0  0  0  0  0  0  0  0  0  0  0  0
   -7.9741   15.4740  -34.0753 H   0  0  0  0  0  0  0  0  0  0  0  0
   -7.7144   16.6844  -32.0504 H   0  0  0  0  0  0  0  0  0  0  0  0
   -8.0725   18.9778  -31.1533 H   0  0  0  0  0  0  0  0  0  0  0  0
   -9.1382   23.5419  -31.7437 H   0  0  0  0  0  0  0  0  0  0  0  0
   -7.4238   24.7324  -30.3841 H   0  0  0  0  0  0  0  0  0  0  0  0
   -5.2143   24.7929  -29.3752 H   0  0  0  0  0  0  0  0  0  0  0  0
   -3.3509   21.6139  -27.1585 H   0  0  0  0  0  0  0  0  0  0  0  0
   -2.3690   19.3002  -26.1542 H   0  0  0  0  0  0  0  0  0  0  0  0
    0.8610   21.3210  -27.8450 H   0  0  0  0  0  0  0  0  0  0  0  0
   -2.5309   21.4344  -29.8329 H   0  0  0  0  0  0  0  0  0  0  0  0
   -4.2415   20.2345  -31.1812 H   0  0  0  0  0  0  0  0  0  0  0  0
  1  2  1  0
  2  3  1  0
  3  4  2  0
  4  5  1  0
  5  6  1  0
  6  7  2  0
  7  8  1  0
  8  9  1  0
  8 10  2  0
 10 11  1  0
 11 12  1  0
 11 13  2  0
  5 14  2  0
 14 15  1  0
 15 16  2  0
 16 17  1  0
 17 18  1  0
 18 19  2  0
 18 20  1  0
 20 21  2  0
 21 22  1  0
 22 23  2  0
 23 24  1  0
 24 25  1  0
 25 26  2  0
 25 27  2  0
 25 28  1  0
 28 29  2  3
 29 30  1  0
 30 31  2  0
 31 32  1  0
 32 33  1  0
 24 34  2  0
 34 35  1  0
 35 36  2  0
 16  3  1  0
 36 17  1  0
 13  6  1  0
 36 22  1  0
 33 29  1  0
  1 37  1  0
  1 38  1  0
  1 39  1  0
  4 40  1  0
  7 41  1  0
  9 42  1  0
  9 43  1  0
  9 44  1  0
 10 45  1  0
 12 46  1  0
 12 47  1  0
 12 48  1  0
 13 49  1  0
 14 50  1  0
 15 51  1  0
 20 52  1  0
 21 53  1  0
 23 54  1  0
 30 55  1  0
 31 56  1  0
 33 57  1  0
 34 58  1  0
 35 59  1  0
M  END
>  <UniqueID>  (30) 
29

>  <SMILES>  (30) 
COc1cc(-c2cc(C)cc(C)c2)ccc1-n1c(=O)ccc2cc(S(=O)(=O)N=c3cco[nH]3)ccc21

>  <Energy>  (30) 
118.3582890185033

>  <Genealogy>  (30) 
COc1cc(-c2cc(C)cc(C)c2)ccc1-n1c(=O)ccc2cc(S(=O)(=O)N=c3cco[nH]3)ccc21 (3D coordinates assigned)
COc1cc(-c2cc(C)cc(C)c2)ccc1-n1c(=O)ccc2cc(S(=O)(=O)N=c3cco[nH]3)ccc21 (optimized conformer: 118.3582890185033 kcal/mol)

>  <smiles>  (30) 
COc1cc(-c2cc(C)cc(C)c2)ccc1-n1c(=O)ccc2cc(S(=O)(=O)N=c3cco[nH]3)ccc21

>  <score_type>  (30) 
oracle

>  <origin>  (30) 
adgpu

>  <m_score__min__energy>  (30) 
-9.9700000000000006

>  <m_primary>  (30) 
energy

$$$$
30:0
     RDKit          3D

 47 49  0  0  0  0  0  0  0  0999 V2000
   -1.5720   26.0180  -29.7410 H   0  0  0  0  0  0  0  0  0  0  0  0
   -1.9710   25.2030  -29.2230 N   0  0  0  0  0  0  0  0  0  0  0  0
   -3.1430   24.7290  -29.5040 C   0  0  0  0  0  0  0  0  0  0  0  0
   -3.8770   25.2970  -30.5010 N   0  0  0  0  0  0  0  0  0  0  0  0
   -5.1080   24.8350  -30.8430 C   0  0  0  0  0  0  0  0  0  0  0  0
   -5.6734   25.3229  -31.6506 H   0  0  0  0  0  0  0  0  0  0  0  0
   -5.6550   23.7430  -30.1710 C   0  0  0  0  0  0  0  0  0  0  0  0
   -6.6502   23.3637  -30.4460 H   0  0  0  0  0  0  0  0  0  0  0  0
   -4.9290   23.1360  -29.1470 C   0  0  0  0  0  0  0  0  0  0  0  0
   -5.3498   22.2690  -28.6167 H   0  0  0  0  0  0  0  0  0  0  0  0
   -3.6630   23.6270  -28.7900 C   0  0  0  0  0  0  0  0  0  0  0  0
   -2.8860   22.9720  -27.6700 C   0  0  0  0  0  0  0  0  0  0  0  0
   -2.9222   23.6179  -26.7803 H   0  0  0  0  0  0  0  0  0  0  0  0
   -3.3392   21.9937  -27.4519 H   0  0  0  0  0  0  0  0  0  0  0  0
   -1.4890   22.7660  -28.0570 N   0  0  0  0  0  0  0  0  0  0  0  0
   -0.7620   23.2750  -27.5030 H   0  0  0  0  0  0  0  0  0  0  0  0
   -1.0530   21.8430  -29.0730 C   0  0  0  0  0  0  0  0  0  0  0  0
   -0.0020   20.9580  -28.7870 C   0  0  0  0  0  0  0  0  0  0  0  0
    0.4759   20.9808  -27.7965 H   0  0  0  0  0  0  0  0  0  0  0  0
    0.4420   20.0490  -29.7490 C   0  0  0  0  0  0  0  0  0  0  0  0
    1.2679   19.3613  -29.5145 H   0  0  0  0  0  0  0  0  0  0  0  0
   -0.1600   20.0110  -31.0080 C   0  0  0  0  0  0  0  0  0  0  0  0
    0.1987   19.2987  -31.7656 H   0  0  0  0  0  0  0  0  0  0  0  0
   -1.2220   20.8790  -31.3110 C   0  0  0  0  0  0  0  0  0  0  0  0
   -1.8350   20.8790  -32.6120 N   0  0  0  0  0  0  0  0  0  0  0  0
   -1.2260   21.0680  -33.4390 H   0  0  0  0  0  0  0  0  0  0  0  0
   -3.2350   20.6510  -32.8480 C   0  0  0  0  0  0  0  0  0  0  0  0
   -3.7000   19.4310  -33.3670 C   0  0  0  0  0  0  0  0  0  0  0  0
   -2.9831   18.6362  -33.6207 H   0  0  0  0  0  0  0  0  0  0  0  0
   -5.0680   19.2210  -33.5630 C   0  0  0  0  0  0  0  0  0  0  0  0
   -5.4182   18.2642  -33.9776 H   0  0  0  0  0  0  0  0  0  0  0  0
   -5.9990   20.2190  -33.2360 C   0  0  0  0  0  0  0  0  0  0  0  0
   -7.3990   19.9650  -33.4520 N   0  0  0  0  0  0  0  0  0  0  0  0
   -7.7740   20.0110  -34.4250 H   0  0  0  0  0  0  0  0  0  0  0  0
   -8.5550   19.6900  -32.1860 S   0  0  0  0  0  0  0  0  0  0  0  0
   -8.0930   18.5710  -31.2970 O   0  0  0  0  0  0  0  0  0  0  0  0
   -9.8680   19.3020  -32.8050 O   0  0  0  0  0  0  0  0  0  0  0  0
   -8.7970   21.1790  -31.2390 C   0  0  0  0  0  0  0  0  0  0  0  0
   -8.7584   20.9413  -30.1657 H   0  0  0  0  0  0  0  0  0  0  0  0
   -8.0045   21.9017  -31.4832 H   0  0  0  0  0  0  0  0  0  0  0  0
   -9.7776   21.6136  -31.4832 H   0  0  0  0  0  0  0  0  0  0  0  0
   -5.5330   21.4290  -32.6890 C   0  0  0  0  0  0  0  0  0  0  0  0
   -6.2505   22.2160  -32.4136 H   0  0  0  0  0  0  0  0  0  0  0  0
   -4.1640   21.6380  -32.4930 C   0  0  0  0  0  0  0  0  0  0  0  0
   -3.8138   22.5850  -32.0566 H   0  0  0  0  0  0  0  0  0  0  0  0
   -1.6460   21.8090  -30.3490 C   0  0  0  0  0  0  0  0  0  0  0  0
   -2.4499   22.5185  -30.5948 H   0  0  0  0  0  0  0  0  0  0  0  0
  1  2  1  0
  2  3  2  0
  3  4  1  0
  4  5  1  0
  5  6  1  0
  5  7  2  0
  7  8  1  0
  7  9  1  0
  9 10  1  0
  9 11  2  0
 11 12  1  0
 12 13  1  0
 12 14  1  0
 12 15  1  0
 15 16  1  0
 15 17  1  0
 17 18  2  0
 18 19  1  0
 18 20  1  0
 20 21  1  0
 20 22  2  0
 22 23  1  0
 22 24  1  0
 24 25  1  0
 25 26  1  0
 25 27  1  0
 27 28  2  0
 28 29  1  0
 28 30  1  0
 30 31  1  0
 30 32  2  0
 32 33  1  0
 33 34  1  0
 33 35  1  0
 35 36  2  0
 35 37  2  0
 35 38  1  0
 38 39  1  0
 38 40  1  0
 38 41  1  0
 32 42  1  0
 42 43  1  0
 42 44  2  0
 44 45  1  0
 24 46  2  0
 46 47  1  0
 11  3  1  0
 46 17  1  0
 44 27  1  0
M  CHG  1   4  -1
M  END
>  <UniqueID>  (31) 
30

>  <SMILES>  (31) 
[H]/N=c1\[n-]cccc1CNc1cccc(Nc2ccc(NS(C)(=O)=O)cc2)c1

>  <Energy>  (31) 
54.34412365603242

>  <Genealogy>  (31) 
CS(=O)(=O)Nc1ccc(Nc2cccc(NCc3ccc[n-]c3=N)c2)cc1 (protonated)
[H]/N=c1\[n-]cccc1CNc1cccc(Nc2ccc(NS(C)(=O)=O)cc2)c1 (cis-trans isomerization)
[H]/N=c1\[n-]cccc1CNc1cccc(Nc2ccc(NS(C)(=O)=O)cc2)c1 (3D coordinates assigned)
[H]/N=c1\[n-]cccc1CNc1cccc(Nc2ccc(NS(C)(=O)=O)cc2)c1 (optimized conformer: 54.34412365603242 kcal/mol)

>  <smiles>  (31) 
CS(=O)(=O)Nc1ccc(Nc2cccc(NCc3ccc[nH]c3=N)c2)cc1

>  <score_type>  (31) 
oracle

>  <origin>  (31) 
adgpu

>  <m_score__min__energy>  (31) 
-11.210000000000001

>  <m_primary>  (31) 
energy

$$$$
31:0
     RDKit          3D

 36 37  0  0  0  0  0  0  0  0999 V2000
   -8.3100   21.5650  -31.9650 C   0  0  0  0  0  0  0  0  0  0  0  0
   -6.7960   21.4590  -32.1780 C   0  0  0  0  0  0  0  0  0  0  0  0
   -6.1530   22.7820  -32.3750 N   0  0  0  0  0  0  0  0  0  0  0  0
   -4.6690   22.6480  -32.3770 C   0  0  0  0  0  0  0  0  0  0  0  0
   -4.0600   22.9720  -31.0040 C   0  0  0  0  0  0  0  0  0  0  0  0
   -4.3300   24.3770  -30.6080 N   0  0  0  0  0  0  0  0  0  0  0  0
   -4.2370   24.5510  -29.1430 C   0  0  0  0  0  0  0  0  0  0  0  0
   -3.0100   23.8620  -28.5930 C   0  0  0  0  0  0  0  0  0  0  0  0
   -3.1050   22.6010  -27.9720 C   0  0  0  0  0  0  0  0  0  0  0  0
   -4.3050   21.9830  -27.8350 F   0  0  0  0  0  0  0  0  0  0  0  0
   -1.9560   21.9680  -27.4890 C   0  0  0  0  0  0  0  0  0  0  0  0
   -0.7070   22.5790  -27.6250 C   0  0  0  0  0  0  0  0  0  0  0  0
   -0.6020   23.8250  -28.2450 C   0  0  0  0  0  0  0  0  0  0  0  0
   -1.7460   24.4660  -28.7310 C   0  0  0  0  0  0  0  0  0  0  0  0
   -1.6210   25.6730  -29.3390 F   0  0  0  0  0  0  0  0  0  0  0  0
   -5.6170   24.8950  -31.1380 C   0  0  0  0  0  0  0  0  0  0  0  0
   -6.6390   23.7730  -31.3760 C   0  0  0  0  0  0  0  0  0  0  0  0
   -8.5284   21.5803  -30.8870 H   0  0  0  0  0  0  0  0  0  0  0  0
   -8.6814   22.4913  -32.4276 H   0  0  0  0  0  0  0  0  0  0  0  0
   -8.8068   20.6994  -32.4276 H   0  0  0  0  0  0  0  0  0  0  0  0
   -6.3490   20.9780  -31.2955 H   0  0  0  0  0  0  0  0  0  0  0  0
   -6.6287   20.8682  -33.0907 H   0  0  0  0  0  0  0  0  0  0  0  0
   -6.4270   23.1260  -33.3270 H   0  0  0  0  0  0  0  0  0  0  0  0
   -4.4061   21.6146  -32.6472 H   0  0  0  0  0  0  0  0  0  0  0  0
   -4.2640   23.3652  -33.1061 H   0  0  0  0  0  0  0  0  0  0  0  0
   -4.4958   22.2983  -30.2515 H   0  0  0  0  0  0  0  0  0  0  0  0
   -2.9705   22.8343  -31.0680 H   0  0  0  0  0  0  0  0  0  0  0  0
   -4.1810   25.6248  -28.9111 H   0  0  0  0  0  0  0  0  0  0  0  0
   -5.1282   24.1027  -28.6795 H   0  0  0  0  0  0  0  0  0  0  0  0
   -2.0355   20.9857  -27.0003 H   0  0  0  0  0  0  0  0  0  0  0  0
    0.1945   22.0776  -27.2431 H   0  0  0  0  0  0  0  0  0  0  0  0
    0.3826   24.3038  -28.3516 H   0  0  0  0  0  0  0  0  0  0  0  0
   -6.0367   25.6090  -30.4141 H   0  0  0  0  0  0  0  0  0  0  0  0
   -5.4144   25.3785  -32.1050 H   0  0  0  0  0  0  0  0  0  0  0  0
   -6.8268   23.2552  -30.4238 H   0  0  0  0  0  0  0  0  0  0  0  0
   -7.5602   24.2286  -31.7682 H   0  0  0  0  0  0  0  0  0  0  0  0
  1  2  1  0
  2  3  1  0
  3  4  1  0
  4  5  1  0
  5  6  1  0
  6  7  1  0
  7  8  1  0
  8  9  2  0
  9 10  1  0
  9 11  1  0
 11 12  2  0
 12 13  1  0
 13 14  2  0
 14 15  1  0
  6 16  1  0
 16 17  1  0
 17  3  1  0
 14  8  1  0
  1 18  1  0
  1 19  1  0
  1 20  1  0
  2 21  1  0
  2 22  1  0
  3 23  1  0
  4 24  1  0
  4 25  1  0
  5 26  1  0
  5 27  1  0
  7 28  1  0
  7 29  1  0
 11 30  1  0
 12 31  1  0
 13 32  1  0
 16 33  1  0
 16 34  1  0
 17 35  1  0
 17 36  1  0
M  CHG  1   3   1
M  END
>  <UniqueID>  (32) 
31

>  <SMILES>  (32) 
CC[NH+]1CCN(Cc2c(F)cccc2F)CC1

>  <Energy>  (32) 
48.14115910811206

>  <Genealogy>  (32) 
CC[NH+]1CCN(Cc2c(F)cccc2F)CC1 (protonated)
CC[NH+]1CCN(Cc2c(F)cccc2F)CC1 (3D coordinates assigned)
CC[NH+]1CCN(Cc2c(F)cccc2F)CC1 (nonaromatic ring conformer: 48.14115910811206 kcal/mol)

>  <smiles>  (32) 
CCN1CCN(Cc2c(F)cccc2F)CC1

>  <score_type>  (32) 
oracle

>  <origin>  (32) 
adgpu

>  <m_score__min__energy>  (32) 
-5.4199999999999999

>  <m_primary>  (32) 
energy

$$$$
32:0
     RDKit          3D

 49 51  0  0  0  0  0  0  0  0999 V2000
   -2.1260   25.1720  -26.6190 C   0  0  0  0  0  0  0  0  0  0  0  0
   -0.6680   24.8790  -26.9530 C   0  0  0  0  0  0  0  0  0  0  0  0
   -0.4630   24.8890  -28.3640 O   0  0  0  0  0  0  0  0  0  0  0  0
   -1.2980   24.2240  -29.2700 C   0  0  0  0  0  0  0  0  0  0  0  0
   -2.3680   24.7610  -29.6640 O   0  0  0  0  0  0  0  0  0  0  0  0
   -0.8990   22.9400  -29.7690 N   0  0  0  0  0  0  0  0  0  0  0  0
   -1.7390   22.0790  -30.5570 C   0  0  0  0  0  0  0  0  0  0  0  0
   -2.8180   21.4240  -29.9440 C   0  0  0  0  0  0  0  0  0  0  0  0
   -3.6650   20.6020  -30.6910 C   0  0  0  0  0  0  0  0  0  0  0  0
   -3.4570   20.4340  -32.0680 C   0  0  0  0  0  0  0  0  0  0  0  0
   -4.3710   19.5770  -32.8660 C   0  0  0  0  0  0  0  0  0  0  0  0
   -5.7190   19.9410  -33.0810 C   0  0  0  0  0  0  0  0  0  0  0  0
   -6.3320   21.1330  -32.4490 C   0  0  0  0  0  0  0  0  0  0  0  0
   -7.6610   21.0980  -31.9980 C   0  0  0  0  0  0  0  0  0  0  0  0
   -8.2310   22.2210  -31.3950 C   0  0  0  0  0  0  0  0  0  0  0  0
   -7.4840   23.3920  -31.2420 C   0  0  0  0  0  0  0  0  0  0  0  0
   -6.1530   23.4470  -31.6990 C   0  0  0  0  0  0  0  0  0  0  0  0
   -5.3620   24.5990  -31.5710 O   0  0  0  0  0  0  0  0  0  0  0  0
   -5.3710   25.4580  -30.4370 C   0  0  0  0  0  0  0  0  0  0  0  0
   -5.5890   22.3160  -32.3030 C   0  0  0  0  0  0  0  0  0  0  0  0
   -6.5070   19.1260  -33.8990 C   0  0  0  0  0  0  0  0  0  0  0  0
   -5.9830   18.0030  -34.4460 N   0  0  0  0  0  0  0  0  0  0  0  0
   -4.7170   17.6360  -34.2390 N   0  0  0  0  0  0  0  0  0  0  0  0
   -4.2320   16.4090  -34.8720 C   0  0  0  0  0  0  0  0  0  0  0  0
   -3.8850   18.3990  -33.4640 C   0  0  0  0  0  0  0  0  0  0  0  0
   -2.6810   18.0560  -33.3010 O   0  0  0  0  0  0  0  0  0  0  0  0
   -2.3880   21.1010  -32.6870 C   0  0  0  0  0  0  0  0  0  0  0  0
   -1.5410   21.9240  -31.9400 C   0  0  0  0  0  0  0  0  0  0  0  0
   -2.2539   25.1977  -25.5268 H   0  0  0  0  0  0  0  0  0  0  0  0
   -2.4112   26.1454  -27.0446 H   0  0  0  0  0  0  0  0  0  0  0  0
   -2.7651   24.3843  -27.0446 H   0  0  0  0  0  0  0  0  0  0  0  0
   -0.0301   25.6462  -26.4899 H   0  0  0  0  0  0  0  0  0  0  0  0
   -0.4093   23.8828  -26.5648 H   0  0  0  0  0  0  0  0  0  0  0  0
    0.0960   22.6580  -29.6200 H   0  0  0  0  0  0  0  0  0  0  0  0
   -2.9982   21.5589  -28.8673 H   0  0  0  0  0  0  0  0  0  0  0  0
   -4.4998   20.0835  -30.1967 H   0  0  0  0  0  0  0  0  0  0  0  0
   -8.2564   20.1812  -32.1203 H   0  0  0  0  0  0  0  0  0  0  0  0
   -9.2712   22.1838  -31.0393 H   0  0  0  0  0  0  0  0  0  0  0  0
   -7.9367   24.2730  -30.7635 H   0  0  0  0  0  0  0  0  0  0  0  0
   -5.3647   24.8528  -29.5185 H   0  0  0  0  0  0  0  0  0  0  0  0
   -4.4796   26.1021  -30.4578 H   0  0  0  0  0  0  0  0  0  0  0  0
   -6.2757   26.0833  -30.4578 H   0  0  0  0  0  0  0  0  0  0  0  0
   -4.5518   22.3548  -32.6673 H   0  0  0  0  0  0  0  0  0  0  0  0
   -7.5542   19.3971  -34.0988 H   0  0  0  0  0  0  0  0  0  0  0  0
   -3.9456   15.6844  -34.0956 H   0  0  0  0  0  0  0  0  0  0  0  0
   -5.0282   15.9800  -35.4981 H   0  0  0  0  0  0  0  0  0  0  0  0
   -3.3577   16.6403  -35.4981 H   0  0  0  0  0  0  0  0  0  0  0  0
   -2.2161   20.9751  -33.7662 H   0  0  0  0  0  0  0  0  0  0  0  0
   -0.7148   22.4535  -32.4370 H   0  0  0  0  0  0  0  0  0  0  0  0
  1  2  1  0
  2  3  1  0
  3  4  1  0
  4  5  2  0
  4  6  1  0
  6  7  1  0
  7  8  2  0
  8  9  1  0
  9 10  2  0
 10 11  1  0
 11 12  2  0
 12 13  1  0
 13 14  2  0
 14 15  1  0
 15 16  2  0
 16 17  1  0
 17 18  1  0
 18 19  1  0
 17 20  2  0
 12 21  1  0
 21 22  2  0
 22 23  1  0
 23 24  1  0
 23 25  1  0
 25 26  2  0
 10 27  1  0
 27 28  2  0
 28  7  1  0
 25 11  1  0
 20 13  1  0
  1 29  1  0
  1 30  1  0
  1 31  1  0
  2 32  1  0
  2 33  1  0
  6 34  1  0
  8 35  1  0
  9 36  1  0
 14 37  1  0
 15 38  1  0
 16 39  1  0
 19 40  1  0
 19 41  1  0
 19 42  1  0
 20 43  1  0
 21 44  1  0
 24 45  1  0
 24 46  1  0
 24 47  1  0
 27 48  1  0
 28 49  1  0
M  END
>  <UniqueID>  (33) 
32

>  <SMILES>  (33) 
CCOC(=O)Nc1ccc(-c2c(-c3cccc(OC)c3)cnn(C)c2=O)cc1

>  <Energy>  (33) 
64.56366825269247

>  <Genealogy>  (33) 
CCOC(=O)Nc1ccc(-c2c(-c3cccc(OC)c3)cnn(C)c2=O)cc1 (3D coordinates assigned)
CCOC(=O)Nc1ccc(-c2c(-c3cccc(OC)c3)cnn(C)c2=O)cc1 (optimized conformer: 64.56366825269247 kcal/mol)

>  <smiles>  (33) 
CCOC(=O)Nc1ccc(-c2c(-c3cccc(OC)c3)cnn(C)c2=O)cc1

>  <score_type>  (33) 
oracle

>  <origin>  (33) 
adgpu

>  <m_score__min__energy>  (33) 
-8.4800000000000004

>  <m_primary>  (33) 
energy

$$$$
33:0
     RDKit          3D

 26 27  0  0  0  0  0  0  0  0999 V2000
   -6.0850   25.6840  -30.3290 O   0  0  0  0  0  0  0  0  0  0  0  0
   -5.1390   25.0480  -30.8640 C   0  0  0  0  0  0  0  0  0  0  0  0
   -3.8010   25.2940  -30.4220 N   0  0  0  0  0  0  0  0  0  0  0  0
   -3.1060   24.5270  -29.4300 C   0  0  0  0  0  0  0  0  0  0  0  0
   -3.6500   23.3000  -29.0260 C   0  0  0  0  0  0  0  0  0  0  0  0
   -3.0010   22.5190  -28.0660 C   0  0  0  0  0  0  0  0  0  0  0  0
   -1.7910   22.9500  -27.5150 C   0  0  0  0  0  0  0  0  0  0  0  0
   -1.2220   24.1550  -27.9360 C   0  0  0  0  0  0  0  0  0  0  0  0
   -1.8640   24.9390  -28.9010 C   0  0  0  0  0  0  0  0  0  0  0  0
   -1.2450   26.1000  -29.3500 O   0  0  0  0  0  0  0  0  0  0  0  0
   -5.3830   24.1700  -31.9700 N   0  0  0  0  0  0  0  0  0  0  0  0
   -6.2970   23.0640  -31.9990 C   0  0  0  0  0  0  0  0  0  0  0  0
   -7.6480   23.2040  -31.6260 C   0  0  0  0  0  0  0  0  0  0  0  0
   -8.5020   22.0960  -31.6430 C   0  0  0  0  0  0  0  0  0  0  0  0
   -9.8020   22.2380  -31.2850 F   0  0  0  0  0  0  0  0  0  0  0  0
   -8.0140   20.8410  -32.0170 C   0  0  0  0  0  0  0  0  0  0  0  0
   -6.6690   20.6900  -32.3650 C   0  0  0  0  0  0  0  0  0  0  0  0
   -5.8120   21.7950  -32.3480 C   0  0  0  0  0  0  0  0  0  0  0  0
   -4.5060   21.6330  -32.6830 F   0  0  0  0  0  0  0  0  0  0  0  0
   -4.5944   22.9494  -29.4677 H   0  0  0  0  0  0  0  0  0  0  0  0
   -3.4427   21.5645  -27.7438 H   0  0  0  0  0  0  0  0  0  0  0  0
   -1.2868   22.3410  -26.7503 H   0  0  0  0  0  0  0  0  0  0  0  0
   -0.2656   24.4885  -27.5070 H   0  0  0  0  0  0  0  0  0  0  0  0
   -8.0330   24.1880  -31.3202 H   0  0  0  0  0  0  0  0  0  0  0  0
   -8.6884   19.9722  -32.0374 H   0  0  0  0  0  0  0  0  0  0  0  0
   -6.2839   19.7006  -32.6527 H   0  0  0  0  0  0  0  0  0  0  0  0
  1  2  2  0
  2  3  1  0
  3  4  1  0
  4  5  2  0
  5  6  1  0
  6  7  2  0
  7  8  1  0
  8  9  2  0
  9 10  1  0
  2 11  1  0
 11 12  1  0
 12 13  2  0
 13 14  1  0
 14 15  1  0
 14 16  2  0
 16 17  1  0
 17 18  2  0
 18 19  1  0
  9  4  1  0
 18 12  1  0
  5 20  1  0
  6 21  1  0
  7 22  1  0
  8 23  1  0
 13 24  1  0
 16 25  1  0
 17 26  1  0
M  CHG  3   3  -1  10  -1  11  -1
M  END
>  <UniqueID>  (34) 
33

>  <SMILES>  (34) 
O=C([N-]c1ccccc1[O-])[N-]c1cc(F)ccc1F

>  <Energy>  (34) 
35.78914663803724

>  <Genealogy>  (34) 
O=C([N-]c1ccccc1[O-])[N-]c1cc(F)ccc1F (protonated)
O=C([N-]c1ccccc1[O-])[N-]c1cc(F)ccc1F (3D coordinates assigned)
O=C([N-]c1ccccc1[O-])[N-]c1cc(F)ccc1F (optimized conformer: 35.78914663803724 kcal/mol)

>  <smiles>  (34) 
O=C(Nc1ccccc1O)Nc1cc(F)ccc1F

>  <score_type>  (34) 
oracle

>  <origin>  (34) 
adgpu

>  <m_score__min__energy>  (34) 
-12.32

>  <m_primary>  (34) 
energy

$$$$
34:0
     RDKit          3D

 40 42  0  0  0  0  0  0  0  0999 V2000
   -6.5400   25.3020  -30.0920 C   0  0  0  0  0  0  0  0  0  0  0  0
   -5.8880   24.1010  -30.7080 C   0  0  0  0  0  0  0  0  0  0  0  0
   -4.5270   23.8950  -30.8480 C   0  0  0  0  0  0  0  0  0  0  0  0
   -3.4930   24.8090  -30.4660 N   0  0  0  0  0  0  0  0  0  0  0  0
   -2.3860   24.5490  -29.1590 S   0  0  0  0  0  0  0  0  0  0  0  0
   -1.1940   25.4460  -29.3410 O   0  0  0  0  0  0  0  0  0  0  0  0
   -3.0660   24.8970  -27.8640 O   0  0  0  0  0  0  0  0  0  0  0  0
   -1.8420   22.8750  -29.1440 C   0  0  0  0  0  0  0  0  0  0  0  0
   -2.3710   21.9690  -28.2140 C   0  0  0  0  0  0  0  0  0  0  0  0
   -1.9440   20.6370  -28.2110 C   0  0  0  0  0  0  0  0  0  0  0  0
   -0.9860   20.2070  -29.1330 C   0  0  0  0  0  0  0  0  0  0  0  0
   -0.4510   21.1090  -30.0570 C   0  0  0  0  0  0  0  0  0  0  0  0
   -0.8750   22.4410  -30.0630 C   0  0  0  0  0  0  0  0  0  0  0  0
   -4.4140   22.6520  -31.4420 C   0  0  0  0  0  0  0  0  0  0  0  0
   -3.3450   22.0730  -31.7710 O   0  0  0  0  0  0  0  0  0  0  0  0
   -5.6470   22.1400  -31.6430 N   0  0  0  0  0  0  0  0  0  0  0  0
   -5.9410   20.8790  -32.2710 C   0  0  0  0  0  0  0  0  0  0  0  0
   -6.8660   19.9990  -31.6880 C   0  0  0  0  0  0  0  0  0  0  0  0
   -7.1410   18.7670  -32.2910 C   0  0  0  0  0  0  0  0  0  0  0  0
   -6.4900   18.4040  -33.4730 C   0  0  0  0  0  0  0  0  0  0  0  0
   -5.5600   19.2720  -34.0530 C   0  0  0  0  0  0  0  0  0  0  0  0
   -5.2830   20.5040  -33.4530 C   0  0  0  0  0  0  0  0  0  0  0  0
   -6.5420   23.0100  -31.1790 N   0  0  0  0  0  0  0  0  0  0  0  0
   -7.9940   22.8190  -31.1860 C   0  0  0  0  0  0  0  0  0  0  0  0
   -6.4961   25.2212  -28.9958 H   0  0  0  0  0  0  0  0  0  0  0  0
   -6.0118   26.2116  -30.4141 H   0  0  0  0  0  0  0  0  0  0  0  0
   -7.5905   25.3545  -30.4141 H   0  0  0  0  0  0  0  0  0  0  0  0
   -3.1231   22.3062  -27.4855 H   0  0  0  0  0  0  0  0  0  0  0  0
   -2.3627   19.9274  -27.4822 H   0  0  0  0  0  0  0  0  0  0  0  0
   -0.6529   19.1586  -29.1316 H   0  0  0  0  0  0  0  0  0  0  0  0
    0.3050   20.7701  -30.7807 H   0  0  0  0  0  0  0  0  0  0  0  0
   -0.4500   23.1496  -30.7891 H   0  0  0  0  0  0  0  0  0  0  0  0
   -7.3761   20.2788  -30.7544 H   0  0  0  0  0  0  0  0  0  0  0  0
   -7.8710   18.0828  -31.8339 H   0  0  0  0  0  0  0  0  0  0  0  0
   -6.7091   17.4358  -33.9469 H   0  0  0  0  0  0  0  0  0  0  0  0
   -5.0458   18.9853  -34.9822 H   0  0  0  0  0  0  0  0  0  0  0  0
   -4.5466   21.1821  -33.9089 H   0  0  0  0  0  0  0  0  0  0  0  0
   -8.3624   22.7705  -30.1507 H   0  0  0  0  0  0  0  0  0  0  0  0
   -8.4722   23.6620  -31.7063 H   0  0  0  0  0  0  0  0  0  0  0  0
   -8.2379   21.8810  -31.7063 H   0  0  0  0  0  0  0  0  0  0  0  0
  1  2  1  0
  2  3  2  0
  3  4  1  0
  4  5  1  0
  5  6  2  0
  5  7  2  0
  5  8  1  0
  8  9  2  0
  9 10  1  0
 10 11  2  0
 11 12  1  0
 12 13  2  0
  3 14  1  0
 14 15  2  0
 14 16  1  0
 16 17  1  0
 17 18  2  0
 18 19  1  0
 19 20  2  0
 20 21  1  0
 21 22  2  0
 16 23  1  0
 23 24  1  0
 23  2  1  0
 13  8  1  0
 22 17  1  0
  1 25  1  0
  1 26  1  0
  1 27  1  0
  9 28  1  0
 10 29  1  0
 11 30  1  0
 12 31  1  0
 13 32  1  0
 18 33  1  0
 19 34  1  0
 20 35  1  0
 21 36  1  0
 22 37  1  0
 24 38  1  0
 24 39  1  0
 24 40  1  0
M  CHG  1   4  -1
M  END
>  <UniqueID>  (35) 
34

>  <SMILES>  (35) 
Cc1c([N-]S(=O)(=O)c2ccccc2)c(=O)n(-c2ccccc2)n1C

>  <Energy>  (35) 
85.86266911154262

>  <Genealogy>  (35) 
Cc1c([N-]S(=O)(=O)c2ccccc2)c(=O)n(-c2ccccc2)n1C (protonated)
Cc1c([N-]S(=O)(=O)c2ccccc2)c(=O)n(-c2ccccc2)n1C (3D coordinates assigned)
Cc1c([N-]S(=O)(=O)c2ccccc2)c(=O)n(-c2ccccc2)n1C (optimized conformer: 85.86266911154262 kcal/mol)

>  <smiles>  (35) 
Cc1c(NS(=O)(=O)c2ccccc2)c(=O)n(-c2ccccc2)n1C

>  <score_type>  (35) 
oracle

>  <origin>  (35) 
adgpu

>  <m_score__min__energy>  (35) 
-9.7200000000000006

>  <m_primary>  (35) 
energy

$$$$
35:0
     RDKit          3D

 37 39  0  0  0  0  0  0  0  0999 V2000
   -4.9780   23.8730  -31.1720 O   0  0  0  0  0  0  0  0  0  0  0  0
   -3.7730   23.8020  -30.8060 C   0  0  0  0  0  0  0  0  0  0  0  0
   -3.1580   24.9190  -30.1490 N   0  0  0  0  0  0  0  0  0  0  0  0
   -2.5750   24.9240  -28.8380 C   0  0  0  0  0  0  0  0  0  0  0  0
   -3.3640   24.5290  -27.7480 C   0  0  0  0  0  0  0  0  0  0  0  0
   -2.8390   24.5400  -26.4530 C   0  0  0  0  0  0  0  0  0  0  0  0
   -1.5250   24.9600  -26.2340 C   0  0  0  0  0  0  0  0  0  0  0  0
   -0.7380   25.3790  -27.3100 C   0  0  0  0  0  0  0  0  0  0  0  0
   -1.2590   25.3700  -28.6080 C   0  0  0  0  0  0  0  0  0  0  0  0
   -2.9650   22.6000  -31.1280 C   0  0  0  0  0  0  0  0  0  0  0  0
   -1.8240   22.3160  -30.3540 C   0  0  0  0  0  0  0  0  0  0  0  0
   -1.0130   21.2190  -30.6530 C   0  0  0  0  0  0  0  0  0  0  0  0
   -1.3310   20.3850  -31.7230 C   0  0  0  0  0  0  0  0  0  0  0  0
   -2.4650   20.6410  -32.4940 C   0  0  0  0  0  0  0  0  0  0  0  0
   -3.2890   21.7450  -32.2140 C   0  0  0  0  0  0  0  0  0  0  0  0
   -4.4990   21.9320  -32.9680 N   0  0  0  0  0  0  0  0  0  0  0  0
   -5.6880   21.1430  -32.7840 C   0  0  0  0  0  0  0  0  0  0  0  0
   -6.8730   21.7110  -32.2760 C   0  0  0  0  0  0  0  0  0  0  0  0
   -8.0100   20.9180  -32.0880 C   0  0  0  0  0  0  0  0  0  0  0  0
   -9.4830   21.6350  -31.4600 Cl  0  0  0  0  0  0  0  0  0  0  0  0
   -7.9720   19.5550  -32.3950 C   0  0  0  0  0  0  0  0  0  0  0  0
   -6.7950   18.9800  -32.8830 C   0  0  0  0  0  0  0  0  0  0  0  0
   -6.7460   17.2660  -33.2570 Cl  0  0  0  0  0  0  0  0  0  0  0  0
   -5.6560   19.7700  -33.0710 C   0  0  0  0  0  0  0  0  0  0  0  0
   -4.4031   24.2084  -27.9135 H   0  0  0  0  0  0  0  0  0  0  0  0
   -3.4612   24.2175  -25.6052 H   0  0  0  0  0  0  0  0  0  0  0  0
   -1.1100   24.9609  -25.2153 H   0  0  0  0  0  0  0  0  0  0  0  0
    0.2942   25.7169  -27.1357 H   0  0  0  0  0  0  0  0  0  0  0  0
   -0.6399   25.7118  -29.4506 H   0  0  0  0  0  0  0  0  0  0  0  0
   -1.5682   22.9656  -29.5039 H   0  0  0  0  0  0  0  0  0  0  0  0
   -0.1214   21.0130  -30.0426 H   0  0  0  0  0  0  0  0  0  0  0  0
   -0.6878   19.5247  -31.9597 H   0  0  0  0  0  0  0  0  0  0  0  0
   -2.7171   19.9719  -33.3299 H   0  0  0  0  0  0  0  0  0  0  0  0
   -4.5270   22.7200  -33.6550 H   0  0  0  0  0  0  0  0  0  0  0  0
   -6.9043   22.7818  -32.0263 H   0  0  0  0  0  0  0  0  0  0  0  0
   -8.8689   18.9343  -32.2525 H   0  0  0  0  0  0  0  0  0  0  0  0
   -4.7291   19.3117  -33.4463 H   0  0  0  0  0  0  0  0  0  0  0  0
  1  2  2  0
  2  3  1  0
  3  4  1  0
  4  5  2  0
  5  6  1  0
  6  7  2  0
  7  8  1  0
  8  9  2  0
  2 10  1  0
 10 11  2  0
 11 12  1  0
 12 13  2  0
 13 14  1  0
 14 15  2  0
 15 16  1  0
 16 17  1  0
 17 18  2  0
 18 19  1  0
 19 20  1  0
 19 21  2  0
 21 22  1  0
 22 23  1  0
 22 24  2  0
  9  4  1  0
 15 10  1  0
 24 17  1  0
  5 25  1  0
  6 26  1  0
  7 27  1  0
  8 28  1  0
  9 29  1  0
 11 30  1  0
 12 31  1  0
 13 32  1  0
 14 33  1  0
 16 34  1  0
 18 35  1  0
 21 36  1  0
 24 37  1  0
M  CHG  1   3  -1
M  END
>  <UniqueID>  (36) 
35

>  <SMILES>  (36) 
O=C([N-]c1ccccc1)c1ccccc1Nc1cc(Cl)cc(Cl)c1

>  <Energy>  (36) 
52.59960245827196

>  <Genealogy>  (36) 
O=C([N-]c1ccccc1)c1ccccc1Nc1cc(Cl)cc(Cl)c1 (protonated)
O=C([N-]c1ccccc1)c1ccccc1Nc1cc(Cl)cc(Cl)c1 (3D coordinates assigned)
O=C([N-]c1ccccc1)c1ccccc1Nc1cc(Cl)cc(Cl)c1 (optimized conformer: 52.59960245827196 kcal/mol)

>  <smiles>  (36) 
O=C(Nc1ccccc1)c1ccccc1Nc1cc(Cl)cc(Cl)c1

>  <score_type>  (36) 
oracle

>  <origin>  (36) 
adgpu

>  <m_score__min__energy>  (36) 
-10.630000000000001

>  <m_primary>  (36) 
energy

$$$$
36:0
     RDKit          3D

 38 40  0  0  0  0  0  0  0  0999 V2000
   -1.6230   23.5280  -26.6520 C   0  0  0  0  0  0  0  0  0  0  0  0
   -1.3160   24.8010  -27.3760 C   0  0  0  0  0  0  0  0  0  0  0  0
   -0.6470   25.8810  -26.8390 C   0  0  0  0  0  0  0  0  0  0  0  0
   -0.6280   26.8440  -27.8280 C   0  0  0  0  0  0  0  0  0  0  0  0
   -1.2310   26.3900  -28.9030 O   0  0  0  0  0  0  0  0  0  0  0  0
   -1.6440   25.1630  -28.6770 C   0  0  0  0  0  0  0  0  0  0  0  0
   -2.3590   24.3640  -29.6910 C   0  0  0  0  0  0  0  0  0  0  0  0
   -1.9320   23.2130  -29.9670 O   0  0  0  0  0  0  0  0  0  0  0  0
   -3.5140   24.8550  -30.3830 N   0  0  0  0  0  0  0  0  0  0  0  0
   -4.6420   24.0700  -30.7980 C   0  0  0  0  0  0  0  0  0  0  0  0
   -5.9530   24.5680  -30.7260 C   0  0  0  0  0  0  0  0  0  0  0  0
   -7.0270   23.7880  -31.1670 C   0  0  0  0  0  0  0  0  0  0  0  0
   -6.8050   22.4990  -31.6720 C   0  0  0  0  0  0  0  0  0  0  0  0
   -7.9580   21.6860  -32.1940 C   0  0  0  0  0  0  0  0  0  0  0  0
   -7.4770   20.4160  -32.7380 N   0  0  0  0  0  0  0  0  0  0  0  0
   -6.5560   20.3360  -33.6870 N   0  0  0  0  0  0  0  0  0  0  0  0
   -6.3040   19.0300  -33.9050 C   0  0  0  0  0  0  0  0  0  0  0  0
   -7.0810   18.2580  -33.0640 C   0  0  0  0  0  0  0  0  0  0  0  0
   -7.8210   19.1720  -32.3420 C   0  0  0  0  0  0  0  0  0  0  0  0
   -8.7590   18.8420  -31.2230 C   0  0  0  0  0  0  0  0  0  0  0  0
   -5.4970   21.9890  -31.7060 C   0  0  0  0  0  0  0  0  0  0  0  0
   -4.4240   22.7680  -31.2640 C   0  0  0  0  0  0  0  0  0  0  0  0
   -1.5806   23.7039  -25.5670 H   0  0  0  0  0  0  0  0  0  0  0  0
   -2.6302   23.1827  -26.9284 H   0  0  0  0  0  0  0  0  0  0  0  0
   -0.8839   22.7616  -26.9284 H   0  0  0  0  0  0  0  0  0  0  0  0
   -0.2168   25.9590  -25.8296 H   0  0  0  0  0  0  0  0  0  0  0  0
   -0.1757   27.8419  -27.7304 H   0  0  0  0  0  0  0  0  0  0  0  0
   -6.1359   25.5745  -30.3216 H   0  0  0  0  0  0  0  0  0  0  0  0
   -8.0506   24.1877  -31.1174 H   0  0  0  0  0  0  0  0  0  0  0  0
   -8.6623   21.4859  -31.3731 H   0  0  0  0  0  0  0  0  0  0  0  0
   -8.4617   22.2502  -32.9927 H   0  0  0  0  0  0  0  0  0  0  0  0
   -5.5874   18.6381  -34.6418 H   0  0  0  0  0  0  0  0  0  0  0  0
   -7.1047   17.1610  -32.9869 H   0  0  0  0  0  0  0  0  0  0  0  0
   -8.2575   19.0185  -30.2600 H   0  0  0  0  0  0  0  0  0  0  0  0
   -9.6525   19.4798  -31.2934 H   0  0  0  0  0  0  0  0  0  0  0  0
   -9.0563   17.7853  -31.2934 H   0  0  0  0  0  0  0  0  0  0  0  0
   -5.3160   20.9714  -32.0824 H   0  0  0  0  0  0  0  0  0  0  0  0
   -3.4041   22.3564  -31.2824 H   0  0  0  0  0  0  0  0  0  0  0  0
  1  2  1  0
  2  3  1  0
  3  4  2  0
  4  5  1  0
  5  6  1  0
  6  7  1  0
  7  8  2  0
  7  9  1  0
  9 10  1  0
 10 11  2  0
 11 12  1  0
 12 13  2  0
 13 14  1  0
 14 15  1  0
 15 16  1  0
 16 17  2  0
 17 18  1  0
 18 19  2  0
 19 20  1  0
 13 21  1  0
 21 22  2  0
  6  2  2  0
 22 10  1  0
 19 15  1  0
  1 23  1  0
  1 24  1  0
  1 25  1  0
  3 26  1  0
  4 27  1  0
 11 28  1  0
 12 29  1  0
 14 30  1  0
 14 31  1  0
 17 32  1  0
 18 33  1  0
 20 34  1  0
 20 35  1  0
 20 36  1  0
 21 37  1  0
 22 38  1  0
M  CHG  1   9  -1
M  END
>  <UniqueID>  (37) 
36

>  <SMILES>  (37) 
Cc1ccoc1C(=O)[N-]c1ccc(Cn2nccc2C)cc1

>  <Energy>  (37) 
98.3678236866493

>  <Genealogy>  (37) 
Cc1ccoc1C(=O)[N-]c1ccc(Cn2nccc2C)cc1 (protonated)
Cc1ccoc1C(=O)[N-]c1ccc(Cn2nccc2C)cc1 (3D coordinates assigned)
Cc1ccoc1C(=O)[N-]c1ccc(Cn2nccc2C)cc1 (optimized conformer: 98.3678236866493 kcal/mol)

>  <smiles>  (37) 
Cc1ccoc1C(=O)Nc1ccc(Cn2nccc2C)cc1

>  <score_type>  (37) 
oracle

>  <origin>  (37) 
adgpu

>  <m_score__min__energy>  (37) 
-9.5299999999999994

>  <m_primary>  (37) 
energy

$$$$
37:0
     RDKit          3D

 55 58  0  0  0  0  0  0  0  0999 V2000
   -1.6390   20.4820  -31.8730 C   0  0  0  0  0  0  0  0  0  0  0  0
   -2.3380   20.8620  -33.1750 C   0  0  0  0  0  0  0  0  0  0  0  0
   -3.8050   20.8930  -32.9920 N   0  0  0  0  0  0  0  0  0  0  0  0
   -4.3530   22.0930  -32.6230 C   0  0  0  0  0  0  0  0  0  0  0  0
   -5.7170   22.2200  -32.3650 C   0  0  0  0  0  0  0  0  0  0  0  0
   -6.2320   23.4860  -31.8160 C   0  0  0  0  0  0  0  0  0  0  0  0
   -7.0570   24.1610  -32.4890 O   0  0  0  0  0  0  0  0  0  0  0  0
   -5.7690   23.9960  -30.5560 N   0  0  0  0  0  0  0  0  0  0  0  0
   -5.2750   23.1830  -29.4430 C   0  0  0  0  0  0  0  0  0  0  0  0
   -3.7860   23.3470  -29.2660 C   0  0  0  0  0  0  0  0  0  0  0  0
   -2.9640   22.2230  -29.0760 C   0  0  0  0  0  0  0  0  0  0  0  0
   -1.5770   22.3690  -29.0070 C   0  0  0  0  0  0  0  0  0  0  0  0
   -0.9960   23.6410  -29.1040 C   0  0  0  0  0  0  0  0  0  0  0  0
    0.3890   23.7930  -29.0420 O   0  0  0  0  0  0  0  0  0  0  0  0
   -1.8130   24.7690  -29.2620 C   0  0  0  0  0  0  0  0  0  0  0  0
   -1.2470   26.0350  -29.3570 O   0  0  0  0  0  0  0  0  0  0  0  0
   -3.2010   24.6220  -29.3360 C   0  0  0  0  0  0  0  0  0  0  0  0
   -6.5570   21.1210  -32.5500 C   0  0  0  0  0  0  0  0  0  0  0  0
   -7.7970   21.2340  -32.3320 O   0  0  0  0  0  0  0  0  0  0  0  0
   -6.0140   19.8950  -32.9730 C   0  0  0  0  0  0  0  0  0  0  0  0
   -6.8400   18.7810  -33.1730 C   0  0  0  0  0  0  0  0  0  0  0  0
   -6.3160   17.5590  -33.5800 C   0  0  0  0  0  0  0  0  0  0  0  0
   -7.2040   16.5550  -33.7860 F   0  0  0  0  0  0  0  0  0  0  0  0
   -4.9230   17.3980  -33.7920 C   0  0  0  0  0  0  0  0  0  0  0  0
   -4.3450   16.1140  -34.2000 N   0  0  0  0  0  0  0  0  0  0  0  0
   -4.6400   14.8960  -33.3950 C   0  0  0  0  0  0  0  0  0  0  0  0
   -4.0120   13.5870  -33.9170 C   0  0  0  0  0  0  0  0  0  0  0  0
   -2.7740   13.8250  -34.6610 N   0  0  0  0  0  0  0  0  0  0  0  0
   -3.0770   14.6740  -35.8110 C   0  0  0  0  0  0  0  0  0  0  0  0
   -3.3710   16.0800  -35.3140 C   0  0  0  0  0  0  0  0  0  0  0  0
   -4.0980   18.5330  -33.5970 C   0  0  0  0  0  0  0  0  0  0  0  0
   -4.6160   19.7860  -33.1870 C   0  0  0  0  0  0  0  0  0  0  0  0
   -2.2485   20.8134  -31.0194 H   0  0  0  0  0  0  0  0  0  0  0  0
   -1.5113   19.3903  -31.8305 H   0  0  0  0  0  0  0  0  0  0  0  0
   -0.6533   20.9684  -31.8305 H   0  0  0  0  0  0  0  0  0  0  0  0
   -1.9928   21.8569  -33.4929 H   0  0  0  0  0  0  0  0  0  0  0  0
   -2.0932   20.1102  -33.9398 H   0  0  0  0  0  0  0  0  0  0  0  0
   -3.7028   22.9752  -32.5283 H   0  0  0  0  0  0  0  0  0  0  0  0
   -5.7827   23.4945  -28.5182 H   0  0  0  0  0  0  0  0  0  0  0  0
   -5.4850   22.1261  -29.6638 H   0  0  0  0  0  0  0  0  0  0  0  0
   -3.4151   21.2242  -28.9813 H   0  0  0  0  0  0  0  0  0  0  0  0
   -0.9383   21.4830  -28.8761 H   0  0  0  0  0  0  0  0  0  0  0  0
    0.8200   24.7100  -28.9990 H   0  0  0  0  0  0  0  0  0  0  0  0
   -3.8393   25.5106  -29.4498 H   0  0  0  0  0  0  0  0  0  0  0  0
   -7.9230   18.8749  -33.0049 H   0  0  0  0  0  0  0  0  0  0  0  0
   -4.2685   15.0665  -32.3738 H   0  0  0  0  0  0  0  0  0  0  0  0
   -5.7291   14.7524  -33.4523 H   0  0  0  0  0  0  0  0  0  0  0  0
   -3.7901   12.9343  -33.0598 H   0  0  0  0  0  0  0  0  0  0  0  0
   -4.7325   13.1171  -34.6026 H   0  0  0  0  0  0  0  0  0  0  0  0
   -2.4360   12.9040  -35.0250 H   0  0  0  0  0  0  0  0  0  0  0  0
   -2.2143   14.6952  -36.4931 H   0  0  0  0  0  0  0  0  0  0  0  0
   -3.9493   14.2770  -36.3508 H   0  0  0  0  0  0  0  0  0  0  0  0
   -2.4297   16.5326  -34.9690 H   0  0  0  0  0  0  0  0  0  0  0  0
   -3.8147   16.6365  -36.1527 H   0  0  0  0  0  0  0  0  0  0  0  0
   -3.0159   18.4378  -33.7703 H   0  0  0  0  0  0  0  0  0  0  0  0
  1  2  1  0
  2  3  1  0
  3  4  1  0
  4  5  2  0
  5  6  1  0
  6  7  2  0
  6  8  1  0
  8  9  1  0
  9 10  1  0
 10 11  2  0
 11 12  1  0
 12 13  2  0
 13 14  1  0
 13 15  1  0
 15 16  1  0
 15 17  2  0
  5 18  1  0
 18 19  2  0
 18 20  1  0
 20 21  2  0
 21 22  1  0
 22 23  1  0
 22 24  2  0
 24 25  1  0
 25 26  1  0
 26 27  1  0
 27 28  1  0
 28 29  1  0
 29 30  1  0
 24 31  1  0
 31 32  2  0
 32  3  1  0
 17 10  1  0
 32 20  1  0
 30 25  1  0
  1 33  1  0
  1 34  1  0
  1 35  1  0
  2 36  1  0
  2 37  1  0
  4 38  1  0
  9 39  1  0
  9 40  1  0
 11 41  1  0
 12 42  1  0
 14 43  1  0
 17 44  1  0
 21 45  1  0
 26 46  1  0
 26 47  1  0
 27 48  1  0
 27 49  1  0
 28 50  1  0
 29 51  1  0
 29 52  1  0
 30 53  1  0
 30 54  1  0
 31 55  1  0
M  CHG  2   8  -1  16  -1
M  END
>  <UniqueID>  (38) 
37

>  <SMILES>  (38) 
CCn1cc(C(=O)[N-]Cc2ccc(O)c([O-])c2)c(=O)c2cc(F)c(N3CCNCC3)cc21

>  <Energy>  (38) 
77.70079528760421

>  <Genealogy>  (38) 
CCn1cc(C(=O)[N-]Cc2ccc(O)c([O-])c2)c(=O)c2cc(F)c(N3CCNCC3)cc21 (protonated)
CCn1cc(C(=O)[N-]Cc2ccc(O)c([O-])c2)c(=O)c2cc(F)c(N3CCNCC3)cc21 (3D coordinates assigned)
CCn1cc(C(=O)[N-]Cc2ccc(O)c([O-])c2)c(=O)c2cc(F)c(N3CCNCC3)cc21 (nonaromatic ring conformer: 77.70079528760421 kcal/mol)

>  <smiles>  (38) 
CCn1cc(C(=O)NCc2ccc(O)c(O)c2)c(=O)c2cc(F)c(N3CCNCC3)cc21

>  <score_type>  (38) 
oracle

>  <origin>  (38) 
adgpu

>  <m_score__min__energy>  (38) 
-11.76

>  <m_primary>  (38) 
energy

$$$$
38:0
     RDKit          3D

 48 51  0  0  0  0  0  0  0  0999 V2000
   -0.8710   26.6800  -27.9170 C   0  0  0  0  0  0  0  0  0  0  0  0
   -1.3050   25.9130  -29.0350 O   0  0  0  0  0  0  0  0  0  0  0  0
   -1.5220   24.5260  -29.0110 C   0  0  0  0  0  0  0  0  0  0  0  0
   -0.6580   23.6470  -28.3250 C   0  0  0  0  0  0  0  0  0  0  0  0
   -0.9060   22.2730  -28.3240 C   0  0  0  0  0  0  0  0  0  0  0  0
   -2.0150   21.7610  -28.9980 C   0  0  0  0  0  0  0  0  0  0  0  0
   -2.8770   22.6210  -29.6790 C   0  0  0  0  0  0  0  0  0  0  0  0
   -2.6350   24.0070  -29.6960 C   0  0  0  0  0  0  0  0  0  0  0  0
   -3.4980   24.9170  -30.3940 N   0  0  0  0  0  0  0  0  0  0  0  0
   -5.2120   25.0470  -30.1680 S   0  0  0  0  0  0  0  0  0  0  0  0
   -5.5320   25.0060  -28.6990 O   0  0  0  0  0  0  0  0  0  0  0  0
   -5.6850   26.3600  -30.7250 O   0  0  0  0  0  0  0  0  0  0  0  0
   -6.0210   23.7400  -31.0300 C   0  0  0  0  0  0  0  0  0  0  0  0
   -7.4120   23.7770  -31.1910 C   0  0  0  0  0  0  0  0  0  0  0  0
   -8.0650   22.7540  -31.8840 C   0  0  0  0  0  0  0  0  0  0  0  0
   -7.3330   21.6980  -32.4310 C   0  0  0  0  0  0  0  0  0  0  0  0
   -5.9370   21.6660  -32.3000 C   0  0  0  0  0  0  0  0  0  0  0  0
   -5.1690   20.5390  -32.8690 C   0  0  0  0  0  0  0  0  0  0  0  0
   -3.8920   20.7770  -33.2650 N   0  0  0  0  0  0  0  0  0  0  0  0
   -3.1220   19.8430  -33.8290 N   0  0  0  0  0  0  0  0  0  0  0  0
   -1.7620   20.2060  -34.2260 C   0  0  0  0  0  0  0  0  0  0  0  0
   -3.6010   18.5810  -34.0470 C   0  0  0  0  0  0  0  0  0  0  0  0
   -2.8670   17.7120  -34.6000 O   0  0  0  0  0  0  0  0  0  0  0  0
   -4.9070   18.2520  -33.6450 C   0  0  0  0  0  0  0  0  0  0  0  0
   -5.4260   16.9560  -33.8310 C   0  0  0  0  0  0  0  0  0  0  0  0
   -6.7140   16.6420  -33.3940 C   0  0  0  0  0  0  0  0  0  0  0  0
   -7.4940   17.6080  -32.7600 C   0  0  0  0  0  0  0  0  0  0  0  0
   -6.9970   18.8990  -32.5700 C   0  0  0  0  0  0  0  0  0  0  0  0
   -5.7070   19.2440  -33.0300 C   0  0  0  0  0  0  0  0  0  0  0  0
   -5.2860   22.6790  -31.5760 C   0  0  0  0  0  0  0  0  0  0  0  0
   -1.1603   26.1687  -26.9870 H   0  0  0  0  0  0  0  0  0  0  0  0
    0.2230   26.7897  -27.9500 H   0  0  0  0  0  0  0  0  0  0  0  0
   -1.3403   27.6743  -27.9500 H   0  0  0  0  0  0  0  0  0  0  0  0
    0.2153   24.0460  -27.7883 H   0  0  0  0  0  0  0  0  0  0  0  0
   -0.2256   21.5928  -27.7907 H   0  0  0  0  0  0  0  0  0  0  0  0
   -2.2099   20.6784  -28.9925 H   0  0  0  0  0  0  0  0  0  0  0  0
   -3.7518   22.2127  -30.2063 H   0  0  0  0  0  0  0  0  0  0  0  0
   -7.9913   24.6126  -30.7713 H   0  0  0  0  0  0  0  0  0  0  0  0
   -9.1587   22.7807  -31.9989 H   0  0  0  0  0  0  0  0  0  0  0  0
   -7.8526   20.8893  -32.9659 H   0  0  0  0  0  0  0  0  0  0  0  0
   -1.1490   20.3696  -33.3274 H   0  0  0  0  0  0  0  0  0  0  0  0
   -1.3254   19.3929  -34.8246 H   0  0  0  0  0  0  0  0  0  0  0  0
   -1.7887   21.1285  -34.8246 H   0  0  0  0  0  0  0  0  0  0  0  0
   -4.8129   16.1868  -34.3234 H   0  0  0  0  0  0  0  0  0  0  0  0
   -7.1146   15.6295  -33.5503 H   0  0  0  0  0  0  0  0  0  0  0  0
   -8.5044   17.3523  -32.4082 H   0  0  0  0  0  0  0  0  0  0  0  0
   -7.6143   19.6523  -32.0587 H   0  0  0  0  0  0  0  0  0  0  0  0
   -4.1955   22.6391  -31.4372 H   0  0  0  0  0  0  0  0  0  0  0  0
  1  2  1  0
  2  3  1  0
  3  4  2  0
  4  5  1  0
  5  6  2  0
  6  7  1  0
  7  8  2  0
  8  9  1  0
  9 10  1  0
 10 11  2  0
 10 12  2  0
 10 13  1  0
 13 14  2  0
 14 15  1  0
 15 16  2  0
 16 17  1  0
 17 18  1  0
 18 19  2  0
 19 20  1  0
 20 21  1  0
 20 22  1  0
 22 23  2  0
 22 24  1  0
 24 25  2  0
 25 26  1  0
 26 27  2  0
 27 28  1  0
 28 29  2  0
 17 30  2  0
  8  3  1  0
 30 13  1  0
 29 18  1  0
 29 24  1  0
  1 31  1  0
  1 32  1  0
  1 33  1  0
  4 34  1  0
  5 35  1  0
  6 36  1  0
  7 37  1  0
 14 38  1  0
 15 39  1  0
 16 40  1  0
 21 41  1  0
 21 42  1  0
 21 43  1  0
 25 44  1  0
 26 45  1  0
 27 46  1  0
 28 47  1  0
 30 48  1  0
M  CHG  1   9  -1
M  END
>  <UniqueID>  (39) 
38

>  <SMILES>  (39) 
COc1ccccc1[N-]S(=O)(=O)c1cccc(-c2nn(C)c(=O)c3ccccc23)c1

>  <Energy>  (39) 
67.7719219908958

>  <Genealogy>  (39) 
COc1ccccc1[N-]S(=O)(=O)c1cccc(-c2nn(C)c(=O)c3ccccc23)c1 (protonated)
COc1ccccc1[N-]S(=O)(=O)c1cccc(-c2nn(C)c(=O)c3ccccc23)c1 (3D coordinates assigned)
COc1ccccc1[N-]S(=O)(=O)c1cccc(-c2nn(C)c(=O)c3ccccc23)c1 (optimized conformer: 67.7719219908958 kcal/mol)

>  <smiles>  (39) 
COc1ccccc1NS(=O)(=O)c1cccc(-c2nn(C)c(=O)c3ccccc23)c1

>  <score_type>  (39) 
oracle

>  <origin>  (39) 
adgpu

>  <m_score__min__energy>  (39) 
-12.699999999999999

>  <m_primary>  (39) 
energy

$$$$
39:0
     RDKit          3D

 41 43  0  0  0  0  0  0  0  0999 V2000
   -1.3100   21.0830  -31.3400 C   0  0  0  0  0  0  0  0  0  0  0  0
   -0.1790   20.8190  -29.9400 S   0  0  0  0  0  0  0  0  0  0  0  0
   -0.5380   22.4100  -29.1930 C   0  0  0  0  0  0  0  0  0  0  0  0
    0.3300   22.9460  -28.2350 C   0  0  0  0  0  0  0  0  0  0  0  0
    0.0590   24.1930  -27.6670 C   0  0  0  0  0  0  0  0  0  0  0  0
   -1.0880   24.8990  -28.0420 C   0  0  0  0  0  0  0  0  0  0  0  0
   -1.9830   24.3590  -28.9740 C   0  0  0  0  0  0  0  0  0  0  0  0
   -3.1380   25.1310  -29.3450 N   0  0  0  0  0  0  0  0  0  0  0  0
   -4.0940   24.7600  -30.1440 C   0  0  0  0  0  0  0  0  0  0  0  0
   -4.1950   23.5310  -30.6940 N   0  0  0  0  0  0  0  0  0  0  0  0
   -5.3130   23.4010  -31.4620 C   0  0  0  0  0  0  0  0  0  0  0  0
   -5.6130   22.1280  -32.1730 C   0  0  0  0  0  0  0  0  0  0  0  0
   -4.5620   21.3750  -32.7280 C   0  0  0  0  0  0  0  0  0  0  0  0
   -4.8170   20.1780  -33.4030 C   0  0  0  0  0  0  0  0  0  0  0  0
   -6.1310   19.7000  -33.5360 C   0  0  0  0  0  0  0  0  0  0  0  0
   -6.4340   18.4710  -34.2230 N   0  0  0  0  0  0  0  0  0  0  0  0
   -6.2370   16.8870  -33.5380 S   0  0  0  0  0  0  0  0  0  0  0  0
   -4.5690   16.3150  -33.7830 C   0  0  0  0  0  0  0  0  0  0  0  0
   -6.5040   16.9620  -32.0620 O   0  0  0  0  0  0  0  0  0  0  0  0
   -7.2190   15.9310  -34.1570 O   0  0  0  0  0  0  0  0  0  0  0  0
   -7.1820   20.4510  -32.9910 C   0  0  0  0  0  0  0  0  0  0  0  0
   -6.9300   21.6490  -32.3170 C   0  0  0  0  0  0  0  0  0  0  0  0
   -6.1140   24.5500  -31.5040 C   0  0  0  0  0  0  0  0  0  0  0  0
   -5.3890   25.7380  -30.5570 S   0  0  0  0  0  0  0  0  0  0  0  0
   -1.6870   23.1160  -29.5680 C   0  0  0  0  0  0  0  0  0  0  0  0
   -2.3153   21.3177  -30.9600 H   0  0  0  0  0  0  0  0  0  0  0  0
   -0.9452   21.9201  -31.9533 H   0  0  0  0  0  0  0  0  0  0  0  0
   -1.3535   20.1709  -31.9533 H   0  0  0  0  0  0  0  0  0  0  0  0
    1.2256   22.3853  -27.9293 H   0  0  0  0  0  0  0  0  0  0  0  0
    0.7487   24.6199  -26.9240 H   0  0  0  0  0  0  0  0  0  0  0  0
   -1.2891   25.8866  -27.6014 H   0  0  0  0  0  0  0  0  0  0  0  0
   -3.5265   21.7329  -32.6294 H   0  0  0  0  0  0  0  0  0  0  0  0
   -3.9820   19.6058  -33.8335 H   0  0  0  0  0  0  0  0  0  0  0  0
   -6.8640   18.5170  -35.1740 H   0  0  0  0  0  0  0  0  0  0  0  0
   -4.0905   16.1509  -32.8062 H   0  0  0  0  0  0  0  0  0  0  0  0
   -4.5843   15.3708  -34.3471 H   0  0  0  0  0  0  0  0  0  0  0  0
   -4.0016   17.0699  -34.3471 H   0  0  0  0  0  0  0  0  0  0  0  0
   -8.2169   20.0931  -33.0951 H   0  0  0  0  0  0  0  0  0  0  0  0
   -7.7678   22.2234  -31.8950 H   0  0  0  0  0  0  0  0  0  0  0  0
   -7.0564   24.6574  -32.0611 H   0  0  0  0  0  0  0  0  0  0  0  0
   -2.3619   22.6986  -30.3298 H   0  0  0  0  0  0  0  0  0  0  0  0
  1  2  1  0
  2  3  1  0
  3  4  2  0
  4  5  1  0
  5  6  2  0
  6  7  1  0
  7  8  1  0
  8  9  2  3
  9 10  1  0
 10 11  1  0
 11 12  1  0
 12 13  2  0
 13 14  1  0
 14 15  2  0
 15 16  1  0
 16 17  1  0
 17 18  1  0
 17 19  2  0
 17 20  2  0
 15 21  1  0
 21 22  2  0
 11 23  2  0
 23 24  1  0
  7 25  2  0
 25  3  1  0
 24  9  1  0
 22 12  1  0
  1 26  1  0
  1 27  1  0
  1 28  1  0
  4 29  1  0
  5 30  1  0
  6 31  1  0
 13 32  1  0
 14 33  1  0
 16 34  1  0
 18 35  1  0
 18 36  1  0
 18 37  1  0
 21 38  1  0
 22 39  1  0
 23 40  1  0
 25 41  1  0
M  CHG  1  10  -1
M  END
>  <UniqueID>  (40) 
39

>  <SMILES>  (40) 
CSc1cccc(N=c2[n-]c(-c3ccc(NS(C)(=O)=O)cc3)cs2)c1

>  <Energy>  (40) 
75.33675504177539

>  <Genealogy>  (40) 
CSc1cccc(N=c2[n-]c(-c3ccc(NS(C)(=O)=O)cc3)cs2)c1 (protonated)
CSc1cccc(N=c2[n-]c(-c3ccc(NS(C)(=O)=O)cc3)cs2)c1 (3D coordinates assigned)
CSc1cccc(N=c2[n-]c(-c3ccc(NS(C)(=O)=O)cc3)cs2)c1 (optimized conformer: 75.33675504177539 kcal/mol)

>  <smiles>  (40) 
CSc1cccc(N=c2[nH]c(-c3ccc(NS(C)(=O)=O)cc3)cs2)c1

>  <score_type>  (40) 
oracle

>  <origin>  (40) 
adgpu

>  <m_score__min__energy>  (40) 
-9.7200000000000006

>  <m_primary>  (40) 
energy

$$$$
40:0
     RDKit          3D

 54 57  0  0  0  0  0  0  0  0999 V2000
   -5.4971   26.2002  -31.2963 H   0  0  0  0  0  0  0  0  0  0  0  0
   -5.0540   25.2680  -30.9160 C   0  0  0  0  0  0  0  0  0  0  0  0
   -3.8630   25.3010  -30.2660 N   0  0  0  0  0  0  0  0  0  0  0  0
   -3.2650   24.1760  -29.7870 C   0  0  0  0  0  0  0  0  0  0  0  0
   -1.9750   24.2930  -29.0620 C   0  0  0  0  0  0  0  0  0  0  0  0
   -1.6460   25.4540  -28.3330 C   0  0  0  0  0  0  0  0  0  0  0  0
   -2.3607   26.2886  -28.2825 H   0  0  0  0  0  0  0  0  0  0  0  0
   -0.4170   25.5510  -27.6740 C   0  0  0  0  0  0  0  0  0  0  0  0
   -0.1708   26.4586  -27.1034 H   0  0  0  0  0  0  0  0  0  0  0  0
    0.5000   24.4980  -27.7380 C   0  0  0  0  0  0  0  0  0  0  0  0
    1.4651   24.5761  -27.2160 H   0  0  0  0  0  0  0  0  0  0  0  0
    0.1900   23.3470  -28.4650 C   0  0  0  0  0  0  0  0  0  0  0  0
    0.9125   22.5192  -28.5161 H   0  0  0  0  0  0  0  0  0  0  0  0
   -1.0360   23.2440  -29.1280 C   0  0  0  0  0  0  0  0  0  0  0  0
   -1.2698   22.3375  -29.7056 H   0  0  0  0  0  0  0  0  0  0  0  0
   -3.8900   22.9320  -29.9870 C   0  0  0  0  0  0  0  0  0  0  0  0
   -3.3973   22.0087  -29.6483 H   0  0  0  0  0  0  0  0  0  0  0  0
   -5.1390   22.8680  -30.6170 C   0  0  0  0  0  0  0  0  0  0  0  0
   -5.7210   21.7060  -30.7330 N   0  0  0  0  0  0  0  0  0  0  0  0
   -7.0400   21.4480  -31.2430 C   0  0  0  0  0  0  0  0  0  0  0  0
   -8.1340   22.0000  -30.5660 C   0  0  0  0  0  0  0  0  0  0  0  0
   -7.9665   22.6357  -29.6840 H   0  0  0  0  0  0  0  0  0  0  0  0
   -9.4370   21.7490  -31.0030 C   0  0  0  0  0  0  0  0  0  0  0  0
  -10.2912   22.1784  -30.4590 H   0  0  0  0  0  0  0  0  0  0  0  0
   -9.6560   20.9540  -32.1290 C   0  0  0  0  0  0  0  0  0  0  0  0
  -10.6832   20.7462  -32.4632 H   0  0  0  0  0  0  0  0  0  0  0  0
   -8.5730   20.4220  -32.8320 C   0  0  0  0  0  0  0  0  0  0  0  0
   -8.7522   19.7949  -33.7178 H   0  0  0  0  0  0  0  0  0  0  0  0
   -7.2550   20.6820  -32.4160 C   0  0  0  0  0  0  0  0  0  0  0  0
   -6.1350   20.1430  -33.2190 C   0  0  0  0  0  0  0  0  0  0  0  0
   -6.3320   19.1200  -33.9300 O   0  0  0  0  0  0  0  0  0  0  0  0
   -4.8360   20.7600  -33.1630 N   0  0  0  0  0  0  0  0  0  0  0  0
   -4.7660   21.6870  -32.6860 H   0  0  0  0  0  0  0  0  0  0  0  0
   -3.6080   20.0690  -33.4510 C   0  0  0  0  0  0  0  0  0  0  0  0
   -2.4110   20.7960  -33.4820 C   0  0  0  0  0  0  0  0  0  0  0  0
   -2.4305   21.8841  -33.3220 H   0  0  0  0  0  0  0  0  0  0  0  0
   -1.1930   20.1530  -33.7140 C   0  0  0  0  0  0  0  0  0  0  0  0
   -0.2613   20.7378  -33.7090 H   0  0  0  0  0  0  0  0  0  0  0  0
   -1.1410   18.7620  -33.9550 C   0  0  0  0  0  0  0  0  0  0  0  0
    0.1280   18.0840  -34.1780 N   0  0  0  0  0  0  0  0  0  0  0  0
    0.5330   16.9540  -33.3310 C   0  0  0  0  0  0  0  0  0  0  0  0
    0.4323   17.2348  -32.2722 H   0  0  0  0  0  0  0  0  0  0  0  0
   -0.1105   16.0875  -33.5433 H   0  0  0  0  0  0  0  0  0  0  0  0
    1.5804   16.6936  -33.5433 H   0  0  0  0  0  0  0  0  0  0  0  0
    1.0280   18.5160  -35.2560 C   0  0  0  0  0  0  0  0  0  0  0  0
    1.9386   18.9531  -34.8204 H   0  0  0  0  0  0  0  0  0  0  0  0
    1.2983   17.6495  -35.8774 H   0  0  0  0  0  0  0  0  0  0  0  0
    0.5210   19.2689  -35.8774 H   0  0  0  0  0  0  0  0  0  0  0  0
   -2.3600   18.0500  -33.9790 C   0  0  0  0  0  0  0  0  0  0  0  0
   -2.3529   16.9712  -34.1938 H   0  0  0  0  0  0  0  0  0  0  0  0
   -3.5760   18.6950  -33.7340 C   0  0  0  0  0  0  0  0  0  0  0  0
   -4.5141   18.1214  -33.7633 H   0  0  0  0  0  0  0  0  0  0  0  0
   -5.7170   24.0570  -31.1030 C   0  0  0  0  0  0  0  0  0  0  0  0
   -6.6843   24.0296  -31.6261 H   0  0  0  0  0  0  0  0  0  0  0  0
  1  2  1  0
  2  3  1  0
  3  4  1  0
  4  5  1  0
  5  6  2  0
  6  7  1  0
  6  8  1  0
  8  9  1  0
  8 10  2  0
 10 11  1  0
 10 12  1  0
 12 13  1  0
 12 14  2  0
 14 15  1  0
  4 16  2  0
 16 17  1  0
 16 18  1  0
 18 19  2  0
 19 20  1  0
 20 21  2  0
 21 22  1  0
 21 23  1  0
 23 24  1  0
 23 25  2  0
 25 26  1  0
 25 27  1  0
 27 28  1  0
 27 29  2  0
 29 30  1  0
 30 31  2  0
 30 32  1  0
 32 33  1  0
 32 34  1  0
 34 35  2  0
 35 36  1  0
 35 37  1  0
 37 38  1  0
 37 39  2  0
 39 40  1  0
 40 41  1  0
 41 42  1  0
 41 43  1  0
 41 44  1  0
 40 45  1  0
 45 46  1  0
 45 47  1  0
 45 48  1  0
 39 49  1  0
 49 50  1  0
 49 51  2  0
 51 52  1  0
 18 53  1  0
 53 54  1  0
 53  2  2  0
 14  5  1  0
 29 20  1  0
 51 34  1  0
M  CHG  1   3  -1
M  END
>  <UniqueID>  (41) 
40

>  <SMILES>  (41) 
CN(C)c1ccc(NC(=O)c2ccccc2/N=c2\cc[n-]c(-c3ccccc3)c2)cc1

>  <Energy>  (41) 
80.71912144324135

>  <Genealogy>  (41) 
CN(C)c1ccc(NC(=O)c2ccccc2N=c2cc[n-]c(-c3ccccc3)c2)cc1 (protonated)
CN(C)c1ccc(NC(=O)c2ccccc2/N=c2\cc[n-]c(-c3ccccc3)c2)cc1 (cis-trans isomerization)
CN(C)c1ccc(NC(=O)c2ccccc2/N=c2\cc[n-]c(-c3ccccc3)c2)cc1 (3D coordinates assigned)
CN(C)c1ccc(NC(=O)c2ccccc2/N=c2\cc[n-]c(-c3ccccc3)c2)cc1 (optimized conformer: 80.71912144324135 kcal/mol)

>  <smiles>  (41) 
CN(C)c1ccc(NC(=O)c2ccccc2N=c2cc[nH]c(-c3ccccc3)c2)cc1

>  <score_type>  (41) 
oracle

>  <origin>  (41) 
adgpu

>  <m_score__min__energy>  (41) 
-11.34

>  <m_primary>  (41) 
energy

$$$$
41:0
     RDKit          3D

 32 34  0  0  0  0  0  0  0  0999 V2000
   -5.3120   25.6890  -30.4470 C   0  0  0  0  0  0  0  0  0  0  0  0
   -3.9410   25.3060  -30.4700 O   0  0  0  0  0  0  0  0  0  0  0  0
   -3.4880   23.9780  -30.4630 C   0  0  0  0  0  0  0  0  0  0  0  0
   -2.3390   23.6750  -29.7250 C   0  0  0  0  0  0  0  0  0  0  0  0
   -1.8380   22.3610  -29.6830 C   0  0  0  0  0  0  0  0  0  0  0  0
   -0.6890   22.0170  -28.9540 O   0  0  0  0  0  0  0  0  0  0  0  0
   -0.6960   21.2420  -27.7590 C   0  0  0  0  0  0  0  0  0  0  0  0
   -2.5020   21.3520  -30.3880 C   0  0  0  0  0  0  0  0  0  0  0  0
   -3.6570   21.6370  -31.1340 C   0  0  0  0  0  0  0  0  0  0  0  0
   -4.3540   20.5680  -31.8780 C   0  0  0  0  0  0  0  0  0  0  0  0
   -4.0580   20.2310  -33.1640 N   0  0  0  0  0  0  0  0  0  0  0  0
   -4.9280   19.2360  -33.4030 C   0  0  0  0  0  0  0  0  0  0  0  0
   -5.0860   18.4990  -34.5740 C   0  0  0  0  0  0  0  0  0  0  0  0
   -6.0760   17.4950  -34.5830 C   0  0  0  0  0  0  0  0  0  0  0  0
   -6.8690   17.2610  -33.4370 C   0  0  0  0  0  0  0  0  0  0  0  0
   -6.6800   18.0280  -32.2710 C   0  0  0  0  0  0  0  0  0  0  0  0
   -5.6930   19.0080  -32.3010 C   0  0  0  0  0  0  0  0  0  0  0  0
   -5.3300   19.8380  -31.3610 O   0  0  0  0  0  0  0  0  0  0  0  0
   -4.1460   22.9530  -31.1690 C   0  0  0  0  0  0  0  0  0  0  0  0
   -5.6490   25.7831  -29.4041 H   0  0  0  0  0  0  0  0  0  0  0  0
   -5.4315   26.6549  -30.9596 H   0  0  0  0  0  0  0  0  0  0  0  0
   -5.9148   24.9249  -30.9596 H   0  0  0  0  0  0  0  0  0  0  0  0
   -1.8217   24.4726  -29.1716 H   0  0  0  0  0  0  0  0  0  0  0  0
   -0.6899   21.9126  -26.8871 H   0  0  0  0  0  0  0  0  0  0  0  0
   -1.5998   20.6156  -27.7335 H   0  0  0  0  0  0  0  0  0  0  0  0
    0.1964   20.5993  -27.7335 H   0  0  0  0  0  0  0  0  0  0  0  0
   -2.1148   20.3228  -30.3577 H   0  0  0  0  0  0  0  0  0  0  0  0
   -4.4619   18.6928  -35.4588 H   0  0  0  0  0  0  0  0  0  0  0  0
   -6.2321   16.8898  -35.4882 H   0  0  0  0  0  0  0  0  0  0  0  0
   -7.6385   16.4751  -33.4557 H   0  0  0  0  0  0  0  0  0  0  0  0
   -7.2894   17.8587  -31.3711 H   0  0  0  0  0  0  0  0  0  0  0  0
   -5.0495   23.1846  -31.7521 H   0  0  0  0  0  0  0  0  0  0  0  0
  1  2  1  0
  2  3  1  0
  3  4  2  0
  4  5  1  0
  5  6  1  0
  6  7  1  0
  5  8  2  0
  8  9  1  0
  9 10  1  0
 10 11  2  0
 11 12  1  0
 12 13  2  0
 13 14  1  0
 14 15  2  0
 15 16  1  0
 16 17  2  0
 17 18  1  0
  9 19  2  0
 19  3  1  0
 18 10  1  0
 17 12  1  0
  1 20  1  0
  1 21  1  0
  1 22  1  0
  4 23  1  0
  7 24  1  0
  7 25  1  0
  7 26  1  0
  8 27  1  0
 13 28  1  0
 14 29  1  0
 15 30  1  0
 16 31  1  0
 19 32  1  0
M  END
>  <UniqueID>  (42) 
41

>  <SMILES>  (42) 
COc1cc(OC)cc(-c2nc3ccccc3o2)c1

>  <Energy>  (42) 
70.87923722182487

>  <Genealogy>  (42) 
COc1cc(OC)cc(-c2nc3ccccc3o2)c1 (3D coordinates assigned)
COc1cc(OC)cc(-c2nc3ccccc3o2)c1 (optimized conformer: 70.87923722182487 kcal/mol)

>  <smiles>  (42) 
COc1cc(OC)cc(-c2nc3ccccc3o2)c1

>  <score_type>  (42) 
oracle

>  <origin>  (42) 
adgpu

>  <m_score__min__energy>  (42) 
-6.1200000000000001

>  <m_primary>  (42) 
energy

$$$$
42:0
     RDKit          3D

 25 26  0  0  0  0  0  0  0  0999 V2000
   -3.8336   21.4591  -33.2968 H   0  0  0  0  0  0  0  0  0  0  0  0
   -4.7530   21.7090  -32.7470 C   0  0  0  0  0  0  0  0  0  0  0  0
   -4.8310   22.8700  -32.0450 N   0  0  0  0  0  0  0  0  0  0  0  0
   -5.9500   23.2220  -31.3480 C   0  0  0  0  0  0  0  0  0  0  0  0
   -6.0120   24.3390  -30.6800 N   0  0  0  0  0  0  0  0  0  0  0  0
   -4.9890   25.3380  -30.5530 C   0  0  0  0  0  0  0  0  0  0  0  0
   -5.3330   26.5450  -30.4610 O   0  0  0  0  0  0  0  0  0  0  0  0
   -3.6020   24.9750  -30.4700 N   0  0  0  0  0  0  0  0  0  0  0  0
   -2.9530   24.2990  -29.3830 C   0  0  0  0  0  0  0  0  0  0  0  0
   -3.4790   23.1200  -28.8220 C   0  0  0  0  0  0  0  0  0  0  0  0
   -4.4022   22.6832  -29.2305 H   0  0  0  0  0  0  0  0  0  0  0  0
   -2.8320   22.5020  -27.7470 C   0  0  0  0  0  0  0  0  0  0  0  0
   -3.2416   21.5752  -27.3188 H   0  0  0  0  0  0  0  0  0  0  0  0
   -1.6660   23.0600  -27.2160 C   0  0  0  0  0  0  0  0  0  0  0  0
   -1.1533   22.5679  -26.3764 H   0  0  0  0  0  0  0  0  0  0  0  0
   -1.1520   24.2430  -27.7520 C   0  0  0  0  0  0  0  0  0  0  0  0
   -0.2392   24.6865  -27.3276 H   0  0  0  0  0  0  0  0  0  0  0  0
   -1.7950   24.8650  -28.8270 C   0  0  0  0  0  0  0  0  0  0  0  0
   -1.2760   26.0470  -29.3450 O   0  0  0  0  0  0  0  0  0  0  0  0
   -7.0580   22.3660  -31.3520 C   0  0  0  0  0  0  0  0  0  0  0  0
   -7.9682   22.6360  -30.7965 H   0  0  0  0  0  0  0  0  0  0  0  0
   -7.0000   21.1670  -32.0660 C   0  0  0  0  0  0  0  0  0  0  0  0
   -7.8650   20.4875  -32.0738 H   0  0  0  0  0  0  0  0  0  0  0  0
   -5.8410   20.8330  -32.7700 C   0  0  0  0  0  0  0  0  0  0  0  0
   -5.7450   19.1980  -33.7520 Br  0  0  0  0  0  0  0  0  0  0  0  0
  1  2  1  0
  2  3  1  0
  3  4  1  0
  4  5  2  0
  5  6  1  0
  6  7  2  0
  6  8  1  0
  8  9  1  0
  9 10  2  0
 10 11  1  0
 10 12  1  0
 12 13  1  0
 12 14  2  0
 14 15  1  0
 14 16  1  0
 16 17  1  0
 16 18  2  0
 18 19  1  0
  4 20  1  0
 20 21  1  0
 20 22  2  0
 22 23  1  0
 22 24  1  0
 24 25  1  0
 24  2  2  0
 18  9  1  0
M  CHG  3   3  -1   8  -1  19  -1
M  END
>  <UniqueID>  (43) 
42

>  <SMILES>  (43) 
O=C(/N=c1/ccc(Br)c[n-]1)[N-]c1ccccc1[O-]

>  <Energy>  (43) 
32.841020211828386

>  <Genealogy>  (43) 
O=C(N=c1ccc(Br)c[n-]1)[N-]c1ccccc1[O-] (protonated)
O=C(/N=c1/ccc(Br)c[n-]1)[N-]c1ccccc1[O-] (cis-trans isomerization)
O=C(/N=c1/ccc(Br)c[n-]1)[N-]c1ccccc1[O-] (3D coordinates assigned)
O=C(/N=c1/ccc(Br)c[n-]1)[N-]c1ccccc1[O-] (optimized conformer: 32.841020211828386 kcal/mol)

>  <smiles>  (43) 
O=C(N=c1ccc(Br)c[nH]1)Nc1ccccc1O

>  <score_type>  (43) 
oracle

>  <origin>  (43) 
adgpu

>  <m_score__min__energy>  (43) 
-11.76

>  <m_primary>  (43) 
energy

$$$$
43:0
     RDKit          3D

 51 54  0  0  0  0  0  0  0  0999 V2000
   -1.1240   26.0020  -27.7250 C   0  0  0  0  0  0  0  0  0  0  0  0
   -1.7740   25.7290  -28.9630 O   0  0  0  0  0  0  0  0  0  0  0  0
   -2.3750   24.5080  -29.3060 C   0  0  0  0  0  0  0  0  0  0  0  0
   -1.8770   23.2920  -28.8000 C   0  0  0  0  0  0  0  0  0  0  0  0
   -2.4850   22.0730  -29.1220 C   0  0  0  0  0  0  0  0  0  0  0  0
   -1.9660   20.8160  -28.5400 C   0  0  0  0  0  0  0  0  0  0  0  0
   -2.6630   20.2270  -27.4700 C   0  0  0  0  0  0  0  0  0  0  0  0
   -2.2400   19.0080  -26.9320 C   0  0  0  0  0  0  0  0  0  0  0  0
   -3.1160   18.2890  -25.5940 Cl  0  0  0  0  0  0  0  0  0  0  0  0
   -1.1230   18.3610  -27.4640 C   0  0  0  0  0  0  0  0  0  0  0  0
   -0.4260   18.9300  -28.5320 C   0  0  0  0  0  0  0  0  0  0  0  0
   -0.8350   20.1550  -29.0750 C   0  0  0  0  0  0  0  0  0  0  0  0
    0.0950   20.8120  -30.4710 S   0  0  0  0  0  0  0  0  0  0  0  0
   -1.2860   20.6460  -31.5940 C   0  0  0  0  0  0  0  0  0  0  0  0
   -1.6610   21.5820  -32.4830 N   0  0  0  0  0  0  0  0  0  0  0  0
   -2.6950   21.0720  -33.1360 N   0  0  0  0  0  0  0  0  0  0  0  0
   -2.9100   19.8470  -32.6120 C   0  0  0  0  0  0  0  0  0  0  0  0
   -3.9660   18.9170  -33.0540 C   0  0  0  0  0  0  0  0  0  0  0  0
   -3.6980   17.9780  -34.0630 C   0  0  0  0  0  0  0  0  0  0  0  0
   -4.7010   17.1090  -34.5040 C   0  0  0  0  0  0  0  0  0  0  0  0
   -5.9810   17.1680  -33.9390 C   0  0  0  0  0  0  0  0  0  0  0  0
   -6.9890   16.3090  -34.3700 O   0  0  0  0  0  0  0  0  0  0  0  0
   -6.2510   18.0960  -32.9280 C   0  0  0  0  0  0  0  0  0  0  0  0
   -5.2490   18.9650  -32.4850 C   0  0  0  0  0  0  0  0  0  0  0  0
   -2.0470   19.5840  -31.6610 O   0  0  0  0  0  0  0  0  0  0  0  0
   -3.5850   22.0600  -29.9840 C   0  0  0  0  0  0  0  0  0  0  0  0
   -4.1000   23.2600  -30.5040 C   0  0  0  0  0  0  0  0  0  0  0  0
   -5.2120   23.2770  -31.3610 O   0  0  0  0  0  0  0  0  0  0  0  0
   -5.5390   22.2430  -32.2830 C   0  0  0  0  0  0  0  0  0  0  0  0
   -3.5040   24.4870  -30.1650 C   0  0  0  0  0  0  0  0  0  0  0  0
   -4.0870   25.6450  -30.7170 O   0  0  0  0  0  0  0  0  0  0  0  0
   -5.4370   26.0680  -30.5660 C   0  0  0  0  0  0  0  0  0  0  0  0
   -1.7876   25.7233  -26.8932 H   0  0  0  0  0  0  0  0  0  0  0  0
   -0.1935   25.4187  -27.6630 H   0  0  0  0  0  0  0  0  0  0  0  0
   -0.8891   27.0748  -27.6630 H   0  0  0  0  0  0  0  0  0  0  0  0
   -0.9961   23.3001  -28.1412 H   0  0  0  0  0  0  0  0  0  0  0  0
   -3.5482   20.7295  -27.0530 H   0  0  0  0  0  0  0  0  0  0  0  0
   -0.7913   17.4012  -27.0411 H   0  0  0  0  0  0  0  0  0  0  0  0
    0.4503   18.4128  -28.9498 H   0  0  0  0  0  0  0  0  0  0  0  0
   -2.6938   17.9257  -34.5089 H   0  0  0  0  0  0  0  0  0  0  0  0
   -4.4840   16.3775  -35.2964 H   0  0  0  0  0  0  0  0  0  0  0  0
   -6.7770   15.4610  -34.8850 H   0  0  0  0  0  0  0  0  0  0  0  0
   -7.2546   18.1424  -32.4800 H   0  0  0  0  0  0  0  0  0  0  0  0
   -5.4669   19.6898  -31.6868 H   0  0  0  0  0  0  0  0  0  0  0  0
   -4.0518   21.1023  -30.2579 H   0  0  0  0  0  0  0  0  0  0  0  0
   -5.8258   21.3362  -31.7304 H   0  0  0  0  0  0  0  0  0  0  0  0
   -6.3783   22.5677  -32.9156 H   0  0  0  0  0  0  0  0  0  0  0  0
   -4.6656   22.0261  -32.9156 H   0  0  0  0  0  0  0  0  0  0  0  0
   -5.6799   26.1441  -29.4959 H   0  0  0  0  0  0  0  0  0  0  0  0
   -5.5689   27.0505  -31.0427 H   0  0  0  0  0  0  0  0  0  0  0  0
   -6.1060   25.3364  -31.0427 H   0  0  0  0  0  0  0  0  0  0  0  0
  1  2  1  0
  2  3  1  0
  3  4  2  0
  4  5  1  0
  5  6  1  0
  6  7  2  0
  7  8  1  0
  8  9  1  0
  8 10  2  0
 10 11  1  0
 11 12  2  0
 12 13  1  0
 13 14  1  0
 14 15  2  0
 15 16  1  0
 16 17  2  0
 17 18  1  0
 18 19  2  0
 19 20  1  0
 20 21  2  0
 21 22  1  0
 21 23  1  0
 23 24  2  0
 17 25  1  0
  5 26  2  0
 26 27  1  0
 27 28  1  0
 28 29  1  0
 27 30  2  0
 30 31  1  0
 31 32  1  0
 30  3  1  0
 12  6  1  0
 25 14  1  0
 24 18  1  0
  1 33  1  0
  1 34  1  0
  1 35  1  0
  4 36  1  0
  7 37  1  0
 10 38  1  0
 11 39  1  0
 19 40  1  0
 20 41  1  0
 22 42  1  0
 23 43  1  0
 24 44  1  0
 26 45  1  0
 29 46  1  0
 29 47  1  0
 29 48  1  0
 32 49  1  0
 32 50  1  0
 32 51  1  0
M  END
>  <UniqueID>  (44) 
43

>  <SMILES>  (44) 
COc1cc(-c2cc(Cl)ccc2Sc2nnc(-c3ccc(O)cc3)o2)cc(OC)c1OC

>  <Energy>  (44) 
90.2446355272687

>  <Genealogy>  (44) 
COc1cc(-c2cc(Cl)ccc2Sc2nnc(-c3ccc(O)cc3)o2)cc(OC)c1OC (3D coordinates assigned)
COc1cc(-c2cc(Cl)ccc2Sc2nnc(-c3ccc(O)cc3)o2)cc(OC)c1OC (optimized conformer: 90.2446355272687 kcal/mol)

>  <smiles>  (44) 
COc1cc(-c2cc(Cl)ccc2Sc2nnc(-c3ccc(O)cc3)o2)cc(OC)c1OC

>  <score_type>  (44) 
oracle

>  <origin>  (44) 
adgpu

>  <m_score__min__energy>  (44) 
-9.4199999999999999

>  <m_primary>  (44) 
energy

$$$$
44:0
     RDKit          3D

 35 36  0  0  0  0  0  0  0  0999 V2000
   -5.7430   17.1700  -34.6170 C   0  0  0  0  0  0  0  0  0  0  0  0
   -6.3600   17.2060  -33.3340 O   0  0  0  0  0  0  0  0  0  0  0  0
   -6.9180   18.3560  -32.7520 C   0  0  0  0  0  0  0  0  0  0  0  0
   -8.2650   18.4120  -32.3480 C   0  0  0  0  0  0  0  0  0  0  0  0
   -8.7860   19.5750  -31.7810 C   0  0  0  0  0  0  0  0  0  0  0  0
   -7.9730   20.7060  -31.6040 C   0  0  0  0  0  0  0  0  0  0  0  0
   -8.5380   21.9790  -31.0070 C   0  0  2  0  0  0  0  0  0  0  0  0
   -9.4000   22.7120  -32.0340 C   0  0  0  0  0  0  0  0  0  0  0  0
   -7.4650   22.8650  -30.5560 N   0  0  0  0  0  0  0  0  0  0  0  0
   -6.4940   23.5230  -31.3850 C   0  0  0  0  0  0  0  0  0  0  0  0
   -6.7600   23.6920  -32.6030 O   0  0  0  0  0  0  0  0  0  0  0  0
   -5.1800   23.9630  -30.8840 C   0  0  0  0  0  0  0  0  0  0  0  0
   -4.2820   23.2300  -30.1350 C   0  0  0  0  0  0  0  0  0  0  0  0
   -3.2470   24.1060  -29.8960 C   0  0  0  0  0  0  0  0  0  0  0  0
   -3.5280   25.2970  -30.4580 N   0  0  0  0  0  0  0  0  0  0  0  0
   -4.7070   25.2130  -31.0520 N   0  0  0  0  0  0  0  0  0  0  0  0
   -6.6250   20.6460  -31.9910 C   0  0  0  0  0  0  0  0  0  0  0  0
   -6.0950   19.4800  -32.5760 C   0  0  0  0  0  0  0  0  0  0  0  0
   -4.7590   19.4000  -32.9980 O   0  0  0  0  0  0  0  0  0  0  0  0
   -3.8810   20.5150  -33.1130 C   0  0  0  0  0  0  0  0  0  0  0  0
   -4.6514   17.1063  -34.4972 H   0  0  0  0  0  0  0  0  0  0  0  0
   -6.1028   16.2913  -35.1724 H   0  0  0  0  0  0  0  0  0  0  0  0
   -5.9982   18.0846  -35.1724 H   0  0  0  0  0  0  0  0  0  0  0  0
   -8.9117   17.5321  -32.4804 H   0  0  0  0  0  0  0  0  0  0  0  0
   -9.8408   19.6063  -31.4705 H   0  0  0  0  0  0  0  0  0  0  0  0
   -9.1571   21.6990  -30.1419 H   0  0  0  0  0  0  0  0  0  0  0  0
  -10.1378   23.3394  -31.5125 H   0  0  0  0  0  0  0  0  0  0  0  0
   -8.7595   23.3463  -32.6644 H   0  0  0  0  0  0  0  0  0  0  0  0
   -9.9232   21.9779  -32.6644 H   0  0  0  0  0  0  0  0  0  0  0  0
   -4.3725   22.1847  -29.8045 H   0  0  0  0  0  0  0  0  0  0  0  0
   -2.3321   23.8695  -29.3330 H   0  0  0  0  0  0  0  0  0  0  0  0
   -5.9753   21.5199  -31.8355 H   0  0  0  0  0  0  0  0  0  0  0  0
   -3.6031   20.8679  -32.1089 H   0  0  0  0  0  0  0  0  0  0  0  0
   -2.9752   20.2136  -33.6595 H   0  0  0  0  0  0  0  0  0  0  0  0
   -4.3864   21.3249  -33.6595 H   0  0  0  0  0  0  0  0  0  0  0  0
  1  2  1  0
  2  3  1  0
  3  4  2  0
  4  5  1  0
  5  6  2  0
  6  7  1  0
  7  8  1  0
  7  9  1  0
  9 10  1  0
 10 11  2  0
 10 12  1  0
 12 13  1  0
 13 14  2  0
 14 15  1  0
 15 16  1  0
  6 17  1  0
 17 18  2  0
 18 19  1  0
 19 20  1  0
 18  3  1  0
 16 12  2  0
  1 21  1  0
  1 22  1  0
  1 23  1  0
  4 24  1  0
  5 25  1  0
  7 26  1  1
  8 27  1  0
  8 28  1  0
  8 29  1  0
 13 30  1  0
 14 31  1  0
 17 32  1  0
 20 33  1  0
 20 34  1  0
 20 35  1  0
M  CHG  2   9  -1  15  -1
M  END
>  <UniqueID>  (45) 
44

>  <SMILES>  (45) 
COc1ccc([C@H](C)[N-]C(=O)c2cc[n-]n2)cc1OC

>  <Energy>  (45) 
62.17651037252717

>  <Genealogy>  (45) 
COc1ccc(C(C)[N-]C(=O)c2cc[n-]n2)cc1OC (protonated)
COc1ccc([C@H](C)[N-]C(=O)c2cc[n-]n2)cc1OC (chirality)
COc1ccc([C@H](C)[N-]C(=O)c2cc[n-]n2)cc1OC (3D coordinates assigned)
COc1ccc([C@H](C)[N-]C(=O)c2cc[n-]n2)cc1OC (optimized conformer: 62.17651037252717 kcal/mol)

>  <smiles>  (45) 
COc1ccc(C(C)NC(=O)c2cc[nH]n2)cc1OC

>  <score_type>  (45) 
oracle

>  <origin>  (45) 
adgpu

>  <m_score__min__energy>  (45) 
-8.7699999999999996

>  <m_primary>  (45) 
energy

$$$$
45:0
     RDKit          3D

 31 33  0  0  0  0  0  0  0  0999 V2000
   -7.6340   19.7760  -32.6250 C   0  0  0  0  0  0  0  0  0  0  0  0
   -8.7150   20.4130  -32.0090 C   0  0  0  0  0  0  0  0  0  0  0  0
   -8.5850   21.7260  -31.5470 C   0  0  0  0  0  0  0  0  0  0  0  0
   -7.3640   22.4080  -31.6900 C   0  0  0  0  0  0  0  0  0  0  0  0
   -7.2350   23.8340  -31.2330 C   0  0  0  0  0  0  0  0  0  0  0  0
   -5.9070   24.0550  -30.6720 N   0  0  0  0  0  0  0  0  0  0  0  0
   -5.3810   23.4520  -29.5930 C   0  0  0  0  0  0  0  0  0  0  0  0
   -4.0810   23.9140  -29.4920 C   0  0  0  0  0  0  0  0  0  0  0  0
   -3.0660   23.5530  -28.4730 C   0  0  0  0  0  0  0  0  0  0  0  0
   -2.3480   24.5640  -27.8100 C   0  0  0  0  0  0  0  0  0  0  0  0
   -1.3880   24.2370  -26.8460 C   0  0  0  0  0  0  0  0  0  0  0  0
   -1.1360   22.9000  -26.5350 C   0  0  0  0  0  0  0  0  0  0  0  0
   -1.8430   21.8860  -27.1860 C   0  0  0  0  0  0  0  0  0  0  0  0
   -2.8040   22.2070  -28.1500 C   0  0  0  0  0  0  0  0  0  0  0  0
   -3.8620   24.7680  -30.5150 N   0  0  0  0  0  0  0  0  0  0  0  0
   -4.9840   24.8300  -31.2170 N   0  0  0  0  0  0  0  0  0  0  0  0
   -6.2870   21.7670  -32.3240 C   0  0  0  0  0  0  0  0  0  0  0  0
   -6.4220   20.4530  -32.7840 C   0  0  0  0  0  0  0  0  0  0  0  0
   -7.7374   18.7416  -32.9847 H   0  0  0  0  0  0  0  0  0  0  0  0
   -9.6697   19.8802  -31.8875 H   0  0  0  0  0  0  0  0  0  0  0  0
   -9.4405   22.2269  -31.0703 H   0  0  0  0  0  0  0  0  0  0  0  0
   -7.3861   24.5071  -32.0898 H   0  0  0  0  0  0  0  0  0  0  0  0
   -7.9932   24.0384  -30.4627 H   0  0  0  0  0  0  0  0  0  0  0  0
   -5.8824   22.7360  -28.9252 H   0  0  0  0  0  0  0  0  0  0  0  0
   -2.5424   25.6195  -28.0509 H   0  0  0  0  0  0  0  0  0  0  0  0
   -0.8312   25.0347  -26.3326 H   0  0  0  0  0  0  0  0  0  0  0  0
   -0.3807   22.6446  -25.7772 H   0  0  0  0  0  0  0  0  0  0  0  0
   -1.6433   20.8327  -26.9398 H   0  0  0  0  0  0  0  0  0  0  0  0
   -3.3581   21.4044  -28.6586 H   0  0  0  0  0  0  0  0  0  0  0  0
   -5.3343   22.3001  -32.4592 H   0  0  0  0  0  0  0  0  0  0  0  0
   -5.5728   19.9518  -33.2716 H   0  0  0  0  0  0  0  0  0  0  0  0
  1  2  2  0
  2  3  1  0
  3  4  2  0
  4  5  1  0
  5  6  1  0
  6  7  1  0
  7  8  2  0
  8  9  1  0
  9 10  2  0
 10 11  1  0
 11 12  2  0
 12 13  1  0
 13 14  2  0
  8 15  1  0
 15 16  2  0
  4 17  1  0
 17 18  2  0
 18  1  1  0
 16  6  1  0
 14  9  1  0
  1 19  1  0
  2 20  1  0
  3 21  1  0
  5 22  1  0
  5 23  1  0
  7 24  1  0
 10 25  1  0
 11 26  1  0
 12 27  1  0
 13 28  1  0
 14 29  1  0
 17 30  1  0
 18 31  1  0
M  END
>  <UniqueID>  (46) 
45

>  <SMILES>  (46) 
c1ccc(Cn2cc(-c3ccccc3)nn2)cc1

>  <Energy>  (46) 
68.11415432893752

>  <Genealogy>  (46) 
c1ccc(Cn2cc(-c3ccccc3)nn2)cc1 (3D coordinates assigned)
c1ccc(Cn2cc(-c3ccccc3)nn2)cc1 (optimized conformer: 68.11415432893752 kcal/mol)

>  <smiles>  (46) 
c1ccc(Cn2cc(-c3ccccc3)nn2)cc1

>  <score_type>  (46) 
oracle

>  <origin>  (46) 
adgpu

>  <m_score__min__energy>  (46) 
-7.8300000000000001

>  <m_primary>  (46) 
energy

$$$$
46:0
     RDKit          3D

 59 64  0  0  0  0  0  0  0  0999 V2000
   -8.9260   18.1780  -31.7280 C   0  0  0  0  0  0  0  0  0  0  0  0
   -9.4900   19.4830  -31.6670 O   0  0  0  0  0  0  0  0  0  0  0  0
   -8.7420   20.6700  -31.6620 C   0  0  0  0  0  0  0  0  0  0  0  0
   -9.4030   21.8730  -31.9350 C   0  0  0  0  0  0  0  0  0  0  0  0
   -8.7020   23.0810  -31.9400 C   0  0  0  0  0  0  0  0  0  0  0  0
   -7.3310   23.0970  -31.6730 C   0  0  0  0  0  0  0  0  0  0  0  0
   -6.6490   21.9010  -31.4040 C   0  0  0  0  0  0  0  0  0  0  0  0
   -5.2360   21.9140  -31.1320 N   0  0  0  0  0  0  0  0  0  0  0  0
   -4.2630   21.1580  -31.7130 C   0  0  0  0  0  0  0  0  0  0  0  0
   -4.5120   20.0860  -32.7030 C   0  0  0  0  0  0  0  0  0  0  0  0
   -3.7110   18.9320  -32.7180 C   0  0  0  0  0  0  0  0  0  0  0  0
   -3.9520   17.9190  -33.6520 C   0  0  0  0  0  0  0  0  0  0  0  0
   -4.9920   18.0520  -34.5750 C   0  0  0  0  0  0  0  0  0  0  0  0
   -5.7940   19.1970  -34.5660 C   0  0  0  0  0  0  0  0  0  0  0  0
   -5.5580   20.2110  -33.6330 C   0  0  0  0  0  0  0  0  0  0  0  0
   -3.0040   21.5270  -31.2190 C   0  0  0  0  0  0  0  0  0  0  0  0
   -1.7000   20.9250  -31.5650 C   0  0  0  0  0  0  0  0  0  0  0  0
   -1.1370   21.1360  -32.8330 C   0  0  0  0  0  0  0  0  0  0  0  0
    0.0860   20.5460  -33.1670 C   0  0  0  0  0  0  0  0  0  0  0  0
    0.7510   19.7390  -32.2390 C   0  0  0  0  0  0  0  0  0  0  0  0
    0.1920   19.5200  -30.9770 C   0  0  0  0  0  0  0  0  0  0  0  0
   -1.0300   20.1090  -30.6400 C   0  0  0  0  0  0  0  0  0  0  0  0
   -3.2480   22.5390  -30.3020 C   0  0  0  0  0  0  0  0  0  0  0  0
   -2.4280   23.2770  -29.4500 C   0  0  0  0  0  0  0  0  0  0  0  0
   -1.1870   23.0510  -29.3980 O   0  0  0  0  0  0  0  0  0  0  0  0
   -3.0080   24.2320  -28.6470 N   0  0  0  0  0  0  0  0  0  0  0  0
   -2.2060   25.0430  -27.7630 C   0  0  0  0  0  0  0  0  0  0  0  0
   -2.4740   25.0670  -26.3830 C   0  0  0  0  0  0  0  0  0  0  0  0
   -1.7010   25.8590  -25.5280 C   0  0  0  0  0  0  0  0  0  0  0  0
   -0.6590   26.6350  -26.0430 C   0  0  0  0  0  0  0  0  0  0  0  0
    0.0890   27.4020  -25.2130 F   0  0  0  0  0  0  0  0  0  0  0  0
   -0.3900   26.6220  -27.4150 C   0  0  0  0  0  0  0  0  0  0  0  0
   -1.1600   25.8320  -28.2730 C   0  0  0  0  0  0  0  0  0  0  0  0
   -4.3720   24.4250  -28.6740 C   0  0  0  0  0  0  0  0  0  0  0  0
   -5.1680   23.6770  -29.4910 N   0  0  0  0  0  0  0  0  0  0  0  0
   -4.5940   22.7390  -30.2820 C   0  0  0  0  0  0  0  0  0  0  0  0
   -7.3580   20.6890  -31.3950 C   0  0  0  0  0  0  0  0  0  0  0  0
   -8.7630   17.8009  -30.7076 H   0  0  0  0  0  0  0  0  0  0  0  0
   -9.6139   17.5058  -32.2618 H   0  0  0  0  0  0  0  0  0  0  0  0
   -7.9650   18.2184  -32.2618 H   0  0  0  0  0  0  0  0  0  0  0  0
  -10.4823   21.8671  -32.1471 H   0  0  0  0  0  0  0  0  0  0  0  0
   -9.2305   24.0215  -32.1546 H   0  0  0  0  0  0  0  0  0  0  0  0
   -6.7839   24.0513  -31.6737 H   0  0  0  0  0  0  0  0  0  0  0  0
   -2.8912   18.8246  -31.9925 H   0  0  0  0  0  0  0  0  0  0  0  0
   -3.3222   17.0172  -33.6597 H   0  0  0  0  0  0  0  0  0  0  0  0
   -5.1801   17.2551  -35.3096 H   0  0  0  0  0  0  0  0  0  0  0  0
   -6.6120   19.3003  -35.2942 H   0  0  0  0  0  0  0  0  0  0  0  0
   -6.1929   21.1093  -33.6269 H   0  0  0  0  0  0  0  0  0  0  0  0
   -1.6595   21.7676  -33.5666 H   0  0  0  0  0  0  0  0  0  0  0  0
    0.5253   20.7170  -34.1609 H   0  0  0  0  0  0  0  0  0  0  0  0
    1.7138   19.2766  -32.5021 H   0  0  0  0  0  0  0  0  0  0  0  0
    0.7144   18.8832  -30.2479 H   0  0  0  0  0  0  0  0  0  0  0  0
   -1.4681   19.9325  -29.6466 H   0  0  0  0  0  0  0  0  0  0  0  0
   -3.2953   24.4602  -25.9740 H   0  0  0  0  0  0  0  0  0  0  0  0
   -1.9134   25.8712  -24.4488 H   0  0  0  0  0  0  0  0  0  0  0  0
    0.4291   27.2346  -27.8198 H   0  0  0  0  0  0  0  0  0  0  0  0
   -0.9467   25.8275  -29.3521 H   0  0  0  0  0  0  0  0  0  0  0  0
   -4.8248   25.1920  -28.0285 H   0  0  0  0  0  0  0  0  0  0  0  0
   -6.8302   19.7486  -31.1783 H   0  0  0  0  0  0  0  0  0  0  0  0
  1  2  1  0
  2  3  1  0
  3  4  2  0
  4  5  1  0
  5  6  2  0
  6  7  1  0
  7  8  1  0
  8  9  1  0
  9 10  1  0
 10 11  2  0
 11 12  1  0
 12 13  2  0
 13 14  1  0
 14 15  2  0
  9 16  2  0
 16 17  1  0
 17 18  2  0
 18 19  1  0
 19 20  2  0
 20 21  1  0
 21 22  2  0
 16 23  1  0
 23 24  1  0
 24 25  2  0
 24 26  1  0
 26 27  1  0
 27 28  2  0
 28 29  1  0
 29 30  2  0
 30 31  1  0
 30 32  1  0
 32 33  2  0
 26 34  1  0
 34 35  2  0
 35 36  1  0
  7 37  2  0
 37  3  1  0
 36  8  1  0
 15 10  1  0
 22 17  1  0
 36 23  2  0
 33 27  1  0
  1 38  1  0
  1 39  1  0
  1 40  1  0
  4 41  1  0
  5 42  1  0
  6 43  1  0
 11 44  1  0
 12 45  1  0
 13 46  1  0
 14 47  1  0
 15 48  1  0
 18 49  1  0
 19 50  1  0
 20 51  1  0
 21 52  1  0
 22 53  1  0
 28 54  1  0
 29 55  1  0
 32 56  1  0
 33 57  1  0
 34 58  1  0
 37 59  1  0
M  END
>  <UniqueID>  (47) 
46

>  <SMILES>  (47) 
COc1cccc(-n2c(-c3ccccc3)c(-c3ccccc3)c3c(=O)n(-c4ccc(F)cc4)cnc32)c1

>  <Energy>  (47) 
127.54416526299117

>  <Genealogy>  (47) 
COc1cccc(-n2c(-c3ccccc3)c(-c3ccccc3)c3c(=O)n(-c4ccc(F)cc4)cnc32)c1 (3D coordinates assigned)
COc1cccc(-n2c(-c3ccccc3)c(-c3ccccc3)c3c(=O)n(-c4ccc(F)cc4)cnc32)c1 (optimized conformer: 127.54416526299117 kcal/mol)

>  <smiles>  (47) 
COc1cccc(-n2c(-c3ccccc3)c(-c3ccccc3)c3c(=O)n(-c4ccc(F)cc4)cnc32)c1

>  <score_type>  (47) 
oracle

>  <origin>  (47) 
adgpu

>  <m_score__min__energy>  (47) 
-9.6699999999999999

>  <m_primary>  (47) 
energy

$$$$
47:0
     RDKit          3D

 40 42  0  0  0  0  0  0  0  0999 V2000
   -6.4710   16.6850  -33.1660 Br  0  0  0  0  0  0  0  0  0  0  0  0
   -5.8960   18.4930  -32.9520 C   0  0  0  0  0  0  0  0  0  0  0  0
   -6.7570   19.5450  -33.2800 C   0  0  0  0  0  0  0  0  0  0  0  0
   -6.3380   20.8690  -33.1230 C   0  0  0  0  0  0  0  0  0  0  0  0
   -5.0470   21.1540  -32.6460 C   0  0  0  0  0  0  0  0  0  0  0  0
   -4.5930   22.5900  -32.4780 C   0  0  0  0  0  0  0  0  0  0  0  0
   -4.8680   23.1600  -31.1360 N   0  0  0  0  0  0  0  0  0  0  0  0
   -3.7110   23.8780  -30.5750 C   0  0  0  0  0  0  0  0  0  0  0  0
   -3.9240   24.1400  -29.0720 C   0  0  0  0  0  0  0  0  0  0  0  0
   -5.3480   24.1350  -28.6910 N   0  0  0  0  0  0  0  0  0  0  0  0
   -6.1920   24.7570  -29.7200 C   0  0  0  0  0  0  0  0  0  0  0  0
   -6.1040   23.9830  -31.0660 C   0  0  2  0  0  0  0  0  0  0  0  0
   -7.3370   23.1150  -31.2440 C   0  0  0  0  0  0  0  0  0  0  0  0
   -7.5480   21.9790  -30.4410 C   0  0  0  0  0  0  0  0  0  0  0  0
   -8.7010   21.2050  -30.5990 C   0  0  0  0  0  0  0  0  0  0  0  0
   -9.6590   21.5620  -31.5510 C   0  0  0  0  0  0  0  0  0  0  0  0
   -9.4680   22.6960  -32.3430 C   0  0  0  0  0  0  0  0  0  0  0  0
   -8.3170   23.4740  -32.1880 C   0  0  0  0  0  0  0  0  0  0  0  0
   -4.1940   20.0910  -32.3030 C   0  0  0  0  0  0  0  0  0  0  0  0
   -4.6170   18.7680  -32.4610 C   0  0  0  0  0  0  0  0  0  0  0  0
   -7.7658   19.3300  -33.6622 H   0  0  0  0  0  0  0  0  0  0  0  0
   -7.0224   21.6927  -33.3742 H   0  0  0  0  0  0  0  0  0  0  0  0
   -3.5082   22.6322  -32.6554 H   0  0  0  0  0  0  0  0  0  0  0  0
   -5.1657   23.1900  -33.2005 H   0  0  0  0  0  0  0  0  0  0  0  0
   -2.8047   23.2701  -30.7128 H   0  0  0  0  0  0  0  0  0  0  0  0
   -3.6004   24.8412  -31.0947 H   0  0  0  0  0  0  0  0  0  0  0  0
   -3.4039   23.3568  -28.5009 H   0  0  0  0  0  0  0  0  0  0  0  0
   -3.5232   25.1397  -28.8484 H   0  0  0  0  0  0  0  0  0  0  0  0
   -5.4620   24.6640  -27.7950 H   0  0  0  0  0  0  0  0  0  0  0  0
   -5.6650   23.1510  -28.5240 H   0  0  0  0  0  0  0  0  0  0  0  0
   -7.2364   24.7578  -29.3746 H   0  0  0  0  0  0  0  0  0  0  0  0
   -5.8366   25.7846  -29.8863 H   0  0  0  0  0  0  0  0  0  0  0  0
   -6.0605   24.7160  -31.8850 H   0  0  0  0  0  0  0  0  0  0  0  0
   -6.8008   21.6983  -29.6841 H   0  0  0  0  0  0  0  0  0  0  0  0
   -8.8543   20.3136  -29.9729 H   0  0  0  0  0  0  0  0  0  0  0  0
  -10.5641   20.9496  -31.6767 H   0  0  0  0  0  0  0  0  0  0  0  0
  -10.2246   22.9776  -33.0902 H   0  0  0  0  0  0  0  0  0  0  0  0
   -8.1765   24.3720  -32.8075 H   0  0  0  0  0  0  0  0  0  0  0  0
   -3.1889   20.3010  -31.9084 H   0  0  0  0  0  0  0  0  0  0  0  0
   -3.9410   17.9410  -32.1980 H   0  0  0  0  0  0  0  0  0  0  0  0
  1  2  1  0
  2  3  2  0
  3  4  1  0
  4  5  2  0
  5  6  1  0
  6  7  1  0
  7  8  1  0
  8  9  1  0
  9 10  1  0
 10 11  1  0
 11 12  1  0
 12 13  1  0
 13 14  2  0
 14 15  1  0
 15 16  2  0
 16 17  1  0
 17 18  2  0
  5 19  1  0
 19 20  2  0
 20  2  1  0
 12  7  1  0
 18 13  1  0
  3 21  1  0
  4 22  1  0
  6 23  1  0
  6 24  1  0
  8 25  1  0
  8 26  1  0
  9 27  1  0
  9 28  1  0
 10 29  1  0
 10 30  1  0
 11 31  1  0
 11 32  1  0
 12 33  1  6
 14 34  1  0
 15 35  1  0
 16 36  1  0
 17 37  1  0
 18 38  1  0
 19 39  1  0
 20 40  1  0
M  CHG  1  10   1
M  END
>  <UniqueID>  (48) 
47

>  <SMILES>  (48) 
Brc1ccc(CN2CC[NH2+]C[C@@H]2c2ccccc2)cc1

>  <Energy>  (48) 
51.78301791698533

>  <Genealogy>  (48) 
Brc1ccc(CN2CC[NH2+]CC2c2ccccc2)cc1 (protonated)
Brc1ccc(CN2CC[NH2+]C[C@@H]2c2ccccc2)cc1 (chirality)
Brc1ccc(CN2CC[NH2+]C[C@@H]2c2ccccc2)cc1 (3D coordinates assigned)
Brc1ccc(CN2CC[NH2+]C[C@@H]2c2ccccc2)cc1 (nonaromatic ring conformer: 51.78301791698533 kcal/mol)

>  <smiles>  (48) 
Brc1ccc(CN2CCNCC2c2ccccc2)cc1

>  <score_type>  (48) 
oracle

>  <origin>  (48) 
adgpu

>  <m_score__min__energy>  (48) 
-6.9100000000000001

>  <m_primary>  (48) 
energy

$$$$
