0:0
     RDKit          3D

 37 39  0  0  1  0  0  0  0  0999 V2000
   -4.9340   17.8040  -34.8330 C   0  0  0  0  0  0  0  0  0  0  0  0
   -4.3950   18.8420  -34.0380 O   0  0  0  0  0  0  0  0  0  0  0  0
   -5.2940   19.6280  -33.3340 C   0  0  0  0  0  0  0  0  0  0  0  0
   -6.6310   19.3950  -33.5320 C   0  0  0  0  0  0  0  0  0  0  0  0
   -7.5130   20.1830  -32.8260 C   0  0  0  0  0  0  0  0  0  0  0  0
   -8.8210   19.9500  -33.0250 N   0  0  0  0  0  0  0  0  0  0  0  0
   -9.6890   20.7080  -32.3460 C   0  0  0  0  0  0  0  0  0  0  0  0
   -9.3000   21.6570  -31.5010 N   0  0  0  0  0  0  0  0  0  0  0  0
   -7.9690   21.8880  -31.3050 C   0  0  0  0  0  0  0  0  0  0  0  0
   -7.6700   22.7810  -30.5080 N   0  0  0  0  0  0  0  0  0  0  0  0
   -6.4830   23.2630  -30.0860 C   0  0  0  0  0  0  0  0  0  0  0  0
   -5.8250   22.6740  -28.9800 C   0  0  0  0  0  0  0  0  0  0  0  0
   -4.5590   23.0840  -28.6170 C   0  0  0  0  0  0  0  0  0  0  0  0
   -3.9090   24.0860  -29.3360 C   0  0  0  0  0  0  0  0  0  0  0  0
   -4.5580   24.6560  -30.4130 C   0  0  0  0  0  0  0  0  0  0  0  0
   -3.8630   25.6650  -31.1090 O   0  0  0  0  0  0  0  0  0  0  0  0
   -5.8190   24.2810  -30.8130 C   0  0  0  0  0  0  0  0  0  0  0  0
   -7.0360   21.1580  -31.9620 C   0  0  0  0  0  0  0  0  0  0  0  0
   -5.6940   21.3530  -31.7950 C   0  0  0  0  0  0  0  0  0  0  0  0
   -4.7640   20.5660  -32.5020 C   0  0  0  0  0  0  0  0  0  0  0  0
   -3.4100   20.7190  -32.3750 O   0  0  0  0  0  0  0  0  0  0  0  0
   -2.7600   21.2420  -31.2490 C   0  0  0  0  0  0  0  0  0  0  0  0
   -5.3424   17.0175  -34.1814 H   0  0  0  0  0  0  0  0  0  0  0  0
   -5.7365   18.2075  -35.4680 H   0  0  0  0  0  0  0  0  0  0  0  0
   -4.1423   17.3797  -35.4680 H   0  0  0  0  0  0  0  0  0  0  0  0
   -6.9828   18.6147  -34.2229 H   0  0  0  0  0  0  0  0  0  0  0  0
   -9.1640   19.2110  -33.6820 H   0  0  0  0  0  0  0  0  0  0  0  0
  -10.7661   20.5394  -32.4927 H   0  0  0  0  0  0  0  0  0  0  0  0
   -6.3276   21.8824  -28.4049 H   0  0  0  0  0  0  0  0  0  0  0  0
   -4.0593   22.6176  -27.7551 H   0  0  0  0  0  0  0  0  0  0  0  0
   -2.8991   24.4159  -29.0509 H   0  0  0  0  0  0  0  0  0  0  0  0
   -4.2340   26.0060  -31.9850 H   0  0  0  0  0  0  0  0  0  0  0  0
   -6.3009   24.7606  -31.6777 H   0  0  0  0  0  0  0  0  0  0  0  0
   -5.3372   22.1303  -31.1033 H   0  0  0  0  0  0  0  0  0  0  0  0
   -3.2392   20.8565  -30.3370 H   0  0  0  0  0  0  0  0  0  0  0  0
   -1.7023   20.9403  -31.2631 H   0  0  0  0  0  0  0  0  0  0  0  0
   -2.8284   22.3398  -31.2631 H   0  0  0  0  0  0  0  0  0  0  0  0
  1  2  1  0
  2  3  1  0
  3  4  2  0
  4  5  1  0
  5  6  1  0
  6  7  1  0
  7  8  2  0
  8  9  1  0
  9 10  2  0
 10 11  1  0
 11 12  2  0
 12 13  1  0
 13 14  2  0
 14 15  1  0
 15 16  1  0
 15 17  2  0
  9 18  1  0
 18 19  1  0
 19 20  2  0
 20 21  1  0
 21 22  1  0
 20  3  1  0
 18  5  2  0
 17 11  1  0
  1 23  1  0
  1 24  1  0
  1 25  1  0
  4 26  1  0
  6 27  1  0
  7 28  1  0
 12 29  1  0
 13 30  1  0
 14 31  1  0
 16 32  1  0
 17 33  1  0
 19 34  1  0
 22 35  1  0
 22 36  1  0
 22 37  1  0
M  END
>  <smiles>  (1) 
COc1cc2[nH]cnc(=Nc3cccc(O)c3)c2cc1OC

>  <score_type>  (1) 
oracle

>  <origin>  (1) 
adgpu

>  <m_score__min__energy>  (1) 
-8.0899999999999999

>  <m_primary>  (1) 
energy

$$$$
1:0
     RDKit          3D

 36 38  0  0  0  0  0  0  0  0999 V2000
   -3.4040   19.9420  -33.8320 C   0  0  0  0  0  0  0  0  0  0  0  0
   -3.8250   21.1880  -33.2860 O   0  0  0  0  0  0  0  0  0  0  0  0
   -3.3380   21.7380  -32.0890 C   0  0  0  0  0  0  0  0  0  0  0  0
   -1.9610   21.8220  -31.8120 C   0  0  0  0  0  0  0  0  0  0  0  0
   -1.5110   22.3790  -30.6140 C   0  0  0  0  0  0  0  0  0  0  0  0
   -2.4270   22.8540  -29.6640 C   0  0  0  0  0  0  0  0  0  0  0  0
   -1.9420   23.4900  -28.3910 C   0  0  0  0  0  0  0  0  0  0  0  0
   -1.1170   24.6960  -28.7040 C   0  0  0  0  0  0  0  0  0  0  0  0
   -1.6260   25.6710  -29.3180 O   0  0  0  0  0  0  0  0  0  0  0  0
    0.2020   24.7680  -28.2740 O   0  0  0  0  0  0  0  0  0  0  0  0
   -3.8010   22.7820  -29.9390 C   0  0  0  0  0  0  0  0  0  0  0  0
   -4.2590   22.2240  -31.1420 C   0  0  0  0  0  0  0  0  0  0  0  0
   -5.7140   22.1590  -31.4060 C   0  0  0  0  0  0  0  0  0  0  0  0
   -6.4690   23.3520  -31.4360 C   0  0  0  0  0  0  0  0  0  0  0  0
   -5.7180   24.9240  -31.1740 Cl  0  0  0  0  0  0  0  0  0  0  0  0
   -7.8410   23.3100  -31.7000 C   0  0  0  0  0  0  0  0  0  0  0  0
   -8.4810   22.0940  -31.9340 C   0  0  0  0  0  0  0  0  0  0  0  0
   -7.7550   20.9020  -31.9060 C   0  0  0  0  0  0  0  0  0  0  0  0
   -8.3920   19.7220  -32.1330 N   0  0  0  0  0  0  0  0  0  0  0  0
   -7.7360   18.5330  -32.1090 C   0  0  0  0  0  0  0  0  0  0  0  0
   -8.3660   17.4650  -32.3270 O   0  0  0  0  0  0  0  0  0  0  0  0
   -6.3660   18.4970  -31.8430 C   0  0  0  0  0  0  0  0  0  0  0  0
   -5.6800   19.6890  -31.6050 C   0  0  0  0  0  0  0  0  0  0  0  0
   -6.3640   20.9210  -31.6390 C   0  0  0  0  0  0  0  0  0  0  0  0
   -3.1683   19.2445  -33.0148 H   0  0  0  0  0  0  0  0  0  0  0  0
   -4.2101   19.5220  -34.4515 H   0  0  0  0  0  0  0  0  0  0  0  0
   -2.5084   20.0970  -34.4515 H   0  0  0  0  0  0  0  0  0  0  0  0
   -1.2331   21.4455  -32.5458 H   0  0  0  0  0  0  0  0  0  0  0  0
   -0.4315   22.4459  -30.4137 H   0  0  0  0  0  0  0  0  0  0  0  0
   -2.8069   23.7888  -27.7806 H   0  0  0  0  0  0  0  0  0  0  0  0
   -1.3268   22.7656  -27.8372 H   0  0  0  0  0  0  0  0  0  0  0  0
   -4.5250   23.1662  -29.2054 H   0  0  0  0  0  0  0  0  0  0  0  0
   -8.4206   24.2446  -31.7233 H   0  0  0  0  0  0  0  0  0  0  0  0
   -9.5611   22.0736  -32.1413 H   0  0  0  0  0  0  0  0  0  0  0  0
   -5.8310   17.5361  -31.8211 H   0  0  0  0  0  0  0  0  0  0  0  0
   -4.6014   19.6669  -31.3901 H   0  0  0  0  0  0  0  0  0  0  0  0
  1  2  1  0
  2  3  1  0
  3  4  2  0
  4  5  1  0
  5  6  2  0
  6  7  1  0
  7  8  1  0
  8  9  2  0
  8 10  1  0
  6 11  1  0
 11 12  2  0
 12 13  1  0
 13 14  2  0
 14 15  1  0
 14 16  1  0
 16 17  2  0
 17 18  1  0
 18 19  1  0
 19 20  1  0
 20 21  2  0
 20 22  1  0
 22 23  2  0
 23 24  1  0
 12  3  1  0
 24 13  1  0
 24 18  2  0
  1 25  1  0
  1 26  1  0
  1 27  1  0
  4 28  1  0
  5 29  1  0
  7 30  1  0
  7 31  1  0
 11 32  1  0
 16 33  1  0
 17 34  1  0
 22 35  1  0
 23 36  1  0
M  CHG  2  10  -1  19  -1
M  END
>  <UniqueID>  (2) 
1

>  <SMILES>  (2) 
COc1ccc(CC(=O)[O-])cc1-c1c(Cl)ccc2[n-]c(=O)ccc12

>  <Energy>  (2) 
49.335357703052196

>  <Genealogy>  (2) 
COc1ccc(CC(=O)[O-])cc1-c1c(Cl)ccc2[n-]c(=O)ccc12 (protonated)
COc1ccc(CC(=O)[O-])cc1-c1c(Cl)ccc2[n-]c(=O)ccc12 (3D coordinates assigned)
COc1ccc(CC(=O)[O-])cc1-c1c(Cl)ccc2[n-]c(=O)ccc12 (optimized conformer: 49.335357703052196 kcal/mol)

>  <smiles>  (2) 
COc1ccc(CC(=O)O)cc1-c1c(Cl)ccc2[nH]c(=O)ccc12

>  <score_type>  (2) 
oracle

>  <origin>  (2) 
adgpu

>  <m_score__min__energy>  (2) 
-10.42

>  <m_primary>  (2) 
energy

$$$$
2:0
     RDKit          3D

 23 25  0  0  0  0  0  0  0  0999 V2000
   -0.4370   25.2700  -27.5370 C   0  0  0  0  0  0  0  0  0  0  0  0
   -1.7240   24.7470  -28.0880 C   0  0  0  0  0  0  0  0  0  0  0  0
   -2.3940   23.6890  -27.4360 C   0  0  0  0  0  0  0  0  0  0  0  0
   -3.5980   23.2160  -27.9750 C   0  0  0  0  0  0  0  0  0  0  0  0
   -4.2220   22.2730  -27.4190 O   0  0  0  0  0  0  0  0  0  0  0  0
   -4.0660   23.8040  -29.1070 N   0  0  0  0  0  0  0  0  0  0  0  0
   -3.4140   24.8150  -29.7200 C   0  0  0  0  0  0  0  0  0  0  0  0
   -2.2470   25.2950  -29.2250 N   0  0  0  0  0  0  0  0  0  0  0  0
   -4.0230   25.2830  -30.8370 N   0  0  0  0  0  0  0  0  0  0  0  0
   -5.1220   24.4980  -30.9050 C   0  0  0  0  0  0  0  0  0  0  0  0
   -6.1250   24.5360  -31.8710 C   0  0  0  0  0  0  0  0  0  0  0  0
   -7.1880   23.6200  -31.7490 C   0  0  0  0  0  0  0  0  0  0  0  0
   -7.2230   22.6990  -30.6780 C   0  0  0  0  0  0  0  0  0  0  0  0
   -6.1960   22.6810  -29.7160 C   0  0  0  0  0  0  0  0  0  0  0  0
   -5.1570   23.6020  -29.8650 C   0  0  0  0  0  0  0  0  0  0  0  0
   -0.4755   25.2544  -26.4378 H   0  0  0  0  0  0  0  0  0  0  0  0
    0.3940   24.6382  -27.8838 H   0  0  0  0  0  0  0  0  0  0  0  0
   -0.2823   26.3024  -27.8838 H   0  0  0  0  0  0  0  0  0  0  0  0
   -1.9779   23.2435  -26.5204 H   0  0  0  0  0  0  0  0  0  0  0  0
   -6.0881   25.2570  -32.7010 H   0  0  0  0  0  0  0  0  0  0  0  0
   -7.9976   23.6216  -32.4937 H   0  0  0  0  0  0  0  0  0  0  0  0
   -8.0600   21.9901  -30.5955 H   0  0  0  0  0  0  0  0  0  0  0  0
   -6.2111   21.9683  -28.8783 H   0  0  0  0  0  0  0  0  0  0  0  0
  1  2  1  0
  2  3  2  0
  3  4  1  0
  4  5  2  0
  4  6  1  0
  6  7  1  0
  7  8  2  0
  7  9  1  0
  9 10  1  0
 10 11  2  0
 11 12  1  0
 12 13  2  0
 13 14  1  0
 14 15  2  0
  8  2  1  0
 15 10  1  0
 15  6  1  0
  1 16  1  0
  1 17  1  0
  1 18  1  0
  3 19  1  0
 11 20  1  0
 12 21  1  0
 13 22  1  0
 14 23  1  0
M  CHG  1   9  -1
M  END
>  <UniqueID>  (3) 
2

>  <SMILES>  (3) 
Cc1cc(=O)n2c(n1)[n-]c1ccccc12

>  <Energy>  (3) 
70.2321482188487

>  <Genealogy>  (3) 
Cc1cc(=O)n2c(n1)[n-]c1ccccc12 (protonated)
Cc1cc(=O)n2c(n1)[n-]c1ccccc12 (3D coordinates assigned)
Cc1cc(=O)n2c(n1)[n-]c1ccccc12 (optimized conformer: 70.2321482188487 kcal/mol)

>  <smiles>  (3) 
Cc1cc(=O)n2c(n1)[nH]c1ccccc12

>  <score_type>  (3) 
oracle

>  <origin>  (3) 
adgpu

>  <m_score__min__energy>  (3) 
-7.2400000000000002

>  <m_primary>  (3) 
energy

$$$$
3:0
     RDKit          3D

 13 13  0  0  0  0  0  0  0  0999 V2000
   -4.0410   26.1040  -29.8510 H   0  0  0  0  0  0  0  0  0  0  0  0
   -3.7940   25.2960  -30.4650 N   0  0  0  0  0  0  0  0  0  0  0  0
   -4.6690   24.4060  -30.8070 C   0  0  0  0  0  0  0  0  0  0  0  0
   -4.3820   23.3520  -31.5940 N   0  0  0  0  0  0  0  0  0  0  0  0
   -5.5010   22.6540  -31.7300 N   0  0  0  0  0  0  0  0  0  0  0  0
   -5.5750   21.7700  -32.2800 H   0  0  0  0  0  0  0  0  0  0  0  0
   -6.4970   23.2550  -31.0490 C   0  0  0  0  0  0  0  0  0  0  0  0
   -7.8840   22.7140  -30.9250 C   0  0  0  0  0  0  0  0  0  0  0  0
   -8.1442   22.6125  -29.8611 H   0  0  0  0  0  0  0  0  0  0  0  0
   -8.5909   23.4023  -31.4113 H   0  0  0  0  0  0  0  0  0  0  0  0
   -7.9381   21.7288  -31.4113 H   0  0  0  0  0  0  0  0  0  0  0  0
   -5.9990   24.3850  -30.4310 C   0  0  0  0  0  0  0  0  0  0  0  0
   -6.8530   25.5110  -29.3900 Cl  0  0  0  0  0  0  0  0  0  0  0  0
  1  2  1  0
  2  3  2  0
  3  4  1  0
  4  5  1  0
  5  6  1  0
  5  7  1  0
  7  8  1  0
  8  9  1  0
  8 10  1  0
  8 11  1  0
  7 12  2  0
 12 13  1  0
 12  3  1  0
M  CHG  1   4  -1
M  END
>  <UniqueID>  (4) 
3

>  <SMILES>  (4) 
[H]/N=c1/[n-][nH]c(C)c1Cl

>  <Energy>  (4) 
41.92117738013864

>  <Genealogy>  (4) 
Cc1[nH][n-]c(=N)c1Cl (protonated)
[H]/N=c1/[n-][nH]c(C)c1Cl (cis-trans isomerization)
[H]/N=c1/[n-][nH]c(C)c1Cl (3D coordinates assigned)
[H]/N=c1/[n-][nH]c(C)c1Cl (optimized conformer: 41.92117738013864 kcal/mol)

>  <smiles>  (4) 
Cc1[nH][nH]c(=N)c1Cl

>  <score_type>  (4) 
oracle

>  <origin>  (4) 
adgpu

>  <m_score__min__energy>  (4) 
-5.9000000000000004

>  <m_primary>  (4) 
energy

$$$$
4:0
     RDKit          3D

 26 26  0  0  0  0  0  0  0  0999 V2000
   -7.4610   18.6400  -32.1380 C   0  0  0  0  0  0  0  0  0  0  0  0
   -6.6440   19.6060  -32.8690 N   0  0  0  0  0  0  0  0  0  0  0  0
   -6.1570   19.2820  -34.2110 C   0  0  0  0  0  0  0  0  0  0  0  0
   -6.3010   20.8580  -32.2470 C   0  0  0  0  0  0  0  0  0  0  0  0
   -4.9490   21.2100  -32.1050 C   0  0  0  0  0  0  0  0  0  0  0  0
   -4.5920   22.4160  -31.5000 C   0  0  0  0  0  0  0  0  0  0  0  0
   -5.5790   23.2930  -31.0350 C   0  0  0  0  0  0  0  0  0  0  0  0
   -5.1230   24.8060  -30.2590 S   0  0  0  0  0  0  0  0  0  0  0  0
   -4.9340   24.5450  -28.5610 N   0  0  0  0  0  0  0  0  0  0  0  0
   -6.1900   25.8390  -30.4920 O   0  0  0  0  0  0  0  0  0  0  0  0
   -3.8300   25.3070  -30.8410 O   0  0  0  0  0  0  0  0  0  0  0  0
   -6.9300   22.9490  -31.1730 C   0  0  0  0  0  0  0  0  0  0  0  0
   -7.2970   21.7400  -31.7800 C   0  0  0  0  0  0  0  0  0  0  0  0
   -8.6980   21.4390  -31.9440 C   0  0  0  0  0  0  0  0  0  0  0  0
   -9.8230   21.1970  -32.0770 N   0  0  0  0  0  0  0  0  0  0  0  0
   -7.3310   18.7937  -31.0566 H   0  0  0  0  0  0  0  0  0  0  0  0
   -8.5193   18.7795  -32.4036 H   0  0  0  0  0  0  0  0  0  0  0  0
   -7.1478   17.6195  -32.4036 H   0  0  0  0  0  0  0  0  0  0  0  0
   -5.2435   18.6742  -34.1327 H   0  0  0  0  0  0  0  0  0  0  0  0
   -6.9283   18.7164  -34.7543 H   0  0  0  0  0  0  0  0  0  0  0  0
   -5.9333   20.2119  -34.7543 H   0  0  0  0  0  0  0  0  0  0  0  0
   -4.1660   20.5307  -32.4731 H   0  0  0  0  0  0  0  0  0  0  0  0
   -3.5297   22.6787  -31.3880 H   0  0  0  0  0  0  0  0  0  0  0  0
   -5.8160   24.1020  -28.2190 H   0  0  0  0  0  0  0  0  0  0  0  0
   -4.8750   25.4860  -28.1120 H   0  0  0  0  0  0  0  0  0  0  0  0
   -7.7082   23.6324  -30.8024 H   0  0  0  0  0  0  0  0  0  0  0  0
  1  2  1  0
  2  3  1  0
  2  4  1  0
  4  5  2  0
  5  6  1  0
  6  7  2  0
  7  8  1  0
  8  9  1  0
  8 10  2  0
  8 11  2  0
  7 12  1  0
 12 13  2  0
 13 14  1  0
 14 15  3  0
 13  4  1  0
  1 16  1  0
  1 17  1  0
  1 18  1  0
  3 19  1  0
  3 20  1  0
  3 21  1  0
  5 22  1  0
  6 23  1  0
  9 24  1  0
  9 25  1  0
 12 26  1  0
M  END
>  <UniqueID>  (5) 
4

>  <SMILES>  (5) 
CN(C)c1ccc(S(N)(=O)=O)cc1C#N

>  <Energy>  (5) 
26.06756366292168

>  <Genealogy>  (5) 
CN(C)c1ccc(S(N)(=O)=O)cc1C#N (3D coordinates assigned)
CN(C)c1ccc(S(N)(=O)=O)cc1C#N (optimized conformer: 26.06756366292168 kcal/mol)

>  <smiles>  (5) 
CN(C)c1ccc(S(N)(=O)=O)cc1C#N

>  <score_type>  (5) 
oracle

>  <origin>  (5) 
adgpu

>  <m_score__min__energy>  (5) 
-7.6100000000000003

>  <m_primary>  (5) 
energy

$$$$
5:0
     RDKit          3D

 27 29  0  0  0  0  0  0  0  0999 V2000
   -3.4170   21.8620  -32.8960 N   0  0  0  0  0  0  0  0  0  0  0  0
   -4.4900   21.9030  -32.4650 C   0  0  0  0  0  0  0  0  0  0  0  0
   -5.8250   21.9560  -31.9300 C   0  0  0  0  0  0  0  0  0  0  0  0
   -6.9440   21.5200  -32.6530 C   0  0  0  0  0  0  0  0  0  0  0  0
   -8.1400   21.6540  -31.9600 C   0  0  0  0  0  0  0  0  0  0  0  0
   -7.8070   22.3140  -30.4490 S   0  0  0  0  0  0  0  0  0  0  0  0
   -6.1380   22.4350  -30.6600 C   0  0  0  0  0  0  0  0  0  0  0  0
   -5.1850   22.9440  -29.7080 N   0  0  0  0  0  0  0  0  0  0  0  0
   -4.3520   24.0990  -29.9170 C   0  0  0  0  0  0  0  0  0  0  0  0
   -4.4210   24.7520  -30.9920 O   0  0  0  0  0  0  0  0  0  0  0  0
   -3.4010   24.5520  -28.8850 C   0  0  0  0  0  0  0  0  0  0  0  0
   -3.4600   24.2820  -27.5160 C   0  0  0  0  0  0  0  0  0  0  0  0
   -2.3580   24.9190  -26.9950 C   0  0  0  0  0  0  0  0  0  0  0  0
   -1.8890   25.0070  -25.6870 C   0  0  0  0  0  0  0  0  0  0  0  0
   -0.7110   25.7450  -25.4630 C   0  0  0  0  0  0  0  0  0  0  0  0
   -0.0420   26.3690  -26.5400 C   0  0  0  0  0  0  0  0  0  0  0  0
   -0.5430   26.2600  -27.8510 C   0  0  0  0  0  0  0  0  0  0  0  0
   -1.7100   25.5220  -28.0400 C   0  0  0  0  0  0  0  0  0  0  0  0
   -2.3420   25.2960  -29.1640 O   0  0  0  0  0  0  0  0  0  0  0  0
   -6.8808   21.1108  -33.6721 H   0  0  0  0  0  0  0  0  0  0  0  0
   -9.1358   21.3758  -32.3354 H   0  0  0  0  0  0  0  0  0  0  0  0
   -5.0990   22.4300  -28.8050 H   0  0  0  0  0  0  0  0  0  0  0  0
   -4.2165   23.6932  -26.9766 H   0  0  0  0  0  0  0  0  0  0  0  0
   -2.4202   24.5171  -24.8576 H   0  0  0  0  0  0  0  0  0  0  0  0
   -0.3089   25.8364  -24.4432 H   0  0  0  0  0  0  0  0  0  0  0  0
    0.8768   26.9440  -26.3526 H   0  0  0  0  0  0  0  0  0  0  0  0
   -0.0308   26.7409  -28.6974 H   0  0  0  0  0  0  0  0  0  0  0  0
  1  2  3  0
  2  3  1  0
  3  4  1  0
  4  5  2  0
  5  6  1  0
  6  7  1  0
  7  8  1  0
  8  9  1  0
  9 10  2  0
  9 11  1  0
 11 12  2  0
 12 13  1  0
 13 14  2  0
 14 15  1  0
 15 16  2  0
 16 17  1  0
 17 18  2  0
 18 19  1  0
  7  3  2  0
 19 11  1  0
 18 13  1  0
  4 20  1  0
  5 21  1  0
  8 22  1  0
 12 23  1  0
 14 24  1  0
 15 25  1  0
 16 26  1  0
 17 27  1  0
M  END
>  <UniqueID>  (6) 
5

>  <SMILES>  (6) 
N#Cc1ccsc1NC(=O)c1cc2ccccc2o1

>  <Energy>  (6) 
90.46189748953127

>  <Genealogy>  (6) 
N#Cc1ccsc1NC(=O)c1cc2ccccc2o1 (3D coordinates assigned)
N#Cc1ccsc1NC(=O)c1cc2ccccc2o1 (optimized conformer: 90.46189748953127 kcal/mol)

>  <smiles>  (6) 
N#Cc1ccsc1NC(=O)c1cc2ccccc2o1

>  <score_type>  (6) 
oracle

>  <origin>  (6) 
adgpu

>  <m_score__min__energy>  (6) 
-7.5099999999999998

>  <m_primary>  (6) 
energy

$$$$
6:0
     RDKit          3D

 32 33  0  0  0  0  0  0  0  0999 V2000
   -7.4340   20.9070  -32.3360 C   0  0  0  0  0  0  0  0  0  0  0  0
   -6.2160   21.6340  -32.2000 O   0  0  0  0  0  0  0  0  0  0  0  0
   -6.0820   22.8220  -31.4660 C   0  0  0  0  0  0  0  0  0  0  0  0
   -7.2370   23.4200  -30.9500 C   0  0  0  0  0  0  0  0  0  0  0  0
   -7.1530   24.6030  -30.2110 C   0  0  0  0  0  0  0  0  0  0  0  0
   -5.9110   25.2050  -29.9930 C   0  0  0  0  0  0  0  0  0  0  0  0
   -4.7460   24.6370  -30.5200 C   0  0  0  0  0  0  0  0  0  0  0  0
   -3.4880   25.2800  -30.2750 N   0  0  0  0  0  0  0  0  0  0  0  0
   -2.4810   24.8460  -29.3500 C   0  0  0  0  0  0  0  0  0  0  0  0
   -1.6260   25.6820  -28.9520 O   0  0  0  0  0  0  0  0  0  0  0  0
   -2.3740   23.4300  -28.9220 C   0  0  0  0  0  0  0  0  0  0  0  0
   -1.4670   22.5880  -29.5890 C   0  0  0  0  0  0  0  0  0  0  0  0
   -1.3340   21.2490  -29.2190 C   0  0  0  0  0  0  0  0  0  0  0  0
   -2.0990   20.7340  -28.1730 C   0  0  0  0  0  0  0  0  0  0  0  0
   -3.0040   21.5550  -27.4970 C   0  0  0  0  0  0  0  0  0  0  0  0
   -3.1620   22.9030  -27.8670 C   0  0  0  0  0  0  0  0  0  0  0  0
   -4.1710   23.7470  -27.1330 C   0  0  0  0  0  0  0  0  0  0  0  0
   -4.8320   23.4260  -31.2330 C   0  0  0  0  0  0  0  0  0  0  0  0
   -7.8324   20.6692  -31.3386 H   0  0  0  0  0  0  0  0  0  0  0  0
   -8.1652   21.5165  -32.8872 H   0  0  0  0  0  0  0  0  0  0  0  0
   -7.2446   19.9741  -32.8872 H   0  0  0  0  0  0  0  0  0  0  0  0
   -8.2182   22.9555  -31.1274 H   0  0  0  0  0  0  0  0  0  0  0  0
   -8.0652   25.0606  -29.8006 H   0  0  0  0  0  0  0  0  0  0  0  0
   -5.8488   26.1315  -29.4032 H   0  0  0  0  0  0  0  0  0  0  0  0
   -0.8558   22.9888  -30.4111 H   0  0  0  0  0  0  0  0  0  0  0  0
   -0.6250   20.5992  -29.7530 H   0  0  0  0  0  0  0  0  0  0  0  0
   -1.9894   19.6794  -27.8799 H   0  0  0  0  0  0  0  0  0  0  0  0
   -3.5986   21.1440  -26.6678 H   0  0  0  0  0  0  0  0  0  0  0  0
   -4.0290   23.6282  -26.0487 H   0  0  0  0  0  0  0  0  0  0  0  0
   -4.0342   24.8035  -27.4072 H   0  0  0  0  0  0  0  0  0  0  0  0
   -5.1867   23.4256  -27.4072 H   0  0  0  0  0  0  0  0  0  0  0  0
   -3.9159   22.9484  -31.6107 H   0  0  0  0  0  0  0  0  0  0  0  0
  1  2  1  0
  2  3  1  0
  3  4  2  0
  4  5  1  0
  5  6  2  0
  6  7  1  0
  7  8  1  0
  8  9  1  0
  9 10  2  0
  9 11  1  0
 11 12  2  0
 12 13  1  0
 13 14  2  0
 14 15  1  0
 15 16  2  0
 16 17  1  0
  7 18  2  0
 18  3  1  0
 16 11  1  0
  1 19  1  0
  1 20  1  0
  1 21  1  0
  4 22  1  0
  5 23  1  0
  6 24  1  0
 12 25  1  0
 13 26  1  0
 14 27  1  0
 15 28  1  0
 17 29  1  0
 17 30  1  0
 17 31  1  0
 18 32  1  0
M  CHG  1   8  -1
M  END
>  <UniqueID>  (7) 
6

>  <SMILES>  (7) 
COc1cccc([N-]C(=O)c2ccccc2C)c1

>  <Energy>  (7) 
39.869086236779125

>  <Genealogy>  (7) 
COc1cccc([N-]C(=O)c2ccccc2C)c1 (protonated)
COc1cccc([N-]C(=O)c2ccccc2C)c1 (3D coordinates assigned)
COc1cccc([N-]C(=O)c2ccccc2C)c1 (optimized conformer: 39.869086236779125 kcal/mol)

>  <smiles>  (7) 
COc1cccc(NC(=O)c2ccccc2C)c1

>  <score_type>  (7) 
oracle

>  <origin>  (7) 
adgpu

>  <m_score__min__energy>  (7) 
-8.1799999999999997

>  <m_primary>  (7) 
energy

$$$$
7:0
     RDKit          3D

 32 33  0  0  0  0  0  0  0  0999 V2000
   -1.7590   24.8140  -26.6460 C   0  0  0  0  0  0  0  0  0  0  0  0
   -0.8850   24.7870  -28.1980 S   0  0  0  0  0  0  0  0  0  0  0  0
    0.6000   24.7830  -27.9650 O   0  0  0  0  0  0  0  0  0  0  0  0
   -1.2480   26.0240  -28.9690 O   0  0  0  0  0  0  0  0  0  0  0  0
   -1.3480   23.3940  -29.1230 N   0  0  0  0  0  0  0  0  0  0  0  0
   -2.5410   23.3010  -29.9260 C   0  0  0  0  0  0  0  0  0  0  0  0
   -2.6050   22.3340  -30.9390 C   0  0  0  0  0  0  0  0  0  0  0  0
   -3.7450   22.2120  -31.7360 C   0  0  0  0  0  0  0  0  0  0  0  0
   -4.8510   23.0430  -31.5230 C   0  0  0  0  0  0  0  0  0  0  0  0
   -6.0070   22.8940  -32.3600 N   0  0  0  0  0  0  0  0  0  0  0  0
   -6.9300   21.7930  -32.2630 C   0  0  0  0  0  0  0  0  0  0  0  0
   -6.5650   20.5400  -32.7820 C   0  0  0  0  0  0  0  0  0  0  0  0
   -7.4390   19.4540  -32.6880 C   0  0  0  0  0  0  0  0  0  0  0  0
   -8.6820   19.6050  -32.0670 C   0  0  0  0  0  0  0  0  0  0  0  0
   -9.5290   18.5490  -31.9760 F   0  0  0  0  0  0  0  0  0  0  0  0
   -9.0490   20.8430  -31.5330 C   0  0  0  0  0  0  0  0  0  0  0  0
   -8.1770   21.9330  -31.6250 C   0  0  0  0  0  0  0  0  0  0  0  0
   -4.7900   24.0350  -30.5250 C   0  0  0  0  0  0  0  0  0  0  0  0
   -6.1010   25.1830  -30.2880 Cl  0  0  0  0  0  0  0  0  0  0  0  0
   -3.6440   24.1520  -29.7270 C   0  0  0  0  0  0  0  0  0  0  0  0
   -1.0358   24.7917  -25.8175 H   0  0  0  0  0  0  0  0  0  0  0  0
   -2.3627   25.7312  -26.5811 H   0  0  0  0  0  0  0  0  0  0  0  0
   -2.4182   23.9358  -26.5811 H   0  0  0  0  0  0  0  0  0  0  0  0
   -0.6790   22.5920  -29.1250 H   0  0  0  0  0  0  0  0  0  0  0  0
   -1.7485   21.6646  -31.1077 H   0  0  0  0  0  0  0  0  0  0  0  0
   -3.7741   21.4580  -32.5364 H   0  0  0  0  0  0  0  0  0  0  0  0
   -6.1150   23.5620  -33.1580 H   0  0  0  0  0  0  0  0  0  0  0  0
   -5.5851   20.4129  -33.2654 H   0  0  0  0  0  0  0  0  0  0  0  0
   -7.1482   18.4780  -33.1037 H   0  0  0  0  0  0  0  0  0  0  0  0
  -10.0250   20.9607  -31.0395 H   0  0  0  0  0  0  0  0  0  0  0  0
   -8.4670   22.9039  -31.1969 H   0  0  0  0  0  0  0  0  0  0  0  0
   -3.6062   24.9167  -28.9372 H   0  0  0  0  0  0  0  0  0  0  0  0
  1  2  1  0
  2  3  2  0
  2  4  2  0
  2  5  1  0
  5  6  1  0
  6  7  2  0
  7  8  1  0
  8  9  2  0
  9 10  1  0
 10 11  1  0
 11 12  2  0
 12 13  1  0
 13 14  2  0
 14 15  1  0
 14 16  1  0
 16 17  2  0
  9 18  1  0
 18 19  1  0
 18 20  2  0
 20  6  1  0
 17 11  1  0
  1 21  1  0
  1 22  1  0
  1 23  1  0
  5 24  1  0
  7 25  1  0
  8 26  1  0
 10 27  1  0
 12 28  1  0
 13 29  1  0
 16 30  1  0
 17 31  1  0
 20 32  1  0
M  END
>  <UniqueID>  (8) 
7

>  <SMILES>  (8) 
CS(=O)(=O)Nc1ccc(Nc2ccc(F)cc2)c(Cl)c1

>  <Energy>  (8) 
38.71323910480402

>  <Genealogy>  (8) 
CS(=O)(=O)Nc1ccc(Nc2ccc(F)cc2)c(Cl)c1 (3D coordinates assigned)
CS(=O)(=O)Nc1ccc(Nc2ccc(F)cc2)c(Cl)c1 (optimized conformer: 38.71323910480402 kcal/mol)

>  <smiles>  (8) 
CS(=O)(=O)Nc1ccc(Nc2ccc(F)cc2)c(Cl)c1

>  <score_type>  (8) 
oracle

>  <origin>  (8) 
adgpu

>  <m_score__min__energy>  (8) 
-8.25

>  <m_primary>  (8) 
energy

$$$$
8:0
     RDKit          3D

 32 33  0  0  0  0  0  0  0  0999 V2000
   -0.4040   26.4800  -24.1520 C   0  0  0  0  0  0  0  0  0  0  0  0
   -0.0150   25.9900  -25.5430 C   0  0  0  0  0  0  0  0  0  0  0  0
   -1.2170   25.4640  -26.2800 C   0  0  0  0  0  0  0  0  0  0  0  0
   -2.4800   25.4660  -25.6700 C   0  0  0  0  0  0  0  0  0  0  0  0
   -3.6020   25.0070  -26.3660 C   0  0  0  0  0  0  0  0  0  0  0  0
   -3.4760   24.5320  -27.6840 C   0  0  0  0  0  0  0  0  0  0  0  0
   -4.6180   24.0810  -28.4310 N   0  0  0  0  0  0  0  0  0  0  0  0
   -4.7940   24.3120  -29.8420 C   0  0  0  0  0  0  0  0  0  0  0  0
   -3.9660   25.0250  -30.4710 O   0  0  0  0  0  0  0  0  0  0  0  0
   -5.9430   23.7310  -30.5800 C   0  0  0  0  0  0  0  0  0  0  0  0
   -6.1290   23.9670  -31.9560 C   0  0  0  0  0  0  0  0  0  0  0  0
   -7.2160   23.4020  -32.6300 C   0  0  0  0  0  0  0  0  0  0  0  0
   -8.1240   22.5930  -31.9430 C   0  0  0  0  0  0  0  0  0  0  0  0
   -7.9430   22.3400  -30.5830 C   0  0  0  0  0  0  0  0  0  0  0  0
   -6.8570   22.9010  -29.9040 C   0  0  0  0  0  0  0  0  0  0  0  0
   -2.2190   24.5680  -28.3040 C   0  0  0  0  0  0  0  0  0  0  0  0
   -1.0970   25.0270  -27.6080 C   0  0  0  0  0  0  0  0  0  0  0  0
    0.0906   25.8570  -23.3922 H   0  0  0  0  0  0  0  0  0  0  0  0
   -0.0881   27.5266  -24.0303 H   0  0  0  0  0  0  0  0  0  0  0  0
   -1.4950   26.4097  -24.0303 H   0  0  0  0  0  0  0  0  0  0  0  0
    0.4192   26.8257  -26.1114 H   0  0  0  0  0  0  0  0  0  0  0  0
    0.7179   25.1765  -25.4380 H   0  0  0  0  0  0  0  0  0  0  0  0
   -2.5882   25.8309  -24.6379 H   0  0  0  0  0  0  0  0  0  0  0  0
   -4.5889   25.0173  -25.8803 H   0  0  0  0  0  0  0  0  0  0  0  0
   -5.3740   23.6020  -27.8940 H   0  0  0  0  0  0  0  0  0  0  0  0
   -5.4149   24.5995  -32.5037 H   0  0  0  0  0  0  0  0  0  0  0  0
   -7.3564   23.5951  -33.7038 H   0  0  0  0  0  0  0  0  0  0  0  0
   -8.9819   22.1553  -32.4744 H   0  0  0  0  0  0  0  0  0  0  0  0
   -8.6556   21.6983  -30.0441 H   0  0  0  0  0  0  0  0  0  0  0  0
   -6.7158   22.6921  -28.8333 H   0  0  0  0  0  0  0  0  0  0  0  0
   -2.1149   24.2324  -29.3464 H   0  0  0  0  0  0  0  0  0  0  0  0
   -0.1152   25.0457  -28.1038 H   0  0  0  0  0  0  0  0  0  0  0  0
  1  2  1  0
  2  3  1  0
  3  4  2  0
  4  5  1  0
  5  6  2  0
  6  7  1  0
  7  8  1  0
  8  9  2  0
  8 10  1  0
 10 11  2  0
 11 12  1  0
 12 13  2  0
 13 14  1  0
 14 15  2  0
  6 16  1  0
 16 17  2  0
 17  3  1  0
 15 10  1  0
  1 18  1  0
  1 19  1  0
  1 20  1  0
  2 21  1  0
  2 22  1  0
  4 23  1  0
  5 24  1  0
  7 25  1  0
 11 26  1  0
 12 27  1  0
 13 28  1  0
 14 29  1  0
 15 30  1  0
 16 31  1  0
 17 32  1  0
M  END
>  <UniqueID>  (9) 
8

>  <SMILES>  (9) 
CCc1ccc(NC(=O)c2ccccc2)cc1

>  <Energy>  (9) 
36.01095339837059

>  <Genealogy>  (9) 
CCc1ccc(NC(=O)c2ccccc2)cc1 (3D coordinates assigned)
CCc1ccc(NC(=O)c2ccccc2)cc1 (optimized conformer: 36.01095339837059 kcal/mol)

>  <smiles>  (9) 
CCc1ccc(NC(=O)c2ccccc2)cc1

>  <score_type>  (9) 
oracle

>  <origin>  (9) 
adgpu

>  <m_score__min__energy>  (9) 
-7.0599999999999996

>  <m_primary>  (9) 
energy

$$$$
9:0
     RDKit          3D

 25 26  0  0  0  0  0  0  0  0999 V2000
   -5.3610   25.7180  -30.5380 C   0  0  0  0  0  0  0  0  0  0  0  0
   -3.9820   25.3650  -30.5260 O   0  0  0  0  0  0  0  0  0  0  0  0
   -3.4610   24.2130  -29.9140 C   0  0  0  0  0  0  0  0  0  0  0  0
   -4.0530   22.9470  -30.0800 C   0  0  0  0  0  0  0  0  0  0  0  0
   -3.5080   21.8240  -29.4560 C   0  0  0  0  0  0  0  0  0  0  0  0
   -2.3630   21.9430  -28.6560 C   0  0  0  0  0  0  0  0  0  0  0  0
   -1.7930   20.7490  -28.0000 C   0  0  0  0  0  0  0  0  0  0  0  0
   -2.4050   20.0460  -27.0280 N   0  0  0  0  0  0  0  0  0  0  0  0
   -1.5790   19.0610  -26.7060 N   0  0  0  0  0  0  0  0  0  0  0  0
   -0.4950   19.1980  -27.4910 C   0  0  0  0  0  0  0  0  0  0  0  0
   -0.6210   20.2320  -28.2870 O   0  0  0  0  0  0  0  0  0  0  0  0
   -1.7700   23.2050  -28.4880 C   0  0  0  0  0  0  0  0  0  0  0  0
   -2.3150   24.3430  -29.1150 C   0  0  0  0  0  0  0  0  0  0  0  0
   -1.7470   25.6190  -28.9680 O   0  0  0  0  0  0  0  0  0  0  0  0
   -1.0000   26.0440  -27.8330 C   0  0  0  0  0  0  0  0  0  0  0  0
   -5.7247   25.8111  -29.5040 H   0  0  0  0  0  0  0  0  0  0  0  0
   -5.4892   26.6779  -31.0596 H   0  0  0  0  0  0  0  0  0  0  0  0
   -5.9347   24.9378  -31.0596 H   0  0  0  0  0  0  0  0  0  0  0  0
   -4.9515   22.8420  -30.7059 H   0  0  0  0  0  0  0  0  0  0  0  0
   -3.9796   20.8397  -29.5927 H   0  0  0  0  0  0  0  0  0  0  0  0
    0.3799   18.5316  -27.4680 H   0  0  0  0  0  0  0  0  0  0  0  0
   -0.8718   23.3059  -27.8611 H   0  0  0  0  0  0  0  0  0  0  0  0
   -1.5262   25.7446  -26.9146 H   0  0  0  0  0  0  0  0  0  0  0  0
   -0.0042   25.5772  -27.8537 H   0  0  0  0  0  0  0  0  0  0  0  0
   -0.8924   27.1385  -27.8537 H   0  0  0  0  0  0  0  0  0  0  0  0
  1  2  1  0
  2  3  1  0
  3  4  2  0
  4  5  1  0
  5  6  2  0
  6  7  1  0
  7  8  2  0
  8  9  1  0
  9 10  2  0
 10 11  1  0
  6 12  1  0
 12 13  2  0
 13 14  1  0
 14 15  1  0
 13  3  1  0
 11  7  1  0
  1 16  1  0
  1 17  1  0
  1 18  1  0
  4 19  1  0
  5 20  1  0
 10 21  1  0
 12 22  1  0
 15 23  1  0
 15 24  1  0
 15 25  1  0
M  END
>  <UniqueID>  (10) 
9

>  <SMILES>  (10) 
COc1ccc(-c2nnco2)cc1OC

>  <Energy>  (10) 
58.86389799946021

>  <Genealogy>  (10) 
COc1ccc(-c2nnco2)cc1OC (3D coordinates assigned)
COc1ccc(-c2nnco2)cc1OC (optimized conformer: 58.86389799946021 kcal/mol)

>  <smiles>  (10) 
COc1ccc(-c2nnco2)cc1OC

>  <score_type>  (10) 
oracle

>  <origin>  (10) 
adgpu

>  <m_score__min__energy>  (10) 
-5.79

>  <m_primary>  (10) 
energy

$$$$
10:0
     RDKit          3D

 27 29  0  0  0  0  0  0  0  0999 V2000
   -1.2480   25.4450  -25.5010 F   0  0  0  0  0  0  0  0  0  0  0  0
   -2.0420   25.0920  -26.5420 C   0  0  0  0  0  0  0  0  0  0  0  0
   -1.4910   24.9190  -27.8150 C   0  0  0  0  0  0  0  0  0  0  0  0
   -2.3100   24.5560  -28.8890 C   0  0  0  0  0  0  0  0  0  0  0  0
   -3.6890   24.3630  -28.6980 C   0  0  0  0  0  0  0  0  0  0  0  0
   -4.5480   23.9810  -29.8350 C   0  0  0  0  0  0  0  0  0  0  0  0
   -4.4740   24.5250  -31.0660 N   0  0  0  0  0  0  0  0  0  0  0  0
   -5.3990   23.9240  -31.7960 N   0  0  0  0  0  0  0  0  0  0  0  0
   -6.0050   23.0340  -30.9860 C   0  0  0  0  0  0  0  0  0  0  0  0
   -7.1060   22.1410  -31.3960 C   0  0  0  0  0  0  0  0  0  0  0  0
   -8.4140   22.6360  -31.5370 C   0  0  0  0  0  0  0  0  0  0  0  0
   -9.4530   21.7840  -31.9260 C   0  0  0  0  0  0  0  0  0  0  0  0
   -9.1950   20.4340  -32.1790 C   0  0  0  0  0  0  0  0  0  0  0  0
   -7.8960   19.9330  -32.0420 C   0  0  0  0  0  0  0  0  0  0  0  0
   -7.5740   18.2380  -32.3580 Cl  0  0  0  0  0  0  0  0  0  0  0  0
   -6.8550   20.7830  -31.6520 C   0  0  0  0  0  0  0  0  0  0  0  0
   -5.4860   23.0650  -29.7810 O   0  0  0  0  0  0  0  0  0  0  0  0
   -4.2340   24.5400  -27.4140 C   0  0  0  0  0  0  0  0  0  0  0  0
   -3.4120   24.9040  -26.3430 C   0  0  0  0  0  0  0  0  0  0  0  0
   -0.4126   25.0685  -27.9721 H   0  0  0  0  0  0  0  0  0  0  0  0
   -1.8723   24.4208  -29.8891 H   0  0  0  0  0  0  0  0  0  0  0  0
   -8.6215   23.6982  -31.3405 H   0  0  0  0  0  0  0  0  0  0  0  0
  -10.4747   22.1772  -32.0329 H   0  0  0  0  0  0  0  0  0  0  0  0
  -10.0130   19.7656  -32.4857 H   0  0  0  0  0  0  0  0  0  0  0  0
   -5.8349   20.3855  -31.5454 H   0  0  0  0  0  0  0  0  0  0  0  0
   -5.3117   24.3915  -27.2513 H   0  0  0  0  0  0  0  0  0  0  0  0
   -3.8451   25.0427  -25.3414 H   0  0  0  0  0  0  0  0  0  0  0  0
  1  2  1  0
  2  3  2  0
  3  4  1  0
  4  5  2  0
  5  6  1  0
  6  7  2  0
  7  8  1  0
  8  9  2  0
  9 10  1  0
 10 11  2  0
 11 12  1  0
 12 13  2  0
 13 14  1  0
 14 15  1  0
 14 16  2  0
  9 17  1  0
  5 18  1  0
 18 19  2  0
 19  2  1  0
 17  6  1  0
 16 10  1  0
  3 20  1  0
  4 21  1  0
 11 22  1  0
 12 23  1  0
 13 24  1  0
 16 25  1  0
 18 26  1  0
 19 27  1  0
M  END
>  <UniqueID>  (11) 
10

>  <SMILES>  (11) 
Fc1ccc(-c2nnc(-c3cccc(Cl)c3)o2)cc1

>  <Energy>  (11) 
64.65116708009504

>  <Genealogy>  (11) 
Fc1ccc(-c2nnc(-c3cccc(Cl)c3)o2)cc1 (3D coordinates assigned)
Fc1ccc(-c2nnc(-c3cccc(Cl)c3)o2)cc1 (optimized conformer: 64.65116708009504 kcal/mol)

>  <smiles>  (11) 
Fc1ccc(-c2nnc(-c3cccc(Cl)c3)o2)cc1

>  <score_type>  (11) 
oracle

>  <origin>  (11) 
adgpu

>  <m_score__min__energy>  (11) 
-7.7199999999999998

>  <m_primary>  (11) 
energy

$$$$
11:0
     RDKit          3D

 28 29  0  0  0  0  0  0  0  0999 V2000
   -1.8510   23.7020  -29.7360 N   0  0  0  0  0  0  0  0  0  0  0  0
   -2.4080   22.8200  -30.4960 C   0  0  0  0  0  0  0  0  0  0  0  0
   -1.7720   21.6510  -30.7450 N   0  0  0  0  0  0  0  0  0  0  0  0
   -2.3030   20.6960  -31.5260 C   0  0  0  0  0  0  0  0  0  0  0  0
   -3.5170   20.9230  -32.0760 N   0  0  0  0  0  0  0  0  0  0  0  0
   -4.1870   22.0800  -31.8510 C   0  0  0  0  0  0  0  0  0  0  0  0
   -5.4530   22.2010  -32.4850 N   0  0  0  0  0  0  0  0  0  0  0  0
   -6.5170   21.2870  -32.3220 C   0  0  0  0  0  0  0  0  0  0  0  0
   -6.3390   20.0120  -32.8260 C   0  0  0  0  0  0  0  0  0  0  0  0
   -7.2940   19.0240  -32.7290 C   0  0  0  0  0  0  0  0  0  0  0  0
   -7.0480   17.7990  -33.2470 F   0  0  0  0  0  0  0  0  0  0  0  0
   -8.4880   19.2920  -32.1070 C   0  0  0  0  0  0  0  0  0  0  0  0
   -9.4670   18.3410  -31.9880 F   0  0  0  0  0  0  0  0  0  0  0  0
   -8.6950   20.5730  -31.5880 C   0  0  0  0  0  0  0  0  0  0  0  0
   -7.7070   21.5540  -31.7020 C   0  0  0  0  0  0  0  0  0  0  0  0
   -7.9430   22.7630  -31.1840 F   0  0  0  0  0  0  0  0  0  0  0  0
   -3.6530   23.0680  -31.0530 C   0  0  0  0  0  0  0  0  0  0  0  0
   -4.3790   24.2980  -30.8500 C   0  0  0  0  0  0  0  0  0  0  0  0
   -4.0260   25.2940  -29.9010 N   0  0  0  0  0  0  0  0  0  0  0  0
   -5.3990   24.5250  -31.5530 O   0  0  0  0  0  0  0  0  0  0  0  0
   -0.9150   23.4990  -29.3250 H   0  0  0  0  0  0  0  0  0  0  0  0
   -1.7649   19.7550  -31.7130 H   0  0  0  0  0  0  0  0  0  0  0  0
   -3.9330   20.1700  -32.6920 H   0  0  0  0  0  0  0  0  0  0  0  0
   -5.6040   23.0290  -33.1160 H   0  0  0  0  0  0  0  0  0  0  0  0
   -5.3895   19.7752  -33.3284 H   0  0  0  0  0  0  0  0  0  0  0  0
   -9.6441   20.8109  -31.0854 H   0  0  0  0  0  0  0  0  0  0  0  0
   -4.8220   25.6630  -29.2970 H   0  0  0  0  0  0  0  0  0  0  0  0
   -3.0620   25.6680  -29.7730 H   0  0  0  0  0  0  0  0  0  0  0  0
  1  2  2  3
  2  3  1  0
  3  4  2  0
  4  5  1  0
  5  6  1  0
  6  7  1  0
  7  8  1  0
  8  9  2  0
  9 10  1  0
 10 11  1  0
 10 12  2  0
 12 13  1  0
 12 14  1  0
 14 15  2  0
 15 16  1  0
  6 17  2  0
 17 18  1  0
 18 19  1  0
 18 20  2  0
 17  2  1  0
 15  8  1  0
  1 21  1  0
  4 22  1  0
  5 23  1  0
  7 24  1  0
  9 25  1  0
 14 26  1  0
 19 27  1  0
 19 28  1  0
M  END
>  <smiles>  (12) 
N=c1nc[nH]c(Nc2cc(F)c(F)cc2F)c1C(N)=O

>  <score_type>  (12) 
oracle

>  <origin>  (12) 
adgpu

>  <m_score__min__energy>  (12) 
-6.4900000000000002

>  <m_primary>  (12) 
energy

$$$$
12:0
     RDKit          3D

 39 42  0  0  0  0  0  0  0  0999 V2000
   -6.5220   25.6210  -29.2630 O   0  0  0  0  0  0  0  0  0  0  0  0
   -5.8230   24.8230  -29.9420 C   0  0  0  0  0  0  0  0  0  0  0  0
   -6.4940   24.0530  -30.8990 C   0  0  0  0  0  0  0  0  0  0  0  0
   -6.0040   23.1010  -31.7960 C   0  0  0  0  0  0  0  0  0  0  0  0
   -6.9700   22.5070  -32.6800 N   0  0  0  0  0  0  0  0  0  0  0  0
   -7.4610   21.1610  -32.5380 C   0  0  0  0  0  0  0  0  0  0  0  0
   -8.5990   20.9230  -31.7500 C   0  0  0  0  0  0  0  0  0  0  0  0
   -9.0950   19.6260  -31.5940 C   0  0  0  0  0  0  0  0  0  0  0  0
   -8.4620   18.5540  -32.2280 C   0  0  0  0  0  0  0  0  0  0  0  0
   -7.3350   18.7780  -33.0220 C   0  0  0  0  0  0  0  0  0  0  0  0
   -6.8360   20.0750  -33.1810 C   0  0  0  0  0  0  0  0  0  0  0  0
   -4.6740   22.6650  -31.8660 C   0  0  0  0  0  0  0  0  0  0  0  0
   -4.2270   21.6520  -32.7060 C   0  0  0  0  0  0  0  0  0  0  0  0
   -2.8670   21.5250  -32.5010 C   0  0  0  0  0  0  0  0  0  0  0  0
   -1.9660   20.5680  -33.1900 C   0  0  0  0  0  0  0  0  0  0  0  0
   -2.3880   19.2520  -33.4620 C   0  0  0  0  0  0  0  0  0  0  0  0
   -1.5370   18.3540  -34.1140 C   0  0  0  0  0  0  0  0  0  0  0  0
   -0.2580   18.7570  -34.5020 C   0  0  0  0  0  0  0  0  0  0  0  0
    0.1720   20.0590  -34.2410 C   0  0  0  0  0  0  0  0  0  0  0  0
   -0.6740   20.9610  -33.5900 C   0  0  0  0  0  0  0  0  0  0  0  0
   -2.4690   22.4100  -31.5680 N   0  0  0  0  0  0  0  0  0  0  0  0
   -3.5580   23.1010  -31.1690 C   0  0  0  0  0  0  0  0  0  0  0  0
   -3.4670   24.0810  -30.1920 C   0  0  0  0  0  0  0  0  0  0  0  0
   -4.4930   24.7980  -29.6850 N   0  0  0  0  0  0  0  0  0  0  0  0
   -7.5791   24.2248  -30.9533 H   0  0  0  0  0  0  0  0  0  0  0  0
   -7.2380   23.0490  -33.5340 H   0  0  0  0  0  0  0  0  0  0  0  0
   -9.1036   21.7640  -31.2519 H   0  0  0  0  0  0  0  0  0  0  0  0
   -9.9845   19.4489  -30.9716 H   0  0  0  0  0  0  0  0  0  0  0  0
   -8.8514   17.5330  -32.1018 H   0  0  0  0  0  0  0  0  0  0  0  0
   -6.8392   17.9334  -33.5229 H   0  0  0  0  0  0  0  0  0  0  0  0
   -5.9512   20.2476  -33.8113 H   0  0  0  0  0  0  0  0  0  0  0  0
   -4.8408   21.0624  -33.4029 H   0  0  0  0  0  0  0  0  0  0  0  0
   -3.3947   18.9281  -33.1592 H   0  0  0  0  0  0  0  0  0  0  0  0
   -1.8760   17.3283  -34.3215 H   0  0  0  0  0  0  0  0  0  0  0  0
    0.4106   18.0488  -35.0132 H   0  0  0  0  0  0  0  0  0  0  0  0
    1.1794   20.3760  -34.5485 H   0  0  0  0  0  0  0  0  0  0  0  0
   -0.3282   21.9856  -33.3885 H   0  0  0  0  0  0  0  0  0  0  0  0
   -1.5010   22.5250  -31.1920 H   0  0  0  0  0  0  0  0  0  0  0  0
   -2.4646   24.2944  -29.7923 H   0  0  0  0  0  0  0  0  0  0  0  0
  1  2  2  0
  2  3  1  0
  3  4  2  0
  4  5  1  0
  5  6  1  0
  6  7  2  0
  7  8  1  0
  8  9  2  0
  9 10  1  0
 10 11  2  0
  4 12  1  0
 12 13  1  0
 13 14  2  0
 14 15  1  0
 15 16  2  0
 16 17  1  0
 17 18  2  0
 18 19  1  0
 19 20  2  0
 14 21  1  0
 21 22  1  0
 22 23  1  0
 23 24  2  0
 24  2  1  0
 11  6  1  0
 22 12  2  0
 20 15  1  0
  3 25  1  0
  5 26  1  0
  7 27  1  0
  8 28  1  0
  9 29  1  0
 10 30  1  0
 11 31  1  0
 13 32  1  0
 16 33  1  0
 17 34  1  0
 18 35  1  0
 19 36  1  0
 20 37  1  0
 21 38  1  0
 23 39  1  0
M  END
>  <UniqueID>  (13) 
11

>  <SMILES>  (13) 
O=c1cc(Nc2ccccc2)c2cc(-c3ccccc3)[nH]c2cn1

>  <Energy>  (13) 
96.27899672633644

>  <Genealogy>  (13) 
O=c1cc(Nc2ccccc2)c2cc(-c3ccccc3)[nH]c2cn1 (3D coordinates assigned)
O=c1cc(Nc2ccccc2)c2cc(-c3ccccc3)[nH]c2cn1 (optimized conformer: 96.27899672633644 kcal/mol)

>  <smiles>  (13) 
O=c1cc(Nc2ccccc2)c2cc(-c3ccccc3)[nH]c2cn1

>  <score_type>  (13) 
oracle

>  <origin>  (13) 
adgpu

>  <m_score__min__energy>  (13) 
-8.2100000000000009

>  <m_primary>  (13) 
energy

$$$$
13:0
     RDKit          3D

 49 50  0  0  0  0  0  0  0  0999 V2000
   -2.1270   20.2830  -27.1990 C   0  0  0  0  0  0  0  0  0  0  0  0
   -2.7750   21.5500  -27.1260 O   0  0  0  0  0  0  0  0  0  0  0  0
   -2.3210   22.7240  -27.7490 C   0  0  0  0  0  0  0  0  0  0  0  0
   -3.1070   23.3780  -28.7160 C   0  0  0  0  0  0  0  0  0  0  0  0
   -2.6570   24.5400  -29.3450 C   0  0  0  0  0  0  0  0  0  0  0  0
   -3.5040   25.1670  -30.3200 N   0  0  0  0  0  0  0  0  0  0  0  0
   -4.9220   24.9920  -30.4570 C   0  0  0  0  0  0  0  0  0  0  0  0
   -5.7130   25.8640  -30.0020 O   0  0  0  0  0  0  0  0  0  0  0  0
   -5.4620   23.8120  -31.1750 C   0  0  0  0  0  0  0  0  0  0  0  0
   -4.5970   22.8800  -31.7600 C   0  0  0  0  0  0  0  0  0  0  0  0
   -5.0920   21.7610  -32.4560 C   0  0  0  0  0  0  0  0  0  0  0  0
   -4.2100   20.8390  -33.0420 O   0  0  0  0  0  0  0  0  0  0  0  0
   -2.7940   20.9780  -33.1000 C   0  0  0  0  0  0  0  0  0  0  0  0
   -6.4960   21.5630  -32.5580 C   0  0  0  0  0  0  0  0  0  0  0  0
   -7.0610   20.4670  -33.2360 O   0  0  0  0  0  0  0  0  0  0  0  0
   -6.7740   19.0880  -33.0320 C   0  0  0  0  0  0  0  0  0  0  0  0
   -7.3710   22.5050  -31.9520 C   0  0  0  0  0  0  0  0  0  0  0  0
   -8.7760   22.4080  -31.9730 O   0  0  0  0  0  0  0  0  0  0  0  0
   -9.5510   21.2150  -31.9200 C   0  0  0  0  0  0  0  0  0  0  0  0
   -6.8420   23.6120  -31.2820 C   0  0  0  0  0  0  0  0  0  0  0  0
   -1.4260   25.0930  -28.9700 C   0  0  0  0  0  0  0  0  0  0  0  0
   -0.6220   24.4580  -28.0070 C   0  0  0  0  0  0  0  0  0  0  0  0
    0.6250   24.9790  -27.6210 O   0  0  0  0  0  0  0  0  0  0  0  0
    0.8080   26.0060  -26.6500 C   0  0  0  0  0  0  0  0  0  0  0  0
   -1.0580   23.2680  -27.4010 C   0  0  0  0  0  0  0  0  0  0  0  0
   -0.1850   22.6810  -26.4640 O   0  0  0  0  0  0  0  0  0  0  0  0
   -0.1210   22.9630  -25.0700 C   0  0  0  0  0  0  0  0  0  0  0  0
   -1.9361   19.9097  -26.1821 H   0  0  0  0  0  0  0  0  0  0  0  0
   -2.7720   19.5717  -27.7356 H   0  0  0  0  0  0  0  0  0  0  0  0
   -1.1727   20.3896  -27.7356 H   0  0  0  0  0  0  0  0  0  0  0  0
   -4.0923   22.9666  -28.9805 H   0  0  0  0  0  0  0  0  0  0  0  0
   -3.5099   23.0247  -31.6743 H   0  0  0  0  0  0  0  0  0  0  0  0
   -2.3874   21.0179  -32.0787 H   0  0  0  0  0  0  0  0  0  0  0  0
   -2.3627   20.1179  -33.6330 H   0  0  0  0  0  0  0  0  0  0  0  0
   -2.5382   21.9056  -33.6330 H   0  0  0  0  0  0  0  0  0  0  0  0
   -6.7304   18.8783  -31.9531 H   0  0  0  0  0  0  0  0  0  0  0  0
   -7.5642   18.4770  -33.4926 H   0  0  0  0  0  0  0  0  0  0  0  0
   -5.8056   18.8430  -33.4926 H   0  0  0  0  0  0  0  0  0  0  0  0
   -9.7296   20.9401  -30.8700 H   0  0  0  0  0  0  0  0  0  0  0  0
  -10.5143   21.3808  -32.4245 H   0  0  0  0  0  0  0  0  0  0  0  0
   -9.0080   20.4023  -32.4245 H   0  0  0  0  0  0  0  0  0  0  0  0
   -7.5274   24.3430  -30.8282 H   0  0  0  0  0  0  0  0  0  0  0  0
   -1.0856   26.0313  -29.4324 H   0  0  0  0  0  0  0  0  0  0  0  0
    0.7311   25.5746  -25.6411 H   0  0  0  0  0  0  0  0  0  0  0  0
    1.8013   26.4605  -26.7797 H   0  0  0  0  0  0  0  0  0  0  0  0
    0.0328   26.7756  -26.7797 H   0  0  0  0  0  0  0  0  0  0  0  0
   -0.3293   22.0453  -24.5003 H   0  0  0  0  0  0  0  0  0  0  0  0
    0.8837   23.3320  -24.8163 H   0  0  0  0  0  0  0  0  0  0  0  0
   -0.8680   23.7296  -24.8163 H   0  0  0  0  0  0  0  0  0  0  0  0
  1  2  1  0
  2  3  1  0
  3  4  2  0
  4  5  1  0
  5  6  1  0
  6  7  1  0
  7  8  2  0
  7  9  1  0
  9 10  2  0
 10 11  1  0
 11 12  1  0
 12 13  1  0
 11 14  2  0
 14 15  1  0
 15 16  1  0
 14 17  1  0
 17 18  1  0
 18 19  1  0
 17 20  2  0
  5 21  2  0
 21 22  1  0
 22 23  1  0
 23 24  1  0
 22 25  2  0
 25 26  1  0
 26 27  1  0
 25  3  1  0
 20  9  1  0
  1 28  1  0
  1 29  1  0
  1 30  1  0
  4 31  1  0
 10 32  1  0
 13 33  1  0
 13 34  1  0
 13 35  1  0
 16 36  1  0
 16 37  1  0
 16 38  1  0
 19 39  1  0
 19 40  1  0
 19 41  1  0
 20 42  1  0
 21 43  1  0
 24 44  1  0
 24 45  1  0
 24 46  1  0
 27 47  1  0
 27 48  1  0
 27 49  1  0
M  CHG  1   6  -1
M  END
>  <UniqueID>  (14) 
12

>  <SMILES>  (14) 
COc1cc([N-]C(=O)c2cc(OC)c(OC)c(OC)c2)cc(OC)c1OC

>  <Energy>  (14) 
59.95908187645458

>  <Genealogy>  (14) 
COc1cc([N-]C(=O)c2cc(OC)c(OC)c(OC)c2)cc(OC)c1OC (protonated)
COc1cc([N-]C(=O)c2cc(OC)c(OC)c(OC)c2)cc(OC)c1OC (3D coordinates assigned)
COc1cc([N-]C(=O)c2cc(OC)c(OC)c(OC)c2)cc(OC)c1OC (optimized conformer: 59.95908187645458 kcal/mol)

>  <smiles>  (14) 
COc1cc(NC(=O)c2cc(OC)c(OC)c(OC)c2)cc(OC)c1OC

>  <score_type>  (14) 
oracle

>  <origin>  (14) 
adgpu

>  <m_score__min__energy>  (14) 
-7.5999999999999996

>  <m_primary>  (14) 
energy

$$$$
14:0
     RDKit          3D

 37 39  0  0  0  0  0  0  0  0999 V2000
   -7.3525   19.3886  -33.1524 H   0  0  0  0  0  0  0  0  0  0  0  0
   -7.6260   20.3340  -32.6610 C   0  0  0  0  0  0  0  0  0  0  0  0
   -6.8120   21.4170  -32.7720 N   0  0  0  0  0  0  0  0  0  0  0  0
   -7.1160   22.6100  -32.1860 C   0  0  0  0  0  0  0  0  0  0  0  0
   -6.1710   23.7710  -32.3320 C   0  0  0  0  0  0  0  0  0  0  0  0
   -6.6926   24.6978  -32.0509 H   0  0  0  0  0  0  0  0  0  0  0  0
   -5.8351   23.8222  -33.3782 H   0  0  0  0  0  0  0  0  0  0  0  0
   -4.9630   23.5950  -31.4450 C   0  0  0  0  0  0  0  0  0  0  0  0
   -4.8980   24.3400  -30.3110 N   0  0  0  0  0  0  0  0  0  0  0  0
   -3.8850   24.2420  -29.4530 N   0  0  0  0  0  0  0  0  0  0  0  0
   -2.8490   23.3840  -29.6540 C   0  0  0  0  0  0  0  0  0  0  0  0
   -1.8760   23.3140  -28.7900 N   0  0  0  0  0  0  0  0  0  0  0  0
   -1.7670   24.1230  -27.5760 C   0  0  0  0  0  0  0  0  0  0  0  0
   -1.0243   23.6654  -26.9059 H   0  0  0  0  0  0  0  0  0  0  0  0
   -2.7550   24.1606  -27.0940 H   0  0  0  0  0  0  0  0  0  0  0  0
   -1.3320   25.5550  -27.8990 C   0  0  0  0  0  0  0  0  0  0  0  0
   -0.3475   25.7442  -27.4464 H   0  0  0  0  0  0  0  0  0  0  0  0
   -2.0791   26.2522  -27.4920 H   0  0  0  0  0  0  0  0  0  0  0  0
   -1.2420   25.7530  -29.3430 N   0  0  0  0  0  0  0  0  0  0  0  0
   -0.6970   24.9580  -29.7500 H   0  0  0  0  0  0  0  0  0  0  0  0
   -2.2090   25.6760  -29.7350 H   0  0  0  0  0  0  0  0  0  0  0  0
   -2.8490   22.5680  -30.8020 C   0  0  0  0  0  0  0  0  0  0  0  0
   -1.8040   21.6550  -31.0580 C   0  0  0  0  0  0  0  0  0  0  0  0
   -0.9644   21.5733  -30.3520 H   0  0  0  0  0  0  0  0  0  0  0  0
   -1.8290   20.8560  -32.2000 C   0  0  0  0  0  0  0  0  0  0  0  0
   -1.0109   20.1457  -32.3899 H   0  0  0  0  0  0  0  0  0  0  0  0
   -2.8870   20.9540  -33.1020 C   0  0  0  0  0  0  0  0  0  0  0  0
   -2.9005   20.3207  -34.0013 H   0  0  0  0  0  0  0  0  0  0  0  0
   -3.9290   21.8520  -32.8690 C   0  0  0  0  0  0  0  0  0  0  0  0
   -4.7593   21.9220  -33.5871 H   0  0  0  0  0  0  0  0  0  0  0  0
   -3.9270   22.6720  -31.7190 C   0  0  0  0  0  0  0  0  0  0  0  0
   -8.2920   22.7280  -31.4290 C   0  0  0  0  0  0  0  0  0  0  0  0
   -8.5427   23.6798  -30.9378 H   0  0  0  0  0  0  0  0  0  0  0  0
   -9.1410   21.6260  -31.3050 C   0  0  0  0  0  0  0  0  0  0  0  0
  -10.0693   21.7084  -30.7207 H   0  0  0  0  0  0  0  0  0  0  0  0
   -8.8090   20.4200  -31.9240 C   0  0  0  0  0  0  0  0  0  0  0  0
   -9.4718   19.5469  -31.8323 H   0  0  0  0  0  0  0  0  0  0  0  0
  1  2  1  0
  2  3  2  0
  3  4  1  0
  4  5  1  0
  5  6  1  0
  5  7  1  0
  5  8  1  0
  8  9  2  0
  9 10  1  0
 10 11  1  0
 11 12  2  0
 12 13  1  0
 13 14  1  0
 13 15  1  0
 13 16  1  0
 16 17  1  0
 16 18  1  0
 16 19  1  0
 19 20  1  0
 19 21  1  0
 11 22  1  0
 22 23  2  0
 23 24  1  0
 23 25  1  0
 25 26  1  0
 25 27  2  0
 27 28  1  0
 27 29  1  0
 29 30  1  0
 29 31  2  0
  4 32  2  0
 32 33  1  0
 32 34  1  0
 34 35  1  0
 34 36  2  0
 36 37  1  0
 36  2  1  0
 31  8  1  0
 31 22  1  0
M  CHG  1  10  -1
M  END
>  <UniqueID>  (15) 
13

>  <SMILES>  (15) 
NCC/N=c1\[n-]nc(Cc2ccccn2)c2ccccc12

>  <Energy>  (15) 
43.45823101685794

>  <Genealogy>  (15) 
NCCN=c1[n-]nc(Cc2ccccn2)c2ccccc12 (protonated)
NCC/N=c1\[n-]nc(Cc2ccccn2)c2ccccc12 (cis-trans isomerization)
NCC/N=c1\[n-]nc(Cc2ccccn2)c2ccccc12 (3D coordinates assigned)
NCC/N=c1\[n-]nc(Cc2ccccn2)c2ccccc12 (optimized conformer: 43.45823101685794 kcal/mol)

>  <smiles>  (15) 
NCCN=c1[nH]nc(Cc2ccccn2)c2ccccc12

>  <score_type>  (15) 
oracle

>  <origin>  (15) 
adgpu

>  <m_score__min__energy>  (15) 
-8.4900000000000002

>  <m_primary>  (15) 
energy

$$$$
15:0
     RDKit          3D

 20 21  0  0  0  0  0  0  0  0999 V2000
   -2.4090   22.9030  -29.8300 O   0  0  0  0  0  0  0  0  0  0  0  0
   -2.4780   24.1570  -29.7320 C   0  0  0  0  0  0  0  0  0  0  0  0
   -3.5020   24.8520  -30.4550 N   0  0  0  0  0  0  0  0  0  0  0  0
   -4.8170   24.3580  -30.7440 C   0  0  0  0  0  0  0  0  0  0  0  0
   -5.9220   24.9980  -30.1650 C   0  0  0  0  0  0  0  0  0  0  0  0
   -7.2180   24.5550  -30.4390 C   0  0  0  0  0  0  0  0  0  0  0  0
   -7.4230   23.4810  -31.3090 C   0  0  0  0  0  0  0  0  0  0  0  0
   -6.3290   22.8570  -31.9160 C   0  0  0  0  0  0  0  0  0  0  0  0
   -5.0290   23.2950  -31.6460 C   0  0  0  0  0  0  0  0  0  0  0  0
   -3.9890   22.7110  -32.2920 F   0  0  0  0  0  0  0  0  0  0  0  0
   -1.4630   24.8710  -28.9370 C   0  0  0  0  0  0  0  0  0  0  0  0
   -1.6120   26.1280  -28.4730 N   0  0  0  0  0  0  0  0  0  0  0  0
   -0.4360   26.3370  -27.8510 C   0  0  0  0  0  0  0  0  0  0  0  0
    0.3830   25.2730  -27.9370 N   0  0  0  0  0  0  0  0  0  0  0  0
   -0.2630   24.3490  -28.6260 N   0  0  0  0  0  0  0  0  0  0  0  0
   -5.7674   25.8537  -29.4913 H   0  0  0  0  0  0  0  0  0  0  0  0
   -8.0790   25.0526  -29.9689 H   0  0  0  0  0  0  0  0  0  0  0  0
   -8.4437   23.1270  -31.5160 H   0  0  0  0  0  0  0  0  0  0  0  0
   -6.4917   22.0182  -32.6087 H   0  0  0  0  0  0  0  0  0  0  0  0
   -0.1748   27.2710  -27.3319 H   0  0  0  0  0  0  0  0  0  0  0  0
  1  2  2  0
  2  3  1  0
  3  4  1  0
  4  5  2  0
  5  6  1  0
  6  7  2  0
  7  8  1  0
  8  9  2  0
  9 10  1  0
  2 11  1  0
 11 12  1  0
 12 13  2  0
 13 14  1  0
 14 15  1  0
  9  4  1  0
 15 11  2  0
  5 16  1  0
  6 17  1  0
  7 18  1  0
  8 19  1  0
 13 20  1  0
M  CHG  2   3  -1  14  -1
M  END
>  <UniqueID>  (16) 
14

>  <SMILES>  (16) 
O=C([N-]c1ccccc1F)c1nc[n-]n1

>  <Energy>  (16) 
58.068698367114166

>  <Genealogy>  (16) 
O=C([N-]c1ccccc1F)c1nc[n-]n1 (protonated)
O=C([N-]c1ccccc1F)c1nc[n-]n1 (3D coordinates assigned)
O=C([N-]c1ccccc1F)c1nc[n-]n1 (optimized conformer: 58.068698367114166 kcal/mol)

>  <smiles>  (16) 
O=C(Nc1ccccc1F)c1nc[nH]n1

>  <score_type>  (16) 
oracle

>  <origin>  (16) 
adgpu

>  <m_score__min__energy>  (16) 
-8.0199999999999996

>  <m_primary>  (16) 
energy

$$$$
16:0
     RDKit          3D

 44 46  0  0  0  0  0  0  0  0999 V2000
   -8.9830   19.1260  -32.1910 C   0  0  0  0  0  0  0  0  0  0  0  0
   -8.2900   20.0460  -33.0860 N   0  0  0  0  0  0  0  0  0  0  0  0
   -7.2490   20.9440  -32.6580 C   0  0  0  0  0  0  0  0  0  0  0  0
   -5.9090   20.7570  -33.0400 C   0  0  0  0  0  0  0  0  0  0  0  0
   -4.9120   21.6480  -32.6160 C   0  0  0  0  0  0  0  0  0  0  0  0
   -3.4880   21.4160  -33.0460 C   0  0  0  0  0  0  0  0  0  0  0  0
   -5.2520   22.7210  -31.7640 C   0  0  0  0  0  0  0  0  0  0  0  0
   -4.2690   23.5960  -31.2830 O   0  0  0  0  0  0  0  0  0  0  0  0
   -3.5930   23.4300  -30.0650 C   0  0  0  0  0  0  0  0  0  0  0  0
   -3.3870   24.5530  -29.2590 C   0  0  0  0  0  0  0  0  0  0  0  0
   -2.7200   24.4330  -28.0380 C   0  0  0  0  0  0  0  0  0  0  0  0
   -2.2570   23.1870  -27.6100 C   0  0  0  0  0  0  0  0  0  0  0  0
   -2.4610   22.0420  -28.4000 C   0  0  0  0  0  0  0  0  0  0  0  0
   -1.9740   20.7140  -27.9460 C   0  0  0  0  0  0  0  0  0  0  0  0
   -2.7620   19.9160  -27.0940 C   0  0  0  0  0  0  0  0  0  0  0  0
   -2.3030   18.6650  -26.6720 C   0  0  0  0  0  0  0  0  0  0  0  0
   -1.0560   18.1970  -27.0930 C   0  0  0  0  0  0  0  0  0  0  0  0
   -0.2650   18.9790  -27.9370 C   0  0  0  0  0  0  0  0  0  0  0  0
   -0.7190   20.2320  -28.3630 C   0  0  0  0  0  0  0  0  0  0  0  0
   -3.1350   22.1720  -29.6290 C   0  0  0  0  0  0  0  0  0  0  0  0
   -6.5940   22.9300  -31.4030 C   0  0  0  0  0  0  0  0  0  0  0  0
   -6.9630   24.0740  -30.5020 C   0  0  0  0  0  0  0  0  0  0  0  0
   -7.5800   22.0350  -31.8430 C   0  0  0  0  0  0  0  0  0  0  0  0
   -8.7743   19.4030  -31.1471 H   0  0  0  0  0  0  0  0  0  0  0  0
  -10.0660   19.1810  -32.3755 H   0  0  0  0  0  0  0  0  0  0  0  0
   -8.6312   18.1002  -32.3755 H   0  0  0  0  0  0  0  0  0  0  0  0
   -8.5690   20.0390  -34.0940 H   0  0  0  0  0  0  0  0  0  0  0  0
   -5.6394   19.9027  -33.6783 H   0  0  0  0  0  0  0  0  0  0  0  0
   -2.8488   21.3119  -32.1568 H   0  0  0  0  0  0  0  0  0  0  0  0
   -3.4318   20.4969  -33.6477 H   0  0  0  0  0  0  0  0  0  0  0  0
   -3.1429   22.2698  -33.6477 H   0  0  0  0  0  0  0  0  0  0  0  0
   -3.7523   25.5369  -29.5882 H   0  0  0  0  0  0  0  0  0  0  0  0
   -2.5588   25.3227  -27.4115 H   0  0  0  0  0  0  0  0  0  0  0  0
   -1.7293   23.1008  -26.6487 H   0  0  0  0  0  0  0  0  0  0  0  0
   -3.7446   20.2794  -26.7587 H   0  0  0  0  0  0  0  0  0  0  0  0
   -2.9250   18.0478  -26.0070 H   0  0  0  0  0  0  0  0  0  0  0  0
   -0.6971   17.2121  -26.7595 H   0  0  0  0  0  0  0  0  0  0  0  0
    0.7169   18.6093  -28.2676 H   0  0  0  0  0  0  0  0  0  0  0  0
   -0.0915   20.8440  -29.0277 H   0  0  0  0  0  0  0  0  0  0  0  0
   -3.3053   21.2831  -30.2541 H   0  0  0  0  0  0  0  0  0  0  0  0
   -6.8621   23.7612  -29.4522 H   0  0  0  0  0  0  0  0  0  0  0  0
   -6.2938   24.9249  -30.6970 H   0  0  0  0  0  0  0  0  0  0  0  0
   -8.0033   24.3735  -30.6970 H   0  0  0  0  0  0  0  0  0  0  0  0
   -8.6271   22.1914  -31.5445 H   0  0  0  0  0  0  0  0  0  0  0  0
  1  2  1  0
  2  3  1  0
  3  4  2  0
  4  5  1  0
  5  6  1  0
  5  7  2  0
  7  8  1  0
  8  9  1  0
  9 10  2  0
 10 11  1  0
 11 12  2  0
 12 13  1  0
 13 14  1  0
 14 15  2  0
 15 16  1  0
 16 17  2  0
 17 18  1  0
 18 19  2  0
 13 20  2  0
  7 21  1  0
 21 22  1  0
 21 23  2  0
 23  3  1  0
 20  9  1  0
 19 14  1  0
  1 24  1  0
  1 25  1  0
  1 26  1  0
  2 27  1  0
  4 28  1  0
  6 29  1  0
  6 30  1  0
  6 31  1  0
 10 32  1  0
 11 33  1  0
 12 34  1  0
 15 35  1  0
 16 36  1  0
 17 37  1  0
 18 38  1  0
 19 39  1  0
 20 40  1  0
 22 41  1  0
 22 42  1  0
 22 43  1  0
 23 44  1  0
M  END
>  <UniqueID>  (17) 
15

>  <SMILES>  (17) 
CNc1cc(C)c(Oc2cccc(-c3ccccc3)c2)c(C)c1

>  <Energy>  (17) 
57.26641247452487

>  <Genealogy>  (17) 
CNc1cc(C)c(Oc2cccc(-c3ccccc3)c2)c(C)c1 (3D coordinates assigned)
CNc1cc(C)c(Oc2cccc(-c3ccccc3)c2)c(C)c1 (optimized conformer: 57.26641247452487 kcal/mol)

>  <smiles>  (17) 
CNc1cc(C)c(Oc2cccc(-c3ccccc3)c2)c(C)c1

>  <score_type>  (17) 
oracle

>  <origin>  (17) 
adgpu

>  <m_score__min__energy>  (17) 
-8.5500000000000007

>  <m_primary>  (17) 
energy

$$$$
17:0
     RDKit          3D

 44 47  0  0  0  0  0  0  0  0999 V2000
   -7.8240   19.0950  -31.5500 C   0  0  0  0  0  0  0  0  0  0  0  0
   -7.9000   20.5930  -31.5820 C   0  0  0  0  0  0  0  0  0  0  0  0
   -9.1070   21.2310  -31.8960 C   0  0  0  0  0  0  0  0  0  0  0  0
   -9.1680   22.6240  -31.9660 C   0  0  0  0  0  0  0  0  0  0  0  0
   -8.0230   23.3910  -31.7320 C   0  0  0  0  0  0  0  0  0  0  0  0
   -6.8000   22.7690  -31.4240 C   0  0  0  0  0  0  0  0  0  0  0  0
   -5.5690   23.5580  -31.1790 C   0  0  0  0  0  0  0  0  0  0  0  0
   -5.5270   24.9040  -31.1460 N   0  0  0  0  0  0  0  0  0  0  0  0
   -4.2800   25.2210  -30.9370 O   0  0  0  0  0  0  0  0  0  0  0  0
   -3.4850   24.1940  -30.8370 N   0  0  0  0  0  0  0  0  0  0  0  0
   -4.2770   23.1190  -30.9920 C   0  0  0  0  0  0  0  0  0  0  0  0
   -3.8350   21.7930  -30.9910 O   0  0  0  0  0  0  0  0  0  0  0  0
   -2.5120   21.4030  -31.3550 C   0  0  0  0  0  0  0  0  0  0  0  0
   -2.4510   19.9050  -31.6680 C   0  0  0  0  0  0  0  0  0  0  0  0
   -2.5750   19.6140  -33.1670 C   0  0  0  0  0  0  0  0  0  0  0  0
   -3.9450   19.2180  -33.4900 N   0  0  0  0  0  0  0  0  0  0  0  0
   -4.9560   20.0520  -33.8270 C   0  0  0  0  0  0  0  0  0  0  0  0
   -6.1040   19.3300  -34.1340 C   0  0  0  0  0  0  0  0  0  0  0  0
   -5.7530   18.0050  -33.9840 C   0  0  0  0  0  0  0  0  0  0  0  0
   -6.4990   16.8440  -34.1750 C   0  0  0  0  0  0  0  0  0  0  0  0
   -5.8610   15.6100  -33.9620 C   0  0  0  0  0  0  0  0  0  0  0  0
   -4.5050   15.5640  -33.5690 C   0  0  0  0  0  0  0  0  0  0  0  0
   -3.7760   16.7530  -33.3840 C   0  0  0  0  0  0  0  0  0  0  0  0
   -4.4360   17.9670  -33.5980 C   0  0  0  0  0  0  0  0  0  0  0  0
   -6.7470   21.3630  -31.3670 C   0  0  0  0  0  0  0  0  0  0  0  0
   -7.8065   18.7510  -30.5053 H   0  0  0  0  0  0  0  0  0  0  0  0
   -8.7019   18.6723  -32.0606 H   0  0  0  0  0  0  0  0  0  0  0  0
   -6.9079   18.7633  -32.0606 H   0  0  0  0  0  0  0  0  0  0  0  0
  -10.0097   20.6324  -32.0880 H   0  0  0  0  0  0  0  0  0  0  0  0
  -10.1202   23.1196  -32.2061 H   0  0  0  0  0  0  0  0  0  0  0  0
   -8.0790   24.4881  -31.7892 H   0  0  0  0  0  0  0  0  0  0  0  0
   -2.2013   21.9699  -32.2450 H   0  0  0  0  0  0  0  0  0  0  0  0
   -1.8385   21.6137  -30.5112 H   0  0  0  0  0  0  0  0  0  0  0  0
   -1.4894   19.5086  -31.3099 H   0  0  0  0  0  0  0  0  0  0  0  0
   -3.3005   19.4227  -31.1622 H   0  0  0  0  0  0  0  0  0  0  0  0
   -2.3139   20.5184  -33.7361 H   0  0  0  0  0  0  0  0  0  0  0  0
   -1.8911   18.7944  -33.4326 H   0  0  0  0  0  0  0  0  0  0  0  0
   -4.8801   21.1490  -33.8543 H   0  0  0  0  0  0  0  0  0  0  0  0
   -7.0838   19.7307  -34.4330 H   0  0  0  0  0  0  0  0  0  0  0  0
   -7.5540   16.8916  -34.4828 H   0  0  0  0  0  0  0  0  0  0  0  0
   -6.4213   14.6738  -34.1023 H   0  0  0  0  0  0  0  0  0  0  0  0
   -4.0158   14.5922  -33.4065 H   0  0  0  0  0  0  0  0  0  0  0  0
   -2.7191   16.7284  -33.0803 H   0  0  0  0  0  0  0  0  0  0  0  0
   -5.7912   20.8629  -31.1516 H   0  0  0  0  0  0  0  0  0  0  0  0
  1  2  1  0
  2  3  2  0
  3  4  1  0
  4  5  2  0
  5  6  1  0
  6  7  1  0
  7  8  2  0
  8  9  1  0
  9 10  1  0
 10 11  2  0
 11 12  1  0
 12 13  1  0
 13 14  1  0
 14 15  1  0
 15 16  1  0
 16 17  1  0
 17 18  2  0
 18 19  1  0
 19 20  2  0
 20 21  1  0
 21 22  2  0
 22 23  1  0
 23 24  2  0
  6 25  2  0
 25  2  1  0
 11  7  1  0
 24 16  1  0
 24 19  1  0
  1 26  1  0
  1 27  1  0
  1 28  1  0
  3 29  1  0
  4 30  1  0
  5 31  1  0
 13 32  1  0
 13 33  1  0
 14 34  1  0
 14 35  1  0
 15 36  1  0
 15 37  1  0
 17 38  1  0
 18 39  1  0
 20 40  1  0
 21 41  1  0
 22 42  1  0
 23 43  1  0
 25 44  1  0
M  END
>  <UniqueID>  (18) 
16

>  <SMILES>  (18) 
Cc1cccc(-c2nonc2OCCCn2ccc3ccccc32)c1

>  <Energy>  (18) 
113.3127171676978

>  <Genealogy>  (18) 
Cc1cccc(-c2nonc2OCCCn2ccc3ccccc32)c1 (3D coordinates assigned)
Cc1cccc(-c2nonc2OCCCn2ccc3ccccc32)c1 (optimized conformer: 113.3127171676978 kcal/mol)

>  <smiles>  (18) 
Cc1cccc(-c2nonc2OCCCn2ccc3ccccc32)c1

>  <score_type>  (18) 
oracle

>  <origin>  (18) 
adgpu

>  <m_score__min__energy>  (18) 
-9.4600000000000009

>  <m_primary>  (18) 
energy

$$$$
18:0
     RDKit          3D

 13 13  0  0  0  0  0  0  0  0999 V2000
   -2.1480   21.5380  -31.2280 C   0  0  0  0  0  0  0  0  0  0  0  0
   -2.3180   22.8640  -30.5560 C   0  0  0  0  0  0  0  0  0  0  0  0
   -1.3260   23.3580  -29.7030 C   0  0  0  0  0  0  0  0  0  0  0  0
   -1.5270   24.6000  -29.0980 C   0  0  0  0  0  0  0  0  0  0  0  0
   -0.6550   25.0760  -28.3240 O   0  0  0  0  0  0  0  0  0  0  0  0
   -2.6650   25.2980  -29.3440 N   0  0  0  0  0  0  0  0  0  0  0  0
   -3.6190   24.8040  -30.1760 C   0  0  0  0  0  0  0  0  0  0  0  0
   -4.9790   25.6610  -30.4560 S   0  0  0  0  0  0  0  0  0  0  0  0
   -3.4420   23.5970  -30.7750 N   0  0  0  0  0  0  0  0  0  0  0  0
   -2.0471   20.7511  -30.4661 H   0  0  0  0  0  0  0  0  0  0  0  0
   -3.0268   21.3298  -31.8560 H   0  0  0  0  0  0  0  0  0  0  0  0
   -1.2451   21.5583  -31.8560 H   0  0  0  0  0  0  0  0  0  0  0  0
   -0.4087   22.7814  -29.5132 H   0  0  0  0  0  0  0  0  0  0  0  0
  1  2  1  0
  2  3  2  0
  3  4  1  0
  4  5  2  0
  4  6  1  0
  6  7  1  0
  7  8  2  0
  7  9  1  0
  9  2  1  0
  1 10  1  0
  1 11  1  0
  1 12  1  0
  3 13  1  0
M  CHG  2   6  -1   9  -1
M  END
>  <UniqueID>  (19) 
17

>  <SMILES>  (19) 
Cc1cc(=O)[n-]c(=S)[n-]1

>  <Energy>  (19) 
11.163131041350152

>  <Genealogy>  (19) 
Cc1cc(=O)[n-]c(=S)[n-]1 (protonated)
Cc1cc(=O)[n-]c(=S)[n-]1 (3D coordinates assigned)
Cc1cc(=O)[n-]c(=S)[n-]1 (optimized conformer: 11.163131041350152 kcal/mol)

>  <smiles>  (19) 
Cc1cc(=O)[nH]c(=S)[nH]1

>  <score_type>  (19) 
oracle

>  <origin>  (19) 
adgpu

>  <m_score__min__energy>  (19) 
-6.3799999999999999

>  <m_primary>  (19) 
energy

$$$$
19:0
     RDKit          3D

 30 31  0  0  0  0  0  0  0  0999 V2000
   -7.9220   20.1150  -33.4850 N   0  0  0  0  0  0  0  0  0  0  0  0
   -8.3600   20.9990  -32.0660 S   0  0  0  0  0  0  0  0  0  0  0  0
   -8.6560   20.0390  -30.9490 O   0  0  0  0  0  0  0  0  0  0  0  0
   -9.5950   21.8110  -32.3440 O   0  0  0  0  0  0  0  0  0  0  0  0
   -7.0380   22.0650  -31.6020 C   0  0  0  0  0  0  0  0  0  0  0  0
   -7.2630   23.1220  -30.7100 C   0  0  0  0  0  0  0  0  0  0  0  0
   -6.2150   23.9750  -30.3510 C   0  0  0  0  0  0  0  0  0  0  0  0
   -4.9310   23.7750  -30.8710 C   0  0  0  0  0  0  0  0  0  0  0  0
   -3.8810   24.6780  -30.4900 N   0  0  0  0  0  0  0  0  0  0  0  0
   -2.7660   24.3700  -29.6440 C   0  0  0  0  0  0  0  0  0  0  0  0
   -1.9860   25.3020  -29.3110 O   0  0  0  0  0  0  0  0  0  0  0  0
   -2.5360   23.0070  -29.1090 C   0  0  0  0  0  0  0  0  0  0  0  0
   -1.5370   22.1890  -29.6650 C   0  0  0  0  0  0  0  0  0  0  0  0
   -1.3130   20.9030  -29.1620 C   0  0  0  0  0  0  0  0  0  0  0  0
   -2.0780   20.4250  -28.0950 C   0  0  0  0  0  0  0  0  0  0  0  0
   -1.8590   19.1780  -27.6090 F   0  0  0  0  0  0  0  0  0  0  0  0
   -3.0620   21.2350  -27.5240 C   0  0  0  0  0  0  0  0  0  0  0  0
   -3.2890   22.5210  -28.0220 C   0  0  0  0  0  0  0  0  0  0  0  0
   -4.7130   22.7340  -31.7890 C   0  0  0  0  0  0  0  0  0  0  0  0
   -5.7610   21.8810  -32.1490 C   0  0  0  0  0  0  0  0  0  0  0  0
   -8.7540   20.1200  -34.1170 H   0  0  0  0  0  0  0  0  0  0  0  0
   -7.7710   19.1240  -33.1930 H   0  0  0  0  0  0  0  0  0  0  0  0
   -8.2675   23.2812  -30.2908 H   0  0  0  0  0  0  0  0  0  0  0  0
   -6.4005   24.8075  -29.6564 H   0  0  0  0  0  0  0  0  0  0  0  0
   -0.9275   22.5626  -30.5010 H   0  0  0  0  0  0  0  0  0  0  0  0
   -0.5335   20.2672  -29.6071 H   0  0  0  0  0  0  0  0  0  0  0  0
   -3.6598   20.8599  -26.6803 H   0  0  0  0  0  0  0  0  0  0  0  0
   -4.0599   23.1572  -27.5627 H   0  0  0  0  0  0  0  0  0  0  0  0
   -3.7141   22.5894  -32.2263 H   0  0  0  0  0  0  0  0  0  0  0  0
   -5.5826   21.0637  -32.8632 H   0  0  0  0  0  0  0  0  0  0  0  0
  1  2  1  0
  2  3  2  0
  2  4  2  0
  2  5  1  0
  5  6  2  0
  6  7  1  0
  7  8  2  0
  8  9  1  0
  9 10  1  0
 10 11  2  0
 10 12  1  0
 12 13  2  0
 13 14  1  0
 14 15  2  0
 15 16  1  0
 15 17  1  0
 17 18  2  0
  8 19  1  0
 19 20  2  0
 20  5  1  0
 18 12  1  0
  1 21  1  0
  1 22  1  0
  6 23  1  0
  7 24  1  0
 13 25  1  0
 14 26  1  0
 17 27  1  0
 18 28  1  0
 19 29  1  0
 20 30  1  0
M  CHG  1   9  -1
M  END
>  <UniqueID>  (20) 
18

>  <SMILES>  (20) 
NS(=O)(=O)c1ccc([N-]C(=O)c2ccc(F)cc2)cc1

>  <Energy>  (20) 
36.17568112708229

>  <Genealogy>  (20) 
NS(=O)(=O)c1ccc([N-]C(=O)c2ccc(F)cc2)cc1 (protonated)
NS(=O)(=O)c1ccc([N-]C(=O)c2ccc(F)cc2)cc1 (3D coordinates assigned)
NS(=O)(=O)c1ccc([N-]C(=O)c2ccc(F)cc2)cc1 (optimized conformer: 36.17568112708229 kcal/mol)

>  <smiles>  (20) 
NS(=O)(=O)c1ccc(NC(=O)c2ccc(F)cc2)cc1

>  <score_type>  (20) 
oracle

>  <origin>  (20) 
adgpu

>  <m_score__min__energy>  (20) 
-8.9000000000000004

>  <m_primary>  (20) 
energy

$$$$
20:0
     RDKit          3D

 19 20  0  0  0  0  0  0  0  0999 V2000
   -3.7980   25.1290  -30.1900 N   0  0  0  0  0  0  0  0  0  0  0  0
   -4.5640   24.0530  -30.7500 C   0  0  0  0  0  0  0  0  0  0  0  0
   -3.8970   23.0430  -31.4500 C   0  0  0  0  0  0  0  0  0  0  0  0
   -4.5960   21.9790  -32.0110 C   0  0  0  0  0  0  0  0  0  0  0  0
   -5.9930   21.8970  -31.8830 C   0  0  0  0  0  0  0  0  0  0  0  0
   -6.7260   20.8280  -32.4440 C   0  0  0  0  0  0  0  0  0  0  0  0
   -5.9000   19.3980  -33.4200 Br  0  0  0  0  0  0  0  0  0  0  0  0
   -8.0760   20.7850  -32.2990 N   0  0  0  0  0  0  0  0  0  0  0  0
   -8.7620   21.7430  -31.6280 C   0  0  0  0  0  0  0  0  0  0  0  0
   -8.0870   22.8190  -31.0560 C   0  0  0  0  0  0  0  0  0  0  0  0
   -6.6880   22.9140  -31.1760 C   0  0  0  0  0  0  0  0  0  0  0  0
   -5.9670   23.9950  -30.6070 C   0  0  0  0  0  0  0  0  0  0  0  0
   -6.8100   25.2750  -29.7200 Cl  0  0  0  0  0  0  0  0  0  0  0  0
   -3.1050   25.6720  -30.7490 H   0  0  0  0  0  0  0  0  0  0  0  0
   -3.9180   25.3990  -29.1880 H   0  0  0  0  0  0  0  0  0  0  0  0
   -2.8034   23.0904  -31.5587 H   0  0  0  0  0  0  0  0  0  0  0  0
   -4.0511   21.1961  -32.5588 H   0  0  0  0  0  0  0  0  0  0  0  0
   -9.8556   21.6702  -31.5350 H   0  0  0  0  0  0  0  0  0  0  0  0
   -8.6468   23.5935  -30.5112 H   0  0  0  0  0  0  0  0  0  0  0  0
  1  2  1  0
  2  3  2  0
  3  4  1  0
  4  5  2  0
  5  6  1  0
  6  7  1  0
  6  8  2  0
  8  9  1  0
  9 10  2  0
 10 11  1  0
 11 12  2  0
 12 13  1  0
 12  2  1  0
 11  5  1  0
  1 14  1  0
  1 15  1  0
  3 16  1  0
  4 17  1  0
  9 18  1  0
 10 19  1  0
M  END
>  <UniqueID>  (21) 
19

>  <SMILES>  (21) 
Nc1ccc2c(Br)nccc2c1Cl

>  <Energy>  (21) 
28.41801925879567

>  <Genealogy>  (21) 
Nc1ccc2c(Br)nccc2c1Cl (3D coordinates assigned)
Nc1ccc2c(Br)nccc2c1Cl (optimized conformer: 28.41801925879567 kcal/mol)

>  <smiles>  (21) 
Nc1ccc2c(Br)nccc2c1Cl

>  <score_type>  (21) 
oracle

>  <origin>  (21) 
adgpu

>  <m_score__min__energy>  (21) 
-7.1600000000000001

>  <m_primary>  (21) 
energy

$$$$
21:0
     RDKit          3D

 38 40  0  0  0  0  0  0  0  0999 V2000
   -8.0185   23.2957  -33.3717 H   0  0  0  0  0  0  0  0  0  0  0  0
   -7.5950   23.3270  -32.3570 C   0  0  0  0  0  0  0  0  0  0  0  0
   -6.5090   24.1630  -32.0790 C   0  0  0  0  0  0  0  0  0  0  0  0
   -6.0765   24.7827  -32.8783 H   0  0  0  0  0  0  0  0  0  0  0  0
   -5.9680   24.2150  -30.7840 C   0  0  0  0  0  0  0  0  0  0  0  0
   -4.7710   25.0770  -30.4920 C   0  0  0  0  0  0  0  0  0  0  0  0
   -4.9291   25.6107  -29.5432 H   0  0  0  0  0  0  0  0  0  0  0  0
   -4.6391   25.8010  -31.3095 H   0  0  0  0  0  0  0  0  0  0  0  0
   -3.5710   24.2470  -30.3870 N   0  0  0  0  0  0  0  0  0  0  0  0
   -2.4580   24.5070  -29.6770 C   0  0  0  0  0  0  0  0  0  0  0  0
   -2.2340   25.6750  -28.9580 O   0  0  0  0  0  0  0  0  0  0  0  0
   -1.5880   23.4450  -29.7740 C   0  0  0  0  0  0  0  0  0  0  0  0
   -0.5949   23.3788  -29.3057 H   0  0  0  0  0  0  0  0  0  0  0  0
   -2.1650   22.5000  -30.5430 N   0  0  0  0  0  0  0  0  0  0  0  0
   -1.7320   21.5940  -30.8290 H   0  0  0  0  0  0  0  0  0  0  0  0
   -3.3720   23.0080  -30.8870 C   0  0  0  0  0  0  0  0  0  0  0  0
   -4.2410   22.4050  -31.6480 N   0  0  0  0  0  0  0  0  0  0  0  0
   -4.1490   21.0620  -32.1440 C   0  0  0  0  0  0  0  0  0  0  0  0
   -5.1880   20.1380  -31.9520 C   0  0  0  0  0  0  0  0  0  0  0  0
   -6.0772   20.4268  -31.3725 H   0  0  0  0  0  0  0  0  0  0  0  0
   -5.0980   18.8520  -32.4940 C   0  0  0  0  0  0  0  0  0  0  0  0
   -5.9080   18.1276  -32.3233 H   0  0  0  0  0  0  0  0  0  0  0  0
   -3.9750   18.4810  -33.2570 C   0  0  0  0  0  0  0  0  0  0  0  0
   -3.8340   17.2030  -33.8190 O   0  0  0  0  0  0  0  0  0  0  0  0
   -4.9210   16.3920  -34.2520 C   0  0  0  0  0  0  0  0  0  0  0  0
   -5.4538   15.9945  -33.3756 H   0  0  0  0  0  0  0  0  0  0  0  0
   -5.6116   16.9973  -34.8575 H   0  0  0  0  0  0  0  0  0  0  0  0
   -4.5375   15.5576  -34.8575 H   0  0  0  0  0  0  0  0  0  0  0  0
   -2.9580   19.4180  -33.4740 C   0  0  0  0  0  0  0  0  0  0  0  0
   -2.0795   19.1404  -34.0749 H   0  0  0  0  0  0  0  0  0  0  0  0
   -3.0500   20.7040  -32.9330 C   0  0  0  0  0  0  0  0  0  0  0  0
   -2.2545   21.4381  -33.1285 H   0  0  0  0  0  0  0  0  0  0  0  0
   -6.5160   23.4040  -29.7770 C   0  0  0  0  0  0  0  0  0  0  0  0
   -6.0887   23.4254  -28.7636 H   0  0  0  0  0  0  0  0  0  0  0  0
   -7.6030   22.5690  -30.0570 C   0  0  0  0  0  0  0  0  0  0  0  0
   -8.0334   21.9419  -29.2623 H   0  0  0  0  0  0  0  0  0  0  0  0
   -8.1430   22.5310  -31.3470 C   0  0  0  0  0  0  0  0  0  0  0  0
   -9.5040   21.4810  -31.6980 Cl  0  0  0  0  0  0  0  0  0  0  0  0
  1  2  1  0
  2  3  2  0
  3  4  1  0
  3  5  1  0
  5  6  1  0
  6  7  1  0
  6  8  1  0
  6  9  1  0
  9 10  1  0
 10 11  1  0
 10 12  2  0
 12 13  1  0
 12 14  1  0
 14 15  1  0
 14 16  1  0
 16 17  2  0
 17 18  1  0
 18 19  2  0
 19 20  1  0
 19 21  1  0
 21 22  1  0
 21 23  2  0
 23 24  1  0
 24 25  1  0
 25 26  1  0
 25 27  1  0
 25 28  1  0
 23 29  1  0
 29 30  1  0
 29 31  2  0
 31 32  1  0
  5 33  2  0
 33 34  1  0
 33 35  1  0
 35 36  1  0
 35 37  2  0
 37 38  1  0
 37  2  1  0
 16  9  1  0
 31 18  1  0
M  CHG  1  11  -1
M  END
>  <UniqueID>  (22) 
20

>  <SMILES>  (22) 
COc1ccc(/N=c2\[nH]cc([O-])n2Cc2ccc(Cl)cc2)cc1

>  <Energy>  (22) 
77.87840392778573

>  <Genealogy>  (22) 
COc1ccc(N=c2[nH]cc([O-])n2Cc2ccc(Cl)cc2)cc1 (protonated)
COc1ccc(/N=c2\[nH]cc([O-])n2Cc2ccc(Cl)cc2)cc1 (cis-trans isomerization)
COc1ccc(/N=c2\[nH]cc([O-])n2Cc2ccc(Cl)cc2)cc1 (3D coordinates assigned)
COc1ccc(/N=c2\[nH]cc([O-])n2Cc2ccc(Cl)cc2)cc1 (optimized conformer: 77.87840392778573 kcal/mol)

>  <smiles>  (22) 
COc1ccc(N=c2[nH]cc(O)n2Cc2ccc(Cl)cc2)cc1

>  <score_type>  (22) 
oracle

>  <origin>  (22) 
adgpu

>  <m_score__min__energy>  (22) 
-9.8399999999999999

>  <m_primary>  (22) 
energy

$$$$
22:0
     RDKit          3D

 45 47  0  0  0  0  0  0  0  0999 V2000
   -3.2690   21.5780  -32.8730 C   0  0  0  0  0  0  0  0  0  0  0  0
   -4.1210   22.6510  -32.4820 O   0  0  0  0  0  0  0  0  0  0  0  0
   -5.4760   22.5080  -32.1350 C   0  0  0  0  0  0  0  0  0  0  0  0
   -6.2080   21.3490  -32.4620 C   0  0  0  0  0  0  0  0  0  0  0  0
   -7.5520   21.2360  -32.0990 C   0  0  0  0  0  0  0  0  0  0  0  0
   -8.1810   22.2700  -31.4070 C   0  0  0  0  0  0  0  0  0  0  0  0
   -7.4690   23.4230  -31.0760 C   0  0  0  0  0  0  0  0  0  0  0  0
   -6.1170   23.5550  -31.4370 C   0  0  0  0  0  0  0  0  0  0  0  0
   -5.3570   24.8020  -31.0450 C   0  0  0  0  0  0  0  0  0  0  0  0
   -3.9470   24.5180  -30.7330 N   0  0  0  0  0  0  0  0  0  0  0  0
   -3.7570   23.5670  -29.6150 C   0  0  0  0  0  0  0  0  0  0  0  0
   -4.3770   24.1740  -28.3250 C   0  0  0  0  0  0  0  0  0  0  0  0
   -3.4280   24.1380  -27.1280 C   0  0  0  0  0  0  0  0  0  0  0  0
   -2.1460   24.7430  -27.5110 N   0  0  0  0  0  0  0  0  0  0  0  0
   -1.5500   25.8150  -26.7520 C   0  0  0  0  0  0  0  0  0  0  0  0
   -1.7130   25.9020  -25.3590 C   0  0  0  0  0  0  0  0  0  0  0  0
   -1.1430   26.9720  -24.6660 C   0  0  0  0  0  0  0  0  0  0  0  0
   -0.4250   27.9480  -25.3580 C   0  0  0  0  0  0  0  0  0  0  0  0
   -0.2980   27.8460  -26.7430 C   0  0  0  0  0  0  0  0  0  0  0  0
   -0.8590   26.7960  -27.4000 N   0  0  0  0  0  0  0  0  0  0  0  0
   -1.4490   24.2510  -28.7070 C   0  0  0  0  0  0  0  0  0  0  0  0
   -2.2630   23.1750  -29.4430 C   0  0  0  0  0  0  0  0  0  0  0  0
   -2.8728   21.0790  -31.9763 H   0  0  0  0  0  0  0  0  0  0  0  0
   -3.8416   20.8548  -33.4723 H   0  0  0  0  0  0  0  0  0  0  0  0
   -2.4349   21.9718  -33.4723 H   0  0  0  0  0  0  0  0  0  0  0  0
   -5.7179   20.5284  -33.0064 H   0  0  0  0  0  0  0  0  0  0  0  0
   -8.1159   20.3283  -32.3599 H   0  0  0  0  0  0  0  0  0  0  0  0
   -9.2393   22.1766  -31.1219 H   0  0  0  0  0  0  0  0  0  0  0  0
   -7.9695   24.2351  -30.5283 H   0  0  0  0  0  0  0  0  0  0  0  0
   -5.3981   25.5187  -31.8784 H   0  0  0  0  0  0  0  0  0  0  0  0
   -5.8271   25.2137  -30.1398 H   0  0  0  0  0  0  0  0  0  0  0  0
   -3.4340   24.2160  -31.5940 H   0  0  0  0  0  0  0  0  0  0  0  0
   -4.2804   22.6256  -29.8381 H   0  0  0  0  0  0  0  0  0  0  0  0
   -4.6471   25.2212  -28.5260 H   0  0  0  0  0  0  0  0  0  0  0  0
   -5.2548   23.5641  -28.0653 H   0  0  0  0  0  0  0  0  0  0  0  0
   -3.8671   24.7037  -26.2930 H   0  0  0  0  0  0  0  0  0  0  0  0
   -3.2665   23.0959  -26.8152 H   0  0  0  0  0  0  0  0  0  0  0  0
   -2.2851   25.1333  -24.8187 H   0  0  0  0  0  0  0  0  0  0  0  0
   -1.2600   27.0454  -23.5747 H   0  0  0  0  0  0  0  0  0  0  0  0
    0.0355   28.7881  -24.8174 H   0  0  0  0  0  0  0  0  0  0  0  0
    0.2553   28.6140  -27.3033 H   0  0  0  0  0  0  0  0  0  0  0  0
   -1.2760   25.0955  -29.3904 H   0  0  0  0  0  0  0  0  0  0  0  0
   -0.4987   23.7994  -28.3860 H   0  0  0  0  0  0  0  0  0  0  0  0
   -1.8227   23.0205  -30.4391 H   0  0  0  0  0  0  0  0  0  0  0  0
   -2.2275   22.2582  -28.8362 H   0  0  0  0  0  0  0  0  0  0  0  0
  1  2  1  0
  2  3  1  0
  3  4  2  0
  4  5  1  0
  5  6  2  0
  6  7  1  0
  7  8  2  0
  8  9  1  0
  9 10  1  0
 10 11  1  0
 11 12  1  0
 12 13  1  0
 13 14  1  0
 14 15  1  0
 15 16  2  0
 16 17  1  0
 17 18  2  0
 18 19  1  0
 19 20  2  0
 14 21  1  0
 21 22  1  0
  8  3  1  0
 22 11  1  0
 20 15  1  0
  1 23  1  0
  1 24  1  0
  1 25  1  0
  4 26  1  0
  5 27  1  0
  6 28  1  0
  7 29  1  0
  9 30  1  0
  9 31  1  0
 10 32  1  0
 11 33  1  0
 12 34  1  0
 12 35  1  0
 13 36  1  0
 13 37  1  0
 16 38  1  0
 17 39  1  0
 18 40  1  0
 19 41  1  0
 21 42  1  0
 21 43  1  0
 22 44  1  0
 22 45  1  0
M  END
>  <UniqueID>  (23) 
21

>  <SMILES>  (23) 
COc1ccccc1CNC1CCN(c2ccccn2)CC1

>  <Energy>  (23) 
54.82393682923828

>  <Genealogy>  (23) 
COc1ccccc1CNC1CCN(c2ccccn2)CC1 (3D coordinates assigned)
COc1ccccc1CNC1CCN(c2ccccn2)CC1 (nonaromatic ring conformer: 54.82393682923828 kcal/mol)

>  <smiles>  (23) 
COc1ccccc1CNC1CCN(c2ccccn2)CC1

>  <score_type>  (23) 
oracle

>  <origin>  (23) 
adgpu

>  <m_score__min__energy>  (23) 
-7.9699999999999998

>  <m_primary>  (23) 
energy

$$$$
23:0
     RDKit          3D

 27 29  0  0  0  0  0  0  0  0999 V2000
   -1.2490   21.9210  -30.4240 Cl  0  0  0  0  0  0  0  0  0  0  0  0
   -1.1450   23.2310  -29.2510 C   0  0  0  0  0  0  0  0  0  0  0  0
    0.0080   23.2860  -28.4560 C   0  0  0  0  0  0  0  0  0  0  0  0
    0.1650   24.2930  -27.5040 C   0  0  0  0  0  0  0  0  0  0  0  0
   -0.8300   25.2550  -27.3360 C   0  0  0  0  0  0  0  0  0  0  0  0
   -1.9850   25.2130  -28.1200 C   0  0  0  0  0  0  0  0  0  0  0  0
   -2.1630   24.2040  -29.0880 C   0  0  0  0  0  0  0  0  0  0  0  0
   -3.4080   24.2030  -29.8980 C   0  0  0  0  0  0  0  0  0  0  0  0
   -4.2190   23.1320  -30.0270 N   0  0  0  0  0  0  0  0  0  0  0  0
   -5.1860   23.6140  -30.8360 C   0  0  0  0  0  0  0  0  0  0  0  0
   -6.3450   22.8200  -31.2960 C   0  0  0  0  0  0  0  0  0  0  0  0
   -7.6180   23.4110  -31.4000 C   0  0  0  0  0  0  0  0  0  0  0  0
   -8.7140   22.6590  -31.8340 C   0  0  0  0  0  0  0  0  0  0  0  0
   -8.5500   21.3120  -32.1700 C   0  0  0  0  0  0  0  0  0  0  0  0
   -7.2920   20.7160  -32.0710 C   0  0  0  0  0  0  0  0  0  0  0  0
   -6.1920   21.4630  -31.6360 C   0  0  0  0  0  0  0  0  0  0  0  0
   -4.9720   24.8990  -31.1770 N   0  0  0  0  0  0  0  0  0  0  0  0
   -3.8670   25.2240  -30.5780 O   0  0  0  0  0  0  0  0  0  0  0  0
    0.7955   22.5287  -28.5840 H   0  0  0  0  0  0  0  0  0  0  0  0
    1.0740   24.3282  -26.8856 H   0  0  0  0  0  0  0  0  0  0  0  0
   -0.7051   26.0486  -26.5846 H   0  0  0  0  0  0  0  0  0  0  0  0
   -2.7648   25.9762  -27.9805 H   0  0  0  0  0  0  0  0  0  0  0  0
   -7.7516   24.4710  -31.1383 H   0  0  0  0  0  0  0  0  0  0  0  0
   -9.7061   23.1277  -31.9111 H   0  0  0  0  0  0  0  0  0  0  0  0
   -9.4127   20.7217  -32.5125 H   0  0  0  0  0  0  0  0  0  0  0  0
   -7.1650   19.6559  -32.3357 H   0  0  0  0  0  0  0  0  0  0  0  0
   -5.2030   20.9875  -31.5594 H   0  0  0  0  0  0  0  0  0  0  0  0
  1  2  1  0
  2  3  2  0
  3  4  1  0
  4  5  2  0
  5  6  1  0
  6  7  2  0
  7  8  1  0
  8  9  2  0
  9 10  1  0
 10 11  1  0
 11 12  2  0
 12 13  1  0
 13 14  2  0
 14 15  1  0
 15 16  2  0
 10 17  2  0
 17 18  1  0
  7  2  1  0
 18  8  1  0
 16 11  1  0
  3 19  1  0
  4 20  1  0
  5 21  1  0
  6 22  1  0
 12 23  1  0
 13 24  1  0
 14 25  1  0
 15 26  1  0
 16 27  1  0
M  END
>  <UniqueID>  (24) 
22

>  <SMILES>  (24) 
Clc1ccccc1-c1nc(-c2ccccc2)no1

>  <Energy>  (24) 
66.57793344238894

>  <Genealogy>  (24) 
Clc1ccccc1-c1nc(-c2ccccc2)no1 (3D coordinates assigned)
Clc1ccccc1-c1nc(-c2ccccc2)no1 (optimized conformer: 66.57793344238894 kcal/mol)

>  <smiles>  (24) 
Clc1ccccc1-c1nc(-c2ccccc2)no1

>  <score_type>  (24) 
oracle

>  <origin>  (24) 
adgpu

>  <m_score__min__energy>  (24) 
-8.0500000000000007

>  <m_primary>  (24) 
energy

$$$$
24:0
     RDKit          3D

 28 29  0  0  0  0  0  0  0  0999 V2000
   -0.3100   25.0100  -27.6250 C   0  0  0  0  0  0  0  0  0  0  0  0
   -1.5620   24.5190  -28.2790 C   0  0  0  0  0  0  0  0  0  0  0  0
   -2.0860   23.2650  -27.9510 C   0  0  0  0  0  0  0  0  0  0  0  0
   -3.2510   22.8180  -28.5830 C   0  0  0  0  0  0  0  0  0  0  0  0
   -3.7280   21.6930  -28.2720 O   0  0  0  0  0  0  0  0  0  0  0  0
   -3.8870   23.6290  -29.5430 C   0  0  0  0  0  0  0  0  0  0  0  0
   -5.1220   23.1690  -30.2180 C   0  0  0  0  0  0  0  0  0  0  0  0
   -6.0070   24.0150  -30.5200 O   0  0  0  0  0  0  0  0  0  0  0  0
   -5.3160   21.7740  -30.5160 N   0  0  0  0  0  0  0  0  0  0  0  0
   -6.4570   21.2530  -31.2200 C   0  0  0  0  0  0  0  0  0  0  0  0
   -6.3210   20.2670  -32.2140 C   0  0  0  0  0  0  0  0  0  0  0  0
   -7.4510   19.7590  -32.8620 C   0  0  0  0  0  0  0  0  0  0  0  0
   -8.7250   20.2190  -32.5150 C   0  0  0  0  0  0  0  0  0  0  0  0
   -9.8190   19.7240  -33.1450 F   0  0  0  0  0  0  0  0  0  0  0  0
   -8.8700   21.1800  -31.5120 C   0  0  0  0  0  0  0  0  0  0  0  0
   -7.7430   21.6890  -30.8610 C   0  0  0  0  0  0  0  0  0  0  0  0
   -3.3050   24.8720  -29.8610 C   0  0  0  0  0  0  0  0  0  0  0  0
   -3.8550   25.6870  -30.8440 O   0  0  0  0  0  0  0  0  0  0  0  0
   -2.1750   25.2790  -29.2260 N   0  0  0  0  0  0  0  0  0  0  0  0
   -0.4253   24.9648  -26.5320 H   0  0  0  0  0  0  0  0  0  0  0  0
    0.5360   24.3770  -27.9310 H   0  0  0  0  0  0  0  0  0  0  0  0
   -0.1198   26.0493  -27.9310 H   0  0  0  0  0  0  0  0  0  0  0  0
   -1.5857   22.6344  -27.2013 H   0  0  0  0  0  0  0  0  0  0  0  0
   -4.6170   21.0860  -30.1590 H   0  0  0  0  0  0  0  0  0  0  0  0
   -5.3216   19.8941  -32.4826 H   0  0  0  0  0  0  0  0  0  0  0  0
   -7.3376   18.9960  -33.6462 H   0  0  0  0  0  0  0  0  0  0  0  0
   -9.8727   21.5368  -31.2340 H   0  0  0  0  0  0  0  0  0  0  0  0
   -7.8638   22.4358  -30.0624 H   0  0  0  0  0  0  0  0  0  0  0  0
  1  2  1  0
  2  3  2  0
  3  4  1  0
  4  5  2  0
  4  6  1  0
  6  7  1  0
  7  8  2  0
  7  9  1  0
  9 10  1  0
 10 11  2  0
 11 12  1  0
 12 13  2  0
 13 14  1  0
 13 15  1  0
 15 16  2  0
  6 17  2  0
 17 18  1  0
 17 19  1  0
 19  2  1  0
 16 10  1  0
  1 20  1  0
  1 21  1  0
  1 22  1  0
  3 23  1  0
  9 24  1  0
 11 25  1  0
 12 26  1  0
 15 27  1  0
 16 28  1  0
M  CHG  2  18  -1  19  -1
M  END
>  <UniqueID>  (25) 
23

>  <SMILES>  (25) 
Cc1cc(=O)c(C(=O)Nc2ccc(F)cc2)c([O-])[n-]1

>  <Energy>  (25) 
38.63437950981257

>  <Genealogy>  (25) 
Cc1cc(=O)c(C(=O)Nc2ccc(F)cc2)c([O-])[n-]1 (protonated)
Cc1cc(=O)c(C(=O)Nc2ccc(F)cc2)c([O-])[n-]1 (3D coordinates assigned)
Cc1cc(=O)c(C(=O)Nc2ccc(F)cc2)c([O-])[n-]1 (optimized conformer: 38.63437950981257 kcal/mol)

>  <smiles>  (25) 
Cc1cc(=O)c(C(=O)Nc2ccc(F)cc2)c(O)[nH]1

>  <score_type>  (25) 
oracle

>  <origin>  (25) 
adgpu

>  <m_score__min__energy>  (25) 
-11.32

>  <m_primary>  (25) 
energy

$$$$
25:0
     RDKit          3D

 45 48  0  0  0  0  0  0  0  0999 V2000
   -3.9471   13.6804  -35.1192 H   0  0  0  0  0  0  0  0  0  0  0  0
   -4.1950   14.6390  -34.6400 C   0  0  0  0  0  0  0  0  0  0  0  0
   -4.8240   14.6540  -33.3930 C   0  0  0  0  0  0  0  0  0  0  0  0
   -5.0769   13.7068  -32.8942 H   0  0  0  0  0  0  0  0  0  0  0  0
   -5.1330   15.8720  -32.7770 C   0  0  0  0  0  0  0  0  0  0  0  0
   -5.6375   15.8796  -31.7995 H   0  0  0  0  0  0  0  0  0  0  0  0
   -4.8010   17.0850  -33.4030 C   0  0  0  0  0  0  0  0  0  0  0  0
   -5.1660   18.3670  -32.7650 C   0  0  0  0  0  0  0  0  0  0  0  0
   -4.1730   19.2580  -32.5200 N   0  0  0  0  0  0  0  0  0  0  0  0
   -4.3850   20.4220  -31.9100 N   0  0  0  0  0  0  0  0  0  0  0  0
   -3.5660   21.0580  -31.8010 H   0  0  0  0  0  0  0  0  0  0  0  0
   -5.6300   20.7880  -31.4790 C   0  0  0  0  0  0  0  0  0  0  0  0
   -5.8330   21.9280  -30.8710 N   0  0  0  0  0  0  0  0  0  0  0  0
   -4.8450   22.8700  -30.4280 C   0  0  0  0  0  0  0  0  0  0  0  0
   -3.7100   22.4530  -29.7140 C   0  0  0  0  0  0  0  0  0  0  0  0
   -3.5431   21.3820  -29.5265 H   0  0  0  0  0  0  0  0  0  0  0  0
   -2.7920   23.3940  -29.2410 C   0  0  0  0  0  0  0  0  0  0  0  0
   -1.8971   23.0570  -28.6973 H   0  0  0  0  0  0  0  0  0  0  0  0
   -3.0010   24.7630  -29.4530 C   0  0  0  0  0  0  0  0  0  0  0  0
   -2.0430   25.6630  -28.9560 O   0  0  0  0  0  0  0  0  0  0  0  0
   -1.3570   25.5420  -27.7090 C   0  0  0  0  0  0  0  0  0  0  0  0
   -0.7856   26.4629  -27.5206 H   0  0  0  0  0  0  0  0  0  0  0  0
   -0.6804   24.6762  -27.7606 H   0  0  0  0  0  0  0  0  0  0  0  0
   -2.3450   25.3240  -26.5680 C   0  0  0  0  0  0  0  0  0  0  0  0
   -1.8248   25.4388  -25.6056 H   0  0  0  0  0  0  0  0  0  0  0  0
   -3.1549   26.0650  -26.6377 H   0  0  0  0  0  0  0  0  0  0  0  0
   -2.7679   24.3109  -26.6377 H   0  0  0  0  0  0  0  0  0  0  0  0
   -4.1600   25.1810  -30.1340 C   0  0  0  0  0  0  0  0  0  0  0  0
   -4.3441   26.2535  -30.2950 H   0  0  0  0  0  0  0  0  0  0  0  0
   -5.0790   24.2370  -30.6070 C   0  0  0  0  0  0  0  0  0  0  0  0
   -5.9909   24.5726  -31.1227 H   0  0  0  0  0  0  0  0  0  0  0  0
   -6.7220   19.9340  -31.7430 C   0  0  0  0  0  0  0  0  0  0  0  0
   -8.0370   20.2800  -31.3660 C   0  0  0  0  0  0  0  0  0  0  0  0
   -8.2218   21.2262  -30.8363 H   0  0  0  0  0  0  0  0  0  0  0  0
   -9.1050   19.4310  -31.6600 C   0  0  0  0  0  0  0  0  0  0  0  0
  -10.1254   19.7079  -31.3567 H   0  0  0  0  0  0  0  0  0  0  0  0
   -8.8820   18.2330  -32.3370 C   0  0  0  0  0  0  0  0  0  0  0  0
   -9.7280   17.5714  -32.5746 H   0  0  0  0  0  0  0  0  0  0  0  0
   -7.5880   17.8710  -32.7140 C   0  0  0  0  0  0  0  0  0  0  0  0
   -7.4224   16.9286  -33.2566 H   0  0  0  0  0  0  0  0  0  0  0  0
   -6.4900   18.7020  -32.4060 C   0  0  0  0  0  0  0  0  0  0  0  0
   -4.1880   17.0620  -34.6680 C   0  0  0  0  0  0  0  0  0  0  0  0
   -3.9497   18.0068  -35.1784 H   0  0  0  0  0  0  0  0  0  0  0  0
   -3.8800   15.8430  -35.2800 C   0  0  0  0  0  0  0  0  0  0  0  0
   -3.3900   15.8305  -36.2647 H   0  0  0  0  0  0  0  0  0  0  0  0
  1  2  1  0
  2  3  2  0
  3  4  1  0
  3  5  1  0
  5  6  1  0
  5  7  2  0
  7  8  1  0
  8  9  2  0
  9 10  1  0
 10 11  1  0
 10 12  1  0
 12 13  2  0
 13 14  1  0
 14 15  2  0
 15 16  1  0
 15 17  1  0
 17 18  1  0
 17 19  2  0
 19 20  1  0
 20 21  1  0
 21 22  1  0
 21 23  1  0
 21 24  1  0
 24 25  1  0
 24 26  1  0
 24 27  1  0
 19 28  1  0
 28 29  1  0
 28 30  2  0
 30 31  1  0
 12 32  1  0
 32 33  2  0
 33 34  1  0
 33 35  1  0
 35 36  1  0
 35 37  2  0
 37 38  1  0
 37 39  1  0
 39 40  1  0
 39 41  2  0
  7 42  1  0
 42 43  1  0
 42 44  2  0
 44 45  1  0
 44  2  1  0
 41  8  1  0
 30 14  1  0
 41 32  1  0
M  END
>  <UniqueID>  (26) 
24

>  <SMILES>  (26) 
CCOc1ccc(/N=c2\[nH]nc(-c3ccccc3)c3ccccc23)cc1

>  <Energy>  (26) 
70.44820757244656

>  <Genealogy>  (26) 
CCOc1ccc(/N=c2\[nH]nc(-c3ccccc3)c3ccccc23)cc1 (cis-trans isomerization)
CCOc1ccc(/N=c2\[nH]nc(-c3ccccc3)c3ccccc23)cc1 (3D coordinates assigned)
CCOc1ccc(/N=c2\[nH]nc(-c3ccccc3)c3ccccc23)cc1 (optimized conformer: 70.44820757244656 kcal/mol)

>  <smiles>  (26) 
CCOc1ccc(N=c2[nH]nc(-c3ccccc3)c3ccccc23)cc1

>  <score_type>  (26) 
oracle

>  <origin>  (26) 
adgpu

>  <m_score__min__energy>  (26) 
-8.1600000000000001

>  <m_primary>  (26) 
energy

$$$$
26:0
     RDKit          3D

 18 19  0  0  0  0  0  0  0  0999 V2000
   -2.1680   24.9190  -27.2440 C   0  0  0  0  0  0  0  0  0  0  0  0
   -1.5550   25.2730  -28.9190 S   0  0  0  0  0  0  0  0  0  0  0  0
   -2.9860   24.5540  -29.7160 C   0  0  0  0  0  0  0  0  0  0  0  0
   -3.2620   23.2250  -29.6630 N   0  0  0  0  0  0  0  0  0  0  0  0
   -4.3940   23.1400  -30.3750 C   0  0  0  0  0  0  0  0  0  0  0  0
   -5.1410   21.9970  -30.6560 C   0  0  0  0  0  0  0  0  0  0  0  0
   -6.3060   22.1530  -31.4310 C   0  0  0  0  0  0  0  0  0  0  0  0
   -6.6870   23.4320  -31.9000 C   0  0  0  0  0  0  0  0  0  0  0  0
   -5.9070   24.5630  -31.5960 C   0  0  0  0  0  0  0  0  0  0  0  0
   -4.7610   24.3700  -30.8260 C   0  0  0  0  0  0  0  0  0  0  0  0
   -3.8800   25.2950  -30.4210 N   0  0  0  0  0  0  0  0  0  0  0  0
   -1.4643   25.3254  -26.5025 H   0  0  0  0  0  0  0  0  0  0  0  0
   -3.1544   25.3865  -27.1081 H   0  0  0  0  0  0  0  0  0  0  0  0
   -2.2561   23.8310  -27.1081 H   0  0  0  0  0  0  0  0  0  0  0  0
   -4.8313   21.0087  -30.2855 H   0  0  0  0  0  0  0  0  0  0  0  0
   -6.9234   21.2754  -31.6732 H   0  0  0  0  0  0  0  0  0  0  0  0
   -7.5983   23.5431  -32.5059 H   0  0  0  0  0  0  0  0  0  0  0  0
   -6.1914   25.5638  -31.9532 H   0  0  0  0  0  0  0  0  0  0  0  0
  1  2  1  0
  2  3  1  0
  3  4  2  0
  4  5  1  0
  5  6  2  0
  6  7  1  0
  7  8  2  0
  8  9  1  0
  9 10  2  0
 10 11  1  0
 11  3  1  0
 10  5  1  0
  1 12  1  0
  1 13  1  0
  1 14  1  0
  6 15  1  0
  7 16  1  0
  8 17  1  0
  9 18  1  0
M  CHG  1  11  -1
M  END
>  <UniqueID>  (27) 
25

>  <SMILES>  (27) 
CSc1nc2ccccc2[n-]1

>  <Energy>  (27) 
49.14033265662388

>  <Genealogy>  (27) 
CSc1nc2ccccc2[n-]1 (protonated)
CSc1nc2ccccc2[n-]1 (3D coordinates assigned)
CSc1nc2ccccc2[n-]1 (optimized conformer: 49.14033265662388 kcal/mol)

>  <smiles>  (27) 
CSc1nc2ccccc2[nH]1

>  <score_type>  (27) 
oracle

>  <origin>  (27) 
adgpu

>  <m_score__min__energy>  (27) 
-5.9000000000000004

>  <m_primary>  (27) 
energy

$$$$
27:0
     RDKit          3D

 24 25  0  0  0  0  0  0  0  0999 V2000
   -3.8310   25.2990  -30.6740 O   0  0  0  0  0  0  0  0  0  0  0  0
   -3.9400   24.0700  -30.4230 C   0  0  0  0  0  0  0  0  0  0  0  0
   -2.9180   23.4370  -29.6390 N   0  0  0  0  0  0  0  0  0  0  0  0
   -1.9620   24.0990  -28.7990 C   0  0  0  0  0  0  0  0  0  0  0  0
   -2.4180   24.9080  -27.7530 C   0  0  0  0  0  0  0  0  0  0  0  0
   -1.5040   25.5750  -26.9350 C   0  0  0  0  0  0  0  0  0  0  0  0
   -0.1370   25.4390  -27.1840 C   0  0  0  0  0  0  0  0  0  0  0  0
    0.2930   24.6730  -28.2200 N   0  0  0  0  0  0  0  0  0  0  0  0
   -0.5780   24.0090  -29.0290 C   0  0  0  0  0  0  0  0  0  0  0  0
   -5.1530   23.3390  -30.8610 C   0  0  0  0  0  0  0  0  0  0  0  0
   -5.0100   22.1470  -31.5940 C   0  0  0  0  0  0  0  0  0  0  0  0
   -6.1330   21.4310  -32.0130 C   0  0  0  0  0  0  0  0  0  0  0  0
   -7.4130   21.8930  -31.7030 C   0  0  0  0  0  0  0  0  0  0  0  0
   -8.8230   20.9920  -32.2330 Cl  0  0  0  0  0  0  0  0  0  0  0  0
   -7.5710   23.0740  -30.9740 C   0  0  0  0  0  0  0  0  0  0  0  0
   -6.4530   23.8000  -30.5490 C   0  0  0  0  0  0  0  0  0  0  0  0
   -6.7260   25.3100  -29.6850 Cl  0  0  0  0  0  0  0  0  0  0  0  0
   -3.4978   25.0188  -27.5747 H   0  0  0  0  0  0  0  0  0  0  0  0
   -1.8574   26.2014  -26.1027 H   0  0  0  0  0  0  0  0  0  0  0  0
    0.5925   25.9527  -26.5406 H   0  0  0  0  0  0  0  0  0  0  0  0
   -0.1983   23.4014  -29.8636 H   0  0  0  0  0  0  0  0  0  0  0  0
   -4.0041   21.7755  -31.8394 H   0  0  0  0  0  0  0  0  0  0  0  0
   -6.0088   20.5016  -32.5882 H   0  0  0  0  0  0  0  0  0  0  0  0
   -8.5813   23.4357  -30.7324 H   0  0  0  0  0  0  0  0  0  0  0  0
  1  2  2  0
  2  3  1  0
  3  4  1  0
  4  5  2  0
  5  6  1  0
  6  7  2  0
  7  8  1  0
  8  9  2  0
  2 10  1  0
 10 11  2  0
 11 12  1  0
 12 13  2  0
 13 14  1  0
 13 15  1  0
 15 16  2  0
 16 17  1  0
  9  4  1  0
 16 10  1  0
  5 18  1  0
  6 19  1  0
  7 20  1  0
  9 21  1  0
 11 22  1  0
 12 23  1  0
 15 24  1  0
M  CHG  1   3  -1
M  END
>  <UniqueID>  (28) 
26

>  <SMILES>  (28) 
O=C([N-]c1cccnc1)c1ccc(Cl)cc1Cl

>  <Energy>  (28) 
34.789821027804415

>  <Genealogy>  (28) 
O=C([N-]c1cccnc1)c1ccc(Cl)cc1Cl (protonated)
O=C([N-]c1cccnc1)c1ccc(Cl)cc1Cl (3D coordinates assigned)
O=C([N-]c1cccnc1)c1ccc(Cl)cc1Cl (optimized conformer: 34.789821027804415 kcal/mol)

>  <smiles>  (28) 
O=C(Nc1cccnc1)c1ccc(Cl)cc1Cl

>  <score_type>  (28) 
oracle

>  <origin>  (28) 
adgpu

>  <m_score__min__energy>  (28) 
-8.4000000000000004

>  <m_primary>  (28) 
energy

$$$$
28:0
     RDKit          3D

 30 31  0  0  0  0  0  0  0  0999 V2000
   -5.3630   25.9780  -30.4680 C   0  0  0  0  0  0  0  0  0  0  0  0
   -4.0970   25.3480  -30.6300 O   0  0  0  0  0  0  0  0  0  0  0  0
   -3.8460   23.9900  -30.3740 C   0  0  0  0  0  0  0  0  0  0  0  0
   -2.9150   23.5730  -29.4020 C   0  0  0  0  0  0  0  0  0  0  0  0
   -2.6900   22.2100  -29.1790 C   0  0  0  0  0  0  0  0  0  0  0  0
   -3.3870   21.2550  -29.9200 C   0  0  0  0  0  0  0  0  0  0  0  0
   -4.3110   21.6570  -30.8860 C   0  0  0  0  0  0  0  0  0  0  0  0
   -4.5480   23.0200  -31.1110 C   0  0  0  0  0  0  0  0  0  0  0  0
   -5.7510   23.5080  -32.3530 S   0  0  0  0  0  0  0  0  0  0  0  0
   -6.7220   22.0160  -32.1380 C   0  0  0  0  0  0  0  0  0  0  0  0
   -6.4530   20.8830  -32.9150 C   0  0  0  0  0  0  0  0  0  0  0  0
   -7.2150   19.7220  -32.7530 C   0  0  0  0  0  0  0  0  0  0  0  0
   -8.2420   19.6800  -31.7980 C   0  0  0  0  0  0  0  0  0  0  0  0
   -9.0860   18.4490  -31.6510 C   0  0  0  0  0  0  0  0  0  0  0  0
   -8.5170   20.8210  -31.0280 C   0  0  0  0  0  0  0  0  0  0  0  0
   -7.7530   21.9810  -31.1920 C   0  0  0  0  0  0  0  0  0  0  0  0
   -5.5835   26.0877  -29.3959 H   0  0  0  0  0  0  0  0  0  0  0  0
   -5.3418   26.9707  -30.9414 H   0  0  0  0  0  0  0  0  0  0  0  0
   -6.1421   25.3625  -30.9414 H   0  0  0  0  0  0  0  0  0  0  0  0
   -2.3626   24.3222  -28.8159 H   0  0  0  0  0  0  0  0  0  0  0  0
   -1.9624   21.8909  -28.4182 H   0  0  0  0  0  0  0  0  0  0  0  0
   -3.2082   20.1842  -29.7428 H   0  0  0  0  0  0  0  0  0  0  0  0
   -4.8548   20.9018  -31.4724 H   0  0  0  0  0  0  0  0  0  0  0  0
   -5.6397   20.9062  -33.6552 H   0  0  0  0  0  0  0  0  0  0  0  0
   -7.0088   18.8392  -33.3759 H   0  0  0  0  0  0  0  0  0  0  0  0
   -9.2349   18.2319  -30.5830 H   0  0  0  0  0  0  0  0  0  0  0  0
  -10.0618   18.6140  -32.1311 H   0  0  0  0  0  0  0  0  0  0  0  0
   -8.5803   17.5982  -32.1311 H   0  0  0  0  0  0  0  0  0  0  0  0
   -9.3357   20.8028  -30.2935 H   0  0  0  0  0  0  0  0  0  0  0  0
   -7.9629   22.8679  -30.5761 H   0  0  0  0  0  0  0  0  0  0  0  0
  1  2  1  0
  2  3  1  0
  3  4  2  0
  4  5  1  0
  5  6  2  0
  6  7  1  0
  7  8  2  0
  8  9  1  0
  9 10  1  0
 10 11  2  0
 11 12  1  0
 12 13  2  0
 13 14  1  0
 13 15  1  0
 15 16  2  0
  8  3  1  0
 16 10  1  0
  1 17  1  0
  1 18  1  0
  1 19  1  0
  4 20  1  0
  5 21  1  0
  6 22  1  0
  7 23  1  0
 11 24  1  0
 12 25  1  0
 14 26  1  0
 14 27  1  0
 14 28  1  0
 15 29  1  0
 16 30  1  0
M  END
>  <UniqueID>  (29) 
27

>  <SMILES>  (29) 
COc1ccccc1Sc1ccc(C)cc1

>  <Energy>  (29) 
24.40822542538504

>  <Genealogy>  (29) 
COc1ccccc1Sc1ccc(C)cc1 (3D coordinates assigned)
COc1ccccc1Sc1ccc(C)cc1 (optimized conformer: 24.40822542538504 kcal/mol)

>  <smiles>  (29) 
COc1ccccc1Sc1ccc(C)cc1

>  <score_type>  (29) 
oracle

>  <origin>  (29) 
adgpu

>  <m_score__min__energy>  (29) 
-7.1200000000000001

>  <m_primary>  (29) 
energy

$$$$
29:0
     RDKit          3D

 21 22  0  0  0  0  0  0  0  0999 V2000
   -3.8730   25.3140  -30.5840 N   0  0  0  0  0  0  0  0  0  0  0  0
   -5.2680   25.0150  -30.5660 C   0  0  0  0  0  0  0  0  0  0  0  0
   -6.0680   25.8530  -30.0700 O   0  0  0  0  0  0  0  0  0  0  0  0
   -5.7720   23.7370  -31.1250 C   0  0  0  0  0  0  0  0  0  0  0  0
   -4.8880   22.8140  -31.7060 C   0  0  0  0  0  0  0  0  0  0  0  0
   -5.3520   21.6040  -32.2370 C   0  0  0  0  0  0  0  0  0  0  0  0
   -4.0500   20.4200  -33.0080 Br  0  0  0  0  0  0  0  0  0  0  0  0
   -6.7290   21.2980  -32.1900 C   0  0  0  0  0  0  0  0  0  0  0  0
   -7.2380   20.0910  -32.7110 C   0  0  0  0  0  0  0  0  0  0  0  0
   -8.6080   19.8170  -32.6500 C   0  0  0  0  0  0  0  0  0  0  0  0
   -9.4840   20.7340  -32.0710 C   0  0  0  0  0  0  0  0  0  0  0  0
   -8.9990   21.9340  -31.5490 C   0  0  0  0  0  0  0  0  0  0  0  0
   -7.6270   22.2250  -31.6020 C   0  0  0  0  0  0  0  0  0  0  0  0
   -7.1430   23.4320  -31.0770 C   0  0  0  0  0  0  0  0  0  0  0  0
   -3.4880   26.0430  -31.2250 H   0  0  0  0  0  0  0  0  0  0  0  0
   -3.8132   23.0450  -31.7448 H   0  0  0  0  0  0  0  0  0  0  0  0
   -6.5539   19.3608  -33.1680 H   0  0  0  0  0  0  0  0  0  0  0  0
   -8.9963   18.8734  -33.0609 H   0  0  0  0  0  0  0  0  0  0  0  0
  -10.5602   20.5112  -32.0255 H   0  0  0  0  0  0  0  0  0  0  0  0
   -9.6947   22.6546  -31.0943 H   0  0  0  0  0  0  0  0  0  0  0  0
   -7.8440   24.1477  -30.6228 H   0  0  0  0  0  0  0  0  0  0  0  0
  1  2  1  0
  2  3  2  0
  2  4  1  0
  4  5  2  0
  5  6  1  0
  6  7  1  0
  6  8  2  0
  8  9  1  0
  9 10  2  0
 10 11  1  0
 11 12  2  0
 12 13  1  0
 13 14  2  0
 14  4  1  0
 13  8  1  0
  1 15  1  0
  5 16  1  0
  9 17  1  0
 10 18  1  0
 11 19  1  0
 12 20  1  0
 14 21  1  0
M  CHG  1   1  -1
M  END
>  <UniqueID>  (30) 
28

>  <SMILES>  (30) 
[NH-]C(=O)c1cc(Br)c2ccccc2c1

>  <Energy>  (30) 
27.07356240111078

>  <Genealogy>  (30) 
[NH-]C(=O)c1cc(Br)c2ccccc2c1 (protonated)
[NH-]C(=O)c1cc(Br)c2ccccc2c1 (3D coordinates assigned)
[NH-]C(=O)c1cc(Br)c2ccccc2c1 (optimized conformer: 27.07356240111078 kcal/mol)

>  <smiles>  (30) 
NC(=O)c1cc(Br)c2ccccc2c1

>  <score_type>  (30) 
oracle

>  <origin>  (30) 
adgpu

>  <m_score__min__energy>  (30) 
-10.41

>  <m_primary>  (30) 
energy

$$$$
30:0
     RDKit          3D

 34 35  0  0  0  0  0  0  0  0999 V2000
   -4.9490   14.4970  -33.5540 C   0  0  0  0  0  0  0  0  0  0  0  0
   -5.4690   15.5090  -34.4100 O   0  0  0  0  0  0  0  0  0  0  0  0
   -5.8990   16.7700  -33.9740 C   0  0  0  0  0  0  0  0  0  0  0  0
   -6.6470   16.8470  -32.7940 C   0  0  0  0  0  0  0  0  0  0  0  0
   -7.0990   18.0810  -32.3170 C   0  0  0  0  0  0  0  0  0  0  0  0
   -6.8100   19.2650  -33.0160 C   0  0  0  0  0  0  0  0  0  0  0  0
   -7.2910   20.5770  -32.5110 C   0  0  0  0  0  0  0  0  0  0  0  0
   -8.6070   20.7190  -32.0350 C   0  0  0  0  0  0  0  0  0  0  0  0
   -9.0540   21.9510  -31.5510 C   0  0  0  0  0  0  0  0  0  0  0  0
   -8.1990   23.0540  -31.5370 C   0  0  0  0  0  0  0  0  0  0  0  0
   -6.8870   22.9350  -32.0170 C   0  0  0  0  0  0  0  0  0  0  0  0
   -5.9530   24.1180  -31.9800 C   0  0  0  0  0  0  0  0  0  0  0  0
   -5.2840   24.2580  -30.6090 C   0  0  0  0  0  0  0  0  0  0  0  0
   -4.2140   25.2520  -30.6510 N   0  0  0  0  0  0  0  0  0  0  0  0
   -6.4350   21.6940  -32.4940 C   0  0  0  0  0  0  0  0  0  0  0  0
   -6.0590   19.1880  -34.2030 C   0  0  0  0  0  0  0  0  0  0  0  0
   -5.6070   17.9530  -34.6780 C   0  0  0  0  0  0  0  0  0  0  0  0
   -5.1000   14.7910  -32.5048 H   0  0  0  0  0  0  0  0  0  0  0  0
   -5.4715   13.5486  -33.7479 H   0  0  0  0  0  0  0  0  0  0  0  0
   -3.8738   14.3696  -33.7479 H   0  0  0  0  0  0  0  0  0  0  0  0
   -6.8816   15.9282  -32.2365 H   0  0  0  0  0  0  0  0  0  0  0  0
   -7.6854   18.1253  -31.3874 H   0  0  0  0  0  0  0  0  0  0  0  0
   -9.2880   19.8552  -32.0439 H   0  0  0  0  0  0  0  0  0  0  0  0
  -10.0844   22.0521  -31.1793 H   0  0  0  0  0  0  0  0  0  0  0  0
   -8.5554   24.0194  -31.1483 H   0  0  0  0  0  0  0  0  0  0  0  0
   -5.1750   23.9841  -32.7461 H   0  0  0  0  0  0  0  0  0  0  0  0
   -6.5389   25.0284  -32.1744 H   0  0  0  0  0  0  0  0  0  0  0  0
   -6.0372   24.5704  -29.8707 H   0  0  0  0  0  0  0  0  0  0  0  0
   -4.8510   23.2866  -30.3280 H   0  0  0  0  0  0  0  0  0  0  0  0
   -4.2130   25.6780  -31.6060 H   0  0  0  0  0  0  0  0  0  0  0  0
   -4.4540   26.0200  -29.9830 H   0  0  0  0  0  0  0  0  0  0  0  0
   -5.4018   21.5939  -32.8579 H   0  0  0  0  0  0  0  0  0  0  0  0
   -5.8256   20.1063  -34.7617 H   0  0  0  0  0  0  0  0  0  0  0  0
   -5.0200   17.9059  -35.6071 H   0  0  0  0  0  0  0  0  0  0  0  0
  1  2  1  0
  2  3  1  0
  3  4  2  0
  4  5  1  0
  5  6  2  0
  6  7  1  0
  7  8  2  0
  8  9  1  0
  9 10  2  0
 10 11  1  0
 11 12  1  0
 12 13  1  0
 13 14  1  0
 11 15  2  0
  6 16  1  0
 16 17  2  0
 17  3  1  0
 15  7  1  0
  1 18  1  0
  1 19  1  0
  1 20  1  0
  4 21  1  0
  5 22  1  0
  8 23  1  0
  9 24  1  0
 10 25  1  0
 12 26  1  0
 12 27  1  0
 13 28  1  0
 13 29  1  0
 14 30  1  0
 14 31  1  0
 15 32  1  0
 16 33  1  0
 17 34  1  0
M  END
>  <UniqueID>  (31) 
29

>  <SMILES>  (31) 
COc1ccc(-c2cccc(CCN)c2)cc1

>  <Energy>  (31) 
34.810061149385376

>  <Genealogy>  (31) 
COc1ccc(-c2cccc(CCN)c2)cc1 (3D coordinates assigned)
COc1ccc(-c2cccc(CCN)c2)cc1 (optimized conformer: 34.810061149385376 kcal/mol)

>  <smiles>  (31) 
COc1ccc(-c2cccc(CCN)c2)cc1

>  <score_type>  (31) 
oracle

>  <origin>  (31) 
adgpu

>  <m_score__min__energy>  (31) 
-8.0099999999999998

>  <m_primary>  (31) 
energy

$$$$
31:0
     RDKit          3D

 29 30  0  0  0  0  0  0  0  0999 V2000
   -3.5650   24.6670  -28.9090 N   0  0  0  0  0  0  0  0  0  0  0  0
   -4.4380   24.1610  -29.7000 C   0  0  0  0  0  0  0  0  0  0  0  0
   -5.7550   24.1340  -29.4500 N   0  0  0  0  0  0  0  0  0  0  0  0
   -6.6450   23.5870  -30.3100 C   0  0  0  0  0  0  0  0  0  0  0  0
   -6.2160   23.0140  -31.5260 C   0  0  0  0  0  0  0  0  0  0  0  0
   -7.2440   22.3950  -32.3440 C   0  0  0  0  0  0  0  0  0  0  0  0
   -7.4530   20.9550  -32.2710 C   0  0  0  0  0  0  0  0  0  0  0  0
   -8.5080   20.5400  -31.4220 C   0  0  0  0  0  0  0  0  0  0  0  0
   -8.8420   19.2210  -31.2570 C   0  0  0  0  0  0  0  0  0  0  0  0
   -8.1670   18.2070  -31.9140 C   0  0  0  0  0  0  0  0  0  0  0  0
   -7.1370   18.5950  -32.7450 C   0  0  0  0  0  0  0  0  0  0  0  0
   -6.8010   19.9510  -32.9060 C   0  0  0  0  0  0  0  0  0  0  0  0
   -5.7310   20.2060  -33.7870 N   0  0  0  0  0  0  0  0  0  0  0  0
   -4.8700   23.0630  -31.7470 C   0  0  0  0  0  0  0  0  0  0  0  0
   -4.3510   22.6680  -32.8340 N   0  0  0  0  0  0  0  0  0  0  0  0
   -4.0170   23.6260  -30.8400 N   0  0  0  0  0  0  0  0  0  0  0  0
   -3.7450   25.1130  -27.9900 H   0  0  0  0  0  0  0  0  0  0  0  0
   -6.1350   24.5480  -28.5690 H   0  0  0  0  0  0  0  0  0  0  0  0
   -7.7158   23.5890  -30.0582 H   0  0  0  0  0  0  0  0  0  0  0  0
   -8.1979   22.8703  -32.0716 H   0  0  0  0  0  0  0  0  0  0  0  0
   -6.8827   22.5502  -33.3713 H   0  0  0  0  0  0  0  0  0  0  0  0
   -9.0801   21.3040  -30.8752 H   0  0  0  0  0  0  0  0  0  0  0  0
   -9.6710   18.9607  -30.5825 H   0  0  0  0  0  0  0  0  0  0  0  0
   -8.4373   17.1491  -31.7806 H   0  0  0  0  0  0  0  0  0  0  0  0
   -6.5675   17.8293  -33.2922 H   0  0  0  0  0  0  0  0  0  0  0  0
   -5.2620   19.4040  -34.2510 H   0  0  0  0  0  0  0  0  0  0  0  0
   -5.3950   21.1670  -33.9890 H   0  0  0  0  0  0  0  0  0  0  0  0
   -4.7920   22.2890  -33.6400 H   0  0  0  0  0  0  0  0  0  0  0  0
   -2.9740   23.6400  -31.0590 H   0  0  0  0  0  0  0  0  0  0  0  0
  1  2  2  3
  2  3  1  0
  3  4  1  0
  4  5  2  0
  5  6  1  0
  6  7  1  0
  7  8  2  0
  8  9  1  0
  9 10  2  0
 10 11  1  0
 11 12  2  0
 12 13  1  0
  5 14  1  0
 14 15  2  3
 14 16  1  0
 16  2  1  0
 12  7  1  0
  1 17  1  0
  3 18  1  0
  4 19  1  0
  6 20  1  0
  6 21  1  0
  8 22  1  0
  9 23  1  0
 10 24  1  0
 11 25  1  0
 13 26  1  0
 13 27  1  0
 15 28  1  0
 16 29  1  0
M  END
>  <smiles>  (32) 
N=c1[nH]cc(Cc2ccccc2N)c(=N)[nH]1

>  <score_type>  (32) 
oracle

>  <origin>  (32) 
adgpu

>  <m_score__min__energy>  (32) 
-6.8200000000000003

>  <m_primary>  (32) 
energy

$$$$
32:0
     RDKit          3D

 38 40  0  0  0  0  0  0  0  0999 V2000
    2.0190   24.5660  -27.7230 C   0  0  0  0  0  0  0  0  0  0  0  0
    1.0050   25.5580  -27.8410 O   0  0  0  0  0  0  0  0  0  0  0  0
   -0.0930   25.6790  -26.9740 C   0  0  0  0  0  0  0  0  0  0  0  0
    0.0660   25.9090  -25.5920 C   0  0  0  0  0  0  0  0  0  0  0  0
   -1.0530   26.0270  -24.7640 C   0  0  0  0  0  0  0  0  0  0  0  0
   -2.3360   25.9070  -25.2990 C   0  0  0  0  0  0  0  0  0  0  0  0
   -2.5050   25.6750  -26.6650 C   0  0  0  0  0  0  0  0  0  0  0  0
   -1.3880   25.5790  -27.5120 C   0  0  0  0  0  0  0  0  0  0  0  0
   -1.5420   25.3500  -28.9210 N   0  0  0  0  0  0  0  0  0  0  0  0
   -2.5430   24.5230  -29.5290 C   0  0  0  0  0  0  0  0  0  0  0  0
   -2.5810   23.2990  -29.2450 O   0  0  0  0  0  0  0  0  0  0  0  0
   -3.5030   25.0520  -30.4540 N   0  0  0  0  0  0  0  0  0  0  0  0
   -4.8670   24.6250  -30.5810 C   0  0  0  0  0  0  0  0  0  0  0  0
   -5.9210   25.3500  -30.0020 C   0  0  0  0  0  0  0  0  0  0  0  0
   -7.2360   24.9020  -30.1320 C   0  0  0  0  0  0  0  0  0  0  0  0
   -7.5130   23.7370  -30.8530 C   0  0  0  0  0  0  0  0  0  0  0  0
   -6.4730   23.0140  -31.4600 C   0  0  0  0  0  0  0  0  0  0  0  0
   -6.7640   21.7830  -32.2270 C   0  0  0  0  0  0  0  0  0  0  0  0
   -7.9980   21.2520  -32.3560 N   0  0  0  0  0  0  0  0  0  0  0  0
   -7.8330   20.1930  -33.0870 O   0  0  0  0  0  0  0  0  0  0  0  0
   -6.5680   20.0700  -33.4030 C   0  0  0  0  0  0  0  0  0  0  0  0
   -6.0100   18.9510  -34.2140 C   0  0  0  0  0  0  0  0  0  0  0  0
   -5.8240   21.0610  -32.8740 N   0  0  0  0  0  0  0  0  0  0  0  0
   -5.1500   23.4740  -31.3250 C   0  0  0  0  0  0  0  0  0  0  0  0
    2.2187   24.3706  -26.6591 H   0  0  0  0  0  0  0  0  0  0  0  0
    1.6828   23.6384  -28.2094 H   0  0  0  0  0  0  0  0  0  0  0  0
    2.9390   24.9224  -28.2094 H   0  0  0  0  0  0  0  0  0  0  0  0
    1.0756   25.9959  -25.1639 H   0  0  0  0  0  0  0  0  0  0  0  0
   -0.9223   26.2149  -23.6881 H   0  0  0  0  0  0  0  0  0  0  0  0
   -3.2151   25.9953  -24.6437 H   0  0  0  0  0  0  0  0  0  0  0  0
   -3.5177   25.5668  -27.0805 H   0  0  0  0  0  0  0  0  0  0  0  0
   -5.7093   26.2741  -29.4441 H   0  0  0  0  0  0  0  0  0  0  0  0
   -8.0567   25.4670  -29.6660 H   0  0  0  0  0  0  0  0  0  0  0  0
   -8.5509   23.3846  -30.9455 H   0  0  0  0  0  0  0  0  0  0  0  0
   -5.6209   18.1707  -33.5434 H   0  0  0  0  0  0  0  0  0  0  0  0
   -6.8024   18.5274  -34.8486 H   0  0  0  0  0  0  0  0  0  0  0  0
   -5.1949   19.3290  -34.8486 H   0  0  0  0  0  0  0  0  0  0  0  0
   -4.3300   22.9233  -31.8091 H   0  0  0  0  0  0  0  0  0  0  0  0
  1  2  1  0
  2  3  1  0
  3  4  2  0
  4  5  1  0
  5  6  2  0
  6  7  1  0
  7  8  2  0
  8  9  1  0
  9 10  1  0
 10 11  2  0
 10 12  1  0
 12 13  1  0
 13 14  2  0
 14 15  1  0
 15 16  2  0
 16 17  1  0
 17 18  1  0
 18 19  2  0
 19 20  1  0
 20 21  1  0
 21 22  1  0
 21 23  2  0
 17 24  2  0
  8  3  1  0
 24 13  1  0
 23 18  1  0
  1 25  1  0
  1 26  1  0
  1 27  1  0
  4 28  1  0
  5 29  1  0
  6 30  1  0
  7 31  1  0
 14 32  1  0
 15 33  1  0
 16 34  1  0
 22 35  1  0
 22 36  1  0
 22 37  1  0
 24 38  1  0
M  CHG  2   9  -1  12  -1
M  END
>  <UniqueID>  (33) 
30

>  <SMILES>  (33) 
COc1ccccc1[N-]C(=O)[N-]c1cccc(-c2noc(C)n2)c1

>  <Energy>  (33) 
78.85469176582889

>  <Genealogy>  (33) 
COc1ccccc1[N-]C(=O)[N-]c1cccc(-c2noc(C)n2)c1 (protonated)
COc1ccccc1[N-]C(=O)[N-]c1cccc(-c2noc(C)n2)c1 (3D coordinates assigned)
COc1ccccc1[N-]C(=O)[N-]c1cccc(-c2noc(C)n2)c1 (optimized conformer: 78.85469176582889 kcal/mol)

>  <smiles>  (33) 
COc1ccccc1NC(=O)Nc1cccc(-c2noc(C)n2)c1

>  <score_type>  (33) 
oracle

>  <origin>  (33) 
adgpu

>  <m_score__min__energy>  (33) 
-11.359999999999999

>  <m_primary>  (33) 
energy

$$$$
33:0
     RDKit          3D

 29 30  0  0  0  0  0  0  0  0999 V2000
   -4.5770   24.9020  -31.2170 O   0  0  0  0  0  0  0  0  0  0  0  0
   -4.8610   24.4940  -30.0580 C   0  0  0  0  0  0  0  0  0  0  0  0
   -6.1780   23.9820  -29.7900 N   0  0  0  0  0  0  0  0  0  0  0  0
   -7.2420   24.0030  -30.7910 C   0  0  0  0  0  0  0  0  0  0  0  0
   -7.4110   22.6380  -31.4020 C   0  0  0  0  0  0  0  0  0  0  0  0
   -8.6280   21.9460  -31.2810 C   0  0  0  0  0  0  0  0  0  0  0  0
   -8.7810   20.6860  -31.8700 C   0  0  0  0  0  0  0  0  0  0  0  0
   -7.7250   20.1120  -32.5820 C   0  0  0  0  0  0  0  0  0  0  0  0
   -6.5130   20.7980  -32.7100 C   0  0  0  0  0  0  0  0  0  0  0  0
   -6.3550   22.0570  -32.1230 C   0  0  0  0  0  0  0  0  0  0  0  0
   -3.8240   24.5340  -29.0000 C   0  0  0  0  0  0  0  0  0  0  0  0
   -2.4530   24.5350  -29.3210 C   0  0  0  0  0  0  0  0  0  0  0  0
   -1.4880   24.5670  -28.3090 C   0  0  0  0  0  0  0  0  0  0  0  0
   -1.8790   24.5940  -26.9680 C   0  0  0  0  0  0  0  0  0  0  0  0
   -3.2350   24.5820  -26.6360 C   0  0  0  0  0  0  0  0  0  0  0  0
   -4.2030   24.5480  -27.6440 C   0  0  0  0  0  0  0  0  0  0  0  0
   -6.3810   23.5140  -28.8780 H   0  0  0  0  0  0  0  0  0  0  0  0
   -8.1849   24.3055  -30.3121 H   0  0  0  0  0  0  0  0  0  0  0  0
   -6.9748   24.7188  -31.5824 H   0  0  0  0  0  0  0  0  0  0  0  0
   -9.4620   22.3957  -30.7222 H   0  0  0  0  0  0  0  0  0  0  0  0
   -9.7346   20.1464  -31.7722 H   0  0  0  0  0  0  0  0  0  0  0  0
   -7.8468   19.1203  -33.0421 H   0  0  0  0  0  0  0  0  0  0  0  0
   -5.6830   20.3464  -33.2732 H   0  0  0  0  0  0  0  0  0  0  0  0
   -5.4007   22.5942  -32.2262 H   0  0  0  0  0  0  0  0  0  0  0  0
   -2.1387   24.5104  -30.3749 H   0  0  0  0  0  0  0  0  0  0  0  0
   -0.4193   24.5709  -28.5694 H   0  0  0  0  0  0  0  0  0  0  0  0
   -1.1185   24.6247  -26.1738 H   0  0  0  0  0  0  0  0  0  0  0  0
   -3.5421   24.5993  -25.5799 H   0  0  0  0  0  0  0  0  0  0  0  0
   -5.2696   24.5321  -27.3756 H   0  0  0  0  0  0  0  0  0  0  0  0
  1  2  2  0
  2  3  1  0
  3  4  1  0
  4  5  1  0
  5  6  2  0
  6  7  1  0
  7  8  2  0
  8  9  1  0
  9 10  2  0
  2 11  1  0
 11 12  2  0
 12 13  1  0
 13 14  2  0
 14 15  1  0
 15 16  2  0
 10  5  1  0
 16 11  1  0
  3 17  1  0
  4 18  1  0
  4 19  1  0
  6 20  1  0
  7 21  1  0
  8 22  1  0
  9 23  1  0
 10 24  1  0
 12 25  1  0
 13 26  1  0
 14 27  1  0
 15 28  1  0
 16 29  1  0
M  END
>  <UniqueID>  (34) 
31

>  <SMILES>  (34) 
O=C(NCc1ccccc1)c1ccccc1

>  <Energy>  (34) 
29.785190204165044

>  <Genealogy>  (34) 
O=C(NCc1ccccc1)c1ccccc1 (3D coordinates assigned)
O=C(NCc1ccccc1)c1ccccc1 (optimized conformer: 29.785190204165044 kcal/mol)

>  <smiles>  (34) 
O=C(NCc1ccccc1)c1ccccc1

>  <score_type>  (34) 
oracle

>  <origin>  (34) 
adgpu

>  <m_score__min__energy>  (34) 
-6.7999999999999998

>  <m_primary>  (34) 
energy

$$$$
34:0
     RDKit          3D

 28 29  0  0  0  0  0  0  0  0999 V2000
   -2.1430   21.9750  -31.0880 C   0  0  0  0  0  0  0  0  0  0  0  0
   -2.8930   23.1850  -31.0770 O   0  0  0  0  0  0  0  0  0  0  0  0
   -4.2960   23.2550  -31.0810 C   0  0  0  0  0  0  0  0  0  0  0  0
   -5.0950   22.1380  -31.3980 C   0  0  0  0  0  0  0  0  0  0  0  0
   -6.4990   22.2320  -31.3970 C   0  0  0  0  0  0  0  0  0  0  0  0
   -7.3350   21.0500  -31.7310 C   0  0  0  0  0  0  0  0  0  0  0  0
   -6.7690   19.7610  -31.7690 C   0  0  0  0  0  0  0  0  0  0  0  0
   -7.5590   18.6510  -32.0830 C   0  0  0  0  0  0  0  0  0  0  0  0
   -8.9180   18.8130  -32.3640 C   0  0  0  0  0  0  0  0  0  0  0  0
   -9.4900   20.0870  -32.3290 C   0  0  0  0  0  0  0  0  0  0  0  0
   -8.7060   21.2000  -32.0140 C   0  0  0  0  0  0  0  0  0  0  0  0
   -7.0990   23.4600  -31.0740 C   0  0  0  0  0  0  0  0  0  0  0  0
   -6.3140   24.5690  -30.7570 C   0  0  0  0  0  0  0  0  0  0  0  0
   -4.9160   24.4770  -30.7580 C   0  0  0  0  0  0  0  0  0  0  0  0
   -4.1330   25.6300  -30.4300 N   0  0  0  0  0  0  0  0  0  0  0  0
   -1.9456   21.6565  -30.0538 H   0  0  0  0  0  0  0  0  0  0  0  0
   -2.7153   21.1936  -31.6094 H   0  0  0  0  0  0  0  0  0  0  0  0
   -1.1885   22.1399  -31.6094 H   0  0  0  0  0  0  0  0  0  0  0  0
   -4.6150   21.1807  -31.6494 H   0  0  0  0  0  0  0  0  0  0  0  0
   -5.6993   19.6267  -31.5504 H   0  0  0  0  0  0  0  0  0  0  0  0
   -7.1094   17.6474  -32.1089 H   0  0  0  0  0  0  0  0  0  0  0  0
   -9.5369   17.9383  -32.6125 H   0  0  0  0  0  0  0  0  0  0  0  0
  -10.5600   20.2143  -32.5499 H   0  0  0  0  0  0  0  0  0  0  0  0
   -9.1631   22.2002  -31.9870 H   0  0  0  0  0  0  0  0  0  0  0  0
   -8.1955   23.5481  -31.0709 H   0  0  0  0  0  0  0  0  0  0  0  0
   -6.7971   25.5243  -30.5040 H   0  0  0  0  0  0  0  0  0  0  0  0
   -3.1190   25.6730  -30.6780 H   0  0  0  0  0  0  0  0  0  0  0  0
   -4.5500   26.4500  -29.9380 H   0  0  0  0  0  0  0  0  0  0  0  0
  1  2  1  0
  2  3  1  0
  3  4  2  0
  4  5  1  0
  5  6  1  0
  6  7  2  0
  7  8  1  0
  8  9  2  0
  9 10  1  0
 10 11  2  0
  5 12  2  0
 12 13  1  0
 13 14  2  0
 14 15  1  0
 14  3  1  0
 11  6  1  0
  1 16  1  0
  1 17  1  0
  1 18  1  0
  4 19  1  0
  7 20  1  0
  8 21  1  0
  9 22  1  0
 10 23  1  0
 11 24  1  0
 12 25  1  0
 13 26  1  0
 15 27  1  0
 15 28  1  0
M  END
>  <UniqueID>  (35) 
32

>  <SMILES>  (35) 
COc1cc(-c2ccccc2)ccc1N

>  <Energy>  (35) 
32.96025525184725

>  <Genealogy>  (35) 
COc1cc(-c2ccccc2)ccc1N (3D coordinates assigned)
COc1cc(-c2ccccc2)ccc1N (optimized conformer: 32.96025525184725 kcal/mol)

>  <smiles>  (35) 
COc1cc(-c2ccccc2)ccc1N

>  <score_type>  (35) 
oracle

>  <origin>  (35) 
adgpu

>  <m_score__min__energy>  (35) 
-7.1200000000000001

>  <m_primary>  (35) 
energy

$$$$
35:0
     RDKit          3D

 23 24  0  0  0  0  0  0  0  0999 V2000
   -8.3236   21.9089  -30.6680 H   0  0  0  0  0  0  0  0  0  0  0  0
   -7.2730   22.2230  -30.7550 C   0  0  0  0  0  0  0  0  0  0  0  0
   -6.8900   23.2660  -30.0710 N   0  0  0  0  0  0  0  0  0  0  0  0
   -5.5500   23.7520  -29.8910 C   0  0  0  0  0  0  0  0  0  0  0  0
   -4.7150   23.2630  -28.8740 C   0  0  0  0  0  0  0  0  0  0  0  0
   -5.0685   22.4589  -28.2118 H   0  0  0  0  0  0  0  0  0  0  0  0
   -3.4710   23.7820  -28.7070 N   0  0  0  0  0  0  0  0  0  0  0  0
   -3.0210   24.7870  -29.5030 C   0  0  0  0  0  0  0  0  0  0  0  0
   -1.8630   25.2500  -29.3370 O   0  0  0  0  0  0  0  0  0  0  0  0
   -3.8230   25.2960  -30.4740 N   0  0  0  0  0  0  0  0  0  0  0  0
   -5.0750   24.8090  -30.6760 C   0  0  0  0  0  0  0  0  0  0  0  0
   -5.7980   25.3100  -31.5780 O   0  0  0  0  0  0  0  0  0  0  0  0
   -6.3870   21.4350  -31.6400 C   0  0  0  0  0  0  0  0  0  0  0  0
   -6.6790   20.0810  -31.8700 C   0  0  0  0  0  0  0  0  0  0  0  0
   -7.5438   19.6154  -31.3747 H   0  0  0  0  0  0  0  0  0  0  0  0
   -5.8750   19.3220  -32.7260 C   0  0  0  0  0  0  0  0  0  0  0  0
   -6.0996   18.2578  -32.8902 H   0  0  0  0  0  0  0  0  0  0  0  0
   -4.7870   19.9130  -33.3730 C   0  0  0  0  0  0  0  0  0  0  0  0
   -4.0090   19.1760  -34.2050 F   0  0  0  0  0  0  0  0  0  0  0  0
   -4.5070   21.2680  -33.1740 C   0  0  0  0  0  0  0  0  0  0  0  0
   -3.6555   21.7349  -33.6908 H   0  0  0  0  0  0  0  0  0  0  0  0
   -5.3080   22.0300  -32.3190 C   0  0  0  0  0  0  0  0  0  0  0  0
   -5.0939   23.0995  -32.1763 H   0  0  0  0  0  0  0  0  0  0  0  0
  1  2  1  0
  2  3  2  0
  3  4  1  0
  4  5  2  0
  5  6  1  0
  5  7  1  0
  7  8  1  0
  8  9  2  0
  8 10  1  0
 10 11  1  0
 11 12  2  0
  2 13  1  0
 13 14  2  0
 14 15  1  0
 14 16  1  0
 16 17  1  0
 16 18  2  0
 18 19  1  0
 18 20  1  0
 20 21  1  0
 20 22  2  0
 22 23  1  0
 11  4  1  0
 22 13  1  0
M  CHG  2   7  -1  10  -1
M  END
>  <UniqueID>  (36) 
33

>  <SMILES>  (36) 
O=c1[n-]cc(/N=C\c2ccc(F)cc2)c(=O)[n-]1

>  <Energy>  (36) 
36.969702148237644

>  <Genealogy>  (36) 
O=c1[n-]cc(N=Cc2ccc(F)cc2)c(=O)[n-]1 (protonated)
O=c1[n-]cc(/N=C\c2ccc(F)cc2)c(=O)[n-]1 (cis-trans isomerization)
O=c1[n-]cc(/N=C\c2ccc(F)cc2)c(=O)[n-]1 (3D coordinates assigned)
O=c1[n-]cc(/N=C\c2ccc(F)cc2)c(=O)[n-]1 (optimized conformer: 36.969702148237644 kcal/mol)

>  <smiles>  (36) 
O=c1[nH]cc(N=Cc2ccc(F)cc2)c(=O)[nH]1

>  <score_type>  (36) 
oracle

>  <origin>  (36) 
adgpu

>  <m_score__min__energy>  (36) 
-8.8000000000000007

>  <m_primary>  (36) 
energy

$$$$
36:0
     RDKit          3D

 52 56  0  0  0  0  0  0  0  0999 V2000
    0.7500   29.3370  -25.0110 C   0  0  0  0  0  0  0  0  0  0  0  0
   -0.1140   28.1860  -25.4360 C   0  0  0  0  0  0  0  0  0  0  0  0
   -0.7370   27.3770  -24.4750 C   0  0  0  0  0  0  0  0  0  0  0  0
   -1.5280   26.2970  -24.8720 C   0  0  0  0  0  0  0  0  0  0  0  0
   -1.6840   26.0010  -26.2280 C   0  0  0  0  0  0  0  0  0  0  0  0
   -2.4570   24.9500  -26.5990 F   0  0  0  0  0  0  0  0  0  0  0  0
   -1.0290   26.7710  -27.2010 C   0  0  0  0  0  0  0  0  0  0  0  0
   -1.2190   26.4450  -28.5850 N   0  0  0  0  0  0  0  0  0  0  0  0
   -1.5580   25.1570  -29.1110 C   0  0  0  0  0  0  0  0  0  0  0  0
   -0.7040   24.2350  -29.0610 O   0  0  0  0  0  0  0  0  0  0  0  0
   -2.8500   24.9250  -29.6910 N   0  0  0  0  0  0  0  0  0  0  0  0
   -3.3250   23.7040  -30.2740 C   0  0  0  0  0  0  0  0  0  0  0  0
   -4.4350   23.6690  -31.1380 C   0  0  0  0  0  0  0  0  0  0  0  0
   -4.8770   22.4530  -31.6680 C   0  0  0  0  0  0  0  0  0  0  0  0
   -4.2210   21.2570  -31.3400 C   0  0  0  0  0  0  0  0  0  0  0  0
   -4.7020   19.9650  -31.8820 C   0  0  0  0  0  0  0  0  0  0  0  0
   -3.7580   19.0420  -32.3480 C   0  0  0  0  0  0  0  0  0  0  0  0
   -4.1480   17.8300  -32.8180 N   0  0  0  0  0  0  0  0  0  0  0  0
   -5.4530   17.4510  -32.8720 C   0  0  0  0  0  0  0  0  0  0  0  0
   -5.7740   16.1070  -33.4080 C   0  0  0  0  0  0  0  0  0  0  0  0
   -6.9510   15.8750  -34.1390 C   0  0  0  0  0  0  0  0  0  0  0  0
   -7.2070   14.5990  -34.6480 C   0  0  0  0  0  0  0  0  0  0  0  0
   -6.3160   13.5920  -34.4460 N   0  0  0  0  0  0  0  0  0  0  0  0
   -5.1620   13.7910  -33.7560 C   0  0  0  0  0  0  0  0  0  0  0  0
   -4.8660   15.0510  -33.2320 C   0  0  0  0  0  0  0  0  0  0  0  0
   -6.4470   18.3370  -32.4100 C   0  0  0  0  0  0  0  0  0  0  0  0
   -7.7610   17.9730  -32.4110 N   0  0  0  0  0  0  0  0  0  0  0  0
   -8.7430   18.8070  -31.9840 C   0  0  0  0  0  0  0  0  0  0  0  0
   -8.4250   20.0850  -31.5320 C   0  0  0  0  0  0  0  0  0  0  0  0
   -7.0910   20.4920  -31.5030 C   0  0  0  0  0  0  0  0  0  0  0  0
   -6.0720   19.6130  -31.9200 C   0  0  0  0  0  0  0  0  0  0  0  0
   -3.1390   21.2880  -30.4480 C   0  0  0  0  0  0  0  0  0  0  0  0
   -2.6980   22.5030  -29.9180 C   0  0  0  0  0  0  0  0  0  0  0  0
   -0.2570   27.8760  -26.7980 C   0  0  0  0  0  0  0  0  0  0  0  0
    0.7848   29.3833  -23.9125 H   0  0  0  0  0  0  0  0  0  0  0  0
    1.7676   29.1965  -25.4045 H   0  0  0  0  0  0  0  0  0  0  0  0
    0.3310   30.2749  -25.4045 H   0  0  0  0  0  0  0  0  0  0  0  0
   -0.6022   27.5938  -23.4050 H   0  0  0  0  0  0  0  0  0  0  0  0
   -2.0299   25.6773  -24.1143 H   0  0  0  0  0  0  0  0  0  0  0  0
   -4.9570   24.6018  -31.3975 H   0  0  0  0  0  0  0  0  0  0  0  0
   -5.7434   22.4340  -32.3455 H   0  0  0  0  0  0  0  0  0  0  0  0
   -2.6892   19.3018  -32.3330 H   0  0  0  0  0  0  0  0  0  0  0  0
   -7.6667   16.6927  -34.3097 H   0  0  0  0  0  0  0  0  0  0  0  0
   -8.1313   14.4089  -35.2133 H   0  0  0  0  0  0  0  0  0  0  0  0
   -4.4594   12.9573  -33.6100 H   0  0  0  0  0  0  0  0  0  0  0  0
   -3.9263   15.2152  -32.6842 H   0  0  0  0  0  0  0  0  0  0  0  0
   -9.7910   18.4730  -31.9950 H   0  0  0  0  0  0  0  0  0  0  0  0
   -9.2201   20.7689  -31.2001 H   0  0  0  0  0  0  0  0  0  0  0  0
   -6.8338   21.5027  -31.1533 H   0  0  0  0  0  0  0  0  0  0  0  0
   -2.6357   20.3519  -30.1646 H   0  0  0  0  0  0  0  0  0  0  0  0
   -1.8516   22.5167  -29.2155 H   0  0  0  0  0  0  0  0  0  0  0  0
    0.2381   28.5016  -27.5553 H   0  0  0  0  0  0  0  0  0  0  0  0
  1  2  1  0
  2  3  2  0
  3  4  1  0
  4  5  2  0
  5  6  1  0
  5  7  1  0
  7  8  1  0
  8  9  1  0
  9 10  2  0
  9 11  1  0
 11 12  1  0
 12 13  2  0
 13 14  1  0
 14 15  2  0
 15 16  1  0
 16 17  2  0
 17 18  1  0
 18 19  2  0
 19 20  1  0
 20 21  2  0
 21 22  1  0
 22 23  2  0
 23 24  1  0
 24 25  2  0
 19 26  1  0
 26 27  2  0
 27 28  1  0
 28 29  2  0
 29 30  1  0
 30 31  2  0
 15 32  1  0
 32 33  2  0
  7 34  2  0
 34  2  1  0
 33 12  1  0
 31 16  1  0
 25 20  1  0
 31 26  1  0
  1 35  1  0
  1 36  1  0
  1 37  1  0
  3 38  1  0
  4 39  1  0
 13 40  1  0
 14 41  1  0
 17 42  1  0
 21 43  1  0
 22 44  1  0
 24 45  1  0
 25 46  1  0
 28 47  1  0
 29 48  1  0
 30 49  1  0
 32 50  1  0
 33 51  1  0
 34 52  1  0
M  CHG  2   8  -1  11  -1
M  END
>  <UniqueID>  (37) 
34

>  <SMILES>  (37) 
Cc1ccc(F)c([N-]C(=O)[N-]c2ccc(-c3cnc(-c4ccncc4)c4ncccc34)cc2)c1

>  <Energy>  (37) 
85.14340556133351

>  <Genealogy>  (37) 
Cc1ccc(F)c([N-]C(=O)[N-]c2ccc(-c3cnc(-c4ccncc4)c4ncccc34)cc2)c1 (protonated)
Cc1ccc(F)c([N-]C(=O)[N-]c2ccc(-c3cnc(-c4ccncc4)c4ncccc34)cc2)c1 (3D coordinates assigned)
Cc1ccc(F)c([N-]C(=O)[N-]c2ccc(-c3cnc(-c4ccncc4)c4ncccc34)cc2)c1 (optimized conformer: 85.14340556133351 kcal/mol)

>  <smiles>  (37) 
Cc1ccc(F)c(NC(=O)Nc2ccc(-c3cnc(-c4ccncc4)c4ncccc34)cc2)c1

>  <score_type>  (37) 
oracle

>  <origin>  (37) 
adgpu

>  <m_score__min__energy>  (37) 
-12.1

>  <m_primary>  (37) 
energy

$$$$
37:0
     RDKit          3D

 27 28  0  0  0  0  0  0  0  0999 V2000
   -7.6050   18.1240  -32.4260 C   0  0  0  0  0  0  0  0  0  0  0  0
   -8.7410   18.5480  -31.7310 C   0  0  0  0  0  0  0  0  0  0  0  0
   -9.0090   19.9140  -31.5930 C   0  0  0  0  0  0  0  0  0  0  0  0
   -8.1430   20.8660  -32.1590 C   0  0  0  0  0  0  0  0  0  0  0  0
   -8.4200   22.3390  -32.0090 C   0  0  0  0  0  0  0  0  0  0  0  0
   -7.2630   23.1300  -32.4290 N   0  0  0  0  0  0  0  0  0  0  0  0
   -6.2400   23.6150  -31.5360 C   0  0  0  0  0  0  0  0  0  0  0  0
   -6.4910   24.6370  -30.5990 C   0  0  0  0  0  0  0  0  0  0  0  0
   -5.4730   25.0840  -29.7520 C   0  0  0  0  0  0  0  0  0  0  0  0
   -4.1990   24.5180  -29.8260 C   0  0  0  0  0  0  0  0  0  0  0  0
   -3.9400   23.5010  -30.7470 C   0  0  0  0  0  0  0  0  0  0  0  0
   -4.9560   23.0500  -31.5960 C   0  0  0  0  0  0  0  0  0  0  0  0
   -6.9970   20.4300  -32.8450 C   0  0  0  0  0  0  0  0  0  0  0  0
   -6.7330   19.0640  -32.9810 C   0  0  0  0  0  0  0  0  0  0  0  0
   -7.3973   17.0494  -32.5361 H   0  0  0  0  0  0  0  0  0  0  0  0
   -9.4251   17.8068  -31.2921 H   0  0  0  0  0  0  0  0  0  0  0  0
   -9.9004   20.2445  -31.0397 H   0  0  0  0  0  0  0  0  0  0  0  0
   -9.2862   22.6084  -32.6312 H   0  0  0  0  0  0  0  0  0  0  0  0
   -8.6281   22.5529  -30.9503 H   0  0  0  0  0  0  0  0  0  0  0  0
   -7.2050   23.3900  -33.4400 H   0  0  0  0  0  0  0  0  0  0  0  0
   -7.4933   25.0854  -30.5338 H   0  0  0  0  0  0  0  0  0  0  0  0
   -5.6763   25.8841  -29.0250 H   0  0  0  0  0  0  0  0  0  0  0  0
   -3.3996   24.8731  -29.1590 H   0  0  0  0  0  0  0  0  0  0  0  0
   -2.9365   23.0543  -30.8049 H   0  0  0  0  0  0  0  0  0  0  0  0
   -4.7473   22.2458  -32.3169 H   0  0  0  0  0  0  0  0  0  0  0  0
   -6.3042   21.1671  -33.2771 H   0  0  0  0  0  0  0  0  0  0  0  0
   -5.8379   18.7289  -33.5255 H   0  0  0  0  0  0  0  0  0  0  0  0
  1  2  2  0
  2  3  1  0
  3  4  2  0
  4  5  1  0
  5  6  1  0
  6  7  1  0
  7  8  2  0
  8  9  1  0
  9 10  2  0
 10 11  1  0
 11 12  2  0
  4 13  1  0
 13 14  2  0
 14  1  1  0
 12  7  1  0
  1 15  1  0
  2 16  1  0
  3 17  1  0
  5 18  1  0
  5 19  1  0
  6 20  1  0
  8 21  1  0
  9 22  1  0
 10 23  1  0
 11 24  1  0
 12 25  1  0
 13 26  1  0
 14 27  1  0
M  END
>  <UniqueID>  (38) 
35

>  <SMILES>  (38) 
c1ccc(CNc2ccccc2)cc1

>  <Energy>  (38) 
26.785191490317544

>  <Genealogy>  (38) 
c1ccc(CNc2ccccc2)cc1 (3D coordinates assigned)
c1ccc(CNc2ccccc2)cc1 (optimized conformer: 26.785191490317544 kcal/mol)

>  <smiles>  (38) 
c1ccc(CNc2ccccc2)cc1

>  <score_type>  (38) 
oracle

>  <origin>  (38) 
adgpu

>  <m_score__min__energy>  (38) 
-6.3399999999999999

>  <m_primary>  (38) 
energy

$$$$
38:0
     RDKit          3D

 33 35  0  0  0  0  0  0  0  0999 V2000
    3.1270   18.8940  -29.1970 N   0  0  0  0  0  0  0  0  0  0  0  0
    2.0770   19.2660  -28.8860 C   0  0  0  0  0  0  0  0  0  0  0  0
    0.7690   19.7270  -28.4980 C   0  0  0  0  0  0  0  0  0  0  0  0
    0.0690   19.0710  -27.4780 C   0  0  0  0  0  0  0  0  0  0  0  0
   -1.2040   19.5120  -27.1110 C   0  0  0  0  0  0  0  0  0  0  0  0
   -1.7810   20.6130  -27.7540 C   0  0  0  0  0  0  0  0  0  0  0  0
   -1.0780   21.2920  -28.7670 C   0  0  0  0  0  0  0  0  0  0  0  0
   -1.6580   22.4070  -29.4650 N   0  0  0  0  0  0  0  0  0  0  0  0
   -1.3560   23.7810  -29.1770 C   0  0  0  0  0  0  0  0  0  0  0  0
   -0.2280   24.0960  -28.7130 O   0  0  0  0  0  0  0  0  0  0  0  0
   -2.2940   24.8200  -29.4780 N   0  0  0  0  0  0  0  0  0  0  0  0
   -3.5260   24.6300  -30.1810 C   0  0  0  0  0  0  0  0  0  0  0  0
   -4.1050   23.4300  -30.3780 N   0  0  0  0  0  0  0  0  0  0  0  0
   -5.2310   23.7690  -31.0380 C   0  0  0  0  0  0  0  0  0  0  0  0
   -6.2620   22.8010  -31.5000 C   0  0  0  0  0  0  0  0  0  0  0  0
   -7.6090   23.0410  -31.1620 C   0  0  0  0  0  0  0  0  0  0  0  0
   -8.6150   22.1600  -31.5630 C   0  0  0  0  0  0  0  0  0  0  0  0
   -8.2970   21.0280  -32.3100 C   0  0  0  0  0  0  0  0  0  0  0  0
   -6.9710   20.7730  -32.6610 C   0  0  0  0  0  0  0  0  0  0  0  0
   -5.9490   21.6470  -32.2680 C   0  0  0  0  0  0  0  0  0  0  0  0
   -4.3150   21.2500  -32.7950 Cl  0  0  0  0  0  0  0  0  0  0  0  0
   -5.3300   25.1030  -31.2110 N   0  0  0  0  0  0  0  0  0  0  0  0
   -4.2550   25.6460  -30.6670 N   0  0  0  0  0  0  0  0  0  0  0  0
    0.1940   20.8290  -29.1430 C   0  0  0  0  0  0  0  0  0  0  0  0
    0.5216   18.2089  -26.9662 H   0  0  0  0  0  0  0  0  0  0  0  0
   -1.7553   18.9922  -26.3136 H   0  0  0  0  0  0  0  0  0  0  0  0
   -2.7881   20.9492  -27.4666 H   0  0  0  0  0  0  0  0  0  0  0  0
   -2.2720   22.2080  -30.2870 H   0  0  0  0  0  0  0  0  0  0  0  0
   -7.8709   23.9336  -30.5749 H   0  0  0  0  0  0  0  0  0  0  0  0
   -9.6612   22.3602  -31.2885 H   0  0  0  0  0  0  0  0  0  0  0  0
   -9.0917   20.3349  -32.6232 H   0  0  0  0  0  0  0  0  0  0  0  0
   -6.7258   19.8779  -33.2515 H   0  0  0  0  0  0  0  0  0  0  0  0
    0.7426   21.3361  -29.9504 H   0  0  0  0  0  0  0  0  0  0  0  0
  1  2  3  0
  2  3  1  0
  3  4  2  0
  4  5  1  0
  5  6  2  0
  6  7  1  0
  7  8  1  0
  8  9  1  0
  9 10  2  0
  9 11  1  0
 11 12  1  0
 12 13  2  0
 13 14  1  0
 14 15  1  0
 15 16  2  0
 16 17  1  0
 17 18  2  0
 18 19  1  0
 19 20  2  0
 20 21  1  0
 14 22  2  0
 22 23  1  0
  7 24  2  0
 24  3  1  0
 23 12  1  0
 20 15  1  0
  4 25  1  0
  5 26  1  0
  6 27  1  0
  8 28  1  0
 16 29  1  0
 17 30  1  0
 18 31  1  0
 19 32  1  0
 24 33  1  0
M  CHG  2  11  -1  23  -1
M  END
>  <UniqueID>  (39) 
36

>  <SMILES>  (39) 
N#Cc1cccc(NC(=O)[N-]c2nc(-c3ccccc3Cl)n[n-]2)c1

>  <Energy>  (39) 
75.16440433723275

>  <Genealogy>  (39) 
N#Cc1cccc(NC(=O)[N-]c2nc(-c3ccccc3Cl)n[n-]2)c1 (protonated)
N#Cc1cccc(NC(=O)[N-]c2nc(-c3ccccc3Cl)n[n-]2)c1 (3D coordinates assigned)
N#Cc1cccc(NC(=O)[N-]c2nc(-c3ccccc3Cl)n[n-]2)c1 (optimized conformer: 75.16440433723275 kcal/mol)

>  <smiles>  (39) 
N#Cc1cccc(NC(=O)Nc2nc(-c3ccccc3Cl)n[nH]2)c1

>  <score_type>  (39) 
oracle

>  <origin>  (39) 
adgpu

>  <m_score__min__energy>  (39) 
-11.18

>  <m_primary>  (39) 
energy

$$$$
39:0
     RDKit          3D

 32 34  0  0  0  0  0  0  0  0999 V2000
   -3.2230   20.7620  -30.0110 O   0  0  0  0  0  0  0  0  0  0  0  0
   -3.5270   21.9760  -29.8460 C   0  0  0  0  0  0  0  0  0  0  0  0
   -2.7980   22.7360  -28.9360 C   0  0  0  0  0  0  0  0  0  0  0  0
   -3.1320   24.0800  -28.7470 C   0  0  0  0  0  0  0  0  0  0  0  0
   -2.3690   24.9200  -27.7890 C   0  0  0  0  0  0  0  0  0  0  0  0
   -1.2540   25.6660  -28.2160 C   0  0  0  0  0  0  0  0  0  0  0  0
   -0.5400   26.4530  -27.3080 C   0  0  0  0  0  0  0  0  0  0  0  0
   -0.9280   26.5040  -25.9680 C   0  0  0  0  0  0  0  0  0  0  0  0
   -2.0330   25.7690  -25.5330 C   0  0  0  0  0  0  0  0  0  0  0  0
   -2.7510   24.9790  -26.4370 C   0  0  0  0  0  0  0  0  0  0  0  0
   -4.1630   24.6120  -29.4620 N   0  0  0  0  0  0  0  0  0  0  0  0
   -4.8750   23.8640  -30.3530 C   0  0  0  0  0  0  0  0  0  0  0  0
   -6.0930   24.5910  -31.1940 S   0  0  0  0  0  0  0  0  0  0  0  0
   -4.5600   22.5390  -30.5470 N   0  0  0  0  0  0  0  0  0  0  0  0
   -5.3010   21.7250  -31.4780 C   0  0  0  0  0  0  0  0  0  0  0  0
   -4.6490   21.1320  -32.5700 C   0  0  0  0  0  0  0  0  0  0  0  0
   -5.3670   20.3380  -33.4690 C   0  0  0  0  0  0  0  0  0  0  0  0
   -6.7360   20.1310  -33.2810 C   0  0  0  0  0  0  0  0  0  0  0  0
   -7.3910   20.7160  -32.1920 C   0  0  0  0  0  0  0  0  0  0  0  0
   -9.1100   20.4530  -31.9570 Cl  0  0  0  0  0  0  0  0  0  0  0  0
   -6.6750   21.5100  -31.2900 C   0  0  0  0  0  0  0  0  0  0  0  0
   -1.9686   22.2842  -28.3721 H   0  0  0  0  0  0  0  0  0  0  0  0
   -0.9429   25.6293  -29.2705 H   0  0  0  0  0  0  0  0  0  0  0  0
    0.3295   27.0334  -27.6500 H   0  0  0  0  0  0  0  0  0  0  0  0
   -0.3636   27.1229  -25.2550 H   0  0  0  0  0  0  0  0  0  0  0  0
   -2.3394   25.8114  -24.4774 H   0  0  0  0  0  0  0  0  0  0  0  0
   -3.6193   24.4007  -26.0883 H   0  0  0  0  0  0  0  0  0  0  0  0
   -4.4300   25.6120  -29.3120 H   0  0  0  0  0  0  0  0  0  0  0  0
   -3.5710   21.2922  -32.7188 H   0  0  0  0  0  0  0  0  0  0  0  0
   -4.8538   19.8758  -34.3251 H   0  0  0  0  0  0  0  0  0  0  0  0
   -7.2996   19.5071  -33.9903 H   0  0  0  0  0  0  0  0  0  0  0  0
   -7.1898   21.9666  -30.4318 H   0  0  0  0  0  0  0  0  0  0  0  0
  1  2  2  0
  2  3  1  0
  3  4  2  0
  4  5  1  0
  5  6  2  0
  6  7  1  0
  7  8  2  0
  8  9  1  0
  9 10  2  0
  4 11  1  0
 11 12  1  0
 12 13  2  0
 12 14  1  0
 14 15  1  0
 15 16  2  0
 16 17  1  0
 17 18  2  0
 18 19  1  0
 19 20  1  0
 19 21  2  0
 14  2  1  0
 21 15  1  0
 10  5  1  0
  3 22  1  0
  6 23  1  0
  7 24  1  0
  8 25  1  0
  9 26  1  0
 10 27  1  0
 11 28  1  0
 16 29  1  0
 17 30  1  0
 18 31  1  0
 21 32  1  0
M  END
>  <UniqueID>  (40) 
37

>  <SMILES>  (40) 
O=c1cc(-c2ccccc2)[nH]c(=S)n1-c1cccc(Cl)c1

>  <Energy>  (40) 
52.39228285296524

>  <Genealogy>  (40) 
O=c1cc(-c2ccccc2)[nH]c(=S)n1-c1cccc(Cl)c1 (3D coordinates assigned)
O=c1cc(-c2ccccc2)[nH]c(=S)n1-c1cccc(Cl)c1 (optimized conformer: 52.39228285296524 kcal/mol)

>  <smiles>  (40) 
O=c1cc(-c2ccccc2)[nH]c(=S)n1-c1cccc(Cl)c1

>  <score_type>  (40) 
oracle

>  <origin>  (40) 
adgpu

>  <m_score__min__energy>  (40) 
-7.6699999999999999

>  <m_primary>  (40) 
energy

$$$$
40:0
     RDKit          3D

 36 37  0  0  0  0  0  0  0  0999 V2000
   -5.2040   20.7970  -33.1040 C   0  0  0  0  0  0  0  0  0  0  0  0
   -6.6320   20.7020  -32.6060 C   0  0  0  0  0  0  0  0  0  0  0  0
   -7.2340   19.4260  -32.4580 C   0  0  0  0  0  0  0  0  0  0  0  0
   -6.5170   18.2220  -32.7680 N   0  0  0  0  0  0  0  0  0  0  0  0
   -6.1070   17.3360  -31.6780 C   0  0  0  0  0  0  0  0  0  0  0  0
   -6.1600   17.9450  -34.1610 C   0  0  0  0  0  0  0  0  0  0  0  0
   -8.5600   19.3370  -32.0190 C   0  0  0  0  0  0  0  0  0  0  0  0
   -9.1130   18.2140  -31.8780 O   0  0  0  0  0  0  0  0  0  0  0  0
   -9.2760   20.4950  -31.7420 C   0  0  0  0  0  0  0  0  0  0  0  0
   -8.6710   21.7360  -31.9160 C   0  0  0  0  0  0  0  0  0  0  0  0
   -7.3740   21.8390  -32.3460 N   0  0  0  0  0  0  0  0  0  0  0  0
   -6.8260   23.1970  -32.5430 C   0  0  0  0  0  0  0  0  0  0  0  0
   -6.0630   23.6580  -31.3270 C   0  0  0  0  0  0  0  0  0  0  0  0
   -4.7840   23.1400  -31.0550 C   0  0  0  0  0  0  0  0  0  0  0  0
   -4.0730   23.5730  -29.9320 C   0  0  0  0  0  0  0  0  0  0  0  0
   -4.6260   24.5300  -29.0780 C   0  0  0  0  0  0  0  0  0  0  0  0
   -5.8910   25.0600  -29.3480 C   0  0  0  0  0  0  0  0  0  0  0  0
   -6.6060   24.6300  -30.4700 C   0  0  0  0  0  0  0  0  0  0  0  0
   -4.5184   20.8426  -32.2450 H   0  0  0  0  0  0  0  0  0  0  0  0
   -4.9689   19.9125  -33.7142 H   0  0  0  0  0  0  0  0  0  0  0  0
   -5.0881   21.7048  -33.7142 H   0  0  0  0  0  0  0  0  0  0  0  0
   -6.3287   17.8151  -30.7130 H   0  0  0  0  0  0  0  0  0  0  0  0
   -6.6571   16.3862  -31.7508 H   0  0  0  0  0  0  0  0  0  0  0  0
   -5.0269   17.1406  -31.7508 H   0  0  0  0  0  0  0  0  0  0  0  0
   -5.2912   17.2709  -34.1898 H   0  0  0  0  0  0  0  0  0  0  0  0
   -7.0109   17.4684  -34.6698 H   0  0  0  0  0  0  0  0  0  0  0  0
   -5.9097   18.8876  -34.6698 H   0  0  0  0  0  0  0  0  0  0  0  0
  -10.3152   20.4312  -31.3872 H   0  0  0  0  0  0  0  0  0  0  0  0
   -9.2442   22.6507  -31.7046 H   0  0  0  0  0  0  0  0  0  0  0  0
   -6.1488   23.1885  -33.4098 H   0  0  0  0  0  0  0  0  0  0  0  0
   -7.6635   23.8897  -32.7124 H   0  0  0  0  0  0  0  0  0  0  0  0
   -4.3415   22.3913  -31.7285 H   0  0  0  0  0  0  0  0  0  0  0  0
   -3.0760   23.1592  -29.7204 H   0  0  0  0  0  0  0  0  0  0  0  0
   -4.0661   24.8666  -28.1930 H   0  0  0  0  0  0  0  0  0  0  0  0
   -6.3244   25.8162  -28.6770 H   0  0  0  0  0  0  0  0  0  0  0  0
   -7.5982   25.0546  -30.6827 H   0  0  0  0  0  0  0  0  0  0  0  0
  1  2  1  0
  2  3  2  0
  3  4  1  0
  4  5  1  0
  4  6  1  0
  3  7  1  0
  7  8  2  0
  7  9  1  0
  9 10  2  0
 10 11  1  0
 11 12  1  0
 12 13  1  0
 13 14  2  0
 14 15  1  0
 15 16  2  0
 16 17  1  0
 17 18  2  0
 11  2  1  0
 18 13  1  0
  1 19  1  0
  1 20  1  0
  1 21  1  0
  5 22  1  0
  5 23  1  0
  5 24  1  0
  6 25  1  0
  6 26  1  0
  6 27  1  0
  9 28  1  0
 10 29  1  0
 12 30  1  0
 12 31  1  0
 14 32  1  0
 15 33  1  0
 16 34  1  0
 17 35  1  0
 18 36  1  0
M  END
>  <UniqueID>  (41) 
38

>  <SMILES>  (41) 
Cc1c(N(C)C)c(=O)ccn1Cc1ccccc1

>  <Energy>  (41) 
44.33042537494767

>  <Genealogy>  (41) 
Cc1c(N(C)C)c(=O)ccn1Cc1ccccc1 (3D coordinates assigned)
Cc1c(N(C)C)c(=O)ccn1Cc1ccccc1 (optimized conformer: 44.33042537494767 kcal/mol)

>  <smiles>  (41) 
Cc1c(N(C)C)c(=O)ccn1Cc1ccccc1

>  <score_type>  (41) 
oracle

>  <origin>  (41) 
adgpu

>  <m_score__min__energy>  (41) 
-6.8300000000000001

>  <m_primary>  (41) 
energy

$$$$
41:0
     RDKit          3D

 24 25  0  0  0  0  0  0  0  0999 V2000
   -6.6400   25.0260  -30.1710 O   0  0  0  0  0  0  0  0  0  0  0  0
   -5.3670   24.5030  -30.7740 S   0  0  0  0  0  0  0  0  0  0  0  0
   -4.5190   25.6640  -31.2140 O   0  0  0  0  0  0  0  0  0  0  0  0
   -5.7480   23.5170  -32.1510 N   0  0  0  0  0  0  0  0  0  0  0  0
   -6.5750   22.3410  -32.0930 C   0  0  0  0  0  0  0  0  0  0  0  0
   -7.8960   22.3810  -31.6040 C   0  0  0  0  0  0  0  0  0  0  0  0
   -8.6720   21.2180  -31.5700 C   0  0  0  0  0  0  0  0  0  0  0  0
   -8.1410   20.0040  -32.0160 C   0  0  0  0  0  0  0  0  0  0  0  0
   -9.1180   18.5480  -31.9700 Cl  0  0  0  0  0  0  0  0  0  0  0  0
   -6.8290   19.9530  -32.4950 C   0  0  0  0  0  0  0  0  0  0  0  0
   -6.0510   21.1130  -32.5320 C   0  0  0  0  0  0  0  0  0  0  0  0
   -4.5200   23.5490  -29.5720 C   0  0  0  0  0  0  0  0  0  0  0  0
   -4.2920   23.9290  -28.2570 C   0  0  0  0  0  0  0  0  0  0  0  0
   -3.6090   22.9560  -27.5200 C   0  0  0  0  0  0  0  0  0  0  0  0
   -3.3090   21.8220  -28.2620 C   0  0  0  0  0  0  0  0  0  0  0  0
   -2.4680   20.4070  -27.6660 Cl  0  0  0  0  0  0  0  0  0  0  0  0
   -3.8850   22.0140  -29.8290 S   0  0  0  0  0  0  0  0  0  0  0  0
   -5.4070   23.8510  -33.0790 H   0  0  0  0  0  0  0  0  0  0  0  0
   -8.3189   23.3317  -31.2472 H   0  0  0  0  0  0  0  0  0  0  0  0
   -9.7038   21.2586  -31.1910 H   0  0  0  0  0  0  0  0  0  0  0  0
   -6.4083   18.9982  -32.8434 H   0  0  0  0  0  0  0  0  0  0  0  0
   -5.0185   21.0647  -32.9083 H   0  0  0  0  0  0  0  0  0  0  0  0
   -4.6144   24.8938  -27.8383 H   0  0  0  0  0  0  0  0  0  0  0  0
   -3.3375   23.0771  -26.4609 H   0  0  0  0  0  0  0  0  0  0  0  0
  1  2  2  0
  2  3  2  0
  2  4  1  0
  4  5  1  0
  5  6  2  0
  6  7  1  0
  7  8  2  0
  8  9  1  0
  8 10  1  0
 10 11  2  0
  2 12  1  0
 12 13  2  0
 13 14  1  0
 14 15  2  0
 15 16  1  0
 15 17  1  0
 11  5  1  0
 17 12  1  0
  4 18  1  0
  6 19  1  0
  7 20  1  0
 10 21  1  0
 11 22  1  0
 13 23  1  0
 14 24  1  0
M  END
>  <UniqueID>  (42) 
39

>  <SMILES>  (42) 
O=S(=O)(Nc1ccc(Cl)cc1)c1ccc(Cl)s1

>  <Energy>  (42) 
53.541616352982174

>  <Genealogy>  (42) 
O=S(=O)(Nc1ccc(Cl)cc1)c1ccc(Cl)s1 (3D coordinates assigned)
O=S(=O)(Nc1ccc(Cl)cc1)c1ccc(Cl)s1 (optimized conformer: 53.541616352982174 kcal/mol)

>  <smiles>  (42) 
O=S(=O)(Nc1ccc(Cl)cc1)c1ccc(Cl)s1

>  <score_type>  (42) 
oracle

>  <origin>  (42) 
adgpu

>  <m_score__min__energy>  (42) 
-7.6399999999999997

>  <m_primary>  (42) 
energy

$$$$
42:0
     RDKit          3D

 31 31  0  0  0  0  0  0  0  0999 V2000
   -7.0780   17.4700  -33.0070 C   0  0  0  0  0  0  0  0  0  0  0  0
   -7.2950   18.1820  -31.6750 C   0  0  0  0  0  0  0  0  0  0  0  0
   -8.7200   18.7410  -31.5700 C   0  0  0  0  0  0  0  0  0  0  0  0
   -9.0200   19.7390  -32.6950 C   0  0  0  0  0  0  0  0  0  0  0  0
   -7.8430   20.4440  -33.0920 O   0  0  0  0  0  0  0  0  0  0  0  0
   -7.2380   21.4940  -32.3800 C   0  0  0  0  0  0  0  0  0  0  0  0
   -7.9480   22.6300  -31.9470 C   0  0  0  0  0  0  0  0  0  0  0  0
   -7.2930   23.6440  -31.2400 C   0  0  0  0  0  0  0  0  0  0  0  0
   -5.9230   23.5420  -30.9660 C   0  0  0  0  0  0  0  0  0  0  0  0
   -5.1040   24.8100  -30.0620 S   0  0  0  0  0  0  0  0  0  0  0  0
   -4.5720   24.1650  -28.4930 C   0  0  0  0  0  0  0  0  0  0  0  0
   -6.0410   25.9640  -29.8400 O   0  0  0  0  0  0  0  0  0  0  0  0
   -3.9110   25.2980  -30.8350 O   0  0  0  0  0  0  0  0  0  0  0  0
   -5.2150   22.4120  -31.3960 C   0  0  0  0  0  0  0  0  0  0  0  0
   -5.8690   21.3990  -32.1010 C   0  0  0  0  0  0  0  0  0  0  0  0
   -6.7619   16.4329  -32.8212 H   0  0  0  0  0  0  0  0  0  0  0  0
   -8.0170   17.4701  -33.5800 H   0  0  0  0  0  0  0  0  0  0  0  0
   -6.2987   17.9937  -33.5800 H   0  0  0  0  0  0  0  0  0  0  0  0
   -7.1285   17.4678  -30.8551 H   0  0  0  0  0  0  0  0  0  0  0  0
   -6.5863   19.0206  -31.6090 H   0  0  0  0  0  0  0  0  0  0  0  0
   -9.4356   17.9079  -31.6318 H   0  0  0  0  0  0  0  0  0  0  0  0
   -8.8125   19.2683  -30.6090 H   0  0  0  0  0  0  0  0  0  0  0  0
   -9.4194   19.1921  -33.5618 H   0  0  0  0  0  0  0  0  0  0  0  0
   -9.7534   20.4699  -32.3237 H   0  0  0  0  0  0  0  0  0  0  0  0
   -9.0223   22.7207  -32.1655 H   0  0  0  0  0  0  0  0  0  0  0  0
   -7.8560   24.5249  -30.8979 H   0  0  0  0  0  0  0  0  0  0  0  0
   -5.0447   24.7380  -27.6817 H   0  0  0  0  0  0  0  0  0  0  0  0
   -4.8640   23.1075  -28.4133 H   0  0  0  0  0  0  0  0  0  0  0  0
   -3.4782   24.2504  -28.4133 H   0  0  0  0  0  0  0  0  0  0  0  0
   -4.1406   22.3223  -31.1777 H   0  0  0  0  0  0  0  0  0  0  0  0
   -5.3035   20.5185  -32.4402 H   0  0  0  0  0  0  0  0  0  0  0  0
  1  2  1  0
  2  3  1  0
  3  4  1  0
  4  5  1  0
  5  6  1  0
  6  7  2  0
  7  8  1  0
  8  9  2  0
  9 10  1  0
 10 11  1  0
 10 12  2  0
 10 13  2  0
  9 14  1  0
 14 15  2  0
 15  6  1  0
  1 16  1  0
  1 17  1  0
  1 18  1  0
  2 19  1  0
  2 20  1  0
  3 21  1  0
  3 22  1  0
  4 23  1  0
  4 24  1  0
  7 25  1  0
  8 26  1  0
 11 27  1  0
 11 28  1  0
 11 29  1  0
 14 30  1  0
 15 31  1  0
M  END
>  <UniqueID>  (43) 
40

>  <SMILES>  (43) 
CCCCOc1ccc(S(C)(=O)=O)cc1

>  <Energy>  (43) 
19.727226666707487

>  <Genealogy>  (43) 
CCCCOc1ccc(S(C)(=O)=O)cc1 (3D coordinates assigned)
CCCCOc1ccc(S(C)(=O)=O)cc1 (optimized conformer: 19.727226666707487 kcal/mol)

>  <smiles>  (43) 
CCCCOc1ccc(S(C)(=O)=O)cc1

>  <score_type>  (43) 
oracle

>  <origin>  (43) 
adgpu

>  <m_score__min__energy>  (43) 
-6.8399999999999999

>  <m_primary>  (43) 
energy

$$$$
43:0
     RDKit          3D

 19 20  0  0  0  0  0  0  0  0999 V2000
   -3.8690   25.3020  -30.4910 O   0  0  0  0  0  0  0  0  0  0  0  0
   -4.6900   24.4000  -30.8080 C   0  0  0  0  0  0  0  0  0  0  0  0
   -6.0580   24.6120  -30.6350 C   0  0  0  0  0  0  0  0  0  0  0  0
   -6.9580   23.6070  -30.9900 C   0  0  0  0  0  0  0  0  0  0  0  0
   -6.4920   22.3890  -31.5160 C   0  0  0  0  0  0  0  0  0  0  0  0
   -7.4490   21.3150  -31.8950 C   0  0  0  0  0  0  0  0  0  0  0  0
   -7.1420   20.0580  -32.4200 C   0  0  0  0  0  0  0  0  0  0  0  0
   -8.2670   19.2640  -32.6760 C   0  0  0  0  0  0  0  0  0  0  0  0
   -9.4700   19.8770  -32.3600 C   0  0  0  0  0  0  0  0  0  0  0  0
   -9.1290   21.4080  -31.7610 S   0  0  0  0  0  0  0  0  0  0  0  0
   -5.1020   22.2240  -31.6710 C   0  0  0  0  0  0  0  0  0  0  0  0
   -4.2440   23.2200  -31.3180 N   0  0  0  0  0  0  0  0  0  0  0  0
   -6.4239   25.5637  -30.2221 H   0  0  0  0  0  0  0  0  0  0  0  0
   -8.0381   23.7682  -30.8577 H   0  0  0  0  0  0  0  0  0  0  0  0
   -6.1126   19.7227  -32.6144 H   0  0  0  0  0  0  0  0  0  0  0  0
   -8.2022   18.2469  -33.0900 H   0  0  0  0  0  0  0  0  0  0  0  0
  -10.4712   19.4377  -32.4805 H   0  0  0  0  0  0  0  0  0  0  0  0
   -4.7066   21.2828  -32.0806 H   0  0  0  0  0  0  0  0  0  0  0  0
   -3.2170   23.0690  -31.4440 H   0  0  0  0  0  0  0  0  0  0  0  0
  1  2  2  0
  2  3  1  0
  3  4  2  0
  4  5  1  0
  5  6  1  0
  6  7  2  0
  7  8  1  0
  8  9  2  0
  9 10  1  0
  5 11  2  0
 11 12  1  0
 12  2  1  0
 10  6  1  0
  3 13  1  0
  4 14  1  0
  7 15  1  0
  8 16  1  0
  9 17  1  0
 11 18  1  0
 12 19  1  0
M  END
>  <UniqueID>  (44) 
41

>  <SMILES>  (44) 
O=c1ccc(-c2cccs2)c[nH]1

>  <Energy>  (44) 
48.25026551862171

>  <Genealogy>  (44) 
O=c1ccc(-c2cccs2)c[nH]1 (3D coordinates assigned)
O=c1ccc(-c2cccs2)c[nH]1 (optimized conformer: 48.25026551862171 kcal/mol)

>  <smiles>  (44) 
O=c1ccc(-c2cccs2)c[nH]1

>  <score_type>  (44) 
oracle

>  <origin>  (44) 
adgpu

>  <m_score__min__energy>  (44) 
-6.21

>  <m_primary>  (44) 
energy

$$$$
44:0
     RDKit          3D

 41 43  0  0  0  0  0  0  0  0999 V2000
  -10.3815   19.1626  -32.6707 H   0  0  0  0  0  0  0  0  0  0  0  0
   -9.4430   19.6990  -32.4670 C   0  0  0  0  0  0  0  0  0  0  0  0
   -9.4770   21.0190  -32.0120 C   0  0  0  0  0  0  0  0  0  0  0  0
  -10.4435   21.5196  -31.8530 H   0  0  0  0  0  0  0  0  0  0  0  0
   -8.2860   21.7060  -31.7580 C   0  0  0  0  0  0  0  0  0  0  0  0
   -8.3201   22.7439  -31.3951 H   0  0  0  0  0  0  0  0  0  0  0  0
   -7.0430   21.0770  -31.9640 C   0  0  0  0  0  0  0  0  0  0  0  0
   -5.7660   21.7870  -31.6920 C   0  0  0  0  0  0  0  0  0  0  0  0
   -5.7920   23.1140  -31.3980 N   0  0  0  0  0  0  0  0  0  0  0  0
   -4.6430   23.7900  -31.1450 C   0  0  0  0  0  0  0  0  0  0  0  0
   -4.6640   25.1540  -30.8450 O   0  0  0  0  0  0  0  0  0  0  0  0
   -5.7240   25.7660  -30.1200 C   0  0  0  0  0  0  0  0  0  0  0  0
   -5.5395   25.6595  -29.0408 H   0  0  0  0  0  0  0  0  0  0  0  0
   -5.7770   26.8337  -30.3793 H   0  0  0  0  0  0  0  0  0  0  0  0
   -6.6752   25.2781  -30.3793 H   0  0  0  0  0  0  0  0  0  0  0  0
   -3.4580   23.1340  -31.1820 N   0  0  0  0  0  0  0  0  0  0  0  0
   -3.4140   21.8050  -31.4640 C   0  0  0  0  0  0  0  0  0  0  0  0
   -2.2790   21.1680  -31.4910 N   0  0  0  0  0  0  0  0  0  0  0  0
   -0.9730   21.7700  -31.2240 C   0  0  0  0  0  0  0  0  0  0  0  0
   -0.2041   21.2370  -31.8026 H   0  0  0  0  0  0  0  0  0  0  0  0
   -1.0041   22.8295  -31.5180 H   0  0  0  0  0  0  0  0  0  0  0  0
   -0.6330   21.6810  -29.7330 C   0  0  0  0  0  0  0  0  0  0  0  0
   -0.8295   20.6587  -29.3777 H   0  0  0  0  0  0  0  0  0  0  0  0
    0.4287   21.9339  -29.5955 H   0  0  0  0  0  0  0  0  0  0  0  0
   -1.4690   22.6490  -28.9410 C   0  0  0  0  0  0  0  0  0  0  0  0
   -2.6130   22.2030  -28.2590 C   0  0  0  0  0  0  0  0  0  0  0  0
   -2.8845   21.1373  -28.2827 H   0  0  0  0  0  0  0  0  0  0  0  0
   -3.4080   23.1090  -27.5500 C   0  0  0  0  0  0  0  0  0  0  0  0
   -4.2995   22.7535  -27.0126 H   0  0  0  0  0  0  0  0  0  0  0  0
   -3.0720   24.4650  -27.5230 C   0  0  0  0  0  0  0  0  0  0  0  0
   -3.6963   25.1756  -26.9615 H   0  0  0  0  0  0  0  0  0  0  0  0
   -1.9420   24.9180  -28.2100 C   0  0  0  0  0  0  0  0  0  0  0  0
   -1.6796   25.9861  -28.1907 H   0  0  0  0  0  0  0  0  0  0  0  0
   -1.1440   24.0160  -28.9220 C   0  0  0  0  0  0  0  0  0  0  0  0
   -0.2603   24.3777  -29.4681 H   0  0  0  0  0  0  0  0  0  0  0  0
   -4.5690   21.1320  -31.7170 N   0  0  0  0  0  0  0  0  0  0  0  0
   -4.5270   20.1040  -31.9010 H   0  0  0  0  0  0  0  0  0  0  0  0
   -7.0220   19.7430  -32.4110 C   0  0  0  0  0  0  0  0  0  0  0  0
   -6.0594   19.2330  -32.5633 H   0  0  0  0  0  0  0  0  0  0  0  0
   -8.2170   19.0610  -32.6630 C   0  0  0  0  0  0  0  0  0  0  0  0
   -8.1906   18.0196  -33.0164 H   0  0  0  0  0  0  0  0  0  0  0  0
  1  2  1  0
  2  3  2  0
  3  4  1  0
  3  5  1  0
  5  6  1  0
  5  7  2  0
  7  8  1  0
  8  9  2  0
  9 10  1  0
 10 11  1  0
 11 12  1  0
 12 13  1  0
 12 14  1  0
 12 15  1  0
 10 16  2  0
 16 17  1  0
 17 18  2  0
 18 19  1  0
 19 20  1  0
 19 21  1  0
 19 22  1  0
 22 23  1  0
 22 24  1  0
 22 25  1  0
 25 26  2  0
 26 27  1  0
 26 28  1  0
 28 29  1  0
 28 30  2  0
 30 31  1  0
 30 32  1  0
 32 33  1  0
 32 34  2  0
 34 35  1  0
 17 36  1  0
 36 37  1  0
  7 38  1  0
 38 39  1  0
 38 40  2  0
 40 41  1  0
 40  2  1  0
 36  8  1  0
 34 25  1  0
M  END
>  <UniqueID>  (45) 
42

>  <SMILES>  (45) 
COc1nc(-c2ccccc2)[nH]/c(=N/CCc2ccccc2)n1

>  <Energy>  (45) 
42.45652225374037

>  <Genealogy>  (45) 
COc1nc(-c2ccccc2)[nH]/c(=N/CCc2ccccc2)n1 (cis-trans isomerization)
COc1nc(-c2ccccc2)[nH]/c(=N/CCc2ccccc2)n1 (3D coordinates assigned)
COc1nc(-c2ccccc2)[nH]/c(=N/CCc2ccccc2)n1 (optimized conformer: 42.45652225374037 kcal/mol)

>  <smiles>  (45) 
COc1nc(-c2ccccc2)[nH]c(=NCCc2ccccc2)n1

>  <score_type>  (45) 
oracle

>  <origin>  (45) 
adgpu

>  <m_score__min__energy>  (45) 
-8.0999999999999996

>  <m_primary>  (45) 
energy

$$$$
45:0
     RDKit          3D

 26 27  0  0  0  0  0  0  0  0999 V2000
   -2.6270   23.5750  -28.9840 O   0  0  0  0  0  0  0  0  0  0  0  0
   -2.6090   24.7600  -29.4090 C   0  0  0  0  0  0  0  0  0  0  0  0
   -1.5960   25.6740  -28.9700 N   0  0  0  0  0  0  0  0  0  0  0  0
   -1.3170   26.0550  -27.6140 C   0  0  0  0  0  0  0  0  0  0  0  0
   -0.4960   27.1670  -27.3860 C   0  0  0  0  0  0  0  0  0  0  0  0
   -0.2160   27.5850  -26.0810 C   0  0  0  0  0  0  0  0  0  0  0  0
   -0.7700   26.9020  -24.9940 C   0  0  0  0  0  0  0  0  0  0  0  0
   -1.6100   25.8080  -25.2130 C   0  0  0  0  0  0  0  0  0  0  0  0
   -1.8910   25.3860  -26.5160 C   0  0  0  0  0  0  0  0  0  0  0  0
   -3.5450   25.1450  -30.4210 N   0  0  0  0  0  0  0  0  0  0  0  0
   -4.8010   24.5090  -30.6970 C   0  0  0  0  0  0  0  0  0  0  0  0
   -5.9720   25.0720  -30.1720 C   0  0  0  0  0  0  0  0  0  0  0  0
   -7.2160   24.4900  -30.4380 C   0  0  0  0  0  0  0  0  0  0  0  0
   -7.3000   23.3530  -31.2450 C   0  0  0  0  0  0  0  0  0  0  0  0
   -6.1410   22.8000  -31.7950 C   0  0  0  0  0  0  0  0  0  0  0  0
   -6.2260   21.7100  -32.5970 F   0  0  0  0  0  0  0  0  0  0  0  0
   -4.8950   23.3780  -31.5320 C   0  0  0  0  0  0  0  0  0  0  0  0
   -0.0688   27.7149  -28.2388 H   0  0  0  0  0  0  0  0  0  0  0  0
    0.4401   28.4511  -25.9098 H   0  0  0  0  0  0  0  0  0  0  0  0
   -0.5444   27.2260  -23.9673 H   0  0  0  0  0  0  0  0  0  0  0  0
   -2.0521   25.2765  -24.3574 H   0  0  0  0  0  0  0  0  0  0  0  0
   -2.5614   24.5302  -26.6836 H   0  0  0  0  0  0  0  0  0  0  0  0
   -5.9127   25.9758  -29.5478 H   0  0  0  0  0  0  0  0  0  0  0  0
   -8.1298   24.9286  -30.0108 H   0  0  0  0  0  0  0  0  0  0  0  0
   -8.2785   22.8931  -31.4474 H   0  0  0  0  0  0  0  0  0  0  0  0
   -3.9859   22.9485  -31.9782 H   0  0  0  0  0  0  0  0  0  0  0  0
  1  2  2  0
  2  3  1  0
  3  4  1  0
  4  5  2  0
  5  6  1  0
  6  7  2  0
  7  8  1  0
  8  9  2  0
  2 10  1  0
 10 11  1  0
 11 12  2  0
 12 13  1  0
 13 14  2  0
 14 15  1  0
 15 16  1  0
 15 17  2  0
  9  4  1  0
 17 11  1  0
  5 18  1  0
  6 19  1  0
  7 20  1  0
  8 21  1  0
  9 22  1  0
 12 23  1  0
 13 24  1  0
 14 25  1  0
 17 26  1  0
M  CHG  2   3  -1  10  -1
M  END
>  <UniqueID>  (46) 
43

>  <SMILES>  (46) 
O=C([N-]c1ccccc1)[N-]c1cccc(F)c1

>  <Energy>  (46) 
33.46897725469698

>  <Genealogy>  (46) 
O=C([N-]c1ccccc1)[N-]c1cccc(F)c1 (protonated)
O=C([N-]c1ccccc1)[N-]c1cccc(F)c1 (3D coordinates assigned)
O=C([N-]c1ccccc1)[N-]c1cccc(F)c1 (optimized conformer: 33.46897725469698 kcal/mol)

>  <smiles>  (46) 
O=C(Nc1ccccc1)Nc1cccc(F)c1

>  <score_type>  (46) 
oracle

>  <origin>  (46) 
adgpu

>  <m_score__min__energy>  (46) 
-9.1500000000000004

>  <m_primary>  (46) 
energy

$$$$
46:0
     RDKit          3D

 52 55  0  0  0  0  0  0  0  0999 V2000
   -9.4850   22.8890  -32.0160 C   0  0  0  0  0  0  0  0  0  0  0  0
   -9.7330   21.4880  -32.0920 O   0  0  0  0  0  0  0  0  0  0  0  0
   -8.7340   20.5040  -32.1240 C   0  0  0  0  0  0  0  0  0  0  0  0
   -9.1010   19.1860  -31.8490 C   0  0  0  0  0  0  0  0  0  0  0  0
   -8.1480   18.1710  -31.8650 C   0  0  0  0  0  0  0  0  0  0  0  0
   -6.8140   18.4600  -32.1570 C   0  0  0  0  0  0  0  0  0  0  0  0
   -6.4020   19.7820  -32.4440 C   0  0  0  0  0  0  0  0  0  0  0  0
   -5.0060   20.0890  -32.7480 N   0  0  0  0  0  0  0  0  0  0  0  0
   -4.6160   21.5010  -32.9410 C   0  0  0  0  0  0  0  0  0  0  0  0
   -3.1850   21.6790  -33.4240 C   0  0  0  0  0  0  0  0  0  0  0  0
   -2.2600   20.7940  -32.7170 N   0  0  0  0  0  0  0  0  0  0  0  0
   -1.9040   21.1790  -31.3280 C   0  0  0  0  0  0  0  0  0  0  0  0
   -2.9010   20.7180  -30.2420 C   0  0  0  0  0  0  0  0  0  0  0  0
   -2.9320   21.6810  -29.0480 C   0  0  0  0  0  0  0  0  0  0  0  0
   -3.3810   23.0150  -29.4540 N   0  0  0  0  0  0  0  0  0  0  0  0
   -2.6490   24.1540  -29.5490 C   0  0  0  0  0  0  0  0  0  0  0  0
   -1.4110   24.2080  -29.3250 O   0  0  0  0  0  0  0  0  0  0  0  0
   -3.3700   25.2050  -29.8970 O   0  0  0  0  0  0  0  0  0  0  0  0
   -4.5990   24.7630  -30.0290 C   0  0  0  0  0  0  0  0  0  0  0  0
   -5.7440   25.4710  -30.3780 C   0  0  0  0  0  0  0  0  0  0  0  0
   -6.9560   24.7560  -30.4450 C   0  0  0  0  0  0  0  0  0  0  0  0
   -6.9890   23.3700  -30.1650 C   0  0  0  0  0  0  0  0  0  0  0  0
   -5.8110   22.6840  -29.8160 C   0  0  0  0  0  0  0  0  0  0  0  0
   -4.6270   23.4220  -29.7590 C   0  0  0  0  0  0  0  0  0  0  0  0
   -2.5430   19.3800  -32.9780 C   0  0  0  0  0  0  0  0  0  0  0  0
   -4.0200   18.9820  -32.7600 C   0  0  0  0  0  0  0  0  0  0  0  0
   -7.3880   20.7990  -32.4200 C   0  0  0  0  0  0  0  0  0  0  0  0
   -9.4308   23.1951  -30.9608 H   0  0  0  0  0  0  0  0  0  0  0  0
   -8.5320   23.1202  -32.5142 H   0  0  0  0  0  0  0  0  0  0  0  0
  -10.3008   23.4333  -32.5142 H   0  0  0  0  0  0  0  0  0  0  0  0
  -10.1497   18.9475  -31.6182 H   0  0  0  0  0  0  0  0  0  0  0  0
   -8.4481   17.1356  -31.6463 H   0  0  0  0  0  0  0  0  0  0  0  0
   -6.0724   17.6476  -32.1640 H   0  0  0  0  0  0  0  0  0  0  0  0
   -5.2917   21.9495  -33.6841 H   0  0  0  0  0  0  0  0  0  0  0  0
   -4.6874   21.9915  -31.9590 H   0  0  0  0  0  0  0  0  0  0  0  0
   -3.1415   21.4537  -34.4998 H   0  0  0  0  0  0  0  0  0  0  0  0
   -2.8836   22.7181  -33.2257 H   0  0  0  0  0  0  0  0  0  0  0  0
   -0.9214   20.7428  -31.0952 H   0  0  0  0  0  0  0  0  0  0  0  0
   -1.9133   22.2787  -31.3040 H   0  0  0  0  0  0  0  0  0  0  0  0
   -3.9075   20.6653  -30.6826 H   0  0  0  0  0  0  0  0  0  0  0  0
   -2.5759   19.7326  -29.8769 H   0  0  0  0  0  0  0  0  0  0  0  0
   -3.6215   21.2867  -28.2870 H   0  0  0  0  0  0  0  0  0  0  0  0
   -1.9130   21.7653  -28.6423 H   0  0  0  0  0  0  0  0  0  0  0  0
   -5.7048   26.5489  -30.5937 H   0  0  0  0  0  0  0  0  0  0  0  0
   -7.8841   25.2798  -30.7173 H   0  0  0  0  0  0  0  0  0  0  0  0
   -7.9425   22.8243  -30.2205 H   0  0  0  0  0  0  0  0  0  0  0  0
   -5.8224   21.6062  -29.5962 H   0  0  0  0  0  0  0  0  0  0  0  0
   -2.2768   19.1615  -34.0227 H   0  0  0  0  0  0  0  0  0  0  0  0
   -1.9481   18.7991  -32.2578 H   0  0  0  0  0  0  0  0  0  0  0  0
   -4.3030   18.2905  -33.5673 H   0  0  0  0  0  0  0  0  0  0  0  0
   -4.0591   18.5449  -31.7513 H   0  0  0  0  0  0  0  0  0  0  0  0
   -7.0978   21.8377  -32.6363 H   0  0  0  0  0  0  0  0  0  0  0  0
  1  2  1  0
  2  3  1  0
  3  4  2  0
  4  5  1  0
  5  6  2  0
  6  7  1  0
  7  8  1  0
  8  9  1  0
  9 10  1  0
 10 11  1  0
 11 12  1  0
 12 13  1  0
 13 14  1  0
 14 15  1  0
 15 16  1  0
 16 17  2  0
 16 18  1  0
 18 19  1  0
 19 20  2  0
 20 21  1  0
 21 22  2  0
 22 23  1  0
 23 24  2  0
 11 25  1  0
 25 26  1  0
  7 27  2  0
 27  3  1  0
 26  8  1  0
 24 15  1  0
 24 19  1  0
  1 28  1  0
  1 29  1  0
  1 30  1  0
  4 31  1  0
  5 32  1  0
  6 33  1  0
  9 34  1  0
  9 35  1  0
 10 36  1  0
 10 37  1  0
 12 38  1  0
 12 39  1  0
 13 40  1  0
 13 41  1  0
 14 42  1  0
 14 43  1  0
 20 44  1  0
 21 45  1  0
 22 46  1  0
 23 47  1  0
 25 48  1  0
 25 49  1  0
 26 50  1  0
 26 51  1  0
 27 52  1  0
M  END
>  <UniqueID>  (47) 
44

>  <SMILES>  (47) 
COc1cccc(N2CCN(CCCn3c(=O)oc4ccccc43)CC2)c1

>  <Energy>  (47) 
110.09990471521503

>  <Genealogy>  (47) 
COc1cccc(N2CCN(CCCn3c(=O)oc4ccccc43)CC2)c1 (3D coordinates assigned)
COc1cccc(N2CCN(CCCn3c(=O)oc4ccccc43)CC2)c1 (nonaromatic ring conformer: 110.09990471521503 kcal/mol)

>  <smiles>  (47) 
COc1cccc(N2CCN(CCCn3c(=O)oc4ccccc43)CC2)c1

>  <score_type>  (47) 
oracle

>  <origin>  (47) 
adgpu

>  <m_score__min__energy>  (47) 
-8.4700000000000006

>  <m_primary>  (47) 
energy

$$$$
47:0
     RDKit          3D

 33 34  0  0  0  0  0  0  0  0999 V2000
   -5.7510   25.8770  -30.0800 C   0  0  0  0  0  0  0  0  0  0  0  0
   -5.1830   25.2350  -31.2180 O   0  0  0  0  0  0  0  0  0  0  0  0
   -5.4600   23.9140  -31.6070 C   0  0  0  0  0  0  0  0  0  0  0  0
   -6.7430   23.5130  -32.0270 C   0  0  0  0  0  0  0  0  0  0  0  0
   -6.9810   22.1920  -32.4050 C   0  0  0  0  0  0  0  0  0  0  0  0
   -5.9480   21.2460  -32.3650 C   0  0  0  0  0  0  0  0  0  0  0  0
   -6.1960   19.8460  -32.7760 C   0  0  0  0  0  0  0  0  0  0  0  0
   -5.2750   19.2260  -33.6390 C   0  0  0  0  0  0  0  0  0  0  0  0
   -5.4820   17.9160  -34.0760 C   0  0  0  0  0  0  0  0  0  0  0  0
   -6.6090   17.2080  -33.6560 C   0  0  0  0  0  0  0  0  0  0  0  0
   -6.8710   15.5660  -34.2160 Cl  0  0  0  0  0  0  0  0  0  0  0  0
   -7.5260   17.8050  -32.7870 C   0  0  0  0  0  0  0  0  0  0  0  0
   -7.3240   19.1170  -32.3230 C   0  0  0  0  0  0  0  0  0  0  0  0
   -8.3260   19.7130  -31.3700 C   0  0  0  0  0  0  0  0  0  0  0  0
   -4.6660   21.6440  -31.9590 C   0  0  0  0  0  0  0  0  0  0  0  0
   -4.4170   22.9770  -31.5750 C   0  0  0  0  0  0  0  0  0  0  0  0
   -3.1470   23.4070  -31.1570 O   0  0  0  0  0  0  0  0  0  0  0  0
   -2.2750   22.6530  -30.3210 C   0  0  0  0  0  0  0  0  0  0  0  0
   -5.3483   25.4218  -29.1632 H   0  0  0  0  0  0  0  0  0  0  0  0
   -5.4990   26.9476  -30.0991 H   0  0  0  0  0  0  0  0  0  0  0  0
   -6.8443   25.7573  -30.0991 H   0  0  0  0  0  0  0  0  0  0  0  0
   -7.5624   24.2463  -32.0571 H   0  0  0  0  0  0  0  0  0  0  0  0
   -7.9857   21.8908  -32.7366 H   0  0  0  0  0  0  0  0  0  0  0  0
   -4.3838   19.7777  -33.9727 H   0  0  0  0  0  0  0  0  0  0  0  0
   -4.7557   17.4414  -34.7523 H   0  0  0  0  0  0  0  0  0  0  0  0
   -8.4144   17.2433  -32.4627 H   0  0  0  0  0  0  0  0  0  0  0  0
   -8.0059   19.5226  -30.3350 H   0  0  0  0  0  0  0  0  0  0  0  0
   -8.3929   20.7978  -31.5394 H   0  0  0  0  0  0  0  0  0  0  0  0
   -9.3112   19.2540  -31.5394 H   0  0  0  0  0  0  0  0  0  0  0  0
   -3.8476   20.9093  -31.9401 H   0  0  0  0  0  0  0  0  0  0  0  0
   -2.5110   22.8571  -29.2662 H   0  0  0  0  0  0  0  0  0  0  0  0
   -2.4076   21.5803  -30.5255 H   0  0  0  0  0  0  0  0  0  0  0  0
   -1.2327   22.9391  -30.5255 H   0  0  0  0  0  0  0  0  0  0  0  0
  1  2  1  0
  2  3  1  0
  3  4  2  0
  4  5  1  0
  5  6  2  0
  6  7  1  0
  7  8  2  0
  8  9  1  0
  9 10  2  0
 10 11  1  0
 10 12  1  0
 12 13  2  0
 13 14  1  0
  6 15  1  0
 15 16  2  0
 16 17  1  0
 17 18  1  0
 16  3  1  0
 13  7  1  0
  1 19  1  0
  1 20  1  0
  1 21  1  0
  4 22  1  0
  5 23  1  0
  8 24  1  0
  9 25  1  0
 12 26  1  0
 14 27  1  0
 14 28  1  0
 14 29  1  0
 15 30  1  0
 18 31  1  0
 18 32  1  0
 18 33  1  0
M  END
>  <UniqueID>  (48) 
45

>  <SMILES>  (48) 
COc1ccc(-c2ccc(Cl)cc2C)cc1OC

>  <Energy>  (48) 
39.35357018284959

>  <Genealogy>  (48) 
COc1ccc(-c2ccc(Cl)cc2C)cc1OC (3D coordinates assigned)
COc1ccc(-c2ccc(Cl)cc2C)cc1OC (optimized conformer: 39.35357018284959 kcal/mol)

>  <smiles>  (48) 
COc1ccc(-c2ccc(Cl)cc2C)cc1OC

>  <score_type>  (48) 
oracle

>  <origin>  (48) 
adgpu

>  <m_score__min__energy>  (48) 
-7.4000000000000004

>  <m_primary>  (48) 
energy

$$$$
